drugbank_target|P53420 Collagen alpha-4(IV) chain (DB06356)
 OpenBabel12092120333D

  0  0  0     0  0            999 V3000
M  V30 BEGIN CTAB
M  V30 COUNTS 22749 23212 0 0 0
M  V30 BEGIN ATOM
M  V30 1 H -0.908 1.98254 -0.117106 0
M  V30 2 N 0 1.576 0 0
M  V30 3 C 0.933 2.03868 1.02534 0
M  V30 4 C 1.911 0.928543 1.3348 0
M  V30 5 O 3.095 1.19667 1.45644 0
M  V30 6 C 0.222 2.43627 2.35294 0
M  V30 7 C -0.732 3.65373 2.2001 0
M  V30 8 S 0.101 5.13292 1.52614 0
M  V30 9 C 1.257 5.56322 2.86805 0
M  V30 10 H 1.49 2.90518 0.631377 0
M  V30 11 H -0.977 1.52953 0.210867 0
M  V30 12 H 0.981 2.67203 3.11629 0
M  V30 13 H -0.358 1.57376 2.7183 0
M  V30 14 H -1.165 3.90944 3.18086 0
M  V30 15 H -1.563 3.418 1.51819 0
M  V30 16 H 0.729 5.58782 3.83104 0
M  V30 17 H 1.672 6.56266 2.65933 0
M  V30 18 H 2.08 4.83886 2.90714 0
M  V30 19 N 1.4781 -0.272755 1.55222 0
M  V30 20 C 2.7241 -1.00172 1.77023 0
M  V30 21 C 3.0791 -1.83928 0.564633 0
M  V30 22 O 2.3721 -1.86416 -0.442674 0
M  V30 23 C 2.5661 -1.91642 3.01675 0
M  V30 24 C 2.3951 -1.16888 4.34243 0
M  V30 25 C 1.1651 -0.884464 4.97499 0
M  V30 26 C 3.3631 -0.55919 5.11251 0
M  V30 27 N 1.3451 -0.11015 6.13801 0
M  V30 28 C 2.7161 0.0809469 6.19947 0
M  V30 29 C 4.7711 -0.467058 4.95705 0
M  V30 30 C 3.4741 0.804335 7.14789 0
M  V30 31 C 5.5001 0.242739 5.90902 0
M  V30 32 C 4.8621 0.871613 6.98987 0
M  V30 33 H 0.9611 -0.348529 0.700037 0
M  V30 34 H 3.5451 -0.277365 1.92714 0
M  V30 35 H 1.7161 -2.61303 2.87359 0
M  V30 36 H 3.4481 -2.57901 3.1188 0
M  V30 37 H 0.2031 -1.18979 4.58411 0
M  V30 38 H 0.6271 0.264344 6.76484 0
M  V30 39 H 5.2691 -0.93894 4.12242 0
M  V30 40 H 2.9871 1.2879 7.97771 0
M  V30 41 H 6.5731 0.314347 5.8095 0
M  V30 42 H 5.4531 1.4121 7.71381 0
M  V30 43 N 2.9562 -1.48159 -0.537278 0
M  V30 44 C 4.1812 -1.59707 -1.32319 0
M  V30 45 C 4.6062 -0.254859 -1.86365 0
M  V30 46 O 3.9642 0.772378 -1.64024 0
M  V30 47 C 4.0122 -2.6412 -2.45505 0
M  V30 48 O 3.1162 -2.20774 -3.48328 0
M  V30 49 H 2.4572 -0.535791 -0.392204 0
M  V30 50 H 4.9872 -1.94092 -0.647268 0
M  V30 51 H 4.9972 -2.85166 -2.91795 0
M  V30 52 H 3.6722 -3.61567 -2.05528 0
M  V30 53 H 2.2492 -2.09911 -3.08207 0
M  V30 54 N 4.4343 0.785586 -1.36625 0
M  V30 55 C 5.3643 1.91259 -1.33949 0
M  V30 56 C 6.3453 1.68795 -0.210325 0
M  V30 57 O 7.5303 1.89854 -0.408561 0
M  V30 58 C 4.6603 3.28339 -1.13186 0
M  V30 59 C 3.6143 3.65335 -2.22967 0
M  V30 60 C 2.9403 5.00806 -1.87342 0
M  V30 61 C 4.2403 3.7352 -3.65075 0
M  V30 62 H 5.9343 1.93755 -2.28253 0
M  V30 63 H 3.4803 0.930788 -1.09874 0
M  V30 64 H 5.4333 4.06804 -1.09948 0
M  V30 65 H 4.1573 3.2624 -0.153332 0
M  V30 66 H 2.8163 2.89169 -2.25337 0
M  V30 67 H 2.4643 4.95233 -0.880545 0
M  V30 68 H 2.1643 5.26529 -2.60846 0
M  V30 69 H 3.6883 5.81687 -1.85667 0
M  V30 70 H 5.1023 4.42168 -3.64911 0
M  V30 71 H 3.4993 4.10731 -4.37516 0
M  V30 72 H 4.5693 2.74527 -3.99703 0
M  V30 73 N 5.9124 1.20967 1.01018 0
M  V30 74 C 6.8624 0.93182 2.08089 0
M  V30 75 C 7.8464 -0.110898 1.60517 0
M  V30 76 O 9.0384 0.0973392 1.76732 0
M  V30 77 C 6.1674 0.492719 3.39746 0
M  V30 78 C 5.2534 1.56922 3.94 0
M  V30 79 N 5.6444 2.79312 4.21686 0
M  V30 80 C 3.9424 1.43688 4.2222 0
M  V30 81 C 4.6434 3.48797 4.65527 0
M  V30 82 N 3.6194 2.76224 4.68189 0
M  V30 83 H 7.4214 1.86175 2.27412 0
M  V30 84 H 4.9354 1.10463 1.19045 0
M  V30 85 H 6.9324 0.275044 4.15992 0
M  V30 86 H 5.5924 -0.430509 3.21833 0
M  V30 87 H 6.6034 3.15903 4.10397 0
M  V30 88 H 3.2804 0.578548 4.13472 0
M  V30 89 H 4.6704 4.53561 4.95714 0
M  V30 90 N 7.3905 -1.2043 1.01659 0
M  V30 91 C 8.6395 -1.89118 0.701237 0
M  V30 92 C 8.9525 -1.79705 -0.772358 0
M  V30 93 O 10.1585 -2.43528 -1.20026 0
M  V30 94 C 8.6145 -3.39168 1.20388 0
M  V30 95 C 8.2225 -3.57166 2.70438 0
M  V30 96 C 9.9665 -4.1341 0.963953 0
M  V30 97 C 7.8735 -5.01042 3.14183 0
M  V30 98 H 6.8035 -0.708267 0.2586 0
M  V30 99 H 9.4545 -1.36239 1.22927 0
M  V30 100 H 7.8365 -3.91369 0.603824 0
M  V30 101 H 9.0105 -3.15351 3.35992 0
M  V30 102 H 7.3255 -2.96294 2.92572 0
M  V30 103 H 9.9225 -5.19491 1.26621 0
M  V30 104 H 10.2655 -4.16181 -0.099578 0
M  V30 105 H 10.7985 -3.67309 1.52738 0
M  V30 106 H 7.5375 -5.03426 4.19812 0
M  V30 107 H 7.0575 -5.43668 2.53348 0
M  V30 108 H 8.7365 -5.69623 3.0682 0
M  V30 109 N 8.8686 -0.792821 -1.36206 0
M  V30 110 C 10.1146 -0.36733 -1.99446 0
M  V30 111 C 10.4476 1.05917 -1.62774 0
M  V30 112 O 9.7226 1.7324 -0.88421 0
M  V30 113 C 10.0056 -0.535044 -3.56103 0
M  V30 114 C 9.8586 -2.00548 -4.02617 0
M  V30 115 C 11.1776 0.0478191 -4.40074 0
M  V30 116 H 8.2966 -0.134941 -0.724541 0
M  V30 117 H 10.9386 -0.999794 -1.61568 0
M  V30 118 H 9.0886 0.00336329 -3.885 0
M  V30 119 H 10.7606 -2.60521 -3.80692 0
M  V30 120 H 9.0036 -2.50686 -3.54032 0
M  V30 121 H 9.6746 -2.07377 -5.11565 0
M  V30 122 H 12.1506 -0.411822 -4.14057 0
M  V30 123 H 11.0266 -0.0995336 -5.4881 0
M  V30 124 H 11.2876 1.14025 -4.27142 0
M  V30 125 N 10.3467 1.47872 -0.545128 0
M  V30 126 C 11.2767 2.32661 0.197793 0
M  V30 127 C 12.2577 1.43041 0.920504 0
M  V30 128 O 13.4427 1.71912 0.90333 0
M  V30 129 C 10.5727 3.24569 1.23582 0
M  V30 130 C 9.5267 4.23333 0.630323 0
M  V30 131 C 8.8527 5.0448 1.77211 0
M  V30 132 C 10.1527 5.20704 -0.407974 0
M  V30 133 H 11.8467 2.95024 -0.510045 0
M  V30 134 H 9.3927 1.4187 -0.246731 0
M  V30 135 H 11.3457 3.8272 1.76362 0
M  V30 136 H 10.0697 2.60236 1.97344 0
M  V30 137 H 8.7287 3.6639 0.123922 0
M  V30 138 H 8.3767 4.36561 2.49847 0
M  V30 139 H 8.0767 5.71339 1.37281 0
M  V30 140 H 9.6007 5.65487 2.3034 0
M  V30 141 H 11.0147 5.7329 0.033305 0
M  V30 142 H 9.4117 5.95699 -0.725486 0
M  V30 143 H 10.4817 4.66917 -1.30828 0
M  V30 144 N 11.8248 0.280983 1.55075 0
M  V30 145 C 12.7578 -0.645439 2.18882 0
M  V30 146 C 13.7358 -1.14786 1.15165 0
M  V30 147 O 14.9198 -1.21975 1.43716 0
M  V30 148 C 12.0468 -1.88088 2.81674 0
M  V30 149 C 11.0928 -1.51343 3.98745 0
M  V30 150 S 11.9258 -0.586548 5.32278 0
M  V30 151 C 13.0818 -1.83024 5.98543 0
M  V30 152 H 13.3148 -0.1033 2.9712 0
M  V30 153 H 10.8478 0.0652099 1.54262 0
M  V30 154 H 12.8058 -2.58997 3.18482 0
M  V30 155 H 11.4668 -2.39417 2.03318 0
M  V30 156 H 10.6598 -2.43289 4.41392 0
M  V30 157 H 10.2618 -0.884477 3.63391 0
M  V30 158 H 12.5538 -2.77342 6.18133 0
M  V30 159 H 13.4968 -1.44668 6.93164 0
M  V30 160 H 13.9048 -1.99785 5.27964 0
M  V30 161 N 13.3029 -1.57598 0.00835791 0
M  V30 162 C 14.7189 -1.55764 -0.347822 0
M  V30 163 C 14.9189 -1.01186 -1.74252 0
M  V30 164 O 13.9749 -0.649371 -2.44007 0
M  V30 165 C 15.2879 -2.99927 -0.215407 0
M  V30 166 C 16.8359 -3.11656 -0.289725 0
M  V30 167 C 17.3109 -4.57621 -0.18634 0
M  V30 168 N 18.8019 -4.62557 -0.243978 0
M  V30 169 C 19.5369 -5.73094 -0.18745 0
M  V30 170 N 19.0329 -6.92753 -0.0810331 0
M  V30 171 N 20.8259 -5.61588 -0.239925 0
M  V30 172 H 12.9769 -1.91411 0.92062 0
M  V30 173 H 15.2399 -0.879562 0.353659 0
M  V30 174 H 14.9459 -3.43729 0.744512 0
M  V30 175 H 14.8199 -3.63865 -0.994097 0
M  V30 176 H 17.2069 -2.67779 -1.24009 0
M  V30 177 H 17.2879 -2.5048 0.51898 0
M  V30 178 H 16.9319 -5.02174 0.760519 0
M  V30 179 H 16.8619 -5.16752 -1.01364 0
M  V30 180 H 19.3529 -3.76481 -0.327217 0
M  V30 181 H 19.6659 -7.72787 -0.0440241 0
M  V30 182 H 18.0109 -6.94984 -0.0465419 0
M  V30 183 H 21.2019 -4.66996 -0.321317 0
M  V30 184 H 21.3749 -6.47714 -0.192407 0
M  V30 185 N 14.781 0.264519 -1.55364 0
M  V30 186 C 16.021 1.00254 -1.78125 0
M  V30 187 C 16.385 1.83187 -0.575017 0
M  V30 188 O 17.586 2.60029 -0.681042 0
M  V30 189 C 15.857 1.85478 -3.05504 0
M  V30 190 S 17.416 2.6543 -3.49417 0
M  V30 191 H 14.234 0.337522 -0.625779 0
M  V30 192 H 16.836 0.272111 -1.93597 0
M  V30 193 H 15.54 1.23491 -3.9138 0
M  V30 194 H 15.071 2.62827 -2.92721 0
M  V30 195 H 17.086 3.87958 -3.09359 0
M  V30 196 N 16.2591 1.48442 0.529413 0
M  V30 197 C 17.4841 1.60406 1.31471 0
M  V30 198 C 17.9091 0.264738 1.86228 0
M  V30 199 O 17.2671 -0.763668 1.64432 0
M  V30 200 C 17.3151 2.65419 2.44101 0
M  V30 201 O 16.4191 2.22618 3.47153 0
M  V30 202 H 15.7601 0.537863 0.389357 0
M  V30 203 H 18.2901 1.94432 0.636965 0
M  V30 204 H 18.3001 2.86709 2.90279 0
M  V30 205 H 16.9751 3.62652 2.03608 0
M  V30 206 H 15.5521 2.11543 3.0709 0
M  V30 207 N 17.7372 -0.778329 1.37039 0
M  V30 208 C 18.9842 -1.53665 1.31884 0
M  V30 209 C 19.3122 -1.9425 -0.0986303 0
M  V30 210 O 18.5672 -1.63832 -1.07041 0
M  V30 211 C 18.8662 -2.81845 2.19768 0
M  V30 212 C 18.5322 -2.60345 3.68146 0
M  V30 213 C 17.1942 -2.5419 4.08584 0
M  V30 214 C 19.5462 -2.40923 4.62175 0
M  V30 215 C 16.8742 -2.26594 5.41177 0
M  V30 216 C 19.2262 -2.14852 5.94997 0
M  V30 217 C 17.8902 -2.07137 6.34547 0
M  V30 218 H 17.1602 -0.562299 0.482598 0
M  V30 219 H 19.8072 -0.897069 1.69189 0
M  V30 220 H 18.1122 -3.50328 1.75436 0
M  V30 221 H 19.8092 -3.39692 2.13097 0
M  V30 222 H 16.3992 -2.65996 3.36072 0
M  V30 223 H 20.5832 -2.44673 4.31797 0
M  V30 224 H 15.8392 -2.19111 5.70789 0
M  V30 225 H 20.0132 -1.98822 6.67415 0
M  V30 226 H 17.6402 -1.85518 7.37216 0
M  V30 227 N 19.2153 -1.21501 -1.00376 0
M  V30 228 C 20.6313 -0.972629 -1.26539 0
M  V30 229 C 20.8313 0.340257 -1.98606 0
M  V30 230 O 19.8873 1.06561 -2.28913 0
M  V30 231 C 21.2003 -2.16404 -2.08781 0
M  V30 232 C 22.7483 -2.20643 -2.22004 0
M  V30 233 C 23.2233 -3.39306 -3.07629 0
M  V30 234 N 24.7143 -3.39401 -3.15217 0
M  V30 235 C 25.4493 -4.27867 -3.81729 0
M  V30 236 N 24.9453 -5.26533 -4.5026 0
M  V30 237 N 26.7383 -4.15672 -3.78382 0
M  V30 238 H 18.8893 -2.05929 -0.520281 0
M  V30 239 H 21.1523 -0.901803 -0.292328 0
M  V30 240 H 20.8583 -3.11554 -1.63178 0
M  V30 241 H 20.7323 -2.15567 -3.09533 0
M  V30 242 H 23.1193 -1.26048 -2.66825 0
M  V30 243 H 23.2003 -2.25523 -1.20718 0
M  V30 244 H 22.8443 -4.34195 -2.63509 0
M  V30 245 H 22.7743 -3.31665 -4.09031 0
M  V30 246 H 25.2653 -2.67997 -2.66432 0
M  V30 247 H 25.5783 -5.90337 -4.98721 0
M  V30 248 H 23.9233 -5.30457 -4.49044 0
M  V30 249 H 27.1143 -3.3785 -3.23998 0
M  V30 250 H 27.2873 -4.84825 -4.2994 0
M  V30 251 N 20.6934 1.19889 -1.02296 0
M  V30 252 C 21.6234 2.25141 -0.619174 0
M  V30 253 C 22.6044 1.66051 0.368915 0
M  V30 254 O 23.7894 1.92546 0.252941 0
M  V30 255 C 20.9194 3.4728 0.0368783 0
M  V30 256 C 19.8734 4.19005 -0.872865 0
M  V30 257 C 19.1994 5.34637 -0.0822402 0
M  V30 258 C 20.4994 4.74452 -2.18387 0
M  V30 259 H 22.1934 2.59171 -1.49903 0
M  V30 260 H 19.7394 1.24579 -0.722222 0
M  V30 261 H 21.6924 4.20098 0.330958 0
M  V30 262 H 20.4164 3.12433 0.95149 0
M  V30 263 H 19.0754 3.48061 -1.15105 0
M  V30 264 H 18.7234 4.96034 0.83422 0
M  V30 265 H 18.4234 5.83557 -0.688149 0
M  V30 266 H 19.9474 6.10255 0.205238 0
M  V30 267 H 21.3614 5.39055 -1.95172 0
M  V30 268 H 19.7584 5.33834 -2.74119 0
M  V30 269 H 20.8284 3.92844 -2.84257 0
M  V30 270 N 22.1715 0.800033 1.35784 0
M  V30 271 C 23.3995 0.389606 2.03199 0
M  V30 272 C 23.8145 -0.997375 1.60306 0
M  V30 273 O 23.1715 -1.64154 0.797481 0
M  V30 274 C 23.2225 0.455855 3.58614 0
M  V30 275 O 22.9435 1.78815 3.99946 0
M  V30 276 C 24.4445 0.0374032 4.43284 0
M  V30 277 H 21.6645 0.159132 0.651857 0
M  V30 278 H 24.2085 1.08183 1.73541 0
M  V30 279 H 22.3635 -0.188057 3.86943 0
M  V30 280 H 22.7775 1.74636 4.94573 0
M  V30 281 H 24.2515 0.134882 5.51835 0
M  V30 282 H 24.7285 -1.01651 4.27275 0
M  V30 283 H 25.3345 0.654215 4.20238 0
M  V30 284 N 23.6496 -1.47581 0.552962 0
M  V30 285 C 24.5966 -2.29957 -0.197108 0
M  V30 286 C 25.5666 -1.38799 -0.912359 0
M  V30 287 O 26.7516 -1.67761 -0.908888 0
M  V30 288 C 23.8916 -3.22672 -1.22379 0
M  V30 289 C 23.0046 -4.28919 -0.515038 0
M  V30 290 C 22.1396 -5.0879 -1.52664 0
M  V30 291 C 21.1786 -6.06815 -0.802631 0
M  V30 292 N 20.3156 -6.7966 -1.76086 0
M  V30 293 H 25.1556 -2.93578 0.511486 0
M  V30 294 H 22.6926 -1.4471 0.264067 0
M  V30 295 H 24.6506 -3.74845 -1.83159 0
M  V30 296 H 23.2806 -2.60925 -1.90047 0
M  V30 297 H 22.3326 -3.79835 0.207192 0
M  V30 298 H 23.6446 -4.98773 0.0523425 0
M  V30 299 H 22.7986 -5.65091 -2.20809 0
M  V30 300 H 21.5376 -4.38828 -2.12794 0
M  V30 301 H 20.5426 -5.49695 -0.107238 0
M  V30 302 H 21.7676 -6.78784 -0.207135 0
M  V30 303 H 19.7136 -6.12432 -2.35081 0
M  V30 304 H 19.6306 -7.45669 -1.24552 0
M  V30 305 H 20.8986 -7.40538 -2.43359 0
M  V30 306 N 25.1277 -0.289203 -1.54924 0
M  V30 307 C 26.3527 0.329299 -2.04769 0
M  V30 308 C 26.7777 1.4763 -1.16564 0
M  V30 309 O 26.1357 1.80527 -0.167186 0
M  V30 310 C 26.1837 0.774438 -3.52186 0
M  V30 311 O 25.2877 1.88038 -3.67036 0
M  V30 312 H 24.6287 0.0659259 -0.660719 0
M  V30 313 H 27.1587 -0.42761 -2.00082 0
M  V30 314 H 27.1687 1.06642 -3.93816 0
M  V30 315 H 25.8437 -0.0646707 -4.1585 0
M  V30 316 H 24.4207 1.58985 -3.3731 0
M  V30 317 N 26.6058 1.57591 -0.0167156 0
M  V30 318 C 27.5358 2.12496 0.967858 0
M  V30 319 C 28.5168 1.03807 1.34752 0
M  V30 320 O 29.7018 1.31577 1.42833 0
M  V30 321 C 26.8318 2.64194 2.25431 0
M  V30 322 C 25.7858 3.77559 2.01576 0
M  V30 323 C 25.1118 4.15636 3.36379 0
M  V30 324 C 26.4118 5.04151 1.36489 0
M  V30 325 H 28.1058 2.95013 0.510643 0
M  V30 326 H 25.6518 1.41915 0.244181 0
M  V30 327 H 27.6048 3.01236 2.94678 0
M  V30 328 H 26.3288 1.78821 2.73296 0
M  V30 329 H 24.9878 3.40937 1.34751 0
M  V30 330 H 24.6358 3.27263 3.81979 0
M  V30 331 H 24.3358 4.92022 3.21229 0
M  V30 332 H 25.8598 4.5525 4.06915 0
M  V30 333 H 27.2738 5.38857 1.95718 0
M  V30 334 H 25.6708 5.85453 1.31776 0
M  V30 335 H 26.7408 4.83733 0.336219 0
M  V30 336 N 28.0839 -0.256276 1.55502 0
M  V30 337 C 29.0469 -1.30047 1.88734 0
M  V30 338 C 30.0469 -1.4154 0.763086 0
M  V30 339 O 31.2369 -1.40403 1.03115 0
M  V30 340 C 28.3689 -2.67953 2.10747 0
M  V30 341 H 29.5619 -1.01802 2.82093 0
M  V30 342 H 27.1149 -0.495134 1.4825 0
M  V30 343 H 27.8499 -3.01351 1.19825 0
M  V30 344 H 27.6349 -2.60993 2.92617 0
M  V30 345 H 29.1249 -3.43368 2.37673 0
M  V30 346 N 29.562 -1.4872 -0.521534 0
M  V30 347 C 30.79 -1.60843 -1.30142 0
M  V30 348 C 31.205 -0.271897 -1.86832 0
M  V30 349 O 30.562 0.739969 -1.66825 0
M  V30 350 C 30.613 -2.66155 -2.4463 0
M  V30 351 O 30.334 -3.94623 -1.90275 0
M  V30 352 C 31.835 -2.88795 -3.36322 0
M  V30 353 H 29.055 -0.542075 -0.395468 0
M  V30 354 H 31.599 -1.94609 -0.628285 0
M  V30 355 H 29.754 -2.35224 -3.07812 0
M  V30 356 H 30.168 -4.52468 -2.65279 0
M  V30 357 H 31.642 -3.66264 -4.12983 0
M  V30 358 H 32.119 -1.97934 -3.9207 0
M  V30 359 H 32.725 -3.21063 -2.78924 0
M  V30 360 N 31.0401 0.771051 -1.3745 0
M  V30 361 C 32.2881 1.52661 -1.32435 0
M  V30 362 C 32.6091 1.9479 0.0905024 0
M  V30 363 O 31.8791 1.66348 1.03466 0
M  V30 364 H 30.4591 0.566218 -0.487244 0
M  V30 365 H 33.1211 0.917636 -1.71946 0
M  V30 366 H 32.2171 2.42568 -1.96385 0
M  V30 367 N 32.5182 1.22032 0.997298 0
M  V30 368 C 33.9292 1.0397 1.55071 0
M  V30 369 C 34.2802 -0.398192 1.92117 0
M  V30 370 O 33.4052 -1.28254 1.74298 0
M  V30 371 C 34.0002 1.88109 2.81781 0
M  V30 372 C 32.5592 1.74357 3.33581 0
M  V30 373 C 31.7062 1.84846 2.06706 0
M  V30 374 H 34.6572 1.35941 0.818883 0
M  V30 375 H 34.6782 1.39589 3.53971 0
M  V30 376 H 34.1902 2.92754 2.54787 0
M  V30 377 H 32.2912 0.72427 3.65493 0
M  V30 378 H 32.4042 2.56772 4.04481 0
M  V30 379 H 30.7682 1.28238 2.20062 0
M  V30 380 H 31.5512 2.91014 1.82114 0
M  V30 381 N 33.9963 -1.19345 1.0293 0
M  V30 382 C 35.2423 -1.89585 0.736824 0
M  V30 383 C 35.5973 -1.78148 -0.726703 0
M  V30 384 O 34.8903 -1.16332 -1.52242 0
M  V30 385 C 35.0843 -3.39292 1.12319 0
M  V30 386 C 34.9133 -3.65298 2.62273 0
M  V30 387 C 33.6833 -3.83304 3.29251 0
M  V30 388 C 35.8813 -3.6682 3.60482 0
M  V30 389 N 33.8633 -3.96944 4.68304 0
M  V30 390 C 35.2343 -3.86037 4.85155 0
M  V30 391 C 37.2893 -3.49848 3.54275 0
M  V30 392 C 35.9923 -3.9004 6.04369 0
M  V30 393 C 38.0183 -3.55129 4.72903 0
M  V30 394 C 37.3803 -3.74831 5.9639 0
M  V30 395 H 33.4793 -0.712856 0.321497 0
M  V30 396 H 36.0633 -1.43427 1.31669 0
M  V30 397 H 34.2343 -3.84172 0.571524 0
M  V30 398 H 35.9663 -3.97055 0.78292 0
M  V30 399 H 32.7213 -3.82211 2.79663 0
M  V30 400 H 33.1453 -4.07613 5.40538 0
M  V30 401 H 37.7873 -3.33572 2.59788 0
M  V30 402 H 35.5053 -4.05108 6.99223 0
M  V30 403 H 39.0913 -3.43287 4.69729 0
M  V30 404 H 37.9713 -3.78792 6.86649 0
M  V30 405 N 35.4744 -0.807222 -1.35358 0
M  V30 406 C 36.6994 -0.399309 -2.0352 0
M  V30 407 C 37.1244 0.981986 -1.60433 0
M  V30 408 O 36.4824 1.63601 -0.781299 0
M  V30 409 C 36.5304 -0.491552 -3.57234 0
M  V30 410 O 35.6344 0.494754 -4.09421 0
M  V30 411 H 34.9754 -0.166682 -0.642739 0
M  V30 412 H 37.5054 -1.09328 -1.72941 0
M  V30 413 H 37.5154 -0.361588 -4.06395 0
M  V30 414 H 36.1904 -1.49907 -3.87944 0
M  V30 415 H 34.7674 0.324977 -3.71481 0
M  V30 416 N 36.9525 1.47285 -0.560781 0
M  V30 417 C 37.8825 2.32857 0.173105 0
M  V30 418 C 38.8635 1.44009 0.905281 0
M  V30 419 O 40.0485 1.7286 0.885046 0
M  V30 420 C 37.1785 3.25861 1.20133 0
M  V30 421 C 36.1325 4.23978 0.585388 0
M  V30 422 C 35.4585 5.06332 1.7185 0
M  V30 423 C 36.7585 5.20242 -0.463178 0
M  V30 424 H 38.4525 2.94466 -0.541307 0
M  V30 425 H 35.9985 1.41601 -0.261764 0
M  V30 426 H 37.9515 3.84569 1.72293 0
M  V30 427 H 36.6755 2.62315 1.94573 0
M  V30 428 H 35.3345 3.66501 0.085054 0
M  V30 429 H 34.9825 4.39186 2.45203 0
M  V30 430 H 34.6825 5.72762 1.31213 0
M  V30 431 H 36.2065 5.67899 2.24329 0
M  V30 432 H 37.6205 5.73293 -0.027502 0
M  V30 433 H 36.0175 5.94896 -0.788627 0
M  V30 434 H 37.0875 4.65504 -1.35773 0
M  V30 435 N 38.4306 0.297415 1.54768 0
M  V30 436 C 39.6796 -0.313669 1.99246 0
M  V30 437 C 39.9926 -1.55281 1.18942 0
M  V30 438 O 41.1986 -2.23825 1.5367 0
M  V30 439 C 39.6546 -0.609407 3.54703 0
M  V30 440 C 39.2626 0.611192 4.43811 0
M  V30 441 C 41.0066 -1.18188 4.07715 0
M  V30 442 C 38.9136 0.288805 5.90694 0
M  V30 443 H 37.8436 -0.120979 0.744231 0
M  V30 444 H 40.4946 0.40556 1.78962 0
M  V30 445 H 38.8766 -1.38813 3.70873 0
M  V30 446 H 40.0506 1.3875 4.39414 0
M  V30 447 H 38.3656 1.10205 4.01552 0
M  V30 448 H 40.9626 -1.43727 5.15021 0
M  V30 449 H 41.3056 -2.12299 3.58099 0
M  V30 450 H 41.8386 -0.464944 3.95074 0
M  V30 451 H 38.5776 1.19838 6.44453 0
M  V30 452 H 38.0976 -0.450305 5.98107 0
M  V30 453 H 39.7766 -0.110933 6.46905 0
M  V30 454 N 39.9087 -1.5758 0.0250728 0
M  V30 455 C 40.8387 -2.13007 -0.956575 0
M  V30 456 C 41.8197 -1.0452 -1.342 0
M  V30 457 O 43.0047 -1.32332 -1.42133 0
M  V30 458 C 40.1347 -2.65386 -2.24026 0
M  V30 459 C 39.0887 -3.78623 -1.99571 0
M  V30 460 C 38.4147 -4.17414 -3.3417 0
M  V30 461 C 39.7147 -5.04867 -1.33814 0
M  V30 462 H 41.4087 -2.9528 -0.494991 0
M  V30 463 H 38.9547 -1.42042 -0.236651 0
M  V30 464 H 40.9077 -3.02794 -2.93076 0
M  V30 465 H 39.6317 -1.80268 -2.72343 0
M  V30 466 H 38.2907 -3.41646 -1.32941 0
M  V30 467 H 37.9387 -3.29284 -3.80238 0
M  V30 468 H 37.6387 -4.93719 -3.18615 0
M  V30 469 H 39.1627 -4.57402 -4.04495 0
M  V30 470 H 40.5767 -5.39888 -1.92857 0
M  V30 471 H 38.9737 -5.86144 -1.28669 0
M  V30 472 H 40.0437 -4.83904 -0.310561 0
M  V30 473 N 41.3868 0.248026 -1.55636 0
M  V30 474 C 42.6358 0.974134 -1.76617 0
M  V30 475 C 42.9488 1.86528 -0.588796 0
M  V30 476 O 44.1548 2.62805 -0.681594 0
M  V30 477 C 42.6108 1.78213 -3.12679 0
M  V30 478 C 42.2188 0.93843 -4.38061 0
M  V30 479 C 43.9628 2.50104 -3.42999 0
M  V30 480 C 41.8698 1.74225 -5.65155 0
M  V30 481 H 40.7998 0.36745 -0.658405 0
M  V30 482 H 43.4508 0.22884 -1.82067 0
M  V30 483 H 41.8328 2.56933 -3.01333 0
M  V30 484 H 43.0068 0.193635 -4.60393 0
M  V30 485 H 41.3218 0.332905 -4.15067 0
M  V30 486 H 43.9188 3.10694 -4.3517 0
M  V30 487 H 44.2618 3.21662 -2.64271 0
M  V30 488 H 44.7948 1.78395 -3.55556 0
M  V30 489 H 41.5338 1.07043 -6.46701 0
M  V30 490 H 41.0538 2.46235 -5.46926 0
M  V30 491 H 42.7328 2.30967 -6.0437 0
M  V30 492 N 42.8649 1.48995 0.513639 0
M  V30 493 C 43.7949 1.67636 1.62544 0
M  V30 494 C 44.7759 0.525087 1.61793 0
M  V30 495 O 45.9609 0.759502 1.78732 0
M  V30 496 C 43.0909 1.73114 3.01079 0
M  V30 497 C 42.0449 2.87905 3.16693 0
M  V30 498 C 41.3709 2.78486 4.56453 0
M  V30 499 C 42.6709 4.29005 2.97913 0
M  V30 500 H 44.3649 2.60716 1.47198 0
M  V30 501 H 41.9109 1.25465 0.706714 0
M  V30 502 H 43.8639 1.84742 3.78746 0
M  V30 503 H 42.5879 0.766241 3.17484 0
M  V30 504 H 41.2469 2.75859 2.41448 0
M  V30 505 H 40.8949 1.7993 4.69717 0
M  V30 506 H 40.5949 3.55523 4.67843 0
M  V30 507 H 42.1189 2.92104 5.36197 0
M  V30 508 H 43.5329 4.41798 3.65359 0
M  V30 509 H 41.9299 5.07166 3.20785 0
M  V30 510 H 42.9999 4.44329 1.94165 0
M  V30 511 N 44.343 -0.763751 1.37857 0
M  V30 512 C 45.59 -1.52257 1.33506 0
M  V30 513 C 45.918 -1.94343 -0.078022 0
M  V30 514 O 45.173 -1.64958 -1.05297 0
M  V30 515 C 45.472 -2.79499 2.22745 0
M  V30 516 C 45.138 -2.56426 3.70886 0
M  V30 517 C 43.8 -2.49842 4.11257 0
M  V30 518 C 46.152 -2.36008 4.64704 0
M  V30 519 C 43.48 -2.20841 5.43549 0
M  V30 520 C 45.832 -2.0853 5.97242 0
M  V30 521 C 44.496 -2.00396 6.36709 0
M  V30 522 H 43.766 -0.557149 0.488534 0
M  V30 523 H 46.413 -0.879073 1.70131 0
M  V30 524 H 44.718 -3.48447 1.79142 0
M  V30 525 H 46.415 -3.37413 2.16688 0
M  V30 526 H 43.005 -2.62416 3.38874 0
M  V30 527 H 47.189 -2.40079 4.34368 0
M  V30 528 H 42.445 -2.13045 5.73081 0
M  V30 529 H 46.619 -1.91732 6.69486 0
M  V30 530 H 44.246 -1.77688 7.39142 0
M  V30 531 N 45.8211 -1.22559 -0.990812 0
M  V30 532 C 47.0461 -1.07862 -1.77145 0
M  V30 533 C 47.4711 0.366447 -1.84496 0
M  V30 534 O 46.8291 1.26478 -1.29896 0
M  V30 535 C 46.8771 -1.69686 -3.18181 0
M  V30 536 O 45.9811 -0.951946 -4.01263 0
M  V30 537 H 45.3221 -0.378712 -0.545411 0
M  V30 538 H 47.8521 -1.62399 -1.2445 0
M  V30 539 H 47.8621 -1.74496 -3.68802 0
M  V30 540 H 46.5371 -2.74841 -3.12146 0
M  V30 541 H 45.1141 -0.980011 -3.59792 0
M  V30 542 N 47.2992 1.18797 -1.03562 0
M  V30 543 C 48.5452 1.8893 -0.737113 0
M  V30 544 C 48.8782 1.79837 0.732956 0
M  V30 545 O 48.1532 1.19525 1.5344 0
M  V30 546 C 48.4362 3.39607 -1.19745 0
M  V30 547 C 48.2892 3.57537 -2.72924 0
M  V30 548 C 49.6082 4.33069 -0.783526 0
M  V30 549 H 46.7272 0.686057 -0.269249 0
M  V30 550 H 49.3692 1.39797 -1.28673 0
M  V30 551 H 47.5192 3.81583 -0.729855 0
M  V30 552 H 49.1912 3.24688 -3.27682 0
M  V30 553 H 47.4342 3.00363 -3.12993 0
M  V30 554 H 48.1052 4.63238 -3.00191 0
M  V30 555 H 50.5812 3.98846 -1.18581 0
M  V30 556 H 49.4572 5.3707 -1.13343 0
M  V30 557 H 49.7182 4.40986 0.313681 0
M  V30 558 N 48.7773 0.814389 1.34928 0
M  V30 559 C 49.7093 0.187834 2.28429 0
M  V30 560 C 50.7223 -0.617374 1.5064 0
M  V30 561 O 51.9113 -0.448454 1.72775 0
M  V30 562 C 49.0113 -0.755962 3.30361 0
M  V30 563 C 48.1843 0.00456686 4.374 0
M  V30 564 C 47.2433 -0.858876 5.19143 0
M  V30 565 O 46.2693 -0.306968 5.68372 0
M  V30 566 N 47.4713 -2.17988 5.38016 0
M  V30 567 H 50.2363 0.991105 2.82838 0
M  V30 568 H 47.7973 0.670561 1.4736 0
M  V30 569 H 49.7893 -1.338 3.81942 0
M  V30 570 H 48.3593 -1.46001 2.7641 0
M  V30 571 H 47.5793 0.767865 3.86649 0
M  V30 572 H 48.8673 0.528422 5.06049 0
M  V30 573 H 48.2653 -2.65212 4.99679 0
M  V30 574 H 46.8223 -2.71098 5.92747 0
M  V30 575 N 50.2554 -1.46986 0.568584 0
M  V30 576 C 51.4854 -2.0653 0.0539173 0
M  V30 577 C 51.8934 -1.42004 -1.25026 0
M  V30 578 O 51.2364 -0.514541 -1.76347 0
M  V30 579 C 51.2984 -3.58938 -0.200854 0
M  V30 580 C 50.9624 -4.45572 1.01559 0
M  V30 581 C 51.9594 -4.82986 1.92407 0
M  V30 582 C 49.6444 -4.8692 1.23346 0
M  V30 583 C 51.6384 -5.60559 3.03402 0
M  V30 584 C 49.3254 -5.64255 2.34649 0
M  V30 585 C 50.3234 -6.00986 3.24507 0
M  V30 586 O 50.0114 -6.76761 4.33878 0
M  V30 587 H 49.7434 -0.674292 0.0480234 0
M  V30 588 H 52.2974 -1.89812 0.784896 0
M  V30 589 H 50.5274 -3.73911 -0.986279 0
M  V30 590 H 52.2164 -4.0046 -0.662294 0
M  V30 591 H 52.9824 -4.51633 1.76785 0
M  V30 592 H 48.8614 -4.57789 0.543178 0
M  V30 593 H 52.4054 -5.89147 3.73565 0
M  V30 594 H 48.3024 -5.95021 2.5024 0
M  V30 595 H 49.0704 -6.95168 4.32068 0
M  V30 596 N 51.7335 -0.305618 -1.54608 0
M  V30 597 C 52.9795 0.302746 -2.00528 0
M  V30 598 C 53.3125 1.53184 -1.19367 0
M  V30 599 O 52.5875 1.92598 -0.271321 0
M  V30 600 C 52.8705 0.654756 -3.54097 0
M  V30 601 C 52.7235 -0.583793 -4.45995 0
M  V30 602 C 54.0425 1.47947 -4.14487 0
M  V30 603 H 51.1615 0.108564 -0.72896 0
M  V30 604 H 53.8035 -0.418634 -1.85331 0
M  V30 605 H 51.9535 1.26935 -3.67178 0
M  V30 606 H 53.6255 -1.22224 -4.44814 0
M  V30 607 H 51.8685 -1.21615 -4.16404 0
M  V30 608 H 52.5395 -0.293287 -5.5122 0
M  V30 609 H 55.0155 0.96013 -4.04871 0
M  V30 610 H 53.8915 1.69454 -5.22088 0
M  V30 611 H 54.1525 2.47011 -3.66658 0
M  V30 612 N 53.2116 1.57565 -0.0334293 0
M  V30 613 C 54.4416 1.95996 0.653398 0
M  V30 614 C 54.8496 0.908749 1.65947 0
M  V30 615 O 54.1926 -0.117471 1.83324 0
M  V30 616 C 54.2546 3.30589 1.41249 0
M  V30 617 C 53.9186 4.53503 0.564263 0
M  V30 618 C 54.9156 5.19647 -0.16225 0
M  V30 619 C 52.6006 4.99801 0.500398 0
M  V30 620 C 54.5946 6.30412 -0.941255 0
M  V30 621 C 52.2816 6.10448 -0.282308 0
M  V30 622 C 53.2796 6.75612 -1.00184 0
M  V30 623 O 52.9676 7.84134 -1.77171 0
M  V30 624 H 52.6996 0.65027 0.184728 0
M  V30 625 H 55.2536 2.05199 -0.0907841 0
M  V30 626 H 53.4836 3.17888 2.20191 0
M  V30 627 H 55.1726 3.53892 1.98784 0
M  V30 628 H 55.9386 4.84846 -0.12227 0
M  V30 629 H 51.8176 4.48883 1.05002 0
M  V30 630 H 55.3616 6.81208 -1.50339 0
M  V30 631 H 51.2586 6.44686 -0.323989 0
M  V30 632 H 52.0266 8.00822 -1.69194 0
M  V30 633 N 54.6897 -0.239769 1.55765 0
M  V30 634 C 55.9377 -0.964892 1.77579 0
M  V30 635 C 56.2587 -1.85582 0.598699 0
M  V30 636 O 55.5287 -1.92075 -0.385226 0
M  V30 637 H 54.1087 -0.359265 0.654933 0
M  V30 638 H 56.7707 -0.256001 1.93211 0
M  V30 639 H 55.8667 -1.58243 2.69009 0
M  V30 640 N 56.1678 -1.49265 -0.50573 0
M  V30 641 C 57.3928 -1.62478 -1.28902 0
M  V30 642 C 57.8178 -0.294332 -1.85783 0
M  V30 643 O 57.1758 0.737412 -1.65626 0
M  V30 644 C 57.2238 -2.69268 -2.39848 0
M  V30 645 O 56.3278 -2.28113 -3.43567 0
M  V30 646 H 55.6688 -0.54399 -0.380751 0
M  V30 647 H 58.1988 -1.95421 -0.605952 0
M  V30 648 H 58.2088 -2.91291 -2.85681 0
M  V30 649 H 56.8838 -3.65846 -1.97812 0
M  V30 650 H 55.4608 -2.16401 -3.03685 0
M  V30 651 N 57.6459 0.756429 -1.3826 0
M  V30 652 C 58.8939 1.51248 -1.34047 0
M  V30 653 C 59.2149 1.94875 0.0698372 0
M  V30 654 O 58.4849 1.67436 1.01696 0
M  V30 655 H 57.0649 0.561018 -0.493222 0
M  V30 656 H 59.7269 0.899347 -1.7291 0
M  V30 657 H 58.8229 2.40472 -1.98947 0
M  V30 658 N 59.124 1.23083 0.984299 0
M  V30 659 C 60.071 1.00854 2.07598 0
M  V30 660 C 61.041 -0.0726709 1.65941 0
M  V30 661 O 62.226 0.0786535 1.90638 0
M  V30 662 C 59.366 0.601645 3.39815 0
M  V30 663 C 58.479 1.75456 3.94765 0
M  V30 664 C 57.614 1.29482 5.15177 0
M  V30 665 C 56.653 2.41873 5.62284 0
M  V30 666 N 55.79 1.96885 6.73929 0
M  V30 667 H 60.63 1.943 2.25946 0
M  V30 668 H 58.167 0.968001 1.10762 0
M  V30 669 H 60.125 0.346854 4.15756 0
M  V30 670 H 58.755 -0.295803 3.21442 0
M  V30 671 H 57.807 2.12346 3.15616 0
M  V30 672 H 59.119 2.59965 4.25699 0
M  V30 673 H 58.273 0.997923 5.98437 0
M  V30 674 H 57.012 0.420046 4.85888 0
M  V30 675 H 56.017 2.72342 4.77608 0
M  V30 676 H 57.242 3.29881 5.93595 0
M  V30 677 H 55.188 1.11782 6.46406 0
M  V30 678 H 55.105 2.74956 7.04227 0
M  V30 679 H 56.373 1.70289 7.60672 0
M  V30 680 N 60.6021 -1.18246 1.0419 0
M  V30 681 C 61.5491 -2.2192 0.634037 0
M  V30 682 C 62.5191 -1.62179 -0.358765 0
M  V30 683 O 63.7041 -1.89122 -0.252466 0
M  V30 684 C 60.8441 -3.451 0.00445535 0
M  V30 685 C 59.9571 -4.19174 1.04487 0
M  V30 686 C 59.0921 -5.29813 0.383676 0
M  V30 687 C 58.1311 -5.9566 1.4091 0
M  V30 688 N 57.2681 -6.97834 0.772784 0
M  V30 689 H 62.1081 -2.56164 1.52263 0
M  V30 690 H 59.6451 -1.25843 0.761701 0
M  V30 691 H 61.6031 -4.15485 -0.377919 0
M  V30 692 H 60.2331 -3.11472 -0.847652 0
M  V30 693 H 59.2851 -3.47604 1.54518 0
M  V30 694 H 60.5971 -4.64267 1.82368 0
M  V30 695 H 59.7511 -6.06677 -0.0528366 0
M  V30 696 H 58.4901 -4.85825 -0.427208 0
M  V30 697 H 57.4951 -5.17535 1.85574 0
M  V30 698 H 58.7201 -6.4173 2.22171 0
M  V30 699 H 56.6661 -6.55998 -0.0177708 0
M  V30 700 H 56.5831 -7.41186 1.48928 0
M  V30 701 H 57.8511 -7.78665 0.36071 0
M  V30 702 N 62.0802 -0.821533 -1.34494 0
M  V30 703 C 63.3102 -0.421272 -2.02259 0
M  V30 704 C 63.7182 0.977047 -1.6202 0
M  V30 705 O 63.0612 1.64348 -0.820703 0
M  V30 706 C 63.1232 -0.44231 -3.56769 0
M  V30 707 C 62.7872 -1.79372 -4.20327 0
M  V30 708 C 63.7842 -2.75435 -4.40944 0
M  V30 709 C 61.4692 -2.08182 -4.57127 0
M  V30 710 C 63.4632 -3.98482 -4.97484 0
M  V30 711 C 61.1502 -3.31489 -5.13379 0
M  V30 712 C 62.1482 -4.26457 -5.33501 0
M  V30 713 O 61.8362 -5.47585 -5.88562 0
M  V30 714 H 61.5682 -0.167473 -0.654927 0
M  V30 715 H 64.1222 -1.11073 -1.72777 0
M  V30 716 H 62.3522 0.303836 -3.85505 0
M  V30 717 H 64.0412 -0.0622925 -4.05852 0
M  V30 718 H 64.8072 -2.54473 -4.12878 0
M  V30 719 H 60.6862 -1.35066 -4.4077 0
M  V30 720 H 64.2302 -4.72618 -5.13106 0
M  V30 721 H 60.1272 -3.52316 -5.40873 0
M  V30 722 H 60.8952 -5.49086 -6.06998 0
M  V30 723 N 63.5583 1.46682 -0.576371 0
M  V30 724 C 64.8073 2.01619 -0.0572825 0
M  V30 725 C 65.1203 1.45417 1.30818 0
M  V30 726 O 66.3263 1.92133 1.91825 0
M  V30 727 C 64.7823 3.59863 -0.0518371 0
M  V30 728 C 64.3903 4.25059 -1.41523 0
M  V30 729 C 66.1343 4.2248 0.413639 0
M  V30 730 C 64.0413 5.75364 -1.36785 0
M  V30 731 H 62.9713 0.753794 -0.0176448 0
M  V30 732 H 65.6223 1.68481 -0.727076 0
M  V30 733 H 64.0043 3.90048 0.683994 0
M  V30 734 H 65.1783 4.06491 -2.17029 0
M  V30 735 H 63.4933 3.7451 -1.8202 0
M  V30 736 H 66.0903 5.3265 0.467779 0
M  V30 737 H 66.4333 3.90976 1.42982 0
M  V30 738 H 66.9663 3.96897 -0.267929 0
M  V30 739 H 63.7053 6.11518 -2.36063 0
M  V30 740 H 63.2253 5.96214 -0.654895 0
M  V30 741 H 64.9043 6.37955 -1.07805 0
M  V30 742 N 65.0364 0.313813 1.54444 0
M  V30 743 C 66.2844 -0.291099 1.99993 0
M  V30 744 C 66.6054 -1.53418 1.20366 0
M  V30 745 O 65.8754 -1.93544 0.302927 0
M  V30 746 H 64.4554 -0.110552 0.738774 0
M  V30 747 H 67.1174 0.428106 1.9014 0
M  V30 748 H 66.2134 -0.554268 3.07139 0
M  V30 749 N 66.5145 -1.57545 0.0417849 0
M  V30 750 C 67.9255 -1.80011 -0.495259 0
M  V30 751 C 68.2765 -0.953199 -1.71489 0
M  V30 752 O 67.4015 -0.167138 -2.15754 0
M  V30 753 C 67.9965 -3.26482 -0.905265 0
M  V30 754 C 66.5555 -3.499 -1.38734 0
M  V30 755 C 65.7025 -2.74979 -0.358056 0
M  V30 756 H 68.6535 -1.56425 0.267736 0
M  V30 757 H 68.6745 -3.36887 -1.76882 0
M  V30 758 H 68.1865 -3.88096 -0.017401 0
M  V30 759 H 66.2875 -2.93553 -2.29471 0
M  V30 760 H 66.4005 -4.58615 -1.38598 0
M  V30 761 H 64.7645 -2.40834 -0.828912 0
M  V30 762 H 65.5475 -3.39315 0.521561 0
M  V30 763 N 67.9926 0.231505 -1.5589 0
M  V30 764 C 69.2326 0.964533 -1.80211 0
M  V30 765 C 69.5966 1.81926 -0.613744 0
M  V30 766 O 70.7976 2.58526 -0.736045 0
M  V30 767 C 69.0686 1.78956 -3.09369 0
M  V30 768 S 70.6276 2.57959 -3.54969 0
M  V30 769 H 67.4456 0.324173 -0.632798 0
M  V30 770 H 70.0476 0.230985 -1.94131 0
M  V30 771 H 68.7516 1.15161 -3.93911 0
M  V30 772 H 68.2826 2.56559 -2.9823 0
M  V30 773 H 70.2976 3.81309 -3.17519 0
M  V30 774 N 69.4707 1.49531 0.497807 0
M  V30 775 C 70.7187 1.58865 1.24926 0
M  V30 776 C 71.0397 0.278721 1.92998 0
M  V30 777 O 70.3097 -0.702144 1.82885 0
M  V30 778 H 68.8897 0.585343 0.464094 0
M  V30 779 H 71.5517 1.86174 0.57666 0
M  V30 780 H 70.6477 2.38633 2.01149 0
M  V30 781 N 70.9488 -0.749086 1.3866 0
M  V30 782 C 72.1968 -1.50535 1.34847 0
M  V30 783 C 72.5178 -1.94909 -0.0595016 0
M  V30 784 O 71.7878 -1.67973 -1.00806 0
M  V30 785 H 70.3678 -0.558395 0.49619 0
M  V30 786 H 73.0298 -0.890165 1.73384 0
M  V30 787 H 72.1258 -2.39413 2.00219 0
M  V30 788 N 72.4269 -1.23603 -0.977757 0
M  V30 789 C 73.8429 -0.999251 -1.24447 0
M  V30 790 C 74.0429 0.298053 -1.99283 0
M  V30 791 O 73.0989 1.01681 -2.31122 0
M  V30 792 C 74.4119 -2.20784 -2.04144 0
M  V30 793 C 75.9599 -2.25303 -2.17273 0
M  V30 794 C 76.4349 -3.45755 -3.00362 0
M  V30 795 N 77.9259 -3.4601 -3.07947 0
M  V30 796 C 78.6609 -4.35868 -3.72568 0
M  V30 797 N 78.1569 -5.35966 -4.38991 0
M  V30 798 N 79.9499 -4.23605 -3.6948 0
M  V30 799 H 72.1009 -2.06986 -0.476483 0
M  V30 800 H 74.3639 -0.907801 -0.273134 0
M  V30 801 H 74.0699 -3.14945 -1.56533 0
M  V30 802 H 73.9439 -2.22085 -3.04891 0
M  V30 803 H 76.3309 -1.3168 -2.64092 0
M  V30 804 H 76.4119 -2.28033 -1.15907 0
M  V30 805 H 76.0559 -4.39687 -2.5424 0
M  V30 806 H 75.9859 -3.40266 -4.01904 0
M  V30 807 H 78.4769 -2.73588 -2.60688 0
M  V30 808 H 78.7899 -6.00783 -4.86086 0
M  V30 809 H 77.1349 -5.39863 -4.37691 0
M  V30 810 H 80.3259 -3.44647 -3.16759 0
M  V30 811 H 80.4989 -4.93836 -4.1956 0
M  V30 812 N 73.905 1.17692 -1.04816 0
M  V30 813 C 75.182 1.83768 -0.669963 0
M  V30 814 C 75.562 1.93232 0.849986 0
M  V30 815 O 74.91 1.46397 1.75443 0
M  V30 816 C 75.12 3.21641 -1.35455 0
M  V30 817 C 76.468 3.97592 -1.49017 0
M  V30 818 O 77.492 3.31107 -1.31326 0
M  V30 819 O 76.351 5.16729 -1.77914 0
M  V30 820 H 73.445 0.792799 -0.235368 0
M  V30 821 H 75.991 1.25021 -1.14751 0
M  V30 822 H 74.763 3.097 -2.39168 0
M  V30 823 H 74.386 3.88052 -0.866107 0
M  V30 824 N 75.3831 0.828654 1.34056 0
M  V30 825 C 76.6231 0.425394 1.99924 0
M  V30 826 C 76.9871 -0.994294 1.64249 0
M  V30 827 O 78.1881 -1.50074 2.23005 0
M  V30 828 C 76.4591 0.628071 3.51838 0
M  V30 829 S 78.0181 0.318511 4.37642 0
M  V30 830 H 74.8361 0.160465 0.692656 0
M  V30 831 H 77.4381 1.07572 1.63244 0
M  V30 832 H 76.1421 1.66089 3.7529 0
M  V30 833 H 75.6731 -0.0367799 3.93383 0
M  V30 834 H 77.6881 -0.865632 4.88591 0
M  V30 835 N 76.8612 -1.46375 0.584142 0
M  V30 836 C 78.0862 -2.07268 0.0740405 0
M  V30 837 C 78.5112 -1.42979 -1.22223 0
M  V30 838 O 77.8692 -0.514092 -1.73859 0
M  V30 839 C 77.9172 -3.60518 -0.0767769 0
M  V30 840 O 77.0212 -3.96533 -1.13292 0
M  V30 841 H 76.3622 -0.660961 0.0634524 0
M  V30 842 H 78.8922 -1.87991 0.807492 0
M  V30 843 H 78.9022 -4.07021 -0.282489 0
M  V30 844 H 77.5772 -4.06702 0.86986 0
M  V30 845 H 76.1542 -3.61738 -0.905553 0
M  V30 846 N 78.3393 -0.321999 -1.54275 0
M  V30 847 C 79.5853 0.281461 -2.00837 0
M  V30 848 C 79.9183 1.51909 -1.20985 0
M  V30 849 O 79.1933 1.923 -0.291733 0
M  V30 850 C 79.4763 0.617162 -3.54772 0
M  V30 851 C 79.3293 -0.631064 -4.45351 0
M  V30 852 C 80.6483 1.43542 -4.16033 0
M  V30 853 H 77.7673 0.100826 -0.730071 0
M  V30 854 H 80.4093 -0.438268 -1.84876 0
M  V30 855 H 78.5593 1.23034 -3.68504 0
M  V30 856 H 80.2313 -1.26934 -4.43492 0
M  V30 857 H 78.4743 -1.26025 -4.15091 0
M  V30 858 H 79.1453 -0.351735 -5.50878 0
M  V30 859 H 81.6213 0.917134 -4.05867 0
M  V30 860 H 80.4973 1.63907 -5.23856 0
M  V30 861 H 80.7583 2.43108 -3.69257 0
M  V30 862 N 79.8174 1.5752 -0.0501392 0
M  V30 863 C 81.0574 1.94521 0.627783 0
M  V30 864 C 81.4214 0.928265 1.68069 0
M  V30 865 O 82.6224 1.18517 2.41261 0
M  V30 866 C 80.8934 3.36319 1.20932 0
M  V30 867 S 82.4524 3.95272 1.90539 0
M  V30 868 H 79.2704 0.680456 0.206158 0
M  V30 869 H 81.8724 1.95139 -0.118829 0
M  V30 870 H 80.5764 4.08132 0.430865 0
M  V30 871 H 80.1074 3.39193 1.99277 0
M  V30 872 H 82.1224 3.80415 3.18589 0
M  V30 873 N 81.2955 -0.223234 1.56011 0
M  V30 874 C 82.2455 -1.28008 1.88674 0
M  V30 875 C 83.2295 -1.42369 0.749663 0
M  V30 876 O 84.4215 -1.45212 1.01205 0
M  V30 877 C 81.5505 -2.63084 2.20548 0
M  V30 878 C 80.6365 -2.52632 3.40643 0
M  V30 879 N 81.0275 -2.11829 4.59306 0
M  V30 880 C 79.3255 -2.83594 3.44224 0
M  V30 881 C 80.0265 -2.12587 5.41463 0
M  V30 882 N 79.0025 -2.5301 4.81131 0
M  V30 883 H 82.8045 -0.955487 2.77935 0
M  V30 884 H 80.3185 -0.431801 1.56554 0
M  V30 885 H 82.3155 -3.39385 2.42122 0
M  V30 886 H 80.9755 -2.96391 1.32599 0
M  V30 887 H 81.9865 -1.82988 4.84496 0
M  V30 888 H 78.6635 -3.21284 2.66614 0
M  V30 889 H 80.0535 -1.83179 6.46448 0
M  V30 890 N 82.7736 -1.49793 -0.48987 0
M  V30 891 C 84.0136 -1.61466 -1.25332 0
M  V30 892 C 84.3776 -0.299688 -1.89647 0
M  V30 893 O 85.5786 -0.291687 -2.67213 0
M  V30 894 C 83.8496 -2.74944 -2.28343 0
M  V30 895 S 85.4086 -3.06637 -3.13878 0
M  V30 896 H 82.2266 -0.569411 -0.425784 0
M  V30 897 H 84.8286 -1.875 -0.553541 0
M  V30 898 H 83.5326 -3.68994 -1.79643 0
M  V30 899 H 83.0636 -2.50938 -3.02975 0
M  V30 900 H 85.0786 -2.49015 -4.29192 0
M  V30 901 N 84.2517 0.741722 -1.39055 0
M  V30 902 C 85.4977 1.50336 -1.36113 0
M  V30 903 C 85.8307 1.94148 0.0450796 0
M  V30 904 O 85.1057 1.66301 1.00868 0
M  V30 905 C 85.3887 2.74773 -2.32749 0
M  V30 906 C 85.2417 2.37023 -3.82283 0
M  V30 907 C 86.5607 3.76846 -2.27322 0
M  V30 908 H 83.6797 0.545351 -0.495743 0
M  V30 909 H 86.3217 0.848624 -1.69995 0
M  V30 910 H 84.4717 3.30639 -2.03986 0
M  V30 911 H 86.1437 1.8684 -4.21768 0
M  V30 912 H 84.3867 1.69334 -3.99385 0
M  V30 913 H 85.0577 3.26104 -4.45376 0
M  V30 914 H 87.5337 3.30548 -2.5274 0
M  V30 915 H 86.4097 4.6159 -2.97028 0
M  V30 916 H 86.6707 4.23286 -1.27599 0
M  V30 917 N 85.7298 1.2412 0.971189 0
M  V30 918 C 87.1408 1.07236 1.52831 0
M  V30 919 C 87.4918 -0.357352 1.92918 0
M  V30 920 O 86.6168 -1.24528 1.76979 0
M  V30 921 C 87.2118 1.94043 2.77728 0
M  V30 922 C 85.7708 1.81394 3.29808 0
M  V30 923 C 84.9178 1.89189 2.02738 0
M  V30 924 H 87.8688 1.37648 0.789864 0
M  V30 925 H 87.8898 1.47066 3.5093 0
M  V30 926 H 87.4018 2.98093 2.4852 0
M  V30 927 H 85.5028 0.801634 3.63874 0
M  V30 928 H 85.6158 2.65294 3.98944 0
M  V30 929 H 83.9798 1.32877 2.17292 0
M  V30 930 H 84.7628 2.94812 1.759 0
M  V30 931 N 87.2079 -1.17134 1.05439 0
M  V30 932 C 88.1179 -2.24878 0.668365 0
M  V30 933 C 89.1339 -1.71186 -0.311687 0
M  V30 934 O 90.3099 -2.00738 -0.163161 0
M  V30 935 C 87.3749 -3.46662 0.051648 0
M  V30 936 C 86.4359 -4.15429 1.08246 0
M  V30 937 C 85.6689 -5.31399 0.495082 0
M  V30 938 O 85.8919 -5.66153 -0.694743 0
M  V30 939 O 84.8259 -5.89187 1.23056 0
M  V30 940 H 88.6519 -2.60189 1.56637 0
M  V30 941 H 86.2369 -1.24482 0.826104 0
M  V30 942 H 88.1189 -4.20394 -0.290966 0
M  V30 943 H 86.7939 -3.13142 -0.819971 0
M  V30 944 H 85.7009 -3.43704 1.47711 0
M  V30 945 H 87.0339 -4.52982 1.92532 0
M  V30 946 N 88.686 -0.835752 -1.33615 0
M  V30 947 C 89.633 -0.26473 -2.29277 0
M  V30 948 C 90.603 0.617712 -1.54187 0
M  V30 949 O 91.788 0.556641 -1.825 0
M  V30 950 C 88.928 0.556777 -3.40579 0
M  V30 951 C 88.041 -0.349339 -4.30585 0
M  V30 952 C 87.176 0.482969 -5.29 0
M  V30 953 C 86.215 -0.421732 -6.10645 0
M  V30 954 N 85.352 0.372262 -7.01112 0
M  V30 955 H 90.192 -1.08582 -2.77514 0
M  V30 956 H 87.729 -0.546927 -1.36554 0
M  V30 957 H 89.687 1.04852 -4.03809 0
M  V30 958 H 88.317 1.34286 -2.93542 0
M  V30 959 H 87.369 -0.959372 -3.68104 0
M  V30 960 H 88.681 -1.04445 -4.87742 0
M  V30 961 H 87.835 1.03866 -5.97743 0
M  V30 962 H 86.574 1.21153 -4.72412 0
M  V30 963 H 85.579 -0.989464 -5.40823 0
M  V30 964 H 86.804 -1.14861 -6.69316 0
M  V30 965 H 84.75 1.08426 -6.46977 0
M  V30 966 H 84.667 -0.264198 -7.55538 0
M  V30 967 H 85.935 0.910293 -7.74167 0
M  V30 968 N 90.1641 1.46063 -0.591896 0
M  V30 969 C 91.4121 2.01938 -0.0808391 0
M  V30 970 C 91.7331 1.46475 1.28725 0
M  V30 971 O 91.0031 0.652944 1.84698 0
M  V30 972 H 89.5831 0.746516 -0.0268938 0
M  V30 973 H 92.2451 1.79055 -0.769752 0
M  V30 974 H 91.3411 3.12094 -0.0187578 0
M  V30 975 N 91.6422 0.330177 1.54103 0
M  V30 976 C 92.8672 -0.274893 2.0557 0
M  V30 977 C 93.2922 -1.44487 1.20437 0
M  V30 978 O 92.6502 -1.80021 0.214991 0
M  V30 979 C 92.6982 -0.68079 3.54115 0
M  V30 980 O 91.8022 -1.7824 3.71893 0
M  V30 981 H 91.1432 -0.0483849 0.662235 0
M  V30 982 H 93.6732 0.480508 1.98878 0
M  V30 983 H 93.6832 -0.961635 3.96505 0
M  V30 984 H 92.3582 0.174903 4.15532 0
M  V30 985 H 90.9352 -1.49985 3.41407 0
M  V30 986 N 93.1203 -1.57491 0.0584922 0
M  V30 987 C 94.5363 -1.56792 -0.298091 0
M  V30 988 C 94.7363 -1.06679 -1.70944 0
M  V30 989 O 93.7923 -0.726672 -2.41818 0
M  V30 990 C 95.1053 -3.00461 -0.119879 0
M  V30 991 C 96.6533 -3.1242 -0.190428 0
M  V30 992 C 97.1283 -4.57982 -0.0406567 0
M  V30 993 N 98.6193 -4.63099 -0.0966958 0
M  V30 994 C 99.3543 -5.734 -0.00502943 0
M  V30 995 N 98.8503 -6.9266 0.139402 0
M  V30 996 N 100.643 -5.62067 -0.0611391 0
M  V30 997 H 92.7943 -1.88386 0.98105 0
M  V30 998 H 95.0573 -0.867865 0.381463 0
M  V30 999 H 94.7633 -3.41187 0.85349 0
M  V30 1000 H 94.6373 -3.66843 -0.877833 0
M  V30 1001 H 97.0243 -2.71589 -1.15427 0
M  V30 1002 H 97.1053 -2.48702 0.598405 0
M  V30 1003 H 96.7493 -4.995 0.919897 0
M  V30 1004 H 96.6793 -5.19715 -0.848727 0
M  V30 1005 H 99.1703 -3.77331 -0.207277 0
M  V30 1006 H 99.4833 -7.72536 0.201855 0
M  V30 1007 H 97.8283 -6.94781 0.174586 0
M  V30 1008 H 101.019 -4.67782 -0.172583 0
M  V30 1009 H 101.192 -6.47999 0.0137562 0
M  V30 1010 N 94.5984 0.214957 -1.56127 0
M  V30 1011 C 95.8464 0.936518 -1.79091 0
M  V30 1012 C 96.1674 1.84606 -0.628148 0
M  V30 1013 O 95.4374 1.92664 0.35462 0
M  V30 1014 H 94.0174 0.3488 -0.660566 0
M  V30 1015 H 96.6794 0.22523 -1.93594 0
M  V30 1016 H 95.7754 1.53943 -2.71492 0
M  V30 1017 N 96.0765 1.50051 0.48192 0
M  V30 1018 C 97.4875 1.5348 1.06305 0
M  V30 1019 C 97.8385 0.331997 1.93371 0
M  V30 1020 O 96.9635 -0.556256 2.09129 0
M  V30 1021 C 97.5585 2.7813 1.93466 0
M  V30 1022 C 96.1175 2.84275 2.46707 0
M  V30 1023 C 95.2645 2.47637 1.24785 0
M  V30 1024 H 98.2155 1.56472 0.264995 0
M  V30 1025 H 98.2365 2.59372 2.78399 0
M  V30 1026 H 97.7485 3.65654 1.30072 0
M  V30 1027 H 95.8495 2.01077 3.13686 0
M  V30 1028 H 95.9625 3.8691 2.82555 0
M  V30 1029 H 94.3265 1.99835 1.57918 0
M  V30 1030 H 95.1095 3.37457 0.630694 0
M  V30 1031 N 97.5546 -0.734337 1.39446 0
M  V30 1032 C 98.9656 -1.31264 1.32766 0
M  V30 1033 C 99.3166 -1.96198 -0.00767497 0
M  V30 1034 O 98.4416 -1.96346 -0.909796 0
M  V30 1035 C 99.0366 -2.38682 2.4045 0
M  V30 1036 C 97.5956 -2.92184 2.37288 0
M  V30 1037 C 96.7426 -1.6576 2.22304 0
M  V30 1038 H 99.6936 -0.531799 1.49525 0
M  V30 1039 H 99.7146 -3.19087 2.07276 0
M  V30 1040 H 99.2266 -1.91392 3.37625 0
M  V30 1041 H 97.3276 -3.43752 1.43754 0
M  V30 1042 H 97.4406 -3.45253 3.3217 0
M  V30 1043 H 95.8046 -1.9012 1.69489 0
M  V30 1044 H 96.5876 -1.20521 3.21449 0
M  V30 1045 N 99.0327 -1.24633 -0.964593 0
M  V30 1046 C 100.281 -1.08573 -1.70459 0
M  V30 1047 C 100.602 0.375655 -1.91347 0
M  V30 1048 O 99.8717 1.26779 -1.49345 0
M  V30 1049 H 98.4517 -0.398784 -0.631649 0
M  V30 1050 H 101.114 -1.56601 -1.16026 0
M  V30 1051 H 100.21 -1.58623 -2.68785 0
M  V30 1052 N 100.511 1.16574 -1.06058 0
M  V30 1053 C 101.922 1.68662 -0.800632 0
M  V30 1054 C 102.273 1.84184 0.67608 0
M  V30 1055 O 101.398 1.53568 1.52466 0
M  V30 1056 C 101.993 3.06356 -1.44676 0
M  V30 1057 C 100.552 3.55575 -1.23465 0
M  V30 1058 C 99.6988 2.31616 -1.52477 0
M  V30 1059 H 102.65 1.00969 -1.22438 0
M  V30 1060 H 102.671 3.70636 -0.860788 0
M  V30 1061 H 102.183 2.95027 -2.52152 0
M  V30 1062 H 100.284 3.72167 -0.179527 0
M  V30 1063 H 100.397 4.37812 -1.94571 0
M  V30 1064 H 98.7608 2.36512 -0.945209 0
M  V30 1065 H 99.5438 2.22887 -2.61106 0
M  V30 1066 N 101.989 0.842826 1.3317 0
M  V30 1067 C 103.4 0.496651 1.79973 0
M  V30 1068 C 103.751 -0.984641 1.69703 0
M  V30 1069 O 102.876 -1.76743 1.24863 0
M  V30 1070 C 103.471 0.894727 3.26772 0
M  V30 1071 C 102.03 0.600629 3.71577 0
M  V30 1072 C 101.177 1.10091 2.5451 0
M  V30 1073 H 104.128 1.03116 1.20635 0
M  V30 1074 H 104.149 0.206347 3.7994 0
M  V30 1075 H 103.661 1.97287 3.34215 0
M  V30 1076 H 101.762 -0.467284 3.69658 0
M  V30 1077 H 101.875 1.15863 4.64879 0
M  V30 1078 H 100.239 0.52162 2.49301 0
M  V30 1079 H 101.022 2.18591 2.64713 0
M  V30 1080 N 103.467 -1.45747 0.599634 0
M  V30 1081 C 104.715 -2.01893 0.0915472 0
M  V30 1082 C 105.036 -1.47155 -1.27946 0
M  V30 1083 O 104.306 -0.66273 -1.84349 0
M  V30 1084 H 102.886 -0.746363 0.0308524 0
M  V30 1085 H 105.548 -1.78645 0.779237 0
M  V30 1086 H 104.644 -3.1208 0.0353086 0
M  V30 1087 N 104.945 -0.338344 -1.53925 0
M  V30 1088 C 106.356 0.146651 -1.86123 0
M  V30 1089 C 106.707 1.5042 -1.2597 0
M  V30 1090 O 105.832 2.08723 -0.571294 0
M  V30 1091 C 106.427 0.272879 -3.37699 0
M  V30 1092 C 104.986 0.702103 -3.69794 0
M  V30 1093 C 104.133 -0.167304 -2.76795 0
M  V30 1094 H 107.084 -0.558123 -1.48562 0
M  V30 1095 H 107.105 1.10128 -3.64214 0
M  V30 1096 H 106.617 -0.715307 -3.81451 0
M  V30 1097 H 104.718 1.6995 -3.31584 0
M  V30 1098 H 104.831 0.495604 -4.7653 0
M  V30 1099 H 103.195 0.359527 -2.5215 0
M  V30 1100 H 103.978 -1.15253 -3.23375 0
M  V30 1101 N 106.423 1.57458 -0.0668435 0
M  V30 1102 C 107.355 2.09413 0.931601 0
M  V30 1103 C 108.368 1.02522 1.26464 0
M  V30 1104 O 109.557 1.30049 1.22269 0
M  V30 1105 C 106.657 2.53537 2.24882 0
M  V30 1106 C 105.83 3.83944 2.09537 0
M  V30 1107 C 104.889 4.14214 3.2452 0
M  V30 1108 O 103.915 4.83891 2.9973 0
M  V30 1109 N 105.117 3.67367 4.49469 0
M  V30 1110 H 107.882 2.95699 0.488048 0
M  V30 1111 H 105.443 1.61462 0.119009 0
M  V30 1112 H 107.435 2.70853 3.00701 0
M  V30 1113 H 106.005 1.72415 2.60753 0
M  V30 1114 H 105.225 3.76057 1.18215 0
M  V30 1115 H 106.513 4.69312 1.96529 0
M  V30 1116 H 105.911 3.11068 4.72497 0
M  V30 1117 H 104.468 3.89891 5.2233 0
M  V30 1118 N 107.901 -0.206675 1.56239 0
M  V30 1119 C 109.149 -0.927007 1.79586 0
M  V30 1120 C 109.47 -1.8427 0.637929 0
M  V30 1121 O 108.74 -1.92849 -0.344398 0
M  V30 1122 H 107.32 -0.345292 0.662407 0
M  V30 1123 H 109.982 -0.21496 1.93711 0
M  V30 1124 H 109.078 -1.52501 2.72305 0
M  V30 1125 N 109.379 -1.50304 -0.473955 0
M  V30 1126 C 110.79 -1.54042 -1.0549 0
M  V30 1127 C 111.141 -0.342248 -1.93192 0
M  V30 1128 O 110.266 0.545157 -2.09421 0
M  V30 1129 C 110.861 -2.79152 -1.91989 0
M  V30 1130 C 109.42 -2.8558 -2.45196 0
M  V30 1131 C 108.567 -2.48295 -1.2347 0
M  V30 1132 H 111.518 -1.5661 -0.256693 0
M  V30 1133 H 111.539 -2.60845 -2.7702 0
M  V30 1134 H 111.051 -3.66339 -1.28131 0
M  V30 1135 H 109.152 -2.02738 -3.12615 0
M  V30 1136 H 109.265 -3.88403 -2.80499 0
M  V30 1137 H 107.629 -2.00669 -1.56856 0
M  V30 1138 H 108.412 -3.37787 -0.612789 0
M  V30 1139 N 110.857 0.726932 -1.39834 0
M  V30 1140 C 112.106 1.48214 -1.36805 0
M  V30 1141 C 112.419 1.95576 0.0305291 0
M  V30 1142 O 113.625 2.7088 0.183417 0
M  V30 1143 C 112.081 2.67854 -2.40379 0
M  V30 1144 C 111.689 2.27408 -3.85992 0
M  V30 1145 C 113.433 3.45641 -2.46439 0
M  V30 1146 C 111.34 3.43819 -4.81189 0
M  V30 1147 H 110.27 0.556606 -0.508631 0
M  V30 1148 H 112.921 0.792216 -1.65518 0
M  V30 1149 H 111.303 3.3896 -2.04749 0
M  V30 1150 H 112.477 1.63795 -4.30706 0
M  V30 1151 H 110.792 1.62692 -3.83302 0
M  V30 1152 H 113.389 4.32244 -3.14753 0
M  V30 1153 H 113.732 3.88669 -1.49139 0
M  V30 1154 H 114.265 2.8157 -2.81004 0
M  V30 1155 H 111.004 3.05834 -5.79781 0
M  V30 1156 H 110.524 4.06385 -4.41148 0
M  V30 1157 H 112.203 4.10043 -5.00474 0
M  V30 1158 N 112.336 1.25143 0.95797 0
M  V30 1159 C 113.584 1.09476 1.69881 0
M  V30 1160 C 113.905 -0.365502 1.91544 0
M  V30 1161 O 113.175 -1.25985 1.50015 0
M  V30 1162 H 111.755 0.402128 0.629525 0
M  V30 1163 H 114.417 1.57214 1.15194 0
M  V30 1164 H 113.513 1.60046 2.6794 0
M  V30 1165 N 113.814 -1.1601 1.06675 0
M  V30 1166 C 115.225 -1.68235 0.809565 0
M  V30 1167 C 115.576 -1.8454 -0.666303 0
M  V30 1168 O 114.701 -1.54374 -1.5165 0
M  V30 1169 C 115.296 -3.05585 1.46299 0
M  V30 1170 C 113.855 -3.54915 1.25349 0
M  V30 1171 C 113.002 -2.30804 1.53703 0
M  V30 1172 H 115.953 -1.00318 1.22971 0
M  V30 1173 H 115.974 -3.70174 0.880431 0
M  V30 1174 H 115.486 -2.93686 2.53713 0
M  V30 1175 H 113.587 -3.72067 0.199261 0
M  V30 1176 H 113.7 -4.36774 1.9689 0
M  V30 1177 H 112.064 -2.36007 0.957739 0
M  V30 1178 H 112.847 -2.21499 2.62284 0
M  V30 1179 N 115.292 -0.849877 -1.32721 0
M  V30 1180 C 116.222 -0.306308 -2.31482 0
M  V30 1181 C 117.203 0.591952 -1.59468 0
M  V30 1182 O 118.388 0.513199 -1.87296 0
M  V30 1183 C 115.518 0.510204 -3.43532 0
M  V30 1184 C 114.472 -0.293209 -4.26994 0
M  V30 1185 C 113.798 0.647743 -5.30762 0
M  V30 1186 C 115.098 -1.51634 -4.99804 0
M  V30 1187 H 116.792 -1.13153 -2.77195 0
M  V30 1188 H 114.338 -0.545553 -1.33266 0
M  V30 1189 H 116.291 0.900856 -4.11658 0
M  V30 1190 H 115.015 1.36874 -2.96535 0
M  V30 1191 H 113.674 -0.665555 -3.60508 0
M  V30 1192 H 113.322 1.50299 -4.8002 0
M  V30 1193 H 113.022 0.11422 -5.87489 0
M  V30 1194 H 114.546 1.03567 -6.01753 0
M  V30 1195 H 115.96 -1.19824 -5.60638 0
M  V30 1196 H 114.357 -1.98745 -5.66234 0
M  V30 1197 H 115.427 -2.28018 -4.27943 0
M  V30 1198 N 116.77 1.45427 -0.607355 0
M  V30 1199 C 118.018 2.01841 -0.102253 0
M  V30 1200 C 118.339 1.47832 1.27164 0
M  V30 1201 O 117.609 0.672497 1.83995 0
M  V30 1202 H 116.189 0.746188 -0.0348101 0
M  V30 1203 H 118.851 1.78229 -0.7887 0
M  V30 1204 H 117.947 3.12057 -0.0518585 0
M  V30 1205 N 118.248 0.346503 1.53744 0
M  V30 1206 C 119.211 -0.496439 2.23759 0
M  V30 1207 C 120.211 -1.0252 1.2388 0
M  V30 1208 O 121.401 -0.913974 1.48297 0
M  V30 1209 C 118.533 -1.69187 2.95954 0
M  V30 1210 H 119.726 0.115952 2.99676 0
M  V30 1211 H 117.279 0.0978939 1.55993 0
M  V30 1212 H 118.014 -2.34288 2.24231 0
M  V30 1213 H 117.799 -1.31989 3.69217 0
M  V30 1214 H 119.289 -2.28969 3.49232 0
M  V30 1215 N 119.726 -1.57421 0.075193 0
M  V30 1216 C 121.137 -1.81021 -0.456964 0
M  V30 1217 C 121.488 -0.98936 -1.69429 0
M  V30 1218 O 120.613 -0.212865 -2.15351 0
M  V30 1219 C 121.208 -3.28329 -0.83581 0
M  V30 1220 C 119.767 -3.52764 -1.31281 0
M  V30 1221 C 118.914 -2.75676 -0.299648 0
M  V30 1222 H 121.865 -1.55822 0.300856 0
M  V30 1223 H 121.886 -3.40564 -1.69696 0
M  V30 1224 H 121.398 -3.88046 0.0649238 0
M  V30 1225 H 119.499 -2.98355 -2.23193 0
M  V30 1226 H 119.612 -4.61451 -1.28839 0
M  V30 1227 H 117.976 -2.42538 -0.777641 0
M  V30 1228 H 118.759 -3.38132 0.593417 0
M  V30 1229 N 121.204 0.198386 -1.56346 0
M  V30 1230 C 122.452 0.91747 -1.80075 0
M  V30 1231 C 122.773 1.83929 -0.647692 0
M  V30 1232 O 122.043 1.93029 0.334166 0
M  V30 1233 H 120.623 0.341774 -0.664228 0
M  V30 1234 H 123.285 0.204684 -1.93822 0
M  V30 1235 H 122.381 1.51055 -2.7311 0
M  V30 1236 N 122.682 1.50554 0.465978 0
M  V30 1237 C 124.093 1.54599 1.04671 0
M  V30 1238 C 124.444 0.352488 1.93008 0
M  V30 1239 O 123.569 -0.534044 2.09707 0
M  V30 1240 C 124.164 2.80166 1.90505 0
M  V30 1241 C 122.723 2.86876 2.43678 0
M  V30 1242 C 121.87 2.48947 1.22151 0
M  V30 1243 H 124.821 1.56744 0.248384 0
M  V30 1244 H 124.842 2.62311 2.75633 0
M  V30 1245 H 124.354 3.67013 1.26186 0
M  V30 1246 H 122.455 2.04393 3.11536 0
M  V30 1247 H 122.568 3.89885 2.78436 0
M  V30 1248 H 120.932 2.01498 1.5579 0
M  V30 1249 H 121.715 3.38107 0.594866 0
M  V30 1250 N 124.16 -0.719506 1.40217 0
M  V30 1251 C 125.409 -1.47486 1.37589 0
M  V30 1252 C 125.722 -1.9559 -0.0201568 0
M  V30 1253 O 126.928 -2.70973 -0.169049 0
M  V30 1254 C 125.384 -2.66575 2.41796 0
M  V30 1255 C 124.992 -2.25358 3.87192 0
M  V30 1256 C 126.736 -3.4433 2.48269 0
M  V30 1257 C 124.643 -3.41262 4.83005 0
M  V30 1258 H 123.573 -0.553901 0.511576 0
M  V30 1259 H 126.224 -0.783427 1.65936 0
M  V30 1260 H 124.606 -3.3787 2.06543 0
M  V30 1261 H 125.78 -1.61509 4.31569 0
M  V30 1262 H 124.095 -1.60657 3.84159 0
M  V30 1263 H 126.692 -4.30569 3.17041 0
M  V30 1264 H 127.035 -3.87872 1.51198 0
M  V30 1265 H 127.568 -2.80076 2.82493 0
M  V30 1266 H 124.307 -3.02755 5.81394 0
M  V30 1267 H 123.827 -4.0404 4.43297 0
M  V30 1268 H 125.506 -4.07383 5.02641 0
M  V30 1269 N 125.638 -1.25649 -0.95132 0
M  V30 1270 C 126.886 -1.10375 -1.69298 0
M  V30 1271 C 127.207 0.355339 -1.91735 0
M  V30 1272 O 126.477 1.25188 -1.50681 0
M  V30 1273 H 125.057 -0.405461 -0.627384 0
M  V30 1274 H 127.719 -1.57823 -1.14358 0
M  V30 1275 H 126.815 -1.61465 -2.67087 0
M  V30 1276 N 127.117 1.15442 -1.07289 0
M  V30 1277 C 128.047 2.22312 -0.714107 0
M  V30 1278 C 129.028 1.67467 0.298155 0
M  V30 1279 O 130.213 1.93445 0.171048 0
M  V30 1280 C 127.343 3.47124 -0.110448 0
M  V30 1281 C 126.297 4.14926 -1.04979 0
M  V30 1282 C 125.623 5.33807 -0.308924 0
M  V30 1283 C 126.923 4.64762 -2.38314 0
M  V30 1284 H 128.617 2.5258 -1.6076 0
M  V30 1285 H 126.163 1.21404 -0.77441 0
M  V30 1286 H 128.116 4.21124 0.152482 0
M  V30 1287 H 126.84 3.16187 0.81812 0
M  V30 1288 H 125.499 3.42866 -1.29764 0
M  V30 1289 H 125.147 4.99126 0.623084 0
M  V30 1290 H 124.847 5.80113 -0.935036 0
M  V30 1291 H 126.371 6.10576 -0.0537771 0
M  V30 1292 H 127.785 5.30292 -2.1786 0
M  V30 1293 H 126.182 5.21728 -2.96514 0
M  V30 1294 H 127.252 3.80434 -3.00663 0
M  V30 1295 N 128.595 0.856903 1.32268 0
M  V30 1296 C 129.82 0.474569 2.01897 0
M  V30 1297 C 130.245 -0.921766 1.63967 0
M  V30 1298 O 129.603 -1.60589 0.84148 0
M  V30 1299 C 129.651 0.623799 3.55164 0
M  V30 1300 O 128.755 -0.342459 4.10976 0
M  V30 1301 H 128.096 0.190422 0.63611 0
M  V30 1302 H 130.626 1.15672 1.68764 0
M  V30 1303 H 130.636 0.512169 4.04773 0
M  V30 1304 H 129.311 1.64202 3.82113 0
M  V30 1305 H 127.888 -0.18688 3.72431 0
M  V30 1306 N 130.073 -1.45103 0.615059 0
M  V30 1307 C 131.321 -2.01784 0.112955 0
M  V30 1308 C 131.642 -1.48504 -1.26378 0
M  V30 1309 O 130.912 -0.682245 -1.83636 0
M  V30 1310 H 129.492 -0.745993 0.0387668 0
M  V30 1311 H 132.154 -1.77808 0.798141 0
M  V30 1312 H 131.25 -3.12025 0.0684069 0
M  V30 1313 N 131.551 -0.354651 -1.53558 0
M  V30 1314 C 132.461 0.50515 -2.29097 0
M  V30 1315 C 133.477 1.10223 -1.34636 0
M  V30 1316 O 134.653 1.11553 -1.67684 0
M  V30 1317 C 131.718 1.63479 -3.05738 0
M  V30 1318 C 130.779 1.06636 -4.15845 0
M  V30 1319 C 130.012 2.14217 -4.88822 0
M  V30 1320 O 130.235 3.35137 -4.61562 0
M  V30 1321 O 129.169 1.77887 -5.75013 0
M  V30 1322 H 132.995 -0.109237 -3.03503 0
M  V30 1323 H 130.58 -0.119357 -1.48922 0
M  V30 1324 H 132.462 2.2918 -3.5363 0
M  V30 1325 H 131.137 2.23478 -2.34178 0
M  V30 1326 H 130.044 0.373565 -3.7223 0
M  V30 1327 H 131.377 0.511081 -4.89539 0
M  V30 1328 N 133.029 1.57378 -0.0835403 0
M  V30 1329 C 133.976 2.13384 0.879539 0
M  V30 1330 C 134.946 1.04936 1.28754 0
M  V30 1331 O 136.131 1.32662 1.37133 0
M  V30 1332 C 133.271 2.70932 2.13752 0
M  V30 1333 C 132.384 3.93575 1.7811 0
M  V30 1334 C 131.519 4.39326 2.98607 0
M  V30 1335 C 130.558 5.54587 2.59037 0
M  V30 1336 N 129.695 5.95243 3.72331 0
M  V30 1337 H 134.535 2.9537 0.395076 0
M  V30 1338 H 132.072 1.45953 0.183349 0
M  V30 1339 H 134.03 3.02411 2.87408 0
M  V30 1340 H 132.66 1.91693 2.59718 0
M  V30 1341 H 131.712 3.68483 0.94469 0
M  V30 1342 H 133.024 4.77258 1.45005 0
M  V30 1343 H 132.178 4.72528 3.80529 0
M  V30 1344 H 130.917 3.5452 3.34913 0
M  V30 1345 H 129.922 5.21024 1.75539 0
M  V30 1346 H 131.147 6.41133 2.23887 0
M  V30 1347 H 129.093 5.13385 4.08378 0
M  V30 1348 H 129.01 6.73694 3.43034 0
M  V30 1349 H 130.278 6.33072 4.54797 0
M  V30 1350 N 134.507 -0.190092 1.56449 0
M  V30 1351 C 135.755 -0.907908 1.80559 0
M  V30 1352 C 136.076 -1.83583 0.657438 0
M  V30 1353 O 135.346 -1.93203 -0.323924 0
M  V30 1354 H 133.926 -0.338247 0.666032 0
M  V30 1355 H 136.588 -0.194403 1.93928 0
M  V30 1356 H 135.684 -1.49604 2.73907 0
M  V30 1357 N 135.985 -1.50799 -0.457987 0
M  V30 1358 C 136.918 -1.65273 -1.57353 0
M  V30 1359 C 137.896 -0.500578 -1.54703 0
M  V30 1360 O 139.08 -0.721781 -1.74134 0
M  V30 1361 C 136.207 -1.64737 -2.95938 0
M  V30 1362 C 135.253 -2.8567 -3.16693 0
M  V30 1363 S 136.086 -4.46791 -2.95191 0
M  V30 1364 C 137.242 -4.48968 -4.36095 0
M  V30 1365 H 137.475 -2.59633 -1.44838 0
M  V30 1366 H 135.008 -1.40225 -0.64625 0
M  V30 1367 H 136.966 -1.65112 -3.7583 0
M  V30 1368 H 135.627 -0.715899 -3.05833 0
M  V30 1369 H 134.82 -2.81637 -4.17967 0
M  V30 1370 H 134.422 -2.8293 -2.44594 0
M  V30 1371 H 136.714 -4.23337 -5.28954 0
M  V30 1372 H 137.657 -5.50664 -4.45168 0
M  V30 1373 H 138.065 -3.78522 -4.18786 0
M  V30 1374 N 137.463 0.71206 -1.40597 0
M  V30 1375 C 138.879 1.02058 -1.22704 0
M  V30 1376 C 139.079 2.01228 -0.104729 0
M  V30 1377 O 138.135 2.4674 0.53624 0
M  V30 1378 C 139.448 1.56094 -2.57012 0
M  V30 1379 C 140.996 1.6806 -2.64054 0
M  V30 1380 C 141.471 2.25501 -3.9864 0
M  V30 1381 N 142.962 2.32882 -4.004 0
M  V30 1382 C 143.697 2.78317 -5.01325 0
M  V30 1383 N 143.193 3.23478 -6.12645 0
M  V30 1384 N 144.986 2.77733 -4.88693 0
M  V30 1385 H 137.137 0.0547896 -2.12329 0
M  V30 1386 H 139.4 0.0869027 -0.944008 0
M  V30 1387 H 139.106 0.906865 -3.39807 0
M  V30 1388 H 138.98 2.54564 -2.78347 0
M  V30 1389 H 141.367 2.32583 -1.81629 0
M  V30 1390 H 141.448 0.681802 -2.46546 0
M  V30 1391 H 141.092 1.61598 -4.81506 0
M  V30 1392 H 141.022 3.26102 -4.13479 0
M  V30 1393 H 143.513 2.00991 -3.20017 0
M  V30 1394 H 143.826 3.56725 -6.85542 0
M  V30 1395 H 142.171 3.21429 -6.16205 0
M  V30 1396 H 145.362 2.4179 -4.00818 0
M  V30 1397 H 145.535 3.12826 -5.67489 0
M  V30 1398 N 138.941 1.26152 0.944643 0
M  V30 1399 C 140.189 1.11271 1.6871 0
M  V30 1400 C 140.51 -0.345166 1.91921 0
M  V30 1401 O 139.78 -1.24387 1.51343 0
M  V30 1402 H 138.36 0.408783 0.625224 0
M  V30 1403 H 141.022 1.58427 1.1352 0
M  V30 1404 H 140.118 1.62879 2.66227 0
M  V30 1405 N 140.419 -1.14872 1.07899 0
M  V30 1406 C 141.696 -1.81928 0.71845 0
M  V30 1407 C 142.076 -1.95417 -0.798455 0
M  V30 1408 O 141.424 -1.50997 -1.715 0
M  V30 1409 C 141.634 -3.17937 1.43935 0
M  V30 1410 C 142.982 -3.93501 1.59506 0
M  V30 1411 O 144.006 -3.27509 1.40058 0
M  V30 1412 O 142.865 -5.1183 1.91551 0
M  V30 1413 H 139.959 -0.78628 0.256305 0
M  V30 1414 H 142.505 -1.21934 1.18026 0
M  V30 1415 H 141.277 -3.0325 2.47295 0
M  V30 1416 H 140.9 -3.85619 0.968687 0
M  V30 1417 N 141.898 -0.863906 -1.31812 0
M  V30 1418 C 143.314 -0.555004 -1.49639 0
M  V30 1419 C 143.514 0.912266 -1.79666 0
M  V30 1420 O 142.57 1.69479 -1.87171 0
M  V30 1421 C 143.883 -1.44998 -2.63431 0
M  V30 1422 C 145.431 -1.45138 -2.77316 0
M  V30 1423 C 145.906 -2.33179 -3.94197 0
M  V30 1424 N 147.397 -2.31025 -4.01474 0
M  V30 1425 C 148.132 -2.95871 -4.9117 0
M  V30 1426 N 147.628 -3.69863 -5.8581 0
M  V30 1427 N 149.421 -2.85211 -4.84367 0
M  V30 1428 H 141.572 -1.81339 -1.10589 0
M  V30 1429 H 143.835 -0.77505 -0.545895 0
M  V30 1430 H 143.541 -2.49377 -2.48 0
M  V30 1431 H 143.415 -1.14409 -3.59431 0
M  V30 1432 H 145.802 -0.415201 -2.92164 0
M  V30 1433 H 145.883 -1.79747 -1.82001 0
M  V30 1434 H 145.527 -3.3687 -3.80107 0
M  V30 1435 H 145.457 -1.95897 -4.88807 0
M  V30 1436 H 147.948 -1.77238 -3.33759 0
M  V30 1437 H 148.261 -4.16486 -6.50968 0
M  V30 1438 H 146.606 -3.73971 -5.85808 0
M  V30 1439 H 149.797 -2.26948 -4.09405 0
M  V30 1440 H 149.97 -3.36027 -5.54066 0
M  V30 1441 N 143.376 1.44774 -0.622745 0
M  V30 1442 C 144.624 2.01721 -0.123655 0
M  V30 1443 C 144.945 1.49172 1.25589 0
M  V30 1444 O 144.215 0.691974 1.83272 0
M  V30 1445 H 142.795 0.745777 -0.0427225 0
M  V30 1446 H 145.457 1.77382 -0.807559 0
M  V30 1447 H 144.553 3.11984 -0.0849534 0
M  V30 1448 N 144.854 0.36279 1.53368 0
M  V30 1449 C 146.265 -0.117022 1.86333 0
M  V30 1450 C 146.616 -1.48397 1.28347 0
M  V30 1451 O 145.741 -2.07787 0.604428 0
M  V30 1452 C 146.336 -0.21912 3.38091 0
M  V30 1453 C 144.895 -0.643184 3.70864 0
M  V30 1454 C 144.042 0.211318 2.76494 0
M  V30 1455 H 146.993 0.581687 1.47655 0
M  V30 1456 H 147.014 -1.04319 3.6592 0
M  V30 1457 H 146.526 0.775902 3.80265 0
M  V30 1458 H 144.627 -1.64654 3.34245 0
M  V30 1459 H 144.74 -0.41973 4.77258 0
M  V30 1460 H 143.104 -0.319367 2.5269 0
M  V30 1461 H 143.887 1.20383 3.21501 0
M  V30 1462 N 146.332 -1.57332 0.0918853 0
M  V30 1463 C 147.743 -1.81496 -0.437739 0
M  V30 1464 C 148.094 -1.00727 -1.6837 0
M  V30 1465 O 147.219 -0.235694 -2.15113 0
M  V30 1466 C 147.814 -3.29197 -0.800939 0
M  V30 1467 C 146.373 -3.54136 -1.27532 0
M  V30 1468 C 145.52 -2.75979 -0.270392 0
M  V30 1469 H 148.471 -1.55494 0.317366 0
M  V30 1470 H 148.492 -3.42344 -1.66074 0
M  V30 1471 H 148.004 -3.87955 0.106078 0
M  V30 1472 H 146.105 -3.00705 -2.20016 0
M  V30 1473 H 146.218 -4.62792 -1.23938 0
M  V30 1474 H 144.582 -2.43349 -0.751872 0
M  V30 1475 H 145.365 -3.37484 0.629248 0
M  V30 1476 N 147.81 0.181792 -1.56548 0
M  V30 1477 C 149.058 0.89832 -1.81038 0
M  V30 1478 C 149.379 1.83232 -0.667164 0
M  V30 1479 O 148.649 1.93372 0.313673 0
M  V30 1480 H 147.229 0.33471 -0.667816 0
M  V30 1481 H 149.891 0.184116 -1.94028 0
M  V30 1482 H 148.987 1.4815 -2.74696 0
M  V30 1483 N 149.288 1.51039 0.449983 0
M  V30 1484 C 150.251 1.70863 1.5277 0
M  V30 1485 C 151.251 0.578846 1.5002 0
M  V30 1486 O 152.441 0.846213 1.52266 0
M  V30 1487 C 149.573 1.75341 2.9235 0
M  V30 1488 H 150.766 2.67034 1.36502 0
M  V30 1489 H 148.319 1.40838 0.677812 0
M  V30 1490 H 149.054 0.809383 3.14037 0
M  V30 1491 H 148.839 2.57436 2.95752 0
M  V30 1492 H 150.329 1.92559 3.70555 0
M  V30 1493 N 150.766 -0.704594 1.40972 0
M  V30 1494 C 151.729 -1.80035 1.41845 0
M  V30 1495 C 152.729 -1.57774 0.310474 0
M  V30 1496 O 153.919 -1.64613 0.56992 0
M  V30 1497 C 151.051 -3.18284 1.22098 0
M  V30 1498 H 152.244 -1.80658 2.3938 0
M  V30 1499 H 149.797 -0.911329 1.26982 0
M  V30 1500 H 150.532 -3.23306 0.253672 0
M  V30 1501 H 150.317 -3.35843 2.02366 0
M  V30 1502 H 151.807 -3.98289 1.25522 0
M  V30 1503 N 152.244 -1.26651 -0.937939 0
M  V30 1504 C 153.492 -1.12165 -1.68118 0
M  V30 1505 C 153.813 0.334983 -1.92101 0
M  V30 1506 O 153.083 1.23583 -1.52 0
M  V30 1507 H 151.663 -0.412093 -0.623048 0
M  V30 1508 H 154.325 -1.59027 -1.12678 0
M  V30 1509 H 153.421 -1.64289 -2.6536 0
M  V30 1510 N 153.722 1.14298 -1.08507 0
M  V30 1511 C 154.999 1.81544 -0.728088 0
M  V30 1512 C 155.379 1.95838 0.78808 0
M  V30 1513 O 154.727 1.51904 1.70697 0
M  V30 1514 C 154.937 3.17169 -1.45619 0
M  V30 1515 C 156.285 3.9265 -1.61591 0
M  V30 1516 O 157.309 3.26762 -1.41793 0
M  V30 1517 O 156.168 5.10807 -1.94263 0
M  V30 1518 H 153.262 0.78491 -0.260471 0
M  V30 1519 H 155.808 1.21307 -1.18671 0
M  V30 1520 H 154.58 3.01934 -2.489 0
M  V30 1521 H 154.203 3.851 -0.989124 0
M  V30 1522 N 155.201 0.870884 1.31352 0
M  V30 1523 C 156.148 0.325425 2.28494 0
M  V30 1524 C 157.118 -0.576615 1.5577 0
M  V30 1525 O 158.303 -0.508059 1.83911 0
M  V30 1526 C 155.443 -0.466283 3.41935 0
M  V30 1527 C 154.556 0.463378 4.29508 0
M  V30 1528 C 153.691 -0.342544 5.30094 0
M  V30 1529 C 152.73 0.583486 6.09313 0
M  V30 1530 N 151.867 -0.186244 7.01853 0
M  V30 1531 H 156.707 1.15901 2.74538 0
M  V30 1532 H 154.244 0.58294 1.35056 0
M  V30 1533 H 156.202 -0.941085 4.06447 0
M  V30 1534 H 154.832 -1.26456 2.97 0
M  V30 1535 H 153.884 1.05663 3.65431 0
M  V30 1536 H 155.196 1.1734 4.84802 0
M  V30 1537 H 154.35 -0.879816 6.00287 0
M  V30 1538 H 153.089 -1.08585 4.75458 0
M  V30 1539 H 152.094 1.13251 5.3801 0
M  V30 1540 H 153.319 1.32566 6.66035 0
M  V30 1541 H 151.265 -0.912348 6.49625 0
M  V30 1542 H 151.182 0.464422 7.54572 0
M  V30 1543 H 152.45 -0.704716 7.76308 0
M  V30 1544 N 156.679 -1.44442 0.630414 0
M  V30 1545 C 157.927 -2.01653 0.134351 0
M  V30 1546 C 158.248 -1.49836 -1.24796 0
M  V30 1547 O 157.518 -0.701684 -1.82902 0
M  V30 1548 H 156.098 -0.74554 0.0466769 0
M  V30 1549 H 158.76 -1.76952 0.816955 0
M  V30 1550 H 157.856 -3.11935 0.101498 0
M  V30 1551 N 158.157 -0.370918 -1.53173 0
M  V30 1552 C 159.434 0.273754 -1.93675 0
M  V30 1553 C 159.814 1.65938 -1.3049 0
M  V30 1554 O 159.162 2.23698 -0.465999 0
M  V30 1555 C 159.372 0.318602 -3.47543 0
M  V30 1556 C 160.72 0.556392 -4.20939 0
M  V30 1557 O 161.744 0.399587 -3.53952 0
M  V30 1558 O 160.603 0.862133 -5.39657 0
M  V30 1559 H 157.697 0.165448 -0.810281 0
M  V30 1560 H 160.243 -0.42409 -1.64315 0
M  V30 1561 H 159.015 -0.652687 -3.85818 0
M  V30 1562 H 158.638 1.06212 -3.83151 0
M  V30 1563 N 159.635 1.57281 -0.100228 0
M  V30 1564 C 160.582 2.14305 0.856858 0
M  V30 1565 C 161.552 1.06296 1.27634 0
M  V30 1566 O 162.737 1.34109 1.35718 0
M  V30 1567 C 159.877 2.73184 2.10866 0
M  V30 1568 C 158.99 3.95442 1.73925 0
M  V30 1569 C 158.125 4.42468 2.93931 0
M  V30 1570 C 157.164 5.57303 2.5314 0
M  V30 1571 N 156.301 5.99158 3.65997 0
M  V30 1572 H 161.141 2.95772 0.363726 0
M  V30 1573 H 158.678 1.46139 0.167858 0
M  V30 1574 H 160.636 3.05442 2.84185 0
M  V30 1575 H 159.266 1.94437 2.57671 0
M  V30 1576 H 158.318 3.69464 0.905554 0
M  V30 1577 H 159.63 4.78769 1.39935 0
M  V30 1578 H 158.784 4.76537 3.75496 0
M  V30 1579 H 157.523 3.58052 3.31134 0
M  V30 1580 H 156.528 5.22857 1.70003 0
M  V30 1581 H 157.753 6.43471 2.17075 0
M  V30 1582 H 155.699 5.17687 4.02909 0
M  V30 1583 H 155.616 6.77295 3.35869 0
M  V30 1584 H 156.884 6.3786 4.48057 0
M  V30 1585 N 161.113 -0.173488 1.56642 0
M  V30 1586 C 162.361 -0.888706 1.81512 0
M  V30 1587 C 162.682 -1.82875 0.676872 0
M  V30 1588 O 161.952 -1.93536 -0.303414 0
M  V30 1589 H 160.532 -0.331164 0.669582 0
M  V30 1590 H 163.194 -0.173823 1.94123 0
M  V30 1591 H 162.29 -1.46691 2.75478 0
M  V30 1592 N 162.591 -1.51276 -0.441967 0
M  V30 1593 C 164.002 -1.56244 -1.02199 0
M  V30 1594 C 164.353 -0.383149 -1.92422 0
M  V30 1595 O 163.478 0.500613 -2.1053 0
M  V30 1596 C 164.073 -2.83162 -1.86024 0
M  V30 1597 C 162.632 -2.90716 -2.39084 0
M  V30 1598 C 161.779 -2.50858 -1.18175 0
M  V30 1599 H 164.73 -1.5712 -0.223416 0
M  V30 1600 H 164.751 -2.66663 -2.71425 0
M  V30 1601 H 164.263 -3.68974 -1.20331 0
M  V30 1602 H 162.364 -2.09323 -3.08244 0
M  V30 1603 H 162.477 -3.94266 -2.72198 0
M  V30 1604 H 160.841 -2.03951 -1.52565 0
M  V30 1605 H 161.624 -3.3901 -0.541001 0
M  V30 1606 N 164.069 0.697108 -1.41344 0
M  V30 1607 C 165.297 1.48593 -1.43972 0
M  V30 1608 C 165.712 1.88747 -0.0445612 0
M  V30 1609 O 165.069 1.56682 0.935785 0
M  V30 1610 C 165.12 2.74946 -2.34706 0
M  V30 1611 O 164.841 2.36484 -3.68791 0
M  V30 1612 C 166.342 3.687 -2.46121 0
M  V30 1613 H 163.562 0.457964 -0.490418 0
M  V30 1614 H 166.106 0.858429 -1.8561 0
M  V30 1615 H 164.261 3.33937 -1.9638 0
M  V30 1616 H 164.675 3.17918 -4.17167 0
M  V30 1617 H 166.149 4.54145 -3.13777 0
M  V30 1618 H 166.626 4.13081 -1.49199 0
M  V30 1619 H 167.232 3.15613 -2.85076 0
M  V30 1620 N 165.547 1.27147 0.931209 0
M  V30 1621 C 166.795 1.13055 1.6752 0
M  V30 1622 C 167.116 -0.324791 1.92276 0
M  V30 1623 O 166.386 -1.22775 1.52654 0
M  V30 1624 H 164.966 0.415391 0.620854 0
M  V30 1625 H 167.628 1.59623 1.11833 0
M  V30 1626 H 166.724 1.65694 2.64485 0
M  V30 1627 N 167.025 -1.13721 1.09112 0
M  V30 1628 C 168.271 -1.85198 0.826414 0
M  V30 1629 C 168.604 -1.83129 -0.646319 0
M  V30 1630 O 167.879 -1.2671 -1.47563 0
M  V30 1631 C 168.162 -3.33507 1.35812 0
M  V30 1632 C 168.015 -3.44108 2.89672 0
M  V30 1633 C 169.334 -4.28838 0.989256 0
M  V30 1634 H 166.453 -0.67243 0.301675 0
M  V30 1635 H 169.095 -1.33499 1.35197 0
M  V30 1636 H 167.245 -3.77666 0.911082 0
M  V30 1637 H 168.917 -3.08684 3.428 0
M  V30 1638 H 167.16 -2.85087 3.26967 0
M  V30 1639 H 167.831 -4.48388 3.21951 0
M  V30 1640 H 170.307 -3.92734 1.37475 0
M  V30 1641 H 169.183 -5.31051 1.38838 0
M  V30 1642 H 169.444 -4.4198 -0.102924 0
M  V30 1643 N 168.503 -0.877838 -1.30888 0
M  V30 1644 C 169.914 -0.544193 -1.78593 0
M  V30 1645 C 170.265 0.939301 -1.72254 0
M  V30 1646 O 169.39 1.7337 -1.29505 0
M  V30 1647 C 169.985 -0.98105 -3.24285 0
M  V30 1648 C 168.544 -0.698935 -3.69854 0
M  V30 1649 C 167.691 -1.168 -2.51502 0
M  V30 1650 H 170.642 -1.06278 -1.17859 0
M  V30 1651 H 170.663 -0.307009 -3.79259 0
M  V30 1652 H 170.175 -2.06079 -3.28866 0
M  V30 1653 H 168.276 0.369112 -3.70767 0
M  V30 1654 H 168.389 -1.28148 -4.61644 0
M  V30 1655 H 166.753 -0.587535 -2.47831 0
M  V30 1656 H 167.536 -2.25533 -2.58824 0
M  V30 1657 N 169.982 1.44106 -0.638065 0
M  V30 1658 C 171.23 2.01579 -0.145043 0
M  V30 1659 C 171.551 1.50496 1.24 0
M  V30 1660 O 170.821 0.711374 1.82527 0
M  V30 1661 H 169.401 0.745282 -0.05063 0
M  V30 1662 H 172.063 1.76516 -0.826327 0
M  V30 1663 H 171.159 3.11877 -0.118039 0
M  V30 1664 N 171.46 0.379036 1.52974 0
M  V30 1665 C 172.707 -0.206421 2.01445 0
M  V30 1666 C 173.035 -1.47668 1.26587 0
M  V30 1667 O 172.29 -1.92514 0.351675 0
M  V30 1668 C 172.589 -0.53096 3.53434 0
M  V30 1669 C 172.255 0.646546 4.46241 0
M  V30 1670 C 170.917 0.969604 4.7133 0
M  V30 1671 C 173.269 1.43479 5.01062 0
M  V30 1672 C 170.597 2.08263 5.48492 0
M  V30 1673 C 172.949 2.53834 5.7944 0
M  V30 1674 C 171.613 2.86659 6.02812 0
M  V30 1675 H 170.883 -0.0755349 0.73714 0
M  V30 1676 H 173.53 0.514271 1.84465 0
M  V30 1677 H 171.835 -1.33285 3.68432 0
M  V30 1678 H 173.532 -0.996417 3.88423 0
M  V30 1679 H 170.122 0.384734 4.2687 0
M  V30 1680 H 174.306 1.19844 4.81613 0
M  V30 1681 H 169.562 2.34078 5.64816 0
M  V30 1682 H 173.736 3.15319 6.20924 0
M  V30 1683 H 171.363 3.73026 6.62387 0
M  V30 1684 N 172.938 -1.57226 0.108567 0
M  V30 1685 C 174.349 -1.8195 -0.418464 0
M  V30 1686 C 174.7 -1.02508 -1.67292 0
M  V30 1687 O 173.825 -0.258496 -2.14851 0
M  V30 1688 C 174.42 -3.30028 -0.765979 0
M  V30 1689 C 172.979 -3.55469 -1.23769 0
M  V30 1690 C 172.126 -2.7625 -0.241106 0
M  V30 1691 H 175.077 -1.55149 0.33384 0
M  V30 1692 H 175.098 -3.44086 -1.62434 0
M  V30 1693 H 174.61 -3.87821 0.147219 0
M  V30 1694 H 172.711 -3.03022 -2.16814 0
M  V30 1695 H 172.824 -4.6408 -1.19022 0
M  V30 1696 H 171.188 -2.44133 -0.72602 0
M  V30 1697 H 171.971 -3.36797 0.665007 0
M  V30 1698 N 174.416 0.165178 -1.56732 0
M  V30 1699 C 175.664 0.879068 -1.8198 0
M  V30 1700 C 175.985 1.82514 -0.686561 0
M  V30 1701 O 175.255 1.93694 0.293146 0
M  V30 1702 H 173.835 0.327608 -0.671329 0
M  V30 1703 H 176.497 0.163526 -1.94213 0
M  V30 1704 H 175.593 1.45228 -2.76252 0
M  V30 1705 N 175.894 1.51508 0.433938 0
M  V30 1706 C 176.824 1.76016 1.53429 0
M  V30 1707 C 177.805 0.610112 1.58782 0
M  V30 1708 O 178.99 0.853177 1.74455 0
M  V30 1709 C 176.12 1.88831 2.9148 0
M  V30 1710 C 175.074 3.04288 3.00987 0
M  V30 1711 C 174.4 3.0229 4.4105 0
M  V30 1712 C 175.7 4.44193 2.74754 0
M  V30 1713 H 177.394 2.68152 1.33171 0
M  V30 1714 H 174.94 1.29035 0.639214 0
M  V30 1715 H 176.893 2.04559 3.6842 0
M  V30 1716 H 175.617 0.933455 3.12976 0
M  V30 1717 H 174.276 2.8827 2.26486 0
M  V30 1718 H 173.924 2.04576 4.59519 0
M  V30 1719 H 173.624 3.79822 4.4834 0
M  V30 1720 H 175.148 3.20116 5.1996 0
M  V30 1721 H 176.562 4.60544 3.41426 0
M  V30 1722 H 174.959 5.23457 2.9345 0
M  V30 1723 H 176.029 4.53996 1.70339 0
M  V30 1724 N 177.372 -0.689602 1.41712 0
M  V30 1725 C 178.649 -1.44457 1.31877 0
M  V30 1726 C 179.029 -2.11039 -0.0508537 0
M  V30 1727 O 178.377 -2.02138 -1.06547 0
M  V30 1728 C 178.587 -2.45913 2.47645 0
M  V30 1729 C 179.935 -3.10991 2.89084 0
M  V30 1730 O 180.959 -2.56238 2.47428 0
M  V30 1731 O 179.818 -4.10174 3.61137 0
M  V30 1732 H 176.912 -0.64362 0.519309 0
M  V30 1733 H 179.458 -0.719576 1.53689 0
M  V30 1734 H 178.23 -1.95409 3.39015 0
M  V30 1735 H 177.853 -3.25913 2.27742 0
M  V30 1736 N 178.85 -1.27639 -0.924453 0
M  V30 1737 C 180.098 -1.13941 -1.66918 0
M  V30 1738 C 180.419 0.314589 -1.92446 0
M  V30 1739 O 179.689 1.21964 -1.53303 0
M  V30 1740 H 178.269 -0.418678 -0.618642 0
M  V30 1741 H 180.931 -1.60213 -1.10985 0
M  V30 1742 H 180.027 -1.67094 -2.63602 0
M  V30 1743 N 180.328 1.1314 -1.09713 0
M  V30 1744 C 181.577 1.83838 -0.829851 0
M  V30 1745 C 181.89 1.84599 0.646728 0
M  V30 1746 O 183.096 2.51218 1.02965 0
M  V30 1747 C 181.552 3.30069 -1.43466 0
M  V30 1748 C 181.16 3.37688 -2.94399 0
M  V30 1749 C 182.904 4.05788 -1.24645 0
M  V30 1750 C 180.811 4.78209 -3.47952 0
M  V30 1751 H 179.741 0.68877 -0.306777 0
M  V30 1752 H 182.392 1.27448 -1.3202 0
M  V30 1753 H 180.774 3.8628 -0.871996 0
M  V30 1754 H 181.948 2.91456 -3.56918 0
M  V30 1755 H 180.263 2.75436 -3.12289 0
M  V30 1756 H 182.86 5.09535 -1.62107 0
M  V30 1757 H 183.203 4.15878 -0.187357 0
M  V30 1758 H 183.736 3.55915 -1.77678 0
M  V30 1759 H 180.475 4.73311 -4.53495 0
M  V30 1760 H 179.995 5.24924 -2.90198 0
M  V30 1761 H 181.674 5.47133 -3.45332 0
M  V30 1762 N 181.806 0.884767 1.30421 0
M  V30 1763 C 183.217 0.553656 1.78302 0
M  V30 1764 C 183.568 -0.930153 1.7275 0
M  V30 1765 O 182.693 -1.72681 1.30423 0
M  V30 1766 C 183.288 0.998234 3.2376 0
M  V30 1767 C 181.847 0.71854 3.69478 0
M  V30 1768 C 180.994 1.18132 2.50879 0
M  V30 1769 H 183.945 1.06901 1.17294 0
M  V30 1770 H 183.966 0.327118 3.79091 0
M  V30 1771 H 183.478 2.0782 3.27769 0
M  V30 1772 H 181.579 -0.349444 3.70958 0
M  V30 1773 H 181.692 1.30595 4.60958 0
M  V30 1774 H 180.056 0.600669 2.47516 0
M  V30 1775 H 180.839 2.26902 2.57624 0
M  V30 1776 N 183.284 -1.43765 0.645699 0
M  V30 1777 C 184.532 -2.01499 0.155731 0
M  V30 1778 C 184.853 -1.51151 -1.232 0
M  V30 1779 O 184.123 -0.721044 -1.82148 0
M  V30 1780 H 182.703 -0.745003 0.0545817 0
M  V30 1781 H 185.365 -1.76075 0.835677 0
M  V30 1782 H 184.461 -3.1181 0.134577 0
M  V30 1783 N 184.763 -0.387143 -1.52771 0
M  V30 1784 C 185.713 0.465942 -2.23188 0
M  V30 1785 C 186.697 1.03138 -1.23496 0
M  V30 1786 O 187.889 0.957845 -1.48843 0
M  V30 1787 C 185.018 1.59384 -3.04059 0
M  V30 1788 C 184.104 1.04024 -4.11144 0
M  V30 1789 N 184.495 0.211416 -5.05358 0
M  V30 1790 C 182.793 1.31295 -4.26237 0
M  V30 1791 C 183.494 -0.0941698 -5.81624 0
M  V30 1792 N 182.47 0.509207 -5.4121 0
M  V30 1793 H 186.272 -0.173856 -2.93385 0
M  V30 1794 H 183.786 -0.19633 -1.61209 0
M  V30 1795 H 185.783 2.21738 -3.53041 0
M  V30 1796 H 184.443 2.23648 -2.35397 0
M  V30 1797 H 185.454 -0.151151 -5.17679 0
M  V30 1798 H 182.131 1.95679 -3.68803 0
M  V30 1799 H 183.521 -0.765572 -6.67524 0
M  V30 1800 N 186.241 1.57166 -0.116904 0
M  V30 1801 C 187.652 1.82169 0.408809 0
M  V30 1802 C 188.003 1.03393 1.66746 0
M  V30 1803 O 187.128 0.269886 2.1471 0
M  V30 1804 C 187.723 3.30429 0.748466 0
M  V30 1805 C 186.282 3.5612 1.21882 0
M  V30 1806 C 185.429 2.76374 0.226452 0
M  V30 1807 H 188.38 1.5497 -0.342063 0
M  V30 1808 H 188.401 3.44943 1.60607 0
M  V30 1809 H 187.913 3.87737 -0.167784 0
M  V30 1810 H 186.014 3.04168 2.15204 0
M  V30 1811 H 186.127 4.64705 1.16559 0
M  V30 1812 H 184.491 2.44515 0.713063 0
M  V30 1813 H 185.274 3.3644 -0.682859 0
M  V30 1814 N 187.719 -0.156864 1.56817 0
M  V30 1815 C 188.967 -0.869404 1.82444 0
M  V30 1816 C 189.288 -1.82147 0.69623 0
M  V30 1817 O 188.558 -1.93847 -0.28287 0
M  V30 1818 H 187.138 -0.324043 0.673056 0
M  V30 1819 H 189.8 -0.153224 1.94297 0
M  V30 1820 H 188.896 -1.43761 2.77019 0
M  V30 1821 N 189.197 -1.51736 -0.425897 0
M  V30 1822 C 190.608 -1.5732 -1.00536 0
M  V30 1823 C 190.959 -0.403537 -1.92005 0
M  V30 1824 O 190.084 0.478256 -2.11049 0
M  V30 1825 C 190.679 -2.85119 -1.8301 0
M  V30 1826 C 189.238 -2.93236 -2.35987 0
M  V30 1827 C 188.385 -2.52098 -1.15508 0
M  V30 1828 H 191.336 -1.57348 -0.206739 0
M  V30 1829 H 191.357 -2.69526 -2.68581 0
M  V30 1830 H 190.869 -3.7023 -1.16411 0
M  V30 1831 H 188.97 -2.12581 -3.06007 0
M  V30 1832 H 189.083 -3.9713 -2.68001 0
M  V30 1833 H 187.447 -2.05558 -1.50393 0
M  V30 1834 H 188.23 -3.39565 -0.505014 0
M  V30 1835 N 190.675 0.682077 -1.42076 0
M  V30 1836 C 192.086 1.26246 -1.37546 0
M  V30 1837 C 192.437 1.96092 -0.0651481 0
M  V30 1838 O 191.562 1.99587 0.836297 0
M  V30 1839 C 192.157 2.29594 -2.49143 0
M  V30 1840 C 190.716 2.83175 -2.47969 0
M  V30 1841 C 189.863 1.57395 -2.28303 0
M  V30 1842 H 192.814 0.475937 -1.51395 0
M  V30 1843 H 192.835 3.11175 -2.18976 0
M  V30 1844 H 192.347 1.78729 -3.44496 0
M  V30 1845 H 190.448 3.3818 -1.56413 0
M  V30 1846 H 190.561 3.32687 -3.44755 0
M  V30 1847 H 188.925 1.83699 -1.76428 0
M  V30 1848 H 189.708 1.08507 -3.25701 0
M  V30 1849 N 192.153 1.28127 0.917671 0
M  V30 1850 C 193.401 1.14825 1.66312 0
M  V30 1851 C 193.722 -0.304379 1.9261 0
M  V30 1852 O 192.992 -1.21149 1.53947 0
M  V30 1853 H 191.572 0.421953 0.616413 0
M  V30 1854 H 194.234 1.608 1.10134 0
M  V30 1855 H 193.33 1.68489 2.62712 0
M  V30 1856 N 193.631 -1.12557 1.10312 0
M  V30 1857 C 195.042 -1.65574 0.862678 0
M  V30 1858 C 195.393 -1.86566 -0.607256 0
M  V30 1859 O 194.518 -1.59121 -1.46662 0
M  V30 1860 C 195.113 -3.00776 1.55947 0
M  V30 1861 C 193.672 -3.50748 1.36576 0
M  V30 1862 C 192.819 -2.25797 1.60968 0
M  V30 1863 H 195.77 -0.963552 1.26101 0
M  V30 1864 H 195.791 -3.67185 0.997753 0
M  V30 1865 H 195.303 -2.85465 2.62928 0
M  V30 1866 H 193.404 -3.71245 0.317531 0
M  V30 1867 H 193.517 -4.30289 2.10686 0
M  V30 1868 H 191.881 -2.32841 1.03234 0
M  V30 1869 H 192.664 -2.13043 2.69198 0
M  V30 1870 N 195.109 -0.891671 -1.2995 0
M  V30 1871 C 196.525 -0.58662 -1.48428 0
M  V30 1872 C 196.725 0.873951 -1.81561 0
M  V30 1873 O 195.781 1.65471 -1.90724 0
M  V30 1874 C 197.094 -1.50553 -2.60296 0
M  V30 1875 C 198.642 -1.50988 -2.74175 0
M  V30 1876 C 199.117 -2.41488 -3.89163 0
M  V30 1877 N 200.608 -2.39489 -3.96483 0
M  V30 1878 C 201.343 -3.06223 -4.84784 0
M  V30 1879 N 200.839 -3.82206 -5.77833 0
M  V30 1880 N 202.632 -2.95421 -4.78208 0
M  V30 1881 H 194.783 -1.83644 -1.06718 0
M  V30 1882 H 197.046 -0.786455 -0.529332 0
M  V30 1883 H 196.752 -2.54581 -2.42654 0
M  V30 1884 H 196.626 -1.22008 -3.56923 0
M  V30 1885 H 199.013 -0.47708 -2.91218 0
M  V30 1886 H 199.094 -1.83567 -1.78148 0
M  V30 1887 H 198.738 -3.44857 -3.72876 0
M  V30 1888 H 198.668 -2.06222 -4.84541 0
M  V30 1889 H 201.159 -1.84278 -3.29924 0
M  V30 1890 H 201.472 -4.302 -6.41988 0
M  V30 1891 H 199.817 -3.86313 -5.77743 0
M  V30 1892 H 203.008 -2.35581 -4.04499 0
M  V30 1893 H 203.181 -3.47704 -5.46814 0
M  V30 1894 N 196.587 1.43421 -0.653314 0
M  V30 1895 C 197.835 2.01414 -0.166415 0
M  V30 1896 C 198.156 1.51803 1.22397 0
M  V30 1897 O 197.426 0.730693 1.81763 0
M  V30 1898 H 196.006 0.744703 -0.0585319 0
M  V30 1899 H 198.668 1.75629 -0.845003 0
M  V30 1900 H 197.764 3.11734 -0.151111 0
M  V30 1901 N 198.065 0.39524 1.52563 0
M  V30 1902 C 199.012 -0.437036 2.26624 0
M  V30 1903 C 199.982 -1.05281 1.28472 0
M  V30 1904 O 201.167 -1.07971 1.57311 0
M  V30 1905 C 198.307 -1.55524 3.08069 0
M  V30 1906 C 197.42 -0.961745 4.21158 0
M  V30 1907 C 196.555 -2.05149 4.89987 0
M  V30 1908 C 195.594 -1.4342 5.95061 0
M  V30 1909 N 194.731 -2.46351 6.57462 0
M  V30 1910 H 199.571 0.200976 2.97322 0
M  V30 1911 H 197.108 0.110944 1.46681 0
M  V30 1912 H 199.066 -2.21437 3.53584 0
M  V30 1913 H 197.696 -2.16348 2.3957 0
M  V30 1914 H 196.748 -0.192048 3.79915 0
M  V30 1915 H 198.06 -0.470701 4.96574 0
M  V30 1916 H 197.214 -2.78819 5.38837 0
M  V30 1917 H 195.953 -2.57615 4.14109 0
M  V30 1918 H 194.958 -0.682774 5.45544 0
M  V30 1919 H 196.183 -0.917416 6.72875 0
M  V30 1920 H 194.129 -2.97975 5.8442 0
M  V30 1921 H 194.046 -2.02019 7.28508 0
M  V30 1922 H 195.314 -3.19633 7.10954 0
M  V30 1923 N 199.544 -1.57102 0.125237 0
M  V30 1924 C 200.955 -1.82384 -0.399142 0
M  V30 1925 C 201.306 -1.04276 -1.66195 0
M  V30 1926 O 200.431 -0.281269 -2.14564 0
M  V30 1927 C 201.026 -3.30821 -0.730932 0
M  V30 1928 C 199.585 -3.56762 -1.19992 0
M  V30 1929 C 198.732 -2.7649 -0.211792 0
M  V30 1930 H 201.683 -1.54786 0.350277 0
M  V30 1931 H 201.704 -3.4579 -1.58775 0
M  V30 1932 H 201.216 -3.87643 0.188345 0
M  V30 1933 H 199.317 -3.05305 -2.13588 0
M  V30 1934 H 199.43 -4.65317 -1.14093 0
M  V30 1935 H 197.794 -2.4489 -0.700085 0
M  V30 1936 H 198.577 -3.36073 0.700691 0
M  V30 1937 N 201.022 0.148545 -1.56898 0
M  V30 1938 C 202.27 0.859717 -1.82902 0
M  V30 1939 C 202.591 1.81775 -0.70588 0
M  V30 1940 O 201.861 1.93994 0.272586 0
M  V30 1941 H 200.441 0.320469 -0.674766 0
M  V30 1942 H 203.103 0.142918 -1.94375 0
M  V30 1943 H 202.199 1.4229 -2.77777 0
M  V30 1944 N 202.5 1.5196 0.417844 0
M  V30 1945 C 203.433 1.69387 1.52916 0
M  V30 1946 C 204.411 0.541419 1.53321 0
M  V30 1947 O 205.595 0.767695 1.72159 0
M  V30 1948 C 202.722 1.72525 2.91467 0
M  V30 1949 C 201.768 2.93967 3.09008 0
M  V30 1950 S 202.601 4.54461 2.83242 0
M  V30 1951 C 203.757 4.60372 4.24038 0
M  V30 1952 H 203.99 2.63382 1.37903 0
M  V30 1953 H 201.523 1.41889 0.608845 0
M  V30 1954 H 203.481 1.75018 3.7132 0
M  V30 1955 H 202.142 0.796733 3.03827 0
M  V30 1956 H 201.335 2.92619 4.10353 0
M  V30 1957 H 200.937 2.89316 2.37007 0
M  V30 1958 H 203.229 4.37213 5.17544 0
M  V30 1959 H 204.172 5.62273 4.30412 0
M  V30 1960 H 204.58 3.89492 4.08602 0
M  V30 1961 N 203.978 -0.674533 1.42435 0
M  V30 1962 C 205.203 -1.46784 1.46524 0
M  V30 1963 C 205.628 -1.87938 0.078066 0
M  V30 1964 O 204.986 -1.56014 -0.92354 0
M  V30 1965 C 205.034 -2.69307 2.39805 0
M  V30 1966 O 204.138 -3.67587 1.86959 0
M  V30 1967 H 203.479 -0.440959 0.496439 0
M  V30 1968 H 206.009 -0.827326 1.87127 0
M  V30 1969 H 206.019 -3.17374 2.56393 0
M  V30 1970 H 204.694 -2.38692 3.40586 0
M  V30 1971 H 203.271 -3.2662 1.79927 0
M  V30 1972 N 205.456 -1.28612 -0.910864 0
M  V30 1973 C 206.704 -1.15705 -1.65701 0
M  V30 1974 C 207.025 0.29416 -1.92769 0
M  V30 1975 O 206.295 1.20331 -1.54588 0
M  V30 1976 H 204.875 -0.425216 -0.614167 0
M  V30 1977 H 207.537 -1.61381 -1.0928 0
M  V30 1978 H 206.633 -1.6988 -2.61815 0
M  V30 1979 N 206.934 1.1197 -1.10907 0
M  V30 1980 C 207.884 2.15946 -0.731538 0
M  V30 1981 C 208.868 1.58758 0.261699 0
M  V30 1982 O 210.06 1.76863 0.0696722 0
M  V30 1983 C 207.189 3.42877 -0.170299 0
M  V30 1984 C 206.275 4.07037 -1.19087 0
M  V30 1985 N 206.666 4.46135 -2.38322 0
M  V30 1986 C 204.964 4.33884 -1.03252 0
M  V30 1987 C 205.665 4.96331 -3.03366 0
M  V30 1988 N 204.641 4.9214 -2.30865 0
M  V30 1989 H 208.443 2.43947 -1.63912 0
M  V30 1990 H 205.957 1.28927 -0.987505 0
M  V30 1991 H 207.954 4.16732 0.118271 0
M  V30 1992 H 206.614 3.16343 0.731935 0
M  V30 1993 H 207.625 4.38345 -2.75815 0
M  V30 1994 H 204.302 4.17084 -0.186256 0
M  V30 1995 H 205.692 5.36257 -4.04818 0
M  V30 1996 N 208.412 0.89855 1.29475 0
M  V30 1997 C 209.36 0.365253 2.29714 0
M  V30 1998 C 210.354 -0.534993 1.6073 0
M  V30 1999 O 211.56 -0.417921 1.75081 0
M  V30 2000 H 207.935 0.0994853 0.74539 0
M  V30 2001 H 209.906 1.22406 2.72138 0
M  V30 2002 C 208.655 -0.393159 3.4547 0
M  V30 2003 H 207.978 0.290332 3.98744 0
M  V30 2004 H 209.418 -0.731189 4.17648 0
M  V30 2005 C 207.877 -1.59539 2.9673 0
M  V30 2006 O 208.407 -2.69469 2.97908 0
M  V30 2007 N 206.613 -1.43716 2.52575 0
M  V30 2008 H 206.16 -0.542828 2.51816 0
M  V30 2009 H 206.118 -2.24288 2.20323 0
M  V30 2010 N 209.89 -1.43072 0.660911 0
M  V30 2011 C 211.138 -2.01323 0.177094 0
M  V30 2012 C 211.459 -1.5245 -1.2159 0
M  V30 2013 O 210.729 -0.740322 -1.81373 0
M  V30 2014 H 209.309 -0.744382 0.0624804 0
M  V30 2015 H 211.971 -1.75179 0.854305 0
M  V30 2016 H 211.067 -3.11649 0.167641 0
M  V30 2017 N 211.368 -0.403325 -1.52352 0
M  V30 2018 C 212.593 0.176499 -2.06648 0
M  V30 2019 C 213.018 1.38577 -1.27193 0
M  V30 2020 O 212.376 1.7879 -0.300637 0
M  V30 2021 C 212.424 0.511061 -3.5696 0
M  V30 2022 O 211.528 1.60294 -3.79973 0
M  V30 2023 H 210.869 0.0167337 -0.663789 0
M  V30 2024 H 213.399 -0.574848 -1.96359 0
M  V30 2025 H 213.409 0.771362 -4.00642 0
M  V30 2026 H 212.084 -0.37296 -4.14224 0
M  V30 2027 H 210.661 1.33526 -3.48174 0
M  V30 2028 N 212.846 1.57033 -0.133567 0
M  V30 2029 C 214.262 1.58035 0.222944 0
M  V30 2030 C 214.462 1.14713 1.6566 0
M  V30 2031 O 213.518 0.841218 2.38075 0
M  V30 2032 C 214.831 3.00691 -0.0236116 0
M  V30 2033 C 216.379 3.12973 0.0411512 0
M  V30 2034 C 216.854 4.57654 -0.177899 0
M  V30 2035 N 218.345 4.63033 -0.124365 0
M  V30 2036 C 219.08 5.72771 -0.268553 0
M  V30 2037 N 218.576 6.91206 -0.46972 0
M  V30 2038 N 220.369 5.61718 -0.2071 0
M  V30 2039 H 212.52 1.8349 -1.06981 0
M  V30 2040 H 214.783 0.848677 -0.422436 0
M  V30 2041 H 214.489 3.36726 -1.0153 0
M  V30 2042 H 214.363 3.70614 0.701808 0
M  V30 2043 H 216.75 2.76787 1.02338 0
M  V30 2044 H 216.831 2.45564 -0.716383 0
M  V30 2045 H 216.475 4.94542 -1.15717 0
M  V30 2046 H 216.405 5.23173 0.599797 0
M  V30 2047 H 218.896 3.7789 0.027011 0
M  V30 2048 H 219.209 7.70693 -0.570212 0
M  V30 2049 H 217.554 6.93156 -0.505876 0
M  V30 2050 H 220.745 4.68072 -0.0507986 0
M  V30 2051 H 220.918 6.47195 -0.322909 0
M  V30 2052 N 214.325 -0.140222 1.56975 0
M  V30 2053 C 215.573 -0.850005 1.83356 0
M  V30 2054 C 215.894 -1.81399 0.71551 0
M  V30 2055 O 215.164 -1.94136 -0.262294 0
M  V30 2056 H 213.744 -0.316886 0.676456 0
M  V30 2057 H 216.406 -0.132608 1.94448 0
M  V30 2058 H 215.502 -1.40814 2.78528 0
M  V30 2059 N 215.803 -1.52179 -0.40978 0
M  V30 2060 C 217.08 -1.56769 -1.16974 0
M  V30 2061 C 217.46 -0.348322 -2.08206 0
M  V30 2062 O 216.808 0.664862 -2.18613 0
M  V30 2063 C 217.018 -2.89603 -1.9476 0
M  V30 2064 C 218.366 -3.42579 -2.50849 0
M  V30 2065 O 219.39 -2.91338 -2.04941 0
M  V30 2066 O 218.249 -4.32054 -3.34652 0
M  V30 2067 H 215.343 -0.631439 -0.534054 0
M  V30 2068 H 217.889 -1.64507 -0.416613 0
M  V30 2069 H 216.661 -3.698 -1.27921 0
M  V30 2070 H 216.284 -2.85155 -2.77079 0
M  V30 2071 N 217.281 0.66697 -1.42791 0
M  V30 2072 C 218.692 1.2478 -1.38877 0
M  V30 2073 C 219.043 1.96012 -0.0859426 0
M  V30 2074 O 218.168 2.00463 0.815081 0
M  V30 2075 C 218.763 2.26938 -2.51564 0
M  V30 2076 C 217.322 2.80529 -2.50959 0
M  V30 2077 C 216.469 1.54965 -2.29959 0
M  V30 2078 H 219.42 0.459853 -1.51892 0
M  V30 2079 H 219.441 3.08834 -2.22265 0
M  V30 2080 H 218.953 1.75065 -3.46372 0
M  V30 2081 H 217.054 3.36502 -1.59991 0
M  V30 2082 H 217.167 3.29012 -3.48265 0
M  V30 2083 H 215.531 1.81817 -1.78366 0
M  V30 2084 H 216.314 1.05047 -3.26833 0
M  V30 2085 N 218.759 1.29093 0.90403 0
M  V30 2086 C 220.007 1.16583 1.65085 0
M  V30 2087 C 220.328 -0.283933 1.92922 0
M  V30 2088 O 219.598 -1.19509 1.55224 0
M  V30 2089 H 218.178 0.428467 0.611903 0
M  V30 2090 H 220.84 1.61959 1.08422 0
M  V30 2091 H 219.936 1.71266 2.6091 0
M  V30 2092 N 220.237 -1.11381 1.11499 0
M  V30 2093 C 221.484 -1.83132 0.864231 0
M  V30 2094 C 221.812 -1.84683 -0.610114 0
M  V30 2095 O 221.067 -1.29589 -1.46646 0
M  V30 2096 C 221.366 -3.30026 1.37177 0
M  V30 2097 C 221.032 -3.48634 2.85946 0
M  V30 2098 C 219.694 -3.53421 3.26569 0
M  V30 2099 C 222.046 -3.54837 3.81759 0
M  V30 2100 C 219.374 -3.61967 4.61733 0
M  V30 2101 C 221.726 -3.64915 5.1674 0
M  V30 2102 C 220.39 -3.67962 5.5692 0
M  V30 2103 H 219.66 -0.670127 0.316245 0
M  V30 2104 H 222.307 -1.31354 1.3935 0
M  V30 2105 H 220.612 -3.84304 0.762753 0
M  V30 2106 H 222.309 -3.84034 1.15408 0
M  V30 2107 H 218.899 -3.45579 2.53521 0
M  V30 2108 H 223.083 -3.50399 3.51474 0
M  V30 2109 H 218.339 -3.62603 4.92269 0
M  V30 2110 H 222.513 -3.68658 5.90816 0
M  V30 2111 H 220.14 -3.74336 6.61647 0
M  V30 2112 N 221.715 -0.905404 -1.28997 0
M  V30 2113 C 223.126 -0.581953 -1.77398 0
M  V30 2114 C 223.477 0.902552 -1.74208 0
M  V30 2115 O 222.602 1.70584 -1.33154 0
M  V30 2116 C 223.197 -1.04961 -3.22131 0
M  V30 2117 C 221.756 -0.777229 -3.68288 0
M  V30 2118 C 220.903 -1.22109 -2.48967 0
M  V30 2119 H 223.854 -1.08754 -1.15578 0
M  V30 2120 H 223.875 -0.387387 -3.78523 0
M  V30 2121 H 223.387 -2.13008 -3.24421 0
M  V30 2122 H 221.488 0.290383 -3.71467 0
M  V30 2123 H 221.601 -1.37911 -4.58822 0
M  V30 2124 H 219.965 -0.639971 -2.46529 0
M  V30 2125 H 220.748 -2.30972 -2.53982 0
M  V30 2126 N 223.193 1.4272 -0.668489 0
M  V30 2127 C 224.441 2.01226 -0.187769 0
M  V30 2128 C 224.762 1.53092 1.2078 0
M  V30 2129 O 224.032 0.74993 1.80977 0
M  V30 2130 H 222.612 0.744041 -0.0664272 0
M  V30 2131 H 225.274 1.74723 -0.863583 0
M  V30 2132 H 224.37 3.11556 -0.184166 0
M  V30 2133 N 224.671 0.411399 1.52136 0
M  V30 2134 C 225.919 -0.163322 2.01439 0
M  V30 2135 C 226.24 -1.45453 1.29879 0
M  V30 2136 O 225.51 -1.91225 0.4254 0
M  V30 2137 H 224.09 -0.0633447 0.744309 0
M  V30 2138 H 226.752 0.548161 1.87033 0
M  V30 2139 H 225.848 -0.357817 3.10042 0
M  V30 2140 N 226.149 -1.5696 0.141893 0
M  V30 2141 C 227.565 -1.58151 -0.21456 0
M  V30 2142 C 227.765 -1.1559 -1.65049 0
M  V30 2143 O 226.821 -0.853832 -2.37626 0
M  V30 2144 C 228.134 -3.00674 0.0395576 0
M  V30 2145 C 229.682 -3.1299 -0.0245529 0
M  V30 2146 C 230.157 -4.57554 0.202167 0
M  V30 2147 N 231.648 -4.62961 0.148919 0
M  V30 2148 C 232.383 -5.7262 0.298924 0
M  V30 2149 N 231.879 -6.90947 0.50637 0
M  V30 2150 N 233.672 -5.61601 0.236886 0
M  V30 2151 H 225.823 -1.8292 1.07953 0
M  V30 2152 H 228.086 -0.846425 0.42693 0
M  V30 2153 H 227.792 -3.36183 1.03315 0
M  V30 2154 H 227.666 -3.70981 -0.682143 0
M  V30 2155 H 230.053 -2.77326 -1.00869 0
M  V30 2156 H 230.134 -2.4518 0.729396 0
M  V30 2157 H 229.778 -4.93922 1.18338 0
M  V30 2158 H 229.708 -5.23484 -0.572044 0
M  V30 2159 H 232.199 -3.77899 -0.00697015 0
M  V30 2160 H 232.512 -7.7038 0.611076 0
M  V30 2161 H 230.857 -6.92878 0.542628 0
M  V30 2162 H 234.048 -4.68039 0.0756209 0
M  V30 2163 H 234.221 -6.47015 0.357227 0
M  V30 2164 N 227.627 0.131896 -1.57047 0
M  V30 2165 C 228.875 0.840269 -1.83804 0
M  V30 2166 C 229.196 1.81017 -0.72512 0
M  V30 2167 O 228.466 1.94272 0.251995 0
M  V30 2168 H 227.046 0.313294 -0.678127 0
M  V30 2169 H 229.708 0.122294 -1.94516 0
M  V30 2170 H 228.804 1.39335 -2.79271 0
M  V30 2171 N 229.106 1.52395 0.401703 0
M  V30 2172 C 230.069 1.75636 1.47257 0
M  V30 2173 C 231.069 0.62628 1.48103 0
M  V30 2174 O 232.259 0.894227 1.49497 0
M  V30 2175 C 229.391 1.84553 2.86624 0
M  V30 2176 H 230.584 2.71241 1.27938 0
M  V30 2177 H 228.137 1.42923 0.632662 0
M  V30 2178 H 228.872 0.908882 3.11303 0
M  V30 2179 H 228.657 2.66715 2.87412 0
M  V30 2180 H 230.147 2.04251 3.64241 0
M  V30 2181 N 230.584 -0.659388 1.43143 0
M  V30 2182 C 231.514 -1.78422 1.50625 0
M  V30 2183 C 232.495 -1.66216 0.361443 0
M  V30 2184 O 233.68 -1.85404 0.577834 0
M  V30 2185 C 230.81 -3.16815 1.42287 0
M  V30 2186 C 229.764 -3.43777 2.54954 0
M  V30 2187 C 229.09 -4.81905 2.31671 0
M  V30 2188 C 230.39 -3.39134 3.97222 0
M  V30 2189 H 232.084 -1.72417 2.44771 0
M  V30 2190 H 229.63 -0.828084 1.17808 0
M  V30 2191 H 231.583 -3.95253 1.46127 0
M  V30 2192 H 230.307 -3.23534 0.446435 0
M  V30 2193 H 228.966 -2.67707 2.50457 0
M  V30 2194 H 228.614 -4.85294 1.32284 0
M  V30 2195 H 228.314 -5.00906 3.07192 0
M  V30 2196 H 229.838 -5.62609 2.37284 0
M  V30 2197 H 231.252 -4.07518 4.03239 0
M  V30 2198 H 229.649 -3.69671 4.72719 0
M  V30 2199 H 230.719 -2.37426 4.22797 0
M  V30 2200 N 232.062 -1.29571 -0.897171 0
M  V30 2201 C 233.31 -1.17456 -1.64464 0
M  V30 2202 C 233.631 0.273698 -1.9307 0
M  V30 2203 O 232.901 1.18684 -1.55855 0
M  V30 2204 H 231.481 -0.431706 -0.609622 0
M  V30 2205 H 234.143 -1.62531 -1.07562 0
M  V30 2206 H 233.239 -1.72648 -2.59998 0
M  V30 2207 N 233.54 1.10788 -1.12088 0
M  V30 2208 C 234.951 1.64181 -0.88891 0
M  V30 2209 C 235.302 1.87508 0.577498 0
M  V30 2210 O 234.427 1.61434 1.44112 0
M  V30 2211 C 235.022 2.98257 -1.60712 0
M  V30 2212 C 233.581 3.4853 -1.42139 0
M  V30 2213 C 232.728 2.23208 -1.6454 0
M  V30 2214 H 235.679 0.943368 -1.27618 0
M  V30 2215 H 235.7 3.65552 -1.05604 0
M  V30 2216 H 235.212 2.81246 -2.67436 0
M  V30 2217 H 233.313 3.70692 -0.376552 0
M  V30 2218 H 233.426 4.26882 -2.17505 0
M  V30 2219 H 231.79 2.31169 -1.06925 0
M  V30 2220 H 232.573 2.08733 -2.72554 0
M  V30 2221 N 235.018 0.912232 1.28515 0
M  V30 2222 C 236.266 0.543523 1.94654 0
M  V30 2223 C 236.587 -0.9155 1.72173 0
M  V30 2224 O 235.857 -1.64708 1.06058 0
M  V30 2225 H 234.437 0.198017 0.720277 0
M  V30 2226 H 237.099 1.16126 1.56527 0
M  V30 2227 H 236.195 0.736684 3.03281 0
M  V30 2228 N 236.496 -1.42363 0.676048 0
M  V30 2229 C 237.744 -2.01123 0.198437 0
M  V30 2230 C 238.065 -1.53731 -1.19966 0
M  V30 2231 O 237.335 -0.759518 -1.80577 0
M  V30 2232 H 235.915 -0.743678 0.0703721 0
M  V30 2233 H 238.577 -1.74263 0.872837 0
M  V30 2234 H 237.673 -3.11454 0.200686 0
M  V30 2235 N 237.974 -0.419461 -1.51915 0
M  V30 2236 C 239.385 0.0477853 -1.86639 0
M  V30 2237 C 239.736 1.43531 -1.33766 0
M  V30 2238 O 238.861 2.05401 -0.68113 0
M  V30 2239 C 239.456 0.0934885 -3.38671 0
M  V30 2240 C 238.015 0.505097 -3.72996 0
M  V30 2241 C 237.162 -0.313792 -2.75519 0
M  V30 2242 H 240.113 -0.636088 -1.45395 0
M  V30 2243 H 240.134 0.906667 -3.6954 0
M  V30 2244 H 239.646 -0.916501 -3.77123 0
M  V30 2245 H 237.747 1.52135 -3.40126 0
M  V30 2246 H 237.86 0.242309 -4.78487 0
M  V30 2247 H 236.224 0.225363 -2.53701 0
M  V30 2248 H 237.007 -1.32232 -3.16812 0
M  V30 2249 N 239.452 1.56882 -0.150215 0
M  V30 2250 C 240.382 2.19935 0.784284 0
M  V30 2251 C 241.363 1.14854 1.25469 0
M  V30 2252 O 242.548 1.43209 1.31168 0
M  V30 2253 C 239.678 2.82349 2.02229 0
M  V30 2254 C 238.632 3.93285 1.68853 0
M  V30 2255 C 237.958 4.42649 2.99944 0
M  V30 2256 C 239.258 5.13904 0.932714 0
M  V30 2257 H 240.952 2.9828 0.258781 0
M  V30 2258 H 238.498 1.43473 0.123029 0
M  V30 2259 H 240.451 3.25126 2.68088 0
M  V30 2260 H 239.175 2.0134 2.57157 0
M  V30 2261 H 237.834 3.5113 1.05371 0
M  V30 2262 H 237.482 3.58458 3.52869 0
M  V30 2263 H 237.182 5.17476 2.78374 0
M  V30 2264 H 238.706 4.88099 3.66868 0
M  V30 2265 H 240.12 5.53506 1.49345 0
M  V30 2266 H 238.517 5.94515 0.81684 0
M  V30 2267 H 239.587 4.84842 -0.0749568 0
M  V30 2268 N 240.93 -0.123565 1.57115 0
M  V30 2269 C 242.178 -0.83051 1.84247 0
M  V30 2270 C 242.499 -1.80629 0.73471 0
M  V30 2271 O 241.769 -1.94403 -0.241688 0
M  V30 2272 H 240.349 -0.309694 0.679778 0
M  V30 2273 H 243.011 -0.111976 1.94578 0
M  V30 2274 H 242.107 -1.37852 2.80006 0
M  V30 2275 N 242.408 -1.52605 -0.393616 0
M  V30 2276 C 243.358 -1.73436 -1.48 0
M  V30 2277 C 244.342 -0.588386 -1.49756 0
M  V30 2278 O 245.534 -0.846047 -1.5547 0
M  V30 2279 C 242.663 -1.90247 -2.85764 0
M  V30 2280 C 241.749 -3.10763 -2.88595 0
M  V30 2281 N 242.14 -4.33196 -2.61103 0
M  V30 2282 C 240.438 -3.10914 -3.19763 0
M  V30 2283 C 241.139 -5.1477 -2.70899 0
M  V30 2284 N 240.115 -4.50356 -3.04435 0
M  V30 2285 H 243.917 -2.65727 -1.25563 0
M  V30 2286 H 241.431 -1.5085 -0.601513 0
M  V30 2287 H 243.428 -2.03291 -3.63976 0
M  V30 2288 H 242.088 -0.991663 -3.09186 0
M  V30 2289 H 243.099 -4.61408 -2.35209 0
M  V30 2290 H 239.776 -2.29626 -3.4868 0
M  V30 2291 H 241.166 -6.22355 -2.53227 0
M  V30 2292 N 243.887 0.651787 -1.4349 0
M  V30 2293 C 245.298 1.233 -1.40193 0
M  V30 2294 C 245.649 1.9591 -0.106727 0
M  V30 2295 O 244.774 2.01316 0.793773 0
M  V30 2296 C 245.369 2.24257 -2.53957 0
M  V30 2297 C 243.928 2.77852 -2.5392 0
M  V30 2298 C 243.075 1.52517 -2.3159 0
M  V30 2299 H 246.026 0.443717 -1.52371 0
M  V30 2300 H 246.047 3.0646 -2.25528 0
M  V30 2301 H 245.559 1.71382 -3.4821 0
M  V30 2302 H 243.66 3.34786 -1.63551 0
M  V30 2303 H 243.773 3.25299 -3.51735 0
M  V30 2304 H 242.137 1.79915 -1.80285 0
M  V30 2305 H 242.92 1.01574 -3.27929 0
M  V30 2306 N 245.365 1.30045 0.890287 0
M  V30 2307 C 246.613 1.18327 1.63839 0
M  V30 2308 C 246.934 -0.263455 1.93212 0
M  V30 2309 O 246.204 -1.17856 1.56482 0
M  V30 2310 H 244.784 0.434933 0.607324 0
M  V30 2311 H 247.446 1.631 1.06698 0
M  V30 2312 H 246.542 1.74024 2.59079 0
M  V30 2313 N 246.843 -1.10192 1.12674 0
M  V30 2314 C 247.753 -2.20172 0.810026 0
M  V30 2315 C 248.769 -1.72821 -0.202188 0
M  V30 2316 O 249.945 -2.01369 -0.0351691 0
M  V30 2317 C 247.01 -3.45631 0.272007 0
M  V30 2318 C 246.071 -4.07704 1.34447 0
M  V30 2319 C 245.304 -5.27175 0.832029 0
M  V30 2320 O 245.527 -5.69425 -0.333284 0
M  V30 2321 O 244.461 -5.80168 1.60277 0
M  V30 2322 H 248.287 -2.49701 1.72867 0
M  V30 2323 H 245.872 -1.18977 0.903597 0
M  V30 2324 H 247.754 -4.21394 -0.0230219 0
M  V30 2325 H 246.429 -3.17723 -0.619164 0
M  V30 2326 H 245.336 -3.33614 1.6927 0
M  V30 2327 H 246.669 -4.3982 2.2095 0
M  V30 2328 N 248.321 -0.919034 -1.28029 0
M  V30 2329 C 249.268 -0.410005 -2.27129 0
M  V30 2330 C 250.238 0.518405 -1.57803 0
M  V30 2331 O 251.423 0.439451 -1.8567 0
M  V30 2332 C 248.563 0.339054 -3.4343 0
M  V30 2333 C 247.676 -0.622468 -4.27492 0
M  V30 2334 C 246.811 0.145567 -5.31001 0
M  V30 2335 C 245.85 -0.809226 -6.06727 0
M  V30 2336 N 244.987 -0.0743728 -7.02061 0
M  V30 2337 H 249.827 -1.26011 -2.70047 0
M  V30 2338 H 247.364 -0.632663 -1.328 0
M  V30 2339 H 249.322 0.789586 -4.0966 0
M  V30 2340 H 247.952 1.15346 -3.01488 0
M  V30 2341 H 247.004 -1.19153 -3.61257 0
M  V30 2342 H 248.316 -1.35252 -4.80113 0
M  V30 2343 H 247.47 0.656417 -6.03139 0
M  V30 2344 H 246.209 0.908643 -4.79161 0
M  V30 2345 H 245.214 -1.3314 -5.33436 0
M  V30 2346 H 246.439 -1.57194 -6.60656 0
M  V30 2347 H 244.385 0.670616 -6.52563 0
M  V30 2348 H 244.302 -0.744157 -7.52329 0
M  V30 2349 H 245.57 0.416109 -7.78389 0
M  V30 2350 N 249.799 1.42003 -0.683588 0
M  V30 2351 C 251.047 2.01015 -0.209101 0
M  V30 2352 C 251.368 1.54365 1.19149 0
M  V30 2353 O 250.638 0.769083 1.80172 0
M  V30 2354 H 249.218 0.743294 -0.074315 0
M  V30 2355 H 251.88 1.73798 -0.882066 0
M  V30 2356 H 250.976 3.11343 -0.2172 0
M  V30 2357 N 251.277 0.427512 1.51691 0
M  V30 2358 C 252.187 -0.39527 2.31246 0
M  V30 2359 C 253.203 -1.03674 1.39742 0
M  V30 2360 O 254.379 -1.03425 1.72816 0
M  V30 2361 C 251.444 -1.48706 3.13189 0
M  V30 2362 C 250.505 -0.866743 4.20459 0
M  V30 2363 C 249.738 -1.90651 4.98486 0
M  V30 2364 O 249.961 -3.12733 4.77026 0
M  V30 2365 O 248.895 -1.5025 5.82845 0
M  V30 2366 H 252.721 0.253918 3.02637 0
M  V30 2367 H 250.306 0.190274 1.48183 0
M  V30 2368 H 252.188 -2.12047 3.64162 0
M  V30 2369 H 250.863 -2.12051 2.44573 0
M  V30 2370 H 249.77 -0.195544 3.73589 0
M  V30 2371 H 251.103 -0.276934 4.9142 0
M  V30 2372 N 252.755 -1.56801 0.158532 0
M  V30 2373 C 253.702 -2.17337 -0.776729 0
M  V30 2374 C 254.672 -1.1096 -1.23601 0
M  V30 2375 O 255.857 -1.39054 -1.30647 0
M  V30 2376 C 252.997 -2.80822 -2.00582 0
M  V30 2377 C 252.11 -4.01624 -1.59129 0
M  V30 2378 C 251.245 -4.53072 -2.77306 0
M  V30 2379 C 250.284 -5.66314 -2.32282 0
M  V30 2380 N 249.421 -6.12329 -3.43508 0
M  V30 2381 H 254.261 -2.96918 -0.253701 0
M  V30 2382 H 251.798 -1.46661 -0.113504 0
M  V30 2383 H 253.756 -3.15779 -2.72652 0
M  V30 2384 H 252.386 -2.03866 -2.50277 0
M  V30 2385 H 251.438 -3.72571 -0.767806 0
M  V30 2386 H 252.75 -4.83633 -1.2207 0
M  V30 2387 H 251.904 -4.90145 -3.57551 0
M  V30 2388 H 250.643 -3.70095 -3.17617 0
M  V30 2389 H 249.648 -5.28806 -1.5048 0
M  V30 2390 H 250.873 -6.51085 -1.93043 0
M  V30 2391 H 248.819 -5.32284 -3.83418 0
M  V30 2392 H 248.736 -6.89293 -3.105 0
M  V30 2393 H 250.004 -6.5405 -4.24075 0
M  V30 2394 N 254.233 0.115231 -1.57178 0
M  V30 2395 C 255.481 0.820727 -1.84685 0
M  V30 2396 C 255.802 1.80237 -0.744279 0
M  V30 2397 O 255.072 1.94529 0.231375 0
M  V30 2398 H 253.652 0.306084 -0.681411 0
M  V30 2399 H 256.314 0.101656 -1.94635 0
M  V30 2400 H 255.41 1.36366 -2.80733 0
M  V30 2401 N 255.711 1.52812 0.385517 0
M  V30 2402 C 256.659 1.78482 1.49155 0
M  V30 2403 C 257.653 0.652914 1.56312 0
M  V30 2404 O 258.859 0.835464 1.59436 0
M  V30 2405 H 255.234 0.5648 0.496493 0
M  V30 2406 H 257.205 2.71095 1.24699 0
M  V30 2407 C 255.954 1.97378 2.86247 0
M  V30 2408 H 255.277 2.83907 2.81491 0
M  V30 2409 H 256.717 2.19327 3.62866 0
M  V30 2410 C 255.176 0.74728 3.28508 0
M  V30 2411 O 255.706 -0.0736232 4.01633 0
M  V30 2412 N 253.912 0.576396 2.84826 0
M  V30 2413 H 253.459 1.24555 2.25486 0
M  V30 2414 H 253.417 -0.24288 3.1346 0
M  V30 2415 N 257.189 -0.644168 1.43834 0
M  V30 2416 C 258.414 -1.43642 1.49605 0
M  V30 2417 C 258.839 -1.8773 0.117913 0
M  V30 2418 O 258.197 -1.57938 -0.890239 0
M  V30 2419 C 258.245 -2.6416 2.45463 0
M  V30 2420 O 257.349 -3.63538 1.94714 0
M  V30 2421 H 256.69 -0.430329 0.50568 0
M  V30 2422 H 259.22 -0.787448 1.8884 0
M  V30 2423 H 259.23 -3.11864 2.63068 0
M  V30 2424 H 257.905 -2.31414 3.45572 0
M  V30 2425 H 256.482 -3.2273 1.86814 0
M  V30 2426 N 258.668 -1.30515 -0.883378 0
M  V30 2427 C 259.914 -1.19607 -1.63774 0
M  V30 2428 C 260.247 0.248314 -1.92606 0
M  V30 2429 O 259.522 1.17742 -1.54813 0
M  V30 2430 C 259.805 -2.02669 -2.97653 0
M  V30 2431 C 259.658 -3.55335 -2.75784 0
M  V30 2432 C 260.977 -1.86573 -3.98596 0
M  V30 2433 H 258.096 -0.435856 -0.594305 0
M  V30 2434 H 260.738 -1.60165 -1.02212 0
M  V30 2435 H 258.888 -1.68208 -3.50197 0
M  V30 2436 H 260.56 -3.99863 -2.30016 0
M  V30 2437 H 258.803 -3.79438 -2.1026 0
M  V30 2438 H 259.474 -4.08745 -3.70988 0
M  V30 2439 H 261.95 -2.16703 -3.55217 0
M  V30 2440 H 260.826 -2.47014 -4.90179 0
M  V30 2441 H 261.087 -0.825321 -4.34328 0
M  V30 2442 N 260.146 1.09593 -1.13257 0
M  V30 2443 C 261.393 1.81734 -0.893257 0
M  V30 2444 C 261.721 1.8563 0.580656 0
M  V30 2445 O 260.976 1.31906 1.44566 0
M  V30 2446 C 261.275 3.27802 -1.42411 0
M  V30 2447 C 260.941 3.44041 -2.91456 0
M  V30 2448 C 259.603 3.48181 -3.3215 0
M  V30 2449 C 261.955 3.48719 -3.87356 0
M  V30 2450 C 259.283 3.54575 -4.67433 0
M  V30 2451 C 261.635 3.56648 -5.2248 0
M  V30 2452 C 260.299 3.59055 -5.62704 0
M  V30 2453 H 259.569 0.665011 -0.326866 0
M  V30 2454 H 262.216 1.2912 -1.41422 0
M  V30 2455 H 260.521 3.83042 -0.823795 0
M  V30 2456 H 262.218 3.82149 -1.21503 0
M  V30 2457 H 258.808 3.41502 -2.58987 0
M  V30 2458 H 262.992 3.44763 -3.57004 0
M  V30 2459 H 258.248 3.54725 -4.97976 0
M  V30 2460 H 262.422 3.59212 -5.96607 0
M  V30 2461 H 260.049 3.63763 -6.67518 0
M  V30 2462 N 261.624 0.925811 1.2754 0
M  V30 2463 C 262.873 0.561084 1.93739 0
M  V30 2464 C 263.186 -0.901685 1.73577 0
M  V30 2465 O 264.392 -1.37511 2.34101 0
M  V30 2466 C 262.848 0.952668 3.47062 0
M  V30 2467 C 262.456 2.43599 3.75983 0
M  V30 2468 C 264.2 0.659103 4.19352 0
M  V30 2469 C 262.107 2.76707 5.22673 0
M  V30 2470 H 261.037 0.206122 0.725279 0
M  V30 2471 H 263.688 1.12637 1.44863 0
M  V30 2472 H 262.07 0.316053 3.94737 0
M  V30 2473 H 263.244 3.12035 3.39073 0
M  V30 2474 H 261.559 2.70125 3.16893 0
M  V30 2475 H 264.156 0.882985 5.27359 0
M  V30 2476 H 264.499 -0.403607 4.14339 0
M  V30 2477 H 265.032 1.25473 3.77494 0
M  V30 2478 H 261.771 3.8188 5.32774 0
M  V30 2479 H 261.291 2.12919 5.60737 0
M  V30 2480 H 262.97 2.6435 5.90532 0
M  V30 2481 N 263.102 -1.41638 0.69111 0
M  V30 2482 C 264.032 -2.3347 0.037248 0
M  V30 2483 C 265.013 -1.51575 -0.771947 0
M  V30 2484 O 266.198 -1.80126 -0.72582 0
M  V30 2485 C 263.328 -3.35354 -0.903064 0
M  V30 2486 C 262.282 -4.27526 -0.201288 0
M  V30 2487 C 261.608 -5.19747 -1.25565 0
M  V30 2488 C 262.908 -5.13959 0.929689 0
M  V30 2489 H 264.602 -2.88397 0.804227 0
M  V30 2490 H 262.148 -1.38669 0.388189 0
M  V30 2491 H 264.101 -3.98519 -1.36969 0
M  V30 2492 H 262.825 -2.78767 -1.70166 0
M  V30 2493 H 261.484 -3.65779 0.245265 0
M  V30 2494 H 261.132 -4.59479 -2.04666 0
M  V30 2495 H 260.832 -5.8225 -0.791128 0
M  V30 2496 H 262.356 -5.85789 -1.72288 0
M  V30 2497 H 263.77 -5.70718 0.543546 0
M  V30 2498 H 262.167 -5.85379 1.32103 0
M  V30 2499 H 263.237 -4.51389 1.77133 0
M  V30 2500 N 264.58 -0.43555 -1.51462 0
M  V30 2501 C 265.828 0.131254 -2.01673 0
M  V30 2502 C 266.149 1.43368 -1.32177 0
M  V30 2503 O 265.419 1.90524 -0.455769 0
M  V30 2504 H 263.999 0.0514954 -0.745223 0
M  V30 2505 H 266.661 -0.577847 -1.86137 0
M  V30 2506 H 265.757 0.308446 -3.10572 0
M  V30 2507 N 266.058 1.56714 -0.166846 0
M  V30 2508 C 267.021 2.16539 0.751232 0
M  V30 2509 C 268.021 1.11228 1.16125 0
M  V30 2510 O 269.211 1.36765 1.07894 0
M  V30 2511 C 266.343 2.74462 2.02196 0
M  V30 2512 H 267.536 2.99013 0.230499 0
M  V30 2513 H 265.089 1.56081 0.0826982 0
M  V30 2514 H 265.824 1.95709 2.58589 0
M  V30 2515 H 265.609 3.51527 1.73698 0
M  V30 2516 H 267.099 3.20489 2.67725 0
M  V30 2517 N 267.536 -0.106894 1.57237 0
M  V30 2518 C 268.782 -0.81373 1.85759 0
M  V30 2519 C 269.115 -1.78952 0.754315 0
M  V30 2520 O 268.39 -1.93029 -0.23879 0
M  V30 2521 C 268.673 -1.55293 3.24894 0
M  V30 2522 C 268.526 -0.595929 4.45835 0
M  V30 2523 C 269.845 -2.5063 3.61763 0
M  V30 2524 H 266.964 -0.294369 0.67566 0
M  V30 2525 H 269.606 -0.0776472 1.89841 0
M  V30 2526 H 267.756 -2.1804 3.21544 0
M  V30 2527 H 269.428 0.0236262 4.61294 0
M  V30 2528 H 267.671 0.0916191 4.33703 0
M  V30 2529 H 268.342 -1.15004 5.39887 0
M  V30 2530 H 270.818 -1.97982 3.65981 0
M  V30 2531 H 269.694 -2.99376 4.60071 0
M  V30 2532 H 269.955 -3.3385 2.89821 0
M  V30 2533 N 269.014 -1.53014 -0.377408 0
M  V30 2534 C 269.961 -1.78616 -1.46168 0
M  V30 2535 C 270.931 -0.629917 -1.53692 0
M  V30 2536 O 272.116 -0.870861 -1.69766 0
M  V30 2537 C 269.256 -1.97123 -2.8326 0
M  V30 2538 C 268.369 -3.24831 -2.84796 0
M  V30 2539 C 267.504 -3.33591 -4.13389 0
M  V30 2540 C 266.543 -4.55377 -4.09021 0
M  V30 2541 N 265.68 -4.61355 -5.29241 0
M  V30 2542 H 270.52 -2.71142 -1.23637 0
M  V30 2543 H 268.057 -1.34326 -0.599577 0
M  V30 2544 H 270.015 -2.05839 -3.62886 0
M  V30 2545 H 268.645 -1.07946 -3.04216 0
M  V30 2546 H 267.697 -3.25128 -1.97474 0
M  V30 2547 H 269.009 -4.14523 -2.77439 0
M  V30 2548 H 268.163 -3.41554 -5.01424 0
M  V30 2549 H 266.902 -2.41894 -4.23484 0
M  V30 2550 H 265.907 -4.47527 -3.19373 0
M  V30 2551 H 267.132 -5.48402 -4.00539 0
M  V30 2552 H 265.078 -3.72554 -5.39944 0
M  V30 2553 H 264.995 -5.44935 -5.24006 0
M  V30 2554 H 266.263 -4.73586 -6.19141 0
M  V30 2555 N 270.492 0.636531 -1.44174 0
M  V30 2556 C 271.74 1.39343 -1.46383 0
M  V30 2557 C 272.061 1.94766 -0.0955715 0
M  V30 2558 O 271.331 1.75452 0.871395 0
M  V30 2559 H 269.911 0.517199 -0.538994 0
M  V30 2560 H 272.573 0.74957 -1.7991 0
M  V30 2561 H 271.669 2.22746 -2.18611 0
M  V30 2562 N 271.97 1.30982 0.876444 0
M  V30 2563 C 273.219 1.19658 1.62373 0
M  V30 2564 C 273.532 -0.245636 1.94052 0
M  V30 2565 O 274.738 -0.48049 2.67214 0
M  V30 2566 C 273.194 2.09433 2.92687 0
M  V30 2567 C 272.802 3.58613 2.68516 0
M  V30 2568 C 274.546 2.06893 3.70669 0
M  V30 2569 C 272.453 4.40416 3.94699 0
M  V30 2570 H 271.383 0.444268 0.609214 0
M  V30 2571 H 274.034 1.55791 0.969605 0
M  V30 2572 H 272.416 1.66191 3.59439 0
M  V30 2573 H 273.59 4.10058 2.10212 0
M  V30 2574 H 271.905 3.63063 2.03898 0
M  V30 2575 H 274.502 2.65258 4.64265 0
M  V30 2576 H 274.845 1.05448 4.02724 0
M  V30 2577 H 275.378 2.48301 3.10792 0
M  V30 2578 H 272.117 5.42591 3.67798 0
M  V30 2579 H 271.637 3.93731 4.52477 0
M  V30 2580 H 273.316 4.52294 4.62644 0
M  V30 2581 N 273.449 -1.08991 1.13837 0
M  V30 2582 C 274.381 -2.15606 0.777612 0
M  V30 2583 C 275.394 -1.61533 -0.202739 0
M  V30 2584 O 276.583 -1.78491 0.0181055 0
M  V30 2585 C 273.683 -3.3864 0.132623 0
M  V30 2586 C 272.856 -4.22115 1.1462 0
M  V30 2587 C 271.915 -5.23564 0.526074 0
M  V30 2588 O 270.941 -5.56678 1.18735 0
M  V30 2589 N 272.143 -5.76266 -0.699866 0
M  V30 2590 H 274.908 -2.47159 1.69506 0
M  V30 2591 H 272.469 -1.24747 1.03198 0
M  V30 2592 H 274.461 -4.03626 -0.29459 0
M  V30 2593 H 273.031 -3.04938 -0.687849 0
M  V30 2594 H 272.251 -3.53199 1.75055 0
M  V30 2595 H 273.539 -4.74709 1.83109 0
M  V30 2596 H 272.937 -5.51585 -1.25581 0
M  V30 2597 H 271.494 -6.42963 -1.06968 0
M  V30 2598 N 274.927 -0.932562 -1.27047 0
M  V30 2599 C 276.175 -0.574422 -1.93765 0
M  V30 2600 C 276.496 0.887993 -1.73608 0
M  V30 2601 O 275.766 1.62999 -1.08665 0
M  V30 2602 H 274.346 -0.209451 -0.717035 0
M  V30 2603 H 277.008 -1.18601 -1.5466 0
M  V30 2604 H 276.104 -0.784841 -3.02071 0
M  V30 2605 N 276.405 1.4127 -0.698611 0
M  V30 2606 C 277.682 1.94955 -0.158762 0
M  V30 2607 C 278.062 1.63781 1.33188 0
M  V30 2608 O 277.41 0.946423 2.07979 0
M  V30 2609 C 277.62 3.46044 -0.453309 0
M  V30 2610 C 278.968 4.22872 -0.382707 0
M  V30 2611 O 279.992 3.54076 -0.388396 0
M  V30 2612 O 278.851 5.45407 -0.345463 0
M  V30 2613 H 275.945 0.82683 -0.0167505 0
M  V30 2614 H 278.491 1.50971 -0.77498 0
M  V30 2615 H 277.263 3.62028 -1.48498 0
M  V30 2616 H 276.886 3.97128 0.19373 0
M  V30 2617 N 277.883 0.443576 1.51229 0
M  V30 2618 C 279.299 0.0962001 1.5931 0
M  V30 2619 C 279.499 -1.39501 1.45402 0
M  V30 2620 O 278.555 -2.16557 1.29843 0
M  V30 2621 C 279.868 0.621875 2.94199 0
M  V30 2622 C 281.416 0.582865 3.07525 0
M  V30 2623 C 281.891 1.08562 4.44948 0
M  V30 2624 N 283.382 1.04387 4.51284 0
M  V30 2625 C 284.117 1.40368 5.55954 0
M  V30 2626 N 283.613 1.83664 6.68011 0
M  V30 2627 N 285.406 1.32145 5.46346 0
M  V30 2628 H 277.557 1.41376 1.58514 0
M  V30 2629 H 279.82 0.582965 0.747567 0
M  V30 2630 H 279.526 1.66546 3.09767 0
M  V30 2631 H 279.4 0.0502125 3.77167 0
M  V30 2632 H 281.787 -0.451749 2.91622 0
M  V30 2633 H 281.868 1.191 2.26382 0
M  V30 2634 H 281.512 2.11873 4.61598 0
M  V30 2635 H 281.442 0.453956 5.2464 0
M  V30 2636 H 283.933 0.725986 3.70861 0
M  V30 2637 H 284.246 2.0934 7.43906 0
M  V30 2638 H 282.591 1.87596 6.69203 0
M  V30 2639 H 285.782 0.981808 4.57688 0
M  V30 2640 H 285.955 1.60514 6.27805 0
M  V30 2641 N 279.361 -1.56624 0.175154 0
M  V30 2642 C 280.609 -1.96609 -0.467885 0
M  V30 2643 C 280.93 -1.06238 -1.63519 0
M  V30 2644 O 280.2 -0.129523 -1.95471 0
M  V30 2645 H 278.78 -0.726008 -0.175845 0
M  V30 2646 H 281.442 -1.93195 0.257234 0
M  V30 2647 H 280.538 -3.00989 -0.825342 0
M  V30 2648 N 280.839 0.0985539 -1.57292 0
M  V30 2649 C 282.116 0.834155 -1.76921 0
M  V30 2650 C 282.496 1.97101 -0.755928 0
M  V30 2651 O 281.844 2.27474 0.216245 0
M  V30 2652 C 282.054 1.33194 -3.22584 0
M  V30 2653 C 283.402 1.77611 -3.85668 0
M  V30 2654 O 284.426 1.42825 -3.26312 0
M  V30 2655 O 283.285 2.4192 -4.90038 0
M  V30 2656 H 280.379 0.397628 -0.725135 0
M  V30 2657 H 282.925 0.0807044 -1.69508 0
M  V30 2658 H 281.697 0.517248 -3.87866 0
M  V30 2659 H 281.32 2.1475 -3.34616 0
M  V30 2660 N 282.317 1.53212 0.369288 0
M  V30 2661 C 283.728 1.60943 0.946276 0
M  V30 2662 C 284.079 0.47452 1.90375 0
M  V30 2663 O 283.204 -0.399597 2.12679 0
M  V30 2664 C 283.799 2.91715 1.72302 0
M  V30 2665 C 282.358 3.01792 2.24941 0
M  V30 2666 C 281.505 2.56211 1.06072 0
M  V30 2667 H 284.456 1.58007 0.148198 0
M  V30 2668 H 284.477 2.79309 2.58393 0
M  V30 2669 H 283.989 3.74295 1.0259 0
M  V30 2670 H 282.09 2.23791 2.97906 0
M  V30 2671 H 282.203 4.06803 2.53077 0
M  V30 2672 H 280.567 2.10998 1.4266 0
M  V30 2673 H 281.35 3.41206 0.378639 0
M  V30 2674 N 283.795 -0.628877 1.44509 0
M  V30 2675 C 285.043 -1.38565 1.4712 0
M  V30 2676 C 285.364 -1.94712 0.105899 0
M  V30 2677 O 284.634 -1.75912 -0.862079 0
M  V30 2678 H 283.214 -0.514333 0.541729 0
M  V30 2679 H 285.876 -0.740018 1.80305 0
M  V30 2680 H 284.972 -2.21583 2.19789 0
M  V30 2681 N 285.273 -1.31445 -0.869486 0
M  V30 2682 C 286.203 -1.21727 -1.99261 0
M  V30 2683 C 287.184 -0.104359 -1.6978 0
M  V30 2684 O 288.369 -0.289038 -1.92037 0
M  V30 2685 C 285.499 -0.924317 -3.34774 0
M  V30 2686 C 284.453 -1.99685 -3.78563 0
M  V30 2687 C 283.779 -1.55658 -5.11541 0
M  V30 2688 C 285.079 -3.41003 -3.95619 0
M  V30 2689 H 286.773 -2.1569 -2.07649 0
M  V30 2690 H 284.319 -1.03839 -0.997675 0
M  V30 2691 H 286.272 -0.842934 -4.12883 0
M  V30 2692 H 284.996 0.0509793 -3.2656 0
M  V30 2693 H 283.655 -2.06813 -3.02694 0
M  V30 2694 H 283.303 -0.569132 -4.9977 0
M  V30 2695 H 283.003 -2.27409 -5.41811 0
M  V30 2696 H 284.527 -1.48928 -5.92159 0
M  V30 2697 H 285.941 -3.36547 -4.64122 0
M  V30 2698 H 284.338 -4.10975 -4.37286 0
M  V30 2699 H 285.408 -3.81754 -2.98985 0
M  V30 2700 N 286.751 1.08385 -1.14413 0
M  V30 2701 C 288.162 1.62258 -0.923535 0
M  V30 2702 C 288.513 1.88691 0.537595 0
M  V30 2703 O 287.638 1.64454 1.40655 0
M  V30 2704 C 288.233 2.94781 -1.67002 0
M  V30 2705 C 286.792 3.45437 -1.495 0
M  V30 2706 C 285.939 2.19668 -1.69238 0
M  V30 2707 H 288.89 0.916086 -1.2959 0
M  V30 2708 H 288.911 3.63229 -1.13334 0
M  V30 2709 H 288.423 2.7551 -2.73342 0
M  V30 2710 H 286.524 3.6981 -0.455097 0
M  V30 2711 H 286.637 4.22173 -2.2651 0
M  V30 2712 H 285.001 2.28849 -1.11804 0
M  V30 2713 H 285.784 2.02905 -2.7692 0
M  V30 2714 N 288.23 0.939286 1.26551 0
M  V30 2715 C 289.478 0.58469 1.93457 0
M  V30 2716 C 289.799 -0.878774 1.74076 0
M  V30 2717 O 289.069 -1.62421 1.09528 0
M  V30 2718 H 287.649 0.21325 0.715914 0
M  V30 2719 H 290.311 1.1942 1.54029 0
M  V30 2720 H 289.407 0.800849 3.0165 0
M  V30 2721 N 289.708 -1.40897 0.706093 0
M  V30 2722 C 290.638 -2.33418 0.0620085 0
M  V30 2723 C 291.619 -1.52385 -0.755827 0
M  V30 2724 O 292.804 -1.80886 -0.706674 0
M  V30 2725 C 289.934 -3.36293 -0.867445 0
M  V30 2726 C 288.888 -4.27716 -0.155932 0
M  V30 2727 C 288.214 -5.2105 -1.20046 0
M  V30 2728 C 289.514 -5.12944 0.984149 0
M  V30 2729 H 291.208 -2.87527 0.83477 0
M  V30 2730 H 288.754 -1.38249 0.402875 0
M  V30 2731 H 290.707 -3.99949 -1.32735 0
M  V30 2732 H 289.431 -2.80556 -1.67199 0
M  V30 2733 H 288.09 -3.65498 0.284047 0
M  V30 2734 H 287.738 -4.61624 -1.99781 0
M  V30 2735 H 287.438 -5.83056 -0.729328 0
M  V30 2736 H 288.962 -5.87584 -1.66066 0
M  V30 2737 H 290.376 -5.70109 0.604048 0
M  V30 2738 H 288.773 -5.83945 1.38304 0
M  V30 2739 H 289.843 -4.49485 1.81911 0
M  V30 2740 N 291.186 -0.45159 -1.50991 0
M  V30 2741 C 292.597 0.00818571 -1.86698 0
M  V30 2742 C 292.948 1.40661 -1.3678 0
M  V30 2743 O 292.073 2.0391 -0.724546 0
M  V30 2744 C 292.668 0.0216303 -3.38793 0
M  V30 2745 C 291.227 0.425865 -3.73983 0
M  V30 2746 C 290.374 -0.372163 -2.74791 0
M  V30 2747 H 293.325 -0.666785 -1.44013 0
M  V30 2748 H 293.346 0.828078 -3.7138 0
M  V30 2749 H 292.858 -0.996288 -3.75094 0
M  V30 2750 H 290.959 1.44886 -3.43277 0
M  V30 2751 H 291.072 0.140761 -4.78893 0
M  V30 2752 H 289.436 0.171498 -2.54122 0
M  V30 2753 H 290.219 -1.38922 -3.13935 0
M  V30 2754 N 292.664 1.56529 -0.183458 0
M  V30 2755 C 293.912 1.96855 0.457452 0
M  V30 2756 C 294.233 1.07104 1.62953 0
M  V30 2757 O 293.503 0.139887 1.954 0
M  V30 2758 H 292.083 0.72693 0.171992 0
M  V30 2759 H 294.745 1.93056 -0.267476 0
M  V30 2760 H 293.841 3.01423 0.809368 0
M  V30 2761 N 294.142 -0.090211 1.57342 0
M  V30 2762 C 295.367 -0.810082 1.90925 0
M  V30 2763 C 295.792 -1.71248 0.778187 0
M  V30 2764 O 295.15 -1.79278 -0.269991 0
M  V30 2765 C 295.198 -1.59529 3.23393 0
M  V30 2766 O 294.302 -2.70461 3.11327 0
M  V30 2767 H 293.643 -0.222231 0.625707 0
M  V30 2768 H 296.173 -0.0639716 2.045 0
M  V30 2769 H 296.183 -1.97847 3.5682 0
M  V30 2770 H 294.858 -0.933055 4.05299 0
M  V30 2771 H 293.435 -2.35135 2.89423 0
M  V30 2772 N 295.62 -1.53406 -0.361157 0
M  V30 2773 C 296.866 -1.70999 -1.1014 0
M  V30 2774 C 297.221 -0.458425 -1.86859 0
M  V30 2775 O 296.514 0.548654 -1.83577 0
M  V30 2776 C 296.708 -2.90211 -2.08596 0
M  V30 2777 C 296.537 -4.26841 -1.41553 0
M  V30 2778 C 295.307 -4.91621 -1.16778 0
M  V30 2779 C 297.505 -5.07212 -0.850915 0
M  V30 2780 N 295.487 -6.12164 -0.461312 0
M  V30 2781 C 296.858 -6.19394 -0.274046 0
M  V30 2782 C 298.913 -4.92218 -0.750036 0
M  V30 2783 C 297.616 -7.18221 0.393868 0
M  V30 2784 C 299.642 -5.91322 -0.095894 0
M  V30 2785 C 299.004 -7.0283 0.470081 0
M  V30 2786 H 295.103 -0.678939 -0.388028 0
M  V30 2787 H 297.687 -1.90811 -0.38722 0
M  V30 2788 H 295.858 -2.71931 -2.77323 0
M  V30 2789 H 297.59 -2.96606 -2.7533 0
M  V30 2790 H 294.345 -4.50849 -1.45024 0
M  V30 2791 H 294.769 -6.76888 -0.123312 0
M  V30 2792 H 299.411 -4.06192 -1.17337 0
M  V30 2793 H 297.129 -8.03835 0.82914 0
M  V30 2794 H 300.715 -5.81797 -0.0187075 0
M  V30 2795 H 299.595 -7.782 0.968241 0
M  V30 2796 N 297.098 0.621204 -1.44841 0
M  V30 2797 C 298.346 1.37783 -1.47852 0
M  V30 2798 C 298.667 1.94653 -0.116224 0
M  V30 2799 O 297.937 1.76367 0.852737 0
M  V30 2800 H 296.517 0.511453 -0.544449 0
M  V30 2801 H 299.179 0.730446 -1.80694 0
M  V30 2802 H 298.275 2.20414 -2.20961 0
M  V30 2803 N 298.576 1.31904 0.862503 0
M  V30 2804 C 299.539 1.20131 1.95195 0
M  V30 2805 C 300.539 0.126409 1.60302 0
M  V30 2806 O 301.729 0.376234 1.70089 0
M  V30 2807 C 298.861 0.845691 3.30244 0
M  V30 2808 H 300.054 2.16943 2.07064 0
M  V30 2809 H 297.607 1.15622 1.05172 0
M  V30 2810 H 298.342 -0.120957 3.24074 0
M  V30 2811 H 298.127 1.62276 3.56944 0
M  V30 2812 H 299.617 0.787418 4.10109 0
M  V30 2813 N 300.054 -1.07777 1.14986 0
M  V30 2814 C 301.302 -1.79934 0.920235 0
M  V30 2815 C 301.623 -1.86955 -0.554336 0
M  V30 2816 O 300.893 -1.36731 -1.40291 0
M  V30 2817 H 299.473 -0.666424 0.337473 0
M  V30 2818 H 302.135 -1.3027 1.44968 0
M  V30 2819 H 301.231 -2.82539 1.32583 0
M  V30 2820 N 301.532 -0.945985 -1.26051 0
M  V30 2821 C 302.78 -0.594941 -1.93145 0
M  V30 2822 C 303.101 0.86953 -1.7454 0
M  V30 2823 O 302.371 1.61838 -1.10387 0
M  V30 2824 H 300.951 -0.217044 -0.714773 0
M  V30 2825 H 303.613 -1.20235 -1.53393 0
M  V30 2826 H 302.709 -0.816835 -3.01221 0
M  V30 2827 N 303.011 1.40521 -0.713556 0
M  V30 2828 C 304.422 1.83853 -0.324807 0
M  V30 2829 C 304.773 1.59667 1.14021 0
M  V30 2830 O 303.898 1.07649 1.87725 0
M  V30 2831 C 304.493 3.33751 -0.582746 0
M  V30 2832 C 303.052 3.75584 -0.247727 0
M  V30 2833 C 302.199 2.63753 -0.856121 0
M  V30 2834 H 305.15 1.29817 -0.91286 0
M  V30 2835 H 305.171 3.80194 0.152682 0
M  V30 2836 H 304.683 3.51322 -1.64908 0
M  V30 2837 H 302.784 3.63608 0.813624 0
M  V30 2838 H 302.897 4.7373 -0.715307 0
M  V30 2839 H 301.261 2.53108 -0.28432 0
M  V30 2840 H 302.044 2.84137 -1.92668 0
M  V30 2841 N 304.489 0.459591 1.5075 0
M  V30 2842 C 305.452 -0.329093 2.26825 0
M  V30 2843 C 306.452 -0.930481 1.31144 0
M  V30 2844 O 307.642 -0.801453 1.54669 0
M  V30 2845 C 304.774 -1.46768 3.07688 0
M  V30 2846 H 305.967 0.337924 2.9799 0
M  V30 2847 H 303.52 0.213336 1.54837 0
M  V30 2848 H 304.255 -2.17009 2.40993 0
M  V30 2849 H 304.04 -1.04238 3.77991 0
M  V30 2850 H 305.53 -2.02433 3.65254 0
M  V30 2851 N 305.967 -1.56429 0.191757 0
M  V30 2852 C 307.215 -1.97095 -0.447006 0
M  V30 2853 C 307.536 -1.07967 -1.62383 0
M  V30 2854 O 306.806 -0.150248 -1.95323 0
M  V30 2855 H 305.386 -0.727832 -0.168135 0
M  V30 2856 H 308.048 -1.92911 0.27771 0
M  V30 2857 H 307.144 -3.01848 -0.793371 0
M  V30 2858 N 307.445 0.0818655 -1.57387 0
M  V30 2859 C 308.856 0.634871 -1.75574 0
M  V30 2860 C 309.207 1.78435 -0.815809 0
M  V30 2861 O 308.332 2.164 0.0025366 0
M  V30 2862 C 308.927 1.15845 -3.18379 0
M  V30 2863 C 307.486 1.65741 -3.37945 0
M  V30 2864 C 306.633 0.572549 -2.71325 0
M  V30 2865 H 309.584 -0.144268 -1.58043 0
M  V30 2866 H 309.605 2.02751 -3.21982 0
M  V30 2867 H 309.117 0.321631 -3.86765 0
M  V30 2868 H 307.218 2.51781 -2.74658 0
M  V30 2869 H 307.331 1.74129 -4.46336 0
M  V30 2870 H 305.695 1.01518 -2.33594 0
M  V30 2871 H 306.478 -0.253918 -3.4236 0
M  V30 2872 N 308.923 1.53595 0.353017 0
M  V30 2873 C 310.151 1.74311 1.1146 0
M  V30 2874 C 310.566 0.477854 1.82653 0
M  V30 2875 O 309.923 -0.549977 1.74016 0
M  V30 2876 C 309.974 2.91694 2.13534 0
M  V30 2877 O 309.695 4.13325 1.45238 0
M  V30 2878 C 311.196 3.24384 3.02142 0
M  V30 2879 H 308.416 0.582669 0.332773 0
M  V30 2880 H 310.96 2.00386 0.408107 0
M  V30 2881 H 309.115 2.67977 2.79763 0
M  V30 2882 H 309.529 4.79148 2.13349 0
M  V30 2883 H 311.003 4.09893 3.69718 0
M  V30 2884 H 311.48 2.40282 3.67643 0
M  V30 2885 H 312.086 3.50073 2.41514 0
M  V30 2886 N 310.401 -0.613514 1.45168 0
M  V30 2887 C 311.649 -1.36997 1.48581 0
M  V30 2888 C 311.97 -1.94589 0.126545 0
M  V30 2889 O 311.24 -1.76816 -0.843372 0
M  V30 2890 H 309.82 -0.508558 0.547154 0
M  V30 2891 H 312.482 -0.720853 1.81079 0
M  V30 2892 H 311.578 -2.1924 2.22127 0
M  V30 2893 N 311.879 -1.3236 -0.855495 0
M  V30 2894 C 313.109 -1.25688 -1.6397 0
M  V30 2895 C 313.517 0.177592 -1.88365 0
M  V30 2896 O 312.86 1.12485 -1.45234 0
M  V30 2897 C 312.922 -1.94602 -3.02275 0
M  V30 2898 C 312.586 -3.43937 -3.00926 0
M  V30 2899 C 313.583 -4.39435 -2.77835 0
M  V30 2900 C 311.268 -3.85858 -3.21588 0
M  V30 2901 C 313.262 -5.74829 -2.75409 0
M  V30 2902 C 310.949 -5.21361 -3.18789 0
M  V30 2903 C 311.947 -6.15658 -2.95727 0
M  V30 2904 O 311.635 -7.48681 -2.928 0
M  V30 2905 H 311.367 -0.434972 -0.51747 0
M  V30 2906 H 313.921 -1.75023 -1.075 0
M  V30 2907 H 312.151 -1.39836 -3.60531 0
M  V30 2908 H 313.84 -1.81651 -3.62985 0
M  V30 2909 H 314.606 -4.08374 -2.6164 0
M  V30 2910 H 310.485 -3.12883 -3.38564 0
M  V30 2911 H 314.029 -6.48404 -2.57328 0
M  V30 2912 H 309.926 -5.52052 -3.34528 0
M  V30 2913 H 310.694 -7.5803 -3.0876 0
M  V30 2914 N 313.357 1.07166 -1.15556 0
M  V30 2915 C 314.768 1.6127 -0.940693 0
M  V30 2916 C 315.119 1.89251 0.517551 0
M  V30 2917 O 314.244 1.65937 1.38903 0
M  V30 2918 C 314.839 2.92993 -1.7012 0
M  V30 2919 C 313.398 3.43832 -1.53156 0
M  V30 2920 C 312.545 2.1786 -1.71558 0
M  V30 2921 H 315.496 0.90229 -1.30554 0
M  V30 2922 H 315.517 3.62007 -1.17181 0
M  V30 2923 H 315.029 2.72596 -2.76248 0
M  V30 2924 H 313.13 3.69307 -0.494294 0
M  V30 2925 H 313.243 4.19747 -2.30975 0
M  V30 2926 H 311.607 2.2765 -1.14225 0
M  V30 2927 H 312.39 1.99956 -2.79056 0
M  V30 2928 N 314.835 0.952656 1.25548 0
M  V30 2929 C 316.083 0.605176 1.92826 0
M  V30 2930 C 316.404 -0.860261 1.74999 0
M  V30 2931 O 315.674 -1.6125 1.11244 0
M  V30 2932 H 314.254 0.220832 0.713612 0
M  V30 2933 H 316.916 1.21047 1.52754 0
M  V30 2934 H 316.012 0.832798 3.00784 0
M  V30 2935 N 316.313 -1.40141 0.720998 0
M  V30 2936 C 317.223 -2.34486 0.0731031 0
M  V30 2937 C 318.239 -1.57587 -0.737723 0
M  V30 2938 O 319.415 -1.89949 -0.669429 0
M  V30 2939 C 316.48 -3.36528 -0.833656 0
M  V30 2940 C 315.541 -4.29298 -0.0121673 0
M  V30 2941 C 314.774 -5.26466 -0.875742 0
M  V30 2942 O 314.997 -5.29745 -2.11485 0
M  V30 2943 O 313.931 -6.01092 -0.31185 0
M  V30 2944 H 317.757 -2.9152 0.851444 0
M  V30 2945 H 315.342 -1.41427 0.481527 0
M  V30 2946 H 317.224 -3.99093 -1.35289 0
M  V30 2947 H 315.899 -2.81899 -1.59105 0
M  V30 2948 H 314.806 -3.70001 0.552262 0
M  V30 2949 H 316.139 -4.87094 0.707129 0
M  V30 2950 N 317.792 -0.46758 -1.50504 0
M  V30 2951 C 319.203 -0.0116166 -1.86696 0
M  V30 2952 C 319.554 1.39202 -1.38265 0
M  V30 2953 O 318.679 2.0313 -0.746132 0
M  V30 2954 C 319.274 -0.0143044 -3.38797 0
M  V30 2955 C 317.833 0.386175 -3.74414 0
M  V30 2956 C 316.98 -0.401287 -2.74381 0
M  V30 2957 H 319.931 -0.682022 -1.43297 0
M  V30 2958 H 319.952 0.788641 -3.72237 0
M  V30 2959 H 319.464 -1.03602 -3.74016 0
M  V30 2960 H 317.565 1.41237 -3.44794 0
M  V30 2961 H 317.678 0.0899596 -4.79016 0
M  V30 2962 H 316.042 0.144536 -2.5429 0
M  V30 2963 H 316.825 -1.42244 -3.12444 0
M  V30 2964 N 319.27 1.56325 -0.20005 0
M  V30 2965 C 320.518 1.97329 0.436547 0
M  V30 2966 C 320.839 1.08826 1.61808 0
M  V30 2967 O 320.109 0.160604 1.95241 0
M  V30 2968 H 318.689 0.728714 0.164272 0
M  V30 2969 H 321.351 1.92761 -0.287937 0
M  V30 2970 H 320.447 3.02264 0.777353 0
M  V30 2971 N 320.748 -0.0735177 1.57428 0
M  V30 2972 C 321.678 -1.0879 2.06608 0
M  V30 2973 C 322.659 -1.40473 0.959237 0
M  V30 2974 O 323.844 -1.5013 1.23185 0
M  V30 2975 C 320.974 -2.40183 2.50857 0
M  V30 2976 C 319.928 -2.22858 3.65402 0
M  V30 2977 C 319.254 -3.59619 3.957 0
M  V30 2978 C 320.554 -1.65123 4.95511 0
M  V30 2979 H 322.248 -0.678673 2.91607 0
M  V30 2980 H 319.794 -0.325013 1.40284 0
M  V30 2981 H 321.747 -3.11437 2.83874 0
M  V30 2982 H 320.471 -2.83083 1.62885 0
M  V30 2983 H 319.13 -1.54045 3.32664 0
M  V30 2984 H 318.778 -4.00086 3.04861 0
M  V30 2985 H 318.478 -3.48866 4.72828 0
M  V30 2986 H 320.002 -4.32306 4.31212 0
M  V30 2987 H 321.416 -2.26241 5.26771 0
M  V30 2988 H 319.813 -1.65071 5.7695 0
M  V30 2989 H 320.883 -0.612559 4.81015 0
M  V30 2990 N 322.226 -1.5378 -0.344866 0
M  V30 2991 C 323.472 -1.71216 -1.08687 0
M  V30 2992 C 323.805 -0.473281 -1.88345 0
M  V30 2993 O 323.08 0.52968 -1.87149 0
M  V30 2994 C 323.363 -2.97486 -2.02914 0
M  V30 2995 C 323.216 -4.31579 -1.26727 0
M  V30 2996 C 324.535 -3.19422 -3.0275 0
M  V30 2997 H 321.654 -0.62301 -0.393735 0
M  V30 2998 H 324.296 -1.8645 -0.365563 0
M  V30 2999 H 322.446 -2.84629 -2.64421 0
M  V30 3000 H 324.118 -4.56284 -0.67845 0
M  V30 3001 H 322.361 -4.30049 -0.569273 0
M  V30 3002 H 323.032 -5.16106 -1.95803 0
M  V30 3003 H 325.508 -3.316 -2.51357 0
M  V30 3004 H 324.384 -4.09169 -3.65885 0
M  V30 3005 H 324.645 -2.35656 -3.74057 0
M  V30 3006 N 323.704 0.605807 -1.45491 0
M  V30 3007 C 324.952 1.36207 -1.49305 0
M  V30 3008 C 325.273 1.94519 -0.136863 0
M  V30 3009 O 324.543 1.77261 0.833983 0
M  V30 3010 H 323.123 0.50565 -0.549843 0
M  V30 3011 H 325.785 0.711239 -1.81459 0
M  V30 3012 H 324.881 2.18058 -2.23287 0
M  V30 3013 N 325.182 1.32811 0.848464 0
M  V30 3014 C 326.593 1.21315 1.41914 0
M  V30 3015 C 326.944 -0.171847 1.95446 0
M  V30 3016 O 326.069 -1.07093 1.88043 0
M  V30 3017 C 326.664 2.19631 2.57968 0
M  V30 3018 C 325.223 2.12003 3.11017 0
M  V30 3019 C 324.37 2.07651 1.83783 0
M  V30 3020 H 327.321 1.44549 0.655071 0
M  V30 3021 H 327.342 1.79845 3.35315 0
M  V30 3022 H 326.854 3.20423 2.18976 0
M  V30 3023 H 324.955 1.14481 3.54577 0
M  V30 3024 H 325.068 3.02111 3.71841 0
M  V30 3025 H 323.432 1.52983 2.03638 0
M  V30 3026 H 324.215 3.10235 1.47 0
M  V30 3027 N 326.66 -1.06551 1.16123 0
M  V30 3028 C 328.071 -1.60768 0.949232 0
M  V30 3029 C 328.422 -1.89523 -0.507508 0
M  V30 3030 O 327.547 -1.66671 -1.38021 0
M  V30 3031 C 328.142 -2.92086 1.71671 0
M  V30 3032 C 326.701 -3.43015 1.54977 0
M  V30 3033 C 325.848 -2.16947 1.72711 0
M  V30 3034 H 328.799 -0.895354 1.31031 0
M  V30 3035 H 328.82 -3.6138 1.19099 0
M  V30 3036 H 328.332 -2.71127 2.7769 0
M  V30 3037 H 326.433 -3.69039 0.513873 0
M  V30 3038 H 326.546 -4.18516 2.33198 0
M  V30 3039 H 324.91 -2.27041 1.15431 0
M  V30 3040 H 325.693 -1.98473 2.80113 0
M  V30 3041 N 328.138 -0.959301 -1.25041 0
M  V30 3042 C 329.386 -0.615393 -1.92503 0
M  V30 3043 C 329.707 0.850969 -1.75452 0
M  V30 3044 O 328.977 1.60658 -1.12098 0
M  V30 3045 H 327.557 -0.224613 -0.712431 0
M  V30 3046 H 330.219 -1.21855 -1.5211 0
M  V30 3047 H 329.315 -0.848738 -3.00338 0
M  V30 3048 N 329.616 1.39756 -0.72842 0
M  V30 3049 C 330.548 2.29157 -0.0446202 0
M  V30 3050 C 331.561 1.46484 0.710367 0
M  V30 3051 O 332.75 1.69632 0.55562 0
M  V30 3052 C 329.85 3.24987 0.961071 0
M  V30 3053 C 329.023 4.36572 0.268967 0
M  V30 3054 C 328.082 5.12756 1.18184 0
M  V30 3055 O 327.108 5.6534 0.661794 0
M  V30 3056 N 328.31 5.23331 2.51206 0
M  V30 3057 H 331.075 2.88482 -0.812295 0
M  V30 3058 H 328.636 1.51265 -0.577098 0
M  V30 3059 H 330.628 3.72827 1.57423 0
M  V30 3060 H 329.198 2.66739 1.63 0
M  V30 3061 H 328.418 3.90694 -0.524574 0
M  V30 3062 H 329.706 5.08363 -0.210934 0
M  V30 3063 H 329.104 4.82116 2.9594 0
M  V30 3064 H 327.661 5.74634 3.07634 0
M  V30 3065 N 331.094 0.475555 1.50254 0
M  V30 3066 C 332.505 0.0215174 1.86688 0
M  V30 3067 C 332.856 -1.38467 1.39001 0
M  V30 3068 O 331.981 -2.02732 0.756894 0
M  V30 3069 C 332.576 0.0322715 3.38785 0
M  V30 3070 C 331.135 -0.366314 3.74613 0
M  V30 3071 C 330.282 0.415832 2.74164 0
M  V30 3072 H 333.233 0.689612 1.42934 0
M  V30 3073 H 333.254 -0.76889 3.7265 0
M  V30 3074 H 332.766 1.05584 3.73462 0
M  V30 3075 H 330.867 -1.39406 3.45538 0
M  V30 3076 H 330.98 -0.064555 4.79057 0
M  V30 3077 H 329.344 -0.131048 2.54363 0
M  V30 3078 H 330.127 1.43899 3.11686 0
M  V30 3079 N 332.573 -1.56217 0.208337 0
M  V30 3080 C 333.821 -1.97558 -0.426076 0
M  V30 3081 C 334.142 -1.09683 -1.61229 0
M  V30 3082 O 333.412 -0.170956 -1.95153 0
M  V30 3083 H 331.992 -0.729575 -0.160405 0
M  V30 3084 H 334.654 -1.92606 0.298155 0
M  V30 3085 H 333.75 -3.02672 -0.761312 0
M  V30 3086 N 334.051 0.0651679 -1.57465 0
M  V30 3087 C 335.467 0.420105 -1.53972 0
M  V30 3088 C 335.667 1.78782 -0.929474 0
M  V30 3089 O 334.723 2.46771 -0.534839 0
M  V30 3090 C 336.036 0.355084 -2.98596 0
M  V30 3091 C 337.584 0.434792 -3.09965 0
M  V30 3092 C 338.059 0.399609 -4.56253 0
M  V30 3093 N 339.55 0.459488 -4.60915 0
M  V30 3094 C 340.285 0.454584 -5.71595 0
M  V30 3095 N 339.781 0.404102 -6.9162 0
M  V30 3096 N 341.574 0.501635 -5.59857 0
M  V30 3097 H 333.725 -0.830328 -1.95498 0
M  V30 3098 H 335.988 -0.312244 -0.895102 0
M  V30 3099 H 335.694 -0.583357 -3.46828 0
M  V30 3100 H 335.568 1.16275 -3.58831 0
M  V30 3101 H 337.955 1.36366 -2.61703 0
M  V30 3102 H 338.036 -0.40157 -2.52628 0
M  V30 3103 H 337.68 -0.525436 -5.05175 0
M  V30 3104 H 337.61 1.25359 -5.11461 0
M  V30 3105 H 340.101 0.502482 -3.74544 0
M  V30 3106 H 340.414 0.404468 -7.71741 0
M  V30 3107 H 338.759 0.37069 -6.94011 0
M  V30 3108 H 341.95 0.538812 -4.64989 0
M  V30 3109 H 342.123 0.494345 -6.46112 0
M  V30 3110 N 335.529 1.53961 0.336706 0
M  V30 3111 C 336.94 1.62914 0.911925 0
M  V30 3112 C 337.291 0.514795 1.89326 0
M  V30 3113 O 336.416 -0.354395 2.13478 0
M  V30 3114 C 337.011 2.95304 1.66076 0
M  V30 3115 C 335.57 3.06496 2.18489 0
M  V30 3116 C 334.717 2.58403 1.00613 0
M  V30 3117 H 337.668 1.58285 0.114649 0
M  V30 3118 H 337.689 2.84727 2.5241 0
M  V30 3119 H 337.201 3.76387 0.946276 0
M  V30 3120 H 335.302 2.3006 2.93092 0
M  V30 3121 H 335.415 4.1208 2.44391 0
M  V30 3122 H 333.779 2.13977 1.38152 0
M  V30 3123 H 334.562 3.41932 0.306179 0
M  V30 3124 N 337.007 -0.598083 1.45811 0
M  V30 3125 C 338.255 -1.35413 1.50026 0
M  V30 3126 C 338.576 -1.94444 0.147177 0
M  V30 3127 O 337.846 -1.77701 -0.824571 0
M  V30 3128 H 336.426 -0.502727 0.552517 0
M  V30 3129 H 339.088 -0.701606 1.81834 0
M  V30 3130 H 338.184 -2.16871 2.2444 0
M  V30 3131 N 338.485 -1.33259 -0.841409 0
M  V30 3132 C 339.415 -1.25926 -1.96634 0
M  V30 3133 C 340.396 -0.140349 -1.6952 0
M  V30 3134 O 341.581 -0.329707 -1.91381 0
M  V30 3135 C 338.711 -0.99512 -3.32738 0
M  V30 3136 C 337.665 -2.0767 -3.74242 0
M  V30 3137 C 336.991 -1.66474 -5.08125 0
M  V30 3138 C 338.291 -3.49318 -3.88297 0
M  V30 3139 H 339.985 -2.20046 -2.03027 0
M  V30 3140 H 337.531 -1.05931 -0.975425 0
M  V30 3141 H 339.484 -0.930323 -4.11002 0
M  V30 3142 H 338.208 -0.0183004 -3.26595 0
M  V30 3143 H 336.867 -2.13187 -2.98239 0
M  V30 3144 H 336.515 -0.675012 -4.9845 0
M  V30 3145 H 336.215 -2.3885 -5.36865 0
M  V30 3146 H 337.739 -1.61455 -5.88867 0
M  V30 3147 H 339.153 -3.46316 -4.56879 0
M  V30 3148 H 337.55 -4.20158 -4.28471 0
M  V30 3149 H 338.62 -3.8801 -2.9082 0
M  V30 3150 N 339.963 1.05934 -1.16686 0
M  V30 3151 C 340.91 2.13499 -0.876748 0
M  V30 3152 C 341.88 1.65162 0.176299 0
M  V30 3153 O 343.065 1.90757 0.0407143 0
M  V30 3154 C 340.205 3.42912 -0.387967 0
M  V30 3155 C 339.318 4.04964 -1.50426 0
M  V30 3156 C 338.453 5.22266 -0.970125 0
M  V30 3157 C 337.492 5.76309 -2.06238 0
M  V30 3158 N 336.629 6.84922 -1.54356 0
M  V30 3159 H 341.469 2.37654 -1.7979 0
M  V30 3160 H 339.006 1.16598 -0.896843 0
M  V30 3161 H 340.964 4.17111 -0.086186 0
M  V30 3162 H 339.594 3.18963 0.496235 0
M  V30 3163 H 338.646 3.28277 -1.92193 0
M  V30 3164 H 339.958 4.41122 -2.32836 0
M  V30 3165 H 339.112 6.03506 -0.621743 0
M  V30 3166 H 337.851 4.87564 -0.115377 0
M  V30 3167 H 336.856 4.93704 -2.41942 0
M  V30 3168 H 338.081 6.13062 -2.92115 0
M  V30 3169 H 336.027 6.52131 -0.711406 0
M  V30 3170 H 335.944 7.20043 -2.30379 0
M  V30 3171 H 337.212 7.69832 -1.22387 0
M  V30 3172 N 341.441 0.965919 1.2453 0
M  V30 3173 C 342.689 0.625593 1.92174 0
M  V30 3174 C 343.01 -0.841652 1.75901 0
M  V30 3175 O 342.28 -1.60061 1.12948 0
M  V30 3176 H 340.86 0.228388 0.71123 0
M  V30 3177 H 343.522 1.2266 1.51461 0
M  V30 3178 H 342.618 0.864653 2.99884 0
M  V30 3179 N 342.919 -1.39368 0.735821 0
M  V30 3180 C 343.867 -2.32443 0.0855131 0
M  V30 3181 C 344.861 -1.53104 -0.724954 0
M  V30 3182 O 346.067 -1.68762 -0.626047 0
M  V30 3183 H 342.442 -0.751948 0.00885257 0
M  V30 3184 H 344.413 -2.84916 0.886883 0
M  V30 3185 C 343.162 -3.38206 -0.806983 0
M  V30 3186 H 342.485 -3.99335 -0.19274 0
M  V30 3187 H 343.925 -4.05779 -1.2296 0
M  V30 3188 C 342.384 -2.75321 -1.94165 0
M  V30 3189 O 342.914 -2.63231 -3.03435 0
M  V30 3190 N 341.12 -2.33396 -1.73132 0
M  V30 3191 H 340.667 -2.4343 -0.842596 0
M  V30 3192 H 340.625 -1.91661 -2.49225 0
M  V30 3193 N 344.397 -0.483516 -1.5 0
M  V30 3194 C 345.808 -0.0314176 -1.86674 0
M  V30 3195 C 346.159 1.37728 -1.39733 0
M  V30 3196 O 345.284 2.02327 -0.767635 0
M  V30 3197 C 345.879 -0.0502376 -3.38763 0
M  V30 3198 C 344.438 0.346442 -3.74802 0
M  V30 3199 C 343.585 -0.430366 -2.7394 0
M  V30 3200 H 346.536 -0.697182 -1.42566 0
M  V30 3201 H 346.557 0.749116 -3.73053 0
M  V30 3202 H 346.069 -1.07563 -3.72897 0
M  V30 3203 H 344.17 1.37572 -3.46273 0
M  V30 3204 H 344.283 0.0391486 -4.79084 0
M  V30 3205 H 342.647 0.117557 -2.54429 0
M  V30 3206 H 343.43 -1.4555 -3.10918 0
M  V30 3207 N 345.875 1.56104 -0.216619 0
M  V30 3208 C 347.123 1.97781 0.415593 0
M  V30 3209 C 347.444 1.10536 1.60645 0
M  V30 3210 O 346.714 0.181303 1.95059 0
M  V30 3211 H 345.294 0.730415 0.156534 0
M  V30 3212 H 347.956 1.92445 -0.308366 0
M  V30 3213 H 347.052 3.03072 0.74525 0
M  V30 3214 N 347.353 -0.0568162 1.57498 0
M  V30 3215 C 348.599 -0.75422 1.88253 0
M  V30 3216 C 348.932 -1.76461 0.810865 0
M  V30 3217 O 348.207 -1.93691 -0.177259 0
M  V30 3218 C 348.49 -1.44878 3.2967 0
M  V30 3219 C 348.343 -0.453789 4.47505 0
M  V30 3220 C 349.662 -2.38994 3.69554 0
M  V30 3221 H 346.781 -0.272724 0.684683 0
M  V30 3222 H 349.423 -0.0172113 1.89992 0
M  V30 3223 H 347.573 -2.077 3.28318 0
M  V30 3224 H 349.245 0.170371 4.60985 0
M  V30 3225 H 347.488 0.229552 4.33192 0
M  V30 3226 H 348.159 -0.977699 5.43273 0
M  V30 3227 H 350.635 -1.86239 3.72095 0
M  V30 3228 H 349.511 -2.84587 4.69363 0
M  V30 3229 H 349.772 -3.24461 3.00296 0
M  V30 3230 N 348.832 -1.54138 -0.328536 0
M  V30 3231 C 350.08 -1.71765 -1.06496 0
M  V30 3232 C 350.401 -0.49149 -1.88704 0
M  V30 3233 O 349.671 0.494539 -1.89555 0
M  V30 3234 H 348.251 -0.633295 -0.396164 0
M  V30 3235 H 350.913 -1.91429 -0.366176 0
M  V30 3236 H 350.009 -2.5951 -1.73381 0
M  V30 3237 N 350.31 0.590341 -1.46126 0
M  V30 3238 C 351.556 1.35082 -1.51264 0
M  V30 3239 C 351.889 1.93534 -0.160711 0
M  V30 3240 O 351.164 1.76045 0.826956 0
M  V30 3241 C 351.447 2.48588 -2.6053 0
M  V30 3242 C 351.3 1.95221 -4.05227 0
M  V30 3243 C 352.619 3.50662 -2.6594 0
M  V30 3244 H 349.738 0.489803 -0.550692 0
M  V30 3245 H 352.38 0.663887 -1.78024 0
M  V30 3246 H 350.53 3.07186 -2.37843 0
M  V30 3247 H 352.202 1.41139 -4.39178 0
M  V30 3248 H 350.445 1.26101 -4.15068 0
M  V30 3249 H 351.116 2.77121 -4.77397 0
M  V30 3250 H 353.592 3.01934 -2.86313 0
M  V30 3251 H 352.468 4.27551 -3.44226 0
M  V30 3252 H 352.729 4.07399 -1.71694 0
M  V30 3253 N 351.788 1.33704 0.83433 0
M  V30 3254 C 352.735 1.24335 1.94447 0
M  V30 3255 C 353.705 0.120991 1.65659 0
M  V30 3256 O 354.89 0.300035 1.88426 0
M  V30 3257 C 352.03 0.993124 3.30501 0
M  V30 3258 C 351.143 2.20217 3.71657 0
M  V30 3259 C 350.278 1.88572 4.96602 0
M  V30 3260 C 349.317 3.05683 5.30306 0
M  V30 3261 N 348.454 2.73997 6.46429 0
M  V30 3262 H 353.294 2.1928 2.01792 0
M  V30 3263 H 350.831 1.09035 0.987404 0
M  V30 3264 H 352.789 0.828467 4.08892 0
M  V30 3265 H 351.419 0.0803902 3.227 0
M  V30 3266 H 350.471 2.47642 2.88752 0
M  V30 3267 H 351.783 3.07752 3.92543 0
M  V30 3268 H 350.937 1.68776 5.82752 0
M  V30 3269 H 349.676 0.982799 4.77695 0
M  V30 3270 H 348.681 3.26088 4.42659 0
M  V30 3271 H 349.906 3.96737 5.51159 0
M  V30 3272 H 347.852 1.86268 6.28999 0
M  V30 3273 H 347.769 3.55064 6.67432 0
M  V30 3274 H 349.037 2.57679 7.35678 0
M  V30 3275 N 353.266 -1.05314 1.17247 0
M  V30 3276 C 354.514 -1.77941 0.958194 0
M  V30 3277 C 354.835 -1.88089 -0.514556 0
M  V30 3278 O 354.105 -1.39676 -1.37359 0
M  V30 3279 H 352.685 -0.659116 0.351533 0
M  V30 3280 H 355.347 -1.27166 1.47699 0
M  V30 3281 H 354.443 -2.79663 1.38546 0
M  V30 3282 N 354.744 -0.972509 -1.24016 0
M  V30 3283 C 355.676 -0.464375 -2.24446 0
M  V30 3284 C 356.689 0.4295 -1.57032 0
M  V30 3285 O 357.878 0.234902 -1.76948 0
M  V30 3286 C 354.978 0.348385 -3.37105 0
M  V30 3287 C 354.151 -0.53673 -4.34094 0
M  V30 3288 C 353.21 0.220838 -5.25736 0
M  V30 3289 O 352.236 -0.386867 -5.67884 0
M  V30 3290 N 353.438 1.50907 -5.60542 0
M  V30 3291 H 356.203 -1.32788 -2.68677 0
M  V30 3292 H 353.764 -0.844877 -1.38107 0
M  V30 3293 H 355.756 0.863341 -3.95384 0
M  V30 3294 H 354.326 1.11285 -2.92121 0
M  V30 3295 H 353.546 -1.23261 -3.74433 0
M  V30 3296 H 354.834 -1.14022 -4.95859 0
M  V30 3297 H 354.232 2.02444 -5.28236 0
M  V30 3298 H 352.789 1.96962 -6.21329 0
M  V30 3299 N 356.222 1.38976 -0.743202 0
M  V30 3300 C 357.155 2.28128 -0.0572165 0
M  V30 3301 C 358.133 1.44827 0.739182 0
M  V30 3302 O 359.317 1.74207 0.720009 0
M  V30 3303 C 356.444 3.25796 0.926001 0
M  V30 3304 C 355.49 4.25947 0.217099 0
M  V30 3305 S 356.323 5.24604 -1.07477 0
M  V30 3306 C 357.479 6.25829 -0.0943545 0
M  V30 3307 H 357.712 2.85961 -0.813246 0
M  V30 3308 H 355.245 1.44822 -0.535341 0
M  V30 3309 H 357.203 3.82583 1.48797 0
M  V30 3310 H 355.864 2.66966 1.65493 0
M  V30 3311 H 355.057 4.94746 0.961372 0
M  V30 3312 H 354.659 3.73002 -0.273059 0
M  V30 3313 H 356.951 6.73411 0.743239 0
M  V30 3314 H 357.894 7.0412 -0.749713 0
M  V30 3315 H 358.302 5.63797 0.281706 0
M  V30 3316 N 357.7 0.491464 1.49741 0
M  V30 3317 C 358.948 -0.0563141 2.02022 0
M  V30 3318 C 359.269 -1.38363 1.37407 0
M  V30 3319 O 358.539 -1.88702 0.526166 0
M  V30 3320 H 357.119 -0.0238014 0.746621 0
M  V30 3321 H 359.781 0.646533 1.83864 0
M  V30 3322 H 358.877 -0.192967 3.11503 0
M  V30 3323 N 359.178 -1.55987 0.224894 0
M  V30 3324 C 360.455 -1.90232 -0.455083 0
M  V30 3325 C 360.835 -1.14269 -1.77499 0
M  V30 3326 O 360.183 -0.253079 -2.27094 0
M  V30 3327 C 360.393 -3.42993 -0.644758 0
M  V30 3328 C 361.741 -4.13821 -0.950669 0
M  V30 3329 O 362.765 -3.4861 -0.731423 0
M  V30 3330 O 361.624 -5.29128 -1.36695 0
M  V30 3331 H 358.718 -0.79108 -0.241084 0
M  V30 3332 H 361.264 -1.67581 0.267327 0
M  V30 3333 H 360.036 -3.90252 0.28613 0
M  V30 3334 H 359.659 -3.71434 -1.41853 0
M  V30 3335 N 360.656 0.0484629 -1.57525 0
M  V30 3336 C 362.067 0.597486 -1.76881 0
M  V30 3337 C 362.418 1.76664 -0.853475 0
M  V30 3338 O 361.543 2.16357 -0.0433656 0
M  V30 3339 C 362.138 1.09066 -3.20765 0
M  V30 3340 C 360.697 1.58535 -3.41385 0
M  V30 3341 C 359.844 0.514868 -2.72478 0
M  V30 3342 H 362.795 -0.177758 -1.57701 0
M  V30 3343 H 362.816 1.95875 -3.2621 0
M  V30 3344 H 362.328 0.239521 -3.8736 0
M  V30 3345 H 360.429 2.45898 -2.79937 0
M  V30 3346 H 360.542 1.64622 -4.49929 0
M  V30 3347 H 358.906 0.965407 -2.35695 0
M  V30 3348 H 359.689 -0.32648 -3.41744 0
M  V30 3349 N 362.134 1.5431 0.320358 0
M  V30 3350 C 363.382 1.72327 1.05583 0
M  V30 3351 C 363.703 0.50149 1.88441 0
M  V30 3352 O 362.973 -0.48448 1.89815 0
M  V30 3353 H 361.553 0.635387 0.3928 0
M  V30 3354 H 364.215 1.91621 0.356019 0
M  V30 3355 H 363.311 2.60426 1.72003 0
M  V30 3356 N 363.613 -0.582584 1.46437 0
M  V30 3357 C 364.523 -1.71949 1.59595 0
M  V30 3358 C 365.539 -1.67264 0.479443 0
M  V30 3359 O 366.715 -1.87171 0.743579 0
M  V30 3360 C 363.78 -3.08452 1.58298 0
M  V30 3361 C 362.841 -3.244 2.81182 0
M  V30 3362 C 362.074 -4.54391 2.79937 0
M  V30 3363 O 362.297 -5.38287 1.8869 0
M  V30 3364 O 361.231 -4.73588 3.71481 0
M  V30 3365 H 365.057 -1.63795 2.55744 0
M  V30 3366 H 362.642 -0.749643 1.29231 0
M  V30 3367 H 364.524 -3.89732 1.60271 0
M  V30 3368 H 363.199 -3.17043 0.653094 0
M  V30 3369 H 362.106 -2.42613 2.84763 0
M  V30 3370 H 363.439 -3.20699 3.7338 0
M  V30 3371 N 365.091 -1.34144 -0.827227 0
M  V30 3372 C 366.337 -1.26446 -1.58554 0
M  V30 3373 C 366.67 0.1664 -1.93486 0
M  V30 3374 O 365.945 1.1107 -1.59667 0
M  V30 3375 C 366.228 -2.15111 -2.8879 0
M  V30 3376 C 366.081 -3.66712 -2.60465 0
M  V30 3377 C 367.4 -2.03311 -3.90324 0
M  V30 3378 H 364.519 -0.46067 -0.575284 0
M  V30 3379 H 367.161 -1.64356 -0.953269 0
M  V30 3380 H 365.311 -1.8291 -3.42748 0
M  V30 3381 H 366.983 -4.09259 -2.1285 0
M  V30 3382 H 365.226 -3.88014 -1.93978 0
M  V30 3383 H 365.897 -4.24112 -3.53317 0
M  V30 3384 H 368.373 -2.31574 -3.45706 0
M  V30 3385 H 367.249 -2.67582 -4.79261 0
M  V30 3386 H 367.51 -1.00879 -4.30437 0
M  V30 3387 N 366.569 1.04691 -1.17803 0
M  V30 3388 C 367.817 1.7743 -0.967617 0
M  V30 3389 C 368.138 1.88359 0.504574 0
M  V30 3390 O 367.408 1.40402 1.36617 0
M  V30 3391 H 365.988 0.657242 -0.355024 0
M  V30 3392 H 368.65 1.2638 -1.48371 0
M  V30 3393 H 367.746 2.78924 -1.40027 0
M  V30 3394 N 368.047 0.979072 1.23499 0
M  V30 3395 C 368.979 0.476271 2.24197 0
M  V30 3396 C 369.992 -0.421166 1.57258 0
M  V30 3397 O 371.181 -0.225515 1.7707 0
M  V30 3398 C 368.281 -0.330503 3.37285 0
M  V30 3399 C 367.454 0.559744 4.33804 0
M  V30 3400 C 366.513 -0.192954 5.25846 0
M  V30 3401 O 365.539 0.416978 5.67671 0
M  V30 3402 N 366.741 -1.47932 5.61334 0
M  V30 3403 H 369.506 1.34211 2.67969 0
M  V30 3404 H 367.067 0.852189 1.37657 0
M  V30 3405 H 369.059 -0.842361 3.95836 0
M  V30 3406 H 367.629 -1.09734 2.92707 0
M  V30 3407 H 366.849 1.25245 3.73775 0
M  V30 3408 H 368.137 1.1665 4.95248 0
M  V30 3409 H 367.535 -1.9964 5.29302 0
M  V30 3410 H 366.092 -1.93664 6.22364 0
M  V30 3411 N 369.525 -1.3858 0.750561 0
M  V30 3412 C 370.457 -2.29057 0.0810714 0
M  V30 3413 C 371.47 -1.47596 -0.686973 0
M  V30 3414 O 372.659 -1.70495 -0.528563 0
M  V30 3415 C 369.759 -3.26475 -0.909247 0
M  V30 3416 C 368.932 -4.36945 -0.199478 0
M  V30 3417 C 367.991 -5.14572 -1.10011 0
M  V30 3418 O 367.017 -5.66321 -0.57177 0
M  V30 3419 N 368.219 -5.27262 -2.42849 0
M  V30 3420 H 370.984 -2.87153 0.858087 0
M  V30 3421 H 368.545 -1.50328 0.60109 0
M  V30 3422 H 370.537 -3.75285 -1.51471 0
M  V30 3423 H 369.107 -2.69298 -1.58736 0
M  V30 3424 H 368.327 -3.8981 0.586664 0
M  V30 3425 H 369.615 -5.07963 0.291783 0
M  V30 3426 H 369.013 -4.86763 -2.88233 0
M  V30 3427 H 367.57 -5.79456 -2.98453 0
M  V30 3428 N 371.003 -0.499398 -1.49478 0
M  V30 3429 C 372.251 0.0455996 -2.02049 0
M  V30 3430 C 372.572 1.37633 -1.38138 0
M  V30 3431 O 371.842 1.8842 -0.536166 0
M  V30 3432 H 370.422 0.0198416 -0.746736 0
M  V30 3433 H 373.084 -0.656274 -1.83519 0
M  V30 3434 H 372.18 0.176445 -3.11601 0
M  V30 3435 N 372.481 1.55866 -0.233164 0
M  V30 3436 C 373.706 2.03449 0.402906 0
M  V30 3437 C 374.131 1.11166 1.51736 0
M  V30 3438 O 373.489 0.101996 1.81013 0
M  V30 3439 C 373.537 3.49165 0.9009 0
M  V30 3440 O 372.641 3.60019 2.01147 0
M  V30 3441 H 371.982 0.657913 0.0897025 0
M  V30 3442 H 374.512 2.01493 -0.355201 0
M  V30 3443 H 374.522 3.89716 1.2077 0
M  V30 3444 H 373.197 4.15813 0.0852889 0
M  V30 3445 H 371.774 3.3136 1.71042 0
M  V30 3446 N 373.959 -0.0401083 1.57549 0
M  V30 3447 C 375.37 -0.588097 1.77196 0
M  V30 3448 C 375.721 -1.76209 0.862832 0
M  V30 3449 O 374.846 -2.16331 0.0548389 0
M  V30 3450 C 375.441 -1.07363 3.21339 0
M  V30 3451 C 374 -1.56723 3.42221 0
M  V30 3452 C 373.147 -0.50041 2.72747 0
M  V30 3453 H 376.098 0.186119 1.57605 0
M  V30 3454 H 376.119 -1.94143 3.27244 0
M  V30 3455 H 375.631 -0.218975 3.87482 0
M  V30 3456 H 373.732 -2.4441 2.81237 0
M  V30 3457 H 373.845 -1.62234 4.50796 0
M  V30 3458 H 372.209 -0.952894 2.36203 0
M  V30 3459 H 372.992 0.344599 3.41566 0
M  V30 3460 N 375.437 -1.54477 -0.31217 0
M  V30 3461 C 376.685 -1.72884 -1.04668 0
M  V30 3462 C 377.006 -0.511477 -1.88173 0
M  V30 3463 O 376.276 0.474407 -1.90069 0
M  V30 3464 H 374.856 -0.637461 -0.389425 0
M  V30 3465 H 377.518 -1.91807 -0.345852 0
M  V30 3466 H 376.614 -2.61334 -1.70619 0
M  V30 3467 N 376.915 0.57481 -1.46744 0
M  V30 3468 C 378.326 1.15695 -1.46532 0
M  V30 3469 C 378.677 1.95068 -0.210425 0
M  V30 3470 O 377.802 2.05241 0.685944 0
M  V30 3471 C 378.397 2.1048 -2.65487 0
M  V30 3472 C 376.956 2.64002 -2.68291 0
M  V30 3473 C 376.103 1.40026 -2.39349 0
M  V30 3474 H 379.054 0.362325 -1.54509 0
M  V30 3475 H 379.075 2.94074 -2.41455 0
M  V30 3476 H 378.587 1.52683 -3.56805 0
M  V30 3477 H 376.688 3.25646 -1.81067 0
M  V30 3478 H 376.801 3.06197 -3.68483 0
M  V30 3479 H 375.165 1.70106 -1.89568 0
M  V30 3480 H 375.948 0.840485 -3.32852 0
M  V30 3481 N 378.394 1.34581 0.820102 0
M  V30 3482 C 379.622 1.3018 1.60813 0
M  V30 3483 C 380.037 -0.123551 1.88395 0
M  V30 3484 O 379.394 -1.07148 1.47735 0
M  V30 3485 C 379.445 2.09312 2.94739 0
M  V30 3486 O 379.166 3.46288 2.68358 0
M  V30 3487 C 380.667 2.1234 3.89136 0
M  V30 3488 H 377.887 0.447726 0.499782 0
M  V30 3489 H 380.431 1.77237 1.02017 0
M  V30 3490 H 378.586 1.65889 3.50085 0
M  V30 3491 H 379 3.87227 3.53774 0
M  V30 3492 H 380.474 2.72126 4.80262 0
M  V30 3493 H 380.951 1.11854 4.24718 0
M  V30 3494 H 381.557 2.55864 3.39726 0
M  V30 3495 N 379.872 -1.04064 1.18357 0
M  V30 3496 C 380.802 -2.14001 0.934113 0
M  V30 3497 C 381.783 -1.69616 -0.128186 0
M  V30 3498 O 382.968 -1.94185 0.0244093 0
M  V30 3499 C 380.098 -3.44253 0.459066 0
M  V30 3500 C 379.052 -4.02261 1.46185 0
M  V30 3501 C 378.378 -5.27992 0.844322 0
M  V30 3502 C 379.678 -4.38432 2.83856 0
M  V30 3503 H 381.372 -2.35127 1.85352 0
M  V30 3504 H 378.918 -1.12998 0.892604 0
M  V30 3505 H 380.871 -4.20522 0.271907 0
M  V30 3506 H 379.595 -3.22813 -0.495912 0
M  V30 3507 H 378.254 -3.28074 1.63595 0
M  V30 3508 H 377.902 -5.02862 -0.117845 0
M  V30 3509 H 377.602 -5.67765 1.51384 0
M  V30 3510 H 379.126 -6.06938 0.667693 0
M  V30 3511 H 380.54 -5.05688 2.70098 0
M  V30 3512 H 378.937 -4.89254 3.47491 0
M  V30 3513 H 380.007 -3.4826 3.37406 0
M  V30 3514 N 381.35 -0.985608 -1.22978 0
M  V30 3515 C 382.28 -0.549649 -2.26939 0
M  V30 3516 C 383.261 0.419803 -1.64838 0
M  V30 3517 O 384.446 0.31203 -1.91677 0
M  V30 3518 C 381.576 0.143652 -3.47003 0
M  V30 3519 C 380.53 -0.743606 -4.21491 0
M  V30 3520 C 379.856 0.0822027 -5.34637 0
M  V30 3521 C 381.156 -2.03694 -4.80943 0
M  V30 3522 H 382.85 -1.41862 -2.63658 0
M  V30 3523 H 380.396 -0.683571 -1.26741 0
M  V30 3524 H 382.349 0.459985 -4.18882 0
M  V30 3525 H 381.073 1.04711 -3.09359 0
M  V30 3526 H 379.732 -1.04347 -3.51436 0
M  V30 3527 H 379.38 0.986359 -4.93234 0
M  V30 3528 H 379.08 -0.508377 -5.85397 0
M  V30 3529 H 380.604 0.392797 -6.09335 0
M  V30 3530 H 382.018 -1.78504 -5.44802 0
M  V30 3531 H 380.415 -2.57573 -5.42011 0
M  V30 3532 H 381.485 -2.72042 -4.01399 0
M  V30 3533 N 382.828 1.3818 -0.7579 0
M  V30 3534 C 384.074 2.00316 -0.316453 0
M  V30 3535 C 384.407 1.60026 1.10025 0
M  V30 3536 O 383.682 0.839835 1.75434 0
M  V30 3537 C 383.965 3.57349 -0.444245 0
M  V30 3538 C 383.818 4.07591 -1.90236 0
M  V30 3539 C 385.137 4.3981 0.1598 0
M  V30 3540 H 382.256 0.727741 -0.116459 0
M  V30 3541 H 384.898 1.6406 -0.958352 0
M  V30 3542 H 383.048 3.88365 0.102233 0
M  V30 3543 H 384.72 3.87199 -2.50748 0
M  V30 3544 H 382.963 3.60297 -2.41595 0
M  V30 3545 H 383.634 5.16677 -1.94291 0
M  V30 3546 H 386.11 4.14971 -0.306314 0
M  V30 3547 H 384.986 5.48885 0.0401675 0
M  V30 3548 H 385.247 4.24102 1.24859 0
M  V30 3549 N 384.306 0.507319 1.49211 0
M  V30 3550 C 385.216 -0.272136 2.33016 0
M  V30 3551 C 386.232 -0.961206 1.45041 0
M  V30 3552 O 387.408 -0.941191 1.78055 0
M  V30 3553 C 384.473 -1.31895 3.20631 0
M  V30 3554 C 383.534 -0.642648 4.24463 0
M  V30 3555 C 382.767 -1.63959 5.07891 0
M  V30 3556 O 382.99 -2.87007 4.92933 0
M  V30 3557 O 381.924 -1.19143 5.8999 0
M  V30 3558 H 385.75 0.413982 3.00865 0
M  V30 3559 H 383.335 0.268556 1.46966 0
M  V30 3560 H 385.217 -1.92446 3.7489 0
M  V30 3561 H 383.892 -1.98788 2.5547 0
M  V30 3562 H 382.799 0.00276252 3.741 0
M  V30 3563 H 384.132 -0.0160534 4.92197 0
M  V30 3564 N 385.784 -1.5574 0.241426 0
M  V30 3565 C 387.195 -1.84842 -0.262755 0
M  V30 3566 C 387.546 -1.16317 -1.58003 0
M  V30 3567 O 386.671 -0.439653 -2.11887 0
M  V30 3568 C 387.266 -3.35332 -0.483523 0
M  V30 3569 C 385.825 -3.6468 -0.931977 0
M  V30 3570 C 384.972 -2.77299 -0.0061151 0
M  V30 3571 H 387.923 -1.51761 0.464129 0
M  V30 3572 H 387.944 -3.56615 -1.32688 0
M  V30 3573 H 387.456 -3.85178 0.47537 0
M  V30 3574 H 385.557 -3.20307 -1.90353 0
M  V30 3575 H 385.67 -4.72498 -0.792628 0
M  V30 3576 H 384.034 -2.49408 -0.516503 0
M  V30 3577 H 384.817 -3.2995 0.948052 0
M  V30 3578 N 387.262 0.0317525 -1.57568 0
M  V30 3579 C 388.673 0.578692 -1.77505 0
M  V30 3580 C 389.024 1.75749 -0.872164 0
M  V30 3581 O 388.149 2.16298 -0.0663106 0
M  V30 3582 C 388.744 1.05658 -3.21904 0
M  V30 3583 C 387.303 1.54906 -3.43047 0
M  V30 3584 C 386.45 0.485939 -2.73009 0
M  V30 3585 H 389.401 -0.194475 -1.57504 0
M  V30 3586 H 389.422 1.92404 -3.28269 0
M  V30 3587 H 388.934 0.198422 -3.87592 0
M  V30 3588 H 387.035 2.42915 -2.82529 0
M  V30 3589 H 387.148 1.59841 -4.5165 0
M  V30 3590 H 385.512 0.940354 -2.36705 0
M  V30 3591 H 386.295 -0.362709 -3.41379 0
M  V30 3592 N 388.74 1.54641 0.303973 0
M  V30 3593 C 390.017 1.64455 1.05896 0
M  V30 3594 C 390.397 0.490923 2.05312 0
M  V30 3595 O 389.745 -0.512685 2.22674 0
M  V30 3596 C 389.955 3.02331 1.74347 0
M  V30 3597 C 391.303 3.59045 2.26653 0
M  V30 3598 O 392.327 3.04764 1.84384 0
M  V30 3599 O 391.186 4.54081 3.04093 0
M  V30 3600 H 388.28 0.666729 0.489287 0
M  V30 3601 H 390.826 1.66986 0.302298 0
M  V30 3602 H 389.598 3.77734 1.02142 0
M  V30 3603 H 389.221 3.03565 2.56777 0
M  V30 3604 N 390.218 -0.567019 1.47046 0
M  V30 3605 C 391.465 -1.32462 1.53167 0
M  V30 3606 C 391.793 -1.93571 0.189841 0
M  V30 3607 O 391.048 -1.77865 -0.816243 0
M  V30 3608 C 391.347 -2.4623 2.59047 0
M  V30 3609 C 391.013 -2.03014 4.02612 0
M  V30 3610 C 389.675 -1.90944 4.41694 0
M  V30 3611 C 392.027 -1.69895 4.92732 0
M  V30 3612 C 389.355 -1.44035 5.68745 0
M  V30 3613 C 391.707 -1.2446 6.20236 0
M  V30 3614 C 390.371 -1.10979 6.5821 0
M  V30 3615 H 389.641 -0.484713 0.560477 0
M  V30 3616 H 392.288 -0.636888 1.80599 0
M  V30 3617 H 390.593 -3.20517 2.25335 0
M  V30 3618 H 392.29 -3.04427 2.61008 0
M  V30 3619 H 388.88 -2.13348 3.71726 0
M  V30 3620 H 393.064 -1.78098 4.63244 0
M  V30 3621 H 388.32 -1.32254 5.96925 0
M  V30 3622 H 392.494 -0.978924 6.89485 0
M  V30 3623 H 390.121 -0.744078 7.5655 0
M  V30 3624 N 391.696 -1.35014 -0.812953 0
M  V30 3625 C 392.936 -1.29289 -1.58315 0
M  V30 3626 C 393.3 0.132727 -1.91541 0
M  V30 3627 O 394.501 0.314269 -2.66957 0
M  V30 3628 C 392.772 -2.1681 -2.84127 0
M  V30 3629 S 394.331 -2.28538 -3.74588 0
M  V30 3630 H 391.149 -0.459569 -0.542511 0
M  V30 3631 H 393.751 -1.70336 -0.959467 0
M  V30 3632 H 392.455 -3.19379 -2.57731 0
M  V30 3633 H 391.986 -1.76697 -3.51485 0
M  V30 3634 H 394.001 -1.4655 -4.74065 0
M  V30 3635 N 393.175 1.03435 -1.18907 0
M  V30 3636 C 394.105 2.13503 -0.945448 0
M  V30 3637 C 395.086 1.69682 0.119189 0
M  V30 3638 O 396.271 1.94169 -0.034707 0
M  V30 3639 C 393.401 3.44004 -0.477316 0
M  V30 3640 C 392.355 4.0148 -1.48316 0
M  V30 3641 C 391.681 5.27537 -0.872311 0
M  V30 3642 C 392.981 4.36921 -2.86177 0
M  V30 3643 H 394.675 2.34141 -1.86597 0
M  V30 3644 H 392.221 1.12523 -0.898584 0
M  V30 3645 H 394.174 4.20372 -0.294204 0
M  V30 3646 H 392.898 3.23072 0.478786 0
M  V30 3647 H 391.557 3.27201 -1.65332 0
M  V30 3648 H 391.205 5.02917 0.0911752 0
M  V30 3649 H 390.905 5.66954 -1.54393 0
M  V30 3650 H 392.429 6.06576 -0.699871 0
M  V30 3651 H 393.843 5.04248 -2.72776 0
M  V30 3652 H 392.24 4.87405 -3.50081 0
M  V30 3653 H 393.31 3.46466 -3.39248 0
M  V30 3654 N 394.653 0.992116 1.22453 0
M  V30 3655 C 395.883 0.684949 1.94915 0
M  V30 3656 C 396.291 -0.754292 1.73514 0
M  V30 3657 O 395.634 -1.52056 1.03076 0
M  V30 3658 C 395.696 0.910054 3.47791 0
M  V30 3659 C 395.36 2.33363 3.92926 0
M  V30 3660 C 396.357 3.31308 4.00663 0
M  V30 3661 C 394.042 2.66785 4.25595 0
M  V30 3662 C 396.036 4.6075 4.40441 0
M  V30 3663 C 393.723 3.96446 4.65053 0
M  V30 3664 C 394.721 4.9324 4.72444 0
M  V30 3665 O 394.409 6.20584 5.1101 0
M  V30 3666 H 394.141 0.25258 0.62704 0
M  V30 3667 H 396.695 1.32939 1.56577 0
M  V30 3668 H 394.925 0.208443 3.86138 0
M  V30 3669 H 396.614 0.598257 4.01467 0
M  V30 3670 H 397.38 3.0682 3.75615 0
M  V30 3671 H 393.259 1.92148 4.19047 0
M  V30 3672 H 396.803 5.363 4.46126 0
M  V30 3673 H 392.7 4.20724 4.89552 0
M  V30 3674 H 393.468 6.24509 5.29085 0
M  V30 3675 N 396.131 -1.37776 0.765217 0
M  V30 3676 C 397.078 -2.30342 0.145274 0
M  V30 3677 C 398.048 -1.5077 -0.696971 0
M  V30 3678 O 399.233 -1.79362 -0.650689 0
M  V30 3679 C 396.373 -3.37227 -0.732939 0
M  V30 3680 C 395.486 -4.31819 0.125199 0
M  V30 3681 C 394.621 -5.25777 -0.757107 0
M  V30 3682 C 393.66 -6.12012 0.103963 0
M  V30 3683 N 392.797 -6.98232 -0.735953 0
M  V30 3684 H 397.637 -2.8278 0.940195 0
M  V30 3685 H 395.174 -1.39211 0.475255 0
M  V30 3686 H 397.132 -3.97818 -1.25686 0
M  V30 3687 H 395.762 -2.86171 -1.49353 0
M  V30 3688 H 394.814 -3.7259 0.766865 0
M  V30 3689 H 396.126 -4.92509 0.789683 0
M  V30 3690 H 395.28 -5.91541 -1.34776 0
M  V30 3691 H 394.019 -4.65481 -1.45529 0
M  V30 3692 H 393.024 -5.45233 0.707197 0
M  V30 3693 H 394.249 -6.74379 0.799381 0
M  V30 3694 H 392.195 -6.40472 -1.41887 0
M  V30 3695 H 392.112 -7.55891 -0.128624 0
M  V30 3696 H 393.38 -7.68393 -1.31121 0
M  V30 3697 N 397.609 -0.515225 -1.4894 0
M  V30 3698 C 398.857 0.0241671 -2.02086 0
M  V30 3699 C 399.178 1.3616 -1.3959 0
M  V30 3700 O 398.448 1.87841 -0.556121 0
M  V30 3701 H 397.028 0.0119203 -0.746905 0
M  V30 3702 H 399.69 -0.675702 -1.82812 0
M  V30 3703 H 398.786 0.143385 -3.1177 0
M  V30 3704 N 399.087 1.5561 -0.249682 0
M  V30 3705 C 399.997 2.25143 0.659375 0
M  V30 3706 C 401.013 1.2685 1.19101 0
M  V30 3707 O 402.189 1.59732 1.22669 0
M  V30 3708 C 399.254 2.93945 1.8384 0
M  V30 3709 C 398.315 4.07655 1.34596 0
M  V30 3710 C 397.548 4.73167 2.46878 0
M  V30 3711 O 397.771 4.37768 3.65671 0
M  V30 3712 O 396.705 5.61623 2.16478 0
M  V30 3713 H 400.531 3.03545 0.0968698 0
M  V30 3714 H 398.116 1.49389 -0.018074 0
M  V30 3715 H 399.998 3.37271 2.52638 0
M  V30 3716 H 398.673 2.18481 2.38847 0
M  V30 3717 H 397.58 3.68839 0.625174 0
M  V30 3718 H 398.913 4.84946 0.841941 0
M  V30 3719 N 400.565 -0.0233959 1.57583 0
M  V30 3720 C 401.512 -1.02224 2.06927 0
M  V30 3721 C 402.482 -1.35575 0.959617 0
M  V30 3722 O 403.667 -1.45815 1.23055 0
M  V30 3723 C 400.807 -2.31636 2.5581 0
M  V30 3724 C 399.92 -2.04394 3.80588 0
M  V30 3725 C 399.055 -3.27717 4.18061 0
M  V30 3726 C 398.094 -2.96056 5.3574 0
M  V30 3727 N 397.231 -4.11847 5.68618 0
M  V30 3728 H 402.071 -0.594504 2.9201 0
M  V30 3729 H 399.608 -0.281921 1.44373 0
M  V30 3730 H 401.566 -3.07258 2.82221 0
M  V30 3731 H 400.196 -2.72122 1.73636 0
M  V30 3732 H 399.248 -1.19244 3.61227 0
M  V30 3733 H 400.56 -1.77042 4.66323 0
M  V30 3734 H 399.714 -4.11702 4.4563 0
M  V30 3735 H 398.453 -3.58188 3.30988 0
M  V30 3736 H 397.458 -2.10474 5.07918 0
M  V30 3737 H 398.683 -2.66857 6.24471 0
M  V30 3738 H 396.629 -4.42258 4.84504 0
M  V30 3739 H 396.546 -3.87938 6.48876 0
M  V30 3740 H 397.814 -4.96689 6.00766 0
M  V30 3741 N 402.043 -1.548 -0.295768 0
M  V30 3742 C 403.291 -1.73985 -1.02828 0
M  V30 3743 C 403.612 -0.531406 -1.87619 0
M  V30 3744 O 402.882 0.454221 -1.90561 0
M  V30 3745 H 401.462 -0.641556 -0.382642 0
M  V30 3746 H 404.124 -1.92163 -0.325489 0
M  V30 3747 H 403.22 -2.63129 -1.67838 0
M  V30 3748 N 403.521 0.559213 -1.47345 0
M  V30 3749 C 404.77 1.31281 -1.53128 0
M  V30 3750 C 405.083 1.94602 -0.197344 0
M  V30 3751 O 406.289 2.71173 -0.133154 0
M  V30 3752 C 404.745 2.38051 -2.69925 0
M  V30 3753 C 404.353 1.8093 -4.0984 0
M  V30 3754 C 406.097 3.14604 -2.84999 0
M  V30 3755 C 404.004 2.85468 -5.1794 0
M  V30 3756 H 402.934 0.493614 -0.569966 0
M  V30 3757 H 405.585 0.594155 -1.73615 0
M  V30 3758 H 403.967 3.12822 -2.42814 0
M  V30 3759 H 405.141 1.12544 -4.46845 0
M  V30 3760 H 403.456 1.16967 -3.99634 0
M  V30 3761 H 406.053 3.92666 -3.62929 0
M  V30 3762 H 406.396 3.68665 -1.93369 0
M  V30 3763 H 406.929 2.46945 -3.1187 0
M  V30 3764 H 403.668 2.36264 -6.1144 0
M  V30 3765 H 403.188 3.52269 -4.85455 0
M  V30 3766 H 404.867 3.48996 -5.44803 0
M  V30 3767 N 404.999 1.35443 0.805782 0
M  V30 3768 C 405.946 1.28431 1.91766 0
M  V30 3769 C 406.916 0.156102 1.65365 0
M  V30 3770 O 408.101 0.339936 1.87747 0
M  V30 3771 C 405.241 1.06301 3.2832 0
M  V30 3772 C 404.354 2.2805 3.66902 0
M  V30 3773 C 403.489 1.99064 4.92491 0
M  V30 3774 C 402.528 3.16863 5.23703 0
M  V30 3775 N 401.665 2.87647 6.40471 0
M  V30 3776 H 406.505 2.23511 1.97096 0
M  V30 3777 H 404.042 1.11105 0.964054 0
M  V30 3778 H 406 0.915012 4.07042 0
M  V30 3779 H 404.63 0.148822 3.22457 0
M  V30 3780 H 403.682 2.53711 2.83434 0
M  V30 3781 H 404.994 3.1601 3.85927 0
M  V30 3782 H 404.148 1.81099 5.7904 0
M  V30 3783 H 402.887 1.0839 4.75503 0
M  V30 3784 H 401.892 3.35404 4.35642 0
M  V30 3785 H 403.117 4.08339 5.4262 0
M  V30 3786 H 401.063 1.99568 6.24907 0
M  V30 3787 H 400.98 3.69141 6.59751 0
M  V30 3788 H 402.248 2.73226 7.30047 0
M  V30 3789 N 406.477 -1.02803 1.19454 0
M  V30 3790 C 407.725 -1.75869 0.995722 0
M  V30 3791 C 408.046 -1.89138 -0.474543 0
M  V30 3792 O 407.316 -1.42558 -1.34366 0
M  V30 3793 H 405.896 -0.651511 0.365435 0
M  V30 3794 H 408.558 -1.24004 1.50363 0
M  V30 3795 H 407.654 -2.76661 1.44447 0
M  V30 3796 N 407.956 -0.998596 -1.21925 0
M  V30 3797 C 409.205 -0.673085 -1.90138 0
M  V30 3798 C 409.518 0.79895 -1.78539 0
M  V30 3799 O 410.724 1.23628 -2.4172 0
M  V30 3800 C 409.18 -1.15339 -3.40918 0
M  V30 3801 C 408.788 -2.65106 -3.61141 0
M  V30 3802 C 410.532 -0.902476 -4.14796 0
M  V30 3803 C 408.439 -3.0671 -5.05651 0
M  V30 3804 H 407.369 -0.248057 -0.712028 0
M  V30 3805 H 410.02 -1.20891 -1.38049 0
M  V30 3806 H 408.402 -0.545658 -3.92223 0
M  V30 3807 H 409.576 -3.31274 -3.20304 0
M  V30 3808 H 407.891 -2.88142 -3.00605 0
M  V30 3809 H 410.488 -1.18895 -5.21314 0
M  V30 3810 H 410.831 0.161349 -4.15987 0
M  V30 3811 H 411.364 -1.47269 -3.69536 0
M  V30 3812 H 408.103 -4.12292 -5.09603 0
M  V30 3813 H 407.623 -2.45249 -5.47369 0
M  V30 3814 H 409.302 -2.9833 -5.74115 0
M  V30 3815 N 409.434 1.37368 -0.772513 0
M  V30 3816 C 410.845 1.8231 -0.402493 0
M  V30 3817 C 411.196 1.6436 1.07146 0
M  V30 3818 O 410.321 1.15514 1.82991 0
M  V30 3819 C 410.916 3.30979 -0.723776 0
M  V30 3820 C 409.475 3.74195 -0.406802 0
M  V30 3821 C 408.622 2.59885 -0.967218 0
M  V30 3822 H 411.573 1.25829 -0.967099 0
M  V30 3823 H 411.594 3.80499 -0.00870832 0
M  V30 3824 H 411.106 3.44011 -1.7966 0
M  V30 3825 H 409.207 3.66732 0.658673 0
M  V30 3826 H 409.32 4.7027 -0.915588 0
M  V30 3827 H 407.684 2.51674 -0.391416 0
M  V30 3828 H 408.467 2.7571 -2.04546 0
M  V30 3829 N 410.912 0.523116 1.48665 0
M  V30 3830 C 412.16 -0.0134497 2.02096 0
M  V30 3831 C 412.481 -1.35418 1.40311 0
M  V30 3832 O 411.751 -1.87543 0.566074 0
M  V30 3833 H 410.331 -0.00795915 0.746958 0
M  V30 3834 H 412.993 0.685388 1.82451 0
M  V30 3835 H 412.089 -0.126849 3.11842 0
M  V30 3836 N 412.39 -1.55475 0.257931 0
M  V30 3837 C 413.323 -2.179 -0.677862 0
M  V30 3838 C 414.301 -1.13448 -1.16483 0
M  V30 3839 O 415.485 -1.41889 -1.24095 0
M  V30 3840 C 412.612 -2.78851 -1.92249 0
M  V30 3841 C 411.658 -3.96454 -1.57246 0
M  V30 3842 S 412.491 -5.31349 -0.665501 0
M  V30 3843 C 413.647 -5.9576 -1.91889 0
M  V30 3844 H 413.88 -2.96934 -0.147396 0
M  V30 3845 H 411.413 -1.54342 0.0423023 0
M  V30 3846 H 413.371 -3.14602 -2.63697 0
M  V30 3847 H 412.032 -1.99742 -2.42409 0
M  V30 3848 H 411.225 -4.37731 -2.49814 0
M  V30 3849 H 410.827 -3.62038 -0.938325 0
M  V30 3850 H 413.119 -6.13947 -2.86487 0
M  V30 3851 H 414.062 -6.9094 -1.54942 0
M  V30 3852 H 414.47 -5.2494 -2.076 0
M  V30 3853 N 413.868 0.0150385 -1.57593 0
M  V30 3854 C 415.114 0.704043 -1.90187 0
M  V30 3855 C 415.447 1.74249 -0.857366 0
M  V30 3856 O 414.722 1.94092 0.125843 0
M  V30 3857 C 415.005 1.36087 -3.33395 0
M  V30 3858 C 414.858 0.334981 -4.48551 0
M  V30 3859 C 416.177 2.29112 -3.7576 0
M  V30 3860 H 413.296 0.254475 -0.691673 0
M  V30 3861 H 415.938 -0.0331678 -1.89971 0
M  V30 3862 H 414.088 1.98922 -3.3371 0
M  V30 3863 H 415.76 -0.292534 -4.60372 0
M  V30 3864 H 414.003 -0.344325 -4.32431 0
M  V30 3865 H 414.674 0.833316 -5.45674 0
M  V30 3866 H 417.15 1.76308 -3.76902 0
M  V30 3867 H 416.026 2.72043 -4.76743 0
M  V30 3868 H 416.287 3.16385 -3.08793 0
M  V30 3869 N 415.346 1.54954 0.287554 0
M  V30 3870 C 416.594 1.74528 1.01904 0
M  V30 3871 C 416.915 0.541349 1.87335 0
M  V30 3872 O 416.185 -0.444108 1.908 0
M  V30 3873 H 414.765 0.643576 0.379235 0
M  V30 3874 H 417.427 1.92333 0.315294 0
M  V30 3875 H 416.523 2.64015 1.6644 0
M  V30 3876 N 416.824 -0.551391 1.4764 0
M  V30 3877 C 417.754 -1.66757 1.63445 0
M  V30 3878 C 418.735 -1.63077 0.483742 0
M  V30 3879 O 419.92 -1.80607 0.71377 0
M  V30 3880 C 417.05 -3.05387 1.65396 0
M  V30 3881 C 416.004 -3.23918 2.79752 0
M  V30 3882 C 415.33 -4.63393 2.66779 0
M  V30 3883 C 416.63 -3.08735 4.21284 0
M  V30 3884 H 418.324 -1.53786 2.56886 0
M  V30 3885 H 415.87 -0.738415 1.23626 0
M  V30 3886 H 417.823 -3.83325 1.75043 0
M  V30 3887 H 416.547 -3.19332 0.685195 0
M  V30 3888 H 415.206 -2.48391 2.69625 0
M  V30 3889 H 414.854 -4.74144 1.67918 0
M  V30 3890 H 414.554 -4.7674 3.43501 0
M  V30 3891 H 416.078 -5.43458 2.78364 0
M  V30 3892 H 417.492 -3.76484 4.32357 0
M  V30 3893 H 415.889 -3.33588 4.98838 0
M  V30 3894 H 416.959 -2.0541 4.39243 0
M  V30 3895 N 418.302 -1.35869 -0.798587 0
M  V30 3896 C 419.713 -1.26498 -1.37314 0
M  V30 3897 C 420.064 0.0991899 -1.95949 0
M  V30 3898 O 419.189 1.0004 -1.91888 0
M  V30 3899 C 419.784 -2.29054 -2.49639 0
M  V30 3900 C 418.343 -2.234 -3.02935 0
M  V30 3901 C 417.49 -2.14329 -1.75949 0
M  V30 3902 H 420.441 -1.46881 -0.600971 0
M  V30 3903 H 420.462 -1.92166 -3.28409 0
M  V30 3904 H 419.974 -3.2833 -2.06933 0
M  V30 3905 H 418.075 -1.27562 -3.50084 0
M  V30 3906 H 418.188 -3.15703 -3.60372 0
M  V30 3907 H 416.552 -1.60435 -1.9782 0
M  V30 3908 H 417.335 -3.15477 -1.35384 0
M  V30 3909 N 419.78 1.02168 -1.19998 0
M  V30 3910 C 421.028 1.75338 -1.00504 0
M  V30 3911 C 421.349 1.89387 0.464506 0
M  V30 3912 O 420.619 1.43268 1.33608 0
M  V30 3913 H 419.199 0.649564 -0.368885 0
M  V30 3914 H 421.861 1.23205 -1.51018 0
M  V30 3915 H 420.957 2.75892 -1.45912 0
M  V30 3916 N 421.258 1.00505 1.21394 0
M  V30 3917 C 422.669 0.721082 1.72213 0
M  V30 3918 C 423.02 -0.761263 1.80829 0
M  V30 3919 O 422.145 -1.59464 1.46288 0
M  V30 3920 C 422.74 1.30228 3.12772 0
M  V30 3921 C 421.299 1.06743 3.60947 0
M  V30 3922 C 420.446 1.41507 2.38477 0
M  V30 3923 H 423.397 1.17594 1.06571 0
M  V30 3924 H 423.418 0.686955 3.74247 0
M  V30 3925 H 422.93 2.38115 3.06468 0
M  V30 3926 H 421.031 0.00572162 3.726 0
M  V30 3927 H 421.144 1.73936 4.46411 0
M  V30 3928 H 419.508 0.833852 2.40664 0
M  V30 3929 H 420.291 2.50424 2.34824 0
M  V30 3930 N 422.737 -1.36956 0.779787 0
M  V30 3931 C 424.148 -1.82094 0.412156 0
M  V30 3932 C 424.499 -1.64926 -1.06273 0
M  V30 3933 O 423.624 -1.16483 -1.82375 0
M  V30 3934 C 424.219 -3.3059 0.741319 0
M  V30 3935 C 422.778 -3.73974 0.426641 0
M  V30 3936 C 421.925 -2.59368 0.980987 0
M  V30 3937 H 424.876 -1.25314 0.973758 0
M  V30 3938 H 424.897 -3.80489 0.028887 0
M  V30 3939 H 424.409 -3.43054 1.81482 0
M  V30 3940 H 422.51 -3.67076 -0.639215 0
M  V30 3941 H 422.623 -4.69778 0.940515 0
M  V30 3942 H 420.987 -2.51463 0.404757 0
M  V30 3943 H 421.77 -2.74621 2.06005 0
M  V30 3944 N 424.215 -0.530993 -1.48385 0
M  V30 3945 C 425.463 0.00273189 -2.021 0
M  V30 3946 C 425.784 1.34672 -1.41027 0
M  V30 3947 O 425.054 1.8724 -0.576012 0
M  V30 3948 H 423.634 0.00399774 -0.746989 0
M  V30 3949 H 426.296 -0.695054 -1.82085 0
M  V30 3950 H 425.392 0.11031 -3.11905 0
M  V30 3951 N 425.693 1.55336 -0.266172 0
M  V30 3952 C 427.109 1.59356 0.0882065 0
M  V30 3953 C 427.309 1.2834 1.55342 0
M  V30 3954 O 426.365 1.03996 2.30089 0
M  V30 3955 C 427.678 2.99409 -0.278364 0
M  V30 3956 C 429.226 3.12196 -0.224243 0
M  V30 3957 C 429.701 4.545 -0.565123 0
M  V30 3958 N 431.192 4.60313 -0.51634 0
M  V30 3959 C 431.927 5.68434 -0.753013 0
M  V30 3960 N 431.423 6.84738 -1.05383 0
M  V30 3961 N 433.216 5.57942 -0.682414 0
M  V30 3962 H 425.367 1.73764 -1.22147 0
M  V30 3963 H 427.63 0.809822 -0.492841 0
M  V30 3964 H 427.336 3.2691 -1.29703 0
M  V30 3965 H 427.21 3.75228 0.385186 0
M  V30 3966 H 429.597 2.84464 0.78512 0
M  V30 3967 H 429.678 2.38609 -0.921922 0
M  V30 3968 H 429.322 4.82956 -1.57213 0
M  V30 3969 H 429.252 5.26374 0.154248 0
M  V30 3970 H 431.743 3.7676 -0.29335 0
M  V30 3971 H 432.056 7.63088 -1.22133 0
M  V30 3972 H 430.401 6.86375 -1.09151 0
M  V30 3973 H 433.592 4.65958 -0.44731 0
M  V30 3974 H 433.765 6.4213 -0.870248 0
M  V30 3975 N 427.171 -0.0066808 1.57599 0
M  V30 3976 C 428.118 -1.00024 2.08 0
M  V30 3977 C 429.088 -1.34549 0.973943 0
M  V30 3978 O 430.273 -1.44502 1.24595 0
M  V30 3979 C 427.413 -2.2891 2.58252 0
M  V30 3980 C 426.526 -2.00346 3.82734 0
M  V30 3981 C 425.661 -3.23265 4.21513 0
M  V30 3982 C 424.7 -2.90357 5.3885 0
M  V30 3983 N 423.837 -4.05793 5.72954 0
M  V30 3984 H 428.677 -0.563499 2.92624 0
M  V30 3985 H 426.214 -0.266592 1.44664 0
M  V30 3986 H 428.172 -3.04247 2.85464 0
M  V30 3987 H 426.802 -2.70265 1.76512 0
M  V30 3988 H 425.854 -1.15406 3.62471 0
M  V30 3989 H 427.166 -1.72086 4.68175 0
M  V30 3990 H 426.32 -4.06953 4.49971 0
M  V30 3991 H 425.059 -3.54657 3.34768 0
M  V30 3992 H 424.064 -2.05075 5.10122 0
M  V30 3993 H 425.289 -2.60219 6.27266 0
M  V30 3994 H 423.235 -4.37094 4.89167 0
M  V30 3995 H 423.152 -3.81034 6.52954 0
M  V30 3996 H 424.42 -4.90289 6.06001 0
M  V30 3997 N 428.649 -1.55105 -0.279332 0
M  V30 3998 C 429.897 -1.75066 -1.00977 0
M  V30 3999 C 430.218 -0.551276 -1.87045 0
M  V30 4000 O 429.488 0.433984 -1.91032 0
M  V30 4001 H 428.068 -0.645578 -0.375816 0
M  V30 4002 H 430.73 -1.92497 -0.305089 0
M  V30 4003 H 429.826 -2.64894 -1.65038 0
M  V30 4004 N 430.127 0.543554 -1.4793 0
M  V30 4005 C 431.037 1.67657 -1.64098 0
M  V30 4006 C 432.053 1.65934 -0.523622 0
M  V30 4007 O 433.229 1.85133 -0.792943 0
M  V30 4008 C 430.294 3.04146 -1.66421 0
M  V30 4009 C 429.355 3.16831 -2.89684 0
M  V30 4010 C 428.588 4.46809 -2.91886 0
M  V30 4011 O 428.811 5.33095 -2.02895 0
M  V30 4012 O 427.745 4.63573 -3.83906 0
M  V30 4013 H 431.571 1.56957 -2.59997 0
M  V30 4014 H 429.156 0.715116 -1.31173 0
M  V30 4015 H 431.038 3.85346 -1.70548 0
M  V30 4016 H 429.713 3.152 -0.736923 0
M  V30 4017 H 428.62 2.34977 -2.91095 0
M  V30 4018 H 429.953 3.10687 -3.81752 0
M  V30 4019 N 431.605 1.3629 0.791371 0
M  V30 4020 C 432.83 1.33726 1.58531 0
M  V30 4021 C 433.255 -0.0794933 1.87932 0
M  V30 4022 O 432.613 -1.05087 1.47738 0
M  V30 4023 C 432.661 2.16425 2.88431 0
M  V30 4024 O 431.765 1.5554 3.81944 0
M  V30 4025 H 431.106 0.457793 0.480959 0
M  V30 4026 H 433.636 1.79547 0.981031 0
M  V30 4027 H 433.646 2.28933 3.37718 0
M  V30 4028 H 432.321 3.19415 2.66359 0
M  V30 4029 H 430.898 1.51961 3.40532 0
M  V30 4030 N 433.083 -1.0153 1.20538 0
M  V30 4031 C 434.331 -1.74803 1.01432 0
M  V30 4032 C 434.652 -1.8963 -0.454456 0
M  V30 4033 O 433.922 -1.43975 -1.32846 0
M  V30 4034 H 432.502 -0.647598 0.372324 0
M  V30 4035 H 435.164 -1.22402 1.5167 0
M  V30 4036 H 434.26 -2.75114 1.47373 0
M  V30 4037 N 434.561 -1.01147 -1.20859 0
M  V30 4038 C 435.81 -0.693214 -1.89413 0
M  V30 4039 C 436.123 0.779969 -1.79376 0
M  V30 4040 O 437.329 1.21057 -2.43017 0
M  V30 4041 C 435.785 -1.18949 -3.39675 0
M  V30 4042 C 435.393 -2.68921 -3.58309 0
M  V30 4043 C 437.137 -0.94642 -4.13815 0
M  V30 4044 C 435.044 -3.12056 -5.0237 0
M  V30 4045 H 433.974 -0.255595 -0.709357 0
M  V30 4046 H 436.625 -1.22349 -1.36759 0
M  V30 4047 H 435.007 -0.587228 -3.91622 0
M  V30 4048 H 436.181 -3.34652 -3.16772 0
M  V30 4049 H 434.496 -2.91314 -2.97532 0
M  V30 4050 H 437.093 -1.24417 -5.20023 0
M  V30 4051 H 437.436 0.117219 -4.16135 0
M  V30 4052 H 437.969 -1.5118 -3.67953 0
M  V30 4053 H 434.708 -4.17674 -5.05202 0
M  V30 4054 H 434.228 -2.51041 -5.44737 0
M  V30 4055 H 435.907 -3.04403 -5.70918 0
M  V30 4056 N 436.039 1.36541 -0.78704 0
M  V30 4057 C 437.287 1.98911 -0.357633 0
M  V30 4058 C 437.608 1.62778 1.07371 0
M  V30 4059 O 436.878 0.900612 1.73971 0
M  V30 4060 H 435.458 0.735734 -0.129246 0
M  V30 4061 H 438.12 1.66776 -1.00855 0
M  V30 4062 H 437.216 3.08874 -0.447549 0
M  V30 4063 N 437.518 0.538854 1.48102 0
M  V30 4064 C 438.481 -0.208395 2.28251 0
M  V30 4065 C 439.481 -0.859656 1.35892 0
M  V30 4066 O 440.671 -0.71834 1.58699 0
M  V30 4067 C 437.803 -1.30252 3.15035 0
M  V30 4068 H 438.996 0.495407 2.9578 0
M  V30 4069 H 436.549 0.295112 1.53489 0
M  V30 4070 H 437.284 -2.0393 2.52157 0
M  V30 4071 H 437.069 -0.840551 3.82985 0
M  V30 4072 H 438.559 -1.82787 3.75471 0
M  V30 4073 N 438.996 -1.55193 0.274407 0
M  V30 4074 C 439.943 -2.225 -0.613374 0
M  V30 4075 C 440.913 -1.19823 -1.15029 0
M  V30 4076 O 442.098 -1.48362 -1.19973 0
M  V30 4077 C 439.238 -2.94927 -1.79199 0
M  V30 4078 C 438.351 -4.12322 -1.28899 0
M  V30 4079 C 437.486 -4.72394 -2.42934 0
M  V30 4080 C 436.525 -5.81984 -1.89634 0
M  V30 4081 N 435.662 -6.36123 -2.9714 0
M  V30 4082 H 440.502 -2.97982 -0.032756 0
M  V30 4083 H 438.039 -1.47099 -0.00440146 0
M  V30 4084 H 439.997 -3.35134 -2.48478 0
M  V30 4085 H 438.627 -2.2187 -2.34465 0
M  V30 4086 H 437.679 -3.7724 -0.489327 0
M  V30 4087 H 438.991 -4.91355 -0.858587 0
M  V30 4088 H 438.145 -5.15317 -3.20208 0
M  V30 4089 H 436.884 -3.92636 -2.8929 0
M  V30 4090 H 435.889 -5.38511 -1.1084 0
M  V30 4091 H 437.114 -6.6361 -1.44215 0
M  V30 4092 H 435.06 -5.59259 -3.42878 0
M  V30 4093 H 434.977 -7.10427 -2.58515 0
M  V30 4094 H 436.245 -6.83704 -3.74391 0
M  V30 4095 N 440.474 -0.00167713 -1.576 0
M  V30 4096 C 441.722 0.681471 -1.90264 0
M  V30 4097 C 442.043 1.7422 -0.875924 0
M  V30 4098 O 441.313 1.95709 0.0864412 0
M  V30 4099 H 439.893 0.254696 -0.702239 0
M  V30 4100 H 442.555 -0.0429996 -1.94853 0
M  V30 4101 H 441.651 1.15166 -2.90075 0
M  V30 4102 N 441.952 1.55251 0.271103 0
M  V30 4103 C 442.862 1.9136 1.35714 0
M  V30 4104 C 443.878 0.811075 1.5394 0
M  V30 4105 O 445.054 1.11031 1.6803 0
M  V30 4106 C 442.119 2.1798 2.69603 0
M  V30 4107 C 441.18 3.4153 2.60107 0
M  V30 4108 C 440.413 3.66871 3.8761 0
M  V30 4109 O 440.636 2.94689 4.8838 0
M  V30 4110 O 439.57 4.60405 3.87699 0
M  V30 4111 H 443.396 2.83815 1.08088 0
M  V30 4112 H 440.981 1.41821 0.469792 0
M  V30 4113 H 442.863 2.36518 3.48765 0
M  V30 4114 H 441.538 1.28708 2.97012 0
M  V30 4115 H 440.445 3.28325 1.79314 0
M  V30 4116 H 441.778 4.31027 2.37647 0
M  V30 4117 N 443.43 -0.535701 1.48216 0
M  V30 4118 C 444.377 -1.64083 1.62312 0
M  V30 4119 C 445.347 -1.59448 0.465365 0
M  V30 4120 O 446.532 -1.77959 0.688135 0
M  V30 4121 C 443.672 -3.0236 1.66349 0
M  V30 4122 C 442.785 -3.17273 2.93193 0
M  V30 4123 C 441.92 -4.46075 2.88427 0
M  V30 4124 C 440.959 -4.54496 4.1 0
M  V30 4125 N 440.096 -5.7468 4.03345 0
M  V30 4126 H 444.936 -1.51374 2.5669 0
M  V30 4127 H 442.473 -0.737059 1.27302 0
M  V30 4128 H 444.431 -3.82461 1.66672 0
M  V30 4129 H 443.061 -3.13854 0.754672 0
M  V30 4130 H 442.113 -2.30462 3.02641 0
M  V30 4131 H 443.425 -3.19357 3.83162 0
M  V30 4132 H 442.579 -5.3446 2.87119 0
M  V30 4133 H 441.318 -4.46504 1.96177 0
M  V30 4134 H 440.323 -3.64519 4.11589 0
M  V30 4135 H 441.548 -4.5581 5.03402 0
M  V30 4136 H 439.494 -5.76017 3.13912 0
M  V30 4137 H 439.411 -5.78234 4.87013 0
M  V30 4138 H 440.679 -6.65367 4.06087 0
M  V30 4139 N 444.908 -1.36708 -0.784132 0
M  V30 4140 C 446.156 -1.30972 -1.53918 0
M  V30 4141 C 446.477 0.109086 -1.94695 0
M  V30 4142 O 445.747 1.05048 -1.65353 0
M  V30 4143 H 444.327 -0.481819 -0.570841 0
M  V30 4144 H 446.989 -1.71063 -0.934002 0
M  V30 4145 H 446.085 -1.94061 -2.44431 0
M  V30 4146 N 446.386 1.0089 -1.21074 0
M  V30 4147 C 447.635 1.74019 -1.01981 0
M  V30 4148 C 447.948 1.90408 0.447665 0
M  V30 4149 O 449.154 2.60707 0.757906 0
M  V30 4150 C 447.61 3.13026 -1.77603 0
M  V30 4151 C 447.218 3.04623 -3.28495 0
M  V30 4152 C 448.962 3.90312 -1.66904 0
M  V30 4153 C 446.869 4.38685 -3.96623 0
M  V30 4154 H 445.799 0.652422 -0.377971 0
M  V30 4155 H 448.45 1.12755 -1.44771 0
M  V30 4156 H 446.832 3.74878 -1.27604 0
M  V30 4157 H 448.006 2.52032 -3.85767 0
M  V30 4158 H 446.321 2.40827 -3.39693 0
M  V30 4159 H 448.918 4.8951 -2.15138 0
M  V30 4160 H 449.261 4.11558 -0.62658 0
M  V30 4161 H 449.794 3.35104 -2.14359 0
M  V30 4162 H 446.533 4.22641 -5.01054 0
M  V30 4163 H 446.053 4.91252 -3.4414 0
M  V30 4164 H 447.732 5.075 -4.01314 0
M  V30 4165 N 447.864 1.01787 1.20321 0
M  V30 4166 C 449.275 0.739307 1.71438 0
M  V30 4167 C 449.626 -0.742041 1.81627 0
M  V30 4168 O 448.751 -1.57903 1.47971 0
M  V30 4169 C 449.346 1.33538 3.11373 0
M  V30 4170 C 447.905 1.10566 3.59795 0
M  V30 4171 C 447.052 1.44028 2.36962 0
M  V30 4172 H 450.003 1.18718 1.05317 0
M  V30 4173 H 450.024 0.726611 3.73498 0
M  V30 4174 H 449.536 2.41352 3.03926 0
M  V30 4175 H 447.637 0.0452405 3.72573 0
M  V30 4176 H 447.75 1.78661 4.44542 0
M  V30 4177 H 446.114 0.85933 2.39766 0
M  V30 4178 H 446.897 2.52901 2.32155 0
M  V30 4179 N 449.342 -1.36122 0.79427 0
M  V30 4180 C 450.59 -1.98718 0.368177 0
M  V30 4181 C 450.911 -1.63345 -1.06506 0
M  V30 4182 O 450.181 -0.909825 -1.73491 0
M  V30 4183 H 448.761 -0.735038 0.133146 0
M  V30 4184 H 451.423 -1.66239 1.01739 0
M  V30 4185 H 450.519 -3.08633 0.463923 0
M  V30 4186 N 450.82 -0.546701 -1.47814 0
M  V30 4187 C 452.067 -0.0187407 -2.02491 0
M  V30 4188 C 452.395 1.32685 -1.42215 0
M  V30 4189 O 451.65 1.87413 -0.563454 0
M  V30 4190 C 451.949 0.134869 -3.57145 0
M  V30 4191 C 451.615 -1.13849 -4.3629 0
M  V30 4192 C 450.277 -1.48743 -4.57634 0
M  V30 4193 C 452.629 -1.98277 -4.82012 0
M  V30 4194 C 449.957 -2.67932 -5.21948 0
M  V30 4195 C 452.309 -3.16659 -5.4764 0
M  V30 4196 C 450.973 -3.51879 -5.67219 0
M  V30 4197 H 450.243 -0.0068577 -0.740968 0
M  V30 4198 H 452.89 -0.716097 -1.77607 0
M  V30 4199 H 451.195 0.915118 -3.80963 0
M  V30 4200 H 452.892 0.558556 -3.97091 0
M  V30 4201 H 449.482 -0.856767 -4.19949 0
M  V30 4202 H 453.666 -1.72628 -4.6531 0
M  V30 4203 H 448.922 -2.95401 -5.35302 0
M  V30 4204 H 453.096 -3.82374 -5.82033 0
M  V30 4205 H 450.723 -4.44331 -6.16825 0
M  V30 4206 N 452.299 1.55045 -0.282633 0
M  V30 4207 C 453.71 1.85473 0.213655 0
M  V30 4208 C 454.061 1.20465 1.54863 0
M  V30 4209 O 453.186 0.495676 2.10647 0
M  V30 4210 C 453.781 3.36496 0.394445 0
M  V30 4211 C 452.34 3.67022 0.834961 0
M  V30 4212 C 451.487 2.77218 -0.0674081 0
M  V30 4213 H 454.438 1.50478 -0.504202 0
M  V30 4214 H 454.459 3.60007 1.23186 0
M  V30 4215 H 453.971 3.83782 -0.577326 0
M  V30 4216 H 452.072 3.25241 1.81794 0
M  V30 4217 H 452.185 4.74433 0.667075 0
M  V30 4218 H 450.549 2.5069 0.450196 0
M  V30 4219 H 451.332 3.2732 -1.0352 0
M  V30 4220 N 453.777 0.010035 1.57597 0
M  V30 4221 C 455.025 -0.671371 1.90623 0
M  V30 4222 C 455.346 -1.73753 0.885151 0
M  V30 4223 O 454.616 -1.95752 -0.0760611 0
M  V30 4224 H 453.196 -0.250968 0.703579 0
M  V30 4225 H 455.858 0.0533325 1.94827 0
M  V30 4226 H 454.954 -1.13626 2.90681 0
M  V30 4227 N 455.255 -1.55392 -0.262866 0
M  V30 4228 C 456.666 -1.67079 -0.833158 0
M  V30 4229 C 457.017 -0.604539 -1.86654 0
M  V30 4230 O 456.142 0.252138 -2.14926 0
M  V30 4231 C 456.737 -3.02891 -1.51797 0
M  V30 4232 C 455.296 -3.16571 -2.03617 0
M  V30 4233 C 454.443 -2.62909 -0.881701 0
M  V30 4234 H 457.394 -1.58652 -0.0389986 0
M  V30 4235 H 457.415 -2.96445 -2.38538 0
M  V30 4236 H 456.927 -3.80473 -0.765619 0
M  V30 4237 H 455.028 -2.43782 -2.81782 0
M  V30 4238 H 455.141 -4.23271 -2.24452 0
M  V30 4239 H 453.505 -2.20324 -1.27786 0
M  V30 4240 H 454.288 -3.43003 -0.14269 0
M  V30 4241 N 456.733 0.527833 -1.48498 0
M  V30 4242 C 458.149 0.856571 -1.34666 0
M  V30 4243 C 458.349 1.98271 -0.35931 0
M  V30 4244 O 457.405 2.51551 0.218703 0
M  V30 4245 C 458.718 1.22207 -2.74747 0
M  V30 4246 C 460.266 1.33183 -2.83251 0
M  V30 4247 C 460.741 1.73075 -4.24039 0
M  V30 4248 N 462.232 1.80174 -4.26722 0
M  V30 4249 C 462.967 2.1243 -5.32598 0
M  V30 4250 N 462.463 2.43096 -6.4875 0
M  V30 4251 N 464.256 2.13454 -5.19994 0
M  V30 4252 H 456.407 -0.215174 -2.11307 0
M  V30 4253 H 458.67 -0.0336281 -0.947403 0
M  V30 4254 H 458.376 0.468195 -3.4857 0
M  V30 4255 H 458.25 2.17173 -3.08409 0
M  V30 4256 H 460.637 2.07647 -2.09683 0
M  V30 4257 H 460.718 0.363333 -2.53206 0
M  V30 4258 H 460.362 0.991712 -4.98124 0
M  V30 4259 H 460.292 2.70979 -4.51529 0
M  V30 4260 H 462.783 1.58744 -3.42942 0
M  V30 4261 H 463.096 2.6682 -7.25277 0
M  V30 4262 H 461.441 2.40611 -6.52021 0
M  V30 4263 H 464.632 1.88956 -4.28268 0
M  V30 4264 H 464.805 2.38261 -6.02608 0
M  V30 4265 N 458.211 1.37122 0.776871 0
M  V30 4266 C 459.459 1.31787 1.53221 0
M  V30 4267 C 459.78 -0.0987589 1.9475 0
M  V30 4268 O 459.05 -1.0417 1.65908 0
M  V30 4269 H 457.63 0.484839 0.568278 0
M  V30 4270 H 460.292 1.71556 0.924917 0
M  V30 4271 H 459.388 1.95355 2.43398 0
M  V30 4272 N 459.689 -1.00246 1.21608 0
M  V30 4273 C 460.966 -1.71336 0.943568 0
M  V30 4274 C 461.346 -2.03972 -0.543943 0
M  V30 4275 O 460.694 -1.71545 -1.50946 0
M  V30 4276 C 460.904 -2.97094 1.83128 0
M  V30 4277 C 462.252 -3.70071 2.08165 0
M  V30 4278 O 463.276 -3.07081 1.80498 0
M  V30 4279 O 462.135 -4.83376 2.54971 0
M  V30 4280 H 459.229 -0.747386 0.354039 0
M  V30 4281 H 461.775 -1.05967 1.32549 0
M  V30 4282 H 460.547 -2.69407 2.83788 0
M  V30 4283 H 460.17 -3.70204 1.45034 0
M  V30 4284 N 461.167 -1.02423 -1.1978 0
M  V30 4285 C 462.578 -0.748389 -1.71044 0
M  V30 4286 C 462.929 0.732398 -1.82017 0
M  V30 4287 O 462.054 1.57116 -1.48807 0
M  V30 4288 C 462.649 -1.35187 -3.1066 0
M  V30 4289 C 461.208 -1.12472 -3.59203 0
M  V30 4290 C 460.355 -1.45283 -2.36195 0
M  V30 4291 H 463.306 -1.19275 -1.04686 0
M  V30 4292 H 463.327 -0.746408 -3.73107 0
M  V30 4293 H 462.839 -2.4296 -3.02642 0
M  V30 4294 H 460.94 -0.0649983 -3.72543 0
M  V30 4295 H 461.053 -1.81016 -4.43588 0
M  V30 4296 H 459.417 -0.872034 -2.39307 0
M  V30 4297 H 460.2 -2.54129 -2.30811 0
M  V30 4298 N 462.645 1.35699 -0.801477 0
M  V30 4299 C 463.893 1.9852 -0.37871 0
M  V30 4300 C 464.214 1.63907 1.05638 0
M  V30 4301 O 463.484 0.919013 1.73006 0
M  V30 4302 H 462.064 0.734322 -0.137042 0
M  V30 4303 H 464.726 1.65697 -1.02619 0
M  V30 4304 H 463.822 3.08382 -0.480284 0
M  V30 4305 N 464.123 0.554532 1.47522 0
M  V30 4306 C 465.348 0.0322661 2.07375 0
M  V30 4307 C 465.773 -1.25079 1.40488 0
M  V30 4308 O 465.131 -1.74859 0.47896 0
M  V30 4309 C 465.179 -0.149397 3.6029 0
M  V30 4310 O 464.283 -1.21259 3.9417 0
M  V30 4311 H 463.624 0.0501228 0.662106 0
M  V30 4312 H 466.154 0.769452 1.8958 0
M  V30 4313 H 466.164 -0.364437 4.06369 0
M  V30 4314 H 464.839 0.787743 4.08372 0
M  V30 4315 H 463.416 -0.97825 3.5984 0
M  V30 4316 N 465.601 -1.54893 0.290851 0
M  V30 4317 C 466.831 -2.04047 -0.323818 0
M  V30 4318 C 467.239 -1.16809 -1.48837 0
M  V30 4319 O 466.582 -0.184145 -1.82775 0
M  V30 4320 C 466.644 -3.49248 -0.852395 0
M  V30 4321 C 466.308 -4.56623 0.185557 0
M  V30 4322 C 467.305 -5.09985 1.01053 0
M  V30 4323 C 464.99 -5.01252 0.324332 0
M  V30 4324 C 466.984 -6.06507 1.96031 0
M  V30 4325 C 464.671 -5.97596 1.27757 0
M  V30 4326 C 465.669 -6.50107 2.09405 0
M  V30 4327 O 465.357 -7.44565 3.03114 0
M  V30 4328 H 465.089 -0.671735 -0.0758129 0
M  V30 4329 H 467.643 -2.00947 0.425393 0
M  V30 4330 H 465.873 -3.49639 -1.65195 0
M  V30 4331 H 467.562 -3.81654 -1.38185 0
M  V30 4332 H 468.328 -4.76307 0.914129 0
M  V30 4333 H 464.207 -4.60015 -0.301213 0
M  V30 4334 H 467.751 -6.47418 2.598 0
M  V30 4335 H 463.648 -6.30691 1.37473 0
M  V30 4336 H 464.416 -7.62334 2.97976 0
M  V30 4337 N 467.08 -0.0183926 -1.57589 0
M  V30 4338 C 468.328 0.661253 -1.90976 0
M  V30 4339 C 468.649 1.73281 -0.894353 0
M  V30 4340 O 467.919 1.9579 0.0656788 0
M  V30 4341 H 466.499 0.247233 -0.704901 0
M  V30 4342 H 469.161 -0.0636639 -1.94796 0
M  V30 4343 H 468.257 1.12083 -2.9128 0
M  V30 4344 N 468.558 1.5553 0.254621 0
M  V30 4345 C 469.783 1.81383 1.00573 0
M  V30 4346 C 470.208 0.594419 1.78461 0
M  V30 4347 O 469.566 -0.456403 1.75461 0
M  V30 4348 C 469.614 3.04892 1.92545 0
M  V30 4349 O 468.718 2.81266 3.01601 0
M  V30 4350 H 468.059 0.598969 0.286587 0
M  V30 4351 H 470.589 2.02703 0.277952 0
M  V30 4352 H 470.599 3.34119 2.34155 0
M  V30 4353 H 469.274 3.93287 1.3527 0
M  V30 4354 H 467.851 2.63185 2.64174 0
M  V30 4355 N 470.036 -0.519951 1.48776 0
M  V30 4356 C 471.447 -1.10177 1.50725 0
M  V30 4357 C 471.798 -1.94153 0.282678 0
M  V30 4358 O 470.923 -2.07645 -0.609298 0
M  V30 4359 C 471.518 -2.00482 2.73116 0
M  V30 4360 C 470.077 -2.53862 2.77905 0
M  V30 4361 C 469.224 -1.31047 2.44381 0
M  V30 4362 H 472.175 -0.30473 1.55747 0
M  V30 4363 H 472.196 -2.8491 2.52203 0
M  V30 4364 H 471.708 -1.39335 3.62225 0
M  V30 4365 H 469.809 -3.18702 1.93029 0
M  V30 4366 H 469.922 -2.9231 3.79594 0
M  V30 4367 H 468.286 -1.62953 1.95751 0
M  V30 4368 H 469.069 -0.71637 3.35743 0
M  V30 4369 N 471.514 -1.37532 -0.769588 0
M  V30 4370 C 472.762 -1.32597 -1.5252 0
M  V30 4371 C 473.083 0.0884294 -1.94799 0
M  V30 4372 O 472.353 1.03289 -1.66458 0
M  V30 4373 H 470.933 -0.487846 -0.565699 0
M  V30 4374 H 473.595 -1.72044 -0.915806 0
M  V30 4375 H 472.691 -1.96643 -2.42359 0
M  V30 4376 N 472.992 0.995999 -1.22138 0
M  V30 4377 C 474.239 1.7351 -1.04406 0
M  V30 4378 C 474.567 1.89884 0.421244 0
M  V30 4379 O 473.822 1.43683 1.32867 0
M  V30 4380 C 474.121 3.14553 -1.6968 0
M  V30 4381 C 473.787 3.18102 -3.19565 0
M  V30 4382 C 472.449 3.18778 -3.60464 0
M  V30 4383 C 474.801 3.14636 -4.15516 0
M  V30 4384 C 472.129 3.13684 -4.95801 0
M  V30 4385 C 474.481 3.11084 -5.50826 0
M  V30 4386 C 473.145 3.10074 -5.91109 0
M  V30 4387 H 472.415 0.634916 -0.38205 0
M  V30 4388 H 475.062 1.1667 -1.51857 0
M  V30 4389 H 473.367 3.74682 -1.14546 0
M  V30 4390 H 475.064 3.70477 -1.53454 0
M  V30 4391 H 471.654 3.18324 -2.86998 0
M  V30 4392 H 475.838 3.13266 -3.84939 0
M  V30 4393 H 471.094 3.11245 -5.26247 0
M  V30 4394 H 475.268 3.07357 -6.24904 0
M  V30 4395 H 472.895 3.05882 -6.95946 0
M  V30 4396 N 474.47 1.03057 1.19235 0
M  V30 4397 C 475.881 0.757449 1.70645 0
M  V30 4398 C 476.232 -0.722735 1.82403 0
M  V30 4399 O 475.357 -1.56325 1.49638 0
M  V30 4400 C 475.952 1.36833 3.09939 0
M  V30 4401 C 474.511 1.14375 3.58602 0
M  V30 4402 C 473.658 1.46533 2.35422 0
M  V30 4403 H 476.609 1.19828 1.04052 0
M  V30 4404 H 476.63 0.766184 3.72706 0
M  V30 4405 H 476.142 2.44562 3.01349 0
M  V30 4406 H 474.243 0.0847542 3.72504 0
M  V30 4407 H 474.356 1.83366 4.42622 0
M  V30 4408 H 472.72 0.884712 2.38841 0
M  V30 4409 H 473.503 2.55349 2.2946 0
M  V30 4410 N 475.948 -1.35272 0.808662 0
M  V30 4411 C 477.196 -1.98316 0.389233 0
M  V30 4412 C 477.517 -1.64465 -1.04767 0
M  V30 4413 O 476.787 -0.928175 -1.72516 0
M  V30 4414 H 475.367 -0.733585 0.140935 0
M  V30 4415 H 478.029 -1.6515 1.03496 0
M  V30 4416 H 477.125 -3.08123 0.496631 0
M  V30 4417 N 477.426 -0.562348 -1.47226 0
M  V30 4418 C 478.356 0.170627 -2.32876 0
M  V30 4419 C 479.337 0.903748 -1.44106 0
M  V30 4420 O 480.522 0.883206 -1.72954 0
M  V30 4421 C 477.652 1.19786 -3.25989 0
M  V30 4422 C 476.606 0.580875 -4.2404 0
M  V30 4423 C 475.932 1.71311 -5.06514 0
M  V30 4424 C 477.232 -0.468714 -5.20193 0
M  V30 4425 H 478.926 -0.544441 -2.94408 0
M  V30 4426 H 476.472 -0.263271 -1.41573 0
M  V30 4427 H 478.425 1.71884 -3.84752 0
M  V30 4428 H 477.149 1.94294 -2.62521 0
M  V30 4429 H 475.808 0.0811538 -3.6651 0
M  V30 4430 H 475.456 2.44736 -4.39447 0
M  V30 4431 H 475.156 1.30604 -5.72902 0
M  V30 4432 H 476.68 2.23725 -5.68137 0
M  V30 4433 H 478.094 -0.0336028 -5.7329 0
M  V30 4434 H 476.491 -0.794957 -5.94811 0
M  V30 4435 H 477.561 -1.36269 -4.65359 0
M  V30 4436 N 478.904 1.54736 -0.299062 0
M  V30 4437 C 479.851 2.23448 0.577899 0
M  V30 4438 C 480.821 1.21637 1.13109 0
M  V30 4439 O 482.006 1.50252 1.17597 0
M  V30 4440 C 479.146 2.9774 1.74484 0
M  V30 4441 C 478.259 4.1432 1.22323 0
M  V30 4442 C 477.394 4.76199 2.35388 0
M  V30 4443 C 476.433 5.84927 1.80351 0
M  V30 4444 N 475.57 6.4077 2.86982 0
M  V30 4445 H 480.41 2.97996 -0.0146545 0
M  V30 4446 H 477.947 1.47088 -0.0190013 0
M  V30 4447 H 479.905 3.39045 2.43114 0
M  V30 4448 H 478.535 2.25572 2.30905 0
M  V30 4449 H 477.587 3.7797 0.429249 0
M  V30 4450 H 478.899 4.92659 0.780309 0
M  V30 4451 H 478.053 5.20346 3.11969 0
M  V30 4452 H 476.792 3.97188 2.83006 0
M  V30 4453 H 475.797 5.40207 1.02259 0
M  V30 4454 H 477.022 6.65821 1.3364 0
M  V30 4455 H 474.968 5.64643 3.33938 0
M  V30 4456 H 474.885 7.1445 2.4718 0
M  V30 4457 H 476.153 6.89574 3.63466 0
M  V30 4458 N 480.382 0.0267497 1.57577 0
M  V30 4459 C 481.63 -0.651116 1.91324 0
M  V30 4460 C 481.951 -1.72804 0.90353 0
M  V30 4461 O 481.221 -1.95822 -0.0552946 0
M  V30 4462 H 479.801 -0.243491 0.706202 0
M  V30 4463 H 482.463 0.0739935 1.94759 0
M  V30 4464 H 481.559 -1.10536 2.9187 0
M  V30 4465 N 481.861 -1.55662 -0.24637 0
M  V30 4466 C 482.771 -1.93495 -1.32653 0
M  V30 4467 C 483.787 -0.835462 -1.5263 0
M  V30 4468 O 484.963 -1.1369 -1.66242 0
M  V30 4469 C 482.028 -2.22242 -2.66101 0
M  V30 4470 C 481.089 -3.45625 -2.54641 0
M  V30 4471 C 480.322 -3.72991 -3.81724 0
M  V30 4472 O 480.545 -3.02421 -4.8363 0
M  V30 4473 O 479.479 -4.66515 -3.80325 0
M  V30 4474 H 483.305 -2.85498 -1.03559 0
M  V30 4475 H 480.89 -1.42551 -0.44717 0
M  V30 4476 H 482.772 -2.42037 -3.44958 0
M  V30 4477 H 481.447 -1.33417 -2.94926 0
M  V30 4478 H 480.354 -3.31136 -1.74067 0
M  V30 4479 H 481.687 -4.34754 -2.3076 0
M  V30 4480 N 483.339 0.512053 -1.4905 0
M  V30 4481 C 484.269 1.62365 -1.67809 0
M  V30 4482 C 485.25 1.61737 -0.526809 0
M  V30 4483 O 486.435 1.78651 -0.761404 0
M  V30 4484 C 483.565 3.00895 -1.73435 0
M  V30 4485 C 482.519 3.16387 -2.88242 0
M  V30 4486 C 481.845 4.56157 -2.78971 0
M  V30 4487 C 483.145 2.97457 -4.29321 0
M  V30 4488 H 484.839 1.46921 -2.60873 0
M  V30 4489 H 482.385 0.705379 -1.2554 0
M  V30 4490 H 484.338 3.78549 -1.85145 0
M  V30 4491 H 483.062 3.17403 -0.769619 0
M  V30 4492 H 481.721 2.41155 -2.76116 0
M  V30 4493 H 481.369 4.69525 -1.8043 0
M  V30 4494 H 481.069 4.67465 -3.5602 0
M  V30 4495 H 482.593 5.35886 -2.92675 0
M  V30 4496 H 484.007 3.64888 -4.42187 0
M  V30 4497 H 482.404 3.20245 -5.07507 0
M  V30 4498 H 483.474 1.93692 -4.44535 0
M  V30 4499 N 484.817 1.37938 0.762283 0
M  V30 4500 C 486.065 1.33404 1.51815 0
M  V30 4501 C 486.386 -0.0780975 1.94844 0
M  V30 4502 O 485.656 -1.02405 1.67003 0
M  V30 4503 H 484.236 0.490839 0.563104 0
M  V30 4504 H 486.898 1.72527 0.906669 0
M  V30 4505 H 485.994 1.97926 2.41313 0
M  V30 4506 N 486.295 -0.989507 1.22664 0
M  V30 4507 C 487.225 -2.09847 1.02404 0
M  V30 4508 C 488.206 -1.70007 -0.0561303 0
M  V30 4509 O 489.391 -1.93906 0.106748 0
M  V30 4510 C 486.521 -3.41996 0.604663 0
M  V30 4511 C 485.475 -3.95699 1.63115 0
M  V30 4512 C 484.801 -5.23936 1.0675 0
M  V30 4513 C 486.101 -4.25999 3.02196 0
M  V30 4514 H 487.795 -2.27054 1.95158 0
M  V30 4515 H 485.341 -1.09111 0.939727 0
M  V30 4516 H 487.294 -4.1899 0.45002 0
M  V30 4517 H 486.018 -3.24626 -0.35855 0
M  V30 4518 H 484.677 -3.2084 1.77362 0
M  V30 4519 H 484.325 -5.02909 0.0955422 0
M  V30 4520 H 484.025 -5.60833 1.75328 0
M  V30 4521 H 485.549 -6.0356 0.924516 0
M  V30 4522 H 486.963 -4.93777 2.91303 0
M  V30 4523 H 485.36 -4.74076 3.67929 0
M  V30 4524 H 486.43 -3.33636 3.51873 0
M  V30 4525 N 487.773 -1.03688 -1.18687 0
M  V30 4526 C 489.019 -0.739123 -1.88851 0
M  V30 4527 C 489.352 0.731042 -1.79915 0
M  V30 4528 O 488.627 1.53313 -1.19688 0
M  V30 4529 C 488.91 -1.20106 -3.3948 0
M  V30 4530 C 488.763 -2.73304 -3.57246 0
M  V30 4531 C 490.082 -0.788134 -4.32986 0
M  V30 4532 H 487.201 -0.269978 -0.68577 0
M  V30 4533 H 489.843 -1.28822 -1.3966 0
M  V30 4534 H 487.993 -0.733915 -3.81505 0
M  V30 4535 H 489.665 -3.28027 -3.24339 0
M  V30 4536 H 487.908 -3.13313 -3.00029 0
M  V30 4537 H 488.579 -3.00684 -4.62918 0
M  V30 4538 H 491.055 -1.19005 -3.98719 0
M  V30 4539 H 489.931 -1.13915 -5.36949 0
M  V30 4540 H 490.192 0.308988 -4.41019 0
M  V30 4541 N 489.251 1.34841 -0.815825 0
M  V30 4542 C 490.499 1.98107 -0.399744 0
M  V30 4543 C 490.82 1.65019 1.03894 0
M  V30 4544 O 490.09 0.937311 1.72021 0
M  V30 4545 H 488.67 0.732827 -0.144823 0
M  V30 4546 H 491.332 1.64599 -1.0437 0
M  V30 4547 H 490.428 3.07856 -0.512965 0
M  V30 4548 N 490.729 0.570148 1.46925 0
M  V30 4549 C 492.006 -0.0153259 1.95594 0
M  V30 4550 C 492.386 -1.47232 1.51281 0
M  V30 4551 O 491.734 -2.15574 0.757624 0
M  V30 4552 C 491.944 0.143624 3.48704 0
M  V30 4553 C 493.292 0.00494484 4.246 0
M  V30 4554 O 494.316 0.0718214 3.56128 0
M  V30 4555 O 493.175 -0.141175 5.46318 0
M  V30 4556 H 490.269 -0.0568819 0.825041 0
M  V30 4557 H 492.815 0.637583 1.57267 0
M  V30 4558 H 491.587 1.15699 3.73804 0
M  V30 4559 H 491.21 -0.5463 3.93829 0
M  V30 4560 N 492.207 -1.54576 0.307264 0
M  V30 4561 C 493.618 -1.8579 -0.184121 0
M  V30 4562 C 493.969 -1.22914 -1.52927 0
M  V30 4563 O 493.094 -0.529126 -2.09831 0
M  V30 4564 C 493.689 -3.37081 -0.340862 0
M  V30 4565 C 492.248 -3.68304 -0.776465 0
M  V30 4566 C 491.395 -2.77076 0.111503 0
M  V30 4567 H 494.346 -1.49656 0.528078 0
M  V30 4568 H 494.367 -3.61922 -1.17443 0
M  V30 4569 H 493.879 -3.82815 0.638309 0
M  V30 4570 H 491.98 -3.28092 -1.76596 0
M  V30 4571 H 492.093 -4.75434 -0.591512 0
M  V30 4572 H 490.457 -2.51374 -0.410256 0
M  V30 4573 H 491.24 -3.25632 1.08714 0
M  V30 4574 N 493.685 -0.035106 -1.57561 0
M  V30 4575 C 494.933 0.64096 -1.91667 0
M  V30 4576 C 495.254 1.72323 -0.912681 0
M  V30 4577 O 494.524 1.95849 0.0449089 0
M  V30 4578 H 493.104 0.239743 -0.707483 0
M  V30 4579 H 495.766 -0.084321 -1.94718 0
M  V30 4580 H 494.862 1.08987 -2.92452 0
M  V30 4581 N 495.163 1.55791 0.238111 0
M  V30 4582 C 496.093 1.94068 1.29846 0
M  V30 4583 C 497.074 0.806726 1.49753 0
M  V30 4584 O 498.259 1.06772 1.62214 0
M  V30 4585 C 495.389 2.24302 2.65153 0
M  V30 4586 C 494.343 3.40032 2.59927 0
M  V30 4587 C 493.669 3.55829 3.99111 0
M  V30 4588 C 494.969 4.75476 2.16148 0
M  V30 4589 H 496.663 2.82887 0.980563 0
M  V30 4590 H 494.209 1.36105 0.470253 0
M  V30 4591 H 496.162 2.4967 3.39475 0
M  V30 4592 H 494.886 1.32318 2.98596 0
M  V30 4593 H 493.545 3.14687 1.88063 0
M  V30 4594 H 493.193 2.6125 4.29834 0
M  V30 4595 H 492.893 4.3366 3.96501 0
M  V30 4596 H 494.417 3.83528 4.7512 0
M  V30 4597 H 495.831 5.00158 2.80205 0
M  V30 4598 H 494.228 5.56472 2.24631 0
M  V30 4599 H 495.298 4.71946 1.11333 0
M  V30 4600 N 496.642 -0.504142 1.49319 0
M  V30 4601 C 497.889 -1.25846 1.58647 0
M  V30 4602 C 498.217 -1.92592 0.27177 0
M  V30 4603 O 497.472 -1.81167 -0.74007 0
M  V30 4604 C 497.771 -2.35021 2.69258 0
M  V30 4605 C 497.437 -1.85755 4.1086 0
M  V30 4606 C 496.099 -1.72038 4.49395 0
M  V30 4607 C 498.451 -1.48844 4.99495 0
M  V30 4608 C 495.779 -1.19783 5.74342 0
M  V30 4609 C 498.131 -0.980422 6.24956 0
M  V30 4610 C 496.795 -0.829622 6.62324 0
M  V30 4611 H 496.065 -0.460505 0.580531 0
M  V30 4612 H 498.712 -0.559716 1.83138 0
M  V30 4613 H 497.017 -3.10672 2.38726 0
M  V30 4614 H 498.714 -2.93083 2.73685 0
M  V30 4615 H 495.304 -1.9739 3.80441 0
M  V30 4616 H 499.488 -1.5829 4.70381 0
M  V30 4617 H 494.744 -1.06817 6.01997 0
M  V30 4618 H 498.918 -0.685608 6.93017 0
M  V30 4619 H 496.545 -0.42253 7.59025 0
M  V30 4620 N 498.12 -1.38341 -0.754957 0
M  V30 4621 C 499.368 -1.34208 -1.51105 0
M  V30 4622 C 499.689 0.0677634 -1.94882 0
M  V30 4623 O 498.959 1.01517 -1.67544 0
M  V30 4624 H 497.539 -0.493819 -0.560493 0
M  V30 4625 H 500.201 -1.73005 -0.897507 0
M  V30 4626 H 499.297 -1.99203 -2.4026 0
M  V30 4627 N 499.598 0.982988 -1.23187 0
M  V30 4628 C 500.528 2.09301 -1.03515 0
M  V30 4629 C 501.509 1.70035 0.0471136 0
M  V30 4630 O 502.694 1.93847 -0.117029 0
M  V30 4631 C 499.824 3.4167 -0.622791 0
M  V30 4632 C 498.778 3.94828 -1.65211 0
M  V30 4633 C 498.104 5.23362 -1.09527 0
M  V30 4634 C 499.404 4.2439 -3.04451 0
M  V30 4635 H 501.098 2.26016 -1.96359 0
M  V30 4636 H 498.644 1.08611 -0.945501 0
M  V30 4637 H 500.597 4.18746 -0.472233 0
M  V30 4638 H 499.321 3.24811 0.341329 0
M  V30 4639 H 497.98 3.19895 -1.79061 0
M  V30 4640 H 497.628 5.02852 -0.122211 0
M  V30 4641 H 497.328 5.59895 -1.783 0
M  V30 4642 H 498.852 6.03062 -0.956511 0
M  V30 4643 H 500.266 4.92225 -2.93917 0
M  V30 4644 H 498.663 4.72118 -3.70438 0
M  V30 4645 H 499.733 3.31765 -3.53638 0
M  V30 4646 N 501.076 1.04316 1.18135 0
M  V30 4647 C 502.325 0.74319 1.87509 0
M  V30 4648 C 502.638 -0.732136 1.81381 0
M  V30 4649 O 503.844 -1.14572 2.46141 0
M  V30 4650 C 502.3 1.27913 3.36402 0
M  V30 4651 C 501.908 2.78326 3.51053 0
M  V30 4652 C 503.652 1.0558 4.11161 0
M  V30 4653 C 501.559 3.25266 4.93919 0
M  V30 4654 H 500.489 0.274313 0.702331 0
M  V30 4655 H 503.14 1.25931 1.33467 0
M  V30 4656 H 501.522 0.690853 3.89927 0
M  V30 4657 H 502.696 3.42933 3.07788 0
M  V30 4658 H 501.011 2.991 2.89704 0
M  V30 4659 H 503.608 1.38161 5.16542 0
M  V30 4660 H 503.951 -0.00684729 4.16299 0
M  V30 4661 H 504.484 1.60882 3.63816 0
M  V30 4662 H 501.223 4.30922 4.9395 0
M  V30 4663 H 500.743 2.65396 5.3789 0
M  V30 4664 H 502.422 3.19433 5.62647 0
M  V30 4665 N 502.554 -1.34406 0.822964 0
M  V30 4666 C 503.802 -1.97892 0.410245 0
M  V30 4667 C 504.123 -1.65567 -1.03017 0
M  V30 4668 O 503.393 -0.94642 -1.71522 0
M  V30 4669 H 501.973 -0.732049 0.148707 0
M  V30 4670 H 504.635 -1.64043 1.05242 0
M  V30 4671 H 503.731 -3.07579 0.529284 0
M  V30 4672 N 504.032 -0.577932 -1.46621 0
M  V30 4673 C 505.443 -0.150071 -1.86096 0
M  V30 4674 C 505.794 1.28563 -1.48209 0
M  V30 4675 O 504.919 1.97036 -0.894754 0
M  V30 4676 C 505.514 -0.265576 -3.37758 0
M  V30 4677 C 504.073 0.10738 -3.76247 0
M  V30 4678 C 503.22 -0.603711 -2.70649 0
M  V30 4679 H 506.171 -0.786438 -1.37844 0
M  V30 4680 H 506.192 0.510352 -3.77062 0
M  V30 4681 H 505.704 -1.3106 -3.65301 0
M  V30 4682 H 503.805 1.15272 -3.54321 0
M  V30 4683 H 503.918 -0.26561 -4.78363 0
M  V30 4684 H 502.282 -0.0444884 -2.54661 0
M  V30 4685 H 503.065 -1.65029 -3.01032 0
M  V30 4686 N 505.51 1.54411 -0.315457 0
M  V30 4687 C 506.457 2.24048 0.554166 0
M  V30 4688 C 507.427 1.2283 1.11812 0
M  V30 4689 O 508.612 1.51491 1.15997 0
M  V30 4690 C 505.752 2.99574 1.71316 0
M  V30 4691 C 504.865 4.15594 1.17922 0
M  V30 4692 C 504 4.78669 2.30324 0
M  V30 4693 C 503.039 5.86807 1.74137 0
M  V30 4694 N 502.176 6.43777 2.8017 0
M  V30 4695 H 507.016 2.97964 -0.0462602 0
M  V30 4696 H 504.553 1.47059 -0.0346009 0
M  V30 4697 H 506.511 3.41604 2.39505 0
M  V30 4698 H 505.141 2.28008 2.285 0
M  V30 4699 H 504.193 3.78404 0.389136 0
M  V30 4700 H 505.505 4.93459 0.728012 0
M  V30 4701 H 504.659 5.23626 3.06433 0
M  V30 4702 H 503.398 4.00168 2.78778 0
M  V30 4703 H 502.403 5.41261 0.965236 0
M  V30 4704 H 503.628 6.67201 1.2657 0
M  V30 4705 H 501.574 5.68153 3.2793 0
M  V30 4706 H 501.491 7.17031 2.39588 0
M  V30 4707 H 502.759 6.9339 3.56132 0
M  V30 4708 N 506.988 0.0434614 1.5754 0
M  V30 4709 C 508.236 -0.630786 1.92004 0
M  V30 4710 C 508.557 -1.71836 0.921807 0
M  V30 4711 O 507.827 -1.9587 -0.034522 0
M  V30 4712 H 506.407 -0.235988 0.708745 0
M  V30 4713 H 509.069 0.0946462 1.9467 0
M  V30 4714 H 508.165 -1.07434 2.93026 0
M  V30 4715 N 508.466 -1.55915 -0.229846 0
M  V30 4716 C 509.743 -1.6932 -0.979295 0
M  V30 4717 C 510.123 -0.588321 -2.02736 0
M  V30 4718 O 509.471 0.40586 -2.24867 0
M  V30 4719 C 509.681 -3.10305 -1.59724 0
M  V30 4720 C 511.029 -3.6945 -2.09264 0
M  V30 4721 O 512.053 -3.13214 -1.69633 0
M  V30 4722 O 510.912 -4.68072 -2.82082 0
M  V30 4723 H 508.006 -0.689314 -0.456919 0
M  V30 4724 H 510.552 -1.68238 -0.222283 0
M  V30 4725 H 509.324 -3.82177 -0.840039 0
M  V30 4726 H 508.947 -3.1547 -2.42001 0
M  V30 4727 N 509.944 0.496216 -1.49584 0
M  V30 4728 C 511.355 1.07765 -1.52459 0
M  V30 4729 C 511.706 1.93679 -0.31353 0
M  V30 4730 O 510.831 2.08588 0.576186 0
M  V30 4731 C 511.426 1.96111 -2.76271 0
M  V30 4732 C 509.985 2.49409 -2.81908 0
M  V30 4733 C 509.132 1.27142 -2.46435 0
M  V30 4734 H 512.083 0.279914 -1.56212 0
M  V30 4735 H 512.104 2.80862 -2.56704 0
M  V30 4736 H 511.616 1.33555 -3.64396 0
M  V30 4737 H 509.717 3.1559 -1.98074 0
M  V30 4738 H 509.83 2.86234 -3.84196 0
M  V30 4739 H 508.194 1.59818 -1.98319 0
M  V30 4740 H 508.977 0.662866 -3.3684 0
M  V30 4741 N 511.423 1.38739 0.74761 0
M  V30 4742 C 512.671 1.35007 1.50391 0
M  V30 4743 C 512.992 -0.0574274 1.94915 0
M  V30 4744 O 512.262 -1.00628 1.6808 0
M  V30 4745 H 510.842 0.496784 0.557866 0
M  V30 4746 H 513.504 1.73479 0.888319 0
M  V30 4747 H 512.6 2.00474 2.392 0
M  V30 4748 N 512.901 -0.976442 1.23707 0
M  V30 4749 C 513.849 -2.09078 1.01927 0
M  V30 4750 C 514.843 -1.69345 -0.0430193 0
M  V30 4751 O 516.049 -1.79659 0.110814 0
M  V30 4752 H 512.424 -0.68398 0.312531 0
M  V30 4753 H 514.395 -2.24614 1.96447 0
M  V30 4754 C 513.144 -3.41919 0.631385 0
M  V30 4755 H 512.467 -3.72946 1.44053 0
M  V30 4756 H 513.907 -4.20817 0.518532 0
M  V30 4757 C 512.366 -3.30357 -0.660723 0
M  V30 4758 O 512.896 -3.63542 -1.70881 0
M  V30 4759 N 511.102 -2.83507 -0.638139 0
M  V30 4760 H 510.649 -2.567 0.215108 0
M  V30 4761 H 510.607 -2.76153 -1.50289 0
M  V30 4762 N 514.379 -1.04941 -1.1758 0
M  V30 4763 C 515.795 -0.770282 -1.39781 0
M  V30 4764 C 515.995 0.636417 -1.91186 0
M  V30 4765 O 515.051 1.39923 -2.10185 0
M  V30 4766 C 516.364 -1.82376 -2.3908 0
M  V30 4767 C 517.912 -1.84569 -2.52791 0
M  V30 4768 C 518.387 -2.88933 -3.55361 0
M  V30 4769 N 519.878 -2.8788 -3.62877 0
M  V30 4770 C 520.613 -3.65282 -4.41992 0
M  V30 4771 N 520.109 -4.52461 -5.24643 0
M  V30 4772 N 521.902 -3.53732 -4.36841 0
M  V30 4773 H 514.053 -1.95705 -0.825438 0
M  V30 4774 H 516.316 -0.847284 -0.425222 0
M  V30 4775 H 516.022 -2.83323 -2.08376 0
M  V30 4776 H 515.896 -1.66327 -3.38549 0
M  V30 4777 H 518.283 -0.842879 -2.82807 0
M  V30 4778 H 518.364 -2.04696 -1.53406 0
M  V30 4779 H 518.008 -3.89398 -3.26085 0
M  V30 4780 H 517.938 -2.66059 -4.54445 0
M  V30 4781 H 520.429 -2.24666 -3.03864 0
M  V30 4782 H 520.742 -5.08211 -5.82187 0
M  V30 4783 H 519.087 -4.56524 -5.24033 0
M  V30 4784 H 522.278 -2.85021 -3.71323 0
M  V30 4785 H 522.451 -4.14302 -4.98255 0
M  V30 4786 N 515.857 1.33968 -0.830081 0
M  V30 4787 C 517.105 1.97672 -0.420734 0
M  V30 4788 C 517.426 1.66111 1.02138 0
M  V30 4789 O 516.696 0.955503 1.71017 0
M  V30 4790 H 515.276 0.73125 -0.152587 0
M  V30 4791 H 517.938 1.63483 -1.0611 0
M  V30 4792 H 517.034 3.07294 -0.545588 0
M  V30 4793 N 517.335 0.585699 1.46312 0
M  V30 4794 C 518.285 -0.166813 2.27389 0
M  V30 4795 C 519.269 -0.859076 1.36047 0
M  V30 4796 O 520.461 -0.752678 1.60199 0
M  V30 4797 C 517.59 -1.17791 3.2246 0
M  V30 4798 C 516.676 -0.487605 4.21288 0
M  V30 4799 N 517.067 0.45849 5.03718 0
M  V30 4800 C 515.365 -0.737971 4.39852 0
M  V30 4801 C 516.066 0.862213 5.75275 0
M  V30 4802 N 515.042 0.210707 5.43191 0
M  V30 4803 H 518.844 0.560167 2.88512 0
M  V30 4804 H 516.358 0.407715 1.57199 0
M  V30 4805 H 518.355 -1.73122 3.79255 0
M  V30 4806 H 517.015 -1.90568 2.62896 0
M  V30 4807 H 518.026 0.834163 5.11138 0
M  V30 4808 H 514.703 -1.45209 3.91434 0
M  V30 4809 H 516.093 1.64128 6.51546 0
M  V30 4810 N 518.813 -1.54241 0.323641 0
M  V30 4811 C 520.224 -1.85975 -0.164405 0
M  V30 4812 C 520.575 -1.24529 -1.51615 0
M  V30 4813 O 519.7 -0.551351 -2.09258 0
M  V30 4814 C 520.295 -3.37424 -0.305091 0
M  V30 4815 C 518.854 -3.69107 -0.737358 0
M  V30 4816 C 518.001 -2.76942 0.140884 0
M  V30 4817 H 520.952 -1.49088 0.543922 0
M  V30 4818 H 520.973 -3.63147 -1.13598 0
M  V30 4819 H 520.485 -3.82116 0.678876 0
M  V30 4820 H 518.586 -3.29947 -1.73107 0
M  V30 4821 H 518.699 -4.76035 -0.541053 0
M  V30 4822 H 517.063 -2.51795 -0.383572 0
M  V30 4823 H 517.846 -3.24461 1.12162 0
M  V30 4824 N 520.291 -0.0518155 -1.57515 0
M  V30 4825 C 521.539 0.620595 -1.92336 0
M  V30 4826 C 521.86 1.71345 -0.930907 0
M  V30 4827 O 521.13 1.95885 0.0241341 0
M  V30 4828 H 519.71 0.232226 -0.709986 0
M  V30 4829 H 522.372 -0.104969 -1.94617 0
M  V30 4830 H 521.468 1.05879 -2.93592 0
M  V30 4831 N 521.769 1.56035 0.221574 0
M  V30 4832 C 523.18 1.69229 0.788567 0
M  V30 4833 C 523.531 0.653814 1.84986 0
M  V30 4834 O 522.656 -0.195065 2.15519 0
M  V30 4835 C 523.251 3.06809 1.43713 0
M  V30 4836 C 521.81 3.21858 1.95152 0
M  V30 4837 C 520.957 2.65155 0.811685 0
M  V30 4838 H 523.908 1.587 -0.00307894 0
M  V30 4839 H 523.929 3.02666 2.30594 0
M  V30 4840 H 523.441 3.82369 0.664475 0
M  V30 4841 H 521.542 2.51167 2.7522 0
M  V30 4842 H 521.655 4.29073 2.1315 0
M  V30 4843 H 520.019 2.23635 1.21899 0
M  V30 4844 H 520.802 3.43261 0.0516987 0
M  V30 4845 N 523.247 -0.488276 1.49845 0
M  V30 4846 C 524.658 -1.06955 1.53028 0
M  V30 4847 C 525.009 -1.9351 0.323797 0
M  V30 4848 O 524.134 -2.08891 -0.565116 0
M  V30 4849 C 524.729 -1.94643 2.77307 0
M  V30 4850 C 523.288 -2.4791 2.83227 0
M  V30 4851 C 522.435 -1.25833 2.47106 0
M  V30 4852 H 525.386 -0.271626 1.56358 0
M  V30 4853 H 525.407 -2.79496 2.5819 0
M  V30 4854 H 524.919 -1.31621 3.65099 0
M  V30 4855 H 523.02 -3.14535 1.99745 0
M  V30 4856 H 523.133 -2.84193 3.85709 0
M  V30 4857 H 521.497 -1.58764 1.99163 0
M  V30 4858 H 522.28 -0.644993 3.37186 0
M  V30 4859 N 524.725 -1.39134 -0.740242 0
M  V30 4860 C 525.973 -1.35803 -1.49673 0
M  V30 4861 C 526.294 0.0470897 -1.94943 0
M  V30 4862 O 525.564 0.997347 -1.68611 0
M  V30 4863 H 524.144 -0.499736 -0.555224 0
M  V30 4864 H 526.806 -1.73947 -0.879107 0
M  V30 4865 H 525.902 -2.0174 -2.38133 0
M  V30 4866 N 526.204 0.969867 -1.24223 0
M  V30 4867 C 527.45 1.7151 -1.08223 0
M  V30 4868 C 527.783 1.90478 0.37838 0
M  V30 4869 O 527.058 1.4647 1.27971 0
M  V30 4870 C 527.341 3.10714 -1.82013 0
M  V30 4871 C 527.194 2.9925 -3.35811 0
M  V30 4872 C 528.513 4.10332 -1.59108 0
M  V30 4873 H 525.632 0.622499 -0.394543 0
M  V30 4874 H 528.274 1.1284 -1.52863 0
M  V30 4875 H 526.424 3.608 -1.44068 0
M  V30 4876 H 528.096 2.56608 -3.83341 0
M  V30 4877 H 526.339 2.35512 -3.64303 0
M  V30 4878 H 527.01 3.97857 -3.82641 0
M  V30 4879 H 529.486 3.69097 -1.92111 0
M  V30 4880 H 528.362 5.05804 -2.13198 0
M  V30 4881 H 528.623 4.38926 -0.528832 0
M  V30 4882 N 527.682 1.05563 1.17022 0
M  V30 4883 C 528.612 0.681026 2.23348 0
M  V30 4884 C 529.593 -0.322983 1.67005 0
M  V30 4885 O 530.778 -0.199746 1.9317 0
M  V30 4886 C 527.908 0.0589053 3.4725 0
M  V30 4887 C 526.862 0.988082 4.16438 0
M  V30 4888 C 526.188 0.229646 5.34207 0
M  V30 4889 C 527.488 2.31388 4.68249 0
M  V30 4890 H 529.182 1.56993 2.54938 0
M  V30 4891 H 526.728 0.756302 1.2254 0
M  V30 4892 H 528.681 -0.214982 4.20851 0
M  V30 4893 H 527.405 -0.864968 3.14938 0
M  V30 4894 H 526.064 1.24659 3.44754 0
M  V30 4895 H 525.712 -0.697111 4.98146 0
M  V30 4896 H 525.412 0.848815 5.81437 0
M  V30 4897 H 526.936 -0.0368694 6.10589 0
M  V30 4898 H 528.35 2.09964 5.33468 0
M  V30 4899 H 526.747 2.88736 5.26072 0
M  V30 4900 H 527.817 2.94982 3.84855 0
M  V30 4901 N 529.16 -1.33526 0.837174 0
M  V30 4902 C 530.406 -1.9813 0.432704 0
M  V30 4903 C 530.739 -1.66168 -1.00508 0
M  V30 4904 O 530.014 -0.94069 -1.70239 0
M  V30 4905 C 530.297 -3.54151 0.651834 0
M  V30 4906 C 530.15 -3.95806 2.13676 0
M  V30 4907 C 531.469 -4.39993 0.0968937 0
M  V30 4908 H 528.588 -0.719713 0.15869 0
M  V30 4909 H 531.23 -1.58193 1.05237 0
M  V30 4910 H 529.38 -3.88301 0.124369 0
M  V30 4911 H 531.052 -3.71921 2.72896 0
M  V30 4912 H 529.295 -3.45599 2.62191 0
M  V30 4913 H 529.966 -5.0447 2.24084 0
M  V30 4914 H 532.442 -4.12479 0.547733 0
M  V30 4915 H 531.318 -5.48186 0.279917 0
M  V30 4916 H 531.579 -4.3066 -0.9992 0
M  V30 4917 N 530.638 -0.59345 -1.46 0
M  V30 4918 C 531.866 -0.0890934 -2.06708 0
M  V30 4919 C 532.281 1.2205 -1.44046 0
M  V30 4920 O 531.638 1.74029 -0.549551 0
M  V30 4921 C 531.689 0.0720263 -3.61428 0
M  V30 4922 O 531.41 -1.18574 -4.21748 0
M  V30 4923 C 532.911 0.609487 -4.3909 0
M  V30 4924 H 530.131 -0.0623628 -0.668096 0
M  V30 4925 H 532.675 -0.817171 -1.87464 0
M  V30 4926 H 530.83 0.750369 -3.80063 0
M  V30 4927 H 531.244 -1.0064 -5.14754 0
M  V30 4928 H 532.718 0.671363 -5.47902 0
M  V30 4929 H 533.195 1.62878 -4.07882 0
M  V30 4930 H 533.801 -0.03434 -4.25286 0
M  V30 4931 N 532.116 1.54067 -0.331816 0
M  V30 4932 C 533.527 1.86059 0.15454 0
M  V30 4933 C 533.878 1.25331 1.50952 0
M  V30 4934 O 533.003 0.562441 2.08963 0
M  V30 4935 C 533.598 3.37581 0.287192 0
M  V30 4936 C 532.157 3.69493 0.717773 0
M  V30 4937 C 531.304 2.76863 -0.155569 0
M  V30 4938 H 534.255 1.48797 -0.55182 0
M  V30 4939 H 534.276 3.63744 1.11671 0
M  V30 4940 H 533.788 3.81751 -0.699131 0
M  V30 4941 H 531.889 3.3086 1.71354 0
M  V30 4942 H 532.002 4.76315 0.5158 0
M  V30 4943 H 530.366 2.51995 0.370213 0
M  V30 4944 H 531.149 3.23861 -1.13881 0
M  V30 4945 N 533.594 0.0601682 1.57485 0
M  V30 4946 C 535.005 -0.474217 1.80577 0
M  V30 4947 C 535.356 -1.70365 0.973147 0
M  V30 4948 O 534.481 -2.15544 0.192306 0
M  V30 4949 C 535.076 -0.867102 3.27516 0
M  V30 4950 C 533.635 -1.34642 3.51495 0
M  V30 4951 C 532.782 -0.32594 2.75378 0
M  V30 4952 H 535.733 0.285973 1.56102 0
M  V30 4953 H 535.754 -1.72938 3.38929 0
M  V30 4954 H 535.266 0.0278927 3.8809 0
M  V30 4955 H 533.367 -2.2603 2.96212 0
M  V30 4956 H 533.48 -1.33237 4.60201 0
M  V30 4957 H 531.844 -0.800749 2.41785 0
M  V30 4958 H 532.627 0.561125 3.38683 0
M  V30 4959 N 535.072 -1.5615 -0.213296 0
M  V30 4960 C 536.002 -1.96109 -1.26742 0
M  V30 4961 C 536.983 -0.830448 -1.48451 0
M  V30 4962 O 538.168 -1.09339 -1.60495 0
M  V30 4963 C 535.298 -2.28492 -2.61551 0
M  V30 4964 C 534.252 -3.44124 -2.54485 0
M  V30 4965 C 533.578 -3.62134 -3.93399 0
M  V30 4966 C 534.878 -4.78855 -2.08556 0
M  V30 4967 H 536.572 -2.84412 -0.935434 0
M  V30 4968 H 534.118 -1.36836 -0.44854 0
M  V30 4969 H 536.071 -2.55039 -3.3546 0
M  V30 4970 H 534.795 -1.37052 -2.96453 0
M  V30 4971 H 533.454 -3.17639 -1.83033 0
M  V30 4972 H 533.102 -2.68055 -4.25623 0
M  V30 4973 H 532.802 -4.39913 -3.89551 0
M  V30 4974 H 534.326 -3.91038 -4.68958 0
M  V30 4975 H 535.74 -5.04552 -2.72213 0
M  V30 4976 H 534.137 -5.59975 -2.1575 0
M  V30 4977 H 535.207 -4.73657 -1.03811 0
M  V30 4978 N 536.55 0.480323 -1.50102 0
M  V30 4979 C 537.961 1.06142 -1.53593 0
M  V30 4980 C 538.312 1.93335 -0.334055 0
M  V30 4981 O 537.437 2.09188 0.55403 0
M  V30 4982 C 538.032 1.9317 -2.78336 0
M  V30 4983 C 536.591 2.46405 -2.84538 0
M  V30 4984 C 535.738 1.24521 -2.4777 0
M  V30 4985 H 538.689 0.26333 -1.565 0
M  V30 4986 H 538.71 2.78123 -2.59669 0
M  V30 4987 H 538.222 1.29683 -3.65792 0
M  V30 4988 H 536.323 3.13472 -2.01411 0
M  V30 4989 H 536.436 2.82143 -3.87211 0
M  V30 4990 H 534.8 1.57706 -2.00003 0
M  V30 4991 H 535.583 0.627102 -3.37524 0
M  V30 4992 N 538.028 1.39524 0.732853 0
M  V30 4993 C 538.958 1.41153 1.86005 0
M  V30 4994 C 539.939 0.274614 1.67869 0
M  V30 4995 O 541.124 0.480745 1.88155 0
M  V30 4996 C 538.254 1.25638 3.23778 0
M  V30 4997 C 537.208 2.36752 3.56556 0
M  V30 4998 C 536.534 2.06326 4.93289 0
M  V30 4999 C 537.834 3.79069 3.5931 0
M  V30 5000 H 539.528 2.35484 1.84899 0
M  V30 5001 H 537.074 1.13348 0.888162 0
M  V30 5002 H 539.027 1.25398 4.0231 0
M  V30 5003 H 537.751 0.277772 3.25417 0
M  V30 5004 H 536.41 2.36213 2.80355 0
M  V30 5005 H 536.058 1.06897 4.9151 0
M  V30 5006 H 535.758 2.80757 5.16187 0
M  V30 5007 H 537.282 2.07739 5.74175 0
M  V30 5008 H 538.696 3.81526 4.27914 0
M  V30 5009 H 537.093 4.52878 3.93728 0
M  V30 5010 H 538.163 4.09893 2.59068 0
M  V30 5011 N 539.506 -0.963266 1.24736 0
M  V30 5012 C 540.453 -2.05857 1.04363 0
M  V30 5013 C 541.423 -1.6604 -0.0444951 0
M  V30 5014 O 542.608 -1.90477 0.110999 0
M  V30 5015 C 539.748 -3.38745 0.659235 0
M  V30 5016 C 538.861 -3.9173 1.82131 0
M  V30 5017 C 537.996 -5.12906 1.38208 0
M  V30 5018 C 537.035 -5.58098 2.51382 0
M  V30 5019 N 536.172 -6.7049 2.08295 0
M  V30 5020 H 541.012 -2.22616 1.98107 0
M  V30 5021 H 538.549 -1.09103 0.986661 0
M  V30 5022 H 540.507 -4.15107 0.417371 0
M  V30 5023 H 539.137 -3.21898 -0.241201 0
M  V30 5024 H 538.189 -3.11966 2.17672 0
M  V30 5025 H 539.501 -4.21225 2.67153 0
M  V30 5026 H 538.655 -5.96657 1.09935 0
M  V30 5027 H 537.394 -4.85105 0.502456 0
M  V30 5028 H 536.399 -4.72917 2.80409 0
M  V30 5029 H 537.624 -5.87911 3.39909 0
M  V30 5030 H 535.57 -6.44416 1.22737 0
M  V30 5031 H 535.487 -6.99458 2.86869 0
M  V30 5032 H 536.755 -7.57672 1.83175 0
M  V30 5033 N 540.985 -1.06182 -1.16461 0
M  V30 5034 C 542.233 -0.776326 -1.86595 0
M  V30 5035 C 542.554 0.69921 -1.82033 0
M  V30 5036 O 541.824 1.50579 -1.2531 0
M  V30 5037 H 540.404 -0.284184 -0.690832 0
M  V30 5038 H 543.066 -1.34308 -1.41235 0
M  V30 5039 H 542.162 -1.10022 -2.92064 0
M  V30 5040 N 542.463 1.3308 -0.844243 0
M  V30 5041 C 543.874 1.7992 -0.498566 0
M  V30 5042 C 544.225 1.69808 0.982834 0
M  V30 5043 O 543.35 1.25051 1.7661 0
M  V30 5044 C 543.945 3.26677 -0.898204 0
M  V30 5045 C 542.504 3.71513 -0.604583 0
M  V30 5046 C 541.651 2.54393 -1.10362 0
M  V30 5047 H 544.602 1.20526 -1.03244 0
M  V30 5048 H 544.623 3.79918 -0.21039 0
M  V30 5049 H 544.135 3.34004 -1.97643 0
M  V30 5050 H 542.236 3.69708 0.46335 0
M  V30 5051 H 542.349 4.64755 -1.16358 0
M  V30 5052 H 540.713 2.49246 -0.524273 0
M  V30 5053 H 541.496 2.6448 -2.18873 0
M  V30 5054 N 543.941 0.601185 1.45683 0
M  V30 5055 C 545.352 0.179659 1.85834 0
M  V30 5056 C 545.703 -1.26189 1.50236 0
M  V30 5057 O 544.828 -1.95587 0.925987 0
M  V30 5058 C 545.423 0.319277 3.37292 0
M  V30 5059 C 543.982 -0.0475092 3.7637 0
M  V30 5060 C 543.129 0.646692 2.69654 0
M  V30 5061 H 546.08 0.808268 1.36575 0
M  V30 5062 H 546.101 -0.4503 3.77826 0
M  V30 5063 H 545.613 1.36855 3.6317 0
M  V30 5064 H 543.714 -1.0962 3.5611 0
M  V30 5065 H 543.827 0.34168 4.7788 0
M  V30 5066 H 542.191 0.0849971 2.54558 0
M  V30 5067 H 542.974 1.69797 2.98369 0
M  V30 5068 N 545.419 -1.53889 0.339982 0
M  V30 5069 C 546.667 -2.00458 -0.257112 0
M  V30 5070 C 546.988 -1.22953 -1.51353 0
M  V30 5071 O 546.258 -0.335734 -1.93002 0
M  V30 5072 H 544.838 -0.740544 -0.0979965 0
M  V30 5073 H 547.5 -1.89386 0.460317 0
M  V30 5074 H 546.596 -3.08035 -0.502057 0
M  V30 5075 N 546.897 -0.0685191 -1.57451 0
M  V30 5076 C 548.174 0.642167 -1.84758 0
M  V30 5077 C 548.554 1.87991 -0.960344 0
M  V30 5078 O 547.902 2.28485 -0.0257894 0
M  V30 5079 C 548.112 0.982946 -3.34872 0
M  V30 5080 C 549.46 1.35784 -4.02303 0
M  V30 5081 O 550.484 1.07477 -3.39598 0
M  V30 5082 O 549.343 1.88681 -5.12895 0
M  V30 5083 H 546.437 0.318625 -0.763156 0
M  V30 5084 H 548.983 -0.0992015 -1.6941 0
M  V30 5085 H 547.755 0.10372 -3.91163 0
M  V30 5086 H 547.378 1.78119 -3.55471 0
M  V30 5087 N 548.375 1.56261 0.205012 0
M  V30 5088 C 549.786 1.70056 0.770574 0
M  V30 5089 C 550.137 0.673398 1.84282 0
M  V30 5090 O 549.262 -0.172196 2.15714 0
M  V30 5091 C 549.857 3.08316 1.40451 0
M  V30 5092 C 548.416 3.2391 1.91727 0
M  V30 5093 C 547.563 2.66001 0.783516 0
M  V30 5094 H 550.514 1.58688 -0.019911 0
M  V30 5095 H 550.535 3.05094 2.27371 0
M  V30 5096 H 550.047 3.83053 0.623882 0
M  V30 5097 H 548.148 2.54072 2.7254 0
M  V30 5098 H 548.261 4.3131 2.08588 0
M  V30 5099 H 546.625 2.24915 1.19521 0
M  V30 5100 H 547.408 3.43297 0.0152883 0
M  V30 5101 N 549.853 -0.472356 1.50355 0
M  V30 5102 C 551.101 -1.22211 1.60962 0
M  V30 5103 C 551.422 -1.92497 0.311439 0
M  V30 5104 O 550.692 -1.8405 -0.671002 0
M  V30 5105 H 549.272 -0.454092 0.593135 0
M  V30 5106 H 551.934 -0.544977 1.87126 0
M  V30 5107 H 551.03 -1.9707 2.42012 0
M  V30 5108 N 551.331 -1.39911 -0.725443 0
M  V30 5109 C 552.578 -1.37654 -1.48518 0
M  V30 5110 C 552.906 0.0243982 -1.94485 0
M  V30 5111 O 552.161 1.00708 -1.67799 0
M  V30 5112 C 552.46 -2.30368 -2.7325 0
M  V30 5113 C 552.126 -3.77817 -2.461 0
M  V30 5114 C 550.788 -4.17991 -2.38405 0
M  V30 5115 C 553.14 -4.71036 -2.23103 0
M  V30 5116 C 550.468 -5.49433 -2.05768 0
M  V30 5117 C 552.82 -6.02766 -1.9198 0
M  V30 5118 C 551.484 -6.41993 -1.82761 0
M  V30 5119 H 550.754 -0.503713 -0.543465 0
M  V30 5120 H 553.401 -1.7249 -0.831822 0
M  V30 5121 H 551.706 -1.88683 -3.43375 0
M  V30 5122 H 553.403 -2.2591 -3.31309 0
M  V30 5123 H 549.993 -3.45982 -2.52972 0
M  V30 5124 H 554.177 -4.40823 -2.2801 0
M  V30 5125 H 549.433 -5.78738 -1.9716 0
M  V30 5126 H 553.607 -6.74519 -1.73197 0
M  V30 5127 H 551.234 -7.43761 -1.57237 0
M  V30 5128 N 552.809 0.956637 -1.25245 0
M  V30 5129 C 554.22 1.51569 -1.09012 0
M  V30 5130 C 554.571 1.93322 0.334813 0
M  V30 5131 O 553.696 1.78421 1.22454 0
M  V30 5132 C 554.291 2.75444 -1.97271 0
M  V30 5133 C 552.85 3.27669 -1.8523 0
M  V30 5134 C 551.997 2.00517 -1.91542 0
M  V30 5135 H 554.948 0.773746 -1.3856 0
M  V30 5136 H 554.969 3.4919 -1.51151 0
M  V30 5137 H 554.481 2.45024 -3.00973 0
M  V30 5138 H 552.582 3.62914 -0.844045 0
M  V30 5139 H 552.695 3.9582 -2.69932 0
M  V30 5140 H 551.059 2.15727 -1.35404 0
M  V30 5141 H 551.842 1.72448 -2.96844 0
M  V30 5142 N 554.287 1.06798 1.15896 0
M  V30 5143 C 555.535 0.786211 1.8618 0
M  V30 5144 C 555.856 -0.689547 1.82401 0
M  V30 5145 O 555.126 -1.49913 1.26107 0
M  V30 5146 H 553.706 0.287843 0.689315 0
M  V30 5147 H 556.368 1.35055 1.40521 0
M  V30 5148 H 555.464 1.1157 2.91477 0
M  V30 5149 N 555.766 -1.3263 0.851289 0
M  V30 5150 C 557.182 -1.50162 0.5407 0
M  V30 5151 C 557.382 -1.78788 -0.929369 0
M  V30 5152 O 556.438 -1.85545 -1.71258 0
M  V30 5153 C 557.751 -2.64803 1.42478 0
M  V30 5154 C 559.299 -2.78688 1.42485 0
M  V30 5155 C 559.774 -3.96405 2.29407 0
M  V30 5156 N 561.265 -4.0366 2.27184 0
M  V30 5157 C 562 -4.93971 2.9117 0
M  V30 5158 N 561.496 -5.89313 3.64256 0
M  V30 5159 N 563.289 -4.87066 2.80576 0
M  V30 5160 H 555.44 -1.12315 1.80275 0
M  V30 5161 H 557.703 -0.553266 0.769806 0
M  V30 5162 H 557.409 -2.50368 2.46999 0
M  V30 5163 H 557.283 -3.60506 1.10974 0
M  V30 5164 H 559.67 -2.92547 0.387304 0
M  V30 5165 H 559.751 -1.83708 1.78002 0
M  V30 5166 H 559.395 -3.83304 3.33228 0
M  V30 5167 H 559.325 -4.90654 1.91224 0
M  V30 5168 H 561.816 -3.35435 1.74045 0
M  V30 5169 H 562.129 -6.54913 4.10255 0
M  V30 5170 H 560.474 -5.8935 3.68364 0
M  V30 5171 H 563.665 -4.11552 2.23031 0
M  V30 5172 H 563.838 -5.57248 3.30725 0
M  V30 5173 N 557.244 -0.608902 -1.45362 0
M  V30 5174 C 558.474 -0.110852 -2.06302 0
M  V30 5175 C 558.882 1.21062 -1.45398 0
M  V30 5176 O 558.225 1.74861 -0.562976 0
M  V30 5177 C 558.287 0.101793 -3.59356 0
M  V30 5178 C 557.951 -1.13808 -4.42602 0
M  V30 5179 C 558.948 -2.05653 -4.77496 0
M  V30 5180 C 556.633 -1.36727 -4.83333 0
M  V30 5181 C 558.627 -3.18745 -5.51978 0
M  V30 5182 C 556.314 -2.5012 -5.57569 0
M  V30 5183 C 557.312 -3.40957 -5.91809 0
M  V30 5184 O 557 -4.52376 -6.64538 0
M  V30 5185 H 556.732 -0.0666001 -0.672711 0
M  V30 5186 H 559.286 -0.836942 -1.87575 0
M  V30 5187 H 557.516 0.88279 -3.76489 0
M  V30 5188 H 559.205 0.551607 -4.02134 0
M  V30 5189 H 559.971 -1.89172 -4.46586 0
M  V30 5190 H 555.85 -0.669216 -4.56117 0
M  V30 5191 H 559.394 -3.8967 -5.78622 0
M  V30 5192 H 555.291 -2.66553 -5.87894 0
M  V30 5193 H 556.059 -4.51075 -6.82989 0
M  V30 5194 N 558.722 1.53707 -0.348139 0
M  V30 5195 C 559.97 2.00591 0.246478 0
M  V30 5196 C 560.291 1.23753 1.50699 0
M  V30 5197 O 559.561 0.345964 1.92821 0
M  V30 5198 H 558.141 0.741053 0.0940679 0
M  V30 5199 H 560.803 1.89139 -0.470354 0
M  V30 5200 H 559.899 3.08297 0.485714 0
M  V30 5201 N 560.2 0.0768682 1.57412 0
M  V30 5202 C 561.11 -0.903207 2.16516 0
M  V30 5203 C 562.126 -1.32341 1.12968 0
M  V30 5204 O 563.302 -1.39507 1.45258 0
M  V30 5205 C 560.367 -2.1508 2.71922 0
M  V30 5206 C 559.428 -1.78653 3.90361 0
M  V30 5207 C 558.661 -2.97465 4.43114 0
M  V30 5208 O 558.884 -4.11638 3.94854 0
M  V30 5209 O 557.818 -2.76987 5.3438 0
M  V30 5210 H 561.644 -0.430427 3.00634 0
M  V30 5211 H 559.229 -0.146485 1.4868 0
M  V30 5212 H 561.111 -2.8823 3.07411 0
M  V30 5213 H 559.786 -2.61446 1.9086 0
M  V30 5214 H 558.693 -1.0274 3.59716 0
M  V30 5215 H 560.026 -1.37066 4.7273 0
M  V30 5216 N 561.678 -1.56367 -0.196722 0
M  V30 5217 C 562.906 -1.84639 -0.933608 0
M  V30 5218 C 563.321 -0.659164 -1.76919 0
M  V30 5219 O 562.678 0.372142 -1.78665 0
M  V30 5220 C 562.729 -3.11694 -1.83109 0
M  V30 5221 O 562.45 -4.25838 -1.02924 0
M  V30 5222 C 563.951 -3.53132 -2.67979 0
M  V30 5223 H 561.171 -0.613188 -0.272473 0
M  V30 5224 H 563.715 -2.03475 -0.204465 0
M  V30 5225 H 561.87 -2.94759 -2.51387 0
M  V30 5226 H 562.284 -4.98178 -1.64069 0
M  V30 5227 H 563.758 -4.45005 -3.26611 0
M  V30 5228 H 564.235 -2.76045 -3.41608 0
M  V30 5229 H 564.841 -3.72592 -2.05074 0
M  V30 5230 N 563.156 0.464375 -1.50603 0
M  V30 5231 C 564.404 1.21356 -1.61608 0
M  V30 5232 C 564.725 1.92329 -0.321643 0
M  V30 5233 O 563.995 1.84403 0.661232 0
M  V30 5234 H 562.575 0.45094 -0.595535 0
M  V30 5235 H 565.237 0.535046 -1.87412 0
M  V30 5236 H 564.333 1.95783 -2.43054 0
M  V30 5237 N 564.634 1.40294 0.718013 0
M  V30 5238 C 565.911 1.2894 1.47084 0
M  V30 5239 C 566.291 -0.0933625 2.10893 0
M  V30 5240 O 565.639 -1.10598 1.99951 0
M  V30 5241 C 565.849 2.4264 2.50852 0
M  V30 5242 C 567.197 2.8276 3.16752 0
M  V30 5243 O 568.221 2.42215 2.61171 0
M  V30 5244 O 567.08 3.528 4.17366 0
M  V30 5245 H 564.174 0.506236 0.653952 0
M  V30 5246 H 566.72 1.52208 0.750394 0
M  V30 5247 H 565.492 3.35009 2.022 0
M  V30 5248 H 565.115 2.21129 3.30435 0
M  V30 5249 N 566.112 -0.949982 1.2575 0
M  V30 5250 C 567.358 -1.69766 1.10938 0
M  V30 5251 C 567.691 -1.91056 -0.348028 0
M  V30 5252 O 566.966 -1.48488 -1.25625 0
M  V30 5253 C 567.249 -3.07779 1.86933 0
M  V30 5254 C 567.102 -2.9387 3.4053 0
M  V30 5255 C 568.421 -4.07749 1.65616 0
M  V30 5256 H 565.54 -0.616144 0.404396 0
M  V30 5257 H 568.182 -1.10394 1.54639 0
M  V30 5258 H 566.332 -3.58462 1.4979 0
M  V30 5259 H 568.004 -2.50476 3.87375 0
M  V30 5260 H 566.247 -2.29686 3.68004 0
M  V30 5261 H 566.918 -3.91719 3.88922 0
M  V30 5262 H 569.394 -3.65994 1.97959 0
M  V30 5263 H 568.27 -5.02348 2.21218 0
M  V30 5264 H 568.531 -4.38029 0.598595 0
M  V30 5265 N 567.59 -1.07411 -1.15328 0
M  V30 5266 C 568.838 -0.796073 -1.85761 0
M  V30 5267 C 569.159 0.679864 -1.82764 0
M  V30 5268 O 568.429 1.49242 -1.269 0
M  V30 5269 H 567.009 -0.291495 -0.687779 0
M  V30 5270 H 569.671 -1.35799 -1.39802 0
M  V30 5271 H 568.767 -1.13114 -2.90881 0
M  V30 5272 N 569.068 1.32177 -0.85831 0
M  V30 5273 C 570.479 1.79381 -0.517621 0
M  V30 5274 C 570.83 1.70841 0.964769 0
M  V30 5275 O 569.955 1.26917 1.75274 0
M  V30 5276 C 570.55 3.25706 -0.932801 0
M  V30 5277 C 569.109 3.70851 -0.643953 0
M  V30 5278 C 568.256 2.53208 -1.13054 0
M  V30 5279 H 571.207 1.19424 -1.04516 0
M  V30 5280 H 571.228 3.79673 -0.250674 0
M  V30 5281 H 570.74 3.31889 -2.01174 0
M  V30 5282 H 568.841 3.70178 0.424112 0
M  V30 5283 H 568.954 4.63495 -1.21281 0
M  V30 5284 H 567.318 2.48676 -0.550679 0
M  V30 5285 H 568.101 2.62143 -2.21666 0
M  V30 5286 N 570.547 0.616602 1.45037 0
M  V30 5287 C 571.958 0.199359 1.85633 0
M  V30 5288 C 572.309 -1.24588 1.51566 0
M  V30 5289 O 571.434 -1.94594 0.94668 0
M  V30 5290 C 572.029 0.355033 3.36935 0
M  V30 5291 C 570.588 -0.00758748 3.76399 0
M  V30 5292 C 569.735 0.675256 2.68953 0
M  V30 5293 H 572.686 0.822708 1.3571 0
M  V30 5294 H 572.707 -0.410201 3.78282 0
M  V30 5295 H 572.219 1.40699 3.61698 0
M  V30 5296 H 570.32 -1.05837 3.57252 0
M  V30 5297 H 570.433 0.392346 4.77491 0
M  V30 5298 H 568.797 0.111992 2.54454 0
M  V30 5299 H 569.58 1.72952 2.96551 0
M  V30 5300 N 572.025 -1.5352 0.356285 0
M  V30 5301 C 573.273 -2.00719 -0.235837 0
M  V30 5302 C 573.594 -1.24551 -1.5004 0
M  V30 5303 O 572.864 -0.356185 -1.92635 0
M  V30 5304 H 571.444 -0.741542 -0.0901366 0
M  V30 5305 H 574.106 -1.88887 0.480378 0
M  V30 5306 H 573.202 -3.08551 -0.469357 0
M  V30 5307 N 573.503 -0.0852151 -1.57369 0
M  V30 5308 C 574.914 0.445428 -1.81309 0
M  V30 5309 C 575.265 1.68795 -1.00013 0
M  V30 5310 O 574.39 2.15211 -0.226573 0
M  V30 5311 C 574.985 0.814887 -3.28854 0
M  V30 5312 C 573.544 1.29032 -3.53592 0
M  V30 5313 C 572.691 0.282089 -2.75861 0
M  V30 5314 H 575.642 -0.310771 -1.55627 0
M  V30 5315 H 575.663 1.67524 -3.41637 0
M  V30 5316 H 575.175 -0.0896309 -3.87996 0
M  V30 5317 H 573.276 2.21289 -2.9977 0
M  V30 5318 H 573.389 1.25898 -4.62262 0
M  V30 5319 H 571.753 0.762182 -2.43029 0
M  V30 5320 H 572.536 -0.614936 -3.37748 0
M  V30 5321 N 574.981 1.5647 0.188427 0
M  V30 5322 C 576.392 1.70864 0.752494 0
M  V30 5323 C 576.743 0.692905 1.83557 0
M  V30 5324 O 575.868 -0.149307 2.15884 0
M  V30 5325 C 576.463 3.09789 1.37173 0
M  V30 5326 C 575.022 3.25925 1.88281 0
M  V30 5327 C 574.169 2.66817 0.755259 0
M  V30 5328 H 577.12 1.58657 -0.0367408 0
M  V30 5329 H 577.141 3.07489 2.24122 0
M  V30 5330 H 576.653 3.83693 0.583219 0
M  V30 5331 H 574.754 2.56948 2.6983 0
M  V30 5332 H 574.867 4.33498 2.04001 0
M  V30 5333 H 573.231 2.2617 1.17128 0
M  V30 5334 H 574.014 3.43294 -0.0211237 0
M  V30 5335 N 576.459 -0.456382 1.50847 0
M  V30 5336 C 577.707 -1.20497 1.62249 0
M  V30 5337 C 578.028 -1.92156 0.331839 0
M  V30 5338 O 577.298 -1.84751 -0.651443 0
M  V30 5339 H 575.878 -0.447775 0.597918 0
M  V30 5340 H 578.54 -0.525099 1.87693 0
M  V30 5341 H 577.636 -1.94492 2.44089 0
M  V30 5342 N 577.937 -1.40673 -0.710563 0
M  V30 5343 C 578.867 -1.44095 -1.83736 0
M  V30 5344 C 579.848 -0.301286 -1.67411 0
M  V30 5345 O 581.033 -0.510618 -1.87367 0
M  V30 5346 C 578.163 -1.30773 -3.21738 0
M  V30 5347 C 577.117 -2.42395 -3.52745 0
M  V30 5348 C 576.443 -2.14147 -4.89944 0
M  V30 5349 C 577.743 -3.84738 -3.53234 0
M  V30 5350 H 579.437 -2.38396 -1.81129 0
M  V30 5351 H 576.983 -1.14746 -0.870017 0
M  V30 5352 H 578.936 -1.31783 -4.00264 0
M  V30 5353 H 577.66 -0.329507 -3.24934 0
M  V30 5354 H 576.319 -2.40643 -2.76562 0
M  V30 5355 H 575.967 -1.14703 -4.89747 0
M  V30 5356 H 575.667 -2.88934 -5.11655 0
M  V30 5357 H 577.191 -2.16848 -5.70797 0
M  V30 5358 H 578.605 -3.88286 -4.2179 0
M  V30 5359 H 577.002 -4.59085 -3.86473 0
M  V30 5360 H 578.072 -4.13962 -2.52514 0
M  V30 5361 N 579.415 0.9433 -1.26252 0
M  V30 5362 C 580.345 2.05902 -1.10122 0
M  V30 5363 C 581.326 1.70099 -0.00700552 0
M  V30 5364 O 582.511 1.93377 -0.178641 0
M  V30 5365 C 579.641 3.39516 -0.731175 0
M  V30 5366 C 578.595 3.89372 -1.77688 0
M  V30 5367 C 577.921 5.19613 -1.26122 0
M  V30 5368 C 579.221 4.14489 -3.17799 0
M  V30 5369 H 580.915 2.19655 -2.03451 0
M  V30 5370 H 578.461 1.05548 -0.979576 0
M  V30 5371 H 580.414 4.17031 -0.605215 0
M  V30 5372 H 579.138 3.25733 0.23782 0
M  V30 5373 H 577.797 3.14036 -1.89148 0
M  V30 5374 H 577.445 5.02208 -0.282128 0
M  V30 5375 H 577.145 5.53939 -1.96023 0
M  V30 5376 H 578.669 5.99713 -1.14789 0
M  V30 5377 H 580.083 4.82625 -3.09428 0
M  V30 5378 H 578.48 4.60094 -3.85271 0
M  V30 5379 H 579.55 3.20347 -3.64014 0
M  V30 5380 N 580.893 1.08022 1.14757 0
M  V30 5381 C 582.141 0.805913 1.85336 0
M  V30 5382 C 582.462 -0.670162 1.83122 0
M  V30 5383 O 581.732 -1.48567 1.2769 0
M  V30 5384 H 580.312 0.295138 0.686223 0
M  V30 5385 H 582.974 1.36538 1.3908 0
M  V30 5386 H 582.07 1.14655 2.90277 0
M  V30 5387 N 582.371 -1.3172 0.865308 0
M  V30 5388 C 583.787 -1.4958 0.556596 0
M  V30 5389 C 583.987 -1.79763 -0.910353 0
M  V30 5390 O 583.043 -1.87351 -1.6928 0
M  V30 5391 C 584.356 -2.63277 1.45279 0
M  V30 5392 C 585.904 -2.77161 1.45433 0
M  V30 5393 C 586.379 -3.93949 2.33598 0
M  V30 5394 N 587.87 -4.01228 2.31453 0
M  V30 5395 C 588.605 -4.90855 2.96393 0
M  V30 5396 N 588.101 -5.85416 3.70486 0
M  V30 5397 N 589.894 -4.84063 2.85726 0
M  V30 5398 H 582.045 -1.10396 1.81456 0
M  V30 5399 H 584.308 -0.54507 0.775631 0
M  V30 5400 H 584.014 -2.47734 2.49641 0
M  V30 5401 H 583.888 -3.59309 1.14792 0
M  V30 5402 H 586.275 -2.9212 0.41831 0
M  V30 5403 H 586.356 -1.8181 1.79941 0
M  V30 5404 H 586 -3.79748 3.37274 0
M  V30 5405 H 585.93 -4.88598 1.96417 0
M  V30 5406 H 588.421 -3.3357 1.77593 0
M  V30 5407 H 588.734 -6.50525 4.17178 0
M  V30 5408 H 587.079 -5.85409 3.74594 0
M  V30 5409 H 590.27 -4.09163 2.27384 0
M  V30 5410 H 590.443 -5.53708 3.36617 0
M  V30 5411 N 583.85 -0.624285 -1.44708 0
M  V30 5412 C 585.26 -0.2092 -1.85524 0
M  V30 5413 C 585.611 1.23783 -1.52225 0
M  V30 5414 O 584.736 1.94089 -0.956986 0
M  V30 5415 C 585.332 -0.372897 -3.36742 0
M  V30 5416 C 583.891 -0.012374 -3.76398 0
M  V30 5417 C 583.038 -0.68951 -2.68591 0
M  V30 5418 H 585.989 -0.829894 -1.35272 0
M  V30 5419 H 586.01 0.390134 -3.78495 0
M  V30 5420 H 585.522 -1.42615 -3.60947 0
M  V30 5421 H 583.623 1.03941 -3.57809 0
M  V30 5422 H 583.736 -0.417663 -4.77276 0
M  V30 5423 H 582.1 -0.125484 -2.54391 0
M  V30 5424 H 582.883 -1.74522 -2.9563 0
M  V30 5425 N 585.328 1.53329 -0.364422 0
M  V30 5426 C 586.576 2.00842 0.225189 0
M  V30 5427 C 586.897 1.25345 1.49378 0
M  V30 5428 O 586.167 0.366396 1.92443 0
M  V30 5429 H 584.747 0.742009 0.0862027 0
M  V30 5430 H 587.409 1.8863 -0.490389 0
M  V30 5431 H 586.505 3.08795 0.452987 0
M  V30 5432 N 586.806 0.0935595 1.57322 0
M  V30 5433 C 587.716 -0.880192 2.17462 0
M  V30 5434 C 588.732 -1.31135 1.14366 0
M  V30 5435 O 589.908 -1.37958 1.46729 0
M  V30 5436 C 586.973 -2.12184 2.74188 0
M  V30 5437 C 586.034 -1.74503 3.92234 0
M  V30 5438 C 585.267 -2.92748 4.46245 0
M  V30 5439 O 585.49 -4.07427 3.99198 0
M  V30 5440 O 584.424 -2.71303 5.37288 0
M  V30 5441 H 588.25 -0.398516 3.01074 0
M  V30 5442 H 585.835 -0.130707 1.48827 0
M  V30 5443 H 587.717 -2.84953 3.10451 0
M  V30 5444 H 586.392 -2.59407 1.93623 0
M  V30 5445 H 585.299 -0.989186 3.60785 0
M  V30 5446 H 586.632 -1.32044 4.74157 0
M  V30 5447 N 588.284 -1.56567 -0.180126 0
M  V30 5448 C 589.247 -1.94852 -1.20686 0
M  V30 5449 C 590.247 -0.831212 -1.3765 0
M  V30 5450 O 591.437 -1.09841 -1.35206 0
M  V30 5451 C 588.569 -2.23565 -2.57355 0
M  V30 5452 H 589.762 -2.86722 -0.879225 0
M  V30 5453 H 587.315 -1.50489 -0.422237 0
M  V30 5454 H 588.05 -1.34381 -2.95148 0
M  V30 5455 H 587.835 -3.04999 -2.46411 0
M  V30 5456 H 589.325 -2.54137 -3.31367 0
M  V30 5457 N 589.762 0.448376 -1.51087 0
M  V30 5458 C 591.002 1.20832 -1.64861 0
M  V30 5459 C 591.366 1.88748 -0.351873 0
M  V30 5460 O 592.567 2.66307 -0.365265 0
M  V30 5461 C 590.838 2.20674 -2.81137 0
M  V30 5462 S 592.397 3.05303 -3.15176 0
M  V30 5463 H 589.215 0.40992 -0.580936 0
M  V30 5464 H 591.817 0.501624 -1.88955 0
M  V30 5465 H 590.521 1.69399 -3.73808 0
M  V30 5466 H 590.052 2.9594 -2.59198 0
M  V30 5467 H 592.067 4.22162 -2.60756 0
M  V30 5468 N 591.24 1.41047 0.703093 0
M  V30 5469 C 592.203 1.42036 1.79884 0
M  V30 5470 C 593.203 0.312153 1.57741 0
M  V30 5471 O 594.393 0.571672 1.64553 0
M  V30 5472 C 591.525 1.22437 3.18154 0
M  V30 5473 H 592.718 2.39572 1.80403 0
M  V30 5474 H 590.271 1.27079 0.909977 0
M  V30 5475 H 591.006 0.257112 3.23279 0
M  V30 5476 H 590.791 2.02723 3.35627 0
M  V30 5477 H 592.281 1.25946 3.98155 0
M  V30 5478 N 592.718 -0.936591 1.26751 0
M  V30 5479 C 593.966 -1.67998 1.12343 0
M  V30 5480 C 594.287 -1.92137 -0.332938 0
M  V30 5481 O 593.557 -1.52132 -1.23421 0
M  V30 5482 H 592.137 -0.622609 0.412756 0
M  V30 5483 H 594.799 -1.12509 1.59147 0
M  V30 5484 H 593.895 -2.65185 1.64571 0
M  V30 5485 N 594.196 -1.08629 -1.14182 0
M  V30 5486 C 595.129 -0.662329 -2.18377 0
M  V30 5487 C 596.107 0.327054 -1.59277 0
M  V30 5488 O 597.291 0.230376 -1.87087 0
M  V30 5489 C 594.418 0.0254765 -3.3869 0
M  V30 5490 C 593.464 -0.924414 -4.16361 0
M  V30 5491 S 594.297 -2.43226 -4.77076 0
M  V30 5492 C 595.453 -1.75663 -6.00744 0
M  V30 5493 H 595.686 -1.54501 -2.54001 0
M  V30 5494 H 593.219 -0.901484 -1.2535 0
M  V30 5495 H 595.177 0.416032 -4.08386 0
M  V30 5496 H 593.838 0.884689 -3.01384 0
M  V30 5497 H 593.031 -0.390099 -5.02488 0
M  V30 5498 H 592.633 -1.25598 -3.5228 0
M  V30 5499 H 594.925 -1.07589 -6.68903 0
M  V30 5500 H 595.868 -2.59673 -6.58768 0
M  V30 5501 H 596.276 -1.22903 -5.50958 0
M  V30 5502 N 595.674 1.31259 -0.872281 0
M  V30 5503 C 596.923 1.95893 -0.480493 0
M  V30 5504 C 597.236 1.697 0.972688 0
M  V30 5505 O 598.442 2.28214 1.47073 0
M  V30 5506 C 596.898 3.50705 -0.808342 0
M  V30 5507 C 596.506 3.85735 -2.27844 0
M  V30 5508 C 598.25 4.21719 -0.485136 0
M  V30 5509 C 596.157 5.33668 -2.54858 0
M  V30 5510 H 595.087 0.733182 -0.175955 0
M  V30 5511 H 597.738 1.49396 -1.0655 0
M  V30 5512 H 596.12 3.95706 -0.152558 0
M  V30 5513 H 597.294 3.51686 -2.97748 0
M  V30 5514 H 595.609 3.27792 -2.56791 0
M  V30 5515 H 598.206 5.30559 -0.664166 0
M  V30 5516 H 598.549 4.12316 0.574592 0
M  V30 5517 H 599.082 3.82359 -1.09756 0
M  V30 5518 H 595.821 5.48109 -3.59523 0
M  V30 5519 H 595.341 5.69061 -1.8955 0
M  V30 5520 H 597.02 6.00958 -2.39706 0
M  V30 5521 N 597.152 0.631951 1.44375 0
M  V30 5522 C 598.4 0.136497 2.01639 0
M  V30 5523 C 598.721 -1.24637 1.49969 0
M  V30 5524 O 597.991 -1.82827 0.70363 0
M  V30 5525 H 596.571 0.0474703 0.74549 0
M  V30 5526 H 599.233 0.818837 1.76865 0
M  V30 5527 H 598.329 0.104817 3.11924 0
M  V30 5528 N 598.631 -1.53133 0.372548 0
M  V30 5529 C 600.042 -1.86404 -0.105155 0
M  V30 5530 C 600.393 -1.29289 -1.47576 0
M  V30 5531 O 599.518 -0.617646 -2.07398 0
M  V30 5532 C 600.113 -3.38223 -0.197588 0
M  V30 5533 C 598.672 -3.71266 -0.619556 0
M  V30 5534 C 597.819 -2.76353 0.228919 0
M  V30 5535 H 600.77 -1.47282 0.591077 0
M  V30 5536 H 600.791 -3.66577 -1.01987 0
M  V30 5537 H 600.303 -3.79763 0.800099 0
M  V30 5538 H 598.404 -3.35287 -1.62522 0
M  V30 5539 H 598.517 -4.77515 -0.389332 0
M  V30 5540 H 596.881 -2.52888 -0.303271 0
M  V30 5541 H 597.664 -3.20728 1.22428 0
M  V30 5542 N 600.109 -0.101901 -1.5727 0
M  V30 5543 C 601.52 0.426173 -1.81771 0
M  V30 5544 C 601.871 1.67725 -1.01797 0
M  V30 5545 O 600.996 2.14958 -0.249386 0
M  V30 5546 C 601.591 0.779962 -3.297 0
M  V30 5547 C 600.15 1.25275 -3.54941 0
M  V30 5548 C 599.297 0.252814 -2.76145 0
M  V30 5549 H 602.248 -0.32726 -1.55289 0
M  V30 5550 H 602.269 1.63891 -3.43395 0
M  V30 5551 H 601.781 -0.130778 -3.8788 0
M  V30 5552 H 599.882 2.18097 -3.021 0
M  V30 5553 H 599.995 1.20988 -4.63572 0
M  V30 5554 H 598.359 0.736362 -2.43823 0
M  V30 5555 H 599.142 -0.650724 -3.37076 0
M  V30 5556 N 601.587 1.56661 0.17182 0
M  V30 5557 C 602.835 1.81606 0.886774 0
M  V30 5558 C 603.156 0.678818 1.82803 0
M  V30 5559 O 602.426 -0.301354 1.93568 0
M  V30 5560 H 601.006 0.669934 0.330451 0
M  V30 5561 H 603.668 1.94142 0.171757 0
M  V30 5562 H 602.764 2.75634 1.46398 0
M  V30 5563 N 603.065 -0.440357 1.51323 0
M  V30 5564 C 604.476 -1.02032 1.56353 0
M  V30 5565 C 604.827 -1.92382 0.385197 0
M  V30 5566 O 603.952 -2.10583 -0.498373 0
M  V30 5567 C 604.547 -1.85723 2.83359 0
M  V30 5568 C 603.106 -2.38774 2.90971 0
M  V30 5569 C 602.253 -1.17908 2.50984 0
M  V30 5570 H 605.204 -0.221744 1.57143 0
M  V30 5571 H 605.225 -2.71141 2.66951 0
M  V30 5572 H 604.737 -1.19939 3.69102 0
M  V30 5573 H 602.838 -3.08021 2.09651 0
M  V30 5574 H 602.951 -2.71778 3.94555 0
M  V30 5575 H 601.315 -1.52347 2.04114 0
M  V30 5576 H 602.098 -0.537393 3.39068 0
M  V30 5577 N 604.543 -1.41418 -0.695603 0
M  V30 5578 C 605.475 -1.39195 -1.82092 0
M  V30 5579 C 606.488 -0.294132 -1.60121 0
M  V30 5580 O 607.677 -0.555854 -1.69625 0
M  V30 5581 C 604.777 -1.14828 -3.18854 0
M  V30 5582 C 603.95 -2.36649 -3.67853 0
M  V30 5583 C 603.009 -2.08139 -4.83285 0
M  V30 5584 O 602.035 -2.81177 -4.94902 0
M  V30 5585 N 603.237 -1.07162 -5.70523 0
M  V30 5586 H 606.002 -2.36185 -1.84491 0
M  V30 5587 H 603.563 -1.3603 -0.877923 0
M  V30 5588 H 605.555 -0.937075 -3.93702 0
M  V30 5589 H 604.125 -0.264358 -3.1148 0
M  V30 5590 H 603.345 -2.73472 -2.83913 0
M  V30 5591 H 604.633 -3.17816 -3.97329 0
M  V30 5592 H 604.031 -0.467124 -5.63768 0
M  V30 5593 H 602.588 -0.920311 -6.4527 0
M  V30 5594 N 606.021 0.929856 -1.27246 0
M  V30 5595 C 607.269 1.674 -1.13233 0
M  V30 5596 C 607.59 1.92311 0.322744 0
M  V30 5597 O 606.86 1.52784 1.22612 0
M  V30 5598 H 605.44 0.620411 -0.416052 0
M  V30 5599 H 608.102 1.11663 -1.59741 0
M  V30 5600 H 607.198 2.64308 -1.65975 0
M  V30 5601 N 607.499 1.09233 1.13605 0
M  V30 5602 C 608.746 0.827159 1.84836 0
M  V30 5603 C 609.074 -0.647199 1.83416 0
M  V30 5604 O 608.329 -1.49228 1.26608 0
M  V30 5605 C 608.628 1.305 3.32723 0
M  V30 5606 C 608.294 2.78864 3.54325 0
M  V30 5607 C 606.956 3.19382 3.59928 0
M  V30 5608 C 609.308 3.74532 3.62457 0
M  V30 5609 C 606.636 4.54346 3.71196 0
M  V30 5610 C 608.988 5.09283 3.75252 0
M  V30 5611 C 607.652 5.49394 3.79108 0
M  V30 5612 H 606.922 0.302679 0.676363 0
M  V30 5613 H 609.569 1.36676 1.34134 0
M  V30 5614 H 607.874 0.68517 3.85762 0
M  V30 5615 H 609.571 1.07648 3.86281 0
M  V30 5616 H 606.161 2.46507 3.50617 0
M  V30 5617 H 610.345 3.44343 3.57409 0
M  V30 5618 H 605.601 4.84864 3.72447 0
M  V30 5619 H 609.775 5.83269 3.80487 0
M  V30 5620 H 607.402 6.5397 3.87591 0
M  V30 5621 N 608.977 -1.30795 0.87923 0
M  V30 5622 C 610.388 -1.78535 0.546093 0
M  V30 5623 C 610.739 -1.72354 -0.937467 0
M  V30 5624 O 609.864 -1.2969 -1.73233 0
M  V30 5625 C 610.459 -3.24181 0.9845 0
M  V30 5626 C 609.018 -3.69779 0.702871 0
M  V30 5627 C 608.165 -2.51377 1.17068 0
M  V30 5628 H 611.116 -1.17746 1.06403 0
M  V30 5629 H 611.137 -3.79227 0.311045 0
M  V30 5630 H 610.649 -3.28647 2.06429 0
M  V30 5631 H 608.75 -3.70806 -0.365166 0
M  V30 5632 H 608.863 -4.61507 1.28639 0
M  V30 5633 H 607.227 -2.47768 0.590172 0
M  V30 5634 H 608.01 -2.58584 2.25808 0
M  V30 5635 N 610.455 -0.639598 -1.44038 0
M  V30 5636 C 611.703 -0.147188 -2.01563 0
M  V30 5637 C 612.024 1.2384 -1.50628 0
M  V30 5638 O 611.294 1.82452 -0.713316 0
M  V30 5639 H 609.874 -0.0514231 -0.745228 0
M  V30 5640 H 612.536 -0.828205 -1.76428 0
M  V30 5641 H 611.632 -0.121358 -3.11864 0
M  V30 5642 N 611.933 1.52934 -0.380664 0
M  V30 5643 C 612.863 2.29118 0.450268 0
M  V30 5644 C 613.844 1.32153 1.07096 0
M  V30 5645 O 615.029 1.61038 1.08537 0
M  V30 5646 C 612.159 3.09161 1.58231 0
M  V30 5647 C 611.113 4.13938 1.0881 0
M  V30 5648 C 610.439 4.82153 2.31155 0
M  V30 5649 C 611.739 5.22048 0.162146 0
M  V30 5650 H 613.433 2.98826 -0.185361 0
M  V30 5651 H 610.979 1.43715 -0.0905886 0
M  V30 5652 H 612.932 3.61211 2.17036 0
M  V30 5653 H 611.656 2.3717 2.2454 0
M  V30 5654 H 610.315 3.62855 0.522633 0
M  V30 5655 H 609.963 4.06719 2.95953 0
M  V30 5656 H 609.663 5.52966 1.98752 0
M  V30 5657 H 611.187 5.37004 2.90618 0
M  V30 5658 H 612.601 5.6951 0.658126 0
M  V30 5659 H 610.998 6.00057 -0.0717122 0
M  V30 5660 H 612.068 4.78398 -0.791438 0
M  V30 5661 N 613.412 0.11024 1.57214 0
M  V30 5662 C 614.823 -0.416527 1.81994 0
M  V30 5663 C 615.174 -1.67183 1.02686 0
M  V30 5664 O 614.299 -2.14823 0.260782 0
M  V30 5665 C 614.894 -0.762466 3.30109 0
M  V30 5666 C 613.453 -1.23391 3.556 0
M  V30 5667 C 612.6 -0.238166 2.76275 0
M  V30 5668 H 615.551 0.335491 1.55113 0
M  V30 5669 H 615.572 -1.62068 3.44259 0
M  V30 5670 H 615.084 0.151346 3.87805 0
M  V30 5671 H 613.185 -2.16492 3.03253 0
M  V30 5672 H 613.298 -1.18528 4.64207 0
M  V30 5673 H 611.662 -0.723421 2.4421 0
M  V30 5674 H 612.445 0.668591 3.36727 0
M  V30 5675 N 614.89 -1.56749 -0.16351 0
M  V30 5676 C 616.138 -1.82074 -0.87713 0
M  V30 5677 C 616.459 -0.688503 -1.82441 0
M  V30 5678 O 615.729 0.291085 -1.93725 0
M  V30 5679 H 614.309 -0.671677 -0.326893 0
M  V30 5680 H 616.971 -1.9423 -0.161459 0
M  V30 5681 H 616.067 -2.76407 -1.44934 0
M  V30 5682 N 616.368 0.432326 -1.51554 0
M  V30 5683 C 617.298 1.53242 -1.76179 0
M  V30 5684 C 618.279 1.58717 -0.611801 0
M  V30 5685 O 619.464 1.74364 -0.855033 0
M  V30 5686 C 616.594 2.91278 -1.89141 0
M  V30 5687 C 615.548 3.00663 -3.04608 0
M  V30 5688 C 614.874 4.40728 -3.02759 0
M  V30 5689 C 616.174 2.74281 -4.44485 0
M  V30 5690 H 617.868 1.32886 -2.68294 0
M  V30 5691 H 615.414 0.637841 -1.29103 0
M  V30 5692 H 617.367 3.68203 -2.04951 0
M  V30 5693 H 616.091 3.12877 -0.936785 0
M  V30 5694 H 614.75 2.26179 -2.88511 0
M  V30 5695 H 614.398 4.59301 -2.05065 0
M  V30 5696 H 614.098 4.47936 -3.80299 0
M  V30 5697 H 615.622 5.19619 -3.20669 0
M  V30 5698 H 617.036 3.40936 -4.60907 0
M  V30 5699 H 615.433 2.92893 -5.23769 0
M  V30 5700 H 616.503 1.69856 -4.54177 0
M  V30 5701 N 617.846 1.41785 0.688094 0
M  V30 5702 C 619.257 1.3701 1.26828 0
M  V30 5703 C 619.608 0.056835 1.96118 0
M  V30 5704 O 618.733 -0.84475 1.99231 0
M  V30 5705 C 619.328 2.48168 2.30648 0
M  V30 5706 C 617.887 2.46766 2.84224 0
M  V30 5707 C 617.034 2.27633 1.58361 0
M  V30 5708 H 619.985 1.51192 0.482351 0
M  V30 5709 H 620.006 2.17655 3.121 0
M  V30 5710 H 619.518 3.43735 1.80188 0
M  V30 5711 H 617.619 1.54978 3.3884 0
M  V30 5712 H 617.732 3.43342 3.34145 0
M  V30 5713 H 616.096 1.75648 1.84445 0
M  V30 5714 H 616.879 3.25238 1.09887 0
M  V30 5715 N 619.324 -0.923095 1.27737 0
M  V30 5716 C 620.572 -1.66797 1.14119 0
M  V30 5717 C 620.893 -1.92479 -0.312541 0
M  V30 5718 O 620.163 -1.53432 -1.218 0
M  V30 5719 H 618.743 -0.618196 0.419336 0
M  V30 5720 H 621.405 -1.10815 1.60331 0
M  V30 5721 H 620.501 -2.63424 1.67374 0
M  V30 5722 N 620.802 -1.09834 -1.13024 0
M  V30 5723 C 621.712 -0.753731 -2.22162 0
M  V30 5724 C 622.728 0.246105 -1.72251 0
M  V30 5725 O 623.904 0.0864051 -2.01215 0
M  V30 5726 C 620.969 -0.183958 -3.46212 0
M  V30 5727 C 620.03 -1.24028 -4.10993 0
M  V30 5728 C 619.263 -0.697597 -5.29121 0
M  V30 5729 O 619.486 0.478092 -5.68393 0
M  V30 5730 O 618.42 -1.4546 -5.84059 0
M  V30 5731 H 622.246 -1.66456 -2.5402 0
M  V30 5732 H 619.831 -0.873026 -1.21238 0
M  V30 5733 H 621.713 0.130257 -4.21199 0
M  V30 5734 H 620.388 0.699823 -3.16045 0
M  V30 5735 H 619.295 -1.60725 -3.37814 0
M  V30 5736 H 620.628 -2.09685 -4.45301 0
M  V30 5737 N 622.28 1.30327 -0.886154 0
M  V30 5738 C 623.243 2.26376 -0.358687 0
M  V30 5739 C 624.243 1.52845 0.499498 0
M  V30 5740 O 625.433 1.71483 0.306485 0
M  V30 5741 C 622.565 3.37379 0.488726 0
M  V30 5742 H 623.758 2.74547 -1.20681 0
M  V30 5743 H 621.311 1.41536 -0.663113 0
M  V30 5744 H 622.046 2.94526 1.35739 0
M  V30 5745 H 621.831 3.91897 -0.126003 0
M  V30 5746 H 623.321 4.08868 0.84952 0
M  V30 5747 N 623.758 0.647228 1.43697 0
M  V30 5748 C 625.006 0.157876 2.01482 0
M  V30 5749 C 625.327 -1.23039 1.51282 0
M  V30 5750 O 624.597 -1.82071 0.722982 0
M  V30 5751 H 623.177 0.0553745 0.744945 0
M  V30 5752 H 625.839 0.83755 1.75986 0
M  V30 5753 H 624.935 0.137895 3.11795 0
M  V30 5754 N 625.236 -1.5273 0.388769 0
M  V30 5755 C 626.485 -2.00757 -0.194833 0
M  V30 5756 C 626.798 -1.27951 -1.47946 0
M  V30 5757 O 628.004 -1.66686 -2.14308 0
M  V30 5758 C 626.46 -3.57695 -0.397762 0
M  V30 5759 C 626.068 -4.394 0.873583 0
M  V30 5760 C 627.812 -4.14012 -0.937759 0
M  V30 5761 C 625.719 -5.87938 0.638962 0
M  V30 5762 H 624.649 -0.750101 -0.0765845 0
M  V30 5763 H 627.3 -1.76239 0.511086 0
M  V30 5764 H 625.682 -3.7846 -1.16552 0
M  V30 5765 H 626.856 -4.30403 1.64591 0
M  V30 5766 H 625.171 -3.94301 1.33849 0
M  V30 5767 H 627.768 -5.22645 -1.12899 0
M  V30 5768 H 628.111 -3.7007 -1.90666 0
M  V30 5769 H 628.644 -3.97137 -0.229588 0
M  V30 5770 H 625.383 -6.36202 1.57885 0
M  V30 5771 H 624.903 -5.99726 -0.094443 0
M  V30 5772 H 626.582 -6.46423 0.273299 0
M  V30 5773 N 626.714 -0.118576 -1.57153 0
M  V30 5774 C 628.125 0.40687 -1.82213 0
M  V30 5775 C 628.476 1.66636 -1.03571 0
M  V30 5776 O 627.601 2.14682 -0.272171 0
M  V30 5777 C 628.196 0.744949 -3.30509 0
M  V30 5778 C 626.755 1.21503 -3.5625 0
M  V30 5779 C 625.902 0.223511 -2.76398 0
M  V30 5780 H 628.853 -0.343712 -1.54933 0
M  V30 5781 H 628.874 1.6024 -3.45114 0
M  V30 5782 H 628.386 -0.171911 -3.87719 0
M  V30 5783 H 626.487 2.1488 -3.04396 0
M  V30 5784 H 626.6 1.16065 -4.64829 0
M  V30 5785 H 624.964 0.71046 -2.44591 0
M  V30 5786 H 625.747 -0.686439 -3.36367 0
M  V30 5787 N 628.193 1.56834 0.155195 0
M  V30 5788 C 629.441 1.82536 0.867462 0
M  V30 5789 C 629.762 0.698168 1.82073 0
M  V30 5790 O 629.032 -0.280807 1.93877 0
M  V30 5791 H 627.612 0.673401 0.323327 0
M  V30 5792 H 630.274 1.94313 0.151156 0
M  V30 5793 H 629.37 2.77171 1.43466 0
M  V30 5794 N 629.671 -0.424282 1.51781 0
M  V30 5795 C 631.087 -0.761768 1.40247 0
M  V30 5796 C 631.287 -1.95324 0.495041 0
M  V30 5797 O 630.343 -2.5246 -0.0448949 0
M  V30 5798 C 631.656 -1.0299 2.82513 0
M  V30 5799 C 633.204 -1.13354 2.91753 0
M  V30 5800 C 633.679 -1.43453 4.34954 0
M  V30 5801 N 635.17 -1.5035 4.3812 0
M  V30 5802 C 635.905 -1.75236 5.45967 0
M  V30 5803 N 635.401 -1.97827 6.63955 0
M  V30 5804 N 637.194 -1.77126 5.33463 0
M  V30 5805 H 629.345 0.360228 2.09323 0
M  V30 5806 H 631.608 0.0988128 0.942836 0
M  V30 5807 H 631.314 -0.226961 3.50967 0
M  V30 5808 H 631.188 -1.95411 3.22637 0
M  V30 5809 H 633.575 -1.92709 2.23489 0
M  V30 5810 H 633.656 -0.188041 2.55108 0
M  V30 5811 H 633.3 -0.646209 5.03772 0
M  V30 5812 H 633.23 -2.3923 4.69123 0
M  V30 5813 H 635.721 -1.34742 3.53062 0
M  V30 5814 H 636.034 -2.16223 7.41935 0
M  V30 5815 H 634.379 -1.95123 6.67047 0
M  V30 5816 H 637.57 -1.59005 4.40267 0
M  V30 5817 H 637.743 -1.96182 6.17589 0
M  V30 5818 N 631.149 -1.42148 -0.680565 0
M  V30 5819 C 632.56 -1.3768 -1.26099 0
M  V30 5820 C 632.911 -0.0672348 -1.96085 0
M  V30 5821 O 632.036 0.834172 -1.99676 0
M  V30 5822 C 632.631 -2.49387 -2.29328 0
M  V30 5823 C 631.19 -2.4827 -2.82911 0
M  V30 5824 C 630.337 -2.2847 -1.57152 0
M  V30 5825 H 633.288 -1.51446 -0.474326 0
M  V30 5826 H 633.309 -2.19307 -3.10941 0
M  V30 5827 H 632.821 -3.44686 -1.78363 0
M  V30 5828 H 630.922 -1.56773 -3.38013 0
M  V30 5829 H 631.035 -3.45109 -3.3232 0
M  V30 5830 H 629.399 -1.76623 -1.83511 0
M  V30 5831 H 630.182 -3.25816 -1.0816 0
M  V30 5832 N 632.627 0.916307 -1.28225 0
M  V30 5833 C 633.904 1.64429 -1.05936 0
M  V30 5834 C 634.284 2.07234 0.402139 0
M  V30 5835 O 633.632 1.81535 1.3877 0
M  V30 5836 C 633.842 2.83773 -2.03159 0
M  V30 5837 C 635.19 3.54852 -2.33164 0
M  V30 5838 O 636.214 2.93918 -2.01223 0
M  V30 5839 O 635.073 4.64663 -2.87664 0
M  V30 5840 H 632.167 0.721221 -0.404683 0
M  V30 5841 H 634.713 0.965838 -1.39534 0
M  V30 5842 H 633.485 2.49217 -3.01673 0
M  V30 5843 H 633.108 3.59333 -1.70192 0
M  V30 5844 N 634.105 1.10431 1.1244 0
M  V30 5845 C 635.33 0.869089 1.88313 0
M  V30 5846 C 635.755 -0.574912 1.79099 0
M  V30 5847 O 635.113 -1.40496 1.14589 0
M  V30 5848 C 635.161 1.32208 3.3549 0
M  V30 5849 O 634.265 0.487092 4.09513 0
M  V30 5850 H 633.606 0.313894 0.585121 0
M  V30 5851 H 636.136 1.47111 1.42195 0
M  V30 5852 H 636.146 1.31201 3.86329 0
M  V30 5853 H 634.821 2.37364 3.41513 0
M  V30 5854 H 633.398 0.562372 3.68635 0
M  V30 5855 N 635.583 -1.29855 0.893053 0
M  V30 5856 C 636.546 -2.26183 0.370687 0
M  V30 5857 C 637.546 -1.53108 -0.491385 0
M  V30 5858 O 638.736 -1.71643 -0.297386 0
M  V30 5859 C 635.868 -3.37633 -0.470827 0
M  V30 5860 H 637.061 -2.73903 1.22135 0
M  V30 5861 H 634.614 -1.41183 0.67061 0
M  V30 5862 H 635.349 -2.95241 -1.34175 0
M  V30 5863 H 635.134 -3.91825 0.146784 0
M  V30 5864 H 636.624 -4.09313 -0.827825 0
M  V30 5865 N 637.061 -0.65484 -1.43351 0
M  V30 5866 C 638.472 -0.248506 -1.85039 0
M  V30 5867 C 638.823 1.20526 -1.54816 0
M  V30 5868 O 637.948 1.92016 -0.99794 0
M  V30 5869 C 638.543 -0.444241 -3.35875 0
M  V30 5870 C 637.102 -0.0922108 -3.76287 0
M  V30 5871 C 636.249 -0.746327 -2.67068 0
M  V30 5872 H 639.2 -0.8584 -1.33481 0
M  V30 5873 H 639.221 0.309762 -3.79237 0
M  V30 5874 H 638.733 -1.50239 -3.5784 0
M  V30 5875 H 636.834 0.96328 -3.59933 0
M  V30 5876 H 636.947 -0.518807 -4.76283 0
M  V30 5877 H 635.311 -0.179416 -2.54067 0
M  V30 5878 H 636.094 -1.80754 -2.91861 0
M  V30 5879 N 638.539 1.52521 -0.396863 0
M  V30 5880 C 639.787 2.01274 0.182536 0
M  V30 5881 C 640.108 1.28485 1.46685 0
M  V30 5882 O 639.378 0.407134 1.91623 0
M  V30 5883 H 637.958 0.743671 0.0704442 0
M  V30 5884 H 640.62 1.87547 -0.530289 0
M  V30 5885 H 639.716 3.09687 0.387385 0
M  V30 5886 N 640.017 0.126909 1.57088 0
M  V30 5887 C 640.964 -0.82036 2.15728 0
M  V30 5888 C 641.934 -1.25811 1.08447 0
M  V30 5889 O 643.119 -1.33422 1.36393 0
M  V30 5890 C 640.259 -2.06199 2.76724 0
M  V30 5891 C 639.372 -1.67188 3.98337 0
M  V30 5892 C 638.507 -2.86378 4.47393 0
M  V30 5893 C 637.546 -2.43644 5.61519 0
M  V30 5894 N 636.683 -3.55775 6.05284 0
M  V30 5895 H 641.523 -0.313472 2.96347 0
M  V30 5896 H 639.06 -0.14303 1.46403 0
M  V30 5897 H 641.018 -2.78959 3.10222 0
M  V30 5898 H 639.648 -2.54333 1.98782 0
M  V30 5899 H 638.7 -0.842714 3.70948 0
M  V30 5900 H 640.012 -1.31789 4.81075 0
M  V30 5901 H 639.166 -3.67353 4.82842 0
M  V30 5902 H 637.905 -3.25009 3.63621 0
M  V30 5903 H 636.91 -1.61104 5.25667 0
M  V30 5904 H 638.135 -2.06122 6.47063 0
M  V30 5905 H 636.081 -3.94065 5.24451 0
M  V30 5906 H 635.998 -3.24325 6.82898 0
M  V30 5907 H 637.266 -4.37166 6.45373 0
M  V30 5908 N 641.495 -1.56914 -0.146875 0
M  V30 5909 C 642.906 -1.72799 -0.706928 0
M  V30 5910 C 643.257 -0.741329 -1.81656 0
M  V30 5911 O 642.382 0.0920162 -2.16204 0
M  V30 5912 C 642.977 -3.13317 -1.28911 0
M  V30 5913 C 641.536 -3.30803 -1.79573 0
M  V30 5914 C 640.683 -2.68725 -0.684252 0
M  V30 5915 H 643.634 -1.58504 0.0787931 0
M  V30 5916 H 643.655 -3.13323 -2.15891 0
M  V30 5917 H 643.167 -3.85104 -0.481284 0
M  V30 5918 H 641.268 -2.64012 -2.62923 0
M  V30 5919 H 641.381 -4.38754 -1.92436 0
M  V30 5920 H 639.745 -2.29196 -1.11091 0
M  V30 5921 H 640.528 -3.43117 0.112134 0
M  V30 5922 N 642.974 0.416227 -1.52004 0
M  V30 5923 C 644.222 1.16153 -1.65387 0
M  V30 5924 C 644.543 1.91208 -0.382669 0
M  V30 5925 O 643.813 1.86413 0.602231 0
M  V30 5926 H 642.393 0.431765 -0.60958 0
M  V30 5927 H 645.055 0.475151 -1.89019 0
M  V30 5928 H 644.151 1.87952 -2.4916 0
M  V30 5929 N 644.452 1.42507 0.673017 0
M  V30 5930 C 645.399 1.46124 1.78651 0
M  V30 5931 C 646.369 0.313007 1.63124 0
M  V30 5932 O 647.554 0.517337 1.83653 0
M  V30 5933 C 644.694 1.3711 3.16694 0
M  V30 5934 C 643.807 2.61983 3.43495 0
M  V30 5935 C 642.942 2.45098 4.71275 0
M  V30 5936 C 641.981 3.65336 4.91117 0
M  V30 5937 N 641.118 3.47383 6.10139 0
M  V30 5938 H 645.958 2.4128 1.74895 0
M  V30 5939 H 643.495 1.19788 0.853766 0
M  V30 5940 H 645.453 1.29881 3.96468 0
M  V30 5941 H 644.083 0.45549 3.1957 0
M  V30 5942 H 643.135 2.79571 2.57961 0
M  V30 5943 H 644.447 3.51355 3.5405 0
M  V30 5944 H 643.601 2.35466 5.59143 0
M  V30 5945 H 642.34 1.53219 4.63007 0
M  V30 5946 H 641.345 3.754 4.0169 0
M  V30 5947 H 642.57 4.58199 5.01229 0
M  V30 5948 H 640.516 2.58222 6.0304 0
M  V30 5949 H 640.433 4.30344 6.21563 0
M  V30 5950 H 641.701 3.41565 7.00681 0
M  V30 5951 N 645.93 -0.909495 1.28709 0
M  V30 5952 C 647.341 -1.47419 1.14563 0
M  V30 5953 C 647.692 -1.94432 -0.262832 0
M  V30 5954 O 646.817 -1.82842 -1.15748 0
M  V30 5955 C 647.412 -2.67933 2.07358 0
M  V30 5956 C 645.971 -3.20568 1.97264 0
M  V30 5957 C 645.118 -1.93269 1.98852 0
M  V30 5958 H 648.069 -0.721787 1.41336 0
M  V30 5959 H 648.09 -3.43339 1.64007 0
M  V30 5960 H 647.602 -2.33685 3.09859 0
M  V30 5961 H 645.703 -3.59531 0.978157 0
M  V30 5962 H 645.816 -3.85529 2.84436 0
M  V30 5963 H 644.18 -2.10553 1.43317 0
M  V30 5964 H 644.963 -1.61312 3.0304 0
M  V30 5965 N 647.408 -1.11026 -1.11852 0
M  V30 5966 C 648.656 -0.854769 -1.83134 0
M  V30 5967 C 648.977 0.621375 -1.84835 0
M  V30 5968 O 648.247 1.45129 -1.31584 0
M  V30 5969 H 646.827 -0.313229 -0.678157 0
M  V30 5970 H 649.489 -1.40178 -1.35411 0
M  V30 5971 H 648.585 -1.22311 -2.87135 0
M  V30 5972 N 648.886 1.2938 -0.899927 0
M  V30 5973 C 650.111 2.00228 -0.540692 0
M  V30 5974 C 650.536 1.66909 0.867359 0
M  V30 5975 O 649.894 0.893824 1.57735 0
M  V30 5976 C 649.942 3.52921 -0.740232 0
M  V30 5977 O 649.046 4.11879 0.207154 0
M  V30 5978 H 648.387 0.629505 -0.211233 0
M  V30 5979 H 650.917 1.6487 -1.21158 0
M  V30 5980 H 650.927 4.0287 -0.644973 0
M  V30 5981 H 649.602 3.76508 -1.76677 0
M  V30 5982 H 648.179 3.72845 0.0643315 0
M  V30 5983 N 650.364 0.662433 1.43002 0
M  V30 5984 C 651.775 0.258315 1.84904 0
M  V30 5985 C 652.126 -1.19703 1.55453 0
M  V30 5986 O 651.251 -1.91484 1.00811 0
M  V30 5987 C 651.846 0.462047 3.35635 0
M  V30 5988 C 650.405 0.112165 3.76233 0
M  V30 5989 C 649.552 0.760479 2.66668 0
M  V30 5990 H 652.503 0.865467 1.33024 0
M  V30 5991 H 652.524 -0.289646 3.79396 0
M  V30 5992 H 652.036 1.52135 3.57039 0
M  V30 5993 H 650.137 -0.944179 3.60439 0
M  V30 5994 H 650.25 0.544058 4.76001 0
M  V30 5995 H 648.614 0.192887 2.53969 0
M  V30 5996 H 649.397 1.82299 2.90898 0
M  V30 5997 N 651.842 -1.52309 0.404946 0
M  V30 5998 C 653.09 -2.01368 -0.17186 0
M  V30 5999 C 653.411 -1.29261 -1.46002 0
M  V30 6000 O 652.681 -0.41729 -1.91404 0
M  V30 6001 H 651.261 -0.744034 -0.0664993 0
M  V30 6002 H 653.923 -1.87263 0.540228 0
M  V30 6003 H 653.019 -3.09888 -0.370957 0
M  V30 6004 N 653.32 -0.135238 -1.57019 0
M  V30 6005 C 654.25 0.805235 -2.19176 0
M  V30 6006 C 655.231 1.2656 -1.13651 0
M  V30 6007 O 656.416 1.32528 -1.4195 0
M  V30 6008 C 653.546 2.04914 -2.80406 0
M  V30 6009 C 652.5 1.72598 -3.91655 0
M  V30 6010 C 651.826 3.04154 -4.39766 0
M  V30 6011 C 653.126 0.981709 -5.12991 0
M  V30 6012 H 654.82 0.287232 -2.98019 0
M  V30 6013 H 652.366 0.136714 -1.4335 0
M  V30 6014 H 654.319 2.71178 -3.22553 0
M  V30 6015 H 653.043 2.59067 -1.98877 0
M  V30 6016 H 651.702 1.08717 -3.50109 0
M  V30 6017 H 651.35 3.56274 -3.55075 0
M  V30 6018 H 651.05 2.83299 -5.14796 0
M  V30 6019 H 652.574 3.71509 -4.84576 0
M  V30 6020 H 653.988 1.5462 -5.52056 0
M  V30 6021 H 652.385 0.873533 -5.93708 0
M  V30 6022 H 653.455 -0.0286887 -4.84892 0
M  V30 6023 N 654.798 1.5699 0.138552 0
M  V30 6024 C 656.209 1.73171 0.697754 0
M  V30 6025 C 656.56 0.750952 1.8126 0
M  V30 6026 O 655.685 -0.080549 2.1625 0
M  V30 6027 C 656.28 3.13996 1.27248 0
M  V30 6028 C 654.839 3.3175 1.77816 0
M  V30 6029 C 653.986 2.69084 0.669991 0
M  V30 6030 H 656.937 1.5846 -0.0871979 0
M  V30 6031 H 656.958 3.14463 2.14227 0
M  V30 6032 H 656.47 3.85354 0.460855 0
M  V30 6033 H 654.571 2.65403 2.61519 0
M  V30 6034 H 654.684 4.39768 1.90107 0
M  V30 6035 H 653.048 2.29782 1.09874 0
M  V30 6036 H 653.831 3.43053 -0.130329 0
M  V30 6037 N 656.276 -0.40816 1.52223 0
M  V30 6038 C 657.524 -1.15274 1.66001 0
M  V30 6039 C 657.845 -1.91003 0.392803 0
M  V30 6040 O 657.115 -1.8673 -0.592336 0
M  V30 6041 H 655.695 -0.428526 0.611861 0
M  V30 6042 H 658.357 -0.46512 1.89269 0
M  V30 6043 H 657.453 -1.86628 2.50153 0
M  V30 6044 N 657.755 -1.42862 -0.66545 0
M  V30 6045 C 658.718 -1.46756 -1.76055 0
M  V30 6046 C 659.718 -0.353866 -1.56858 0
M  V30 6047 O 660.908 -0.615099 -1.62979 0
M  V30 6048 C 658.04 -1.30829 -3.14796 0
M  V30 6049 H 659.233 -2.44271 -1.73987 0
M  V30 6050 H 656.786 -1.29447 -0.875965 0
M  V30 6051 H 657.521 -0.342733 -3.22484 0
M  V30 6052 H 657.306 -2.11551 -3.30134 0
M  V30 6053 H 658.796 -1.36458 -3.94676 0
M  V30 6054 N 659.233 0.902656 -1.29189 0
M  V30 6055 C 660.644 1.46809 -1.15343 0
M  V30 6056 C 660.995 1.94568 0.252517 0
M  V30 6057 O 660.12 1.83454 1.14777 0
M  V30 6058 C 660.715 2.66829 -2.08776 0
M  V30 6059 C 659.274 3.19518 -1.98961 0
M  V30 6060 C 658.421 1.92212 -1.99874 0
M  V30 6061 H 661.372 0.714282 -1.41717 0
M  V30 6062 H 661.393 3.42465 -1.65826 0
M  V30 6063 H 660.905 2.32039 -3.11094 0
M  V30 6064 H 659.006 3.59008 -0.99721 0
M  V30 6065 H 659.119 3.84016 -2.86477 0
M  V30 6066 H 657.483 2.0979 -1.44431 0
M  V30 6067 H 658.266 1.59702 -3.03891 0
M  V30 6068 N 660.711 1.11618 1.11262 0
M  V30 6069 C 661.959 0.864469 1.82678 0
M  V30 6070 C 662.28 -0.611564 1.85162 0
M  V30 6071 O 661.55 -1.44429 1.32352 0
M  V30 6072 H 660.13 0.316821 0.676486 0
M  V30 6073 H 662.792 1.40894 1.34666 0
M  V30 6074 H 661.888 1.23832 2.86482 0
M  V30 6075 N 662.189 -1.289 0.906776 0
M  V30 6076 C 663.119 -2.29932 0.406659 0
M  V30 6077 C 664.1 -1.6189 -0.522061 0
M  V30 6078 O 665.285 -1.8935 -0.431283 0
M  V30 6079 C 662.415 -3.45425 -0.360366 0
M  V30 6080 C 661.369 -4.25316 0.478574 0
M  V30 6081 C 660.695 -5.33076 -0.416373 0
M  V30 6082 C 661.995 -4.92739 1.7322 0
M  V30 6083 H 663.689 -2.72013 1.25097 0
M  V30 6084 H 661.235 -1.30768 0.602977 0
M  V30 6085 H 663.188 -4.15186 -0.721029 0
M  V30 6086 H 661.912 -3.02206 -1.23852 0
M  V30 6087 H 660.571 -3.57273 0.821662 0
M  V30 6088 H 660.219 -4.86101 -1.29287 0
M  V30 6089 H 659.919 -5.8743 0.141309 0
M  V30 6090 H 661.443 -6.05686 -0.773072 0
M  V30 6091 H 662.857 -5.54898 1.44086 0
M  V30 6092 H 661.254 -5.57057 2.23175 0
M  V30 6093 H 662.324 -4.17625 2.46408 0
M  V30 6094 N 663.667 -0.670007 -1.42649 0
M  V30 6095 C 664.599 0.0501746 -2.29145 0
M  V30 6096 C 665.612 0.770331 -1.43422 0
M  V30 6097 O 666.801 0.625288 -1.6719 0
M  V30 6098 C 663.901 1.09463 -3.20735 0
M  V30 6099 C 663.074 0.44926 -4.35087 0
M  V30 6100 C 662.133 1.39285 -5.07431 0
M  V30 6101 O 661.159 0.894997 -5.6212 0
M  V30 6102 N 662.361 2.72631 -5.12496 0
M  V30 6103 H 665.126 -0.692312 -2.91594 0
M  V30 6104 H 662.687 -0.514056 -1.53522 0
M  V30 6105 H 664.679 1.72705 -3.65999 0
M  V30 6106 H 663.249 1.73891 -2.59771 0
M  V30 6107 H 662.469 -0.362573 -3.92529 0
M  V30 6108 H 663.757 -0.000544776 -5.088 0
M  V30 6109 H 663.155 3.15623 -4.69467 0
M  V30 6110 H 661.712 3.31132 -5.61422 0
M  V30 6111 N 665.145 1.52092 -0.413018 0
M  V30 6112 C 666.393 2.01456 0.161178 0
M  V30 6113 C 666.714 1.30034 1.45314 0
M  V30 6114 O 665.984 0.427435 1.9118 0
M  V30 6115 H 664.564 0.744376 0.0625526 0
M  V30 6116 H 667.226 1.86974 -0.550151 0
M  V30 6117 H 666.322 3.1008 0.354517 0
M  V30 6118 N 666.623 0.143563 1.56945 0
M  V30 6119 C 667.553 -0.7936 2.196 0
M  V30 6120 C 668.534 -1.25955 1.14321 0
M  V30 6121 O 669.719 -1.31773 1.42651 0
M  V30 6122 C 666.849 -2.03424 2.81489 0
M  V30 6123 C 665.803 -1.70519 3.92565 0
M  V30 6124 C 665.129 -3.01817 4.41373 0
M  V30 6125 C 666.429 -0.95449 5.13504 0
M  V30 6126 H 668.123 -0.271423 2.98167 0
M  V30 6127 H 665.669 -0.12911 1.4342 0
M  V30 6128 H 667.622 -2.69463 3.23987 0
M  V30 6129 H 666.346 -2.58008 2.00248 0
M  V30 6130 H 665.005 -1.06859 3.5068 0
M  V30 6131 H 664.653 -3.54386 3.56959 0
M  V30 6132 H 664.353 -2.80565 5.16292 0
M  V30 6133 H 665.877 -3.68934 4.86539 0
M  V30 6134 H 667.291 -1.5169 5.52868 0
M  V30 6135 H 665.688 -0.842035 5.94163 0
M  V30 6136 H 666.758 0.0544033 4.84869 0
M  V30 6137 N 668.101 -1.57061 -0.130224 0
M  V30 6138 C 669.512 -1.73539 -0.68856 0
M  V30 6139 C 669.863 -0.760554 -1.80859 0
M  V30 6140 O 668.988 0.0690796 -2.1629 0
M  V30 6141 C 669.583 -3.14666 -1.25581 0
M  V30 6142 C 668.142 -3.32689 -1.76055 0
M  V30 6143 C 667.289 -2.69436 -0.655712 0
M  V30 6144 H 670.24 -1.58412 0.0956002 0
M  V30 6145 H 670.261 -3.15595 -2.12556 0
M  V30 6146 H 669.773 -3.85593 -0.440412 0
M  V30 6147 H 667.874 -2.66786 -2.60108 0
M  V30 6148 H 667.987 -4.4077 -1.87772 0
M  V30 6149 H 666.351 -2.30362 -1.08654 0
M  V30 6150 H 667.134 -3.42979 0.14852 0
M  V30 6151 N 669.579 0.400081 -1.52437 0
M  V30 6152 C 670.827 1.14392 -1.6661 0
M  V30 6153 C 671.148 1.90792 -0.402927 0
M  V30 6154 O 670.418 1.87042 0.582425 0
M  V30 6155 H 668.998 0.425275 -0.614125 0
M  V30 6156 H 671.66 0.455076 -1.89513 0
M  V30 6157 H 670.756 1.85298 -2.51139 0
M  V30 6158 N 671.057 1.43213 0.657864 0
M  V30 6159 C 672.282 1.48227 1.45064 0
M  V30 6160 C 672.707 0.0999939 1.87834 0
M  V30 6161 O 672.065 -0.905269 1.57081 0
M  V30 6162 C 672.113 2.42931 2.6649 0
M  V30 6163 O 671.217 1.91237 3.6538 0
M  V30 6164 H 670.558 0.501551 0.435135 0
M  V30 6165 H 673.088 1.8808 0.805431 0
M  V30 6166 H 673.098 2.6008 3.1436 0
M  V30 6167 H 671.773 3.43348 2.34701 0
M  V30 6168 H 670.35 1.83726 3.24498 0
M  V30 6169 N 672.536 -0.895792 1.29666 0
M  V30 6170 C 673.761 -1.68528 1.20885 0
M  V30 6171 C 674.186 -1.8673 -0.226595 0
M  V30 6172 O 673.544 -1.39044 -1.16347 0
M  V30 6173 C 673.592 -3.04512 1.93144 0
M  V30 6174 O 672.696 -3.92963 1.25115 0
M  V30 6175 H 672.037 -0.515371 0.418675 0
M  V30 6176 H 674.567 -1.11878 1.71302 0
M  V30 6177 H 674.577 -3.54628 2.0175 0
M  V30 6178 H 673.252 -2.90582 2.97548 0
M  V30 6179 H 671.829 -3.51399 1.24794 0
M  V30 6180 N 674.014 -1.12206 -1.10668 0
M  V30 6181 C 675.26 -0.877172 -1.82848 0
M  V30 6182 C 675.593 0.595571 -1.84842 0
M  V30 6183 O 674.868 1.44013 -1.30731 0
M  V30 6184 C 675.151 -1.44957 -3.29635 0
M  V30 6185 C 675.004 -2.99051 -3.35989 0
M  V30 6186 C 676.323 -1.10714 -4.25946 0
M  V30 6187 H 673.442 -0.320103 -0.663854 0
M  V30 6188 H 676.084 -1.38827 -1.2972 0
M  V30 6189 H 674.234 -1.01488 -3.7501 0
M  V30 6190 H 675.906 -3.51182 -2.99113 0
M  V30 6191 H 674.149 -3.34705 -2.75962 0
M  V30 6192 H 674.82 -3.34194 -4.39339 0
M  V30 6193 H 677.296 -1.48254 -3.88793 0
M  V30 6194 H 676.172 -1.5343 -5.2702 0
M  V30 6195 H 676.433 -0.019 -4.42096 0
M  V30 6196 N 675.492 1.28418 -0.913599 0
M  V30 6197 C 676.741 1.94265 -0.542572 0
M  V30 6198 C 677.054 1.72709 0.918207 0
M  V30 6199 O 678.26 2.32778 1.39738 0
M  V30 6200 C 676.716 3.47956 -0.919507 0
M  V30 6201 C 676.324 3.78291 -2.4 0
M  V30 6202 C 678.068 4.19962 -0.619057 0
M  V30 6203 C 675.975 5.2529 -2.71707 0
M  V30 6204 H 674.905 0.727213 -0.199192 0
M  V30 6205 H 677.556 1.45931 -1.11249 0
M  V30 6206 H 675.938 3.9502 -0.278372 0
M  V30 6207 H 677.112 3.42035 -3.08786 0
M  V30 6208 H 675.427 3.19456 -2.67089 0
M  V30 6209 H 678.024 5.28178 -0.832623 0
M  V30 6210 H 678.367 4.13935 0.443126 0
M  V30 6211 H 678.9 3.78674 -1.21865 0
M  V30 6212 H 675.639 5.36394 -3.76778 0
M  V30 6213 H 675.159 5.62743 -2.07559 0
M  V30 6214 H 676.838 5.93027 -2.58703 0
M  V30 6215 N 676.97 0.677563 1.42291 0
M  V30 6216 C 678.2 0.209155 2.05539 0
M  V30 6217 C 678.608 -1.13987 1.51009 0
M  V30 6218 O 677.951 -1.71976 0.645764 0
M  V30 6219 C 678.013 0.0697758 3.59432 0
M  V30 6220 C 677.677 1.34795 4.36668 0
M  V30 6221 C 678.674 2.28201 4.67141 0
M  V30 6222 C 676.359 1.59632 4.76259 0
M  V30 6223 C 678.353 3.44718 5.36142 0
M  V30 6224 C 676.04 2.76437 5.45 0
M  V30 6225 C 677.038 3.68805 5.74867 0
M  V30 6226 O 676.726 4.83567 6.42198 0
M  V30 6227 H 676.458 0.0986202 0.668768 0
M  V30 6228 H 679.012 0.925483 1.83368 0
M  V30 6229 H 677.242 -0.702157 3.80272 0
M  V30 6230 H 678.931 -0.359115 4.04308 0
M  V30 6231 H 679.697 2.10264 4.37052 0
M  V30 6232 H 675.576 0.886073 4.52404 0
M  V30 6233 H 679.12 4.16833 5.59371 0
M  V30 6234 H 675.017 2.94299 5.74507 0
M  V30 6235 H 675.785 4.83147 6.6069 0
M  V30 6236 N 678.448 -1.51871 0.421078 0
M  V30 6237 C 679.688 -2.03848 -0.150167 0
M  V30 6238 C 680.052 -1.29925 -1.41363 0
M  V30 6239 O 681.253 -1.7219 -2.06408 0
M  V30 6240 C 679.524 -3.55374 -0.38003 0
M  V30 6241 S 681.083 -4.29111 -0.917011 0
M  V30 6242 H 677.901 -0.709904 -0.0394639 0
M  V30 6243 H 680.503 -1.86799 0.576746 0
M  V30 6244 H 679.207 -4.0675 0.546122 0
M  V30 6245 H 678.738 -3.76687 -1.13448 0
M  V30 6246 H 680.753 -4.44944 -2.19635 0
M  V30 6247 N 679.926 -0.151884 -1.56866 0
M  V30 6248 C 681.151 0.508044 -2.01081 0
M  V30 6249 C 681.576 1.57306 -1.03134 0
M  V30 6250 O 680.934 1.81298 -0.0078309 0
M  V30 6251 C 680.982 1.08106 -3.44014 0
M  V30 6252 O 680.086 2.19577 -3.49084 0
M  V30 6253 H 679.427 0.123757 -0.652365 0
M  V30 6254 H 681.957 -0.250055 -2.03066 0
M  V30 6255 H 681.967 1.40851 -3.82916 0
M  V30 6256 H 680.642 0.301168 -4.14808 0
M  V30 6257 H 679.219 1.88023 -3.22027 0
M  V30 6258 N 681.404 1.57128 0.121893 0
M  V30 6259 C 682.65 1.84974 0.831418 0
M  V30 6260 C 682.983 0.737204 1.79663 0
M  V30 6261 O 682.258 -0.257199 1.92792 0
M  V30 6262 C 682.541 3.23397 1.58386 0
M  V30 6263 C 682.394 4.45246 0.638445 0
M  V30 6264 C 683.713 3.59355 2.54071 0
M  V30 6265 H 680.832 0.67282 0.300803 0
M  V30 6266 H 683.474 1.89759 0.0957587 0
M  V30 6267 H 681.624 3.19449 2.21098 0
M  V30 6268 H 683.296 4.61295 0.0203925 0
M  V30 6269 H 681.539 4.33771 -0.05023 0
M  V30 6270 H 682.21 5.38765 1.20151 0
M  V30 6271 H 684.686 3.64075 2.01465 0
M  V30 6272 H 683.562 4.57193 3.03752 0
M  V30 6273 H 683.823 2.86622 3.36601 0
M  V30 6274 N 682.882 -0.391992 1.52647 0
M  V30 6275 C 684.13 -1.13507 1.67214 0
M  V30 6276 C 684.451 -1.90575 0.41304 0
M  V30 6277 O 683.721 -1.87348 -0.572498 0
M  V30 6278 H 682.301 -0.422013 0.616372 0
M  V30 6279 H 684.963 -0.44502 1.89751 0
M  V30 6280 H 684.059 -1.83964 2.52118 0
M  V30 6281 N 684.36 -1.4356 -0.65026 0
M  V30 6282 C 685.308 -1.49219 -1.78427 0
M  V30 6283 C 686.302 -0.365528 -1.65409 0
M  V30 6284 O 687.508 -0.539649 -1.7172 0
M  V30 6285 H 683.883 -0.467858 -0.588738 0
M  V30 6286 H 685.854 -2.44701 -1.70774 0
M  V30 6287 C 684.603 -1.43519 -3.16698 0
M  V30 6288 H 683.926 -2.2952 -3.27354 0
M  V30 6289 H 685.366 -1.5154 -3.95995 0
M  V30 6290 C 683.825 -0.153197 -3.36552 0
M  V30 6291 O 684.355 0.784317 -3.93969 0
M  V30 6292 N 682.561 -0.0624402 -2.90533 0
M  V30 6293 H 682.108 -0.826172 -2.43992 0
M  V30 6294 H 682.066 0.794616 -3.04193 0
M  V30 6295 N 685.838 0.888903 -1.30139 0
M  V30 6296 C 687.249 1.45578 -1.16893 0
M  V30 6297 C 687.6 1.94825 0.231866 0
M  V30 6298 O 686.725 1.84661 1.12824 0
M  V30 6299 C 687.32 2.646 -2.11595 0
M  V30 6300 C 685.879 3.17389 -2.02339 0
M  V30 6301 C 685.026 1.90081 -2.01902 0
M  V30 6302 H 687.977 0.69921 -1.42467 0
M  V30 6303 H 687.998 3.40687 -1.69449 0
M  V30 6304 H 687.51 2.28726 -3.13538 0
M  V30 6305 H 685.611 3.5793 -1.03523 0
M  V30 6306 H 685.724 3.80955 -2.90534 0
M  V30 6307 H 684.088 2.08246 -1.46648 0
M  V30 6308 H 684.871 1.5647 -3.05568 0
M  V30 6309 N 687.317 1.12792 1.10072 0
M  V30 6310 C 688.565 0.883796 1.81751 0
M  V30 6311 C 688.886 -0.591891 1.858 0
M  V30 6312 O 688.156 -1.43017 1.33876 0
M  V30 6313 H 686.736 0.323978 0.673088 0
M  V30 6314 H 689.398 1.42314 1.33164 0
M  V30 6315 H 688.494 1.26863 2.85153 0
M  V30 6316 N 688.795 -1.27931 0.920396 0
M  V30 6317 C 690.206 -1.76707 0.602616 0
M  V30 6318 C 690.557 -1.75249 -0.882159 0
M  V30 6319 O 689.682 -1.35135 -1.69019 0
M  V30 6320 C 690.277 -3.20884 1.08714 0
M  V30 6321 C 688.836 -3.67356 0.820157 0
M  V30 6322 C 687.983 -2.47525 1.25006 0
M  V30 6323 H 690.934 -1.14301 1.10095 0
M  V30 6324 H 690.955 -3.78045 0.431535 0
M  V30 6325 H 690.467 -3.21913 2.1678 0
M  V30 6326 H 688.568 -3.7178 -0.247012 0
M  V30 6327 H 688.681 -4.57181 1.43257 0
M  V30 6328 H 687.045 -2.45765 0.668698 0
M  V30 6329 H 687.828 -2.51269 2.3392 0
M  V30 6330 N 690.273 -0.685099 -1.4193 0
M  V30 6331 C 691.205 0.0258679 -2.29185 0
M  V30 6332 C 692.218 0.755076 -1.44231 0
M  V30 6333 O 693.407 0.60752 -1.67844 0
M  V30 6334 C 690.507 1.06055 -3.21878 0
M  V30 6335 C 689.68 0.403088 -4.35539 0
M  V30 6336 C 688.739 1.33895 -5.0888 0
M  V30 6337 O 687.765 0.835326 -5.63037 0
M  V30 6338 N 688.967 2.6718 -5.15359 0
M  V30 6339 H 691.732 -0.723201 -2.90843 0
M  V30 6340 H 689.293 -0.53031 -1.52968 0
M  V30 6341 H 691.285 1.68813 -3.6781 0
M  V30 6342 H 689.855 1.71126 -2.616 0
M  V30 6343 H 689.075 -0.404185 -3.92122 0
M  V30 6344 H 690.363 -0.0545098 -5.08771 0
M  V30 6345 H 689.761 3.10626 -4.72788 0
M  V30 6346 H 688.318 3.25159 -5.64903 0
M  V30 6347 N 691.751 1.51645 -0.429126 0
M  V30 6348 C 692.999 2.01616 0.139802 0
M  V30 6349 C 693.32 1.31568 1.43927 0
M  V30 6350 O 692.59 0.447688 1.90716 0
M  V30 6351 H 691.17 0.744998 0.054654 0
M  V30 6352 H 693.832 1.8638 -0.569952 0
M  V30 6353 H 692.928 3.10439 0.321609 0
M  V30 6354 N 693.229 0.160201 1.56784 0
M  V30 6355 C 694.478 -0.487619 1.95717 0
M  V30 6356 C 694.791 -1.65136 1.0483 0
M  V30 6357 O 695.997 -2.36468 1.33398 0
M  V30 6358 C 694.453 -0.91888 3.47972 0
M  V30 6359 C 694.061 0.218655 4.47466 0
M  V30 6360 C 695.805 -1.53575 3.95746 0
M  V30 6361 C 693.712 -0.231614 5.90946 0
M  V30 6362 H 692.642 -0.185939 0.730714 0
M  V30 6363 H 695.293 0.246657 1.81835 0
M  V30 6364 H 693.675 -1.70881 3.57234 0
M  V30 6365 H 694.849 0.995825 4.49911 0
M  V30 6366 H 693.164 0.744767 4.09685 0
M  V30 6367 H 695.761 -1.88448 5.00391 0
M  V30 6368 H 696.104 -2.42959 3.38048 0
M  V30 6369 H 696.637 -0.810467 3.89456 0
M  V30 6370 H 693.376 0.62718 6.52493 0
M  V30 6371 H 692.896 -0.974379 5.91833 0
M  V30 6372 H 694.575 -0.67922 6.43425 0
M  V30 6373 N 694.707 -1.5719 -0.113559 0
M  V30 6374 C 695.654 -2.00736 -1.13901 0
M  V30 6375 C 696.624 -0.88044 -1.40846 0
M  V30 6376 O 697.809 -1.14507 -1.5262 0
M  V30 6377 C 694.949 -2.42132 -2.45899 0
M  V30 6378 C 694.062 -3.68264 -2.25844 0
M  V30 6379 C 693.197 -3.98617 -3.5111 0
M  V30 6380 C 692.236 -5.17915 -3.26236 0
M  V30 6381 N 691.373 -5.44111 -4.4372 0
M  V30 6382 H 696.213 -2.88128 -0.760677 0
M  V30 6383 H 693.75 -1.42523 -0.364099 0
M  V30 6384 H 695.708 -2.6417 -3.22908 0
M  V30 6385 H 694.338 -1.57775 -2.81615 0
M  V30 6386 H 693.39 -3.53809 -1.39726 0
M  V30 6387 H 694.702 -4.55425 -2.03444 0
M  V30 6388 H 693.856 -4.21333 -4.36536 0
M  V30 6389 H 692.595 -3.09942 -3.76546 0
M  V30 6390 H 691.6 -4.95038 -2.39202 0
M  V30 6391 H 692.825 -6.08172 -3.02165 0
M  V30 6392 H 690.771 -4.58394 -4.69266 0
M  V30 6393 H 690.688 -6.25606 -4.24444 0
M  V30 6394 H 691.956 -5.71351 -5.30263 0
M  V30 6395 N 696.185 0.383891 -1.52853 0
M  V30 6396 C 697.433 1.12619 -1.67814 0
M  V30 6397 C 697.754 1.90354 -0.423141 0
M  V30 6398 O 697.024 1.87649 0.562554 0
M  V30 6399 H 695.604 0.418738 -0.618601 0
M  V30 6400 H 698.266 0.43495 -1.89985 0
M  V30 6401 H 697.362 1.82624 -2.5309 0
M  V30 6402 N 697.663 1.43903 0.642637 0
M  V30 6403 C 698.61 1.49881 1.75512 0
M  V30 6404 C 699.58 0.347538 1.62423 0
M  V30 6405 O 700.765 0.556177 1.82514 0
M  V30 6406 C 697.905 1.43797 3.13714 0
M  V30 6407 C 697.018 2.6921 3.37861 0
M  V30 6408 C 696.153 2.5504 4.6597 0
M  V30 6409 C 695.192 3.75671 4.83257 0
M  V30 6410 N 694.329 3.60247 6.02633 0
M  V30 6411 H 699.169 2.44935 1.69737 0
M  V30 6412 H 696.706 1.21572 0.828165 0
M  V30 6413 H 698.664 1.38262 3.93624 0
M  V30 6414 H 697.294 0.523173 3.18532 0
M  V30 6415 H 696.346 2.8498 2.51973 0
M  V30 6416 H 697.658 3.58786 3.46517 0
M  V30 6417 H 696.812 2.47273 5.54023 0
M  V30 6418 H 695.551 1.63006 4.59653 0
M  V30 6419 H 694.556 3.83836 3.93637 0
M  V30 6420 H 695.781 4.68728 4.91397 0
M  V30 6421 H 693.727 2.70955 5.97427 0
M  V30 6422 H 693.644 4.43431 6.12295 0
M  V30 6423 H 694.912 3.56351 6.93278 0
M  V30 6424 N 699.141 -0.881989 1.30609 0
M  V30 6425 C 700.387 -1.63647 1.19781 0
M  V30 6426 C 700.72 -1.92632 -0.246265 0
M  V30 6427 O 699.995 -1.54938 -1.17577 0
M  V30 6428 C 700.278 -2.97437 2.02985 0
M  V30 6429 C 700.131 -2.75406 3.55628 0
M  V30 6430 C 701.45 -3.98397 1.86997 0
M  V30 6431 H 698.569 -0.593841 0.436488 0
M  V30 6432 H 701.211 -1.02041 1.60273 0
M  V30 6433 H 699.361 -3.50018 1.68581 0
M  V30 6434 H 701.033 -2.2959 4.00107 0
M  V30 6435 H 699.276 -2.09856 3.79662 0
M  V30 6436 H 699.947 -3.70552 4.09139 0
M  V30 6437 H 702.423 -3.54986 2.17081 0
M  V30 6438 H 701.299 -4.89916 2.47536 0
M  V30 6439 H 701.56 -4.3424 0.829943 0
M  V30 6440 N 700.619 -1.13374 -1.09472 0
M  V30 6441 C 701.867 -0.893422 -1.8128 0
M  V30 6442 C 702.188 0.582029 -1.86111 0
M  V30 6443 O 701.458 1.42305 -1.34633 0
M  V30 6444 H 700.038 -0.327543 -0.67136 0
M  V30 6445 H 702.7 -1.43018 -1.32408 0
M  V30 6446 H 701.796 -1.28374 -2.84476 0
M  V30 6447 N 702.098 1.27442 -0.927168 0
M  V30 6448 C 703.509 1.76385 -0.611979 0
M  V30 6449 C 703.86 1.75715 0.872853 0
M  V30 6450 O 702.985 1.3603 1.683 0
M  V30 6451 C 703.58 3.20303 -1.10414 0
M  V30 6452 C 702.139 3.66916 -0.839628 0
M  V30 6453 C 701.286 2.46859 -1.26317 0
M  V30 6454 H 704.237 1.13716 -1.107 0
M  V30 6455 H 704.258 3.77811 -0.451578 0
M  V30 6456 H 703.77 3.20759 -2.18484 0
M  V30 6457 H 701.871 3.71906 0.227292 0
M  V30 6458 H 701.984 4.56415 -1.45679 0
M  V30 6459 H 700.348 2.45407 -0.681723 0
M  V30 6460 H 701.131 2.50025 -2.3525 0
M  V30 6461 N 703.576 0.692616 1.41565 0
M  V30 6462 C 704.987 0.297478 1.84315 0
M  V30 6463 C 705.338 -1.16379 1.57957 0
M  V30 6464 O 704.463 -1.89303 1.0485 0
M  V30 6465 C 705.058 0.533136 3.34579 0
M  V30 6466 C 703.617 0.191944 3.7591 0
M  V30 6467 C 702.764 0.816873 2.64995 0
M  V30 6468 H 705.715 0.893488 1.31158 0
M  V30 6469 H 705.736 -0.209105 3.79925 0
M  V30 6470 H 705.248 1.59674 3.53731 0
M  V30 6471 H 703.349 -0.867512 3.6236 0
M  V30 6472 H 703.462 0.644902 4.7474 0
M  V30 6473 H 701.826 0.246715 2.53502 0
M  V30 6474 H 702.609 1.88429 2.86966 0
M  V30 6475 N 705.054 -1.51416 0.437162 0
M  V30 6476 C 706.302 -2.01687 -0.129108 0
M  V30 6477 C 706.623 -1.32329 -1.43227 0
M  V30 6478 O 705.893 -0.457796 -1.90476 0
M  V30 6479 H 704.473 -0.745277 -0.0507023 0
M  V30 6480 H 707.135 -1.86075 0.579828 0
M  V30 6481 H 706.231 -3.10605 -0.305141 0
M  V30 6482 N 706.532 -0.168513 -1.56696 0
M  V30 6483 C 707.78 0.476216 -1.96409 0
M  V30 6484 C 708.101 1.63968 -1.05544 0
M  V30 6485 O 707.371 1.95525 -0.121235 0
M  V30 6486 H 705.951 0.178921 -0.725256 0
M  V30 6487 H 708.613 -0.249042 -1.93302 0
M  V30 6488 H 707.709 0.838094 -3.00637 0
M  V30 6489 N 708.01 1.57248 0.105221 0
M  V30 6490 C 709.426 1.52853 0.459153 0
M  V30 6491 C 709.626 0.883674 1.8109 0
M  V30 6492 O 708.682 0.471864 2.48052 0
M  V30 6493 C 709.995 2.97596 0.43096 0
M  V30 6494 C 711.543 3.08758 0.513536 0
M  V30 6495 C 712.018 4.55089 0.515593 0
M  V30 6496 N 713.509 4.59597 0.576639 0
M  V30 6497 C 714.244 5.70253 0.599904 0
M  V30 6498 N 713.74 6.90368 0.579985 0
M  V30 6499 N 715.533 5.58399 0.643953 0
M  V30 6500 H 707.684 1.97547 -0.780306 0
M  V30 6501 H 709.947 0.902758 -0.289363 0
M  V30 6502 H 709.653 3.48201 -0.494903 0
M  V30 6503 H 709.527 3.55756 1.2537 0
M  V30 6504 H 711.914 2.58148 1.42982 0
M  V30 6505 H 711.995 2.53568 -0.337148 0
M  V30 6506 H 711.639 5.06348 -0.396701 0
M  V30 6507 H 711.569 5.08105 1.38335 0
M  V30 6508 H 714.06 3.73144 0.597639 0
M  V30 6509 H 714.373 7.70462 0.600741 0
M  V30 6510 H 712.718 6.92843 0.547191 0
M  V30 6511 H 715.909 4.63467 0.656975 0
M  V30 6512 H 716.082 6.44644 0.658616 0
M  V30 6513 N 709.488 -0.375779 1.53054 0
M  V30 6514 C 710.736 -1.11727 1.68409 0
M  V30 6515 C 711.057 -1.90127 0.43323 0
M  V30 6516 O 710.327 -1.87945 -0.552595 0
M  V30 6517 H 708.907 -0.415451 0.620813 0
M  V30 6518 H 711.569 -0.424869 1.90213 0
M  V30 6519 H 710.665 -1.8128 2.54055 0
M  V30 6520 N 710.966 -1.44241 -0.634997 0
M  V30 6521 C 712.377 -1.41622 -1.21655 0
M  V30 6522 C 712.728 -0.129584 -1.95772 0
M  V30 6523 O 711.853 0.770225 -2.02229 0
M  V30 6524 C 712.448 -2.56557 -2.21278 0
M  V30 6525 C 711.007 -2.57145 -2.7487 0
M  V30 6526 C 710.154 -2.33354 -1.49804 0
M  V30 6527 H 713.105 -1.52878 -0.425905 0
M  V30 6528 H 713.126 -2.29089 -3.03807 0
M  V30 6529 H 712.638 -3.50186 -1.67306 0
M  V30 6530 H 710.739 -1.67447 -3.32855 0
M  V30 6531 H 710.852 -3.55507 -3.21172 0
M  V30 6532 H 709.216 -1.82372 -1.77799 0
M  V30 6533 H 709.999 -3.29092 -0.977402 0
M  V30 6534 N 712.444 0.87505 -1.31075 0
M  V30 6535 C 713.391 1.98178 -1.18296 0
M  V30 6536 C 714.361 1.65952 -0.0699923 0
M  V30 6537 O 715.546 1.8926 -0.241951 0
M  V30 6538 C 712.686 3.33399 -0.891024 0
M  V30 6539 C 711.799 3.78253 -2.08684 0
M  V30 6540 C 710.934 5.02166 -1.73212 0
M  V30 6541 C 709.973 5.39455 -2.89231 0
M  V30 6542 N 709.11 6.54549 -2.53989 0
M  V30 6543 H 713.95 2.0844 -2.12971 0
M  V30 6544 H 711.487 1.02047 -1.05948 0
M  V30 6545 H 713.445 4.11246 -0.702338 0
M  V30 6546 H 712.075 3.22794 0.0188799 0
M  V30 6547 H 711.127 2.9623 -2.38646 0
M  V30 6548 H 712.439 4.01821 -2.95536 0
M  V30 6549 H 711.593 5.87666 -1.50777 0
M  V30 6550 H 710.332 4.80491 -0.83544 0
M  V30 6551 H 709.337 4.52477 -3.12321 0
M  V30 6552 H 710.562 5.63098 -3.79601 0
M  V30 6553 H 708.508 6.3443 -1.66838 0
M  V30 6554 H 708.425 6.78035 -3.34372 0
M  V30 6555 H 709.693 7.43254 -2.34934 0
M  V30 6556 N 713.922 1.13953 1.08869 0
M  V30 6557 C 715.17 0.903023 1.80803 0
M  V30 6558 C 715.491 -0.572151 1.86417 0
M  V30 6559 O 714.761 -1.41589 1.35386 0
M  V30 6560 H 713.341 0.331099 0.669614 0
M  V30 6561 H 716.003 1.43719 1.31647 0
M  V30 6562 H 715.099 1.29881 2.83791 0
M  V30 6563 N 715.4 -1.26948 0.933913 0
M  V30 6564 C 716.31 -2.30366 0.443671 0
M  V30 6565 C 717.326 -1.67284 -0.478745 0
M  V30 6566 O 718.502 -1.98156 -0.360043 0
M  V30 6567 C 715.567 -3.45485 -0.289974 0
M  V30 6568 C 714.628 -4.24069 0.668114 0
M  V30 6569 C 713.861 -5.33691 -0.0306138 0
M  V30 6570 O 714.084 -5.5656 -1.24888 0
M  V30 6571 O 713.018 -5.98441 0.644384 0
M  V30 6572 H 716.844 -2.74349 1.30254 0
M  V30 6573 H 714.429 -1.32012 0.699506 0
M  V30 6574 H 716.311 -4.15486 -0.70353 0
M  V30 6575 H 714.986 -3.03546 -1.12435 0
M  V30 6576 H 713.893 -3.56579 1.13147 0
M  V30 6577 H 715.226 -4.69739 1.46989 0
M  V30 6578 N 716.879 -0.700114 -1.41195 0
M  V30 6579 C 717.826 -0.0376652 -2.30769 0
M  V30 6580 C 718.796 0.766544 -1.47354 0
M  V30 6581 O 719.981 0.73365 -1.76131 0
M  V30 6582 C 717.121 0.889452 -3.33441 0
M  V30 6583 C 716.234 0.076373 -4.31932 0
M  V30 6584 C 715.369 1.00155 -5.21673 0
M  V30 6585 C 714.408 0.181644 -6.1183 0
M  V30 6586 N 713.545 1.06087 -6.94039 0
M  V30 6587 H 718.385 -0.80726 -2.86858 0
M  V30 6588 H 715.922 -0.409798 -1.41277 0
M  V30 6589 H 717.88 1.44107 -3.91522 0
M  V30 6590 H 716.51 1.6254 -2.78892 0
M  V30 6591 H 715.562 -0.592223 -3.75762 0
M  V30 6592 H 716.874 -0.559076 -4.95657 0
M  V30 6593 H 716.028 1.62223 -5.8461 0
M  V30 6594 H 714.767 1.67085 -4.58186 0
M  V30 6595 H 713.772 -0.452085 -5.47938 0
M  V30 6596 H 714.997 -0.483925 -6.77374 0
M  V30 6597 H 712.943 1.7161 -6.33156 0
M  V30 6598 H 712.86 0.481094 -7.54468 0
M  V30 6599 H 714.128 1.66822 -7.6144 0
M  V30 6600 N 718.357 1.51182 -0.445186 0
M  V30 6601 C 719.605 2.01753 0.11841 0
M  V30 6602 C 719.926 1.33087 1.42523 0
M  V30 6603 O 719.196 0.467891 1.9023 0
M  V30 6604 H 717.776 0.745536 0.0467492 0
M  V30 6605 H 720.438 1.85765 -0.589688 0
M  V30 6606 H 719.534 3.10762 0.288665 0
M  V30 6607 N 719.835 0.176821 1.56605 0
M  V30 6608 C 720.783 -0.768159 2.1955 0
M  V30 6609 C 721.777 -1.23343 1.16116 0
M  V30 6610 O 722.983 -1.19844 1.34303 0
M  V30 6611 H 719.358 -0.266013 0.703378 0
M  V30 6612 H 721.329 -0.213374 2.97636 0
M  V30 6613 C 720.078 -1.98492 2.85475 0
M  V30 6614 H 719.401 -1.63595 3.64797 0
M  V30 6615 H 720.841 -2.62489 3.3298 0
M  V30 6616 C 719.3 -2.81207 1.85538 0
M  V30 6617 O 719.83 -3.7854 1.34427 0
M  V30 6618 N 718.036 -2.46331 1.54173 0
M  V30 6619 H 717.583 -1.67241 1.95929 0
M  V30 6620 H 717.541 -3.01961 0.875595 0
M  V30 6621 N 721.313 -1.57302 -0.09688 0
M  V30 6622 C 722.223 -2.05258 -1.13606 0
M  V30 6623 C 723.239 -0.977137 -1.43972 0
M  V30 6624 O 724.415 -1.29018 -1.54649 0
M  V30 6625 C 721.48 -2.46593 -2.43706 0
M  V30 6626 C 720.541 -3.68322 -2.20538 0
M  V30 6627 C 719.774 -4.07676 -3.44435 0
M  V30 6628 O 719.997 -3.47141 -4.52603 0
M  V30 6629 O 718.931 -5.00641 -3.34129 0
M  V30 6630 H 722.757 -2.94069 -0.758752 0
M  V30 6631 H 720.342 -1.46164 -0.309263 0
M  V30 6632 H 722.224 -2.73814 -3.20318 0
M  V30 6633 H 720.899 -1.6092 -2.80867 0
M  V30 6634 H 719.806 -3.4622 -1.41713 0
M  V30 6635 H 721.139 -4.54769 -1.88271 0
M  V30 6636 N 722.791 0.367657 -1.53252 0
M  V30 6637 C 724.039 1.10832 -1.68999 0
M  V30 6638 C 724.36 1.89894 -0.443306 0
M  V30 6639 O 723.63 1.88235 0.54262 0
M  V30 6640 H 722.21 0.412153 -0.623008 0
M  V30 6641 H 724.872 0.414775 -1.90435 0
M  V30 6642 H 723.968 1.7993 -2.55013 0
M  V30 6643 N 724.269 1.44576 0.627338 0
M  V30 6644 C 725.199 1.54562 1.75022 0
M  V30 6645 C 726.18 0.398378 1.65369 0
M  V30 6646 O 727.365 0.61899 1.84071 0
M  V30 6647 C 724.495 1.49309 3.13567 0
M  V30 6648 C 723.449 2.62549 3.38012 0
M  V30 6649 C 722.775 2.42348 4.76625 0
M  V30 6650 C 724.075 4.04678 3.30202 0
M  V30 6651 H 725.769 2.4855 1.66922 0
M  V30 6652 H 723.315 1.19624 0.801636 0
M  V30 6653 H 725.268 1.54895 3.919 0
M  V30 6654 H 723.992 0.518392 3.2246 0
M  V30 6655 H 722.651 2.56358 2.62061 0
M  V30 6656 H 722.299 1.43062 4.82226 0
M  V30 6657 H 721.999 3.18273 4.93939 0
M  V30 6658 H 723.523 2.49758 5.57183 0
M  V30 6659 H 724.937 4.12217 3.98435 0
M  V30 6660 H 723.334 4.80836 3.5905 0
M  V30 6661 H 724.404 4.2798 2.27949 0
M  V30 6662 N 725.747 -0.868086 1.31537 0
M  V30 6663 C 726.987 -1.63526 1.22632 0
M  V30 6664 C 727.351 -1.90828 -0.211815 0
M  V30 6665 O 728.552 -2.65429 -0.424387 0
M  V30 6666 C 726.823 -2.92849 2.04876 0
M  V30 6667 S 728.382 -3.83717 2.12853 0
M  V30 6668 H 725.2 -0.56105 0.436743 0
M  V30 6669 H 727.802 -1.02908 1.66223 0
M  V30 6670 H 726.506 -2.70717 3.08449 0
M  V30 6671 H 726.037 -3.58491 1.62011 0
M  V30 6672 H 728.052 -4.79719 1.26822 0
M  V30 6673 N 727.225 -1.14528 -1.08264 0
M  V30 6674 C 728.188 -0.83632 -2.13397 0
M  V30 6675 C 729.188 0.159715 -1.60005 0
M  V30 6676 O 730.378 -0.0688098 -1.74064 0
M  V30 6677 C 727.51 -0.246973 -3.40004 0
M  V30 6678 H 728.703 -1.76808 -2.42237 0
M  V30 6679 H 726.256 -0.951509 -1.24 0
M  V30 6680 H 726.991 0.693436 -3.168 0
M  V30 6681 H 726.776 -0.964412 -3.80055 0
M  V30 6682 H 728.266 -0.0480679 -4.17572 0
M  V30 6683 N 728.703 1.26451 -0.940633 0
M  V30 6684 C 729.943 1.95537 -0.595381 0
M  V30 6685 C 730.307 1.72175 0.849683 0
M  V30 6686 O 731.508 2.3506 1.30384 0
M  V30 6687 C 729.779 3.45151 -0.927669 0
M  V30 6688 S 731.338 4.33295 -0.69288 0
M  V30 6689 H 728.156 0.676331 -0.219311 0
M  V30 6690 H 730.758 1.53411 -1.21183 0
M  V30 6691 H 729.462 3.59654 -1.9768 0
M  V30 6692 H 728.993 3.92247 -0.300921 0
M  V30 6693 H 731.008 4.94217 0.443175 0
M  V30 6694 N 730.181 0.707592 1.40822 0
M  V30 6695 C 731.091 0.0507246 2.34545 0
M  V30 6696 C 732.107 -0.752727 1.56876 0
M  V30 6697 O 733.283 -0.687524 1.89302 0
M  V30 6698 C 730.348 -0.865731 3.35717 0
M  V30 6699 C 729.409 -0.0531313 4.29267 0
M  V30 6700 C 728.642 -0.925939 5.25606 0
M  V30 6701 O 728.865 -2.16531 5.27703 0
M  V30 6702 O 727.799 -0.369194 6.00767 0
M  V30 6703 H 731.625 0.823587 2.9232 0
M  V30 6704 H 729.21 0.46801 1.4188 0
M  V30 6705 H 731.092 -1.39091 3.97783 0
M  V30 6706 H 729.767 -1.61788 2.80368 0
M  V30 6707 H 728.674 0.516931 3.70511 0
M  V30 6708 H 730.007 0.660617 4.87747 0
M  V30 6709 N 731.66 -1.50943 0.453197 0
M  V30 6710 C 733.071 -1.86699 -0.00619892 0
M  V30 6711 C 733.422 -1.3693 -1.40515 0
M  V30 6712 O 732.547 -0.726715 -2.03833 0
M  V30 6713 C 733.142 -3.38795 -0.018025 0
M  V30 6714 C 731.701 -3.74028 -0.421885 0
M  V30 6715 C 730.848 -2.74752 0.375087 0
M  V30 6716 H 733.799 -1.43942 0.668317 0
M  V30 6717 H 733.82 -3.71468 -0.824125 0
M  V30 6718 H 733.332 -3.74988 1.00028 0
M  V30 6719 H 731.433 -3.43431 -1.44521 0
M  V30 6720 H 731.546 -4.78908 -0.135664 0
M  V30 6721 H 729.91 -2.5414 -0.168794 0
M  V30 6722 H 730.693 -3.13787 1.39256 0
M  V30 6723 N 733.138 -0.185124 -1.56509 0
M  V30 6724 C 734.386 0.455357 -1.96903 0
M  V30 6725 C 734.707 1.62839 -1.07277 0
M  V30 6726 O 733.977 1.95385 -0.141966 0
M  V30 6727 H 732.557 0.171218 -0.727113 0
M  V30 6728 H 735.219 -0.26953 -1.93027 0
M  V30 6729 H 734.315 0.80616 -3.01509 0
M  V30 6730 N 734.616 1.57351 0.0885366 0
M  V30 6731 C 736.027 1.75303 0.642308 0
M  V30 6732 C 736.378 0.808238 1.78779 0
M  V30 6733 O 735.503 -0.01171 2.16397 0
M  V30 6734 C 736.098 3.17885 1.17194 0
M  V30 6735 C 734.657 3.37239 1.67172 0
M  V30 6736 C 733.804 2.7108 0.584045 0
M  V30 6737 H 736.755 1.58103 -0.137567 0
M  V30 6738 H 736.776 3.2112 2.04114 0
M  V30 6739 H 736.288 3.86625 0.338024 0
M  V30 6740 H 734.389 2.73588 2.52943 0
M  V30 6741 H 734.502 4.45594 1.76019 0
M  V30 6742 H 732.866 2.33161 1.02508 0
M  V30 6743 H 733.649 3.42464 -0.239403 0
M  V30 6744 N 736.094 -0.359525 1.53444 0
M  V30 6745 C 737.027 -1.46338 1.75101 0
M  V30 6746 C 738.005 -1.51142 0.599559 0
M  V30 6747 O 739.189 -1.69102 0.832862 0
M  V30 6748 C 736.316 -2.84667 1.83527 0
M  V30 6749 C 735.362 -2.9756 3.05549 0
M  V30 6750 S 736.195 -2.65685 4.64943 0
M  V30 6751 C 737.351 -4.06153 4.76225 0
M  V30 6752 H 737.584 -1.27747 2.68455 0
M  V30 6753 H 735.117 -0.554231 1.4411 0
M  V30 6754 H 737.075 -3.64368 1.89067 0
M  V30 6755 H 735.736 -3.00564 0.912147 0
M  V30 6756 H 734.929 -3.98883 3.08072 0
M  V30 6757 H 734.531 -2.25789 2.98153 0
M  V30 6758 H 736.823 -5.00475 4.56652 0
M  V30 6759 H 737.766 -4.08632 5.78295 0
M  V30 6760 H 738.174 -3.93435 4.04808 0
M  V30 6761 N 737.572 -1.44907 -0.619662 0
M  V30 6762 C 738.82 -1.47999 -1.37625 0
M  V30 6763 C 739.141 -0.118295 -1.94641 0
M  V30 6764 O 738.411 0.85086 -1.76457 0
M  V30 6765 H 736.991 -0.544993 -0.510873 0
M  V30 6766 H 739.653 -1.80772 -0.728522 0
M  V30 6767 H 738.749 -2.21196 -2.20179 0
M  V30 6768 N 739.05 0.861098 -1.31996 0
M  V30 6769 C 740.461 1.43065 -1.19955 0
M  V30 6770 C 740.812 1.95273 0.190489 0
M  V30 6771 O 739.937 1.87012 1.08882 0
M  V30 6772 C 740.532 2.60052 -2.1716 0
M  V30 6773 C 739.091 3.13026 -2.09026 0
M  V30 6774 C 738.238 1.85756 -2.05888 0
M  V30 6775 H 741.189 0.668834 -1.43918 0
M  V30 6776 H 741.21 3.37016 -1.76637 0
M  V30 6777 H 740.722 2.22024 -3.18319 0
M  V30 6778 H 738.823 3.55653 -1.11092 0
M  V30 6779 H 738.936 3.74707 -2.98549 0
M  V30 6780 H 737.3 2.05088 -1.51033 0
M  V30 6781 H 738.083 1.49954 -3.08818 0
M  V30 6782 N 740.528 1.15101 1.07655 0
M  V30 6783 C 741.939 0.933848 1.61667 0
M  V30 6784 C 742.29 -0.525569 1.8903 0
M  V30 6785 O 741.415 -1.39605 1.65346 0
M  V30 6786 C 742.01 1.68876 2.93711 0
M  V30 6787 C 740.569 1.51697 3.44478 0
M  V30 6788 C 739.716 1.70633 2.18586 0
M  V30 6789 H 742.667 1.30171 0.907816 0
M  V30 6790 H 742.688 1.15645 3.625 0
M  V30 6791 H 742.2 2.7509 2.73764 0
M  V30 6792 H 740.301 0.478635 3.69513 0
M  V30 6793 H 740.414 2.29194 4.20722 0
M  V30 6794 H 738.778 1.13259 2.28132 0
M  V30 6795 H 739.561 2.78206 2.01137 0
M  V30 6796 N 742.006 -1.2595 0.947325 0
M  V30 6797 C 743.254 -1.93081 0.596996 0
M  V30 6798 C 743.575 -1.74632 -0.867672 0
M  V30 6799 O 742.845 -1.1056 -1.6172 0
M  V30 6800 H 741.425 -0.714542 0.217805 0
M  V30 6801 H 744.087 -1.53265 1.20398 0
M  V30 6802 H 743.183 -3.01134 0.82004 0
M  V30 6803 N 743.484 -0.715051 -1.40445 0
M  V30 6804 C 744.895 -0.326763 -1.83818 0
M  V30 6805 C 745.246 1.13851 -1.59789 0
M  V30 6806 O 744.371 1.87611 -1.07848 0
M  V30 6807 C 744.966 -0.586297 -3.33688 0
M  V30 6808 C 743.525 -0.251724 -3.75557 0
M  V30 6809 C 742.672 -0.858928 -2.63662 0
M  V30 6810 H 745.623 -0.914241 -1.2972 0
M  V30 6811 H 745.644 0.148636 -3.8021 0
M  V30 6812 H 745.156 -1.65281 -3.51146 0
M  V30 6813 H 743.257 0.809754 -3.63695 0
M  V30 6814 H 743.37 -0.720348 -4.73654 0
M  V30 6815 H 741.734 -0.287013 -2.53078 0
M  V30 6816 H 742.517 -1.9297 -2.83932 0
M  V30 6817 N 744.962 1.50701 -0.461195 0
M  V30 6818 C 746.373 1.867 -0.00370227 0
M  V30 6819 C 746.724 1.37673 1.39787 0
M  V30 6820 O 745.849 0.737515 2.03445 0
M  V30 6821 C 746.444 3.388 5.75786e-05 0
M  V30 6822 C 745.003 3.74247 0.402044 0
M  V30 6823 C 744.15 2.74549 -0.389652 0
M  V30 6824 H 747.101 1.43585 -0.675942 0
M  V30 6825 H 747.122 3.719 0.804414 0
M  V30 6826 H 746.634 3.74452 -1.02015 0
M  V30 6827 H 744.735 3.44192 1.42697 0
M  V30 6828 H 744.848 4.78973 0.110265 0
M  V30 6829 H 743.212 2.54226 0.155314 0
M  V30 6830 H 743.995 3.13044 -1.40919 0
M  V30 6831 N 746.441 0.193421 1.56409 0
M  V30 6832 C 747.689 -0.444908 1.97142 0
M  V30 6833 C 748.01 -1.62268 1.08139 0
M  V30 6834 O 747.28 -1.95307 0.152326 0
M  V30 6835 H 745.86 -0.16736 0.728011 0
M  V30 6836 H 748.522 0.279763 1.92882 0
M  V30 6837 H 747.618 -0.790159 3.01932 0
M  V30 6838 N 747.919 -1.57396 -0.0801906 0
M  V30 6839 C 748.849 -2.06145 -1.09665 0
M  V30 6840 C 749.83 -0.953273 -1.40878 0
M  V30 6841 O 751.015 -1.22548 -1.50651 0
M  V30 6842 C 748.145 -2.49836 -2.41245 0
M  V30 6843 C 747.099 -3.64454 -2.24405 0
M  V30 6844 C 746.425 -3.94172 -3.61293 0
M  V30 6845 C 747.725 -4.94807 -1.67223 0
M  V30 6846 H 749.419 -2.91316 -0.691028 0
M  V30 6847 H 746.965 -1.40145 -0.330957 0
M  V30 6848 H 748.918 -2.82552 -3.12638 0
M  V30 6849 H 747.642 -1.61683 -2.83771 0
M  V30 6850 H 746.301 -3.32008 -1.55454 0
M  V30 6851 H 745.949 -3.03163 -4.01374 0
M  V30 6852 H 745.649 -4.71345 -3.50867 0
M  V30 6853 H 747.173 -4.29376 -4.3413 0
M  V30 6854 H 748.587 -5.25807 -2.28472 0
M  V30 6855 H 746.984 -5.76245 -1.67515 0
M  V30 6856 H 748.054 -4.80751 -0.632944 0
M  V30 6857 N 749.397 0.351382 -1.53633 0
M  V30 6858 C 750.808 0.927429 -1.62036 0
M  V30 6859 C 751.159 1.89809 -0.496706 0
M  V30 6860 O 750.284 2.1313 0.374749 0
M  V30 6861 C 750.879 1.68886 -2.93706 0
M  V30 6862 C 749.438 2.21404 -3.04397 0
M  V30 6863 C 748.585 1.03075 -2.57431 0
M  V30 6864 H 751.536 0.129748 -1.58169 0
M  V30 6865 H 751.557 2.55116 -2.82305 0
M  V30 6866 H 751.069 0.982149 -3.75467 0
M  V30 6867 H 749.17 2.95274 -2.27253 0
M  V30 6868 H 749.283 2.48312 -4.09729 0
M  V30 6869 H 747.647 1.40188 -2.12649 0
M  V30 6870 H 748.43 0.338793 -3.41624 0
M  V30 6871 N 750.875 1.45233 0.611969 0
M  V30 6872 C 752.123 1.48727 1.36838 0
M  V30 6873 C 752.444 0.128616 1.94575 0
M  V30 6874 O 751.714 -0.84149 1.76906 0
M  V30 6875 H 750.294 0.547695 0.507976 0
M  V30 6876 H 752.956 1.81156 0.718925 0
M  V30 6877 H 752.052 2.2236 2.19003 0
M  V30 6878 N 752.353 -0.854086 1.3245 0
M  V30 6879 C 753.769 -1.14238 1.11453 0
M  V30 6880 C 753.969 -2.01228 -0.10461 0
M  V30 6881 O 753.025 -2.39845 -0.789339 0
M  V30 6882 C 754.338 -1.81916 2.39431 0
M  V30 6883 C 755.886 -1.94549 2.45193 0
M  V30 6884 C 756.361 -2.65642 3.73093 0
M  V30 6885 N 757.852 -2.73167 3.74078 0
M  V30 6886 C 758.587 -3.28828 4.69744 0
M  V30 6887 N 758.083 -3.85295 5.75778 0
M  V30 6888 N 759.876 -3.26936 4.57241 0
M  V30 6889 H 752.027 -0.274786 2.10615 0
M  V30 6890 H 754.29 -0.184375 0.929898 0
M  V30 6891 H 753.996 -1.25452 3.28565 0
M  V30 6892 H 753.87 -2.82068 2.50434 0
M  V30 6893 H 756.257 -2.50172 1.56518 0
M  V30 6894 H 756.338 -0.933914 2.38142 0
M  V30 6895 H 755.982 -2.10683 4.62142 0
M  V30 6896 H 755.912 -3.6724 3.77415 0
M  V30 6897 H 758.403 -2.33108 2.97438 0
M  V30 6898 H 758.716 -4.25925 6.44832 0
M  V30 6899 H 757.061 -3.83625 5.79531 0
M  V30 6900 H 760.252 -2.8207 3.7357 0
M  V30 6901 H 760.425 -3.70014 5.31971 0
M  V30 6902 N 753.831 -1.1567 -1.07043 0
M  V30 6903 C 754.763 -0.814095 -2.14255 0
M  V30 6904 C 755.776 0.175293 -1.61854 0
M  V30 6905 O 756.965 -0.0483984 -1.78434 0
M  V30 6906 C 754.065 -0.190082 -3.38367 0
M  V30 6907 C 753.238 -1.21768 -4.20109 0
M  V30 6908 C 752.297 -0.614863 -5.22595 0
M  V30 6909 O 751.323 -1.28167 -5.54583 0
M  V30 6910 N 752.525 0.601955 -5.77371 0
M  V30 6911 H 755.29 -1.73677 -2.44247 0
M  V30 6912 H 752.851 -1.05301 -1.22977 0
M  V30 6913 H 754.843 0.22604 -4.04068 0
M  V30 6914 H 753.413 0.635992 -3.06062 0
M  V30 6915 H 752.633 -1.81025 -3.50177 0
M  V30 6916 H 753.921 -1.9114 -4.71533 0
M  V30 6917 H 753.319 1.162 -5.53637 0
M  V30 6918 H 751.876 0.96039 -6.44686 0
M  V30 6919 N 755.309 1.25446 -0.953992 0
M  V30 6920 C 756.557 1.92762 -0.607227 0
M  V30 6921 C 756.878 1.7509 0.858399 0
M  V30 6922 O 756.148 1.11416 1.61132 0
M  V30 6923 H 754.728 0.713377 -0.221591 0
M  V30 6924 H 757.39 1.52625 -1.21209 0
M  V30 6925 H 756.486 3.00695 -0.835998 0
M  V30 6926 N 756.787 0.722489 1.40064 0
M  V30 6927 C 758.012 0.273446 2.05589 0
M  V30 6928 C 758.437 -1.07875 1.54093 0
M  V30 6929 O 757.795 -1.68095 0.679252 0
M  V30 6930 C 757.843 0.271023 3.5958 0
M  V30 6931 O 756.947 -0.745499 4.05606 0
M  V30 6932 H 756.288 0.126856 0.65177 0
M  V30 6933 H 758.818 0.984906 1.79334 0
M  V30 6934 H 758.828 0.111084 4.07849 0
M  V30 6935 H 757.503 1.25776 3.96425 0
M  V30 6936 H 756.08 -0.552719 3.68781 0
M  V30 6937 N 758.265 -1.50454 0.469181 0
M  V30 6938 C 759.212 -2.28486 -0.325982 0
M  V30 6939 C 760.182 -1.33455 -0.988893 0
M  V30 6940 O 761.367 -1.6239 -1.0017 0
M  V30 6941 C 758.507 -3.15288 -1.40313 0
M  V30 6942 C 757.62 -4.25348 -0.755183 0
M  V30 6943 C 756.755 -4.9941 -1.81006 0
M  V30 6944 C 755.794 -6.01348 -1.14226 0
M  V30 6945 N 754.931 -6.68695 -2.1399 0
M  V30 6946 H 759.771 -2.95987 0.345753 0
M  V30 6947 H 757.308 -1.45965 0.182355 0
M  V30 6948 H 759.266 -3.63964 -2.03927 0
M  V30 6949 H 757.896 -2.49837 -2.04405 0
M  V30 6950 H 756.948 -3.80399 -0.00651901 0
M  V30 6951 H 758.26 -4.98279 -0.227941 0
M  V30 6952 H 757.414 -5.51794 -2.52206 0
M  V30 6953 H 756.153 -4.26181 -2.3711 0
M  V30 6954 H 755.158 -5.48225 -0.415876 0
M  V30 6955 H 756.383 -6.76548 -0.588135 0
M  V30 6956 H 754.329 -5.98258 -2.69115 0
M  V30 6957 H 754.246 -7.37495 -1.66246 0
M  V30 6958 H 755.514 -7.25697 -2.84576 0
M  V30 6959 N 759.743 -0.201713 -1.56304 0
M  V30 6960 C 760.991 0.434447 -1.97375 0
M  V30 6961 C 761.312 1.61692 -1.08998 0
M  V30 6962 O 760.582 1.95223 -0.162682 0
M  V30 6963 H 759.162 0.163497 -0.728888 0
M  V30 6964 H 761.824 -0.289988 -1.92731 0
M  V30 6965 H 760.92 0.774136 -3.02347 0
M  V30 6966 N 761.222 1.57436 0.0718424 0
M  V30 6967 C 762.499 1.78312 0.804006 0
M  V30 6968 C 762.879 0.789273 1.9579 0
M  V30 6969 O 762.227 -0.177605 2.27809 0
M  V30 6970 C 762.437 3.24798 1.277 0
M  V30 6971 C 763.785 3.88627 1.71039 0
M  V30 6972 O 764.809 3.28689 1.37266 0
M  V30 6973 O 763.668 4.94073 2.33567 0
M  V30 6974 H 760.762 0.73178 0.385262 0
M  V30 6975 H 763.308 1.69621 0.0519219 0
M  V30 6976 H 762.08 3.88688 0.45134 0
M  V30 6977 H 761.703 3.38213 2.0904 0
M  V30 6978 N 762.7 -0.34323 1.53817 0
M  V30 6979 C 763.63 -1.42709 1.84814 0
M  V30 6980 C 764.611 -1.5488 0.703297 0
M  V30 6981 O 765.796 -1.69082 0.955237 0
M  V30 6982 C 762.926 -2.79756 2.05801 0
M  V30 6983 C 761.88 -2.82392 3.21619 0
M  V30 6984 C 761.206 -4.22326 3.2794 0
M  V30 6985 C 762.506 -2.479 4.59721 0
M  V30 6986 H 764.2 -1.17018 2.75585 0
M  V30 6987 H 761.746 -0.561485 1.32602 0
M  V30 6988 H 763.699 -3.55627 2.26069 0
M  V30 6989 H 762.423 -3.06883 1.11761 0
M  V30 6990 H 761.082 -2.08974 3.01207 0
M  V30 6991 H 760.73 -4.46564 2.31494 0
M  V30 6992 H 760.43 -4.25001 4.05768 0
M  V30 6993 H 761.954 -5.00039 3.50419 0
M  V30 6994 H 763.368 -3.13484 4.80001 0
M  V30 6995 H 761.765 -2.61857 5.39954 0
M  V30 6996 H 762.835 -1.43087 4.63308 0
M  V30 6997 N 764.178 -1.45556 -0.604258 0
M  V30 6998 C 765.426 -1.4945 -1.36048 0
M  V30 6999 C 765.747 -0.138933 -1.94504 0
M  V30 7000 O 765.017 0.832097 -1.7735 0
M  V30 7001 H 763.597 -0.550381 -0.505064 0
M  V30 7002 H 766.259 -1.81535 -0.709308 0
M  V30 7003 H 765.355 -2.23519 -2.17821 0
M  V30 7004 N 765.656 0.84705 -1.32902 0
M  V30 7005 C 766.586 1.97166 -1.25091 0
M  V30 7006 C 767.567 1.69578 -0.133161 0
M  V30 7007 O 768.752 1.91519 -0.321591 0
M  V30 7008 C 765.882 3.33157 -0.981006 0
M  V30 7009 C 764.836 3.75119 -2.06082 0
M  V30 7010 C 764.162 5.08826 -1.64318 0
M  V30 7011 C 765.462 3.89774 -3.47669 0
M  V30 7012 H 767.156 2.03958 -2.19184 0
M  V30 7013 H 764.702 0.979907 -1.05517 0
M  V30 7014 H 766.655 4.11393 -0.912891 0
M  V30 7015 H 765.379 3.266 -0.00445559 0
M  V30 7016 H 764.038 2.9914 -2.11921 0
M  V30 7017 H 763.686 4.98732 -0.653876 0
M  V30 7018 H 763.386 5.37873 -2.36572 0
M  V30 7019 H 764.91 5.89546 -1.58958 0
M  V30 7020 H 766.324 4.58343 -3.44376 0
M  V30 7021 H 764.721 4.30248 -4.18338 0
M  V30 7022 H 765.791 2.92463 -3.86773 0
M  V30 7023 N 767.134 1.16236 1.06428 0
M  V30 7024 C 768.545 0.950942 1.60667 0
M  V30 7025 C 768.896 -0.505491 1.89576 0
M  V30 7026 O 768.021 -1.37843 1.66818 0
M  V30 7027 C 768.616 1.71982 2.91904 0
M  V30 7028 C 767.175 1.55342 3.4285 0
M  V30 7029 C 766.322 1.72942 2.16763 0
M  V30 7030 H 769.273 1.31126 0.893959 0
M  V30 7031 H 769.294 1.19483 3.61253 0
M  V30 7032 H 768.806 2.77978 2.70831 0
M  V30 7033 H 766.907 0.5178 3.68985 0
M  V30 7034 H 767.02 2.33643 4.18267 0
M  V30 7035 H 765.384 1.15673 2.26918 0
M  V30 7036 H 766.167 2.80324 1.98175 0
M  V30 7037 N 768.612 -1.24939 0.960631 0
M  V30 7038 C 769.86 -1.92437 0.617441 0
M  V30 7039 C 770.181 -1.75543 -0.849101 0
M  V30 7040 O 769.451 -1.12269 -1.60538 0
M  V30 7041 H 768.031 -0.712192 0.225371 0
M  V30 7042 H 770.693 -1.5198 1.22017 0
M  V30 7043 H 769.789 -3.00247 0.851933 0
M  V30 7044 N 770.09 -0.729906 -1.39679 0
M  V30 7045 C 771.336 -0.284905 -2.01395 0
M  V30 7046 C 771.691 1.11394 -1.56873 0
M  V30 7047 O 770.984 1.74765 -0.785342 0
M  V30 7048 C 771.178 -0.319564 -3.55968 0
M  V30 7049 C 771.007 -1.72024 -4.15497 0
M  V30 7050 C 769.777 -2.33128 -4.48307 0
M  V30 7051 C 771.975 -2.67296 -4.39383 0
M  V30 7052 N 769.957 -3.65403 -4.93309 0
M  V30 7053 C 771.328 -3.84298 -4.86534 0
M  V30 7054 C 773.383 -2.65124 -4.21442 0
M  V30 7055 C 772.086 -4.99455 -5.17627 0
M  V30 7056 C 774.112 -3.7942 -4.53646 0
M  V30 7057 C 773.474 -4.95156 -5.00999 0
M  V30 7058 H 769.573 -0.1504 -0.767401 0
M  V30 7059 H 772.157 -0.954783 -1.69682 0
M  V30 7060 H 770.328 0.319938 -3.8708 0
M  V30 7061 H 772.06 0.143504 -4.04445 0
M  V30 7062 H 768.815 -1.85097 -4.35931 0
M  V30 7063 H 769.239 -4.33298 -5.20175 0
M  V30 7064 H 773.881 -1.76842 -3.8404 0
M  V30 7065 H 771.599 -5.88371 -5.53937 0
M  V30 7066 H 775.185 -3.79031 -4.41392 0
M  V30 7067 H 774.065 -5.82131 -5.25446 0
M  V30 7068 N 771.568 1.50203 -0.477153 0
M  V30 7069 C 772.498 2.31517 0.303646 0
M  V30 7070 C 773.479 1.38696 0.984753 0
M  V30 7071 O 774.664 1.67615 0.980758 0
M  V30 7072 C 771.794 3.18598 1.38249 0
M  V30 7073 C 770.748 4.2002 0.822645 0
M  V30 7074 C 770.074 4.95878 2.00024 0
M  V30 7075 C 771.374 5.22023 -0.170185 0
M  V30 7076 H 773.068 2.97042 -0.375027 0
M  V30 7077 H 770.614 1.42848 -0.181802 0
M  V30 7078 H 772.567 3.74282 1.93625 0
M  V30 7079 H 771.291 2.5097 2.09002 0
M  V30 7080 H 769.95 3.65445 0.290813 0
M  V30 7081 H 769.598 4.24717 2.69489 0
M  V30 7082 H 769.298 5.64487 1.63183 0
M  V30 7083 H 770.822 5.54399 2.55878 0
M  V30 7084 H 772.236 5.72543 0.294606 0
M  V30 7085 H 770.633 5.98386 -0.453181 0
M  V30 7086 H 771.703 4.72396 -1.09408 0
M  V30 7087 N 773.046 0.209999 1.56195 0
M  V30 7088 C 774.294 -0.423974 1.97603 0
M  V30 7089 C 774.615 -1.61112 1.09854 0
M  V30 7090 O 773.885 -1.95134 0.173032 0
M  V30 7091 H 772.465 -0.159629 0.729745 0
M  V30 7092 H 775.127 0.300205 1.92574 0
M  V30 7093 H 774.223 -0.75809 3.02753 0
M  V30 7094 N 774.524 -1.57472 -0.0634922 0
M  V30 7095 C 775.752 -1.91887 -0.773767 0
M  V30 7096 C 776.167 -0.806733 -1.70696 0
M  V30 7097 O 775.524 0.219383 -1.81177 0
M  V30 7098 C 775.575 -3.26092 -1.56034 0
M  V30 7099 O 775.296 -4.33029 -0.66464 0
M  V30 7100 C 776.797 -3.74573 -2.37087 0
M  V30 7101 H 774.017 -0.634074 -0.219525 0
M  V30 7102 H 776.561 -2.04476 -0.0312828 0
M  V30 7103 H 774.716 -3.15004 -2.25502 0
M  V30 7104 H 775.13 -5.10291 -1.21258 0
M  V30 7105 H 776.604 -4.71084 -2.87722 0
M  V30 7106 H 777.081 -3.04003 -3.16984 0
M  V30 7107 H 777.687 -3.88631 -1.72759 0
M  V30 7108 N 776.003 0.335068 -1.53997 0
M  V30 7109 C 776.95 1.41187 -1.82579 0
M  V30 7110 C 777.92 1.51897 -0.672061 0
M  V30 7111 O 779.105 1.673 -0.917346 0
M  V30 7112 C 776.245 2.77717 -2.0486 0
M  V30 7113 C 775.358 2.7573 -3.32561 0
M  V30 7114 C 774.493 4.04032 -3.44864 0
M  V30 7115 C 773.532 3.96308 -4.66483 0
M  V30 7116 N 772.669 5.16317 -4.75774 0
M  V30 7117 H 777.509 1.16113 -2.74448 0
M  V30 7118 H 775.046 0.562305 -1.35928 0
M  V30 7119 H 777.004 3.57071 -2.15768 0
M  V30 7120 H 775.634 3.01124 -1.16294 0
M  V30 7121 H 774.686 1.88432 -3.3045 0
M  V30 7122 H 775.998 2.65902 -4.22016 0
M  V30 7123 H 775.152 4.91814 -3.55251 0
M  V30 7124 H 773.891 4.16652 -2.53481 0
M  V30 7125 H 772.896 3.06911 -4.56164 0
M  V30 7126 H 774.121 3.85263 -5.5924 0
M  V30 7127 H 772.067 5.29464 -3.87303 0
M  V30 7128 H 771.984 5.08779 -5.59178 0
M  V30 7129 H 773.252 6.05846 -4.9048 0
M  V30 7130 N 777.481 1.45874 0.596531 0
M  V30 7131 C 778.729 1.5017 1.35253 0
M  V30 7132 C 779.05 0.149246 1.94428 0
M  V30 7133 O 778.32 -0.82268 1.77789 0
M  V30 7134 H 776.9 0.553052 0.502138 0
M  V30 7135 H 779.562 1.81908 0.699671 0
M  V30 7136 H 778.658 2.24671 2.16632 0
M  V30 7137 N 778.959 -0.83999 1.33349 0
M  V30 7138 C 780.236 -1.57973 1.15342 0
M  V30 7139 C 780.616 -2.09226 -0.280632 0
M  V30 7140 O 779.964 -1.89317 -1.2795 0
M  V30 7141 C 780.174 -2.71446 2.19359 0
M  V30 7142 C 781.522 -3.40654 2.53456 0
M  V30 7143 O 782.546 -2.81686 2.18017 0
M  V30 7144 O 781.405 -4.47101 3.14266 0
M  V30 7145 H 778.499 -0.6964 0.446044 0
M  V30 7146 H 781.045 -0.882843 1.44927 0
M  V30 7147 H 779.817 -2.31205 3.1569 0
M  V30 7148 H 779.44 -3.488 1.90852 0
M  V30 7149 N 780.437 -1.16799 -1.0581 0
M  V30 7150 C 781.848 -0.95945 -1.60161 0
M  V30 7151 C 782.199 0.49543 -1.89842 0
M  V30 7152 O 781.324 1.36957 -1.67546 0
M  V30 7153 C 781.919 -1.73527 -2.90987 0
M  V30 7154 C 780.478 -1.57158 -3.42021 0
M  V30 7155 C 779.625 -1.74089 -2.15843 0
M  V30 7156 H 782.576 -1.31598 -0.886992 0
M  V30 7157 H 782.597 -1.21397 -3.60615 0
M  V30 7158 H 782.109 -2.79411 -2.69353 0
M  V30 7159 H 780.21 -0.537361 -3.68705 0
M  V30 7160 H 780.323 -2.35858 -4.17022 0
M  V30 7161 H 778.687 -1.16874 -2.26302 0
M  V30 7162 H 779.47 -2.81371 -1.96686 0
M  V30 7163 N 781.915 1.24427 -0.967243 0
M  V30 7164 C 783.163 1.92107 -0.627638 0
M  V30 7165 C 783.484 1.75991 0.83978 0
M  V30 7166 O 782.754 1.13118 1.59941 0
M  V30 7167 H 781.334 0.710986 -0.229145 0
M  V30 7168 H 783.996 1.51331 -1.22821 0
M  V30 7169 H 783.092 2.99791 -0.867844 0
M  V30 7170 N 783.393 0.737304 1.3929 0
M  V30 7171 C 784.804 0.355966 1.83275 0
M  V30 7172 C 785.155 -1.11295 1.6158 0
M  V30 7173 O 784.28 -1.85871 1.10819 0
M  V30 7174 C 784.875 0.63931 3.32713 0
M  V30 7175 C 783.434 0.31144 3.75109 0
M  V30 7176 C 782.581 0.900765 2.62262 0
M  V30 7177 H 785.532 0.934763 1.28249 0
M  V30 7178 H 785.553 -0.0881293 3.80398 0
M  V30 7179 H 785.065 1.70847 3.48472 0
M  V30 7180 H 783.166 -0.751791 3.64937 0
M  V30 7181 H 783.279 0.795611 4.72448 0
M  V30 7182 H 781.643 0.327239 2.52589 0
M  V30 7183 H 782.426 1.97463 2.80826 0
M  V30 7184 N 784.871 -1.49948 0.485112 0
M  V30 7185 C 786.282 -1.8667 0.0334041 0
M  V30 7186 C 786.633 -1.3988 -1.37579 0
M  V30 7187 O 785.758 -0.769788 -2.02245 0
M  V30 7188 C 786.353 -3.38757 0.0538426 0
M  V30 7189 C 784.912 -3.74839 -0.342453 0
M  V30 7190 C 784.059 -2.73894 0.433281 0
M  V30 7191 H 787.01 -1.42492 0.698699 0
M  V30 7192 H 787.031 -3.73132 -0.745146 0
M  V30 7193 H 786.543 -3.72782 1.07959 0
M  V30 7194 H 784.644 -3.46419 -1.37203 0
M  V30 7195 H 784.757 -4.79088 -0.0340503 0
M  V30 7196 H 783.121 -2.54441 -0.114849 0
M  V30 7197 H 783.904 -3.10763 1.45881 0
M  V30 7198 N 786.349 -0.21828 -1.56081 0
M  V30 7199 C 787.597 0.413488 -1.97825 0
M  V30 7200 C 787.918 1.60527 -1.10707 0
M  V30 7201 O 787.188 1.9504 -0.183378 0
M  V30 7202 H 785.768 0.155757 -0.730581 0
M  V30 7203 H 788.43 -0.310413 -1.92412 0
M  V30 7204 H 787.526 0.742024 -3.03151 0
M  V30 7205 N 787.827 1.57504 0.0551401 0
M  V30 7206 C 788.79 2.03826 1.04821 0
M  V30 7207 C 789.79 0.937968 1.30609 0
M  V30 7208 O 790.98 1.20237 1.2605 0
M  V30 7209 C 788.112 2.43309 2.38775 0
M  V30 7210 H 789.305 2.92802 0.6486 0
M  V30 7211 H 786.858 1.53368 0.301315 0
M  V30 7212 H 787.593 1.5741 2.83536 0
M  V30 7213 H 787.378 3.23615 2.21395 0
M  V30 7214 H 788.868 2.79666 3.10124 0
M  V30 7215 N 789.305 -0.326896 1.54172 0
M  V30 7216 C 790.215 -1.42525 1.86343 0
M  V30 7217 C 791.231 -1.56764 0.75505 0
M  V30 7218 O 792.407 -1.71924 1.04901 0
M  V30 7219 C 789.472 -2.77286 2.08119 0
M  V30 7220 C 788.533 -2.7225 3.31931 0
M  V30 7221 C 787.766 -4.00584 3.52659 0
M  V30 7222 O 787.989 -4.98686 2.76891 0
M  V30 7223 O 786.923 -4.04045 4.46129 0
M  V30 7224 H 790.749 -1.18249 2.79734 0
M  V30 7225 H 788.334 -0.520614 1.40036 0
M  V30 7226 H 790.216 -3.57065 2.23791 0
M  V30 7227 H 788.891 -3.01459 1.17917 0
M  V30 7228 H 787.798 -1.91033 3.21647 0
M  V30 7229 H 789.131 -2.53032 4.2218 0
M  V30 7230 N 790.784 -1.46188 -0.588786 0
M  V30 7231 C 792.032 -1.50885 -1.34455 0
M  V30 7232 C 792.353 -0.159555 -1.94346 0
M  V30 7233 O 791.623 0.813239 -1.78222 0
M  V30 7234 H 790.203 -0.555707 -0.499198 0
M  V30 7235 H 792.865 -1.82277 -0.690014 0
M  V30 7236 H 791.961 -2.25816 -2.15438 0
M  V30 7237 N 792.262 0.832906 -1.33792 0
M  V30 7238 C 793.673 1.40489 -1.22963 0
M  V30 7239 C 794.024 1.95633 0.149026 0
M  V30 7240 O 793.149 1.8928 1.04891 0
M  V30 7241 C 793.744 2.55387 -2.22627 0
M  V30 7242 C 792.303 3.08522 -2.15618 0
M  V30 7243 C 791.45 1.81347 -2.09782 0
M  V30 7244 H 794.401 0.638156 -1.45304 0
M  V30 7245 H 794.422 3.33193 -1.83746 0
M  V30 7246 H 793.934 2.15222 -3.22957 0
M  V30 7247 H 792.035 3.53217 -1.18611 0
M  V30 7248 H 792.148 3.6829 -3.0643 0
M  V30 7249 H 790.512 2.01839 -1.55349 0
M  V30 7250 H 791.295 1.43369 -3.1193 0
M  V30 7251 N 793.74 1.17359 1.05189 0
M  V30 7252 C 795.151 0.96793 1.5965 0
M  V30 7253 C 795.502 -0.485355 1.90102 0
M  V30 7254 O 794.627 -1.36066 1.6827 0
M  V30 7255 C 795.222 1.75068 2.90063 0
M  V30 7256 C 793.781 1.58969 3.41183 0
M  V30 7257 C 792.928 1.75231 2.14917 0
M  V30 7258 H 795.879 1.32067 0.880001 0
M  V30 7259 H 795.9 1.23308 3.59966 0
M  V30 7260 H 795.412 2.80835 2.67868 0
M  V30 7261 H 793.513 0.556906 3.68415 0
M  V30 7262 H 793.626 2.38067 4.15766 0
M  V30 7263 H 791.99 1.18073 2.25679 0
M  V30 7264 H 792.773 2.8241 1.95191 0
M  V30 7265 N 795.218 -1.23913 0.973828 0
M  V30 7266 C 796.466 -1.91771 0.637817 0
M  V30 7267 C 796.787 -1.76434 -0.830435 0
M  V30 7268 O 796.057 -1.13965 -1.59339 0
M  V30 7269 H 794.637 -0.709761 0.232912 0
M  V30 7270 H 797.299 -1.50677 1.23622 0
M  V30 7271 H 796.395 -2.99327 0.883731 0
M  V30 7272 N 796.696 -0.74468 -1.38897 0
M  V30 7273 C 797.626 -0.126355 -2.33158 0
M  V30 7274 C 798.607 0.713517 -1.54412 0
M  V30 7275 O 799.792 0.656523 -1.82766 0
M  V30 7276 C 796.922 0.774375 -3.38557 0
M  V30 7277 C 795.876 0.0379214 -4.27983 0
M  V30 7278 C 795.202 1.05631 -5.24162 0
M  V30 7279 C 796.502 -1.12523 -5.10035 0
M  V30 7280 H 798.196 -0.913744 -2.85116 0
M  V30 7281 H 795.742 -0.440847 -1.37086 0
M  V30 7282 H 797.695 1.21655 -4.03458 0
M  V30 7283 H 796.419 1.59399 -2.85061 0
M  V30 7284 H 795.078 -0.384733 -3.64576 0
M  V30 7285 H 794.726 1.86975 -4.66958 0
M  V30 7286 H 794.426 0.568261 -5.84846 0
M  V30 7287 H 795.95 1.49799 -5.9194 0
M  V30 7288 H 797.364 -0.761037 -5.68226 0
M  V30 7289 H 795.761 -1.54355 -5.79909 0
M  V30 7290 H 796.831 -1.94237 -4.44297 0
M  V30 7291 N 798.174 1.49689 -0.493057 0
M  V30 7292 C 799.585 1.8665 -0.0433032 0
M  V30 7293 C 799.936 1.40607 1.36836 0
M  V30 7294 O 799.061 0.780503 2.01834 0
M  V30 7295 C 799.656 3.38724 -0.0718069 0
M  V30 7296 C 798.215 3.75015 0.32257 0
M  V30 7297 C 797.362 2.7366 -0.4478 0
M  V30 7298 H 800.313 1.42119 -0.706246 0
M  V30 7299 H 800.334 3.73522 0.725347 0
M  V30 7300 H 799.846 3.72204 -1.09935 0
M  V30 7301 H 797.947 3.47142 1.35364 0
M  V30 7302 H 798.06 4.79099 0.00864259 0
M  V30 7303 H 796.424 2.54498 0.101354 0
M  V30 7304 H 797.207 3.09985 -1.47527 0
M  V30 7305 N 799.652 0.226554 1.55963 0
M  V30 7306 C 800.9 -0.402991 1.98041 0
M  V30 7307 C 801.221 -1.59938 1.11557 0
M  V30 7308 O 800.491 -1.9494 0.193719 0
M  V30 7309 H 799.071 -0.15188 0.731397 0
M  V30 7310 H 801.733 0.320613 1.92245 0
M  V30 7311 H 800.829 -0.725937 3.0354 0
M  V30 7312 N 801.13 -1.57531 -0.0467866 0
M  V30 7313 C 802.077 -2.05387 -1.05285 0
M  V30 7314 C 803.047 -0.939385 -1.36985 0
M  V30 7315 O 804.232 -1.20877 -1.47626 0
M  V30 7316 C 801.372 -2.52343 -2.35408 0
M  V30 7317 C 800.485 -3.77512 -2.10022 0
M  V30 7318 C 799.62 -4.1315 -3.33887 0
M  V30 7319 C 798.659 -5.31286 -3.03976 0
M  V30 7320 N 797.796 -5.62441 -4.20243 0
M  V30 7321 H 802.636 -2.91095 -0.637788 0
M  V30 7322 H 800.173 -1.43939 -0.303322 0
M  V30 7323 H 802.131 -2.77628 -3.11413 0
M  V30 7324 H 800.761 -1.69577 -2.7467 0
M  V30 7325 H 799.813 -3.59417 -1.24594 0
M  V30 7326 H 801.125 -4.63644 -1.83945 0
M  V30 7327 H 800.279 -4.39469 -4.18273 0
M  V30 7328 H 799.018 -3.25634 -3.63062 0
M  V30 7329 H 798.023 -5.04738 -2.17991 0
M  V30 7330 H 799.248 -6.20441 -2.76098 0
M  V30 7331 H 797.194 -4.77885 -4.49402 0
M  V30 7332 H 797.111 -6.43046 -3.97528 0
M  V30 7333 H 798.379 -5.93327 -5.05553 0
M  V30 7334 N 802.608 0.318715 -1.54344 0
M  V30 7335 C 803.558 1.39364 -1.80448 0
M  V30 7336 C 804.542 1.46708 -0.660728 0
M  V30 7337 O 805.734 1.51159 -0.920869 0
M  V30 7338 C 802.863 2.76144 -2.03959 0
M  V30 7339 C 801.949 2.73094 -3.24469 0
M  V30 7340 N 802.34 2.39663 -4.45416 0
M  V30 7341 C 800.638 3.04218 -3.2614 0
M  V30 7342 C 801.339 2.45469 -5.27371 0
M  V30 7343 N 800.315 2.82107 -4.64668 0
M  V30 7344 H 804.117 1.12453 -2.71535 0
M  V30 7345 H 801.631 0.527221 -1.53604 0
M  V30 7346 H 803.628 3.53627 -2.20802 0
M  V30 7347 H 802.288 3.03982 -1.14129 0
M  V30 7348 H 803.299 2.12424 -4.72331 0
M  V30 7349 H 799.976 3.37066 -2.4636 0
M  V30 7350 H 801.366 2.22571 -6.33965 0
M  V30 7351 N 804.086 1.46499 0.581025 0
M  V30 7352 C 805.334 1.51596 1.33653 0
M  V30 7353 C 805.655 0.169859 1.94259 0
M  V30 7354 O 804.925 -0.803776 1.78651 0
M  V30 7355 H 803.505 0.558346 0.496244 0
M  V30 7356 H 806.167 1.8264 0.680338 0
M  V30 7357 H 805.263 2.26956 2.14237 0
M  V30 7358 N 805.565 -0.825799 1.34232 0
M  V30 7359 C 806.528 -1.91808 1.25468 0
M  V30 7360 C 807.528 -1.59893 0.170567 0
M  V30 7361 O 808.718 -1.68986 0.422996 0
M  V30 7362 C 805.85 -3.27786 0.93644 0
M  V30 7363 H 807.043 -2.01003 2.22571 0
M  V30 7364 H 804.596 -1.01944 1.18479 0
M  V30 7365 H 805.331 -3.24285 -0.0315408 0
M  V30 7366 H 805.116 -3.52333 1.72057 0
M  V30 7367 H 806.606 -4.07782 0.900214 0
M  V30 7368 N 807.043 -1.17915 -1.04565 0
M  V30 7369 C 808.268 -0.996749 -1.81878 0
M  V30 7370 C 808.693 0.450169 -1.82634 0
M  V30 7371 O 808.051 1.32268 -1.23995 0
M  V30 7372 C 808.099 -1.55005 -3.25585 0
M  V30 7373 O 807.203 -0.76804 -4.05185 0
M  V30 7374 H 806.544 -0.353456 -0.562108 0
M  V30 7375 H 809.074 -1.56557 -1.31723 0
M  V30 7376 H 809.084 -1.57503 -3.76373 0
M  V30 7377 H 807.759 -2.60327 -3.2435 0
M  V30 7378 H 806.336 -0.81498 -3.63885 0
M  V30 7379 N 808.521 1.23394 -0.980386 0
M  V30 7380 C 809.769 1.91431 -0.647978 0
M  V30 7381 C 810.09 1.76871 0.821066 0
M  V30 7382 O 809.36 1.14808 1.58732 0
M  V30 7383 H 807.94 0.708516 -0.236673 0
M  V30 7384 H 810.602 1.50019 -1.2442 0
M  V30 7385 H 809.698 2.98854 -0.899592 0
M  V30 7386 N 809.999 0.752036 1.385 0
M  V30 7387 C 811.41 0.375385 1.82887 0
M  V30 7388 C 811.761 -1.09575 1.62751 0
M  V30 7389 O 810.886 -1.84685 1.12785 0
M  V30 7390 C 811.481 0.674563 3.32017 0
M  V30 7391 C 810.04 0.351208 3.74758 0
M  V30 7392 C 809.187 0.928531 2.61292 0
M  V30 7393 H 812.138 0.948313 1.27251 0
M  V30 7394 H 812.159 -0.0477781 3.8047 0
M  V30 7395 H 811.671 1.74533 3.46641 0
M  V30 7396 H 809.772 -0.713042 3.65714 0
M  V30 7397 H 809.885 0.845675 4.71577 0
M  V30 7398 H 808.249 0.354012 2.52228 0
M  V30 7399 H 809.032 2.0043 2.78716 0
M  V30 7400 N 811.477 -1.49425 0.500989 0
M  V30 7401 C 812.888 -1.86624 0.0532011 0
M  V30 7402 C 813.239 -1.41331 -1.36088 0
M  V30 7403 O 812.364 -0.791195 -2.01418 0
M  V30 7404 C 812.959 -3.38681 0.0897693 0
M  V30 7405 C 811.518 -3.75181 -0.302677 0
M  V30 7406 C 810.665 -2.73419 0.462307 0
M  V30 7407 H 813.616 -1.41743 0.713773 0
M  V30 7408 H 813.637 -3.73902 -0.705528 0
M  V30 7409 H 813.149 -3.71616 1.11907 0
M  V30 7410 H 811.25 -3.47855 -1.33521 0
M  V30 7411 H 811.363 -4.79097 0.0167653 0
M  V30 7412 H 809.727 -2.54548 -0.0878557 0
M  V30 7413 H 810.51 -3.09198 1.49169 0
M  V30 7414 N 812.955 -0.234822 -1.55841 0
M  V30 7415 C 814.203 0.392483 -1.98252 0
M  V30 7416 C 814.524 1.59344 -1.12404 0
M  V30 7417 O 813.794 1.94834 -0.204055 0
M  V30 7418 H 812.374 0.147999 -0.732192 0
M  V30 7419 H 815.036 -0.330804 -1.92072 0
M  V30 7420 H 814.132 0.709829 -3.03921 0
M  V30 7421 N 814.433 1.57553 0.0384317 0
M  V30 7422 C 815.381 2.07021 1.06043 0
M  V30 7423 C 816.375 0.982078 1.38028 0
M  V30 7424 O 817.581 1.16702 1.37042 0
M  V30 7425 H 813.956 0.660522 0.359464 0
M  V30 7426 H 815.927 2.91944 0.617339 0
M  V30 7427 C 814.676 2.55734 2.35574 0
M  V30 7428 H 813.999 3.39074 2.11822 0
M  V30 7429 H 815.439 2.94066 3.05452 0
M  V30 7430 C 813.898 1.45449 3.03885 0
M  V30 7431 O 814.428 0.815402 3.93337 0
M  V30 7432 N 812.634 1.19134 2.65058 0
M  V30 7433 H 812.181 1.71288 1.92401 0
M  V30 7434 H 812.139 0.455554 3.11082 0
M  V30 7435 N 815.911 -0.310526 1.54511 0
M  V30 7436 C 816.858 -1.38264 1.84802 0
M  V30 7437 C 817.828 -1.50808 0.696141 0
M  V30 7438 O 819.013 -1.6582 0.943846 0
M  V30 7439 C 816.153 -2.74422 2.09252 0
M  V30 7440 C 815.266 -2.70405 3.36906 0
M  V30 7441 C 814.401 -3.98495 3.51248 0
M  V30 7442 C 813.44 -3.88836 4.72729 0
M  V30 7443 N 812.577 -5.08683 4.83928 0
M  V30 7444 H 817.417 -1.11732 2.76261 0
M  V30 7445 H 814.954 -0.540609 1.36806 0
M  V30 7446 H 816.912 -3.53593 2.21422 0
M  V30 7447 H 815.542 -2.99235 1.2107 0
M  V30 7448 H 814.594 -1.83151 3.33406 0
M  V30 7449 H 815.906 -2.59155 4.26193 0
M  V30 7450 H 815.06 -4.861 3.63031 0
M  V30 7451 H 813.799 -4.12567 2.60077 0
M  V30 7452 H 812.804 -2.99615 4.60989 0
M  V30 7453 H 814.029 -3.76318 5.65298 0
M  V30 7454 H 811.975 -5.23236 3.95677 0
M  V30 7455 H 811.892 -4.99819 5.67201 0
M  V30 7456 H 813.16 -5.97966 5.00057 0
M  V30 7457 N 817.389 -1.46805 -0.573248 0
M  V30 7458 C 818.637 -1.52302 -1.32847 0
M  V30 7459 C 818.958 -0.180159 -1.94166 0
M  V30 7460 O 818.228 0.794291 -1.79075 0
M  V30 7461 H 816.808 -0.56097 -0.493276 0
M  V30 7462 H 819.47 -1.82998 -0.670642 0
M  V30 7463 H 818.566 -2.28089 -2.13031 0
M  V30 7464 N 818.867 0.818669 -1.34668 0
M  V30 7465 C 819.83 1.9114 -1.26483 0
M  V30 7466 C 820.83 1.598 -0.179044 0
M  V30 7467 O 822.02 1.6876 -0.431952 0
M  V30 7468 C 819.152 3.27285 -0.95381 0
M  V30 7469 H 820.345 1.9982 -2.23634 0
M  V30 7470 H 817.898 1.01314 -1.19018 0
M  V30 7471 H 818.633 3.24297 0.0143428 0
M  V30 7472 H 818.418 3.51416 -1.73924 0
M  V30 7473 H 819.908 4.07299 -0.921827 0
M  V30 7474 N 820.346 1.18468 1.03938 0
M  V30 7475 C 821.293 0.912859 2.1198 0
M  V30 7476 C 822.263 -0.14824 1.65437 0
M  V30 7477 O 823.448 -0.008331 1.90798 0
M  V30 7478 C 820.588 0.446114 3.42204 0
M  V30 7479 C 819.701 1.57278 4.02353 0
M  V30 7480 C 818.836 1.05863 5.20544 0
M  V30 7481 C 817.875 2.1599 5.72726 0
M  V30 7482 N 817.012 1.65959 6.82204 0
M  V30 7483 H 821.852 1.83798 2.34569 0
M  V30 7484 H 819.389 0.916504 1.15059 0
M  V30 7485 H 821.347 0.15697 4.16905 0
M  V30 7486 H 819.977 -0.442025 3.19759 0
M  V30 7487 H 819.029 1.97737 3.24968 0
M  V30 7488 H 820.341 2.40289 4.37107 0
M  V30 7489 H 819.495 0.724087 6.02364 0
M  V30 7490 H 818.234 0.198116 4.87297 0
M  V30 7491 H 817.239 2.50287 4.89527 0
M  V30 7492 H 818.464 3.02479 6.08016 0
M  V30 7493 H 816.41 0.82199 6.5083 0
M  V30 7494 H 816.327 2.42567 7.16029 0
M  V30 7495 H 817.595 1.35436 7.67644 0
M  V30 7496 N 821.824 -1.22873 0.986916 0
M  V30 7497 C 823.072 -1.91084 0.658121 0
M  V30 7498 C 823.393 -1.77304 -0.811675 0
M  V30 7499 O 822.663 -1.15649 -1.58121 0
M  V30 7500 H 821.243 -0.707251 0.240427 0
M  V30 7501 H 823.905 -1.49357 1.25213 0
M  V30 7502 H 823.001 -2.98373 0.915428 0
M  V30 7503 N 823.302 -0.75937 -1.38099 0
M  V30 7504 C 824.579 -0.243371 -1.9408 0
M  V30 7505 C 824.959 1.25942 -1.69416 0
M  V30 7506 O 824.307 2.03667 -1.03595 0
M  V30 7507 C 824.517 -0.603328 -3.43745 0
M  V30 7508 C 825.865 -0.566195 -4.20808 0
M  V30 7509 O 826.889 -0.541969 -3.52053 0
M  V30 7510 O 825.748 -0.582261 -5.43389 0
M  V30 7511 H 822.842 -0.0526825 -0.82532 0
M  V30 7512 H 825.388 -0.839884 -1.47459 0
M  V30 7513 H 824.16 -1.64098 -3.55229 0
M  V30 7514 H 823.783 0.0208887 -3.97595 0
M  V30 7515 N 824.78 1.49157 -0.508906 0
M  V30 7516 C 825.713 2.26056 0.312103 0
M  V30 7517 C 826.691 1.30982 0.963456 0
M  V30 7518 O 827.875 1.60286 0.992002 0
M  V30 7519 C 825.002 3.06555 1.4402 0
M  V30 7520 C 824.048 4.16844 0.902414 0
M  V30 7521 S 824.881 5.35076 -0.213087 0
M  V30 7522 C 826.037 6.19132 0.917985 0
M  V30 7523 H 826.27 2.95343 -0.340559 0
M  V30 7524 H 823.803 1.51569 -0.294331 0
M  V30 7525 H 825.761 3.53517 2.08653 0
M  V30 7526 H 824.422 2.36722 2.0645 0
M  V30 7527 H 823.615 4.72714 1.74806 0
M  V30 7528 H 823.217 3.72513 0.333156 0
M  V30 7529 H 825.509 6.52556 1.82145 0
M  V30 7530 H 826.452 7.06982 0.397724 0
M  V30 7531 H 826.86 5.51839 1.18889 0
M  V30 7532 N 826.258 0.243083 1.55714 0
M  V30 7533 C 827.504 -0.383287 1.99145 0
M  V30 7534 C 827.837 -1.57868 1.13098 0
M  V30 7535 O 827.112 -1.93535 0.193509 0
M  V30 7536 C 827.395 -0.796879 3.51172 0
M  V30 7537 C 827.248 0.403642 4.47985 0
M  V30 7538 C 828.567 -1.64525 4.08191 0
M  V30 7539 H 825.686 -0.137843 0.723995 0
M  V30 7540 H 828.328 0.343631 1.86867 0
M  V30 7541 H 826.478 -1.41625 3.61766 0
M  V30 7542 H 828.15 1.04204 4.49376 0
M  V30 7543 H 826.393 1.04741 4.20965 0
M  V30 7544 H 827.064 0.0709794 5.51954 0
M  V30 7545 H 829.54 -1.12246 4.00674 0
M  V30 7546 H 828.416 -1.9035 5.14838 0
M  V30 7547 H 828.677 -2.61582 3.56409 0
M  V30 7548 N 827.736 -1.57571 -0.0300757 0
M  V30 7549 C 828.982 -1.89506 -0.722159 0
M  V30 7550 C 829.315 -0.840699 -1.7506 0
M  V30 7551 O 828.59 0.144358 -1.93964 0
M  V30 7552 C 828.873 -3.32081 -1.39262 0
M  V30 7553 C 828.726 -4.48211 -0.377768 0
M  V30 7554 C 830.045 -3.73557 -2.32687 0
M  V30 7555 H 827.164 -0.689213 -0.261064 0
M  V30 7556 H 829.806 -1.89994 0.0150388 0
M  V30 7557 H 827.956 -3.31796 -2.02098 0
M  V30 7558 H 829.628 -4.6063 0.248591 0
M  V30 7559 H 827.871 -4.3274 0.303045 0
M  V30 7560 H 828.542 -5.44854 -0.885347 0
M  V30 7561 H 831.018 -3.75202 -1.79896 0
M  V30 7562 H 829.894 -4.74125 -2.7658 0
M  V30 7563 H 830.155 -3.05759 -3.19317 0
M  V30 7564 N 829.214 0.302327 -1.54673 0
M  V30 7565 C 830.439 1.06103 -1.78205 0
M  V30 7566 C 830.864 1.80204 -0.53926 0
M  V30 7567 O 830.222 1.73975 0.510142 0
M  V30 7568 C 830.27 2.01829 -2.98827 0
M  V30 7569 O 829.374 3.10108 -2.71858 0
M  V30 7570 H 828.715 0.30487 -0.589873 0
M  V30 7571 H 831.245 0.340153 -2.01753 0
M  V30 7572 H 831.255 2.44319 -3.2676 0
M  V30 7573 H 829.93 1.473 -3.88942 0
M  V30 7574 H 828.507 2.72142 -2.54937 0
M  V30 7575 N 830.692 1.47107 0.565454 0
M  V30 7576 C 832.108 1.32443 0.890566 0
M  V30 7577 C 832.308 0.308735 1.99121 0
M  V30 7578 O 831.364 -0.28265 2.50913 0
M  V30 7579 C 832.677 2.71548 1.2916 0
M  V30 7580 C 834.225 2.7977 1.40349 0
M  V30 7581 C 834.7 4.19497 1.83811 0
M  V30 7582 N 836.191 4.21998 1.90975 0
M  V30 7583 C 836.926 5.2702 2.25916 0
M  V30 7584 N 836.422 6.42353 2.59527 0
M  V30 7585 N 838.215 5.14393 2.26619 0
M  V30 7586 H 830.366 2.11786 -0.161328 0
M  V30 7587 H 832.629 0.947952 -0.00950631 0
M  V30 7588 H 832.335 3.47265 0.556753 0
M  V30 7589 H 832.209 3.02782 2.24951 0
M  V30 7590 H 834.596 2.0433 2.12916 0
M  V30 7591 H 834.677 2.522 0.427655 0
M  V30 7592 H 834.321 4.95439 1.11816 0
M  V30 7593 H 834.251 4.44486 2.82382 0
M  V30 7594 H 836.742 3.38791 1.6742 0
M  V30 7595 H 837.055 7.18252 2.85191 0
M  V30 7596 H 835.4 6.45687 2.57126 0
M  V30 7597 H 838.591 4.2332 1.99794 0
M  V30 7598 H 838.764 5.96349 2.5352 0
M  V30 7599 N 832.17 -0.811516 1.35101 0
M  V30 7600 C 833.416 -1.57068 1.28287 0
M  V30 7601 C 833.749 -1.93667 -0.143808 0
M  V30 7602 O 833.024 -1.60953 -1.09199 0
M  V30 7603 C 833.307 -2.86259 2.18466 0
M  V30 7604 C 833.16 -2.56168 3.69727 0
M  V30 7605 C 834.479 -3.87924 2.07852 0
M  V30 7606 H 831.598 -0.569869 0.467353 0
M  V30 7607 H 834.24 -0.934023 1.65457 0
M  V30 7608 H 832.39 -3.4059 1.86898 0
M  V30 7609 H 834.062 -2.08059 4.11715 0
M  V30 7610 H 832.305 -1.89436 3.90252 0
M  V30 7611 H 832.976 -3.48344 4.28206 0
M  V30 7612 H 835.452 -3.4298 2.35593 0
M  V30 7613 H 834.328 -4.76106 2.73157 0
M  V30 7614 H 834.589 -4.2923 1.05896 0
M  V30 7615 N 833.648 -1.19017 -1.03309 0
M  V30 7616 C 834.595 -0.924088 -2.11493 0
M  V30 7617 C 835.565 0.139464 -1.65513 0
M  V30 7618 O 836.75 -0.00178761 -1.908 0
M  V30 7619 C 833.89 -0.464255 -3.41963 0
M  V30 7620 C 833.003 -1.5941 -4.01513 0
M  V30 7621 C 832.138 -1.08622 -5.19976 0
M  V30 7622 C 831.177 -2.19024 -5.71572 0
M  V30 7623 N 830.314 -1.69575 -6.81314 0
M  V30 7624 H 835.154 -1.85039 -2.33591 0
M  V30 7625 H 832.691 -0.922593 -1.14572 0
M  V30 7626 H 834.649 -0.179078 -4.16815 0
M  V30 7627 H 833.279 0.425062 -3.19989 0
M  V30 7628 H 832.331 -1.99458 -3.23915 0
M  V30 7629 H 833.643 -2.42604 -4.35826 0
M  V30 7630 H 832.797 -0.756022 -6.01971 0
M  V30 7631 H 831.536 -0.223955 -4.87186 0
M  V30 7632 H 830.541 -2.5288 -4.88193 0
M  V30 7633 H 831.766 -3.05699 -6.06403 0
M  V30 7634 H 829.712 -0.856494 -6.50385 0
M  V30 7635 H 829.629 -2.46361 -7.14732 0
M  V30 7636 H 830.897 -1.39505 -7.66915 0
M  V30 7637 N 835.127 1.22348 -0.993418 0
M  V30 7638 C 836.375 1.90733 -0.668246 0
M  V30 7639 C 836.696 1.77732 0.802261 0
M  V30 7640 O 835.966 1.16486 1.57505 0
M  V30 7641 H 834.546 0.705966 -0.244174 0
M  V30 7642 H 837.208 1.48691 -1.26004 0
M  V30 7643 H 836.304 2.97883 -0.931239 0
M  V30 7644 N 836.605 0.766683 1.37694 0
M  V30 7645 C 837.555 0.123173 2.27667 0
M  V30 7646 C 838.539 -0.679436 1.45851 0
M  V30 7647 O 839.731 -0.54324 1.68457 0
M  V30 7648 C 836.86 -0.759064 3.34803 0
M  V30 7649 C 835.946 0.0511009 4.24069 0
M  V30 7650 N 836.337 1.09418 4.93823 0
M  V30 7651 C 834.635 -0.173675 4.45662 0
M  V30 7652 C 835.336 1.58546 5.59677 0
M  V30 7653 N 834.312 0.898503 5.36123 0
M  V30 7654 H 838.114 0.921859 2.79068 0
M  V30 7655 H 835.628 0.603957 1.50752 0
M  V30 7656 H 837.625 -1.23581 3.98163 0
M  V30 7657 H 836.285 -1.55655 2.84959 0
M  V30 7658 H 837.296 1.47623 4.96415 0
M  V30 7659 H 833.973 -0.943473 4.067 0
M  V30 7660 H 835.363 2.45504 6.25442 0
M  V30 7661 N 838.083 -1.48885 0.516809 0
M  V30 7662 C 839.03 -2.29408 -0.253125 0
M  V30 7663 C 840 -1.36533 -0.945935 0
M  V30 7664 O 841.185 -1.65495 -0.949527 0
M  V30 7665 C 838.325 -3.19592 -1.30211 0
M  V30 7666 C 837.438 -4.27535 -0.61948 0
M  V30 7667 C 836.573 -5.04916 -1.65026 0
M  V30 7668 C 835.612 -6.04677 -0.950368 0
M  V30 7669 N 834.749 -6.75164 -1.92608 0
M  V30 7670 H 839.589 -2.94738 0.439744 0
M  V30 7671 H 837.126 -1.45311 0.2287 0
M  V30 7672 H 839.084 -3.70267 -1.92245 0
M  V30 7673 H 837.714 -2.56213 -1.96353 0
M  V30 7674 H 836.766 -3.80228 0.114505 0
M  V30 7675 H 838.078 -4.98752 -0.0693016 0
M  V30 7676 H 837.232 -5.59539 -2.34523 0
M  V30 7677 H 835.971 -4.33508 -2.23432 0
M  V30 7678 H 834.976 -5.4927 -0.241252 0
M  V30 7679 H 836.201 -6.78077 -0.372599 0
M  V30 7680 H 834.147 -6.06517 -2.49946 0
M  V30 7681 H 834.064 -7.4241 -1.42699 0
M  V30 7682 H 835.332 -7.34384 -2.61345 0
M  V30 7683 N 839.561 -0.251338 -1.55583 0
M  V30 7684 C 840.809 0.371434 -1.98657 0
M  V30 7685 C 841.13 1.58143 -1.14087 0
M  V30 7686 O 840.4 1.94607 -0.224708 0
M  V30 7687 H 838.98 0.140225 -0.733721 0
M  V30 7688 H 841.642 -0.351157 -1.9171 0
M  V30 7689 H 840.738 0.677554 -3.04657 0
M  V30 7690 N 841.039 1.57585 0.0217189 0
M  V30 7691 C 841.949 2.10444 1.03684 0
M  V30 7692 C 842.965 1.04472 1.39146 0
M  V30 7693 O 844.141 1.36249 1.48317 0
M  V30 7694 C 841.206 2.5794 2.31664 0
M  V30 7695 C 840.267 3.78425 2.02714 0
M  V30 7696 C 839.5 4.23646 3.24592 0
M  V30 7697 O 839.723 3.6834 4.35525 0
M  V30 7698 O 838.657 5.16013 3.09862 0
M  V30 7699 H 842.483 2.97354 0.617584 0
M  V30 7700 H 840.068 1.47473 0.239174 0
M  V30 7701 H 841.95 2.88785 3.06889 0
M  V30 7702 H 840.625 1.74138 2.7287 0
M  V30 7703 H 839.532 3.52587 1.25033 0
M  V30 7704 H 840.865 4.63234 1.66359 0
M  V30 7705 N 842.517 -0.29412 1.54831 0
M  V30 7706 C 843.933 -0.640167 1.46199 0
M  V30 7707 C 844.133 -1.90426 0.658798 0
M  V30 7708 O 843.189 -2.51932 0.169228 0
M  V30 7709 C 844.502 -0.786763 2.90225 0
M  V30 7710 C 846.05 -0.882201 3.0031 0
M  V30 7711 C 846.525 -1.06074 4.45547 0
M  V30 7712 N 848.016 -1.12678 4.49286 0
M  V30 7713 C 848.751 -1.28334 5.58854 0
M  V30 7714 N 848.247 -1.40845 6.78332 0
M  V30 7715 N 850.04 -1.31277 5.46555 0
M  V30 7716 H 842.191 0.536334 2.05517 0
M  V30 7717 H 844.454 0.178363 0.93107 0
M  V30 7718 H 844.16 0.0713018 3.51628 0
M  V30 7719 H 844.034 -1.67364 3.38037 0
M  V30 7720 H 846.421 -1.73075 2.39017 0
M  V30 7721 H 846.502 0.0288405 2.55784 0
M  V30 7722 H 846.146 -0.216935 5.07437 0
M  V30 7723 H 846.076 -1.98611 4.8771 0
M  V30 7724 H 848.567 -1.04335 3.63212 0
M  V30 7725 H 848.88 -1.52566 7.57591 0
M  V30 7726 H 847.225 -1.37888 6.81184 0
M  V30 7727 H 850.416 -1.2112 4.52159 0
M  V30 7728 H 850.589 -1.43136 6.31994 0
M  V30 7729 N 843.995 -1.47404 -0.557645 0
M  V30 7730 C 845.243 -1.53703 -1.31224 0
M  V30 7731 C 845.564 -0.200742 -1.93964 0
M  V30 7732 O 844.834 0.775253 -1.79907 0
M  V30 7733 H 843.414 -0.566171 -0.487299 0
M  V30 7734 H 846.076 -1.83699 -0.651195 0
M  V30 7735 H 845.172 -2.30335 -2.10599 0
M  V30 7736 N 845.473 0.80434 -1.35529 0
M  V30 7737 C 846.884 1.37849 -1.25915 0
M  V30 7738 C 847.235 1.95905 0.107495 0
M  V30 7739 O 846.36 1.91462 1.00852 0
M  V30 7740 C 846.955 2.50608 -2.27994 0
M  V30 7741 C 845.514 3.03879 -2.22114 0
M  V30 7742 C 844.661 1.76856 -2.13582 0
M  V30 7743 H 847.612 0.607192 -1.46625 0
M  V30 7744 H 847.633 3.29221 -1.90772 0
M  V30 7745 H 847.145 2.08323 -3.27449 0
M  V30 7746 H 845.246 3.50622 -1.26077 0
M  V30 7747 H 845.359 3.61707 -3.14173 0
M  V30 7748 H 843.723 1.98498 -1.59595 0
M  V30 7749 H 844.506 1.36721 -3.14901 0
M  V30 7750 N 846.951 1.19563 1.02676 0
M  V30 7751 C 848.228 0.908857 1.73203 0
M  V30 7752 C 848.608 -0.584928 2.02834 0
M  V30 7753 O 847.956 -1.54372 1.68469 0
M  V30 7754 C 848.166 1.77105 3.00724 0
M  V30 7755 C 849.514 2.00667 3.7419 0
M  V30 7756 O 850.538 1.74274 3.10656 0
M  V30 7757 O 849.397 2.4518 4.88415 0
M  V30 7758 H 846.491 0.338909 0.754367 0
M  V30 7759 H 849.037 1.30387 1.08616 0
M  V30 7760 H 847.809 2.78303 2.7507 0
M  V30 7761 H 847.432 1.37546 3.73051 0
M  V30 7762 N 848.429 -1.21819 0.999893 0
M  V30 7763 C 849.677 -1.90375 0.678351 0
M  V30 7764 C 849.998 -1.78155 -0.792824 0
M  V30 7765 O 849.268 -1.17319 -1.56885 0
M  V30 7766 H 847.848 -0.704661 0.247915 0
M  V30 7767 H 850.51 -1.48021 1.2679 0
M  V30 7768 H 849.606 -2.97385 0.947023 0
M  V30 7769 N 849.908 -0.773975 -1.37286 0
M  V30 7770 C 851.319 -0.404433 -1.82267 0
M  V30 7771 C 851.67 1.06971 -1.64474 0
M  V30 7772 O 850.795 1.82867 -1.15708 0
M  V30 7773 C 851.39 -0.727298 -3.30902 0
M  V30 7774 C 849.949 -0.410784 -3.74152 0
M  V30 7775 C 849.096 -0.969983 -2.59782 0
M  V30 7776 H 852.047 -0.968437 -1.25726 0
M  V30 7777 H 852.068 -0.0127575 -3.80498 0
M  V30 7778 H 851.58 -1.80026 -3.4382 0
M  V30 7779 H 849.681 0.65477 -3.66802 0
M  V30 7780 H 849.794 -0.920592 -4.70172 0
M  V30 7781 H 848.158 -0.394094 -2.51633 0
M  V30 7782 H 848.941 -2.04839 -2.75492 0
M  V30 7783 N 851.386 1.48609 -0.524698 0
M  V30 7784 C 852.797 1.86516 -0.0828846 0
M  V30 7785 C 853.148 1.43478 1.33822 0
M  V30 7786 O 852.273 0.823139 2.00133 0
M  V30 7787 C 852.868 3.38495 -0.143639 0
M  V30 7788 C 851.427 3.75615 0.242951 0
M  V30 7789 C 850.574 2.72649 -0.505747 0
M  V30 7790 H 853.525 1.40589 -0.736233 0
M  V30 7791 H 853.546 3.74977 0.645955 0
M  V30 7792 H 853.058 3.69789 -1.17805 0
M  V30 7793 H 851.159 3.49935 1.27971 0
M  V30 7794 H 851.272 4.7901 -0.0929834 0
M  V30 7795 H 849.636 2.54656 0.0473482 0
M  V30 7796 H 850.419 3.06786 -1.54069 0
M  V30 7797 N 852.864 0.259585 1.55447 0
M  V30 7798 C 854.112 -0.360893 1.98852 0
M  V30 7799 C 854.433 -1.57535 1.14924 0
M  V30 7800 O 853.703 -1.94485 0.235025 0
M  V30 7801 H 852.283 -0.136332 0.734454 0
M  V30 7802 H 854.945 0.361319 1.91522 0
M  V30 7803 H 854.041 -0.661388 3.05012 0
M  V30 7804 N 854.342 -1.57594 -0.0133615 0
M  V30 7805 C 855.589 -1.8998 -0.70098 0
M  V30 7806 C 855.917 -0.858802 -1.74513 0
M  V30 7807 O 855.172 0.138209 -1.95211 0
M  V30 7808 C 855.471 -3.29121 -1.39336 0
M  V30 7809 C 855.137 -4.48298 -0.483687 0
M  V30 7810 C 853.799 -4.80635 -0.233186 0
M  V30 7811 C 856.151 -5.21003 0.143426 0
M  V30 7812 C 853.479 -5.83055 0.652943 0
M  V30 7813 C 855.831 -6.24366 1.01735 0
M  V30 7814 C 854.495 -6.55168 1.27716 0
M  V30 7815 H 853.765 -0.695187 -0.256507 0
M  V30 7816 H 856.412 -1.9146 0.0392965 0
M  V30 7817 H 854.717 -3.23703 -2.20735 0
M  V30 7818 H 856.414 -3.51433 -1.93121 0
M  V30 7819 H 853.004 -4.23024 -0.689092 0
M  V30 7820 H 857.188 -4.96286 -0.0371139 0
M  V30 7821 H 852.444 -6.05288 0.862379 0
M  V30 7822 H 856.618 -6.79839 1.5097 0
M  V30 7823 H 854.245 -7.34351 1.9655 0
M  V30 7824 N 855.82 0.285905 -1.54985 0
M  V30 7825 C 857.231 0.857869 -1.65824 0
M  V30 7826 C 857.582 1.87531 -0.576763 0
M  V30 7827 O 856.707 2.14528 0.284016 0
M  V30 7828 C 857.302 1.56277 -3.00604 0
M  V30 7829 C 855.861 2.08294 -3.13513 0
M  V30 7830 C 855.008 0.920633 -2.61571 0
M  V30 7831 H 857.959 0.0625463 -1.58577 0
M  V30 7832 H 857.98 2.42912 -2.92872 0
M  V30 7833 H 857.492 0.822017 -3.79295 0
M  V30 7834 H 855.593 2.8537 -2.39572 0
M  V30 7835 H 855.706 2.3071 -4.19892 0
M  V30 7836 H 854.07 1.31043 -2.18403 0
M  V30 7837 H 854.853 0.193594 -3.42754 0
M  V30 7838 N 857.298 1.47698 0.54982 0
M  V30 7839 C 858.546 1.54397 1.30407 0
M  V30 7840 C 858.867 0.211026 1.93855 0
M  V30 7841 O 858.137 -0.765701 1.80316 0
M  V30 7842 H 856.717 0.568747 0.484289 0
M  V30 7843 H 859.379 1.84042 0.641444 0
M  V30 7844 H 858.475 2.31449 2.09375 0
M  V30 7845 N 858.776 -0.797141 1.35954 0
M  V30 7846 C 859.708 -1.91782 1.25509 0
M  V30 7847 C 860.721 -1.61843 0.176271 0
M  V30 7848 O 861.91 -1.73235 0.430343 0
M  V30 7849 C 859.01 -3.26396 0.912073 0
M  V30 7850 C 858.183 -3.84171 2.0912 0
M  V30 7851 C 857.242 -4.9721 1.72246 0
M  V30 7852 O 856.268 -5.14136 2.44239 0
M  V30 7853 N 857.47 -5.76831 0.651611 0
M  V30 7854 H 860.235 -2.01266 2.22063 0
M  V30 7855 H 857.796 -0.975033 1.29247 0
M  V30 7856 H 859.788 -3.99499 0.646707 0
M  V30 7857 H 858.358 -3.12579 0.0359079 0
M  V30 7858 H 857.578 -3.03148 2.51982 0
M  V30 7859 H 858.866 -4.19503 2.87914 0
M  V30 7860 H 858.264 -5.65675 0.0536678 0
M  V30 7861 H 856.821 -6.50272 0.44605 0
M  V30 7862 N 860.254 -1.20106 -1.0204 0
M  V30 7863 C 861.665 -1.00992 -1.57027 0
M  V30 7864 C 862.016 0.434782 -1.91322 0
M  V30 7865 O 861.141 1.31557 -1.71819 0
M  V30 7866 C 861.736 -1.82697 -2.85319 0
M  V30 7867 C 860.295 -1.67959 -3.36848 0
M  V30 7868 C 859.442 -1.80868 -2.10195 0
M  V30 7869 H 862.393 -1.34354 -0.844676 0
M  V30 7870 H 862.414 -1.32809 -3.5657 0
M  V30 7871 H 861.926 -2.87839 -2.60328 0
M  V30 7872 H 860.027 -0.654389 -3.66809 0
M  V30 7873 H 860.14 -2.49006 -4.09308 0
M  V30 7874 H 858.504 -1.24015 -2.22469 0
M  V30 7875 H 859.287 -2.87486 -1.87635 0
M  V30 7876 N 861.732 1.21287 -1.00634 0
M  V30 7877 C 862.98 1.90013 -0.688438 0
M  V30 7878 C 863.301 1.78573 0.783365 0
M  V30 7879 O 862.571 1.1815 1.56261 0
M  V30 7880 H 861.151 0.703336 -0.251648 0
M  V30 7881 H 863.813 1.47346 -1.27574 0
M  V30 7882 H 862.909 2.96879 -0.962781 0
M  V30 7883 N 863.21 0.781244 1.36873 0
M  V30 7884 C 864.435 0.360398 2.04245 0
M  V30 7885 C 864.86 -1.01242 1.58529 0
M  V30 7886 O 864.218 -1.65063 0.749936 0
M  V30 7887 C 864.266 0.42329 3.58107 0
M  V30 7888 O 863.37 -0.572796 4.08403 0
M  V30 7889 H 862.711 0.154386 0.645803 0
M  V30 7890 H 865.241 1.06008 1.74996 0
M  V30 7891 H 865.251 0.283967 4.07011 0
M  V30 7892 H 863.926 1.42477 3.90734 0
M  V30 7893 H 862.503 -0.395809 3.70793 0
M  V30 7894 N 864.689 -1.48329 0.532571 0
M  V30 7895 C 865.639 -2.2664 -0.24868 0
M  V30 7896 C 866.623 -1.32861 -0.907563 0
M  V30 7897 O 867.815 -1.57382 -0.809942 0
M  V30 7898 C 864.944 -3.18004 -1.29339 0
M  V30 7899 C 864.03 -4.19256 -0.639166 0
M  V30 7900 N 864.421 -5.05043 0.276597 0
M  V30 7901 C 862.719 -4.36906 -0.896062 0
M  V30 7902 C 863.42 -5.78009 0.654261 0
M  V30 7903 N 862.396 -5.43598 0.0147447 0
M  V30 7904 H 866.198 -2.90344 0.455792 0
M  V30 7905 H 863.712 -1.58566 0.350778 0
M  V30 7906 H 865.709 -3.72767 -1.86682 0
M  V30 7907 H 864.369 -2.55855 -1.99921 0
M  V30 7908 H 865.38 -5.13813 0.649351 0
M  V30 7909 H 862.057 -3.85945 -1.59226 0
M  V30 7910 H 863.447 -6.57039 1.40532 0
M  V30 7911 N 866.167 -0.267825 -1.55308 0
M  V30 7912 C 867.415 0.350343 -1.9904 0
M  V30 7913 C 867.736 1.56924 -1.15758 0
M  V30 7914 O 867.006 1.94358 -0.245336 0
M  V30 7915 H 865.586 0.132435 -0.735167 0
M  V30 7916 H 868.248 -0.371471 -1.91327 0
M  V30 7917 H 867.344 0.645203 -3.05358 0
M  V30 7918 N 867.645 1.57599 0.00500368 0
M  V30 7919 C 869.061 1.55463 0.361015 0
M  V30 7920 C 869.261 0.997051 1.75103 0
M  V30 7921 O 868.317 0.628661 2.44549 0
M  V30 7922 C 869.63 2.99734 0.240828 0
M  V30 7923 C 871.178 3.11399 0.316138 0
M  V30 7924 C 871.653 4.57446 0.22513 0
M  V30 7925 N 873.144 4.62334 0.283186 0
M  V30 7926 C 873.879 5.72914 0.23603 0
M  V30 7927 N 873.375 6.92659 0.139762 0
M  V30 7928 N 875.168 5.61364 0.287529 0
M  V30 7929 H 867.319 1.92185 -0.904359 0
M  V30 7930 H 869.582 0.882529 -0.34619 0
M  V30 7931 H 869.288 3.44348 -0.715343 0
M  V30 7932 H 869.162 3.63009 1.02491 0
M  V30 7933 H 871.549 2.66718 1.26275 0
M  V30 7934 H 871.63 2.50911 -0.497725 0
M  V30 7935 H 871.274 5.02801 -0.717917 0
M  V30 7936 H 871.204 5.15874 1.05742 0
M  V30 7937 H 873.695 3.7619 0.359123 0
M  V30 7938 H 874.008 7.72722 0.10954 0
M  V30 7939 H 872.353 6.9492 0.105462 0
M  V30 7940 H 875.544 4.66707 0.360897 0
M  V30 7941 H 875.717 6.47528 0.247313 0
M  V30 7942 N 869.123 -0.277682 1.55134 0
M  V30 7943 C 870.4 -1.0309 1.66228 0
M  V30 7944 C 870.78 -2.0445 0.525701 0
M  V30 7945 O 870.128 -2.23512 -0.474816 0
M  V30 7946 C 870.338 -1.6919 3.05247 0
M  V30 7947 C 871.686 -2.20526 3.62841 0
M  V30 7948 O 872.71 -1.79185 3.07849 0
M  V30 7949 O 871.569 -2.96342 4.59177 0
M  V30 7950 H 868.663 -0.4779 0.674937 0
M  V30 7951 H 871.209 -0.273912 1.67475 0
M  V30 7952 H 869.981 -0.957163 3.79413 0
M  V30 7953 H 869.604 -2.51587 3.07879 0
M  V30 7954 N 870.601 -1.47988 -0.541979 0
M  V30 7955 C 871.849 -1.55086 -1.29587 0
M  V30 7956 C 872.17 -0.221304 -1.9374 0
M  V30 7957 O 871.44 0.756128 -1.80719 0
M  V30 7958 H 870.02 -0.571307 -0.481266 0
M  V30 7959 H 872.682 -1.8438 -0.631675 0
M  V30 7960 H 871.778 -2.32556 -2.08144 0
M  V30 7961 N 872.079 0.78992 -1.36375 0
M  V30 7962 C 873.029 1.89227 -1.27189 0
M  V30 7963 C 874.013 1.60067 -0.163498 0
M  V30 7964 O 875.205 1.72507 -0.396262 0
M  V30 7965 C 872.334 3.26431 -1.06292 0
M  V30 7966 C 871.42 3.61602 -2.21596 0
M  V30 7967 N 871.811 3.68086 -3.4691 0
M  V30 7968 C 870.109 3.9166 -2.1335 0
M  V30 7969 C 870.81 3.99481 -4.22835 0
M  V30 7970 N 869.786 4.14438 -3.5177 0
M  V30 7971 H 873.588 1.92465 -2.22113 0
M  V30 7972 H 871.102 0.985414 -1.29087 0
M  V30 7973 H 873.099 4.05267 -0.97798 0
M  V30 7974 H 871.759 3.24468 -0.122676 0
M  V30 7975 H 872.77 3.50743 -3.81051 0
M  V30 7976 H 869.447 3.97626 -1.27279 0
M  V30 7977 H 870.837 4.11425 -5.31205 0
M  V30 7978 N 873.557 1.20646 1.01402 0
M  V30 7979 C 874.52 0.959314 2.08158 0
M  V30 7980 C 875.52 -0.0661558 1.60664 0
M  V30 7981 O 876.71 0.170177 1.73367 0
M  V30 7982 C 873.842 0.444785 3.37986 0
M  V30 7983 H 875.035 1.90631 2.31517 0
M  V30 7984 H 872.588 1.02219 1.18241 0
M  V30 7985 H 873.323 -0.507553 3.20304 0
M  V30 7986 H 873.108 1.18435 3.73785 0
M  V30 7987 H 874.598 0.291443 4.16582 0
M  V30 7988 N 875.035 -1.20752 1.01276 0
M  V30 7989 C 876.283 -1.89645 0.698505 0
M  V30 7990 C 876.604 -1.78986 -0.773883 0
M  V30 7991 O 875.874 -1.18977 -1.55632 0
M  V30 7992 H 874.454 -0.701992 0.255375 0
M  V30 7993 H 877.116 -1.46668 1.28353 0
M  V30 7994 H 876.212 -2.96364 0.978512 0
M  V30 7995 N 876.513 -0.788492 -1.36457 0
M  V30 7996 C 877.423 -0.187385 -2.3385 0
M  V30 7997 C 878.439 0.659984 -1.60998 0
M  V30 7998 O 879.615 0.575986 -1.92988 0
M  V30 7999 C 876.68 0.668525 -3.40194 0
M  V30 8000 C 875.741 -0.197234 -4.28847 0
M  V30 8001 C 874.974 0.61792 -5.30111 0
M  V30 8002 O 875.197 1.85396 -5.3943 0
M  V30 8003 O 874.131 0.0183016 -6.01897 0
M  V30 8004 H 877.957 -0.992617 -2.87021 0
M  V30 8005 H 875.542 -0.549934 -1.3891 0
M  V30 8006 H 877.424 1.15663 -4.05216 0
M  V30 8007 H 876.099 1.45166 -2.89324 0
M  V30 8008 H 875.006 -0.73207 -3.66867 0
M  V30 8009 H 876.339 -0.943863 -4.83065 0
M  V30 8010 N 877.991 1.48044 -0.54043 0
M  V30 8011 C 878.938 2.29781 0.216597 0
M  V30 8012 C 879.908 1.38021 0.924094 0
M  V30 8013 O 881.093 1.66985 0.923078 0
M  V30 8014 C 878.233 3.21623 1.2511 0
M  V30 8015 C 877.346 4.28467 0.551384 0
M  V30 8016 C 876.481 5.07477 1.56972 0
M  V30 8017 C 875.52 6.06113 0.854048 0
M  V30 8018 N 874.657 6.78143 1.81842 0
M  V30 8019 H 879.497 2.94001 -0.486578 0
M  V30 8020 H 877.034 1.44929 -0.251789 0
M  V30 8021 H 878.992 3.73279 1.8633 0
M  V30 8022 H 877.622 2.59305 1.92252 0
M  V30 8023 H 876.674 3.79997 -0.174982 0
M  V30 8024 H 877.986 4.98799 -0.0100542 0
M  V30 8025 H 877.14 5.63199 2.25592 0
M  V30 8026 H 875.879 4.37008 2.16507 0
M  V30 8027 H 874.884 5.49585 0.153838 0
M  V30 8028 H 876.109 6.78584 0.264675 0
M  V30 8029 H 874.055 6.10417 2.40265 0
M  V30 8030 H 873.972 7.44587 1.3087 0
M  V30 8031 H 875.24 7.38448 2.49628 0
M  V30 8032 N 879.47 0.276058 1.55163 0
M  V30 8033 C 880.718 -0.339782 1.99223 0
M  V30 8034 C 881.039 -1.56307 1.16589 0
M  V30 8035 O 880.309 -1.94225 0.25564 0
M  V30 8036 H 878.889 -0.128534 0.735859 0
M  V30 8037 H 881.551 0.381612 1.91128 0
M  V30 8038 H 880.647 -0.629 3.05696 0
M  V30 8039 N 880.948 -1.576 0.00335426 0
M  V30 8040 C 882.225 -1.81945 -0.718015 0
M  V30 8041 C 882.605 -0.881788 -1.91801 0
M  V30 8042 O 881.953 0.0687118 -2.28397 0
M  V30 8043 C 882.163 -3.30521 -1.12058 0
M  V30 8044 C 883.511 -3.96345 -1.52303 0
M  V30 8045 O 884.535 -3.34864 -1.21428 0
M  V30 8046 O 883.394 -5.04655 -2.09728 0
M  V30 8047 H 880.488 -0.749328 -0.34991 0
M  V30 8048 H 883.034 -1.69675 0.0290654 0
M  V30 8049 H 881.806 -3.90399 -0.265378 0
M  V30 8050 H 881.429 -3.47802 -1.92665 0
M  V30 8051 N 882.426 0.269451 -1.5528 0
M  V30 8052 C 883.837 0.840233 -1.66724 0
M  V30 8053 C 884.188 1.86909 -0.596621 0
M  V30 8054 O 883.313 2.14817 0.261246 0
M  V30 8055 C 883.908 1.5308 -3.02245 0
M  V30 8056 C 882.467 2.04957 -3.15705 0
M  V30 8057 C 881.614 0.892838 -2.62533 0
M  V30 8058 H 884.565 0.0457236 -1.58634 0
M  V30 8059 H 884.586 2.39792 -2.95432 0
M  V30 8060 H 884.098 0.781741 -3.80145 0
M  V30 8061 H 882.199 2.82813 -2.42585 0
M  V30 8062 H 882.312 2.26244 -4.22316 0
M  V30 8063 H 880.676 1.28719 -2.19781 0
M  V30 8064 H 881.459 0.157229 -3.4294 0
M  V30 8065 N 883.904 1.48273 0.534124 0
M  V30 8066 C 885.152 1.55771 1.28762 0
M  V30 8067 C 885.473 0.231575 1.9362 0
M  V30 8068 O 884.743 -0.746533 1.81118 0
M  V30 8069 H 883.323 0.573851 0.47823 0
M  V30 8070 H 885.985 1.84712 0.621888 0
M  V30 8071 H 885.081 2.33657 2.06908 0
M  V30 8072 N 885.382 -0.782676 1.36792 0
M  V30 8073 C 886.793 -1.35828 1.28092 0
M  V30 8074 C 887.144 -1.96052 -0.076315 0
M  V30 8075 O 886.269 -1.93042 -0.977935 0
M  V30 8076 C 886.864 -2.46949 2.31952 0
M  V30 8077 C 885.423 -3.00307 2.2692 0
M  V30 8078 C 884.57 -1.73436 2.16368 0
M  V30 8079 H 887.521 -0.583788 1.47572 0
M  V30 8080 H 887.542 -3.26144 1.95986 0
M  V30 8081 H 887.054 -2.03087 3.30722 0
M  V30 8082 H 885.155 -3.48571 1.31639 0
M  V30 8083 H 885.268 -3.56663 3.19887 0
M  V30 8084 H 883.632 -1.95934 1.62733 0
M  V30 8085 H 884.415 -1.31693 3.17036 0
M  V30 8086 N 886.86 -1.21182 -1.00761 0
M  V30 8087 C 888.271 -1.02652 -1.55947 0
M  V30 8088 C 888.622 0.414466 -1.91772 0
M  V30 8089 O 887.747 1.29727 -1.73204 0
M  V30 8090 C 888.342 -1.85713 -2.83366 0
M  V30 8091 C 886.901 -1.71523 -3.35048 0
M  V30 8092 C 886.048 -1.83087 -2.08265 0
M  V30 8093 H 888.999 -1.35242 -0.830379 0
M  V30 8094 H 889.02 -1.36583 -3.55141 0
M  V30 8095 H 888.532 -2.90584 -2.5726 0
M  V30 8096 H 886.633 -0.693257 -3.66094 0
M  V30 8097 H 886.746 -2.53333 -4.06644 0
M  V30 8098 H 885.11 -1.26367 -2.21141 0
M  V30 8099 H 885.893 -2.8946 -1.84575 0
M  V30 8100 N 888.338 1.20213 -1.01915 0
M  V30 8101 C 889.586 1.89272 -0.708552 0
M  V30 8102 C 889.907 1.79394 0.76438 0
M  V30 8103 O 889.177 1.198 1.54999 0
M  V30 8104 H 887.757 0.700628 -0.259094 0
M  V30 8105 H 890.419 1.45985 -1.29129 0
M  V30 8106 H 889.515 2.95841 -0.994215 0
M  V30 8107 N 889.816 0.795718 1.36037 0
M  V30 8108 C 891.093 0.294743 1.93367 0
M  V30 8109 C 891.473 -1.21406 1.72696 0
M  V30 8110 O 890.821 -2.00849 1.08959 0
M  V30 8111 C 891.031 0.694254 3.42025 0
M  V30 8112 C 892.379 0.677566 4.19159 0
M  V30 8113 O 893.403 0.635119 3.50492 0
M  V30 8114 O 892.262 0.726127 5.41655 0
M  V30 8115 H 889.356 0.0745459 0.823633 0
M  V30 8116 H 891.902 0.878685 1.4518 0
M  V30 8117 H 890.674 1.73458 3.50753 0
M  V30 8118 H 890.297 0.0845338 3.9751 0
M  V30 8119 N 891.294 -1.47756 0.548274 0
M  V30 8120 C 892.244 -2.26891 -0.224628 0
M  V30 8121 C 893.228 -1.33816 -0.893421 0
M  V30 8122 O 894.42 -1.58232 -0.793204 0
M  V30 8123 C 891.549 -3.19358 -1.25959 0
M  V30 8124 C 890.635 -4.1991 -0.594662 0
M  V30 8125 N 891.026 -5.04721 0.330148 0
M  V30 8126 C 889.324 -4.37832 -0.849672 0
M  V30 8127 C 890.025 -5.77282 0.71553 0
M  V30 8128 N 889.001 -5.43552 0.0723997 0
M  V30 8129 H 892.803 -2.89844 0.486561 0
M  V30 8130 H 890.317 -1.58185 0.367577 0
M  V30 8131 H 892.314 -3.74726 -1.82718 0
M  V30 8132 H 890.974 -2.57961 -1.97196 0
M  V30 8133 H 891.985 -5.13095 0.703811 0
M  V30 8134 H 888.662 -3.87612 -1.55123 0
M  V30 8135 H 890.052 -6.55512 1.47493 0
M  V30 8136 N 892.772 -0.284283 -1.55015 0
M  V30 8137 C 893.682 0.60906 -2.26556 0
M  V30 8138 C 894.698 1.16246 -1.29472 0
M  V30 8139 O 895.874 1.1908 -1.62425 0
M  V30 8140 C 892.939 1.77246 -2.97968 0
M  V30 8141 C 892 1.25482 -4.10552 0
M  V30 8142 C 891.233 2.36277 -4.78549 0
M  V30 8143 O 891.456 3.55829 -4.45805 0
M  V30 8144 O 890.39 2.03914 -5.66306 0
M  V30 8145 H 894.216 0.0292298 -3.03686 0
M  V30 8146 H 891.801 -0.0513466 -1.49312 0
M  V30 8147 H 893.683 2.45062 -3.42815 0
M  V30 8148 H 892.358 2.33921 -2.23747 0
M  V30 8149 H 891.265 0.542859 -3.7014 0
M  V30 8150 H 892.598 0.733708 -4.86701 0
M  V30 8151 N 894.251 1.57596 -0.0117121 0
M  V30 8152 C 895.528 1.82323 0.708356 0
M  V30 8153 C 895.908 0.891947 1.91331 0
M  V30 8154 O 895.256 -0.0565984 2.2843 0
M  V30 8155 C 895.466 3.31111 1.10303 0
M  V30 8156 C 896.814 3.97147 1.50199 0
M  V30 8157 O 897.838 3.35503 1.1965 0
M  V30 8158 O 896.697 5.0576 2.07049 0
M  V30 8159 H 893.791 0.751173 0.345931 0
M  V30 8160 H 896.337 1.69657 -0.0380632 0
M  V30 8161 H 895.109 3.90534 0.24467 0
M  V30 8162 H 894.732 3.48818 1.90818 0
M  V30 8163 N 895.729 -0.261212 1.5542 0
M  V30 8164 C 896.692 -1.30645 1.8832 0
M  V30 8165 C 897.692 -1.41782 0.758588 0
M  V30 8166 O 898.882 -1.40729 1.02669 0
M  V30 8167 C 896.014 -2.6862 2.09895 0
M  V30 8168 H 897.207 -1.02698 2.81768 0
M  V30 8169 H 894.76 -0.499838 1.48092 0
M  V30 8170 H 895.495 -3.0173 1.18868 0
M  V30 8171 H 895.28 -2.61921 2.91787 0
M  V30 8172 H 896.77 -3.44121 2.36581 0
M  V30 8173 N 897.207 -1.48554 -0.526253 0
M  V30 8174 C 898.435 -1.60429 -1.30652 0
M  V30 8175 C 898.85 -0.265963 -1.86917 0
M  V30 8176 O 898.207 0.745262 -1.6659 0
M  V30 8177 C 898.258 -2.65377 -2.45473 0
M  V30 8178 O 897.979 -3.94017 -1.91527 0
M  V30 8179 C 899.48 -2.87726 -3.37237 0
M  V30 8180 H 896.7 -0.540817 -0.397187 0
M  V30 8181 H 899.244 -1.94409 -0.634461 0
M  V30 8182 H 897.399 -2.34246 -3.08557 0
M  V30 8183 H 897.813 -4.51623 -2.66715 0
M  V30 8184 H 899.287 -3.64951 -4.14144 0
M  V30 8185 H 899.764 -1.96688 -3.92696 0
M  V30 8186 H 900.37 -3.20176 -2.79942 0
M  V30 8187 N 898.685 0.775411 -1.37205 0
M  V30 8188 C 900.096 1.35147 -1.28811 0
M  V30 8189 C 900.447 1.96089 0.0659168 0
M  V30 8190 O 899.572 1.93558 0.967684 0
M  V30 8191 C 900.167 2.45715 -2.33258 0
M  V30 8192 C 898.726 2.99099 -2.2851 0
M  V30 8193 C 897.873 1.72286 -2.17285 0
M  V30 8194 H 900.824 0.575954 -1.4788 0
M  V30 8195 H 900.845 3.251 -1.97712 0
M  V30 8196 H 900.357 2.01331 -3.31795 0
M  V30 8197 H 898.458 3.47868 -1.33485 0
M  V30 8198 H 898.571 3.54962 -3.21774 0
M  V30 8199 H 896.935 1.95068 -1.6377 0
M  V30 8200 H 897.718 1.3001 -3.1773 0
M  V30 8201 N 900.163 1.21714 1.00117 0
M  V30 8202 C 901.411 1.03465 1.73607 0
M  V30 8203 C 901.732 -0.432295 1.90148 0
M  V30 8204 O 901.002 -1.31157 1.45515 0
M  V30 8205 H 899.582 0.379857 0.643209 0
M  V30 8206 H 902.244 1.53088 1.20624 0
M  V30 8207 H 901.34 1.50574 2.73375 0
M  V30 8208 N 901.641 -1.19671 1.02551 0
M  V30 8209 C 902.889 -1.88894 0.71858 0
M  V30 8210 C 903.21 -1.79797 -0.754856 0
M  V30 8211 O 902.48 -1.20621 -1.54362 0
M  V30 8212 H 901.06 -0.699244 0.262806 0
M  V30 8213 H 903.722 -1.45298 1.29902 0
M  V30 8214 H 902.818 -2.95309 1.00989 0
M  V30 8215 N 903.119 -0.802921 -1.35613 0
M  V30 8216 C 904.066 -0.20874 -2.29854 0
M  V30 8217 C 905.036 0.655128 -1.52634 0
M  V30 8218 O 906.221 0.600979 -1.81088 0
M  V30 8219 C 903.361 0.639663 -3.3912 0
M  V30 8220 C 902.474 -0.244234 -4.31309 0
M  V30 8221 C 901.609 0.611825 -5.27665 0
M  V30 8222 C 900.648 -0.272698 -6.11492 0
M  V30 8223 N 899.785 0.543122 -6.99996 0
M  V30 8224 H 904.625 -1.01782 -2.80079 0
M  V30 8225 H 902.162 -0.513465 -1.37848 0
M  V30 8226 H 904.12 1.14668 -4.01132 0
M  V30 8227 H 902.75 1.41404 -2.9018 0
M  V30 8228 H 901.802 -0.869322 -3.70334 0
M  V30 8229 H 903.114 -0.925202 -4.90144 0
M  V30 8230 H 902.268 1.18412 -5.95032 0
M  V30 8231 H 901.007 1.32637 -4.69317 0
M  V30 8232 H 900.012 -0.857287 -5.43075 0
M  V30 8233 H 901.237 -0.985051 -6.71918 0
M  V30 8234 H 899.183 1.24171 -6.44141 0
M  V30 8235 H 899.1 -0.0798767 -7.55958 0
M  V30 8236 H 900.368 1.09881 -7.71717 0
M  V30 8237 N 904.597 1.47463 -0.556102 0
M  V30 8238 C 905.845 2.02075 -0.0315712 0
M  V30 8239 C 906.166 1.43292 1.32259 0
M  V30 8240 O 905.436 0.60771 1.86236 0
M  V30 8241 H 904.016 0.74695 -0.0086816 0
M  V30 8242 H 906.678 1.80879 -0.725859 0
M  V30 8243 H 905.774 3.12047 0.0573538 0
M  V30 8244 N 906.075 0.2925 1.54862 0
M  V30 8245 C 907.322 -0.319263 1.99967 0
M  V30 8246 C 907.65 -1.54547 1.18092 0
M  V30 8247 O 906.905 -1.94186 0.242969 0
M  V30 8248 C 907.204 -0.728674 3.49893 0
M  V30 8249 C 906.87 0.394836 4.49168 0
M  V30 8250 C 905.532 0.703289 4.76033 0
M  V30 8251 C 907.884 1.15103 5.08331 0
M  V30 8252 C 905.212 1.77121 5.59325 0
M  V30 8253 C 907.564 2.20881 5.92785 0
M  V30 8254 C 906.228 2.52342 6.17964 0
M  V30 8255 H 905.498 -0.116827 0.731733 0
M  V30 8256 H 908.145 0.40983 1.87063 0
M  V30 8257 H 906.45 -1.53772 3.60363 0
M  V30 8258 H 908.147 -1.21305 3.82212 0
M  V30 8259 H 904.737 0.144319 4.28357 0
M  V30 8260 H 908.921 0.92599 4.87585 0
M  V30 8261 H 904.177 2.01978 5.77074 0
M  V30 8262 H 908.351 2.79939 6.37657 0
M  V30 8263 H 905.978 3.35225 6.82296 0
M  V30 8264 N 907.553 -1.57587 0.0200696 0
M  V30 8265 C 908.964 -1.79312 -0.520019 0
M  V30 8266 C 909.315 -0.929475 -1.72787 0
M  V30 8267 O 908.44 -0.137389 -2.15963 0
M  V30 8268 C 909.035 -3.25203 -0.950172 0
M  V30 8269 C 907.594 -3.47954 -1.43543 0
M  V30 8270 C 906.741 -2.74459 -0.395917 0
M  V30 8271 H 909.692 -1.56779 0.246153 0
M  V30 8272 H 909.713 -3.34418 -1.81508 0
M  V30 8273 H 909.225 -3.88035 -0.070883 0
M  V30 8274 H 907.326 -2.90363 -2.33495 0
M  V30 8275 H 907.439 -4.56661 -1.44905 0
M  V30 8276 H 905.803 -2.39669 -0.862022 0
M  V30 8277 H 906.586 -3.40001 0.47475 0
M  V30 8278 N 909.032 0.252966 -1.55557 0
M  V30 8279 C 910.28 0.979912 -1.76754 0
M  V30 8280 C 910.601 1.86083 -0.582944 0
M  V30 8281 O 909.871 1.91742 0.401497 0
M  V30 8282 H 908.451 0.364805 -0.651864 0
M  V30 8283 H 911.113 0.272372 -1.92987 0
M  V30 8284 H 910.209 1.60518 -2.67657 0
M  V30 8285 N 910.51 1.48831 0.518367 0
M  V30 8286 C 911.921 1.50842 1.10016 0
M  V30 8287 C 912.272 0.284744 1.94123 0
M  V30 8288 O 911.397 -0.607088 2.0771 0
M  V30 8289 C 911.992 2.73329 2.00191 0
M  V30 8290 C 910.551 2.78175 2.53566 0
M  V30 8291 C 909.698 2.4452 1.30786 0
M  V30 8292 H 912.649 1.55779 0.303073 0
M  V30 8293 H 912.67 2.52506 2.84642 0
M  V30 8294 H 912.182 3.62374 1.3895 0
M  V30 8295 H 910.283 1.93368 3.18496 0
M  V30 8296 H 910.396 3.79905 2.91906 0
M  V30 8297 H 908.76 1.95924 1.62744 0
M  V30 8298 H 909.543 3.35819 0.712797 0
M  V30 8299 N 911.988 -0.768124 1.37614 0
M  V30 8300 C 912.918 -1.89537 1.36374 0
M  V30 8301 C 913.899 -1.68513 0.231803 0
M  V30 8302 O 915.084 -1.89318 0.432705 0
M  V30 8303 C 912.214 -3.26871 1.17358 0
M  V30 8304 C 911.168 -3.62466 2.27602 0
M  V30 8305 C 910.494 -4.9838 1.93705 0
M  V30 8306 C 911.794 -3.68841 3.69802 0
M  V30 8307 H 913.488 -1.90832 2.30702 0
M  V30 8308 H 911.034 -0.91672 1.11051 0
M  V30 8309 H 912.987 -4.05371 1.15119 0
M  V30 8310 H 911.711 -3.26018 0.194865 0
M  V30 8311 H 910.37 -2.86276 2.29002 0
M  V30 8312 H 910.018 -4.94071 0.943539 0
M  V30 8313 H 909.718 -5.23165 2.6753 0
M  V30 8314 H 911.242 -5.79276 1.93059 0
M  V30 8315 H 912.656 -4.37485 3.70513 0
M  V30 8316 H 911.053 -4.05126 4.42711 0
M  V30 8317 H 912.123 -2.69415 4.03167 0
M  V30 8318 N 913.466 -1.22244 -0.994698 0
M  V30 8319 C 914.714 -1.04384 -1.73056 0
M  V30 8320 C 915.035 0.422204 -1.90374 0
M  V30 8321 O 914.305 1.30383 -1.46209 0
M  V30 8322 H 912.885 -0.383263 -0.641185 0
M  V30 8323 H 915.547 -1.53725 -1.1981 0
M  V30 8324 H 914.643 -1.52021 -2.72573 0
M  V30 8325 N 914.944 1.19125 -1.03184 0
M  V30 8326 C 916.355 1.70564 -0.759264 0
M  V30 8327 C 916.706 1.8248 0.720794 0
M  V30 8328 O 915.831 1.49804 1.56166 0
M  V30 8329 C 916.426 3.09793 -1.37163 0
M  V30 8330 C 914.985 3.5848 -1.14757 0
M  V30 8331 C 914.132 2.35265 -1.46784 0
M  V30 8332 H 917.083 1.03925 -1.19939 0
M  V30 8333 H 917.104 3.72624 -0.77015 0
M  V30 8334 H 916.616 3.01088 -2.44882 0
M  V30 8335 H 914.717 3.72494 -0.0887182 0
M  V30 8336 H 914.83 4.42426 -1.83836 0
M  V30 8337 H 913.194 2.38747 -0.887254 0
M  V30 8338 H 913.977 2.29188 -2.55593 0
M  V30 8339 N 916.422 0.810101 1.35185 0
M  V30 8340 C 917.833 0.452616 1.81131 0
M  V30 8341 C 918.184 -1.02573 1.67252 0
M  V30 8342 O 917.309 -1.79735 1.20516 0
M  V30 8343 C 917.904 0.814775 3.28857 0
M  V30 8344 C 916.463 0.509839 3.72931 0
M  V30 8345 C 915.61 1.03852 2.57119 0
M  V30 8346 H 918.561 1.00143 1.23114 0
M  V30 8347 H 918.582 0.113635 3.8033 0
M  V30 8348 H 918.094 1.89078 3.38926 0
M  V30 8349 H 916.195 -0.557289 3.68409 0
M  V30 8350 H 916.308 1.04493 4.67566 0
M  V30 8351 H 914.672 0.460671 2.50499 0
M  V30 8352 H 915.455 2.12071 2.69964 0
M  V30 8353 N 917.9 -1.47166 0.563914 0
M  V30 8354 C 919.148 -2.02056 0.0422873 0
M  V30 8355 C 919.469 -1.43992 -1.31497 0
M  V30 8356 O 918.739 -0.617578 -1.85911 0
M  V30 8357 H 917.319 -0.746893 0.0126427 0
M  V30 8358 H 919.981 -1.80492 0.735441 0
M  V30 8359 H 919.077 -3.12073 -0.0408044 0
M  V30 8360 N 919.378 -0.300708 -1.54705 0
M  V30 8361 C 920.325 0.57552 -2.23509 0
M  V30 8362 C 921.295 1.12979 -1.21758 0
M  V30 8363 O 922.48 1.17437 -1.50377 0
M  V30 8364 C 919.62 1.74167 -2.97926 0
M  V30 8365 C 918.733 1.21882 -4.1445 0
M  V30 8366 C 917.868 2.34881 -4.7645 0
M  V30 8367 C 916.907 1.79729 -5.85119 0
M  V30 8368 N 916.044 2.863 -6.41075 0
M  V30 8369 H 920.884 -0.0178257 -2.97995 0
M  V30 8370 H 918.421 -0.0205666 -1.47086 0
M  V30 8371 H 920.379 2.42753 -3.39303 0
M  V30 8372 H 919.009 2.30665 -2.25817 0
M  V30 8373 H 918.061 0.425227 -3.78016 0
M  V30 8374 H 919.373 0.775065 -4.92741 0
M  V30 8375 H 918.527 3.11415 -5.20678 0
M  V30 8376 H 917.266 2.82584 -3.97489 0
M  V30 8377 H 916.271 1.01684 -5.40315 0
M  V30 8378 H 917.496 1.32931 -6.65963 0
M  V30 8379 H 915.442 3.33337 -5.64998 0
M  V30 8380 H 915.359 2.46419 -7.14712 0
M  V30 8381 H 916.627 3.62732 -6.89961 0
M  V30 8382 N 920.856 1.57574 -0.0284266 0
M  V30 8383 C 921.819 2.09096 0.938691 0
M  V30 8384 C 922.819 1.00588 1.25454 0
M  V30 8385 O 924.009 1.2675 1.19499 0
M  V30 8386 C 921.141 2.55624 2.25542 0
M  V30 8387 H 922.334 2.95829 0.49248 0
M  V30 8388 H 919.887 1.5475 0.219594 0
M  V30 8389 H 920.622 1.72218 2.74793 0
M  V30 8390 H 920.407 3.34896 2.03929 0
M  V30 8391 H 921.897 2.95712 2.94863 0
M  V30 8392 N 922.334 -0.244713 1.55689 0
M  V30 8393 C 923.582 -0.970525 1.77272 0
M  V30 8394 C 923.903 -1.85771 0.592804 0
M  V30 8395 O 923.173 -1.91952 -0.391323 0
M  V30 8396 H 921.753 -0.361342 0.653789 0
M  V30 8397 H 924.415 -0.262134 1.93129 0
M  V30 8398 H 923.511 -1.59096 2.68505 0
M  V30 8399 N 923.813 -1.49104 -0.510467 0
M  V30 8400 C 925.224 -1.51423 -1.09215 0
M  V30 8401 C 925.575 -0.295035 -1.93969 0
M  V30 8402 O 924.7 0.596064 -2.08029 0
M  V30 8403 C 925.295 -2.74387 -1.98739 0
M  V30 8404 C 923.854 -2.79515 -2.52088 0
M  V30 8405 C 923.001 -2.4521 -1.29488 0
M  V30 8406 H 925.952 -1.55938 -0.294807 0
M  V30 8407 H 925.973 -2.54012 -2.83298 0
M  V30 8408 H 925.485 -3.63105 -1.37026 0
M  V30 8409 H 923.586 -1.95054 -3.17466 0
M  V30 8410 H 923.699 -3.81447 -2.89887 0
M  V30 8411 H 922.063 -1.96785 -1.61703 0
M  V30 8412 H 922.846 -3.36192 -0.694978 0
M  V30 8413 N 925.291 0.760815 -1.38019 0
M  V30 8414 C 926.537 1.52198 -1.34028 0
M  V30 8415 C 926.87 1.94067 0.0718309 0
M  V30 8416 O 926.145 1.64895 1.0315 0
M  V30 8417 C 926.428 2.77954 -2.2894 0
M  V30 8418 C 926.281 2.42269 -3.7898 0
M  V30 8419 C 927.6 3.79943 -2.22107 0
M  V30 8420 H 924.719 0.552131 -0.488181 0
M  V30 8421 H 927.361 0.871971 -1.6881 0
M  V30 8422 H 925.511 3.33419 -1.9941 0
M  V30 8423 H 927.183 1.92635 -4.19153 0
M  V30 8424 H 925.426 1.74822 -3.97014 0
M  V30 8425 H 926.097 3.32211 -4.4084 0
M  V30 8426 H 928.573 3.34 -2.4816 0
M  V30 8427 H 927.449 4.6564 -2.90639 0
M  V30 8428 H 927.71 4.25004 -1.21753 0
M  V30 8429 N 926.769 1.22769 0.988202 0
M  V30 8430 C 928.017 1.05301 1.725 0
M  V30 8431 C 928.338 -0.412103 1.90596 0
M  V30 8432 O 927.608 -1.29606 1.46898 0
M  V30 8433 H 926.188 0.386658 0.639144 0
M  V30 8434 H 928.85 1.54359 1.18993 0
M  V30 8435 H 927.946 1.53465 2.71763 0
M  V30 8436 N 928.247 -1.18576 1.03814 0
M  V30 8437 C 929.658 -1.70159 0.768299 0
M  V30 8438 C 930.009 -1.8286 -0.711106 0
M  V30 8439 O 929.134 -1.5063 -1.55369 0
M  V30 8440 C 929.729 -3.09062 1.38804 0
M  V30 8441 C 928.288 -3.57866 1.16656 0
M  V30 8442 C 927.435 -2.34484 1.48029 0
M  V30 8443 H 930.386 -1.03287 1.20488 0
M  V30 8444 H 930.407 -3.72211 0.7899 0
M  V30 8445 H 929.919 -2.99785 2.46476 0
M  V30 8446 H 928.02 -3.72442 0.108471 0
M  V30 8447 H 928.133 -4.41445 1.8618 0
M  V30 8448 H 926.497 -2.38273 0.899902 0
M  V30 8449 H 927.28 -2.27829 2.56805 0
M  V30 8450 N 929.725 -0.817259 -1.34754 0
M  V30 8451 C 931.136 -0.462215 -1.80888 0
M  V30 8452 C 931.487 1.01685 -1.67794 0
M  V30 8453 O 930.612 1.79094 -1.21468 0
M  V30 8454 C 931.207 -0.832204 -3.2842 0
M  V30 8455 C 929.766 -0.52961 -3.72655 0
M  V30 8456 C 928.913 -1.05214 -2.56564 0
M  V30 8457 H 931.864 -1.00795 -1.22581 0
M  V30 8458 H 931.885 -0.133804 -3.80265 0
M  V30 8459 H 931.397 -1.90873 -3.37919 0
M  V30 8460 H 929.498 0.537743 -3.68699 0
M  V30 8461 H 929.611 -1.06971 -4.67005 0
M  V30 8462 H 927.975 -0.473949 -2.50251 0
M  V30 8463 H 928.758 -2.135 -2.68836 0
M  V30 8464 N 931.203 1.46865 -0.571711 0
M  V30 8465 C 932.451 2.0203 -0.0530022 0
M  V30 8466 C 932.772 1.44687 1.30731 0
M  V30 8467 O 932.042 0.627429 1.85581 0
M  V30 8468 H 930.622 0.746815 -0.0166035 0
M  V30 8469 H 933.284 1.80099 -0.745003 0
M  V30 8470 H 932.38 3.12091 0.0242538 0
M  V30 8471 N 932.681 0.308908 1.54543 0
M  V30 8472 C 933.611 -0.556657 2.26768 0
M  V30 8473 C 934.592 -1.13145 1.27013 0
M  V30 8474 O 935.777 -1.15931 1.558 0
M  V30 8475 C 932.907 -1.72481 3.01443 0
M  V30 8476 C 931.861 -1.28001 4.08411 0
M  V30 8477 C 931.187 -2.53395 4.70845 0
M  V30 8478 C 932.487 -0.405497 5.20724 0
M  V30 8479 H 934.181 0.0457618 2.99365 0
M  V30 8480 H 931.727 0.0234495 1.43981 0
M  V30 8481 H 933.68 -2.3365 3.50693 0
M  V30 8482 H 932.404 -2.35359 2.26437 0
M  V30 8483 H 931.063 -0.69133 3.60022 0
M  V30 8484 H 930.711 -3.14604 3.92471 0
M  V30 8485 H 930.411 -2.2433 5.43093 0
M  V30 8486 H 931.935 -3.15352 5.22863 0
M  V30 8487 H 933.349 -0.923076 5.6582 0
M  V30 8488 H 931.746 -0.208282 5.99738 0
M  V30 8489 H 932.816 0.567412 4.81569 0
M  V30 8490 N 934.159 -1.57557 0.0367827 0
M  V30 8491 C 935.407 -1.91735 -0.63892 0
M  V30 8492 C 935.728 -0.914515 -1.72226 0
M  V30 8493 O 934.998 0.0428248 -1.95853 0
M  V30 8494 H 933.578 -0.707738 -0.23899 0
M  V30 8495 H 936.24 -1.94708 0.0863931 0
M  V30 8496 H 935.336 -2.92568 -1.08676 0
M  V30 8497 N 935.637 0.236453 -1.55816 0
M  V30 8498 C 936.884 0.963012 -1.78136 0
M  V30 8499 C 937.212 1.84918 -0.602952 0
M  V30 8500 O 936.467 1.91285 0.413325 0
M  V30 8501 C 936.766 1.84549 -3.06066 0
M  V30 8502 C 936.432 1.11381 -4.36927 0
M  V30 8503 C 935.094 0.911635 -4.72486 0
M  V30 8504 C 937.446 0.596 -5.17781 0
M  V30 8505 C 934.774 0.179515 -5.86425 0
M  V30 8506 C 937.126 -0.122702 -6.32481 0
M  V30 8507 C 935.79 -0.336263 -6.66652 0
M  V30 8508 H 935.06 0.352391 -0.651845 0
M  V30 8509 H 937.707 0.232295 -1.90086 0
M  V30 8510 H 936.012 2.6436 -2.89173 0
M  V30 8511 H 937.709 2.40953 -3.20535 0
M  V30 8512 H 934.299 1.28134 -4.08998 0
M  V30 8513 H 938.483 0.73971 -4.90757 0
M  V30 8514 H 933.739 0.00368224 -6.114 0
M  V30 8515 H 937.913 -0.531516 -6.94369 0
M  V30 8516 H 935.54 -0.905507 -7.54788 0
M  V30 8517 N 937.115 1.49373 0.502552 0
M  V30 8518 C 938.526 1.52 1.0841 0
M  V30 8519 C 938.877 0.305317 1.9381 0
M  V30 8520 O 938.002 -0.585023 2.08342 0
M  V30 8521 C 938.597 2.75437 1.97281 0
M  V30 8522 C 937.156 2.80848 2.50602 0
M  V30 8523 C 936.303 2.45894 1.28186 0
M  V30 8524 H 939.254 1.56092 0.286533 0
M  V30 8525 H 939.275 2.55511 2.81947 0
M  V30 8526 H 938.787 3.63827 1.35098 0
M  V30 8527 H 936.888 1.96735 3.16427 0
M  V30 8528 H 937.001 3.82979 2.8786 0
M  V30 8529 H 935.365 1.97639 1.60657 0
M  V30 8530 H 936.148 3.36556 0.677139 0
M  V30 8531 N 938.594 -0.753485 1.38421 0
M  V30 8532 C 939.842 -1.50962 1.34368 0
M  V30 8533 C 940.163 -1.94889 -0.0656895 0
M  V30 8534 O 939.433 -1.67652 -1.01339 0
M  V30 8535 H 938.013 -0.559967 0.494415 0
M  V30 8536 H 940.675 -0.895665 1.73101 0
M  V30 8537 H 939.771 -2.40048 1.99458 0
M  V30 8538 N 940.072 -1.23292 -0.981677 0
M  V30 8539 C 941.483 -1.05936 -1.53735 0
M  V30 8540 C 941.834 0.373695 -1.92608 0
M  V30 8541 O 940.959 1.26024 -1.75917 0
M  V30 8542 C 941.554 -1.91682 -2.79363 0
M  V30 8543 C 940.113 -1.78591 -3.31334 0
M  V30 8544 C 939.26 -1.87463 -2.04335 0
M  V30 8545 H 942.211 -1.36973 -0.801505 0
M  V30 8546 H 942.232 -1.44085 -3.52164 0
M  V30 8547 H 941.744 -2.95975 -2.51039 0
M  V30 8548 H 939.845 -0.770755 -3.64541 0
M  V30 8549 H 939.958 -2.61902 -4.01179 0
M  V30 8550 H 938.322 -1.3103 -2.18411 0
M  V30 8551 H 939.105 -2.9331 -1.78394 0
M  V30 8552 N 941.55 1.18024 -1.04442 0
M  V30 8553 C 942.961 1.69749 -0.777312 0
M  V30 8554 C 943.312 1.83234 0.701399 0
M  V30 8555 O 942.437 1.51452 1.54568 0
M  V30 8556 C 943.032 3.08321 -1.40441 0
M  V30 8557 C 941.591 3.57243 -1.18553 0
M  V30 8558 C 940.738 2.33695 -1.49271 0
M  V30 8559 H 943.689 1.02647 -1.21035 0
M  V30 8560 H 943.71 3.71787 -0.809628 0
M  V30 8561 H 943.222 2.98474 -2.48062 0
M  V30 8562 H 941.323 3.72379 -0.128221 0
M  V30 8563 H 941.436 4.40451 -1.88519 0
M  V30 8564 H 939.8 2.37792 -0.912526 0
M  V30 8565 H 940.583 2.26464 -2.5801 0
M  V30 8566 N 943.028 0.824394 1.34319 0
M  V30 8567 C 944.276 0.41235 1.97849 0
M  V30 8568 C 944.597 -1.02841 1.65677 0
M  V30 8569 O 943.867 -1.71421 0.948245 0
M  V30 8570 H 942.447 0.149486 0.73189 0
M  V30 8571 H 945.109 1.05416 1.63931 0
M  V30 8572 H 944.205 0.532557 3.07523 0
M  V30 8573 N 944.506 -1.46559 0.579492 0
M  V30 8574 C 945.416 -2.34066 -0.15816 0
M  V30 8575 C 946.432 -1.49556 -0.88932 0
M  V30 8576 O 947.608 -1.82434 -0.853226 0
M  V30 8577 C 944.673 -3.26683 -1.161 0
M  V30 8578 C 943.734 -4.27092 -0.434855 0
M  V30 8579 C 942.967 -5.15283 -1.38992 0
M  V30 8580 O 943.19 -5.06345 -2.62623 0
M  V30 8581 O 942.124 -5.95099 -0.902253 0
M  V30 8582 H 945.95 -2.98488 0.560234 0
M  V30 8583 H 943.535 -1.45482 0.339918 0
M  V30 8584 H 945.417 -3.8383 -1.73932 0
M  V30 8585 H 944.092 -2.64862 -1.86091 0
M  V30 8586 H 942.999 -3.73641 0.185224 0
M  V30 8587 H 944.332 -4.9169 0.224031 0
M  V30 8588 N 945.984 -0.3171 -1.54377 0
M  V30 8589 C 947.4 0.035766 -1.5956 0
M  V30 8590 C 947.6 1.51038 -1.33378 0
M  V30 8591 O 946.656 2.26546 -1.11505 0
M  V30 8592 C 947.969 -0.376652 -2.98332 0
M  V30 8593 C 949.517 -0.326765 -3.1129 0
M  V30 8594 C 949.992 -0.714247 -4.52396 0
M  V30 8595 N 951.483 -0.667402 -4.58367 0
M  V30 8596 C 952.218 -0.939494 -5.65651 0
M  V30 8597 N 951.714 -1.27839 -6.80903 0
M  V30 8598 N 953.507 -0.865484 -5.55397 0
M  V30 8599 H 945.658 -1.27794 -1.69654 0
M  V30 8600 H 947.921 -0.5192 -0.79318 0
M  V30 8601 H 947.627 -1.40381 -3.22469 0
M  V30 8602 H 947.501 0.261611 -3.76292 0
M  V30 8603 H 949.888 0.69117 -2.86892 0
M  V30 8604 H 949.969 -0.999873 -2.35449 0
M  V30 8605 H 949.613 -1.73007 -4.77526 0
M  V30 8606 H 949.543 -0.0188962 -5.26597 0
M  V30 8607 H 952.034 -0.417062 -3.75592 0
M  V30 8608 H 952.347 -1.47155 -7.5866 0
M  V30 8609 H 950.692 -1.31658 -6.82416 0
M  V30 8610 H 953.883 -0.600265 -4.64235 0
M  V30 8611 H 954.056 -1.0809 -6.38921 0
M  V30 8612 N 947.462 1.57535 -0.0451378 0
M  V30 8613 C 948.71 1.92071 0.628743 0
M  V30 8614 C 949.031 0.923635 1.71738 0
M  V30 8615 O 948.301 -0.0324376 1.95873 0
M  V30 8616 H 946.881 0.708995 0.235233 0
M  V30 8617 H 949.543 1.9466 -0.0967177 0
M  V30 8618 H 948.639 2.9314 1.07123 0
M  V30 8619 N 948.94 -0.228186 1.55939 0
M  V30 8620 C 949.89 -1.28607 1.88267 0
M  V30 8621 C 950.874 -1.42606 0.745139 0
M  V30 8622 O 952.066 -1.45533 1.00743 0
M  V30 8623 C 949.195 -2.63783 2.19712 0
M  V30 8624 C 948.281 -2.53712 3.3984 0
M  V30 8625 N 948.672 -2.13287 4.58631 0
M  V30 8626 C 946.97 -2.84686 3.43322 0
M  V30 8627 C 947.671 -2.14305 5.40785 0
M  V30 8628 N 946.647 -2.54536 4.80325 0
M  V30 8629 H 950.449 -0.964307 2.7763 0
M  V30 8630 H 947.963 -0.436769 1.56416 0
M  V30 8631 H 949.96 -3.40152 2.41044 0
M  V30 8632 H 948.62 -2.9681 1.31657 0
M  V30 8633 H 949.631 -1.84525 4.83912 0
M  V30 8634 H 946.308 -3.22129 2.65592 0
M  V30 8635 H 947.698 -1.85231 6.45863 0
M  V30 8636 N 950.418 -1.49637 -0.494624 0
M  V30 8637 C 951.829 -1.52573 -1.07603 0
M  V30 8638 C 952.18 -0.315591 -1.93645 0
M  V30 8639 O 951.305 0.573966 -2.08649 0
M  V30 8640 C 951.9 -2.7648 -1.95817 0
M  V30 8641 C 950.459 -2.82173 -2.49109 0
M  V30 8642 C 949.606 -2.4657 -1.2688 0
M  V30 8643 H 952.557 -1.56242 -0.278251 0
M  V30 8644 H 952.578 -2.57003 -2.80588 0
M  V30 8645 H 952.09 -3.64538 -1.33167 0
M  V30 8646 H 950.191 -1.9841 -3.15379 0
M  V30 8647 H 950.304 -3.84501 -2.85825 0
M  V30 8648 H 948.668 -1.98489 -1.59607 0
M  V30 8649 H 949.451 -3.3691 -0.659281 0
M  V30 8650 N 951.896 0.746133 -1.38819 0
M  V30 8651 C 953.144 1.50247 -1.35167 0
M  V30 8652 C 953.465 1.94921 0.0553531 0
M  V30 8653 O 952.735 1.68187 1.00449 0
M  V30 8654 H 951.315 0.557337 -0.497377 0
M  V30 8655 H 953.977 0.886472 -1.73573 0
M  V30 8656 H 953.073 2.38986 -2.00728 0
M  V30 8657 N 953.375 1.23811 0.975125 0
M  V30 8658 C 954.621 1.07495 1.71967 0
M  V30 8659 C 954.954 -0.386451 1.90316 0
M  V30 8660 O 954.229 -1.28591 1.45927 0
M  V30 8661 C 954.512 1.80694 3.11483 0
M  V30 8662 C 954.365 3.3454 3.00671 0
M  V30 8663 C 955.684 1.57367 4.11003 0
M  V30 8664 H 952.803 0.3919 0.624166 0
M  V30 8665 H 955.445 1.52383 1.13487 0
M  V30 8666 H 953.595 1.42538 3.61407 0
M  V30 8667 H 955.267 3.8225 2.5823 0
M  V30 8668 H 953.51 3.63301 2.37054 0
M  V30 8669 H 954.181 3.80951 3.99475 0
M  V30 8670 H 956.657 1.90545 3.69908 0
M  V30 8671 H 955.533 2.11052 5.06703 0
M  V30 8672 H 955.794 0.510221 4.39146 0
M  V30 8673 N 954.853 -1.17469 1.05066 0
M  V30 8674 C 956.264 -1.69334 0.786304 0
M  V30 8675 C 956.615 -1.83604 -0.691671 0
M  V30 8676 O 955.74 -1.52269 -1.53763 0
M  V30 8677 C 956.335 -3.07572 1.42074 0
M  V30 8678 C 954.894 -3.56609 1.20446 0
M  V30 8679 C 954.041 -2.329 1.50508 0
M  V30 8680 H 956.992 -1.02003 1.21577 0
M  V30 8681 H 957.013 -3.71352 0.829334 0
M  V30 8682 H 956.525 -2.97154 2.49642 0
M  V30 8683 H 954.626 -3.72306 0.147968 0
M  V30 8684 H 954.739 -4.39446 1.90852 0
M  V30 8685 H 953.103 -2.37305 0.925124 0
M  V30 8686 H 953.886 -2.25093 2.59207 0
M  V30 8687 N 956.331 -0.831506 -1.3388 0
M  V30 8688 C 957.579 -0.422837 -1.97627 0
M  V30 8689 C 957.9 1.01961 -1.6622 0
M  V30 8690 O 957.17 1.70916 -0.957323 0
M  V30 8691 H 955.75 -0.153365 -0.731087 0
M  V30 8692 H 958.412 -1.06284 -1.6337 0
M  V30 8693 H 957.508 -0.548858 -3.07236 0
M  V30 8694 N 957.809 1.4625 -0.587256 0
M  V30 8695 C 958.759 2.27407 0.164393 0
M  V30 8696 C 959.743 1.36138 0.857628 0
M  V30 8697 O 960.935 1.60279 0.750973 0
M  V30 8698 C 958.064 3.22585 1.17447 0
M  V30 8699 C 957.15 4.21339 0.483121 0
M  V30 8700 N 957.541 5.03669 -0.46385 0
M  V30 8701 C 955.839 4.39931 0.73329 0
M  V30 8702 C 956.54 5.75182 -0.868334 0
M  V30 8703 N 955.516 5.43169 -0.216487 0
M  V30 8704 H 959.318 2.88453 -0.563237 0
M  V30 8705 H 956.832 1.57155 -0.409388 0
M  V30 8706 H 958.829 3.79439 1.72718 0
M  V30 8707 H 957.489 2.63098 1.90288 0
M  V30 8708 H 958.5 5.11049 -0.839602 0
M  V30 8709 H 955.177 3.91588 1.44792 0
M  V30 8710 H 956.567 6.51371 -1.64821 0
M  V30 8711 N 959.287 0.325282 1.54207 0
M  V30 8712 C 960.698 -0.162426 1.85992 0
M  V30 8713 C 961.049 -1.51482 1.2469 0
M  V30 8714 O 960.174 -2.092 0.553578 0
M  V30 8715 C 960.769 -0.3015 3.37456 0
M  V30 8716 C 959.328 -0.73343 3.69185 0
M  V30 8717 C 958.475 0.143831 2.76927 0
M  V30 8718 H 961.426 0.545508 1.4903 0
M  V30 8719 H 961.447 -1.13212 3.63268 0
M  V30 8720 H 960.959 0.682942 3.82044 0
M  V30 8721 H 959.06 -1.72755 3.30131 0
M  V30 8722 H 959.173 -0.535987 4.76092 0
M  V30 8723 H 957.537 -0.380892 2.51836 0
M  V30 8724 H 958.32 1.12507 3.24341 0
M  V30 8725 N 960.765 -1.57509 0.0534917 0
M  V30 8726 C 962.013 -1.92402 -0.618548 0
M  V30 8727 C 962.334 -0.93273 -1.71246 0
M  V30 8728 O 961.604 0.0220495 -1.95888 0
M  V30 8729 H 960.184 -0.710233 -0.23147 0
M  V30 8730 H 962.846 -1.94606 0.10704 0
M  V30 8731 H 961.942 -2.93704 -1.05566 0
M  V30 8732 N 962.243 0.219913 -1.56058 0
M  V30 8733 C 963.489 0.945463 -1.79412 0
M  V30 8734 C 963.822 1.83922 -0.62341 0
M  V30 8735 O 963.097 1.90806 0.377256 0
M  V30 8736 C 963.38 1.783 -3.1286 0
M  V30 8737 C 963.233 0.915626 -4.40382 0
M  V30 8738 C 964.552 2.76045 -3.42764 0
M  V30 8739 H 961.671 0.342288 -0.652693 0
M  V30 8740 H 964.313 0.214235 -1.88788 0
M  V30 8741 H 962.463 2.40642 -3.04998 0
M  V30 8742 H 964.135 0.30882 -4.60265 0
M  V30 8743 H 962.378 0.221124 -4.33236 0
M  V30 8744 H 963.049 1.53607 -5.30197 0
M  V30 8745 H 965.525 2.23838 -3.50764 0
M  V30 8746 H 964.401 3.31748 -4.37304 0
M  V30 8747 H 964.662 3.53866 -2.65012 0
M  V30 8748 N 963.721 1.49897 0.486681 0
M  V30 8749 C 965.137 1.36977 0.819109 0
M  V30 8750 C 965.337 0.41385 1.97204 0
M  V30 8751 O 964.393 -0.149249 2.52059 0
M  V30 8752 C 965.706 2.78013 1.14584 0
M  V30 8753 C 967.254 2.86816 1.25321 0
M  V30 8754 C 967.729 4.28651 1.61316 0
M  V30 8755 N 969.22 4.31528 1.68337 0
M  V30 8756 C 969.955 5.38254 1.97662 0
M  V30 8757 N 969.451 6.55207 2.25113 0
M  V30 8758 N 971.244 5.25683 1.99033 0
M  V30 8759 H 963.395 2.10634 -0.273364 0
M  V30 8760 H 965.658 0.946116 -0.0597418 0
M  V30 8761 H 965.364 3.49728 0.371892 0
M  V30 8762 H 965.238 3.1428 2.08585 0
M  V30 8763 H 967.625 2.15329 2.01785 0
M  V30 8764 H 967.706 2.54112 0.293368 0
M  V30 8765 H 967.35 5.00669 0.853968 0
M  V30 8766 H 967.28 4.5883 2.58424 0
M  V30 8767 H 969.771 3.47189 1.49226 0
M  V30 8768 H 970.084 7.32359 2.46717 0
M  V30 8769 H 968.429 6.58408 2.22538 0
M  V30 8770 H 971.62 4.33316 1.77074 0
M  V30 8771 H 971.793 6.08949 2.21552 0
M  V30 8772 N 965.199 -0.738761 1.39212 0
M  V30 8773 C 966.447 -1.49529 1.35962 0
M  V30 8774 C 966.768 -1.94948 -0.0450152 0
M  V30 8775 O 966.038 -1.68717 -0.995552 0
M  V30 8776 H 964.618 -0.554692 0.500326 0
M  V30 8777 H 967.28 -0.877255 1.74041 0
M  V30 8778 H 966.376 -2.37919 2.01993 0
M  V30 8779 N 966.677 -1.24326 -0.968545 0
M  V30 8780 C 968.088 -1.07561 -1.52603 0
M  V30 8781 C 968.439 0.353245 -1.92994 0
M  V30 8782 O 967.564 1.24151 -1.77244 0
M  V30 8783 C 968.159 -1.94634 -2.77314 0
M  V30 8784 C 966.718 -1.82095 -3.29421 0
M  V30 8785 C 965.865 -1.8962 -2.02335 0
M  V30 8786 H 968.816 -1.37815 -0.786932 0
M  V30 8787 H 968.837 -1.47812 -3.50616 0
M  V30 8788 H 968.349 -2.98621 -2.47885 0
M  V30 8789 H 966.45 -0.809376 -3.63703 0
M  V30 8790 H 966.563 -2.66142 -3.98378 0
M  V30 8791 H 964.927 -1.33339 -2.17009 0
M  V30 8792 H 965.71 -2.95185 -1.75273 0
M  V30 8793 N 968.156 1.1691 -1.05688 0
M  V30 8794 C 969.433 1.83266 -0.683601 0
M  V30 8795 C 969.813 1.93858 0.835602 0
M  V30 8796 O 969.161 1.47696 1.7435 0
M  V30 8797 C 969.371 3.20625 -1.37842 0
M  V30 8798 C 970.719 3.96473 -1.51967 0
M  V30 8799 O 971.743 3.30122 -1.33783 0
M  V30 8800 O 970.602 5.15393 -1.81749 0
M  V30 8801 H 967.696 0.791028 -0.241254 0
M  V30 8802 H 970.242 1.24165 -1.15677 0
M  V30 8803 H 969.014 3.07914 -2.41463 0
M  V30 8804 H 968.637 3.87398 -0.894921 0
M  V30 8805 N 969.634 0.838594 1.33437 0
M  V30 8806 C 970.882 0.433312 1.974 0
M  V30 8807 C 971.203 -1.01078 1.66758 0
M  V30 8808 O 970.473 -1.70406 0.966373 0
M  V30 8809 H 969.053 0.15724 0.730263 0
M  V30 8810 H 971.715 1.07149 1.62804 0
M  V30 8811 H 970.811 0.565144 3.06941 0
M  V30 8812 N 971.112 -1.45937 0.595003 0
M  V30 8813 C 972.042 -2.33198 -0.11871 0
M  V30 8814 C 973.023 -1.46083 -0.871423 0
M  V30 8815 O 974.208 -1.74879 -0.844461 0
M  V30 8816 C 971.338 -3.28576 -1.12495 0
M  V30 8817 C 970.292 -4.25229 -0.486275 0
M  V30 8818 C 969.618 -5.10204 -1.59986 0
M  V30 8819 C 970.918 -5.19019 0.584473 0
M  V30 8820 H 972.612 -2.93122 0.609886 0
M  V30 8821 H 970.158 -1.40951 0.294742 0
M  V30 8822 H 972.111 -3.88485 -1.6327 0
M  V30 8823 H 970.835 -2.66784 -1.88398 0
M  V30 8824 H 969.494 -3.666 0.000507962 0
M  V30 8825 H 969.142 -4.44789 -2.34886 0
M  V30 8826 H 968.842 -5.75669 -1.1781 0
M  V30 8827 H 970.366 -5.7298 -2.11014 0
M  V30 8828 H 971.78 -5.73073 0.161297 0
M  V30 8829 H 970.177 -5.92893 0.927256 0
M  V30 8830 H 971.247 -4.62208 1.46601 0
M  V30 8831 N 972.59 -0.333456 -1.54032 0
M  V30 8832 C 973.537 0.527981 -2.2468 0
M  V30 8833 C 974.507 1.10371 -1.24127 0
M  V30 8834 O 975.692 1.14221 -1.52834 0
M  V30 8835 C 972.832 1.67808 -3.01553 0
M  V30 8836 C 971.945 1.13064 -4.16942 0
M  V30 8837 C 971.08 2.24722 -4.81325 0
M  V30 8838 C 970.119 1.67277 -5.88799 0
M  V30 8839 N 969.256 2.72638 -6.47003 0
M  V30 8840 H 974.096 -0.0810308 -2.9789 0
M  V30 8841 H 971.633 -0.051761 -1.47009 0
M  V30 8842 H 973.591 2.35502 -3.44376 0
M  V30 8843 H 972.221 2.25823 -2.30659 0
M  V30 8844 H 971.273 0.344948 -3.78833 0
M  V30 8845 H 972.585 0.670373 -4.94275 0
M  V30 8846 H 971.739 3.00301 -5.27166 0
M  V30 8847 H 970.478 2.74089 -4.03394 0
M  V30 8848 H 969.483 0.902002 -5.4235 0
M  V30 8849 H 970.708 1.18775 -6.68632 0
M  V30 8850 H 968.654 3.21277 -5.71941 0
M  V30 8851 H 968.571 2.31204 -7.19778 0
M  V30 8852 H 969.839 3.48015 -6.97499 0
M  V30 8853 N 974.068 1.57479 -0.061844 0
M  V30 8854 C 975.316 1.92727 0.608336 0
M  V30 8855 C 975.637 0.941799 1.70749 0
M  V30 8856 O 974.907 -0.0116608 1.95897 0
M  V30 8857 H 973.487 0.71145 0.2277 0
M  V30 8858 H 976.149 1.94546 -0.117359 0
M  V30 8859 H 975.245 2.9426 1.04007 0
M  V30 8860 N 975.546 -0.211634 1.56173 0
M  V30 8861 C 976.478 -1.286 1.89723 0
M  V30 8862 C 977.491 -1.42549 0.786361 0
M  V30 8863 O 978.68 -1.4327 1.06471 0
M  V30 8864 C 975.78 -2.66036 2.09948 0
M  V30 8865 C 974.953 -2.73908 3.41018 0
M  V30 8866 C 974.012 -3.92425 3.50555 0
M  V30 8867 O 973.038 -3.803 4.2351 0
M  V30 8868 N 974.24 -5.07165 2.82426 0
M  V30 8869 H 977.005 -1.00142 2.82474 0
M  V30 8870 H 974.566 -0.401633 1.56839 0
M  V30 8871 H 976.558 -3.43719 2.13634 0
M  V30 8872 H 975.128 -2.87052 1.23774 0
M  V30 8873 H 974.348 -1.82625 3.49345 0
M  V30 8874 H 975.636 -2.76145 4.27342 0
M  V30 8875 H 975.034 -5.19913 2.2295 0
M  V30 8876 H 973.591 -5.82855 2.9176 0
M  V30 8877 N 977.024 -1.50153 -0.478725 0
M  V30 8878 C 977.971 -1.68458 -1.57767 0
M  V30 8879 C 978.941 -0.5259 -1.57555 0
M  V30 8880 O 980.126 -0.755574 -1.75202 0
M  V30 8881 C 977.266 -1.77772 -2.95789 0
M  V30 8882 C 976.379 -3.05092 -3.05848 0
M  V30 8883 C 975.514 -3.05247 -4.34739 0
M  V30 8884 C 974.553 -4.27053 -4.38512 0
M  V30 8885 N 973.69 -4.24991 -5.58862 0
M  V30 8886 H 978.53 -2.62282 -1.41464 0
M  V30 8887 H 976.067 -1.30023 -0.687921 0
M  V30 8888 H 978.025 -1.81152 -3.75819 0
M  V30 8889 H 976.655 -0.873944 -3.10744 0
M  V30 8890 H 975.707 -3.11219 -2.1874 0
M  V30 8891 H 977.019 -3.95075 -3.04495 0
M  V30 8892 H 976.173 -3.07314 -5.23109 0
M  V30 8893 H 974.912 -2.13081 -4.38689 0
M  V30 8894 H 973.917 -4.25206 -3.4854 0
M  V30 8895 H 975.142 -5.20437 -4.36259 0
M  V30 8896 H 973.088 -3.35674 -5.63612 0
M  V30 8897 H 973.005 -5.08734 -5.59219 0
M  V30 8898 H 974.273 -4.31193 -6.49379 0
M  V30 8899 N 978.502 0.731368 -1.39602 0
M  V30 8900 C 979.75 1.48805 -1.36753 0
M  V30 8901 C 980.071 1.94969 0.034676 0
M  V30 8902 O 979.341 1.69243 0.986591 0
M  V30 8903 H 977.921 0.55203 -0.503261 0
M  V30 8904 H 980.583 0.868013 -1.74504 0
M  V30 8905 H 979.679 2.36844 -2.03252 0
M  V30 8906 N 979.98 1.24838 0.961938 0
M  V30 8907 C 981.257 0.99939 1.68141 0
M  V30 8908 C 981.637 -0.476588 2.0565 0
M  V30 8909 O 980.985 -1.45224 1.76415 0
M  V30 8910 C 981.195 1.92797 2.90913 0
M  V30 8911 C 982.543 2.20219 3.63027 0
M  V30 8912 O 983.567 1.90496 3.00981 0
M  V30 8913 O 982.426 2.70725 4.74731 0
M  V30 8914 H 979.52 0.37842 0.735342 0
M  V30 8915 H 982.066 1.35961 1.01551 0
M  V30 8916 H 980.838 2.92492 2.59931 0
M  V30 8917 H 980.461 1.57127 3.65235 0
M  V30 8918 N 981.458 -1.16348 1.06306 0
M  V30 8919 C 982.686 -1.90782 0.800614 0
M  V30 8920 C 983.101 -1.77439 -0.645033 0
M  V30 8921 O 982.458 -1.11912 -1.4416 0
M  V30 8922 C 982.509 -3.41484 1.18621 0
M  V30 8923 O 982.23 -3.54428 2.57512 0
M  V30 8924 C 983.731 -4.32968 0.951525 0
M  V30 8925 H 980.951 -0.604977 0.290247 0
M  V30 8926 H 983.495 -1.47476 1.41672 0
M  V30 8927 H 981.65 -3.82493 0.614633 0
M  V30 8928 H 982.064 -4.4788 2.72954 0
M  V30 8929 H 983.538 -5.37169 1.27095 0
M  V30 8930 H 984.015 -4.39055 -0.112734 0
M  V30 8931 H 984.621 -3.97687 1.50749 0
M  V30 8932 N 982.937 -0.845659 -1.3299 0
M  V30 8933 C 984.186 -0.440928 -1.96822 0
M  V30 8934 C 984.499 1.00668 -1.67706 0
M  V30 8935 O 985.705 1.51641 -2.25205 0
M  V30 8936 C 984.161 -0.73752 -3.52262 0
M  V30 8937 C 983.769 -2.20026 -3.90247 0
M  V30 8938 C 985.513 -0.400072 -4.22611 0
M  V30 8939 C 983.42 -2.44054 -5.38694 0
M  V30 8940 H 982.35 -0.161148 -0.736578 0
M  V30 8941 H 985.001 -1.03519 -1.51513 0
M  V30 8942 H 983.383 -0.0728025 -3.95933 0
M  V30 8943 H 984.557 -2.90602 -3.57613 0
M  V30 8944 H 982.872 -2.50135 -3.32899 0
M  V30 8945 H 985.469 -0.557136 -5.3179 0
M  V30 8946 H 985.812 0.657547 -4.11074 0
M  V30 8947 H 986.345 -1.0203 -3.84493 0
M  V30 8948 H 983.084 -3.48407 -5.55241 0
M  V30 8949 H 982.604 -1.78047 -5.72765 0
M  V30 8950 H 984.283 -2.27549 -6.05665 0
M  V30 8951 N 984.415 1.45619 -0.602734 0
M  V30 8952 C 985.64 2.07157 -0.100429 0
M  V30 8953 C 986.065 1.44524 1.20393 0
M  V30 8954 O 985.423 0.536191 1.7319 0
M  V30 8955 C 985.471 3.60587 0.0308604 0
M  V30 8956 O 984.575 3.97944 1.08234 0
M  V30 8957 H 983.916 0.6601 -0.0718643 0
M  V30 8958 H 986.446 1.86948 -0.831366 0
M  V30 8959 H 986.456 4.07348 0.230634 0
M  V30 8960 H 985.131 4.05561 -0.921581 0
M  V30 8961 H 983.708 3.62862 0.859414 0
M  V30 8962 N 985.893 0.34162 1.53853 0
M  V30 8963 C 987.133 -0.255853 2.02792 0
M  V30 8964 C 987.497 -1.47921 1.22407 0
M  V30 8965 O 988.698 -2.15073 1.61236 0
M  V30 8966 C 986.969 -0.564117 3.5292 0
M  V30 8967 S 988.528 -1.13868 4.23768 0
M  V30 8968 H 985.346 -0.0762867 0.706896 0
M  V30 8969 H 987.948 0.478934 1.89543 0
M  V30 8970 H 986.652 0.334098 4.09038 0
M  V30 8971 H 986.183 -1.32862 3.70285 0
M  V30 8972 H 988.198 -2.42451 4.32934 0
M  V30 8973 N 987.371 -1.57444 0.0701946 0
M  V30 8974 C 988.319 -2.13834 -0.915302 0
M  V30 8975 C 989.313 -1.07483 -1.30934 0
M  V30 8976 O 990.519 -1.25865 -1.28678 0
M  V30 8977 H 986.894 -0.683716 -0.313108 0
M  V30 8978 H 988.865 -2.95503 -0.414758 0
M  V30 8979 C 987.614 -2.71355 -2.17398 0
M  V30 8980 H 986.937 -3.52861 -1.87961 0
M  V30 8981 H 988.377 -3.1441 -2.84469 0
M  V30 8982 C 986.836 -1.66038 -2.93143 0
M  V30 8983 O 987.366 -1.08443 -3.86786 0
M  V30 8984 N 985.572 -1.3711 -2.56221 0
M  V30 8985 H 985.119 -1.84135 -1.80145 0
M  V30 8986 H 985.077 -0.66877 -3.07205 0
M  V30 8987 N 988.849 0.203349 -1.56283 0
M  V30 8988 C 990.095 0.926381 -1.80405 0
M  V30 8989 C 990.428 1.8325 -0.642883 0
M  V30 8990 O 989.703 1.91196 0.356998 0
M  V30 8991 C 989.986 1.74972 -3.14733 0
M  V30 8992 C 989.839 0.868866 -4.41328 0
M  V30 8993 C 991.158 2.72394 -3.45672 0
M  V30 8994 H 988.277 0.335346 -0.656286 0
M  V30 8995 H 990.919 0.1942 -1.89005 0
M  V30 8996 H 989.069 2.37394 -3.07533 0
M  V30 8997 H 990.741 0.259986 -4.60567 0
M  V30 8998 H 988.984 0.175161 -4.33446 0
M  V30 8999 H 989.655 1.47975 -5.31796 0
M  V30 9000 H 992.131 2.20105 -3.53119 0
M  V30 9001 H 991.007 3.27091 -4.40798 0
M  V30 9002 H 991.268 3.51035 -2.6875 0
M  V30 9003 N 990.327 1.50405 0.470755 0
M  V30 9004 C 991.555 1.65168 1.24608 0
M  V30 9005 C 991.97 0.335153 1.85801 0
M  V30 9006 O 991.327 -0.682919 1.69241 0
M  V30 9007 C 991.378 2.74305 2.35455 0
M  V30 9008 O 991.099 4.00854 1.76771 0
M  V30 9009 C 992.6 3.00044 3.26326 0
M  V30 9010 H 989.82 0.555186 0.376842 0
M  V30 9011 H 992.364 1.9663 0.56187 0
M  V30 9012 H 990.519 2.45536 2.99651 0
M  V30 9013 H 990.933 4.61211 2.49769 0
M  V30 9014 H 992.407 3.8007 4.00313 0
M  V30 9015 H 992.884 2.11128 3.85126 0
M  V30 9016 H 993.49 3.30345 2.67866 0
M  V30 9017 N 991.805 -0.723954 1.39988 0
M  V30 9018 C 993.035 -1.51094 1.40905 0
M  V30 9019 C 993.443 -1.89199 0.00476744 0
M  V30 9020 O 992.786 -1.55398 -0.979646 0
M  V30 9021 C 992.848 -2.82114 2.22827 0
M  V30 9022 C 992.512 -2.66379 3.71337 0
M  V30 9023 C 993.509 -2.34192 4.64166 0
M  V30 9024 C 991.194 -2.82905 4.15054 0
M  V30 9025 C 993.188 -2.18729 5.98696 0
M  V30 9026 C 990.875 -2.67059 5.49657 0
M  V30 9027 C 991.873 -2.35018 6.41292 0
M  V30 9028 O 991.561 -2.19284 7.73414 0
M  V30 9029 H 991.293 -0.473142 0.482818 0
M  V30 9030 H 993.847 -0.901321 1.84568 0
M  V30 9031 H 992.077 -3.45377 1.7393 0
M  V30 9032 H 993.766 -3.43789 2.15787 0
M  V30 9033 H 994.532 -2.21065 4.31689 0
M  V30 9034 H 990.411 -3.06834 3.44055 0
M  V30 9035 H 993.955 -1.93641 6.70186 0
M  V30 9036 H 989.852 -2.79768 5.81722 0
M  V30 9037 H 990.62 -2.34269 7.84258 0
M  V30 9038 N 993.283 -1.25346 -0.955304 0
M  V30 9039 C 994.694 -1.09173 -1.51453 0
M  V30 9040 C 995.045 0.332755 -1.93358 0
M  V30 9041 O 994.17 1.22264 -1.78551 0
M  V30 9042 C 994.765 -1.97564 -2.75234 0
M  V30 9043 C 993.324 -1.85579 -3.27471 0
M  V30 9044 C 992.471 -1.91755 -2.00313 0
M  V30 9045 H 995.422 -1.38642 -0.772271 0
M  V30 9046 H 995.443 -1.51523 -3.49029 0
M  V30 9047 H 994.955 -3.01233 -2.44704 0
M  V30 9048 H 993.056 -0.847906 -3.62824 0
M  V30 9049 H 993.169 -2.70353 -3.95533 0
M  V30 9050 H 991.533 -1.35633 -2.15582 0
M  V30 9051 H 992.316 -2.97028 -1.72132 0
M  V30 9052 N 994.761 1.15782 -1.06922 0
M  V30 9053 C 996.009 1.86097 -0.788192 0
M  V30 9054 C 996.33 1.82475 0.687606 0
M  V30 9055 O 995.6 1.26266 1.49778 0
M  V30 9056 H 994.18 0.689008 -0.288577 0
M  V30 9057 H 996.842 1.40377 -1.35205 0
M  V30 9058 H 995.938 2.91358 -1.1188 0
M  V30 9059 N 996.239 0.8527 1.3254 0
M  V30 9060 C 997.655 0.542298 1.50104 0
M  V30 9061 C 997.855 -0.927465 1.78886 0
M  V30 9062 O 996.911 -1.7106 1.85728 0
M  V30 9063 C 998.224 1.4276 2.64651 0
M  V30 9064 C 999.772 1.42782 2.78536 0
M  V30 9065 C 1000.25 2.29828 3.9616 0
M  V30 9066 N 1001.74 2.27613 4.03418 0
M  V30 9067 C 1002.47 2.91696 4.93661 0
M  V30 9068 N 1001.97 3.64883 5.88925 0
M  V30 9069 N 1003.76 2.81094 4.86768 0
M  V30 9070 H 995.913 1.80395 1.12123 0
M  V30 9071 H 998.176 0.770394 0.552446 0
M  V30 9072 H 997.882 2.47266 2.50105 0
M  V30 9073 H 997.756 1.11358 3.60388 0
M  V30 9074 H 1000.14 0.390417 2.92506 0
M  V30 9075 H 1000.22 1.78198 1.83519 0
M  V30 9076 H 999.868 3.33635 3.82949 0
M  V30 9077 H 999.798 1.91746 4.9045 0
M  V30 9078 H 1002.29 1.74402 3.3525 0
M  V30 9079 H 1002.6 4.10952 6.54476 0
M  V30 9080 H 1000.95 3.68991 5.88957 0
M  V30 9081 H 1004.14 2.23469 4.11314 0
M  V30 9082 H 1004.31 3.31318 5.56895 0
M  V30 9083 N 997.718 -1.45297 0.610449 0
M  V30 9084 C 998.668 -2.27639 -0.128194 0
M  V30 9085 C 999.652 -1.37485 -0.835861 0
M  V30 9086 O 1000.84 -1.61454 -0.725378 0
M  V30 9087 C 997.973 -3.24413 -1.123 0
M  V30 9088 C 997.059 -4.22055 -0.416029 0
M  V30 9089 N 997.45 -5.02867 0.543921 0
M  V30 9090 C 995.748 -4.41041 -0.663208 0
M  V30 9091 C 996.449 -5.73728 0.959731 0
M  V30 9092 N 995.425 -5.42756 0.302873 0
M  V30 9093 H 999.227 -2.8752 0.609056 0
M  V30 9094 H 996.741 -1.56484 0.434338 0
M  V30 9095 H 998.738 -3.82139 -1.6666 0
M  V30 9096 H 997.398 -2.66092 -1.86078 0
M  V30 9097 H 998.409 -5.09649 0.920799 0
M  V30 9098 H 995.086 -3.93842 -1.38544 0
M  V30 9099 H 996.476 -6.48666 1.75163 0
M  V30 9100 N 999.196 -0.349774 -1.5367 0
M  V30 9101 C 1000.44 0.244343 -2.00617 0
M  V30 9102 C 1000.76 1.50567 -1.23914 0
M  V30 9103 O 1000.03 1.92784 -0.348016 0
M  V30 9104 H 998.615 0.0932792 -0.741153 0
M  V30 9105 H 1001.28 -0.472367 -1.89089 0
M  V30 9106 H 1000.37 0.482433 -3.08349 0
M  V30 9107 N 1000.67 1.57404 -0.0785433 0
M  V30 9108 C 1002.08 1.81118 0.45311 0
M  V30 9109 C 1002.44 0.992963 1.69218 0
M  V30 9110 O 1001.56 0.217448 2.15305 0
M  V30 9111 C 1002.16 3.28506 0.82882 0
M  V30 9112 C 1000.71 3.53042 1.3053 0
M  V30 9113 C 999.862 2.75739 0.29378 0
M  V30 9114 H 1002.81 1.55758 -0.304171 0
M  V30 9115 H 1002.83 3.40924 1.68971 0
M  V30 9116 H 1002.35 3.88031 -0.0731826 0
M  V30 9117 H 1000.45 2.98829 2.22558 0
M  V30 9118 H 1000.56 4.61724 1.27857 0
M  V30 9119 H 998.924 2.42703 0.772477 0
M  V30 9120 H 999.707 3.38005 -0.600613 0
M  V30 9121 N 1002.15 -0.195058 1.56388 0
M  V30 9122 C 1003.56 -0.75973 1.70543 0
M  V30 9123 C 1003.91 -1.83849 0.685118 0
M  V30 9124 O 1003.04 -2.15819 -0.158457 0
M  V30 9125 C 1003.63 -1.38485 3.09204 0
M  V30 9126 C 1002.19 -1.89661 3.25124 0
M  V30 9127 C 1001.34 -0.766563 2.66494 0
M  V30 9128 H 1004.29 0.0300148 1.58672 0
M  V30 9129 H 1004.31 -2.25424 3.06536 0
M  V30 9130 H 1003.82 -0.599479 3.83442 0
M  V30 9131 H 1001.92 -2.70917 2.55802 0
M  V30 9132 H 1002.04 -2.05837 4.32629 0
M  V30 9133 H 1000.4 -1.18086 2.25672 0
M  V30 9134 H 1001.18 0.00657102 3.43299 0
M  V30 9135 N 1003.63 -1.50653 -0.462772 0
M  V30 9136 C 1004.88 -1.61737 -1.21184 0
M  V30 9137 C 1005.2 -0.32369 -1.92295 0
M  V30 9138 O 1004.47 0.659269 -1.84473 0
M  V30 9139 H 1003.05 -0.596015 -0.450306 0
M  V30 9140 H 1005.71 -1.87469 -0.533051 0
M  V30 9141 H 1004.81 -2.43262 -1.95525 0
M  V30 9142 N 1005.11 0.71652 -1.4037 0
M  V30 9143 C 1006.36 1.47638 -1.38597 0
M  V30 9144 C 1006.68 1.94496 0.0120141 0
M  V30 9145 O 1005.94 1.68437 0.996373 0
M  V30 9146 C 1006.24 2.71777 -2.32103 0
M  V30 9147 C 1005.9 2.43689 -3.79376 0
M  V30 9148 C 1004.57 2.35739 -4.195 0
M  V30 9149 C 1006.92 2.20099 -4.72447 0
M  V30 9150 C 1004.25 2.02265 -5.50732 0
M  V30 9151 C 1006.6 1.88138 -6.03976 0
M  V30 9152 C 1005.26 1.78669 -6.43143 0
M  V30 9153 H 1004.53 0.540246 -0.507163 0
M  V30 9154 H 1007.18 0.820822 -1.73017 0
M  V30 9155 H 1005.48 3.42166 -1.90865 0
M  V30 9156 H 1007.18 3.29864 -2.28015 0
M  V30 9157 H 1003.77 2.50763 -3.47585 0
M  V30 9158 H 1007.95 2.25198 -4.42266 0
M  V30 9159 H 1003.21 1.93471 -5.79982 0
M  V30 9160 H 1007.38 1.68898 -6.75608 0
M  V30 9161 H 1005.01 1.52498 -7.44747 0
M  V30 9162 N 1006.59 1.25851 0.948643 0
M  V30 9163 C 1007.86 1.01717 1.67072 0
M  V30 9164 C 1008.24 -0.454749 2.06144 0
M  V30 9165 O 1007.59 -1.43345 1.77945 0
M  V30 9166 C 1007.8 1.95872 2.88852 0
M  V30 9167 C 1009.15 2.24057 3.60671 0
M  V30 9168 O 1010.17 1.93678 2.98944 0
M  V30 9169 O 1009.03 2.75745 4.71833 0
M  V30 9170 H 1006.13 0.386198 0.731287 0
M  V30 9171 H 1008.67 1.37031 1.00104 0
M  V30 9172 H 1007.44 2.95233 2.56814 0
M  V30 9173 H 1007.07 1.60992 3.63548 0
M  V30 9174 N 1008.06 -1.15214 1.07534 0
M  V30 9175 C 1009.31 -1.85676 0.79805 0
M  V30 9176 C 1009.63 -1.82837 -0.677919 0
M  V30 9177 O 1008.9 -1.27059 -1.49107 0
M  V30 9178 H 1007.48 -0.687468 0.292227 0
M  V30 9179 H 1010.15 -1.39658 1.35947 0
M  V30 9180 H 1009.24 -2.9076 1.13423 0
M  V30 9181 N 1009.54 -0.859717 -1.32086 0
M  V30 9182 C 1010.95 -0.519529 -1.79326 0
M  V30 9183 C 1011.3 0.96295 -1.70944 0
M  V30 9184 O 1010.43 1.75139 -1.27104 0
M  V30 9185 C 1011.02 -0.936267 -3.25606 0
M  V30 9186 C 1009.58 -0.647899 -3.70782 0
M  V30 9187 C 1008.73 -1.13323 -2.53087 0
M  V30 9188 H 1011.68 -1.04643 -1.19312 0
M  V30 9189 H 1011.7 -0.254714 -3.79646 0
M  V30 9190 H 1011.21 -2.01527 -3.31675 0
M  V30 9191 H 1009.32 0.420172 -3.70223 0
M  V30 9192 H 1009.43 -1.21774 -4.63366 0
M  V30 9193 H 1007.79 -0.553325 -2.48617 0
M  V30 9194 H 1008.58 -2.21945 -2.61907 0
M  V30 9195 N 1011.02 1.44971 -0.618145 0
M  V30 9196 C 1012.43 1.85611 -0.201334 0
M  V30 9197 C 1012.78 1.51698 1.24427 0
M  V30 9198 O 1011.91 0.94875 1.94493 0
M  V30 9199 C 1012.5 3.36897 -0.358619 0
M  V30 9200 C 1011.06 3.764 0.00358196 0
M  V30 9201 C 1010.21 2.68881 -0.678118 0
M  V30 9202 H 1013.16 1.35622 -0.824152 0
M  V30 9203 H 1013.18 3.78326 0.406176 0
M  V30 9204 H 1012.69 3.61548 -1.41084 0
M  V30 9205 H 1010.79 3.57365 1.05457 0
M  V30 9206 H 1010.91 4.77449 -0.397427 0
M  V30 9207 H 1009.27 2.54442 -0.114699 0
M  V30 9208 H 1010.05 2.96367 -1.73268 0
M  V30 9209 N 1012.5 0.357919 1.53482 0
M  V30 9210 C 1013.75 -0.2337 2.00744 0
M  V30 9211 C 1014.07 -1.49908 1.2471 0
M  V30 9212 O 1013.34 -1.92597 0.358235 0
M  V30 9213 H 1011.92 -0.0893474 0.741637 0
M  V30 9214 H 1014.58 0.482388 1.88836 0
M  V30 9215 H 1013.68 -0.466073 3.086 0
M  V30 9216 N 1013.98 -1.5736 0.0868897 0
M  V30 9217 C 1015.39 -1.81356 -0.443499 0
M  V30 9218 C 1015.74 -1.00192 -1.68689 0
M  V30 9219 O 1014.86 -0.228863 -2.15186 0
M  V30 9220 C 1015.46 -3.28941 -0.811387 0
M  V30 9221 C 1014.02 -3.53729 -1.28656 0
M  V30 9222 C 1013.16 -2.75891 -0.279153 0
M  V30 9223 H 1016.12 -1.55594 0.312427 0
M  V30 9224 H 1016.14 -3.41815 -1.6716 0
M  V30 9225 H 1015.65 -3.87987 0.0937598 0
M  V30 9226 H 1013.75 -3.00005 -2.2097 0
M  V30 9227 H 1013.86 -4.62396 -1.25406 0
M  V30 9228 H 1012.23 -2.4311 -0.759595 0
M  V30 9229 H 1013.01 -3.37682 0.618529 0
M  V30 9230 N 1015.45 0.186762 -1.56489 0
M  V30 9231 C 1016.4 1.23141 -1.95205 0
M  V30 9232 C 1017.37 1.44799 -0.81378 0
M  V30 9233 O 1018.56 1.57795 -1.07263 0
M  V30 9234 C 1015.7 2.56926 -2.30397 0
M  V30 9235 C 1014.81 2.42777 -3.57328 0
M  V30 9236 C 1013.94 3.69323 -3.81804 0
M  V30 9237 C 1012.98 3.50041 -5.02133 0
M  V30 9238 N 1012.12 4.68619 -5.2282 0
M  V30 9239 H 1016.96 0.894256 -2.84266 0
M  V30 9240 H 1014.5 0.430187 -1.40669 0
M  V30 9241 H 1016.46 3.3488 -2.4882 0
M  V30 9242 H 1015.09 2.88668 -1.44466 0
M  V30 9243 H 1014.14 1.56078 -3.46906 0
M  V30 9244 H 1015.45 2.24468 -4.45439 0
M  V30 9245 H 1014.6 4.55715 -4.00511 0
M  V30 9246 H 1013.34 3.90595 -2.92039 0
M  V30 9247 H 1012.35 2.62034 -4.8334 0
M  V30 9248 H 1013.57 3.30206 -5.93414 0
M  V30 9249 H 1011.52 4.90139 -4.36005 0
M  V30 9250 H 1011.44 4.53165 -6.05126 0
M  V30 9251 H 1012.7 5.56338 -5.45993 0
M  V30 9252 N 1016.93 1.50896 0.454776 0
M  V30 9253 C 1018.18 1.62378 1.20324 0
M  V30 9254 C 1018.5 0.333883 1.9212 0
M  V30 9255 O 1017.77 -0.649477 1.8482 0
M  V30 9256 H 1016.35 0.598395 0.447139 0
M  V30 9257 H 1019.01 1.87749 0.523102 0
M  V30 9258 H 1018.11 2.44296 1.94232 0
M  V30 9259 N 1018.41 -0.709066 1.40748 0
M  V30 9260 C 1019.66 -1.46901 1.39378 0
M  V30 9261 C 1019.99 -1.945 -0.0016993 0
M  V30 9262 O 1019.24 -1.68963 -0.987426 0
M  V30 9263 C 1019.54 -2.70543 2.33541 0
M  V30 9264 C 1019.21 -2.41674 3.80663 0
M  V30 9265 C 1017.87 -2.33511 4.20745 0
M  V30 9266 C 1020.22 -2.1759 4.73607 0
M  V30 9267 C 1017.55 -1.99342 5.51797 0
M  V30 9268 C 1019.9 -1.84933 6.04965 0
M  V30 9269 C 1018.56 -1.75256 6.44082 0
M  V30 9270 H 1017.83 -0.537549 0.510021 0
M  V30 9271 H 1020.48 -0.811635 1.7345 0
M  V30 9272 H 1018.79 -3.41149 1.92677 0
M  V30 9273 H 1020.48 -3.2865 2.29761 0
M  V30 9274 H 1017.07 -2.48917 3.4891 0
M  V30 9275 H 1021.26 -2.22849 4.43454 0
M  V30 9276 H 1016.51 -1.90392 5.81 0
M  V30 9277 H 1020.69 -1.65313 6.76494 0
M  V30 9278 H 1018.31 -1.48547 7.45545 0
M  V30 9279 N 1019.89 -1.26353 -0.941956 0
M  V30 9280 C 1021.3 -1.10774 -1.50287 0
M  V30 9281 C 1021.65 0.312229 -1.937 0
M  V30 9282 O 1020.78 1.20364 -1.79838 0
M  V30 9283 C 1021.37 -2.00473 -2.73123 0
M  V30 9284 C 1019.93 -1.89042 -3.25485 0
M  V30 9285 C 1019.08 -1.93869 -1.98267 0
M  V30 9286 H 1022.03 -1.39454 -0.757523 0
M  V30 9287 H 1022.05 -1.55216 -3.47402 0
M  V30 9288 H 1021.56 -3.03812 -2.41495 0
M  V30 9289 H 1019.66 -0.886341 -3.61904 0
M  V30 9290 H 1019.78 -2.74533 -3.92643 0
M  V30 9291 H 1018.14 -1.37912 -2.14132 0
M  V30 9292 H 1018.92 -2.98837 -1.68972 0
M  V30 9293 N 1021.37 1.14642 -1.08144 0
M  V30 9294 C 1022.62 1.8525 -0.807885 0
M  V30 9295 C 1022.94 1.83194 0.668213 0
M  V30 9296 O 1022.21 1.27848 1.48431 0
M  V30 9297 H 1020.79 0.685909 -0.295868 0
M  V30 9298 H 1023.45 1.38935 -1.36686 0
M  V30 9299 H 1022.54 2.90155 -1.14964 0
M  V30 9300 N 1022.85 0.866709 1.31628 0
M  V30 9301 C 1024.26 0.529032 1.79048 0
M  V30 9302 C 1024.61 -0.953871 1.71452 0
M  V30 9303 O 1023.73 -1.74462 1.28031 0
M  V30 9304 C 1024.33 0.953522 3.25105 0
M  V30 9305 C 1022.89 0.667554 3.70433 0
M  V30 9306 C 1022.03 1.14664 2.52483 0
M  V30 9307 H 1024.98 1.05275 1.18756 0
M  V30 9308 H 1025.01 0.274844 3.79506 0
M  V30 9309 H 1024.52 2.03283 3.30602 0
M  V30 9310 H 1022.62 -0.400532 3.70441 0
M  V30 9311 H 1022.73 1.2423 4.62714 0
M  V30 9312 H 1021.1 0.566502 2.4832 0
M  V30 9313 H 1021.88 2.2333 2.60727 0
M  V30 9314 N 1024.32 -1.44642 0.625825 0
M  V30 9315 C 1025.26 -2.28882 -0.120614 0
M  V30 9316 C 1026.27 -1.40985 -0.81407 0
M  V30 9317 O 1027.46 -1.65188 -0.676404 0
M  V30 9318 C 1024.56 -3.17217 -1.19274 0
M  V30 9319 C 1023.73 -4.33499 -0.582839 0
M  V30 9320 C 1022.79 -5.02908 -1.54823 0
M  V30 9321 O 1021.82 -5.59102 -1.06743 0
M  V30 9322 N 1023.02 -5.0387 -2.88262 0
M  V30 9323 H 1025.78 -2.93585 0.602318 0
M  V30 9324 H 1023.34 -1.5503 0.466604 0
M  V30 9325 H 1025.34 -3.60515 -1.83878 0
M  V30 9326 H 1023.91 -2.54301 -1.81797 0
M  V30 9327 H 1023.13 -3.93458 0.241696 0
M  V30 9328 H 1024.41 -5.08561 -0.155914 0
M  V30 9329 H 1023.81 -4.59539 -3.2991 0
M  V30 9330 H 1022.37 -5.50974 -3.4824 0
M  V30 9331 N 1025.8 -0.366053 -1.5329 0
M  V30 9332 C 1027.05 0.223051 -2.00865 0
M  V30 9333 C 1027.37 1.49244 -1.25504 0
M  V30 9334 O 1026.64 1.92404 -0.368444 0
M  V30 9335 H 1025.22 0.085413 -0.742101 0
M  V30 9336 H 1027.88 -0.492396 -1.88578 0
M  V30 9337 H 1026.98 0.449701 -3.08843 0
M  V30 9338 N 1027.28 1.57312 -0.0952337 0
M  V30 9339 C 1028.24 2.12889 0.849161 0
M  V30 9340 C 1029.24 1.05819 1.21075 0
M  V30 9341 O 1030.43 1.31704 1.14016 0
M  V30 9342 C 1027.56 2.6496 2.14498 0
M  V30 9343 H 1028.76 2.97651 0.366566 0
M  V30 9344 H 1026.31 1.55542 0.153762 0
M  V30 9345 H 1027.05 1.83718 2.67242 0
M  V30 9346 H 1026.83 3.43244 1.89542 0
M  V30 9347 H 1028.32 3.07952 2.82056 0
M  V30 9348 N 1028.76 -0.17846 1.56586 0
M  V30 9349 C 1030.17 -0.741599 1.71339 0
M  V30 9350 C 1030.52 -1.83112 0.704579 0
M  V30 9351 O 1029.64 -2.15975 -0.135557 0
M  V30 9352 C 1030.24 -1.35198 3.10656 0
M  V30 9353 C 1028.8 -1.86202 3.27118 0
M  V30 9354 C 1027.95 -0.738255 2.67292 0
M  V30 9355 H 1030.9 0.0468424 1.58631 0
M  V30 9356 H 1030.92 -2.2216 3.0891 0
M  V30 9357 H 1030.43 -0.558776 3.84056 0
M  V30 9358 H 1028.53 -2.68188 2.58661 0
M  V30 9359 H 1028.64 -2.01237 4.34788 0
M  V30 9360 H 1027.01 -1.15686 2.26912 0
M  V30 9361 H 1027.79 0.0429821 3.43273 0
M  V30 9362 N 1030.24 -1.51135 -0.446768 0
M  V30 9363 C 1031.48 -1.63013 -1.19461 0
M  V30 9364 C 1031.8 -0.344067 -1.91941 0
M  V30 9365 O 1031.07 0.639666 -1.85162 0
M  V30 9366 H 1029.65 -0.600757 -0.443959 0
M  V30 9367 H 1032.32 -1.88024 -0.513137 0
M  V30 9368 H 1031.41 -2.45322 -1.92933 0
M  V30 9369 N 1031.71 0.701592 -1.41122 0
M  V30 9370 C 1032.64 1.82815 -1.45262 0
M  V30 9371 C 1033.62 1.67215 -0.311939 0
M  V30 9372 O 1034.81 1.87038 -0.522538 0
M  V30 9373 C 1031.94 3.20899 -1.32819 0
M  V30 9374 C 1030.89 3.51194 -2.44636 0
M  V30 9375 C 1030.22 4.8857 -2.17263 0
M  V30 9376 C 1031.52 3.50777 -3.86979 0
M  V30 9377 H 1033.21 1.79608 -2.39544 0
M  V30 9378 H 1030.76 0.862693 -1.15298 0
M  V30 9379 H 1032.71 3.99417 -1.34329 0
M  V30 9380 H 1031.44 3.24717 -0.350191 0
M  V30 9381 H 1030.1 2.75024 -2.42399 0
M  V30 9382 H 1029.74 4.89007 -1.17819 0
M  V30 9383 H 1029.44 5.09805 -2.92186 0
M  V30 9384 H 1030.97 5.69405 -2.20478 0
M  V30 9385 H 1032.38 4.19309 -3.90964 0
M  V30 9386 H 1030.78 3.83542 -4.61536 0
M  V30 9387 H 1031.85 2.49873 -4.15562 0
M  V30 9388 N 1033.19 1.2685 0.935242 0
M  V30 9389 C 1034.42 1.15645 1.72165 0
M  V30 9390 C 1034.84 -0.283909 1.85945 0
M  V30 9391 O 1034.2 -1.20567 1.354 0
M  V30 9392 C 1034.25 1.83689 3.10307 0
M  V30 9393 O 1033.35 1.12972 3.96625 0
M  V30 9394 H 1032.69 0.402629 0.528002 0
M  V30 9395 H 1035.22 1.67781 1.17093 0
M  V30 9396 H 1035.23 1.90749 3.60664 0
M  V30 9397 H 1033.91 2.88472 2.99595 0
M  V30 9398 H 1032.48 1.13929 3.5507 0
M  V30 9399 N 1034.67 -1.14067 1.0875 0
M  V30 9400 C 1035.92 -1.84819 0.817698 0
M  V30 9401 C 1036.24 -1.83545 -0.658488 0
M  V30 9402 O 1035.51 -1.28633 -1.47751 0
M  V30 9403 H 1034.09 -0.68433 0.299502 0
M  V30 9404 H 1036.75 -1.38208 1.37421 0
M  V30 9405 H 1035.85 -2.89541 1.16501 0
M  V30 9406 N 1036.15 -0.873678 -1.31166 0
M  V30 9407 C 1037.37 -0.500242 -2.01277 0
M  V30 9408 C 1037.8 0.900811 -1.65127 0
M  V30 9409 O 1037.16 1.59504 -0.861862 0
M  V30 9410 C 1037.2 -0.668976 -3.5434 0
M  V30 9411 O 1036.31 0.290096 -4.11378 0
M  V30 9412 H 1035.65 -0.198507 -0.633633 0
M  V30 9413 H 1038.18 -1.17811 -1.67277 0
M  V30 9414 H 1038.19 -0.563673 -4.04088 0
M  V30 9415 H 1036.86 -1.69055 -3.79991 0
M  V30 9416 H 1035.44 0.139437 -3.72639 0
M  V30 9417 N 1037.63 1.44308 -0.633487 0
M  V30 9418 C 1038.9 1.95476 -0.0697262 0
M  V30 9419 C 1039.28 1.57539 1.40516 0
M  V30 9420 O 1038.63 0.850632 2.12077 0
M  V30 9421 C 1038.84 3.4775 -0.295093 0
M  V30 9422 C 1040.19 4.24177 -0.189542 0
M  V30 9423 O 1041.21 3.55479 -0.226586 0
M  V30 9424 O 1040.07 5.46415 -0.096479 0
M  V30 9425 H 1037.17 0.826734 0.0209582 0
M  V30 9426 H 1039.71 1.54347 -0.705354 0
M  V30 9427 H 1038.48 3.6842 -1.31841 0
M  V30 9428 H 1038.11 3.95832 0.37456 0
M  V30 9429 N 1039.1 0.374177 1.53094 0
M  V30 9430 C 1040.35 -0.212396 2.00981 0
M  V30 9431 C 1040.67 -1.48576 1.26293 0
M  V30 9432 O 1039.94 -1.92206 0.378642 0
M  V30 9433 H 1038.52 -0.0814763 0.742543 0
M  V30 9434 H 1041.19 0.502389 1.88314 0
M  V30 9435 H 1040.28 -0.433316 3.09077 0
M  V30 9436 N 1040.58 -1.57259 0.103575 0
M  V30 9437 C 1041.53 -2.11032 -0.863101 0
M  V30 9438 C 1042.52 -1.02737 -1.2383 0
M  V30 9439 O 1043.71 -1.28997 -1.21197 0
M  V30 9440 C 1040.84 -2.70099 -2.11899 0
M  V30 9441 C 1039.92 -3.85451 -1.76885 0
M  V30 9442 N 1040.31 -4.93137 -1.12469 0
M  V30 9443 C 1038.61 -3.95346 -2.06441 0
M  V30 9444 C 1039.31 -5.73681 -0.962527 0
M  V30 9445 N 1038.29 -5.22992 -1.48258 0
M  V30 9446 H 1042.09 -2.91671 -0.361264 0
M  V30 9447 H 1039.61 -1.62096 -0.0993794 0
M  V30 9448 H 1041.6 -3.06957 -2.82104 0
M  V30 9449 H 1040.26 -1.90918 -2.62641 0
M  V30 9450 H 1041.27 -5.11832 -0.790489 0
M  V30 9451 H 1037.95 -3.27185 -2.59338 0
M  V30 9452 H 1039.34 -6.70337 -0.458098 0
M  V30 9453 N 1042.06 0.170153 -1.56679 0
M  V30 9454 C 1043.01 1.21064 -1.965 0
M  V30 9455 C 1043.98 1.43928 -0.829092 0
M  V30 9456 O 1045.16 1.56649 -1.08931 0
M  V30 9457 C 1042.3 2.54468 -2.33109 0
M  V30 9458 C 1041.42 2.38974 -3.59883 0
M  V30 9459 C 1040.55 3.65252 -3.857 0
M  V30 9460 C 1039.59 3.44696 -5.05817 0
M  V30 9461 N 1038.73 4.63047 -5.27761 0
M  V30 9462 H 1043.57 0.864055 -2.85198 0
M  V30 9463 H 1041.1 0.415243 -1.41117 0
M  V30 9464 H 1043.06 3.32222 -2.52358 0
M  V30 9465 H 1041.69 2.8712 -1.4752 0
M  V30 9466 H 1040.74 1.5239 -3.48542 0
M  V30 9467 H 1042.06 2.19731 -4.47794 0
M  V30 9468 H 1041.21 4.51441 -4.05322 0
M  V30 9469 H 1039.95 3.87475 -2.96166 0
M  V30 9470 H 1038.95 2.56893 -4.86092 0
M  V30 9471 H 1040.18 3.23894 -5.96883 0
M  V30 9472 H 1038.12 4.85487 -4.41179 0
M  V30 9473 H 1038.04 4.46722 -6.09898 0
M  V30 9474 H 1039.31 5.50516 -5.51863 0
M  V30 9475 N 1043.54 1.5137 0.438746 0
M  V30 9476 C 1044.79 1.63645 1.18595 0
M  V30 9477 C 1045.11 0.354241 1.91755 0
M  V30 9478 O 1044.38 -0.629838 1.85499 0
M  V30 9479 H 1042.96 0.603103 0.440767 0
M  V30 9480 H 1045.62 1.88293 0.503159 0
M  V30 9481 H 1044.72 2.46342 1.9163 0
M  V30 9482 N 1045.02 -0.694098 1.41492 0
M  V30 9483 C 1046.43 -1.00487 1.23994 0
M  V30 9484 C 1046.63 -2.01078 0.130346 0
M  V30 9485 O 1045.69 -2.47403 -0.504775 0
M  V30 9486 C 1047 -1.52808 2.58979 0
M  V30 9487 C 1048.55 -1.64684 2.66173 0
M  V30 9488 C 1049.02 -2.20406 4.01479 0
M  V30 9489 N 1050.52 -2.27765 4.03333 0
M  V30 9490 C 1051.25 -2.7191 5.04829 0
M  V30 9491 N 1050.75 -3.1565 6.16714 0
M  V30 9492 N 1052.54 -2.71487 4.9219 0
M  V30 9493 H 1044.69 -0.027746 2.12382 0
M  V30 9494 H 1046.95 -0.0748741 0.945039 0
M  V30 9495 H 1046.66 -0.863519 3.40934 0
M  V30 9496 H 1046.53 -2.50998 2.81566 0
M  V30 9497 H 1048.92 -2.30251 1.84576 0
M  V30 9498 H 1049 -0.65035 2.47395 0
M  V30 9499 H 1048.65 -1.55454 4.83525 0
M  V30 9500 H 1048.58 -3.2081 4.17599 0
M  V30 9501 H 1051.07 -1.96899 3.22551 0
M  V30 9502 H 1051.38 -3.47966 6.90029 0
M  V30 9503 H 1049.72 -3.13555 6.20248 0
M  V30 9504 H 1052.92 -2.36666 4.03865 0
M  V30 9505 H 1053.09 -3.05573 5.71427 0
M  V30 9506 N 1046.49 -1.27344 -0.928501 0
M  V30 9507 C 1047.91 -1.12361 -1.49103 0
M  V30 9508 C 1048.26 0.291667 -1.9402 0
M  V30 9509 O 1047.38 1.18449 -1.81104 0
M  V30 9510 C 1047.98 -2.03358 -2.70981 0
M  V30 9511 C 1046.54 -1.92483 -3.23461 0
M  V30 9512 C 1045.68 -1.95961 -1.962 0
M  V30 9513 H 1048.63 -1.40249 -0.742689 0
M  V30 9514 H 1048.65 -1.58892 -3.45736 0
M  V30 9515 H 1048.17 -3.06356 -2.38259 0
M  V30 9516 H 1046.27 -0.924676 -3.60944 0
M  V30 9517 H 1046.38 -2.78682 -3.89709 0
M  V30 9518 H 1044.74 -1.40175 -2.12657 0
M  V30 9519 H 1045.53 -3.00612 -1.65793 0
M  V30 9520 N 1047.97 1.13488 -1.09353 0
M  V30 9521 C 1049.22 1.84383 -0.827488 0
M  V30 9522 C 1049.54 1.83892 0.648745 0
M  V30 9523 O 1048.81 1.29415 1.47066 0
M  V30 9524 H 1047.39 0.682732 -0.303127 0
M  V30 9525 H 1050.05 1.37477 -1.38152 0
M  V30 9526 H 1049.15 2.88919 -1.18035 0
M  V30 9527 N 1049.45 0.880621 1.30701 0
M  V30 9528 C 1050.68 0.511682 2.00473 0
M  V30 9529 C 1051.09 -0.898684 1.6604 0
M  V30 9530 O 1050.45 -1.59035 0.895218 0
M  V30 9531 C 1050.5 0.671723 3.55204 0
M  V30 9532 O 1050.22 2.02656 3.8841 0
M  V30 9533 C 1051.72 0.3052 4.42248 0
M  V30 9534 H 1048.94 0.198231 0.64105 0
M  V30 9535 H 1051.49 1.18472 1.66687 0
M  V30 9536 H 1049.64 0.0461066 3.87373 0
M  V30 9537 H 1050.06 2.04202 4.83117 0
M  V30 9538 H 1051.53 0.468095 5.50012 0
M  V30 9539 H 1052.01 -0.756456 4.32637 0
M  V30 9540 H 1052.61 0.906959 4.15517 0
M  V30 9541 N 1050.93 -1.4397 0.641131 0
M  V30 9542 C 1052.34 -1.85267 0.230838 0
M  V30 9543 C 1052.69 -1.53659 -1.21998 0
M  V30 9544 O 1051.82 -0.979572 -1.92959 0
M  V30 9545 C 1052.41 -3.36284 0.412171 0
M  V30 9546 C 1050.97 -3.76358 0.0563004 0
M  V30 9547 C 1050.12 -2.67768 0.720809 0
M  V30 9548 H 1053.07 -1.34294 0.845624 0
M  V30 9549 H 1053.09 -3.78924 -0.345936 0
M  V30 9550 H 1052.6 -3.59258 1.46818 0
M  V30 9551 H 1050.7 -3.58997 -0.997582 0
M  V30 9552 H 1050.82 -4.76756 0.473335 0
M  V30 9553 H 1049.18 -2.54227 0.155164 0
M  V30 9554 H 1049.96 -2.93573 1.77961 0
M  V30 9555 N 1052.41 -0.382291 -1.52893 0
M  V30 9556 C 1053.66 0.201734 -2.01091 0
M  V30 9557 C 1053.98 1.47905 -1.2708 0
M  V30 9558 O 1053.25 1.92002 -0.38883 0
M  V30 9559 H 1051.83 0.0775373 -0.742965 0
M  V30 9560 H 1054.49 -0.512369 -1.88045 0
M  V30 9561 H 1053.58 0.416919 -3.09303 0
M  V30 9562 N 1053.89 1.57202 -0.111913 0
M  V30 9563 C 1055.11 1.99297 0.555713 0
M  V30 9564 C 1055.53 0.991444 1.60673 0
M  V30 9565 O 1054.89 -0.0166672 1.82492 0
M  V30 9566 C 1054.94 3.41413 1.18826 0
M  V30 9567 O 1054.66 4.37733 0.179261 0
M  V30 9568 C 1056.16 3.98602 1.93989 0
M  V30 9569 H 1053.38 0.654543 0.147695 0
M  V30 9570 H 1055.92 2.03557 -0.196163 0
M  V30 9571 H 1054.08 3.38115 1.89096 0
M  V30 9572 H 1054.49 5.20606 0.637935 0
M  V30 9573 H 1055.97 5.00143 2.33584 0
M  V30 9574 H 1056.44 3.37349 2.81233 0
M  V30 9575 H 1057.05 4.05424 1.28497 0
M  V30 9576 N 1055.36 -0.161842 1.56767 0
M  V30 9577 C 1056.33 -1.18404 1.96247 0
M  V30 9578 C 1057.33 -1.3667 0.84722 0
M  V30 9579 O 1058.52 -1.33915 1.11411 0
M  V30 9580 C 1055.65 -2.54728 2.26553 0
M  V30 9581 H 1056.84 -0.845703 2.87729 0
M  V30 9582 H 1054.39 -0.404645 1.50971 0
M  V30 9583 H 1055.13 -2.93559 1.37816 0
M  V30 9584 H 1054.91 -2.42834 3.07854 0
M  V30 9585 H 1056.4 -3.28378 2.57987 0
M  V30 9586 N 1056.84 -1.516 -0.430713 0
M  V30 9587 C 1057.75 -1.76247 -1.54836 0
M  V30 9588 C 1058.77 -0.646985 -1.61524 0
M  V30 9589 O 1059.94 -0.929987 -1.78643 0
M  V30 9590 C 1057.01 -1.88833 -2.90763 0
M  V30 9591 C 1056.07 -3.12701 -2.94137 0
M  V30 9592 C 1055.3 -3.24676 -4.23581 0
M  V30 9593 O 1055.53 -2.42429 -5.16318 0
M  V30 9594 O 1054.46 -4.17697 -4.33374 0
M  V30 9595 H 1058.29 -2.71069 -1.3695 0
M  V30 9596 H 1055.87 -1.36182 -0.614396 0
M  V30 9597 H 1057.75 -1.99057 -3.71422 0
M  V30 9598 H 1056.43 -0.971987 -3.08762 0
M  V30 9599 H 1055.33 -3.0795 -2.1241 0
M  V30 9600 H 1056.67 -4.04045 -2.81084 0
M  V30 9601 N 1058.32 0.686584 -1.41858 0
M  V30 9602 C 1059.57 1.44235 -1.40994 0
M  V30 9603 C 1059.88 1.95583 -0.0254979 0
M  V30 9604 O 1061.09 2.71294 0.10576 0
M  V30 9605 C 1059.54 2.6086 -2.47952 0
M  V30 9606 C 1059.15 2.16259 -3.92347 0
M  V30 9607 C 1060.9 3.38441 -2.56237 0
M  V30 9608 C 1058.8 3.29896 -4.90838 0
M  V30 9609 H 1057.73 0.54181 -0.524364 0
M  V30 9610 H 1060.38 0.744486 -1.67719 0
M  V30 9611 H 1058.77 3.32957 -2.14373 0
M  V30 9612 H 1059.94 1.51392 -4.35221 0
M  V30 9613 H 1058.25 1.51648 -3.87804 0
M  V30 9614 H 1060.85 4.23052 -3.27003 0
M  V30 9615 H 1061.19 3.84238 -1.6021 0
M  V30 9616 H 1061.73 2.73406 -2.88953 0
M  V30 9617 H 1058.47 2.89104 -5.88302 0
M  V30 9618 H 1057.99 3.93584 -4.52606 0
M  V30 9619 H 1059.67 3.95541 -5.12012 0
M  V30 9620 N 1059.8 1.27835 0.921735 0
M  V30 9621 C 1061.21 1.13151 1.48505 0
M  V30 9622 C 1061.56 -0.281373 1.94172 0
M  V30 9623 O 1060.68 -1.17487 1.8173 0
M  V30 9624 C 1061.28 2.04792 2.69899 0
M  V30 9625 C 1059.84 1.94196 3.22436 0
M  V30 9626 C 1058.99 1.96999 1.95158 0
M  V30 9627 H 1061.94 1.40641 0.735241 0
M  V30 9628 H 1061.96 1.60724 3.44889 0
M  V30 9629 H 1061.47 3.07615 2.36631 0
M  V30 9630 H 1059.57 0.943805 3.60448 0
M  V30 9631 H 1059.68 2.80744 3.88226 0
M  V30 9632 H 1058.05 1.41301 2.11911 0
M  V30 9633 H 1058.83 3.01487 1.64196 0
M  V30 9634 N 1061.28 -1.12907 1.09954 0
M  V30 9635 C 1062.52 -1.83941 0.837255 0
M  V30 9636 C 1062.84 -1.84234 -0.638984 0
M  V30 9637 O 1062.11 -1.30193 -1.46378 0
M  V30 9638 H 1060.69 -0.681115 0.306743 0
M  V30 9639 H 1063.36 -1.36743 1.38879 0
M  V30 9640 H 1062.45 -2.88289 1.19565 0
M  V30 9641 N 1062.75 -0.88754 -1.30232 0
M  V30 9642 C 1064.16 -0.55745 -1.78184 0
M  V30 9643 C 1064.52 0.926474 -1.72948 0
M  V30 9644 O 1063.64 1.72403 -1.3079 0
M  V30 9645 C 1064.24 -1.00512 -3.23547 0
M  V30 9646 C 1062.79 -0.726402 -3.69324 0
M  V30 9647 C 1061.94 -1.18666 -2.50627 0
M  V30 9648 H 1064.89 -1.07151 -1.17066 0
M  V30 9649 H 1064.91 -0.335185 -3.79021 0
M  V30 9650 H 1064.43 -2.08517 -3.27326 0
M  V30 9651 H 1062.53 0.341548 -3.71031 0
M  V30 9652 H 1062.64 -1.31575 -4.60679 0
M  V30 9653 H 1061 -0.605936 -2.47387 0
M  V30 9654 H 1061.79 -2.2745 -2.57141 0
M  V30 9655 N 1064.23 1.43628 -0.648757 0
M  V30 9656 C 1065.64 1.85142 -0.24066 0
M  V30 9657 C 1065.99 1.54304 1.21181 0
M  V30 9658 O 1065.12 0.989792 1.92437 0
M  V30 9659 C 1065.71 3.3606 -0.429999 0
M  V30 9660 C 1064.27 3.76323 -0.0762588 0
M  V30 9661 C 1063.42 2.67382 -0.734999 0
M  V30 9662 H 1066.37 1.33844 -0.852734 0
M  V30 9663 H 1066.39 3.79102 0.325836 0
M  V30 9664 H 1065.9 3.58474 -1.48721 0
M  V30 9665 H 1064.01 3.59521 0.978529 0
M  V30 9666 H 1064.12 4.76498 -0.498612 0
M  V30 9667 H 1062.48 2.54141 -0.168644 0
M  V30 9668 H 1063.27 2.92625 -1.79515 0
M  V30 9669 N 1065.71 0.390394 1.52688 0
M  V30 9670 C 1066.96 -0.191067 2.01195 0
M  V30 9671 C 1067.28 -1.47229 1.27862 0
M  V30 9672 O 1066.55 -1.91793 0.399007 0
M  V30 9673 H 1065.13 -0.073596 0.743366 0
M  V30 9674 H 1067.79 0.522334 1.8777 0
M  V30 9675 H 1066.89 -0.40051 3.0952 0
M  V30 9676 N 1067.19 -1.57141 0.120249 0
M  V30 9677 C 1068.44 -1.95238 -0.537449 0
M  V30 9678 C 1068.76 -1.00361 -1.66607 0
M  V30 9679 O 1068.02 -0.0277306 -1.9568 0
M  V30 9680 C 1068.32 -3.39745 -1.10941 0
M  V30 9681 C 1067.98 -4.50785 -0.102012 0
M  V30 9682 C 1066.65 -4.80882 0.174994 0
M  V30 9683 C 1069 -5.17913 0.584462 0
M  V30 9684 C 1066.33 -5.75424 1.14474 0
M  V30 9685 C 1068.68 -6.13497 1.54284 0
M  V30 9686 C 1067.34 -6.41987 1.82782 0
M  V30 9687 H 1066.61 -0.714425 -0.196666 0
M  V30 9688 H 1069.26 -1.90438 0.201418 0
M  V30 9689 H 1067.56 -3.41246 -1.92506 0
M  V30 9690 H 1069.26 -3.66536 -1.62642 0
M  V30 9691 H 1065.85 -4.27342 -0.328097 0
M  V30 9692 H 1070.03 -4.94815 0.383625 0
M  V30 9693 H 1065.29 -5.95801 1.37226 0
M  V30 9694 H 1069.46 -6.64598 2.08044 0
M  V30 9695 H 1067.09 -7.15052 2.5808 0
M  V30 9696 N 1068.67 0.153526 -1.5685 0
M  V30 9697 C 1070.08 0.505939 -1.51368 0
M  V30 9698 C 1070.28 1.83721 -0.82757 0
M  V30 9699 O 1069.34 2.49385 -0.395364 0
M  V30 9700 C 1070.65 0.522269 -2.9613 0
M  V30 9701 C 1072.2 0.608238 -3.07033 0
M  V30 9702 C 1072.67 0.655292 -4.53288 0
M  V30 9703 N 1074.17 0.717695 -4.57606 0
M  V30 9704 C 1074.9 0.774977 -5.68139 0
M  V30 9705 N 1074.4 0.792003 -6.88258 0
M  V30 9706 N 1076.19 0.81536 -5.56155 0
M  V30 9707 H 1068.34 -0.71919 -1.99853 0
M  V30 9708 H 1070.6 -0.261466 -0.91123 0
M  V30 9709 H 1070.31 -0.387595 -3.49558 0
M  V30 9710 H 1070.18 1.3625 -3.51733 0
M  V30 9711 H 1072.57 1.50852 -2.53629 0
M  V30 9712 H 1072.65 -0.259014 -2.54485 0
M  V30 9713 H 1072.3 -0.240809 -5.07329 0
M  V30 9714 H 1072.23 1.53894 -5.03611 0
M  V30 9715 H 1074.72 0.7121 -3.7113 0
M  V30 9716 H 1075.03 0.837378 -7.6825 0
M  V30 9717 H 1073.37 0.759986 -6.90832 0
M  V30 9718 H 1076.57 0.799183 -4.61227 0
M  V30 9719 H 1076.74 0.856537 -6.42314 0
M  V30 9720 N 1070.14 1.51827 0.422667 0
M  V30 9721 C 1071.39 1.64893 1.16853 0
M  V30 9722 C 1071.71 0.37456 1.91369 0
M  V30 9723 O 1070.98 -0.610128 1.86157 0
M  V30 9724 H 1069.56 0.607744 0.434345 0
M  V30 9725 H 1072.23 1.88816 0.483159 0
M  V30 9726 H 1071.32 2.48361 1.89006 0
M  V30 9727 N 1071.62 -0.679052 1.4222 0
M  V30 9728 C 1072.9 -1.43473 1.32947 0
M  V30 9729 C 1073.28 -2.11071 -0.0351689 0
M  V30 9730 O 1072.63 -2.02925 -1.05042 0
M  V30 9731 C 1072.84 -2.44065 2.49466 0
M  V30 9732 C 1074.19 -3.08834 2.91387 0
M  V30 9733 O 1075.21 -2.54392 2.49325 0
M  V30 9734 O 1074.07 -4.07478 3.64175 0
M  V30 9735 H 1071.16 -0.639743 0.524078 0
M  V30 9736 H 1073.71 -0.708134 1.54219 0
M  V30 9737 H 1072.48 -1.92884 3.40457 0
M  V30 9738 H 1072.1 -3.24212 2.30158 0
M  V30 9739 N 1073.1 -1.28322 -0.914942 0
M  V30 9740 C 1074.03 -1.06469 -2.01841 0
M  V30 9741 C 1075.01 0.0188681 -1.62589 0
M  V30 9742 O 1076.2 -0.128825 -1.88059 0
M  V30 9743 C 1073.32 -0.617685 -3.3302 0
M  V30 9744 C 1072.37 -1.6977 -3.91255 0
M  V30 9745 S 1073.2 -3.29337 -4.22253 0
M  V30 9746 C 1074.36 -2.86468 -5.56495 0
M  V30 9747 H 1074.59 -1.99893 -2.20068 0
M  V30 9748 H 1072.12 -1.12297 -1.05966 0
M  V30 9749 H 1074.08 -0.366481 -4.08861 0
M  V30 9750 H 1072.74 0.296709 -3.12695 0
M  V30 9751 H 1071.94 -1.33653 -4.85956 0
M  V30 9752 H 1071.54 -1.90164 -3.22046 0
M  V30 9753 H 1073.83 -2.32565 -6.36333 0
M  V30 9754 H 1074.77 -3.79962 -5.97523 0
M  V30 9755 H 1075.18 -2.2522 -5.17626 0
M  V30 9756 N 1074.58 1.12322 -1.10551 0
M  V30 9757 C 1075.83 1.83495 -0.846998 0
M  V30 9758 C 1076.15 1.8457 0.629205 0
M  V30 9759 O 1075.42 1.30968 1.45686 0
M  V30 9760 H 1074 0.679479 -0.310351 0
M  V30 9761 H 1076.66 1.36004 -1.39602 0
M  V30 9762 H 1075.76 2.87651 -1.21092 0
M  V30 9763 N 1076.06 0.894434 1.2976 0
M  V30 9764 C 1077.33 0.437365 1.90648 0
M  V30 9765 C 1077.71 -1.08261 1.81226 0
M  V30 9766 O 1077.06 -1.92213 1.23557 0
M  V30 9767 C 1077.27 0.946047 3.35933 0
M  V30 9768 C 1078.62 0.986621 4.12978 0
M  V30 9769 O 1079.64 0.893356 3.44815 0
M  V30 9770 O 1078.5 1.12591 5.34776 0
M  V30 9771 H 1075.6 0.135436 0.815835 0
M  V30 9772 H 1078.14 0.983955 1.38262 0
M  V30 9773 H 1076.91 1.98998 3.3692 0
M  V30 9774 H 1076.54 0.379164 3.95788 0
M  V30 9775 N 1077.53 -1.43282 0.656365 0
M  V30 9776 C 1078.95 -1.85012 0.250475 0
M  V30 9777 C 1079.3 -1.54944 -1.20361 0
M  V30 9778 O 1078.42 -0.999983 -1.9191 0
M  V30 9779 C 1079.02 -3.35827 0.447815 0
M  V30 9780 C 1077.58 -3.76277 0.0962151 0
M  V30 9781 C 1076.72 -2.66988 0.749168 0
M  V30 9782 H 1079.67 -1.3339 0.85982 0
M  V30 9783 H 1079.69 -3.7927 -0.305726 0
M  V30 9784 H 1079.21 -3.5768 1.5062 0
M  V30 9785 H 1077.31 -3.60035 -0.959449 0
M  V30 9786 H 1077.42 -4.76227 0.523875 0
M  V30 9787 H 1075.78 -2.54048 0.18212 0
M  V30 9788 H 1076.57 -2.91669 1.81064 0
M  V30 9789 N 1079.01 -0.398486 -1.52479 0
M  V30 9790 C 1080.26 0.180394 -2.01293 0
M  V30 9791 C 1080.58 1.46548 -1.28641 0
M  V30 9792 O 1079.85 1.91579 -0.409173 0
M  V30 9793 H 1078.43 0.0696528 -0.743746 0
M  V30 9794 H 1081.09 -0.532285 -1.87491 0
M  V30 9795 H 1080.19 0.38409 -3.09728 0
M  V30 9796 N 1080.49 1.57075 -0.12858 0
M  V30 9797 C 1081.74 1.9552 0.527087 0
M  V30 9798 C 1082.07 1.01243 1.66072 0
M  V30 9799 O 1081.32 0.0381076 1.95663 0
M  V30 9800 C 1081.62 3.40329 1.09138 0
M  V30 9801 C 1081.29 4.50832 0.0781039 0
M  V30 9802 C 1079.95 4.80782 -0.200493 0
M  V30 9803 C 1082.3 5.17595 -0.61192 0
M  V30 9804 C 1079.63 5.74809 -1.17524 0
M  V30 9805 C 1081.98 6.12671 -1.57536 0
M  V30 9806 C 1080.64 6.41008 -1.86184 0
M  V30 9807 H 1079.91 0.715458 0.192875 0
M  V30 9808 H 1082.56 1.90328 -0.211515 0
M  V30 9809 H 1080.87 3.42262 1.90694 0
M  V30 9810 H 1082.56 3.67393 1.60696 0
M  V30 9811 H 1079.15 4.2751 0.30543 0
M  V30 9812 H 1083.34 4.94605 -0.40986 0
M  V30 9813 H 1078.59 5.95065 -1.40384 0
M  V30 9814 H 1082.77 6.63486 -2.11565 0
M  V30 9815 H 1080.39 7.13673 -2.61868 0
M  V30 9816 N 1081.97 -0.145205 1.5693 0
M  V30 9817 C 1083.22 -0.855822 1.83085 0
M  V30 9818 C 1083.54 -1.81625 0.709747 0
M  V30 9819 O 1082.81 -1.94052 -0.268456 0
M  V30 9820 H 1081.39 -0.319032 0.675446 0
M  V30 9821 H 1084.05 -0.138781 1.94405 0
M  V30 9822 H 1083.15 -1.41698 2.78079 0
M  V30 9823 N 1083.45 -1.52049 -0.414609 0
M  V30 9824 C 1084.7 -1.65511 -1.15977 0
M  V30 9825 C 1085.02 -0.384703 -1.91168 0
M  V30 9826 O 1084.29 0.600247 -1.86477 0
M  V30 9827 H 1082.87 -0.610039 -0.431116 0
M  V30 9828 H 1085.53 -1.8907 -0.473139 0
M  V30 9829 H 1084.62 -2.4936 -1.87686 0
M  V30 9830 N 1084.93 0.6715 -1.42579 0
M  V30 9831 C 1085.84 1.81435 -1.48723 0
M  V30 9832 C 1086.85 1.69895 -0.375716 0
M  V30 9833 O 1088.03 1.91388 -0.627115 0
M  V30 9834 C 1085.09 3.17599 -1.39038 0
M  V30 9835 C 1084.15 3.41071 -2.60709 0
M  V30 9836 C 1083.39 4.7074 -2.51476 0
M  V30 9837 O 1083.61 5.48868 -1.55243 0
M  V30 9838 O 1082.54 4.95528 -3.41666 0
M  V30 9839 H 1086.37 1.79206 -2.45191 0
M  V30 9840 H 1083.95 0.827666 -1.24379 0
M  V30 9841 H 1085.84 3.98847 -1.3601 0
M  V30 9842 H 1084.51 3.20458 -0.456966 0
M  V30 9843 H 1083.42 2.59659 -2.69311 0
M  V30 9844 H 1084.75 3.43045 -3.5296 0
M  V30 9845 N 1086.4 1.28806 0.908124 0
M  V30 9846 C 1087.35 1.13215 2.01125 0
M  V30 9847 C 1088.32 0.0277357 1.66077 0
M  V30 9848 O 1089.51 0.193707 1.89814 0
M  V30 9849 C 1086.65 0.805887 3.35558 0
M  V30 9850 C 1085.76 1.9899 3.83441 0
M  V30 9851 C 1084.89 1.60376 5.06412 0
M  V30 9852 C 1083.93 2.75409 5.46641 0
M  V30 9853 N 1083.07 2.37249 6.60801 0
M  V30 9854 H 1087.91 2.07598 2.13792 0
M  V30 9855 H 1085.45 1.03316 1.0471 0
M  V30 9856 H 1087.4 0.597451 4.129 0
M  V30 9857 H 1086.03 -0.101023 3.22642 0
M  V30 9858 H 1085.09 2.31029 3.02208 0
M  V30 9859 H 1086.4 2.85214 4.09212 0
M  V30 9860 H 1085.55 1.35772 5.91313 0
M  V30 9861 H 1084.29 0.712888 4.82462 0
M  V30 9862 H 1083.3 3.00705 4.60279 0
M  V30 9863 H 1084.52 3.65148 5.72577 0
M  V30 9864 H 1082.47 1.50638 6.3847 0
M  V30 9865 H 1082.38 3.17008 6.86325 0
M  V30 9866 H 1083.65 2.15943 7.48992 0
M  V30 9867 N 1087.88 -1.11734 1.11145 0
M  V30 9868 C 1089.13 -1.83043 0.856717 0
M  V30 9869 C 1089.45 -1.84901 -0.619407 0
M  V30 9870 O 1088.72 -1.31738 -1.44989 0
M  V30 9871 H 1087.3 -0.677823 0.31395 0
M  V30 9872 H 1089.96 -1.35262 1.40322 0
M  V30 9873 H 1089.06 -2.87005 1.22616 0
M  V30 9874 N 1089.36 -0.901303 -1.29284 0
M  V30 9875 C 1090.58 -0.542823 -2.0017 0
M  V30 9876 C 1091.01 0.865583 -1.67001 0
M  V30 9877 O 1090.37 1.5764 -0.895502 0
M  V30 9878 C 1090.42 -0.743987 -3.52842 0
M  V30 9879 O 1089.52 0.202771 -4.11901 0
M  V30 9880 H 1088.86 -0.211903 -0.62928 0
M  V30 9881 H 1091.39 -1.21333 -1.64741 0
M  V30 9882 H 1091.4 -0.64926 -4.02801 0
M  V30 9883 H 1090.08 -1.77077 -3.7632 0
M  V30 9884 H 1088.65 0.0603637 -3.72851 0
M  V30 9885 N 1090.84 1.42931 -0.663954 0
M  V30 9886 C 1092.06 2.06544 -0.188201 0
M  V30 9887 C 1092.49 1.495 1.14155 0
M  V30 9888 O 1091.85 0.609164 1.7076 0
M  V30 9889 C 1091.89 3.60393 -0.122105 0
M  V30 9890 O 1091 4.02176 0.91258 0
M  V30 9891 H 1090.34 0.656458 -0.0997967 0
M  V30 9892 H 1092.87 1.83253 -0.909909 0
M  V30 9893 H 1092.88 4.07959 0.0576568 0
M  V30 9894 H 1091.55 4.01287 -1.09276 0
M  V30 9895 H 1090.13 3.6618 0.704738 0
M  V30 9896 N 1092.32 0.406567 1.52266 0
M  V30 9897 C 1093.73 -0.063607 1.86592 0
M  V30 9898 C 1094.08 -1.4466 1.32544 0
M  V30 9899 O 1093.2 -2.05971 0.663692 0
M  V30 9900 C 1093.8 -0.122198 3.3858 0
M  V30 9901 C 1092.36 -0.536701 3.72554 0
M  V30 9902 C 1091.5 0.290422 2.75775 0
M  V30 9903 H 1094.45 0.623738 1.45929 0
M  V30 9904 H 1094.48 -0.937964 3.68758 0
M  V30 9905 H 1093.99 0.884495 3.77887 0
M  V30 9906 H 1092.09 -1.55013 3.38824 0
M  V30 9907 H 1092.2 -0.282867 4.78264 0
M  V30 9908 H 1090.57 -0.246864 2.53501 0
M  V30 9909 H 1091.35 1.29541 3.17921 0
M  V30 9910 N 1093.79 -1.57004 0.136909 0
M  V30 9911 C 1095.04 -1.96087 -0.517477 0
M  V30 9912 C 1095.37 -1.0213 -1.65176 0
M  V30 9913 O 1094.65 -0.0617958 -1.94402 0
M  V30 9914 C 1094.93 -3.44958 -1.03323 0
M  V30 9915 C 1094.78 -4.49691 0.0988609 0
M  V30 9916 C 1096.1 -3.96091 -1.91832 0
M  V30 9917 H 1093.22 -0.712978 -0.186632 0
M  V30 9918 H 1095.86 -1.88767 0.216095 0
M  V30 9919 H 1094.01 -3.51327 -1.65836 0
M  V30 9920 H 1095.69 -4.55409 0.734847 0
M  V30 9921 H 1093.93 -4.271 0.75947 0
M  V30 9922 H 1094.6 -5.51165 -0.303554 0
M  V30 9923 H 1097.08 -3.92139 -1.39164 0
M  V30 9924 H 1095.95 -5.00742 -2.24831 0
M  V30 9925 H 1096.21 -3.37846 -2.85153 0
M  V30 9926 N 1095.27 0.136881 -1.57004 0
M  V30 9927 C 1096.52 0.8461 -1.83536 0
M  V30 9928 C 1096.84 1.81246 -0.71937 0
M  V30 9929 O 1096.11 1.94191 0.258161 0
M  V30 9930 H 1094.69 0.315446 -0.677128 0
M  V30 9931 H 1097.35 0.128469 -1.94476 0
M  V30 9932 H 1096.45 1.40221 -2.78827 0
M  V30 9933 N 1096.75 1.52266 0.40654 0
M  V30 9934 C 1098.16 1.58587 0.985241 0
M  V30 9935 C 1098.51 0.427955 1.91476 0
M  V30 9936 O 1097.64 -0.451341 2.11641 0
M  V30 9937 C 1098.23 2.87426 1.79365 0
M  V30 9938 C 1096.79 2.96217 2.32233 0
M  V30 9939 C 1095.94 2.53548 1.12288 0
M  V30 9940 H 1098.89 1.57598 0.186685 0
M  V30 9941 H 1098.91 2.72925 2.65127 0
M  V30 9942 H 1098.42 3.71682 1.11687 0
M  V30 9943 H 1096.52 2.1646 3.03275 0
M  V30 9944 H 1096.64 4.00511 2.62922 0
M  V30 9945 H 1095 2.07457 1.47763 0
M  V30 9946 H 1095.78 3.40181 0.461731 0
M  V30 9947 N 1098.23 -0.663929 1.42933 0
M  V30 9948 C 1099.64 -1.24484 1.39143 0
M  V30 9949 C 1099.99 -1.95993 0.0901142 0
M  V30 9950 O 1099.12 -2.00636 -0.810812 0
M  V30 9951 C 1099.71 -2.26402 2.52047 0
M  V30 9952 C 1098.27 -2.79995 2.51555 0
M  V30 9953 C 1097.42 -1.54475 2.30289 0
M  V30 9954 H 1100.37 -0.456619 1.51989 0
M  V30 9955 H 1100.39 -3.08361 2.22921 0
M  V30 9956 H 1099.9 -1.74328 3.46744 0
M  V30 9957 H 1098 -3.36161 1.60707 0
M  V30 9958 H 1098.11 -3.2827 3.48964 0
M  V30 9959 H 1096.48 -1.81437 1.78753 0
M  V30 9960 H 1097.26 -1.04351 3.27056 0
M  V30 9961 N 1099.71 -1.29285 -0.901281 0
M  V30 9962 C 1100.95 -1.16934 -1.64836 0
M  V30 9963 C 1101.28 0.279826 -1.92982 0
M  V30 9964 O 1100.55 1.19179 -1.55478 0
M  V30 9965 H 1099.13 -0.429768 -0.61099 0
M  V30 9966 H 1101.79 -1.62189 -1.08077 0
M  V30 9967 H 1100.88 -1.71821 -2.60545 0
M  V30 9968 N 1101.18 1.11143 -1.11736 0
M  V30 9969 C 1102.6 1.64462 -0.883693 0
M  V30 9970 C 1102.95 1.87324 0.583448 0
M  V30 9971 O 1102.07 1.60975 1.44623 0
M  V30 9972 C 1102.67 2.98765 -1.59764 0
M  V30 9973 C 1101.23 3.4898 -1.41032 0
M  V30 9974 C 1100.37 2.23729 -1.63831 0
M  V30 9975 H 1103.32 0.947415 -1.27317 0
M  V30 9976 H 1103.34 3.65885 -1.04443 0
M  V30 9977 H 1102.86 2.82094 -2.66542 0
M  V30 9978 H 1100.96 3.7081 -0.364781 0
M  V30 9979 H 1101.07 4.27571 -2.16148 0
M  V30 9980 H 1099.43 2.31507 -1.06191 0
M  V30 9981 H 1100.22 2.09597 -2.7189 0
M  V30 9982 N 1102.66 0.908147 1.28804 0
M  V30 9983 C 1104.07 0.585727 1.77274 0
M  V30 9984 C 1104.42 -0.898842 1.744 0
M  V30 9985 O 1103.55 -1.70301 1.33516 0
M  V30 9986 C 1104.14 1.05647 3.21907 0
M  V30 9987 C 1102.7 0.785066 3.68122 0
M  V30 9988 C 1101.85 1.22638 2.48707 0
M  V30 9989 H 1104.8 1.09 1.15346 0
M  V30 9990 H 1104.82 0.395442 3.7844 0
M  V30 9991 H 1104.33 2.13698 3.23967 0
M  V30 9992 H 1102.44 -0.282477 3.71528 0
M  V30 9993 H 1102.55 1.38888 4.58527 0
M  V30 9994 H 1100.91 0.645217 2.46392 0
M  V30 9995 H 1101.7 2.31512 2.5349 0
M  V30 9996 N 1104.14 -1.42577 0.671525 0
M  V30 9997 C 1105.39 -2.01185 0.192051 0
M  V30 9998 C 1105.71 -1.53349 -1.20454 0
M  V30 9999 O 1104.98 -0.753781 -1.80817 0
M  V30 10000 H 1103.56 -0.743898 0.0680106 0
M  V30 10001 H 1106.22 -1.74539 0.8673 0
M  V30 10002 H 1105.32 -3.11516 0.190796 0
M  V30 10003 N 1105.62 -0.414636 -1.52048 0
M  V30 10004 C 1106.84 0.161137 -2.06773 0
M  V30 10005 C 1107.27 1.37628 -1.2822 0
M  V30 10006 O 1106.63 1.78562 -0.313915 0
M  V30 10007 C 1106.67 0.48452 -3.5733 0
M  V30 10008 O 1105.78 1.57466 -3.81154 0
M  V30 10009 H 1105.12 0.0118003 -0.663895 0
M  V30 10010 H 1107.65 -0.589424 -1.95926 0
M  V30 10011 H 1107.66 0.741567 -4.01204 0
M  V30 10012 H 1106.33 -0.403733 -4.13936 0
M  V30 10013 H 1104.91 1.30935 -3.49157 0
M  V30 10014 N 1107.1 1.56929 -0.145233 0
M  V30 10015 C 1108.51 1.82877 0.375884 0
M  V30 10016 C 1108.86 1.06384 1.64854 0
M  V30 10017 O 1107.98 0.30857 2.14189 0
M  V30 10018 C 1108.58 3.31725 0.688744 0
M  V30 10019 C 1107.14 3.58261 1.15439 0
M  V30 10020 C 1106.28 2.76737 0.176565 0
M  V30 10021 H 1109.24 1.54328 -0.36996 0
M  V30 10022 H 1109.26 3.47784 1.54359 0
M  V30 10023 H 1108.77 3.87371 -0.237694 0
M  V30 10024 H 1106.87 3.08 2.09683 0
M  V30 10025 H 1106.98 4.66732 1.08158 0
M  V30 10026 H 1105.35 2.45761 0.668843 0
M  V30 10027 H 1106.13 3.35154 -0.743432 0
M  V30 10028 N 1108.58 -0.128553 1.57075 0
M  V30 10029 C 1109.82 -0.836355 1.83982 0
M  V30 10030 C 1110.14 -1.80862 0.728971 0
M  V30 10031 O 1109.41 -1.94326 -0.247859 0
M  V30 10032 H 1107.99 -0.31185 0.678792 0
M  V30 10033 H 1110.66 -0.118153 1.94542 0
M  V30 10034 H 1109.75 -1.38741 2.79567 0
M  V30 10035 N 1110.05 -1.5248 -0.398459 0
M  V30 10036 C 1111.3 -1.67309 -1.1461 0
M  V30 10037 C 1111.63 -0.407095 -1.89885 0
M  V30 10038 O 1110.91 0.594834 -1.85181 0
M  V30 10039 C 1111.19 -2.90204 -2.13198 0
M  V30 10040 C 1111.04 -4.26881 -1.4175 0
M  V30 10041 C 1112.36 -3.08634 -3.13741 0
M  V30 10042 H 1109.48 -0.608853 -0.415292 0
M  V30 10043 H 1112.12 -1.85057 -0.430573 0
M  V30 10044 H 1110.27 -2.75204 -2.74218 0
M  V30 10045 H 1111.95 -4.53631 -0.837676 0
M  V30 10046 H 1110.19 -4.27793 -0.719387 0
M  V30 10047 H 1110.86 -5.08939 -2.1374 0
M  V30 10048 H 1113.34 -3.22603 -2.62805 0
M  V30 10049 H 1112.21 -3.96117 -3.79977 0
M  V30 10050 H 1112.47 -2.22425 -3.82073 0
M  V30 10051 N 1111.53 0.65634 -1.43283 0
M  V30 10052 C 1112.48 1.79058 -1.48462 0
M  V30 10053 C 1113.47 1.65563 -0.358512 0
M  V30 10054 O 1114.68 1.71947 -0.532365 0
M  V30 10055 H 1111.05 0.590716 -0.465358 0
M  V30 10056 H 1113.03 1.7181 -2.43975 0
M  V30 10057 C 1111.77 3.17304 -1.42175 0
M  V30 10058 H 1111.1 3.28324 -2.2813 0
M  V30 10059 H 1112.54 3.96633 -1.4986 0
M  V30 10060 C 1111 3.36613 -0.138929 0
M  V30 10061 O 1111.53 3.93633 0.80101 0
M  V30 10062 N 1109.73 2.90557 -0.0501237 0
M  V30 10063 H 1109.28 2.4434 -0.815821 0
M  V30 10064 H 1109.24 3.03853 0.807504 0
M  V30 10065 N 1113.01 1.29761 0.894412 0
M  V30 10066 C 1114.26 1.17806 1.64214 0
M  V30 10067 C 1114.58 -0.269588 1.93127 0
M  V30 10068 O 1113.85 -1.18352 1.56107 0
M  V30 10069 H 1112.43 0.433002 0.608702 0
M  V30 10070 H 1115.09 1.6276 1.07216 0
M  V30 10071 H 1114.19 1.73201 2.5963 0
M  V30 10072 N 1114.49 -1.10549 1.12324 0
M  V30 10073 C 1115.42 -2.16657 0.747826 0
M  V30 10074 C 1116.43 -1.61238 -0.224981 0
M  V30 10075 O 1117.62 -1.78499 -0.00649408 0
M  V30 10076 C 1114.72 -3.38791 0.0859421 0
M  V30 10077 C 1113.89 -4.23655 1.08792 0
M  V30 10078 C 1112.95 -5.24239 0.453871 0
M  V30 10079 O 1111.98 -5.58262 1.11052 0
M  V30 10080 N 1113.18 -5.75246 -0.779215 0
M  V30 10081 H 1115.95 -2.49472 1.66084 0
M  V30 10082 H 1113.51 -1.26157 1.01469 0
M  V30 10083 H 1115.5 -4.03182 -0.350186 0
M  V30 10084 H 1114.07 -3.03961 -0.729807 0
M  V30 10085 H 1113.29 -3.55578 1.70171 0
M  V30 10086 H 1114.58 -4.77187 1.76549 0
M  V30 10087 H 1113.98 -5.49802 -1.3317 0
M  V30 10088 H 1112.53 -6.41428 -1.15818 0
M  V30 10089 N 1115.97 -0.914965 -1.28321 0
M  V30 10090 C 1116.91 -0.402792 -2.27258 0
M  V30 10091 C 1117.88 0.523412 -1.57638 0
M  V30 10092 O 1119.07 0.445344 -1.8553 0
M  V30 10093 C 1116.21 0.349956 -3.43321 0
M  V30 10094 C 1115.32 -0.608892 -4.27687 0
M  V30 10095 C 1114.46 0.162425 -5.30952 0
M  V30 10096 C 1113.49 -0.789959 -6.06981 0
M  V30 10097 N 1112.63 -0.0520826 -7.02081 0
M  V30 10098 H 1117.47 -1.25153 -2.70446 0
M  V30 10099 H 1115.01 -0.628444 -1.33 0
M  V30 10100 H 1116.97 0.802589 -4.09407 0
M  V30 10101 H 1115.6 1.16303 -3.01121 0
M  V30 10102 H 1114.65 -1.18005 -3.61634 0
M  V30 10103 H 1115.96 -1.33727 -4.8054 0
M  V30 10104 H 1115.11 0.675563 -6.02927 0
M  V30 10105 H 1113.85 0.923851 -4.7887 0
M  V30 10106 H 1112.86 -1.31446 -5.33856 0
M  V30 10107 H 1114.08 -1.55096 -6.61152 0
M  V30 10108 H 1112.03 0.691331 -6.52347 0
M  V30 10109 H 1111.95 -0.720267 -7.52561 0
M  V30 10110 H 1113.21 0.44082 -7.78253 0
M  V30 10111 N 1117.44 1.42219 -0.679077 0
M  V30 10112 C 1118.69 2.01081 -0.202718 0
M  V30 10113 C 1119.01 1.53986 1.19639 0
M  V30 10114 O 1118.28 0.763359 1.80415 0
M  V30 10115 H 1116.86 0.743526 -0.0719547 0
M  V30 10116 H 1119.52 1.74077 -0.876544 0
M  V30 10117 H 1118.62 3.11411 -0.207314 0
M  V30 10118 N 1118.92 0.422693 1.51826 0
M  V30 10119 C 1120.17 -0.150066 2.01141 0
M  V30 10120 C 1120.48 -1.45059 1.31214 0
M  V30 10121 O 1121.69 -2.10542 1.71419 0
M  V30 10122 C 1120.15 -0.317985 3.58492 0
M  V30 10123 C 1119.75 0.971244 4.37345 0
M  V30 10124 C 1121.5 -0.845303 4.15999 0
M  V30 10125 C 1119.4 0.769769 5.86369 0
M  V30 10126 H 1118.33 -0.0598567 0.75162 0
M  V30 10127 H 1120.99 0.550217 1.75057 0
M  V30 10128 H 1119.37 -1.08092 3.80962 0
M  V30 10129 H 1120.54 1.74138 4.26629 0
M  V30 10130 H 1118.86 1.42599 3.91222 0
M  V30 10131 H 1121.45 -1.01229 5.2503 0
M  V30 10132 H 1121.8 -1.82375 3.74226 0
M  V30 10133 H 1122.33 -0.141067 3.9755 0
M  V30 10134 H 1119.07 1.72017 6.32527 0
M  V30 10135 H 1118.59 0.0391717 5.99787 0
M  V30 10136 H 1120.27 0.417225 6.45653 0
M  V30 10137 N 1120.4 -1.5685 0.153553 0
M  V30 10138 C 1121.81 -1.83074 -0.36618 0
M  V30 10139 C 1122.16 -1.07257 -1.64288 0
M  V30 10140 O 1121.29 -0.319925 -2.14022 0
M  V30 10141 C 1121.88 -3.32086 -0.671142 0
M  V30 10142 C 1120.44 -3.58868 -1.13537 0
M  V30 10143 C 1119.59 -2.76827 -0.161887 0
M  V30 10144 H 1122.54 -1.54129 0.378139 0
M  V30 10145 H 1122.56 -3.48598 -1.52512 0
M  V30 10146 H 1122.07 -3.8724 0.258234 0
M  V30 10147 H 1120.17 -3.09107 -2.08047 0
M  V30 10148 H 1120.29 -4.67299 -1.05682 0
M  V30 10149 H 1118.65 -2.46112 -0.6558 0
M  V30 10150 H 1119.43 -3.34755 0.761195 0
M  V30 10151 N 1121.88 0.120221 -1.57141 0
M  V30 10152 C 1123.13 0.826586 -1.84423 0
M  V30 10153 C 1123.45 1.80473 -0.738553 0
M  V30 10154 O 1122.72 1.94454 0.23755 0
M  V30 10155 H 1121.3 0.308246 -0.680436 0
M  V30 10156 H 1123.96 0.107835 -1.94601 0
M  V30 10157 H 1123.05 1.37256 -2.80298 0
M  V30 10158 N 1123.36 1.52689 0.390367 0
M  V30 10159 C 1124.63 1.58246 1.14968 0
M  V30 10160 C 1125.01 0.374808 2.07746 0
M  V30 10161 O 1124.36 -0.636969 2.19442 0
M  V30 10162 C 1124.57 2.92059 1.91056 0
M  V30 10163 C 1125.92 3.45745 2.46466 0
M  V30 10164 O 1126.94 2.93924 2.01214 0
M  V30 10165 O 1125.8 4.3628 3.29122 0
M  V30 10166 H 1122.9 0.638189 0.52597 0
M  V30 10167 H 1125.44 1.65024 0.39563 0
M  V30 10168 H 1124.21 3.71399 1.23201 0
M  V30 10169 H 1123.84 2.8866 2.73425 0
M  V30 10170 N 1124.83 -0.648732 1.43629 0
M  V30 10171 C 1126.25 -1.23001 1.40455 0
M  V30 10172 C 1126.6 -1.95886 0.110897 0
M  V30 10173 O 1125.72 -2.01485 -0.789487 0
M  V30 10174 C 1126.32 -2.23716 2.54434 0
M  V30 10175 C 1124.88 -2.77311 2.54511 0
M  V30 10176 C 1124.02 -1.52024 2.31914 0
M  V30 10177 H 1126.97 -0.440473 1.52465 0
M  V30 10178 H 1126.99 -3.05979 2.26179 0
M  V30 10179 H 1126.51 -1.7064 3.48574 0
M  V30 10180 H 1124.61 -3.34437 1.64263 0
M  V30 10181 H 1124.72 -3.2455 3.52426 0
M  V30 10182 H 1123.08 -1.79531 1.80667 0
M  V30 10183 H 1123.87 -1.00876 3.28145 0
M  V30 10184 N 1126.31 -1.30234 -0.887518 0
M  V30 10185 C 1127.28 -1.16384 -1.97452 0
M  V30 10186 C 1128.28 -0.0957942 -1.60514 0
M  V30 10187 O 1129.47 -0.343706 -1.70776 0
M  V30 10188 C 1126.6 -0.782514 -3.31797 0
M  V30 10189 H 1127.79 -2.12952 -2.11167 0
M  V30 10190 H 1125.34 -1.13594 -1.07359 0
M  V30 10191 H 1126.08 0.18278 -3.23785 0
M  V30 10192 H 1125.86 -1.55434 -3.59976 0
M  V30 10193 H 1127.35 -0.709011 -4.11537 0
M  V30 10194 N 1127.79 1.09952 -1.12909 0
M  V30 10195 C 1129.04 1.82016 -0.887482 0
M  V30 10196 C 1129.37 1.85445 0.586546 0
M  V30 10197 O 1128.62 1.31446 1.44984 0
M  V30 10198 C 1128.92 3.28252 -1.41369 0
M  V30 10199 C 1128.59 3.44965 -2.90362 0
M  V30 10200 C 1127.25 3.49233 -3.31043 0
M  V30 10201 C 1129.6 3.49947 -3.86247 0
M  V30 10202 C 1126.93 3.56057 -4.66305 0
M  V30 10203 C 1129.28 3.58305 -5.21345 0
M  V30 10204 C 1127.94 3.6084 -5.61561 0
M  V30 10205 H 1127.21 0.666046 -0.324753 0
M  V30 10206 H 1129.86 1.29568 -1.41012 0
M  V30 10207 H 1128.17 3.83301 -0.81163 0
M  V30 10208 H 1129.86 3.82533 -1.20289 0
M  V30 10209 H 1126.45 3.42323 -2.57901 0
M  V30 10210 H 1130.64 3.45895 -3.55908 0
M  V30 10211 H 1125.89 3.56305 -4.96847 0
M  V30 10212 H 1130.07 3.61104 -5.95463 0
M  V30 10213 H 1127.69 3.6588 -6.6636 0
M  V30 10214 N 1129.27 0.921757 1.27833 0
M  V30 10215 C 1130.52 0.557974 1.94245 0
M  V30 10216 C 1130.84 -0.90268 1.72849 0
M  V30 10217 O 1130.11 -1.63915 1.07279 0
M  V30 10218 H 1128.69 0.203364 0.718785 0
M  V30 10219 H 1131.35 1.17286 1.5566 0
M  V30 10220 H 1130.45 0.759202 3.02725 0
M  V30 10221 N 1130.75 -1.41857 0.686609 0
M  V30 10222 C 1131.7 -2.27999 -0.00734666 0
M  V30 10223 C 1132.68 -1.41723 -0.761808 0
M  V30 10224 O 1133.87 -1.65072 -0.638776 0
M  V30 10225 C 1131 -3.29909 -0.949462 0
M  V30 10226 C 1130.09 -4.23666 -0.191722 0
M  V30 10227 N 1130.48 -4.99277 0.809715 0
M  V30 10228 C 1128.78 -4.43937 -0.428489 0
M  V30 10229 C 1129.48 -5.67834 1.2625 0
M  V30 10230 N 1128.45 -5.40387 0.590151 0
M  V30 10231 H 1132.26 -2.83887 0.760608 0
M  V30 10232 H 1129.77 -1.53962 0.516676 0
M  V30 10233 H 1131.77 -3.90436 -1.46169 0
M  V30 10234 H 1130.43 -2.75582 -1.71711 0
M  V30 10235 H 1131.44 -5.04051 1.18966 0
M  V30 10236 H 1128.11 -4.00633 -1.17472 0
M  V30 10237 H 1129.5 -6.38469 2.09301 0
M  V30 10238 N 1132.22 -0.430739 -1.51599 0
M  V30 10239 C 1133.15 0.374695 -2.30474 0
M  V30 10240 C 1134.14 1.02694 -1.35602 0
M  V30 10241 O 1135.32 1.03184 -1.6452 0
M  V30 10242 C 1132.45 1.47981 -3.14196 0
M  V30 10243 C 1131.4 0.951415 -4.17291 0
M  V30 10244 C 1130.73 2.15177 -4.89492 0
M  V30 10245 C 1132.03 -0.00957951 -5.22299 0
M  V30 10246 H 1133.72 -0.283508 -2.98055 0
M  V30 10247 H 1131.27 -0.13779 -1.43339 0
M  V30 10248 H 1133.22 2.05043 -3.68151 0
M  V30 10249 H 1131.95 2.16621 -2.44424 0
M  V30 10250 H 1130.61 0.403052 -3.64378 0
M  V30 10251 H 1130.25 2.82421 -4.1623 0
M  V30 10252 H 1129.95 1.80464 -5.59202 0
M  V30 10253 H 1131.48 2.72806 -5.46269 0
M  V30 10254 H 1132.89 0.470527 -5.71366 0
M  V30 10255 H 1131.29 -0.268959 -5.99497 0
M  V30 10256 H 1132.36 -0.948297 -4.75537 0
M  V30 10257 N 1133.7 1.56767 -0.161869 0
M  V30 10258 C 1134.95 1.96206 0.484537 0
M  V30 10259 C 1135.27 1.04848 1.64414 0
M  V30 10260 O 1134.54 0.112946 1.95574 0
M  V30 10261 H 1133.12 0.724491 0.181994 0
M  V30 10262 H 1135.78 1.93406 -0.240845 0
M  V30 10263 H 1134.88 3.00279 0.85083 0
M  V30 10264 N 1135.18 -0.111886 1.57202 0
M  V30 10265 C 1136.59 -0.668261 1.74331 0
M  V30 10266 C 1136.94 -1.79959 0.781609 0
M  V30 10267 O 1136.07 -2.16356 -0.043833 0
M  V30 10268 C 1136.66 -1.219 3.1611 0
M  V30 10269 C 1135.22 -1.7216 3.34721 0
M  V30 10270 C 1134.37 -0.624223 2.70183 0
M  V30 10271 H 1137.32 0.114081 1.58289 0
M  V30 10272 H 1137.34 -2.08858 3.18054 0
M  V30 10273 H 1136.85 -0.395381 3.86081 0
M  V30 10274 H 1134.95 -2.56976 2.69803 0
M  V30 10275 H 1135.07 -1.82615 4.42932 0
M  V30 10276 H 1133.43 -1.05958 2.31614 0
M  V30 10277 H 1134.21 0.188537 3.42782 0
M  V30 10278 N 1136.66 -1.52894 -0.382264 0
M  V30 10279 C 1138.07 -1.60135 -0.959887 0
M  V30 10280 C 1138.42 -0.458363 -1.90771 0
M  V30 10281 O 1137.55 0.417614 -2.12332 0
M  V30 10282 C 1138.14 -2.90243 -1.74769 0
M  V30 10283 C 1136.7 -2.99874 -2.27491 0
M  V30 10284 C 1135.85 -2.55302 -1.0824 0
M  V30 10285 H 1138.8 -1.57875 -0.161589 0
M  V30 10286 H 1138.82 -2.77108 -2.60751 0
M  V30 10287 H 1138.33 -3.73412 -1.0576 0
M  V30 10288 H 1136.43 -2.21258 -2.99793 0
M  V30 10289 H 1136.54 -4.04643 -2.56516 0
M  V30 10290 H 1134.91 -2.09781 -1.44444 0
M  V30 10291 H 1135.69 -3.40872 -0.407553 0
M  V30 10292 N 1138.14 0.641106 -1.43971 0
M  V30 10293 C 1139.39 1.39807 -1.4594 0
M  V30 10294 C 1139.71 1.94795 -0.0893874 0
M  V30 10295 O 1138.98 1.75175 0.876962 0
M  V30 10296 H 1137.56 0.518908 -0.537349 0
M  V30 10297 H 1140.22 0.755278 -1.79671 0
M  V30 10298 H 1139.31 2.23439 -2.17903 0
M  V30 10299 N 1139.62 1.30703 0.880598 0
M  V30 10300 C 1140.56 1.17455 1.98678 0
M  V30 10301 C 1141.53 0.0629569 1.65981 0
M  V30 10302 O 1142.72 0.233926 1.89361 0
M  V30 10303 C 1139.86 0.876882 3.33774 0
M  V30 10304 C 1138.97 2.07078 3.79134 0
M  V30 10305 C 1138.11 1.71082 5.02896 0
M  V30 10306 C 1137.14 2.86942 5.40676 0
M  V30 10307 N 1136.28 2.51212 6.55619 0
M  V30 10308 H 1141.12 2.12086 2.09341 0
M  V30 10309 H 1138.66 1.05514 1.02495 0
M  V30 10310 H 1140.62 0.684899 4.1154 0
M  V30 10311 H 1139.25 -0.0325633 3.22784 0
M  V30 10312 H 1138.3 2.37388 2.97239 0
M  V30 10313 H 1139.61 2.9383 4.0307 0
M  V30 10314 H 1138.76 1.48284 5.883 0
M  V30 10315 H 1137.5 0.815064 4.80841 0
M  V30 10316 H 1136.51 3.10401 4.53797 0
M  V30 10317 H 1137.73 3.77211 5.64703 0
M  V30 10318 H 1135.68 1.64147 6.35131 0
M  V30 10319 H 1135.6 3.31495 6.79446 0
M  V30 10320 H 1136.86 2.31781 7.44243 0
M  V30 10321 N 1141.09 -1.09351 1.1349 0
M  V30 10322 C 1142.51 -1.3359 0.873269 0
M  V30 10323 C 1142.71 -1.95432 -0.490767 0
M  V30 10324 O 1141.77 -2.20117 -1.23712 0
M  V30 10325 C 1143.08 -2.24681 1.99847 0
M  V30 10326 C 1144.63 -2.38188 2.03065 0
M  V30 10327 C 1145.1 -3.32615 3.14851 0
M  V30 10328 N 1146.59 -3.40188 3.14366 0
M  V30 10329 C 1147.33 -4.13256 3.97501 0
M  V30 10330 N 1146.82 -4.89114 4.90652 0
M  V30 10331 N 1148.62 -4.08988 3.85597 0
M  V30 10332 H 1140.77 -0.675852 2.0136 0
M  V30 10333 H 1143.03 -0.360268 0.876876 0
M  V30 10334 H 1142.74 -1.86469 2.98198 0
M  V30 10335 H 1142.61 -3.25075 1.91327 0
M  V30 10336 H 1145 -2.75663 1.05327 0
M  V30 10337 H 1145.08 -1.3757 2.15658 0
M  V30 10338 H 1144.72 -2.95863 4.12829 0
M  V30 10339 H 1144.65 -4.33139 2.99496 0
M  V30 10340 H 1147.14 -2.861 2.46892 0
M  V30 10341 H 1147.46 -5.423 5.50573 0
M  V30 10342 H 1145.8 -4.882 4.94657 0
M  V30 10343 H 1148.99 -3.48826 3.12151 0
M  V30 10344 H 1149.17 -4.65671 4.50615 0
M  V30 10345 N 1142.57 -0.928524 -1.27343 0
M  V30 10346 C 1143.82 -0.568267 -1.93946 0
M  V30 10347 C 1144.14 0.893501 -1.73325 0
M  V30 10348 O 1143.41 1.63344 -1.08147 0
M  V30 10349 H 1141.99 -0.207173 -0.717696 0
M  V30 10350 H 1144.65 -1.1811 -1.55036 0
M  V30 10351 H 1143.75 -0.775246 -3.02318 0
M  V30 10352 N 1144.05 1.41491 -0.694123 0
M  V30 10353 C 1144.98 2.33462 -0.0422169 0
M  V30 10354 C 1145.96 1.51739 0.76872 0
M  V30 10355 O 1147.15 1.8028 0.721985 0
M  V30 10356 C 1144.28 3.35545 0.895925 0
M  V30 10357 C 1143.23 4.27568 0.192188 0
M  V30 10358 C 1142.56 5.20014 1.24459 0
M  V30 10359 C 1143.86 5.1376 -0.940626 0
M  V30 10360 H 1145.55 2.88225 -0.810363 0
M  V30 10361 H 1143.1 1.38586 -0.39114 0
M  V30 10362 H 1145.05 3.9881 1.36121 0
M  V30 10363 H 1143.77 2.79129 1.69572 0
M  V30 10364 H 1142.43 3.65726 -0.25305 0
M  V30 10365 H 1142.08 4.59913 2.03687 0
M  V30 10366 H 1141.78 5.82417 0.778734 0
M  V30 10367 H 1143.3 5.86155 1.71041 0
M  V30 10368 H 1144.72 5.70601 -0.555692 0
M  V30 10369 H 1143.11 5.85097 -1.33349 0
M  V30 10370 H 1144.18 4.51011 -1.78093 0
M  V30 10371 N 1145.53 0.438773 1.51369 0
M  V30 10372 C 1146.75 -0.128221 2.07003 0
M  V30 10373 C 1147.18 -1.3557 1.30393 0
M  V30 10374 O 1146.54 -1.7804 0.342283 0
M  V30 10375 C 1146.58 -0.42761 3.58056 0
M  V30 10376 O 1145.69 -1.51382 3.83611 0
M  V30 10377 H 1145.03 -0.00123679 0.663999 0
M  V30 10378 H 1147.56 0.62052 1.94963 0
M  V30 10379 H 1147.57 -0.677645 4.02333 0
M  V30 10380 H 1146.24 0.469535 4.13241 0
M  V30 10381 H 1144.82 -1.25363 3.51196 0
M  V30 10382 N 1147.01 -1.56678 0.170181 0
M  V30 10383 C 1148.25 -1.9646 -0.474125 0
M  V30 10384 C 1148.57 -1.05719 -1.63855 0
M  V30 10385 O 1147.84 -0.123316 -1.95511 0
M  V30 10386 H 1146.42 -0.725446 -0.178149 0
M  V30 10387 H 1149.09 -1.93276 0.251099 0
M  V30 10388 H 1148.18 -3.00726 -0.834894 0
M  V30 10389 N 1148.48 0.103547 -1.57259 0
M  V30 10390 C 1149.73 0.809774 -1.85931 0
M  V30 10391 C 1150.06 1.78791 -0.758122 0
M  V30 10392 O 1149.34 1.93079 0.234682 0
M  V30 10393 C 1149.62 1.54601 -3.25224 0
M  V30 10394 C 1149.47 0.586439 -4.45961 0
M  V30 10395 C 1150.79 2.4986 -3.62296 0
M  V30 10396 H 1147.91 0.29293 -0.676285 0
M  V30 10397 H 1150.55 0.0736065 -1.89857 0
M  V30 10398 H 1148.7 2.17355 -3.22008 0
M  V30 10399 H 1150.38 -0.0334441 -4.61288 0
M  V30 10400 H 1148.62 -0.10085 -4.33683 0
M  V30 10401 H 1149.29 1.13855 -5.40131 0
M  V30 10402 H 1151.77 1.97203 -3.66402 0
M  V30 10403 H 1150.64 2.98396 -4.60707 0
M  V30 10404 H 1150.9 3.33233 -2.90531 0
M  V30 10405 N 1149.96 1.53094 0.37415 0
M  V30 10406 C 1151.37 1.60641 0.951381 0
M  V30 10407 C 1151.72 0.468474 1.90525 0
M  V30 10408 O 1150.85 -0.406347 2.12551 0
M  V30 10409 C 1151.44 2.91166 1.73228 0
M  V30 10410 C 1150 3.01077 2.25898 0
M  V30 10411 C 1149.15 2.55873 1.06885 0
M  V30 10412 H 1152.1 1.57959 0.153214 0
M  V30 10413 H 1152.12 2.78487 2.59278 0
M  V30 10414 H 1151.63 3.73968 1.03778 0
M  V30 10415 H 1149.73 2.22844 2.98615 0
M  V30 10416 H 1149.85 4.05998 2.54367 0
M  V30 10417 H 1148.21 2.10544 1.43329 0
M  V30 10418 H 1148.99 3.41084 0.38947 0
M  V30 10419 N 1151.44 -0.633461 1.44309 0
M  V30 10420 C 1152.69 -1.39031 1.46679 0
M  V30 10421 C 1153.01 -1.94745 0.0997165 0
M  V30 10422 O 1152.28 -1.75637 -0.867659 0
M  V30 10423 H 1150.86 -0.516051 0.540093 0
M  V30 10424 H 1153.52 -0.745739 1.80069 0
M  V30 10425 H 1152.62 -2.2228 2.19085 0
M  V30 10426 N 1152.92 -1.31168 -0.873655 0
M  V30 10427 C 1154.17 -1.20003 -1.62118 0
M  V30 10428 C 1154.48 0.241505 -1.94103 0
M  V30 10429 O 1155.69 0.474801 -2.67316 0
M  V30 10430 C 1154.14 -2.10055 -2.92241 0
M  V30 10431 C 1153.75 -3.59183 -2.67752 0
M  V30 10432 C 1155.49 -2.07681 -3.70228 0
M  V30 10433 C 1153.4 -4.41255 -3.93761 0
M  V30 10434 H 1152.33 -0.445564 -0.608267 0
M  V30 10435 H 1154.98 -1.55997 -0.966287 0
M  V30 10436 H 1153.36 -1.66956 -3.59085 0
M  V30 10437 H 1154.54 -4.10504 -2.09339 0
M  V30 10438 H 1152.85 -3.63496 -2.03125 0
M  V30 10439 H 1155.45 -2.66246 -4.637 0
M  V30 10440 H 1155.79 -1.06304 -4.02499 0
M  V30 10441 H 1156.33 -2.48961 -3.10263 0
M  V30 10442 H 1153.07 -5.43372 -3.66643 0
M  V30 10443 H 1152.59 -3.94694 -4.51638 0
M  V30 10444 H 1154.26 -4.53278 -4.6168 0
M  V30 10445 N 1154.4 1.08748 -1.14068 0
M  V30 10446 C 1155.34 2.15573 -0.824425 0
M  V30 10447 C 1156.31 1.64683 0.216522 0
M  V30 10448 O 1157.5 1.90601 0.0872193 0
M  V30 10449 C 1154.64 3.43756 -0.30423 0
M  V30 10450 C 1153.75 4.08512 -1.40506 0
M  V30 10451 C 1152.89 5.24477 -0.842479 0
M  V30 10452 C 1151.93 5.81167 -1.92123 0
M  V30 10453 N 1151.06 6.88483 -1.37608 0
M  V30 10454 H 1155.9 2.41968 -1.73941 0
M  V30 10455 H 1153.44 1.18751 -0.868143 0
M  V30 10456 H 1155.4 4.17197 0.0155546 0
M  V30 10457 H 1154.03 3.17658 0.573868 0
M  V30 10458 H 1153.08 3.32866 -1.84131 0
M  V30 10459 H 1154.39 4.46669 -2.2201 0
M  V30 10460 H 1153.55 6.04842 -0.474389 0
M  V30 10461 H 1152.28 4.877 0.00355212 0
M  V30 10462 H 1151.29 4.99458 -2.29831 0
M  V30 10463 H 1152.51 6.20003 -2.77079 0
M  V30 10464 H 1150.46 6.53672 -0.552168 0
M  V30 10465 H 1150.38 7.25446 -2.12752 0
M  V30 10466 H 1151.65 7.72588 -1.03578 0
M  V30 10467 N 1155.87 0.935264 1.26849 0
M  V30 10468 C 1157.12 0.578545 1.93642 0
M  V30 10469 C 1157.44 -0.884296 1.73796 0
M  V30 10470 O 1156.71 -1.62768 1.09011 0
M  V30 10471 H 1155.29 0.210976 0.716588 0
M  V30 10472 H 1157.96 1.1893 1.54407 0
M  V30 10473 H 1157.05 0.791268 3.01903 0
M  V30 10474 N 1157.35 -1.41121 0.701616 0
M  V30 10475 C 1158.76 -1.84122 0.309208 0
M  V30 10476 C 1159.11 -1.58695 -1.15371 0
M  V30 10477 O 1158.24 -1.06053 -1.88631 0
M  V30 10478 C 1158.83 -3.34233 0.554429 0
M  V30 10479 C 1157.39 -3.7578 0.215876 0
M  V30 10480 C 1156.54 -2.6447 0.833729 0
M  V30 10481 H 1159.49 -1.30587 0.901822 0
M  V30 10482 H 1159.51 -3.8005 -0.18491 0
M  V30 10483 H 1159.02 -3.52707 1.61923 0
M  V30 10484 H 1157.13 -3.62905 -0.844421 0
M  V30 10485 H 1157.24 -4.74319 0.675118 0
M  V30 10486 H 1155.6 -2.5334 0.262851 0
M  V30 10487 H 1156.39 -2.85761 1.90252 0
M  V30 10488 N 1158.83 -0.446794 -1.51134 0
M  V30 10489 C 1160.25 -0.0995905 -1.59289 0
M  V30 10490 C 1160.45 1.39191 -1.45699 0
M  V30 10491 O 1159.5 2.1628 -1.30303 0
M  V30 10492 C 1160.82 -0.628135 -2.94066 0
M  V30 10493 C 1162.36 -0.589409 -3.074 0
M  V30 10494 C 1162.84 -1.09509 -4.44715 0
M  V30 10495 N 1164.33 -1.05347 -4.51061 0
M  V30 10496 C 1165.06 -1.41551 -5.55654 0
M  V30 10497 N 1164.56 -1.85086 -6.67619 0
M  V30 10498 N 1166.35 -1.33307 -5.46064 0
M  V30 10499 H 1158.5 -1.41713 -1.58213 0
M  V30 10500 H 1160.77 -0.584555 -0.746324 0
M  V30 10501 H 1160.47 -1.67205 -3.09411 0
M  V30 10502 H 1160.35 -0.0582398 -3.77155 0
M  V30 10503 H 1162.73 0.445541 -2.91717 0
M  V30 10504 H 1162.82 -1.19582 -2.26128 0
M  V30 10505 H 1162.46 -2.12855 -4.61146 0
M  V30 10506 H 1162.39 -0.465122 -5.24542 0
M  V30 10507 H 1164.88 -0.733877 -3.70706 0
M  V30 10508 H 1165.19 -2.10923 -7.43459 0
M  V30 10509 H 1163.54 -1.8902 -6.68802 0
M  V30 10510 H 1166.73 -0.991547 -4.57478 0
M  V30 10511 H 1166.9 -1.6185 -6.27462 0
M  V30 10512 N 1160.31 1.56586 -0.178487 0
M  V30 10513 C 1161.56 1.96709 0.4637 0
M  V30 10514 C 1161.88 1.06586 1.63292 0
M  V30 10515 O 1161.15 0.133683 1.95443 0
M  V30 10516 H 1159.73 0.726381 0.174299 0
M  V30 10517 H 1162.39 1.9314 -0.261345 0
M  V30 10518 H 1161.49 3.01164 0.818934 0
M  V30 10519 N 1161.79 -0.095206 1.57312 0
M  V30 10520 C 1163.06 -0.830388 1.77099 0
M  V30 10521 C 1163.44 -1.9694 0.760121 0
M  V30 10522 O 1162.79 -2.2752 -0.211403 0
M  V30 10523 C 1163 -1.32507 3.22867 0
M  V30 10524 C 1164.35 -1.7679 3.86045 0
M  V30 10525 O 1165.37 -1.42131 3.26615 0
M  V30 10526 O 1164.23 -2.40876 4.90552 0
M  V30 10527 H 1161.33 -0.396083 0.72598 0
M  V30 10528 H 1163.87 -0.0770965 1.69525 0
M  V30 10529 H 1162.64 -0.508992 3.87975 0
M  V30 10530 H 1162.27 -2.14037 3.35073 0
M  V30 10531 N 1163.26 -1.53291 -0.366026 0
M  V30 10532 C 1164.68 -1.61144 -0.942849 0
M  V30 10533 C 1165.03 -0.478571 -1.90274 0
M  V30 10534 O 1164.15 0.395069 -2.12763 0
M  V30 10535 C 1164.75 -2.92081 -1.71681 0
M  V30 10536 C 1163.31 -3.0227 -2.24298 0
M  V30 10537 C 1162.45 -2.56436 -1.05526 0
M  V30 10538 H 1165.4 -1.58038 -0.144835 0
M  V30 10539 H 1165.42 -2.79858 -2.57798 0
M  V30 10540 H 1164.94 -3.74513 -1.01793 0
M  V30 10541 H 1163.04 -2.24425 -2.97429 0
M  V30 10542 H 1163.15 -4.07341 -2.5221 0
M  V30 10543 H 1161.51 -2.11301 -1.42211 0
M  V30 10544 H 1162.3 -3.41285 -0.371376 0
M  V30 10545 N 1164.74 0.6258 -1.44643 0
M  V30 10546 C 1165.99 1.38251 -1.47414 0
M  V30 10547 C 1166.31 1.94689 -0.110043 0
M  V30 10548 O 1165.58 1.76095 0.858333 0
M  V30 10549 H 1164.16 0.513179 -0.542823 0
M  V30 10550 H 1166.82 0.736179 -1.80462 0
M  V30 10551 H 1165.92 2.21115 -2.2026 0
M  V30 10552 N 1166.22 1.31629 0.866686 0
M  V30 10553 C 1167.46 1.22806 1.63395 0
M  V30 10554 C 1167.82 -0.209785 1.9085 0
M  V30 10555 O 1169.03 -0.421562 2.65474 0
M  V30 10556 C 1167.3 2.05187 2.92631 0
M  V30 10557 S 1168.86 2.13261 3.83491 0
M  V30 10558 H 1165.67 0.437339 0.560585 0
M  V30 10559 H 1168.28 1.66333 1.02731 0
M  V30 10560 H 1166.98 3.08736 2.70389 0
M  V30 10561 H 1166.51 1.62393 3.58318 0
M  V30 10562 H 1168.53 1.27333 4.79584 0
M  V30 10563 N 1167.7 -1.08142 1.14644 0
M  V30 10564 C 1169.11 -1.62061 0.926986 0
M  V30 10565 C 1169.46 -1.88805 -0.533578 0
M  V30 10566 O 1168.59 -1.64753 -1.40305 0
M  V30 10567 C 1169.18 -2.94425 1.67629 0
M  V30 10568 C 1167.74 -3.45118 1.50235 0
M  V30 10569 C 1166.89 -2.19307 1.69705 0
M  V30 10570 H 1169.84 -0.913326 1.29785 0
M  V30 10571 H 1169.86 -3.62987 1.14107 0
M  V30 10572 H 1169.37 -2.74928 2.73927 0
M  V30 10573 H 1167.47 -3.69713 0.462967 0
M  V30 10574 H 1167.59 -4.2169 2.27408 0
M  V30 10575 H 1165.95 -2.28611 1.12291 0
M  V30 10576 H 1166.73 -2.02315 2.77351 0
M  V30 10577 N 1169.18 -0.941978 -1.26351 0
M  V30 10578 C 1170.43 -0.588806 -1.93333 0
M  V30 10579 C 1170.75 0.875067 -1.74263 0
M  V30 10580 O 1170.02 1.62187 -1.09873 0
M  V30 10581 H 1168.6 -0.214774 -0.715459 0
M  V30 10582 H 1171.26 -1.19747 -1.53774 0
M  V30 10583 H 1170.35 -0.807267 -3.01479 0
M  V30 10584 N 1170.66 1.40747 -0.709091 0
M  V30 10585 C 1171.62 2.29118 -0.0611607 0
M  V30 10586 C 1172.62 1.45049 0.694081 0
M  V30 10587 O 1173.81 1.66039 0.526952 0
M  V30 10588 C 1170.94 3.28154 0.923447 0
M  V30 10589 H 1172.13 2.87913 -0.839413 0
M  V30 10590 H 1169.69 1.4896 -0.473363 0
M  V30 10591 H 1170.42 2.74366 1.72899 0
M  V30 10592 H 1170.21 3.90207 0.384862 0
M  V30 10593 H 1171.7 3.94343 1.37417 0
M  V30 10594 N 1172.13 0.454803 1.50895 0
M  V30 10595 C 1173.04 -0.353495 2.31921 0
M  V30 10596 C 1174.06 -1.01136 1.41589 0
M  V30 10597 O 1175.24 -1.00291 1.74653 0
M  V30 10598 C 1172.3 -1.43032 3.15821 0
M  V30 10599 C 1171.36 -0.790763 4.21954 0
M  V30 10600 C 1170.59 -1.81628 5.01843 0
M  V30 10601 O 1170.82 -3.04078 4.8259 0
M  V30 10602 O 1169.75 -1.39713 5.8546 0
M  V30 10603 H 1173.58 0.308463 3.02129 0
M  V30 10604 H 1171.16 0.216971 1.47816 0
M  V30 10605 H 1173.04 -2.05444 3.67927 0
M  V30 10606 H 1171.72 -2.07605 2.48358 0
M  V30 10607 H 1170.63 -0.128127 3.73881 0
M  V30 10608 H 1171.96 -0.188251 4.9184 0
M  V30 10609 N 1173.61 -1.56489 0.186789 0
M  V30 10610 C 1174.86 -1.96952 -0.453261 0
M  V30 10611 C 1175.18 -1.07451 -1.62725 0
M  V30 10612 O 1174.45 -0.144046 -1.9537 0
M  V30 10613 H 1173.03 -0.727295 -0.170445 0
M  V30 10614 H 1175.69 -1.92999 0.271584 0
M  V30 10615 H 1174.79 -3.01594 -0.802951 0
M  V30 10616 N 1175.09 0.086862 -1.5736 0
M  V30 10617 C 1176.5 0.640442 -1.75372 0
M  V30 10618 C 1176.85 1.78693 -0.81014 0
M  V30 10619 O 1175.98 2.16398 0.00940712 0
M  V30 10620 C 1176.57 1.16856 -3.1801 0
M  V30 10621 C 1175.13 1.66813 -3.37417 0
M  V30 10622 C 1174.28 0.58116 -2.71142 0
M  V30 10623 H 1177.23 -0.139249 -1.58088 0
M  V30 10624 H 1177.25 2.03772 -3.21337 0
M  V30 10625 H 1176.76 0.333909 -3.86661 0
M  V30 10626 H 1174.86 2.52652 -2.73858 0
M  V30 10627 H 1174.98 1.75545 -4.45781 0
M  V30 10628 H 1173.34 1.0226 -2.3327 0
M  V30 10629 H 1174.12 -0.243047 -3.42439 0
M  V30 10630 N 1176.57 1.53483 0.357892 0
M  V30 10631 C 1177.53 1.79782 1.42166 0
M  V30 10632 C 1178.53 0.668441 1.46248 0
M  V30 10633 O 1179.72 0.936677 1.46874 0
M  V30 10634 C 1176.85 1.92686 2.8122 0
M  V30 10635 H 1178.05 2.74794 1.20117 0
M  V30 10636 H 1175.6 1.44677 0.591468 0
M  V30 10637 H 1176.33 0.997669 3.08573 0
M  V30 10638 H 1176.12 2.74837 2.79655 0
M  V30 10639 H 1177.61 2.14599 3.58242 0
M  V30 10640 N 1178.05 -0.61812 1.44973 0
M  V30 10641 C 1179.29 -1.37468 1.48145 0
M  V30 10642 C 1179.61 -1.94628 0.120366 0
M  V30 10643 O 1178.88 -1.76548 -0.848982 0
M  V30 10644 H 1177.46 -0.510293 0.545536 0
M  V30 10645 H 1180.13 -0.726598 1.8085 0
M  V30 10646 H 1179.22 -2.19944 2.2143 0
M  V30 10647 N 1179.52 -1.32087 -0.859693 0
M  V30 10648 C 1180.77 -1.21716 -1.60836 0
M  V30 10649 C 1181.09 0.220904 -1.94349 0
M  V30 10650 O 1182.29 0.446422 -2.67805 0
M  V30 10651 C 1180.75 -2.13143 -2.89997 0
M  V30 10652 C 1180.36 -3.62003 -2.63928 0
M  V30 10653 C 1182.1 -2.11596 -3.68004 0
M  V30 10654 C 1180.01 -4.45407 -3.89059 0
M  V30 10655 H 1178.94 -0.45199 -0.603507 0
M  V30 10656 H 1181.59 -1.57013 -0.949687 0
M  V30 10657 H 1179.97 -1.70755 -3.57294 0
M  V30 10658 H 1181.14 -4.12701 -2.04974 0
M  V30 10659 H 1179.46 -3.6563 -1.99258 0
M  V30 10660 H 1182.06 -2.71149 -4.6085 0
M  V30 10661 H 1182.4 -1.10568 -4.01348 0
M  V30 10662 H 1182.93 -2.52238 -3.07605 0
M  V30 10663 H 1179.67 -5.4723 -3.60859 0
M  V30 10664 H 1179.19 -3.99462 -4.47427 0
M  V30 10665 H 1180.87 -4.58149 -4.56846 0
M  V30 10666 N 1181 1.07532 -1.15215 0
M  V30 10667 C 1182.41 1.61567 -0.935568 0
M  V30 10668 C 1182.76 1.89085 0.523557 0
M  V30 10669 O 1181.89 1.65495 1.39429 0
M  V30 10670 C 1182.48 2.93531 -1.69189 0
M  V30 10671 C 1181.04 3.44316 -1.52063 0
M  V30 10672 C 1180.19 2.18404 -1.70866 0
M  V30 10673 H 1183.14 0.906431 -1.30267 0
M  V30 10674 H 1183.16 3.62377 -1.16031 0
M  V30 10675 H 1182.67 2.73471 -2.75381 0
M  V30 10676 H 1180.77 3.69462 -0.482567 0
M  V30 10677 H 1180.89 4.20478 -2.29642 0
M  V30 10678 H 1179.25 2.28012 -1.13502 0
M  V30 10679 H 1180.03 2.00841 -2.7842 0
M  V30 10680 N 1182.48 0.948665 1.2585 0
M  V30 10681 C 1183.73 0.59905 1.93018 0
M  V30 10682 C 1184.05 -0.865813 1.74725 0
M  V30 10683 O 1183.32 -1.61602 1.10732 0
M  V30 10684 H 1181.9 0.218565 0.71431 0
M  V30 10685 H 1184.56 1.20561 1.53137 0
M  V30 10686 H 1183.66 0.823244 3.01047 0
M  V30 10687 N 1183.96 -1.40369 0.716545 0
M  V30 10688 C 1185.21 -2.00869 0.256466 0
M  V30 10689 C 1185.53 -1.56816 -1.15061 0
M  V30 10690 O 1184.79 -0.779696 -1.79497 0
M  V30 10691 C 1185.09 -3.56257 0.285583 0
M  V30 10692 C 1184.75 -4.19897 1.64309 0
M  V30 10693 C 1183.42 -4.36994 2.01469 0
M  V30 10694 C 1185.77 -4.55385 2.53524 0
M  V30 10695 C 1183.1 -4.86862 3.27387 0
M  V30 10696 C 1185.45 -5.06653 3.78795 0
M  V30 10697 C 1184.11 -5.21959 4.16071 0
M  V30 10698 H 1183.38 -0.735033 0.0938475 0
M  V30 10699 H 1186.03 -1.67966 0.919765 0
M  V30 10700 H 1184.33 -3.89075 -0.461287 0
M  V30 10701 H 1186.03 -4.00903 -0.0882496 0
M  V30 10702 H 1182.62 -4.06978 1.34413 0
M  V30 10703 H 1186.8 -4.41811 2.2609 0
M  V30 10704 H 1182.06 -4.96897 3.56235 0
M  V30 10705 H 1186.23 -5.33089 4.48095 0
M  V30 10706 H 1183.86 -5.60362 5.1371 0
M  V30 10707 N 1185.44 -0.462799 -1.50652 0
M  V30 10708 C 1186.37 0.325724 -2.31217 0
M  V30 10709 C 1187.35 0.997942 -1.3775 0
M  V30 10710 O 1188.53 0.996707 -1.66671 0
M  V30 10711 C 1185.66 1.41283 -3.17264 0
M  V30 10712 C 1184.62 0.862687 -4.19216 0
M  V30 10713 C 1183.94 2.04746 -4.93946 0
M  V30 10714 C 1185.24 -0.120365 -5.22161 0
M  V30 10715 H 1186.94 -0.346666 -2.97386 0
M  V30 10716 H 1184.48 -0.168163 -1.43015 0
M  V30 10717 H 1186.44 1.97188 -3.72418 0
M  V30 10718 H 1185.16 2.11387 -2.48964 0
M  V30 10719 H 1183.82 0.325671 -3.65151 0
M  V30 10720 H 1183.47 2.73529 -4.22127 0
M  V30 10721 H 1183.17 1.68562 -5.62904 0
M  V30 10722 H 1184.69 2.61157 -5.51932 0
M  V30 10723 H 1186.1 0.349226 -5.72235 0
M  V30 10724 H 1184.5 -0.396061 -5.98792 0
M  V30 10725 H 1185.57 -1.04895 -4.73418 0
M  V30 10726 N 1186.91 1.56388 -0.195085 0
M  V30 10727 C 1188.16 1.97189 0.44281 0
M  V30 10728 C 1188.48 1.08312 1.62153 0
M  V30 10729 O 1187.75 0.154404 1.95291 0
M  V30 10730 H 1186.33 0.728188 0.166585 0
M  V30 10731 H 1189 1.92852 -0.281815 0
M  V30 10732 H 1188.09 3.02016 0.786945 0
M  V30 10733 N 1188.39 -0.0785156 1.57404 0
M  V30 10734 C 1189.32 -1.09446 2.06262 0
M  V30 10735 C 1190.3 -1.40777 0.954772 0
M  V30 10736 O 1191.49 -1.5052 1.22708 0
M  V30 10737 C 1188.62 -2.40979 2.50093 0
M  V30 10738 C 1187.57 -2.24017 3.64692 0
M  V30 10739 C 1186.9 -3.60873 3.94556 0
M  V30 10740 C 1188.2 -1.66696 4.94985 0
M  V30 10741 H 1189.89 -0.687928 2.9139 0
M  V30 10742 H 1187.44 -0.329466 1.4018 0
M  V30 10743 H 1189.39 -3.12337 2.82884 0
M  V30 10744 H 1188.12 -2.83599 1.61985 0
M  V30 10745 H 1186.77 -1.55101 3.32174 0
M  V30 10746 H 1186.42 -4.01051 3.0359 0
M  V30 10747 H 1186.12 -3.50365 4.71718 0
M  V30 10748 H 1187.65 -4.33673 4.29837 0
M  V30 10749 H 1189.06 -2.27913 5.2605 0
M  V30 10750 H 1187.46 -1.66902 5.76423 0
M  V30 10751 H 1188.53 -0.627827 4.80818 0
M  V30 10752 N 1189.87 -1.5367 -0.349747 0
M  V30 10753 C 1190.82 -1.81223 -1.42922 0
M  V30 10754 C 1191.79 -0.657536 -1.52531 0
M  V30 10755 O 1192.97 -0.90134 -1.68168 0
M  V30 10756 C 1190.11 -2.022 -2.79659 0
M  V30 10757 C 1189.23 -3.29915 -2.78891 0
M  V30 10758 C 1188.36 -3.40993 -4.07305 0
M  V30 10759 C 1187.4 -4.6268 -4.00741 0
M  V30 10760 N 1186.54 -4.70826 -5.20833 0
M  V30 10761 H 1191.38 -2.73328 -1.18727 0
M  V30 10762 H 1188.91 -1.35386 -0.57525 0
M  V30 10763 H 1190.87 -2.12351 -3.59114 0
M  V30 10764 H 1189.5 -1.13416 -3.0222 0
M  V30 10765 H 1188.55 -3.28637 -1.91577 0
M  V30 10766 H 1189.87 -4.19459 -2.69917 0
M  V30 10767 H 1189.02 -3.50542 -4.95182 0
M  V30 10768 H 1187.76 -2.49493 -4.19052 0
M  V30 10769 H 1186.76 -4.53215 -3.11249 0
M  V30 10770 H 1187.99 -5.55538 -3.90582 0
M  V30 10771 H 1185.93 -3.82233 -5.33136 0
M  V30 10772 H 1185.85 -5.54297 -5.14092 0
M  V30 10773 H 1187.12 -4.84677 -6.10499 0
M  V30 10774 N 1191.35 0.610423 -1.45298 0
M  V30 10775 C 1192.6 1.3668 -1.48872 0
M  V30 10776 C 1192.92 1.94562 -0.130686 0
M  V30 10777 O 1192.19 1.76996 0.839607 0
M  V30 10778 H 1190.77 0.507393 -0.548235 0
M  V30 10779 H 1193.43 0.716997 -1.81232 0
M  V30 10780 H 1192.53 2.18766 -2.22593 0
M  V30 10781 N 1192.83 1.32541 0.852676 0
M  V30 10782 C 1194.24 1.20863 1.42299 0
M  V30 10783 C 1194.59 -0.178051 1.9539 0
M  V30 10784 O 1193.71 -1.07689 1.87702 0
M  V30 10785 C 1194.31 2.18811 2.58664 0
M  V30 10786 C 1192.87 2.11015 3.11689 0
M  V30 10787 C 1192.01 2.07067 1.84441 0
M  V30 10788 H 1194.97 1.44341 0.659657 0
M  V30 10789 H 1194.99 1.78779 3.35884 0
M  V30 10790 H 1194.5 3.19726 2.19993 0
M  V30 10791 H 1192.6 1.13354 3.54939 0
M  V30 10792 H 1192.71 3.00929 3.72799 0
M  V30 10793 H 1191.08 1.52335 2.04123 0
M  V30 10794 H 1191.86 3.09767 1.47984 0
M  V30 10795 N 1194.3 -1.0692 1.15784 0
M  V30 10796 C 1195.25 -2.14235 0.858616 0
M  V30 10797 C 1196.22 -1.65006 -0.190295 0
M  V30 10798 O 1197.41 -1.90715 -0.0568853 0
M  V30 10799 C 1194.55 -3.43229 0.35888 0
M  V30 10800 C 1193.66 -4.06225 1.46987 0
M  V30 10801 C 1192.79 -5.2307 0.925812 0
M  V30 10802 C 1191.83 -5.78037 2.01345 0
M  V30 10803 N 1190.97 -6.86206 1.48544 0
M  V30 10804 H 1195.81 -2.3917 1.77769 0
M  V30 10805 H 1193.35 -1.17354 0.886925 0
M  V30 10806 H 1195.31 -4.17169 0.0508198 0
M  V30 10807 H 1193.94 -3.18531 -0.523259 0
M  V30 10808 H 1192.99 -3.29895 1.89403 0
M  V30 10809 H 1194.3 -4.43081 2.29088 0
M  V30 10810 H 1193.45 -6.04011 0.570555 0
M  V30 10811 H 1192.19 -4.87644 0.0740371 0
M  V30 10812 H 1191.2 -4.95738 2.37748 0
M  V30 10813 H 1192.42 -6.15517 2.86907 0
M  V30 10814 H 1190.37 -6.52711 0.656092 0
M  V30 10815 H 1190.29 -7.2197 2.24266 0
M  V30 10816 H 1191.55 -7.70842 1.15856 0
M  V30 10817 N 1195.78 -0.955326 -1.25345 0
M  V30 10818 C 1197.03 -0.609278 -1.92697 0
M  V30 10819 C 1197.35 0.856535 -1.75181 0
M  V30 10820 O 1196.62 1.61013 -1.11587 0
M  V30 10821 H 1195.2 -0.22235 -0.713141 0
M  V30 10822 H 1197.86 -1.21372 -1.52496 0
M  V30 10823 H 1196.96 -0.839198 -3.00606 0
M  V30 10824 N 1197.26 1.39987 -0.723979 0
M  V30 10825 C 1198.68 1.54547 -0.398403 0
M  V30 10826 C 1198.88 1.69348 1.09194 0
M  V30 10827 O 1197.93 1.68778 1.87804 0
M  V30 10828 C 1199.25 2.76929 -1.1718 0
M  V30 10829 C 1200.79 2.90754 -1.15893 0
M  V30 10830 C 1201.27 4.16059 -1.91465 0
M  V30 10831 N 1202.76 4.23076 -1.88576 0
M  V30 10832 C 1203.5 5.18957 -2.43867 0
M  V30 10833 N 1202.99 6.20695 -3.0775 0
M  V30 10834 N 1204.78 5.11095 -2.33962 0
M  V30 10835 H 1196.94 1.28626 -1.69024 0
M  V30 10836 H 1199.2 0.6226 -0.714894 0
M  V30 10837 H 1198.9 2.72298 -2.22591 0
M  V30 10838 H 1198.78 3.69279 -0.768941 0
M  V30 10839 H 1201.17 2.94884 -0.112978 0
M  V30 10840 H 1201.25 1.99498 -1.60107 0
M  V30 10841 H 1200.89 4.12691 -2.96055 0
M  V30 10842 H 1200.82 5.06339 -1.44665 0
M  V30 10843 H 1203.31 3.50195 -1.42027 0
M  V30 10844 H 1203.62 6.90296 -3.47435 0
M  V30 10845 H 1201.97 6.21114 -3.11837 0
M  V30 10846 H 1205.16 4.30546 -1.83706 0
M  V30 10847 H 1205.33 5.85644 -2.77353 0
M  V30 10848 N 1198.74 0.470782 1.50404 0
M  V30 10849 C 1199.65 -0.328877 2.32283 0
M  V30 10850 C 1200.67 -0.99629 1.42654 0
M  V30 10851 O 1201.84 -0.984331 1.75707 0
M  V30 10852 C 1198.91 -1.39675 3.1732 0
M  V30 10853 C 1197.97 -0.745965 4.22769 0
M  V30 10854 C 1197.2 -1.76295 5.03742 0
M  V30 10855 O 1197.42 -2.98943 4.85788 0
M  V30 10856 O 1196.36 -1.33495 5.86909 0
M  V30 10857 H 1200.18 0.340491 3.01785 0
M  V30 10858 H 1197.77 0.232637 1.47578 0
M  V30 10859 H 1199.65 -2.0153 3.70086 0
M  V30 10860 H 1198.33 -2.04959 2.50546 0
M  V30 10861 H 1197.23 -0.0884647 3.73995 0
M  V30 10862 H 1198.57 -0.136074 4.92012 0
M  V30 10863 N 1200.22 -1.56282 0.203376 0
M  V30 10864 C 1201.47 -1.97421 -0.432346 0
M  V30 10865 C 1201.79 -1.0917 -1.61576 0
M  V30 10866 O 1201.06 -0.164759 -1.95206 0
M  V30 10867 H 1199.64 -0.729062 -0.162721 0
M  V30 10868 H 1202.3 -1.927 0.292039 0
M  V30 10869 H 1201.39 -3.02429 -0.770918 0
M  V30 10870 N 1201.7 0.070167 -1.57444 0
M  V30 10871 C 1202.65 1.09016 -2.00249 0
M  V30 10872 C 1203.63 1.34387 -0.884809 0
M  V30 10873 O 1204.82 1.34661 -1.14872 0
M  V30 10874 C 1201.95 2.40344 -2.45132 0
M  V30 10875 C 1201.04 2.1824 -3.63637 0
M  V30 10876 N 1201.43 1.6607 -4.7776 0
M  V30 10877 C 1199.73 2.48706 -3.70218 0
M  V30 10878 C 1200.43 1.58819 -5.59599 0
M  V30 10879 N 1199.4 2.04928 -5.03493 0
M  V30 10880 H 1203.2 0.680143 -2.85922 0
M  V30 10881 H 1200.72 0.277212 -1.60017 0
M  V30 10882 H 1202.72 3.1418 -2.74037 0
M  V30 10883 H 1201.38 2.82061 -1.60846 0
M  V30 10884 H 1202.39 1.34911 -5.00019 0
M  V30 10885 H 1199.06 2.93778 -2.96649 0
M  V30 10886 H 1200.45 1.19323 -6.6122 0
M  V30 10887 N 1203.17 1.53854 0.341593 0
M  V30 10888 C 1204.14 1.8128 1.40251 0
M  V30 10889 C 1205.14 0.683915 1.45531 0
M  V30 10890 O 1206.33 0.952202 1.45872 0
M  V30 10891 C 1203.46 1.95658 2.79161 0
M  V30 10892 H 1204.65 2.76053 1.17195 0
M  V30 10893 H 1202.2 1.45296 0.57609 0
M  V30 10894 H 1202.94 1.03034 3.07497 0
M  V30 10895 H 1202.72 2.77788 2.76724 0
M  V30 10896 H 1204.21 2.18387 3.55945 0
M  V30 10897 N 1204.65 -0.602709 1.4562 0
M  V30 10898 C 1205.9 -1.35889 1.49595 0
M  V30 10899 C 1206.22 -1.9449 0.141002 0
M  V30 10900 O 1205.49 -1.77438 -0.830209 0
M  V30 10901 H 1204.07 -0.504478 0.550918 0
M  V30 10902 H 1206.73 -0.707376 1.8161 0
M  V30 10903 H 1205.83 -2.17583 2.2375 0
M  V30 10904 N 1206.13 -1.32992 -0.845635 0
M  V30 10905 C 1207.38 -1.24065 -1.60044 0
M  V30 10906 C 1207.7 0.195282 -1.93517 0
M  V30 10907 O 1206.96 1.1507 -1.58296 0
M  V30 10908 C 1207.26 -2.05454 -2.92444 0
M  V30 10909 C 1206.92 -3.54718 -2.78362 0
M  V30 10910 C 1205.59 -3.95413 -2.74229 0
M  V30 10911 C 1207.94 -4.49598 -2.63649 0
M  V30 10912 C 1205.27 -5.29216 -2.53274 0
M  V30 10913 C 1207.62 -5.83554 -2.44228 0
M  V30 10914 C 1206.28 -6.2344 -2.38493 0
M  V30 10915 H 1205.55 -0.453985 -0.585644 0
M  V30 10916 H 1208.2 -1.6451 -0.980244 0
M  V30 10917 H 1206.5 -1.57765 -3.58633 0
M  V30 10918 H 1208.2 -1.95909 -3.49887 0
M  V30 10919 H 1204.79 -3.22403 -2.82409 0
M  V30 10920 H 1208.98 -4.19072 -2.65881 0
M  V30 10921 H 1204.23 -5.59164 -2.47275 0
M  V30 10922 H 1208.41 -6.56681 -2.31825 0
M  V30 10923 H 1206.03 -7.27058 -2.22015 0
M  V30 10924 N 1207.61 1.06304 -1.1635 0
M  V30 10925 C 1209.02 1.60566 -0.952652 0
M  V30 10926 C 1209.37 1.8963 0.503473 0
M  V30 10927 O 1208.49 1.66964 1.37666 0
M  V30 10928 C 1209.09 2.9172 -1.72292 0
M  V30 10929 C 1207.65 3.42684 -1.55707 0
M  V30 10930 C 1206.8 2.16579 -1.73172 0
M  V30 10931 H 1209.75 0.892563 -1.31221 0
M  V30 10932 H 1209.77 3.61126 -1.19868 0
M  V30 10933 H 1209.28 2.70535 -2.78267 0
M  V30 10934 H 1207.38 3.68929 -0.521726 0
M  V30 10935 H 1207.49 4.18018 -2.34088 0
M  V30 10936 H 1205.86 2.26795 -1.15914 0
M  V30 10937 H 1206.64 1.97877 -2.80535 0
M  V30 10938 N 1209.09 0.96196 1.24836 0
M  V30 10939 C 1210.33 0.619489 1.92371 0
M  V30 10940 C 1210.65 -0.847233 1.75633 0
M  V30 10941 O 1209.92 -1.60419 1.12439 0
M  V30 10942 H 1208.5 0.226129 0.711951 0
M  V30 10943 H 1211.17 1.22179 1.5185 0
M  V30 10944 H 1210.26 0.855128 3.00157 0
M  V30 10945 N 1210.56 -1.39601 0.731392 0
M  V30 10946 C 1211.81 -2.00883 0.278168 0
M  V30 10947 C 1212.14 -1.57897 -1.13059 0
M  V30 10948 O 1211.42 -0.806203 -1.77005 0
M  V30 10949 C 1211.7 -3.58132 0.375969 0
M  V30 10950 C 1211.55 -4.11147 1.82423 0
M  V30 10951 C 1212.87 -4.39425 -0.243702 0
M  V30 10952 H 1209.99 -0.729831 0.102549 0
M  V30 10953 H 1212.63 -1.65859 0.926869 0
M  V30 10954 H 1210.78 -3.881 -0.176329 0
M  V30 10955 H 1212.46 -3.91914 2.43313 0
M  V30 10956 H 1210.7 -3.64842 2.34675 0
M  V30 10957 H 1211.37 -5.20291 1.84396 0
M  V30 10958 H 1213.85 -4.1548 0.227067 0
M  V30 10959 H 1212.72 -5.48709 -0.144907 0
M  V30 10960 H 1212.98 -4.21642 -1.32929 0
M  V30 10961 N 1212.04 -0.478751 -1.50152 0
M  V30 10962 C 1213.45 -0.0254907 -1.86683 0
M  V30 10963 C 1213.8 1.38171 -1.39295 0
M  V30 10964 O 1212.93 2.0257 -0.761207 0
M  V30 10965 C 1213.52 -0.0394819 -3.38777 0
M  V30 10966 C 1212.08 0.35834 -3.7469 0
M  V30 10967 C 1211.23 -0.421667 -2.74075 0
M  V30 10968 H 1214.18 -0.692653 -1.42787 0
M  V30 10969 H 1214.2 0.760957 -3.72813 0
M  V30 10970 H 1213.71 -1.06378 -3.73236 0
M  V30 10971 H 1211.82 1.38671 -3.45834 0
M  V30 10972 H 1211.93 0.0543589 -4.79069 0
M  V30 10973 H 1210.29 0.125634 -2.5439 0
M  V30 10974 H 1211.08 -1.44562 -3.11379 0
M  V30 10975 N 1213.52 1.56172 -0.211661 0
M  V30 10976 C 1214.77 1.97648 0.421871 0
M  V30 10977 C 1215.09 1.10026 1.60995 0
M  V30 10978 O 1214.36 0.175109 1.95116 0
M  V30 10979 H 1212.94 0.729914 0.158852 0
M  V30 10980 H 1215.6 1.92542 -0.302254 0
M  V30 10981 H 1214.7 3.02834 0.754868 0
M  V30 10982 N 1215 -0.0618163 1.57479 0
M  V30 10983 C 1216.41 -0.612461 1.76368 0
M  V30 10984 C 1216.76 -1.77381 0.838466 0
M  V30 10985 O 1215.89 -2.16386 0.0250211 0
M  V30 10986 C 1216.48 -1.11782 3.19829 0
M  V30 10987 C 1215.04 -1.61424 3.40028 0
M  V30 10988 C 1214.19 -0.53795 2.72032 0
M  V30 10989 H 1217.14 0.164382 1.57846 0
M  V30 10990 H 1217.16 -1.98634 3.24538 0
M  V30 10991 H 1216.67 -0.272353 3.87143 0
M  V30 10992 H 1214.77 -2.48263 2.77842 0
M  V30 10993 H 1214.88 -1.68431 4.48517 0
M  V30 10994 H 1213.25 -0.985355 2.34868 0
M  V30 10995 H 1214.03 0.297495 3.42009 0
M  V30 10996 N 1216.48 -1.54033 -0.333429 0
M  V30 10997 C 1217.89 -1.63107 -0.908455 0
M  V30 10998 C 1218.24 -0.518823 -1.89216 0
M  V30 10999 O 1217.36 0.34985 -2.13553 0
M  V30 11000 C 1217.96 -2.95657 -1.65447 0
M  V30 11001 C 1216.52 -3.0696 -2.17836 0
M  V30 11002 C 1215.66 -2.58617 -1.00063 0
M  V30 11003 H 1218.62 -1.58309 -0.11128 0
M  V30 11004 H 1218.64 -2.85263 -2.51804 0
M  V30 11005 H 1218.15 -3.76588 -0.938263 0
M  V30 11006 H 1216.25 -2.30683 -2.92602 0
M  V30 11007 H 1216.36 -4.12599 -2.43513 0
M  V30 11008 H 1214.73 -2.1427 -1.37697 0
M  V30 11009 H 1215.51 -3.41996 -0.298901 0
M  V30 11010 N 1217.95 0.594978 -1.45938 0
M  V30 11011 C 1219.2 1.35093 -1.50314 0
M  V30 11012 C 1219.52 1.94412 -0.151315 0
M  V30 11013 O 1218.79 1.77876 0.820787 0
M  V30 11014 H 1217.37 0.501549 -0.553586 0
M  V30 11015 H 1220.04 0.697735 -1.81983 0
M  V30 11016 H 1219.13 2.16393 -2.24901 0
M  V30 11017 N 1219.43 1.33438 0.838571 0
M  V30 11018 C 1220.38 1.20285 1.93689 0
M  V30 11019 C 1221.37 0.105686 1.60553 0
M  V30 11020 O 1222.56 0.333814 1.73824 0
M  V30 11021 C 1219.69 0.944544 3.3005 0
M  V30 11022 C 1218.77 2.08416 3.69356 0
M  V30 11023 N 1219.16 3.33415 3.80353 0
M  V30 11024 C 1217.46 1.99092 3.99097 0
M  V30 11025 C 1218.16 4.08159 4.14465 0
M  V30 11026 N 1217.14 3.36601 4.2685 0
M  V30 11027 H 1220.94 2.1503 2.00348 0
M  V30 11028 H 1218.46 1.2545 1.03131 0
M  V30 11029 H 1220.45 0.831242 4.08529 0
M  V30 11030 H 1219.11 0.00562273 3.247 0
M  V30 11031 H 1220.12 3.68159 3.64252 0
M  V30 11032 H 1216.8 1.12861 4.01956 0
M  V30 11033 H 1218.19 5.16027 4.30308 0
M  V30 11034 N 1220.91 -1.05686 1.16912 0
M  V30 11035 C 1222.14 -1.82821 0.979348 0
M  V30 11036 C 1222.56 -1.82196 -0.467575 0
M  V30 11037 O 1221.92 -1.22727 -1.33445 0
M  V30 11038 C 1221.97 -3.2705 1.51891 0
M  V30 11039 O 1221.07 -4.05899 0.729341 0
M  V30 11040 H 1220.41 -0.565455 0.348076 0
M  V30 11041 H 1222.94 -1.33211 1.55293 0
M  V30 11042 H 1222.95 -3.77859 1.53904 0
M  V30 11043 H 1221.63 -3.26819 2.5722 0
M  V30 11044 H 1220.2 -3.64646 0.780221 0
M  V30 11045 N 1222.39 -0.968567 -1.24324 0
M  V30 11046 C 1223.63 -0.63879 -1.94162 0
M  V30 11047 C 1223.99 0.81112 -1.74025 0
M  V30 11048 O 1225.19 1.25116 -2.37906 0
M  V30 11049 C 1223.46 -1.00432 -3.42999 0
M  V30 11050 S 1225.02 -0.789227 -4.31644 0
M  V30 11051 H 1221.84 -0.234322 -0.671278 0
M  V30 11052 H 1224.44 -1.2457 -1.50673 0
M  V30 11053 H 1223.15 -2.05643 -3.55161 0
M  V30 11054 H 1222.68 -0.388221 -3.9148 0
M  V30 11055 H 1224.69 0.332976 -4.95082 0
M  V30 11056 N 1223.87 1.39211 -0.738786 0
M  V30 11057 C 1224.78 2.34374 -0.102958 0
M  V30 11058 C 1225.79 1.58514 0.717596 0
M  V30 11059 O 1226.97 1.90786 0.645186 0
M  V30 11060 C 1224.03 3.37562 0.790733 0
M  V30 11061 C 1223.09 4.29279 -0.0425028 0
M  V30 11062 C 1222.33 5.27539 0.808628 0
M  V30 11063 O 1222.55 5.32396 2.04722 0
M  V30 11064 O 1221.48 6.0144 0.235279 0
M  V30 11065 H 1225.31 2.90412 -0.888498 0
M  V30 11066 H 1222.9 1.40803 -0.499498 0
M  V30 11067 H 1224.78 4.00783 1.30196 0
M  V30 11068 H 1223.45 2.83903 1.55502 0
M  V30 11069 H 1222.36 3.69268 -0.599335 0
M  V30 11070 H 1223.69 4.86154 -0.7691 0
M  V30 11071 N 1225.34 0.486708 1.49896 0
M  V30 11072 C 1226.76 0.141788 1.58969 0
M  V30 11073 C 1226.96 -1.35279 1.49338 0
M  V30 11074 O 1226.02 -2.1275 1.35992 0
M  V30 11075 C 1227.33 0.70588 2.92297 0
M  V30 11076 C 1228.88 0.670704 3.0573 0
M  V30 11077 C 1229.35 1.21261 4.41656 0
M  V30 11078 N 1230.84 1.17269 4.4811 0
M  V30 11079 C 1231.58 1.56233 5.51705 0
M  V30 11080 N 1231.07 2.02721 6.62477 0
M  V30 11081 N 1232.87 1.47738 5.42337 0
M  V30 11082 H 1225.02 1.45858 1.544 0
M  V30 11083 H 1227.28 0.604137 0.730563 0
M  V30 11084 H 1226.99 1.7535 3.04869 0
M  V30 11085 H 1226.86 0.158215 3.76868 0
M  V30 11086 H 1229.25 -0.368041 2.92796 0
M  V30 11087 H 1229.33 1.25535 2.22878 0
M  V30 11088 H 1228.97 2.25006 4.5534 0
M  V30 11089 H 1228.9 0.604031 5.23124 0
M  V30 11090 H 1231.39 0.831905 3.6863 0
M  V30 11091 H 1231.71 2.3056 7.37606 0
M  V30 11092 H 1230.05 2.06686 6.63556 0
M  V30 11093 H 1233.24 1.11249 4.54688 0
M  V30 11094 H 1233.42 1.78429 6.2295 0
M  V30 11095 N 1226.82 -1.56058 0.219941 0
M  V30 11096 C 1228.07 -1.97869 -0.411383 0
M  V30 11097 C 1228.39 -1.10878 -1.60409 0
M  V30 11098 O 1227.66 -0.185454 -1.9502 0
M  V30 11099 H 1226.24 -0.730747 -0.154979 0
M  V30 11100 H 1228.9 -1.92379 0.312461 0
M  V30 11101 H 1228 -3.0323 -0.738798 0
M  V30 11102 N 1228.3 0.053464 -1.57509 0
M  V30 11103 C 1229.26 1.04604 -2.03938 0
M  V30 11104 C 1230.26 1.30509 -0.939357 0
M  V30 11105 O 1231.45 1.25922 -1.20371 0
M  V30 11106 C 1228.59 2.38516 -2.43563 0
M  V30 11107 H 1229.78 0.645484 -2.92871 0
M  V30 11108 H 1227.33 0.299683 -1.534 0
M  V30 11109 H 1228.07 2.83368 -1.57712 0
M  V30 11110 H 1227.85 2.2105 -3.23851 0
M  V30 11111 H 1229.34 3.09826 -2.79996 0
M  V30 11112 N 1229.78 1.54207 0.325255 0
M  V30 11113 C 1231.19 1.63587 0.899793 0
M  V30 11114 C 1231.54 0.528851 1.88938 0
M  V30 11115 O 1230.67 -0.33852 2.13736 0
M  V30 11116 C 1231.26 2.9653 1.63877 0
M  V30 11117 C 1229.82 3.08111 2.16205 0
M  V30 11118 C 1228.97 2.59144 0.986903 0
M  V30 11119 H 1231.92 1.58366 0.102883 0
M  V30 11120 H 1231.94 2.86595 2.50287 0
M  V30 11121 H 1231.45 3.7708 0.918279 0
M  V30 11122 H 1229.55 2.32232 2.91375 0
M  V30 11123 H 1229.67 4.13885 2.41322 0
M  V30 11124 H 1228.03 2.14997 1.36558 0
M  V30 11125 H 1228.81 3.4215 0.28076 0
M  V30 11126 N 1231.26 -0.58723 1.46251 0
M  V30 11127 C 1232.51 -1.34294 1.51028 0
M  V30 11128 C 1232.83 -1.94329 0.161623 0
M  V30 11129 O 1232.1 -1.78309 -0.811342 0
M  V30 11130 H 1230.68 -0.498607 0.556238 0
M  V30 11131 H 1233.34 -0.688074 1.8235 0
M  V30 11132 H 1232.43 -2.15197 2.26045 0
M  V30 11133 N 1232.74 -1.33881 -0.831482 0
M  V30 11134 C 1233.98 -1.251 -1.58218 0
M  V30 11135 C 1234.3 0.17963 -1.94773 0
M  V30 11136 O 1235.5 0.389516 -2.68691 0
M  V30 11137 C 1233.96 -2.19246 -2.8541 0
M  V30 11138 C 1233.57 -3.6752 -2.5619 0
M  V30 11139 C 1235.31 -2.19355 -3.63433 0
M  V30 11140 C 1233.22 -4.53559 -3.79523 0
M  V30 11141 H 1232.15 -0.46469 -0.593784 0
M  V30 11142 H 1234.8 -1.58992 -0.916169 0
M  V30 11143 H 1233.18 -1.78295 -3.53591 0
M  V30 11144 H 1234.36 -4.16956 -1.96173 0
M  V30 11145 H 1232.67 -3.69774 -1.91458 0
M  V30 11146 H 1235.27 -2.80863 -4.54995 0
M  V30 11147 H 1235.61 -1.19056 -3.98913 0
M  V30 11148 H 1236.14 -2.58706 -3.02185 0
M  V30 11149 H 1232.88 -5.54762 -3.4917 0
M  V30 11150 H 1232.4 -4.08862 -4.38853 0
M  V30 11151 H 1234.08 -4.67736 -4.47025 0
M  V30 11152 N 1234.21 1.05064 -1.1747 0
M  V30 11153 C 1235.62 1.59547 -0.969628 0
M  V30 11154 C 1235.98 1.90153 0.483332 0
M  V30 11155 O 1235.1 1.68415 1.35887 0
M  V30 11156 C 1235.7 2.89877 -1.75377 0
M  V30 11157 C 1234.25 3.41013 -1.59332 0
M  V30 11158 C 1233.4 2.1473 -1.7546 0
M  V30 11159 H 1236.35 0.878595 -1.3216 0
M  V30 11160 H 1236.37 3.59834 -1.23691 0
M  V30 11161 H 1235.89 2.67569 -2.8112 0
M  V30 11162 H 1233.99 3.68355 -0.560827 0
M  V30 11163 H 1234.1 4.15512 -2.38509 0
M  V30 11164 H 1232.46 2.25553 -1.18313 0
M  V30 11165 H 1233.25 1.9489 -2.82618 0
M  V30 11166 N 1235.69 0.975146 1.23809 0
M  V30 11167 C 1236.94 0.639858 1.91704 0
M  V30 11168 C 1237.26 -0.828557 1.76522 0
M  V30 11169 O 1236.53 -1.59217 1.14135 0
M  V30 11170 H 1235.11 0.233667 0.709513 0
M  V30 11171 H 1237.77 1.23782 1.50545 0
M  V30 11172 H 1236.87 0.886915 2.99233 0
M  V30 11173 N 1237.17 -1.38817 0.746158 0
M  V30 11174 C 1238.1 -2.29081 0.0737986 0
M  V30 11175 C 1239.11 -1.47377 -0.691656 0
M  V30 11176 O 1240.3 -1.70326 -0.533973 0
M  V30 11177 C 1237.4 -3.26185 -0.919607 0
M  V30 11178 C 1236.58 -4.36879 -0.213349 0
M  V30 11179 C 1235.64 -5.1422 -1.11644 0
M  V30 11180 O 1234.66 -5.66137 -0.589747 0
M  V30 11181 N 1235.86 -5.26488 -2.44521 0
M  V30 11182 H 1238.63 -2.87424 0.848966 0
M  V30 11183 H 1236.19 -1.50518 0.596314 0
M  V30 11184 H 1238.18 -3.74802 -1.52662 0
M  V30 11185 H 1236.75 -2.68793 -1.5959 0
M  V30 11186 H 1235.97 -3.89994 0.574285 0
M  V30 11187 H 1237.26 -5.08053 0.275655 0
M  V30 11188 H 1236.66 -4.85846 -2.89777 0
M  V30 11189 H 1235.21 -5.78505 -3.00291 0
M  V30 11190 N 1238.65 -0.49465 -1.49636 0
M  V30 11191 C 1240.06 -0.0452894 -1.86645 0
M  V30 11192 C 1240.41 1.36686 -1.40753 0
M  V30 11193 O 1239.53 2.01751 -0.78265 0
M  V30 11194 C 1240.13 -0.0754115 -3.38716 0
M  V30 11195 C 1238.69 0.318579 -3.75049 0
M  V30 11196 C 1237.84 -0.450712 -2.73613 0
M  V30 11197 H 1240.79 -0.707758 -1.42044 0
M  V30 11198 H 1240.81 0.721372 -3.73599 0
M  V30 11199 H 1240.32 -1.10331 -3.72087 0
M  V30 11200 H 1238.42 1.34995 -3.47285 0
M  V30 11201 H 1238.53 0.00354416 -4.791 0
M  V30 11202 H 1236.9 0.0986455 -2.54509 0
M  V30 11203 H 1237.68 -1.47857 -3.09828 0
M  V30 11204 N 1240.13 1.55939 -0.228214 0
M  V30 11205 C 1241.37 1.98084 0.400884 0
M  V30 11206 C 1241.69 1.11727 1.59819 0
M  V30 11207 O 1240.96 0.195794 1.94919 0
M  V30 11208 H 1239.54 0.731558 0.151102 0
M  V30 11209 H 1242.21 1.92211 -0.322659 0
M  V30 11210 H 1241.3 3.03617 0.722706 0
M  V30 11211 N 1241.6 -0.0451101 1.57535 0
M  V30 11212 C 1242.53 -1.05046 2.08537 0
M  V30 11213 C 1243.52 -1.3872 0.984418 0
M  V30 11214 O 1244.7 -1.47884 1.25873 0
M  V30 11215 C 1241.83 -2.3562 2.55148 0
M  V30 11216 C 1240.78 -2.16231 3.69362 0
M  V30 11217 C 1240.11 -3.52423 4.02122 0
M  V30 11218 C 1241.41 -1.56159 4.98409 0
M  V30 11219 H 1243.1 -0.625965 2.92783 0
M  V30 11220 H 1240.65 -0.299657 1.40848 0
M  V30 11221 H 1242.6 -3.06266 2.89446 0
M  V30 11222 H 1241.33 -2.80099 1.67964 0
M  V30 11223 H 1239.99 -1.4802 3.35389 0
M  V30 11224 H 1239.63 -3.94522 3.12028 0
M  V30 11225 H 1239.33 -3.4028 4.79044 0
M  V30 11226 H 1240.86 -4.24458 4.38939 0
M  V30 11227 H 1242.27 -2.16703 5.30766 0
M  V30 11228 H 1240.67 -1.54638 5.79834 0
M  V30 11229 H 1241.74 -0.525698 4.82042 0
M  V30 11230 N 1243.08 -1.54377 -0.317073 0
M  V30 11231 C 1244.49 -1.64062 -0.891105 0
M  V30 11232 C 1244.84 -0.538863 -1.88655 0
M  V30 11233 O 1243.97 0.32718 -2.13912 0
M  V30 11234 C 1244.56 -2.97395 -1.62302 0
M  V30 11235 C 1243.12 -3.09253 -2.14568 0
M  V30 11236 C 1242.27 -2.59664 -0.973146 0
M  V30 11237 H 1245.22 -1.58418 -0.0944829 0
M  V30 11238 H 1245.24 -2.87918 -2.48764 0
M  V30 11239 H 1244.75 -3.77562 -0.898268 0
M  V30 11240 H 1242.86 -2.33774 -2.90139 0
M  V30 11241 H 1242.97 -4.15159 -2.39123 0
M  V30 11242 H 1241.33 -2.15719 -1.35416 0
M  V30 11243 H 1242.12 -3.42294 -0.262611 0
M  V30 11244 N 1244.56 0.579466 -1.4656 0
M  V30 11245 C 1245.81 1.33492 -1.51738 0
M  V30 11246 C 1246.13 1.94241 -0.171926 0
M  V30 11247 O 1245.4 1.78737 0.801875 0
M  V30 11248 H 1243.98 0.49565 -0.558874 0
M  V30 11249 H 1246.64 0.678394 -1.82712 0
M  V30 11250 H 1245.74 2.13995 -2.27183 0
M  V30 11251 N 1246.04 1.3432 0.824371 0
M  V30 11252 C 1247.27 1.29481 1.60992 0
M  V30 11253 C 1247.68 -0.133581 1.88728 0
M  V30 11254 O 1247.02 -1.09065 1.4782 0
M  V30 11255 C 1247.08 2.01604 2.97651 0
M  V30 11256 C 1246.75 3.50866 2.92817 0
M  V30 11257 C 1247.74 4.458 2.67504 0
M  V30 11258 C 1245.43 3.93258 3.12495 0
M  V30 11259 C 1247.42 5.81101 2.61918 0
M  V30 11260 C 1245.11 5.28659 3.06533 0
M  V30 11261 C 1246.11 6.22392 2.81278 0
M  V30 11262 O 1245.79 7.55311 2.75246 0
M  V30 11263 H 1245.53 0.446931 0.507177 0
M  V30 11264 H 1248.08 1.77484 1.03386 0
M  V30 11265 H 1246.31 1.48212 3.5717 0
M  V30 11266 H 1248 1.90073 3.58646 0
M  V30 11267 H 1248.77 4.1437 2.52037 0
M  V30 11268 H 1244.64 3.20699 3.31169 0
M  V30 11269 H 1248.19 6.54233 2.42125 0
M  V30 11270 H 1244.09 5.59709 3.21553 0
M  V30 11271 H 1244.85 7.6503 2.90984 0
M  V30 11272 N 1247.52 -1.0444 1.18026 0
M  V30 11273 C 1248.93 -1.5903 0.978076 0
M  V30 11274 C 1249.28 -1.90407 -0.473241 0
M  V30 11275 O 1248.4 -1.69133 -1.34992 0
M  V30 11276 C 1249 -2.88942 1.76912 0
M  V30 11277 C 1247.56 -3.40164 1.61139 0
M  V30 11278 C 1246.7 -2.13797 1.76596 0
M  V30 11279 H 1249.66 -0.871574 1.32625 0
M  V30 11280 H 1249.68 -3.59173 1.25598 0
M  V30 11281 H 1249.19 -2.66074 2.82535 0
M  V30 11282 H 1247.29 -3.68053 0.580353 0
M  V30 11283 H 1247.4 -4.14241 2.40709 0
M  V30 11284 H 1245.77 -2.24922 1.19507 0
M  V30 11285 H 1246.55 -1.93389 2.83647 0
M  V30 11286 N 1248.99 -0.981699 -1.2329 0
M  V30 11287 C 1250.24 -0.650015 -1.91361 0
M  V30 11288 C 1250.56 0.819184 -1.76959 0
M  V30 11289 O 1249.83 1.5861 -1.14977 0
M  V30 11290 H 1248.41 -0.237427 -0.708264 0
M  V30 11291 H 1251.08 -1.24579 -1.49887 0
M  V30 11292 H 1250.17 -0.902772 -2.98758 0
M  V30 11293 N 1250.47 1.3842 -0.753509 0
M  V30 11294 C 1251.7 2.04929 -0.319174 0
M  V30 11295 C 1252.12 1.56457 1.04416 0
M  V30 11296 O 1251.48 0.716527 1.6654 0
M  V30 11297 C 1251.53 3.58887 -0.351054 0
M  V30 11298 O 1250.63 4.07166 0.654963 0
M  V30 11299 H 1249.97 0.648782 -0.141343 0
M  V30 11300 H 1252.5 1.77096 -1.02461 0
M  V30 11301 H 1252.51 4.075 -0.201907 0
M  V30 11302 H 1251.19 3.93525 -1.34576 0
M  V30 11303 H 1249.77 3.69921 0.470435 0
M  V30 11304 N 1251.95 0.502579 1.49372 0
M  V30 11305 C 1253.36 0.055187 1.86618 0
M  V30 11306 C 1253.71 -1.35938 1.41476 0
M  V30 11307 O 1252.84 -2.01333 0.793338 0
M  V30 11308 C 1253.43 0.0933734 3.38671 0
M  V30 11309 C 1251.99 -0.298685 3.75213 0
M  V30 11310 C 1251.14 0.465216 2.7337 0
M  V30 11311 H 1254.09 0.715281 1.41667 0
M  V30 11312 H 1254.11 -0.701549 3.73977 0
M  V30 11313 H 1253.62 1.12303 3.71497 0
M  V30 11314 H 1251.72 -1.33151 3.47996 0
M  V30 11315 H 1251.84 0.0218637 4.79095 0
M  V30 11316 H 1250.2 -0.0851469 2.54558 0
M  V30 11317 H 1250.98 1.49498 3.09039 0
M  V30 11318 N 1253.43 -1.55816 0.23648 0
M  V30 11319 C 1254.68 -1.98294 -0.390373 0
M  V30 11320 C 1255 -1.12573 -1.59224 0
M  V30 11321 O 1254.27 -0.206128 -1.94813 0
M  V30 11322 H 1252.85 -0.732349 -0.14722 0
M  V30 11323 H 1255.51 -1.92037 0.332848 0
M  V30 11324 H 1254.61 -3.03996 -0.706595 0
M  V30 11325 N 1254.91 0.036755 -1.57557 0
M  V30 11326 C 1255.87 1.02435 -2.05036 0
M  V30 11327 C 1256.87 1.29506 -0.953146 0
M  V30 11328 O 1258.06 1.24638 -1.217 0
M  V30 11329 C 1255.19 2.3592 -2.46079 0
M  V30 11330 H 1256.38 0.614384 -2.93539 0
M  V30 11331 H 1253.94 0.283396 -1.53709 0
M  V30 11332 H 1254.67 2.8168 -1.60708 0
M  V30 11333 H 1254.46 2.17603 -3.26177 0
M  V30 11334 H 1255.95 3.06839 -2.83266 0
M  V30 11335 N 1256.39 1.54543 0.308881 0
M  V30 11336 C 1257.8 1.64532 0.882392 0
M  V30 11337 C 1258.15 0.54886 1.88367 0
M  V30 11338 O 1257.27 -0.315832 2.14083 0
M  V30 11339 C 1257.87 2.98251 1.60722 0
M  V30 11340 C 1256.43 3.10387 2.12925 0
M  V30 11341 C 1255.57 2.60176 0.959362 0
M  V30 11342 H 1258.52 1.58466 0.0860803 0
M  V30 11343 H 1258.55 2.89233 2.47233 0
M  V30 11344 H 1258.06 3.78033 0.878233 0
M  V30 11345 H 1256.16 2.35309 2.88895 0
M  V30 11346 H 1256.27 4.16421 2.36918 0
M  V30 11347 H 1254.64 2.16434 1.3427 0
M  V30 11348 H 1255.42 3.42429 0.244454 0
M  V30 11349 N 1257.86 -0.571685 1.46866 0
M  V30 11350 C 1259.11 -1.32685 1.52444 0
M  V30 11351 C 1259.43 -1.94147 0.182225 0
M  V30 11352 O 1258.7 -1.79159 -0.792385 0
M  V30 11353 H 1257.28 -0.492679 0.561495 0
M  V30 11354 H 1259.94 -0.668694 1.8307 0
M  V30 11355 H 1259.04 -2.12788 2.28315 0
M  V30 11356 N 1259.34 -1.34755 -0.817236 0
M  V30 11357 C 1260.59 -1.2718 -1.57066 0
M  V30 11358 C 1260.91 0.156531 -1.94371 0
M  V30 11359 O 1260.18 1.09049 -1.62742 0
M  V30 11360 H 1258.76 -0.467755 -0.582421 0
M  V30 11361 H 1261.42 -1.68734 -0.975438 0
M  V30 11362 H 1260.52 -1.88043 -2.49091 0
M  V30 11363 N 1260.82 1.03812 -1.18578 0
M  V30 11364 C 1261.77 2.11883 -0.915115 0
M  V30 11365 C 1262.74 1.65453 0.146479 0
M  V30 11366 O 1263.92 1.90799 0.00630058 0
M  V30 11367 C 1261.06 3.42157 -0.449755 0
M  V30 11368 C 1260.17 4.02185 -1.57706 0
M  V30 11369 C 1259.31 5.20431 -1.06417 0
M  V30 11370 C 1258.35 5.72496 -2.16599 0
M  V30 11371 N 1257.49 6.82027 -1.66685 0
M  V30 11372 H 1262.33 2.34373 -1.84047 0
M  V30 11373 H 1259.86 1.14962 -0.917728 0
M  V30 11374 H 1261.82 4.16888 -0.161407 0
M  V30 11375 H 1260.45 3.19806 0.438622 0
M  V30 11376 H 1259.5 3.24757 -1.98083 0
M  V30 11377 H 1260.81 4.36851 -2.40754 0
M  V30 11378 H 1259.97 6.02286 -0.730497 0
M  V30 11379 H 1258.71 4.87276 -0.203301 0
M  V30 11380 H 1257.71 4.8926 -2.50808 0
M  V30 11381 H 1258.94 6.07694 -3.03126 0
M  V30 11382 H 1256.88 6.50742 -0.828916 0
M  V30 11383 H 1256.8 7.1577 -2.43329 0
M  V30 11384 H 1258.07 7.67499 -1.36253 0
M  V30 11385 N 1262.3 0.988223 1.22768 0
M  V30 11386 C 1263.55 0.660154 1.91014 0
M  V30 11387 C 1263.87 -0.809788 1.77391 0
M  V30 11388 O 1263.14 -1.57998 1.15817 0
M  V30 11389 H 1261.72 0.24118 0.706995 0
M  V30 11390 H 1264.38 1.25372 1.49224 0
M  V30 11391 H 1263.47 0.918603 2.98275 0
M  V30 11392 N 1263.78 -1.38018 0.760839 0
M  V30 11393 C 1264.71 -2.2899 0.0980916 0
M  V30 11394 C 1265.72 -1.48102 -0.675985 0
M  V30 11395 O 1266.91 -1.70883 -0.515878 0
M  V30 11396 C 1264.01 -3.27142 -0.884959 0
M  V30 11397 C 1263.18 -4.37081 -0.167 0
M  V30 11398 C 1262.24 -5.15375 -1.06184 0
M  V30 11399 O 1261.27 -5.6673 -0.529667 0
M  V30 11400 N 1262.47 -5.29052 -2.38924 0
M  V30 11401 H 1265.23 -2.86508 0.879403 0
M  V30 11402 H 1262.8 -1.49877 0.612245 0
M  V30 11403 H 1264.79 -3.764 -1.48678 0
M  V30 11404 H 1263.36 -2.70471 -1.5673 0
M  V30 11405 H 1262.58 -3.89363 0.615617 0
M  V30 11406 H 1263.87 -5.07732 0.329525 0
M  V30 11407 H 1263.26 -4.88892 -2.84607 0
M  V30 11408 H 1261.82 -5.81658 -2.94139 0
M  V30 11409 N 1265.25 -0.510493 -1.49103 0
M  V30 11410 C 1266.66 -0.0650831 -1.86587 0
M  V30 11411 C 1267.02 1.35185 -1.42195 0
M  V30 11412 O 1266.14 2.0091 -0.804004 0
M  V30 11413 C 1266.74 -0.111333 -3.38617 0
M  V30 11414 C 1265.29 0.278782 -3.75366 0
M  V30 11415 C 1264.44 -0.479707 -2.73119 0
M  V30 11416 H 1267.39 -0.722784 -1.41285 0
M  V30 11417 H 1267.41 0.681706 -3.74343 0
M  V30 11418 H 1266.93 -1.14271 -3.70896 0
M  V30 11419 H 1265.03 1.31304 -3.48698 0
M  V30 11420 H 1265.14 -0.047271 -4.79077 0
M  V30 11421 H 1263.5 0.0716459 -2.54599 0
M  V30 11422 H 1264.29 -1.51135 -3.08242 0
M  V30 11423 N 1266.73 1.55688 -0.24474 0
M  V30 11424 C 1267.98 1.98498 0.379852 0
M  V30 11425 C 1268.3 1.13416 1.58625 0
M  V30 11426 O 1267.57 0.216456 1.947 0
M  V30 11427 H 1266.15 0.73312 0.143334 0
M  V30 11428 H 1268.81 1.91858 -0.343027 0
M  V30 11429 H 1267.91 3.04367 0.690463 0
M  V30 11430 N 1268.21 -0.0283989 1.57574 0
M  V30 11431 C 1269.49 -0.754527 1.80461 0
M  V30 11432 C 1269.87 -1.93539 0.842966 0
M  V30 11433 O 1269.21 -2.28212 -0.114714 0
M  V30 11434 C 1269.42 -1.18694 3.28196 0
M  V30 11435 C 1270.77 -1.60257 3.93196 0
M  V30 11436 O 1271.8 -1.2815 3.32349 0
M  V30 11437 O 1270.66 -2.19853 5.00327 0
M  V30 11438 H 1267.75 -0.364936 0.742126 0
M  V30 11439 H 1270.3 -0.00512589 1.69699 0
M  V30 11440 H 1269.07 -0.34398 3.89785 0
M  V30 11441 H 1268.69 -1.99633 3.43849 0
M  V30 11442 N 1269.69 -1.54705 -0.300681 0
M  V30 11443 C 1270.93 -1.74259 -1.03738 0
M  V30 11444 C 1271.27 -0.52703 -1.86912 0
M  V30 11445 O 1270.54 0.475862 -1.88589 0
M  V30 11446 C 1270.82 -3.03175 -1.94311 0
M  V30 11447 C 1270.68 -4.35031 -1.14315 0
M  V30 11448 C 1272 -3.27962 -2.93478 0
M  V30 11449 H 1269.12 -0.634031 -0.37573 0
M  V30 11450 H 1271.76 -1.87421 -0.312012 0
M  V30 11451 H 1269.91 -2.92086 -2.5616 0
M  V30 11452 H 1271.58 -4.5804 -0.547489 0
M  V30 11453 H 1269.82 -4.31503 -0.44587 0
M  V30 11454 H 1270.49 -5.21502 -1.80941 0
M  V30 11455 H 1272.97 -3.38663 -2.41757 0
M  V30 11456 H 1271.85 -4.19481 -3.54016 0
M  V30 11457 H 1272.11 -2.46273 -3.67154 0
M  V30 11458 N 1271.17 0.563888 -1.47167 0
M  V30 11459 C 1272.41 1.31875 -1.53145 0
M  V30 11460 C 1272.74 1.94047 -0.192518 0
M  V30 11461 O 1272.01 1.79577 0.782872 0
M  V30 11462 H 1270.59 0.489694 -0.5641 0
M  V30 11463 H 1273.25 0.658976 -1.83422 0
M  V30 11464 H 1272.34 2.11574 -2.2944 0
M  V30 11465 N 1272.64 1.35187 0.810078 0
M  V30 11466 C 1274.06 1.25329 1.38381 0
M  V30 11467 C 1274.41 -0.115799 1.95858 0
M  V30 11468 O 1273.53 -1.01663 1.91033 0
M  V30 11469 C 1274.13 2.2693 2.51572 0
M  V30 11470 C 1272.69 2.20824 3.04818 0
M  V30 11471 C 1271.83 2.1283 1.7776 0
M  V30 11472 H 1274.78 1.46366 0.613402 0
M  V30 11473 H 1274.8 1.89375 3.30026 0
M  V30 11474 H 1274.32 3.26563 2.09709 0
M  V30 11475 H 1272.42 1.24589 3.51153 0
M  V30 11476 H 1272.53 3.12637 3.63036 0
M  V30 11477 H 1270.89 1.58752 1.99173 0
M  V30 11478 H 1271.68 3.14318 1.38054 0
M  V30 11479 N 1274.12 -1.03182 1.19127 0
M  V30 11480 C 1275.53 -1.57984 0.994888 0
M  V30 11481 C 1275.88 -1.90898 -0.453019 0
M  V30 11482 O 1275.01 -1.70556 -1.33191 0
M  V30 11483 C 1275.6 -2.8705 1.79966 0
M  V30 11484 C 1274.16 -3.38435 1.64737 0
M  V30 11485 C 1273.31 -2.11912 1.78854 0
M  V30 11486 H 1276.26 -0.857458 1.33542 0
M  V30 11487 H 1276.28 -3.57821 1.294 0
M  V30 11488 H 1275.79 -2.63062 2.85341 0
M  V30 11489 H 1273.9 -3.67416 0.619358 0
M  V30 11490 H 1274.01 -4.11665 2.45089 0
M  V30 11491 H 1272.37 -2.23642 1.21886 0
M  V30 11492 H 1273.16 -1.90369 2.85682 0
M  V30 11493 N 1275.6 -0.99472 -1.22242 0
M  V30 11494 C 1276.85 -0.670275 -1.90661 0
M  V30 11495 C 1277.17 0.800369 -1.77818 0
M  V30 11496 O 1276.44 1.57381 -1.16653 0
M  V30 11497 H 1275.02 -0.244925 -0.705706 0
M  V30 11498 H 1277.68 -1.26162 -1.48557 0
M  V30 11499 H 1276.78 -0.934408 -2.97784 0
M  V30 11500 N 1277.08 1.37613 -0.768148 0
M  V30 11501 C 1278.49 1.82437 -0.396703 0
M  V30 11502 C 1278.84 1.64019 1.07668 0
M  V30 11503 O 1277.97 1.14932 1.83356 0
M  V30 11504 C 1278.56 3.31207 -0.713265 0
M  V30 11505 C 1277.12 3.74323 -0.39492 0
M  V30 11506 C 1276.27 2.60191 -0.958962 0
M  V30 11507 H 1279.22 1.26135 -0.963099 0
M  V30 11508 H 1279.24 3.805 0.00337228 0
M  V30 11509 H 1278.75 3.4458 -1.78567 0
M  V30 11510 H 1276.85 3.66521 0.670313 0
M  V30 11511 H 1276.96 4.70558 -0.900653 0
M  V30 11512 H 1275.33 2.51797 -0.383423 0
M  V30 11513 H 1276.11 2.76358 -2.03669 0
M  V30 11514 N 1278.56 0.518393 1.4883 0
M  V30 11515 C 1279.52 -0.23983 2.27942 0
M  V30 11516 C 1280.52 -0.878302 1.34694 0
M  V30 11517 O 1281.71 -0.740142 1.57694 0
M  V30 11518 C 1278.84 -1.34581 3.1321 0
M  V30 11519 H 1280.03 0.454599 2.96434 0
M  V30 11520 H 1277.59 0.273932 1.53881 0
M  V30 11521 H 1278.32 -2.07385 2.49323 0
M  V30 11522 H 1278.11 -0.893251 3.8179 0
M  V30 11523 H 1279.6 -1.87944 3.72917 0
M  V30 11524 N 1280.03 -1.55556 0.252993 0
M  V30 11525 C 1281.28 -1.98697 -0.369319 0
M  V30 11526 C 1281.6 -1.14256 -1.58021 0
M  V30 11527 O 1280.87 -0.226779 -1.94583 0
M  V30 11528 H 1279.45 -0.733869 -0.139444 0
M  V30 11529 H 1282.12 -1.91673 0.353197 0
M  V30 11530 H 1281.21 -3.04728 -0.674312 0
M  V30 11531 N 1281.51 0.0200419 -1.57587 0
M  V30 11532 C 1282.45 1.05118 -2.02547 0
M  V30 11533 C 1283.42 1.3465 -0.911494 0
M  V30 11534 O 1284.61 1.47154 -1.17805 0
M  V30 11535 C 1281.73 2.38373 -2.40615 0
M  V30 11536 C 1280.78 2.24639 -3.62546 0
M  V30 11537 S 1281.61 1.59129 -5.1131 0
M  V30 11538 C 1282.77 2.93856 -5.5263 0
M  V30 11539 H 1283 0.668271 -2.89692 0
M  V30 11540 H 1280.54 0.230301 -1.52673 0
M  V30 11541 H 1282.49 3.15002 -2.63218 0
M  V30 11542 H 1281.15 2.7381 -1.53906 0
M  V30 11543 H 1280.35 3.23032 -3.86867 0
M  V30 11544 H 1279.95 1.56153 -3.39841 0
M  V30 11545 H 1282.24 3.90179 -5.53865 0
M  V30 11546 H 1283.18 2.74258 -6.52831 0
M  V30 11547 H 1283.59 2.96844 -4.8015 0
M  V30 11548 N 1282.99 1.54862 0.292472 0
M  V30 11549 C 1283.94 1.86403 1.36098 0
M  V30 11550 C 1284.91 0.713694 1.49985 0
M  V30 11551 O 1286.09 0.963134 1.64707 0
M  V30 11552 C 1283.23 2.1244 2.71962 0
M  V30 11553 C 1282.35 3.40038 2.66454 0
M  V30 11554 C 1281.48 3.55875 3.94368 0
M  V30 11555 C 1280.52 4.77235 3.83293 0
M  V30 11556 N 1279.66 4.89832 5.03 0
M  V30 11557 H 1284.5 2.77546 1.085 0
M  V30 11558 H 1282.03 1.37427 0.524607 0
M  V30 11559 H 1283.99 2.25533 3.50985 0
M  V30 11560 H 1282.62 1.24554 2.97802 0
M  V30 11561 H 1281.67 3.35521 1.79248 0
M  V30 11562 H 1282.99 4.29188 2.54163 0
M  V30 11563 H 1282.14 3.68679 4.8183 0
M  V30 11564 H 1280.88 2.64874 4.09503 0
M  V30 11565 H 1279.88 4.64455 2.94214 0
M  V30 11566 H 1281.11 5.69651 3.69695 0
M  V30 11567 H 1279.05 4.01756 5.18582 0
M  V30 11568 H 1278.97 5.72996 4.93165 0
M  V30 11569 H 1280.24 5.07001 5.92089 0
M  V30 11570 N 1284.47 -0.556076 1.47464 0
M  V30 11571 C 1285.72 -1.31061 1.53842 0
M  V30 11572 C 1286.04 -1.93943 0.202806 0
M  V30 11573 O 1285.31 -1.7999 -0.773338 0
M  V30 11574 H 1283.89 -0.486696 0.566689 0
M  V30 11575 H 1286.55 -0.64924 1.83769 0
M  V30 11576 H 1285.65 -2.10354 2.30559 0
M  V30 11577 N 1285.95 -1.35615 -0.802897 0
M  V30 11578 C 1286.88 -1.31506 -1.92947 0
M  V30 11579 C 1287.86 -0.188843 -1.69048 0
M  V30 11580 O 1289.04 -0.384384 -1.90358 0
M  V30 11581 C 1286.17 -1.09001 -3.29752 0
M  V30 11582 C 1285.13 -2.18303 -3.68141 0
M  V30 11583 C 1284.45 -1.80959 -5.03148 0
M  V30 11584 C 1285.75 -3.60296 -3.78132 0
M  V30 11585 H 1287.45 -2.25771 -1.96642 0
M  V30 11586 H 1284.99 -1.08682 -0.944685 0
M  V30 11587 H 1286.95 -1.04766 -4.08169 0
M  V30 11588 H 1285.67 -0.111832 -3.26408 0
M  V30 11589 H 1284.33 -2.21642 -2.92011 0
M  V30 11590 H 1283.98 -0.817495 -4.96312 0
M  V30 11591 H 1283.68 -2.54129 -5.29804 0
M  V30 11592 H 1285.2 -1.78255 -5.84001 0
M  V30 11593 H 1286.62 -3.59259 -4.46773 0
M  V30 11594 H 1285.01 -4.32258 -4.16261 0
M  V30 11595 H 1286.08 -3.9618 -2.79588 0
M  V30 11596 N 1287.43 1.02549 -1.19673 0
M  V30 11597 C 1288.84 1.57454 -1.00325 0
M  V30 11598 C 1289.19 1.91136 0.442889 0
M  V30 11599 O 1288.31 1.7126 1.32284 0
M  V30 11600 C 1288.91 2.86091 -1.81486 0
M  V30 11601 C 1287.47 3.37557 -1.6653 0
M  V30 11602 C 1286.61 2.1096 -1.79975 0
M  V30 11603 H 1289.56 0.850364 -1.33994 0
M  V30 11604 H 1289.59 3.5713 -1.31296 0
M  V30 11605 H 1289.1 2.61546 -2.86733 0
M  V30 11606 H 1287.2 3.67083 -0.638834 0
M  V30 11607 H 1287.31 4.1036 -2.47269 0
M  V30 11608 H 1285.68 2.22993 -1.23071 0
M  V30 11609 H 1286.46 1.88852 -2.86688 0
M  V30 11610 N 1288.9 1.00119 1.21713 0
M  V30 11611 C 1290.15 0.680377 1.90303 0
M  V30 11612 C 1290.47 -0.790927 1.7824 0
M  V30 11613 O 1289.74 -1.5676 1.17486 0
M  V30 11614 H 1288.32 0.248665 0.704397 0
M  V30 11615 H 1290.98 1.26948 1.47886 0
M  V30 11616 H 1290.08 0.950188 2.97284 0
M  V30 11617 N 1290.38 -1.37203 0.775435 0
M  V30 11618 C 1291.31 -2.32819 0.17826 0
M  V30 11619 C 1292.29 -1.55963 -0.678944 0
M  V30 11620 O 1293.48 -1.84183 -0.615648 0
M  V30 11621 C 1290.61 -3.40198 -0.698768 0
M  V30 11622 C 1289.56 -4.27961 0.057423 0
M  V30 11623 C 1288.89 -5.26385 -0.93929 0
M  V30 11624 C 1290.19 -5.07402 1.23856 0
M  V30 11625 H 1291.88 -2.8301 0.977028 0
M  V30 11626 H 1289.43 -1.3607 0.471274 0
M  V30 11627 H 1291.38 -4.06067 -1.12637 0
M  V30 11628 H 1290.1 -2.88541 -1.53009 0
M  V30 11629 H 1288.76 -3.63628 0.465848 0
M  V30 11630 H 1288.41 -4.71007 -1.76527 0
M  V30 11631 H 1288.11 -5.85966 -0.437844 0
M  V30 11632 H 1289.64 -5.9513 -1.36576 0
M  V30 11633 H 1291.05 -5.6639 0.887423 0
M  V30 11634 H 1289.45 -5.76327 1.67234 0
M  V30 11635 H 1290.52 -4.3986 2.04085 0
M  V30 11636 N 1291.86 -0.526279 -1.48553 0
M  V30 11637 C 1293.27 -0.0848694 -1.86507 0
M  V30 11638 C 1293.62 1.3367 -1.43621 0
M  V30 11639 O 1292.75 2.00046 -0.825268 0
M  V30 11640 C 1293.34 -0.147241 -3.3848 0
M  V30 11641 C 1291.9 0.238954 -3.75641 0
M  V30 11642 C 1291.05 -0.508648 -2.72595 0
M  V30 11643 H 1294 -0.737728 -1.40511 0
M  V30 11644 H 1294.02 0.641964 -3.75045 0
M  V30 11645 H 1293.53 -1.18199 -3.69663 0
M  V30 11646 H 1291.63 1.27598 -3.50071 0
M  V30 11647 H 1291.75 -0.0980808 -4.79 0
M  V30 11648 H 1290.11 0.0446382 -2.54661 0
M  V30 11649 H 1290.89 -1.54395 -3.06622 0
M  V30 11650 N 1293.34 1.5542 -0.261239 0
M  V30 11651 C 1294.59 1.9889 0.358777 0
M  V30 11652 C 1294.91 1.15092 1.57413 0
M  V30 11653 O 1294.18 0.237095 1.9446 0
M  V30 11654 H 1292.76 0.734599 0.13555 0
M  V30 11655 H 1295.42 1.91483 -0.363357 0
M  V30 11656 H 1294.51 3.05082 0.658142 0
M  V30 11657 N 1294.82 -0.0116844 1.57596 0
M  V30 11658 C 1296.23 -0.367602 1.55309 0
M  V30 11659 C 1296.43 -1.75524 0.98962 0
M  V30 11660 O 1295.49 -2.44813 0.618289 0
M  V30 11661 C 1296.8 -0.253532 2.99629 0
M  V30 11662 C 1298.35 -0.329335 3.11263 0
M  V30 11663 C 1298.82 -0.24452 4.57347 0
M  V30 11664 N 1300.31 -0.302782 4.62209 0
M  V30 11665 C 1301.05 -0.260315 5.72809 0
M  V30 11666 N 1300.55 -0.169124 6.92594 0
M  V30 11667 N 1302.34 -0.311323 5.61237 0
M  V30 11668 H 1294.49 0.896204 1.92567 0
M  V30 11669 H 1296.75 0.342445 0.883988 0
M  V30 11670 H 1296.46 0.70074 3.44648 0
M  V30 11671 H 1296.33 -1.04029 3.62571 0
M  V30 11672 H 1298.72 -1.27405 2.66181 0
M  V30 11673 H 1298.8 0.487084 2.5112 0
M  V30 11674 H 1298.44 0.696597 5.031 0
M  V30 11675 H 1298.37 -1.07927 5.15421 0
M  V30 11676 H 1300.87 -0.375067 3.76034 0
M  V30 11677 H 1301.18 -0.142296 7.72669 0
M  V30 11678 H 1299.52 -0.134919 6.94869 0
M  V30 11679 H 1302.71 -0.380678 4.6655 0
M  V30 11680 H 1302.89 -0.274761 6.47417 0
M  V30 11681 N 1296.29 -1.55015 -0.284256 0
M  V30 11682 C 1297.7 -1.65915 -0.856104 0
M  V30 11683 C 1298.06 -0.578758 -1.8747 0
M  V30 11684 O 1297.18 0.281733 -2.14558 0
M  V30 11685 C 1297.78 -3.0077 -1.55957 0
M  V30 11686 C 1296.33 -3.13735 -2.0796 0
M  V30 11687 C 1295.48 -2.61669 -0.917849 0
M  V30 11688 H 1298.43 -1.58583 -0.0608587 0
M  V30 11689 H 1298.45 -2.9313 -2.42601 0
M  V30 11690 H 1297.97 -3.79382 -0.81798 0
M  V30 11691 H 1296.07 -2.39875 -2.85115 0
M  V30 11692 H 1296.18 -4.20138 -2.30263 0
M  V30 11693 H 1294.54 -2.18542 -1.3081 0
M  V30 11694 H 1295.33 -3.42774 -0.189946 0
M  V30 11695 N 1297.77 0.548248 -1.47757 0
M  V30 11696 C 1299.02 1.30243 -1.54535 0
M  V30 11697 C 1299.34 1.93832 -0.213089 0
M  V30 11698 O 1298.61 1.80397 0.763782 0
M  V30 11699 H 1297.19 0.483684 -0.569262 0
M  V30 11700 H 1299.85 0.639485 -1.8411 0
M  V30 11701 H 1298.95 2.09128 -2.31672 0
M  V30 11702 N 1299.25 1.36039 0.795694 0
M  V30 11703 C 1300.21 1.29709 1.88966 0
M  V30 11704 C 1301.21 0.206142 1.59473 0
M  V30 11705 O 1302.4 0.460534 1.68002 0
M  V30 11706 C 1299.53 1.00922 3.25619 0
M  V30 11707 H 1300.73 2.26993 1.95995 0
M  V30 11708 H 1298.28 1.2072 0.992791 0
M  V30 11709 H 1299.02 0.0407027 3.24274 0
M  V30 11710 H 1298.8 1.79863 3.48413 0
M  V30 11711 H 1300.29 0.990826 4.05675 0
M  V30 11712 N 1300.73 -1.01913 1.20215 0
M  V30 11713 C 1301.68 -2.08774 0.916367 0
M  V30 11714 C 1302.66 -1.60431 -0.122796 0
M  V30 11715 O 1303.85 -1.76799 0.0842336 0
M  V30 11716 C 1300.98 -3.40102 0.467517 0
M  V30 11717 C 1300.07 -3.95153 1.53997 0
M  V30 11718 N 1300.46 -4.23745 2.76178 0
M  V30 11719 C 1298.76 -4.23274 1.40554 0
M  V30 11720 C 1299.46 -4.681 3.45336 0
M  V30 11721 N 1298.44 -4.70224 2.72745 0
M  V30 11722 H 1302.24 -2.28786 1.84484 0
M  V30 11723 H 1299.75 -1.19861 1.09577 0
M  V30 11724 H 1301.75 -4.16184 0.244195 0
M  V30 11725 H 1300.41 -3.21505 -0.454358 0
M  V30 11726 H 1301.42 -4.12728 3.12852 0
M  V30 11727 H 1298.1 -4.1389 0.547877 0
M  V30 11728 H 1299.49 -4.99063 4.49873 0
M  V30 11729 N 1302.21 -1.00763 -1.2118 0
M  V30 11730 C 1303.45 -0.690459 -1.8994 0
M  V30 11731 C 1303.78 0.781464 -1.78656 0
M  V30 11732 O 1303.05 1.56135 -1.18316 0
M  V30 11733 H 1301.63 -0.252397 -0.703068 0
M  V30 11734 H 1304.29 -1.2773 -1.47211 0
M  V30 11735 H 1303.38 -0.96594 -2.96776 0
M  V30 11736 N 1303.68 1.3679 -0.7827 0
M  V30 11737 C 1305.1 1.82006 -0.41603 0
M  V30 11738 C 1305.45 1.65151 1.05922 0
M  V30 11739 O 1304.57 1.1687 1.82127 0
M  V30 11740 C 1305.17 3.30432 -0.748353 0
M  V30 11741 C 1303.73 3.73883 -0.4346 0
M  V30 11742 C 1302.87 2.59159 -0.986505 0
M  V30 11743 H 1305.82 1.25107 -0.976423 0
M  V30 11744 H 1305.84 3.80482 -0.036985 0
M  V30 11745 H 1305.36 3.42667 -1.82212 0
M  V30 11746 H 1303.46 3.67211 0.631401 0
M  V30 11747 H 1303.57 4.69577 -0.950511 0
M  V30 11748 H 1301.93 2.51377 -0.410108 0
M  V30 11749 H 1302.72 2.74182 -2.06589 0
M  V30 11750 N 1305.16 0.53415 1.48272 0
M  V30 11751 C 1306.57 0.0947592 1.86459 0
M  V30 11752 C 1306.92 -1.32906 1.44328 0
M  V30 11753 O 1306.05 -1.99605 0.835866 0
M  V30 11754 C 1306.64 0.16519 3.38397 0
M  V30 11755 C 1305.2 -0.219029 3.75762 0
M  V30 11756 C 1304.35 0.523097 2.72321 0
M  V30 11757 H 1307.3 0.74517 1.40117 0
M  V30 11758 H 1307.32 -0.622065 3.75381 0
M  V30 11759 H 1306.83 1.20157 3.69031 0
M  V30 11760 H 1304.94 -1.2574 3.50742 0
M  V30 11761 H 1305.05 0.123482 4.78941 0
M  V30 11762 H 1303.41 -0.0311323 2.54681 0
M  V30 11763 H 1304.2 1.56019 3.05799 0
M  V30 11764 N 1306.64 -1.55279 0.269478 0
M  V30 11765 C 1307.89 -1.99077 -0.348224 0
M  V30 11766 C 1308.21 -1.15925 -1.568 0
M  V30 11767 O 1307.48 -0.247404 -1.94331 0
M  V30 11768 H 1306.06 -0.735307 -0.131653 0
M  V30 11769 H 1308.72 -1.91288 0.373506 0
M  V30 11770 H 1307.82 -3.05427 -0.641953 0
M  V30 11771 N 1308.12 0.00332656 -1.576 0
M  V30 11772 C 1309.05 0.994803 -2.11248 0
M  V30 11773 C 1310.03 1.36061 -1.02085 0
M  V30 11774 O 1311.21 1.44494 -1.2975 0
M  V30 11775 C 1308.34 2.28772 -2.61306 0
M  V30 11776 C 1307.3 2.06362 -3.74965 0
M  V30 11777 C 1306.62 3.41638 -4.11324 0
M  V30 11778 C 1307.92 1.4289 -5.02374 0
M  V30 11779 H 1309.62 0.548119 -2.9434 0
M  V30 11780 H 1307.16 0.262208 -1.41593 0
M  V30 11781 H 1309.12 2.98485 -2.97464 0
M  V30 11782 H 1307.84 2.75547 -1.75332 0
M  V30 11783 H 1306.5 1.39076 -3.39195 0
M  V30 11784 H 1306.15 3.8611 -3.22379 0
M  V30 11785 H 1305.85 3.2746 -4.87897 0
M  V30 11786 H 1307.37 4.12671 -4.50039 0
M  V30 11787 H 1308.79 2.02555 -5.36325 0
M  V30 11788 H 1307.18 1.3921 -5.8373 0
M  V30 11789 H 1308.25 0.397708 -4.83266 0
M  V30 11790 N 1309.6 1.55164 0.276031 0
M  V30 11791 C 1311.01 1.66367 0.847293 0
M  V30 11792 C 1311.36 0.588692 1.8716 0
M  V30 11793 O 1310.48 -0.27035 2.14705 0
M  V30 11794 C 1311.08 3.01593 1.5436 0
M  V30 11795 C 1309.64 3.14833 2.06293 0
M  V30 11796 C 1308.78 2.62152 0.903959 0
M  V30 11797 H 1311.74 1.58613 0.0524478 0
M  V30 11798 H 1311.76 2.94412 2.41043 0
M  V30 11799 H 1311.27 3.7981 0.797849 0
M  V30 11800 H 1309.37 2.41384 2.83839 0
M  V30 11801 H 1309.48 4.21353 2.28032 0
M  V30 11802 H 1307.85 2.19233 1.29649 0
M  V30 11803 H 1308.63 3.4287 0.171765 0
M  V30 11804 N 1311.07 -0.540404 1.48045 0
M  V30 11805 C 1312.32 -1.29422 1.55224 0
M  V30 11806 C 1312.64 -1.93716 0.223365 0
M  V30 11807 O 1311.91 -1.808 -0.754204 0
M  V30 11808 H 1310.49 -0.480658 0.571819 0
M  V30 11809 H 1313.16 -0.629712 1.84447 0
M  V30 11810 H 1312.25 -2.07897 2.32777 0
M  V30 11811 N 1312.55 -1.36459 -0.788468 0
M  V30 11812 C 1313.8 -1.3007 -1.54158 0
M  V30 11813 C 1314.11 0.117574 -1.95246 0
M  V30 11814 O 1315.32 0.303837 -2.69795 0
M  V30 11815 C 1313.78 -2.28216 -2.78291 0
M  V30 11816 C 1313.38 -3.75484 -2.44368 0
M  V30 11817 C 1315.13 -2.30806 -3.56271 0
M  V30 11818 C 1313.04 -4.65404 -3.64902 0
M  V30 11819 H 1311.97 -0.483345 -0.5787 0
M  V30 11820 H 1314.62 -1.61827 -0.865123 0
M  V30 11821 H 1313 -1.89454 -3.4774 0
M  V30 11822 H 1314.17 -4.22986 -1.82809 0
M  V30 11823 H 1312.49 -3.75678 -1.79597 0
M  V30 11824 H 1315.08 -2.95196 -4.45829 0
M  V30 11825 H 1315.43 -1.31687 -3.94923 0
M  V30 11826 H 1315.96 -2.68189 -2.93802 0
M  V30 11827 H 1312.7 -5.65589 -3.31344 0
M  V30 11828 H 1312.22 -4.22617 -4.25623 0
M  V30 11829 H 1313.9 -4.81721 -4.31919 0
M  V30 11830 N 1314.03 1.01274 -1.20754 0
M  V30 11831 C 1315.44 1.56381 -1.0199 0
M  V30 11832 C 1315.79 1.91595 0.422591 0
M  V30 11833 O 1314.92 1.72653 1.3046 0
M  V30 11834 C 1315.51 2.8415 -1.8451 0
M  V30 11835 C 1314.07 3.35772 -1.70101 0
M  V30 11836 C 1313.22 2.0904 -1.82202 0
M  V30 11837 H 1316.17 0.836105 -1.34889 0
M  V30 11838 H 1316.19 3.55717 -1.35076 0
M  V30 11839 H 1315.7 2.5849 -2.8949 0
M  V30 11840 H 1313.8 3.66384 -0.677732 0
M  V30 11841 H 1313.92 4.07714 -2.51607 0
M  V30 11842 H 1312.28 2.21675 -1.25429 0
M  V30 11843 H 1313.06 1.858 -2.88675 0
M  V30 11844 N 1315.51 1.01404 1.20644 0
M  V30 11845 C 1316.76 0.700523 1.89571 0
M  V30 11846 C 1317.08 -0.771978 1.79068 0
M  V30 11847 O 1316.35 -1.55506 1.19142 0
M  V30 11848 H 1314.93 0.256122 0.70172 0
M  V30 11849 H 1317.59 1.28509 1.46531 0
M  V30 11850 H 1316.69 0.981665 2.9626 0
M  V30 11851 N 1316.99 -1.36373 0.789944 0
M  V30 11852 C 1318.4 -1.81783 0.425677 0
M  V30 11853 C 1318.75 -1.65711 -1.05045 0
M  V30 11854 O 1317.87 -1.17835 -1.81505 0
M  V30 11855 C 1318.47 -3.3003 0.765866 0
M  V30 11856 C 1317.03 -3.73647 0.454421 0
M  V30 11857 C 1316.18 -2.58632 1.00023 0
M  V30 11858 H 1319.13 -1.24587 0.983044 0
M  V30 11859 H 1319.15 -3.80457 0.0571624 0
M  V30 11860 H 1318.66 -3.41696 1.84026 0
M  V30 11861 H 1316.76 -3.67541 -0.611918 0
M  V30 11862 H 1316.87 -4.69066 0.975401 0
M  V30 11863 H 1315.24 -2.51156 0.423434 0
M  V30 11864 H 1316.02 -2.73083 2.0804 0
M  V30 11865 N 1318.47 -0.542005 -1.47987 0
M  V30 11866 C 1319.71 -0.0123116 -2.02496 0
M  V30 11867 C 1320.04 1.33136 -1.41793 0
M  V30 11868 O 1319.3 1.87591 -0.557501 0
M  V30 11869 C 1319.59 0.146208 -3.57101 0
M  V30 11870 C 1319.26 -1.12463 -4.3665 0
M  V30 11871 C 1317.92 -1.47289 -4.58104 0
M  V30 11872 C 1320.27 -1.96746 -4.82639 0
M  V30 11873 C 1317.6 -2.66273 -5.22796 0
M  V30 11874 C 1319.95 -3.14919 -5.48643 0
M  V30 11875 C 1318.62 -3.50077 -5.68333 0
M  V30 11876 H 1317.89 -0.00450514 -0.740986 0
M  V30 11877 H 1320.54 -0.710455 -1.77834 0
M  V30 11878 H 1318.84 0.927209 -3.80671 0
M  V30 11879 H 1320.54 0.571161 -3.96912 0
M  V30 11880 H 1317.13 -0.843429 -4.20219 0
M  V30 11881 H 1321.31 -1.71149 -4.65856 0
M  V30 11882 H 1316.57 -2.937 -5.36237 0
M  V30 11883 H 1320.74 -3.80525 -5.83244 0
M  V30 11884 H 1318.37 -4.42371 -6.18233 0
M  V30 11885 N 1319.94 1.55134 -0.277709 0
M  V30 11886 C 1321.19 1.99259 0.337662 0
M  V30 11887 C 1321.51 1.16755 1.56183 0
M  V30 11888 O 1320.78 0.257707 1.94198 0
M  V30 11889 H 1319.36 0.735995 0.127751 0
M  V30 11890 H 1322.02 1.91087 -0.383646 0
M  V30 11891 H 1321.12 3.05763 0.625747 0
M  V30 11892 N 1321.42 0.00503138 1.57599 0
M  V30 11893 C 1322.7 -0.716079 1.82021 0
M  V30 11894 C 1323.08 -1.91707 0.883829 0
M  V30 11895 O 1322.43 -2.28404 -0.0662812 0
M  V30 11896 C 1322.64 -1.11706 3.3064 0
M  V30 11897 C 1323.98 -1.51881 3.96506 0
M  V30 11898 O 1325.01 -1.21071 3.34993 0
M  V30 11899 O 1323.87 -2.09191 5.04877 0
M  V30 11900 H 1320.96 -0.349112 0.7497 0
M  V30 11901 H 1323.51 0.030871 1.69672 0
M  V30 11902 H 1322.28 -0.261223 3.90427 0
M  V30 11903 H 1321.9 -1.92295 3.48006 0
M  V30 11904 N 1322.9 -1.55308 -0.267798 0
M  V30 11905 C 1324.18 -1.66881 -1.02029 0
M  V30 11906 C 1324.56 -0.538708 -2.04111 0
M  V30 11907 O 1323.9 0.460575 -2.2381 0
M  V30 11908 C 1324.11 -3.06318 -1.67243 0
M  V30 11909 C 1325.46 -3.64237 -2.18212 0
M  V30 11910 O 1326.49 -3.08984 -1.77221 0
M  V30 11911 O 1325.35 -4.61055 -2.93413 0
M  V30 11912 H 1322.44 -0.677967 -0.473593 0
M  V30 11913 H 1324.99 -1.67646 -0.263242 0
M  V30 11914 H 1323.76 -3.80015 -0.932985 0
M  V30 11915 H 1323.38 -3.09475 -2.49622 0
M  V30 11916 N 1324.38 0.532545 -1.4833 0
M  V30 11917 C 1325.63 1.28597 -1.55908 0
M  V30 11918 C 1325.95 1.93595 -0.233635 0
M  V30 11919 O 1325.22 1.81197 0.744605 0
M  V30 11920 H 1323.8 0.477619 -0.57436 0
M  V30 11921 H 1326.46 0.619922 -1.84778 0
M  V30 11922 H 1325.55 2.0666 -2.33877 0
M  V30 11923 N 1325.86 1.36875 0.78122 0
M  V30 11924 C 1326.79 1.34559 1.9083 0
M  V30 11925 C 1327.77 0.215713 1.68727 0
M  V30 11926 O 1328.95 0.41462 1.89722 0
M  V30 11927 C 1326.08 1.14233 3.27976 0
M  V30 11928 C 1325.04 2.24132 3.64621 0
M  V30 11929 C 1324.36 1.8894 5.00206 0
M  V30 11930 C 1325.66 3.66266 3.72353 0
M  V30 11931 H 1327.36 2.28871 1.93025 0
M  V30 11932 H 1324.9 1.10171 0.927275 0
M  V30 11933 H 1326.85 1.11246 4.06451 0
M  V30 11934 H 1325.58 0.163747 3.26189 0
M  V30 11935 H 1324.24 2.26259 2.88448 0
M  V30 11936 H 1323.89 0.896351 4.94949 0
M  V30 11937 H 1323.59 2.62525 5.25694 0
M  V30 11938 H 1325.11 1.87523 5.81092 0
M  V30 11939 H 1326.52 3.66321 4.41001 0
M  V30 11940 H 1324.92 4.38825 4.09332 0
M  V30 11941 H 1325.99 4.00578 2.7325 0
M  V30 11942 N 1327.33 -1.00632 1.21289 0
M  V30 11943 C 1328.74 -1.55838 1.02817 0
M  V30 11944 C 1329.1 -1.91816 -0.412425 0
M  V30 11945 O 1328.22 -1.73342 -1.29543 0
M  V30 11946 C 1328.82 -2.83168 1.86014 0
M  V30 11947 C 1327.37 -3.34865 1.71879 0
M  V30 11948 C 1326.52 -2.0807 1.83309 0
M  V30 11949 H 1329.47 -0.828939 1.3533 0
M  V30 11950 H 1329.49 -3.54996 1.36961 0
M  V30 11951 H 1329.01 -2.56951 2.90857 0
M  V30 11952 H 1327.11 -3.6602 0.697153 0
M  V30 11953 H 1327.22 -4.06374 2.53766 0
M  V30 11954 H 1325.58 -2.21006 1.26603 0
M  V30 11955 H 1326.37 -1.84267 2.89656 0
M  V30 11956 N 1328.81 -1.02043 -1.20104 0
M  V30 11957 C 1330.06 -0.710566 -1.89197 0
M  V30 11958 C 1330.38 0.762471 -1.79475 0
M  V30 11959 O 1329.65 1.54871 -1.19965 0
M  V30 11960 H 1328.23 -0.259839 -0.700352 0
M  V30 11961 H 1330.89 -1.29285 -1.45848 0
M  V30 11962 H 1329.99 -0.997363 -2.95735 0
M  V30 11963 N 1330.29 1.35952 -0.797165 0
M  V30 11964 C 1331.7 1.81554 -0.435311 0
M  V30 11965 C 1332.05 1.66266 1.04164 0
M  V30 11966 O 1331.18 1.18796 1.80877 0
M  V30 11967 C 1331.77 3.29619 -0.783358 0
M  V30 11968 C 1330.33 3.73401 -0.47423 0
M  V30 11969 C 1329.48 2.58098 -1.01394 0
M  V30 11970 H 1332.43 1.24064 -0.989638 0
M  V30 11971 H 1332.45 3.80421 -0.0773381 0
M  V30 11972 H 1331.96 3.40715 -1.85836 0
M  V30 11973 H 1330.06 3.6786 0.592418 0
M  V30 11974 H 1330.18 4.68542 -1.00026 0
M  V30 11975 H 1328.54 2.50927 -0.436747 0
M  V30 11976 H 1329.32 2.71976 -2.09485 0
M  V30 11977 N 1331.77 0.549846 1.47697 0
M  V30 11978 C 1333.18 0.11453 1.86348 0
M  V30 11979 C 1333.53 -1.31368 1.45729 0
M  V30 11980 O 1332.66 -1.98707 0.856989 0
M  V30 11981 C 1333.25 0.201072 3.38203 0
M  V30 11982 C 1331.81 -0.179162 3.75973 0
M  V30 11983 C 1330.96 0.551951 2.71751 0
M  V30 11984 H 1333.91 0.759989 1.39319 0
M  V30 11985 H 1333.93 -0.582216 3.76019 0
M  V30 11986 H 1333.44 1.24065 3.67736 0
M  V30 11987 H 1331.54 -1.22013 3.52056 0
M  V30 11988 H 1331.65 0.174273 4.78783 0
M  V30 11989 H 1330.02 -0.00411819 2.547 0
M  V30 11990 H 1330.8 1.59254 3.04127 0
M  V30 11991 N 1333.25 -1.54984 0.285932 0
M  V30 11992 C 1334.49 -1.99436 -0.32709 0
M  V30 11993 C 1334.82 -1.17582 -1.55562 0
M  V30 11994 O 1334.09 -0.268002 -1.94058 0
M  V30 11995 H 1332.67 -0.736662 -0.123846 0
M  V30 11996 H 1335.33 -1.90881 0.393774 0
M  V30 11997 H 1334.42 -3.0609 -0.609523 0
M  V30 11998 N 1334.72 -0.0133892 -1.57594 0
M  V30 11999 C 1336.14 0.527615 -1.7909 0
M  V30 12000 C 1336.49 1.73179 -0.922142 0
M  V30 12001 O 1335.61 2.1602 -0.128233 0
M  V30 12002 C 1336.21 0.963949 -3.24798 0
M  V30 12003 C 1334.77 1.45017 -3.47343 0
M  V30 12004 C 1333.91 0.407548 -2.74289 0
M  V30 12005 H 1336.86 -0.239505 -1.56882 0
M  V30 12006 H 1336.88 1.82924 -3.33645 0
M  V30 12007 H 1336.4 0.0873315 -3.88002 0
M  V30 12008 H 1334.5 2.34724 -2.89371 0
M  V30 12009 H 1334.61 1.4684 -4.56043 0
M  V30 12010 H 1332.97 0.872174 -2.39301 0
M  V30 12011 H 1333.76 -0.460333 -3.402 0
M  V30 12012 N 1336.2 1.55448 0.259558 0
M  V30 12013 C 1337.15 1.89248 1.32113 0
M  V30 12014 C 1338.12 0.745348 1.48438 0
M  V30 12015 O 1339.3 0.997854 1.62627 0
M  V30 12016 C 1336.44 2.18161 2.67394 0
M  V30 12017 C 1335.56 3.45614 2.59182 0
M  V30 12018 C 1334.69 3.6416 3.86731 0
M  V30 12019 C 1333.73 4.85258 3.73084 0
M  V30 12020 N 1332.87 5.00391 4.92497 0
M  V30 12021 H 1337.71 2.79785 1.02589 0
M  V30 12022 H 1335.25 1.38509 0.495338 0
M  V30 12023 H 1337.2 2.32927 3.46122 0
M  V30 12024 H 1335.83 1.30843 2.95093 0
M  V30 12025 H 1334.89 3.39248 1.72091 0
M  V30 12026 H 1336.2 4.34483 2.45002 0
M  V30 12027 H 1335.35 3.78817 4.73902 0
M  V30 12028 H 1334.09 2.73501 4.03793 0
M  V30 12029 H 1333.1 4.70591 2.84296 0
M  V30 12030 H 1334.32 5.77365 3.57528 0
M  V30 12031 H 1332.27 4.12666 5.09944 0
M  V30 12032 H 1332.18 5.83328 4.809 0
M  V30 12033 H 1333.45 5.19446 5.81202 0
M  V30 12034 N 1337.68 -0.524672 1.4861 0
M  V30 12035 C 1338.93 -1.27768 1.56588 0
M  V30 12036 C 1339.25 -1.93469 0.243899 0
M  V30 12037 O 1338.52 -1.8159 -0.734985 0
M  V30 12038 H 1337.1 -0.474566 0.576885 0
M  V30 12039 H 1339.76 -0.610114 1.85104 0
M  V30 12040 H 1338.86 -2.05416 2.34969 0
M  V30 12041 N 1339.16 -1.37287 -0.77395 0
M  V30 12042 C 1340.57 -1.28954 -1.3501 0
M  V30 12043 C 1340.92 0.0638301 -1.96096 0
M  V30 12044 O 1340.05 0.965624 -1.93661 0
M  V30 12045 C 1340.64 -2.3352 -2.45467 0
M  V30 12046 C 1339.2 -2.28828 -2.98856 0
M  V30 12047 C 1338.35 -2.17468 -1.72055 0
M  V30 12048 H 1341.3 -1.47941 -0.57438 0
M  V30 12049 H 1341.32 -1.98058 -3.24889 0
M  V30 12050 H 1340.83 -3.32009 -2.00977 0
M  V30 12051 H 1338.93 -1.33855 -3.47726 0
M  V30 12052 H 1339.04 -3.22152 -3.54619 0
M  V30 12053 H 1337.41 -1.63977 -1.94894 0
M  V30 12054 H 1338.19 -3.17868 -1.29672 0
M  V30 12055 N 1340.64 0.999871 -1.21821 0
M  V30 12056 C 1342.05 1.26228 -0.976664 0
M  V30 12057 C 1342.25 1.98714 0.333915 0
M  V30 12058 O 1341.31 2.29252 1.05829 0
M  V30 12059 C 1342.62 2.08089 -2.1707 0
M  V30 12060 C 1344.17 2.21298 -2.21351 0
M  V30 12061 C 1344.64 3.06544 -3.40287 0
M  V30 12062 N 1346.14 3.14131 -3.40405 0
M  V30 12063 C 1346.87 3.80362 -4.29083 0
M  V30 12064 N 1346.37 4.48577 -5.27968 0
M  V30 12065 N 1348.16 3.77053 -4.16878 0
M  V30 12066 H 1340.31 0.513704 -2.06094 0
M  V30 12067 H 1342.57 0.289447 -0.902732 0
M  V30 12068 H 1342.28 1.62183 -3.12073 0
M  V30 12069 H 1342.15 3.08843 -2.16554 0
M  V30 12070 H 1344.54 2.66422 -1.269 0
M  V30 12071 H 1344.62 1.19997 -2.25908 0
M  V30 12072 H 1344.27 2.62122 -4.35034 0
M  V30 12073 H 1344.2 4.0797 -3.32969 0
M  V30 12074 H 1346.69 2.65576 -2.68846 0
M  V30 12075 H 1347 4.96833 -5.91926 0
M  V30 12076 H 1345.34 4.47348 -5.31888 0
M  V30 12077 H 1348.54 3.22918 -3.38883 0
M  V30 12078 H 1348.71 4.2839 -4.86195 0
M  V30 12079 N 1342.11 1.02678 1.19562 0
M  V30 12080 C 1343.36 0.72059 1.88817 0
M  V30 12081 C 1343.68 -0.752942 1.79877 0
M  V30 12082 O 1342.95 -1.54233 1.20785 0
M  V30 12083 H 1341.53 0.26355 0.698964 0
M  V30 12084 H 1344.2 1.30056 1.4516 0
M  V30 12085 H 1343.29 1.01303 2.95202 0
M  V30 12086 N 1343.59 -1.35528 0.804364 0
M  V30 12087 C 1344.52 -2.32388 0.227604 0
M  V30 12088 C 1345.5 -1.57368 -0.645709 0
M  V30 12089 O 1346.69 -1.85448 -0.576441 0
M  V30 12090 C 1343.82 -3.41603 -0.62645 0
M  V30 12091 C 1342.77 -4.27743 0.148187 0
M  V30 12092 C 1342.1 -5.28259 -0.827425 0
M  V30 12093 C 1343.4 -5.04661 1.34591 0
M  V30 12094 H 1345.09 -2.80874 1.03684 0
M  V30 12095 H 1342.64 -1.3504 0.500031 0
M  V30 12096 H 1344.59 -4.08365 -1.03999 0
M  V30 12097 H 1343.32 -2.91721 -1.46855 0
M  V30 12098 H 1341.97 -3.62558 0.542874 0
M  V30 12099 H 1341.62 -4.74645 -1.66496 0
M  V30 12100 H 1341.32 -5.86763 -0.313453 0
M  V30 12101 H 1342.85 -5.97893 -1.23921 0
M  V30 12102 H 1344.26 -5.6438 1.00736 0
M  V30 12103 H 1342.66 -5.7265 1.79422 0
M  V30 12104 H 1343.73 -4.35432 2.1337 0
M  V30 12105 N 1345.07 -0.557671 -1.47404 0
M  V30 12106 C 1346.48 -0.124411 -1.86285 0
M  V30 12107 C 1346.83 1.30593 -1.46424 0
M  V30 12108 O 1345.96 1.9825 -0.867515 0
M  V30 12109 C 1346.55 -0.219005 -3.38091 0
M  V30 12110 C 1345.11 0.159221 -3.76063 0
M  V30 12111 C 1344.26 -0.566355 -2.71455 0
M  V30 12112 H 1347.21 -0.767367 -1.38914 0
M  V30 12113 H 1347.23 0.562267 -3.76323 0
M  V30 12114 H 1346.74 -1.26013 -3.67073 0
M  V30 12115 H 1344.84 1.20144 -3.52698 0
M  V30 12116 H 1344.96 -0.199662 -4.78684 0
M  V30 12117 H 1343.32 -0.00938921 -2.54698 0
M  V30 12118 H 1344.1 -1.60865 -3.03278 0
M  V30 12119 N 1346.55 1.54831 -0.294147 0
M  V30 12120 C 1347.8 1.99606 0.316509 0
M  V30 12121 C 1348.12 1.18405 1.54936 0
M  V30 12122 O 1347.39 0.278289 1.93913 0
M  V30 12123 H 1345.97 0.737309 0.119938 0
M  V30 12124 H 1348.63 1.90669 -0.403891 0
M  V30 12125 H 1347.73 3.06409 0.593282 0
M  V30 12126 N 1348.03 0.0217466 1.57585 0
M  V30 12127 C 1349.27 -0.658487 1.91495 0
M  V30 12128 C 1349.6 -1.72557 0.897462 0
M  V30 12129 O 1348.86 -1.95471 -0.0946909 0
M  V30 12130 C 1349.16 -1.3197 3.32143 0
M  V30 12131 C 1348.82 -0.383706 4.49264 0
M  V30 12132 C 1347.48 -0.126065 4.81035 0
M  V30 12133 C 1349.84 0.259445 5.20554 0
M  V30 12134 C 1347.16 0.782659 5.81456 0
M  V30 12135 C 1349.52 1.15618 6.21945 0
M  V30 12136 C 1348.18 1.42278 6.5216 0
M  V30 12137 H 1347.45 -0.240958 0.700729 0
M  V30 12138 H 1350.1 0.0819351 1.91325 0
M  V30 12139 H 1348.4 -2.13469 3.28539 0
M  V30 12140 H 1350.1 -1.85245 3.55648 0
M  V30 12141 H 1346.69 -0.59469 4.24454 0
M  V30 12142 H 1350.87 0.073445 4.96246 0
M  V30 12143 H 1346.13 0.996995 6.03216 0
M  V30 12144 H 1350.3 1.66077 6.76307 0
M  V30 12145 H 1347.93 2.1286 7.29791 0
M  V30 12146 N 1349.51 -1.55583 -0.251311 0
M  V30 12147 C 1350.92 -1.67693 -0.820719 0
M  V30 12148 C 1351.27 -0.618393 -1.862 0
M  V30 12149 O 1350.39 0.236158 -2.15108 0
M  V30 12150 C 1350.99 -3.04011 -1.49542 0
M  V30 12151 C 1349.55 -3.18075 -2.01259 0
M  V30 12152 C 1348.69 -2.63557 -0.862138 0
M  V30 12153 H 1351.64 -1.58677 -0.0272072 0
M  V30 12154 H 1351.67 -2.9821 -2.36328 0
M  V30 12155 H 1351.18 -3.81032 -0.737323 0
M  V30 12156 H 1349.28 -2.45869 -2.79963 0
M  V30 12157 H 1349.39 -4.24927 -2.213 0
M  V30 12158 H 1347.76 -2.21268 -1.26145 0
M  V30 12159 H 1348.54 -3.431 -0.117196 0
M  V30 12160 N 1350.98 0.516783 -1.48886 0
M  V30 12161 C 1352.23 1.26936 -1.57263 0
M  V30 12162 C 1352.55 1.93337 -0.254156 0
M  V30 12163 O 1351.82 1.81977 0.725345 0
M  V30 12164 H 1350.4 0.4715 -0.579393 0
M  V30 12165 H 1353.06 0.600289 -1.85425 0
M  V30 12166 H 1352.16 2.04167 -2.36055 0
M  V30 12167 N 1352.46 1.37696 0.766659 0
M  V30 12168 C 1353.71 1.33185 1.52539 0
M  V30 12169 C 1354.04 -0.0821239 1.94327 0
M  V30 12170 O 1353.29 -1.05645 1.64735 0
M  V30 12171 C 1353.59 2.22154 2.79968 0
M  V30 12172 C 1353.26 3.70344 2.57208 0
M  V30 12173 C 1351.92 4.10729 2.50709 0
M  V30 12174 C 1354.27 4.64205 2.36988 0
M  V30 12175 C 1351.6 5.43082 2.21988 0
M  V30 12176 C 1353.95 5.96801 2.0979 0
M  V30 12177 C 1352.61 6.36284 2.01739 0
M  V30 12178 H 1351.88 0.487357 0.558179 0
M  V30 12179 H 1354.53 1.69945 0.882662 0
M  V30 12180 H 1352.84 1.78406 3.48825 0
M  V30 12181 H 1354.53 2.15975 3.37869 0
M  V30 12182 H 1351.12 3.38319 2.63131 0
M  V30 12183 H 1355.31 4.3386 2.40996 0
M  V30 12184 H 1350.56 5.7263 2.14254 0
M  V30 12185 H 1354.74 6.6908 1.93145 0
M  V30 12186 H 1352.36 7.38765 1.79248 0
M  V30 12187 N 1353.94 -0.993397 1.22349 0
M  V30 12188 C 1355.35 -1.54739 1.04465 0
M  V30 12189 C 1355.7 -1.92243 -0.392057 0
M  V30 12190 O 1354.83 -1.74707 -1.27697 0
M  V30 12191 C 1355.42 -2.81179 1.89007 0
M  V30 12192 C 1353.98 -3.33023 1.75421 0
M  V30 12193 C 1353.13 -2.06114 1.85505 0
M  V30 12194 H 1356.08 -0.814539 1.36202 0
M  V30 12195 H 1356.1 -3.53523 1.40718 0
M  V30 12196 H 1355.61 -2.53851 2.93566 0
M  V30 12197 H 1353.71 -3.6526 0.735935 0
M  V30 12198 H 1353.83 -4.03659 2.58062 0
M  V30 12199 H 1352.19 -2.19651 1.2894 0
M  V30 12200 H 1352.97 -1.81184 2.91594 0
M  V30 12201 N 1355.42 -1.03311 -1.19015 0
M  V30 12202 C 1356.67 -0.730593 -1.88432 0
M  V30 12203 C 1356.99 0.743392 -1.80274 0
M  V30 12204 O 1356.26 1.5359 -1.21601 0
M  V30 12205 H 1354.84 -0.267253 -0.697556 0
M  V30 12206 H 1357.5 -1.30824 -1.44468 0
M  V30 12207 H 1356.59 -1.02867 -2.9466 0
M  V30 12208 N 1356.9 1.35099 -0.81154 0
M  V30 12209 C 1357.81 2.33499 -0.22705 0
M  V30 12210 C 1358.82 1.62095 0.632562 0
M  V30 12211 O 1360 1.93938 0.543147 0
M  V30 12212 C 1357.06 3.41279 0.610687 0
M  V30 12213 C 1356.12 4.2845 -0.269994 0
M  V30 12214 C 1355.36 5.31083 0.527854 0
M  V30 12215 O 1355.58 5.42499 1.76213 0
M  V30 12216 O 1354.51 6.01842 -0.083862 0
M  V30 12217 H 1358.34 2.85294 -1.04119 0
M  V30 12218 H 1355.92 1.37957 -0.573432 0
M  V30 12219 H 1357.81 4.07121 1.08768 0
M  V30 12220 H 1356.48 2.91746 1.40235 0
M  V30 12221 H 1355.39 3.65572 -0.794234 0
M  V30 12222 H 1356.72 4.81394 -1.02572 0
M  V30 12223 N 1358.37 0.56548 1.47106 0
M  V30 12224 C 1359.79 0.225855 1.57994 0
M  V30 12225 C 1359.99 -1.27173 1.56299 0
M  V30 12226 O 1359.05 -2.05242 1.47078 0
M  V30 12227 C 1360.36 0.859829 2.88145 0
M  V30 12228 C 1361.91 0.831821 3.01744 0
M  V30 12229 C 1362.38 1.44502 4.34607 0
M  V30 12230 N 1363.87 1.40857 4.41263 0
M  V30 12231 C 1364.61 1.85258 5.42648 0
M  V30 12232 N 1364.1 2.37553 6.508 0
M  V30 12233 N 1365.9 1.76279 5.33744 0
M  V30 12234 H 1358.05 1.53837 1.46451 0
M  V30 12235 H 1360.31 0.642013 0.697512 0
M  V30 12236 H 1360.02 1.91264 2.95146 0
M  V30 12237 H 1359.89 0.357762 3.755 0
M  V30 12238 H 1362.28 -0.212319 2.94335 0
M  V30 12239 H 1362.36 1.37173 2.1591 0
M  V30 12240 H 1362 2.48827 4.42773 0
M  V30 12241 H 1361.93 0.880479 5.19187 0
M  V30 12242 H 1364.42 1.02614 3.63702 0
M  V30 12243 H 1364.74 2.69335 7.24347 0
M  V30 12244 H 1363.08 2.41569 6.51667 0
M  V30 12245 H 1366.27 1.35195 4.48152 0
M  V30 12246 H 1366.45 2.11199 6.12616 0
M  V30 12247 N 1359.85 -1.54672 0.302354 0
M  V30 12248 C 1361.1 -1.99771 -0.305919 0
M  V30 12249 C 1361.42 -1.19225 -1.54306 0
M  V30 12250 O 1360.69 -0.288569 -1.93763 0
M  V30 12251 H 1359.27 -0.737934 -0.116026 0
M  V30 12252 H 1361.93 -1.90452 0.413997 0
M  V30 12253 H 1361.03 -3.06719 -0.577024 0
M  V30 12254 N 1361.33 -0.0301034 -1.57571 0
M  V30 12255 C 1362.28 0.951421 -2.10277 0
M  V30 12256 C 1363.25 1.3224 -1.00508 0
M  V30 12257 O 1364.43 1.41554 -1.27934 0
M  V30 12258 C 1361.57 2.2282 -2.63525 0
M  V30 12259 C 1360.69 1.91359 -3.87306 0
M  V30 12260 C 1359.82 3.13339 -4.28943 0
M  V30 12261 C 1358.86 2.77701 -5.4548 0
M  V30 12262 N 1358 3.9231 -5.82269 0
M  V30 12263 H 1362.84 0.495049 -2.93859 0
M  V30 12264 H 1360.37 0.232756 -1.45247 0
M  V30 12265 H 1362.33 2.97502 -2.92487 0
M  V30 12266 H 1360.96 2.66072 -1.82772 0
M  V30 12267 H 1360.01 1.06915 -3.65066 0
M  V30 12268 H 1361.33 1.61112 -4.72064 0
M  V30 12269 H 1360.48 3.9634 -4.59347 0
M  V30 12270 H 1359.22 3.46747 -3.42954 0
M  V30 12271 H 1358.22 1.93113 -5.14769 0
M  V30 12272 H 1359.45 2.45508 -6.33169 0
M  V30 12273 H 1357.39 4.25559 -4.99235 0
M  V30 12274 H 1357.31 3.65691 -6.61669 0
M  V30 12275 H 1358.58 4.76012 -6.17279 0
M  V30 12276 N 1362.81 1.55714 0.243056 0
M  V30 12277 C 1364.22 1.68126 0.811814 0
M  V30 12278 C 1364.57 0.628259 1.85869 0
M  V30 12279 O 1363.7 -0.224747 2.1523 0
M  V30 12280 C 1364.29 3.048 1.47928 0
M  V30 12281 C 1362.85 3.19138 1.99569 0
M  V30 12282 C 1362 2.64011 0.848149 0
M  V30 12283 H 1364.95 1.58689 0.0187918 0
M  V30 12284 H 1364.97 2.99459 2.34743 0
M  V30 12285 H 1364.48 3.81417 0.717106 0
M  V30 12286 H 1362.58 2.4735 2.78655 0
M  V30 12287 H 1362.69 4.26095 2.19043 0
M  V30 12288 H 1361.06 2.21934 1.2497 0
M  V30 12289 H 1361.84 3.43157 0.0989987 0
M  V30 12290 N 1364.29 -0.50888 1.49158 0
M  V30 12291 C 1365.53 -1.261 1.57934 0
M  V30 12292 C 1365.86 -1.93199 0.264405 0
M  V30 12293 O 1365.13 -1.82359 -0.715684 0
M  V30 12294 H 1363.71 -0.468421 0.581886 0
M  V30 12295 H 1366.37 -0.590447 1.85741 0
M  V30 12296 H 1365.46 -2.02913 2.37135 0
M  V30 12297 N 1365.76 -1.381 -0.759346 0
M  V30 12298 C 1366.73 -1.34674 -1.8546 0
M  V30 12299 C 1367.73 -0.248351 -1.58871 0
M  V30 12300 O 1368.92 -0.504915 -1.66722 0
M  V30 12301 C 1366.05 -1.0952 -3.22828 0
M  V30 12302 H 1367.24 -2.3211 -1.89908 0
M  V30 12303 H 1364.8 -1.2331 -0.960435 0
M  V30 12304 H 1365.53 -0.126664 -3.24053 0
M  V30 12305 H 1365.32 -1.89037 -3.43522 0
M  V30 12306 H 1366.81 -1.09804 -4.02906 0
M  V30 12307 N 1367.24 0.986894 -1.22875 0
M  V30 12308 C 1368.15 2.11232 -1.02069 0
M  V30 12309 C 1369.17 1.73969 0.0328424 0
M  V30 12310 O 1370.34 2.00754 -0.161197 0
M  V30 12311 C 1367.41 3.41337 -0.60747 0
M  V30 12312 C 1366.47 3.92665 -1.73531 0
M  V30 12313 C 1365.7 5.1656 -1.34171 0
M  V30 12314 O 1365.93 5.69964 -0.223106 0
M  V30 12315 O 1364.86 5.61791 -2.16041 0
M  V30 12316 H 1368.69 2.3167 -1.96374 0
M  V30 12317 H 1366.27 1.09607 -1.01522 0
M  V30 12318 H 1368.15 4.19613 -0.387661 0
M  V30 12319 H 1366.83 3.22244 0.306653 0
M  V30 12320 H 1365.74 3.15534 -2.0097 0
M  V30 12321 H 1367.07 4.162 -2.62751 0
M  V30 12322 N 1368.72 1.0394 1.18466 0
M  V30 12323 C 1369.97 0.740576 1.88042 0
M  V30 12324 C 1370.29 -0.733822 1.80666 0
M  V30 12325 O 1369.56 -1.52943 1.22414 0
M  V30 12326 H 1368.14 0.270949 0.696129 0
M  V30 12327 H 1370.8 1.31588 1.43772 0
M  V30 12328 H 1369.9 1.04429 2.94111 0
M  V30 12329 N 1370.2 -1.34667 0.818693 0
M  V30 12330 C 1371.44 -2.00234 0.41056 0
M  V30 12331 C 1371.8 -1.63507 -1.00644 0
M  V30 12332 O 1373 -2.21886 -1.51723 0
M  V30 12333 C 1371.27 -3.52294 0.601968 0
M  V30 12334 S 1372.83 -4.37867 0.286055 0
M  V30 12335 H 1369.65 -0.693826 0.155325 0
M  V30 12336 H 1372.25 -1.64037 1.06359 0
M  V30 12337 H 1370.96 -3.76511 1.63302 0
M  V30 12338 H 1370.49 -3.93345 -0.0659441 0
M  V30 12339 H 1372.5 -4.87936 -0.901832 0
M  V30 12340 N 1371.68 -0.573274 -1.46804 0
M  V30 12341 C 1373.09 -0.144162 -1.86143 0
M  V30 12342 C 1373.44 1.29033 -1.47801 0
M  V30 12343 O 1372.56 1.97319 -0.888494 0
M  V30 12344 C 1373.16 -0.254851 -3.3784 0
M  V30 12345 C 1371.72 0.119325 -3.76211 0
M  V30 12346 C 1370.86 -0.595115 -2.70839 0
M  V30 12347 H 1373.82 -0.782057 -1.38093 0
M  V30 12348 H 1373.84 0.522321 -3.76898 0
M  V30 12349 H 1373.35 -1.29899 -3.65715 0
M  V30 12350 H 1371.45 1.16396 -3.53953 0
M  V30 12351 H 1371.56 -0.250421 -4.78445 0
M  V30 12352 H 1369.93 -0.0364028 -2.54674 0
M  V30 12353 H 1370.71 -1.64072 -3.01555 0
M  V30 12354 N 1373.15 1.5451 -0.310553 0
M  V30 12355 C 1374.4 1.99931 0.29532 0
M  V30 12356 C 1374.72 1.20042 1.53672 0
M  V30 12357 O 1373.99 0.298841 1.93607 0
M  V30 12358 H 1372.57 0.738539 0.112111 0
M  V30 12359 H 1375.24 1.9023 -0.424092 0
M  V30 12360 H 1374.33 3.07021 0.560749 0
M  V30 12361 N 1374.63 0.0384594 1.57553 0
M  V30 12362 C 1375.6 -0.925358 2.0969 0
M  V30 12363 C 1376.6 -1.24811 1.01385 0
M  V30 12364 O 1377.79 -1.1869 1.27508 0
M  V30 12365 C 1374.92 -2.2391 2.57055 0
M  V30 12366 H 1376.11 -0.473633 2.96136 0
M  V30 12367 H 1373.66 -0.209736 1.54886 0
M  V30 12368 H 1374.4 -2.73691 1.73964 0
M  V30 12369 H 1374.18 -2.01793 3.36188 0
M  V30 12370 H 1375.67 -2.92974 2.97583 0
M  V30 12371 N 1376.11 -1.55841 -0.234795 0
M  V30 12372 C 1377.06 -1.91326 -1.29086 0
M  V30 12373 C 1378.03 -0.768868 -1.47233 0
M  V30 12374 O 1379.21 -1.0236 -1.61019 0
M  V30 12375 C 1376.35 -2.22388 -2.6389 0
M  V30 12376 C 1375.47 -3.49693 -2.5365 0
M  V30 12377 C 1374.6 -3.70267 -3.80889 0
M  V30 12378 C 1373.64 -4.91132 -3.65317 0
M  V30 12379 N 1372.78 -5.08163 -4.84474 0
M  V30 12380 H 1377.62 -2.81382 -0.981246 0
M  V30 12381 H 1375.15 -1.3928 -0.47324 0
M  V30 12382 H 1377.11 -2.38404 -3.42373 0
M  V30 12383 H 1375.74 -1.35521 -2.92974 0
M  V30 12384 H 1374.79 -3.41943 -1.66672 0
M  V30 12385 H 1376.11 -4.38326 -2.38059 0
M  V30 12386 H 1375.26 -3.86308 -4.67815 0
M  V30 12387 H 1374 -2.7989 -3.9939 0
M  V30 12388 H 1373 -4.75054 -2.76774 0
M  V30 12389 H 1374.23 -5.8298 -3.48298 0
M  V30 12390 H 1372.18 -4.20726 -5.03314 0
M  V30 12391 H 1372.09 -5.90904 -4.71559 0
M  V30 12392 H 1373.36 -5.28627 -5.72865 0
M  V30 12393 N 1377.59 0.500963 -1.49426 0
M  V30 12394 C 1378.84 1.25261 -1.58601 0
M  V30 12395 C 1379.16 1.93056 -0.274647 0
M  V30 12396 O 1378.43 1.82736 0.706003 0
M  V30 12397 H 1377.01 0.465328 -0.584362 0
M  V30 12398 H 1379.67 0.580588 -1.86052 0
M  V30 12399 H 1378.77 2.01652 -2.38208 0
M  V30 12400 N 1379.07 1.38501 0.752011 0
M  V30 12401 C 1379.98 1.38094 1.8965 0
M  V30 12402 C 1380.99 0.277851 1.71767 0
M  V30 12403 O 1382.17 0.516536 1.94663 0
M  V30 12404 C 1379.23 1.2063 3.25037 0
M  V30 12405 C 1378.3 2.40758 3.55435 0
M  V30 12406 C 1377.53 2.24118 4.84362 0
M  V30 12407 O 1377.75 1.23571 5.56854 0
M  V30 12408 O 1376.69 3.12741 5.14273 0
M  V30 12409 H 1380.51 2.34532 1.92947 0
M  V30 12410 H 1378.1 1.19437 0.897504 0
M  V30 12411 H 1379.98 1.12957 4.05979 0
M  V30 12412 H 1378.65 0.272785 3.22549 0
M  V30 12413 H 1377.56 2.54006 2.74648 0
M  V30 12414 H 1378.89 3.32745 3.62686 0
M  V30 12415 N 1380.55 -0.980364 1.23396 0
M  V30 12416 C 1381.96 -1.53622 1.061 0
M  V30 12417 C 1382.31 -1.92648 -0.371645 0
M  V30 12418 O 1381.43 -1.76051 -1.25837 0
M  V30 12419 C 1382.03 -2.79159 1.91979 0
M  V30 12420 C 1380.59 -3.31144 1.78943 0
M  V30 12421 C 1379.73 -2.04135 1.87681 0
M  V30 12422 H 1382.68 -0.800047 1.37058 0
M  V30 12423 H 1382.71 -3.52011 1.4446 0
M  V30 12424 H 1382.22 -2.50723 2.96242 0
M  V30 12425 H 1380.32 -3.64459 0.774634 0
M  V30 12426 H 1380.43 -4.009 2.62329 0
M  V30 12427 H 1378.8 -2.18271 1.31262 0
M  V30 12428 H 1379.58 -1.78081 2.93499 0
M  V30 12429 N 1382.02 -1.04567 -1.17913 0
M  V30 12430 C 1383.27 -0.750538 -1.87647 0
M  V30 12431 C 1383.59 0.72423 -1.81052 0
M  V30 12432 O 1382.86 1.52292 -1.23223 0
M  V30 12433 H 1381.44 -0.274636 -0.694683 0
M  V30 12434 H 1384.1 -1.32349 -1.43072 0
M  V30 12435 H 1383.2 -1.05987 -2.93553 0
M  V30 12436 N 1383.5 1.34231 -0.825823 0
M  V30 12437 C 1384.41 2.33245 -0.251803 0
M  V30 12438 C 1385.43 1.62756 0.615334 0
M  V30 12439 O 1386.6 1.94503 0.522547 0
M  V30 12440 C 1383.67 3.41908 0.574456 0
M  V30 12441 C 1382.73 4.2814 -0.315422 0
M  V30 12442 C 1381.96 5.31613 0.471496 0
M  V30 12443 O 1382.19 5.44337 1.70449 0
M  V30 12444 O 1381.12 6.01719 -0.147691 0
M  V30 12445 H 1384.95 2.84174 -1.07139 0
M  V30 12446 H 1382.53 1.37341 -0.588032 0
M  V30 12447 H 1384.41 4.08252 1.04444 0
M  V30 12448 H 1383.09 2.93217 1.37132 0
M  V30 12449 H 1381.99 3.64709 -0.832963 0
M  V30 12450 H 1383.33 4.80279 -1.07672 0
M  V30 12451 N 1384.98 0.581051 1.46498 0
M  V30 12452 C 1385.93 -0.153147 2.30291 0
M  V30 12453 C 1386.9 -0.885681 1.40517 0
M  V30 12454 O 1388.08 -0.876678 1.69467 0
M  V30 12455 C 1385.22 -1.16193 3.24951 0
M  V30 12456 C 1384.33 -0.433016 4.29824 0
M  V30 12457 C 1383.47 -1.42918 5.11613 0
M  V30 12458 C 1382.51 -0.686576 6.08237 0
M  V30 12459 N 1381.65 -1.63072 6.829 0
M  V30 12460 H 1386.49 0.56747 2.92547 0
M  V30 12461 H 1384.02 0.29166 1.4418 0
M  V30 12462 H 1385.98 -1.75965 3.78275 0
M  V30 12463 H 1384.61 -1.85028 2.64508 0
M  V30 12464 H 1383.66 0.279707 3.7937 0
M  V30 12465 H 1384.97 0.147604 4.98582 0
M  V30 12466 H 1384.13 -2.09975 5.69206 0
M  V30 12467 H 1382.87 -2.04373 4.42813 0
M  V30 12468 H 1381.87 -0.00222013 5.498 0
M  V30 12469 H 1383.1 -0.0774416 6.79056 0
M  V30 12470 H 1381.04 -2.2334 6.1681 0
M  V30 12471 H 1380.96 -1.10286 7.47912 0
M  V30 12472 H 1382.23 -2.29169 7.45052 0
M  V30 12473 N 1386.46 -1.54343 0.318742 0
M  V30 12474 C 1387.71 -2.00084 -0.284713 0
M  V30 12475 C 1388.03 -1.20855 -1.53033 0
M  V30 12476 O 1387.3 -0.309104 -1.93446 0
M  V30 12477 H 1385.88 -0.739123 -0.108193 0
M  V30 12478 H 1388.54 -1.90002 0.434174 0
M  V30 12479 H 1387.63 -3.07314 -0.544459 0
M  V30 12480 N 1387.94 -0.0468143 -1.5753 0
M  V30 12481 C 1388.87 0.96433 -2.06823 0
M  V30 12482 C 1389.85 1.30663 -0.967783 0
M  V30 12483 O 1391.03 1.42025 -1.2394 0
M  V30 12484 C 1388.16 2.27954 -2.50509 0
M  V30 12485 C 1387.2 2.0906 -3.71748 0
M  V30 12486 S 1388.04 1.373 -5.17599 0
M  V30 12487 C 1389.19 2.70153 -5.64596 0
M  V30 12488 H 1389.43 0.544801 -2.92266 0
M  V30 12489 H 1386.96 0.16534 -1.53512 0
M  V30 12490 H 1388.92 3.03555 -2.76342 0
M  V30 12491 H 1387.58 2.67036 -1.65381 0
M  V30 12492 H 1386.77 3.06333 -4.0022 0
M  V30 12493 H 1386.37 1.41599 -3.46158 0
M  V30 12494 H 1388.66 3.66337 -5.69915 0
M  V30 12495 H 1389.61 2.46322 -6.63876 0
M  V30 12496 H 1390.02 2.76212 -4.92308 0
M  V30 12497 N 1389.41 1.55964 0.226527 0
M  V30 12498 C 1390.64 1.83168 0.972846 0
M  V30 12499 C 1391.06 0.626512 1.7736 0
M  V30 12500 O 1390.42 -0.42468 1.76256 0
M  V30 12501 C 1390.47 3.08315 1.87014 0
M  V30 12502 O 1389.57 2.8666 2.96479 0
M  V30 12503 H 1388.92 0.604041 0.275736 0
M  V30 12504 H 1391.45 2.03172 0.241345 0
M  V30 12505 H 1391.46 3.38288 2.28091 0
M  V30 12506 H 1390.13 3.95663 1.28154 0
M  V30 12507 H 1388.71 2.67907 2.59384 0
M  V30 12508 N 1390.89 -0.493031 1.4969 0
M  V30 12509 C 1392.14 -1.24418 1.59263 0
M  V30 12510 C 1392.46 -1.92908 0.284882 0
M  V30 12511 O 1391.73 -1.83108 -0.696302 0
M  V30 12512 H 1390.31 -0.462223 0.586821 0
M  V30 12513 H 1392.97 -0.570713 1.86357 0
M  V30 12514 H 1392.07 -2.00386 2.39274 0
M  V30 12515 N 1392.37 -1.38898 -0.744656 0
M  V30 12516 C 1393.3 -1.39571 -1.87195 0
M  V30 12517 C 1394.28 -0.260372 -1.68095 0
M  V30 12518 O 1395.47 -0.464776 -1.88556 0
M  V30 12519 C 1392.6 -1.22889 -3.24832 0
M  V30 12520 C 1391.55 -2.33721 -3.58551 0
M  V30 12521 C 1390.88 -2.02136 -4.9502 0
M  V30 12522 C 1392.18 -3.7601 -3.62511 0
M  V30 12523 H 1393.87 -2.33908 -1.86889 0
M  V30 12524 H 1391.42 -1.12591 -0.897739 0
M  V30 12525 H 1393.37 -1.21983 -4.03359 0
M  V30 12526 H 1392.09 -0.250172 -3.2564 0
M  V30 12527 H 1390.75 -2.33828 -2.82348 0
M  V30 12528 H 1390.4 -1.02726 -4.92399 0
M  V30 12529 H 1390.1 -2.76371 -5.18549 0
M  V30 12530 H 1391.62 -2.02864 -5.75915 0
M  V30 12531 H 1393.04 -3.77885 -4.31133 0
M  V30 12532 H 1391.44 -4.49524 -3.97553 0
M  V30 12533 H 1392.51 -4.07682 -2.62533 0
M  V30 12534 N 1393.85 0.973806 -1.23914 0
M  V30 12535 C 1395.26 1.53057 -1.06913 0
M  V30 12536 C 1395.61 1.92842 0.361423 0
M  V30 12537 O 1394.74 1.76716 1.24901 0
M  V30 12538 C 1395.33 2.78137 -1.93457 0
M  V30 12539 C 1393.89 3.3019 -1.80697 0
M  V30 12540 C 1393.04 2.03137 -1.88761 0
M  V30 12541 H 1395.99 0.792767 -1.37481 0
M  V30 12542 H 1396.01 3.5124 -1.46325 0
M  V30 12543 H 1395.52 2.49149 -2.97568 0
M  V30 12544 H 1393.62 3.64043 -0.793951 0
M  V30 12545 H 1393.73 3.99503 -2.64451 0
M  V30 12546 H 1392.1 2.17572 -1.32418 0
M  V30 12547 H 1392.88 1.76522 -2.9444 0
M  V30 12548 N 1395.33 1.05191 1.17357 0
M  V30 12549 C 1396.57 0.760479 1.87246 0
M  V30 12550 C 1396.9 -0.714618 1.81434 0
M  V30 12551 O 1396.17 -1.51636 1.24029 0
M  V30 12552 H 1394.75 0.278317 0.693216 0
M  V30 12553 H 1397.41 1.33106 1.42369 0
M  V30 12554 H 1396.5 1.07542 2.92987 0
M  V30 12555 N 1396.8 -1.33791 0.83293 0
M  V30 12556 C 1398.08 -1.9248 0.347955 0
M  V30 12557 C 1398.46 -1.75978 -1.16597 0
M  V30 12558 O 1397.81 -1.14456 -1.97768 0
M  V30 12559 C 1398.02 -3.3998 0.78831 0
M  V30 12560 C 1399.37 -4.17131 0.7929 0
M  V30 12561 O 1400.39 -3.48607 0.731533 0
M  V30 12562 O 1399.25 -5.39446 0.875223 0
M  V30 12563 H 1396.34 -0.821264 0.0972309 0
M  V30 12564 H 1398.89 -1.42702 0.918387 0
M  V30 12565 H 1397.66 -3.45836 1.83065 0
M  V30 12566 H 1397.29 -3.97126 0.194123 0
M  V30 12567 N 1398.28 -0.588812 -1.46187 0
M  V30 12568 C 1399.7 -0.250962 -1.57615 0
M  V30 12569 C 1399.9 1.2467 -1.58302 0
M  V30 12570 O 1398.95 2.02876 -1.50325 0
M  V30 12571 C 1400.27 -0.905561 -2.8674 0
M  V30 12572 C 1401.82 -0.879721 -3.00383 0
M  V30 12573 C 1402.29 -1.51398 -4.32253 0
M  V30 12574 N 1403.78 -1.4786 -4.38967 0
M  V30 12575 C 1404.52 -1.93868 -5.39632 0
M  V30 12576 N 1404.01 -2.47876 -6.46938 0
M  V30 12577 N 1405.81 -1.84748 -5.30872 0
M  V30 12578 H 1397.96 -1.56148 -1.43985 0
M  V30 12579 H 1400.22 -0.653028 -0.68721 0
M  V30 12580 H 1399.93 -1.95935 -2.92066 0
M  V30 12581 H 1399.8 -0.417456 -3.74883 0
M  V30 12582 H 1402.19 0.165466 -2.94636 0
M  V30 12583 H 1402.27 -1.40591 -2.137 0
M  V30 12584 H 1401.91 -2.55839 -4.38758 0
M  V30 12585 H 1401.84 -0.962965 -5.17721 0
M  V30 12586 H 1404.33 -1.08387 -3.62023 0
M  V30 12587 H 1404.65 -2.80824 -7.1997 0
M  V30 12588 H 1402.99 -2.51905 -6.47741 0
M  V30 12589 H 1406.18 -1.42307 -4.45944 0
M  V30 12590 H 1406.35 -2.20919 -6.09179 0
M  V30 12591 N 1399.76 1.54172 -0.326923 0
M  V30 12592 C 1401.01 2.00233 0.274098 0
M  V30 12593 C 1401.33 1.21665 1.5239 0
M  V30 12594 O 1400.6 0.319359 1.93279 0
M  V30 12595 H 1399.18 0.739687 0.104271 0
M  V30 12596 H 1401.84 1.8977 -0.444244 0
M  V30 12597 H 1400.94 3.07599 0.528154 0
M  V30 12598 N 1401.24 0.0551678 1.57503 0
M  V30 12599 C 1402.17 -0.915714 2.14795 0
M  V30 12600 C 1403.15 -1.32179 1.07065 0
M  V30 12601 O 1404.33 -1.39579 1.35023 0
M  V30 12602 C 1401.46 -2.18916 2.69616 0
M  V30 12603 C 1400.42 -1.92303 3.82366 0
M  V30 12604 C 1399.74 -3.26136 4.23721 0
M  V30 12605 C 1401.04 -1.24146 5.07331 0
M  V30 12606 H 1402.74 -0.438499 2.96171 0
M  V30 12607 H 1400.28 -0.209477 1.42468 0
M  V30 12608 H 1402.24 -2.87239 3.08337 0
M  V30 12609 H 1400.96 -2.6885 1.85437 0
M  V30 12610 H 1399.62 -1.26391 3.44123 0
M  V30 12611 H 1399.27 -3.73879 3.36487 0
M  V30 12612 H 1398.97 -3.09126 4.99715 0
M  V30 12613 H 1400.49 -3.95684 4.65045 0
M  V30 12614 H 1401.91 -1.8251 5.43473 0
M  V30 12615 H 1400.3 -1.17449 5.88494 0
M  V30 12616 H 1401.37 -0.218073 4.84409 0
M  V30 12617 N 1402.72 -1.56081 -0.218252 0
M  V30 12618 C 1404.13 -1.49147 -0.568098 0
M  V30 12619 C 1404.33 -0.750893 -1.86986 0
M  V30 12620 O 1403.39 -0.291904 -2.50807 0
M  V30 12621 C 1404.7 -2.93717 -0.644272 0
M  V30 12622 C 1406.25 -3.04256 -0.734677 0
M  V30 12623 C 1406.72 -4.50191 -0.842167 0
M  V30 12624 N 1408.22 -4.54247 -0.906302 0
M  V30 12625 C 1408.95 -5.64448 -1.00924 0
M  V30 12626 N 1408.45 -6.84394 -1.07592 0
M  V30 12627 N 1410.24 -5.52308 -1.04463 0
M  V30 12628 H 1402.39 -2.02656 0.635935 0
M  V30 12629 H 1404.65 -0.921262 0.223563 0
M  V30 12630 H 1404.36 -3.50861 0.242721 0
M  V30 12631 H 1404.23 -3.45798 -1.50678 0
M  V30 12632 H 1406.62 -2.47174 -1.61211 0
M  V30 12633 H 1406.7 -2.55339 0.153563 0
M  V30 12634 H 1406.35 -5.07891 0.0308214 0
M  V30 12635 H 1406.28 -4.96817 -1.74587 0
M  V30 12636 H 1408.77 -3.67868 -0.864954 0
M  V30 12637 H 1409.08 -7.6413 -1.15433 0
M  V30 12638 H 1407.42 -6.87099 -1.045 0
M  V30 12639 H 1410.62 -4.57528 -0.989218 0
M  V30 12640 H 1410.79 -6.38223 -1.1214 0
M  V30 12641 N 1404.2 0.485086 -1.49949 0
M  V30 12642 C 1405.44 1.23571 -1.5992 0
M  V30 12643 C 1405.76 1.92754 -0.295108 0
M  V30 12644 O 1405.03 1.83474 0.686582 0
M  V30 12645 H 1403.61 0.459104 -0.589264 0
M  V30 12646 H 1406.28 0.560822 -1.86657 0
M  V30 12647 H 1405.37 1.99114 -2.40333 0
M  V30 12648 N 1405.67 1.39291 0.737279 0
M  V30 12649 C 1406.64 1.37607 1.83294 0
M  V30 12650 C 1407.64 0.273594 1.58455 0
M  V30 12651 O 1408.83 0.531375 1.65898 0
M  V30 12652 C 1405.96 1.14642 3.21045 0
M  V30 12653 H 1407.15 2.35102 1.86191 0
M  V30 12654 H 1404.7 1.24822 0.940696 0
M  V30 12655 H 1405.44 0.178202 3.2381 0
M  V30 12656 H 1405.22 1.94479 3.40471 0
M  V30 12657 H 1406.71 1.162 4.01108 0
M  V30 12658 N 1407.15 -0.967221 1.24429 0
M  V30 12659 C 1408.1 -2.06187 1.03709 0
M  V30 12660 C 1409.07 -1.66025 -0.0497665 0
M  V30 12661 O 1410.25 -1.90511 0.104951 0
M  V30 12662 C 1407.39 -3.38952 0.648477 0
M  V30 12663 C 1406.51 -3.92306 1.80886 0
M  V30 12664 C 1405.64 -5.13342 1.36579 0
M  V30 12665 C 1404.68 -5.58893 2.49609 0
M  V30 12666 N 1403.82 -6.71148 2.06165 0
M  V30 12667 H 1408.66 -2.23244 1.97399 0
M  V30 12668 H 1406.19 -1.09415 0.983192 0
M  V30 12669 H 1408.15 -4.15237 0.40419 0
M  V30 12670 H 1406.78 -3.21819 -0.25142 0
M  V30 12671 H 1405.83 -3.12656 2.1668 0
M  V30 12672 H 1407.15 -4.22071 2.65815 0
M  V30 12673 H 1406.3 -5.97003 1.0804 0
M  V30 12674 H 1405.04 -4.85262 0.487051 0
M  V30 12675 H 1404.04 -4.73805 2.78906 0
M  V30 12676 H 1405.27 -5.88987 3.3804 0
M  V30 12677 H 1403.22 -6.44802 1.20691 0
M  V30 12678 H 1403.13 -7.00366 2.84647 0
M  V30 12679 H 1404.4 -7.5825 1.80769 0
M  V30 12680 N 1408.63 -1.05812 -1.16797 0
M  V30 12681 C 1409.88 -0.770398 -1.8684 0
M  V30 12682 C 1410.2 0.704986 -1.8181 0
M  V30 12683 O 1409.47 1.50977 -1.24832 0
M  V30 12684 H 1408.05 -0.281989 -0.691731 0
M  V30 12685 H 1410.71 -1.33859 -1.41661 0
M  V30 12686 H 1409.81 -1.09094 -2.92412 0
M  V30 12687 N 1410.11 1.33347 -0.840014 0
M  V30 12688 C 1411.07 2.27492 -0.279264 0
M  V30 12689 C 1412.07 1.51004 0.552669 0
M  V30 12690 O 1413.26 1.70305 0.366295 0
M  V30 12691 C 1410.39 3.35462 0.606466 0
M  V30 12692 H 1411.59 2.78601 -1.11001 0
M  V30 12693 H 1409.14 1.4377 -0.613187 0
M  V30 12694 H 1409.87 2.89596 1.45961 0
M  V30 12695 H 1409.66 3.92098 0.0111889 0
M  V30 12696 H 1411.15 4.05645 0.992052 0
M  V30 12697 N 1411.59 0.596556 1.45873 0
M  V30 12698 C 1412.83 0.0850976 2.0152 0
M  V30 12699 C 1413.15 -1.28799 1.47208 0
M  V30 12700 O 1414.35 -1.89156 1.94762 0
M  V30 12701 C 1412.81 0.101488 3.59757 0
M  V30 12702 C 1412.42 1.47374 4.23066 0
M  V30 12703 C 1414.16 -0.355303 4.2301 0
M  V30 12704 C 1412.07 1.44711 5.73422 0
M  V30 12705 H 1411 0.0280444 0.753478 0
M  V30 12706 H 1413.65 0.750255 1.67462 0
M  V30 12707 H 1412.03 -0.630108 3.90955 0
M  V30 12708 H 1413.21 2.22617 4.03458 0
M  V30 12709 H 1411.52 1.87171 3.71962 0
M  V30 12710 H 1414.12 -0.394236 5.33245 0
M  V30 12711 H 1414.46 -1.37573 3.92911 0
M  V30 12712 H 1414.99 0.32267 3.96489 0
M  V30 12713 H 1411.73 2.44479 6.08203 0
M  V30 12714 H 1411.25 0.737102 5.95254 0
M  V30 12715 H 1412.93 1.16598 6.36407 0
M  V30 12716 N 1413.06 -1.53996 0.335095 0
M  V30 12717 C 1414.31 -2.00375 -0.263475 0
M  V30 12718 C 1414.63 -1.22471 -1.51742 0
M  V30 12719 O 1413.9 -0.329604 -1.93107 0
M  V30 12720 H 1412.48 -0.740229 -0.100347 0
M  V30 12721 H 1415.14 -1.89531 0.454302 0
M  V30 12722 H 1414.24 -3.07874 -0.511834 0
M  V30 12723 N 1414.54 -0.0635198 -1.57472 0
M  V30 12724 C 1415.95 0.470372 -1.80678 0
M  V30 12725 C 1416.3 1.70158 -0.976771 0
M  V30 12726 O 1415.43 2.15502 -0.196893 0
M  V30 12727 C 1416.02 0.860129 -3.277 0
M  V30 12728 C 1414.58 1.33893 -3.51781 0
M  V30 12729 C 1413.73 0.320078 -2.75447 0
M  V30 12730 H 1416.68 -0.289295 -1.56041 0
M  V30 12731 H 1416.7 1.72216 -3.39296 0
M  V30 12732 H 1416.21 -0.0361525 -3.88083 0
M  V30 12733 H 1414.31 2.25399 -2.96692 0
M  V30 12734 H 1414.43 1.32257 -4.60483 0
M  V30 12735 H 1412.79 0.795601 -2.41955 0
M  V30 12736 H 1413.57 -0.568332 -3.38563 0
M  V30 12737 N 1416.02 1.56195 0.209972 0
M  V30 12738 C 1417.43 1.69811 0.775969 0
M  V30 12739 C 1417.78 0.667543 1.84495 0
M  V30 12740 O 1416.91 -0.179043 2.15658 0
M  V30 12741 C 1417.5 3.07869 1.41429 0
M  V30 12742 C 1416.06 3.233 1.92755 0
M  V30 12743 C 1415.21 2.6575 0.791958 0
M  V30 12744 H 1418.16 1.58693 -0.0148727 0
M  V30 12745 H 1418.18 3.04371 2.28339 0
M  V30 12746 H 1417.69 3.82853 0.63604 0
M  V30 12747 H 1415.79 2.53206 2.73345 0
M  V30 12748 H 1415.91 4.30645 2.09956 0
M  V30 12749 H 1414.27 2.24535 1.20234 0
M  V30 12750 H 1415.05 3.4329 0.0261877 0
M  V30 12751 N 1417.5 -0.477127 1.50204 0
M  V30 12752 C 1418.75 -1.22722 1.60573 0
M  V30 12753 C 1419.07 -1.92595 0.305326 0
M  V30 12754 O 1418.34 -1.83836 -0.676842 0
M  V30 12755 H 1416.92 -0.455973 0.591691 0
M  V30 12756 H 1419.58 -0.550915 1.86952 0
M  V30 12757 H 1418.67 -1.97837 2.41385 0
M  V30 12758 N 1418.98 -1.3968 -0.729882 0
M  V30 12759 C 1420.25 -1.27689 -1.48172 0
M  V30 12760 C 1420.63 0.111239 -2.10807 0
M  V30 12761 O 1419.98 1.12289 -1.99006 0
M  V30 12762 C 1420.19 -2.40505 -2.529 0
M  V30 12763 C 1421.54 -2.80064 -3.19138 0
M  V30 12764 O 1422.56 -2.39992 -2.63215 0
M  V30 12765 O 1421.42 -3.49248 -4.20342 0
M  V30 12766 H 1418.52 -0.500674 -0.658221 0
M  V30 12767 H 1421.06 -1.51566 -0.763272 0
M  V30 12768 H 1419.83 -3.33282 -2.05033 0
M  V30 12769 H 1419.46 -2.1832 -3.32298 0
M  V30 12770 N 1420.45 0.960609 -1.2494 0
M  V30 12771 C 1421.36 2.0902 -1.06527 0
M  V30 12772 C 1422.38 1.74 -0.00406641 0
M  V30 12773 O 1423.56 2.00367 -0.203744 0
M  V30 12774 C 1420.62 3.39971 -0.679736 0
M  V30 12775 C 1419.68 3.88895 -1.81821 0
M  V30 12776 C 1418.92 5.13597 -1.45098 0
M  V30 12777 O 1419.14 5.69362 -0.343954 0
M  V30 12778 O 1418.07 5.57083 -2.27909 0
M  V30 12779 H 1421.9 2.27453 -2.01243 0
M  V30 12780 H 1419.48 1.07429 -1.03824 0
M  V30 12781 H 1421.37 4.18696 -0.47658 0
M  V30 12782 H 1420.04 3.22822 0.238231 0
M  V30 12783 H 1418.95 3.11201 -2.07617 0
M  V30 12784 H 1420.28 4.10533 -2.7152 0
M  V30 12785 N 1421.93 1.0643 1.16234 0
M  V30 12786 C 1423.18 0.780296 1.86429 0
M  V30 12787 C 1423.5 -0.695335 1.82181 0
M  V30 12788 O 1422.77 -1.50312 1.2563 0
M  V30 12789 H 1421.35 0.285654 0.690225 0
M  V30 12790 H 1424.01 1.34609 1.40949 0
M  V30 12791 H 1423.11 1.10644 2.91829 0
M  V30 12792 N 1423.41 -1.329 0.847073 0
M  V30 12793 C 1424.32 -2.32815 0.288878 0
M  V30 12794 C 1425.34 -1.63715 -0.589363 0
M  V30 12795 O 1426.51 -1.9531 -0.491537 0
M  V30 12796 C 1423.58 -3.42778 -0.519988 0
M  V30 12797 C 1422.64 -4.27584 0.383496 0
M  V30 12798 C 1421.87 -5.32296 -0.386862 0
M  V30 12799 O 1422.09 -5.4698 -1.61768 0
M  V30 12800 O 1421.03 -6.01408 0.2434 0
M  V30 12801 H 1424.85 -2.82434 1.11647 0
M  V30 12802 H 1422.44 -1.36388 0.609807 0
M  V30 12803 H 1424.32 -4.09862 -0.979357 0
M  V30 12804 H 1423 -2.95362 -1.3245 0
M  V30 12805 H 1421.9 -3.63338 0.890879 0
M  V30 12806 H 1423.24 -4.78505 1.15299 0
M  V30 12807 N 1424.89 -0.604284 -1.45555 0
M  V30 12808 C 1425.82 0.165286 -2.27601 0
M  V30 12809 C 1426.8 0.876749 -1.36937 0
M  V30 12810 O 1427.98 0.886288 -1.66365 0
M  V30 12811 C 1425.11 1.23897 -3.15226 0
M  V30 12812 C 1424.16 0.631002 -4.21806 0
M  V30 12813 S 1424.99 -0.558612 -5.32578 0
M  V30 12814 C 1426.15 0.515745 -6.23772 0
M  V30 12815 H 1426.38 -0.53081 -2.92523 0
M  V30 12816 H 1423.91 -0.391717 -1.49348 0
M  V30 12817 H 1425.87 1.85358 -3.66268 0
M  V30 12818 H 1424.53 1.90712 -2.49575 0
M  V30 12819 H 1423.72 1.43876 -4.83028 0
M  V30 12820 H 1423.33 0.0915984 -3.73888 0
M  V30 12821 H 1425.62 1.39571 -6.62968 0
M  V30 12822 H 1426.56 -0.0602302 -7.08074 0
M  V30 12823 H 1426.97 0.829588 -5.58371 0
M  V30 12824 N 1426.37 1.53816 -0.343257 0
M  V30 12825 C 1427.33 2.23654 0.501161 0
M  V30 12826 C 1428.33 1.23664 1.02781 0
M  V30 12827 O 1429.52 1.48104 0.917103 0
M  V30 12828 C 1426.65 2.95596 1.69812 0
M  V30 12829 H 1427.84 2.997 -0.109626 0
M  V30 12830 H 1425.4 1.56013 -0.0946011 0
M  V30 12831 H 1426.13 2.23736 2.34761 0
M  V30 12832 H 1425.92 3.68938 1.32768 0
M  V30 12833 H 1427.41 3.48748 2.29706 0
M  V30 12834 N 1427.84 0.0718701 1.57436 0
M  V30 12835 C 1429.09 -0.596799 1.92669 0
M  V30 12836 C 1429.41 -1.70765 0.953876 0
M  V30 12837 O 1430.61 -2.43589 1.19903 0
M  V30 12838 C 1429.07 -1.11291 3.42261 0
M  V30 12839 C 1428.68 -0.0330681 4.47988 0
M  V30 12840 C 1430.42 -1.75564 3.86494 0
M  V30 12841 C 1428.33 -0.56323 5.88712 0
M  V30 12842 H 1427.26 -0.226695 0.719114 0
M  V30 12843 H 1429.91 0.144117 1.82933 0
M  V30 12844 H 1428.29 -1.9068 3.4707 0
M  V30 12845 H 1429.46 0.741501 4.54795 0
M  V30 12846 H 1427.78 0.513438 4.13222 0
M  V30 12847 H 1430.38 -2.16261 4.89014 0
M  V30 12848 H 1430.72 -2.61566 3.23865 0
M  V30 12849 H 1431.25 -1.02798 3.84288 0
M  V30 12850 H 1427.99 0.259632 6.54986 0
M  V30 12851 H 1427.51 -1.30532 5.85424 0
M  V30 12852 H 1429.19 -1.03961 6.38593 0
M  V30 12853 N 1429.32 -1.56304 -0.201686 0
M  V30 12854 C 1430.57 -1.79433 -0.921241 0
M  V30 12855 C 1430.88 -0.643943 -1.84696 0
M  V30 12856 O 1432.09 -0.759359 -2.60665 0
M  V30 12857 C 1430.55 -3.17835 -1.68846 0
M  V30 12858 C 1430.15 -4.40655 -0.807892 0
M  V30 12859 C 1431.9 -3.50277 -2.39805 0
M  V30 12860 C 1429.81 -5.7008 -1.5736 0
M  V30 12861 H 1428.74 -0.669029 -0.34773 0
M  V30 12862 H 1431.39 -1.82667 -0.174657 0
M  V30 12863 H 1429.77 -3.08832 -2.47869 0
M  V30 12864 H 1430.94 -4.60765 -0.0567923 0
M  V30 12865 H 1429.26 -4.15873 -0.209465 0
M  V30 12866 H 1431.85 -4.44207 -2.97631 0
M  V30 12867 H 1432.2 -2.7371 -3.1367 0
M  V30 12868 H 1432.73 -3.60698 -1.67754 0
M  V30 12869 H 1429.47 -6.49595 -0.877855 0
M  V30 12870 H 1428.99 -5.53999 -2.2988 0
M  V30 12871 H 1430.67 -6.10964 -2.12912 0
M  V30 12872 N 1430.8 0.469154 -1.50455 0
M  V30 12873 C 1432.03 1.24899 -1.65575 0
M  V30 12874 C 1432.45 1.85009 -0.339581 0
M  V30 12875 O 1431.81 1.67376 0.696774 0
M  V30 12876 C 1431.86 2.33205 -2.75041 0
M  V30 12877 O 1430.96 3.37898 -2.36429 0
M  V30 12878 H 1430.3 0.367362 -0.553119 0
M  V30 12879 H 1432.83 0.558083 -1.96842 0
M  V30 12880 H 1432.84 2.78487 -2.98176 0
M  V30 12881 H 1431.52 1.88826 -3.70564 0
M  V30 12882 H 1430.09 2.98314 -2.23748 0
M  V30 12883 N 1432.28 1.40065 0.722464 0
M  V30 12884 C 1433.21 1.35695 1.84715 0
M  V30 12885 C 1434.22 0.263522 1.60653 0
M  V30 12886 O 1435.41 0.523382 1.70655 0
M  V30 12887 C 1432.51 1.08722 3.20987 0
M  V30 12888 C 1431.69 2.29586 3.72302 0
M  V30 12889 C 1430.74 1.98879 4.87169 0
M  V30 12890 O 1429.77 2.71681 5.00178 0
M  V30 12891 N 1430.97 0.962554 5.72464 0
M  V30 12892 H 1433.74 2.32621 1.88964 0
M  V30 12893 H 1431.3 1.3433 0.903723 0
M  V30 12894 H 1433.29 0.861772 3.95418 0
M  V30 12895 H 1431.86 0.204869 3.11928 0
M  V30 12896 H 1431.08 2.68004 2.8908 0
M  V30 12897 H 1432.37 3.10176 4.03322 0
M  V30 12898 H 1431.77 0.359452 5.64557 0
M  V30 12899 H 1430.32 0.797003 6.46909 0
M  V30 12900 N 1433.76 -0.95397 1.25448 0
M  V30 12901 C 1434.7 -2.05075 1.0589 0
M  V30 12902 C 1435.67 -1.66069 -0.0321545 0
M  V30 12903 O 1436.86 -1.90389 0.125152 0
M  V30 12904 C 1434 -3.38246 0.684391 0
M  V30 12905 C 1433.11 -3.90366 1.85037 0
M  V30 12906 C 1432.25 -5.11864 1.42016 0
M  V30 12907 C 1431.29 -5.56214 2.55523 0
M  V30 12908 N 1430.42 -6.68924 2.13272 0
M  V30 12909 H 1435.26 -2.21137 1.99755 0
M  V30 12910 H 1432.8 -1.08366 0.994742 0
M  V30 12911 H 1434.76 -4.14785 0.448209 0
M  V30 12912 H 1433.39 -3.22068 -0.217273 0
M  V30 12913 H 1432.44 -3.1034 2.19984 0
M  V30 12914 H 1433.75 -4.19228 2.70276 0
M  V30 12915 H 1432.91 -5.95823 1.14366 0
M  V30 12916 H 1431.65 -4.84718 0.538492 0
M  V30 12917 H 1430.65 -4.7082 2.83916 0
M  V30 12918 H 1431.88 -5.85368 3.44268 0
M  V30 12919 H 1429.82 -6.43486 1.27523 0
M  V30 12920 H 1429.74 -6.97307 2.92059 0
M  V30 12921 H 1431.01 -7.5629 1.88801 0
M  V30 12922 N 1435.24 -1.07045 -1.15668 0
M  V30 12923 C 1436.48 -0.790172 -1.86013 0
M  V30 12924 C 1436.8 0.685663 -1.82548 0
M  V30 12925 O 1436.07 1.49644 -1.26426 0
M  V30 12926 H 1434.65 -0.28931 -0.688701 0
M  V30 12927 H 1437.32 -1.35354 -1.40233 0
M  V30 12928 H 1436.41 -1.1219 -2.91239 0
M  V30 12929 N 1436.71 1.32449 -0.85411 0
M  V30 12930 C 1437.94 2.01463 -0.471188 0
M  V30 12931 C 1438.36 1.64195 0.931954 0
M  V30 12932 O 1437.71 0.862994 1.60806 0
M  V30 12933 C 1437.76 3.56486 -0.600022 0
M  V30 12934 O 1437.49 3.92414 -1.94789 0
M  V30 12935 C 1438.99 4.42773 -0.216036 0
M  V30 12936 H 1436.21 0.644914 -0.185275 0
M  V30 12937 H 1438.75 1.6904 -1.1509 0
M  V30 12938 H 1436.91 3.87387 0.0319488 0
M  V30 12939 H 1437.32 4.87133 -1.94427 0
M  V30 12940 H 1438.79 5.50843 -0.357186 0
M  V30 12941 H 1439.27 4.31025 0.843468 0
M  V30 12942 H 1439.88 4.1726 -0.823058 0
M  V30 12943 N 1438.19 0.611994 1.45232 0
M  V30 12944 C 1439.6 0.193464 1.85695 0
M  V30 12945 C 1439.95 -1.25069 1.5117 0
M  V30 12946 O 1439.08 -1.94894 0.940497 0
M  V30 12947 C 1439.67 0.344334 3.37046 0
M  V30 12948 C 1438.23 -0.0195378 3.76395 0
M  V30 12949 C 1437.38 0.666714 2.69166 0
M  V30 12950 H 1440.33 0.818395 1.35971 0
M  V30 12951 H 1440.35 -0.422209 3.7815 0
M  V30 12952 H 1439.86 1.3955 3.62143 0
M  V30 12953 H 1437.96 -1.06971 3.56915 0
M  V30 12954 H 1438.08 0.377184 4.77613 0
M  V30 12955 H 1436.44 0.103912 2.54488 0
M  V30 12956 H 1437.22 1.7201 2.97099 0
M  V30 12957 N 1439.67 -1.53632 0.351409 0
M  V30 12958 C 1440.92 -2.00643 -0.242208 0
M  V30 12959 C 1441.24 -1.24074 -1.50435 0
M  V30 12960 O 1440.51 -0.350067 -1.92747 0
M  V30 12961 H 1439.09 -0.741252 -0.0924904 0
M  V30 12962 H 1441.75 -1.89039 0.474379 0
M  V30 12963 H 1440.85 -3.084 -0.479151 0
M  V30 12964 N 1441.15 -0.0802183 -1.57396 0
M  V30 12965 C 1442.06 0.898597 -2.16708 0
M  V30 12966 C 1443.07 1.321 -1.1325 0
M  V30 12967 O 1444.25 1.39197 -1.45554 0
M  V30 12968 C 1441.31 2.14501 -2.72379 0
M  V30 12969 C 1440.38 1.77822 -3.9074 0
M  V30 12970 C 1439.61 2.96521 -4.43747 0
M  V30 12971 O 1439.83 4.10797 -3.9573 0
M  V30 12972 O 1438.77 2.75849 -5.34968 0
M  V30 12973 H 1442.59 0.424027 -3.00725 0
M  V30 12974 H 1440.18 0.14332 -1.48711 0
M  V30 12975 H 1442.06 2.87575 -3.08024 0
M  V30 12976 H 1440.73 2.61039 -1.91416 0
M  V30 12977 H 1439.64 1.01974 -3.59934 0
M  V30 12978 H 1440.97 1.36059 -4.73021 0
M  V30 12979 N 1442.63 1.56409 0.193394 0
M  V30 12980 C 1444.04 1.70624 0.757915 0
M  V30 12981 C 1444.39 0.687074 1.83776 0
M  V30 12982 O 1443.51 -0.15616 2.15836 0
M  V30 12983 C 1444.11 3.09352 1.38156 0
M  V30 12984 C 1442.67 3.25326 1.89315 0
M  V30 12985 C 1441.81 2.66576 0.763727 0
M  V30 12986 H 1444.76 1.58668 -0.0317034 0
M  V30 12987 H 1444.79 3.06776 2.25098 0
M  V30 12988 H 1444.3 3.83506 0.595398 0
M  V30 12989 H 1442.4 2.5609 2.70644 0
M  V30 12990 H 1442.51 4.32848 2.05376 0
M  V30 12991 H 1440.88 2.25797 1.17846 0
M  V30 12992 H 1441.66 3.43298 -0.0102243 0
M  V30 12993 N 1444.1 -0.461169 1.50702 0
M  V30 12994 C 1445.35 -1.21012 1.61866 0
M  V30 12995 C 1445.67 -1.9226 0.325736 0
M  V30 12996 O 1444.94 -1.84543 -0.657306 0
M  V30 12997 H 1443.52 -0.449671 0.596494 0
M  V30 12998 H 1446.18 -0.531056 1.87525 0
M  V30 12999 H 1445.28 -1.95266 2.4347 0
M  V30 13000 N 1445.58 -1.40446 -0.715026 0
M  V30 13001 C 1446.99 -1.34564 -1.29419 0
M  V30 13002 C 1447.34 -0.0193984 -1.9619 0
M  V30 13003 O 1446.47 0.882616 -1.97582 0
M  V30 13004 C 1447.06 -2.43721 -2.35342 0
M  V30 13005 C 1445.62 -2.41297 -2.88881 0
M  V30 13006 C 1444.77 -2.2457 -1.62676 0
M  V30 13007 H 1447.72 -1.50244 -0.511116 0
M  V30 13008 H 1447.74 -2.1166 -3.16197 0
M  V30 13009 H 1447.25 -3.40234 -1.86715 0
M  V30 13010 H 1445.35 -1.48483 -3.41736 0
M  V30 13011 H 1445.47 -3.36903 -3.40637 0
M  V30 13012 H 1443.83 -1.72096 -1.87763 0
M  V30 13013 H 1444.61 -3.23082 -1.16074 0
M  V30 13014 N 1447.06 0.947303 -1.25952 0
M  V30 13015 C 1448.47 1.50755 -1.10136 0
M  V30 13016 C 1448.82 1.93566 0.320437 0
M  V30 13017 O 1447.95 1.79326 1.21125 0
M  V30 13018 C 1448.54 2.7397 -1.99313 0
M  V30 13019 C 1447.1 3.26283 -1.8766 0
M  V30 13020 C 1446.25 1.99088 -1.93027 0
M  V30 13021 H 1449.2 0.763427 -1.39131 0
M  V30 13022 H 1449.22 3.48057 -1.53742 0
M  V30 13023 H 1448.73 2.42781 -3.02785 0
M  V30 13024 H 1446.83 3.62277 -0.870992 0
M  V30 13025 H 1446.95 3.93803 -2.72866 0
M  V30 13026 H 1445.31 2.14714 -1.37003 0
M  V30 13027 H 1446.09 1.70237 -2.98118 0
M  V30 13028 N 1448.54 1.07657 1.15099 0
M  V30 13029 C 1449.79 0.800025 1.85591 0
M  V30 13030 C 1450.11 -0.675973 1.82909 0
M  V30 13031 O 1449.38 -1.48971 1.27218 0
M  V30 13032 H 1447.96 0.292958 0.687157 0
M  V30 13033 H 1450.62 1.36096 1.39513 0
M  V30 13034 H 1449.72 1.13733 2.90639 0
M  V30 13035 N 1450.02 -1.31994 0.861122 0
M  V30 13036 C 1451.29 -1.91699 0.388705 0
M  V30 13037 C 1451.67 -1.78412 -1.12838 0
M  V30 13038 O 1451.02 -1.18625 -1.95296 0
M  V30 13039 C 1451.23 -3.38232 0.860248 0
M  V30 13040 C 1452.58 -4.15355 0.881201 0
M  V30 13041 O 1453.6 -3.46977 0.805313 0
M  V30 13042 O 1452.46 -5.37468 0.98945 0
M  V30 13043 H 1449.56 -0.819017 0.114629 0
M  V30 13044 H 1452.1 -1.40721 0.94845 0
M  V30 13045 H 1450.87 -3.41876 1.9036 0
M  V30 13046 H 1450.5 -3.96625 0.278316 0
M  V30 13047 N 1451.49 -0.619688 -1.44906 0
M  V30 13048 C 1452.77 -0.0510703 -1.95533 0
M  V30 13049 C 1453.15 1.42013 -1.56191 0
M  V30 13050 O 1452.5 2.12879 -0.830356 0
M  V30 13051 C 1452.71 -0.261896 -3.48016 0
M  V30 13052 C 1454.06 -0.149057 -4.24338 0
M  V30 13053 O 1455.08 -0.192655 -3.55679 0
M  V30 13054 O 1453.94 -0.0443345 -5.46482 0
M  V30 13055 H 1451.03 0.0288461 -0.826497 0
M  V30 13056 H 1453.58 -0.690594 -1.55013 0
M  V30 13057 H 1452.35 -1.28319 -3.69662 0
M  V30 13058 H 1451.98 0.412314 -3.95456 0
M  V30 13059 N 1452.97 1.53444 -0.359552 0
M  V30 13060 C 1454.22 2.00769 0.231564 0
M  V30 13061 C 1454.54 1.2487 1.49775 0
M  V30 13062 O 1453.81 0.360284 1.92558 0
M  V30 13063 H 1452.39 0.741732 0.0885581 0
M  V30 13064 H 1455.05 1.88785 -0.484397 0
M  V30 13065 H 1454.15 3.0865 0.462789 0
M  V30 13066 N 1454.45 0.0885642 1.57351 0
M  V30 13067 C 1455.7 -0.576675 1.94115 0
M  V30 13068 C 1456.03 -1.68595 0.969842 0
M  V30 13069 O 1455.28 -1.95697 -0.0116998 0
M  V30 13070 C 1455.58 -1.17764 3.37441 0
M  V30 13071 C 1455.25 -0.192813 4.50488 0
M  V30 13072 C 1453.91 0.0780722 4.81137 0
M  V30 13073 C 1456.26 0.479997 5.18985 0
M  V30 13074 C 1453.59 1.02857 5.77613 0
M  V30 13075 C 1455.94 1.41892 6.16481 0
M  V30 13076 C 1454.6 1.69811 6.45539 0
M  V30 13077 H 1453.87 -0.21102 0.710318 0
M  V30 13078 H 1456.52 0.163009 1.90805 0
M  V30 13079 H 1454.83 -1.99343 3.37298 0
M  V30 13080 H 1456.52 -1.69994 3.63185 0
M  V30 13081 H 1453.11 -0.41413 4.26595 0
M  V30 13082 H 1457.3 0.283854 4.95488 0
M  V30 13083 H 1452.55 1.25194 5.98445 0
M  V30 13084 H 1456.73 1.94612 6.68655 0
M  V30 13085 H 1454.35 2.43621 7.20106 0
M  V30 13086 N 1455.93 -1.56509 -0.185096 0
M  V30 13087 C 1457.34 -1.71024 -0.748856 0
M  V30 13088 C 1457.69 -0.69681 -1.83409 0
M  V30 13089 O 1456.82 0.144711 -2.15916 0
M  V30 13090 C 1457.41 -3.1008 -1.36513 0
M  V30 13091 C 1455.97 -3.26325 -1.87587 0
M  V30 13092 C 1455.12 -2.66977 -0.749579 0
M  V30 13093 H 1458.07 -1.58649 0.0401175 0
M  V30 13094 H 1458.09 -3.07965 -2.23468 0
M  V30 13095 H 1457.6 -3.83816 -0.575051 0
M  V30 13096 H 1455.7 -2.57522 -2.69283 0
M  V30 13097 H 1455.81 -4.33931 -2.03078 0
M  V30 13098 H 1454.18 -2.26419 -1.16647 0
M  V30 13099 H 1454.96 -3.43288 0.0284301 0
M  V30 13100 N 1457.41 0.45317 -1.50944 0
M  V30 13101 C 1458.65 1.20151 -1.62506 0
M  V30 13102 C 1458.98 1.92085 -0.335927 0
M  V30 13103 O 1458.25 1.84889 0.64751 0
M  V30 13104 H 1456.83 0.446502 -0.59887 0
M  V30 13105 H 1459.49 0.521103 -1.87804 0
M  V30 13106 H 1458.58 1.93972 -2.44502 0
M  V30 13107 N 1458.88 1.40823 0.707568 0
M  V30 13108 C 1459.79 1.44058 1.85161 0
M  V30 13109 C 1460.81 0.332357 1.70796 0
M  V30 13110 O 1461.99 0.578205 1.92922 0
M  V30 13111 C 1459.05 1.3091 3.21035 0
M  V30 13112 C 1458.11 2.51944 3.47595 0
M  V30 13113 C 1457.35 2.39414 4.76987 0
M  V30 13114 O 1457.57 1.41224 5.52641 0
M  V30 13115 O 1456.5 3.28944 5.04063 0
M  V30 13116 H 1460.33 2.40551 1.85388 0
M  V30 13117 H 1457.91 1.22232 0.859052 0
M  V30 13118 H 1459.8 1.25816 4.02179 0
M  V30 13119 H 1458.47 0.375263 3.21517 0
M  V30 13120 H 1457.38 2.62615 2.66428 0
M  V30 13121 H 1458.71 3.44115 3.51917 0
M  V30 13122 N 1460.36 -0.94061 1.26453 0
M  V30 13123 C 1461.78 -1.21424 1.03578 0
M  V30 13124 C 1461.98 -2.00081 -0.238726 0
M  V30 13125 O 1461.03 -2.3404 -0.947709 0
M  V30 13126 C 1462.35 -1.97496 2.26751 0
M  V30 13127 C 1463.9 -2.10485 2.31657 0
M  V30 13128 C 1464.37 -2.89959 3.54525 0
M  V30 13129 N 1465.86 -2.97533 3.55005 0
M  V30 13130 C 1466.6 -3.59456 4.46742 0
M  V30 13131 N 1466.09 -4.22876 5.48769 0
M  V30 13132 N 1467.89 -3.56734 4.34393 0
M  V30 13133 H 1460.04 -0.414788 2.08311 0
M  V30 13134 H 1462.3 -0.246047 0.915513 0
M  V30 13135 H 1462.01 -1.47109 3.19456 0
M  V30 13136 H 1461.88 -2.98159 2.31043 0
M  V30 13137 H 1464.27 -2.60064 1.39466 0
M  V30 13138 H 1464.35 -1.09082 2.31376 0
M  V30 13139 H 1463.99 -2.41067 4.47045 0
M  V30 13140 H 1463.92 -3.91619 3.52054 0
M  V30 13141 H 1466.41 -2.52446 2.81211 0
M  V30 13142 H 1466.73 -4.68026 6.14956 0
M  V30 13143 H 1465.07 -4.21461 5.52626 0
M  V30 13144 H 1468.26 -3.06381 3.53904 0
M  V30 13145 H 1468.43 -4.04706 5.0608 0
M  V30 13146 N 1461.84 -1.08266 -1.14527 0
M  V30 13147 C 1463.09 -0.809856 -1.85164 0
M  V30 13148 C 1463.41 0.666263 -1.83265 0
M  V30 13149 O 1462.68 1.48295 -1.28006 0
M  V30 13150 H 1461.26 -0.296598 -0.685594 0
M  V30 13151 H 1463.92 -1.36834 -1.38789 0
M  V30 13152 H 1463.02 -1.15272 -2.90032 0
M  V30 13153 N 1463.32 1.31536 -0.86811 0
M  V30 13154 C 1464.6 1.9149 -0.398866 0
M  V30 13155 C 1464.98 1.79008 1.1189 0
M  V30 13156 O 1464.32 1.19659 1.94664 0
M  V30 13157 C 1464.53 3.37771 -0.878173 0
M  V30 13158 C 1465.88 4.14882 -0.903216 0
M  V30 13159 O 1466.91 3.46545 -0.823703 0
M  V30 13160 O 1465.77 5.36936 -1.01794 0
M  V30 13161 H 1462.86 0.818398 -0.118971 0
M  V30 13162 H 1465.41 1.40216 -0.955899 0
M  V30 13163 H 1464.18 3.40861 -1.9217 0
M  V30 13164 H 1463.8 3.96472 -0.299346 0
M  V30 13165 N 1464.8 0.627364 1.44575 0
M  V30 13166 C 1465.74 -0.0798044 2.30662 0
M  V30 13167 C 1466.71 -0.840528 1.43263 0
M  V30 13168 O 1467.9 -0.82232 1.7217 0
M  V30 13169 C 1465.04 -1.05796 3.28483 0
M  V30 13170 C 1464.15 -0.296052 4.30984 0
M  V30 13171 C 1463.29 -1.26569 5.15901 0
M  V30 13172 C 1462.33 -0.492722 6.10114 0
M  V30 13173 N 1461.46 -1.41263 6.87742 0
M  V30 13174 H 1466.3 0.660254 2.90594 0
M  V30 13175 H 1463.84 0.337382 1.43179 0
M  V30 13176 H 1465.8 -1.63842 3.83682 0
M  V30 13177 H 1464.43 -1.7652 2.7026 0
M  V30 13178 H 1463.48 0.400259 3.78288 0
M  V30 13179 H 1464.79 0.306149 4.9786 0
M  V30 13180 H 1463.95 -1.9176 5.75598 0
M  V30 13181 H 1462.69 -1.90182 4.4909 0
M  V30 13182 H 1461.69 0.172696 5.49529 0
M  V30 13183 H 1462.92 0.138634 6.78958 0
M  V30 13184 H 1460.86 -2.03604 6.23604 0
M  V30 13185 H 1460.78 -0.864362 7.51042 0
M  V30 13186 H 1462.05 -2.0535 7.51965 0
M  V30 13187 N 1466.28 -1.53251 0.367684 0
M  V30 13188 C 1467.52 -2.00889 -0.220914 0
M  V30 13189 C 1467.84 -1.25662 -1.4911 0
M  V30 13190 O 1467.11 -0.370491 -1.92365 0
M  V30 13191 H 1465.69 -0.742191 -0.0846233 0
M  V30 13192 H 1468.36 -1.88525 0.494402 0
M  V30 13193 H 1467.45 -3.08891 -0.446414 0
M  V30 13194 N 1467.75 -0.0969077 -1.57302 0
M  V30 13195 C 1468.98 0.574705 -1.98758 0
M  V30 13196 C 1469.4 1.61612 -0.976067 0
M  V30 13197 O 1468.75 1.82468 0.0340803 0
M  V30 13198 C 1468.8 1.22078 -3.40263 0
M  V30 13199 O 1468.53 0.221022 -4.37542 0
M  V30 13200 C 1470.03 1.97783 -3.96732 0
M  V30 13201 H 1467.25 0.153934 -0.653104 0
M  V30 13202 H 1469.79 -0.17673 -2.03735 0
M  V30 13203 H 1467.95 1.92314 -3.36295 0
M  V30 13204 H 1468.36 0.687583 -5.19974 0
M  V30 13205 H 1469.83 2.38346 -4.97891 0
M  V30 13206 H 1470.31 2.8444 -3.3465 0
M  V30 13207 H 1470.92 1.3236 -4.04179 0
M  V30 13208 N 1469.23 1.56605 0.176793 0
M  V30 13209 C 1470.64 1.71418 0.739775 0
M  V30 13210 C 1470.99 0.706527 1.83037 0
M  V30 13211 O 1470.12 -0.133259 2.15989 0
M  V30 13212 C 1470.71 3.10799 1.34867 0
M  V30 13213 C 1469.27 3.27315 1.85854 0
M  V30 13214 C 1468.42 2.67371 0.73541 0
M  V30 13215 H 1471.37 1.58626 -0.0485305 0
M  V30 13216 H 1471.39 3.09146 2.21831 0
M  V30 13217 H 1470.9 3.84116 0.554688 0
M  V30 13218 H 1469 2.58947 2.67913 0
M  V30 13219 H 1469.12 4.35002 2.00774 0
M  V30 13220 H 1467.48 2.27035 1.15444 0
M  V30 13221 H 1468.26 3.43268 -0.0466351 0
M  V30 13222 N 1470.71 -0.445159 1.51182 0
M  V30 13223 C 1471.96 -1.19288 1.6314 0
M  V30 13224 C 1472.28 -1.91904 0.346109 0
M  V30 13225 O 1471.55 -1.8523 -0.637695 0
M  V30 13226 H 1470.13 -0.443319 0.601229 0
M  V30 13227 H 1472.79 -0.511136 1.88078 0
M  V30 13228 H 1471.89 -1.92672 2.45528 0
M  V30 13229 N 1472.19 -1.41197 -0.700089 0
M  V30 13230 C 1473.12 -1.37101 -1.82424 0
M  V30 13231 C 1474.1 -0.238956 -1.60835 0
M  V30 13232 O 1475.28 -0.425136 -1.83643 0
M  V30 13233 C 1472.41 -1.13748 -3.19028 0
M  V30 13234 C 1471.46 -2.29612 -3.59417 0
M  V30 13235 S 1472.29 -3.92074 -3.64744 0
M  V30 13236 C 1473.44 -3.71015 -5.04082 0
M  V30 13237 H 1473.68 -2.32234 -1.8562 0
M  V30 13238 H 1471.21 -1.27667 -0.868367 0
M  V30 13239 H 1473.17 -1.0096 -3.97891 0
M  V30 13240 H 1471.83 -0.202435 -3.13447 0
M  V30 13241 H 1471.02 -2.08954 -4.58644 0
M  V30 13242 H 1470.62 -2.38783 -2.87851 0
M  V30 13243 H 1472.92 -3.30441 -5.91452 0
M  V30 13244 H 1473.86 -4.69828 -5.29781 0
M  V30 13245 H 1474.27 -3.04382 -4.75407 0
M  V30 13246 N 1473.67 0.933891 -1.2695 0
M  V30 13247 C 1474.6 2.03768 -1.04934 0
M  V30 13248 C 1475.61 1.62798 -0.00740752 0
M  V30 13249 O 1476.8 1.76765 -0.248289 0
M  V30 13250 C 1473.9 3.34097 -0.568515 0
M  V30 13251 C 1473.07 4.03794 -1.68133 0
M  V30 13252 C 1472.13 5.12397 -1.19731 0
M  V30 13253 O 1471.16 5.36701 -1.89579 0
M  V30 13254 N 1472.36 5.80479 -0.0496327 0
M  V30 13255 H 1475.12 2.23219 -1.99984 0
M  V30 13256 H 1472.69 1.10386 -1.18433 0
M  V30 13257 H 1474.68 4.04053 -0.228736 0
M  V30 13258 H 1473.25 3.11265 0.288587 0
M  V30 13259 H 1472.47 3.27655 -2.1917 0
M  V30 13260 H 1473.76 4.4711 -2.42837 0
M  V30 13261 H 1473.15 5.63179 0.533509 0
M  V30 13262 H 1471.71 6.5139 0.231014 0
M  V30 13263 N 1475.14 1.08871 1.13951 0
M  V30 13264 C 1476.39 0.819665 1.84732 0
M  V30 13265 C 1476.71 -0.656535 1.83615 0
M  V30 13266 O 1475.98 -1.47614 1.28791 0
M  V30 13267 H 1474.56 0.30023 0.684011 0
M  V30 13268 H 1477.22 1.37568 1.38062 0
M  V30 13269 H 1476.32 1.16809 2.89417 0
M  V30 13270 N 1476.62 -1.31073 0.875073 0
M  V30 13271 C 1478.04 -1.49162 0.567697 0
M  V30 13272 C 1478.24 -1.80435 -0.896969 0
M  V30 13273 O 1477.29 -1.88604 -1.67883 0
M  V30 13274 C 1478.61 -2.6219 1.47231 0
M  V30 13275 C 1480.15 -2.76072 1.47489 0
M  V30 13276 C 1480.63 -3.92202 2.36519 0
M  V30 13277 N 1482.12 -3.99497 2.34428 0
M  V30 13278 C 1482.86 -4.88639 3.00033 0
M  V30 13279 N 1482.35 -5.82647 3.74826 0
M  V30 13280 N 1484.14 -4.81926 2.89315 0
M  V30 13281 H 1476.3 -1.09045 1.82272 0
M  V30 13282 H 1478.56 -0.539291 0.77966 0
M  V30 13283 H 1478.26 -2.45872 2.51475 0
M  V30 13284 H 1478.14 -3.58446 1.17459 0
M  V30 13285 H 1480.53 -2.91801 0.440008 0
M  V30 13286 H 1480.61 -1.80468 1.81287 0
M  V30 13287 H 1480.25 -3.77231 3.40087 0
M  V30 13288 H 1480.18 -4.87125 2.00043 0
M  V30 13289 H 1482.67 -3.32241 1.80067 0
M  V30 13290 H 1482.98 -6.47406 4.22001 0
M  V30 13291 H 1481.33 -5.82609 3.78934 0
M  V30 13292 H 1484.52 -4.07462 2.30418 0
M  V30 13293 H 1484.69 -5.51192 3.40722 0
M  V30 13294 N 1478.1 -0.635022 -1.4424 0
M  V30 13295 C 1479.52 -0.300978 -1.56736 0
M  V30 13296 C 1479.72 1.19571 -1.62188 0
M  V30 13297 O 1478.77 1.97991 -1.56703 0
M  V30 13298 C 1480.09 -0.996327 -2.83714 0
M  V30 13299 C 1481.63 -0.97484 -2.97432 0
M  V30 13300 C 1482.11 -1.65073 -4.27218 0
M  V30 13301 N 1483.6 -1.6175 -4.3404 0
M  V30 13302 C 1484.33 -2.10938 -5.33191 0
M  V30 13303 N 1483.83 -2.68333 -6.38725 0
M  V30 13304 N 1485.62 -2.01544 -5.24725 0
M  V30 13305 H 1477.77 -1.60649 -1.38945 0
M  V30 13306 H 1480.04 -0.674561 -0.666087 0
M  V30 13307 H 1479.74 -2.05128 -2.85684 0
M  V30 13308 H 1479.62 -0.536511 -3.73365 0
M  V30 13309 H 1482 0.071646 -2.95013 0
M  V30 13310 H 1482.09 -1.47318 -2.0912 0
M  V30 13311 H 1481.73 -2.69669 -4.30397 0
M  V30 13312 H 1481.66 -1.12719 -5.14395 0
M  V30 13313 H 1484.15 -1.1985 -3.58392 0
M  V30 13314 H 1484.46 -3.03588 -7.10672 0
M  V30 13315 H 1482.81 -2.72385 -6.39399 0
M  V30 13316 H 1486 -1.56423 -4.41191 0
M  V30 13317 H 1486.17 -2.40187 -6.01842 0
M  V30 13318 N 1479.58 1.53054 -0.375806 0
M  V30 13319 C 1480.83 2.01003 0.210257 0
M  V30 13320 C 1481.15 1.26451 1.48442 0
M  V30 13321 O 1480.42 0.380687 1.92166 0
M  V30 13322 H 1479 0.74263 0.0806861 0
M  V30 13323 H 1481.66 1.8826 -0.504393 0
M  V30 13324 H 1480.76 3.09123 0.430027 0
M  V30 13325 N 1481.06 0.105248 1.57248 0
M  V30 13326 C 1481.97 -0.864007 2.1811 0
M  V30 13327 C 1482.98 -1.30282 1.15337 0
M  V30 13328 O 1484.16 -1.36864 1.4775 0
M  V30 13329 C 1481.22 -2.1014 2.75757 0
M  V30 13330 C 1480.28 -1.71583 3.9352 0
M  V30 13331 C 1479.52 -2.89424 4.48408 0
M  V30 13332 O 1479.74 -4.04449 4.02215 0
M  V30 13333 O 1478.67 -2.67303 5.39289 0
M  V30 13334 H 1482.5 -0.376131 3.01362 0
M  V30 13335 H 1480.09 -0.119643 1.4892 0
M  V30 13336 H 1481.97 -2.82638 3.1256 0
M  V30 13337 H 1480.64 -2.57961 1.95545 0
M  V30 13338 H 1479.55 -0.962347 3.6151 0
M  V30 13339 H 1480.88 -1.28517 4.75126 0
M  V30 13340 N 1482.53 -1.56697 -0.168486 0
M  V30 13341 C 1483.95 -1.71808 -0.730674 0
M  V30 13342 C 1484.3 -0.716224 -1.8266 0
M  V30 13343 O 1483.42 0.121803 -2.16057 0
M  V30 13344 C 1484.02 -3.1151 -1.33217 0
M  V30 13345 C 1482.58 -3.28297 -1.84115 0
M  V30 13346 C 1481.72 -2.67757 -0.72122 0
M  V30 13347 H 1484.67 -1.58598 0.0569421 0
M  V30 13348 H 1484.69 -3.10318 -2.20189 0
M  V30 13349 H 1484.21 -3.84404 -0.53431 0
M  V30 13350 H 1482.31 -2.60364 -2.66536 0
M  V30 13351 H 1482.42 -4.3606 -1.98464 0
M  V30 13352 H 1480.78 -2.27644 -1.14239 0
M  V30 13353 H 1481.57 -3.43239 0.0648388 0
M  V30 13354 N 1484.01 0.437135 -1.51416 0
M  V30 13355 C 1485.26 1.18421 -1.63771 0
M  V30 13356 C 1485.58 1.91718 -0.356282 0
M  V30 13357 O 1484.85 1.85566 0.627863 0
M  V30 13358 H 1483.43 0.440125 -0.603572 0
M  V30 13359 H 1486.09 0.501155 -1.88347 0
M  V30 13360 H 1485.19 1.91367 -2.46546 0
M  V30 13361 N 1485.49 1.41566 0.692592 0
M  V30 13362 C 1486.91 1.24101 1.00355 0
M  V30 13363 C 1487.11 0.132485 2.01064 0
M  V30 13364 O 1486.16 -0.502142 2.47457 0
M  V30 13365 C 1487.48 2.59142 1.52532 0
M  V30 13366 C 1489.02 2.66348 1.64401 0
M  V30 13367 C 1489.5 4.01713 2.19978 0
M  V30 13368 N 1490.99 4.03575 2.27335 0
M  V30 13369 C 1491.72 5.05118 2.71373 0
M  V30 13370 N 1491.22 6.1705 3.14994 0
M  V30 13371 N 1493.01 4.92479 2.70963 0
M  V30 13372 H 1485.16 2.12385 0.0254859 0
M  V30 13373 H 1487.43 0.945118 0.0738684 0
M  V30 13374 H 1487.13 3.41026 0.85989 0
M  V30 13375 H 1487.01 2.81833 2.50699 0
M  V30 13376 H 1489.39 1.84821 2.30055 0
M  V30 13377 H 1489.48 2.47464 0.647717 0
M  V30 13378 H 1489.12 4.8369 1.54939 0
M  V30 13379 H 1489.05 4.1794 3.20365 0
M  V30 13380 H 1491.54 3.2276 1.96556 0
M  V30 13381 H 1491.85 6.90399 3.47231 0
M  V30 13382 H 1490.2 6.20582 3.12895 0
M  V30 13383 H 1493.39 4.04117 2.36236 0
M  V30 13384 H 1493.56 5.71752 3.04965 0
M  V30 13385 N 1486.97 -0.927146 1.27443 0
M  V30 13386 C 1488.2 -1.70648 1.1646 0
M  V30 13387 C 1488.61 -1.871 -0.28114 0
M  V30 13388 O 1487.95 -1.38813 -1.20319 0
M  V30 13389 C 1488.01 -3.12542 1.77646 0
M  V30 13390 C 1487.68 -3.19425 3.26828 0
M  V30 13391 C 1488.67 -3.01633 4.23454 0
M  V30 13392 C 1486.36 -3.42366 3.67547 0
M  V30 13393 C 1488.35 -3.06672 5.58776 0
M  V30 13394 C 1486.04 -3.47039 5.02998 0
M  V30 13395 C 1487.04 -3.2921 5.98423 0
M  V30 13396 O 1486.72 -3.33619 7.31405 0
M  V30 13397 H 1486.46 -0.540657 0.40579 0
M  V30 13398 H 1489.01 -1.16983 1.68832 0
M  V30 13399 H 1487.24 -3.67691 1.19752 0
M  V30 13400 H 1488.93 -3.72445 1.61369 0
M  V30 13401 H 1489.7 -2.8375 3.93333 0
M  V30 13402 H 1485.57 -3.55294 2.93747 0
M  V30 13403 H 1489.12 -2.92674 6.33236 0
M  V30 13404 H 1485.02 -3.64446 5.32775 0
M  V30 13405 H 1485.78 -3.5007 7.3986 0
M  V30 13406 N 1488.45 -1.09474 -1.13372 0
M  V30 13407 C 1489.69 -0.82945 -1.84295 0
M  V30 13408 C 1490.02 0.646788 -1.83961 0
M  V30 13409 O 1489.29 1.46929 -1.29572 0
M  V30 13410 H 1487.87 -0.303853 -0.682409 0
M  V30 13411 H 1490.53 -1.38298 -1.3733 0
M  V30 13412 H 1489.62 -1.18342 -2.88793 0
M  V30 13413 N 1489.92 1.30607 -0.882012 0
M  V30 13414 C 1491.34 1.78418 -0.549892 0
M  V30 13415 C 1491.69 1.72553 0.933797 0
M  V30 13416 O 1490.81 1.30058 1.72956 0
M  V30 13417 C 1491.41 3.2397 -0.991398 0
M  V30 13418 C 1489.97 3.69629 -0.710739 0
M  V30 13419 C 1489.11 2.51127 -1.17602 0
M  V30 13420 H 1492.06 1.17519 -1.06653 0
M  V30 13421 H 1492.08 3.79159 -0.319115 0
M  V30 13422 H 1491.6 3.28207 -2.07128 0
M  V30 13423 H 1489.7 3.70883 0.357273 0
M  V30 13424 H 1489.81 4.61232 -1.29621 0
M  V30 13425 H 1488.17 2.47642 -0.595444 0
M  V30 13426 H 1488.96 2.58103 -2.26358 0
M  V30 13427 N 1491.4 0.642663 1.43901 0
M  V30 13428 C 1492.81 0.232809 1.85243 0
M  V30 13429 C 1493.16 -1.21834 1.53789 0
M  V30 13430 O 1492.29 -1.92855 0.981625 0
M  V30 13431 C 1492.88 0.415749 3.36239 0
M  V30 13432 C 1491.44 0.0603055 3.76352 0
M  V30 13433 C 1490.59 0.723658 2.67691 0
M  V30 13434 H 1493.54 0.847052 1.34204 0
M  V30 13435 H 1493.56 -0.341903 3.78961 0
M  V30 13436 H 1493.07 1.472 3.59101 0
M  V30 13437 H 1491.18 -0.993761 3.59103 0
M  V30 13438 H 1491.29 0.478408 4.76705 0
M  V30 13439 H 1489.65 0.15787 2.5421 0
M  V30 13440 H 1490.44 1.78273 2.93383 0
M  V30 13441 N 1492.88 -1.52852 0.383918 0
M  V30 13442 C 1494.13 -2.01112 -0.199594 0
M  V30 13443 C 1494.45 -1.27237 -1.47769 0
M  V30 13444 O 1493.72 -0.390873 -1.91961 0
M  V30 13445 H 1492.3 -0.743047 -0.0767466 0
M  V30 13446 H 1494.96 -1.8799 0.51437 0
M  V30 13447 H 1494.06 -3.09347 -0.413627 0
M  V30 13448 N 1494.36 -0.113586 -1.5719 0
M  V30 13449 C 1495.61 0.54572 -1.95008 0
M  V30 13450 C 1495.93 1.67031 -0.996541 0
M  V30 13451 O 1495.19 1.9569 -0.0194353 0
M  V30 13452 C 1495.49 1.1238 -3.39272 0
M  V30 13453 C 1495.15 0.12112 -4.50737 0
M  V30 13454 C 1493.82 -0.154607 -4.80952 0
M  V30 13455 C 1496.17 -0.562502 -5.18156 0
M  V30 13456 C 1493.5 -1.12033 -5.75904 0
M  V30 13457 C 1495.85 -1.51682 -6.14146 0
M  V30 13458 C 1494.51 -1.80059 -6.42756 0
M  V30 13459 H 1493.78 0.199693 -0.713585 0
M  V30 13460 H 1496.43 -0.193344 -1.90521 0
M  V30 13461 H 1494.73 1.93951 -3.40426 0
M  V30 13462 H 1496.43 1.64195 -3.65843 0
M  V30 13463 H 1493.02 0.34621 -4.27199 0
M  V30 13464 H 1497.21 -0.362645 -4.94973 0
M  V30 13465 H 1492.46 -1.34699 -5.96377 0
M  V30 13466 H 1496.64 -2.05225 -6.65474 0
M  V30 13467 H 1494.26 -2.55046 -7.16139 0
M  V30 13468 N 1495.84 1.56784 0.160173 0
M  V30 13469 C 1496.79 1.9368 1.203 0
M  V30 13470 C 1497.77 0.806435 1.39232 0
M  V30 13471 O 1498.96 1.06975 1.41015 0
M  V30 13472 C 1496.09 2.30972 2.53982 0
M  V30 13473 C 1495.18 3.50549 2.38697 0
M  V30 13474 N 1495.57 4.6747 1.93145 0
M  V30 13475 C 1493.87 3.55375 2.6949 0
M  V30 13476 C 1494.57 5.49591 1.9059 0
M  V30 13477 N 1493.54 4.90938 2.33412 0
M  V30 13478 H 1497.35 2.8156 0.842691 0
M  V30 13479 H 1494.86 1.58167 0.368351 0
M  V30 13480 H 1496.86 2.55604 3.29351 0
M  V30 13481 H 1495.52 1.44437 2.90806 0
M  V30 13482 H 1496.53 4.91477 1.63312 0
M  V30 13483 H 1493.21 2.79346 3.10277 0
M  V30 13484 H 1494.6 6.53306 1.56976 0
M  V30 13485 N 1497.32 -0.429099 1.51646 0
M  V30 13486 C 1498.73 -0.766217 1.40005 0
M  V30 13487 C 1498.93 -1.95481 0.488837 0
M  V30 13488 O 1497.99 -2.52445 -0.0529101 0
M  V30 13489 C 1499.3 -1.03886 2.82185 0
M  V30 13490 C 1500.85 -1.1428 2.91392 0
M  V30 13491 C 1501.32 -1.44833 4.34497 0
M  V30 13492 N 1502.81 -1.5174 4.37641 0
M  V30 13493 C 1503.55 -1.76968 5.45408 0
M  V30 13494 N 1503.05 -1.99934 6.63324 0
M  V30 13495 N 1504.84 -1.78819 5.32898 0
M  V30 13496 H 1496.99 0.35358 2.09436 0
M  V30 13497 H 1499.25 0.0958189 0.943145 0
M  V30 13498 H 1498.96 -0.238103 3.50893 0
M  V30 13499 H 1498.83 -1.96434 3.22015 0
M  V30 13500 H 1501.22 -1.93418 2.22876 0
M  V30 13501 H 1501.3 -0.19614 2.55047 0
M  V30 13502 H 1500.94 -0.662201 5.03565 0
M  V30 13503 H 1500.87 -2.40718 4.68361 0
M  V30 13504 H 1503.37 -1.35862 3.52633 0
M  V30 13505 H 1503.68 -2.18578 7.41245 0
M  V30 13506 H 1502.02 -1.97239 6.66425 0
M  V30 13507 H 1505.21 -1.60402 4.3976 0
M  V30 13508 H 1505.39 -1.98142 6.16963 0
M  V30 13509 N 1498.79 -1.41931 -0.685074 0
M  V30 13510 C 1500.04 -1.41571 -1.44229 0
M  V30 13511 C 1500.36 -0.0294445 -1.94978 0
M  V30 13512 O 1499.63 0.930414 -1.72395 0
M  V30 13513 H 1498.21 -0.521138 -0.535186 0
M  V30 13514 H 1500.87 -1.77263 -0.81017 0
M  V30 13515 H 1499.97 -2.10929 -2.30034 0
M  V30 13516 N 1500.27 0.920374 -1.27933 0
M  V30 13517 C 1501.18 2.05525 -1.13123 0
M  V30 13518 C 1502.2 1.73899 -0.059421 0
M  V30 13519 O 1503.37 1.99617 -0.267386 0
M  V30 13520 C 1500.44 3.37637 -0.787551 0
M  V30 13521 C 1499.5 3.82914 -1.94101 0
M  V30 13522 C 1498.73 5.08721 -1.61364 0
M  V30 13523 O 1498.96 5.6798 -0.524918 0
M  V30 13524 O 1497.89 5.4955 -2.45517 0
M  V30 13525 H 1501.72 2.20935 -2.08378 0
M  V30 13526 H 1499.3 1.04071 -1.07189 0
M  V30 13527 H 1501.18 4.16968 -0.609544 0
M  V30 13528 H 1499.86 3.23417 0.135407 0
M  V30 13529 H 1498.76 3.04438 -2.17413 0
M  V30 13530 H 1500.1 4.01687 -2.84444 0
M  V30 13531 N 1501.75 1.10074 1.1279 0
M  V30 13532 C 1503.16 0.859181 1.65756 0
M  V30 13533 C 1503.51 -0.611193 1.86437 0
M  V30 13534 O 1502.64 -1.46997 1.58811 0
M  V30 13535 C 1503.23 1.55312 3.01104 0
M  V30 13536 C 1501.79 1.35836 3.51035 0
M  V30 13537 C 1500.94 1.60491 2.26137 0
M  V30 13538 H 1503.89 1.25897 0.966211 0
M  V30 13539 H 1503.91 0.990001 3.67395 0
M  V30 13540 H 1503.42 2.62325 2.8602 0
M  V30 13541 H 1501.52 0.309694 3.71311 0
M  V30 13542 H 1501.64 2.09777 4.30732 0
M  V30 13543 H 1500 1.02742 2.33058 0
M  V30 13544 H 1500.78 2.68748 2.1361 0
M  V30 13545 N 1503.23 -1.30138 0.888926 0
M  V30 13546 C 1504.48 -1.95602 0.508359 0
M  V30 13547 C 1504.8 -1.70495 -0.946377 0
M  V30 13548 O 1504.07 -1.03073 -1.66592 0
M  V30 13549 H 1502.65 -0.723728 0.185006 0
M  V30 13550 H 1505.31 -1.58594 1.13286 0
M  V30 13551 H 1504.4 -3.04559 0.681915 0
M  V30 13552 N 1504.71 -0.650285 -1.43559 0
M  V30 13553 C 1505.62 0.0438076 -2.34559 0
M  V30 13554 C 1506.63 0.815316 -1.53716 0
M  V30 13555 O 1507.81 0.76323 -1.86378 0
M  V30 13556 C 1504.87 1.00028 -3.31957 0
M  V30 13557 C 1503.93 0.226027 -4.28705 0
M  V30 13558 C 1503.17 1.13694 -5.21449 0
M  V30 13559 O 1503.39 2.37614 -5.18551 0
M  V30 13560 O 1502.32 0.610924 -5.98792 0
M  V30 13561 H 1506.15 -0.705152 -2.954 0
M  V30 13562 H 1503.73 -0.410471 -1.43651 0
M  V30 13563 H 1505.62 1.55004 -3.91857 0
M  V30 13564 H 1504.29 1.72952 -2.73623 0
M  V30 13565 H 1503.2 -0.367244 -3.72293 0
M  V30 13566 H 1504.53 -0.463582 -4.90012 0
M  V30 13567 N 1506.18 1.52647 -0.392018 0
M  V30 13568 C 1507.13 2.26532 0.441819 0
M  V30 13569 C 1508.1 1.2825 1.05552 0
M  V30 13570 O 1509.29 1.57083 1.08303 0
M  V30 13571 C 1506.43 3.0774 1.56174 0
M  V30 13572 C 1505.54 4.20955 0.970632 0
M  V30 13573 C 1504.67 4.89553 2.06183 0
M  V30 13574 C 1503.71 5.94756 1.44676 0
M  V30 13575 N 1502.85 6.5694 2.47738 0
M  V30 13576 H 1507.69 2.97363 -0.194699 0
M  V30 13577 H 1505.23 1.46704 -0.107848 0
M  V30 13578 H 1507.18 3.53116 2.22183 0
M  V30 13579 H 1505.81 2.39112 2.16853 0
M  V30 13580 H 1504.87 3.79874 0.200067 0
M  V30 13581 H 1506.18 4.96474 0.481181 0
M  V30 13582 H 1505.33 5.38247 2.79956 0
M  V30 13583 H 1504.07 4.13564 2.58488 0
M  V30 13584 H 1503.08 5.45399 0.694288 0
M  V30 13585 H 1504.3 6.72679 0.931617 0
M  V30 13586 H 1502.25 5.8379 2.99208 0
M  V30 13587 H 1502.16 7.2808 2.03556 0
M  V30 13588 H 1503.43 7.10277 3.21133 0
M  V30 13589 N 1507.66 0.121921 1.57128 0
M  V30 13590 C 1508.91 -0.534313 1.94909 0
M  V30 13591 C 1509.23 -1.67029 1.0063 0
M  V30 13592 O 1508.5 -1.95798 0.0631366 0
M  V30 13593 H 1507.08 -0.200372 0.719625 0
M  V30 13594 H 1509.74 0.191546 1.93956 0
M  V30 13595 H 1508.84 -0.926974 2.98016 0
M  V30 13596 N 1509.14 -1.56867 -0.151857 0
M  V30 13597 C 1510.07 -1.94494 -1.21263 0
M  V30 13598 C 1511.09 -0.84021 -1.39443 0
M  V30 13599 O 1512.27 -1.11863 -1.391 0
M  V30 13600 C 1509.37 -2.19952 -2.57826 0
M  V30 13601 C 1508.55 -3.51227 -2.60689 0
M  V30 13602 C 1507.61 -3.65282 -3.78756 0
M  V30 13603 O 1506.63 -4.3772 -3.63854 0
M  V30 13604 N 1507.83 -3.01582 -4.96012 0
M  V30 13605 H 1510.6 -2.86092 -0.892845 0
M  V30 13606 H 1508.16 -1.58258 -0.341463 0
M  V30 13607 H 1510.15 -2.266 -3.35312 0
M  V30 13608 H 1508.72 -1.34643 -2.82117 0
M  V30 13609 H 1507.94 -3.56062 -1.69155 0
M  V30 13610 H 1509.23 -4.37574 -2.59628 0
M  V30 13611 H 1508.63 -2.42637 -5.11022 0
M  V30 13612 H 1507.19 -3.13799 -5.71291 0
M  V30 13613 N 1510.62 0.421051 -1.51871 0
M  V30 13614 C 1512.03 1.00033 -1.5764 0
M  V30 13615 C 1512.38 1.91875 -0.409665 0
M  V30 13616 O 1511.51 2.11201 0.471516 0
M  V30 13617 C 1512.1 1.82099 -2.85701 0
M  V30 13618 C 1510.66 2.35049 -2.93988 0
M  V30 13619 C 1509.81 1.14703 -2.52465 0
M  V30 13620 H 1512.76 0.201715 -1.57413 0
M  V30 13621 H 1512.78 2.67719 -2.70382 0
M  V30 13622 H 1512.29 1.15229 -3.706 0
M  V30 13623 H 1510.39 3.05327 -2.13556 0
M  V30 13624 H 1510.5 2.66731 -3.97984 0
M  V30 13625 H 1508.87 1.49736 -2.06037 0
M  V30 13626 H 1509.65 0.494171 -3.39725 0
M  V30 13627 N 1512.1 1.42293 0.677538 0
M  V30 13628 C 1513.34 1.42334 1.43476 0
M  V30 13629 C 1513.67 0.0397842 1.94959 0
M  V30 13630 O 1512.94 -0.921258 1.72886 0
M  V30 13631 H 1511.52 0.523969 0.532415 0
M  V30 13632 H 1514.18 1.7769 0.800758 0
M  V30 13633 H 1513.27 2.12146 2.28912 0
M  V30 13634 N 1513.57 -0.913576 1.28419 0
M  V30 13635 C 1514.99 -1.47782 1.14094 0
M  V30 13636 C 1515.34 -1.94347 -0.269004 0
M  V30 13637 O 1514.46 -1.82474 -1.16328 0
M  V30 13638 C 1515.06 -2.6859 2.06507 0
M  V30 13639 C 1513.62 -3.21193 1.96245 0
M  V30 13640 C 1512.76 -1.939 1.98238 0
M  V30 13641 H 1515.71 -0.726271 1.41106 0
M  V30 13642 H 1515.73 -3.43858 1.62916 0
M  V30 13643 H 1515.25 -2.34668 3.09116 0
M  V30 13644 H 1513.35 -3.5984 0.966737 0
M  V30 13645 H 1513.46 -3.8643 2.83211 0
M  V30 13646 H 1511.82 -2.11006 1.42648 0
M  V30 13647 H 1512.61 -1.62273 3.02527 0
M  V30 13648 N 1515.05 -1.1067 -1.12204 0
M  V30 13649 C 1516.46 -0.867959 -1.65298 0
M  V30 13650 C 1516.81 0.601297 -1.86759 0
M  V30 13651 O 1515.94 1.46153 -1.59588 0
M  V30 13652 C 1516.53 -1.56906 -3.00276 0
M  V30 13653 C 1515.09 -1.37696 -3.5031 0
M  V30 13654 C 1514.24 -1.61688 -2.25282 0
M  V30 13655 H 1517.19 -1.26408 -0.959521 0
M  V30 13656 H 1517.21 -1.00947 -3.66865 0
M  V30 13657 H 1516.72 -2.63838 -2.84625 0
M  V30 13658 H 1514.83 -0.329381 -3.71141 0
M  V30 13659 H 1514.94 -2.12058 -4.29614 0
M  V30 13660 H 1513.3 -1.03977 -2.3251 0
M  V30 13661 H 1514.09 -2.69877 -2.12182 0
M  V30 13662 N 1516.53 1.29665 -0.895815 0
M  V30 13663 C 1517.78 1.9533 -0.518725 0
M  V30 13664 C 1518.1 1.70995 0.937322 0
M  V30 13665 O 1517.37 1.03955 1.66043 0
M  V30 13666 H 1515.95 0.722736 -0.188841 0
M  V30 13667 H 1518.61 1.57991 -1.14126 0
M  V30 13668 H 1517.71 3.04193 -0.698057 0
M  V30 13669 N 1518.01 0.657889 1.43212 0
M  V30 13670 C 1519.42 0.252443 1.84985 0
M  V30 13671 C 1519.77 -1.20196 1.55072 0
M  V30 13672 O 1518.9 -1.91803 1.00202 0
M  V30 13673 C 1519.49 0.451388 3.3578 0
M  V30 13674 C 1518.05 0.100219 3.76267 0
M  V30 13675 C 1517.2 0.752009 2.66908 0
M  V30 13676 H 1520.15 0.861239 1.33298 0
M  V30 13677 H 1520.17 -0.30169 3.79302 0
M  V30 13678 H 1519.68 1.51001 3.5752 0
M  V30 13679 H 1517.78 -0.955618 3.60137 0
M  V30 13680 H 1517.89 0.528942 4.76171 0
M  V30 13681 H 1516.26 0.184823 2.54029 0
M  V30 13682 H 1517.04 1.81375 2.91476 0
M  V30 13683 N 1519.49 -1.52437 0.400108 0
M  V30 13684 C 1520.9 -1.86563 -0.0715162 0
M  V30 13685 C 1521.25 -1.3193 -1.4522 0
M  V30 13686 O 1520.37 -0.654955 -2.06251 0
M  V30 13687 C 1520.97 -3.38525 -0.13655 0
M  V30 13688 C 1519.53 -3.72323 -0.55249 0
M  V30 13689 C 1518.67 -2.75896 0.278729 0
M  V30 13690 H 1521.63 -1.46192 0.617547 0
M  V30 13691 H 1521.65 -3.68357 -0.953588 0
M  V30 13692 H 1521.16 -3.78258 0.868468 0
M  V30 13693 H 1519.26 -3.38164 -1.56448 0
M  V30 13694 H 1519.37 -4.7814 -0.303139 0
M  V30 13695 H 1517.74 -2.53394 -0.257608 0
M  V30 13696 H 1518.52 -3.18467 1.28193 0
M  V30 13697 N 1520.96 -0.130252 -1.57061 0
M  V30 13698 C 1522.21 0.523969 -1.9519 0
M  V30 13699 C 1522.53 1.66493 -1.01514 0
M  V30 13700 O 1521.8 1.95762 -0.0735194 0
M  V30 13701 H 1520.38 0.196553 -0.720677 0
M  V30 13702 H 1523.05 -0.20183 -1.93852 0
M  V30 13703 H 1522.14 0.911156 -2.98504 0
M  V30 13704 N 1522.44 1.56945 0.143535 0
M  V30 13705 C 1523.85 1.72949 0.703249 0
M  V30 13706 C 1524.21 0.745193 1.81497 0
M  V30 13707 O 1523.33 -0.0874144 2.16223 0
M  V30 13708 C 1523.93 3.1359 1.28244 0
M  V30 13709 C 1522.48 3.31184 1.78869 0
M  V30 13710 C 1521.63 2.6887 0.678531 0
M  V30 13711 H 1524.58 1.58487 -0.0821664 0
M  V30 13712 H 1524.6 3.13782 2.15224 0
M  V30 13713 H 1524.12 3.85206 0.473087 0
M  V30 13714 H 1522.22 2.64571 2.6236 0
M  V30 13715 H 1522.33 4.39163 1.91502 0
M  V30 13716 H 1520.69 2.29432 1.10603 0
M  V30 13717 H 1521.48 3.43092 -0.119437 0
M  V30 13718 N 1523.92 -0.412991 1.52093 0
M  V30 13719 C 1525.33 -0.991955 1.58168 0
M  V30 13720 C 1525.68 -1.91655 0.419834 0
M  V30 13721 O 1524.81 -2.11448 -0.460308 0
M  V30 13722 C 1525.4 -1.80581 2.86663 0
M  V30 13723 C 1523.96 -2.33487 2.9523 0
M  V30 13724 C 1523.11 -1.13362 2.5307 0
M  V30 13725 H 1526.06 -0.193364 1.57518 0
M  V30 13726 H 1526.08 -2.66282 2.71798 0
M  V30 13727 H 1525.59 -1.13262 3.71205 0
M  V30 13728 H 1523.69 -3.0419 2.15173 0
M  V30 13729 H 1523.81 -2.64617 3.99393 0
M  V30 13730 H 1522.17 -1.48641 2.06828 0
M  V30 13731 H 1522.95 -0.476148 3.39982 0
M  V30 13732 N 1525.4 -1.4265 -0.669982 0
M  V30 13733 C 1526.65 -1.43093 -1.42719 0
M  V30 13734 C 1526.97 -0.0501228 -1.94936 0
M  V30 13735 O 1526.24 0.912077 -1.73372 0
M  V30 13736 H 1524.82 -0.526785 -0.529628 0
M  V30 13737 H 1527.48 -1.78113 -0.791324 0
M  V30 13738 H 1526.58 -2.13357 -2.27783 0
M  V30 13739 N 1526.88 0.906753 -1.28902 0
M  V30 13740 C 1528.1 1.69547 -1.19452 0
M  V30 13741 C 1528.53 1.86531 0.242418 0
M  V30 13742 O 1527.89 1.38052 1.17521 0
M  V30 13743 C 1527.93 3.06139 -1.90556 0
M  V30 13744 O 1527.04 3.9401 -1.21779 0
M  V30 13745 H 1526.38 0.518902 -0.41429 0
M  V30 13746 H 1528.91 1.13327 -1.70347 0
M  V30 13747 H 1528.92 3.56326 -1.98736 0
M  V30 13748 H 1527.59 2.93094 -2.95074 0
M  V30 13749 H 1526.17 3.52444 -1.2181 0
M  V30 13750 N 1528.36 1.11264 1.11616 0
M  V30 13751 C 1529.58 0.882802 1.87121 0
M  V30 13752 C 1530 -0.567279 1.80076 0
M  V30 13753 O 1529.36 -1.39158 1.18074 0
M  V30 13754 C 1529.41 1.33355 3.36004 0
M  V30 13755 O 1529.13 2.72678 3.42897 0
M  V30 13756 C 1530.63 1.13886 4.28421 0
M  V30 13757 H 1527.85 0.316275 0.591786 0
M  V30 13758 H 1530.39 1.4795 1.41177 0
M  V30 13759 H 1528.55 0.780347 3.79459 0
M  V30 13760 H 1528.96 2.92168 4.35589 0
M  V30 13761 H 1530.44 1.50329 5.31136 0
M  V30 13762 H 1530.91 0.078259 4.3913 0
M  V30 13763 H 1531.52 1.67896 3.90757 0
M  V30 13764 N 1529.83 -1.29188 0.902679 0
M  V30 13765 C 1531.08 -1.95052 0.529076 0
M  V30 13766 C 1531.4 -1.7149 -0.92824 0
M  V30 13767 O 1530.67 -1.04834 -1.65489 0
M  V30 13768 H 1529.25 -0.721725 0.192671 0
M  V30 13769 H 1531.91 -1.57384 1.14962 0
M  V30 13770 H 1531.01 -3.03819 0.714179 0
M  V30 13771 N 1531.31 -0.665475 -1.42861 0
M  V30 13772 C 1532.24 0.00482845 -2.335 0
M  V30 13773 C 1533.22 0.799135 -1.50159 0
M  V30 13774 O 1534.41 0.75816 -1.78789 0
M  V30 13775 C 1531.54 0.963347 -3.33672 0
M  V30 13776 C 1530.49 0.278294 -4.27094 0
M  V30 13777 C 1529.82 1.34911 -5.174 0
M  V30 13778 C 1531.12 -0.836925 -5.15551 0
M  V30 13779 H 1532.81 -0.752129 -2.89799 0
M  V30 13780 H 1530.36 -0.363139 -1.39346 0
M  V30 13781 H 1532.31 1.44128 -3.95986 0
M  V30 13782 H 1531.03 1.75161 -2.75656 0
M  V30 13783 H 1529.69 -0.179314 -3.66161 0
M  V30 13784 H 1529.34 2.12912 -4.55716 0
M  V30 13785 H 1529.04 0.895919 -5.8073 0
M  V30 13786 H 1530.57 1.82816 -5.8259 0
M  V30 13787 H 1531.98 -0.440617 -5.71604 0
M  V30 13788 H 1530.38 -1.21533 -5.87665 0
M  V30 13789 H 1531.45 -1.6897 -4.54507 0
M  V30 13790 N 1532.79 1.52222 -0.408187 0
M  V30 13791 C 1534.21 1.59491 -0.0590201 0
M  V30 13792 C 1534.41 1.42109 1.42854 0
M  V30 13793 O 1533.46 1.24757 2.19527 0
M  V30 13794 C 1534.77 2.9557 -0.553093 0
M  V30 13795 C 1536.32 3.08801 -0.510986 0
M  V30 13796 C 1536.8 4.47358 -0.981554 0
M  V30 13797 N 1538.29 4.53596 -0.938335 0
M  V30 13798 C 1539.02 5.59076 -1.27364 0
M  V30 13799 N 1538.52 6.72113 -1.68035 0
M  V30 13800 N 1540.31 5.49279 -1.19367 0
M  V30 13801 H 1532.46 1.61768 -1.37641 0
M  V30 13802 H 1534.73 0.760959 -0.565372 0
M  V30 13803 H 1534.43 3.13566 -1.59276 0
M  V30 13804 H 1534.31 3.77181 0.0377629 0
M  V30 13805 H 1536.69 2.90489 0.519637 0
M  V30 13806 H 1536.77 2.29098 -1.13788 0
M  V30 13807 H 1536.42 4.66413 -2.0105 0
M  V30 13808 H 1536.35 5.25556 -0.331478 0
M  V30 13809 H 1538.84 3.72453 -0.639297 0
M  V30 13810 H 1539.15 7.48586 -1.91934 0
M  V30 13811 H 1537.5 6.73396 -1.71938 0
M  V30 13812 H 1540.69 4.59853 -0.8748 0
M  V30 13813 H 1540.86 6.31378 -1.45829 0
M  V30 13814 N 1534.27 0.138579 1.5699 0
M  V30 13815 C 1535.52 -0.513611 1.95465 0
M  V30 13816 C 1535.84 -1.65952 1.02396 0
M  V30 13817 O 1535.11 -1.9572 0.0839001 0
M  V30 13818 H 1533.69 -0.192729 0.72171 0
M  V30 13819 H 1536.35 0.212107 1.93742 0
M  V30 13820 H 1535.44 -0.895313 2.98983 0
M  V30 13821 N 1535.75 -1.57019 -0.13521 0
M  V30 13822 C 1536.99 -1.8399 -0.845818 0
M  V30 13823 C 1537.32 -0.721255 -1.80633 0
M  V30 13824 O 1536.58 0.288778 -1.93558 0
M  V30 13825 C 1536.87 -3.17358 -1.64373 0
M  V30 13826 C 1536.54 -4.43214 -0.828967 0
M  V30 13827 C 1535.2 -4.77391 -0.604226 0
M  V30 13828 C 1537.55 -5.20551 -0.259965 0
M  V30 13829 C 1534.88 -5.86359 0.200033 0
M  V30 13830 C 1537.23 -6.30364 0.531397 0
M  V30 13831 C 1535.9 -6.63083 0.766605 0
M  V30 13832 H 1535.17 -0.673266 -0.309507 0
M  V30 13833 H 1537.82 -1.9119 -0.108903 0
M  V30 13834 H 1536.12 -3.05661 -2.4511 0
M  V30 13835 H 1537.82 -3.35444 -2.19724 0
M  V30 13836 H 1534.41 -4.16427 -1.01421 0
M  V30 13837 H 1538.59 -4.94512 -0.420847 0
M  V30 13838 H 1533.85 -6.10144 0.391646 0
M  V30 13839 H 1538.02 -6.89479 0.979371 0
M  V30 13840 H 1535.65 -7.47354 1.39164 0
M  V30 13841 N 1537.22 0.404919 -1.52309 0
M  V30 13842 C 1538.47 1.14859 -1.65802 0
M  V30 13843 C 1538.79 1.91546 -0.396174 0
M  V30 13844 O 1539.99 2.68372 -0.410969 0
M  V30 13845 C 1538.45 2.09068 -2.92948 0
M  V30 13846 C 1538.06 1.37878 -4.26255 0
M  V30 13847 C 1539.8 2.83669 -3.15804 0
M  V30 13848 C 1537.71 2.30761 -5.44521 0
M  V30 13849 H 1536.64 0.432463 -0.61765 0
M  V30 13850 H 1539.29 0.412695 -1.78799 0
M  V30 13851 H 1537.67 2.86228 -2.7366 0
M  V30 13852 H 1538.84 0.660543 -4.56041 0
M  V30 13853 H 1537.16 0.753026 -4.09534 0
M  V30 13854 H 1539.76 3.53313 -4.0134 0
M  V30 13855 H 1540.1 3.46855 -2.30212 0
M  V30 13856 H 1540.63 2.13607 -3.35584 0
M  V30 13857 H 1537.37 1.72214 -6.32473 0
M  V30 13858 H 1536.89 3.00546 -5.19069 0
M  V30 13859 H 1538.57 2.91195 -5.77767 0
M  V30 13860 N 1538.7 1.43003 0.662408 0
M  V30 13861 C 1539.95 1.43848 1.41958 0
M  V30 13862 C 1540.27 0.06046 1.94906 0
M  V30 13863 O 1539.54 -0.90287 1.73854 0
M  V30 13864 H 1538.12 0.529587 0.526827 0
M  V30 13865 H 1540.78 1.7853 0.781867 0
M  V30 13866 H 1539.88 2.14562 2.26649 0
M  V30 13867 N 1540.18 -0.899904 1.29381 0
M  V30 13868 C 1541.43 -1.65038 1.17341 0
M  V30 13869 C 1541.76 -1.92544 -0.275135 0
M  V30 13870 O 1541.01 -1.53402 -1.21517 0
M  V30 13871 C 1541.31 -3.0069 1.93185 0
M  V30 13872 C 1540.98 -2.92792 3.42905 0
M  V30 13873 C 1539.64 -2.90345 3.83736 0
M  V30 13874 C 1541.99 -2.82015 4.38312 0
M  V30 13875 C 1539.32 -2.7494 5.1829 0
M  V30 13876 C 1541.67 -2.68149 5.72956 0
M  V30 13877 C 1540.33 -2.64068 6.13045 0
M  V30 13878 H 1539.6 -0.603915 0.42938 0
M  V30 13879 H 1542.25 -1.04743 1.60316 0
M  V30 13880 H 1540.56 -3.6485 1.428 0
M  V30 13881 H 1542.25 -3.57688 1.81274 0
M  V30 13882 H 1538.84 -2.95498 3.10449 0
M  V30 13883 H 1543.03 -2.82982 4.07719 0
M  V30 13884 H 1538.28 -2.70186 5.48461 0
M  V30 13885 H 1542.46 -2.58781 6.46533 0
M  V30 13886 H 1540.08 -2.51889 7.17256 0
M  V30 13887 N 1541.66 -1.11854 -1.11024 0
M  V30 13888 C 1543.07 -0.885443 -1.64368 0
M  V30 13889 C 1543.42 0.581455 -1.87386 0
M  V30 13890 O 1542.55 1.44452 -1.61129 0
M  V30 13891 C 1543.14 -1.60082 -2.98595 0
M  V30 13892 C 1541.7 -1.41403 -3.4883 0
M  V30 13893 C 1540.85 -1.64069 -2.23555 0
M  V30 13894 H 1543.8 -1.27418 -0.94606 0
M  V30 13895 H 1543.82 -1.04832 -3.65774 0
M  V30 13896 H 1543.33 -2.66842 -2.8181 0
M  V30 13897 H 1541.43 -0.368727 -3.70771 0
M  V30 13898 H 1541.54 -2.16603 -4.27341 0
M  V30 13899 H 1539.91 -1.06437 -2.31394 0
M  V30 13900 H 1540.69 -2.72112 -2.09308 0
M  V30 13901 N 1543.14 1.28707 -0.909517 0
M  V30 13902 C 1544.38 1.94768 -0.539413 0
M  V30 13903 C 1544.71 1.7198 0.919133 0
M  V30 13904 O 1543.98 1.0571 1.64931 0
M  V30 13905 H 1542.56 0.720693 -0.196496 0
M  V30 13906 H 1545.22 1.56772 -1.15795 0
M  V30 13907 H 1544.31 3.03436 -0.730281 0
M  V30 13908 N 1544.61 0.673042 1.42506 0
M  V30 13909 C 1545.54 0.00755467 2.33499 0
M  V30 13910 C 1546.53 -0.791161 1.50581 0
M  V30 13911 O 1547.71 -0.748668 1.79189 0
M  V30 13912 C 1544.84 -0.945638 3.34178 0
M  V30 13913 C 1543.79 -0.25564 4.27236 0
M  V30 13914 C 1543.12 -1.32165 5.18109 0
M  V30 13915 C 1544.42 0.864254 5.151 0
M  V30 13916 H 1546.11 0.767487 2.89396 0
M  V30 13917 H 1543.66 0.370524 1.39151 0
M  V30 13918 H 1545.61 -1.42026 3.96745 0
M  V30 13919 H 1544.34 -1.73697 2.76581 0
M  V30 13920 H 1543 0.19873 3.66061 0
M  V30 13921 H 1542.64 -2.10492 4.56839 0
M  V30 13922 H 1542.34 -0.865109 5.81197 0
M  V30 13923 H 1543.87 -1.79724 5.83551 0
M  V30 13924 H 1545.28 0.470924 5.71363 0
M  V30 13925 H 1543.68 1.24648 5.87012 0
M  V30 13926 H 1544.75 1.71378 4.53605 0
M  V30 13927 N 1546.09 -1.52004 0.416254 0
M  V30 13928 C 1547.5 -1.86628 -0.0517247 0
M  V30 13929 C 1547.85 -1.33463 -1.43813 0
M  V30 13930 O 1546.98 -0.676793 -2.05544 0
M  V30 13931 C 1547.57 -3.38651 -0.100637 0
M  V30 13932 C 1546.13 -3.72888 -0.512969 0
M  V30 13933 C 1545.28 -2.75584 0.307975 0
M  V30 13934 H 1548.23 -1.45529 0.633018 0
M  V30 13935 H 1548.25 -3.69348 -0.914465 0
M  V30 13936 H 1547.76 -3.77316 0.908538 0
M  V30 13937 H 1545.87 -3.39804 -1.52852 0
M  V30 13938 H 1545.98 -4.78435 -0.252408 0
M  V30 13939 H 1544.34 -2.53653 -0.230717 0
M  V30 13940 H 1545.13 -3.1709 1.31563 0
M  V30 13941 N 1547.57 -0.146903 -1.56914 0
M  V30 13942 C 1548.82 0.503237 -1.95734 0
M  V30 13943 C 1549.14 1.65407 -1.03275 0
M  V30 13944 O 1548.41 1.95673 -0.0942784 0
M  V30 13945 H 1546.99 0.188899 -0.722721 0
M  V30 13946 H 1549.65 -0.222379 -1.93627 0
M  V30 13947 H 1548.75 0.879445 -2.99453 0
M  V30 13948 N 1549.05 1.57088 0.126881 0
M  V30 13949 C 1550.33 1.7539 0.8659 0
M  V30 13950 C 1550.71 0.720288 1.98432 0
M  V30 13951 O 1550.05 -0.2572 2.27048 0
M  V30 13952 C 1550.26 3.20131 1.38985 0
M  V30 13953 C 1551.61 3.82404 1.84532 0
M  V30 13954 O 1552.64 3.23685 1.48682 0
M  V30 13955 O 1551.49 4.85599 2.50711 0
M  V30 13956 H 1548.59 0.717853 0.41063 0
M  V30 13957 H 1551.13 1.69335 0.111236 0
M  V30 13958 H 1549.91 3.86871 0.587056 0
M  V30 13959 H 1549.53 3.30692 2.20745 0
M  V30 13960 N 1550.53 -0.396836 1.52522 0
M  V30 13961 C 1551.46 -1.50361 1.72986 0
M  V30 13962 C 1552.47 -1.50928 0.610289 0
M  V30 13963 O 1553.66 -1.54972 0.88578 0
M  V30 13964 C 1550.76 -2.89229 1.76635 0
M  V30 13965 C 1549.93 -3.12715 3.05824 0
M  V30 13966 C 1548.99 -4.31523 3.01122 0
M  V30 13967 O 1548.02 -4.28207 3.75004 0
M  V30 13968 N 1549.22 -5.37294 2.19763 0
M  V30 13969 H 1551.99 -1.33196 2.68475 0
M  V30 13970 H 1549.55 -0.586269 1.50912 0
M  V30 13971 H 1551.54 -3.66796 1.71006 0
M  V30 13972 H 1550.11 -2.99791 0.885667 0
M  V30 13973 H 1549.33 -2.23083 3.25004 0
M  V30 13974 H 1550.62 -3.25257 3.91261 0
M  V30 13975 H 1550.01 -5.4284 1.5919 0
M  V30 13976 H 1548.57 -6.13557 2.19981 0
M  V30 13977 N 1552.01 -1.43353 -0.654814 0
M  V30 13978 C 1553.25 -1.44599 -1.41193 0
M  V30 13979 C 1553.57 -0.0707955 -1.94871 0
M  V30 13980 O 1552.84 0.893637 -1.7433 0
M  V30 13981 H 1551.42 -0.532373 -0.524011 0
M  V30 13982 H 1554.09 -1.78942 -0.772388 0
M  V30 13983 H 1553.18 -2.15761 -2.25508 0
M  V30 13984 N 1553.48 0.89303 -1.29857 0
M  V30 13985 C 1554.39 2.03079 -1.17457 0
M  V30 13986 C 1555.41 1.73733 -0.0962941 0
M  V30 13987 O 1556.59 1.99005 -0.309667 0
M  V30 13988 C 1553.65 3.3589 -0.858991 0
M  V30 13989 C 1552.71 3.78711 -2.0218 0
M  V30 13990 C 1551.94 5.05184 -1.72118 0
M  V30 13991 O 1552.17 5.66738 -0.645276 0
M  V30 13992 O 1551.1 5.44218 -2.57119 0
M  V30 13993 H 1554.93 2.16465 -2.13017 0
M  V30 13994 H 1552.51 1.01774 -1.09373 0
M  V30 13995 H 1554.39 4.15582 -0.697852 0
M  V30 13996 H 1553.07 3.23631 0.0667756 0
M  V30 13997 H 1551.98 2.99758 -2.23822 0
M  V30 13998 H 1553.31 3.95563 -2.929 0
M  V30 13999 N 1554.96 1.12442 1.10429 0
M  V30 14000 C 1556.37 0.894147 1.63896 0
M  V30 14001 C 1556.72 -0.571509 1.87692 0
M  V30 14002 O 1555.85 -1.43595 1.61893 0
M  V30 14003 C 1556.44 1.61664 2.97742 0
M  V30 14004 C 1555 1.43251 3.48075 0
M  V30 14005 C 1554.15 1.65252 2.22682 0
M  V30 14006 H 1557.1 1.27918 0.939289 0
M  V30 14007 H 1557.12 1.06771 3.65213 0
M  V30 14008 H 1556.63 2.68333 2.80391 0
M  V30 14009 H 1554.73 0.388385 3.7057 0
M  V30 14010 H 1554.85 2.18866 4.26186 0
M  V30 14011 H 1553.21 1.07663 2.30827 0
M  V30 14012 H 1553.99 2.73219 2.07862 0
M  V30 14013 N 1556.44 -1.28223 0.91633 0
M  V30 14014 C 1557.69 -1.9448 0.549734 0
M  V30 14015 C 1558.01 -1.72465 -0.909999 0
M  V30 14016 O 1557.28 -1.06583 -1.64368 0
M  V30 14017 H 1555.86 -0.719641 0.200315 0
M  V30 14018 H 1558.52 -1.56156 1.16625 0
M  V30 14019 H 1557.62 -3.03044 0.746363 0
M  V30 14020 N 1557.92 -0.68059 -1.42147 0
M  V30 14021 C 1559.14 -0.212293 -2.06311 0
M  V30 14022 C 1559.57 1.12402 -1.50822 0
M  V30 14023 O 1558.93 1.70037 -0.629051 0
M  V30 14024 C 1558.97 -0.164156 -3.60226 0
M  V30 14025 O 1558.08 0.865582 -4.03214 0
M  V30 14026 H 1557.42 -0.107451 -0.655248 0
M  V30 14027 H 1559.95 -0.931233 -1.82179 0
M  V30 14028 H 1559.96 0.0100422 -4.07999 0
M  V30 14029 H 1558.63 -1.13952 -3.99985 0
M  V30 14030 H 1557.21 0.661955 -3.66978 0
M  V30 14031 N 1559.4 1.51781 -0.424309 0
M  V30 14032 C 1560.81 1.86653 0.0418266 0
M  V30 14033 C 1561.16 1.34224 1.43103 0
M  V30 14034 O 1560.28 0.687684 2.05183 0
M  V30 14035 C 1560.88 3.38699 0.0826759 0
M  V30 14036 C 1559.44 3.73155 0.493186 0
M  V30 14037 C 1558.58 2.75417 -0.322586 0
M  V30 14038 H 1561.53 1.45191 -0.640726 0
M  V30 14039 H 1561.56 3.69828 0.894864 0
M  V30 14040 H 1561.07 3.76829 -0.928536 0
M  V30 14041 H 1559.17 3.4061 1.51048 0
M  V30 14042 H 1559.28 4.78562 0.227032 0
M  V30 14043 H 1557.65 2.53772 0.217262 0
M  V30 14044 H 1558.43 3.16388 -1.33243 0
M  V30 14045 N 1560.87 0.155222 1.56834 0
M  V30 14046 C 1562.12 -0.49285 1.95998 0
M  V30 14047 C 1562.44 -1.64857 1.0415 0
M  V30 14048 O 1561.71 -1.9562 0.104654 0
M  V30 14049 H 1560.29 -0.185063 0.723713 0
M  V30 14050 H 1562.95 0.232644 1.93507 0
M  V30 14051 H 1562.05 -0.863552 2.99915 0
M  V30 14052 N 1562.35 -1.57153 -0.118549 0
M  V30 14053 C 1563.76 -1.74046 -0.675645 0
M  V30 14054 C 1564.11 -0.773974 -1.80289 0
M  V30 14055 O 1563.24 0.0530041 -2.16335 0
M  V30 14056 C 1563.83 -3.15591 -1.23239 0
M  V30 14057 C 1562.39 -3.33988 -1.73577 0
M  V30 14058 C 1561.54 -2.69916 -0.63567 0
M  V30 14059 H 1564.49 -1.58336 0.10737 0
M  V30 14060 H 1564.51 -3.17166 -2.10205 0
M  V30 14061 H 1564.02 -3.8591 -0.411744 0
M  V30 14062 H 1562.12 -2.68712 -2.58118 0
M  V30 14063 H 1562.24 -4.42154 -1.84491 0
M  V30 14064 H 1560.6 -2.31163 -1.06939 0
M  V30 14065 H 1561.38 -3.42859 0.174005 0
M  V30 14066 N 1563.83 0.388742 -1.5273 0
M  V30 14067 C 1565.24 0.966667 -1.59726 0
M  V30 14068 C 1565.59 1.90963 -0.450272 0
M  V30 14069 O 1564.72 2.12153 0.426611 0
M  V30 14070 C 1565.31 1.75998 -2.895 0
M  V30 14071 C 1563.87 2.28761 -2.98907 0
M  V30 14072 C 1563.02 1.09322 -2.54841 0
M  V30 14073 H 1565.97 0.16828 -1.57805 0
M  V30 14074 H 1565.99 2.61924 -2.76 0
M  V30 14075 H 1565.5 1.07342 -3.7296 0
M  V30 14076 H 1563.6 3.00728 -2.19985 0
M  V30 14077 H 1563.72 2.58229 -4.03552 0
M  V30 14078 H 1562.08 1.45332 -2.09167 0
M  V30 14079 H 1562.86 0.421999 -3.40696 0
M  V30 14080 N 1565.31 1.43698 0.647203 0
M  V30 14081 C 1566.56 1.45346 1.40425 0
M  V30 14082 C 1566.88 0.081129 1.94831 0
M  V30 14083 O 1566.15 -0.884379 1.74801 0
M  V30 14084 H 1564.73 0.535145 0.521181 0
M  V30 14085 H 1567.39 1.79349 0.762887 0
M  V30 14086 H 1566.48 2.16954 2.2436 0
M  V30 14087 N 1566.79 -0.886131 1.30328 0
M  V30 14088 C 1568.03 -1.63784 1.19085 0
M  V30 14089 C 1568.36 -1.92825 -0.254697 0
M  V30 14090 O 1567.62 -1.54682 -1.19883 0
M  V30 14091 C 1567.92 -2.98624 1.96364 0
M  V30 14092 C 1567.58 -2.89139 3.45991 0
M  V30 14093 C 1566.24 -2.86259 3.86794 0
M  V30 14094 C 1568.6 -2.7735 4.41278 0
M  V30 14095 C 1565.92 -2.69428 5.21177 0
M  V30 14096 C 1568.28 -2.62057 5.75768 0
M  V30 14097 C 1566.94 -2.57551 6.15811 0
M  V30 14098 H 1566.21 -0.599327 0.435761 0
M  V30 14099 H 1568.86 -1.03037 1.61418 0
M  V30 14100 H 1567.16 -3.63315 1.46662 0
M  V30 14101 H 1568.86 -3.55746 1.85057 0
M  V30 14102 H 1565.45 -2.92189 3.13566 0
M  V30 14103 H 1569.63 -2.78642 4.10697 0
M  V30 14104 H 1564.89 -2.64353 5.51296 0
M  V30 14105 H 1569.06 -2.51909 6.49242 0
M  V30 14106 H 1566.69 -2.44268 7.19887 0
M  V30 14107 N 1568.26 -1.13026 -1.09832 0
M  V30 14108 C 1569.49 -0.912803 -1.86233 0
M  V30 14109 C 1569.91 0.532955 -1.80392 0
M  V30 14110 O 1569.27 1.37783 -1.17837 0
M  V30 14111 C 1569.32 -1.40002 -3.32313 0
M  V30 14112 O 1568.42 -0.582537 -4.08265 0
M  V30 14113 H 1567.77 -0.327464 -0.577636 0
M  V30 14114 H 1570.3 -1.5039 -1.38723 0
M  V30 14115 H 1570.31 -1.40182 -3.83162 0
M  V30 14116 H 1568.98 -2.4527 -3.3588 0
M  V30 14117 H 1567.56 -0.648255 -3.67222 0
M  V30 14118 N 1569.74 1.27735 -0.923117 0
M  V30 14119 C 1570.99 1.94185 -0.56004 0
M  V30 14120 C 1571.31 1.72945 0.90084 0
M  V30 14121 O 1570.58 1.07453 1.63801 0
M  V30 14122 H 1569.16 0.718568 -0.204129 0
M  V30 14123 H 1571.82 1.55535 -1.17451 0
M  V30 14124 H 1570.92 3.02644 -0.762424 0
M  V30 14125 N 1571.22 0.688118 1.41784 0
M  V30 14126 C 1572.47 0.213085 2.00571 0
M  V30 14127 C 1572.78 -1.19176 1.55101 0
M  V30 14128 O 1573.99 -1.76387 2.06397 0
M  V30 14129 C 1572.44 0.330075 3.58383 0
M  V30 14130 C 1572.05 1.73981 4.12837 0
M  V30 14131 C 1573.8 -0.0855651 4.24414 0
M  V30 14132 C 1571.7 1.80886 5.63058 0
M  V30 14133 H 1570.63 0.075906 0.750169 0
M  V30 14134 H 1573.28 0.855236 1.62351 0
M  V30 14135 H 1571.67 -0.380199 3.94171 0
M  V30 14136 H 1572.84 2.47825 3.88484 0
M  V30 14137 H 1571.16 2.10447 3.59306 0
M  V30 14138 H 1573.75 -0.0543142 5.34672 0
M  V30 14139 H 1574.1 -1.12307 4.00865 0
M  V30 14140 H 1574.63 0.574169 3.93635 0
M  V30 14141 H 1571.37 2.82663 5.91424 0
M  V30 14142 H 1570.89 1.11417 5.89361 0
M  V30 14143 H 1572.57 1.56835 6.27704 0
M  V30 14144 N 1572.7 -1.51554 0.432352 0
M  V30 14145 C 1573.98 -1.94621 -0.195472 0
M  V30 14146 C 1574.36 -1.37072 -1.60544 0
M  V30 14147 O 1573.7 -0.555781 -2.21638 0
M  V30 14148 C 1573.91 -3.48544 -0.178267 0
M  V30 14149 C 1575.26 -4.22839 -0.386283 0
M  V30 14150 O 1576.29 -3.55275 -0.256604 0
M  V30 14151 O 1575.14 -5.42693 -0.643927 0
M  V30 14152 H 1572.24 -0.816291 -0.132656 0
M  V30 14153 H 1574.78 -1.62473 0.489972 0
M  V30 14154 H 1573.56 -3.82874 0.807658 0
M  V30 14155 H 1573.18 -3.87121 -0.906832 0
M  V30 14156 N 1574.18 -0.163538 -1.56749 0
M  V30 14157 C 1575.42 0.482449 -1.96257 0
M  V30 14158 C 1575.75 1.64302 -1.05023 0
M  V30 14159 O 1575.02 1.95562 -0.115027 0
M  V30 14160 H 1573.6 0.181222 -0.724684 0
M  V30 14161 H 1576.26 -0.242903 -1.9338 0
M  V30 14162 H 1575.35 0.847634 -3.00369 0
M  V30 14163 N 1575.65 1.57214 0.110213 0
M  V30 14164 C 1576.62 2.00034 1.11888 0
M  V30 14165 C 1577.62 0.891697 1.33811 0
M  V30 14166 O 1578.81 1.15754 1.3018 0
M  V30 14167 C 1575.94 2.34806 2.47142 0
M  V30 14168 H 1577.13 2.90354 0.750647 0
M  V30 14169 H 1574.69 1.5222 0.35479 0
M  V30 14170 H 1575.42 1.47393 2.8887 0
M  V30 14171 H 1575.21 3.15671 2.32581 0
M  V30 14172 H 1576.7 2.68644 3.19719 0
M  V30 14173 N 1577.13 -0.380637 1.52934 0
M  V30 14174 C 1578.55 -0.721287 1.42371 0
M  V30 14175 C 1578.75 -1.93826 0.55078 0
M  V30 14176 O 1577.8 -2.52485 0.02743 0
M  V30 14177 C 1579.12 -0.948564 2.85347 0
M  V30 14178 C 1580.67 -1.04952 2.9488 0
M  V30 14179 C 1581.14 -1.30937 4.38885 0
M  V30 14180 N 1582.63 -1.3774 4.42246 0
M  V30 14181 C 1583.37 -1.59527 5.50762 0
M  V30 14182 N 1582.86 -1.7873 6.69349 0
M  V30 14183 N 1584.66 -1.61774 5.38317 0
M  V30 14184 H 1576.81 0.420032 2.08205 0
M  V30 14185 H 1579.07 0.125776 0.939619 0
M  V30 14186 H 1578.78 -0.126348 3.51473 0
M  V30 14187 H 1578.65 -1.8609 3.28101 0
M  V30 14188 H 1581.04 -1.86229 2.28917 0
M  V30 14189 H 1581.12 -0.114899 2.55542 0
M  V30 14190 H 1580.76 -0.50166 5.05416 0
M  V30 14191 H 1580.69 -2.25696 4.75782 0
M  V30 14192 H 1583.18 -1.24575 3.56777 0
M  V30 14193 H 1583.5 -1.94885 7.47823 0
M  V30 14194 H 1581.84 -1.75938 6.72362 0
M  V30 14195 H 1585.03 -1.4633 4.44641 0
M  V30 14196 H 1585.2 -1.78414 6.22955 0
M  V30 14197 N 1578.61 -1.44039 -0.639573 0
M  V30 14198 C 1579.86 -1.46088 -1.39652 0
M  V30 14199 C 1580.18 -0.0914602 -1.94785 0
M  V30 14200 O 1579.45 0.875097 -1.75268 0
M  V30 14201 H 1578.03 -0.537901 -0.518335 0
M  V30 14202 H 1580.69 -1.79751 -0.753365 0
M  V30 14203 H 1579.79 -2.1814 -2.23207 0
M  V30 14204 N 1580.09 0.879207 -1.30796 0
M  V30 14205 C 1581.5 1.44705 -1.17972 0
M  V30 14206 C 1581.85 1.94992 0.217381 0
M  V30 14207 O 1580.98 1.85494 1.11449 0
M  V30 14208 C 1581.57 2.6302 -2.13555 0
M  V30 14209 C 1580.13 3.15877 -2.04692 0
M  V30 14210 C 1579.28 1.88576 -2.03309 0
M  V30 14211 H 1582.23 0.688604 -1.42982 0
M  V30 14212 H 1582.25 3.39418 -1.71976 0
M  V30 14213 H 1581.76 2.2639 -3.15229 0
M  V30 14214 H 1579.86 3.57151 -1.0618 0
M  V30 14215 H 1579.97 3.78786 -2.93357 0
M  V30 14216 H 1578.34 2.0715 -1.48192 0
M  V30 14217 H 1579.12 1.54195 -3.06723 0
M  V30 14218 N 1581.57 1.13606 1.09231 0
M  V30 14219 C 1582.51 0.815279 2.15921 0
M  V30 14220 C 1583.48 -0.223501 1.64589 0
M  V30 14221 O 1584.67 -0.0952982 1.90562 0
M  V30 14222 C 1581.81 0.289655 3.43882 0
M  V30 14223 C 1580.92 1.38773 4.09104 0
M  V30 14224 C 1580.06 0.820238 5.24829 0
M  V30 14225 C 1579.1 1.89658 5.81976 0
M  V30 14226 N 1578.23 1.34688 6.8906 0
M  V30 14227 H 1583.07 1.72914 2.42703 0
M  V30 14228 H 1580.61 0.863101 1.19117 0
M  V30 14229 H 1582.57 -0.0332398 4.17187 0
M  V30 14230 H 1581.2 -0.587329 3.17412 0
M  V30 14231 H 1580.25 1.82718 3.33644 0
M  V30 14232 H 1581.56 2.20114 4.47606 0
M  V30 14233 H 1580.72 0.448745 6.05038 0
M  V30 14234 H 1579.46 -0.0242261 4.87694 0
M  V30 14235 H 1578.46 2.27712 5.00427 0
M  V30 14236 H 1579.69 2.74448 6.21172 0
M  V30 14237 H 1577.63 0.524453 6.539 0
M  V30 14238 H 1577.55 2.09675 7.26342 0
M  V30 14239 H 1578.82 1.00302 7.7302 0
M  V30 14240 N 1583.05 -1.27244 0.929878 0
M  V30 14241 C 1584.29 -1.93886 0.570331 0
M  V30 14242 C 1584.61 -1.7342 -0.891656 0
M  V30 14243 O 1583.88 -1.0832 -1.63228 0
M  V30 14244 H 1582.46 -0.717476 0.207937 0
M  V30 14245 H 1585.13 -1.5491 1.18275 0
M  V30 14246 H 1584.22 -3.02236 0.778463 0
M  V30 14247 N 1584.52 -0.695628 -1.41417 0
M  V30 14248 C 1585.47 -0.0189456 -2.32592 0
M  V30 14249 C 1586.47 0.76848 -1.50966 0
M  V30 14250 O 1587.67 0.674096 -1.66901 0
M  V30 14251 H 1584.05 0.0126742 -0.751893 0
M  V30 14252 H 1586.02 -0.804968 -2.87337 0
M  V30 14253 C 1584.77 0.903458 -3.35757 0
M  V30 14254 H 1584.09 0.306963 -3.9862 0
M  V30 14255 H 1585.53 1.34525 -4.02093 0
M  V30 14256 C 1583.99 2.01966 -2.69651 0
M  V30 14257 O 1584.52 3.10845 -2.54438 0
M  V30 14258 N 1582.72 1.79741 -2.28345 0
M  V30 14259 H 1582.27 0.911929 -2.40918 0
M  V30 14260 H 1582.23 2.54609 -1.84449 0
M  V30 14261 N 1586 1.51322 -0.440383 0
M  V30 14262 C 1586.95 2.27823 0.369526 0
M  V30 14263 C 1587.92 1.31543 1.01418 0
M  V30 14264 O 1589.1 1.60449 1.03251 0
M  V30 14265 C 1586.24 3.12553 1.46304 0
M  V30 14266 C 1585.36 4.23829 0.836217 0
M  V30 14267 C 1584.49 4.95865 1.90504 0
M  V30 14268 C 1583.53 5.99058 1.25681 0
M  V30 14269 N 1582.67 6.64489 2.26712 0
M  V30 14270 H 1587.51 2.96593 -0.289205 0
M  V30 14271 H 1585.04 1.46287 -0.154466 0
M  V30 14272 H 1587 3.60006 2.10836 0
M  V30 14273 H 1585.63 2.4589 2.09136 0
M  V30 14274 H 1584.68 3.80318 0.0791116 0
M  V30 14275 H 1586 4.97753 0.322989 0
M  V30 14276 H 1585.15 5.46881 2.6269 0
M  V30 14277 H 1583.89 4.21578 2.452 0
M  V30 14278 H 1582.89 5.47331 0.520422 0
M  V30 14279 H 1584.12 6.75303 0.717138 0
M  V30 14280 H 1582.07 5.93014 2.80483 0
M  V30 14281 H 1581.98 7.34188 1.80289 0
M  V30 14282 H 1583.25 7.20134 2.98373 0
M  V30 14283 N 1587.48 0.171848 1.5666 0
M  V30 14284 C 1588.73 -0.472034 1.9651 0
M  V30 14285 C 1589.05 -1.63743 1.05893 0
M  V30 14286 O 1588.32 -1.95498 0.125396 0
M  V30 14287 H 1586.9 -0.177377 0.725635 0
M  V30 14288 H 1589.56 0.253155 1.93249 0
M  V30 14289 H 1588.66 -0.831693 3.00814 0
M  V30 14290 N 1588.96 -1.5727 -0.101874 0
M  V30 14291 C 1590.23 -1.76745 -0.837888 0
M  V30 14292 C 1590.61 -0.751766 -1.9726 0
M  V30 14293 O 1589.96 0.221046 -2.27428 0
M  V30 14294 C 1590.17 -3.22302 -1.33875 0
M  V30 14295 C 1591.52 -3.85292 -1.78425 0
M  V30 14296 O 1592.54 -3.2601 -1.43514 0
M  V30 14297 O 1591.4 -4.89526 -2.42953 0
M  V30 14298 H 1588.5 -0.724294 -0.399157 0
M  V30 14299 H 1591.04 -1.69491 -0.0842821 0
M  V30 14300 H 1589.82 -3.87756 -0.525434 0
M  V30 14301 H 1589.44 -3.34162 -2.15456 0
M  V30 14302 N 1590.44 0.372521 -1.53134 0
M  V30 14303 C 1591.85 0.949671 -1.60742 0
M  V30 14304 C 1592.2 1.90475 -0.470501 0
M  V30 14305 O 1591.32 2.12594 0.404085 0
M  V30 14306 C 1591.92 1.72918 -2.9135 0
M  V30 14307 C 1590.48 2.25577 -3.01317 0
M  V30 14308 C 1589.62 1.06612 -2.55986 0
M  V30 14309 H 1592.57 0.151533 -1.57975 0
M  V30 14310 H 1592.6 2.58982 -2.78763 0
M  V30 14311 H 1592.11 1.0338 -3.74078 0
M  V30 14312 H 1590.21 2.98378 -2.23162 0
M  V30 14313 H 1590.32 2.53935 -4.06268 0
M  V30 14314 H 1588.69 1.43105 -2.10697 0
M  V30 14315 H 1589.47 0.38584 -3.41125 0
M  V30 14316 N 1591.91 1.44376 0.631925 0
M  V30 14317 C 1592.88 1.50825 1.72582 0
M  V30 14318 C 1593.88 0.390379 1.55989 0
M  V30 14319 O 1595.07 0.65297 1.61499 0
M  V30 14320 C 1592.2 1.38141 3.11657 0
M  V30 14321 H 1593.39 2.48265 1.68239 0
M  V30 14322 H 1590.94 1.31456 0.845514 0
M  V30 14323 H 1591.68 0.417905 3.21596 0
M  V30 14324 H 1591.46 2.19198 3.25107 0
M  V30 14325 H 1592.95 1.45633 3.91383 0
M  V30 14326 N 1593.39 -0.872258 1.31261 0
M  V30 14327 C 1594.62 -1.6632 1.23905 0
M  V30 14328 C 1595.04 -1.87109 -0.192878 0
M  V30 14329 O 1594.4 -1.4112 -1.1382 0
M  V30 14330 C 1594.45 -3.00979 1.98606 0
M  V30 14331 O 1593.55 -3.90642 1.32183 0
M  V30 14332 H 1592.89 -0.507736 0.427902 0
M  V30 14333 H 1595.42 -1.0877 1.73292 0
M  V30 14334 H 1595.43 -3.50931 2.08113 0
M  V30 14335 H 1594.11 -2.85168 3.02741 0
M  V30 14336 H 1592.68 -3.4909 1.31112 0
M  V30 14337 N 1594.87 -1.14184 -1.08627 0
M  V30 14338 C 1595.82 -0.795361 -2.13677 0
M  V30 14339 C 1596.8 0.214426 -1.59465 0
M  V30 14340 O 1598 0.0171053 -1.76992 0
M  V30 14341 C 1595.12 -0.272074 -3.4222 0
M  V30 14342 C 1594.21 -1.31125 -4.0332 0
M  V30 14343 N 1594.6 -2.51469 -4.38859 0
M  V30 14344 C 1592.9 -1.16095 -4.30625 0
M  V30 14345 C 1593.6 -3.17975 -4.871 0
M  V30 14346 N 1592.58 -2.45382 -4.85066 0
M  V30 14347 H 1596.38 -1.71086 -2.38971 0
M  V30 14348 H 1593.89 -1.02537 -1.25936 0
M  V30 14349 H 1595.89 -0.00556906 -4.169 0
M  V30 14350 H 1594.55 0.637644 -3.18377 0
M  V30 14351 H 1595.56 -2.88714 -4.29959 0
M  V30 14352 H 1592.24 -0.310066 -4.16347 0
M  V30 14353 H 1593.63 -4.20569 -5.23996 0
M  V30 14354 N 1596.35 1.26749 -0.936613 0
M  V30 14355 C 1597.6 1.93964 -0.581754 0
M  V30 14356 C 1597.92 1.73532 0.878449 0
M  V30 14357 O 1597.18 1.06295 1.64316 0
M  V30 14358 C 1597.48 3.4678 -0.864789 0
M  V30 14359 C 1597.14 3.87344 -2.30815 0
M  V30 14360 C 1595.81 3.98129 -2.70271 0
M  V30 14361 C 1598.16 4.07752 -3.24634 0
M  V30 14362 C 1595.49 4.26717 -4.02653 0
M  V30 14363 C 1597.84 4.37827 -4.56607 0
M  V30 14364 C 1596.5 4.46826 -4.95886 0
M  V30 14365 H 1595.77 0.709763 -0.212879 0
M  V30 14366 H 1598.42 1.50648 -1.18226 0
M  V30 14367 H 1596.72 3.91378 -0.181699 0
M  V30 14368 H 1598.42 3.96942 -0.569065 0
M  V30 14369 H 1595.01 3.79492 -1.99207 0
M  V30 14370 H 1599.19 3.98852 -2.95349 0
M  V30 14371 H 1594.45 4.31895 -4.32755 0
M  V30 14372 H 1598.62 4.52565 -5.293 0
M  V30 14373 H 1596.25 4.68732 -5.98494 0
M  V30 14374 N 1597.83 0.703118 1.41046 0
M  V30 14375 C 1599.07 0.236818 2.00708 0
M  V30 14376 C 1599.4 -1.17008 1.55994 0
M  V30 14377 O 1598.67 -1.79094 0.793871 0
M  V30 14378 H 1597.25 0.0845643 0.742198 0
M  V30 14379 H 1599.91 0.905964 1.72564 0
M  V30 14380 H 1599 0.260141 3.11014 0
M  V30 14381 N 1599.3 -1.51086 0.448402 0
M  V30 14382 C 1600.72 -1.86696 -0.0121264 0
M  V30 14383 C 1601.07 -1.36483 -1.40949 0
M  V30 14384 O 1600.19 -0.72024 -2.04062 0
M  V30 14385 C 1600.79 -3.38788 -0.0287814 0
M  V30 14386 C 1599.35 -3.73892 -0.433758 0
M  V30 14387 C 1598.49 -2.74869 0.366362 0
M  V30 14388 H 1601.44 -1.44153 0.663744 0
M  V30 14389 H 1601.46 -3.71204 -0.835915 0
M  V30 14390 H 1600.98 -3.75304 0.988368 0
M  V30 14391 H 1599.08 -3.4297 -1.4561 0
M  V30 14392 H 1599.19 -4.78862 -0.150869 0
M  V30 14393 H 1597.55 -2.54085 -0.176862 0
M  V30 14394 H 1598.34 -3.14228 1.3826 0
M  V30 14395 N 1600.78 -0.180154 -1.56567 0
M  V30 14396 C 1602.19 0.335054 -1.83669 0
M  V30 14397 C 1602.54 1.62443 -1.1003 0
M  V30 14398 O 1601.67 2.13448 -0.356205 0
M  V30 14399 C 1602.26 0.61468 -3.33177 0
M  V30 14400 C 1600.82 1.0743 -3.60743 0
M  V30 14401 C 1599.97 0.114877 -2.77062 0
M  V30 14402 H 1602.92 -0.404245 -1.53465 0
M  V30 14403 H 1602.94 1.46574 -3.51136 0
M  V30 14404 H 1602.45 -0.323923 -3.86746 0
M  V30 14405 H 1600.56 2.0277 -3.12594 0
M  V30 14406 H 1600.67 0.977349 -4.69025 0
M  V30 14407 H 1599.03 0.613933 -2.4719 0
M  V30 14408 H 1599.82 -0.817904 -3.33414 0
M  V30 14409 N 1602.26 1.57322 0.0935319 0
M  V30 14410 C 1603.51 1.858 0.795165 0
M  V30 14411 C 1603.83 0.769078 1.79193 0
M  V30 14412 O 1603.1 -0.204511 1.9483 0
M  V30 14413 H 1601.68 0.68557 0.296653 0
M  V30 14414 H 1604.34 1.94756 0.0747892 0
M  V30 14415 H 1603.44 2.82588 1.32479 0
M  V30 14416 N 1603.74 -0.364395 1.53329 0
M  V30 14417 C 1605.15 -0.941133 1.61244 0
M  V30 14418 C 1605.5 -1.90223 0.480596 0
M  V30 14419 O 1604.63 -2.12805 -0.392805 0
M  V30 14420 C 1605.22 -1.7137 2.92263 0
M  V30 14421 C 1603.78 -2.23976 3.02509 0
M  V30 14422 C 1602.93 -1.05253 2.56548 0
M  V30 14423 H 1605.88 -0.143153 1.58053 0
M  V30 14424 H 1605.9 -2.575 2.80132 0
M  V30 14425 H 1605.41 -1.01395 3.74621 0
M  V30 14426 H 1603.51 -2.9719 2.24741 0
M  V30 14427 H 1603.62 -2.51777 4.07609 0
M  V30 14428 H 1601.99 -1.41986 2.11452 0
M  V30 14429 H 1602.77 -0.367744 3.41325 0
M  V30 14430 N 1605.22 -1.44709 -0.62426 0
M  V30 14431 C 1606.16 -1.52104 -1.73589 0
M  V30 14432 C 1607.13 -0.368193 -1.61968 0
M  V30 14433 O 1608.32 -0.579374 -1.81791 0
M  V30 14434 C 1605.46 -1.4778 -3.11857 0
M  V30 14435 C 1604.57 -2.73491 -3.34405 0
M  V30 14436 C 1603.71 -2.60953 -4.62685 0
M  V30 14437 C 1602.75 -3.81795 -4.78434 0
M  V30 14438 N 1601.88 -3.67892 -5.97997 0
M  V30 14439 H 1606.72 -2.47077 -1.66604 0
M  V30 14440 H 1604.26 -1.22617 -0.812616 0
M  V30 14441 H 1606.22 -1.43263 -3.91831 0
M  V30 14442 H 1604.85 -0.563694 -3.1784 0
M  V30 14443 H 1603.9 -2.88166 -2.48324 0
M  V30 14444 H 1605.21 -3.6317 -3.4192 0
M  V30 14445 H 1604.37 -2.54308 -5.50829 0
M  V30 14446 H 1603.1 -1.68846 -4.57539 0
M  V30 14447 H 1602.11 -3.88817 -3.88717 0
M  V30 14448 H 1603.33 -4.74947 -4.85388 0
M  V30 14449 H 1601.28 -2.78541 -5.93928 0
M  V30 14450 H 1601.2 -4.51193 -6.06598 0
M  V30 14451 H 1602.47 -3.6515 -6.88684 0
M  V30 14452 N 1606.69 0.865285 -1.31722 0
M  V30 14453 C 1607.94 1.61549 -1.21435 0
M  V30 14454 C 1608.26 1.9368 0.226501 0
M  V30 14455 O 1607.53 1.58705 1.14846 0
M  V30 14456 H 1606.11 0.598905 -0.446454 0
M  V30 14457 H 1608.78 1.03563 -1.65108 0
M  V30 14458 H 1607.87 2.55708 -1.78941 0
M  V30 14459 N 1608.17 1.14759 1.0802 0
M  V30 14460 C 1609.08 0.851934 2.18585 0
M  V30 14461 C 1610.1 -0.16914 1.73176 0
M  V30 14462 O 1611.27 0.00330114 2.014 0
M  V30 14463 C 1608.34 0.337977 3.45049 0
M  V30 14464 C 1607.4 1.4221 4.05061 0
M  V30 14465 C 1606.63 0.932574 5.25489 0
M  V30 14466 O 1606.86 -0.224457 5.69958 0
M  V30 14467 O 1605.79 1.7133 5.77001 0
M  V30 14468 H 1609.62 1.77605 2.46354 0
M  V30 14469 H 1607.2 0.926159 1.17229 0
M  V30 14470 H 1609.08 0.0574734 4.21361 0
M  V30 14471 H 1607.76 -0.558363 3.18848 0
M  V30 14472 H 1606.67 1.75612 3.3032 0
M  V30 14473 H 1608 2.29311 4.3552 0
M  V30 14474 N 1609.65 -1.26251 0.943322 0
M  V30 14475 C 1611.06 -1.75591 0.634391 0
M  V30 14476 C 1611.41 -1.76812 -0.850406 0
M  V30 14477 O 1610.54 -1.38162 -1.66554 0
M  V30 14478 C 1611.13 -3.18871 1.14484 0
M  V30 14479 C 1609.69 -3.65817 0.886285 0
M  V30 14480 C 1608.84 -2.4523 1.2945 0
M  V30 14481 H 1611.79 -1.12297 1.12139 0
M  V30 14482 H 1611.81 -3.77205 0.499654 0
M  V30 14483 H 1611.32 -3.17951 2.22551 0
M  V30 14484 H 1609.42 -3.72165 -0.179913 0
M  V30 14485 H 1609.54 -4.54523 1.5148 0
M  V30 14486 H 1607.9 -2.44519 0.712919 0
M  V30 14487 H 1608.68 -2.47009 2.38415 0
M  V30 14488 N 1611.13 -0.710588 -1.40671 0
M  V30 14489 C 1612.38 -0.247459 -2.00579 0
M  V30 14490 C 1612.7 1.16179 -1.56612 0
M  V30 14491 O 1611.97 1.7867 -0.803358 0
M  V30 14492 H 1610.55 -0.0884992 -0.741739 0
M  V30 14493 H 1613.21 -0.915103 -1.72081 0
M  V30 14494 H 1612.31 -0.276631 -3.10872 0
M  V30 14495 N 1612.61 1.50847 -0.456408 0
M  V30 14496 C 1613.83 2.07139 0.104054 0
M  V30 14497 C 1614.26 1.31966 1.34039 0
M  V30 14498 O 1613.62 0.363038 1.77628 0
M  V30 14499 C 1613.66 3.5853 0.385794 0
M  V30 14500 O 1612.77 3.85351 1.46895 0
M  V30 14501 H 1612.11 0.663968 -0.00651246 0
M  V30 14502 H 1614.64 1.94226 -0.64323 0
M  V30 14503 H 1614.65 4.03097 0.630644 0
M  V30 14504 H 1613.32 4.12665 -0.51773 0
M  V30 14505 H 1611.9 3.52635 1.21256 0
M  V30 14506 N 1614.09 0.188454 1.56469 0
M  V30 14507 C 1615.5 -0.325309 1.83844 0
M  V30 14508 C 1615.85 -1.61858 1.1089 0
M  V30 14509 O 1614.97 -2.13256 0.36752 0
M  V30 14510 C 1615.57 -0.597002 3.33499 0
M  V30 14511 C 1614.13 -1.05515 3.61308 0
M  V30 14512 C 1613.27 -0.100182 2.77119 0
M  V30 14513 H 1616.22 0.412378 1.53249 0
M  V30 14514 H 1616.25 -1.44709 3.51908 0
M  V30 14515 H 1615.76 0.344429 3.86569 0
M  V30 14516 H 1613.86 -2.01109 3.13665 0
M  V30 14517 H 1613.97 -0.952461 4.69537 0
M  V30 14518 H 1612.34 -0.600815 2.47512 0
M  V30 14519 H 1613.12 0.835574 3.32976 0
M  V30 14520 N 1615.56 -1.5737 -0.0851874 0
M  V30 14521 C 1616.81 -1.86219 -0.7853 0
M  V30 14522 C 1617.13 -0.77857 -1.78783 0
M  V30 14523 O 1616.4 0.194176 -1.94935 0
M  V30 14524 H 1614.98 -0.687134 -0.293013 0
M  V30 14525 H 1617.64 -1.94793 -0.0644597 0
M  V30 14526 H 1616.74 -2.83286 -1.30978 0
M  V30 14527 N 1617.04 0.356258 -1.53521 0
M  V30 14528 C 1618.28 1.10649 -1.71861 0
M  V30 14529 C 1618.65 1.86277 -0.465286 0
M  V30 14530 O 1619.85 2.63613 -0.52552 0
M  V30 14531 C 1618.12 2.03282 -2.93958 0
M  V30 14532 S 1619.68 2.85699 -3.33048 0
M  V30 14533 H 1616.49 0.374066 -0.604645 0
M  V30 14534 H 1619.1 0.386526 -1.91641 0
M  V30 14535 H 1617.8 1.46501 -3.83361 0
M  V30 14536 H 1617.33 2.79736 -2.76607 0
M  V30 14537 H 1619.35 4.05634 -2.85789 0
M  V30 14538 N 1618.52 1.45038 0.616577 0
M  V30 14539 C 1619.93 1.4316 1.19842 0
M  V30 14540 C 1620.28 0.154504 1.95591 0
M  V30 14541 O 1619.41 -0.744409 2.03193 0
M  V30 14542 C 1620 2.59354 2.17993 0
M  V30 14543 C 1618.56 2.60625 2.71573 0
M  V30 14544 C 1617.71 2.35243 1.4682 0
M  V30 14545 H 1620.66 1.53408 0.406402 0
M  V30 14546 H 1620.68 2.32939 3.00865 0
M  V30 14547 H 1620.19 3.52288 1.62833 0
M  V30 14548 H 1618.29 1.71672 3.30695 0
M  V30 14549 H 1618.41 3.59568 3.16619 0
M  V30 14550 H 1616.77 1.84622 1.75462 0
M  V30 14551 H 1617.55 3.3031 0.935414 0
M  V30 14552 N 1620 -0.858287 1.32179 0
M  V30 14553 C 1621.25 -1.60902 1.2229 0
M  V30 14554 C 1621.57 -1.93797 -0.216227 0
M  V30 14555 O 1620.84 -1.59312 -1.14002 0
M  V30 14556 H 1619.42 -0.596529 0.449624 0
M  V30 14557 H 1622.08 -1.02686 1.65655 0
M  V30 14558 H 1621.17 -2.54755 1.80295 0
M  V30 14559 N 1621.48 -1.1533 -1.07409 0
M  V30 14560 C 1622.43 -0.81798 -2.12822 0
M  V30 14561 C 1623.41 0.1975 -1.59683 0
M  V30 14562 O 1624.6 -0.00166798 -1.77 0
M  V30 14563 C 1621.73 -0.308356 -3.41912 0
M  V30 14564 C 1620.82 -1.35396 -4.01906 0
M  V30 14565 N 1621.21 -2.5611 -4.36167 0
M  V30 14566 C 1619.51 -1.20656 -4.29369 0
M  V30 14567 C 1620.21 -3.23124 -4.837 0
M  V30 14568 N 1619.18 -2.50513 -4.82436 0
M  V30 14569 H 1622.98 -1.73611 -2.37143 0
M  V30 14570 H 1620.5 -1.03867 -1.24842 0
M  V30 14571 H 1622.5 -0.0497865 -4.1687 0
M  V30 14572 H 1621.16 0.60384 -3.19036 0
M  V30 14573 H 1622.17 -2.93258 -4.26873 0
M  V30 14574 H 1618.84 -0.354208 -4.15995 0
M  V30 14575 H 1620.23 -4.26103 -5.19505 0
M  V30 14576 N 1622.95 1.25748 -0.950004 0
M  V30 14577 C 1624.2 1.93336 -0.602294 0
M  V30 14578 C 1624.53 1.74454 0.859994 0
M  V30 14579 O 1623.78 1.08032 1.6318 0
M  V30 14580 C 1624.08 3.45843 -0.901521 0
M  V30 14581 C 1623.75 3.84874 -2.3491 0
M  V30 14582 C 1622.41 3.9524 -2.74479 0
M  V30 14583 C 1624.76 4.04286 -3.28941 0
M  V30 14584 C 1622.09 4.22422 -4.07157 0
M  V30 14585 C 1624.44 4.32959 -4.61225 0
M  V30 14586 C 1623.11 4.41541 -5.00597 0
M  V30 14587 H 1622.38 0.707465 -0.220395 0
M  V30 14588 H 1625.02 1.49386 -1.19817 0
M  V30 14589 H 1623.33 3.91164 -0.2232 0
M  V30 14590 H 1625.03 3.96316 -0.611134 0
M  V30 14591 H 1621.62 3.77358 -2.03221 0
M  V30 14592 H 1625.8 3.95697 -2.99563 0
M  V30 14593 H 1621.06 4.27281 -4.37311 0
M  V30 14594 H 1625.23 4.46925 -5.3407 0
M  V30 14595 H 1622.86 4.62358 -6.03431 0
M  V30 14596 N 1624.43 0.718038 1.40292 0
M  V30 14597 C 1625.68 0.258092 2.00445 0
M  V30 14598 C 1626 -1.15347 1.57226 0
M  V30 14599 O 1625.27 -1.78241 0.812822 0
M  V30 14600 H 1623.85 0.0924316 0.741259 0
M  V30 14601 H 1626.51 0.924216 1.71593 0
M  V30 14602 H 1625.61 0.293113 3.10721 0
M  V30 14603 N 1625.91 -1.50602 0.464402 0
M  V30 14604 C 1626.87 -2.26929 -0.32185 0
M  V30 14605 C 1627.87 -1.3144 -0.926289 0
M  V30 14606 O 1629.06 -1.54924 -0.796511 0
M  V30 14607 C 1626.2 -3.08155 -1.45785 0
M  V30 14608 H 1627.39 -2.97881 0.347436 0
M  V30 14609 H 1624.94 -1.54768 0.218278 0
M  V30 14610 H 1625.68 -2.41684 -2.16239 0
M  V30 14611 H 1625.46 -3.78321 -1.03031 0
M  V30 14612 H 1626.95 -3.65899 -2.01266 0
M  V30 14613 N 1627.39 -0.19675 -1.56367 0
M  V30 14614 C 1628.61 0.450245 -2.02454 0
M  V30 14615 C 1629.04 1.54287 -1.07597 0
M  V30 14616 O 1628.4 1.81202 -0.0597529 0
M  V30 14617 C 1628.44 0.982087 -3.46969 0
M  V30 14618 O 1627.55 2.09489 -3.5523 0
M  V30 14619 H 1626.89 0.105022 -0.655642 0
M  V30 14620 H 1629.42 -0.308112 -2.02267 0
M  V30 14621 H 1629.43 1.29826 -3.86793 0
M  V30 14622 H 1628.1 0.18224 -4.15501 0
M  V30 14623 H 1626.68 1.78723 -3.27281 0
M  V30 14624 N 1628.87 1.57413 0.0768405 0
M  V30 14625 C 1630.11 1.86633 0.775414 0
M  V30 14626 C 1630.44 0.788041 1.78367 0
M  V30 14627 O 1629.71 -0.183835 1.95036 0
M  V30 14628 H 1628.29 0.688678 0.289365 0
M  V30 14629 H 1630.95 1.94825 0.0541285 0
M  V30 14630 H 1630.04 2.83977 1.29474 0
M  V30 14631 N 1630.34 -0.348112 1.53707 0
M  V30 14632 C 1631.25 -1.45079 1.84361 0
M  V30 14633 C 1632.27 -1.5779 0.733375 0
M  V30 14634 O 1633.45 -1.73353 1.02522 0
M  V30 14635 C 1630.51 -2.80127 2.04278 0
M  V30 14636 C 1629.57 -2.76799 3.28148 0
M  V30 14637 C 1628.81 -4.05406 3.47105 0
M  V30 14638 O 1629.03 -5.02454 2.69992 0
M  V30 14639 O 1627.96 -4.10155 4.40519 0
M  V30 14640 H 1631.79 -1.22093 2.78077 0
M  V30 14641 H 1629.37 -0.539863 1.39305 0
M  V30 14642 H 1631.26 -3.60115 2.18849 0
M  V30 14643 H 1629.93 -3.03055 1.13751 0
M  V30 14644 H 1628.84 -1.95448 3.18984 0
M  V30 14645 H 1630.17 -2.58826 4.18653 0
M  V30 14646 N 1631.82 -1.45363 -0.608876 0
M  V30 14647 C 1632.75 -1.49944 -1.73348 0
M  V30 14648 C 1633.77 -0.390352 -1.58051 0
M  V30 14649 O 1634.96 -0.657338 -1.65956 0
M  V30 14650 C 1632.06 -1.33886 -3.11332 0
M  V30 14651 C 1631.23 -2.58445 -3.52881 0
M  V30 14652 C 1630.29 -2.36963 -4.69825 0
M  V30 14653 O 1629.31 -3.10569 -4.77007 0
M  V30 14654 N 1630.52 -1.41442 -5.63005 0
M  V30 14655 H 1633.28 -2.46902 -1.69882 0
M  V30 14656 H 1630.84 -1.41086 -0.794119 0
M  V30 14657 H 1632.83 -1.17327 -3.8732 0
M  V30 14658 H 1631.4 -0.452095 -3.09314 0
M  V30 14659 H 1630.62 -2.90129 -2.66869 0
M  V30 14660 H 1631.91 -3.41245 -3.77398 0
M  V30 14661 H 1631.31 -0.806941 -5.59915 0
M  V30 14662 H 1629.87 -1.30855 -6.3853 0
M  V30 14663 N 1633.3 0.851265 -1.32632 0
M  V30 14664 C 1634.55 1.60252 -1.23141 0
M  V30 14665 C 1634.87 1.93909 0.205946 0
M  V30 14666 O 1634.14 1.59914 1.13156 0
M  V30 14667 H 1632.72 0.594137 -0.452781 0
M  V30 14668 H 1635.38 1.01806 -1.66197 0
M  V30 14669 H 1634.48 2.53796 -1.81643 0
M  V30 14670 N 1634.78 1.15898 1.06796 0
M  V30 14671 C 1635.71 0.88395 2.16122 0
M  V30 14672 C 1636.69 -0.167708 1.69271 0
M  V30 14673 O 1637.87 -0.0208846 1.94189 0
M  V30 14674 C 1635 0.378656 3.4523 0
M  V30 14675 C 1633.96 1.36764 4.05561 0
M  V30 14676 C 1633.28 0.720956 5.29817 0
M  V30 14677 C 1634.58 2.73554 4.44933 0
M  V30 14678 H 1636.28 1.79818 2.39386 0
M  V30 14679 H 1633.82 0.866008 1.15049 0
M  V30 14680 H 1635.78 0.17376 4.21042 0
M  V30 14681 H 1634.5 -0.571063 3.21569 0
M  V30 14682 H 1633.16 1.55899 3.318 0
M  V30 14683 H 1632.81 -0.235089 5.0245 0
M  V30 14684 H 1632.51 1.38101 5.71141 0
M  V30 14685 H 1634.03 0.525963 6.0833 0
M  V30 14686 H 1635.45 2.58231 5.11849 0
M  V30 14687 H 1633.84 3.35986 4.97226 0
M  V30 14688 H 1634.91 3.29192 3.56034 0
M  V30 14689 N 1636.26 -1.25243 0.956659 0
M  V30 14690 C 1637.67 -1.74909 0.652979 0
M  V30 14691 C 1638.02 -1.77704 -0.831605 0
M  V30 14692 O 1637.14 -1.39921 -1.65079 0
M  V30 14693 C 1637.74 -3.17639 1.1786 0
M  V30 14694 C 1636.3 -3.64856 0.925034 0
M  V30 14695 C 1635.44 -2.43844 1.32044 0
M  V30 14696 H 1638.4 -1.11101 1.13324 0
M  V30 14697 H 1638.42 -3.76654 0.539633 0
M  V30 14698 H 1637.93 -3.15572 2.25911 0
M  V30 14699 H 1636.03 -3.72335 -0.14043 0
M  V30 14700 H 1636.14 -4.5289 1.56292 0
M  V30 14701 H 1634.51 -2.43749 0.738813 0
M  V30 14702 H 1635.29 -2.44466 2.41021 0
M  V30 14703 N 1637.73 -0.725468 -1.3991 0
M  V30 14704 C 1638.98 -0.268719 -2.00306 0
M  V30 14705 C 1639.3 1.14511 -1.57836 0
M  V30 14706 O 1638.57 1.77808 -0.822263 0
M  V30 14707 H 1637.15 -0.0963614 -0.740759 0
M  V30 14708 H 1639.82 -0.933303 -1.71101 0
M  V30 14709 H 1638.91 -0.309587 -3.10561 0
M  V30 14710 N 1639.21 1.50354 -0.472382 0
M  V30 14711 C 1640.46 2.01526 0.0838536 0
M  V30 14712 C 1640.77 1.35913 1.40667 0
M  V30 14713 O 1641.98 1.78248 2.04792 0
M  V30 14714 C 1640.44 3.59344 0.199949 0
M  V30 14715 C 1640.04 4.33916 -1.11451 0
M  V30 14716 C 1641.79 4.18553 0.708075 0
M  V30 14717 C 1639.7 5.83521 -0.962138 0
M  V30 14718 H 1638.63 0.753182 0.0351127 0
M  V30 14719 H 1641.28 1.73153 -0.607474 0
M  V30 14720 H 1639.66 3.8431 0.955088 0
M  V30 14721 H 1640.83 4.20673 -1.8807 0
M  V30 14722 H 1639.15 3.86322 -1.55385 0
M  V30 14723 H 1641.74 5.28075 0.839126 0
M  V30 14724 H 1642.09 3.80019 1.69973 0
M  V30 14725 H 1642.62 3.97799 0.0102847 0
M  V30 14726 H 1639.36 6.26529 -1.9272 0
M  V30 14727 H 1638.88 5.99334 -0.236348 0
M  V30 14728 H 1640.56 6.43933 -0.629276 0
M  V30 14729 N 1640.69 0.205039 1.56261 0
M  V30 14730 C 1641.62 -0.743854 2.16794 0
M  V30 14731 C 1642.64 -1.16959 1.13245 0
M  V30 14732 O 1643.83 -1.1036 1.40296 0
M  V30 14733 C 1640.93 -2.01717 2.7233 0
M  V30 14734 C 1640.1 -1.74965 4.00882 0
M  V30 14735 C 1639.16 -2.86841 4.41145 0
M  V30 14736 O 1638.18 -2.5602 5.08372 0
M  V30 14737 N 1639.39 -4.15425 4.05466 0
M  V30 14738 H 1642.15 -0.226145 2.98846 0
M  V30 14739 H 1639.71 0.0234276 1.61883 0
M  V30 14740 H 1641.7 -2.7572 2.96244 0
M  V30 14741 H 1640.27 -2.44582 1.94675 0
M  V30 14742 H 1639.49 -0.846903 3.84995 0
M  V30 14743 H 1640.78 -1.54501 4.84775 0
M  V30 14744 H 1640.18 -4.43314 3.5141 0
M  V30 14745 H 1638.74 -4.86023 4.3431 0
M  V30 14746 N 1642.17 -1.57451 -0.0684915 0
M  V30 14747 C 1643.42 -1.87041 -0.765505 0
M  V30 14748 C 1643.74 -0.797489 -1.77947 0
M  V30 14749 O 1643.01 0.17349 -1.9513 0
M  V30 14750 H 1641.59 -0.690203 -0.285708 0
M  V30 14751 H 1644.25 -1.94851 -0.0437957 0
M  V30 14752 H 1643.35 -2.8466 -1.27966 0
M  V30 14753 N 1643.65 0.339955 -1.5389 0
M  V30 14754 C 1645.06 0.915362 -1.62721 0
M  V30 14755 C 1645.41 1.89434 -0.510798 0
M  V30 14756 O 1644.53 2.13403 0.3589 0
M  V30 14757 C 1645.13 1.66699 -2.94953 0
M  V30 14758 C 1643.69 2.19135 -3.06034 0
M  V30 14759 C 1642.84 1.01159 -2.5819 0
M  V30 14760 H 1645.79 0.11799 -1.58261 0
M  V30 14761 H 1645.81 2.53011 -2.84193 0
M  V30 14762 H 1645.32 0.954219 -3.76186 0
M  V30 14763 H 1643.42 2.93577 -2.29441 0
M  V30 14764 H 1643.53 2.4526 -4.11563 0
M  V30 14765 H 1641.9 1.38604 -2.13685 0
M  V30 14766 H 1642.68 0.313396 -3.41867 0
M  V30 14767 N 1645.13 1.45684 0.601159 0
M  V30 14768 C 1646.54 1.30232 0.922598 0
M  V30 14769 C 1646.74 0.260086 1.99814 0
M  V30 14770 O 1645.8 -0.343753 2.50149 0
M  V30 14771 C 1647.11 2.68318 1.35743 0
M  V30 14772 C 1648.66 2.76264 1.47129 0
M  V30 14773 C 1649.13 4.1489 1.93986 0
M  V30 14774 N 1650.62 4.17216 2.01209 0
M  V30 14775 C 1651.36 5.21354 2.387 0
M  V30 14776 N 1650.86 6.35833 2.75114 0
M  V30 14777 N 1652.65 5.08714 2.39095 0
M  V30 14778 H 1644.8 2.12117 -0.109634 0
M  V30 14779 H 1647.06 0.947902 0.0136129 0
M  V30 14780 H 1646.77 3.45804 0.64127 0
M  V30 14781 H 1646.64 2.97206 2.32268 0
M  V30 14782 H 1649.03 1.99077 2.17835 0
M  V30 14783 H 1649.11 2.51082 0.489028 0
M  V30 14784 H 1648.75 4.92565 1.23864 0
M  V30 14785 H 1648.68 4.37468 2.93137 0
M  V30 14786 H 1651.18 3.34607 1.75632 0
M  V30 14787 H 1651.49 7.11084 3.02622 0
M  V30 14788 H 1649.83 6.39224 2.72795 0
M  V30 14789 H 1653.02 4.18322 2.10057 0
M  V30 14790 H 1653.2 5.89989 2.67987 0
M  V30 14791 N 1646.6 -0.84422 1.33082 0
M  V30 14792 C 1647.85 -1.59596 1.2399 0
M  V30 14793 C 1648.17 -1.94016 -0.19566 0
M  V30 14794 O 1647.44 -1.60512 -1.12306 0
M  V30 14795 H 1646.02 -0.591727 0.455926 0
M  V30 14796 H 1648.68 -1.00924 1.66735 0
M  V30 14797 H 1647.78 -2.52829 1.82986 0
M  V30 14798 N 1648.08 -1.16463 -1.0618 0
M  V30 14799 C 1649.31 -0.97159 -1.83235 0
M  V30 14800 C 1649.73 0.475295 -1.81996 0
M  V30 14801 O 1649.09 1.33964 -1.22161 0
M  V30 14802 C 1649.14 -1.50504 -3.2769 0
M  V30 14803 O 1648.24 -0.712128 -4.06205 0
M  V30 14804 H 1647.58 -0.345676 -0.566925 0
M  V30 14805 H 1650.11 -1.54727 -1.33868 0
M  V30 14806 H 1650.12 -1.52301 -3.78508 0
M  V30 14807 H 1648.8 -2.55832 -3.27907 0
M  V30 14808 H 1647.37 -0.764756 -3.64974 0
M  V30 14809 N 1649.56 1.24734 -0.963288 0
M  V30 14810 C 1650.97 1.7456 -0.662246 0
M  V30 14811 C 1651.32 1.78143 0.822169 0
M  V30 14812 O 1650.45 1.40794 1.64335 0
M  V30 14813 C 1651.04 3.1701 -1.19542 0
M  V30 14814 C 1649.6 3.64361 -0.944371 0
M  V30 14815 C 1648.75 2.4314 -1.33335 0
M  V30 14816 H 1651.7 1.10498 -1.13911 0
M  V30 14817 H 1651.72 3.76362 -0.559601 0
M  V30 14818 H 1651.23 3.1437 -2.27581 0
M  V30 14819 H 1649.33 3.72405 0.120682 0
M  V30 14820 H 1649.45 4.52055 -1.58692 0
M  V30 14821 H 1647.81 2.43354 -0.751729 0
M  V30 14822 H 1648.59 2.43185 -2.42314 0
M  V30 14823 N 1651.04 0.732878 1.39523 0
M  V30 14824 C 1652.29 0.279338 2.0016 0
M  V30 14825 C 1652.61 -1.13673 1.58441 0
M  V30 14826 O 1651.88 -1.77369 0.831681 0
M  V30 14827 H 1650.46 0.100288 0.740237 0
M  V30 14828 H 1653.12 0.942363 1.70603 0
M  V30 14829 H 1652.21 0.326053 3.10392 0
M  V30 14830 N 1652.52 -1.50101 0.480349 0
M  V30 14831 C 1653.93 -1.59028 0.135048 0
M  V30 14832 C 1654.13 -1.48763 -1.35911 0
M  V30 14833 O 1653.19 -1.35089 -2.13324 0
M  V30 14834 C 1654.5 -2.92594 0.693483 0
M  V30 14835 C 1656.05 -3.06011 0.657737 0
M  V30 14836 C 1656.52 -4.42166 1.19388 0
M  V30 14837 N 1658.01 -4.48603 1.15368 0
M  V30 14838 C 1658.75 -5.52363 1.53893 0
M  V30 14839 N 1658.25 -6.6333 1.99911 0
M  V30 14840 N 1660.04 -5.42959 1.45438 0
M  V30 14841 H 1652.19 -1.55017 1.45202 0
M  V30 14842 H 1654.45 -0.733118 0.601034 0
M  V30 14843 H 1654.16 -3.0561 1.74056 0
M  V30 14844 H 1654.03 -3.76932 0.142238 0
M  V30 14845 H 1656.42 -2.92637 -0.38045 0
M  V30 14846 H 1656.5 -2.23408 1.24589 0
M  V30 14847 H 1656.14 -4.5629 2.23074 0
M  V30 14848 H 1656.07 -5.23376 0.58185 0
M  V30 14849 H 1658.57 -3.68979 0.816271 0
M  V30 14850 H 1658.88 -7.38576 2.27431 0
M  V30 14851 H 1657.22 -6.64426 2.03871 0
M  V30 14852 H 1660.41 -4.55156 1.09321 0
M  V30 14853 H 1660.59 -6.23701 1.75786 0
M  V30 14854 N 1653.99 -0.213323 -1.5615 0
M  V30 14855 C 1655.4 0.29602 -1.84338 0
M  V30 14856 C 1655.76 1.60073 -1.13451 0
M  V30 14857 O 1654.88 2.12645 -0.4014 0
M  V30 14858 C 1655.48 0.54387 -3.34406 0
M  V30 14859 C 1654.03 0.997539 -3.62941 0
M  V30 14860 C 1653.18 0.0560823 -2.77243 0
M  V30 14861 H 1656.13 -0.436707 -1.52573 0
M  V30 14862 H 1656.15 1.39093 -3.54166 0
M  V30 14863 H 1655.67 -0.405885 -3.85972 0
M  V30 14864 H 1653.77 1.96094 -3.16825 0
M  V30 14865 H 1653.88 0.877642 -4.70993 0
M  V30 14866 H 1652.24 0.561362 -2.48437 0
M  V30 14867 H 1653.03 -0.888442 -3.31605 0
M  V30 14868 N 1655.47 1.57485 0.0601405 0
M  V30 14869 C 1656.72 1.87445 0.755575 0
M  V30 14870 C 1657.04 0.806915 1.77522 0
M  V30 14871 O 1656.31 -0.163139 1.9522 0
M  V30 14872 H 1654.89 0.691708 0.282044 0
M  V30 14873 H 1657.55 1.94871 0.0334616 0
M  V30 14874 H 1656.65 2.85334 1.26455 0
M  V30 14875 N 1656.95 -0.331789 1.54068 0
M  V30 14876 C 1658.36 -0.906719 1.63204 0
M  V30 14877 C 1658.71 -1.89161 0.520837 0
M  V30 14878 O 1657.84 -2.1359 -0.347577 0
M  V30 14879 C 1658.43 -1.65132 2.95832 0
M  V30 14880 C 1656.99 -2.17509 3.07192 0
M  V30 14881 C 1656.14 -0.99788 2.58723 0
M  V30 14882 H 1659.09 -0.109595 1.58321 0
M  V30 14883 H 1659.11 -2.515 2.85531 0
M  V30 14884 H 1658.62 -0.934255 3.76687 0
M  V30 14885 H 1656.72 -2.92356 2.30995 0
M  V30 14886 H 1656.84 -2.43074 4.12858 0
M  V30 14887 H 1655.2 -1.37469 2.14417 0
M  V30 14888 H 1655.98 -0.295261 3.42028 0
M  V30 14889 N 1658.43 -1.46001 -0.593424 0
M  V30 14890 C 1659.84 -1.45049 -1.17549 0
M  V30 14891 C 1660.19 -0.185601 -1.9532 0
M  V30 14892 O 1659.32 0.711989 -2.04352 0
M  V30 14893 C 1659.91 -2.62789 -2.13839 0
M  V30 14894 C 1658.47 -2.64912 -2.67392 0
M  V30 14895 C 1657.62 -2.37549 -1.43059 0
M  V30 14896 H 1660.57 -1.54035 -0.381944 0
M  V30 14897 H 1660.59 -2.37696 -2.97121 0
M  V30 14898 H 1660.1 -3.54834 -1.57208 0
M  V30 14899 H 1658.2 -1.76911 -3.27922 0
M  V30 14900 H 1658.31 -3.6456 -3.10858 0
M  V30 14901 H 1656.68 -1.8739 -1.72503 0
M  V30 14902 H 1657.46 -3.31757 -0.882746 0
M  V30 14903 N 1659.91 0.83715 -1.33527 0
M  V30 14904 C 1661.15 1.58937 -1.24834 0
M  V30 14905 C 1661.48 1.94117 0.185368 0
M  V30 14906 O 1660.75 1.61105 1.11453 0
M  V30 14907 H 1659.33 0.589301 -0.459057 0
M  V30 14908 H 1661.99 1.00038 -1.67267 0
M  V30 14909 H 1661.08 2.51855 -1.84325 0
M  V30 14910 N 1661.38 1.17024 1.05561 0
M  V30 14911 C 1662.61 0.981293 1.82717 0
M  V30 14912 C 1663.03 -0.465636 1.82246 0
M  V30 14913 O 1662.39 -1.33315 1.22869 0
M  V30 14914 C 1662.44 1.52239 3.26888 0
M  V30 14915 O 1661.54 0.73366 4.05822 0
M  V30 14916 H 1660.89 0.348677 0.565084 0
M  V30 14917 H 1663.42 1.55435 1.33046 0
M  V30 14918 H 1663.43 1.54306 3.77695 0
M  V30 14919 H 1662.1 2.57567 3.26545 0
M  V30 14920 H 1660.68 0.784101 3.64563 0
M  V30 14921 N 1662.86 -1.24221 0.969889 0
M  V30 14922 C 1664.09 -1.96943 0.650262 0
M  V30 14923 C 1664.51 -1.71437 -0.774018 0
M  V30 14924 O 1663.87 -0.979428 -1.52568 0
M  V30 14925 C 1663.92 -3.48303 0.933682 0
M  V30 14926 O 1663.02 -4.12395 0.0202425 0
M  V30 14927 H 1662.36 -0.616902 0.245618 0
M  V30 14928 H 1664.89 -1.57939 1.30063 0
M  V30 14929 H 1664.9 -3.98701 0.866106 0
M  V30 14930 H 1663.58 -3.66194 1.97166 0
M  V30 14931 H 1662.16 -3.72632 0.141327 0
M  V30 14932 N 1664.34 -0.740267 -1.39132 0
M  V30 14933 C 1665.59 -0.289949 -2.00009 0
M  V30 14934 C 1665.91 1.12831 -1.59042 0
M  V30 14935 O 1665.18 1.76926 -0.841076 0
M  V30 14936 H 1663.76 -0.104213 -0.739695 0
M  V30 14937 H 1666.42 -0.951398 -1.70101 0
M  V30 14938 H 1665.52 -0.342509 -3.10215 0
M  V30 14939 N 1665.82 1.49844 -0.488302 0
M  V30 14940 C 1667.23 1.86663 -0.037377 0
M  V30 14941 C 1667.58 1.40172 1.37281 0
M  V30 14942 O 1666.71 0.77409 2.02081 0
M  V30 14943 C 1667.3 3.38745 -0.0610523 0
M  V30 14944 C 1665.86 3.74911 0.334475 0
M  V30 14945 C 1665.01 2.73801 -0.439109 0
M  V30 14946 H 1667.96 1.42343 -0.70173 0
M  V30 14947 H 1667.98 3.7329 0.737203 0
M  V30 14948 H 1667.49 3.72551 -1.08753 0
M  V30 14949 H 1665.59 3.4671 1.36466 0
M  V30 14950 H 1665.7 4.79094 0.0238536 0
M  V30 14951 H 1664.07 2.54465 0.109433 0
M  V30 14952 H 1664.85 3.10452 -1.46542 0
M  V30 14953 N 1667.3 0.221601 1.56034 0
M  V30 14954 C 1668.71 -0.28624 1.84493 0
M  V30 14955 C 1669.06 -1.59469 1.14298 0
M  V30 14956 O 1668.18 -2.12429 0.412672 0
M  V30 14957 C 1668.78 -0.526128 3.3469 0
M  V30 14958 C 1667.34 -0.978278 3.63465 0
M  V30 14959 C 1666.48 -0.0413786 2.77269 0
M  V30 14960 H 1669.44 0.444792 1.52339 0
M  V30 14961 H 1669.46 -1.37212 3.54899 0
M  V30 14962 H 1668.97 0.426348 3.85751 0
M  V30 14963 H 1667.07 -1.94411 3.1786 0
M  V30 14964 H 1667.18 -0.852651 4.71452 0
M  V30 14965 H 1665.55 -0.548179 2.48731 0
M  V30 14966 H 1666.33 0.906016 3.31129 0
M  V30 14967 N 1668.77 -1.57515 -0.0517878 0
M  V30 14968 C 1670.02 -1.87843 -0.745624 0
M  V30 14969 C 1670.34 -0.816318 -1.77091 0
M  V30 14970 O 1669.61 0.152784 -1.95303 0
M  V30 14971 H 1668.19 -0.693194 -0.278372 0
M  V30 14972 H 1670.86 -1.94886 -0.0231267 0
M  V30 14973 H 1669.95 -2.86001 -1.2494 0
M  V30 14974 N 1670.25 0.323614 -1.54242 0
M  V30 14975 C 1671.49 1.06978 -1.74169 0
M  V30 14976 C 1671.86 1.85248 -0.504693 0
M  V30 14977 O 1673.06 2.62439 -0.581318 0
M  V30 14978 C 1671.33 1.97001 -2.98203 0
M  V30 14979 S 1672.89 2.78571 -3.39034 0
M  V30 14980 H 1669.71 0.361157 -0.612443 0
M  V30 14981 H 1672.31 0.345789 -1.92418 0
M  V30 14982 H 1671.01 1.38336 -3.86382 0
M  V30 14983 H 1670.54 2.73806 -2.82478 0
M  V30 14984 H 1672.56 3.99481 -2.94329 0
M  V30 14985 N 1671.73 1.46313 0.585673 0
M  V30 14986 C 1673.14 1.4567 1.16778 0
M  V30 14987 C 1673.49 0.195957 1.95219 0
M  V30 14988 O 1672.62 -0.701142 2.04727 0
M  V30 14989 C 1673.21 2.6392 2.12443 0
M  V30 14990 C 1671.77 2.66327 2.65983 0
M  V30 14991 C 1670.92 2.38304 1.41797 0
M  V30 14992 H 1673.87 1.54236 0.37377 0
M  V30 14993 H 1673.89 2.39268 2.95856 0
M  V30 14994 H 1673.4 3.55663 1.55324 0
M  V30 14995 H 1671.5 1.78648 3.2698 0
M  V30 14996 H 1671.62 3.66203 3.08921 0
M  V30 14997 H 1669.98 1.88302 1.71507 0
M  V30 14998 H 1670.76 3.3222 0.86514 0
M  V30 14999 N 1673.21 -0.830057 1.33969 0
M  V30 15000 C 1674.46 -1.58272 1.25675 0
M  V30 15001 C 1674.78 -1.94213 -0.175071 0
M  V30 15002 O 1674.05 -1.61694 -1.10597 0
M  V30 15003 H 1672.63 -0.586858 0.462176 0
M  V30 15004 H 1675.29 -0.991495 1.67796 0
M  V30 15005 H 1674.39 -2.50874 1.85658 0
M  V30 15006 N 1674.69 -1.17582 -1.04939 0
M  V30 15007 C 1675.96 -0.875638 -1.74906 0
M  V30 15008 C 1676.34 0.62353 -2.01681 0
M  V30 15009 O 1675.69 1.57558 -1.65492 0
M  V30 15010 C 1675.9 -1.71334 -3.04049 0
M  V30 15011 C 1677.25 -1.93489 -3.77951 0
M  V30 15012 O 1678.27 -1.68314 -3.13925 0
M  V30 15013 O 1677.13 -2.35815 -4.93005 0
M  V30 15014 H 1674.23 -0.324451 -0.760697 0
M  V30 15015 H 1676.77 -1.2829 -1.11084 0
M  V30 15016 H 1675.55 -2.73003 -2.80331 0
M  V30 15017 H 1675.17 -1.30401 -3.75608 0
M  V30 15018 N 1676.17 1.23705 -0.976463 0
M  V30 15019 C 1677.12 2.22789 -0.484676 0
M  V30 15020 C 1678.1 1.5482 0.43814 0
M  V30 15021 O 1679.29 1.74965 0.267635 0
M  V30 15022 C 1676.42 3.42624 0.21541 0
M  V30 15023 C 1675.51 4.17827 -0.726745 0
M  V30 15024 N 1675.9 4.70053 -1.86771 0
M  V30 15025 C 1674.2 4.42728 -0.539282 0
M  V30 15026 C 1674.9 5.27229 -2.45773 0
M  V30 15027 N 1673.87 5.14932 -1.742 0
M  V30 15028 H 1677.67 2.60795 -1.35511 0
M  V30 15029 H 1675.19 1.39191 -0.836644 0
M  V30 15030 H 1677.19 4.12775 0.585009 0
M  V30 15031 H 1675.85 3.06135 1.08218 0
M  V30 15032 H 1676.86 4.66519 -2.24901 0
M  V30 15033 H 1673.53 4.16541 0.282799 0
M  V30 15034 H 1674.92 5.78284 -3.42106 0
M  V30 15035 N 1677.64 0.747635 1.38738 0
M  V30 15036 C 1678.89 0.300552 1.99853 0
M  V30 15037 C 1679.21 -1.11986 1.59638 0
M  V30 15038 O 1678.48 -1.76477 0.850447 0
M  V30 15039 H 1677.06 0.108134 0.739132 0
M  V30 15040 H 1679.72 0.960405 1.69594 0
M  V30 15041 H 1678.82 0.358956 3.10029 0
M  V30 15042 N 1679.12 -1.49583 0.496242 0
M  V30 15043 C 1680.05 -2.25783 -0.331257 0
M  V30 15044 C 1681.03 -1.3016 -0.974526 0
M  V30 15045 O 1682.22 -1.59439 -1.00556 0
M  V30 15046 C 1679.34 -3.05323 -1.46614 0
M  V30 15047 C 1678.39 -4.16064 -0.937722 0
M  V30 15048 S 1679.22 -5.35237 0.167715 0
M  V30 15049 C 1680.38 -6.18331 -0.970443 0
M  V30 15050 H 1680.61 -2.95621 0.315507 0
M  V30 15051 H 1678.14 -1.51813 0.28147 0
M  V30 15052 H 1680.1 -3.51735 -2.11642 0
M  V30 15053 H 1678.76 -2.34963 -2.0845 0
M  V30 15054 H 1677.96 -4.71215 -1.78808 0
M  V30 15055 H 1677.56 -3.72217 -0.364726 0
M  V30 15056 H 1679.85 -6.50988 -1.87671 0
M  V30 15057 H 1680.79 -7.0662 -0.457649 0
M  V30 15058 H 1681.2 -5.50811 -1.23563 0
M  V30 15059 N 1680.6 -0.229873 -1.55915 0
M  V30 15060 C 1682.01 0.276452 -1.84642 0
M  V30 15061 C 1682.36 1.58861 -1.15142 0
M  V30 15062 O 1681.49 2.12207 -0.423932 0
M  V30 15063 C 1682.08 0.508371 -3.34964 0
M  V30 15064 C 1680.64 0.958989 -3.63979 0
M  V30 15065 C 1679.79 0.0266738 -2.77287 0
M  V30 15066 H 1682.74 -0.452864 -1.52101 0
M  V30 15067 H 1682.76 1.35328 -3.55621 0
M  V30 15068 H 1682.27 -0.4468 -3.8552 0
M  V30 15069 H 1680.37 1.92722 -3.18887 0
M  V30 15070 H 1680.49 0.827637 -4.71897 0
M  V30 15071 H 1678.85 0.53498 -2.49018 0
M  V30 15072 H 1679.63 -0.923563 -3.30644 0
M  V30 15073 N 1682.08 1.5754 0.0434337 0
M  V30 15074 C 1683.33 1.88235 0.735652 0
M  V30 15075 C 1683.65 0.825698 1.76656 0
M  V30 15076 O 1682.92 -0.142424 1.95382 0
M  V30 15077 H 1681.5 0.694661 0.274692 0
M  V30 15078 H 1684.16 1.94896 0.0127911 0
M  V30 15079 H 1683.25 2.86659 1.23421 0
M  V30 15080 N 1683.56 -0.31543 1.54411 0
M  V30 15081 C 1684.49 -1.39353 1.87358 0
M  V30 15082 C 1685.47 -1.53586 0.731118 0
M  V30 15083 O 1686.65 -1.67332 0.98558 0
M  V30 15084 C 1683.78 -2.75998 2.10814 0
M  V30 15085 C 1682.74 -2.76545 3.2666 0
M  V30 15086 C 1682.06 -4.16343 3.35504 0
M  V30 15087 C 1683.36 -2.39567 4.64117 0
M  V30 15088 H 1685.06 -1.12028 2.77651 0
M  V30 15089 H 1682.6 -0.537476 1.33593 0
M  V30 15090 H 1684.55 -3.51491 2.32447 0
M  V30 15091 H 1683.28 -3.04817 1.17278 0
M  V30 15092 H 1681.94 -2.03507 3.04927 0
M  V30 15093 H 1681.59 -4.42316 2.39512 0
M  V30 15094 H 1681.29 -4.17613 4.13368 0
M  V30 15095 H 1682.81 -4.93637 3.59381 0
M  V30 15096 H 1684.22 -3.04775 4.85577 0
M  V30 15097 H 1682.62 -2.52075 5.4459 0
M  V30 15098 H 1683.69 -1.34707 4.65813 0
M  V30 15099 N 1685.03 -1.46622 -0.577906 0
M  V30 15100 C 1686.45 -1.31683 -0.901762 0
M  V30 15101 C 1686.65 -0.291842 -1.99375 0
M  V30 15102 O 1685.71 0.303913 -2.50664 0
M  V30 15103 C 1687.02 -2.70443 -1.31457 0
M  V30 15104 C 1688.57 -2.7857 -1.42715 0
M  V30 15105 C 1689.04 -4.17923 -1.87361 0
M  V30 15106 N 1690.53 -4.20364 -1.94546 0
M  V30 15107 C 1691.27 -5.25085 -2.30376 0
M  V30 15108 N 1690.76 -6.4013 -2.64964 0
M  V30 15109 N 1692.56 -5.12453 -2.30972 0
M  V30 15110 H 1684.71 -2.11916 0.143367 0
M  V30 15111 H 1686.97 -0.947999 0.00146914 0
M  V30 15112 H 1686.68 -3.46781 -0.586174 0
M  V30 15113 H 1686.55 -3.00864 -2.2751 0
M  V30 15114 H 1688.94 -2.02518 -2.14641 0
M  V30 15115 H 1689.02 -2.51828 -0.449021 0
M  V30 15116 H 1688.66 -4.94473 -1.16012 0
M  V30 15117 H 1688.59 -4.42076 -2.8614 0
M  V30 15118 H 1691.08 -3.37359 -1.70286 0
M  V30 15119 H 1691.4 -7.15808 -2.91271 0
M  V30 15120 H 1689.74 -6.43483 -2.62591 0
M  V30 15121 H 1692.93 -4.21611 -2.03376 0
M  V30 15122 H 1693.11 -5.94178 -2.58566 0
M  V30 15123 N 1686.51 0.822941 -1.34408 0
M  V30 15124 C 1687.76 1.57604 -1.26513 0
M  V30 15125 C 1688.08 1.94303 0.164769 0
M  V30 15126 O 1687.35 1.62278 1.09738 0
M  V30 15127 H 1685.93 0.584399 -0.465282 0
M  V30 15128 H 1688.59 0.982582 -1.68319 0
M  V30 15129 H 1687.69 2.49886 -1.86986 0
M  V30 15130 N 1687.99 1.18137 1.04314 0
M  V30 15131 C 1688.92 0.863879 2.12296 0
M  V30 15132 C 1689.94 -0.137469 1.62219 0
M  V30 15133 O 1691.12 0.0900306 1.78273 0
M  V30 15134 C 1688.22 0.269002 3.37831 0
M  V30 15135 C 1687.4 1.3154 4.17152 0
M  V30 15136 C 1686.46 0.736666 5.21018 0
M  V30 15137 O 1685.48 1.41075 5.5144 0
M  V30 15138 N 1686.68 -0.467037 5.78618 0
M  V30 15139 H 1689.45 1.7933 2.40127 0
M  V30 15140 H 1687.01 1.08142 1.20486 0
M  V30 15141 H 1689 -0.131671 4.04486 0
M  V30 15142 H 1687.57 -0.564386 3.07463 0
M  V30 15143 H 1686.79 1.89148 3.45856 0
M  V30 15144 H 1688.08 2.02093 4.66943 0
M  V30 15145 H 1687.48 -1.03247 5.56198 0
M  V30 15146 H 1686.04 -0.809663 6.46752 0
M  V30 15147 N 1689.47 -1.23186 0.98301 0
M  V30 15148 C 1690.88 -1.73484 0.689933 0
M  V30 15149 C 1691.23 -1.79428 -0.793724 0
M  V30 15150 O 1690.36 -1.43391 -1.62074 0
M  V30 15151 C 1690.95 -3.15068 1.24571 0
M  V30 15152 C 1689.51 -3.62812 1.00222 0
M  V30 15153 C 1688.66 -2.40988 1.37186 0
M  V30 15154 H 1691.61 -1.08672 1.15655 0
M  V30 15155 H 1691.63 -3.75425 0.619406 0
M  V30 15156 H 1691.14 -3.10709 2.32554 0
M  V30 15157 H 1689.24 -3.72549 -0.0614202 0
M  V30 15158 H 1689.35 -4.49473 1.65863 0
M  V30 15159 H 1687.72 -2.42127 0.79035 0
M  V30 15160 H 1688.5 -2.39299 2.46152 0
M  V30 15161 N 1690.95 -0.754982 -1.38339 0
M  V30 15162 C 1692.19 -0.311146 -1.9969 0
M  V30 15163 C 1692.52 1.11138 -1.60229 0
M  V30 15164 O 1691.79 1.76024 -0.859794 0
M  V30 15165 H 1690.37 -0.112052 -0.738548 0
M  V30 15166 H 1693.03 -0.969386 -1.69083 0
M  V30 15167 H 1692.12 -0.375392 -3.09834 0
M  V30 15168 N 1692.42 1.49318 -0.504168 0
M  V30 15169 C 1693.33 2.32958 0.277053 0
M  V30 15170 C 1694.35 1.44838 0.964266 0
M  V30 15171 O 1695.53 1.77856 0.944947 0
M  V30 15172 C 1692.59 3.20352 1.32572 0
M  V30 15173 C 1691.65 4.24326 0.651606 0
M  V30 15174 C 1690.89 5.07544 1.65031 0
M  V30 15175 O 1691.11 4.92326 2.88047 0
M  V30 15176 O 1690.04 5.89737 1.20388 0
M  V30 15177 H 1693.87 3.00952 -0.40763 0
M  V30 15178 H 1691.45 1.47023 -0.265453 0
M  V30 15179 H 1693.34 3.74483 1.93237 0
M  V30 15180 H 1692.01 2.5505 1.99327 0
M  V30 15181 H 1690.92 3.741 0.00513384 0
M  V30 15182 H 1692.25 4.92193 0.0264424 0
M  V30 15183 N 1693.9 0.238138 1.5579 0
M  V30 15184 C 1694.84 -0.705517 2.1702 0
M  V30 15185 C 1695.81 -1.17917 1.11957 0
M  V30 15186 O 1697 -1.2589 1.403 0
M  V30 15187 C 1694.12 -1.9578 2.76384 0
M  V30 15188 C 1693.17 -1.62275 3.94422 0
M  V30 15189 S 1694 -0.733018 5.30459 0
M  V30 15190 C 1695.16 -1.9945 5.93271 0
M  V30 15191 H 1695.39 -0.185146 2.96723 0
M  V30 15192 H 1692.93 0.0226713 1.54383 0
M  V30 15193 H 1694.88 -2.67676 3.11223 0
M  V30 15194 H 1693.54 -2.44929 1.96643 0
M  V30 15195 H 1692.74 -2.55361 4.34519 0
M  V30 15196 H 1692.34 -0.98429 3.60815 0
M  V30 15197 H 1694.63 -2.94272 6.10254 0
M  V30 15198 H 1695.57 -1.63716 6.88914 0
M  V30 15199 H 1695.98 -2.14259 5.22258 0
M  V30 15200 N 1695.38 -1.57561 -0.0350783 0
M  V30 15201 C 1696.63 -1.88623 -0.725659 0
M  V30 15202 C 1696.95 -0.835055 -1.76215 0
M  V30 15203 O 1696.22 0.13206 -1.95454 0
M  V30 15204 H 1694.8 -0.696108 -0.271004 0
M  V30 15205 H 1697.46 -1.949 -0.00245508 0
M  V30 15206 H 1696.56 -2.8731 -1.21899 0
M  V30 15207 N 1696.86 0.307236 -1.54576 0
M  V30 15208 C 1698.14 1.06243 -1.64231 0
M  V30 15209 C 1698.52 2.05415 -0.486589 0
M  V30 15210 O 1697.86 2.22565 0.517384 0
M  V30 15211 C 1698.07 1.74985 -3.01962 0
M  V30 15212 C 1699.42 2.2741 -3.58566 0
M  V30 15213 O 1700.45 1.85027 -3.04374 0
M  V30 15214 O 1699.3 3.05051 -4.53438 0
M  V30 15215 H 1696.4 0.490693 -0.665695 0
M  V30 15216 H 1698.94 0.305822 -1.66922 0
M  V30 15217 H 1697.72 1.02939 -3.77517 0
M  V30 15218 H 1697.34 2.57417 -3.03022 0
M  V30 15219 N 1698.34 1.46926 0.570122 0
M  V30 15220 C 1699.75 1.469 1.15227 0
M  V30 15221 C 1700.1 0.216651 1.95 0
M  V30 15222 O 1699.22 -0.679388 2.05459 0
M  V30 15223 C 1699.82 2.66158 2.09632 0
M  V30 15224 C 1698.38 2.69133 2.63144 0
M  V30 15225 C 1697.52 2.39795 1.39262 0
M  V30 15226 H 1700.48 1.54623 0.35739 0
M  V30 15227 H 1700.5 2.42393 2.93302 0
M  V30 15228 H 1700.01 3.5729 1.51543 0
M  V30 15229 H 1698.11 1.82106 3.25066 0
M  V30 15230 H 1698.22 3.69459 3.05019 0
M  V30 15231 H 1696.59 1.9011 1.695 0
M  V30 15232 H 1697.37 3.33119 0.829855 0
M  V30 15233 N 1699.82 -0.815801 1.34842 0
M  V30 15234 C 1701.06 -1.5693 1.27347 0
M  V30 15235 C 1701.38 -1.94387 -0.154462 0
M  V30 15236 O 1700.65 -1.62858 -1.08876 0
M  V30 15237 H 1699.23 -0.581923 0.468374 0
M  V30 15238 H 1701.9 -0.973642 1.68838 0
M  V30 15239 H 1700.99 -2.4889 1.88308 0
M  V30 15240 N 1701.29 -1.18689 -1.03686 0
M  V30 15241 C 1702.7 -0.988182 -1.58404 0
M  V30 15242 C 1703.06 0.461107 -1.90705 0
M  V30 15243 O 1702.18 1.33912 -1.6999 0
M  V30 15244 C 1702.78 -1.78748 -2.8781 0
M  V30 15245 C 1701.33 -1.63301 -3.39131 0
M  V30 15246 C 1700.48 -1.77954 -2.12668 0
M  V30 15247 H 1703.43 -1.33177 -0.863112 0
M  V30 15248 H 1703.45 -1.27882 -3.58366 0
M  V30 15249 H 1702.97 -2.84224 -2.6427 0
M  V30 15250 H 1701.07 -0.603777 -3.67676 0
M  V30 15251 H 1701.18 -2.43342 -4.127 0
M  V30 15252 H 1699.54 -1.20937 -2.24157 0
M  V30 15253 H 1700.33 -2.84873 -1.91579 0
M  V30 15254 N 1702.77 1.22662 -0.989529 0
M  V30 15255 C 1704.19 1.43445 -0.699687 0
M  V30 15256 C 1704.39 1.87778 0.730875 0
M  V30 15257 O 1703.44 2.02953 1.5022 0
M  V30 15258 C 1704.76 2.47869 -1.70239 0
M  V30 15259 C 1706.3 2.61672 -1.71746 0
M  V30 15260 C 1706.78 3.69315 -2.7087 0
M  V30 15261 N 1708.27 3.76768 -2.69444 0
M  V30 15262 C 1709.01 4.59641 -3.42808 0
M  V30 15263 N 1708.5 5.46533 -4.25762 0
M  V30 15264 N 1710.29 4.53921 -3.3153 0
M  V30 15265 H 1702.45 0.921912 -1.91349 0
M  V30 15266 H 1704.71 0.466905 -0.825048 0
M  V30 15267 H 1704.41 2.22233 -2.7259 0
M  V30 15268 H 1704.29 3.46415 -1.49254 0
M  V30 15269 H 1706.68 2.86655 -0.70094 0
M  V30 15270 H 1706.76 1.63413 -1.96799 0
M  V30 15271 H 1706.4 3.4508 -3.72669 0
M  V30 15272 H 1706.33 4.67136 -2.43088 0
M  V30 15273 H 1708.82 3.1468 -2.09249 0
M  V30 15274 H 1709.13 6.06783 -4.78575 0
M  V30 15275 H 1707.48 5.46126 -4.2985 0
M  V30 15276 H 1710.67 3.85062 -2.66168 0
M  V30 15277 H 1710.84 5.18277 -3.88964 0
M  V30 15278 N 1704.25 0.762308 1.37937 0
M  V30 15279 C 1705.5 0.321732 1.99523 0
M  V30 15280 C 1705.82 -1.10286 1.60816 0
M  V30 15281 O 1705.09 -1.75565 0.869117 0
M  V30 15282 H 1703.67 0.115967 0.737943 0
M  V30 15283 H 1706.33 0.978339 1.68566 0
M  V30 15284 H 1705.43 0.391818 3.09631 0
M  V30 15285 N 1705.73 -1.49049 0.51208 0
M  V30 15286 C 1706.66 -2.32163 -0.249529 0
M  V30 15287 C 1707.64 -1.40957 -0.952114 0
M  V30 15288 O 1708.82 -1.69858 -0.94137 0
M  V30 15289 C 1705.95 -3.21737 -1.30776 0
M  V30 15290 C 1704.91 -4.21825 -0.724392 0
M  V30 15291 C 1704.23 -5.00411 -1.88396 0
M  V30 15292 C 1705.53 -5.21483 0.291975 0
M  V30 15293 H 1707.23 -2.96086 0.444253 0
M  V30 15294 H 1704.77 -1.42385 0.215093 0
M  V30 15295 H 1706.73 -3.78699 -1.84837 0
M  V30 15296 H 1705.45 -2.55779 -2.03088 0
M  V30 15297 H 1704.11 -3.66024 -0.205441 0
M  V30 15298 H 1703.76 -4.30891 -2.59502 0
M  V30 15299 H 1703.46 -5.68141 -1.49964 0
M  V30 15300 H 1704.98 -5.6022 -2.42869 0
M  V30 15301 H 1706.4 -5.73074 -0.160899 0
M  V30 15302 H 1704.79 -5.97166 0.592717 0
M  V30 15303 H 1705.86 -4.69714 1.20404 0
M  V30 15304 N 1707.21 -0.246397 -1.55662 0
M  V30 15305 C 1708.14 0.686113 -2.1869 0
M  V30 15306 C 1709.15 1.13915 -1.16306 0
M  V30 15307 O 1710.34 1.06601 -1.43173 0
M  V30 15308 C 1707.44 1.94426 -2.77582 0
M  V30 15309 C 1706.61 1.64275 -4.0538 0
M  V30 15310 C 1705.67 2.75044 -4.48595 0
M  V30 15311 O 1704.7 2.42451 -5.14982 0
M  V30 15312 N 1705.9 4.04528 -4.16338 0
M  V30 15313 H 1708.66 0.146832 -2.9934 0
M  V30 15314 H 1706.23 -0.0663398 -1.61764 0
M  V30 15315 H 1708.22 2.67768 -3.0345 0
M  V30 15316 H 1706.79 2.39334 -2.01091 0
M  V30 15317 H 1706.01 0.744531 -3.87105 0
M  V30 15318 H 1707.3 1.41594 -4.88701 0
M  V30 15319 H 1706.69 4.33841 -3.6304 0
M  V30 15320 H 1705.25 4.74337 -4.47043 0
M  V30 15321 N 1708.68 1.57577 0.026722 0
M  V30 15322 C 1709.93 1.89005 0.715645 0
M  V30 15323 C 1710.25 0.844388 1.7577 0
M  V30 15324 O 1709.52 -0.121693 1.95522 0
M  V30 15325 H 1708.1 0.697535 0.267308 0
M  V30 15326 H 1710.76 1.94898 -0.00788096 0
M  V30 15327 H 1709.86 2.87952 1.20374 0
M  V30 15328 N 1710.16 -0.299034 1.54737 0
M  V30 15329 C 1711.44 -1.05371 1.64792 0
M  V30 15330 C 1711.82 -2.05155 0.497475 0
M  V30 15331 O 1711.17 -2.22837 -0.505573 0
M  V30 15332 C 1711.38 -1.73381 3.02886 0
M  V30 15333 C 1712.72 -2.25506 3.59767 0
M  V30 15334 O 1713.75 -1.8341 3.05351 0
M  V30 15335 O 1712.61 -3.02642 4.55049 0
M  V30 15336 H 1709.7 -0.487156 0.668287 0
M  V30 15337 H 1712.25 -0.296965 1.67081 0
M  V30 15338 H 1711.02 -1.00936 3.78058 0
M  V30 15339 H 1710.64 -2.55806 3.04383 0
M  V30 15340 N 1711.64 -1.47227 -0.562322 0
M  V30 15341 C 1713.05 -1.47509 -1.14446 0
M  V30 15342 C 1713.4 -0.22699 -1.94883 0
M  V30 15343 O 1712.53 0.668483 -2.05816 0
M  V30 15344 C 1713.12 -2.67266 -2.08217 0
M  V30 15345 C 1711.68 -2.70524 -2.61713 0
M  V30 15346 C 1710.83 -2.4053 -1.37988 0
M  V30 15347 H 1713.78 -1.54811 -0.349185 0
M  V30 15348 H 1713.8 -2.43945 -2.92012 0
M  V30 15349 H 1713.31 -3.58089 -1.49646 0
M  V30 15350 H 1711.41 -1.83827 -3.24096 0
M  V30 15351 H 1711.53 -3.71072 -3.03056 0
M  V30 15352 H 1709.89 -1.91007 -1.68489 0
M  V30 15353 H 1710.67 -3.33554 -0.812177 0
M  V30 15354 N 1713.12 0.808639 -1.35273 0
M  V30 15355 C 1714.37 1.56253 -1.28177 0
M  V30 15356 C 1714.69 1.94466 0.144151 0
M  V30 15357 O 1713.96 1.63433 1.08011 0
M  V30 15358 H 1712.54 0.579431 -0.471454 0
M  V30 15359 H 1715.2 0.964675 -1.69352 0
M  V30 15360 H 1714.29 2.47888 -1.89625 0
M  V30 15361 N 1714.6 1.19237 1.03055 0
M  V30 15362 C 1715.85 0.988287 1.75829 0
M  V30 15363 C 1716.16 -0.481903 1.89571 0
M  V30 15364 O 1717.36 -0.804762 2.59299 0
M  V30 15365 C 1715.82 1.71934 3.16175 0
M  V30 15366 C 1715.43 3.22952 3.10493 0
M  V30 15367 C 1717.17 1.59844 3.93256 0
M  V30 15368 C 1715.08 3.88654 4.4576 0
M  V30 15369 H 1714.01 0.366153 0.659127 0
M  V30 15370 H 1716.66 1.42716 1.15345 0
M  V30 15371 H 1715.04 1.20828 3.77116 0
M  V30 15372 H 1716.22 3.81163 2.58943 0
M  V30 15373 H 1714.53 3.35298 2.46909 0
M  V30 15374 H 1717.13 2.06283 4.93307 0
M  V30 15375 H 1717.47 0.552317 4.1262 0
M  V30 15376 H 1718 2.08286 3.38913 0
M  V30 15377 H 1714.74 4.93357 4.31601 0
M  V30 15378 H 1714.26 3.35231 4.97373 0
M  V30 15379 H 1715.94 3.92104 5.14649 0
M  V30 15380 N 1716.07 -1.22136 0.99602 0
M  V30 15381 C 1717.49 -1.72743 0.708295 0
M  V30 15382 C 1717.84 -1.8026 -0.774649 0
M  V30 15383 O 1716.96 -1.45102 -1.60544 0
M  V30 15384 C 1717.56 -3.13729 1.27905 0
M  V30 15385 C 1716.12 -3.61729 1.04064 0
M  V30 15386 C 1715.26 -2.39519 1.39735 0
M  V30 15387 H 1718.21 -1.07439 1.16801 0
M  V30 15388 H 1718.23 -3.74746 0.65919 0
M  V30 15389 H 1717.75 -3.08225 2.35836 0
M  V30 15390 H 1715.85 -3.72594 -0.0219029 0
M  V30 15391 H 1715.96 -4.47689 1.70621 0
M  V30 15392 H 1714.32 -2.41275 0.815986 0
M  V30 15393 H 1715.11 -2.36675 2.48677 0
M  V30 15394 N 1717.55 -0.769612 -1.37531 0
M  V30 15395 C 1718.8 -0.332309 -1.99349 0
M  V30 15396 C 1719.12 1.09432 -1.61399 0
M  V30 15397 O 1718.39 1.75102 -0.878415 0
M  V30 15398 H 1716.97 -0.119879 -0.737318 0
M  V30 15399 H 1719.63 -0.987265 -1.68045 0
M  V30 15400 H 1718.73 -0.408233 -3.09419 0
M  V30 15401 N 1719.03 1.48775 -0.519977 0
M  V30 15402 C 1720.44 1.86541 -0.0769625 0
M  V30 15403 C 1720.79 1.43053 1.34277 0
M  V30 15404 O 1719.92 0.816781 2.00394 0
M  V30 15405 C 1720.51 3.38539 -0.132891 0
M  V30 15406 C 1719.07 3.75536 0.254875 0
M  V30 15407 C 1718.22 2.72808 -0.497088 0
M  V30 15408 H 1721.17 1.40822 -0.731765 0
M  V30 15409 H 1721.19 3.7477 0.657856 0
M  V30 15410 H 1720.7 3.70161 -1.1663 0
M  V30 15411 H 1718.8 3.49527 1.29081 0
M  V30 15412 H 1718.92 4.79037 -0.0777747 0
M  V30 15413 H 1717.28 2.5464 0.0554331 0
M  V30 15414 H 1718.06 3.07274 -1.53094 0
M  V30 15415 N 1720.51 0.254649 1.55529 0
M  V30 15416 C 1721.92 -0.247042 1.85058 0
M  V30 15417 C 1722.27 -1.57009 1.17655 0
M  V30 15418 O 1721.4 -2.11506 0.457638 0
M  V30 15419 C 1721.99 -0.455017 3.35731 0
M  V30 15420 C 1720.55 -0.900961 3.65458 0
M  V30 15421 C 1719.7 0.0174436 2.77295 0
M  V30 15422 H 1722.65 0.477005 1.51362 0
M  V30 15423 H 1722.67 -1.29654 3.57729 0
M  V30 15424 H 1722.18 0.508076 3.8476 0
M  V30 15425 H 1720.28 -1.87625 3.21913 0
M  V30 15426 H 1720.39 -0.752458 4.73154 0
M  V30 15427 H 1718.76 -0.495296 2.49838 0
M  V30 15428 H 1719.54 0.976049 3.29132 0
M  V30 15429 N 1721.99 -1.57589 -0.0183649 0
M  V30 15430 C 1723.23 -1.89382 -0.705612 0
M  V30 15431 C 1723.56 -0.853698 -1.7532 0
M  V30 15432 O 1722.83 0.111322 -1.95583 0
M  V30 15433 H 1721.41 -0.698943 -0.263605 0
M  V30 15434 H 1724.07 -1.94891 0.0182168 0
M  V30 15435 H 1723.16 -2.88587 -1.18845 0
M  V30 15436 N 1723.46 0.290824 -1.54893 0
M  V30 15437 C 1724.71 1.02244 -1.73865 0
M  V30 15438 C 1725.03 1.88079 -0.537166 0
M  V30 15439 O 1726.23 2.64584 -0.608908 0
M  V30 15440 C 1724.69 1.86762 -3.07649 0
M  V30 15441 C 1724.3 1.0588 -4.35308 0
M  V30 15442 C 1726.04 2.59461 -3.35976 0
M  V30 15443 C 1723.95 1.89734 -5.60138 0
M  V30 15444 H 1722.88 0.385455 -0.648028 0
M  V30 15445 H 1725.53 0.27893 -1.81368 0
M  V30 15446 H 1723.91 2.6514 -2.94137 0
M  V30 15447 H 1725.08 0.320443 -4.59684 0
M  V30 15448 H 1723.4 0.447169 -4.13992 0
M  V30 15449 H 1726 3.22569 -4.26442 0
M  V30 15450 H 1726.34 3.28823 -2.55306 0
M  V30 15451 H 1726.87 1.88126 -3.50505 0
M  V30 15452 H 1723.61 1.24825 -6.43505 0
M  V30 15453 H 1723.13 2.61215 -5.39932 0
M  V30 15454 H 1724.81 2.47535 -5.97775 0
M  V30 15455 N 1724.94 1.47523 0.554506 0
M  V30 15456 C 1725.89 1.60213 1.66134 0
M  V30 15457 C 1726.86 0.445051 1.60027 0
M  V30 15458 O 1728.04 0.665449 1.7882 0
M  V30 15459 C 1725.18 1.62491 3.04452 0
M  V30 15460 C 1724.3 2.89134 3.20976 0
M  V30 15461 C 1723.43 2.82731 4.49707 0
M  V30 15462 C 1722.47 4.04187 4.59673 0
M  V30 15463 N 1721.61 3.96004 5.79763 0
M  V30 15464 H 1726.45 2.54744 1.54626 0
M  V30 15465 H 1723.99 1.26355 0.753189 0
M  V30 15466 H 1725.94 1.61795 3.84549 0
M  V30 15467 H 1724.57 0.714698 3.14789 0
M  V30 15468 H 1723.63 2.99685 2.34292 0
M  V30 15469 H 1724.94 3.79069 3.24203 0
M  V30 15470 H 1724.09 2.80299 5.38068 0
M  V30 15471 H 1722.83 1.90483 4.48963 0
M  V30 15472 H 1721.84 4.06921 3.69724 0
M  V30 15473 H 1723.06 4.97565 4.62175 0
M  V30 15474 H 1721.01 3.06561 5.79962 0
M  V30 15475 H 1720.92 4.7962 5.8438 0
M  V30 15476 H 1722.19 3.97593 6.70478 0
M  V30 15477 N 1726.42 -0.801453 1.357 0
M  V30 15478 C 1727.67 -1.55571 1.29004 0
M  V30 15479 C 1727.99 -1.9454 -0.133836 0
M  V30 15480 O 1727.26 -1.64004 -1.07143 0
M  V30 15481 H 1725.84 -0.576922 0.47452 0
M  V30 15482 H 1728.5 -0.95568 1.69861 0
M  V30 15483 H 1727.6 -2.46879 1.90937 0
M  V30 15484 N 1727.9 -1.19782 -1.02421 0
M  V30 15485 C 1729.31 -1.00493 -1.57347 0
M  V30 15486 C 1729.66 0.440854 -1.91183 0
M  V30 15487 O 1728.79 1.32102 -1.714 0
M  V30 15488 C 1729.38 -1.8179 -2.85898 0
M  V30 15489 C 1727.94 -1.66889 -3.3738 0
M  V30 15490 C 1727.09 -1.80199 -2.10769 0
M  V30 15491 H 1730.04 -1.34085 -0.848938 0
M  V30 15492 H 1730.06 -1.31676 -3.5699 0
M  V30 15493 H 1729.57 -2.87011 -2.6124 0
M  V30 15494 H 1727.67 -0.64274 -3.67014 0
M  V30 15495 H 1727.78 -2.47705 -4.10096 0
M  V30 15496 H 1726.15 -1.23308 -2.22862 0
M  V30 15497 H 1726.93 -2.86889 -1.88546 0
M  V30 15498 N 1729.38 1.21606 -1.00248 0
M  V30 15499 C 1730.6 1.95149 -0.702249 0
M  V30 15500 C 1731.03 1.73429 0.728293 0
M  V30 15501 O 1730.39 1.01953 1.49917 0
M  V30 15502 C 1730.43 3.45705 -1.0257 0
M  V30 15503 O 1729.54 4.12196 -0.129575 0
M  V30 15504 H 1728.88 0.610173 -0.261888 0
M  V30 15505 H 1731.41 1.54435 -1.34205 0
M  V30 15506 H 1731.42 3.96265 -0.97151 0
M  V30 15507 H 1730.09 3.60838 -2.06806 0
M  V30 15508 H 1728.67 3.72126 -0.240074 0
M  V30 15509 N 1730.86 0.776895 1.37121 0
M  V30 15510 C 1732.1 0.342876 1.9917 0
M  V30 15511 C 1732.42 -1.08574 1.61977 0
M  V30 15512 O 1731.69 -1.74634 0.887689 0
M  V30 15513 H 1730.27 0.123788 0.736672 0
M  V30 15514 H 1732.94 0.996163 1.67519 0
M  V30 15515 H 1732.03 0.424637 3.09198 0
M  V30 15516 N 1732.33 -1.48497 0.527859 0
M  V30 15517 C 1733.56 -2.07399 -0.00510725 0
M  V30 15518 C 1733.98 -1.38211 -1.2759 0
M  V30 15519 O 1733.34 -0.447373 -1.75694 0
M  V30 15520 C 1733.39 -3.59963 -0.214295 0
M  V30 15521 O 1732.49 -3.91921 -1.28342 0
M  V30 15522 H 1731.83 -0.662901 0.0381838 0
M  V30 15523 H 1734.36 -1.90936 0.735166 0
M  V30 15524 H 1734.37 -4.05646 -0.437604 0
M  V30 15525 H 1733.05 -4.09725 0.714028 0
M  V30 15526 H 1731.63 -3.58019 -1.04293 0
M  V30 15527 N 1733.81 -0.262893 -1.55392 0
M  V30 15528 C 1735.22 0.237224 -1.85187 0
M  V30 15529 C 1735.57 1.56383 -1.18486 0
M  V30 15530 O 1734.7 2.1126 -0.468849 0
M  V30 15531 C 1735.29 0.437206 -3.35967 0
M  V30 15532 C 1733.85 0.881568 -3.65931 0
M  V30 15533 C 1733 -0.0321489 -2.77281 0
M  V30 15534 H 1735.95 -0.485025 -1.51107 0
M  V30 15535 H 1735.97 1.27755 -3.58412 0
M  V30 15536 H 1735.48 -0.528474 -3.84485 0
M  V30 15537 H 1733.58 1.85915 -3.22903 0
M  V30 15538 H 1733.7 0.727355 -4.73547 0
M  V30 15539 H 1732.06 0.48204 -2.50097 0
M  V30 15540 H 1732.84 -0.99349 -3.2861 0
M  V30 15541 N 1735.29 1.57597 0.0100073 0
M  V30 15542 C 1736.54 1.89754 0.695559 0
M  V30 15543 C 1736.86 0.862983 1.74865 0
M  V30 15544 O 1736.13 -0.100949 1.9564 0
M  V30 15545 H 1734.71 0.700331 0.259895 0
M  V30 15546 H 1737.37 1.94879 -0.0285521 0
M  V30 15547 H 1736.47 2.89213 1.17313 0
M  V30 15548 N 1736.77 -0.282606 1.55045 0
M  V30 15549 C 1737.7 -1.35347 1.90272 0
M  V30 15550 C 1738.68 -1.52001 0.763532 0
M  V30 15551 O 1739.86 -1.65204 1.02085 0
M  V30 15552 C 1736.99 -2.71464 2.16621 0
M  V30 15553 C 1735.95 -2.69554 3.32453 0
M  V30 15554 C 1735.27 -4.09132 3.4426 0
M  V30 15555 C 1736.57 -2.29669 4.69094 0
M  V30 15556 H 1738.27 -1.06113 2.79965 0
M  V30 15557 H 1735.81 -0.509018 1.34703 0
M  V30 15558 H 1737.77 -3.46482 2.39851 0
M  V30 15559 H 1736.49 -3.02261 1.23717 0
M  V30 15560 H 1735.15 -1.96993 3.09175 0
M  V30 15561 H 1734.8 -4.37136 2.4884 0
M  V30 15562 H 1734.5 -4.08751 4.22133 0
M  V30 15563 H 1736.02 -4.85903 3.69771 0
M  V30 15564 H 1737.44 -2.94407 4.91932 0
M  V30 15565 H 1735.83 -2.40467 5.49814 0
M  V30 15566 H 1736.9 -1.24796 4.68566 0
M  V30 15567 N 1738.25 -1.47815 -0.546675 0
M  V30 15568 C 1739.19 -1.61513 -1.67381 0
M  V30 15569 C 1740.19 -0.482064 -1.62396 0
M  V30 15570 O 1741.39 -0.660227 -1.67454 0
M  V30 15571 H 1737.77 -0.508484 -0.554029 0
M  V30 15572 H 1739.74 -2.5621 -1.52967 0
M  V30 15573 C 1738.49 -1.65645 -3.05707 0
M  V30 15574 H 1737.81 -2.52186 -3.10229 0
M  V30 15575 H 1739.25 -1.79277 -3.84234 0
M  V30 15576 C 1737.71 -0.391799 -3.34614 0
M  V30 15577 O 1738.24 0.502576 -3.98544 0
M  V30 15578 N 1736.45 -0.268593 -2.89356 0
M  V30 15579 H 1735.99 -0.997347 -2.37509 0
M  V30 15580 H 1735.95 0.5766 -3.09067 0
M  V30 15581 N 1739.72 0.794246 -1.36123 0
M  V30 15582 C 1740.97 1.54885 -1.29827 0
M  V30 15583 C 1741.29 1.94608 0.123517 0
M  V30 15584 O 1740.56 1.6457 1.06272 0
M  V30 15585 H 1739.14 0.574398 -0.477573 0
M  V30 15586 H 1741.8 0.946658 -1.70365 0
M  V30 15587 H 1740.9 2.45863 -1.92244 0
M  V30 15588 N 1741.2 1.20323 1.01785 0
M  V30 15589 C 1742.13 0.974819 2.12178 0
M  V30 15590 C 1743.11 -0.0957637 1.6983 0
M  V30 15591 O 1744.3 0.0614963 1.94103 0
M  V30 15592 C 1741.43 0.524739 3.43313 0
M  V30 15593 C 1740.38 1.53842 3.99395 0
M  V30 15594 C 1739.71 0.945021 5.26283 0
M  V30 15595 C 1741.01 2.92179 4.3293 0
M  V30 15596 H 1742.7 1.8981 2.31544 0
M  V30 15597 H 1740.25 0.914025 1.11273 0
M  V30 15598 H 1742.2 0.352182 4.19926 0
M  V30 15599 H 1740.92 -0.434161 3.23701 0
M  V30 15600 H 1739.58 1.69832 3.24889 0
M  V30 15601 H 1739.23 -0.0217709 5.02995 0
M  V30 15602 H 1738.93 1.62201 5.64769 0
M  V30 15603 H 1740.46 0.783504 6.05552 0
M  V30 15604 H 1741.87 2.79708 5.00436 0
M  V30 15605 H 1740.27 3.56773 4.82528 0
M  V30 15606 H 1741.34 3.43997 3.41752 0
M  V30 15607 N 1742.68 -1.21073 1.00892 0
M  V30 15608 C 1743.63 -2.21426 0.543574 0
M  V30 15609 C 1744.61 -1.55927 -0.396938 0
M  V30 15610 O 1745.81 -1.75613 -0.221152 0
M  V30 15611 C 1742.93 -3.43074 -0.124494 0
M  V30 15612 C 1742.02 -4.15753 0.837269 0
M  V30 15613 N 1742.41 -4.64936 1.99168 0
M  V30 15614 C 1740.71 -4.41142 0.656473 0
M  V30 15615 C 1741.41 -5.20527 2.59666 0
M  V30 15616 N 1740.39 -5.10133 1.87792 0
M  V30 15617 H 1744.19 -2.5711 1.42378 0
M  V30 15618 H 1741.7 -1.36923 0.873254 0
M  V30 15619 H 1743.7 -4.14181 -0.475363 0
M  V30 15620 H 1742.36 -3.08897 -1.00064 0
M  V30 15621 H 1743.37 -4.60392 2.37191 0
M  V30 15622 H 1740.05 -4.17144 -0.172261 0
M  V30 15623 H 1741.44 -5.69011 3.57318 0
M  V30 15624 N 1744.16 -0.784156 -1.36707 0
M  V30 15625 C 1745.41 -0.353434 -1.98986 0
M  V30 15626 C 1745.73 1.07714 -1.62551 0
M  V30 15627 O 1745 1.7416 -0.896938 0
M  V30 15628 H 1743.58 -0.127693 -0.736005 0
M  V30 15629 H 1746.24 -1.00503 -1.66988 0
M  V30 15630 H 1745.34 -0.441028 -3.08968 0
M  V30 15631 N 1745.64 1.48215 -0.535727 0
M  V30 15632 C 1746.57 2.3253 0.212562 0
M  V30 15633 C 1747.55 1.42454 0.929568 0
M  V30 15634 O 1748.73 1.71334 0.914228 0
M  V30 15635 C 1745.86 3.23777 1.25641 0
M  V30 15636 C 1744.82 4.22924 0.657191 0
M  V30 15637 C 1744.14 5.03345 1.80411 0
M  V30 15638 C 1745.44 5.20953 -0.374902 0
M  V30 15639 H 1747.14 2.95341 -0.491301 0
M  V30 15640 H 1744.68 1.42024 -0.237718 0
M  V30 15641 H 1746.64 3.81592 1.78789 0
M  V30 15642 H 1745.36 2.58978 1.98993 0
M  V30 15643 H 1744.02 3.66304 0.147184 0
M  V30 15644 H 1743.67 4.34965 2.52615 0
M  V30 15645 H 1743.37 5.70455 1.40906 0
M  V30 15646 H 1744.89 5.64013 2.33926 0
M  V30 15647 H 1746.3 5.73258 0.0697072 0
M  V30 15648 H 1744.7 5.96147 -0.687646 0
M  V30 15649 H 1745.77 4.67739 -1.27861 0
M  V30 15650 N 1747.11 0.27113 1.5525 0
M  V30 15651 C 1748.06 -0.618069 2.2237 0
M  V30 15652 C 1749.03 -1.15282 1.19579 0
M  V30 15653 O 1750.22 -1.20285 1.48108 0
M  V30 15654 C 1747.36 -1.79821 2.94548 0
M  V30 15655 C 1746.47 -1.29769 4.12049 0
M  V30 15656 C 1745.6 -2.43931 4.7188 0
M  V30 15657 C 1744.64 -1.90862 5.81582 0
M  V30 15658 N 1743.78 -2.98482 6.35494 0
M  V30 15659 H 1748.62 -0.0390456 2.97974 0
M  V30 15660 H 1746.16 -0.00750636 1.47098 0
M  V30 15661 H 1748.12 -2.49184 3.34609 0
M  V30 15662 H 1746.75 -2.34933 2.21374 0
M  V30 15663 H 1745.8 -0.497288 3.77136 0
M  V30 15664 H 1747.11 -0.868957 4.91173 0
M  V30 15665 H 1746.26 -3.21295 5.1464 0
M  V30 15666 H 1745 -2.90118 3.92024 0
M  V30 15667 H 1744.01 -1.11977 5.38276 0
M  V30 15668 H 1745.23 -1.45616 6.63304 0
M  V30 15669 H 1743.18 -3.44058 5.58534 0
M  V30 15670 H 1743.1 -2.60014 7.09879 0
M  V30 15671 H 1744.36 -3.75833 6.82913 0
M  V30 15672 N 1748.59 -1.576 -0.00164943 0
M  V30 15673 C 1749.84 -1.9012 -0.685486 0
M  V30 15674 C 1750.16 -0.872245 -1.74404 0
M  V30 15675 O 1749.43 0.090572 -1.95691 0
M  V30 15676 H 1748.01 -0.701699 -0.256177 0
M  V30 15677 H 1750.67 -1.94861 0.0388866 0
M  V30 15678 H 1749.77 -2.89831 -1.15778 0
M  V30 15679 N 1750.07 0.274379 -1.55193 0
M  V30 15680 C 1751 1.36139 -1.84388 0
M  V30 15681 C 1752.02 1.45601 -0.728294 0
M  V30 15682 O 1753.2 1.47443 -1.00613 0
M  V30 15683 C 1750.3 2.74278 -1.9906 0
M  V30 15684 C 1749.48 2.87424 -3.29706 0
M  V30 15685 C 1748.54 4.06229 -3.34461 0
M  V30 15686 O 1747.56 3.97053 -4.07845 0
M  V30 15687 N 1748.76 5.18131 -2.61764 0
M  V30 15688 H 1751.53 1.1144 -2.78211 0
M  V30 15689 H 1749.09 0.464493 -1.55094 0
M  V30 15690 H 1751.08 3.52047 -1.99613 0
M  V30 15691 H 1749.65 2.91805 -1.1211 0
M  V30 15692 H 1748.87 1.96551 -3.41704 0
M  V30 15693 H 1750.16 2.93137 -4.15871 0
M  V30 15694 H 1749.56 5.28473 -2.01824 0
M  V30 15695 H 1748.12 5.94135 -2.68042 0
M  V30 15696 N 1751.55 1.48103 0.538828 0
M  V30 15697 C 1752.5 1.61966 1.64425 0
M  V30 15698 C 1753.47 0.461999 1.59546 0
M  V30 15699 O 1754.65 0.684377 1.78104 0
M  V30 15700 C 1751.79 1.65711 3.02711 0
M  V30 15701 C 1750.9 2.92522 3.17891 0
M  V30 15702 C 1750.04 2.87485 4.46683 0
M  V30 15703 C 1749.08 4.0904 4.5536 0
M  V30 15704 N 1748.21 4.02131 5.7553 0
M  V30 15705 H 1753.05 2.5637 1.51916 0
M  V30 15706 H 1750.59 1.27146 0.739745 0
M  V30 15707 H 1752.55 1.65864 3.82812 0
M  V30 15708 H 1751.18 0.748045 3.14013 0
M  V30 15709 H 1750.23 3.02154 2.311 0
M  V30 15710 H 1751.54 3.82487 3.20165 0
M  V30 15711 H 1750.7 2.8599 5.35065 0
M  V30 15712 H 1749.44 1.95234 4.46917 0
M  V30 15713 H 1748.44 4.10819 3.65387 0
M  V30 15714 H 1749.67 5.02439 4.56872 0
M  V30 15715 H 1747.61 3.12695 5.76678 0
M  V30 15716 H 1747.53 4.85791 5.7926 0
M  V30 15717 H 1748.8 4.04682 6.66223 0
M  V30 15718 N 1753.03 -0.787016 1.36542 0
M  V30 15719 C 1754.27 -1.54194 1.30647 0
M  V30 15720 C 1754.6 -1.94671 -0.113195 0
M  V30 15721 O 1753.87 -1.65131 -1.05397 0
M  V30 15722 H 1752.45 -0.571857 0.480613 0
M  V30 15723 H 1755.11 -0.93761 1.70865 0
M  V30 15724 H 1754.2 -2.4484 1.93545 0
M  V30 15725 N 1754.5 -1.20861 -1.01145 0
M  V30 15726 C 1755.73 -1.04769 -1.78413 0
M  V30 15727 C 1756.15 0.402846 -1.84452 0
M  V30 15728 O 1755.5 1.27962 -1.30123 0
M  V30 15729 C 1755.56 -1.63065 -3.22633 0
M  V30 15730 O 1755.28 -3.02443 -3.16954 0
M  V30 15731 C 1756.78 -1.51996 -4.16428 0
M  V30 15732 H 1754 -0.368271 -0.560908 0
M  V30 15733 H 1756.54 -1.6006 -1.27283 0
M  V30 15734 H 1754.7 -1.11882 -3.70892 0
M  V30 15735 H 1755.11 -3.30199 -4.07515 0
M  V30 15736 H 1756.58 -1.97539 -5.15444 0
M  V30 15737 H 1757.06 -0.473305 -4.36642 0
M  V30 15738 H 1757.67 -2.02396 -3.74054 0
M  V30 15739 N 1755.98 1.20536 -1.01532 0
M  V30 15740 C 1756.93 2.23277 -0.584486 0
M  V30 15741 C 1757.9 1.6134 0.394773 0
M  V30 15742 O 1759.08 1.88514 0.294498 0
M  V30 15743 C 1756.22 3.45024 0.0723574 0
M  V30 15744 C 1755.34 4.21395 -0.951314 0
M  V30 15745 C 1754.47 5.30535 -0.265656 0
M  V30 15746 C 1753.51 5.98649 -1.27617 0
M  V30 15747 N 1752.65 6.99381 -0.61727 0
M  V30 15748 H 1757.49 2.59489 -1.46524 0
M  V30 15749 H 1755.03 1.27507 -0.733502 0
M  V30 15750 H 1756.98 4.14541 0.470303 0
M  V30 15751 H 1755.61 3.09508 0.916768 0
M  V30 15752 H 1754.67 3.50957 -1.46743 0
M  V30 15753 H 1755.98 4.68211 -1.71989 0
M  V30 15754 H 1755.13 6.06409 0.187857 0
M  V30 15755 H 1753.87 4.84754 0.535237 0
M  V30 15756 H 1752.88 5.21537 -1.74008 0
M  V30 15757 H 1754.1 6.46516 -2.07832 0
M  V30 15758 H 1752.05 6.55796 0.163777 0
M  V30 15759 H 1751.96 7.44317 -1.32393 0
M  V30 15760 H 1753.23 7.79275 -0.187306 0
M  V30 15761 N 1757.46 0.791395 1.36289 0
M  V30 15762 C 1758.71 0.363981 1.98795 0
M  V30 15763 C 1759.03 -1.0685 1.6312 0
M  V30 15764 O 1758.3 -1.73682 0.906161 0
M  V30 15765 H 1756.88 0.131594 0.735318 0
M  V30 15766 H 1759.54 1.01387 1.66453 0
M  V30 15767 H 1758.64 0.457407 3.0873 0
M  V30 15768 N 1758.94 -1.47929 0.54358 0
M  V30 15769 C 1759.9 -2.28316 -0.201107 0
M  V30 15770 C 1760.9 -1.36165 -0.855313 0
M  V30 15771 O 1762.09 -1.58928 -0.71327 0
M  V30 15772 C 1759.22 -3.1545 -1.29245 0
M  V30 15773 H 1760.42 -2.9562 0.504848 0
M  V30 15774 H 1757.97 -1.53394 0.300011 0
M  V30 15775 H 1758.71 -2.52807 -2.03124 0
M  V30 15776 H 1758.49 -3.83251 -0.82832 0
M  V30 15777 H 1759.98 -3.76053 -1.81587 0
M  V30 15778 N 1760.42 -0.27936 -1.55104 0
M  V30 15779 C 1761.64 0.342295 -2.04556 0
M  V30 15780 C 1762.07 1.48367 -1.15624 0
M  V30 15781 O 1761.43 1.8063 -0.15572 0
M  V30 15782 C 1761.47 0.796785 -3.51687 0
M  V30 15783 O 1760.58 1.90364 -3.65835 0
M  V30 15784 H 1759.92 0.07012 -0.660287 0
M  V30 15785 H 1762.45 -0.414896 -2.00349 0
M  V30 15786 H 1762.46 1.09141 -3.93131 0
M  V30 15787 H 1761.13 -0.0382637 -4.15882 0
M  V30 15788 H 1759.71 1.61123 -3.36294 0
M  V30 15789 N 1761.9 1.57599 -0.0067085 0
M  V30 15790 C 1763.14 1.90481 0.675393 0
M  V30 15791 C 1763.46 0.881481 1.73939 0
M  V30 15792 O 1762.73 -0.0801928 1.95736 0
M  V30 15793 H 1761.31 0.703048 0.252452 0
M  V30 15794 H 1763.98 1.94838 -0.04922 0
M  V30 15795 H 1763.07 2.90441 1.14239 0
M  V30 15796 N 1763.37 -0.266145 1.55336 0
M  V30 15797 C 1764.3 -1.33322 1.91697 0
M  V30 15798 C 1765.28 -1.51182 0.77961 0
M  V30 15799 O 1766.47 -1.64112 1.03832 0
M  V30 15800 C 1763.6 -2.69151 2.19488 0
M  V30 15801 C 1762.55 -2.66012 3.35293 0
M  V30 15802 C 1761.88 -4.05458 3.4858 0
M  V30 15803 C 1763.18 -2.24681 4.71504 0
M  V30 15804 H 1764.87 -1.03138 2.81075 0
M  V30 15805 H 1762.42 -0.494702 1.35236 0
M  V30 15806 H 1764.37 -3.43918 2.43512 0
M  V30 15807 H 1763.1 -3.00932 1.26916 0
M  V30 15808 H 1761.76 -1.93703 3.11247 0
M  V30 15809 H 1761.4 -4.34472 2.53462 0
M  V30 15810 H 1761.1 -4.04251 4.26445 0
M  V30 15811 H 1762.63 -4.81954 3.74904 0
M  V30 15812 H 1764.04 -2.89173 4.95027 0
M  V30 15813 H 1762.44 -2.34622 5.52334 0
M  V30 15814 H 1763.51 -1.19819 4.69863 0
M  V30 15815 N 1764.85 -1.48386 -0.530967 0
M  V30 15816 C 1765.8 -1.59236 -1.6318 0
M  V30 15817 C 1766.79 -0.449549 -1.54492 0
M  V30 15818 O 1767.98 -0.700935 -1.6253 0
M  V30 15819 C 1765.11 -1.6343 -3.01903 0
M  V30 15820 C 1764.19 -2.83188 -3.15699 0
M  V30 15821 N 1764.58 -4.07616 -2.99471 0
M  V30 15822 C 1762.88 -2.80499 -3.46751 0
M  V30 15823 C 1763.58 -4.87959 -3.16657 0
M  V30 15824 N 1762.56 -4.20757 -3.44186 0
M  V30 15825 H 1766.36 -2.53187 -1.49243 0
M  V30 15826 H 1763.87 -1.44744 -0.7364 0
M  V30 15827 H 1765.87 -1.69297 -3.80978 0
M  V30 15828 H 1764.53 -0.705948 -3.16933 0
M  V30 15829 H 1765.54 -4.38068 -2.76255 0
M  V30 15830 H 1762.22 -1.96916 -3.68145 0
M  V30 15831 H 1763.61 -5.96705 -3.08857 0
M  V30 15832 N 1766.33 0.779763 -1.36958 0
M  V30 15833 C 1767.61 1.52679 -1.22264 0
M  V30 15834 C 1767.99 2.10269 0.187164 0
M  V30 15835 O 1767.33 1.94828 1.19391 0
M  V30 15836 C 1767.54 2.61406 -2.31231 0
M  V30 15837 C 1768.89 3.29027 -2.68377 0
M  V30 15838 O 1769.92 2.71696 -2.30347 0
M  V30 15839 O 1768.78 4.3266 -3.33868 0
M  V30 15840 H 1765.87 0.675843 -0.476619 0
M  V30 15841 H 1768.42 0.817416 -1.48716 0
M  V30 15842 H 1767.19 2.16915 -3.25674 0
M  V30 15843 H 1766.81 3.39953 -2.06199 0
M  V30 15844 N 1767.81 1.21396 1.00503 0
M  V30 15845 C 1769.05 1.0327 1.74537 0
M  V30 15846 C 1769.39 -0.432746 1.89317 0
M  V30 15847 O 1768.66 -1.32111 1.42747 0
M  V30 15848 C 1768.94 1.73045 3.15797 0
M  V30 15849 C 1768.8 3.27108 3.0874 0
M  V30 15850 C 1770.12 1.47298 4.14718 0
M  V30 15851 H 1767.24 0.376563 0.633537 0
M  V30 15852 H 1769.88 1.49571 1.17169 0
M  V30 15853 H 1768.03 1.33682 3.64776 0
M  V30 15854 H 1769.7 3.75839 2.67475 0
M  V30 15855 H 1767.94 3.57413 2.45843 0
M  V30 15856 H 1768.61 3.71096 4.08646 0
M  V30 15857 H 1771.09 1.81468 3.74444 0
M  V30 15858 H 1769.97 1.98633 5.11699 0
M  V30 15859 H 1770.23 0.402981 4.4026 0
M  V30 15860 N 1769.29 -1.19996 1.0217 0
M  V30 15861 C 1770.53 -1.89121 0.712579 0
M  V30 15862 C 1770.85 -1.79556 -0.760561 0
M  V30 15863 O 1770.12 -1.2013 -1.54744 0
M  V30 15864 H 1768.7 -0.700075 0.260585 0
M  V30 15865 H 1771.37 -1.4571 1.2944 0
M  V30 15866 H 1770.46 -2.95629 1.00051 0
M  V30 15867 N 1770.76 -0.798611 -1.35867 0
M  V30 15868 C 1772.17 -0.437243 -1.81508 0
M  V30 15869 C 1772.53 1.03987 -1.66376 0
M  V30 15870 O 1771.65 1.80751 -1.18988 0
M  V30 15871 C 1772.25 -0.786865 -3.29536 0
M  V30 15872 C 1770.8 -0.478204 -3.7335 0
M  V30 15873 C 1769.95 -1.01668 -2.5799 0
M  V30 15874 H 1772.9 -0.990957 -1.23959 0
M  V30 15875 H 1772.92 -0.0813864 -3.80413 0
M  V30 15876 H 1772.44 -1.86198 -3.40517 0
M  V30 15877 H 1770.54 0.588503 -3.67923 0
M  V30 15878 H 1770.65 -1.00525 -4.68435 0
M  V30 15879 H 1769.01 -0.439417 -2.50881 0
M  V30 15880 H 1769.8 -2.09775 -2.71753 0
M  V30 15881 N 1772.24 1.47639 -0.551417 0
M  V30 15882 C 1773.65 1.86336 -0.116513 0
M  V30 15883 C 1774 1.45869 1.31213 0
M  V30 15884 O 1773.13 0.859103 1.98616 0
M  V30 15885 C 1773.72 3.38181 -0.204671 0
M  V30 15886 C 1772.28 3.75992 0.175161 0
M  V30 15887 C 1771.43 2.71692 -0.554843 0
M  V30 15888 H 1774.38 1.39238 -0.761471 0
M  V30 15889 H 1774.4 3.76081 0.578214 0
M  V30 15890 H 1773.91 3.67604 -1.24456 0
M  V30 15891 H 1772.01 3.52186 1.21638 0
M  V30 15892 H 1772.13 4.78764 -0.179368 0
M  V30 15893 H 1770.49 2.547 0.00140775 0
M  V30 15894 H 1771.27 3.03957 -1.59578 0
M  V30 15895 N 1773.72 0.287581 1.54954 0
M  V30 15896 C 1774.97 -0.324967 1.9947 0
M  V30 15897 C 1775.29 -1.55437 1.17747 0
M  V30 15898 O 1774.56 -1.9403 0.270067 0
M  V30 15899 H 1773.14 -0.123062 0.736794 0
M  V30 15900 H 1775.8 0.395805 1.90839 0
M  V30 15901 H 1774.9 -0.606265 3.06155 0
M  V30 15902 N 1775.2 -1.57593 0.0150662 0
M  V30 15903 C 1776.61 -1.79146 -0.525709 0
M  V30 15904 C 1776.96 -0.923985 -1.73081 0
M  V30 15905 O 1776.09 -0.130532 -2.16006 0
M  V30 15906 C 1776.68 -3.249 -0.960492 0
M  V30 15907 C 1775.24 -3.47497 -1.44647 0
M  V30 15908 C 1774.39 -2.74332 -0.404628 0
M  V30 15909 H 1777.34 -1.56857 0.241175 0
M  V30 15910 H 1777.36 -3.3384 -1.82568 0
M  V30 15911 H 1776.87 -3.88011 -0.0832025 0
M  V30 15912 H 1774.97 -2.8962 -2.34416 0
M  V30 15913 H 1775.08 -4.56199 -1.46354 0
M  V30 15914 H 1773.45 -2.39394 -0.869627 0
M  V30 15915 H 1774.23 -3.40151 0.463953 0
M  V30 15916 N 1776.68 0.257904 -1.55475 0
M  V30 15917 C 1777.92 0.988933 -1.77054 0
M  V30 15918 C 1778.26 1.85387 -0.578375 0
M  V30 15919 O 1777.53 1.8983 0.423673 0
M  V30 15920 C 1777.81 1.85876 -3.08419 0
M  V30 15921 C 1777.67 1.02274 -4.38018 0
M  V30 15922 C 1778.99 2.84322 -3.3593 0
M  V30 15923 H 1776.1 0.358103 -0.644152 0
M  V30 15924 H 1778.75 0.260209 -1.8821 0
M  V30 15925 H 1776.9 2.48008 -2.99039 0
M  V30 15926 H 1778.57 0.420967 -4.59375 0
M  V30 15927 H 1776.81 0.326705 -4.32568 0
M  V30 15928 H 1777.48 1.6649 -5.26294 0
M  V30 15929 H 1779.96 2.32325 -3.45202 0
M  V30 15930 H 1778.83 3.42313 -4.29084 0
M  V30 15931 H 1779.1 3.60223 -2.56304 0
M  V30 15932 N 1778.15 1.48666 0.52309 0
M  V30 15933 C 1779.4 1.56724 1.27601 0
M  V30 15934 C 1779.72 0.245958 1.93443 0
M  V30 15935 O 1778.99 -0.733053 1.81668 0
M  V30 15936 H 1777.57 0.57739 0.473952 0
M  V30 15937 H 1780.24 1.85169 0.608144 0
M  V30 15938 H 1779.33 2.35188 2.05166 0
M  V30 15939 N 1779.63 -0.772489 1.37369 0
M  V30 15940 C 1780.88 -1.52629 1.31861 0
M  V30 15941 C 1781.19 -1.9537 -0.0947795 0
M  V30 15942 O 1782.4 -2.70131 -0.27233 0
M  V30 15943 C 1780.86 -2.75608 2.31448 0
M  V30 15944 C 1780.46 -2.39969 3.78311 0
M  V30 15945 C 1782.21 -3.53553 2.34948 0
M  V30 15946 C 1780.12 -3.59445 4.69631 0
M  V30 15947 H 1779.05 -0.573019 0.490066 0
M  V30 15948 H 1781.7 -0.846178 1.62825 0
M  V30 15949 H 1780.08 -3.45505 1.935 0
M  V30 15950 H 1781.25 -1.7786 4.25091 0
M  V30 15951 H 1779.57 -1.752 3.77748 0
M  V30 15952 H 1782.16 -4.42353 3.00379 0
M  V30 15953 H 1782.51 -3.93359 1.36287 0
M  V30 15954 H 1783.04 -2.90652 2.716 0
M  V30 15955 H 1779.78 -3.24721 5.69418 0
M  V30 15956 H 1779.3 -4.20662 4.27555 0
M  V30 15957 H 1780.98 -4.26267 4.86729 0
M  V30 15958 N 1781.11 -1.21927 -0.998575 0
M  V30 15959 C 1782.52 -1.03808 -1.5518 0
M  V30 15960 C 1782.87 0.400202 -1.92075 0
M  V30 15961 O 1782 1.28436 -1.74164 0
M  V30 15962 C 1782.59 -1.87814 -2.81978 0
M  V30 15963 C 1781.15 -1.74008 -3.33764 0
M  V30 15964 C 1780.3 -1.8463 -2.06899 0
M  V30 15965 H 1783.25 -1.35855 -0.820305 0
M  V30 15966 H 1783.27 -1.39219 -3.54116 0
M  V30 15967 H 1782.78 -2.92487 -2.55094 0
M  V30 15968 H 1780.88 -0.720445 -3.65569 0
M  V30 15969 H 1781 -2.56348 -4.0475 0
M  V30 15970 H 1779.36 -1.28007 -2.20196 0
M  V30 15971 H 1780.14 -2.90824 -1.82419 0
M  V30 15972 N 1782.59 1.19452 -1.02805 0
M  V30 15973 C 1783.84 1.8874 -0.722599 0
M  V30 15974 C 1784.16 1.79957 0.751028 0
M  V30 15975 O 1783.43 1.20949 1.54104 0
M  V30 15976 H 1782.01 0.698683 -0.264294 0
M  V30 15977 H 1784.67 1.45021 -1.30211 0
M  V30 15978 H 1783.77 2.95094 -1.01617 0
M  V30 15979 N 1784.07 0.805805 1.35442 0
M  V30 15980 C 1785 0.230077 2.32364 0
M  V30 15981 C 1785.98 -0.644034 1.57436 0
M  V30 15982 O 1787.16 -0.574467 1.85509 0
M  V30 15983 C 1784.29 -0.622814 3.4167 0
M  V30 15984 C 1783.25 0.152739 4.27727 0
M  V30 15985 C 1782.57 -0.821803 5.28347 0
M  V30 15986 C 1783.87 1.35128 5.04517 0
M  V30 15987 H 1785.57 1.03983 2.80763 0
M  V30 15988 H 1783.11 0.501467 1.34986 0
M  V30 15989 H 1785.07 -1.03564 4.08476 0
M  V30 15990 H 1783.79 -1.46544 2.91877 0
M  V30 15991 H 1782.45 0.546732 3.625 0
M  V30 15992 H 1782.1 -1.65991 4.74822 0
M  V30 15993 H 1781.8 -0.307209 5.86796 0
M  V30 15994 H 1783.32 -1.23285 5.98024 0
M  V30 15995 H 1784.73 1.01337 5.64273 0
M  V30 15996 H 1783.13 1.80031 5.72459 0
M  V30 15997 H 1784.2 2.13833 4.35205 0
M  V30 15998 N 1785.54 -1.47344 0.559239 0
M  V30 15999 C 1786.49 -2.30039 -0.187317 0
M  V30 16000 C 1787.46 -1.39186 -0.906443 0
M  V30 16001 O 1788.65 -1.68147 -0.901739 0
M  V30 16002 C 1785.79 -3.2319 -1.21004 0
M  V30 16003 C 1784.9 -4.29134 -0.496776 0
M  V30 16004 C 1784.03 -5.09435 -1.50497 0
M  V30 16005 C 1783.07 -6.07151 -0.776794 0
M  V30 16006 N 1782.21 -6.80404 -1.73192 0
M  V30 16007 H 1787.05 -2.93357 0.523978 0
M  V30 16008 H 1784.59 -1.44597 0.270225 0
M  V30 16009 H 1786.55 -3.75621 -1.81561 0
M  V30 16010 H 1785.18 -2.61732 -1.88935 0
M  V30 16011 H 1784.23 -3.79744 0.223359 0
M  V30 16012 H 1785.54 -4.98746 0.0735731 0
M  V30 16013 H 1784.69 -5.66026 -2.18402 0
M  V30 16014 H 1783.43 -4.3973 -2.10924 0
M  V30 16015 H 1782.44 -5.49736 -0.0838382 0
M  V30 16016 H 1783.66 -6.78866 -0.178239 0
M  V30 16017 H 1781.61 -6.13427 -2.32472 0
M  V30 16018 H 1781.53 -7.46193 -1.21377 0
M  V30 16019 H 1782.79 -7.41567 -2.40204 0
M  V30 16020 N 1787.02 -0.295795 -1.54799 0
M  V30 16021 C 1788.27 0.314384 -1.9964 0
M  V30 16022 C 1788.59 1.5481 -1.1857 0
M  V30 16023 O 1787.86 1.93884 -0.280353 0
M  V30 16024 H 1786.44 0.119153 -0.737436 0
M  V30 16025 H 1789.1 -0.40592 -1.90626 0
M  V30 16026 H 1788.2 0.59002 -3.06472 0
M  V30 16027 N 1788.5 1.57583 -0.0234236 0
M  V30 16028 C 1789.41 2.13328 0.976138 0
M  V30 16029 C 1790.43 1.08414 1.36097 0
M  V30 16030 O 1791.6 1.40441 1.44354 0
M  V30 16031 C 1788.67 2.64469 2.24181 0
M  V30 16032 C 1787.73 3.84076 1.91793 0
M  V30 16033 C 1786.96 4.32768 3.12326 0
M  V30 16034 O 1787.19 3.80663 4.24797 0
M  V30 16035 O 1786.12 5.24676 2.94956 0
M  V30 16036 H 1789.95 2.99001 0.532166 0
M  V30 16037 H 1787.53 1.48098 0.196838 0
M  V30 16038 H 1789.41 2.97456 2.98492 0
M  V30 16039 H 1788.09 1.81881 2.6777 0
M  V30 16040 H 1786.99 3.56023 1.14883 0
M  V30 16041 H 1788.33 4.67808 1.53024 0
M  V30 16042 N 1789.98 -0.249655 1.5561 0
M  V30 16043 C 1791.4 -0.598032 1.47972 0
M  V30 16044 C 1791.6 -1.88461 0.713067 0
M  V30 16045 O 1790.65 -2.51344 0.241314 0
M  V30 16046 C 1791.96 -0.703318 2.92359 0
M  V30 16047 C 1793.51 -0.795828 3.02714 0
M  V30 16048 C 1793.99 -0.932698 4.48402 0
M  V30 16049 N 1795.48 -0.997638 4.52329 0
M  V30 16050 C 1796.21 -1.12276 5.623 0
M  V30 16051 N 1795.71 -1.21359 6.82088 0
M  V30 16052 N 1797.5 -1.1557 5.50091 0
M  V30 16053 H 1789.65 0.594976 2.03897 0
M  V30 16054 H 1791.92 0.204956 0.925579 0
M  V30 16055 H 1791.62 0.171981 3.51279 0
M  V30 16056 H 1791.5 -1.57614 3.42692 0
M  V30 16057 H 1793.88 -1.66158 2.43876 0
M  V30 16058 H 1793.96 0.102087 2.55596 0
M  V30 16059 H 1793.61 -0.0715123 5.0785 0
M  V30 16060 H 1793.54 -1.84561 4.93198 0
M  V30 16061 H 1796.03 -0.938895 3.66051 0
M  V30 16062 H 1796.34 -1.30805 7.61649 0
M  V30 16063 H 1794.69 -1.18322 6.84854 0
M  V30 16064 H 1797.88 -1.0812 4.55442 0
M  V30 16065 H 1798.05 -1.24976 6.35834 0
M  V30 16066 N 1791.46 -1.48941 -0.515198 0
M  V30 16067 C 1792.71 -1.57398 -1.26768 0
M  V30 16068 C 1793.03 -0.256213 -1.93309 0
M  V30 16069 O 1792.3 0.723408 -1.82054 0
M  V30 16070 H 1790.88 -0.579895 -0.470883 0
M  V30 16071 H 1793.54 -1.85489 -0.598315 0
M  V30 16072 H 1792.63 -2.36272 -2.03916 0
M  V30 16073 N 1792.94 0.765193 -1.37777 0
M  V30 16074 C 1794.21 1.51374 -1.23876 0
M  V30 16075 C 1794.59 2.10455 0.164852 0
M  V30 16076 O 1793.94 1.96084 1.17318 0
M  V30 16077 C 1794.15 2.58939 -2.33991 0
M  V30 16078 C 1795.5 3.26162 -2.71852 0
M  V30 16079 O 1796.52 2.69238 -2.33216 0
M  V30 16080 O 1795.38 4.29094 -3.38438 0
M  V30 16081 H 1792.48 0.670749 -0.48376 0
M  V30 16082 H 1795.02 0.801597 -1.49574 0
M  V30 16083 H 1793.79 2.13448 -3.27957 0
M  V30 16084 H 1793.42 3.37747 -2.09793 0
M  V30 16085 N 1794.41 1.22455 0.992094 0
M  V30 16086 C 1795.82 1.04629 1.54627 0
M  V30 16087 C 1796.18 -0.390011 1.92285 0
M  V30 16088 O 1795.3 -1.27511 1.74842 0
M  V30 16089 C 1795.9 1.89306 2.80978 0
M  V30 16090 C 1794.45 1.75775 3.32836 0
M  V30 16091 C 1793.6 1.85724 2.05917 0
M  V30 16092 H 1796.55 1.36288 0.813089 0
M  V30 16093 H 1796.57 1.41095 3.53373 0
M  V30 16094 H 1796.09 2.93836 2.53539 0
M  V30 16095 H 1794.19 0.739821 3.65181 0
M  V30 16096 H 1794.3 2.58491 4.03385 0
M  V30 16097 H 1792.66 1.29173 2.19514 0
M  V30 16098 H 1793.45 2.91787 1.80874 0
M  V30 16099 N 1795.89 -1.18905 1.03437 0
M  V30 16100 C 1797.14 -1.88354 0.732598 0
M  V30 16101 C 1797.46 -1.80353 -0.741474 0
M  V30 16102 O 1796.73 -1.21764 -1.53461 0
M  V30 16103 H 1795.31 -0.697272 0.267995 0
M  V30 16104 H 1797.97 -1.44329 1.30978 0
M  V30 16105 H 1797.07 -2.94551 1.03181 0
M  V30 16106 N 1797.37 -0.812977 -1.35013 0
M  V30 16107 C 1798.59 -0.407969 -2.03348 0
M  V30 16108 C 1799.02 0.975148 -1.60849 0
M  V30 16109 O 1798.38 1.63267 -0.788256 0
M  V30 16110 C 1798.43 -0.506754 -3.57022 0
M  V30 16111 O 1797.53 0.477322 -4.09628 0
M  V30 16112 H 1796.87 -0.169416 -0.642023 0
M  V30 16113 H 1799.4 -1.10064 -1.72474 0
M  V30 16114 H 1799.41 -0.378883 -4.06237 0
M  V30 16115 H 1798.09 -1.51557 -3.87302 0
M  V30 16116 H 1796.66 0.309161 -3.71616 0
M  V30 16117 N 1798.85 1.47045 -0.567045 0
M  V30 16118 C 1800.26 1.86202 -0.13627 0
M  V30 16119 C 1800.61 1.47252 1.29658 0
M  V30 16120 O 1799.73 0.880121 1.97694 0
M  V30 16121 C 1800.33 3.37945 -0.240528 0
M  V30 16122 C 1798.89 3.76157 0.135272 0
M  V30 16123 C 1798.04 2.71089 -0.583628 0
M  V30 16124 H 1800.99 1.38423 -0.776196 0
M  V30 16125 H 1801.01 3.76673 0.538293 0
M  V30 16126 H 1800.52 3.66263 -1.28348 0
M  V30 16127 H 1798.62 3.53456 1.17896 0
M  V30 16128 H 1798.73 4.78547 -0.230137 0
M  V30 16129 H 1797.1 2.54687 -0.0256067 0
M  V30 16130 H 1797.88 3.02247 -1.62792 0
M  V30 16131 N 1800.33 0.304 1.5464 0
M  V30 16132 C 1801.57 -0.303793 1.99804 0
M  V30 16133 C 1801.89 -1.54179 1.19389 0
M  V30 16134 O 1801.16 -1.93732 0.290631 0
M  V30 16135 H 1799.74 -0.115241 0.738057 0
M  V30 16136 H 1802.41 0.416024 1.90408 0
M  V30 16137 H 1801.5 -0.573759 3.06781 0
M  V30 16138 N 1801.8 -1.57568 0.0317802 0
M  V30 16139 C 1803.05 -1.91087 -0.645639 0
M  V30 16140 C 1803.37 -0.910108 -1.73137 0
M  V30 16141 O 1804.57 -1.13665 -2.46562 0
M  V30 16142 C 1803.03 -3.39317 -1.19966 0
M  V30 16143 C 1802.64 -4.47759 -0.147068 0
M  V30 16144 C 1804.38 -3.81901 -1.85343 0
M  V30 16145 C 1802.29 -5.87088 -0.712872 0
M  V30 16146 H 1801.22 -0.713112 -0.244923 0
M  V30 16147 H 1803.87 -1.83241 0.0975145 0
M  V30 16148 H 1802.25 -3.42105 -1.99451 0
M  V30 16149 H 1803.42 -4.56535 0.625518 0
M  V30 16150 H 1801.74 -4.14395 0.408109 0
M  V30 16151 H 1804.34 -4.83352 -2.28636 0
M  V30 16152 H 1804.68 -3.17104 -2.69724 0
M  V30 16153 H 1805.21 -3.81548 -1.12544 0
M  V30 16154 H 1801.95 -6.55434 0.0928582 0
M  V30 16155 H 1801.47 -5.81913 -1.45388 0
M  V30 16156 H 1803.15 -6.3574 -1.20179 0
M  V30 16157 N 1803.28 0.241399 -1.5574 0
M  V30 16158 C 1804.51 0.99028 -1.82231 0
M  V30 16159 C 1804.93 1.77949 -0.609559 0
M  V30 16160 O 1804.29 1.75843 0.44148 0
M  V30 16161 C 1804.34 1.89947 -3.06516 0
M  V30 16162 O 1803.44 2.99201 -2.83818 0
M  V30 16163 H 1802.78 0.281488 -0.601382 0
M  V30 16164 H 1805.31 0.260721 -2.02932 0
M  V30 16165 H 1805.32 2.31308 -3.36096 0
M  V30 16166 H 1804 1.31924 -3.94422 0
M  V30 16167 H 1802.58 2.61929 -2.6542 0
M  V30 16168 N 1804.76 1.49212 0.507292 0
M  V30 16169 C 1806.17 1.51655 1.08892 0
M  V30 16170 C 1806.52 0.299163 1.93906 0
M  V30 16171 O 1805.65 -0.591635 2.08155 0
M  V30 16172 C 1806.24 2.7481 1.98154 0
M  V30 16173 C 1804.8 2.80051 2.51492 0
M  V30 16174 C 1803.95 2.45486 1.28966 0
M  V30 16175 H 1806.9 1.56 0.291488 0
M  V30 16176 H 1806.92 2.54615 2.82757 0
M  V30 16177 H 1806.43 3.63396 1.36253 0
M  V30 16178 H 1804.53 1.95729 3.1705 0
M  V30 16179 H 1804.65 3.82064 2.89075 0
M  V30 16180 H 1803.01 1.97128 1.61284 0
M  V30 16181 H 1803.79 3.36339 0.687821 0
M  V30 16182 N 1806.24 -0.757876 1.38181 0
M  V30 16183 C 1807.65 -1.33496 1.30521 0
M  V30 16184 C 1808 -1.96157 -0.0409405 0
M  V30 16185 O 1807.13 -1.94775 -0.942957 0
M  V30 16186 C 1807.72 -2.42725 2.36369 0
M  V30 16187 C 1806.28 -2.96165 2.323 0
M  V30 16188 C 1805.43 -1.69505 2.19461 0
M  V30 16189 H 1808.38 -0.557075 1.48601 0
M  V30 16190 H 1808.4 -3.22556 2.01836 0
M  V30 16191 H 1807.91 -1.97089 3.34331 0
M  V30 16192 H 1806.01 -3.4614 1.37904 0
M  V30 16193 H 1806.12 -3.50836 3.26269 0
M  V30 16194 H 1804.49 -1.92967 1.66241 0
M  V30 16195 H 1805.27 -1.25954 3.1936 0
M  V30 16196 N 1807.72 -1.22979 -0.985586 0
M  V30 16197 C 1808.96 -1.05667 -1.72275 0
M  V30 16198 C 1809.29 0.408045 -1.90683 0
M  V30 16199 O 1808.56 1.29293 -1.47174 0
M  V30 16200 H 1807.14 -0.388017 -0.63832 0
M  V30 16201 H 1809.8 -1.54612 -1.18665 0
M  V30 16202 H 1808.89 -1.54043 -2.71436 0
M  V30 16203 N 1809.19 1.18355 -1.04066 0
M  V30 16204 C 1810.61 1.69995 -0.771919 0
M  V30 16205 C 1810.96 1.83011 0.707213 0
M  V30 16206 O 1810.08 1.5096 1.55048 0
M  V30 16207 C 1810.68 3.08765 -1.39461 0
M  V30 16208 C 1809.24 3.57617 -1.17418 0
M  V30 16209 C 1808.38 2.34168 -1.48528 0
M  V30 16210 H 1811.33 1.0303 -1.20708 0
M  V30 16211 H 1811.35 3.72042 -0.79782 0
M  V30 16212 H 1810.87 2.9926 -2.47113 0
M  V30 16213 H 1808.97 3.72418 -0.116398 0
M  V30 16214 H 1809.08 4.41048 -1.87119 0
M  V30 16215 H 1807.44 2.38081 -0.904972 0
M  V30 16216 H 1808.23 2.27282 -2.57289 0
M  V30 16217 N 1810.67 0.820125 1.3458 0
M  V30 16218 C 1812.09 0.505533 1.51382 0
M  V30 16219 C 1812.29 -0.970812 1.76571 0
M  V30 16220 O 1811.34 -1.75538 1.81501 0
M  V30 16221 C 1812.66 1.36264 2.68054 0
M  V30 16222 C 1814.21 1.35947 2.81935 0
M  V30 16223 C 1814.68 2.201 4.01647 0
M  V30 16224 N 1816.17 2.17708 4.08849 0
M  V30 16225 C 1816.91 2.79571 5.00627 0
M  V30 16226 N 1816.4 3.50413 5.97647 0
M  V30 16227 N 1818.2 2.6914 4.93477 0
M  V30 16228 H 1810.35 1.77607 1.16488 0
M  V30 16229 H 1812.61 0.756693 0.571068 0
M  V30 16230 H 1812.32 2.41093 2.56061 0
M  V30 16231 H 1812.19 1.02537 3.62996 0
M  V30 16232 H 1814.58 0.318971 2.93371 0
M  V30 16233 H 1814.66 1.7367 1.8781 0
M  V30 16234 H 1814.3 3.24198 3.90971 0
M  V30 16235 H 1814.23 1.79729 4.9498 0
M  V30 16236 H 1816.72 1.66175 3.39403 0
M  V30 16237 H 1817.04 3.9487 6.64303 0
M  V30 16238 H 1815.38 3.54519 5.9778 0
M  V30 16239 H 1818.57 2.13372 4.16641 0
M  V30 16240 H 1818.74 3.17639 5.64809 0
M  V30 16241 N 1812.15 -1.46743 0.574835 0
M  V30 16242 C 1813.4 -2.02019 0.057302 0
M  V30 16243 C 1813.72 -1.44965 -1.30423 0
M  V30 16244 O 1812.99 -0.631377 -1.85447 0
M  V30 16245 H 1811.57 -0.746778 0.018193 0
M  V30 16246 H 1814.23 -1.7994 0.748834 0
M  V30 16247 H 1813.33 -3.12095 -0.0176114 0
M  V30 16248 N 1813.63 -0.312197 -1.54477 0
M  V30 16249 C 1814.58 0.558894 -2.23931 0
M  V30 16250 C 1815.55 1.12071 -1.22594 0
M  V30 16251 O 1816.73 1.16316 -1.51245 0
M  V30 16252 C 1813.87 1.71948 -2.99212 0
M  V30 16253 C 1812.98 1.18799 -4.15344 0
M  V30 16254 C 1812.12 2.31334 -4.78182 0
M  V30 16255 C 1811.16 1.75375 -5.86438 0
M  V30 16256 N 1810.29 2.81528 -6.43184 0
M  V30 16257 H 1815.13 -0.0399708 -2.97973 0
M  V30 16258 H 1812.67 -0.0314967 -1.47066 0
M  V30 16259 H 1814.63 2.40225 -3.41098 0
M  V30 16260 H 1813.26 2.28981 -2.27525 0
M  V30 16261 H 1812.31 0.397122 -3.78321 0
M  V30 16262 H 1813.62 0.738426 -4.93304 0
M  V30 16263 H 1812.78 3.07537 -5.22978 0
M  V30 16264 H 1811.52 2.79622 -3.99578 0
M  V30 16265 H 1810.52 0.976658 -5.41056 0
M  V30 16266 H 1811.75 1.27978 -6.66932 0
M  V30 16267 H 1809.69 3.29129 -5.6746 0
M  V30 16268 H 1809.61 2.41101 -7.16524 0
M  V30 16269 H 1810.88 3.57595 -6.92637 0
M  V30 16270 N 1815.11 1.57549 -0.040136 0
M  V30 16271 C 1816.05 2.10879 0.938013 0
M  V30 16272 C 1817.02 1.01348 1.31597 0
M  V30 16273 O 1818.21 1.28832 1.40737 0
M  V30 16274 C 1815.35 2.64938 2.21138 0
M  V30 16275 C 1814.46 3.88516 1.88889 0
M  V30 16276 C 1813.6 4.3093 3.10601 0
M  V30 16277 C 1812.64 5.47237 2.74223 0
M  V30 16278 N 1811.77 5.84755 3.88594 0
M  V30 16279 H 1816.61 2.94169 0.476328 0
M  V30 16280 H 1814.15 1.45392 0.223503 0
M  V30 16281 H 1816.11 2.94375 2.95633 0
M  V30 16282 H 1814.74 1.84463 2.64903 0
M  V30 16283 H 1813.79 3.6574 1.04588 0
M  V30 16284 H 1815.1 4.7308 1.58103 0
M  V30 16285 H 1814.26 4.61861 3.93407 0
M  V30 16286 H 1812.99 3.45155 3.44557 0
M  V30 16287 H 1812 5.15988 1.89831 0
M  V30 16288 H 1813.22 6.34719 2.41472 0
M  V30 16289 H 1811.17 5.01935 4.22371 0
M  V30 16290 H 1811.09 6.63984 3.6147 0
M  V30 16291 H 1812.36 6.20297 4.72072 0
M  V30 16292 N 1816.58 -0.233136 1.55866 0
M  V30 16293 C 1817.83 -0.957324 1.77988 0
M  V30 16294 C 1818.15 -1.85325 0.606593 0
M  V30 16295 O 1817.42 -1.92237 -0.377047 0
M  V30 16296 H 1816 -0.356474 0.656457 0
M  V30 16297 H 1818.67 -0.247774 1.93319 0
M  V30 16298 H 1817.76 -1.57096 2.6968 0
M  V30 16299 N 1818.06 -1.49479 -0.499372 0
M  V30 16300 C 1819.47 -1.52231 -1.08087 0
M  V30 16301 C 1819.83 -0.309442 -1.93744 0
M  V30 16302 O 1818.95 0.580587 -2.08466 0
M  V30 16303 C 1819.55 -2.75857 -1.96694 0
M  V30 16304 C 1818.1 -2.81381 -2.50003 0
M  V30 16305 C 1817.25 -2.46166 -1.27662 0
M  V30 16306 H 1820.2 -1.56153 -0.283211 0
M  V30 16307 H 1820.22 -2.56111 -2.81403 0
M  V30 16308 H 1819.74 -3.64114 -1.34324 0
M  V30 16309 H 1817.84 -1.97408 -3.16008 0
M  V30 16310 H 1817.95 -3.83591 -2.87045 0
M  V30 16311 H 1816.31 -1.97981 -1.60236 0
M  V30 16312 H 1817.1 -3.36699 -0.669974 0
M  V30 16313 N 1819.54 0.750537 -1.38581 0
M  V30 16314 C 1820.95 1.32802 -1.31227 0
M  V30 16315 C 1821.3 1.96176 0.0305372 0
M  V30 16316 O 1820.43 1.95272 0.932614 0
M  V30 16317 C 1821.02 2.41468 -2.37652 0
M  V30 16318 C 1819.58 2.94929 -2.33867 0
M  V30 16319 C 1818.73 1.68339 -2.20357 0
M  V30 16320 H 1821.68 0.549187 -1.48895 0
M  V30 16321 H 1821.7 3.21481 -2.03544 0
M  V30 16322 H 1821.21 1.95313 -3.35372 0
M  V30 16323 H 1819.31 3.45404 -1.39738 0
M  V30 16324 H 1819.43 3.491 -3.28125 0
M  V30 16325 H 1817.79 1.92082 -1.67262 0
M  V30 16326 H 1818.57 1.24258 -3.20023 0
M  V30 16327 N 1821.02 1.235 0.979051 0
M  V30 16328 C 1822.27 1.0658 1.71713 0
M  V30 16329 C 1822.59 -0.397927 1.90897 0
M  V30 16330 O 1821.86 -1.28511 1.47857 0
M  V30 16331 H 1820.44 0.391397 0.636253 0
M  V30 16332 H 1823.1 1.55239 1.17843 0
M  V30 16333 H 1822.2 1.5548 2.70615 0
M  V30 16334 N 1822.5 -1.17802 1.04693 0
M  V30 16335 C 1823.91 -1.69583 0.780923 0
M  V30 16336 C 1824.26 -1.83383 -0.697497 0
M  V30 16337 O 1823.38 -1.51781 -1.54245 0
M  V30 16338 C 1823.98 -3.08021 1.41097 0
M  V30 16339 C 1822.54 -3.56989 1.19313 0
M  V30 16340 C 1821.69 -2.33377 1.49768 0
M  V30 16341 H 1824.64 -1.02389 1.21253 0
M  V30 16342 H 1824.66 -3.71613 0.817539 0
M  V30 16343 H 1824.17 -2.97945 2.48697 0
M  V30 16344 H 1822.27 -3.72351 0.136146 0
M  V30 16345 H 1822.38 -4.40049 1.89456 0
M  V30 16346 H 1820.75 -2.37597 0.917585 0
M  V30 16347 H 1821.53 -2.25914 2.58491 0
M  V30 16348 N 1823.98 -0.827251 -1.34143 0
M  V30 16349 C 1825.39 -0.475645 -1.80539 0
M  V30 16350 C 1825.74 1.00435 -1.68545 0
M  V30 16351 O 1824.86 1.78186 -1.22795 0
M  V30 16352 C 1825.46 -0.856588 -3.27793 0
M  V30 16353 C 1824.02 -0.557289 -3.72252 0
M  V30 16354 C 1823.16 -1.07118 -2.55775 0
M  V30 16355 H 1826.11 -1.01703 -1.21829 0
M  V30 16356 H 1826.14 -0.162059 -3.80155 0
M  V30 16357 H 1825.65 -1.93379 -3.36491 0
M  V30 16358 H 1823.75 0.510328 -3.69089 0
M  V30 16359 H 1823.86 -1.10438 -4.66198 0
M  V30 16360 H 1822.23 -0.492534 -2.49892 0
M  V30 16361 H 1823.01 -2.15492 -2.67242 0
M  V30 16362 N 1825.45 1.46436 -0.582609 0
M  V30 16363 C 1826.7 2.01986 -0.0680147 0
M  V30 16364 C 1827.02 1.45654 1.29653 0
M  V30 16365 O 1826.29 0.641203 1.85109 0
M  V30 16366 H 1824.87 0.746671 -0.022153 0
M  V30 16367 H 1827.53 1.79541 -0.758367 0
M  V30 16368 H 1826.63 3.121 0.00106001 0
M  V30 16369 N 1826.93 0.320385 1.54309 0
M  V30 16370 C 1828.16 -0.28794 2.05391 0
M  V30 16371 C 1828.58 -1.45249 1.19517 0
M  V30 16372 O 1827.94 -1.80154 0.203556 0
M  V30 16373 C 1827.99 -0.703261 3.53676 0
M  V30 16374 O 1827.09 -1.80598 3.70753 0
M  V30 16375 H 1826.43 -0.052589 0.661914 0
M  V30 16376 H 1828.96 0.46787 1.99179 0
M  V30 16377 H 1828.97 -0.986793 3.95887 0
M  V30 16378 H 1827.65 0.148514 4.15635 0
M  V30 16379 H 1826.22 -1.5215 3.40448 0
M  V30 16380 N 1828.41 -1.57525 0.0484906 0
M  V30 16381 C 1829.63 -1.97309 -0.639062 0
M  V30 16382 C 1830.06 -0.925753 -1.63742 0
M  V30 16383 O 1829.42 0.111304 -1.80958 0
M  V30 16384 C 1829.47 -3.36168 -1.30475 0
M  V30 16385 O 1828.57 -3.33903 -2.42038 0
M  V30 16386 H 1827.91 -0.642824 -0.166351 0
M  V30 16387 H 1830.44 -2.0427 0.116095 0
M  V30 16388 H 1830.45 -3.72835 -1.65705 0
M  V30 16389 H 1829.13 -4.11933 -0.573057 0
M  V30 16390 H 1827.7 -3.08978 -2.08775 0
M  V30 16391 N 1829.89 0.224867 -1.55988 0
M  V30 16392 C 1831.14 0.947871 -1.78493 0
M  V30 16393 C 1831.46 1.85001 -0.616413 0
M  V30 16394 O 1830.73 1.92435 0.366847 0
M  V30 16395 H 1829.31 0.352987 -0.658338 0
M  V30 16396 H 1831.97 0.237519 -1.93447 0
M  V30 16397 H 1831.06 1.55664 -2.70509 0
M  V30 16398 N 1831.37 1.49742 0.491438 0
M  V30 16399 C 1832.78 1.52802 1.07278 0
M  V30 16400 C 1833.13 0.319712 1.93578 0
M  V30 16401 O 1832.25 -0.569524 2.08771 0
M  V30 16402 C 1832.85 2.76896 1.95228 0
M  V30 16403 C 1831.41 2.82703 2.48508 0
M  V30 16404 C 1830.55 2.4684 1.26355 0
M  V30 16405 H 1833.5 1.56301 0.274925 0
M  V30 16406 H 1833.53 2.57599 2.80041 0
M  V30 16407 H 1833.04 3.64821 1.32391 0
M  V30 16408 H 1831.14 1.99081 3.14956 0
M  V30 16409 H 1831.25 3.85108 2.85006 0
M  V30 16410 H 1829.62 1.98828 1.59184 0
M  V30 16411 H 1830.4 3.3705 0.652109 0
M  V30 16412 N 1832.84 -0.743177 1.38977 0
M  V30 16413 C 1834.26 -1.32104 1.3193 0
M  V30 16414 C 1834.61 -1.9619 -0.0201331 0
M  V30 16415 O 1833.73 -1.95764 -0.922245 0
M  V30 16416 C 1834.33 -2.40204 2.3893 0
M  V30 16417 C 1832.89 -2.93684 2.35428 0
M  V30 16418 C 1832.03 -1.67168 2.21247 0
M  V30 16419 H 1834.98 -0.541283 1.49184 0
M  V30 16420 H 1835 -3.20397 2.05246 0
M  V30 16421 H 1834.52 -1.93532 3.36403 0
M  V30 16422 H 1832.62 -3.44658 1.41568 0
M  V30 16423 H 1832.73 -3.47355 3.29971 0
M  V30 16424 H 1831.09 -1.91193 1.68278 0
M  V30 16425 H 1831.88 -1.22559 3.20678 0
M  V30 16426 N 1834.32 -1.24018 -0.972487 0
M  V30 16427 C 1835.57 -1.07489 -1.71145 0
M  V30 16428 C 1835.89 0.387798 -1.91105 0
M  V30 16429 O 1835.16 1.27725 -1.48537 0
M  V30 16430 H 1833.74 -0.394765 -0.634168 0
M  V30 16431 H 1836.4 -1.55861 -1.17018 0
M  V30 16432 H 1835.5 -1.56913 -2.69786 0
M  V30 16433 N 1835.8 1.17245 -1.05316 0
M  V30 16434 C 1837.21 1.69167 -0.789906 0
M  V30 16435 C 1837.56 1.83751 0.687762 0
M  V30 16436 O 1836.69 1.52596 1.53438 0
M  V30 16437 C 1837.28 3.07269 -1.42728 0
M  V30 16438 C 1835.84 3.56352 -1.21204 0
M  V30 16439 C 1834.99 2.3258 -1.51003 0
M  V30 16440 H 1837.94 1.01744 -1.21794 0
M  V30 16441 H 1837.96 3.71175 -0.837236 0
M  V30 16442 H 1837.47 2.96622 -2.50273 0
M  V30 16443 H 1835.57 3.72274 -0.155891 0
M  V30 16444 H 1835.69 4.39038 -1.91787 0
M  V30 16445 H 1834.05 2.37107 -0.930172 0
M  V30 16446 H 1834.83 2.2454 -2.59685 0
M  V30 16447 N 1837.28 0.834353 1.33702 0
M  V30 16448 C 1838.24 0.269618 2.27609 0
M  V30 16449 C 1839.24 -0.559065 1.50768 0
M  V30 16450 O 1840.43 -0.373511 1.70149 0
M  V30 16451 C 1837.56 -0.620682 3.35202 0
M  V30 16452 H 1838.76 1.09819 2.79069 0
M  V30 16453 H 1836.31 0.607087 1.44028 0
M  V30 16454 H 1837.04 -1.47187 2.88975 0
M  V30 16455 H 1836.83 -0.0278102 3.9209 0
M  V30 16456 H 1838.32 -1.00924 4.05221 0
M  V30 16457 N 1838.76 -1.46125 0.590367 0
M  V30 16458 C 1840 -2.01947 0.0787256 0
M  V30 16459 C 1840.33 -1.4634 -1.28878 0
M  V30 16460 O 1839.6 -0.651011 -1.84767 0
M  V30 16461 H 1838.18 -0.746543 0.0261125 0
M  V30 16462 H 1840.84 -1.79136 0.767877 0
M  V30 16463 H 1839.93 -3.12096 0.0154914 0
M  V30 16464 N 1840.23 -0.328564 -1.54137 0
M  V30 16465 C 1841.2 0.52248 -2.23165 0
M  V30 16466 C 1842.2 1.03956 -1.22677 0
M  V30 16467 O 1843.39 0.931193 -1.47222 0
M  V30 16468 C 1840.52 1.72624 -2.93962 0
M  V30 16469 H 1841.71 -0.081023 -2.99791 0
M  V30 16470 H 1839.27 -0.0797096 -1.56097 0
M  V30 16471 H 1840 2.36885 -2.21486 0
M  V30 16472 H 1839.79 1.36283 -3.67654 0
M  V30 16473 H 1841.28 2.33023 -3.4654 0
M  V30 16474 N 1841.71 1.57497 -0.0568439 0
M  V30 16475 C 1842.94 1.97231 0.625102 0
M  V30 16476 C 1843.36 0.934622 1.64043 0
M  V30 16477 O 1842.71 -0.0805064 1.82322 0
M  V30 16478 C 1842.76 3.37046 1.30698 0
M  V30 16479 O 1842.48 4.36838 0.332302 0
M  V30 16480 C 1843.99 3.9157 2.07816 0
M  V30 16481 H 1841.21 0.648975 0.170505 0
M  V30 16482 H 1843.75 2.04119 -0.124823 0
M  V30 16483 H 1841.9 3.31292 2.0081 0
M  V30 16484 H 1842.32 5.18055 0.819691 0
M  V30 16485 H 1843.79 4.91664 2.5094 0
M  V30 16486 H 1844.27 3.27303 2.92864 0
M  V30 16487 H 1844.88 4.0068 1.42603 0
M  V30 16488 N 1843.19 -0.216591 1.56105 0
M  V30 16489 C 1844.44 -0.938392 1.78993 0
M  V30 16490 C 1844.76 -1.84671 0.626215 0
M  V30 16491 O 1844.03 -1.92626 -0.356636 0
M  V30 16492 H 1842.61 -0.349491 0.660201 0
M  V30 16493 H 1845.27 -0.227256 1.93571 0
M  V30 16494 H 1844.37 -1.54227 2.71331 0
M  V30 16495 N 1844.67 -1.5 -0.48349 0
M  V30 16496 C 1846.08 -1.37151 -0.816192 0
M  V30 16497 C 1846.28 -0.418047 -1.97116 0
M  V30 16498 O 1845.34 0.143884 -2.5209 0
M  V30 16499 C 1846.65 -2.78256 -1.13992 0
M  V30 16500 C 1848.2 -2.87082 -1.2471 0
M  V30 16501 C 1848.68 -4.28993 -1.60403 0
M  V30 16502 N 1850.17 -4.31886 -1.67419 0
M  V30 16503 C 1850.9 -5.38673 -1.96516 0
M  V30 16504 N 1850.4 -6.55685 -2.23718 0
M  V30 16505 N 1852.19 -5.26105 -1.97914 0
M  V30 16506 H 1844.34 -2.10575 0.277847 0
M  V30 16507 H 1846.61 -0.945986 0.0617554 0
M  V30 16508 H 1846.31 -3.49807 -0.364448 0
M  V30 16509 H 1846.19 -3.14724 -2.07916 0
M  V30 16510 H 1848.57 -2.15758 -2.01327 0
M  V30 16511 H 1848.65 -2.54174 -0.287959 0
M  V30 16512 H 1848.3 -5.0085 -0.84331 0
M  V30 16513 H 1848.23 -4.59379 -2.57447 0
M  V30 16514 H 1850.72 -3.47506 -1.48487 0
M  V30 16515 H 1851.03 -7.32883 -2.45158 0
M  V30 16516 H 1849.38 -6.58881 -2.21136 0
M  V30 16517 H 1852.57 -4.33692 -1.76151 0
M  V30 16518 H 1852.74 -6.09419 -2.20256 0
M  V30 16519 N 1846.15 0.735796 -1.39369 0
M  V30 16520 C 1847.11 1.83148 -1.37802 0
M  V30 16521 C 1848.11 1.58426 -0.27528 0
M  V30 16522 O 1849.3 1.65841 -0.53314 0
M  V30 16523 C 1846.43 3.20923 -1.14984 0
M  V30 16524 H 1847.62 1.85941 -2.353 0
M  V30 16525 H 1845.18 0.939367 -1.24922 0
M  V30 16526 H 1845.91 3.23791 -0.181648 0
M  V30 16527 H 1845.7 3.40264 -1.94841 0
M  V30 16528 H 1847.19 4.00984 -1.16626 0
M  V30 16529 N 1847.63 1.24532 0.965897 0
M  V30 16530 C 1849.04 1.07886 1.52373 0
M  V30 16531 C 1849.39 -0.349136 1.93069 0
M  V30 16532 O 1848.51 -1.23774 1.77508 0
M  V30 16533 C 1849.11 1.95224 2.76899 0
M  V30 16534 C 1847.67 1.82796 3.29033 0
M  V30 16535 C 1846.81 1.9005 2.01931 0
M  V30 16536 H 1849.76 1.37982 0.783997 0
M  V30 16537 H 1849.79 1.48558 3.50301 0
M  V30 16538 H 1849.3 2.99148 2.47249 0
M  V30 16539 H 1847.4 0.817115 3.6353 0
M  V30 16540 H 1847.51 2.66989 3.97811 0
M  V30 16541 H 1845.88 1.338 2.16725 0
M  V30 16542 H 1846.66 2.95558 1.74644 0
M  V30 16543 N 1849.1 -1.16685 1.05936 0
M  V30 16544 C 1850.05 -2.20953 0.66695 0
M  V30 16545 C 1851.02 -1.62694 -0.334621 0
M  V30 16546 O 1852.21 -1.89477 -0.22433 0
M  V30 16547 C 1849.35 -3.45055 0.0557459 0
M  V30 16548 C 1848.46 -4.17574 1.10706 0
M  V30 16549 C 1847.59 -5.29184 0.462377 0
M  V30 16550 C 1846.63 -5.935 1.49748 0
M  V30 16551 N 1845.77 -6.96608 0.876416 0
M  V30 16552 H 1850.61 -2.53872 1.56054 0
M  V30 16553 H 1848.15 -1.24697 0.780321 0
M  V30 16554 H 1850.1 -4.16001 -0.316125 0
M  V30 16555 H 1848.73 -3.12697 -0.801265 0
M  V30 16556 H 1847.79 -3.45269 1.59668 0
M  V30 16557 H 1849.1 -4.61505 1.89248 0
M  V30 16558 H 1848.25 -6.06689 0.0373376 0
M  V30 16559 H 1846.99 -4.86407 -0.354955 0
M  V30 16560 H 1846 -5.1472 1.93245 0
M  V30 16561 H 1847.22 -6.38357 2.31684 0
M  V30 16562 H 1845.17 -6.55952 0.0797299 0
M  V30 16563 H 1845.08 -7.38891 1.59927 0
M  V30 16564 H 1846.35 -7.78043 0.4764 0
M  V30 16565 N 1850.58 -0.841432 -1.33258 0
M  V30 16566 C 1851.86 -0.360204 -1.92255 0
M  V30 16567 C 1852.24 1.15474 -1.76717 0
M  V30 16568 O 1851.59 1.97035 -1.15713 0
M  V30 16569 C 1851.8 -0.809942 -3.39472 0
M  V30 16570 C 1853.14 -0.819444 -4.16618 0
M  V30 16571 O 1854.17 -0.753715 -3.48134 0
M  V30 16572 O 1853.03 -0.909553 -5.38878 0
M  V30 16573 H 1850.12 -0.102458 -0.820629 0
M  V30 16574 H 1852.67 -0.927455 -1.42114 0
M  V30 16575 H 1851.44 -1.85263 -3.44664 0
M  V30 16576 H 1851.06 -0.219406 -3.96994 0
M  V30 16577 N 1852.06 1.4581 -0.598108 0
M  V30 16578 C 1853.31 2.01511 -0.0872421 0
M  V30 16579 C 1853.62 1.47345 1.28642 0
M  V30 16580 O 1854.83 1.94963 1.88949 0
M  V30 16581 C 1853.28 3.59746 -0.105317 0
M  V30 16582 C 1852.89 4.22909 -1.47824 0
M  V30 16583 C 1854.64 4.23048 0.350802 0
M  V30 16584 C 1852.54 5.73268 -1.45321 0
M  V30 16585 H 1851.47 0.753448 -0.0288462 0
M  V30 16586 H 1854.12 1.67382 -0.752037 0
M  V30 16587 H 1852.51 3.91022 0.625947 0
M  V30 16588 H 1853.68 4.03221 -2.23046 0
M  V30 16589 H 1851.99 3.71763 -1.87566 0
M  V30 16590 H 1854.59 5.33286 0.388561 0
M  V30 16591 H 1854.93 3.93058 1.37155 0
M  V30 16592 H 1855.47 3.96455 -0.326889 0
M  V30 16593 H 1852.21 6.07942 -2.45126 0
M  V30 16594 H 1851.73 5.95175 -0.743436 0
M  V30 16595 H 1853.41 6.36283 -1.17275 0
M  V30 16596 N 1853.54 0.336733 1.53961 0
M  V30 16597 C 1854.95 -0.148599 1.86108 0
M  V30 16598 C 1855.3 -1.50551 1.25812 0
M  V30 16599 O 1854.42 -2.08782 0.569109 0
M  V30 16600 C 1855.02 -0.276413 3.37671 0
M  V30 16601 C 1853.58 -0.705973 3.6972 0
M  V30 16602 C 1852.73 0.164407 2.76812 0
M  V30 16603 H 1855.68 0.556568 1.4862 0
M  V30 16604 H 1855.7 -1.10509 3.64099 0
M  V30 16605 H 1855.21 0.711315 3.81526 0
M  V30 16606 H 1853.31 -1.70297 3.31406 0
M  V30 16607 H 1853.42 -0.500591 4.76478 0
M  V30 16608 H 1851.79 -0.362166 2.52112 0
M  V30 16609 H 1852.57 1.14914 3.23496 0
M  V30 16610 N 1855.02 -1.57465 0.0651956 0
M  V30 16611 C 1856.29 -1.84622 -0.646065 0
M  V30 16612 C 1856.67 -0.956374 -1.88193 0
M  V30 16613 O 1856.02 -0.0209666 -2.2849 0
M  V30 16614 C 1856.23 -3.34664 -0.990013 0
M  V30 16615 C 1857.58 -4.02016 -1.36632 0
M  V30 16616 O 1858.6 -3.39371 -1.08194 0
M  V30 16617 O 1857.46 -5.12496 -1.89764 0
M  V30 16618 H 1854.56 -0.762482 -0.320236 0
M  V30 16619 H 1857.1 -1.6943 0.0956254 0
M  V30 16620 H 1855.87 -3.9114 -0.111977 0
M  V30 16621 H 1855.5 -3.55094 -1.78869 0
M  V30 16622 N 1856.49 0.20831 -1.56217 0
M  V30 16623 C 1857.9 0.774162 -1.69893 0
M  V30 16624 C 1858.26 1.84424 -0.669506 0
M  V30 16625 O 1857.38 2.15677 0.176748 0
M  V30 16626 C 1857.98 1.41102 -3.08019 0
M  V30 16627 C 1856.53 1.9241 -3.23505 0
M  V30 16628 C 1855.68 0.789129 -2.65835 0
M  V30 16629 H 1858.63 -0.0165614 -1.58691 0
M  V30 16630 H 1858.65 2.28015 -3.04614 0
M  V30 16631 H 1858.17 0.631966 -3.8292 0
M  V30 16632 H 1856.27 2.73076 -2.53496 0
M  V30 16633 H 1856.38 2.09497 -4.30868 0
M  V30 16634 H 1854.74 1.19995 -2.24663 0
M  V30 16635 H 1855.53 0.0225345 -3.43293 0
M  V30 16636 N 1857.97 1.50255 0.475528 0
M  V30 16637 C 1859.22 1.60704 1.22551 0
M  V30 16638 C 1859.54 0.307375 1.92562 0
M  V30 16639 O 1858.81 -0.674885 1.83908 0
M  V30 16640 H 1857.39 0.592176 0.455343 0
M  V30 16641 H 1860.05 1.8701 0.548926 0
M  V30 16642 H 1859.15 2.41596 1.9758 0
M  V30 16643 N 1859.45 -0.728395 1.39758 0
M  V30 16644 C 1860.86 -1.30697 1.33323 0
M  V30 16645 C 1861.21 -1.962 0.000676614 0
M  V30 16646 O 1860.34 -1.96731 -0.90143 0
M  V30 16647 C 1860.93 -2.37656 2.41464 0
M  V30 16648 C 1859.49 -2.91171 2.3853 0
M  V30 16649 C 1858.64 -1.64812 2.23007 0
M  V30 16650 H 1861.59 -0.525429 1.4975 0
M  V30 16651 H 1861.61 -3.18202 2.08633 0
M  V30 16652 H 1861.12 -1.89953 3.38437 0
M  V30 16653 H 1859.22 -3.43137 1.45216 0
M  V30 16654 H 1859.34 -3.43836 3.33637 0
M  V30 16655 H 1857.7 -1.89397 1.70296 0
M  V30 16656 H 1858.48 -1.19151 3.21959 0
M  V30 16657 N 1860.93 -1.25042 -0.959279 0
M  V30 16658 C 1862.34 -1.08692 -1.51799 0
M  V30 16659 C 1862.69 0.338893 -1.93251 0
M  V30 16660 O 1861.81 1.22831 -1.78162 0
M  V30 16661 C 1862.41 -1.9669 -2.7586 0
M  V30 16662 C 1860.97 -1.84538 -3.28059 0
M  V30 16663 C 1860.12 -1.91119 -2.0092 0
M  V30 16664 H 1863.07 -1.38396 -0.776669 0
M  V30 16665 H 1863.09 -1.50414 -3.49508 0
M  V30 16666 H 1862.6 -3.00455 -2.45659 0
M  V30 16667 H 1860.7 -0.836383 -3.63091 0
M  V30 16668 H 1860.81 -2.69095 -3.96389 0
M  V30 16669 H 1859.18 -1.34948 -2.16012 0
M  V30 16670 H 1859.96 -2.9648 -1.73074 0
M  V30 16671 N 1862.41 1.16121 -1.06553 0
M  V30 16672 C 1863.65 1.86346 -0.782279 0
M  V30 16673 C 1863.98 1.82255 0.693395 0
M  V30 16674 O 1863.25 1.2579 1.50179 0
M  V30 16675 H 1861.83 0.689921 -0.286388 0
M  V30 16676 H 1864.49 1.40805 -1.34758 0
M  V30 16677 H 1863.58 2.91712 -1.10954 0
M  V30 16678 N 1863.88 0.848487 1.3281 0
M  V30 16679 C 1865.16 0.370395 1.92061 0
M  V30 16680 C 1865.54 -1.14535 1.77327 0
M  V30 16681 O 1864.89 -1.96419 1.16756 0
M  V30 16682 C 1865.1 0.827934 3.39037 0
M  V30 16683 C 1866.45 0.841527 4.16177 0
M  V30 16684 O 1867.47 0.772167 3.4773 0
M  V30 16685 O 1866.33 0.938119 5.38388 0
M  V30 16686 H 1863.42 0.106809 0.820074 0
M  V30 16687 H 1865.97 0.934979 1.4162 0
M  V30 16688 H 1864.74 1.87089 3.43676 0
M  V30 16689 H 1864.37 0.240456 3.96872 0
M  V30 16690 N 1865.36 -1.4549 0.605832 0
M  V30 16691 C 1866.29 -2.28694 -0.152145 0
M  V30 16692 C 1867.31 -1.3985 -0.833422 0
M  V30 16693 O 1868.5 -1.6424 -0.699105 0
M  V30 16694 C 1865.6 -3.15544 -1.23634 0
M  V30 16695 C 1864.77 -4.32655 -0.642525 0
M  V30 16696 C 1863.83 -5.00726 -1.61739 0
M  V30 16697 O 1862.85 -5.57577 -1.14438 0
M  V30 16698 N 1864.06 -4.9985 -2.95178 0
M  V30 16699 H 1866.82 -2.94387 0.561801 0
M  V30 16700 H 1864.38 -1.55659 0.445195 0
M  V30 16701 H 1866.37 -3.57947 -1.88828 0
M  V30 16702 H 1864.94 -2.51771 -1.85284 0
M  V30 16703 H 1864.16 -3.93754 0.187451 0
M  V30 16704 H 1865.45 -5.08298 -0.225985 0
M  V30 16705 H 1864.85 -4.54949 -3.36211 0
M  V30 16706 H 1863.41 -5.46123 -3.558 0
M  V30 16707 N 1866.84 -0.344893 -1.5378 0
M  V30 16708 C 1868.09 0.250711 -2.00539 0
M  V30 16709 C 1868.41 1.5096 -1.23435 0
M  V30 16710 O 1867.68 1.92893 -0.341893 0
M  V30 16711 H 1866.26 0.0956318 -0.740853 0
M  V30 16712 H 1868.92 -0.466361 -1.89238 0
M  V30 16713 H 1868.02 0.49222 -3.08194 0
M  V30 16714 N 1868.32 1.57428 -0.0735454 0
M  V30 16715 C 1869.73 1.80973 0.458858 0
M  V30 16716 C 1870.08 0.987586 1.69532 0
M  V30 16717 O 1869.21 0.210611 2.15373 0
M  V30 16718 C 1869.8 3.28241 0.839246 0
M  V30 16719 C 1868.36 3.52626 1.3165 0
M  V30 16720 C 1867.51 2.75645 0.302533 0
M  V30 16721 H 1870.46 1.55854 -0.299225 0
M  V30 16722 H 1870.48 3.40386 1.70052 0
M  V30 16723 H 1869.99 3.88052 -0.0608625 0
M  V30 16724 H 1868.09 2.98121 2.23505 0
M  V30 16725 H 1868.2 4.61316 1.29322 0
M  V30 16726 H 1866.57 2.42457 0.780179 0
M  V30 16727 H 1867.35 3.38194 -0.589878 0
M  V30 16728 N 1869.8 -0.200022 1.56326 0
M  V30 16729 C 1871.21 -0.765141 1.70301 0
M  V30 16730 C 1871.56 -1.84066 0.679277 0
M  V30 16731 O 1870.68 -2.15768 -0.165308 0
M  V30 16732 C 1871.28 -1.39466 3.08763 0
M  V30 16733 C 1869.84 -1.90692 3.2452 0
M  V30 16734 C 1868.98 -0.77502 2.66249 0
M  V30 16735 H 1871.94 0.024977 1.5868 0
M  V30 16736 H 1871.96 -2.26396 3.05819 0
M  V30 16737 H 1871.47 -0.61165 3.8325 0
M  V30 16738 H 1869.57 -2.71728 2.54941 0
M  V30 16739 H 1869.68 -2.0721 4.31973 0
M  V30 16740 H 1868.05 -1.18802 2.25296 0
M  V30 16741 H 1868.83 -0.00432851 3.433 0
M  V30 16742 N 1871.27 -1.50505 -0.467553 0
M  V30 16743 C 1872.52 -1.61352 -1.21697 0
M  V30 16744 C 1872.84 -0.317583 -1.92396 0
M  V30 16745 O 1872.11 0.665123 -1.84263 0
M  V30 16746 H 1870.69 -0.594582 -0.452196 0
M  V30 16747 H 1873.36 -1.87299 -0.539 0
M  V30 16748 H 1872.45 -2.4264 -1.96296 0
M  V30 16749 N 1872.75 0.720973 -1.40142 0
M  V30 16750 C 1874.16 1.29988 -1.34015 0
M  V30 16751 C 1874.51 1.96197 -0.0110816 0
M  V30 16752 O 1873.64 1.97207 0.890984 0
M  V30 16753 C 1874.23 2.36373 -2.42721 0
M  V30 16754 C 1872.79 2.89902 -2.40071 0
M  V30 16755 C 1871.94 1.63627 -2.23878 0
M  V30 16756 H 1874.89 0.51748 -1.50026 0
M  V30 16757 H 1874.91 3.17091 -2.10317 0
M  V30 16758 H 1874.42 1.88156 -3.39439 0
M  V30 16759 H 1872.53 3.42362 -1.47033 0
M  V30 16760 H 1872.64 3.42062 -3.35456 0
M  V30 16761 H 1871 1.88491 -1.71298 0
M  V30 16762 H 1871.79 1.17442 -3.22587 0
M  V30 16763 N 1874.23 1.25549 0.952634 0
M  V30 16764 C 1875.51 1.01186 1.67394 0
M  V30 16765 C 1875.89 -0.461292 2.05998 0
M  V30 16766 O 1875.24 -1.43909 1.77489 0
M  V30 16767 C 1875.45 1.94954 2.89472 0
M  V30 16768 C 1876.79 2.22911 3.6138 0
M  V30 16769 O 1877.82 1.92728 2.99557 0
M  V30 16770 O 1876.68 2.74246 4.72706 0
M  V30 16771 H 1873.77 0.383874 0.732509 0
M  V30 16772 H 1876.32 1.36712 1.00538 0
M  V30 16773 H 1875.09 2.94416 2.5775 0
M  V30 16774 H 1874.71 1.59837 3.64058 0
M  V30 16775 N 1875.71 -1.15554 1.07168 0
M  V30 16776 C 1876.96 -1.85928 0.792151 0
M  V30 16777 C 1877.28 -1.82621 -0.68372 0
M  V30 16778 O 1876.55 -1.26585 -1.49509 0
M  V30 16779 H 1875.13 -0.688393 0.290043 0
M  V30 16780 H 1877.79 -1.40089 1.35503 0
M  V30 16781 H 1876.89 -2.91119 1.125 0
M  V30 16782 N 1877.19 -0.855519 -1.32358 0
M  V30 16783 C 1878.6 -0.513833 -1.7949 0
M  V30 16784 C 1878.95 0.968373 -1.70637 0
M  V30 16785 O 1878.07 1.75541 -1.26547 0
M  V30 16786 C 1878.67 -0.925925 -3.25902 0
M  V30 16787 C 1877.23 -0.636124 -3.70986 0
M  V30 16788 C 1876.38 -1.12519 -2.53446 0
M  V30 16789 H 1879.33 -1.04264 -1.19644 0
M  V30 16790 H 1879.35 -0.242659 -3.79725 0
M  V30 16791 H 1878.86 -2.00473 -3.32313 0
M  V30 16792 H 1876.96 0.431924 -3.70088 0
M  V30 16793 H 1877.07 -1.20302 -4.6375 0
M  V30 16794 H 1875.44 -0.545429 -2.48791 0
M  V30 16795 H 1876.22 -2.21112 -2.62611 0
M  V30 16796 N 1878.67 1.45167 -0.61354 0
M  V30 16797 C 1880.08 1.57166 -0.277678 0
M  V30 16798 C 1880.28 1.60395 1.21965 0
M  V30 16799 O 1879.34 1.53747 2.00295 0
M  V30 16800 C 1880.65 2.85162 -0.9541 0
M  V30 16801 C 1882.2 2.98847 -0.930579 0
M  V30 16802 C 1882.67 4.29621 -1.58712 0
M  V30 16803 N 1884.16 4.36394 -1.55289 0
M  V30 16804 C 1884.9 5.36264 -2.02999 0
M  V30 16805 N 1884.4 6.42638 -2.58821 0
M  V30 16806 N 1886.19 5.27659 -1.93732 0
M  V30 16807 H 1878.34 1.41314 -1.58569 0
M  V30 16808 H 1880.6 0.676027 -0.664598 0
M  V30 16809 H 1880.31 2.88698 -2.00864 0
M  V30 16810 H 1880.18 3.7412 -0.481025 0
M  V30 16811 H 1882.57 2.94874 0.115433 0
M  V30 16812 H 1882.65 2.11283 -1.44198 0
M  V30 16813 H 1882.29 4.34352 -2.6325 0
M  V30 16814 H 1882.22 5.16011 -1.0507 0
M  V30 16815 H 1884.72 3.60131 -1.14516 0
M  V30 16816 H 1885.03 7.151 -2.93004 0
M  V30 16817 H 1883.37 6.43372 -2.62863 0
M  V30 16818 H 1886.56 4.43465 -1.49856 0
M  V30 16819 H 1886.74 6.05341 -2.31227 0
M  V30 16820 N 1880.14 0.353044 1.53595 0
M  V30 16821 C 1881.39 -0.240073 2.00669 0
M  V30 16822 C 1881.71 -1.50303 1.24234 0
M  V30 16823 O 1880.98 -1.92709 0.352118 0
M  V30 16824 H 1879.56 -0.0917016 0.74135 0
M  V30 16825 H 1882.22 0.47639 1.88988 0
M  V30 16826 H 1881.32 -0.475869 3.08451 0
M  V30 16827 N 1881.62 -1.57387 0.0818932 0
M  V30 16828 C 1882.58 -2.12162 -0.86718 0
M  V30 16829 C 1883.58 -1.04788 -1.21967 0
M  V30 16830 O 1884.77 -1.30733 -1.15128 0
M  V30 16831 C 1881.91 -2.63132 -2.16736 0
M  V30 16832 H 1883.1 -2.9733 -0.391788 0
M  V30 16833 H 1880.65 -1.55406 -0.166944 0
M  V30 16834 H 1881.39 -1.81446 -2.6879 0
M  V30 16835 H 1881.17 -3.41625 -1.92445 0
M  V30 16836 H 1882.66 -3.05549 -2.84657 0
M  V30 16837 N 1883.1 0.191729 -1.56429 0
M  V30 16838 C 1884.51 0.756099 -1.70705 0
M  V30 16839 C 1884.86 1.83703 -0.689029 0
M  V30 16840 O 1883.99 2.15852 0.153863 0
M  V30 16841 C 1884.58 1.37827 -3.09498 0
M  V30 16842 C 1883.14 1.88968 -3.25527 0
M  V30 16843 C 1882.29 0.76089 -2.66657 0
M  V30 16844 H 1885.24 -0.0333918 -1.58665 0
M  V30 16845 H 1885.26 2.24771 -3.07015 0
M  V30 16846 H 1884.77 0.591316 -3.83569 0
M  V30 16847 H 1882.87 2.70372 -2.56378 0
M  V30 16848 H 1882.99 2.04916 -4.33066 0
M  V30 16849 H 1881.35 1.17606 -2.25923 0
M  V30 16850 H 1882.13 -0.0138776 -3.43297 0
M  V30 16851 N 1884.58 1.50751 0.459565 0
M  V30 16852 C 1885.83 1.61995 1.20839 0
M  V30 16853 C 1886.15 0.327782 1.92225 0
M  V30 16854 O 1885.42 -0.655341 1.84613 0
M  V30 16855 H 1884 0.596972 0.449036 0
M  V30 16856 H 1886.66 1.87582 0.52906 0
M  V30 16857 H 1885.75 2.43678 1.95006 0
M  V30 16858 N 1886.06 -0.713531 1.40522 0
M  V30 16859 C 1887.47 -1.29276 1.34702 0
M  V30 16860 C 1887.82 -1.96188 0.0214862 0
M  V30 16861 O 1886.94 -1.97676 -0.880513 0
M  V30 16862 C 1887.54 -2.35082 2.43971 0
M  V30 16863 C 1886.1 -2.88624 2.41605 0
M  V30 16864 C 1885.24 -1.62437 2.24743 0
M  V30 16865 H 1888.19 -0.509517 1.50298 0
M  V30 16866 H 1888.22 -3.15971 2.11996 0
M  V30 16867 H 1887.73 -1.86353 3.40432 0
M  V30 16868 H 1885.83 -3.41578 1.48847 0
M  V30 16869 H 1885.94 -3.40278 3.37265 0
M  V30 16870 H 1884.31 -1.8758 1.72296 0
M  V30 16871 H 1885.09 -1.1573 3.23205 0
M  V30 16872 N 1887.53 -1.26053 -0.945962 0
M  V30 16873 C 1888.94 -1.10296 -1.50638 0
M  V30 16874 C 1889.3 0.318377 -1.936 0
M  V30 16875 O 1888.42 1.20934 -1.79454 0
M  V30 16876 C 1889.02 -1.99604 -2.73758 0
M  V30 16877 C 1887.57 -1.88007 -3.26083 0
M  V30 16878 C 1886.72 -1.93239 -1.98882 0
M  V30 16879 H 1889.67 -1.39212 -0.761946 0
M  V30 16880 H 1889.69 -1.54113 -3.47893 0
M  V30 16881 H 1889.21 -3.03044 -2.42459 0
M  V30 16882 H 1887.31 -0.874846 -3.62184 0
M  V30 16883 H 1887.42 -2.73285 -3.93513 0
M  V30 16884 H 1885.78 -1.37231 -2.14568 0
M  V30 16885 H 1886.57 -2.98299 -1.6992 0
M  V30 16886 N 1889.01 1.14984 -1.07779 0
M  V30 16887 C 1890.26 1.85506 -0.802 0
M  V30 16888 C 1890.58 1.82981 0.674026 0
M  V30 16889 O 1889.85 1.27376 1.48836 0
M  V30 16890 H 1888.43 0.686845 -0.293689 0
M  V30 16891 H 1891.09 1.39368 -1.36244 0
M  V30 16892 H 1890.19 2.90518 -1.14042 0
M  V30 16893 N 1890.49 0.862526 1.31902 0
M  V30 16894 C 1891.42 0.328423 2.31179 0
M  V30 16895 C 1892.4 -0.57668 1.60026 0
M  V30 16896 O 1893.59 -0.49527 1.87778 0
M  V30 16897 C 1890.72 -0.47734 3.44004 0
M  V30 16898 C 1889.67 0.334015 4.26695 0
M  V30 16899 C 1889 -0.596973 5.31357 0
M  V30 16900 C 1890.3 1.56405 4.98332 0
M  V30 16901 H 1891.99 1.15797 2.761 0
M  V30 16902 H 1889.54 0.558268 1.32738 0
M  V30 16903 H 1891.49 -0.861461 4.12501 0
M  V30 16904 H 1890.21 -1.34033 2.9783 0
M  V30 16905 H 1888.87 0.699989 3.59855 0
M  V30 16906 H 1888.52 -1.45703 4.81435 0
M  V30 16907 H 1888.22 -0.0580517 5.87571 0
M  V30 16908 H 1889.74 -0.978099 6.02715 0
M  V30 16909 H 1891.16 1.25178 5.59467 0
M  V30 16910 H 1889.55 2.04149 5.64308 0
M  V30 16911 H 1890.62 2.32099 4.25744 0
M  V30 16912 N 1891.97 -1.4484 0.62123 0
M  V30 16913 C 1893.38 -1.85568 0.205284 0
M  V30 16914 C 1893.73 -1.51963 -1.24104 0
M  V30 16915 O 1892.86 -0.952887 -1.94291 0
M  V30 16916 C 1893.45 -3.3682 0.365788 0
M  V30 16917 C 1892.01 -3.764 0.00442911 0
M  V30 16918 C 1891.16 -2.68736 0.683839 0
M  V30 16919 H 1894.11 -1.35447 0.827036 0
M  V30 16920 H 1894.13 -3.78411 -0.398123 0
M  V30 16921 H 1893.64 -3.61247 1.41853 0
M  V30 16922 H 1891.74 -3.57588 -1.04696 0
M  V30 16923 H 1891.85 -4.77363 0.407588 0
M  V30 16924 H 1890.22 -2.54417 0.120114 0
M  V30 16925 H 1891 -2.95997 1.73898 0
M  V30 16926 N 1893.45 -0.361184 -1.53405 0
M  V30 16927 C 1894.69 0.229427 -2.00794 0
M  V30 16928 C 1895.02 1.49642 -1.25029 0
M  V30 16929 O 1894.29 1.9252 -0.362333 0
M  V30 16930 H 1892.87 0.0877687 -0.741826 0
M  V30 16931 H 1895.53 -0.486406 -1.88733 0
M  V30 16932 H 1894.62 0.459504 -3.08699 0
M  V30 16933 N 1894.92 1.57341 -0.0902386 0
M  V30 16934 C 1896.15 1.98934 0.586524 0
M  V30 16935 C 1896.57 0.968841 1.6123 0
M  V30 16936 O 1895.93 -0.0632868 1.8119 0
M  V30 16937 C 1895.98 3.39509 1.21516 0
M  V30 16938 O 1895.08 3.40203 2.331 0
M  V30 16939 H 1894.43 0.647009 0.14925 0
M  V30 16940 H 1896.96 2.03891 -0.170213 0
M  V30 16941 H 1896.97 3.77097 1.55762 0
M  V30 16942 H 1895.64 4.13308 0.463639 0
M  V30 16943 H 1894.22 3.14405 2.0051 0
M  V30 16944 N 1896.4 -0.183431 1.56529 0
M  V30 16945 C 1897.65 -0.903332 1.8157 0
M  V30 16946 C 1897.98 -1.82417 0.666167 0
M  V30 16947 O 1897.26 -1.91635 -0.332621 0
M  V30 16948 C 1897.54 -1.70949 3.16936 0
M  V30 16949 C 1897.39 -0.812595 4.42399 0
M  V30 16950 C 1898.71 -2.6797 3.49113 0
M  V30 16951 H 1895.83 -0.326961 0.660504 0
M  V30 16952 H 1898.47 -0.170115 1.89237 0
M  V30 16953 H 1896.62 -2.33458 3.10531 0
M  V30 16954 H 1898.29 -0.201313 4.60861 0
M  V30 16955 H 1896.54 -0.119949 4.33634 0
M  V30 16956 H 1897.21 -1.4119 5.33638 0
M  V30 16957 H 1899.68 -2.15591 3.55893 0
M  V30 16958 H 1898.56 -3.21451 4.44927 0
M  V30 16959 H 1898.82 -3.47584 2.73199 0
M  V30 16960 N 1897.88 -1.50992 -0.451564 0
M  V30 16961 C 1899.16 -1.53486 -1.2125 0
M  V30 16962 C 1899.54 -0.290809 -2.09087 0
M  V30 16963 O 1898.89 0.724859 -2.16698 0
M  V30 16964 C 1899.1 -2.84125 -2.02667 0
M  V30 16965 C 1900.44 -3.35535 -2.60195 0
M  V30 16966 O 1901.47 -2.85579 -2.12892 0
M  V30 16967 O 1900.33 -4.22667 -3.46432 0
M  V30 16968 H 1897.42 -0.616481 -0.551253 0
M  V30 16969 H 1899.97 -1.63296 -0.461792 0
M  V30 16970 H 1898.74 -3.66134 -1.38064 0
M  V30 16971 H 1898.36 -2.7741 -2.84832 0
M  V30 16972 N 1899.36 0.706069 -1.40899 0
M  V30 16973 C 1900.29 1.83275 -1.44681 0
M  V30 16974 C 1901.27 1.67313 -0.306629 0
M  V30 16975 O 1902.45 1.87203 -0.516597 0
M  V30 16976 C 1899.58 3.21319 -1.318 0
M  V30 16977 C 1898.54 3.51969 -2.4352 0
M  V30 16978 C 1897.86 4.89258 -2.1571 0
M  V30 16979 C 1899.16 3.52004 -3.85864 0
M  V30 16980 H 1900.86 1.80367 -2.38973 0
M  V30 16981 H 1898.4 0.866349 -1.15023 0
M  V30 16982 H 1900.36 3.99841 -1.3306 0
M  V30 16983 H 1899.08 3.24827 -0.339879 0
M  V30 16984 H 1897.74 2.75792 -2.41525 0
M  V30 16985 H 1897.39 4.89378 -1.16266 0
M  V30 16986 H 1897.09 5.1073 -2.90566 0
M  V30 16987 H 1898.61 5.70102 -2.18669 0
M  V30 16988 H 1900.03 4.20548 -3.8963 0
M  V30 16989 H 1898.42 3.85005 -4.60316 0
M  V30 16990 H 1899.49 2.51191 -4.14766 0
M  V30 16991 N 1900.84 1.26553 0.939264 0
M  V30 16992 C 1901.77 1.10778 2.05549 0
M  V30 16993 C 1902.75 0.0124359 1.70095 0
M  V30 16994 O 1903.93 0.184814 1.93319 0
M  V30 16995 C 1901.06 0.742011 3.39281 0
M  V30 16996 C 1900.02 1.78931 3.88803 0
M  V30 16997 C 1899.34 1.2778 5.19207 0
M  V30 16998 C 1900.64 3.1912 4.13473 0
M  V30 16999 H 1902.34 2.04151 2.19004 0
M  V30 17000 H 1899.88 0.98294 1.05234 0
M  V30 17001 H 1901.84 0.618526 4.16836 0
M  V30 17002 H 1900.56 -0.22742 3.25807 0
M  V30 17003 H 1899.22 1.9015 3.13431 0
M  V30 17004 H 1898.87 0.298159 5.02116 0
M  V30 17005 H 1898.57 1.9779 5.53311 0
M  V30 17006 H 1900.09 1.16703 5.99344 0
M  V30 17007 H 1901.5 3.10967 4.81635 0
M  V30 17008 H 1899.9 3.86738 4.58862 0
M  V30 17009 H 1900.97 3.65034 3.19183 0
M  V30 17010 N 1902.31 -1.14411 1.08387 0
M  V30 17011 C 1903.73 -1.37432 0.811464 0
M  V30 17012 C 1903.93 -1.92992 -0.579345 0
M  V30 17013 O 1902.99 -2.14249 -1.33618 0
M  V30 17014 C 1904.3 -2.33557 1.89398 0
M  V30 17015 C 1905.85 -2.47197 1.91996 0
M  V30 17016 C 1906.32 -3.46622 2.99361 0
M  V30 17017 N 1907.81 -3.54165 2.98532 0
M  V30 17018 C 1908.55 -4.30946 3.78249 0
M  V30 17019 N 1908.04 -5.10972 4.67846 0
M  V30 17020 N 1909.84 -4.26141 3.66552 0
M  V30 17021 H 1901.99 -0.76694 1.9807 0
M  V30 17022 H 1904.25 -0.399866 0.859541 0
M  V30 17023 H 1903.96 -1.99868 2.89388 0
M  V30 17024 H 1903.83 -3.33459 1.7631 0
M  V30 17025 H 1906.22 -2.80178 0.926513 0
M  V30 17026 H 1906.3 -1.47258 2.09162 0
M  V30 17027 H 1905.94 -3.14374 3.98913 0
M  V30 17028 H 1905.87 -4.46341 2.7944 0
M  V30 17029 H 1908.36 -2.97057 2.33593 0
M  V30 17030 H 1908.68 -5.66834 5.2528 0
M  V30 17031 H 1907.02 -5.10241 4.71889 0
M  V30 17032 H 1910.21 -3.62693 2.95925 0
M  V30 17033 H 1910.39 -4.85729 4.28919 0
M  V30 17034 N 1903.79 -0.869509 -1.31443 0
M  V30 17035 C 1905.04 -0.479265 -1.96335 0
M  V30 17036 C 1905.36 0.971583 -1.69072 0
M  V30 17037 O 1904.63 1.68104 -1.00588 0
M  V30 17038 H 1903.21 -0.174241 -0.726394 0
M  V30 17039 H 1905.87 -1.1092 -1.60259 0
M  V30 17040 H 1904.97 -0.636628 -3.05538 0
M  V30 17041 N 1905.27 1.44508 -0.628902 0
M  V30 17042 C 1906.18 2.34468 0.0786233 0
M  V30 17043 C 1907.2 1.52489 0.838046 0
M  V30 17044 O 1908.37 1.85224 0.790813 0
M  V30 17045 C 1905.44 3.30435 1.04945 0
M  V30 17046 C 1904.5 4.28322 0.289643 0
M  V30 17047 C 1903.73 5.19704 1.21422 0
M  V30 17048 O 1903.95 5.14967 2.45286 0
M  V30 17049 O 1902.89 5.97819 0.699748 0
M  V30 17050 H 1906.71 2.96414 -0.661222 0
M  V30 17051 H 1904.3 1.44244 -0.3891 0
M  V30 17052 H 1906.18 3.89513 1.60804 0
M  V30 17053 H 1904.86 2.71025 1.76994 0
M  V30 17054 H 1903.76 3.72797 -0.311936 0
M  V30 17055 H 1905.1 4.90646 -0.390789 0
M  V30 17056 N 1906.75 0.369315 1.53212 0
M  V30 17057 C 1908.16 -0.10909 1.86381 0
M  V30 17058 C 1908.51 -1.47849 1.28977 0
M  V30 17059 O 1907.64 -2.07528 0.613267 0
M  V30 17060 C 1908.23 -0.204726 3.38181 0
M  V30 17061 C 1906.79 -0.627391 3.71134 0
M  V30 17062 C 1905.94 0.223086 2.76401 0
M  V30 17063 H 1908.89 0.587967 1.47406 0
M  V30 17064 H 1908.91 -1.02761 3.66361 0
M  V30 17065 H 1908.42 0.792082 3.79931 0
M  V30 17066 H 1906.52 -1.63229 3.34943 0
M  V30 17067 H 1906.64 -0.39941 4.77432 0
M  V30 17068 H 1905 -0.308608 2.52823 0
M  V30 17069 H 1905.78 1.2175 3.20986 0
M  V30 17070 N 1908.23 -1.57291 0.0985816 0
M  V30 17071 C 1909.48 -1.94094 -0.563189 0
M  V30 17072 C 1909.8 -0.981394 -1.68504 0
M  V30 17073 O 1909.07 -0.0340632 -1.9587 0
M  V30 17074 H 1907.65 -0.716571 -0.211033 0
M  V30 17075 H 1910.31 -1.94219 0.162732 0
M  V30 17076 H 1909.4 -2.96607 -0.971113 0
M  V30 17077 N 1909.71 0.175127 -1.56624 0
M  V30 17078 C 1910.98 0.919424 -1.72644 0
M  V30 17079 C 1911.36 2.00553 -0.658929 0
M  V30 17080 O 1910.71 2.2615 0.326897 0
M  V30 17081 C 1910.92 1.48764 -3.15706 0
M  V30 17082 C 1912.27 1.96204 -3.76549 0
M  V30 17083 O 1913.29 1.58565 -3.1896 0
M  V30 17084 O 1912.15 2.65525 -4.7766 0
M  V30 17085 H 1909.25 0.43251 -0.704886 0
M  V30 17086 H 1911.79 0.163255 -1.68913 0
M  V30 17087 H 1910.56 0.705743 -3.84883 0
M  V30 17088 H 1910.19 2.3081 -3.23748 0
M  V30 17089 N 1911.18 1.5123 0.44355 0
M  V30 17090 C 1912.42 1.65246 1.20305 0
M  V30 17091 C 1912.79 0.357897 1.88635 0
M  V30 17092 O 1913.99 0.373765 2.66189 0
M  V30 17093 C 1912.26 2.8184 2.19775 0
M  V30 17094 S 1913.82 3.16149 3.04295 0
M  V30 17095 H 1910.64 0.582242 0.408063 0
M  V30 17096 H 1913.24 1.89114 0.495589 0
M  V30 17097 H 1911.94 3.74347 1.68204 0
M  V30 17098 H 1911.47 2.60141 2.95111 0
M  V30 17099 H 1913.49 2.62102 4.21327 0
M  V30 17100 N 1912.66 -0.698586 1.41271 0
M  V30 17101 C 1913.91 -1.45573 1.40189 0
M  V30 17102 C 1914.23 -1.94997 0.0108379 0
M  V30 17103 O 1913.5 -1.715 -0.946822 0
M  V30 17104 H 1912.08 -0.540134 0.516008 0
M  V30 17105 H 1914.74 -0.827048 1.76482 0
M  V30 17106 H 1913.84 -2.32036 2.08724 0
M  V30 17107 N 1914.14 -1.27049 -0.93254 0
M  V30 17108 C 1915.07 -1.11867 -2.04959 0
M  V30 17109 C 1916.05 -0.0214563 -1.70086 0
M  V30 17110 O 1917.24 -0.195063 -1.93218 0
M  V30 17111 C 1914.37 -0.759993 -3.38883 0
M  V30 17112 C 1913.32 -1.8099 -3.87849 0
M  V30 17113 C 1912.65 -1.30532 -5.18522 0
M  V30 17114 C 1913.95 -3.21309 -4.11774 0
M  V30 17115 H 1915.64 -2.05309 -2.17918 0
M  V30 17116 H 1913.19 -0.988507 -1.04712 0
M  V30 17117 H 1915.14 -0.640623 -4.16502 0
M  V30 17118 H 1913.86 0.210139 -3.25923 0
M  V30 17119 H 1912.52 -1.91809 -3.12418 0
M  V30 17120 H 1912.17 -0.324784 -5.0195 0
M  V30 17121 H 1911.87 -2.00722 -5.52254 0
M  V30 17122 H 1913.39 -1.19879 -5.98716 0
M  V30 17123 H 1914.81 -3.13517 -4.79979 0
M  V30 17124 H 1913.2 -3.89166 -4.56804 0
M  V30 17125 H 1914.27 -3.66722 -3.17243 0
M  V30 17126 N 1915.62 1.13835 -1.08993 0
M  V30 17127 C 1917.03 1.66568 -0.843325 0
M  V30 17128 C 1917.38 1.85846 0.628955 0
M  V30 17129 O 1916.5 1.57401 1.48506 0
M  V30 17130 C 1917.1 3.02573 -1.52431 0
M  V30 17131 C 1915.66 3.52315 -1.3248 0
M  V30 17132 C 1914.81 2.27658 -1.58326 0
M  V30 17133 H 1917.76 0.978181 -1.24969 0
M  V30 17134 H 1917.78 3.68323 -0.954898 0
M  V30 17135 H 1917.29 2.8851 -2.59584 0
M  V30 17136 H 1915.39 3.71589 -0.274248 0
M  V30 17137 H 1915.5 4.32715 -2.05657 0
M  V30 17138 H 1913.87 2.34028 -1.00514 0
M  V30 17139 H 1914.65 2.16165 -2.66698 0
M  V30 17140 N 1917.1 0.876467 1.3098 0
M  V30 17141 C 1918.34 0.489671 1.96078 0
M  V30 17142 C 1918.66 -0.962603 1.69585 0
M  V30 17143 O 1917.93 -1.67568 1.01478 0
M  V30 17144 H 1916.51 0.178091 0.72546 0
M  V30 17145 H 1919.18 1.11768 1.59668 0
M  V30 17146 H 1918.27 0.652822 3.05196 0
M  V30 17147 N 1918.57 -1.44173 0.636557 0
M  V30 17148 C 1919.98 -1.8534 0.224954 0
M  V30 17149 C 1920.34 -1.53271 -1.22485 0
M  V30 17150 O 1919.46 -0.973441 -1.93269 0
M  V30 17151 C 1920.06 -3.36413 0.401492 0
M  V30 17152 C 1918.61 -3.76374 0.0443511 0
M  V30 17153 C 1917.76 -2.67995 0.712303 0
M  V30 17154 H 1920.71 -1.34562 0.841356 0
M  V30 17155 H 1920.73 -3.78812 -0.357965 0
M  V30 17156 H 1920.25 -3.59722 1.45677 0
M  V30 17157 H 1918.35 -3.58679 -1.00897 0
M  V30 17158 H 1918.46 -4.76904 0.458196 0
M  V30 17159 H 1916.82 -2.54275 0.147092 0
M  V30 17160 H 1917.61 -2.94136 1.77028 0
M  V30 17161 N 1920.05 -0.377435 -1.53014 0
M  V30 17162 C 1921.46 0.0992038 -1.86436 0
M  V30 17163 C 1921.81 1.47163 -1.2976 0
M  V30 17164 O 1920.94 2.072 -0.624264 0
M  V30 17165 C 1921.53 0.186789 -3.38285 0
M  V30 17166 C 1920.09 0.6077 -3.71462 0
M  V30 17167 C 1919.24 -0.237741 -2.76279 0
M  V30 17168 H 1922.19 -0.595776 -1.47092 0
M  V30 17169 H 1922.21 1.00817 -3.66901 0
M  V30 17170 H 1921.72 -0.812219 -3.79506 0
M  V30 17171 H 1919.82 1.61451 -3.35804 0
M  V30 17172 H 1919.94 0.374085 -4.77637 0
M  V30 17173 H 1918.3 0.295196 -2.52984 0
M  V30 17174 H 1919.08 -1.23451 -3.20335 0
M  V30 17175 N 1921.53 1.57237 -0.106922 0
M  V30 17176 C 1922.78 1.9439 0.552888 0
M  V30 17177 C 1923.1 0.990316 1.67981 0
M  V30 17178 O 1922.37 0.0444502 1.9585 0
M  V30 17179 H 1920.95 0.71768 0.20723 0
M  V30 17180 H 1923.61 1.9413 -0.17303 0
M  V30 17181 H 1922.71 2.97118 0.955369 0
M  V30 17182 N 1923.01 -0.166818 1.56715 0
M  V30 17183 C 1924.42 -0.728845 1.71886 0
M  V30 17184 C 1924.77 -1.82584 0.718168 0
M  V30 17185 O 1923.9 -2.1607 -0.119503 0
M  V30 17186 C 1924.49 -1.32885 3.11652 0
M  V30 17187 C 1923.05 -1.83766 3.28492 0
M  V30 17188 C 1922.2 -0.718371 2.67833 0
M  V30 17189 H 1925.15 0.0586298 1.58592 0
M  V30 17190 H 1925.17 -2.19858 3.10552 0
M  V30 17191 H 1924.68 -0.530219 3.84461 0
M  V30 17192 H 1922.78 -2.66259 2.60647 0
M  V30 17193 H 1922.89 -1.98 4.36271 0
M  V30 17194 H 1921.26 -1.13996 2.27765 0
M  V30 17195 H 1922.04 0.0684914 3.43232 0
M  V30 17196 N 1924.49 -1.51463 -0.435524 0
M  V30 17197 C 1925.9 -1.56678 -1.01533 0
M  V30 17198 C 1926.25 -0.391337 -1.92258 0
M  V30 17199 O 1925.37 0.491647 -2.10741 0
M  V30 17200 C 1925.97 -2.83951 -1.84817 0
M  V30 17201 C 1924.53 -2.91731 -2.37844 0
M  V30 17202 C 1923.67 -2.51359 -1.17106 0
M  V30 17203 H 1926.63 -1.57213 -0.216726 0
M  V30 17204 H 1926.65 -2.67815 -2.70287 0
M  V30 17205 H 1926.16 -3.69483 -1.1876 0
M  V30 17206 H 1924.26 -2.10633 -3.07351 0
M  V30 17207 H 1924.37 -3.95421 -2.70517 0
M  V30 17208 H 1922.74 -2.04599 -1.51695 0
M  V30 17209 H 1923.52 -3.39238 -0.526566 0
M  V30 17210 N 1925.96 0.691085 -1.4164 0
M  V30 17211 C 1927.21 1.44828 -1.40959 0
M  V30 17212 C 1927.53 1.94988 -0.0211789 0
M  V30 17213 O 1926.8 1.71999 0.937714 0
M  V30 17214 H 1925.38 0.53739 -0.518865 0
M  V30 17215 H 1928.05 0.817677 -1.76918 0
M  V30 17216 H 1927.14 2.30926 -2.09952 0
M  V30 17217 N 1927.44 1.27542 0.925789 0
M  V30 17218 C 1928.85 1.12679 1.48864 0
M  V30 17219 C 1929.2 -0.287536 1.94082 0
M  V30 17220 O 1928.33 -1.18064 1.81356 0
M  V30 17221 C 1928.92 2.03934 2.70548 0
M  V30 17222 C 1927.48 1.93171 3.23051 0
M  V30 17223 C 1926.63 1.96378 1.95783 0
M  V30 17224 H 1929.58 1.40407 0.739703 0
M  V30 17225 H 1929.6 1.59628 3.45397 0
M  V30 17226 H 1929.11 3.06863 2.37607 0
M  V30 17227 H 1927.22 0.932356 3.60746 0
M  V30 17228 H 1927.33 2.7951 3.89115 0
M  V30 17229 H 1925.69 1.40628 2.12358 0
M  V30 17230 H 1926.48 3.00964 1.65153 0
M  V30 17231 N 1928.92 -1.13255 1.09595 0
M  V30 17232 C 1930.33 -1.66118 0.852147 0
M  V30 17233 C 1930.68 -1.86177 -0.61909 0
M  V30 17234 O 1929.81 -1.58186 -1.47669 0
M  V30 17235 C 1930.4 -3.0176 1.54034 0
M  V30 17236 C 1928.96 -3.51608 1.34347 0
M  V30 17237 C 1928.11 -2.26815 1.59531 0
M  V30 17238 H 1931.06 -0.971539 1.25486 0
M  V30 17239 H 1931.08 -3.67812 0.974418 0
M  V30 17240 H 1930.59 -2.87129 2.6111 0
M  V30 17241 H 1928.69 -3.71439 0.293951 0
M  V30 17242 H 1928.81 -4.31618 2.07949 0
M  V30 17243 H 1927.17 -2.33492 1.01753 0
M  V30 17244 H 1927.95 -2.14748 2.6784 0
M  V30 17245 N 1930.4 -0.883401 -1.30514 0
M  V30 17246 C 1931.65 -0.500062 -1.95816 0
M  V30 17247 C 1931.97 0.953596 -1.70093 0
M  V30 17248 O 1931.24 1.67027 -1.02365 0
M  V30 17249 H 1929.82 -0.181936 -0.724506 0
M  V30 17250 H 1932.48 -1.12613 -1.59073 0
M  V30 17251 H 1931.58 -0.668998 -3.04846 0
M  V30 17252 N 1931.88 1.43833 -0.644194 0
M  V30 17253 C 1933.29 1.85218 -0.23478 0
M  V30 17254 C 1933.64 1.53918 1.2167 0
M  V30 17255 O 1932.76 0.983677 1.92751 0
M  V30 17256 C 1933.36 3.36195 -0.419327 0
M  V30 17257 C 1931.92 3.76345 -0.0643105 0
M  V30 17258 C 1931.06 2.67614 -0.726506 0
M  V30 17259 H 1934.02 1.34114 -0.84848 0
M  V30 17260 H 1934.04 3.78997 0.33787 0
M  V30 17261 H 1933.55 3.58944 -1.47582 0
M  V30 17262 H 1931.65 3.59209 0.989939 0
M  V30 17263 H 1931.76 4.76654 -0.483481 0
M  V30 17264 H 1930.13 2.54193 -0.160575 0
M  V30 17265 H 1930.91 2.93193 -1.78585 0
M  V30 17266 N 1933.35 0.385544 1.52811 0
M  V30 17267 C 1934.77 -0.0893152 1.86486 0
M  V30 17268 C 1935.12 -1.46473 1.30538 0
M  V30 17269 O 1934.24 -2.06866 0.635244 0
M  V30 17270 C 1934.84 -0.168846 3.38379 0
M  V30 17271 C 1933.4 -0.587992 3.71779 0
M  V30 17272 C 1932.54 0.252389 2.76149 0
M  V30 17273 H 1935.49 0.603569 1.46774 0
M  V30 17274 H 1935.51 -0.988694 3.6743 0
M  V30 17275 H 1935.03 0.832334 3.7907 0
M  V30 17276 H 1933.13 -1.59668 3.36656 0
M  V30 17277 H 1933.24 -0.34875 4.77829 0
M  V30 17278 H 1931.6 -0.281775 2.53137 0
M  V30 17279 H 1932.39 1.25148 3.19676 0
M  V30 17280 N 1934.83 -1.57178 0.115259 0
M  V30 17281 C 1936.08 -1.94681 -0.542571 0
M  V30 17282 C 1936.4 -0.999211 -1.67454 0
M  V30 17283 O 1935.67 -0.054836 -1.95823 0
M  V30 17284 H 1934.25 -0.718769 -0.203421 0
M  V30 17285 H 1936.91 -1.94036 0.183323 0
M  V30 17286 H 1936.01 -2.9762 -0.939599 0
M  V30 17287 N 1936.31 0.158505 -1.56801 0
M  V30 17288 C 1937.54 0.886984 -1.86591 0
M  V30 17289 C 1937.95 1.7577 -0.700115 0
M  V30 17290 O 1937.29 1.80533 0.339622 0
M  V30 17291 C 1937.35 1.80418 -3.1095 0
M  V30 17292 C 1937.02 1.11178 -4.4327 0
M  V30 17293 C 1938.02 0.471134 -5.17761 0
M  V30 17294 C 1935.7 1.10472 -4.90001 0
M  V30 17295 C 1937.69 -0.167333 -6.3718 0
M  V30 17296 C 1935.38 0.462432 -6.09348 0
M  V30 17297 C 1936.38 -0.172477 -6.82782 0
M  V30 17298 O 1936.07 -0.804604 -7.99863 0
M  V30 17299 H 1935.8 0.262465 -0.622967 0
M  V30 17300 H 1938.35 0.159526 -2.0478 0
M  V30 17301 H 1936.58 2.57228 -2.8874 0
M  V30 17302 H 1938.27 2.4036 -3.27081 0
M  V30 17303 H 1939.04 0.468479 -4.82732 0
M  V30 17304 H 1934.92 1.58831 -4.32774 0
M  V30 17305 H 1938.46 -0.663498 -6.94438 0
M  V30 17306 H 1934.36 0.462714 -6.43839 0
M  V30 17307 H 1935.13 -0.705126 -8.15457 0
M  V30 17308 N 1937.79 1.51692 0.427485 0
M  V30 17309 C 1938.74 1.73716 1.51958 0
M  V30 17310 C 1939.71 0.579073 1.55679 0
M  V30 17311 O 1940.89 0.814605 1.72536 0
M  V30 17312 C 1938.03 1.87709 2.89585 0
M  V30 17313 C 1937.14 3.15297 2.95317 0
M  V30 17314 C 1936.28 3.19827 4.24128 0
M  V30 17315 C 1935.32 4.4169 4.23764 0
M  V30 17316 N 1934.46 4.43715 5.44116 0
M  V30 17317 H 1939.3 2.66933 1.3248 0
M  V30 17318 H 1936.83 1.32283 0.643393 0
M  V30 17319 H 1938.79 1.93804 3.69454 0
M  V30 17320 H 1937.42 0.978912 3.07599 0
M  V30 17321 H 1936.47 3.18464 2.08051 0
M  V30 17322 H 1937.78 4.05182 2.90911 0
M  V30 17323 H 1936.94 3.24892 5.12377 0
M  V30 17324 H 1935.68 2.27848 4.31204 0
M  V30 17325 H 1934.68 4.36791 3.33907 0
M  V30 17326 H 1935.91 5.34944 4.18343 0
M  V30 17327 H 1933.85 3.5461 5.51894 0
M  V30 17328 H 1933.77 5.27421 5.4163 0
M  V30 17329 H 1935.04 4.52986 6.34369 0
M  V30 17330 N 1939.27 -0.683564 1.42004 0
M  V30 17331 C 1940.52 -1.44078 1.41725 0
M  V30 17332 C 1940.84 -1.94975 0.0315193 0
M  V30 17333 O 1940.11 -1.72494 -0.928579 0
M  V30 17334 H 1938.69 -0.534631 0.521707 0
M  V30 17335 H 1941.35 -0.808284 1.77349 0
M  V30 17336 H 1940.44 -2.29809 2.11174 0
M  V30 17337 N 1940.75 -1.28031 -0.919012 0
M  V30 17338 C 1941.99 -1.14878 -1.66761 0
M  V30 17339 C 1942.32 0.303688 -1.92115 0
M  V30 17340 O 1941.58 1.23781 -1.51581 0
M  V30 17341 C 1941.87 -1.887 -3.03524 0
M  V30 17342 C 1941.54 -3.3852 -2.9785 0
M  V30 17343 C 1940.2 -3.79383 -2.9601 0
M  V30 17344 C 1942.55 -4.34077 -2.88491 0
M  V30 17345 C 1939.88 -5.14152 -2.82604 0
M  V30 17346 C 1942.23 -5.68912 -2.76625 0
M  V30 17347 C 1940.9 -6.09057 -2.7314 0
M  V30 17348 H 1940.17 -0.420368 -0.610223 0
M  V30 17349 H 1942.82 -1.58743 -1.07111 0
M  V30 17350 H 1941.12 -1.37368 -3.66929 0
M  V30 17351 H 1942.82 -1.75944 -3.6034 0
M  V30 17352 H 1939.41 -3.06028 -3.00074 0
M  V30 17353 H 1943.59 -4.03473 -2.89004 0
M  V30 17354 H 1938.85 -5.4439 -2.78298 0
M  V30 17355 H 1943.02 -6.4262 -2.6835 0
M  V30 17356 H 1940.65 -7.13437 -2.62509 0
M  V30 17357 N 1942.22 1.12672 -1.10194 0
M  V30 17358 C 1943.63 1.65664 -0.860944 0
M  V30 17359 C 1943.99 1.86502 0.609208 0
M  V30 17360 O 1943.11 1.58967 1.46828 0
M  V30 17361 C 1943.71 3.00939 -1.55632 0
M  V30 17362 C 1942.26 3.5089 -1.36209 0
M  V30 17363 C 1941.41 2.25966 -1.60732 0
M  V30 17364 H 1944.36 0.964871 -1.26 0
M  V30 17365 H 1944.38 3.6729 -0.99391 0
M  V30 17366 H 1943.9 2.85741 -2.62629 0
M  V30 17367 H 1942 3.71278 -0.313645 0
M  V30 17368 H 1942.11 4.30509 -2.10235 0
M  V30 17369 H 1940.47 2.32949 -1.0299 0
M  V30 17370 H 1941.26 2.13324 -2.68975 0
M  V30 17371 N 1943.7 0.89031 1.30043 0
M  V30 17372 C 1944.95 0.51044 1.95548 0
M  V30 17373 C 1945.27 -0.944562 1.70596 0
M  V30 17374 O 1944.54 -1.66482 1.0325 0
M  V30 17375 H 1943.12 0.185776 0.723531 0
M  V30 17376 H 1945.78 1.13455 1.58474 0
M  V30 17377 H 1944.88 0.685155 3.04487 0
M  V30 17378 N 1945.18 -1.43489 0.651812 0
M  V30 17379 C 1946.42 -2.03707 0.168214 0
M  V30 17380 C 1946.78 -1.50302 -1.19471 0
M  V30 17381 O 1947.98 -2.02154 -1.77164 0
M  V30 17382 C 1946.26 -3.56964 0.176447 0
M  V30 17383 S 1947.81 -4.38146 -0.239511 0
M  V30 17384 H 1944.63 -0.70742 0.0712573 0
M  V30 17385 H 1947.23 -1.75577 0.859833 0
M  V30 17386 H 1945.94 -3.93335 1.17115 0
M  V30 17387 H 1945.47 -3.89735 -0.535755 0
M  V30 17388 H 1947.48 -4.73654 -1.47874 0
M  V30 17389 N 1946.66 -0.393643 -1.52605 0
M  V30 17390 C 1947.93 0.244939 -1.9406 0
M  V30 17391 C 1948.31 1.63981 -1.32942 0
M  V30 17392 O 1947.66 2.2298 -0.499195 0
M  V30 17393 C 1947.87 0.266912 -3.47978 0
M  V30 17394 C 1949.22 0.493768 -4.21719 0
M  V30 17395 O 1950.24 0.346936 -3.54506 0
M  V30 17396 O 1949.1 0.78183 -5.40879 0
M  V30 17397 H 1946.2 0.153387 -0.812651 0
M  V30 17398 H 1948.74 -0.448465 -1.63667 0
M  V30 17399 H 1947.52 -0.709958 -3.84806 0
M  V30 17400 H 1947.14 1.00506 -3.84687 0
M  V30 17401 N 1948.14 1.57115 -0.123593 0
M  V30 17402 C 1949.38 1.94966 0.532239 0
M  V30 17403 C 1949.7 1.00808 1.66922 0
M  V30 17404 O 1948.97 0.0652202 1.95791 0
M  V30 17405 H 1947.55 0.719838 0.199607 0
M  V30 17406 H 1950.22 1.93936 -0.19361 0
M  V30 17407 H 1949.31 2.98115 0.923802 0
M  V30 17408 N 1949.61 -0.150187 1.56883 0
M  V30 17409 C 1950.56 -1.18552 1.98025 0
M  V30 17410 C 1951.53 -1.42861 0.847353 0
M  V30 17411 O 1952.72 -1.55249 1.10917 0
M  V30 17412 C 1949.86 -2.51479 2.36331 0
M  V30 17413 C 1948.97 -2.34371 3.62897 0
M  V30 17414 C 1948.1 -3.60311 3.9032 0
M  V30 17415 C 1947.14 -3.38226 5.10166 0
M  V30 17416 N 1946.28 -4.56289 5.33615 0
M  V30 17417 H 1951.12 -0.827667 2.86276 0
M  V30 17418 H 1948.66 -0.397238 1.41635 0
M  V30 17419 H 1950.61 -3.28981 2.56568 0
M  V30 17420 H 1949.24 -2.85218 1.51164 0
M  V30 17421 H 1948.3 -1.47939 3.50454 0
M  V30 17422 H 1949.61 -2.1401 4.50556 0
M  V30 17423 H 1948.76 -4.46243 4.11038 0
M  V30 17424 H 1947.5 -3.83672 3.01076 0
M  V30 17425 H 1946.51 -2.50682 4.89324 0
M  V30 17426 H 1947.73 -3.16266 6.0096 0
M  V30 17427 H 1945.68 -4.79829 4.47325 0
M  V30 17428 H 1945.59 -4.38919 6.15537 0
M  V30 17429 H 1946.86 -5.43443 5.58829 0
M  V30 17430 N 1951.09 -1.51916 -0.419434 0
M  V30 17431 C 1952.37 -1.56023 -1.17967 0
M  V30 17432 C 1952.75 -0.335094 -2.08423 0
M  V30 17433 O 1952.1 0.678731 -2.18187 0
M  V30 17434 C 1952.31 -2.8836 -1.96595 0
M  V30 17435 C 1953.66 -3.40979 -2.53019 0
M  V30 17436 O 1954.68 -2.90031 -2.06786 0
M  V30 17437 O 1953.54 -4.2992 -3.37388 0
M  V30 17438 H 1950.63 -0.628035 -0.538053 0
M  V30 17439 H 1953.18 -1.64239 -0.42705 0
M  V30 17440 H 1951.95 -3.6898 -1.30267 0
M  V30 17441 H 1951.57 -2.83389 -2.78884 0
M  V30 17442 N 1952.57 0.676023 -1.42365 0
M  V30 17443 C 1953.82 1.43324 -1.42487 0
M  V30 17444 C 1954.14 1.94955 -0.0418589 0
M  V30 17445 O 1953.41 1.72984 0.919418 0
M  V30 17446 H 1951.99 0.531857 -0.524535 0
M  V30 17447 H 1954.65 0.798867 -1.77775 0
M  V30 17448 H 1953.75 2.28686 -2.12389 0
M  V30 17449 N 1954.05 1.28517 0.912209 0
M  V30 17450 C 1954.98 1.08378 2.01958 0
M  V30 17451 C 1955.99 0.0350385 1.62762 0
M  V30 17452 O 1957.18 0.278256 1.76318 0
M  V30 17453 C 1954.28 0.62514 3.33084 0
M  V30 17454 C 1953.46 1.74963 4.00882 0
M  V30 17455 C 1952.51 1.28411 5.10291 0
M  V30 17456 O 1951.54 1.98662 5.33406 0
M  V30 17457 N 1952.74 0.148151 5.80311 0
M  V30 17458 H 1955.51 2.03744 2.19792 0
M  V30 17459 H 1953.07 1.2029 1.0836 0
M  V30 17460 H 1955.06 0.297284 4.03607 0
M  V30 17461 H 1953.63 -0.235714 3.1171 0
M  V30 17462 H 1952.85 2.247 3.23888 0
M  V30 17463 H 1954.14 2.50391 4.42924 0
M  V30 17464 H 1953.54 -0.437843 5.64003 0
M  V30 17465 H 1952.09 -0.120419 6.51689 0
M  V30 17466 N 1955.53 -1.12086 1.1079 0
M  V30 17467 C 1956.47 -2.17926 0.760064 0
M  V30 17468 C 1957.44 -1.63967 -0.265316 0
M  V30 17469 O 1958.63 -1.90258 -0.143764 0
M  V30 17470 C 1955.77 -3.44508 0.202045 0
M  V30 17471 C 1954.88 -4.12503 1.28317 0
M  V30 17472 C 1954.02 -5.26747 0.686406 0
M  V30 17473 C 1953.06 -5.86614 1.74785 0
M  V30 17474 N 1952.19 -6.92264 1.17108 0
M  V30 17475 H 1957.03 -2.47025 1.66681 0
M  V30 17476 H 1954.57 -1.21275 0.832507 0
M  V30 17477 H 1956.53 -4.16967 -0.139401 0
M  V30 17478 H 1955.16 -3.15814 -0.667918 0
M  V30 17479 H 1954.21 -3.38186 1.74168 0
M  V30 17480 H 1955.52 -4.53063 2.08651 0
M  V30 17481 H 1954.68 -6.05984 0.294621 0
M  V30 17482 H 1953.41 -4.87474 -0.148334 0
M  V30 17483 H 1952.42 -5.0606 2.14902 0
M  V30 17484 H 1953.64 -6.27956 2.5855 0
M  V30 17485 H 1951.59 -6.55023 0.35787 0
M  V30 17486 H 1951.51 -7.31443 1.91122 0
M  V30 17487 H 1952.78 -7.75322 0.805966 0
M  V30 17488 N 1957 -0.897194 -1.29569 0
M  V30 17489 C 1958.25 -0.520803 -1.95274 0
M  V30 17490 C 1958.57 0.935501 -1.71095 0
M  V30 17491 O 1957.84 1.65932 -1.04131 0
M  V30 17492 H 1956.42 -0.18961 -0.722535 0
M  V30 17493 H 1959.09 -1.14294 -1.5787 0
M  V30 17494 H 1958.18 -0.701293 -3.04119 0
M  V30 17495 N 1958.48 1.43142 -0.659413 0
M  V30 17496 C 1959.89 1.84958 -0.254412 0
M  V30 17497 C 1960.24 1.552 1.20031 0
M  V30 17498 O 1959.37 1.00407 1.91696 0
M  V30 17499 C 1959.96 3.35731 -0.454961 0
M  V30 17500 C 1958.52 3.76256 -0.104223 0
M  V30 17501 C 1957.67 2.66828 -0.754849 0
M  V30 17502 H 1960.62 1.33206 -0.862657 0
M  V30 17503 H 1960.64 3.79334 0.297654 0
M  V30 17504 H 1960.15 3.57359 -1.51381 0
M  V30 17505 H 1958.26 3.60239 0.951785 0
M  V30 17506 H 1958.37 4.76115 -0.534009 0
M  V30 17507 H 1956.73 2.54009 -0.187526 0
M  V30 17508 H 1957.52 2.91283 -1.81685 0
M  V30 17509 N 1959.96 0.40173 1.52394 0
M  V30 17510 C 1961.21 -0.17672 2.02029 0
M  V30 17511 C 1961.54 -1.45417 1.28715 0
M  V30 17512 O 1960.81 -1.90524 0.391263 0
M  V30 17513 C 1961.1 -0.43198 3.575 0
M  V30 17514 C 1960.95 0.861628 4.4147 0
M  V30 17515 C 1962.27 -1.2173 4.2293 0
M  V30 17516 H 1959.39 -0.0627536 0.734323 0
M  V30 17517 H 1962.03 0.533742 1.82349 0
M  V30 17518 H 1960.18 -1.03719 3.74399 0
M  V30 17519 H 1961.85 1.49808 4.36297 0
M  V30 17520 H 1960.1 1.47424 4.07981 0
M  V30 17521 H 1960.77 0.637511 5.48306 0
M  V30 17522 H 1963.24 -0.704996 4.10084 0
M  V30 17523 H 1962.12 -1.36465 5.31666 0
M  V30 17524 H 1962.38 -2.23592 3.81391 0
M  V30 17525 N 1961.44 -1.57047 0.131923 0
M  V30 17526 C 1962.69 -1.95245 -0.521892 0
M  V30 17527 C 1963.01 -1.01692 -1.66385 0
M  V30 17528 O 1962.28 -0.0756026 -1.95754 0
M  V30 17529 H 1960.86 -0.720886 -0.195786 0
M  V30 17530 H 1963.52 -1.93831 0.203893 0
M  V30 17531 H 1962.62 -2.986 -0.907979 0
M  V30 17532 N 1962.92 0.141865 -1.5696 0
M  V30 17533 C 1964.16 0.853609 -1.83629 0
M  V30 17534 C 1964.49 1.80937 -0.713591 0
M  V30 17535 O 1963.75 1.93433 0.296981 0
M  V30 17536 C 1964.05 1.65717 -3.16658 0
M  V30 17537 C 1963.71 0.847748 -4.42859 0
M  V30 17538 C 1962.37 0.624458 -4.77131 0
M  V30 17539 C 1964.73 0.282029 -5.20436 0
M  V30 17540 C 1962.05 -0.175174 -5.86438 0
M  V30 17541 C 1964.41 -0.50467 -6.30584 0
M  V30 17542 C 1963.07 -0.738489 -6.63402 0
M  V30 17543 H 1962.34 0.312358 -0.671948 0
M  V30 17544 H 1964.99 0.117006 -1.91142 0
M  V30 17545 H 1963.29 2.46403 -3.04619 0
M  V30 17546 H 1964.99 2.21144 -3.34509 0
M  V30 17547 H 1961.58 1.03185 -4.15994 0
M  V30 17548 H 1965.76 0.441806 -4.9433 0
M  V30 17549 H 1961.02 -0.365778 -6.10305 0
M  V30 17550 H 1965.19 -0.950134 -6.89888 0
M  V30 17551 H 1962.82 -1.35995 -7.47937 0
M  V30 17552 N 1964.39 1.52136 0.411372 0
M  V30 17553 C 1965.81 1.58274 0.990272 0
M  V30 17554 C 1966.16 0.421874 1.91611 0
M  V30 17555 O 1965.28 -0.458058 2.11497 0
M  V30 17556 C 1965.88 2.86855 1.80276 0
M  V30 17557 C 1964.44 2.95478 2.33173 0
M  V30 17558 C 1963.58 2.5319 1.13093 0
M  V30 17559 H 1966.53 1.57538 0.191687 0
M  V30 17560 H 1966.55 2.72082 2.65992 0
M  V30 17561 H 1966.07 3.71326 1.12866 0
M  V30 17562 H 1964.17 2.15496 3.03961 0
M  V30 17563 H 1964.28 3.99674 2.64192 0
M  V30 17564 H 1962.64 2.06986 1.48421 0
M  V30 17565 H 1963.43 3.40032 0.472529 0
M  V30 17566 N 1965.87 -0.668464 1.42721 0
M  V30 17567 C 1967.12 -1.42567 1.43245 0
M  V30 17568 C 1967.44 -1.9493 0.0521972 0
M  V30 17569 O 1966.71 -1.73469 -0.910231 0
M  V30 17570 H 1965.29 -0.529068 0.527349 0
M  V30 17571 H 1967.95 -0.789428 1.78197 0
M  V30 17572 H 1967.05 -2.27556 2.13599 0
M  V30 17573 N 1967.35 -1.28999 -0.905381 0
M  V30 17574 C 1968.76 -1.15033 -1.47052 0
M  V30 17575 C 1969.11 0.256623 -1.94514 0
M  V30 17576 O 1968.24 1.15164 -1.83211 0
M  V30 17577 C 1968.83 -2.08213 -2.67269 0
M  V30 17578 C 1967.39 -1.98286 -3.19937 0
M  V30 17579 C 1966.54 -1.99468 -1.92634 0
M  V30 17580 H 1969.49 -1.41566 -0.717271 0
M  V30 17581 H 1969.51 -1.65102 -3.42814 0
M  V30 17582 H 1969.02 -3.10604 -2.32695 0
M  V30 17583 H 1967.12 -0.98963 -3.59217 0
M  V30 17584 H 1967.24 -2.85666 -3.84619 0
M  V30 17585 H 1965.6 -1.43988 -2.10094 0
M  V30 17586 H 1966.38 -3.03554 -1.60344 0
M  V30 17587 N 1968.83 1.11497 -1.11383 0
M  V30 17588 C 1969.76 2.17283 -0.729431 0
M  V30 17589 C 1970.77 1.61041 0.238642 0
M  V30 17590 O 1971.96 1.78487 0.0216271 0
M  V30 17591 C 1969.06 3.38852 -0.057216 0
M  V30 17592 C 1968.24 4.24562 -1.05196 0
M  V30 17593 C 1967.3 5.24605 -0.40941 0
M  V30 17594 O 1966.32 5.59183 -1.06315 0
M  V30 17595 N 1967.52 5.74565 0.827957 0
M  V30 17596 H 1970.29 2.50871 -1.63963 0
M  V30 17597 H 1967.85 1.27013 -1.00396 0
M  V30 17598 H 1969.84 4.02871 0.384356 0
M  V30 17599 H 1968.41 3.03332 0.755551 0
M  V30 17600 H 1967.63 3.57008 -1.6715 0
M  V30 17601 H 1968.92 4.78667 -1.72498 0
M  V30 17602 H 1968.32 5.48653 1.37827 0
M  V30 17603 H 1966.87 6.40423 1.21252 0
M  V30 17604 N 1970.31 0.904053 1.29092 0
M  V30 17605 C 1971.56 0.531152 1.94995 0
M  V30 17606 C 1971.88 -0.926415 1.71588 0
M  V30 17607 O 1971.15 -1.65378 1.0501 0
M  V30 17608 H 1969.73 0.193439 0.721519 0
M  V30 17609 H 1972.39 1.1513 1.57262 0
M  V30 17610 H 1971.48 0.717412 3.03743 0
M  V30 17611 N 1971.79 -1.4279 0.666995 0
M  V30 17612 C 1973.2 -1.84821 0.264217 0
M  V30 17613 C 1973.55 -1.55834 -1.19206 0
M  V30 17614 O 1972.67 -1.01422 -1.91161 0
M  V30 17615 C 1973.27 -3.35485 0.47276 0
M  V30 17616 C 1971.83 -3.76195 0.124176 0
M  V30 17617 C 1970.97 -2.66424 0.768989 0
M  V30 17618 H 1973.92 -1.32747 0.869709 0
M  V30 17619 H 1973.95 -3.79487 -0.277532 0
M  V30 17620 H 1973.46 -3.56551 1.53274 0
M  V30 17621 H 1971.56 -3.60738 -0.932667 0
M  V30 17622 H 1971.67 -4.75825 0.559251 0
M  V30 17623 H 1970.04 -2.53906 0.200994 0
M  V30 17624 H 1970.82 -2.90315 1.83227 0
M  V30 17625 N 1973.26 -0.409806 -1.52179 0
M  V30 17626 C 1974.21 0.432719 -2.23856 0
M  V30 17627 C 1975.2 1.01291 -1.25016 0
M  V30 17628 O 1976.39 0.935617 -1.5025 0
M  V30 17629 C 1973.52 1.54847 -3.06394 0
M  V30 17630 C 1972.6 0.979019 -4.12645 0
M  V30 17631 N 1973 0.136283 -5.05616 0
M  V30 17632 C 1971.29 1.24946 -4.28141 0
M  V30 17633 C 1971.99 -0.180604 -5.8142 0
M  V30 17634 N 1970.97 0.428712 -5.41907 0
M  V30 17635 H 1974.77 -0.217442 -2.93095 0
M  V30 17636 H 1972.29 -0.220268 -1.60899 0
M  V30 17637 H 1974.28 2.16466 -3.56298 0
M  V30 17638 H 1972.94 2.20125 -2.38695 0
M  V30 17639 H 1973.95 -0.228075 -5.17398 0
M  V30 17640 H 1970.63 1.90176 -3.71671 0
M  V30 17641 H 1972.02 -0.8647 -6.66313 0
M  V30 17642 N 1974.74 1.56975 -0.14025 0
M  V30 17643 C 1975.99 1.95519 0.51153 0
M  V30 17644 C 1976.31 1.02572 1.65843 0
M  V30 17645 O 1975.58 0.0859828 1.95711 0
M  V30 17646 H 1974.16 0.721914 0.191961 0
M  V30 17647 H 1976.82 1.9372 -0.214169 0
M  V30 17648 H 1975.92 2.99078 0.892131 0
M  V30 17649 N 1976.22 -0.133539 1.57033 0
M  V30 17650 C 1977.47 -0.843859 1.8408 0
M  V30 17651 C 1977.79 -1.80556 0.723177 0
M  V30 17652 O 1977.05 -1.93588 -0.286718 0
M  V30 17653 C 1977.35 -1.64036 3.17533 0
M  V30 17654 C 1977.01 -0.82425 4.43302 0
M  V30 17655 C 1975.68 -0.599146 4.77455 0
M  V30 17656 C 1978.03 -0.254425 5.20579 0
M  V30 17657 C 1975.36 0.206272 5.86337 0
M  V30 17658 C 1977.71 0.538105 6.30307 0
M  V30 17659 C 1976.37 0.773661 6.63001 0
M  V30 17660 H 1975.64 -0.30879 0.673595 0
M  V30 17661 H 1978.29 -0.106868 1.91202 0
M  V30 17662 H 1976.59 -2.44784 3.05921 0
M  V30 17663 H 1978.29 -2.19367 3.35677 0
M  V30 17664 H 1974.88 -1.00978 4.16535 0
M  V30 17665 H 1979.07 -0.415584 4.94557 0
M  V30 17666 H 1974.32 0.398139 6.10102 0
M  V30 17667 H 1978.5 0.986708 6.89374 0
M  V30 17668 H 1976.12 1.3996 7.47205 0
M  V30 17669 N 1977.7 -1.52352 -0.403298 0
M  V30 17670 C 1979.11 -1.58796 -0.981864 0
M  V30 17671 C 1979.46 -0.432029 -1.91384 0
M  V30 17672 O 1978.58 0.446835 -2.11736 0
M  V30 17673 C 1979.18 -2.87807 -1.78752 0
M  V30 17674 C 1977.74 -2.96711 -2.31602 0
M  V30 17675 C 1976.89 -2.53787 -1.11748 0
M  V30 17676 H 1979.84 -1.57638 -0.18333 0
M  V30 17677 H 1979.86 -2.73488 -2.64546 0
M  V30 17678 H 1979.37 -3.71919 -1.10896 0
M  V30 17679 H 1977.47 -2.17105 -3.02814 0
M  V30 17680 H 1977.58 -4.0107 -2.62069 0
M  V30 17681 H 1975.95 -2.07771 -1.47321 0
M  V30 17682 H 1976.73 -3.40278 -0.45449 0
M  V30 17683 N 1979.18 0.660885 -1.43074 0
M  V30 17684 C 1980.42 1.41805 -1.43999 0
M  V30 17685 C 1980.74 1.949 -0.0625341 0
M  V30 17686 O 1980.01 1.7395 0.901019 0
M  V30 17687 H 1978.59 0.526263 -0.530147 0
M  V30 17688 H 1981.26 0.779967 -1.78613 0
M  V30 17689 H 1980.35 2.2642 -2.14803 0
M  V30 17690 N 1980.65 1.29477 0.898527 0
M  V30 17691 C 1982.07 1.15811 1.4644 0
M  V30 17692 C 1982.42 -0.246304 1.94648 0
M  V30 17693 O 1981.54 -1.1419 1.83819 0
M  V30 17694 C 1982.14 2.09627 2.66161 0
M  V30 17695 C 1980.7 1.9998 3.18881 0
M  V30 17696 C 1979.84 2.00487 1.91573 0
M  V30 17697 H 1982.79 1.41944 0.709754 0
M  V30 17698 H 1982.81 1.66918 3.41934 0
M  V30 17699 H 1982.33 3.11834 2.31044 0
M  V30 17700 H 1980.43 1.00867 3.58687 0
M  V30 17701 H 1980.54 2.87701 3.83099 0
M  V30 17702 H 1978.9 1.451 2.09327 0
M  V30 17703 H 1979.69 3.044 1.58731 0
M  V30 17704 N 1982.13 -1.10905 1.11972 0
M  V30 17705 C 1983.54 -1.64274 0.887191 0
M  V30 17706 C 1983.89 -1.87448 -0.57946 0
M  V30 17707 O 1983.02 -1.61283 -1.4428 0
M  V30 17708 C 1983.61 -2.98425 1.604 0
M  V30 17709 C 1982.17 -3.48679 1.41774 0
M  V30 17710 C 1981.32 -2.2338 1.64307 0
M  V30 17711 H 1984.27 -0.944703 1.27519 0
M  V30 17712 H 1984.29 -3.65662 1.05222 0
M  V30 17713 H 1983.8 -2.81526 2.67142 0
M  V30 17714 H 1981.91 -3.70732 0.372672 0
M  V30 17715 H 1982.02 -4.2711 2.17058 0
M  V30 17716 H 1980.38 -2.31281 1.06683 0
M  V30 17717 H 1981.17 -2.09018 2.72335 0
M  V30 17718 N 1983.61 -0.910886 -1.2861 0
M  V30 17719 C 1984.86 -0.541485 -1.94711 0
M  V30 17720 C 1985.18 0.917302 -1.72077 0
M  V30 17721 O 1984.45 1.64818 -1.05885 0
M  V30 17722 H 1983.03 -0.197263 -0.720483 0
M  V30 17723 H 1985.69 -1.15962 -1.56649 0
M  V30 17724 H 1984.79 -0.73351 -3.03358 0
M  V30 17725 N 1985.09 1.42434 -0.674558 0
M  V30 17726 C 1986 2.346 0.00398919 0
M  V30 17727 C 1987.01 1.55078 0.789109 0
M  V30 17728 O 1988.19 1.87647 0.731485 0
M  V30 17729 C 1985.26 3.33607 0.94379 0
M  V30 17730 C 1984.32 4.29026 0.153229 0
M  V30 17731 C 1983.55 5.23304 1.04827 0
M  V30 17732 O 1983.77 5.2251 2.28779 0
M  V30 17733 O 1982.71 5.99742 0.509202 0
M  V30 17734 H 1986.53 2.94161 -0.755189 0
M  V30 17735 H 1984.12 1.42933 -0.434794 0
M  V30 17736 H 1986 3.94431 1.4833 0
M  V30 17737 H 1984.67 2.76519 1.68282 0
M  V30 17738 H 1983.58 3.71616 -0.430381 0
M  V30 17739 H 1984.91 4.89155 -0.546686 0
M  V30 17740 N 1986.57 0.417871 1.51959 0
M  V30 17741 C 1987.51 -0.403305 2.27249 0
M  V30 17742 C 1988.48 -1.0336 1.30023 0
M  V30 17743 O 1989.67 -1.05621 1.58899 0
M  V30 17744 C 1986.81 -1.50928 3.10346 0
M  V30 17745 C 1985.92 -0.899043 4.22541 0
M  V30 17746 C 1985.06 -1.97844 4.92982 0
M  V30 17747 C 1984.1 -1.3456 5.97126 0
M  V30 17748 N 1983.23 -2.36552 6.6105 0
M  V30 17749 H 1988.07 0.245143 2.9699 0
M  V30 17750 H 1985.61 0.132733 1.465 0
M  V30 17751 H 1987.57 -2.16157 3.56836 0
M  V30 17752 H 1986.2 -2.12763 2.42759 0
M  V30 17753 H 1985.25 -0.135561 3.80158 0
M  V30 17754 H 1986.56 -0.396845 4.97219 0
M  V30 17755 H 1985.72 -2.7078 5.42921 0
M  V30 17756 H 1984.45 -2.51432 4.17892 0
M  V30 17757 H 1983.46 -0.601616 5.46499 0
M  V30 17758 H 1984.68 -0.817308 6.74164 0
M  V30 17759 H 1982.63 -2.89256 5.88784 0
M  V30 17760 H 1982.55 -1.91169 7.3143 0
M  V30 17761 H 1983.82 -3.09031 7.15626 0
M  V30 17762 N 1988.04 -1.56898 0.148573 0
M  V30 17763 C 1989.29 -1.95788 -0.501154 0
M  V30 17764 C 1989.61 -1.03451 -1.65297 0
M  V30 17765 O 1988.88 -0.0963607 -1.95663 0
M  V30 17766 H 1987.46 -0.722922 -0.188129 0
M  V30 17767 H 1990.13 -1.93603 0.224439 0
M  V30 17768 H 1989.22 -2.99547 -0.876258 0
M  V30 17769 N 1989.52 0.125209 -1.57102 0
M  V30 17770 C 1990.45 1.15521 -2.02922 0
M  V30 17771 C 1991.43 1.43549 -0.912559 0
M  V30 17772 O 1992.62 1.54097 -1.18185 0
M  V30 17773 C 1989.75 2.48297 -2.42829 0
M  V30 17774 C 1988.7 2.34744 -3.57881 0
M  V30 17775 C 1988.03 3.72427 -3.83669 0
M  V30 17776 C 1989.33 1.81317 -4.89818 0
M  V30 17777 H 1991.02 0.774129 -2.89219 0
M  V30 17778 H 1988.57 0.370935 -1.3914 0
M  V30 17779 H 1990.52 3.20597 -2.73487 0
M  V30 17780 H 1989.25 2.88283 -1.53495 0
M  V30 17781 H 1987.9 1.64893 -3.27423 0
M  V30 17782 H 1987.55 4.09887 -2.9155 0
M  V30 17783 H 1987.25 3.64215 -4.61109 0
M  V30 17784 H 1988.78 4.46242 -4.16773 0
M  V30 17785 H 1990.19 2.43429 -5.19052 0
M  V30 17786 H 1988.59 1.83941 -5.71214 0
M  V30 17787 H 1989.66 0.770291 -4.78743 0
M  V30 17788 N 1991 1.52564 0.395213 0
M  V30 17789 C 1992.41 1.59315 0.973429 0
M  V30 17790 C 1992.76 0.442173 1.91152 0
M  V30 17791 O 1991.89 -0.4356 2.1197 0
M  V30 17792 C 1992.48 2.88751 1.77224 0
M  V30 17793 C 1991.04 2.97935 2.30026 0
M  V30 17794 C 1990.19 2.54376 1.10401 0
M  V30 17795 H 1993.14 1.57733 0.174968 0
M  V30 17796 H 1993.16 2.74887 2.63091 0
M  V30 17797 H 1992.67 3.72502 1.08922 0
M  V30 17798 H 1990.77 2.18708 3.01658 0
M  V30 17799 H 1990.89 4.02454 2.59938 0
M  V30 17800 H 1989.25 2.08549 1.46217 0
M  V30 17801 H 1990.03 3.40514 0.436438 0
M  V30 17802 N 1992.48 -0.653289 1.43422 0
M  V30 17803 C 1993.73 -1.41039 1.44749 0
M  V30 17804 C 1994.05 -1.94864 0.0728692 0
M  V30 17805 O 1993.32 -1.74425 -0.891782 0
M  V30 17806 H 1991.9 -0.523445 0.53293 0
M  V30 17807 H 1994.56 -0.770483 1.79024 0
M  V30 17808 H 1993.66 -2.25278 2.16001 0
M  V30 17809 N 1993.96 -1.29952 -0.891648 0
M  V30 17810 C 1995.37 -1.16586 -1.45824 0
M  V30 17811 C 1995.72 0.235978 -1.94776 0
M  V30 17812 O 1994.84 1.13214 -1.84422 0
M  V30 17813 C 1995.44 -2.11036 -2.65046 0
M  V30 17814 C 1994 -2.01668 -3.17816 0
M  V30 17815 C 1993.14 -2.015 -1.90507 0
M  V30 17816 H 1996.1 -1.42319 -0.702216 0
M  V30 17817 H 1996.12 -1.68729 -3.41044 0
M  V30 17818 H 1995.63 -3.13054 -2.29387 0
M  V30 17819 H 1993.73 -1.02767 -3.58147 0
M  V30 17820 H 1993.84 -2.89729 -3.81568 0
M  V30 17821 H 1992.21 -1.46209 -2.08555 0
M  V30 17822 H 1992.99 -3.05237 -1.57115 0
M  V30 17823 N 1995.44 1.1031 -1.12559 0
M  V30 17824 C 1996.85 1.63801 -0.895891 0
M  V30 17825 C 1997.2 1.87753 0.569511 0
M  V30 17826 O 1996.32 1.62046 1.43423 0
M  V30 17827 C 1996.92 2.9757 -1.6198 0
M  V30 17828 C 1995.48 3.47922 -1.43622 0
M  V30 17829 C 1994.62 2.22506 -1.65489 0
M  V30 17830 H 1997.57 0.937927 -1.28018 0
M  V30 17831 H 1997.6 3.65099 -1.07159 0
M  V30 17832 H 1997.11 2.80105 -2.68631 0
M  V30 17833 H 1995.21 3.70529 -0.392328 0
M  V30 17834 H 1995.32 4.25953 -2.1932 0
M  V30 17835 H 1993.69 2.30712 -1.07908 0
M  V30 17836 H 1994.47 2.07571 -2.7344 0
M  V30 17837 N 1996.91 0.917694 1.28125 0
M  V30 17838 C 1998.16 0.551804 1.94421 0
M  V30 17839 C 1998.48 -0.908163 1.72561 0
M  V30 17840 O 1997.75 -1.64255 1.06758 0
M  V30 17841 H 1996.33 0.201081 0.719427 0
M  V30 17842 H 1998.99 1.16791 1.56032 0
M  V30 17843 H 1998.09 0.749587 3.02965 0
M  V30 17844 N 1998.39 -1.42074 0.682102 0
M  V30 17845 C 1999.81 -1.55662 0.352347 0
M  V30 17846 C 2000.01 -1.66032 -1.14174 0
M  V30 17847 O 1999.06 -1.63128 -1.92732 0
M  V30 17848 C 2000.38 -2.80285 1.08907 0
M  V30 17849 C 2001.92 -2.94066 1.0721 0
M  V30 17850 C 2002.4 -4.2156 1.7903 0
M  V30 17851 N 2003.89 -4.28488 1.75933 0
M  V30 17852 C 2004.63 -5.25968 2.28354 0
M  V30 17853 N 2004.12 -6.29557 2.89188 0
M  V30 17854 N 2005.91 -5.17815 2.18686 0
M  V30 17855 H 1998.07 -1.33588 1.65131 0
M  V30 17856 H 2000.33 -0.643549 0.696096 0
M  V30 17857 H 2000.03 -2.78786 2.14409 0
M  V30 17858 H 1999.91 -3.71399 0.658975 0
M  V30 17859 H 2002.3 -2.95089 0.0253867 0
M  V30 17860 H 2002.38 -2.04163 1.54114 0
M  V30 17861 H 2002.02 -4.21298 2.83673 0
M  V30 17862 H 2001.95 -5.10411 1.2957 0
M  V30 17863 H 2004.44 -3.54257 1.31568 0
M  V30 17864 H 2004.75 -7.00306 3.26789 0
M  V30 17865 H 2003.1 -6.30098 2.9326 0
M  V30 17866 H 2006.29 -4.3581 1.70843 0
M  V30 17867 H 2006.46 -5.9362 2.59845 0
M  V30 17868 N 1999.87 -0.425924 -1.51735 0
M  V30 17869 C 2000.82 0.391248 -2.2746 0
M  V30 17870 C 2001.79 1.02669 -1.30569 0
M  V30 17871 O 2002.97 1.04777 -1.59457 0
M  V30 17872 C 2000.11 1.4928 -3.11142 0
M  V30 17873 C 1999.22 0.876622 -4.23012 0
M  V30 17874 C 1998.36 1.95227 -4.94024 0
M  V30 17875 C 1997.4 1.31392 -5.97832 0
M  V30 17876 N 1996.54 2.33043 -6.62296 0
M  V30 17877 H 2001.38 -0.26089 -2.96856 0
M  V30 17878 H 1998.91 -0.1405 -1.46427 0
M  V30 17879 H 2000.87 2.14262 -3.57977 0
M  V30 17880 H 1999.5 2.11473 -2.43884 0
M  V30 17881 H 1998.55 0.115399 -3.80225 0
M  V30 17882 H 1999.86 0.370471 -4.97422 0
M  V30 17883 H 1999.02 2.67897 -5.44349 0
M  V30 17884 H 1997.76 2.49212 -4.19219 0
M  V30 17885 H 1996.76 0.572626 -5.4681 0
M  V30 17886 H 1997.99 0.781544 -6.74588 0
M  V30 17887 H 1995.93 2.86129 -5.9031 0
M  V30 17888 H 1995.85 1.87287 -7.32434 0
M  V30 17889 H 1997.12 3.05231 -7.17255 0
M  V30 17890 N 2001.35 1.56817 -0.156891 0
M  V30 17891 C 2002.6 1.96051 0.490764 0
M  V30 17892 C 2002.92 1.04326 1.64746 0
M  V30 17893 O 2002.19 0.106736 1.95609 0
M  V30 17894 H 2000.77 0.72391 0.184293 0
M  V30 17895 H 2003.43 1.93482 -0.234704 0
M  V30 17896 H 2002.52 3.00007 0.86036 0
M  V30 17897 N 2002.83 -0.116876 1.57166 0
M  V30 17898 C 2004.24 -0.673792 1.74118 0
M  V30 17899 C 2004.59 -1.80206 0.775892 0
M  V30 17900 O 2003.71 -2.16341 -0.0507019 0
M  V30 17901 C 2004.31 -1.22903 3.15722 0
M  V30 17902 C 2002.87 -1.73222 3.34172 0
M  V30 17903 C 2002.01 -0.632798 2.69983 0
M  V30 17904 H 2004.96 0.109055 1.58325 0
M  V30 17905 H 2004.99 -2.09867 3.1739 0
M  V30 17906 H 2004.5 -0.407637 3.85953 0
M  V30 17907 H 2002.6 -2.57832 2.68986 0
M  V30 17908 H 2002.71 -1.8402 4.4235 0
M  V30 17909 H 2001.08 -1.06693 2.31276 0
M  V30 17910 H 2001.86 0.177653 3.4284 0
M  V30 17911 N 2004.3 -1.52772 -0.387116 0
M  V30 17912 C 2005.53 -1.71787 -1.15312 0
M  V30 17913 C 2005.95 -0.437082 -1.83671 0
M  V30 17914 O 2005.3 0.588573 -1.72749 0
M  V30 17915 C 2005.35 -2.86869 -2.19974 0
M  V30 17916 O 2005.08 -4.0999 -1.54402 0
M  V30 17917 C 2006.58 -3.17579 -3.09287 0
M  V30 17918 H 2003.8 -0.575118 -0.345659 0
M  V30 17919 H 2006.34 -1.99428 -0.452607 0
M  V30 17920 H 2004.5 -2.61684 -2.85658 0
M  V30 17921 H 2004.91 -4.7428 -2.23961 0
M  V30 17922 H 2006.38 -4.01562 -3.7875 0
M  V30 17923 H 2006.86 -2.3204 -3.729 0
M  V30 17924 H 2007.47 -3.44611 -2.49246 0
M  V30 17925 N 2005.78 0.645673 -1.43767 0
M  V30 17926 C 2007.03 1.4027 -1.45495 0
M  V30 17927 C 2007.35 1.94822 -0.0832023 0
M  V30 17928 O 2006.62 1.74895 0.882519 0
M  V30 17929 H 2005.2 0.520611 -0.535699 0
M  V30 17930 H 2007.86 0.760978 -1.7943 0
M  V30 17931 H 2006.96 2.24129 -2.17192 0
M  V30 17932 N 2007.26 1.30423 0.884744 0
M  V30 17933 C 2008.19 1.19397 2.00666 0
M  V30 17934 C 2009.17 0.084568 1.6989 0
M  V30 17935 O 2010.36 0.266641 1.92361 0
M  V30 17936 C 2007.49 0.885244 3.35828 0
M  V30 17937 C 2006.44 1.9526 3.80864 0
M  V30 17938 C 2005.77 1.49687 5.13321 0
M  V30 17939 C 2007.07 3.3637 3.99566 0
M  V30 17940 H 2008.76 2.13256 2.10148 0
M  V30 17941 H 2006.31 1.02669 1.00971 0
M  V30 17942 H 2008.26 0.794764 4.13837 0
M  V30 17943 H 2006.98 -0.0890295 3.26479 0
M  V30 17944 H 2005.64 2.03272 3.05084 0
M  V30 17945 H 2005.29 0.510855 5.00399 0
M  V30 17946 H 2004.99 2.2108 5.44424 0
M  V30 17947 H 2006.51 1.42018 5.93855 0
M  V30 17948 H 2007.93 3.31115 4.68012 0
M  V30 17949 H 2006.32 4.05852 4.42046 0
M  V30 17950 H 2007.39 3.78244 3.03414 0
M  V30 17951 N 2008.74 -1.09711 1.13142 0
M  V30 17952 C 2010.15 -1.63323 0.904565 0
M  V30 17953 C 2010.5 -1.88052 -0.559546 0
M  V30 17954 O 2009.62 -1.62804 -1.42562 0
M  V30 17955 C 2010.22 -2.96707 1.63556 0
M  V30 17956 C 2008.78 -3.47156 1.45465 0
M  V30 17957 C 2007.93 -2.21625 1.66667 0
M  V30 17958 H 2010.88 -0.931125 1.28514 0
M  V30 17959 H 2010.9 -3.64525 1.09094 0
M  V30 17960 H 2010.41 -2.78677 2.70113 0
M  V30 17961 H 2008.51 -3.70315 0.411972 0
M  V30 17962 H 2008.62 -4.24784 2.21576 0
M  V30 17963 H 2006.99 -2.30136 1.0913 0
M  V30 17964 H 2007.77 -2.06118 2.74537 0
M  V30 17965 N 2010.22 -0.924476 -1.27637 0
M  V30 17966 C 2011.46 -0.562107 -1.94126 0
M  V30 17967 C 2011.79 0.898999 -1.7304 0
M  V30 17968 O 2011.06 1.63686 -1.07627 0
M  V30 17969 H 2009.64 -0.204894 -0.718351 0
M  V30 17970 H 2012.3 -1.17617 -1.5541 0
M  V30 17971 H 2011.39 -0.765644 -3.02563 0
M  V30 17972 N 2011.69 1.41711 -0.689627 0
M  V30 17973 C 2013.11 1.84377 -0.293587 0
M  V30 17974 C 2013.46 1.57711 1.16712 0
M  V30 17975 O 2012.58 1.0445 1.89523 0
M  V30 17976 C 2013.18 3.34691 -0.526073 0
M  V30 17977 C 2011.74 3.7595 -0.184009 0
M  V30 17978 C 2010.88 2.65167 -0.811277 0
M  V30 17979 H 2013.83 1.31347 -0.890718 0
M  V30 17980 H 2013.85 3.7988 0.217124 0
M  V30 17981 H 2013.37 3.54068 -1.58927 0
M  V30 17982 H 2011.47 3.62176 0.875158 0
M  V30 17983 H 2011.58 4.74875 -0.63488 0
M  V30 17984 H 2009.94 2.53554 -0.241363 0
M  V30 17985 H 2010.73 2.87363 -1.87822 0
M  V30 17986 N 2013.17 0.433965 1.51507 0
M  V30 17987 C 2014.59 0.0860823 1.59368 0
M  V30 17988 C 2014.79 -1.40421 1.44513 0
M  V30 17989 O 2013.84 -2.17377 1.28465 0
M  V30 17990 C 2015.16 0.603181 2.94588 0
M  V30 17991 C 2016.71 0.563326 3.07889 0
M  V30 17992 C 2017.18 1.05734 4.45628 0
M  V30 17993 N 2018.67 1.01519 4.51938 0
M  V30 17994 C 2019.41 1.36835 5.56834 0
M  V30 17995 N 2018.9 1.79419 6.69164 0
M  V30 17996 N 2020.7 1.28673 5.47174 0
M  V30 17997 H 2012.85 1.40366 1.59408 0
M  V30 17998 H 2015.11 0.578206 0.751253 0
M  V30 17999 H 2014.82 1.64576 3.10818 0
M  V30 18000 H 2014.69 0.0262621 3.77191 0
M  V30 18001 H 2017.08 -0.470257 2.91329 0
M  V30 18002 H 2017.16 1.17661 2.27134 0
M  V30 18003 H 2016.8 2.08938 4.62934 0
M  V30 18004 H 2016.73 0.420634 5.24917 0
M  V30 18005 H 2019.22 0.702422 3.71314 0
M  V30 18006 H 2019.54 2.04612 7.45221 0
M  V30 18007 H 2017.88 1.83343 6.70381 0
M  V30 18008 H 2021.07 0.952726 4.58302 0
M  V30 18009 H 2021.24 1.56524 6.28812 0
M  V30 18010 N 2014.65 -1.56732 0.165206 0
M  V30 18011 C 2015.9 -1.96308 -0.48036 0
M  V30 18012 C 2016.22 -1.05198 -1.6419 0
M  V30 18013 O 2015.49 -0.117108 -1.9555 0
M  V30 18014 H 2014.07 -0.724877 -0.180451 0
M  V30 18015 H 2016.73 -1.93354 0.244961 0
M  V30 18016 H 2015.83 -3.00459 -0.844437 0
M  V30 18017 N 2016.13 0.10854 -1.57226 0
M  V30 18018 C 2017.04 1.15125 -2.0441 0
M  V30 18019 C 2018.05 1.44693 -0.966436 0
M  V30 18020 O 2019.23 1.55601 -1.27868 0
M  V30 18021 C 2016.3 2.45528 -2.44779 0
M  V30 18022 C 2015.36 2.23263 -3.66677 0
M  V30 18023 C 2014.59 3.47448 -4.05112 0
M  V30 18024 O 2014.81 4.55164 -3.43776 0
M  V30 18025 O 2013.75 3.37831 -4.9815 0
M  V30 18026 H 2017.57 0.780533 -2.93498 0
M  V30 18027 H 2015.16 0.320091 -1.45931 0
M  V30 18028 H 2017.04 3.22339 -2.71432 0
M  V30 18029 H 2015.71 2.82052 -1.58834 0
M  V30 18030 H 2014.62 1.44276 -3.4516 0
M  V30 18031 H 2015.95 1.91638 -4.53361 0
M  V30 18032 N 2017.61 1.52975 0.379009 0
M  V30 18033 C 2019.02 1.60338 0.956477 0
M  V30 18034 C 2019.37 0.462422 1.90673 0
M  V30 18035 O 2018.49 -0.413093 2.12421 0
M  V30 18036 C 2019.09 2.90615 1.74151 0
M  V30 18037 C 2017.65 3.00358 2.26853 0
M  V30 18038 C 2016.79 2.55532 1.07697 0
M  V30 18039 H 2019.75 1.57909 0.158228 0
M  V30 18040 H 2019.77 2.77662 2.60161 0
M  V30 18041 H 2019.28 3.73636 1.04965 0
M  V30 18042 H 2017.38 2.21895 2.99321 0
M  V30 18043 H 2017.49 4.05188 2.55655 0
M  V30 18044 H 2015.86 2.10088 1.43997 0
M  V30 18045 H 2016.64 3.40958 0.400297 0
M  V30 18046 N 2019.08 -0.63804 1.44107 0
M  V30 18047 C 2020.33 -1.39496 1.46237 0
M  V30 18048 C 2020.65 -1.94776 0.093533 0
M  V30 18049 O 2019.92 -1.75361 -0.873231 0
M  V30 18050 H 2018.5 -0.517763 0.538452 0
M  V30 18051 H 2021.17 -0.751452 1.79831 0
M  V30 18052 H 2020.26 -2.22974 2.18378 0
M  V30 18053 N 2020.56 -1.3089 -0.877815 0
M  V30 18054 C 2021.97 -1.18126 -1.44579 0
M  V30 18055 C 2022.32 0.215306 -1.95015 0
M  V30 18056 O 2021.45 1.11252 -1.85613 0
M  V30 18057 C 2022.04 -2.13835 -2.62793 0
M  V30 18058 C 2020.6 -2.05028 -3.15659 0
M  V30 18059 C 2019.75 -2.03509 -1.88359 0
M  V30 18060 H 2022.7 -1.43056 -0.687082 0
M  V30 18061 H 2022.72 -1.72337 -3.39235 0
M  V30 18062 H 2022.23 -3.1547 -2.26054 0
M  V30 18063 H 2020.34 -1.0656 -3.57037 0
M  V30 18064 H 2020.45 -2.9376 -3.78473 0
M  V30 18065 H 2018.81 -1.48412 -2.06992 0
M  V30 18066 H 2019.6 -3.06887 -1.53869 0
M  V30 18067 N 2022.04 1.0911 -1.13723 0
M  V30 18068 C 2023.45 1.62841 -0.913213 0
M  V30 18069 C 2023.8 1.88346 0.549566 0
M  V30 18070 O 2022.93 1.63558 1.41696 0
M  V30 18071 C 2023.52 2.95835 -1.65127 0
M  V30 18072 C 2022.08 3.46379 -1.47304 0
M  V30 18073 C 2021.23 2.20738 -1.6784 0
M  V30 18074 H 2024.18 0.924297 -1.29006 0
M  V30 18075 H 2024.2 3.63942 -1.11026 0
M  V30 18076 H 2023.71 2.77241 -2.71587 0
M  V30 18077 H 2021.81 3.70092 -0.431605 0
M  V30 18078 H 2021.93 4.23603 -2.23825 0
M  V30 18079 H 2020.29 2.29554 -1.10349 0
M  V30 18080 H 2021.07 2.04659 -2.75626 0
M  V30 18081 N 2023.52 0.931232 1.27145 0
M  V30 18082 C 2024.48 0.43771 2.24982 0
M  V30 18083 C 2025.48 -0.445689 1.545 0
M  V30 18084 O 2026.67 -0.24627 1.7245 0
M  V30 18085 C 2023.8 -0.370327 3.38883 0
M  V30 18086 H 2025 1.30217 2.70154 0
M  V30 18087 H 2022.55 0.712252 1.39128 0
M  V30 18088 H 2023.28 -1.25346 2.99097 0
M  V30 18089 H 2023.07 0.263109 3.91216 0
M  V30 18090 H 2024.56 -0.705876 4.11591 0
M  V30 18091 N 2025 -1.41343 0.697132 0
M  V30 18092 C 2026.27 -1.94971 0.156721 0
M  V30 18093 C 2026.65 -1.63641 -1.33359 0
M  V30 18094 O 2026 -0.944246 -2.08077 0
M  V30 18095 C 2026.21 -3.46091 0.449687 0
M  V30 18096 C 2027.56 -4.22912 0.378281 0
M  V30 18097 O 2028.58 -3.54117 0.38469 0
M  V30 18098 O 2027.44 -5.45443 0.339755 0
M  V30 18099 H 2024.54 -0.826847 0.0158852 0
M  V30 18100 H 2027.08 -1.51052 0.7734 0
M  V30 18101 H 2025.86 -3.62183 1.48119 0
M  V30 18102 H 2025.48 -3.97107 -0.197886 0
M  V30 18103 N 2026.48 -0.441993 -1.51275 0
M  V30 18104 C 2027.72 0.123093 -2.02426 0
M  V30 18105 C 2028.05 1.41953 -1.32525 0
M  V30 18106 O 2027.33 1.8942 -0.44164 0
M  V30 18107 C 2027.61 0.337043 -3.58519 0
M  V30 18108 C 2027.47 -0.978373 -4.39031 0
M  V30 18109 C 2028.78 1.10474 -4.26009 0
M  V30 18110 H 2025.9 0.0432623 -0.735729 0
M  V30 18111 H 2028.55 -0.581901 -1.8087 0
M  V30 18112 H 2026.7 0.93756 -3.77017 0
M  V30 18113 H 2028.37 -1.61323 -4.32172 0
M  V30 18114 H 2026.61 -1.58189 -4.03929 0
M  V30 18115 H 2027.28 -0.78266 -5.46423 0
M  V30 18116 H 2029.76 0.596021 -4.11809 0
M  V30 18117 H 2028.63 1.22321 -5.35097 0
M  V30 18118 H 2028.89 2.13401 -3.87185 0
M  V30 18119 N 2027.95 1.56642 -0.173515 0
M  V30 18120 C 2029.23 1.88634 0.517348 0
M  V30 18121 C 2029.61 1.08374 1.81158 0
M  V30 18122 O 2028.96 0.178319 2.27803 0
M  V30 18123 C 2029.17 3.40689 0.757118 0
M  V30 18124 C 2030.52 4.10473 1.08614 0
M  V30 18125 O 2031.54 3.46018 0.845582 0
M  V30 18126 O 2030.4 5.24351 1.54008 0
M  V30 18127 H 2027.49 0.782731 0.266949 0
M  V30 18128 H 2030.04 1.68369 -0.212115 0
M  V30 18129 H 2028.81 3.90982 -0.157737 0
M  V30 18130 H 2028.43 3.66572 1.53982 0
M  V30 18131 N 2029.43 -0.1002 1.57281 0
M  V30 18132 C 2030.71 -0.836006 1.76834 0
M  V30 18133 C 2031.09 -1.9718 0.753864 0
M  V30 18134 O 2030.44 -2.27452 -0.218626 0
M  V30 18135 C 2030.65 -1.33532 3.22444 0
M  V30 18136 C 2031.99 -1.78015 3.85481 0
M  V30 18137 O 2033.02 -1.43167 3.26162 0
M  V30 18138 O 2031.88 -2.42432 4.89784 0
M  V30 18139 H 2028.97 -0.398386 0.724719 0
M  V30 18140 H 2031.52 -0.0824784 1.69499 0
M  V30 18141 H 2030.29 -0.521307 3.87812 0
M  V30 18142 H 2029.91 -2.151 3.34391 0
M  V30 18143 N 2030.91 -1.53174 -0.370891 0
M  V30 18144 C 2032.15 -1.70797 -1.12284 0
M  V30 18145 C 2032.51 -0.44749 -1.86712 0
M  V30 18146 O 2033.71 -0.500342 -2.64102 0
M  V30 18147 C 2031.99 -2.92004 -2.06078 0
M  V30 18148 S 2033.54 -3.30307 -2.88864 0
M  V30 18149 H 2030.36 -0.601048 -0.379819 0
M  V30 18150 H 2032.96 -1.91263 -0.404795 0
M  V30 18151 H 2031.67 -3.81946 -1.50152 0
M  V30 18152 H 2031.2 -2.73925 -2.82363 0
M  V30 18153 H 2033.21 -2.81906 -4.08342 0
M  V30 18154 N 2032.39 0.630389 -1.44443 0
M  V30 18155 C 2033.8 1.21202 -1.4201 0
M  V30 18156 C 2034.15 1.95729 -0.135833 0
M  V30 18157 O 2033.27 2.02474 0.763765 0
M  V30 18158 C 2033.87 2.20458 -2.57262 0
M  V30 18159 C 2032.43 2.74047 -2.58021 0
M  V30 18160 C 2031.58 1.49058 -2.33831 0
M  V30 18161 H 2034.53 0.421022 -1.53013 0
M  V30 18162 H 2034.55 3.03074 -2.30057 0
M  V30 18163 H 2034.06 1.66188 -3.50718 0
M  V30 18164 H 2032.16 3.32319 -1.68509 0
M  V30 18165 H 2032.27 3.20036 -3.56531 0
M  V30 18166 H 2030.64 1.77216 -1.82939 0
M  V30 18167 H 2031.42 0.96689 -3.29403 0
M  V30 18168 N 2033.87 1.31354 0.870861 0
M  V30 18169 C 2035.28 1.09992 1.15646 0
M  V30 18170 C 2035.48 -0.130192 2.01079 0
M  V30 18171 O 2034.54 -0.819776 2.38822 0
M  V30 18172 C 2035.85 2.37098 1.84946 0
M  V30 18173 C 2037.4 2.42699 1.97651 0
M  V30 18174 C 2037.87 3.69684 2.70366 0
M  V30 18175 N 2039.36 3.70573 2.77902 0
M  V30 18176 C 2040.1 4.65525 3.34775 0
M  V30 18177 N 2039.6 5.70831 3.92586 0
M  V30 18178 N 2041.39 4.53046 3.32724 0
M  V30 18179 H 2033.54 2.10249 0.301547 0
M  V30 18180 H 2035.8 0.927478 0.196185 0
M  V30 18181 H 2035.51 3.26943 1.2962 0
M  V30 18182 H 2035.38 2.46827 2.8523 0
M  V30 18183 H 2037.77 1.53324 2.52142 0
M  V30 18184 H 2037.85 2.36935 0.964123 0
M  V30 18185 H 2037.49 4.59425 2.16543 0
M  V30 18186 H 2037.42 3.72714 3.7201 0
M  V30 18187 H 2039.92 2.94449 2.36872 0
M  V30 18188 H 2040.23 6.39363 4.3409 0
M  V30 18189 H 2038.57 5.74606 3.90964 0
M  V30 18190 H 2041.76 3.69952 2.86798 0
M  V30 18191 H 2041.94 5.27223 3.76749 0
M  V30 18192 N 2035.34 -1.08505 1.143 0
M  V30 18193 C 2036.59 -1.80248 0.90519 0
M  V30 18194 C 2036.91 -1.87116 -0.56981 0
M  V30 18195 O 2038.11 -2.55262 -0.924844 0
M  V30 18196 C 2036.57 -3.23851 1.56998 0
M  V30 18197 C 2036.18 -3.2522 3.08117 0
M  V30 18198 C 2037.92 -4.00284 1.41325 0
M  V30 18199 C 2035.83 -4.63405 3.67437 0
M  V30 18200 H 2034.76 -0.67549 0.335007 0
M  V30 18201 H 2037.41 -1.21877 1.3718 0
M  V30 18202 H 2035.79 -3.82342 1.03104 0
M  V30 18203 H 2036.96 -2.76441 3.68669 0
M  V30 18204 H 2035.28 -2.62281 3.23415 0
M  V30 18205 H 2037.88 -5.02393 1.83046 0
M  V30 18206 H 2038.22 -4.14747 0.359236 0
M  V30 18207 H 2038.75 -3.4826 1.9225 0
M  V30 18208 H 2035.49 -4.54145 4.72686 0
M  V30 18209 H 2035.01 -5.1247 3.11665 0
M  V30 18210 H 2036.69 -5.3238 3.6767 0
M  V30 18211 N 2036.82 -0.937962 -1.26649 0
M  V30 18212 C 2038.23 -0.626942 -1.75859 0
M  V30 18213 C 2038.58 0.857893 -1.7645 0
M  V30 18214 O 2037.71 1.67138 -1.37455 0
M  V30 18215 C 2038.3 -1.13131 -3.19354 0
M  V30 18216 C 2036.86 -0.870769 -3.66189 0
M  V30 18217 C 2036.01 -1.28409 -2.45777 0
M  V30 18218 H 2038.96 -1.11662 -1.12771 0
M  V30 18219 H 2038.98 -0.483659 -3.77414 0
M  V30 18220 H 2038.49 -2.21201 -3.18891 0
M  V30 18221 H 2036.59 0.195688 -3.72086 0
M  V30 18222 H 2036.71 -1.49552 -4.55161 0
M  V30 18223 H 2035.07 -0.702547 -2.44819 0
M  V30 18224 H 2035.85 -2.37365 -2.48017 0
M  V30 18225 N 2038.3 1.40971 -0.704618 0
M  V30 18226 C 2039.55 2.00682 -0.238954 0
M  V30 18227 C 2039.87 1.56119 1.16842 0
M  V30 18228 O 2039.14 0.795777 1.79009 0
M  V30 18229 H 2037.72 0.742108 -0.0853541 0
M  V30 18230 H 2040.38 1.72467 -0.9078 0
M  V30 18231 H 2039.48 3.10986 -0.26345 0
M  V30 18232 N 2039.78 0.45001 1.51039 0
M  V30 18233 C 2040.71 -0.345315 2.30933 0
M  V30 18234 C 2041.69 -1.00959 1.36899 0
M  V30 18235 O 2042.87 -1.0108 1.6582 0
M  V30 18236 C 2040 -1.43968 3.16055 0
M  V30 18237 C 2038.96 -0.898198 4.18469 0
M  V30 18238 C 2038.28 -2.08927 4.92193 0
M  V30 18239 C 2039.58 0.0760911 5.22245 0
M  V30 18240 H 2041.28 0.321441 2.97669 0
M  V30 18241 H 2038.82 0.156032 1.43152 0
M  V30 18242 H 2040.78 -2.00338 3.70732 0
M  V30 18243 H 2039.5 -2.1349 2.47163 0
M  V30 18244 H 2038.16 -0.356617 3.64861 0
M  V30 18245 H 2037.81 -2.77098 4.19792 0
M  V30 18246 H 2037.51 -1.73328 5.61454 0
M  V30 18247 H 2039.03 -2.65827 5.49698 0
M  V30 18248 H 2040.45 -0.397728 5.71919 0
M  V30 18249 H 2038.84 0.345281 5.99106 0
M  V30 18250 H 2039.91 1.00878 4.74291 0
M  V30 18251 N 2041.26 -1.56548 0.18182 0
M  V30 18252 C 2042.67 -1.83704 -0.3331 0
M  V30 18253 C 2043.02 -1.10203 -1.62326 0
M  V30 18254 O 2042.14 -0.358476 -2.1341 0
M  V30 18255 C 2042.74 -3.33243 -0.611134 0
M  V30 18256 C 2041.3 -3.60857 -1.07046 0
M  V30 18257 C 2040.44 -2.77074 -0.111929 0
M  V30 18258 H 2043.4 -1.53422 0.405878 0
M  V30 18259 H 2043.42 -3.51292 -1.462 0
M  V30 18260 H 2042.93 -3.86711 0.328039 0
M  V30 18261 H 2041.03 -3.1281 -2.02437 0
M  V30 18262 H 2041.14 -4.69129 -0.972357 0
M  V30 18263 H 2039.51 -2.47255 -0.611302 0
M  V30 18264 H 2040.29 -3.33327 0.821452 0
M  V30 18265 N 2042.73 0.0918577 -1.57332 0
M  V30 18266 C 2043.98 0.793187 -1.85884 0
M  V30 18267 C 2044.3 1.79111 -0.770985 0
M  V30 18268 O 2043.57 1.94851 0.202438 0
M  V30 18269 H 2042.15 0.295923 -0.685885 0
M  V30 18270 H 2044.82 0.0727166 -1.94764 0
M  V30 18271 H 2043.91 1.32178 -2.82728 0
M  V30 18272 N 2044.21 1.53368 0.362763 0
M  V30 18273 C 2045.18 1.7933 1.42736 0
M  V30 18274 C 2046.18 0.663794 1.4646 0
M  V30 18275 O 2047.37 0.932009 1.47171 0
M  V30 18276 C 2044.5 1.91792 2.81831 0
M  V30 18277 H 2045.69 2.74412 1.20989 0
M  V30 18278 H 2043.24 1.44488 0.596058 0
M  V30 18279 H 2043.98 0.987867 3.08888 0
M  V30 18280 H 2043.76 2.73948 2.80526 0
M  V30 18281 H 2045.25 2.13461 3.58921 0
M  V30 18282 N 2045.69 -0.62272 1.44776 0
M  V30 18283 C 2047.1 -1.20448 1.42651 0
M  V30 18284 C 2047.45 -1.95654 0.146211 0
M  V30 18285 O 2046.58 -2.02876 -0.753016 0
M  V30 18286 C 2047.17 -2.19091 2.58428 0
M  V30 18287 C 2045.73 -2.72675 2.59471 0
M  V30 18288 C 2044.88 -1.47816 2.34618 0
M  V30 18289 H 2047.83 -0.412901 1.53235 0
M  V30 18290 H 2047.85 -3.0185 2.31662 0
M  V30 18291 H 2047.36 -1.64325 3.51595 0
M  V30 18292 H 2045.46 -3.3142 1.70269 0
M  V30 18293 H 2045.58 -3.1814 3.58223 0
M  V30 18294 H 2043.94 -1.76243 1.83876 0
M  V30 18295 H 2044.72 -0.949408 3.29911 0
M  V30 18296 N 2047.17 -1.31814 -0.863883 0
M  V30 18297 C 2048.42 -1.21607 -1.61419 0
M  V30 18298 C 2048.74 0.22444 -1.93704 0
M  V30 18299 O 2048.01 1.14677 -1.58827 0
M  V30 18300 H 2046.59 -0.447091 -0.59843 0
M  V30 18301 H 2049.25 -1.65218 -1.03388 0
M  V30 18302 H 2048.35 -1.79213 -2.55517 0
M  V30 18303 N 2048.65 1.07897 -1.14873 0
M  V30 18304 C 2049.58 2.1431 -0.784 0
M  V30 18305 C 2050.56 1.60863 0.237031 0
M  V30 18306 O 2051.74 1.88086 0.124878 0
M  V30 18307 C 2048.87 3.38298 -0.164893 0
M  V30 18308 C 2047.91 4.10509 -1.15693 0
M  V30 18309 S 2048.75 4.62654 -2.69651 0
M  V30 18310 C 2049.9 5.89923 -2.09144 0
M  V30 18311 H 2050.14 2.44918 -1.68531 0
M  V30 18312 H 2047.67 1.20086 -0.9705 0
M  V30 18313 H 2049.63 4.10079 0.18588 0
M  V30 18314 H 2048.29 3.05879 0.713926 0
M  V30 18315 H 2047.48 4.99502 -0.671859 0
M  V30 18316 H 2047.08 3.44665 -1.45196 0
M  V30 18317 H 2049.38 6.618 -1.45008 0
M  V30 18318 H 2050.32 6.43135 -2.96282 0
M  V30 18319 H 2050.73 5.43181 -1.5367 0
M  V30 18320 N 2050.12 0.944665 1.2615 0
M  V30 18321 C 2051.54 0.647519 1.45874 0
M  V30 18322 C 2051.74 -0.798095 1.85021 0
M  V30 18323 O 2050.8 -1.57439 1.97406 0
M  V30 18324 C 2052.11 1.61192 2.53845 0
M  V30 18325 C 2053.66 1.62201 2.67694 0
M  V30 18326 C 2054.13 2.5738 3.7884 0
M  V30 18327 N 2055.62 2.55686 3.86237 0
M  V30 18328 C 2056.36 3.26015 4.71701 0
M  V30 18329 N 2055.85 4.05782 5.61527 0
M  V30 18330 N 2057.65 3.1495 4.65578 0
M  V30 18331 H 2049.8 1.87901 0.990296 0
M  V30 18332 H 2052.06 0.807679 0.496345 0
M  V30 18333 H 2051.77 2.64402 2.31915 0
M  V30 18334 H 2051.64 1.36668 3.5157 0
M  V30 18335 H 2054.03 0.597142 2.88995 0
M  V30 18336 H 2054.11 1.9078 1.70402 0
M  V30 18337 H 2053.75 3.59987 3.5829 0
M  V30 18338 H 2053.68 2.26089 4.75596 0
M  V30 18339 H 2056.17 1.97768 3.22019 0
M  V30 18340 H 2056.49 4.56389 6.23642 0
M  V30 18341 H 2054.83 4.09882 5.61268 0
M  V30 18342 H 2058.02 2.52113 3.94407 0
M  V30 18343 H 2058.2 3.70027 5.31962 0
M  V30 18344 N 2051.6 -1.40596 0.712085 0
M  V30 18345 C 2052.85 -2.00553 0.249593 0
M  V30 18346 C 2053.17 -1.56736 -1.16012 0
M  V30 18347 O 2052.44 -0.805259 -1.78584 0
M  V30 18348 H 2051.02 -0.741644 0.0892885 0
M  V30 18349 H 2053.68 -1.71984 0.916933 0
M  V30 18350 H 2052.78 -3.10842 0.279939 0
M  V30 18351 N 2053.08 -0.458013 -1.50798 0
M  V30 18352 C 2054.49 0.00023852 -1.867 0
M  V30 18353 C 2054.84 1.40078 -1.37378 0
M  V30 18354 O 2053.97 2.036 -0.733219 0
M  V30 18355 C 2054.56 0.00720883 -3.38799 0
M  V30 18356 C 2053.12 0.409942 -3.74161 0
M  V30 18357 C 2052.27 -0.383856 -2.7463 0
M  V30 18358 H 2055.22 -0.672909 -1.43728 0
M  V30 18359 H 2055.24 0.812262 -3.71729 0
M  V30 18360 H 2054.75 -1.01225 -3.74667 0
M  V30 18361 H 2052.85 1.43423 -3.4389 0
M  V30 18362 H 2052.97 0.120374 -4.78949 0
M  V30 18363 H 2051.33 0.16068 -2.54193 0
M  V30 18364 H 2052.11 -1.40258 -3.13341 0
M  V30 18365 N 2054.56 1.56449 -0.190119 0
M  V30 18366 C 2055.47 2.22463 0.744809 0
M  V30 18367 C 2056.49 1.22213 1.23855 0
M  V30 18368 O 2057.66 1.54934 1.28675 0
M  V30 18369 C 2054.73 2.86716 1.94923 0
M  V30 18370 C 2053.79 4.02222 1.50054 0
M  V30 18371 C 2053.02 4.63401 2.64755 0
M  V30 18372 O 2053.24 4.23495 3.8211 0
M  V30 18373 O 2052.18 5.52953 2.37752 0
M  V30 18374 H 2056 3.02955 0.212633 0
M  V30 18375 H 2053.59 1.49349 0.0389463 0
M  V30 18376 H 2055.47 3.27385 2.65324 0
M  V30 18377 H 2054.15 2.09207 2.4701 0
M  V30 18378 H 2053.05 3.66185 0.765469 0
M  V30 18379 H 2054.39 4.81379 1.02638 0
M  V30 18380 N 2056.04 -0.0835127 1.57379 0
M  V30 18381 C 2057.29 -0.783318 1.86302 0
M  V30 18382 C 2057.61 -1.787 0.780472 0
M  V30 18383 O 2056.88 -1.94956 -0.192101 0
M  V30 18384 H 2055.46 -0.292281 0.687445 0
M  V30 18385 H 2058.12 -0.0623868 1.948 0
M  V30 18386 H 2057.21 -1.30677 2.83425 0
M  V30 18387 N 2057.52 -1.53558 -0.354624 0
M  V30 18388 C 2058.48 -1.80084 -1.41783 0
M  V30 18389 C 2059.48 -0.671552 -1.46105 0
M  V30 18390 O 2060.67 -0.939801 -1.46674 0
M  V30 18391 C 2057.8 -1.93284 -2.8081 0
M  V30 18392 H 2058.99 -2.75049 -1.19532 0
M  V30 18393 H 2056.55 -1.44802 -0.588388 0
M  V30 18394 H 2057.28 -1.00423 -3.0836 0
M  V30 18395 H 2057.07 -2.75432 -2.7907 0
M  V30 18396 H 2058.56 -2.15361 -3.57784 0
M  V30 18397 N 2058.99 0.615033 -1.45104 0
M  V30 18398 C 2059.93 1.73963 -1.47689 0
M  V30 18399 C 2060.9 1.59132 -0.334015 0
M  V30 18400 O 2062.09 1.80796 -0.533407 0
M  V30 18401 C 2059.22 3.11713 -1.32487 0
M  V30 18402 C 2058.26 3.45152 -2.50544 0
M  V30 18403 S 2059.09 3.40825 -4.13035 0
M  V30 18404 C 2060.25 4.81168 -4.00285 0
M  V30 18405 H 2060.48 1.71506 -2.42843 0
M  V30 18406 H 2058.02 0.791046 -1.32596 0
M  V30 18407 H 2059.97 3.91196 -1.24403 0
M  V30 18408 H 2058.64 3.11692 -0.388156 0
M  V30 18409 H 2057.83 4.4543 -2.35813 0
M  V30 18410 H 2057.43 2.73168 -2.55451 0
M  V30 18411 H 2059.72 5.70792 -3.6497 0
M  V30 18412 H 2060.67 5.00955 -5.0045 0
M  V30 18413 H 2061.07 4.56499 -3.32067 0
M  V30 18414 N 2060.47 1.3227 0.85688 0
M  V30 18415 C 2061.72 1.22461 1.60772 0
M  V30 18416 C 2062.04 -0.214164 1.9382 0
M  V30 18417 O 2061.31 -1.13833 1.59433 0
M  V30 18418 H 2059.89 0.450259 0.596051 0
M  V30 18419 H 2062.55 1.65764 1.0251 0
M  V30 18420 H 2061.65 1.80566 2.54563 0
M  V30 18421 N 2061.95 -1.07287 1.15444 0
M  V30 18422 C 2062.88 -2.16494 0.87478 0
M  V30 18423 C 2063.86 -1.69199 -0.174882 0
M  V30 18424 O 2065.05 -1.94178 -0.0291162 0
M  V30 18425 C 2062.18 -3.45387 0.364018 0
M  V30 18426 C 2061.13 -4.06137 1.35043 0
M  V30 18427 C 2060.46 -5.30118 0.69849 0
M  V30 18428 C 2061.76 -4.46089 2.71665 0
M  V30 18429 H 2063.45 -2.40146 1.78802 0
M  V30 18430 H 2061 -1.15415 0.861124 0
M  V30 18431 H 2062.95 -4.21111 0.15591 0
M  V30 18432 H 2061.67 -3.21324 -0.58469 0
M  V30 18433 H 2060.33 -3.32458 1.54491 0
M  V30 18434 H 2059.98 -5.02346 -0.256386 0
M  V30 18435 H 2059.68 -5.71721 1.35679 0
M  V30 18436 H 2061.2 -6.08548 0.500171 0
M  V30 18437 H 2062.62 -5.12939 2.56059 0
M  V30 18438 H 2061.01 -4.98645 3.33876 0
M  V30 18439 H 2062.08 -3.57427 3.2768 0
M  V30 18440 N 2063.43 -0.951342 -1.25647 0
M  V30 18441 C 2064.84 -0.645559 -1.75184 0
M  V30 18442 C 2065.19 0.83913 -1.7735 0
M  V30 18443 O 2064.31 1.65671 -1.3922 0
M  V30 18444 C 2064.91 -1.16512 -3.18136 0
M  V30 18445 C 2063.47 -0.90956 -3.65245 0
M  V30 18446 C 2062.62 -1.31009 -2.44401 0
M  V30 18447 H 2065.57 -1.12852 -1.1158 0
M  V30 18448 H 2065.59 -0.523662 -3.76879 0
M  V30 18449 H 2065.1 -2.24571 -3.16527 0
M  V30 18450 H 2063.2 0.156212 -3.72272 0
M  V30 18451 H 2063.31 -1.54371 -4.53549 0
M  V30 18452 H 2061.68 -0.728474 -2.4406 0
M  V30 18453 H 2062.46 -2.39983 -2.45486 0
M  V30 18454 N 2064.91 1.40216 -0.719531 0
M  V30 18455 C 2066.15 2.00418 -0.260225 0
M  V30 18456 C 2066.47 1.57349 1.15179 0
M  V30 18457 O 2065.74 0.814718 1.78155 0
M  V30 18458 H 2064.32 0.741161 -0.0932204 0
M  V30 18459 H 2066.99 1.71495 -0.926041 0
M  V30 18460 H 2066.08 3.10689 -0.29642 0
M  V30 18461 N 2066.38 0.466004 1.50553 0
M  V30 18462 C 2067.32 -0.37668 2.2507 0
M  V30 18463 C 2068.29 -1.00055 1.28171 0
M  V30 18464 O 2069.48 -1.03747 1.57381 0
M  V30 18465 C 2066.61 -1.52735 3.02307 0
M  V30 18466 C 2065.65 -1.02136 4.1409 0
M  V30 18467 S 2066.48 0.0598436 5.35467 0
M  V30 18468 C 2067.64 -1.09482 6.1625 0
M  V30 18469 H 2067.87 0.255883 2.96197 0
M  V30 18470 H 2065.41 0.250826 1.52349 0
M  V30 18471 H 2067.36 -2.18686 3.474 0
M  V30 18472 H 2066.03 -2.13141 2.30715 0
M  V30 18473 H 2065.22 -1.88265 4.67517 0
M  V30 18474 H 2064.82 -0.439645 3.71407 0
M  V30 18475 H 2067.11 -2.00749 6.47075 0
M  V30 18476 H 2068.06 -0.599922 7.05554 0
M  V30 18477 H 2068.46 -1.34635 5.48209 0
M  V30 18478 N 2067.86 -1.56346 0.198413 0
M  V30 18479 C 2069.28 -1.58822 -0.157378 0
M  V30 18480 C 2069.48 -1.21468 -1.60773 0
M  V30 18481 O 2068.53 -0.938985 -2.34391 0
M  V30 18482 C 2069.85 -3.00336 0.14798 0
M  V30 18483 C 2071.39 -3.12875 0.0883539 0
M  V30 18484 C 2071.87 -4.56527 0.367068 0
M  V30 18485 N 2073.36 -4.62122 0.315805 0
M  V30 18486 C 2074.1 -5.7117 0.505265 0
M  V30 18487 N 2073.59 -6.88671 0.755254 0
M  V30 18488 N 2075.38 -5.60381 0.439293 0
M  V30 18489 H 2067.54 -1.78908 1.1448 0
M  V30 18490 H 2069.8 -0.830475 0.457182 0
M  V30 18491 H 2069.5 -3.32238 1.15373 0
M  V30 18492 H 2069.38 -3.732 -0.547892 0
M  V30 18493 H 2071.77 -2.80783 -0.908004 0
M  V30 18494 H 2071.85 -2.4239 0.817354 0
M  V30 18495 H 2071.49 -4.89332 1.36076 0
M  V30 18496 H 2071.42 -5.25206 -0.382859 0
M  V30 18497 H 2073.91 -3.77679 0.129337 0
M  V30 18498 H 2074.22 -7.67675 0.888542 0
M  V30 18499 H 2072.57 -6.9047 0.792186 0
M  V30 18500 H 2075.76 -4.67462 0.244386 0
M  V30 18501 H 2075.93 -6.45305 0.590363 0
M  V30 18502 N 2069.34 0.0751653 -1.57421 0
M  V30 18503 C 2070.59 0.773427 -1.86715 0
M  V30 18504 C 2070.91 1.78283 -0.789938 0
M  V30 18505 O 2070.18 1.95055 0.18176 0
M  V30 18506 H 2068.76 0.288632 -0.688985 0
M  V30 18507 H 2071.42 0.0520552 -1.9483 0
M  V30 18508 H 2070.52 1.29172 -2.84114 0
M  V30 18509 N 2070.82 1.53744 0.346476 0
M  V30 18510 C 2072.23 1.62331 0.922251 0
M  V30 18511 C 2072.58 0.502763 1.89649 0
M  V30 18512 O 2071.71 -0.367943 2.13249 0
M  V30 18513 C 2072.3 2.94243 1.67948 0
M  V30 18514 C 2070.86 3.05102 2.20431 0
M  V30 18515 C 2070.01 2.57759 1.02252 0
M  V30 18516 H 2072.96 1.58209 0.124698 0
M  V30 18517 H 2072.98 2.83118 2.54213 0
M  V30 18518 H 2072.49 3.75779 0.970157 0
M  V30 18519 H 2070.59 2.28194 2.94547 0
M  V30 18520 H 2070.7 4.1052 2.47003 0
M  V30 18521 H 2069.07 2.13095 1.39508 0
M  V30 18522 H 2069.85 3.41731 0.327885 0
M  V30 18523 N 2072.3 -0.607329 1.45428 0
M  V30 18524 C 2073.52 -1.39786 1.53214 0
M  V30 18525 C 2073.95 -1.87369 0.165684 0
M  V30 18526 O 2073.3 -1.60154 -0.849728 0
M  V30 18527 C 2073.35 -2.57823 2.52111 0
M  V30 18528 O 2072.46 -3.58462 2.03909 0
M  V30 18529 H 2071.8 -0.417312 0.516476 0
M  V30 18530 H 2074.33 -0.739101 1.90784 0
M  V30 18531 H 2074.34 -3.05064 2.70925 0
M  V30 18532 H 2073.01 -2.22539 3.51354 0
M  V30 18533 H 2071.59 -3.17868 1.94973 0
M  V30 18534 N 2073.77 -1.32722 -0.849853 0
M  V30 18535 C 2075.02 -1.23312 -1.60121 0
M  V30 18536 C 2075.34 0.203882 -1.93931 0
M  V30 18537 O 2074.61 1.12986 -1.60035 0
M  V30 18538 H 2073.19 -0.453413 -0.593654 0
M  V30 18539 H 2075.86 -1.66305 -1.0163 0
M  V30 18540 H 2074.95 -1.81913 -2.53602 0
M  V30 18541 N 2075.25 1.06673 -1.16011 0
M  V30 18542 C 2076.66 1.60868 -0.947549 0
M  V30 18543 C 2077.01 1.89469 0.509491 0
M  V30 18544 O 2076.14 1.66526 1.38195 0
M  V30 18545 C 2076.73 2.92266 -1.71365 0
M  V30 18546 C 2075.29 3.43177 -1.54618 0
M  V30 18547 C 2074.44 2.17128 -1.72484 0
M  V30 18548 H 2077.39 0.896725 -1.30937 0
M  V30 18549 H 2077.41 3.61505 -1.1872 0
M  V30 18550 H 2076.92 2.71417 -2.77406 0
M  V30 18551 H 2075.03 3.69093 -0.51001 0
M  V30 18552 H 2075.14 4.1876 -2.3276 0
M  V30 18553 H 2073.5 2.27162 -1.15193 0
M  V30 18554 H 2074.29 1.98766 -2.79905 0
M  V30 18555 N 2076.73 0.957992 1.25141 0
M  V30 18556 C 2077.98 0.613378 1.92567 0
M  V30 18557 C 2078.3 -0.852805 1.75363 0
M  V30 18558 O 2077.57 -1.60775 1.11929 0
M  V30 18559 H 2076.15 0.223867 0.712666 0
M  V30 18560 H 2078.81 1.21696 1.52237 0
M  V30 18561 H 2077.91 0.845594 3.00427 0
M  V30 18562 N 2078.21 -1.39832 0.726957 0
M  V30 18563 C 2079.45 -2.02529 0.275958 0
M  V30 18564 C 2079.81 -1.56423 -1.11336 0
M  V30 18565 O 2081.01 -2.11261 -1.66199 0
M  V30 18566 C 2079.28 -3.55527 0.365418 0
M  V30 18567 S 2080.84 -4.38799 -0.00692227 0
M  V30 18568 H 2077.66 -0.702648 0.108656 0
M  V30 18569 H 2080.26 -1.70772 0.951694 0
M  V30 18570 H 2078.97 -3.86574 1.378 0
M  V30 18571 H 2078.5 -3.92027 -0.328411 0
M  V30 18572 H 2080.51 -4.80826 -1.22559 0
M  V30 18573 N 2079.69 -0.473982 -1.50304 0
M  V30 18574 C 2080.63 0.318686 -2.28589 0
M  V30 18575 C 2081.6 0.984628 -1.3377 0
M  V30 18576 O 2082.79 0.996508 -1.62709 0
M  V30 18577 C 2079.93 1.39305 -3.15734 0
M  V30 18578 C 2079.04 0.7416 -4.25587 0
M  V30 18579 C 2078.18 1.79411 -4.99985 0
M  V30 18580 C 2077.22 1.12306 -6.01709 0
M  V30 18581 N 2076.35 2.11854 -6.69374 0
M  V30 18582 H 2081.19 -0.3552 -2.95876 0
M  V30 18583 H 2078.73 -0.187014 -1.45906 0
M  V30 18584 H 2080.69 2.02764 -3.64613 0
M  V30 18585 H 2079.32 2.03607 -2.50488 0
M  V30 18586 H 2078.37 -0.00562528 -3.804 0
M  V30 18587 H 2079.68 0.212032 -4.98349 0
M  V30 18588 H 2078.84 2.50443 -5.52597 0
M  V30 18589 H 2077.57 2.35749 -4.26936 0
M  V30 18590 H 2076.58 0.398372 -5.48355 0
M  V30 18591 H 2077.8 0.566533 -6.76733 0
M  V30 18592 H 2075.75 2.67204 -5.99114 0
M  V30 18593 H 2075.67 1.6389 -7.38022 0
M  V30 18594 H 2076.94 2.82258 -7.26602 0
M  V30 18595 N 2081.16 1.56239 -0.206702 0
M  V30 18596 C 2082.41 1.97513 0.428144 0
M  V30 18597 C 2082.73 1.09514 1.61343 0
M  V30 18598 O 2082 0.168913 1.9517 0
M  V30 18599 H 2080.58 0.729406 0.161169 0
M  V30 18600 H 2083.25 1.92637 -0.296139 0
M  V30 18601 H 2082.34 3.02592 0.764479 0
M  V30 18602 N 2082.64 -0.0668159 1.57458 0
M  V30 18603 C 2083.55 -1.09665 2.0739 0
M  V30 18604 C 2084.57 -1.4208 1.00446 0
M  V30 18605 O 2085.74 -1.52157 1.31948 0
M  V30 18606 C 2082.81 -2.38952 2.51203 0
M  V30 18607 C 2081.87 -2.13463 3.72468 0
M  V30 18608 C 2081.1 -3.36585 4.14181 0
M  V30 18609 O 2081.33 -4.45889 3.55723 0
M  V30 18610 O 2080.26 -3.24505 5.06932 0
M  V30 18611 H 2084.09 -0.702443 2.95465 0
M  V30 18612 H 2081.67 -0.281287 1.46728 0
M  V30 18613 H 2083.55 -3.1503 2.79883 0
M  V30 18614 H 2082.23 -2.77742 1.66256 0
M  V30 18615 H 2081.14 -1.35074 3.48864 0
M  V30 18616 H 2082.47 -1.7955 4.58282 0
M  V30 18617 N 2084.12 -1.53926 -0.338317 0
M  V30 18618 C 2085.53 -1.62818 -0.913629 0
M  V30 18619 C 2085.88 -0.512813 -1.8938 0
M  V30 18620 O 2085.01 0.356629 -2.13441 0
M  V30 18621 C 2085.6 -2.9513 -1.66385 0
M  V30 18622 C 2084.16 -3.06267 -2.1881 0
M  V30 18623 C 2083.31 -2.58298 -1.00884 0
M  V30 18624 H 2086.26 -1.58273 -0.116306 0
M  V30 18625 H 2086.28 -2.84463 -2.52708 0
M  V30 18626 H 2085.79 -3.76288 -0.950215 0
M  V30 18627 H 2083.89 -2.29753 -2.93333 0
M  V30 18628 H 2084.01 -4.11824 -2.44822 0
M  V30 18629 H 2082.37 -2.13832 -1.38376 0
M  V30 18630 H 2083.15 -3.419 -0.309757 0
M  V30 18631 N 2085.6 0.599608 -1.45748 0
M  V30 18632 C 2086.85 1.3557 -1.49884 0
M  V30 18633 C 2087.17 1.94459 -0.145141 0
M  V30 18634 O 2086.44 1.77615 0.82643 0
M  V30 18635 H 2085.02 0.503305 -0.551991 0
M  V30 18636 H 2087.68 0.703509 -1.8176 0
M  V30 18637 H 2086.78 2.17106 -2.24213 0
M  V30 18638 N 2087.08 1.33171 0.842803 0
M  V30 18639 C 2088.01 1.2572 1.96766 0
M  V30 18640 C 2088.99 0.138574 1.69535 0
M  V30 18641 O 2090.17 0.327704 1.91415 0
M  V30 18642 C 2087.3 0.991637 3.32842 0
M  V30 18643 C 2086.26 2.07278 3.74459 0
M  V30 18644 C 2085.58 1.65942 5.08299 0
M  V30 18645 C 2086.88 3.48911 3.88662 0
M  V30 18646 H 2088.58 2.19834 2.03257 0
M  V30 18647 H 2086.12 1.05829 0.976533 0
M  V30 18648 H 2088.08 0.926021 4.111 0
M  V30 18649 H 2086.8 0.0148823 3.26597 0
M  V30 18650 H 2085.46 2.12875 2.98462 0
M  V30 18651 H 2085.11 0.669795 4.98521 0
M  V30 18652 H 2084.81 2.38288 5.37115 0
M  V30 18653 H 2086.33 1.60839 5.89036 0
M  V30 18654 H 2087.75 3.45837 4.57241 0
M  V30 18655 H 2086.14 4.1971 4.2891 0
M  V30 18656 H 2087.21 3.87705 2.91226 0
M  V30 18657 N 2088.56 -1.06056 1.16576 0
M  V30 18658 C 2089.83 -1.75733 0.858908 0
M  V30 18659 C 2090.21 -2.01077 -0.642746 0
M  V30 18660 O 2089.56 -1.63981 -1.5913 0
M  V30 18661 C 2089.77 -3.0567 1.68425 0
M  V30 18662 C 2091.12 -3.7978 1.89874 0
M  V30 18663 O 2092.14 -3.15517 1.65311 0
M  V30 18664 O 2091 -4.95232 2.311 0
M  V30 18665 H 2088.1 -0.763759 0.317177 0
M  V30 18666 H 2090.64 -1.12303 1.27225 0
M  V30 18667 H 2089.41 -2.82923 2.70315 0
M  V30 18668 H 2089.04 -3.76835 1.26811 0
M  V30 18669 N 2090.03 -0.964615 -1.24631 0
M  V30 18670 C 2091.28 -0.623582 -1.92239 0
M  V30 18671 C 2091.6 0.843493 -1.75813 0
M  V30 18672 O 2090.87 1.60179 -1.12781 0
M  V30 18673 H 2089.45 -0.227644 -0.711468 0
M  V30 18674 H 2092.11 -1.22502 -1.51589 0
M  V30 18675 H 2091.21 -0.861514 -2.99974 0
M  V30 18676 N 2091.51 1.39445 -0.734362 0
M  V30 18677 C 2092.93 1.54247 -0.409878 0
M  V30 18678 C 2093.13 1.70155 1.07933 0
M  V30 18679 O 2092.18 1.70169 1.86545 0
M  V30 18680 C 2093.5 2.7605 -1.19234 0
M  V30 18681 C 2095.04 2.89885 -1.1805 0
M  V30 18682 C 2095.52 4.14625 -1.94552 0
M  V30 18683 N 2097.01 4.21663 -1.91715 0
M  V30 18684 C 2097.75 5.1713 -2.47717 0
M  V30 18685 N 2097.24 6.1839 -3.12354 0
M  V30 18686 N 2099.03 5.09342 -2.37754 0
M  V30 18687 H 2091.19 1.27367 -1.69975 0
M  V30 18688 H 2093.45 0.61727 -0.719501 0
M  V30 18689 H 2093.15 2.70636 -2.24609 0
M  V30 18690 H 2093.03 3.68698 -0.796363 0
M  V30 18691 H 2095.42 2.94792 -0.13489 0
M  V30 18692 H 2095.5 1.98302 -1.61585 0
M  V30 18693 H 2095.14 4.10479 -2.99114 0
M  V30 18694 H 2095.07 5.0525 -1.48424 0
M  V30 18695 H 2097.56 3.4913 -1.44625 0
M  V30 18696 H 2097.87 6.87695 -3.52555 0
M  V30 18697 H 2096.22 6.1878 -3.16444 0
M  V30 18698 H 2099.41 4.29169 -1.86901 0
M  V30 18699 H 2099.58 5.83567 -2.81698 0
M  V30 18700 N 2092.99 0.481946 1.5005 0
M  V30 18701 C 2094.41 0.13674 1.59013 0
M  V30 18702 C 2094.61 -1.35753 1.48908 0
M  V30 18703 O 2093.66 -2.1318 1.35316 0
M  V30 18704 C 2094.97 0.696597 2.9252 0
M  V30 18705 C 2096.52 0.660993 3.05941 0
M  V30 18706 C 2097 1.19858 4.42038 0
M  V30 18707 N 2098.49 1.15846 4.4848 0
M  V30 18708 C 2099.22 1.54481 5.52199 0
M  V30 18709 N 2098.72 2.00617 6.63117 0
M  V30 18710 N 2100.51 1.46016 5.42804 0
M  V30 18711 H 2092.66 1.45367 1.54862 0
M  V30 18712 H 2094.93 0.601814 0.732478 0
M  V30 18713 H 2094.63 1.74381 3.05425 0
M  V30 18714 H 2094.51 0.146249 3.76916 0
M  V30 18715 H 2096.89 -0.377335 2.92678 0
M  V30 18716 H 2096.97 1.24827 2.23275 0
M  V30 18717 H 2096.62 2.2356 4.56052 0
M  V30 18718 H 2096.55 0.587419 5.23313 0
M  V30 18719 H 2099.04 0.820197 3.68892 0
M  V30 18720 H 2099.35 2.28217 7.38334 0
M  V30 18721 H 2097.7 2.04578 6.64209 0
M  V30 18722 H 2100.89 1.09805 4.55039 0
M  V30 18723 H 2101.06 1.7645 6.23514 0
M  V30 18724 N 2094.47 -1.56127 0.214985 0
M  V30 18725 C 2095.72 -1.97737 -0.417663 0
M  V30 18726 C 2096.04 -1.10368 -1.6076 0
M  V30 18727 O 2095.31 -0.179261 -1.95078 0
M  V30 18728 H 2093.89 -0.730251 -0.157298 0
M  V30 18729 H 2096.55 -1.92477 0.306351 0
M  V30 18730 H 2095.64 -3.02994 -0.748421 0
M  V30 18731 N 2095.95 0.0584645 -1.57492 0
M  V30 18732 C 2097.19 0.75619 -1.88174 0
M  V30 18733 C 2097.52 1.76546 -0.809018 0
M  V30 18734 O 2096.8 1.93672 0.179286 0
M  V30 18735 C 2097.08 1.45223 -3.29518 0
M  V30 18736 C 2096.94 0.458472 -4.47457 0
M  V30 18737 C 2098.25 2.39381 -3.69303 0
M  V30 18738 H 2095.37 0.27344 -0.684397 0
M  V30 18739 H 2098.02 0.0191997 -1.8999 0
M  V30 18740 H 2096.17 2.08044 -3.28101 0
M  V30 18741 H 2097.84 -0.165547 -4.61003 0
M  V30 18742 H 2096.08 -0.225018 -4.33216 0
M  V30 18743 H 2096.75 0.983384 -5.4317 0
M  V30 18744 H 2099.23 1.86628 -3.719 0
M  V30 18745 H 2098.1 2.85078 -4.69065 0
M  V30 18746 H 2098.36 3.24775 -2.99956 0
M  V30 18747 N 2097.42 1.54103 0.330149 0
M  V30 18748 C 2098.7 1.62635 1.0867 0
M  V30 18749 C 2099.08 0.456041 2.06115 0
M  V30 18750 O 2098.43 -0.550367 2.21773 0
M  V30 18751 C 2098.64 2.99332 1.79448 0
M  V30 18752 C 2099.99 3.55151 2.32708 0
M  V30 18753 O 2101.01 3.01594 1.89525 0
M  V30 18754 O 2099.87 4.4886 3.11749 0
M  V30 18755 H 2096.96 0.658337 0.500521 0
M  V30 18756 H 2099.51 1.66449 0.330568 0
M  V30 18757 H 2098.28 3.75947 1.08532 0
M  V30 18758 H 2097.9 2.99167 2.61887 0
M  V30 18759 N 2098.9 -0.59187 1.46064 0
M  V30 18760 C 2100.15 -1.34773 1.50601 0
M  V30 18761 C 2100.47 -1.94379 0.155452 0
M  V30 18762 O 2099.74 -1.7805 -0.816999 0
M  V30 18763 H 2098.32 -0.50037 0.554652 0
M  V30 18764 H 2100.98 -0.69386 1.82131 0
M  V30 18765 H 2100.08 -2.15914 2.25361 0
M  V30 18766 N 2100.38 -1.33616 -0.835729 0
M  V30 18767 C 2101.63 -1.25436 -1.59354 0
M  V30 18768 C 2101.96 0.178683 -1.93376 0
M  V30 18769 O 2101.23 1.12082 -1.58959 0
M  V30 18770 C 2101.52 -2.13273 -2.9015 0
M  V30 18771 C 2101.37 -3.65051 -2.62789 0
M  V30 18772 C 2102.69 -2.00828 -3.91607 0
M  V30 18773 H 2099.81 -0.457008 -0.578198 0
M  V30 18774 H 2102.45 -1.63747 -0.963686 0
M  V30 18775 H 2100.6 -1.8073 -3.43902 0
M  V30 18776 H 2102.27 -4.07899 -2.15444 0
M  V30 18777 H 2100.52 -3.86775 -1.96437 0
M  V30 18778 H 2101.19 -4.2186 -3.56003 0
M  V30 18779 H 2103.66 -2.29375 -3.47169 0
M  V30 18780 H 2102.54 -2.64533 -4.8095 0
M  V30 18781 H 2102.8 -0.98144 -4.31069 0
M  V30 18782 N 2101.86 1.05436 -1.17136 0
M  V30 18783 C 2103.27 1.59854 -0.964558 0
M  V30 18784 C 2103.62 1.89999 0.489367 0
M  V30 18785 O 2102.75 1.67983 1.36421 0
M  V30 18786 C 2103.34 2.90432 -1.74455 0
M  V30 18787 C 2101.9 3.41518 -1.58249 0
M  V30 18788 C 2101.05 2.15286 -1.74777 0
M  V30 18789 H 2104 0.882787 -1.31881 0
M  V30 18790 H 2104.02 3.60225 -1.22548 0
M  V30 18791 H 2103.53 2.6846 -2.80269 0
M  V30 18792 H 2101.63 3.68531 -0.549129 0
M  V30 18793 H 2101.74 4.16267 -2.37188 0
M  V30 18794 H 2100.11 2.25927 -1.17596 0
M  V30 18795 H 2100.89 1.95787 -2.81997 0
M  V30 18796 N 2103.34 0.971211 1.24118 0
M  V30 18797 C 2104.58 0.633768 1.91906 0
M  V30 18798 C 2104.91 -0.834157 1.76258 0
M  V30 18799 O 2104.18 -1.59579 1.13628 0
M  V30 18800 H 2102.76 0.231413 0.710251 0
M  V30 18801 H 2105.42 1.23304 1.50938 0
M  V30 18802 H 2104.51 0.877411 2.99513 0
M  V30 18803 N 2104.81 -1.39054 0.741747 0
M  V30 18804 C 2106.04 -2.05193 0.301789 0
M  V30 18805 C 2106.46 -1.55567 -1.05739 0
M  V30 18806 O 2105.82 -0.702382 -1.67141 0
M  V30 18807 C 2105.87 -3.59172 0.320615 0
M  V30 18808 O 2104.97 -4.06596 -0.68946 0
M  V30 18809 H 2104.32 -0.649957 0.135837 0
M  V30 18810 H 2106.85 -1.77958 1.00956 0
M  V30 18811 H 2106.86 -4.07657 0.167351 0
M  V30 18812 H 2105.53 -3.94652 1.31234 0
M  V30 18813 H 2104.11 -3.69509 -0.50178 0
M  V30 18814 N 2106.29 -0.489897 -1.49792 0
M  V30 18815 C 2107.7 -0.0393634 -1.86658 0
M  V30 18816 C 2108.05 1.37132 -1.40318 0
M  V30 18817 O 2107.18 2.01999 -0.776241 0
M  V30 18818 C 2107.77 -0.0646571 -3.38738 0
M  V30 18819 C 2106.33 0.330485 -3.74946 0
M  V30 18820 C 2105.48 -0.442023 -2.73754 0
M  V30 18821 H 2108.43 -0.703245 -1.42268 0
M  V30 18822 H 2108.45 0.73323 -3.73368 0
M  V30 18823 H 2107.96 -1.09149 -3.72435 0
M  V30 18824 H 2106.07 1.36097 -3.46855 0
M  V30 18825 H 2106.18 0.0187552 -4.79096 0
M  V30 18826 H 2104.54 0.106725 -2.54476 0
M  V30 18827 H 2105.33 -1.46872 -3.10296 0
M  V30 18828 N 2107.77 1.56011 -0.223262 0
M  V30 18829 C 2109.02 1.97956 0.407171 0
M  V30 18830 C 2109.34 1.11219 1.60173 0
M  V30 18831 O 2108.61 0.189604 1.9498 0
M  V30 18832 H 2107.19 0.731075 0.153424 0
M  V30 18833 H 2109.85 1.92312 -0.316554 0
M  V30 18834 H 2108.95 3.03386 0.732342 0
M  V30 18835 N 2109.25 -0.0501116 1.5752 0
M  V30 18836 C 2110.66 -0.599337 1.76819 0
M  V30 18837 C 2111.01 -1.76753 0.851625 0
M  V30 18838 O 2110.14 -2.16361 0.0411012 0
M  V30 18839 C 2110.73 -1.09402 3.2065 0
M  V30 18840 C 2109.29 -1.58893 3.41219 0
M  V30 18841 C 2108.44 -0.517719 2.72424 0
M  V30 18842 H 2111.39 0.176108 1.5772 0
M  V30 18843 H 2111.41 -1.96217 3.26005 0
M  V30 18844 H 2110.92 -0.243574 3.87335 0
M  V30 18845 H 2109.02 -2.46191 2.7968 0
M  V30 18846 H 2109.13 -1.65093 4.49757 0
M  V30 18847 H 2107.5 -0.967874 2.35594 0
M  V30 18848 H 2108.28 0.322904 3.41778 0
M  V30 18849 N 2110.73 -1.54276 -0.321972 0
M  V30 18850 C 2112.14 -1.63778 -0.896309 0
M  V30 18851 C 2112.49 -0.532871 -1.88825 0
M  V30 18852 O 2111.61 0.33397 -2.13807 0
M  V30 18853 C 2112.21 -2.96878 -1.63245 0
M  V30 18854 C 2110.77 -3.0857 -2.15549 0
M  V30 18855 C 2109.91 -2.59353 -0.981385 0
M  V30 18856 H 2112.87 -1.58388 -0.0995121 0
M  V30 18857 H 2112.89 -2.87127 -2.49677 0
M  V30 18858 H 2112.4 -3.77274 -0.910251 0
M  V30 18859 H 2110.5 -2.32851 -2.9088 0
M  V30 18860 H 2110.61 -4.14398 -2.4044 0
M  V30 18861 H 2108.98 -2.15288 -1.361 0
M  V30 18862 H 2109.76 -3.42209 -0.273477 0
M  V30 18863 N 2112.2 0.584116 -1.46376 0
M  V30 18864 C 2113.45 1.33973 -1.51313 0
M  V30 18865 C 2113.77 1.94294 -0.165758 0
M  V30 18866 O 2113.04 1.78481 0.807546 0
M  V30 18867 H 2111.62 0.497422 -0.557298 0
M  V30 18868 H 2114.29 0.684191 -1.82496 0
M  V30 18869 H 2113.38 2.14716 -2.26503 0
M  V30 18870 N 2113.68 1.34058 0.828631 0
M  V30 18871 C 2115.1 1.13615 1.12088 0
M  V30 18872 C 2115.3 -0.0661541 2.01391 0
M  V30 18873 O 2114.36 -0.743382 2.41309 0
M  V30 18874 C 2115.67 2.42862 1.7731 0
M  V30 18875 C 2117.22 2.48865 1.8983 0
M  V30 18876 C 2117.69 3.78099 2.58468 0
M  V30 18877 N 2119.18 3.79227 2.65972 0
M  V30 18878 C 2119.92 4.7594 3.19795 0
M  V30 18879 N 2119.41 5.83032 3.74226 0
M  V30 18880 N 2121.21 4.63402 3.18143 0
M  V30 18881 H 2113.36 2.11101 0.234506 0
M  V30 18882 H 2115.62 0.93325 0.166579 0
M  V30 18883 H 2115.33 3.30901 1.19153 0
M  V30 18884 H 2115.2 2.55776 2.77233 0
M  V30 18885 H 2117.59 1.61268 2.47137 0
M  V30 18886 H 2117.67 2.39883 0.888256 0
M  V30 18887 H 2117.31 4.66082 2.01817 0
M  V30 18888 H 2117.24 3.84361 3.59964 0
M  V30 18889 H 2119.73 3.01836 2.27384 0
M  V30 18890 H 2120.05 6.5285 4.1353 0
M  V30 18891 H 2118.39 5.86753 3.72486 0
M  V30 18892 H 2121.58 3.78889 2.74883 0
M  V30 18893 H 2121.76 5.38942 3.59786 0
M  V30 18894 N 2115.16 -1.04814 1.17694 0
M  V30 18895 C 2116.11 -2.12651 0.897118 0
M  V30 18896 C 2117.08 -1.65323 -0.160501 0
M  V30 18897 O 2118.26 -1.90787 -0.0224765 0
M  V30 18898 C 2115.4 -3.42526 0.420731 0
M  V30 18899 C 2114.52 -4.03508 1.54291 0
M  V30 18900 C 2113.65 -5.21315 1.02001 0
M  V30 18901 C 2112.69 -5.74311 2.11738 0
M  V30 18902 N 2111.83 -6.83415 1.60897 0
M  V30 18903 H 2116.67 -2.35925 1.82054 0
M  V30 18904 H 2114.2 -1.15736 0.907948 0
M  V30 18905 H 2116.16 -4.1701 0.126057 0
M  V30 18906 H 2114.79 -3.19423 -0.46572 0
M  V30 18907 H 2113.84 -3.26425 1.95323 0
M  V30 18908 H 2115.16 -4.38876 2.37042 0
M  V30 18909 H 2114.31 -6.02884 0.679408 0
M  V30 18910 H 2113.05 -4.87431 0.161982 0
M  V30 18911 H 2112.05 -4.91369 2.46651 0
M  V30 18912 H 2113.28 -6.10242 2.97963 0
M  V30 18913 H 2111.23 -6.51421 0.773715 0
M  V30 18914 H 2111.14 -7.17807 2.37252 0
M  V30 18915 H 2112.41 -7.68627 1.29741 0
M  V30 18916 N 2116.64 -0.977779 -1.23601 0
M  V30 18917 C 2117.89 -0.643936 -1.91567 0
M  V30 18918 C 2118.21 0.824798 -1.76698 0
M  V30 18919 O 2117.48 1.58974 -1.14473 0
M  V30 18920 H 2116.06 -0.235177 -0.709014 0
M  V30 18921 H 2118.72 -1.24103 -1.50282 0
M  V30 18922 H 2117.82 -0.893282 -2.99043 0
M  V30 18923 N 2118.12 1.38658 -0.749111 0
M  V30 18924 C 2119.39 1.94255 -0.228976 0
M  V30 18925 C 2119.77 1.68478 1.27194 0
M  V30 18926 O 2119.12 1.02082 2.0443 0
M  V30 18927 C 2119.33 3.44183 -0.577827 0
M  V30 18928 C 2120.68 4.21216 -0.534981 0
M  V30 18929 O 2121.7 3.52445 -0.515853 0
M  V30 18930 O 2120.56 5.43806 -0.541959 0
M  V30 18931 H 2117.66 0.825688 -0.0465621 0
M  V30 18932 H 2120.2 1.48077 -0.828929 0
M  V30 18933 H 2118.98 3.56436 -1.6146 0
M  V30 18934 H 2118.6 3.97568 0.0503656 0
M  V30 18935 N 2119.6 0.497834 1.49531 0
M  V30 18936 C 2120.82 -0.0447105 2.06852 0
M  V30 18937 C 2121.24 -1.31106 1.35855 0
M  V30 18938 O 2120.6 -1.77218 0.435907 0
M  V30 18939 C 2120.65 -0.305505 3.60207 0
M  V30 18940 O 2120.37 0.910643 4.28531 0
M  V30 18941 C 2121.87 -0.892044 4.34232 0
M  V30 18942 H 2119.09 0.0190462 0.67073 0
M  V30 18943 H 2121.63 0.694284 1.92354 0
M  V30 18944 H 2119.79 -0.994475 3.74418 0
M  V30 18945 H 2120.2 0.67155 5.20183 0
M  V30 18946 H 2121.68 -1.02413 5.42416 0
M  V30 18947 H 2122.15 -1.88903 3.965 0
M  V30 18948 H 2122.76 -0.24064 4.24619 0
M  V30 18949 N 2121.07 -1.5589 0.231532 0
M  V30 18950 C 2122.32 -1.98169 -0.396667 0
M  V30 18951 C 2122.64 -1.12067 -1.59581 0
M  V30 18952 O 2121.91 -0.199942 -1.94877 0
M  V30 18953 H 2120.49 -0.731878 -0.149544 0
M  V30 18954 H 2123.15 -1.92142 0.326749 0
M  V30 18955 H 2122.25 -3.0377 -0.716243 0
M  V30 18956 N 2122.55 0.0417572 -1.57545 0
M  V30 18957 C 2123.46 1.06351 -2.09109 0
M  V30 18958 C 2124.48 1.40464 -1.02694 0
M  V30 18959 O 2125.65 1.50038 -1.34352 0
M  V30 18960 C 2122.72 2.34925 -2.54973 0
M  V30 18961 C 2121.78 2.0751 -3.75816 0
M  V30 18962 C 2121.01 3.29954 -4.19483 0
M  V30 18963 O 2121.24 4.40174 -3.62772 0
M  V30 18964 O 2120.17 3.16399 -5.12031 0
M  V30 18965 H 2124 0.655348 -2.96545 0
M  V30 18966 H 2121.58 0.257909 -1.47157 0
M  V30 18967 H 2123.46 3.10537 -2.84859 0
M  V30 18968 H 2122.14 2.75062 -1.70653 0
M  V30 18969 H 2121.04 1.29507 -3.50968 0
M  V30 18970 H 2122.38 1.72237 -4.61081 0
M  V30 18971 N 2124.03 1.54445 0.313786 0
M  V30 18972 C 2125.31 1.63779 1.06939 0
M  V30 18973 C 2125.69 0.477876 2.0562 0
M  V30 18974 O 2125.03 -0.526814 2.22344 0
M  V30 18975 C 2125.24 3.01218 1.76263 0
M  V30 18976 C 2126.59 3.57599 2.28928 0
M  V30 18977 O 2127.62 3.03587 1.86316 0
M  V30 18978 O 2126.48 4.52141 3.06971 0
M  V30 18979 H 2123.57 0.663608 0.493511 0
M  V30 18980 H 2126.12 1.6679 0.312895 0
M  V30 18981 H 2124.89 3.77077 1.04539 0
M  V30 18982 H 2124.51 3.01928 2.58699 0
M  V30 18983 N 2125.51 -0.576345 1.46683 0
M  V30 18984 C 2126.76 -1.33168 1.52022 0
M  V30 18985 C 2127.08 -1.94204 0.17606 0
M  V30 18986 O 2126.35 -1.78907 -0.798069 0
M  V30 18987 H 2124.93 -0.494459 0.559928 0
M  V30 18988 H 2127.59 -0.674503 1.82856 0
M  V30 18989 H 2126.68 -2.13511 2.27638 0
M  V30 18990 N 2126.99 -1.34495 -0.82151 0
M  V30 18991 C 2128.22 -1.29823 -1.60716 0
M  V30 18992 C 2128.62 0.129564 -1.88756 0
M  V30 18993 O 2127.97 1.0875 -1.48051 0
M  V30 18994 C 2128.03 -2.02237 -2.97221 0
M  V30 18995 C 2127.69 -3.51489 -2.92069 0
M  V30 18996 C 2128.69 -4.46369 -2.66554 0
M  V30 18997 C 2126.37 -3.93923 -3.11657 0
M  V30 18998 C 2128.37 -5.81657 -2.6068 0
M  V30 18999 C 2126.06 -5.2931 -3.05408 0
M  V30 19000 C 2127.05 -6.22989 -2.79953 0
M  V30 19001 O 2126.74 -7.55895 -2.73638 0
M  V30 19002 H 2126.47 -0.44801 -0.506225 0
M  V30 19003 H 2129.03 -1.77704 -1.03008 0
M  V30 19004 H 2127.26 -1.48972 -3.56853 0
M  V30 19005 H 2128.95 -1.90836 -3.58241 0
M  V30 19006 H 2129.71 -4.14905 -2.51155 0
M  V30 19007 H 2125.59 -3.21403 -3.30486 0
M  V30 19008 H 2129.14 -6.54747 -2.40732 0
M  V30 19009 H 2125.03 -5.60392 -3.20361 0
M  V30 19010 H 2125.8 -7.65647 -2.89355 0
M  V30 19011 N 2128.46 1.04188 -1.18248 0
M  V30 19012 C 2129.88 1.58822 -0.981458 0
M  V30 19013 C 2130.23 1.90507 0.469187 0
M  V30 19014 O 2129.35 1.6942 1.34632 0
M  V30 19015 C 2129.95 2.88565 -1.77526 0
M  V30 19016 C 2128.51 3.3982 -1.61862 0
M  V30 19017 C 2127.65 2.13421 -1.77051 0
M  V30 19018 H 2130.6 0.868749 -1.3281 0
M  V30 19019 H 2130.62 3.58905 -1.26362 0
M  V30 19020 H 2130.14 2.65472 -2.83101 0
M  V30 19021 H 2128.24 3.67928 -0.588186 0
M  V30 19022 H 2128.35 4.13728 -2.4159 0
M  V30 19023 H 2126.71 2.24667 -1.19986 0
M  V30 19024 H 2127.5 1.92785 -2.84058 0
M  V30 19025 N 2129.94 0.98432 1.23081 0
M  V30 19026 C 2131.19 0.654086 1.91223 0
M  V30 19027 C 2131.51 -0.815416 1.77133 0
M  V30 19028 O 2130.78 -1.58365 1.15315 0
M  V30 19029 H 2129.36 0.238934 0.707757 0
M  V30 19030 H 2132.02 1.24898 1.49621 0
M  V30 19031 H 2131.12 0.909129 2.98565 0
M  V30 19032 N 2131.42 -1.38259 0.756453 0
M  V30 19033 C 2132.67 -1.99657 0.313271 0
M  V30 19034 C 2132.99 -1.60347 -1.10967 0
M  V30 19035 O 2132.26 -0.861667 -1.75932 0
M  V30 19036 H 2130.84 -0.738428 0.112838 0
M  V30 19037 H 2133.5 -1.68979 0.971184 0
M  V30 19038 H 2132.6 -3.09794 0.378689 0
M  V30 19039 N 2132.9 -0.505757 -1.49264 0
M  V30 19040 C 2134.31 -0.0591588 -1.86606 0
M  V30 19041 C 2134.66 1.35636 -1.41765 0
M  V30 19042 O 2133.79 2.01164 -0.797622 0
M  V30 19043 C 2134.38 -0.100581 -3.38651 0
M  V30 19044 C 2132.94 0.290698 -3.75276 0
M  V30 19045 C 2132.09 -0.471033 -2.7327 0
M  V30 19046 H 2135.04 -0.718294 -1.41514 0
M  V30 19047 H 2135.06 0.693588 -3.74125 0
M  V30 19048 H 2134.57 -1.13093 -3.71257 0
M  V30 19049 H 2132.67 1.3241 -3.48279 0
M  V30 19050 H 2132.78 -0.0320604 -4.79089 0
M  V30 19051 H 2131.15 0.0797288 -2.54575 0
M  V30 19052 H 2131.93 -1.50155 -3.0872 0
M  V30 19053 N 2134.38 1.55765 -0.239796 0
M  V30 19054 C 2135.62 1.98377 0.386152 0
M  V30 19055 C 2135.95 1.12912 1.58984 0
M  V30 19056 O 2135.22 0.210274 1.94768 0
M  V30 19057 H 2133.8 0.732661 0.145661 0
M  V30 19058 H 2136.46 1.91966 -0.336934 0
M  V30 19059 H 2135.55 3.04146 0.700123 0
M  V30 19060 N 2135.85 -0.0334016 1.57565 0
M  V30 19061 C 2137.27 -0.580549 1.77444 0
M  V30 19062 C 2137.62 -1.7584 0.870324 0
M  V30 19063 O 2136.74 -2.16305 0.0640468 0
M  V30 19064 C 2137.34 -1.05995 3.21793 0
M  V30 19065 C 2135.9 -1.55265 3.42885 0
M  V30 19066 C 2135.04 -0.488796 2.72958 0
M  V30 19067 H 2137.99 0.192826 1.57524 0
M  V30 19068 H 2138.01 -1.92748 3.28068 0
M  V30 19069 H 2137.53 -0.202479 3.87571 0
M  V30 19070 H 2135.63 -2.43211 2.82275 0
M  V30 19071 H 2135.74 -1.60314 4.51482 0
M  V30 19072 H 2134.1 -0.942831 2.36607 0
M  V30 19073 H 2134.89 0.359136 3.41416 0
M  V30 19074 N 2137.33 -1.54609 -0.305591 0
M  V30 19075 C 2138.74 -1.64719 -0.878888 0
M  V30 19076 C 2139.09 -0.552868 -1.88249 0
M  V30 19077 O 2138.22 0.311274 -2.1415 0
M  V30 19078 C 2138.81 -2.98593 -1.60087 0
M  V30 19079 C 2137.37 -3.10839 -2.12264 0
M  V30 19080 C 2136.52 -2.6038 -0.953822 0
M  V30 19081 H 2139.47 -1.58484 -0.0827074 0
M  V30 19082 H 2139.49 -2.89759 -2.46617 0
M  V30 19083 H 2139 -3.78219 -0.870185 0
M  V30 19084 H 2137.11 -2.35924 -2.88394 0
M  V30 19085 H 2137.22 -4.16924 -2.36031 0
M  V30 19086 H 2135.58 -2.16719 -1.33809 0
M  V30 19087 H 2136.37 -3.4248 -0.237166 0
M  V30 19088 N 2138.81 0.568558 -1.46987 0
M  V30 19089 C 2140.06 1.3236 -1.52726 0
M  V30 19090 C 2140.38 1.94107 -0.186356 0
M  V30 19091 O 2139.65 1.79328 0.78857 0
M  V30 19092 H 2138.23 0.491483 -0.562542 0
M  V30 19093 H 2140.89 0.664797 -1.83212 0
M  V30 19094 H 2139.99 2.12301 -2.28768 0
M  V30 19095 N 2140.29 1.34929 0.814366 0
M  V30 19096 C 2141.7 1.24889 1.38779 0
M  V30 19097 C 2142.05 -0.122017 1.9582 0
M  V30 19098 O 2141.18 -1.02269 1.90709 0
M  V30 19099 C 2141.77 2.2613 2.52291 0
M  V30 19100 C 2140.33 2.19855 3.05517 0
M  V30 19101 C 2139.48 2.12265 1.78435 0
M  V30 19102 H 2142.43 1.46171 0.618046 0
M  V30 19103 H 2142.45 1.88326 3.30626 0
M  V30 19104 H 2141.96 3.25896 2.10745 0
M  V30 19105 H 2140.06 1.23474 3.51547 0
M  V30 19106 H 2140.17 3.11482 3.64027 0
M  V30 19107 H 2138.54 1.58119 1.99676 0
M  V30 19108 H 2139.32 3.13878 1.39051 0
M  V30 19109 N 2141.77 -1.0356 1.18799 0
M  V30 19110 C 2143.02 -1.76246 0.980824 0
M  V30 19111 C 2143.33 -1.89365 -0.489935 0
M  V30 19112 O 2144.53 -2.58955 -0.815746 0
M  V30 19113 C 2142.99 -3.16901 1.70592 0
M  V30 19114 C 2142.6 -3.11859 3.21633 0
M  V30 19115 C 2144.34 -3.9393 1.58175 0
M  V30 19116 C 2142.25 -4.47404 3.8676 0
M  V30 19117 H 2141.18 -0.660673 0.363355 0
M  V30 19118 H 2143.83 -1.15949 1.42225 0
M  V30 19119 H 2142.21 -3.77625 1.19228 0
M  V30 19120 H 2143.39 -2.60556 3.80062 0
M  V30 19121 H 2141.7 -2.48328 3.34249 0
M  V30 19122 H 2144.3 -4.94177 2.0419 0
M  V30 19123 H 2144.64 -4.1285 0.534821 0
M  V30 19124 H 2145.17 -3.39792 2.06848 0
M  V30 19125 H 2141.91 -4.33688 4.91523 0
M  V30 19126 H 2141.43 -4.9879 3.3312 0
M  V30 19127 H 2143.11 -5.16306 3.89919 0
M  V30 19128 N 2143.25 -0.990834 -1.22557 0
M  V30 19129 C 2144.49 -0.664218 -1.90873 0
M  V30 19130 C 2144.81 0.80601 -1.77563 0
M  V30 19131 O 2144.08 1.57751 -1.16153 0
M  V30 19132 H 2142.66 -0.242684 -0.70648 0
M  V30 19133 H 2145.33 -1.2569 -1.48957 0
M  V30 19134 H 2144.42 -0.924949 -2.98079 0
M  V30 19135 N 2144.72 1.37856 -0.763775 0
M  V30 19136 C 2146 1.94001 -0.249566 0
M  V30 19137 C 2146.38 1.69818 1.254 0
M  V30 19138 O 2145.73 1.04245 2.03335 0
M  V30 19139 C 2145.94 3.43551 -0.614299 0
M  V30 19140 C 2147.29 4.20625 -0.579627 0
M  V30 19141 O 2148.31 3.51878 -0.553206 0
M  V30 19142 O 2147.17 5.43201 -0.599606 0
M  V30 19143 H 2144.26 0.825148 -0.055317 0
M  V30 19144 H 2146.81 1.4719 -0.844588 0
M  V30 19145 H 2145.58 3.54703 -1.65231 0
M  V30 19146 H 2145.2 3.97599 0.00819535 0
M  V30 19147 N 2146.2 0.513665 1.48994 0
M  V30 19148 C 2147.61 0.0690541 1.86572 0
M  V30 19149 C 2147.96 -1.34882 1.42482 0
M  V30 19150 O 2147.09 -2.00738 0.808279 0
M  V30 19151 C 2147.68 0.118539 3.38593 0
M  V30 19152 C 2146.24 -0.270792 3.75425 0
M  V30 19153 C 2145.39 0.485519 2.73016 0
M  V30 19154 H 2148.34 0.725789 1.41131 0
M  V30 19155 H 2148.36 -0.673737 3.74488 0
M  V30 19156 H 2147.87 1.1506 3.70652 0
M  V30 19157 H 2145.97 -1.30561 3.48976 0
M  V30 19158 H 2146.09 0.0574672 4.79066 0
M  V30 19159 H 2144.45 -0.066227 2.54614 0
M  V30 19160 H 2145.23 1.5179 3.0792 0
M  V30 19161 N 2147.68 -1.55636 0.248053 0
M  V30 19162 C 2148.93 -1.98579 -0.375626 0
M  V30 19163 C 2149.25 -1.13753 -1.58383 0
M  V30 19164 O 2148.52 -0.2206 -1.94654 0
M  V30 19165 H 2147.1 -0.733423 -0.141773 0
M  V30 19166 H 2149.76 -1.91784 0.34711 0
M  V30 19167 H 2148.86 -3.04513 -0.683983 0
M  V30 19168 N 2149.16 0.0250451 -1.5758 0
M  V30 19169 C 2150.57 0.571131 -1.7775 0
M  V30 19170 C 2150.92 1.75376 -0.879637 0
M  V30 19171 O 2150.04 2.16268 -0.0755171 0
M  V30 19172 C 2150.64 1.04287 -3.2235 0
M  V30 19173 C 2149.2 1.53444 -3.43703 0
M  V30 19174 C 2148.35 0.474313 -2.73213 0
M  V30 19175 H 2151.3 -0.201177 -1.5742 0
M  V30 19176 H 2151.32 1.91005 -3.29085 0
M  V30 19177 H 2150.83 0.181922 -3.87673 0
M  V30 19178 H 2148.93 2.41711 -2.83561 0
M  V30 19179 H 2149.04 1.57917 -4.52326 0
M  V30 19180 H 2147.41 0.93027 -2.37103 0
M  V30 19181 H 2148.19 -0.377237 -3.41221 0
M  V30 19182 N 2150.64 1.54769 0.297388 0
M  V30 19183 C 2151.58 1.8597 1.36689 0
M  V30 19184 C 2152.55 0.708928 1.50211 0
M  V30 19185 O 2153.74 0.9579 1.65012 0
M  V30 19186 C 2150.88 2.11576 2.72635 0
M  V30 19187 C 2149.99 3.39191 2.67533 0
M  V30 19188 C 2149.13 3.54621 3.95496 0
M  V30 19189 C 2148.16 4.76015 3.84806 0
M  V30 19190 N 2147.3 4.88232 5.04553 0
M  V30 19191 H 2152.14 2.772 1.09381 0
M  V30 19192 H 2149.68 1.3726 0.528967 0
M  V30 19193 H 2151.64 2.24418 3.517 0
M  V30 19194 H 2150.27 1.23608 2.98196 0
M  V30 19195 H 2149.32 3.3495 1.80312 0
M  V30 19196 H 2150.63 4.28379 2.55525 0
M  V30 19197 H 2149.78 3.67147 4.82999 0
M  V30 19198 H 2148.52 2.63573 4.10342 0
M  V30 19199 H 2147.53 4.63518 2.95687 0
M  V30 19200 H 2148.75 5.68475 3.71502 0
M  V30 19201 H 2146.7 4.00108 5.19855 0
M  V30 19202 H 2146.62 5.71427 4.94982 0
M  V30 19203 H 2147.88 5.05119 5.93696 0
M  V30 19204 N 2152.11 -0.560755 1.47286 0
M  V30 19205 C 2153.36 -1.31548 1.53426 0
M  V30 19206 C 2153.68 -1.94006 0.196648 0
M  V30 19207 O 2152.95 -1.79743 -0.779049 0
M  V30 19208 H 2151.53 -0.488493 0.565141 0
M  V30 19209 H 2154.19 -0.655071 1.83562 0
M  V30 19210 H 2153.29 -2.11085 2.2989 0
M  V30 19211 N 2153.59 -1.35359 -0.807199 0
M  V30 19212 C 2154.84 -1.28598 -1.56425 0
M  V30 19213 C 2155.17 0.139777 -1.93997 0
M  V30 19214 O 2154.42 1.10489 -1.61526 0
M  V30 19215 C 2154.72 -2.13745 -2.8644 0
M  V30 19216 C 2154.39 -3.62545 -2.68089 0
M  V30 19217 C 2153.05 -4.03105 -2.62792 0
M  V30 19218 C 2155.4 -4.56965 -2.50664 0
M  V30 19219 C 2152.73 -5.36253 -2.38013 0
M  V30 19220 C 2155.08 -5.9031 -2.27415 0
M  V30 19221 C 2153.74 -6.30015 -2.20539 0
M  V30 19222 H 2153.01 -0.470572 -0.572401 0
M  V30 19223 H 2155.66 -1.6725 -0.932725 0
M  V30 19224 H 2153.97 -1.67972 -3.53967 0
M  V30 19225 H 2155.66 -2.0585 -3.44132 0
M  V30 19226 H 2152.25 -3.30359 -2.73059 0
M  V30 19227 H 2156.44 -4.26515 -2.53769 0
M  V30 19228 H 2151.69 -5.66017 -2.31159 0
M  V30 19229 H 2155.87 -6.63051 -2.12922 0
M  V30 19230 H 2153.49 -7.33118 -2.01101 0
M  V30 19231 N 2155.07 1.02928 -1.19346 0
M  V30 19232 C 2156.32 1.75973 -0.993881 0
M  V30 19233 C 2156.64 1.89088 0.476523 0
M  V30 19234 O 2155.91 1.42417 1.34515 0
M  V30 19235 H 2154.49 0.651893 -0.364753 0
M  V30 19236 H 2157.15 1.24161 -1.50233 0
M  V30 19237 H 2156.25 2.76812 -1.44157 0
M  V30 19238 N 2156.55 0.997319 1.2203 0
M  V30 19239 C 2157.96 0.710132 1.72667 0
M  V30 19240 C 2158.31 -0.77273 1.80342 0
M  V30 19241 O 2157.43 -1.6039 1.45273 0
M  V30 19242 C 2158.03 1.28239 3.13592 0
M  V30 19243 C 2156.59 1.04449 3.61618 0
M  V30 19244 C 2155.74 1.3999 2.3937 0
M  V30 19245 H 2158.69 1.16915 1.07315 0
M  V30 19246 H 2158.71 0.663177 3.74676 0
M  V30 19247 H 2158.22 2.36164 3.07974 0
M  V30 19248 H 2156.32 -0.0179379 3.72596 0
M  V30 19249 H 2156.43 1.71098 4.47507 0
M  V30 19250 H 2154.8 0.818553 2.41188 0
M  V30 19251 H 2155.58 2.48928 2.3641 0
M  V30 19252 N 2158.03 -1.37449 0.771075 0
M  V30 19253 C 2159.27 -1.99314 0.33443 0
M  V30 19254 C 2159.6 -1.61515 -1.0926 0
M  V30 19255 O 2158.87 -0.880278 -1.75008 0
M  V30 19256 H 2157.45 -0.73719 0.120664 0
M  V30 19257 H 2160.11 -1.6794 0.989052 0
M  V30 19258 H 2159.2 -3.09375 0.411526 0
M  V30 19259 N 2159.5 -0.52156 -1.4872 0
M  V30 19260 C 2160.73 0.0117795 -2.06597 0
M  V30 19261 C 2161.14 1.29478 -1.37957 0
M  V30 19262 O 2160.49 1.77894 -0.458208 0
M  V30 19263 C 2160.55 0.314883 -3.58118 0
M  V30 19264 C 2160.21 -0.873397 -4.48576 0
M  V30 19265 C 2161.21 -1.76953 -4.8886 0
M  V30 19266 C 2158.89 -1.07801 -4.90596 0
M  V30 19267 C 2160.89 -2.85425 -5.69922 0
M  V30 19268 C 2158.57 -2.16589 -5.7143 0
M  V30 19269 C 2159.57 -3.05234 -6.11 0
M  V30 19270 O 2159.26 -4.1214 -6.90214 0
M  V30 19271 H 2158.99 -0.0265589 -0.675478 0
M  V30 19272 H 2161.55 -0.724145 -1.92212 0
M  V30 19273 H 2159.78 1.10467 -3.70586 0
M  V30 19274 H 2161.47 0.789292 -3.98152 0
M  V30 19275 H 2162.23 -1.62335 -4.57026 0
M  V30 19276 H 2158.11 -0.397342 -4.59284 0
M  V30 19277 H 2161.65 -3.54643 -6.00728 0
M  V30 19278 H 2157.55 -2.31193 -6.02677 0
M  V30 19279 H 2158.32 -4.09746 -7.08555 0
M  V30 19280 N 2160.98 1.55502 -0.256304 0
M  V30 19281 C 2161.91 2.24749 0.633265 0
M  V30 19282 C 2162.89 1.23102 1.17388 0
M  V30 19283 O 2164.08 1.51778 1.2115 0
M  V30 19284 C 2161.21 2.95418 1.82607 0
M  V30 19285 C 2160.16 4.03834 1.41782 0
M  V30 19286 C 2159.49 4.61978 2.69222 0
M  V30 19287 C 2160.79 5.19048 0.581913 0
M  V30 19288 H 2162.48 2.99348 0.0558207 0
M  V30 19289 H 2160.03 1.43978 0.0254079 0
M  V30 19290 H 2161.98 3.42565 2.45412 0
M  V30 19291 H 2160.71 2.18323 2.42905 0
M  V30 19292 H 2159.36 3.5747 0.813066 0
M  V30 19293 H 2159.01 3.81572 3.27737 0
M  V30 19294 H 2158.71 5.3517 2.42625 0
M  V30 19295 H 2160.24 5.11864 3.32908 0
M  V30 19296 H 2161.65 5.62363 1.11449 0
M  V30 19297 H 2160.05 5.98687 0.411617 0
M  V30 19298 H 2161.12 4.83216 -0.403719 0
M  V30 19299 N 2162.46 -0.0166879 1.57591 0
M  V30 19300 C 2163.71 -0.703596 1.89457 0
M  V30 19301 C 2164.03 -1.75229 0.855563 0
M  V30 19302 O 2163.3 -1.95595 -0.109241 0
M  V30 19303 H 2161.88 -0.262861 0.699223 0
M  V30 19304 H 2164.54 0.0202908 1.94889 0
M  V30 19305 H 2163.64 -1.18538 2.88713 0
M  V30 19306 N 2163.94 -1.54924 -0.289176 0
M  V30 19307 C 2165.19 -1.74421 -1.02087 0
M  V30 19308 C 2165.51 -0.539388 -1.87392 0
M  V30 19309 O 2164.78 0.446105 -1.90753 0
M  V30 19310 H 2163.36 -0.643179 -0.379908 0
M  V30 19311 H 2166.02 -1.923 -0.317306 0
M  V30 19312 H 2165.12 -2.63841 -1.66716 0
M  V30 19313 N 2165.42 0.552936 -1.47582 0
M  V30 19314 C 2166.66 1.30992 -1.54426 0
M  V30 19315 C 2166.99 1.93381 -0.208337 0
M  V30 19316 O 2166.25 1.78637 0.799202 0
M  V30 19317 C 2166.55 2.43742 -2.6139 0
M  V30 19318 C 2166.21 1.99156 -4.04534 0
M  V30 19319 C 2164.87 1.86713 -4.435 0
M  V30 19320 C 2167.23 1.65177 -4.94334 0
M  V30 19321 C 2164.55 1.38592 -5.70096 0
M  V30 19322 C 2166.91 1.18525 -6.21397 0
M  V30 19323 C 2165.57 1.04682 -6.5924 0
M  V30 19324 H 2164.84 0.479333 -0.565085 0
M  V30 19325 H 2167.49 0.619594 -1.812 0
M  V30 19326 H 2165.79 3.18349 -2.28389 0
M  V30 19327 H 2167.49 3.01918 -2.63906 0
M  V30 19328 H 2164.08 2.09785 -3.73749 0
M  V30 19329 H 2168.26 1.73661 -4.64925 0
M  V30 19330 H 2163.52 1.26541 -5.98162 0
M  V30 19331 H 2167.69 0.912965 -6.9039 0
M  V30 19332 H 2165.32 0.67172 -7.57226 0
M  V30 19333 N 2166.89 1.35785 0.800009 0
M  V30 19334 C 2167.82 1.31917 1.92666 0
M  V30 19335 C 2168.81 0.19244 1.69008 0
M  V30 19336 O 2169.99 0.388435 1.90276 0
M  V30 19337 C 2167.12 1.09703 3.29519 0
M  V30 19338 C 2166.07 2.19086 3.67675 0
M  V30 19339 C 2165.4 1.82029 5.02762 0
M  V30 19340 C 2166.7 3.611 3.77365 0
M  V30 19341 H 2168.39 2.26189 1.96161 0
M  V30 19342 H 2165.94 1.08882 0.94237 0
M  V30 19343 H 2167.89 1.05634 4.07945 0
M  V30 19344 H 2166.62 0.118779 3.26384 0
M  V30 19345 H 2165.28 2.22263 2.91539 0
M  V30 19346 H 2164.92 0.828056 4.96137 0
M  V30 19347 H 2164.62 2.55256 5.29262 0
M  V30 19348 H 2166.15 1.79497 5.83621 0
M  V30 19349 H 2167.56 3.60209 4.46007 0
M  V30 19350 H 2165.96 4.33143 4.1534 0
M  V30 19351 H 2167.03 3.96774 2.78744 0
M  V30 19352 N 2168.37 -1.02294 1.19891 0
M  V30 19353 C 2169.3 -2.12589 0.965816 0
M  V30 19354 C 2170.28 -1.69788 -0.102962 0
M  V30 19355 O 2171.47 -1.94127 0.0532676 0
M  V30 19356 C 2168.6 -3.43532 0.510181 0
M  V30 19357 C 2167.55 -4.00044 1.52147 0
M  V30 19358 C 2166.88 -5.26679 0.922703 0
M  V30 19359 C 2168.18 -4.34165 2.90341 0
M  V30 19360 H 2169.87 -2.32347 1.88826 0
M  V30 19361 H 2167.42 -1.11659 0.9093 0
M  V30 19362 H 2169.37 -4.20071 0.334377 0
M  V30 19363 H 2168.1 -3.23514 -0.447879 0
M  V30 19364 H 2166.75 -3.25606 1.68453 0
M  V30 19365 H 2166.4 -5.02982 -0.0430931 0
M  V30 19366 H 2166.1 -5.65452 1.59806 0
M  V30 19367 H 2167.63 -6.05879 0.757827 0
M  V30 19368 H 2169.04 -5.01617 2.77584 0
M  V30 19369 H 2167.44 -4.84036 3.54724 0
M  V30 19370 H 2168.51 -3.43207 3.42545 0
M  V30 19371 N 2169.85 -1.00378 -1.21499 0
M  V30 19372 C 2171.1 -0.686796 -1.90817 0
M  V30 19373 C 2171.43 0.780348 -1.77832 0
M  V30 19374 O 2170.7 1.56554 -1.15418 0
M  V30 19375 C 2170.99 -1.10705 -3.42661 0
M  V30 19376 C 2170.84 -2.63355 -3.64642 0
M  V30 19377 C 2172.16 -0.668506 -4.34993 0
M  V30 19378 H 2169.28 -0.250976 -0.69295 0
M  V30 19379 H 2171.92 -1.24924 -1.43157 0
M  V30 19380 H 2170.07 -0.628496 -3.83383 0
M  V30 19381 H 2171.74 -3.18964 -3.33256 0
M  V30 19382 H 2169.99 -3.04925 -3.0855 0
M  V30 19383 H 2170.66 -2.87812 -4.71029 0
M  V30 19384 H 2173.13 -1.07972 -4.01847 0
M  V30 19385 H 2172.01 -0.990733 -5.39885 0
M  V30 19386 H 2172.27 0.430413 -4.4 0
M  V30 19387 N 2171.33 1.37038 -0.778354 0
M  V30 19388 C 2172.26 2.3278 -0.183215 0
M  V30 19389 C 2173.24 1.56107 0.675623 0
M  V30 19390 O 2174.42 1.84314 0.611726 0
M  V30 19391 C 2171.55 3.40346 0.691526 0
M  V30 19392 C 2170.51 4.27948 -0.0665313 0
M  V30 19393 C 2169.83 5.26584 0.928085 0
M  V30 19394 C 2171.13 5.07137 -1.24936 0
M  V30 19395 H 2172.83 2.82801 -0.983049 0
M  V30 19396 H 2170.37 1.35969 -0.474169 0
M  V30 19397 H 2172.33 4.06306 1.11773 0
M  V30 19398 H 2171.05 2.88866 1.52395 0
M  V30 19399 H 2169.71 3.63528 -0.473586 0
M  V30 19400 H 2169.36 4.71381 1.75524 0
M  V30 19401 H 2169.06 5.86058 0.425371 0
M  V30 19402 H 2170.58 5.95419 1.35309 0
M  V30 19403 H 2172 5.662 -0.899476 0
M  V30 19404 H 2170.39 5.7597 -1.68461 0
M  V30 19405 H 2171.46 4.39425 -2.05021 0
M  V30 19406 N 2172.81 0.529439 1.48441 0
M  V30 19407 C 2173.76 -0.253463 2.26587 0
M  V30 19408 C 2174.74 -0.910366 1.32669 0
M  V30 19409 O 2175.93 -0.813262 1.5721 0
M  V30 19410 C 2173.06 -1.3001 3.1773 0
M  V30 19411 C 2172.15 -0.648014 4.1912 0
M  V30 19412 N 2172.54 0.265936 5.051 0
M  V30 19413 C 2170.84 -0.905282 4.36716 0
M  V30 19414 C 2171.54 0.642059 5.78146 0
M  V30 19415 N 2170.51 0.0032706 5.436 0
M  V30 19416 H 2174.32 0.449662 2.9044 0
M  V30 19417 H 2171.83 0.347431 1.5864 0
M  V30 19418 H 2173.83 -1.87468 3.72372 0
M  V30 19419 H 2172.49 -2.00461 2.55432 0
M  V30 19420 H 2173.5 0.638504 5.13949 0
M  V30 19421 H 2170.18 -1.6004 3.85608 0
M  V30 19422 H 2171.57 1.39145 6.57334 0
M  V30 19423 N 2174.29 -1.55364 0.264547 0
M  V30 19424 C 2175.51 -2.0422 -0.361799 0
M  V30 19425 C 2175.94 -1.14203 -1.49464 0
M  V30 19426 O 2175.29 -0.138477 -1.8077 0
M  V30 19427 C 2175.34 -3.50911 -0.830308 0
M  V30 19428 O 2174.45 -3.64002 -1.93847 0
M  V30 19429 H 2173.79 -0.659588 -0.0764174 0
M  V30 19430 H 2176.32 -2.00736 0.39576 0
M  V30 19431 H 2176.33 -3.92072 -1.12887 0
M  V30 19432 H 2175 -4.159 -0.00142245 0
M  V30 19433 H 2173.58 -3.34741 -1.64325 0
M  V30 19434 N 2175.76 0.00833021 -1.57598 0
M  V30 19435 C 2176.7 1.03042 -2.04732 0
M  V30 19436 C 2177.71 1.31209 -0.96374 0
M  V30 19437 O 2178.9 1.28332 -1.24069 0
M  V30 19438 C 2176 2.36718 -2.42523 0
M  V30 19439 C 2175.17 2.2761 -3.73513 0
M  V30 19440 C 2174.23 3.43906 -3.98265 0
M  V30 19441 O 2173.26 3.22467 -4.69045 0
M  V30 19442 N 2174.46 4.66478 -3.45512 0
M  V30 19443 H 2177.22 0.628522 -2.93035 0
M  V30 19444 H 2174.78 0.19588 -1.60711 0
M  V30 19445 H 2176.78 3.13277 -2.56203 0
M  V30 19446 H 2175.35 2.68679 -1.59782 0
M  V30 19447 H 2174.57 1.36016 -3.69991 0
M  V30 19448 H 2175.85 2.18689 -4.59405 0
M  V30 19449 H 2175.25 4.86795 -2.88179 0
M  V30 19450 H 2173.81 5.40331 -3.64535 0
M  V30 19451 N 2177.24 1.55075 0.280956 0
M  V30 19452 C 2178.47 1.79322 1.03205 0
M  V30 19453 C 2178.88 0.56257 1.80224 0
M  V30 19454 O 2178.24 -0.468172 1.76393 0
M  V30 19455 C 2178.29 3.01341 1.99689 0
M  V30 19456 O 2178.01 4.19652 1.25792 0
M  V30 19457 C 2179.51 3.38131 2.86675 0
M  V30 19458 H 2176.73 0.597563 0.30522 0
M  V30 19459 H 2179.28 2.02073 0.31415 0
M  V30 19460 H 2177.43 2.8074 2.66953 0
M  V30 19461 H 2177.85 4.88582 1.90757 0
M  V30 19462 H 2179.32 4.267 3.50188 0
M  V30 19463 H 2179.8 2.57177 3.56029 0
M  V30 19464 H 2180.4 3.60962 2.24914 0
M  V30 19465 N 2178.72 -0.545102 1.47873 0
M  V30 19466 C 2180 -1.30611 1.45603 0
M  V30 19467 C 2180.38 -2.10497 0.159489 0
M  V30 19468 O 2179.72 -2.11741 -0.85895 0
M  V30 19469 C 2179.93 -2.20038 2.70895 0
M  V30 19470 C 2181.28 -2.80668 3.18608 0
M  V30 19471 O 2182.31 -2.30334 2.71707 0
M  V30 19472 O 2181.17 -3.72185 4.00176 0
M  V30 19473 H 2178.26 -0.588726 0.580802 0
M  V30 19474 H 2180.81 -0.563004 1.60089 0
M  V30 19475 H 2179.58 -1.6069 3.56784 0
M  V30 19476 H 2179.2 -3.01622 2.59056 0
M  V30 19477 N 2180.2 -1.36208 -0.792797 0
M  V30 19478 C 2181.13 -1.2612 -1.9138 0
M  V30 19479 C 2182.14 -0.181437 -1.61786 0
M  V30 19480 O 2183.33 -0.435871 -1.73097 0
M  V30 19481 C 2180.43 -0.922489 -3.26103 0
M  V30 19482 C 2179.6 -2.10345 -3.83502 0
M  V30 19483 C 2178.66 -1.73833 -4.96657 0
M  V30 19484 O 2177.69 -2.45879 -5.13354 0
M  V30 19485 N 2178.89 -0.670023 -5.7662 0
M  V30 19486 H 2181.66 -2.22705 -2.00556 0
M  V30 19487 H 2179.22 -1.29557 -0.970902 0
M  V30 19488 H 2181.21 -0.659458 -3.99291 0
M  V30 19489 H 2179.78 -0.0458868 -3.12566 0
M  V30 19490 H 2179 -2.52948 -3.02342 0
M  V30 19491 H 2180.29 -2.89252 -4.18582 0
M  V30 19492 H 2179.69 -0.0717267 -5.65655 0
M  V30 19493 H 2178.24 -0.466808 -6.50126 0
M  V30 19494 N 2181.68 1.01656 -1.20431 0
M  V30 19495 C 2182.59 2.13658 -0.968877 0
M  V30 19496 C 2183.6 1.73837 0.075256 0
M  V30 19497 O 2184.78 2.01087 -0.112194 0
M  V30 19498 C 2181.84 3.42716 -0.524052 0
M  V30 19499 C 2180.9 3.9678 -1.63904 0
M  V30 19500 C 2180.14 5.19678 -1.21534 0
M  V30 19501 O 2180.36 5.70338 -0.0840508 0
M  V30 19502 O 2179.29 5.66893 -2.02278 0
M  V30 19503 H 2183.12 2.3639 -1.90666 0
M  V30 19504 H 2180.7 1.1205 -0.98819 0
M  V30 19505 H 2182.59 4.20434 -0.285221 0
M  V30 19506 H 2181.26 3.21401 0.385143 0
M  V30 19507 H 2180.17 3.20341 -1.93215 0
M  V30 19508 H 2181.5 4.22484 -2.52524 0
M  V30 19509 N 2183.15 1.01021 1.20965 0
M  V30 19510 C 2184.56 0.728406 1.71904 0
M  V30 19511 C 2184.92 -0.753559 1.81152 0
M  V30 19512 O 2184.04 -1.5884 1.46966 0
M  V30 19513 C 2184.64 1.31558 3.12215 0
M  V30 19514 C 2183.19 1.08279 3.6049 0
M  V30 19515 C 2182.34 1.42521 2.37872 0
M  V30 19516 H 2185.29 1.18047 1.06069 0
M  V30 19517 H 2185.31 0.702879 3.73952 0
M  V30 19518 H 2184.83 2.39417 3.05452 0
M  V30 19519 H 2182.93 0.0215819 3.72594 0
M  V30 19520 H 2183.04 1.75834 4.45667 0
M  V30 19521 H 2181.4 0.844088 2.40307 0
M  V30 19522 H 2182.19 2.51422 2.33756 0
M  V30 19523 N 2184.63 -1.36623 0.78561 0
M  V30 19524 C 2185.86 -2.036 0.368068 0
M  V30 19525 C 2186.27 -1.5924 -1.01429 0
M  V30 19526 O 2185.63 -0.780055 -1.64989 0
M  V30 19527 C 2185.68 -3.59077 0.417857 0
M  V30 19528 O 2185.4 -4.01817 1.7457 0
M  V30 19529 C 2186.9 -4.43299 -0.00953716 0
M  V30 19530 H 2184.12 -0.653506 0.152221 0
M  V30 19531 H 2186.67 -1.74677 1.0634 0
M  V30 19532 H 2184.82 -3.86722 -0.229019 0
M  V30 19533 H 2185.24 -4.96395 1.69389 0
M  V30 19534 H 2186.71 -5.51947 0.0764418 0
M  V30 19535 H 2187.19 -4.26175 -1.06169 0
M  V30 19536 H 2187.79 -4.20907 0.60968 0
M  V30 19537 N 2186.11 -0.537304 -1.48158 0
M  V30 19538 C 2187.35 -0.00798164 -2.04398 0
M  V30 19539 C 2187.71 1.30888 -1.40472 0
M  V30 19540 O 2188.91 1.92468 -1.87642 0
M  V30 19541 C 2187.19 0.103971 -3.57249 0
M  V30 19542 S 2188.74 0.582298 -4.34919 0
M  V30 19543 H 2185.56 -0.0155732 -0.710829 0
M  V30 19544 H 2188.16 -0.719527 -1.81778 0
M  V30 19545 H 2186.87 -0.859151 -4.01306 0
M  V30 19546 H 2186.4 0.839674 -3.84335 0
M  V30 19547 H 2188.41 1.84555 -4.60602 0
M  V30 19548 N 2187.59 1.55221 -0.272782 0
M  V30 19549 C 2189 1.85334 0.225428 0
M  V30 19550 C 2189.35 1.19479 1.55625 0
M  V30 19551 O 2188.48 0.482291 2.10957 0
M  V30 19552 C 2189.07 3.36239 0.415804 0
M  V30 19553 C 2187.63 3.66485 0.858249 0
M  V30 19554 C 2186.78 2.77255 -0.0498039 0
M  V30 19555 H 2189.73 1.50795 -0.494637 0
M  V30 19556 H 2189.75 3.59218 1.2547 0
M  V30 19557 H 2189.26 3.84141 -0.552945 0
M  V30 19558 H 2187.36 3.2408 1.83855 0
M  V30 19559 H 2187.47 4.74 0.697187 0
M  V30 19560 H 2185.84 2.50399 0.466105 0
M  V30 19561 H 2186.62 3.27971 -1.01439 0
M  V30 19562 N 2189.07 2.77022e-05 1.576 0
M  V30 19563 C 2190 -0.990304 2.1146 0
M  V30 19564 C 2190.98 -1.35844 1.02374 0
M  V30 19565 O 2192.16 -1.44218 1.30057 0
M  V30 19566 C 2189.29 -2.28215 2.61792 0
M  V30 19567 C 2188.25 -2.05563 3.75404 0
M  V30 19568 C 2187.57 -3.40761 4.12051 0
M  V30 19569 C 2188.87 -1.4182 5.02677 0
M  V30 19570 H 2190.57 -0.541853 2.94456 0
M  V30 19571 H 2188.11 -0.259194 1.41648 0
M  V30 19572 H 2190.07 -2.97851 2.98099 0
M  V30 19573 H 2188.79 -2.75174 1.75918 0
M  V30 19574 H 2187.45 -1.38353 3.39491 0
M  V30 19575 H 2187.1 -3.85423 3.232 0
M  V30 19576 H 2186.8 -3.26421 4.88593 0
M  V30 19577 H 2188.32 -4.11712 4.50916 0
M  V30 19578 H 2189.73 -2.01413 5.36755 0
M  V30 19579 H 2188.13 -1.37967 5.84025 0
M  V30 19580 H 2189.2 -0.387421 4.8335 0
M  V30 19581 N 2190.54 -1.55222 -0.272728 0
M  V30 19582 C 2191.79 -1.75494 -1.00231 0
M  V30 19583 C 2192.11 -0.559233 -1.86809 0
M  V30 19584 O 2191.38 0.425848 -1.91215 0
M  V30 19585 H 2189.96 -0.647172 -0.373065 0
M  V30 19586 H 2192.63 -1.92625 -0.296893 0
M  V30 19587 H 2191.72 -2.65594 -1.63909 0
M  V30 19588 N 2192.02 0.537252 -1.4816 0
M  V30 19589 C 2192.96 1.6589 -1.56703 0
M  V30 19590 C 2193.93 1.57138 -0.417898 0
M  V30 19591 O 2195.12 1.77714 -0.628493 0
M  V30 19592 C 2192.24 3.04252 -1.48824 0
M  V30 19593 C 2191.29 3.31386 -2.68487 0
M  V30 19594 S 2192.12 3.18452 -4.30521 0
M  V30 19595 C 2193.28 4.59273 -4.25228 0
M  V30 19596 H 2193.51 1.58392 -2.51593 0
M  V30 19597 H 2191.05 0.719648 -1.36603 0
M  V30 19598 H 2193 3.84051 -1.44964 0
M  V30 19599 H 2191.66 3.09197 -0.552832 0
M  V30 19600 H 2190.86 4.32304 -2.59093 0
M  V30 19601 H 2190.46 2.59243 -2.69572 0
M  V30 19602 H 2192.75 5.50643 -3.94713 0
M  V30 19603 H 2193.69 4.73723 -5.26301 0
M  V30 19604 H 2194.1 4.38255 -3.55799 0
M  V30 19605 N 2193.5 1.36626 0.785562 0
M  V30 19606 C 2194.91 1.27805 1.36098 0
M  V30 19607 C 2195.26 -0.080453 1.96035 0
M  V30 19608 O 2194.39 -0.982008 1.92836 0
M  V30 19609 C 2194.98 2.3143 2.47438 0
M  V30 19610 C 2193.54 2.26286 3.00785 0
M  V30 19611 C 2192.69 2.16002 1.73892 0
M  V30 19612 H 2195.64 1.47449 0.586902 0
M  V30 19613 H 2195.66 1.95297 3.26557 0
M  V30 19614 H 2195.17 3.30293 2.03785 0
M  V30 19615 H 2193.27 1.30903 3.48848 0
M  V30 19616 H 2193.39 3.19134 3.57338 0
M  V30 19617 H 2191.75 1.62319 1.96277 0
M  V30 19618 H 2192.53 3.16757 1.32362 0
M  V30 19619 N 2194.98 -1.01016 1.20969 0
M  V30 19620 C 2196.39 -1.27051 0.965927 0
M  V30 19621 C 2196.59 -1.98424 -0.35075 0
M  V30 19622 O 2195.65 -2.28346 -1.07769 0
M  V30 19623 C 2196.96 -2.09922 2.15298 0
M  V30 19624 C 2198.51 -2.23167 2.19467 0
M  V30 19625 C 2198.99 -3.09418 3.37675 0
M  V30 19626 N 2200.48 -3.17006 3.3773 0
M  V30 19627 C 2201.21 -3.83986 4.25843 0
M  V30 19628 N 2200.71 -4.53037 5.24146 0
M  V30 19629 N 2202.5 -3.80574 4.13666 0
M  V30 19630 H 2194.65 -0.531158 2.05651 0
M  V30 19631 H 2196.92 -0.29709 0.900245 0
M  V30 19632 H 2196.62 -1.64823 3.10687 0
M  V30 19633 H 2196.5 -3.10668 2.13928 0
M  V30 19634 H 2198.88 -2.67488 1.24636 0
M  V30 19635 H 2198.96 -1.21908 2.24882 0
M  V30 19636 H 2198.61 -2.65801 4.32796 0
M  V30 19637 H 2198.54 -4.10778 3.29498 0
M  V30 19638 H 2201.03 -2.67845 2.66585 0
M  V30 19639 H 2201.34 -5.01834 5.87693 0
M  V30 19640 H 2199.69 -4.51841 5.28076 0
M  V30 19641 H 2202.88 -3.25779 3.36133 0
M  V30 19642 H 2203.05 -4.32497 4.82546 0
M  V30 19643 N 2196.46 -1.01661 -1.20428 0
M  V30 19644 C 2197.39 -0.607265 -2.25465 0
M  V30 19645 C 2198.37 0.377687 -1.65854 0
M  V30 19646 O 2199.55 0.263115 -1.92409 0
M  V30 19647 C 2196.68 0.0552339 -3.47256 0
M  V30 19648 C 2195.64 -0.850705 -4.1946 0
M  V30 19649 C 2194.96 -0.0539799 -5.34673 0
M  V30 19650 C 2196.26 -2.15876 -4.75599 0
M  V30 19651 H 2197.96 -1.48531 -2.5996 0
M  V30 19652 H 2195.5 -0.715627 -1.24959 0
M  V30 19653 H 2197.46 0.353159 -4.19918 0
M  V30 19654 H 2196.18 0.967991 -3.11925 0
M  V30 19655 H 2194.84 -1.13263 -3.48665 0
M  V30 19656 H 2194.49 0.860427 -4.95586 0
M  V30 19657 H 2194.19 -0.657295 -5.83912 0
M  V30 19658 H 2195.71 0.237491 -6.10138 0
M  V30 19659 H 2197.12 -1.9232 -5.40079 0
M  V30 19660 H 2195.52 -2.71293 -5.35276 0
M  V30 19661 H 2196.59 -2.82176 -3.94341 0
M  V30 19662 N 2197.93 1.36205 -0.792844 0
M  V30 19663 C 2199.18 1.99886 -0.37645 0
M  V30 19664 C 2199.54 1.6179 1.04124 0
M  V30 19665 O 2198.83 0.864223 1.71002 0
M  V30 19666 C 2199.02 3.54141 -0.481564 0
M  V30 19667 C 2198.85 4.0722 -1.90793 0
M  V30 19668 C 2197.62 4.3721 -2.53329 0
M  V30 19669 C 2199.82 4.26736 -2.87055 0
M  V30 19670 N 2197.8 4.76133 -3.87519 0
M  V30 19671 C 2199.17 4.68502 -4.06086 0
M  V30 19672 C 2201.23 4.08913 -2.84067 0
M  V30 19673 C 2199.93 4.94312 -5.2254 0
M  V30 19674 C 2201.96 4.35871 -3.99713 0
M  V30 19675 C 2201.32 4.77897 -5.17488 0
M  V30 19676 H 2197.42 0.759744 -0.185239 0
M  V30 19677 H 2200 1.65151 -1.03117 0
M  V30 19678 H 2198.17 3.88136 0.143086 0
M  V30 19679 H 2199.9 4.04679 -0.0410839 0
M  V30 19680 H 2196.66 4.27037 -2.04784 0
M  V30 19681 H 2197.08 4.99874 -4.56569 0
M  V30 19682 H 2201.73 3.75576 -1.94171 0
M  V30 19683 H 2199.44 5.26529 -6.13019 0
M  V30 19684 H 2203.03 4.23648 -3.98765 0
M  V30 19685 H 2201.91 4.98352 -6.05487 0
M  V30 19686 N 2199.41 0.545154 1.47871 0
M  V30 19687 C 2200.64 0.0211204 2.06889 0
M  V30 19688 C 2201.06 -1.26718 1.39957 0
M  V30 19689 O 2200.41 -1.75741 0.492067 0
M  V30 19690 C 2200.46 -0.190754 3.60996 0
M  V30 19691 O 2200.18 1.04652 4.25417 0
M  V30 19692 C 2201.69 -0.753445 4.3685 0
M  V30 19693 H 2198.91 0.0403753 0.669784 0
M  V30 19694 H 2201.45 0.755128 1.90048 0
M  V30 19695 H 2199.6 -0.874854 3.77392 0
M  V30 19696 H 2200.02 0.836702 5.17783 0
M  V30 19697 H 2201.49 -0.851043 5.454 0
M  V30 19698 H 2201.97 -1.76193 4.02309 0
M  V30 19699 H 2202.58 -0.105429 4.25169 0
M  V30 19700 N 2200.89 -1.55074 0.28101 0
M  V30 19701 C 2202.14 -1.99331 -0.33342 0
M  V30 19702 C 2202.46 -1.17087 -1.55934 0
M  V30 19703 O 2201.73 -0.261839 -1.94142 0
M  V30 19704 H 2200.31 -0.736265 -0.126184 0
M  V30 19705 H 2202.97 -1.91005 0.387712 0
M  V30 19706 H 2202.07 -3.05895 -0.619238 0
M  V30 19707 N 2202.37 -0.00838561 -1.57598 0
M  V30 19708 C 2203.6 0.684462 -1.94932 0
M  V30 19709 C 2204.01 1.6737 -0.882262 0
M  V30 19710 O 2203.35 1.83114 0.146589 0
M  V30 19711 C 2203.41 1.46485 -3.28302 0
M  V30 19712 C 2203.08 0.63626 -4.52549 0
M  V30 19713 C 2204.07 -0.07965 -5.19839 0
M  V30 19714 C 2201.76 0.579761 -4.98943 0
M  V30 19715 C 2203.75 -0.840954 -6.31828 0
M  V30 19716 C 2201.44 -0.185262 -6.10819 0
M  V30 19717 C 2202.44 -0.894346 -6.77119 0
M  V30 19718 O 2202.13 -1.64687 -7.8685 0
M  V30 19719 H 2201.86 0.195038 -0.647253 0
M  V30 19720 H 2204.41 -0.0581632 -2.05318 0
M  V30 19721 H 2202.64 2.25214 -3.14349 0
M  V30 19722 H 2204.33 2.04383 -3.50689 0
M  V30 19723 H 2205.1 -0.0452054 -4.84979 0
M  V30 19724 H 2200.98 1.12122 -4.47157 0
M  V30 19725 H 2204.52 -1.39495 -6.83511 0
M  V30 19726 H 2200.42 -0.221498 -6.4512 0
M  V30 19727 H 2201.18 -1.56446 -8.0341 0
M  V30 19728 N 2203.85 1.55365 0.264492 0
M  V30 19729 C 2205.07 1.80741 1.01722 0
M  V30 19730 C 2205.5 0.583075 1.78835 0
M  V30 19731 O 2204.86 -0.467535 1.75168 0
M  V30 19732 C 2204.9 3.03663 1.94477 0
M  V30 19733 O 2204.01 2.79345 3.03381 0
M  V30 19734 H 2203.35 0.597137 0.290384 0
M  V30 19735 H 2205.88 2.02523 0.290818 0
M  V30 19736 H 2205.89 3.32625 2.36272 0
M  V30 19737 H 2204.56 3.9242 1.37765 0
M  V30 19738 H 2203.14 2.61503 2.6584 0
M  V30 19739 N 2205.33 -0.529387 1.48443 0
M  V30 19740 C 2206.26 -1.6431 1.65905 0
M  V30 19741 C 2207.24 -1.6234 0.507926 0
M  V30 19742 O 2208.42 -1.79526 0.740534 0
M  V30 19743 C 2205.55 -3.02895 1.69917 0
M  V30 19744 C 2204.51 -3.19724 2.84536 0
M  V30 19745 C 2203.83 -4.59377 2.73637 0
M  V30 19746 C 2205.13 -3.02439 4.25826 0
M  V30 19747 H 2206.83 -1.49951 2.59143 0
M  V30 19748 H 2204.37 -0.71996 1.2471 0
M  V30 19749 H 2206.32 -3.80681 1.80721 0
M  V30 19750 H 2205.05 -3.18278 0.73258 0
M  V30 19751 H 2203.71 -2.44356 2.73287 0
M  V30 19752 H 2203.36 -4.71596 1.74946 0
M  V30 19753 H 2203.06 -4.71582 3.50549 0
M  V30 19754 H 2204.58 -5.3926 2.8641 0
M  V30 19755 H 2205.99 -3.70016 4.37905 0
M  V30 19756 H 2204.39 -3.26137 5.03741 0
M  V30 19757 H 2205.46 -1.98859 4.42248 0
M  V30 19758 N 2206.8 -1.37041 -0.778305 0
M  V30 19759 C 2207.73 -1.34965 -1.90543 0
M  V30 19760 C 2208.71 -0.219304 -1.6868 0
M  V30 19761 O 2209.9 -0.418657 -1.89634 0
M  V30 19762 C 2207.03 -1.14931 -3.27732 0
M  V30 19763 C 2205.98 -2.24908 -3.64143 0
M  V30 19764 C 2205.31 -1.90004 -4.99802 0
M  V30 19765 C 2206.61 -3.67058 -3.71572 0
M  V30 19766 H 2208.3 -2.29281 -1.92537 0
M  V30 19767 H 2205.85 -1.10368 -0.924928 0
M  V30 19768 H 2207.8 -1.12111 -4.06213 0
M  V30 19769 H 2206.53 -0.170689 -3.26154 0
M  V30 19770 H 2205.19 -2.26873 -2.87966 0
M  V30 19771 H 2204.83 -0.906883 -4.94757 0
M  V30 19772 H 2204.53 -2.63644 -5.25134 0
M  V30 19773 H 2206.06 -1.88759 -5.80691 0
M  V30 19774 H 2207.47 -3.67259 -4.4022 0
M  V30 19775 H 2205.87 -4.39695 -4.08397 0
M  V30 19776 H 2206.94 -4.01158 -2.72397 0
M  V30 19777 N 2208.28 1.00373 -1.21503 0
M  V30 19778 C 2209.51 1.77484 -1.05749 0
M  V30 19779 C 2209.92 1.85017 0.395623 0
M  V30 19780 O 2209.26 1.31155 1.28624 0
M  V30 19781 C 2209.32 3.22871 -1.58097 0
M  V30 19782 C 2208.99 3.38912 -3.06574 0
M  V30 19783 C 2209.99 3.27093 -4.04112 0
M  V30 19784 C 2207.67 3.64313 -3.45806 0
M  V30 19785 C 2209.66 3.40441 -5.38868 0
M  V30 19786 C 2207.35 3.77303 -4.80714 0
M  V30 19787 C 2208.35 3.65374 -5.77054 0
M  V30 19788 O 2208.04 3.77949 -7.09514 0
M  V30 19789 H 2207.77 0.564579 -0.371788 0
M  V30 19790 H 2210.32 1.2714 -1.61321 0
M  V30 19791 H 2208.55 3.74357 -0.969229 0
M  V30 19792 H 2210.24 3.8166 -1.38168 0
M  V30 19793 H 2211.01 3.07392 -3.75147 0
M  V30 19794 H 2206.89 3.72679 -2.71351 0
M  V30 19795 H 2210.43 3.31047 -6.14047 0
M  V30 19796 H 2206.33 3.96508 -5.09364 0
M  V30 19797 H 2207.1 3.94888 -7.16942 0
M  V30 19798 N 2209.76 1.02298 1.19887 0
M  V30 19799 C 2210.69 0.619214 2.2514 0
M  V30 19800 C 2211.67 -0.368886 1.66052 0
M  V30 19801 O 2212.86 -0.252907 1.92546 0
M  V30 19802 C 2209.99 -0.0368173 3.4728 0
M  V30 19803 C 2208.94 0.872939 4.19003 0
M  V30 19804 C 2208.27 0.0823342 5.34637 0
M  V30 19805 C 2209.57 2.18395 4.74448 0
M  V30 19806 H 2211.26 1.49907 2.59168 0
M  V30 19807 H 2208.81 0.722244 1.24578 0
M  V30 19808 H 2210.76 -0.330884 4.20099 0
M  V30 19809 H 2209.48 -0.951435 3.12434 0
M  V30 19810 H 2208.14 1.15111 3.48059 0
M  V30 19811 H 2207.79 -0.834133 4.96036 0
M  V30 19812 H 2207.49 0.688252 5.83555 0
M  V30 19813 H 2209.01 -0.20513 6.10255 0
M  V30 19814 H 2210.43 1.95182 5.39052 0
M  V30 19815 H 2208.82 2.74128 5.33829 0
M  V30 19816 H 2209.89 2.84263 3.92839 0
M  V30 19817 N 2211.24 -1.35782 0.800057 0
M  V30 19818 C 2212.15 -2.33683 0.207245 0
M  V30 19819 C 2213.16 -1.61552 -0.646282 0
M  V30 19820 O 2214.34 -1.9347 -0.55957 0
M  V30 19821 C 2211.4 -3.40749 -0.639599 0
M  V30 19822 C 2210.47 -4.28664 0.23366 0
M  V30 19823 C 2209.7 -5.30617 -0.572861 0
M  V30 19824 O 2209.92 -5.40986 -1.80806 0
M  V30 19825 O 2208.86 -6.01891 0.0328343 0
M  V30 19826 H 2212.68 -2.86167 1.01697 0
M  V30 19827 H 2210.27 -1.38438 0.561715 0
M  V30 19828 H 2212.15 -4.06184 -1.12216 0
M  V30 19829 H 2210.82 -2.90547 -1.42703 0
M  V30 19830 H 2209.73 -3.66232 0.763212 0
M  V30 19831 H 2211.06 -4.82246 0.984869 0
M  V30 19832 N 2212.72 -0.552988 -1.4758 0
M  V30 19833 C 2213.96 -0.0273058 -2.02082 0
M  V30 19834 C 2214.28 1.32561 -1.43013 0
M  V30 19835 O 2213.55 1.86363 -0.603778 0
M  V30 19836 H 2212.13 -0.00710495 -0.746966 0
M  V30 19837 H 2214.8 -0.72204 -1.81032 0
M  V30 19838 H 2213.89 0.0639403 -3.12034 0
M  V30 19839 N 2214.19 1.54923 -0.28923 0
M  V30 19840 C 2215.13 2.20498 0.625544 0
M  V30 19841 C 2216.14 1.19404 1.10665 0
M  V30 19842 O 2217.33 1.46058 1.02612 0
M  V30 19843 C 2214.43 2.82838 1.86697 0
M  V30 19844 C 2213.6 4.09756 1.53033 0
M  V30 19845 C 2212.66 4.56009 2.62568 0
M  V30 19846 O 2211.69 5.21472 2.28157 0
M  V30 19847 N 2212.89 4.27335 3.92893 0
M  V30 19848 H 2215.65 2.99631 0.0642274 0
M  V30 19849 H 2213.21 1.6152 -0.110924 0
M  V30 19850 H 2215.21 3.10719 2.59298 0
M  V30 19851 H 2213.78 2.07615 2.33698 0
M  V30 19852 H 2213 3.89011 0.637496 0
M  V30 19853 H 2214.28 4.9242 1.28063 0
M  V30 19854 H 2213.68 3.74866 4.23665 0
M  V30 19855 H 2212.24 4.59954 4.61829 0
M  V30 19856 N 2215.67 0.0167433 1.57591 0
M  V30 19857 C 2216.58 -0.985172 2.12912 0
M  V30 19858 C 2217.6 -1.36555 1.07836 0
M  V30 19859 O 2218.77 -1.44948 1.39828 0
M  V30 19860 C 2215.84 -2.253 2.63516 0
M  V30 19861 C 2214.9 -1.93419 3.83259 0
M  V30 19862 C 2214.13 -3.14157 4.3144 0
M  V30 19863 O 2214.36 -4.26406 3.78859 0
M  V30 19864 O 2213.29 -2.97177 5.23421 0
M  V30 19865 H 2217.12 -0.544836 2.98773 0
M  V30 19866 H 2214.7 -0.203115 1.48013 0
M  V30 19867 H 2216.58 -2.99751 2.96188 0
M  V30 19868 H 2215.26 -2.68539 1.80745 0
M  V30 19869 H 2214.16 -1.16392 3.55533 0
M  V30 19870 H 2215.5 -1.55005 4.67155 0
M  V30 19871 N 2217.15 -1.55503 -0.256249 0
M  V30 19872 C 2218.1 -1.89528 -1.3171 0
M  V30 19873 C 2219.07 -0.748505 -1.48279 0
M  V30 19874 O 2220.25 -1.00131 -1.62414 0
M  V30 19875 C 2217.39 -2.1873 -2.66929 0
M  V30 19876 C 2216.51 -3.46165 -2.58445 0
M  V30 19877 C 2215.64 -3.64982 -3.85955 0
M  V30 19878 C 2214.68 -4.86051 -3.7205 0
M  V30 19879 N 2213.82 -5.01438 -4.91431 0
M  V30 19880 H 2218.66 -2.80003 -1.01993 0
M  V30 19881 H 2216.19 -1.38614 -0.492389 0
M  V30 19882 H 2218.15 -2.33663 -3.45626 0
M  V30 19883 H 2216.78 -1.31471 -2.94814 0
M  V30 19884 H 2215.83 -3.39613 -1.71368 0
M  V30 19885 H 2217.15 -4.35003 -2.44077 0
M  V30 19886 H 2216.3 -3.79824 -4.73095 0
M  V30 19887 H 2215.04 -2.7436 -4.0321 0
M  V30 19888 H 2214.04 -4.71195 -2.83294 0
M  V30 19889 H 2215.27 -5.78125 -3.56299 0
M  V30 19890 H 2213.21 -4.1375 -5.09065 0
M  V30 19891 H 2213.13 -5.8435 -4.79658 0
M  V30 19892 H 2214.4 -5.20682 -5.80095 0
M  V30 19893 N 2218.63 0.521507 -1.48721 0
M  V30 19894 C 2219.59 1.60745 -1.63382 0
M  V30 19895 C 2220.59 1.5261 -0.506637 0
M  V30 19896 O 2221.78 1.56128 -0.772629 0
M  V30 19897 C 2218.91 3.0038 -1.61198 0
M  V30 19898 H 2220.11 1.49083 -2.6022 0
M  V30 19899 H 2217.66 0.744211 -1.37445 0
M  V30 19900 H 2218.39 3.1754 -0.658686 0
M  V30 19901 H 2218.18 3.07693 -2.43038 0
M  V30 19902 H 2219.67 3.79317 -1.74667 0
M  V30 19903 N 2220.11 1.37452 0.771027 0
M  V30 19904 C 2221.06 1.29788 1.87454 0
M  V30 19905 C 2222.04 0.18557 1.59826 0
M  V30 19906 O 2223.23 0.420028 1.71944 0
M  V30 19907 C 2220.36 1.10786 3.24933 0
M  V30 19908 C 2219.45 2.26564 3.5851 0
M  V30 19909 N 2219.84 3.51956 3.63264 0
M  V30 19910 C 2218.14 2.18734 3.88679 0
M  V30 19911 C 2218.84 4.28307 3.93609 0
M  V30 19912 N 2217.81 3.57455 4.09544 0
M  V30 19913 H 2221.62 2.24748 1.89382 0
M  V30 19914 H 2219.13 1.30434 0.967508 0
M  V30 19915 H 2221.13 1.03381 4.03879 0
M  V30 19916 H 2219.79 0.167437 3.24268 0
M  V30 19917 H 2220.8 3.85854 3.45452 0
M  V30 19918 H 2217.47 1.32753 3.95832 0
M  V30 19919 H 2218.86 5.36832 4.04056 0
M  V30 19920 N 2221.58 -0.997276 1.22033 0
M  V30 19921 C 2222.53 -2.10776 0.983671 0
M  V30 19922 C 2223.53 -1.69248 -0.0717267 0
M  V30 19923 O 2224.73 -1.79821 0.0803357 0
M  V30 19924 H 2221.11 -0.689181 0.300889 0
M  V30 19925 H 2223.08 -2.27912 1.9261 0
M  V30 19926 C 2221.83 -3.42941 0.57332 0
M  V30 19927 H 2221.15 -3.75335 1.37708 0
M  V30 19928 H 2222.59 -4.21636 0.447105 0
M  V30 19929 C 2221.05 -3.2919 -0.716642 0
M  V30 19930 O 2221.58 -3.60592 -1.77021 0
M  V30 19931 N 2219.79 -2.82384 -0.686117 0
M  V30 19932 H 2219.33 -2.57028 0.171552 0
M  V30 19933 H 2219.29 -2.73565 -1.5495 0
M  V30 19934 N 2223.06 -1.02932 -1.19343 0
M  V30 19935 C 2223.99 -0.568609 -2.22035 0
M  V30 19936 C 2225.01 0.355751 -1.58866 0
M  V30 19937 O 2226.2 0.152072 -1.77851 0
M  V30 19938 C 2223.3 0.190693 -3.38363 0
M  V30 19939 C 2222.47 -0.738719 -4.31117 0
M  V30 19940 C 2221.53 -0.0247422 -5.26194 0
M  V30 19941 O 2220.55 -0.651454 -5.6546 0
M  V30 19942 N 2221.76 1.24584 -5.66974 0
M  V30 19943 H 2224.52 -1.45181 -2.62188 0
M  V30 19944 H 2222.08 -0.908405 -1.34013 0
M  V30 19945 H 2224.07 0.677891 -3.98982 0
M  V30 19946 H 2222.64 0.975314 -2.96996 0
M  V30 19947 H 2221.86 -1.406 -3.68273 0
M  V30 19948 H 2223.15 -1.37037 -4.89998 0
M  V30 19949 H 2222.55 1.77573 -5.37107 0
M  V30 19950 H 2221.11 1.67753 -6.29843 0
M  V30 19951 N 2224.54 1.35356 -0.807246 0
M  V30 19952 C 2225.82 1.93109 -0.31116 0
M  V30 19953 C 2226.2 1.73721 1.19934 0
M  V30 19954 O 2225.55 1.10661 1.99916 0
M  V30 19955 C 2225.76 3.41423 -0.723287 0
M  V30 19956 C 2227.1 4.18568 -0.713152 0
M  V30 19957 O 2228.13 3.4994 -0.664873 0
M  V30 19958 O 2226.99 5.41018 -0.772118 0
M  V30 19959 H 2224.08 0.82297 -0.0815405 0
M  V30 19960 H 2226.63 1.44428 -0.890988 0
M  V30 19961 H 2225.4 3.49267 -1.76432 0
M  V30 19962 H 2225.02 3.97424 -0.118302 0
M  V30 19963 N 2226.02 0.560807 1.47284 0
M  V30 19964 C 2226.95 -0.173064 2.32858 0
M  V30 19965 C 2227.93 -0.905255 1.44011 0
M  V30 19966 O 2229.11 -0.885016 1.72862 0
M  V30 19967 C 2226.24 -1.20127 3.25863 0
M  V30 19968 C 2225.2 -0.585313 4.23979 0
M  V30 19969 C 2224.52 -1.71841 5.06335 0
M  V30 19970 C 2225.82 0.46327 5.20241 0
M  V30 19971 H 2227.52 0.541359 2.94465 0
M  V30 19972 H 2225.06 0.261789 1.416 0
M  V30 19973 H 2227.02 -1.72286 3.84572 0
M  V30 19974 H 2225.74 -1.94568 2.62318 0
M  V30 19975 H 2224.4 -0.0849896 3.66501 0
M  V30 19976 H 2224.05 -2.45195 4.3919 0
M  V30 19977 H 2223.75 -1.31203 5.72765 0
M  V30 19978 H 2225.27 -2.24319 5.67902 0
M  V30 19979 H 2226.69 0.0276027 5.73293 0
M  V30 19980 H 2225.08 0.788731 5.94894 0
M  V30 19981 H 2226.15 1.35782 4.65501 0
M  V30 19982 N 2227.5 -1.54768 0.297442 0
M  V30 19983 C 2228.74 -1.99673 -0.31226 0
M  V30 19984 C 2229.07 -1.18735 -1.54684 0
M  V30 19985 O 2228.34 -0.282416 -1.93854 0
M  V30 19986 H 2226.92 -0.737562 -0.118368 0
M  V30 19987 H 2229.58 -1.90583 0.407949 0
M  V30 19988 H 2228.67 -3.06535 -0.586759 0
M  V30 19989 N 2228.97 -0.0251005 -1.5758 0
M  V30 19990 C 2229.9 0.956538 -2.13008 0
M  V30 19991 C 2230.89 1.34198 -1.04523 0
M  V30 19992 O 2232.07 1.42131 -1.32335 0
M  V30 19993 C 2229.2 2.24022 -2.6539 0
M  V30 19994 C 2228.15 1.99565 -3.78626 0
M  V30 19995 C 2227.48 3.34163 -4.1742 0
M  V30 19996 C 2228.78 1.33805 -5.0487 0
M  V30 19997 H 2230.47 0.494939 -2.95281 0
M  V30 19998 H 2228.02 0.236627 -1.42043 0
M  V30 19999 H 2229.97 2.93071 -3.02799 0
M  V30 20000 H 2228.7 2.7234 -1.80273 0
M  V30 20001 H 2227.36 1.32935 -3.41649 0
M  V30 20002 H 2227 3.80232 -3.29291 0
M  V30 20003 H 2226.7 3.18606 -4.93724 0
M  V30 20004 H 2228.23 4.04486 -4.57409 0
M  V30 20005 H 2229.64 1.92848 -5.39891 0
M  V30 20006 H 2228.04 1.28659 -5.86146 0
M  V30 20007 H 2229.11 0.310476 -4.83905 0
M  V30 20008 N 2230.45 1.55637 0.247999 0
M  V30 20009 C 2231.42 1.89423 1.29041 0
M  V30 20010 C 2232.42 0.770606 1.41132 0
M  V30 20011 O 2233.61 1.03861 1.39852 0
M  V30 20012 C 2230.74 2.12169 2.66828 0
M  V30 20013 H 2231.93 2.8263 1.003 0
M  V30 20014 H 2229.48 1.48512 0.487239 0
M  V30 20015 H 2230.22 1.21427 3.00709 0
M  V30 20016 H 2230 2.94002 2.59433 0
M  V30 20017 H 2231.49 2.39496 3.42098 0
M  V30 20018 N 2231.93 -0.513613 1.48996 0
M  V30 20019 C 2233.18 -1.26601 1.57533 0
M  V30 20020 C 2233.5 -1.93282 0.25827 0
M  V30 20021 O 2232.77 -1.82131 -0.72147 0
M  V30 20022 H 2231.35 -0.470266 0.580396 0
M  V30 20023 H 2234.01 -0.596341 1.85553 0
M  V30 20024 H 2233.11 -2.03664 2.36489 0
M  V30 20025 N 2233.41 -1.37859 -0.763727 0
M  V30 20026 C 2234.63 -1.36896 -1.55802 0
M  V30 20027 C 2235.06 0.0415805 -1.88054 0
M  V30 20028 O 2234.42 1.02086 -1.49827 0
M  V30 20029 C 2234.47 -2.22197 -2.84008 0
M  V30 20030 O 2233.57 -1.6321 -3.7873 0
M  V30 20031 H 2232.91 -0.467399 -0.47163 0
M  V30 20032 H 2235.44 -1.81488 -0.944625 0
M  V30 20033 H 2235.45 -2.35696 -3.33033 0
M  V30 20034 H 2234.13 -3.24721 -2.59864 0
M  V30 20035 H 2232.7 -1.58797 -3.37399 0
M  V30 20036 N 2234.89 0.990791 -1.22561 0
M  V30 20037 C 2236.13 1.74581 -1.06305 0
M  V30 20038 C 2236.49 1.87899 0.394704 0
M  V30 20039 O 2237.69 2.60104 0.678168 0
M  V30 20040 C 2235.96 3.11227 -1.75705 0
M  V30 20041 S 2237.52 4.02442 -1.74889 0
M  V30 20042 H 2234.34 0.600522 -0.38065 0
M  V30 20043 H 2236.94 1.18446 -1.55534 0
M  V30 20044 H 2235.65 2.99178 -2.80928 0
M  V30 20045 H 2235.18 3.72434 -1.26715 0
M  V30 20046 H 2237.19 4.89707 -0.800083 0
M  V30 20047 N 2236.37 1.03564 1.18795 0
M  V30 20048 C 2237.3 0.643058 2.24471 0
M  V30 20049 C 2238.28 -0.351253 1.66434 0
M  V30 20050 O 2239.46 -0.232471 1.92804 0
M  V30 20051 C 2236.59 1.85533e-05 3.473 0
M  V30 20052 C 2235.55 0.91733 4.18054 0
M  V30 20053 C 2234.87 0.139035 5.34519 0
M  V30 20054 C 2236.17 2.23415 4.72105 0
M  V30 20055 H 2237.87 1.52648 2.57564 0
M  V30 20056 H 2235.41 0.735416 1.23805 0
M  V30 20057 H 2237.36 -0.286309 4.20426 0
M  V30 20058 H 2236.09 -0.918243 3.13426 0
M  V30 20059 H 2234.75 1.18796 3.46818 0
M  V30 20060 H 2234.4 -0.781475 4.96892 0
M  V30 20061 H 2234.1 0.750107 5.82793 0
M  V30 20062 H 2235.62 -0.140393 6.10439 0
M  V30 20063 H 2237.03 2.00888 5.36951 0
M  V30 20064 H 2235.43 2.79774 5.30892 0
M  V30 20065 H 2236.5 2.88414 3.89802 0
M  V30 20066 N 2237.84 -1.34926 0.814413 0
M  V30 20067 C 2239.25 -1.80985 0.458396 0
M  V30 20068 C 2239.61 -1.67579 -1.02039 0
M  V30 20069 O 2238.73 -1.21089 -1.7935 0
M  V30 20070 C 2239.33 -3.28595 0.82527 0
M  V30 20071 C 2237.88 -3.72766 0.521743 0
M  V30 20072 C 2237.03 -2.56786 1.04672 0
M  V30 20073 H 2239.98 -1.22794 1.00536 0
M  V30 20074 H 2240 -3.80292 0.125777 0
M  V30 20075 H 2239.52 -3.38321 1.90159 0
M  V30 20076 H 2237.62 -3.68585 -0.545524 0
M  V30 20077 H 2237.73 -4.6723 1.05985 0
M  V30 20078 H 2236.09 -2.50351 0.468666 0
M  V30 20079 H 2236.88 -2.69286 2.12932 0
M  V30 20080 N 2239.32 -0.56861 -1.46985 0
M  V30 20081 C 2240.57 -0.0489066 -2.02741 0
M  V30 20082 C 2240.9 1.30211 -1.44079 0
M  V30 20083 O 2240.18 1.84995 -0.600585 0
M  V30 20084 C 2240.46 0.0319837 -3.60086 0
M  V30 20085 C 2240.31 -1.34693 -4.29159 0
M  V30 20086 C 2241.63 0.739722 -4.33839 0
M  V30 20087 H 2238.75 -0.0192468 -0.736749 0
M  V30 20088 H 2241.39 -0.733096 -1.75287 0
M  V30 20089 H 2239.54 0.614663 -3.83607 0
M  V30 20090 H 2241.21 -1.97369 -4.16945 0
M  V30 20091 H 2239.46 -1.91853 -3.89069 0
M  V30 20092 H 2240.13 -1.24294 -5.37824 0
M  V30 20093 H 2242.6 0.244866 -4.15379 0
M  V30 20094 H 2241.48 0.765311 -5.43539 0
M  V30 20095 H 2241.74 1.79819 -4.03878 0
M  V30 20096 N 2240.8 1.54608 -0.305646 0
M  V30 20097 C 2242.05 2.00231 0.302263 0
M  V30 20098 C 2242.37 1.194 1.53538 0
M  V30 20099 O 2241.63 0.259457 1.93972 0
M  V30 20100 C 2241.93 3.50499 0.698922 0
M  V30 20101 C 2241.59 4.48816 -0.432982 0
M  V30 20102 C 2240.26 4.75418 -0.743706 0
M  V30 20103 C 2242.61 5.07335 -1.19418 0
M  V30 20104 C 2239.94 5.57801 -1.81867 0
M  V30 20105 C 2242.29 5.90887 -2.25909 0
M  V30 20106 C 2240.95 6.15798 -2.57583 0
M  V30 20107 H 2240.22 0.732699 0.110606 0
M  V30 20108 H 2242.87 1.86708 -0.425707 0
M  V30 20109 H 2241.17 3.61656 1.50705 0
M  V30 20110 H 2242.87 3.83229 1.18054 0
M  V30 20111 H 2239.46 4.28219 -0.180706 0
M  V30 20112 H 2243.65 4.86781 -0.96738 0
M  V30 20113 H 2238.9 5.75337 -2.06874 0
M  V30 20114 H 2243.08 6.35256 -2.85346 0
M  V30 20115 H 2240.7 6.79424 -3.41009 0
M  V30 20116 N 2242.28 0.033457 1.57564 0
M  V30 20117 C 2243.5 -0.657861 1.9669 0
M  V30 20118 C 2243.93 -1.64618 0.910086 0
M  V30 20119 O 2243.29 -1.80844 -0.128566 0
M  V30 20120 C 2243.33 -1.33677 3.34907 0
M  V30 20121 O 2242.44 -2.45213 3.31578 0
M  V30 20122 H 2241.78 -0.172478 0.641208 0
M  V30 20123 H 2244.31 0.096598 2.04372 0
M  V30 20124 H 2244.32 -1.69256 3.71236 0
M  V30 20125 H 2242.99 -0.612339 4.11368 0
M  V30 20126 H 2241.57 -2.11714 3.06972 0
M  V30 20127 N 2243.76 -1.55766 -0.239741 0
M  V30 20128 C 2244.98 -1.81995 -0.984138 0
M  V30 20129 C 2245.4 -0.610156 -1.78669 0
M  V30 20130 O 2244.76 0.42124 -1.77572 0
M  V30 20131 C 2244.81 -3.0653 -1.91629 0
M  V30 20132 O 2244.53 -4.2284 -1.14621 0
M  V30 20133 C 2246.03 -3.45612 -2.77609 0
M  V30 20134 H 2243.25 -0.605446 -0.289269 0
M  V30 20135 H 2245.79 -2.02835 -0.260464 0
M  V30 20136 H 2243.95 -2.87719 -2.59415 0
M  V30 20137 H 2244.36 -4.93467 -1.77736 0
M  V30 20138 H 2245.84 -4.35834 -3.38751 0
M  V30 20139 H 2246.31 -2.66526 -3.49086 0
M  V30 20140 H 2246.92 -3.66798 -2.15265 0
M  V30 20141 N 2245.23 0.505704 -1.49266 0
M  V30 20142 C 2246.16 1.6165 -1.68498 0
M  V30 20143 C 2247.14 1.61511 -0.533688 0
M  V30 20144 O 2248.33 1.78326 -0.769002 0
M  V30 20145 C 2245.46 3.00154 -1.74714 0
M  V30 20146 C 2244.41 3.15157 -2.89586 0
M  V30 20147 C 2243.74 4.54965 -2.80911 0
M  V30 20148 C 2245.04 2.95627 -4.30584 0
M  V30 20149 H 2246.73 1.45809 -2.61496 0
M  V30 20150 H 2244.28 0.700028 -1.2584 0
M  V30 20151 H 2246.23 3.77757 -1.86755 0
M  V30 20152 H 2244.96 3.17072 -0.783123 0
M  V30 20153 H 2243.62 2.39977 -2.7714 0
M  V30 20154 H 2243.26 4.68753 -1.82427 0
M  V30 20155 H 2242.96 4.65945 -3.58007 0
M  V30 20156 H 2244.49 5.34636 -2.94953 0
M  V30 20157 H 2245.9 3.63003 -4.43736 0
M  V30 20158 H 2244.3 3.18082 -5.08866 0
M  V30 20159 H 2245.37 1.91798 -4.45356 0
M  V30 20160 N 2246.71 1.38262 0.756405 0
M  V30 20161 C 2248.12 1.30663 1.33357 0
M  V30 20162 C 2248.47 -0.038853 1.96162 0
M  V30 20163 O 2247.6 -0.940884 1.94875 0
M  V30 20164 C 2248.19 2.36627 2.42473 0
M  V30 20165 C 2246.75 2.32615 2.95917 0
M  V30 20166 C 2245.9 2.19642 1.69272 0
M  V30 20167 H 2248.85 1.48661 0.555494 0
M  V30 20168 H 2248.87 2.0218 3.22341 0
M  V30 20169 H 2248.38 3.34541 1.96733 0
M  V30 20170 H 2246.49 1.38273 3.45993 0
M  V30 20171 H 2246.6 3.26642 3.50488 0
M  V30 20172 H 2244.96 1.66446 1.9279 0
M  V30 20173 H 2245.75 3.19493 1.25614 0
M  V30 20174 N 2248.19 -0.984277 1.23084 0
M  V30 20175 C 2249.44 -1.72504 1.0606 0
M  V30 20176 C 2249.77 -1.90278 -0.403072 0
M  V30 20177 O 2249.02 -1.44947 -1.31487 0
M  V30 20178 C 2249.32 -3.12917 1.72679 0
M  V30 20179 C 2248.99 -3.15033 3.22591 0
M  V30 20180 C 2247.65 -3.15317 3.63495 0
M  V30 20181 C 2250 -3.10649 4.18505 0
M  V30 20182 C 2247.33 -3.0893 4.98777 0
M  V30 20183 C 2249.68 -3.05804 5.53775 0
M  V30 20184 C 2248.34 -3.04409 5.94047 0
M  V30 20185 H 2247.61 -0.631235 0.388102 0
M  V30 20186 H 2250.26 -1.15213 1.52965 0
M  V30 20187 H 2248.57 -3.7357 1.18123 0
M  V30 20188 H 2250.26 -3.68993 1.56988 0
M  V30 20189 H 2246.85 -3.15566 2.90028 0
M  V30 20190 H 2251.04 -3.09572 3.87916 0
M  V30 20191 H 2246.29 -3.062 5.29199 0
M  V30 20192 H 2250.47 -3.01369 6.27813 0
M  V30 20193 H 2248.09 -2.99214 6.98838 0
M  V30 20194 N 2249.67 -1.04192 -1.18244 0
M  V30 20195 C 2250.63 -0.638491 -2.20127 0
M  V30 20196 C 2251.63 0.304777 -1.57885 0
M  V30 20197 O 2252.82 0.0900063 -1.73967 0
M  V30 20198 C 2249.95 0.0637152 -3.4084 0
M  V30 20199 H 2251.15 -1.54012 -2.57333 0
M  V30 20200 H 2248.7 -0.834621 -1.32151 0
M  V30 20201 H 2249.43 0.979081 -3.09167 0
M  V30 20202 H 2249.22 -0.614266 -3.87259 0
M  V30 20203 H 2250.71 0.332439 -4.16275 0
M  V30 20204 N 2251.15 1.34492 -0.821557 0
M  V30 20205 C 2252.38 2.02259 -0.421308 0
M  V30 20206 C 2252.78 1.62022 0.977018 0
M  V30 20207 O 2252.13 0.820732 1.64346 0
M  V30 20208 C 2252.19 3.56768 -0.442373 0
M  V30 20209 C 2251.85 4.20324 -1.7938 0
M  V30 20210 C 2252.85 4.40939 -2.75443 0
M  V30 20211 C 2250.54 4.57124 -2.0819 0
M  V30 20212 C 2252.53 4.97477 -3.98491 0
M  V30 20213 C 2250.22 5.13373 -3.31498 0
M  V30 20214 C 2251.21 5.33494 -4.26466 0
M  V30 20215 O 2250.9 5.88553 -5.47596 0
M  V30 20216 H 2250.63 0.654924 -0.167484 0
M  V30 20217 H 2253.19 1.72775 -1.11076 0
M  V30 20218 H 2251.42 3.85505 0.303769 0
M  V30 20219 H 2253.11 4.05852 -0.0623638 0
M  V30 20220 H 2253.87 4.12874 -2.5448 0
M  V30 20221 H 2249.75 4.40768 -1.35074 0
M  V30 20222 H 2253.3 5.13098 -4.72627 0
M  V30 20223 H 2249.19 5.40867 -3.52325 0
M  V30 20224 H 2249.96 6.06988 -5.49097 0
M  V30 20225 N 2252.62 0.576397 1.46681 0
M  V30 20226 C 2253.86 0.0621715 2.04305 0
M  V30 20227 C 2254.23 -1.27118 1.43893 0
M  V30 20228 O 2255.43 -1.87426 1.92679 0
M  V30 20229 C 2253.7 -0.00921639 3.57399 0
M  V30 20230 S 2255.26 -0.466783 4.3631 0
M  V30 20231 H 2252.08 0.0344141 0.710167 0
M  V30 20232 H 2254.68 0.767469 1.79806 0
M  V30 20233 H 2253.38 0.965249 3.98887 0
M  V30 20234 H 2252.91 -0.73748 3.86426 0
M  V30 20235 H 2254.93 -1.72278 4.65333 0
M  V30 20236 N 2254.1 -1.54444 0.313841 0
M  V30 20237 C 2255.05 -2.25454 -0.572131 0
M  V30 20238 C 2256.04 -1.26512 -1.12655 0
M  V30 20239 O 2257.25 -1.44321 -1.07571 0
M  V30 20240 H 2253.63 -0.724045 -0.203134 0
M  V30 20241 H 2255.6 -2.98359 0.0491669 0
M  V30 20242 C 2254.35 -3.01823 -1.72621 0
M  V30 20243 H 2253.67 -3.77769 -1.30884 0
M  V30 20244 H 2255.11 -3.54771 -2.32193 0
M  V30 20245 C 2253.57 -2.09546 -2.63803 0
M  V30 20246 O 2254.1 -1.67192 -3.65253 0
M  V30 20247 N 2252.3 -1.75236 -2.31821 0
M  V30 20248 H 2251.85 -2.09876 -1.49365 0
M  V30 20249 H 2251.81 -1.13772 -2.93093 0
M  V30 20250 N 2255.58 -0.0418125 -1.57545 0
M  V30 20251 C 2256.83 0.633458 -1.91495 0
M  V30 20252 C 2257.14 1.72554 -0.921114 0
M  V30 20253 O 2258.35 2.45833 -1.15232 0
M  V30 20254 C 2256.8 1.17803 -3.40074 0
M  V30 20255 C 2256.41 0.118554 -4.47843 0
M  V30 20256 C 2258.16 1.82908 -3.83073 0
M  V30 20257 C 2256.06 0.675475 -5.8753 0
M  V30 20258 H 2254.99 0.240377 -0.714657 0
M  V30 20259 H 2257.64 -0.10918 -1.83175 0
M  V30 20260 H 2256.03 1.97268 -3.43368 0
M  V30 20261 H 2257.2 -0.654575 -4.56127 0
M  V30 20262 H 2255.52 -0.434487 -4.14127 0
M  V30 20263 H 2258.11 2.25554 -4.84798 0
M  V30 20264 H 2258.46 2.67699 -3.18815 0
M  V30 20265 H 2258.99 1.10112 -3.82257 0
M  V30 20266 H 2255.73 -0.13459 -6.55362 0
M  V30 20267 H 2255.25 1.4168 -5.82827 0
M  V30 20268 H 2256.93 1.16129 -6.36493 0
M  V30 20269 N 2257.06 1.55891 0.231477 0
M  V30 20270 C 2258.01 1.87995 1.29004 0
M  V30 20271 C 2258.99 0.742127 1.42763 0
M  V30 20272 O 2260.18 1.00436 1.45745 0
M  V30 20273 C 2257.31 2.19154 2.64246 0
M  V30 20274 C 2256.4 3.39303 2.54429 0
M  V30 20275 N 2256.79 4.5818 2.14254 0
M  V30 20276 C 2255.09 3.4272 2.8541 0
M  V30 20277 C 2255.79 5.40331 2.15446 0
M  V30 20278 N 2254.77 4.79787 2.55549 0
M  V30 20279 H 2258.57 2.77426 0.970165 0
M  V30 20280 H 2256.08 1.56324 0.44007 0
M  V30 20281 H 2258.08 2.40325 3.4066 0
M  V30 20282 H 2256.74 1.31031 2.97088 0
M  V30 20283 H 2257.75 4.83522 1.85546 0
M  V30 20284 H 2254.43 2.64912 3.22689 0
M  V30 20285 H 2255.82 6.45471 1.86594 0
M  V30 20286 N 2258.54 -0.497781 1.49532 0
M  V30 20287 C 2259.47 -1.61575 1.62562 0
M  V30 20288 C 2260.48 -1.54666 0.508161 0
M  V30 20289 O 2261.67 -1.6054 0.780338 0
M  V30 20290 C 2258.77 -3.00376 1.56931 0
M  V30 20291 C 2257.94 -3.32435 2.84263 0
M  V30 20292 C 2257 -4.50664 2.7164 0
M  V30 20293 O 2256.03 -4.52288 3.45578 0
M  V30 20294 N 2257.23 -5.50767 1.83401 0
M  V30 20295 H 2260 -1.50823 2.58983 0
M  V30 20296 H 2257.56 -0.685717 1.46661 0
M  V30 20297 H 2259.55 -3.77394 1.46136 0
M  V30 20298 H 2258.12 -3.05035 0.683537 0
M  V30 20299 H 2257.34 -2.44284 3.09385 0
M  V30 20300 H 2258.63 -3.50654 3.68673 0
M  V30 20301 H 2258.02 -5.52257 1.22593 0
M  V30 20302 H 2256.58 -6.26874 1.78526 0
M  V30 20303 N 2260.01 -1.38661 -0.749062 0
M  V30 20304 C 2261.26 -1.35317 -1.51054 0
M  V30 20305 C 2261.59 0.055341 -1.94121 0
M  V30 20306 O 2260.87 1.01746 -1.65765 0
M  V30 20307 C 2261.15 -2.31293 -2.75999 0
M  V30 20308 C 2261 -3.81024 -2.39041 0
M  V30 20309 C 2262.32 -2.25327 -3.78042 0
M  V30 20310 H 2259.44 -0.492854 -0.547963 0
M  V30 20311 H 2262.08 -1.69544 -0.857598 0
M  V30 20312 H 2260.23 -2.02235 -3.31713 0
M  V30 20313 H 2261.91 -4.20775 -1.89067 0
M  V30 20314 H 2260.15 -3.98485 -1.71442 0
M  V30 20315 H 2260.82 -4.43646 -3.28454 0
M  V30 20316 H 2263.3 -2.50989 -3.31879 0
M  V30 20317 H 2262.17 -2.94584 -4.63154 0
M  V30 20318 H 2262.43 -1.2536 -4.23954 0
M  V30 20319 N 2261.49 0.977736 -1.23605 0
M  V30 20320 C 2262.73 1.73444 -1.08151 0
M  V30 20321 C 2263.1 1.88307 0.374752 0
M  V30 20322 O 2264.3 2.60809 0.650543 0
M  V30 20323 C 2262.57 3.09346 -1.78996 0
M  V30 20324 S 2264.13 4.00564 -1.79148 0
M  V30 20325 H 2260.95 0.596451 -0.386998 0
M  V30 20326 H 2263.55 1.16789 -1.56782 0
M  V30 20327 H 2262.25 2.96182 -2.84086 0
M  V30 20328 H 2261.78 3.71069 -1.30658 0
M  V30 20329 H 2263.8 4.88831 -0.851978 0
M  V30 20330 N 2262.97 1.04818 1.1769 0
M  V30 20331 C 2263.92 0.61608 2.19519 0
M  V30 20332 C 2264.91 -0.345458 1.57148 0
M  V30 20333 O 2266.1 -0.163294 1.76245 0
M  V30 20334 C 2263.23 -0.0116314 3.43298 0
M  V30 20335 C 2262.31 0.973507 4.12776 0
M  V30 20336 N 2262.7 2.14347 4.58137 0
M  V30 20337 C 2261 0.801157 4.38745 0
M  V30 20338 C 2261.7 2.76639 5.11709 0
M  V30 20339 N 2260.68 2.04462 5.03683 0
M  V30 20340 H 2264.48 1.50755 2.5229 0
M  V30 20341 H 2261.99 0.917799 1.33978 0
M  V30 20342 H 2263.99 -0.338933 4.1552 0
M  V30 20343 H 2262.65 -0.898538 3.1202 0
M  V30 20344 H 2263.66 2.52199 4.52345 0
M  V30 20345 H 2260.34 -0.03502 4.17485 0
M  V30 20346 H 2261.73 3.75833 5.56955 0
M  V30 20347 N 2264.45 -1.34055 0.828678 0
M  V30 20348 C 2265.68 -2.02032 0.432028 0
M  V30 20349 C 2266.09 -1.62537 -0.968412 0
M  V30 20350 O 2265.43 -0.829436 -1.63909 0
M  V30 20351 C 2265.49 -3.56528 0.461287 0
M  V30 20352 C 2265.16 -4.19366 1.81606 0
M  V30 20353 C 2266.15 -4.39472 2.77778 0
M  V30 20354 C 2263.84 -4.56013 2.10612 0
M  V30 20355 C 2265.83 -4.95357 4.01124 0
M  V30 20356 C 2263.52 -5.11608 3.34216 0
M  V30 20357 C 2264.52 -5.31225 4.29289 0
M  V30 20358 O 2264.21 -5.8564 5.50709 0
M  V30 20359 H 2263.94 -0.654026 0.170955 0
M  V30 20360 H 2266.49 -1.72184 1.11991 0
M  V30 20361 H 2264.72 -3.85661 -0.28332 0
M  V30 20362 H 2266.41 -4.05813 0.0838863 0
M  V30 20363 H 2267.18 -4.11518 2.56666 0
M  V30 20364 H 2263.06 -4.40045 1.37409 0
M  V30 20365 H 2266.6 -5.10584 4.75342 0
M  V30 20366 H 2262.5 -5.38991 3.55189 0
M  V30 20367 H 2263.26 -6.04068 5.52308 0
M  V30 20368 N 2265.93 -0.584167 -1.46374 0
M  V30 20369 C 2266.89 0.138068 -2.28784 0
M  V30 20370 C 2267.89 0.817438 -1.38472 0
M  V30 20371 O 2269.08 0.669171 -1.60835 0
M  V30 20372 C 2266.21 1.20497 -3.18894 0
M  V30 20373 H 2267.41 -0.586179 -2.94116 0
M  V30 20374 H 2264.96 -0.342198 -1.52508 0
M  V30 20375 H 2265.69 1.96075 -2.58312 0
M  V30 20376 H 2265.48 0.722316 -3.85389 0
M  V30 20377 H 2266.97 1.71148 -3.80917 0
M  V30 20378 N 2267.41 1.54275 -0.322027 0
M  V30 20379 C 2268.34 2.21776 0.578632 0
M  V30 20380 C 2269.35 1.21724 1.08107 0
M  V30 20381 O 2270.54 1.48202 0.994912 0
M  V30 20382 C 2267.64 2.86735 1.80656 0
M  V30 20383 C 2266.81 4.12909 1.44307 0
M  V30 20384 C 2265.87 4.61476 2.52837 0
M  V30 20385 O 2264.9 5.26194 2.17045 0
M  V30 20386 N 2266.1 4.35573 3.8374 0
M  V30 20387 H 2268.86 2.997 0.000656767 0
M  V30 20388 H 2266.43 1.61248 -0.14516 0
M  V30 20389 H 2268.42 3.16149 2.52649 0
M  V30 20390 H 2266.99 2.12525 2.29242 0
M  V30 20391 H 2266.21 3.90276 0.554837 0
M  V30 20392 H 2267.5 4.95025 1.17589 0
M  V30 20393 H 2266.89 3.83769 4.15618 0
M  V30 20394 H 2265.45 4.69646 4.51969 0
M  V30 20395 N 2268.88 0.0501669 1.5752 0
M  V30 20396 C 2270.3 -0.306374 1.56632 0
M  V30 20397 C 2270.5 -1.71506 1.05774 0
M  V30 20398 O 2269.56 -2.42198 0.71388 0
M  V30 20399 C 2270.87 -0.135758 3.00393 0
M  V30 20400 C 2272.42 -0.206939 3.12315 0
M  V30 20401 C 2272.89 -0.0648635 4.57954 0
M  V30 20402 N 2274.38 -0.121172 4.63041 0
M  V30 20403 C 2275.12 -0.0353374 5.73389 0
M  V30 20404 N 2274.61 0.102788 6.92724 0
M  V30 20405 N 2276.41 -0.0908472 5.62027 0
M  V30 20406 H 2268.56 0.971079 1.88902 0
M  V30 20407 H 2270.82 0.37687 0.869869 0
M  V30 20408 H 2270.53 0.835444 3.41633 0
M  V30 20409 H 2270.4 -0.897211 3.66374 0
M  V30 20410 H 2272.79 -1.16861 2.70975 0
M  V30 20411 H 2272.87 0.585251 2.49015 0
M  V30 20412 H 2272.51 0.893482 4.99979 0
M  V30 20413 H 2272.44 -0.876185 5.1926 0
M  V30 20414 H 2274.93 -0.227218 3.77216 0
M  V30 20415 H 2275.25 0.161018 7.72632 0
M  V30 20416 H 2273.59 0.137859 6.94863 0
M  V30 20417 H 2276.78 -0.197306 4.67684 0
M  V30 20418 H 2276.96 -0.020495 6.47997 0
M  V30 20419 N 2270.36 -1.56011 -0.223207 0
M  V30 20420 C 2271.31 -1.93133 -1.29623 0
M  V30 20421 C 2272.3 -0.813172 -1.48606 0
M  V30 20422 O 2273.51 -0.997992 -1.498 0
M  V30 20423 H 2269.88 -0.613733 -0.434552 0
M  V30 20424 H 2271.86 -2.82673 -0.955946 0
M  V30 20425 C 2270.6 -2.26297 -2.63979 0
M  V30 20426 H 2269.93 -3.1185 -2.50179 0
M  V30 20427 H 2271.37 -2.56157 -3.37875 0
M  V30 20428 C 2269.83 -1.08752 -3.18864 0
M  V30 20429 O 2270.36 -0.347797 -4.00192 0
M  V30 20430 N 2268.56 -0.871792 -2.77215 0
M  V30 20431 H 2268.11 -1.47505 -2.11187 0
M  V30 20432 H 2268.07 -0.0870457 -3.14279 0
M  V30 20433 N 2271.84 0.489844 -1.49794 0
M  V30 20434 C 2273.12 1.25117 -1.5035 0
M  V30 20435 C 2273.5 2.0976 -0.237503 0
M  V30 20436 O 2272.84 2.14783 0.779772 0
M  V30 20437 C 2273.05 2.09832 -2.78875 0
M  V30 20438 C 2274.4 2.68649 -3.28805 0
M  V30 20439 O 2275.43 2.20091 -2.80069 0
M  V30 20440 O 2274.29 3.57076 -4.13714 0
M  V30 20441 H 2271.38 0.566764 -0.602252 0
M  V30 20442 H 2273.93 0.5032 -1.62068 0
M  V30 20443 H 2272.7 1.47337 -3.62502 0
M  V30 20444 H 2272.32 2.918 -2.70072 0
M  V30 20445 N 2273.32 1.39056 0.741698 0
M  V30 20446 C 2274.73 1.20514 1.04636 0
M  V30 20447 C 2274.93 0.0620572 2.01404 0
M  V30 20448 O 2273.99 -0.588414 2.45548 0
M  V30 20449 C 2275.3 2.53646 1.61506 0
M  V30 20450 C 2276.85 2.60433 1.73619 0
M  V30 20451 C 2277.33 3.93771 2.33899 0
M  V30 20452 N 2278.82 3.95374 2.41316 0
M  V30 20453 C 2279.55 4.95314 2.8888 0
M  V30 20454 N 2279.05 6.05651 3.3639 0
M  V30 20455 N 2280.84 4.82697 2.88028 0
M  V30 20456 H 2272.99 2.12166 0.0997782 0
M  V30 20457 H 2275.25 0.941955 0.10689 0
M  V30 20458 H 2274.96 3.37809 0.97868 0
M  V30 20459 H 2274.83 2.72889 2.60406 0
M  V30 20460 H 2277.22 1.76659 2.3638 0
M  V30 20461 H 2277.3 2.45046 0.733902 0
M  V30 20462 H 2276.95 4.77973 1.71767 0
M  V30 20463 H 2276.88 4.06475 3.34792 0
M  V30 20464 H 2279.37 3.15686 2.07728 0
M  V30 20465 H 2279.68 6.77827 3.71174 0
M  V30 20466 H 2278.03 6.09254 3.34416 0
M  V30 20467 H 2281.22 3.95604 2.5023 0
M  V30 20468 H 2281.39 5.60732 3.24783 0
M  V30 20469 N 2274.8 -0.971167 1.24121 0
M  V30 20470 C 2276.02 -1.75405 1.1067 0
M  V30 20471 C 2276.45 -1.85056 -0.337016 0
M  V30 20472 O 2275.8 -1.31894 -1.24393 0
M  V30 20473 C 2275.85 -3.15438 1.74732 0
M  V30 20474 O 2274.96 -3.99696 1.01573 0
M  V30 20475 H 2274.3 -0.53931 0.387351 0
M  V30 20476 H 2276.83 -1.21847 1.6436 0
M  V30 20477 H 2276.84 -3.65976 1.80348 0
M  V30 20478 H 2275.51 -3.07729 2.79778 0
M  V30 20479 H 2274.09 -3.58185 1.03719 0
M  V30 20480 N 2276.27 -1.05441 -1.17133 0
M  V30 20481 C 2277.5 -0.785307 -1.91093 0
M  V30 20482 C 2277.91 0.66311 -1.77199 0
M  V30 20483 O 2277.26 1.46495 -1.10838 0
M  V30 20484 C 2277.32 -1.08955 -3.42592 0
M  V30 20485 C 2276.98 -2.53465 -3.80269 0
M  V30 20486 C 2277.98 -3.5168 -3.82906 0
M  V30 20487 C 2275.66 -2.88539 -4.11157 0
M  V30 20488 C 2277.66 -4.83014 -4.15905 0
M  V30 20489 C 2275.34 -4.20076 -4.43824 0
M  V30 20490 C 2276.34 -5.17123 -4.46176 0
M  V30 20491 O 2276.03 -6.46299 -4.78072 0
M  V30 20492 H 2275.76 -0.284821 -0.613068 0
M  V30 20493 H 2278.32 -1.40895 -1.49458 0
M  V30 20494 H 2276.55 -0.408809 -3.84533 0
M  V30 20495 H 2278.24 -0.806061 -3.97816 0
M  V30 20496 H 2279 -3.25923 -3.59164 0
M  V30 20497 H 2274.88 -2.13663 -4.08496 0
M  V30 20498 H 2278.42 -5.58757 -4.17655 0
M  V30 20499 H 2274.32 -4.45594 -4.67029 0
M  V30 20500 H 2275.09 -6.51158 -4.95919 0
M  V30 20501 N 2277.75 1.33613 -0.835776 0
M  V30 20502 C 2279 1.98587 -0.439852 0
M  V30 20503 C 2279.35 1.6502 0.989245 0
M  V30 20504 O 2278.65 0.918189 1.68166 0
M  V30 20505 C 2278.84 3.5243 -0.593987 0
M  V30 20506 C 2278.67 4.00944 -2.03652 0
M  V30 20507 C 2277.44 4.28929 -2.67111 0
M  V30 20508 C 2279.64 4.17388 -3.00486 0
M  V30 20509 N 2277.62 4.63563 -4.0247 0
M  V30 20510 C 2278.99 4.55346 -4.20785 0
M  V30 20511 C 2281.05 3.99669 -2.96933 0
M  V30 20512 C 2279.75 4.77437 -5.38002 0
M  V30 20513 C 2281.77 4.22934 -4.13377 0
M  V30 20514 C 2281.14 4.61192 -5.3243 0
M  V30 20515 H 2277.24 0.753466 -0.209316 0
M  V30 20516 H 2279.82 1.61787 -1.08319 0
M  V30 20517 H 2277.99 3.88395 0.0195307 0
M  V30 20518 H 2279.72 4.04344 -0.169809 0
M  V30 20519 H 2276.48 4.20306 -2.18266 0
M  V30 20520 H 2276.9 4.85095 -4.72241 0
M  V30 20521 H 2281.54 3.69208 -2.06022 0
M  V30 20522 H 2279.26 5.0676 -6.2946 0
M  V30 20523 H 2282.85 4.10747 -4.12041 0
M  V30 20524 H 2281.73 4.78837 -6.21035 0
M  V30 20525 N 2279.23 0.591922 1.46062 0
M  V30 20526 C 2280.16 -0.123632 2.33172 0
M  V30 20527 C 2281.14 -0.874505 1.45899 0
M  V30 20528 O 2282.33 -0.84815 1.747 0
M  V30 20529 C 2279.46 -1.13188 3.28338 0
M  V30 20530 C 2278.41 -0.495249 4.25125 0
M  V30 20531 C 2277.74 -1.61063 5.09866 0
M  V30 20532 C 2279.04 0.573516 5.19142 0
M  V30 20533 H 2280.73 0.603698 2.9325 0
M  V30 20534 H 2278.28 0.291766 1.41013 0
M  V30 20535 H 2280.23 -1.6409 3.8814 0
M  V30 20536 H 2278.95 -1.8896 2.66386 0
M  V30 20537 H 2277.61 -0.00723008 3.66599 0
M  V30 20538 H 2277.26 -2.35824 4.44293 0
M  V30 20539 H 2276.96 -1.19025 5.75419 0
M  V30 20540 H 2278.48 -2.12223 5.72533 0
M  V30 20541 H 2279.9 0.149201 5.73106 0
M  V30 20542 H 2278.3 0.91474 5.93087 0
M  V30 20543 H 2279.37 1.45625 4.62516 0
M  V30 20544 N 2280.71 -1.54102 0.330204 0
M  V30 20545 C 2281.67 -2.23221 -0.520105 0
M  V30 20546 C 2282.67 -1.22788 -1.03826 0
M  V30 20547 O 2283.86 -1.47321 -0.929626 0
M  V30 20548 C 2280.99 -2.94145 -1.72312 0
M  V30 20549 H 2282.19 -2.99782 0.0842132 0
M  V30 20550 H 2279.74 -1.56088 0.0813707 0
M  V30 20551 H 2280.47 -2.21738 -2.36649 0
M  V30 20552 H 2280.26 -3.67799 -1.35892 0
M  V30 20553 H 2281.75 -3.46788 -2.32654 0
M  V30 20554 N 2282.19 -0.0585199 -1.57491 0
M  V30 20555 C 2283.41 0.626486 -1.97712 0
M  V30 20556 C 2283.84 1.63149 -0.93616 0
M  V30 20557 O 2283.19 1.81025 0.0997792 0
M  V30 20558 C 2283.24 1.28332 -3.36992 0
M  V30 20559 O 2282.35 2.39907 -3.35437 0
M  V30 20560 H 2281.69 0.162255 -0.643871 0
M  V30 20561 H 2284.22 -0.1291 -2.04192 0
M  V30 20562 H 2284.23 1.63328 -3.73882 0
M  V30 20563 H 2282.9 0.546816 -4.1229 0
M  V30 20564 H 2281.48 2.06803 -3.10301 0
M  V30 20565 N 2283.66 1.56128 0.21493 0
M  V30 20566 C 2284.63 1.92118 1.24994 0
M  V30 20567 C 2285.63 0.800369 1.39466 0
M  V30 20568 O 2286.82 1.06804 1.37617 0
M  V30 20569 C 2283.95 2.17781 2.62267 0
M  V30 20570 H 2285.14 2.84694 0.942825 0
M  V30 20571 H 2282.7 1.49512 0.455627 0
M  V30 20572 H 2283.43 1.27778 2.98066 0
M  V30 20573 H 2283.22 2.99439 2.53138 0
M  V30 20574 H 2284.71 2.46699 3.36941 0
M  V30 20575 N 2285.14 -0.481893 1.50052 0
M  V30 20576 C 2286.11 -1.56357 1.67586 0
M  V30 20577 C 2287.11 -1.51213 0.54692 0
M  V30 20578 O 2288.3 -1.54025 0.813752 0
M  V30 20579 C 2285.43 -2.96 1.69105 0
M  V30 20580 H 2286.62 -1.42131 2.64081 0
M  V30 20581 H 2284.17 -0.707509 1.3937 0
M  V30 20582 H 2284.91 -3.15682 0.742644 0
M  V30 20583 H 2284.69 -3.01141 2.5111 0
M  V30 20584 H 2286.18 -3.74552 1.84662 0
M  V30 20585 N 2286.62 -1.39448 -0.734313 0
M  V30 20586 C 2288.03 -1.32768 -1.31261 0
M  V30 20587 C 2288.38 0.00764048 -1.96199 0
M  V30 20588 O 2287.51 0.909762 -1.96347 0
M  V30 20589 C 2288.1 -2.40454 -2.38678 0
M  V30 20590 C 2286.66 -2.37293 -2.92179 0
M  V30 20591 C 2285.81 -2.22307 -1.65756 0
M  V30 20592 H 2288.76 -1.49525 -0.531773 0
M  V30 20593 H 2288.78 -2.07282 -3.19084 0
M  V30 20594 H 2288.29 -3.37629 -1.91386 0
M  V30 20595 H 2286.39 -1.4376 -3.4375 0
M  V30 20596 H 2286.51 -3.32176 -3.45247 0
M  V30 20597 H 2284.87 -1.69492 -1.90117 0
M  V30 20598 H 2285.65 -3.21451 -1.20515 0
M  V30 20599 N 2288.1 0.964571 -1.24635 0
M  V30 20600 C 2289.03 2.07739 -1.06614 0
M  V30 20601 C 2290.01 1.70086 0.0218367 0
M  V30 20602 O 2291.19 1.93652 -0.145827 0
M  V30 20603 C 2288.32 3.40707 -0.673503 0
M  V30 20604 C 2287.28 3.92329 -1.71061 0
M  V30 20605 C 2286.6 5.21676 -1.17294 0
M  V30 20606 C 2287.9 4.19818 -3.10725 0
M  V30 20607 H 2289.6 2.23073 -1.99697 0
M  V30 20608 H 2287.14 1.07193 -0.961539 0
M  V30 20609 H 2289.1 4.17998 -0.534418 0
M  V30 20610 H 2287.82 3.25283 0.293016 0
M  V30 20611 H 2286.48 3.17198 -1.83796 0
M  V30 20612 H 2286.13 5.02614 -0.196935 0
M  V30 20613 H 2285.83 5.57183 -1.86602 0
M  V30 20614 H 2287.35 6.01573 -1.04604 0
M  V30 20615 H 2288.77 4.87802 -3.01201 0
M  V30 20616 H 2287.16 4.6656 -3.77414 0
M  V30 20617 H 2288.23 3.26473 -3.5853 0
M  V30 20618 N 2289.58 1.0606 1.16572 0
M  V30 20619 C 2290.99 0.800661 1.6866 0
M  V30 20620 C 2291.34 -0.676048 1.84185 0
M  V30 20621 O 2290.46 -1.52464 1.5357 0
M  V30 20622 C 2291.06 1.44682 3.06354 0
M  V30 20623 C 2289.62 1.23471 3.55573 0
M  V30 20624 C 2288.76 1.52481 2.31613 0
M  V30 20625 H 2291.72 1.22439 1.00967 0
M  V30 20626 H 2291.74 0.860853 3.70634 0
M  V30 20627 H 2291.25 2.52157 2.95023 0
M  V30 20628 H 2289.35 0.179592 3.72167 0
M  V30 20629 H 2289.46 1.94578 4.37808 0
M  V30 20630 H 2287.83 0.945251 2.3651 0
M  V30 20631 H 2288.61 2.6111 2.22882 0
M  V30 20632 N 2291.06 -1.33168 0.84285 0
M  V30 20633 C 2291.99 -2.27099 0.223902 0
M  V30 20634 C 2292.97 -1.49845 -0.631285 0
M  V30 20635 O 2294.15 -1.79006 -0.590677 0
M  V30 20636 C 2291.28 -3.31696 -0.685254 0
M  V30 20637 C 2290.32 -4.26394 0.0949939 0
M  V30 20638 S 2291.16 -5.15339 1.45555 0
M  V30 20639 C 2292.31 -6.23463 0.551794 0
M  V30 20640 H 2292.55 -2.79247 1.0202 0
M  V30 20641 H 2290.08 -1.40519 0.639821 0
M  V30 20642 H 2292.04 -3.92441 -1.20419 0
M  V30 20643 H 2290.7 -2.78354 -1.45525 0
M  V30 20644 H 2289.89 -5.00452 -0.596971 0
M  V30 20645 H 2289.49 -3.70006 0.545119 0
M  V30 20646 H 2291.78 -6.77043 -0.248758 0
M  V30 20647 H 2292.73 -6.96751 1.26266 0
M  V30 20648 H 2293.14 -5.64347 0.131374 0
M  V30 20649 N 2292.53 -0.599659 -1.45746 0
M  V30 20650 C 2293.47 0.172512 -2.27547 0
M  V30 20651 C 2294.44 0.881092 -1.36658 0
M  V30 20652 O 2295.63 0.891566 -1.66082 0
M  V30 20653 C 2292.76 1.24897 -3.14831 0
M  V30 20654 C 2291.8 0.644391 -4.21604 0
M  V30 20655 S 2292.63 -0.5417 -5.32753 0
M  V30 20656 C 2293.79 0.535546 -6.23605 0
M  V30 20657 H 2294.02 -0.52152 -2.9269 0
M  V30 20658 H 2291.56 -0.386973 -1.49472 0
M  V30 20659 H 2293.51 1.8652 -3.65678 0
M  V30 20660 H 2292.18 1.91504 -2.48968 0
M  V30 20661 H 2291.37 1.45408 -4.82569 0
M  V30 20662 H 2290.97 0.103469 -3.73857 0
M  V30 20663 H 2293.26 1.41675 -6.62521 0
M  V30 20664 H 2294.21 -0.0377491 -7.0809 0
M  V30 20665 H 2294.61 0.847312 -5.58105 0
M  V30 20666 N 2294.01 1.53925 -0.338371 0
M  V30 20667 C 2295.42 1.86123 0.146619 0
M  V30 20668 C 2295.77 1.25972 1.50417 0
M  V30 20669 O 2294.9 0.571331 2.08722 0
M  V30 20670 C 2295.49 3.377 0.27282 0
M  V30 20671 C 2294.05 3.69795 0.702038 0
M  V30 20672 C 2293.2 2.76795 -0.167352 0
M  V30 20673 H 2296.15 1.48561 -0.558149 0
M  V30 20674 H 2296.17 3.64216 1.10121 0
M  V30 20675 H 2295.68 3.8145 -0.715374 0
M  V30 20676 H 2293.78 3.31587 1.69944 0
M  V30 20677 H 2293.9 4.76531 0.49552 0
M  V30 20678 H 2292.26 2.5215 0.359483 0
M  V30 20679 H 2293.04 3.23373 -1.15258 0
M  V30 20680 N 2295.49 0.0668712 1.57458 0
M  V30 20681 C 2296.42 -0.899726 2.1547 0
M  V30 20682 C 2297.4 -1.31379 1.08044 0
M  V30 20683 O 2298.59 -1.38572 1.36057 0
M  V30 20684 C 2295.72 -2.16907 2.71236 0
M  V30 20685 C 2294.67 -1.89456 3.83784 0
M  V30 20686 C 2294 -3.22978 4.26133 0
M  V30 20687 C 2295.3 -1.20372 5.0824 0
M  V30 20688 H 2296.99 -0.416477 2.96489 0
M  V30 20689 H 2294.54 -0.198883 1.4262 0
M  V30 20690 H 2296.49 -2.84939 3.10463 0
M  V30 20691 H 2295.21 -2.67465 1.8743 0
M  V30 20692 H 2293.87 -1.2383 3.45053 0
M  V30 20693 H 2293.52 -3.71368 3.39256 0
M  V30 20694 H 2293.22 -3.05404 5.01998 0
M  V30 20695 H 2294.74 -3.92217 4.67973 0
M  V30 20696 H 2296.16 -1.78466 5.44814 0
M  V30 20697 H 2294.55 -1.13073 5.89351 0
M  V30 20698 H 2295.62 -0.182068 4.84558 0
M  V30 20699 N 2296.97 -1.56239 -0.206647 0
M  V30 20700 C 2298.19 -1.84392 -0.949442 0
M  V30 20701 C 2298.62 -0.649047 -1.76547 0
M  V30 20702 O 2297.98 0.4022 -1.76782 0
M  V30 20703 C 2298.02 -3.10672 -1.83073 0
M  V30 20704 O 2297.13 -2.90412 -2.92805 0
M  V30 20705 H 2296.47 -0.607503 -0.268022 0
M  V30 20706 H 2299 -2.03462 -0.215453 0
M  V30 20707 H 2299.01 -3.41165 -2.23764 0
M  V30 20708 H 2297.68 -3.97263 -1.23105 0
M  V30 20709 H 2296.26 -2.71189 -2.55951 0
M  V30 20710 N 2298.45 0.473929 -1.50305 0
M  V30 20711 C 2299.36 1.59817 -1.71743 0
M  V30 20712 C 2300.37 1.6331 -0.600486 0
M  V30 20713 O 2301.55 1.81231 -0.878473 0
M  V30 20714 C 2298.61 2.96049 -1.80433 0
M  V30 20715 C 2297.67 3.02967 -3.04154 0
M  V30 20716 C 2296.91 4.32701 -3.12419 0
M  V30 20717 O 2297.13 5.23045 -2.27551 0
M  V30 20718 O 2296.06 4.45152 -4.05121 0
M  V30 20719 H 2299.89 1.44653 -2.67038 0
M  V30 20720 H 2297.47 0.653124 -1.34368 0
M  V30 20721 H 2299.36 3.76967 -1.88345 0
M  V30 20722 H 2298.03 3.11418 -0.883211 0
M  V30 20723 H 2296.94 2.21137 -3.01744 0
M  V30 20724 H 2298.27 2.92534 -3.95834 0
M  V30 20725 N 2299.92 1.39835 0.726907 0
M  V30 20726 C 2300.83 1.41492 1.87128 0
M  V30 20727 C 2301.85 0.308787 1.71238 0
M  V30 20728 O 2303.03 0.551563 1.937 0
M  V30 20729 C 2300.09 1.26473 3.22809 0
M  V30 20730 C 2299.15 2.4713 3.51034 0
M  V30 20731 C 2298.38 2.32818 4.80241 0
M  V30 20732 O 2298.61 1.33595 5.54534 0
M  V30 20733 O 2297.54 3.21966 5.08548 0
M  V30 20734 H 2301.37 2.37974 1.88686 0
M  V30 20735 H 2298.95 1.21037 0.875815 0
M  V30 20736 H 2300.83 1.20262 4.03875 0
M  V30 20737 H 2299.51 0.330919 3.22004 0
M  V30 20738 H 2298.42 2.58919 2.70022 0
M  V30 20739 H 2299.75 3.39233 3.56626 0
M  V30 20740 N 2301.4 -0.957948 1.25144 0
M  V30 20741 C 2302.36 -2.03567 1.05324 0
M  V30 20742 C 2303.36 -1.60798 0.00718027 0
M  V30 20743 O 2304.55 -1.7241 0.24906 0
M  V30 20744 C 2301.69 -3.35606 0.598453 0
M  V30 20745 H 2302.88 -2.22583 2.0099 0
M  V30 20746 H 2300.43 -1.13457 1.07504 0
M  V30 20747 H 2301.17 -3.22285 -0.360957 0
M  V30 20748 H 2300.95 -3.67995 1.35358 0
M  V30 20749 H 2302.44 -4.14819 0.481113 0
M  V30 20750 N 2302.88 -1.06677 -1.16008 0
M  V30 20751 C 2304.13 -0.78085 -1.85972 0
M  V30 20752 C 2304.44 0.695412 -1.82821 0
M  V30 20753 O 2305.65 1.09585 -2.48402 0
M  V30 20754 C 2304.1 -1.3467 -3.33754 0
M  V30 20755 C 2303.71 -2.85349 -3.45369 0
M  V30 20756 C 2305.46 -1.1385 -4.08948 0
M  V30 20757 C 2303.36 -3.35159 -4.8726 0
M  V30 20758 H 2302.29 -0.28842 -0.696656 0
M  V30 20759 H 2304.94 -1.28597 -1.30901 0
M  V30 20760 H 2303.33 -0.769342 -3.88455 0
M  V30 20761 H 2304.5 -3.4907 -3.0081 0
M  V30 20762 H 2302.81 -3.04881 -2.83613 0
M  V30 20763 H 2305.41 -1.48549 -5.13651 0
M  V30 20764 H 2305.75 -0.0771014 -4.16229 0
M  V30 20765 H 2306.29 -1.68186 -3.60497 0
M  V30 20766 H 2303.03 -4.40795 -4.8516 0
M  V30 20767 H 2302.55 -2.76188 -5.32428 0
M  V30 20768 H 2304.23 -3.30714 -5.56091 0
M  V30 20769 N 2304.36 1.32719 -0.8499 0
M  V30 20770 C 2305.77 1.50218 -0.539128 0
M  V30 20771 C 2305.97 1.7869 0.931239 0
M  V30 20772 O 2305.03 1.85366 1.71452 0
M  V30 20773 C 2306.34 2.64952 -1.42201 0
M  V30 20774 C 2307.89 2.78837 -1.42194 0
M  V30 20775 C 2308.37 3.96644 -2.28992 0
M  V30 20776 N 2309.86 4.03898 -2.26761 0
M  V30 20777 C 2310.59 4.94276 -2.90653 0
M  V30 20778 N 2310.09 5.89693 -3.63639 0
M  V30 20779 N 2311.88 4.8736 -2.80066 0
M  V30 20780 H 2304.03 1.12503 -1.80158 0
M  V30 20781 H 2306.29 0.554071 -0.769226 0
M  V30 20782 H 2306 2.50627 -2.46737 0
M  V30 20783 H 2305.87 3.60622 -1.10597 0
M  V30 20784 H 2308.26 2.92588 -0.384242 0
M  V30 20785 H 2308.34 1.83895 -1.7781 0
M  V30 20786 H 2307.99 3.83652 -3.32826 0
M  V30 20787 H 2307.92 4.90853 -1.9071 0
M  V30 20788 H 2310.41 3.35617 -1.73694 0
M  V30 20789 H 2310.72 6.55342 -4.09569 0
M  V30 20790 H 2309.07 5.89735 -3.67747 0
M  V30 20791 H 2312.26 4.11785 -2.226 0
M  V30 20792 H 2312.43 5.57593 -3.30142 0
M  V30 20793 N 2305.84 0.60738 1.45426 0
M  V30 20794 C 2307.25 0.187567 1.85755 0
M  V30 20795 C 2307.6 -1.25548 1.50772 0
M  V30 20796 O 2306.72 -1.95191 0.934304 0
M  V30 20797 C 2307.32 0.333632 3.37153 0
M  V30 20798 C 2305.88 -0.031488 3.76387 0
M  V30 20799 C 2305.02 0.658164 2.69376 0
M  V30 20800 H 2307.98 0.814074 1.3623 0
M  V30 20801 H 2308 -0.434213 3.78014 0
M  V30 20802 H 2307.51 1.38399 3.62584 0
M  V30 20803 H 2305.61 -1.08104 3.56573 0
M  V30 20804 H 2305.72 0.362019 4.7773 0
M  V30 20805 H 2304.09 0.095832 2.5452 0
M  V30 20806 H 2304.87 1.71066 2.97643 0
M  V30 20807 N 2307.31 -1.53743 0.34653 0
M  V30 20808 C 2308.54 -2.05082 -0.250011 0
M  V30 20809 C 2308.95 -1.22101 -1.44527 0
M  V30 20810 O 2308.3 -0.249949 -1.81992 0
M  V30 20811 C 2308.36 -3.52096 -0.725872 0
M  V30 20812 C 2308.02 -4.55657 0.350133 0
M  V30 20813 C 2309.02 -5.06008 1.19381 0
M  V30 20814 C 2306.7 -4.99756 0.504915 0
M  V30 20815 C 2308.7 -5.99042 2.17779 0
M  V30 20816 C 2306.38 -5.92599 1.49228 0
M  V30 20817 C 2307.38 -6.42131 2.32717 0
M  V30 20818 O 2307.07 -7.33148 3.29772 0
M  V30 20819 H 2306.8 -0.674033 -0.0515351 0
M  V30 20820 H 2309.36 -1.99282 0.497594 0
M  V30 20821 H 2307.59 -3.5537 -1.52477 0
M  V30 20822 H 2309.28 -3.8639 -1.24329 0
M  V30 20823 H 2310.04 -4.727 1.08533 0
M  V30 20824 H 2305.92 -4.60802 -0.135097 0
M  V30 20825 H 2309.46 -6.37626 2.82982 0
M  V30 20826 H 2305.36 -6.25323 1.60131 0
M  V30 20827 H 2306.13 -7.5109 3.25279 0
M  V30 20828 N 2308.79 -0.0752207 -1.5742 0
M  V30 20829 C 2310.04 0.593991 -1.93906 0
M  V30 20830 C 2310.37 1.69055 -0.955731 0
M  V30 20831 O 2309.65 1.94495 0.0145031 0
M  V30 20832 C 2309.93 1.16774 -3.4064 0
M  V30 20833 C 2309.78 0.0776002 -4.49733 0
M  V30 20834 C 2311.1 2.07221 -3.88262 0
M  V30 20835 H 2308.22 0.214454 -0.705109 0
M  V30 20836 H 2310.86 -0.141887 -1.89469 0
M  V30 20837 H 2309.01 1.79488 -3.44552 0
M  V30 20838 H 2310.68 -0.555653 -4.57941 0
M  V30 20839 H 2308.93 -0.591361 -4.2975 0
M  V30 20840 H 2309.6 0.519507 -5.4955 0
M  V30 20841 H 2312.07 1.54438 -3.86378 0
M  V30 20842 H 2310.95 2.44299 -4.91537 0
M  V30 20843 H 2311.21 2.98185 -3.26402 0
M  V30 20844 N 2310.27 1.56347 0.198358 0
M  V30 20845 C 2311.5 1.84893 0.93965 0
M  V30 20846 C 2311.92 0.6584 1.76201 0
M  V30 20847 O 2311.28 -0.39282 1.76993 0
M  V30 20848 C 2311.33 3.11638 1.81422 0
M  V30 20849 O 2310.43 2.91961 2.9126 0
M  V30 20850 H 2309.77 0.608916 0.264796 0
M  V30 20851 H 2312.3 2.03574 0.20466 0
M  V30 20852 H 2312.31 3.42347 2.21952 0
M  V30 20853 H 2310.99 3.9791 1.20997 0
M  V30 20854 H 2309.56 2.72542 2.54509 0
M  V30 20855 N 2311.75 -0.465951 1.50554 0
M  V30 20856 C 2313.16 -0.80013 1.38094 0
M  V30 20857 C 2313.36 -1.96614 0.441023 0
M  V30 20858 O 2312.42 -2.5224 -0.114454 0
M  V30 20859 C 2313.73 -1.10737 2.79567 0
M  V30 20860 C 2315.28 -1.21352 2.88518 0
M  V30 20861 C 2315.76 -1.55385 4.30836 0
M  V30 20862 N 2317.25 -1.62367 4.3381 0
M  V30 20863 C 2317.98 -1.90216 5.4093 0
M  V30 20864 N 2317.48 -2.1605 6.58251 0
M  V30 20865 N 2319.27 -1.91761 5.28379 0
M  V30 20866 H 2311.42 0.302403 2.10236 0
M  V30 20867 H 2313.69 0.0727912 0.945201 0
M  V30 20868 H 2313.39 -0.323599 3.50208 0
M  V30 20869 H 2313.27 -2.04228 3.17129 0
M  V30 20870 H 2315.65 -1.98795 2.18093 0
M  V30 20871 H 2315.73 -0.258276 2.54493 0
M  V30 20872 H 2315.38 -0.784801 5.018 0
M  V30 20873 H 2315.31 -2.52068 4.62352 0
M  V30 20874 H 2317.8 -1.44421 3.49215 0
M  V30 20875 H 2318.11 -2.36588 7.35694 0
M  V30 20876 H 2316.46 -2.13432 6.61417 0
M  V30 20877 H 2319.65 -1.71078 4.35718 0
M  V30 20878 H 2319.82 -2.13128 6.11948 0
M  V30 20879 N 2313.23 -1.40218 -0.719481 0
M  V30 20880 C 2314.47 -1.39732 -1.49179 0
M  V30 20881 C 2314.83 0.00247239 -1.92 0
M  V30 20882 O 2316.03 0.132432 -2.68474 0
M  V30 20883 C 2314.3 -2.35587 -2.68763 0
M  V30 20884 S 2315.86 -2.53425 -3.5822 0
M  V30 20885 H 2312.68 -0.495316 -0.510082 0
M  V30 20886 H 2315.28 -1.76453 -0.841693 0
M  V30 20887 H 2313.99 -3.36128 -2.35469 0
M  V30 20888 H 2313.52 -2.00136 -3.38688 0
M  V30 20889 H 2315.53 -1.78375 -4.6303 0
M  V30 20890 N 2314.7 0.951297 -1.25651 0
M  V30 20891 C 2315.67 2.03005 -1.06402 0
M  V30 20892 C 2316.67 1.60792 -0.0157077 0
M  V30 20893 O 2317.86 1.72276 -0.2582 0
M  V30 20894 C 2314.99 3.35284 -0.616243 0
M  V30 20895 H 2316.18 2.21514 -2.02168 0
M  V30 20896 H 2313.74 1.12885 -1.08105 0
M  V30 20897 H 2314.47 3.22472 0.343861 0
M  V30 20898 H 2314.26 3.67272 -1.37308 0
M  V30 20899 H 2315.75 4.14558 -0.503105 0
M  V30 20900 N 2316.18 1.07291 1.1544 0
M  V30 20901 C 2317.43 0.796879 1.86488 0
M  V30 20902 C 2317.76 -0.675339 1.82079 0
M  V30 20903 O 2317.04 -1.49558 1.24349 0
M  V30 20904 C 2317.32 1.30495 3.35624 0
M  V30 20905 C 2317.17 2.84167 3.48668 0
M  V30 20906 C 2318.49 0.920983 4.30356 0
M  V30 20907 H 2315.61 0.290951 0.677139 0
M  V30 20908 H 2318.25 1.33058 1.3563 0
M  V30 20909 H 2316.4 0.850949 3.79066 0
M  V30 20910 H 2318.07 3.37851 3.14093 0
M  V30 20911 H 2316.32 3.22396 2.90247 0
M  V30 20912 H 2316.99 3.14785 4.53447 0
M  V30 20913 H 2319.46 1.31217 3.94869 0
M  V30 20914 H 2318.34 1.30382 5.3319 0
M  V30 20915 H 2318.6 -0.173149 4.41761 0
M  V30 20916 N 2317.66 -1.32267 0.856927 0
M  V30 20917 C 2318.9 -1.98976 0.46774 0
M  V30 20918 C 2319.26 -1.66323 -0.959202 0
M  V30 20919 O 2320.47 -2.26141 -1.45306 0
M  V30 20920 C 2318.74 -3.50425 0.702621 0
M  V30 20921 S 2320.3 -4.36868 0.411346 0
M  V30 20922 H 2317.11 -0.689093 0.175133 0
M  V30 20923 H 2319.72 -1.60923 1.11013 0
M  V30 20924 H 2318.42 -3.7168 1.74018 0
M  V30 20925 H 2317.95 -3.93372 0.0467398 0
M  V30 20926 H 2319.97 -4.90319 -0.761713 0
M  V30 20927 N 2319.14 -0.615084 -1.45102 0
M  V30 20928 C 2320.05 0.100993 -2.34383 0
M  V30 20929 C 2321.06 0.852559 -1.51682 0
M  V30 20930 O 2322.24 0.808452 -1.84461 0
M  V30 20931 C 2319.31 1.08093 -3.29419 0
M  V30 20932 C 2318.37 0.330502 -4.28026 0
M  V30 20933 C 2317.6 1.26376 -5.18522 0
M  V30 20934 O 2317.82 2.50189 -5.12603 0
M  V30 20935 O 2316.76 0.756761 -5.97124 0
M  V30 20936 H 2320.58 -0.632907 -2.97032 0
M  V30 20937 H 2318.17 -0.375319 -1.44609 0
M  V30 20938 H 2320.05 1.64513 -3.87961 0
M  V30 20939 H 2318.72 1.79573 -2.69324 0
M  V30 20940 H 2317.63 -0.276349 -3.73078 0
M  V30 20941 H 2318.96 -0.343952 -4.90997 0
M  V30 20942 N 2320.62 1.53557 -0.354678 0
M  V30 20943 C 2321.58 2.2402 0.484526 0
M  V30 20944 C 2322.58 1.24424 1.01859 0
M  V30 20945 O 2323.77 1.48782 0.906071 0
M  V30 20946 C 2320.9 2.9685 1.6761 0
M  V30 20947 H 2322.1 2.9961 -0.131895 0
M  V30 20948 H 2319.65 1.55939 -0.106193 0
M  V30 20949 H 2320.38 2.25475 2.33091 0
M  V30 20950 H 2320.17 3.69914 1.30023 0
M  V30 20951 H 2321.66 3.50445 2.27108 0
M  V30 20952 N 2322.1 0.083568 1.57378 0
M  V30 20953 C 2323.51 -0.447326 1.81262 0
M  V30 20954 C 2323.86 -1.689 0.998361 0
M  V30 20955 O 2322.98 -2.15234 0.22432 0
M  V30 20956 C 2323.58 -0.818328 3.28769 0
M  V30 20957 C 2322.14 -1.29402 3.53457 0
M  V30 20958 C 2321.28 -0.284976 2.75832 0
M  V30 20959 H 2324.23 0.309142 1.5566 0
M  V30 20960 H 2324.26 -1.67881 3.41462 0
M  V30 20961 H 2323.77 0.0855701 3.88006 0
M  V30 20962 H 2321.87 -2.21602 2.99538 0
M  V30 20963 H 2321.98 -1.26382 4.6213 0
M  V30 20964 H 2320.35 -0.764725 2.42949 0
M  V30 20965 H 2321.13 0.6114 3.37812 0
M  V30 20966 N 2323.57 -1.5645 -0.190064 0
M  V30 20967 C 2324.54 -1.94082 -1.21921 0
M  V30 20968 C 2325.54 -0.822455 -1.38175 0
M  V30 20969 O 2326.73 -1.0898 -1.35901 0
M  V30 20970 C 2323.86 -2.21926 -2.58769 0
M  V30 20971 H 2325.05 -2.86158 -0.897413 0
M  V30 20972 H 2322.6 -1.50218 -0.431784 0
M  V30 20973 H 2323.34 -1.32504 -2.95995 0
M  V30 20974 H 2323.12 -3.03428 -2.48342 0
M  V30 20975 H 2324.61 -2.52028 -3.32974 0
M  V30 20976 N 2325.05 0.45796 -1.50799 0
M  V30 20977 C 2325.98 1.57208 -1.66788 0
M  V30 20978 C 2327 1.53264 -0.548989 0
M  V30 20979 O 2328.19 1.58414 -0.822628 0
M  V30 20980 C 2325.29 2.9611 -1.64839 0
M  V30 20981 C 2324.46 3.24782 -2.92977 0
M  V30 20982 C 2323.52 4.43304 -2.83493 0
M  V30 20983 O 2322.54 4.42967 -3.57448 0
M  V30 20984 N 2323.75 5.45711 -1.97939 0
M  V30 20985 H 2326.51 1.43904 -2.62891 0
M  V30 20986 H 2324.07 0.646591 -1.48428 0
M  V30 20987 H 2326.06 3.73387 -1.5609 0
M  V30 20988 H 2324.63 3.03116 -0.764171 0
M  V30 20989 H 2323.85 2.35995 -3.15753 0
M  V30 20990 H 2325.14 3.40756 -3.7784 0
M  V30 20991 H 2324.54 5.48812 -1.37192 0
M  V30 20992 H 2323.1 6.21921 -1.95084 0
M  V30 20993 N 2326.53 1.40598 0.712035 0
M  V30 20994 C 2327.49 1.40891 1.80783 0
M  V30 20995 C 2328.49 0.30213 1.57936 0
M  V30 20996 O 2329.68 0.561211 1.64912 0
M  V30 20997 C 2326.81 1.20414 3.18925 0
M  V30 20998 H 2328.01 2.38422 1.8192 0
M  V30 20999 H 2325.56 1.26499 0.918028 0
M  V30 21000 H 2326.3 0.236579 3.23436 0
M  V30 21001 H 2326.08 2.00588 3.36908 0
M  V30 21002 H 2327.57 1.23415 3.98947 0
M  V30 21003 N 2328.01 -0.94462 1.26153 0
M  V30 21004 C 2329.25 -1.69292 1.1166 0
M  V30 21005 C 2329.59 -1.91202 -0.339893 0
M  V30 21006 O 2328.86 -1.49021 -1.24992 0
M  V30 21007 C 2329.14 -3.06981 1.88242 0
M  V30 21008 C 2329 -2.92418 3.41777 0
M  V30 21009 C 2330.32 -4.0704 1.6735 0
M  V30 21010 H 2327.44 -0.614417 0.407015 0
M  V30 21011 H 2330.08 -1.09735 1.55108 0
M  V30 21012 H 2328.23 -3.57821 1.51315 0
M  V30 21013 H 2329.9 -2.48825 3.88438 0
M  V30 21014 H 2328.14 -2.28118 3.68978 0
M  V30 21015 H 2328.81 -3.9006 3.90586 0
M  V30 21016 H 2331.29 -3.65148 1.99515 0
M  V30 21017 H 2330.17 -5.01402 2.23354 0
M  V30 21018 H 2330.43 -4.3777 0.617235 0
M  V30 21019 N 2329.49 -1.07901 -1.1487 0
M  V30 21020 C 2330.45 -0.708199 -2.17984 0
M  V30 21021 C 2331.45 0.254393 -1.58775 0
M  V30 21022 O 2332.64 0.0346144 -1.74166 0
M  V30 21023 C 2329.77 -0.0447528 -3.40871 0
M  V30 21024 H 2330.96 -1.6212 -2.52303 0
M  V30 21025 H 2328.52 -0.876241 -1.29428 0
M  V30 21026 H 2329.25 0.880227 -3.12126 0
M  V30 21027 H 2329.04 -0.737159 -3.85108 0
M  V30 21028 H 2330.53 0.199836 -4.17122 0
M  V30 21029 N 2330.96 1.31811 -0.863929 0
M  V30 21030 C 2332.21 1.97217 -0.47257 0
M  V30 21031 C 2332.54 1.68161 0.971364 0
M  V30 21032 O 2331.82 0.974827 1.68307 0
M  V30 21033 C 2332.1 3.52765 -0.723116 0
M  V30 21034 C 2331.95 3.91417 -2.21614 0
M  V30 21035 C 2333.27 4.39708 -0.185599 0
M  V30 21036 H 2330.39 0.716366 -0.173171 0
M  V30 21037 H 2333.03 1.56039 -1.08406 0
M  V30 21038 H 2331.18 3.87971 -0.202645 0
M  V30 21039 H 2332.86 3.66343 -2.80341 0
M  V30 21040 H 2331.1 3.40241 -2.69106 0
M  V30 21041 H 2331.77 4.99849 -2.34212 0
M  V30 21042 H 2334.25 4.11291 -0.630798 0
M  V30 21043 H 2333.12 5.4751 -0.390402 0
M  V30 21044 H 2333.38 4.32588 0.912153 0
M  V30 21045 N 2332.44 0.62277 1.44773 0
M  V30 21046 C 2333.39 -0.108849 2.2774 0
M  V30 21047 C 2334.38 -0.82415 1.3819 0
M  V30 21048 O 2335.57 -0.711636 1.62064 0
M  V30 21049 C 2332.7 -1.0954 3.25355 0
M  V30 21050 C 2331.78 -0.380158 4.22393 0
M  V30 21051 N 2332.17 0.586623 5.02387 0
M  V30 21052 C 2330.47 -0.625715 4.41589 0
M  V30 21053 C 2331.17 1.00844 5.72892 0
M  V30 21054 N 2330.15 0.348973 5.42479 0
M  V30 21055 H 2333.95 0.633461 2.86992 0
M  V30 21056 H 2331.46 0.447617 1.56109 0
M  V30 21057 H 2333.46 -1.63407 3.83541 0
M  V30 21058 H 2332.12 -1.83811 2.67664 0
M  V30 21059 H 2333.13 0.964064 5.08848 0
M  V30 21060 H 2329.81 -1.35193 3.95005 0
M  V30 21061 H 2331.2 1.80667 6.47154 0
M  V30 21062 N 2333.92 -1.53367 0.362817 0
M  V30 21063 C 2335.14 -2.06107 -0.23119 0
M  V30 21064 C 2335.57 -1.23477 -1.41898 0
M  V30 21065 O 2334.93 -0.25316 -1.79524 0
M  V30 21066 C 2334.98 -3.55481 -0.605461 0
M  V30 21067 O 2334.08 -3.75593 -1.70305 0
M  V30 21068 H 2333.42 -0.663113 -0.0343154 0
M  V30 21069 H 2335.95 -1.97813 0.522619 0
M  V30 21070 H 2335.96 -3.98458 -0.877244 0
M  V30 21071 H 2334.64 -4.15067 0.263077 0
M  V30 21072 H 2333.21 -3.44514 -1.42704 0
M  V30 21073 N 2335.4 -0.091913 -1.57332 0
M  V30 21074 C 2336.33 0.898131 -2.1087 0
M  V30 21075 C 2337.34 1.24815 -1.04523 0
M  V30 21076 O 2338.53 1.20182 -1.31979 0
M  V30 21077 C 2335.63 2.20816 -2.57087 0
M  V30 21078 C 2334.81 2.03396 -3.87232 0
M  V30 21079 C 2333.86 3.17882 -4.1933 0
M  V30 21080 O 2332.89 2.91985 -4.88603 0
M  V30 21081 N 2334.09 4.43561 -3.74479 0
M  V30 21082 H 2336.86 0.440891 -2.96439 0
M  V30 21083 H 2334.42 0.093278 -1.61631 0
M  V30 21084 H 2336.41 2.96349 -2.75607 0
M  V30 21085 H 2334.98 2.57973 -1.76546 0
M  V30 21086 H 2334.2 1.12211 -3.77892 0
M  V30 21087 H 2335.49 1.8903 -4.72382 0
M  V30 21088 H 2334.89 4.67483 -3.18554 0
M  V30 21089 H 2333.44 5.16054 -3.9816 0
M  V30 21090 N 2336.88 1.56548 0.181765 0
M  V30 21091 C 2338.15 1.72253 0.926734 0
M  V30 21092 C 2338.53 0.650421 2.0083 0
M  V30 21093 O 2337.88 -0.336481 2.26009 0
M  V30 21094 C 2338.09 3.15073 1.50101 0
M  V30 21095 C 2339.44 3.75714 1.97798 0
M  V30 21096 O 2340.46 3.18285 1.59916 0
M  V30 21097 O 2339.32 4.7653 2.67547 0
M  V30 21098 H 2336.42 0.703046 0.435494 0
M  V30 21099 H 2338.96 1.68842 0.170414 0
M  V30 21100 H 2337.73 3.8458 0.722053 0
M  V30 21101 H 2337.36 3.22767 2.3218 0
M  V30 21102 N 2338.35 -0.449957 1.5104 0
M  V30 21103 C 2339.29 -1.56321 1.6762 0
M  V30 21104 C 2340.3 -1.52971 0.55711 0
M  V30 21105 O 2341.49 -1.57976 0.831017 0
M  V30 21106 C 2338.59 -2.95232 1.66407 0
M  V30 21107 C 2337.76 -3.23224 2.94695 0
M  V30 21108 C 2336.82 -4.41794 2.8584 0
M  V30 21109 O 2335.85 -4.41065 3.59792 0
M  V30 21110 N 2337.05 -5.44654 2.0083 0
M  V30 21111 H 2339.81 -1.42508 2.63651 0
M  V30 21112 H 2337.37 -0.638711 1.48769 0
M  V30 21113 H 2339.37 -3.72554 1.58068 0
M  V30 21114 H 2337.94 -3.02706 0.780236 0
M  V30 21115 H 2337.16 -2.34317 3.17 0
M  V30 21116 H 2338.44 -3.38747 3.79642 0
M  V30 21117 H 2337.84 -5.48077 1.401 0
M  V30 21118 H 2336.4 -6.20877 1.98379 0
M  V30 21119 N 2339.83 -1.40974 -0.704569 0
M  V30 21120 C 2341.06 -1.4338 -1.49856 0
M  V30 21121 C 2341.48 -0.0382171 -1.88061 0
M  V30 21122 O 2340.84 0.956398 -1.54022 0
M  V30 21123 C 2340.89 -2.34043 -2.74329 0
M  V30 21124 O 2339.99 -1.79127 -3.71466 0
M  V30 21125 H 2339.33 -0.486982 -0.451381 0
M  V30 21126 H 2341.86 -1.85331 -0.8668 0
M  V30 21127 H 2341.87 -2.49609 -3.22737 0
M  V30 21128 H 2340.55 -3.35451 -2.45857 0
M  V30 21129 H 2339.13 -1.72964 -3.3036 0
M  V30 21130 N 2341.31 0.937917 -1.26653 0
M  V30 21131 C 2342.56 1.67895 -1.11778 0
M  V30 21132 C 2342.87 1.92659 0.337906 0
M  V30 21133 O 2344.08 2.64619 0.607387 0
M  V30 21134 C 2342.53 3.02343 -1.95235 0
M  V30 21135 C 2342.14 2.85314 -3.45398 0
M  V30 21136 C 2343.89 3.80115 -1.88979 0
M  V30 21137 C 2341.79 4.15255 -4.2109 0
M  V30 21138 H 2340.72 0.62971 -0.414707 0
M  V30 21139 H 2343.37 1.0428 -1.5099 0
M  V30 21140 H 2341.76 3.66956 -1.48859 0
M  V30 21141 H 2342.93 2.2953 -3.99565 0
M  V30 21142 H 2341.25 2.20982 -3.52925 0
M  V30 21143 H 2343.84 4.76388 -2.42814 0
M  V30 21144 H 2344.19 4.07295 -0.861202 0
M  V30 21145 H 2344.72 3.22281 -2.33195 0
M  V30 21146 H 2341.46 3.93258 -5.24431 0
M  V30 21147 H 2340.98 4.70741 -3.71703 0
M  V30 21148 H 2342.66 4.83689 -4.29714 0
M  V30 21149 N 2342.79 1.08509 1.14296 0
M  V30 21150 C 2344.2 0.836257 1.66924 0
M  V30 21151 C 2344.55 -0.636828 1.85577 0
M  V30 21152 O 2343.68 -1.49172 1.5677 0
M  V30 21153 C 2344.27 1.51147 3.03216 0
M  V30 21154 C 2342.83 1.30985 3.52874 0
M  V30 21155 C 2341.98 1.5736 2.28327 0
M  V30 21156 H 2344.93 1.24553 0.983469 0
M  V30 21157 H 2344.95 0.939276 3.68725 0
M  V30 21158 H 2344.46 2.58358 2.89608 0
M  V30 21159 H 2342.56 0.258494 3.71702 0
M  V30 21160 H 2342.67 2.03821 4.33582 0
M  V30 21161 H 2341.04 0.995206 2.34452 0
M  V30 21162 H 2341.82 2.65779 2.17294 0
M  V30 21163 N 2344.27 -1.31351 0.870907 0
M  V30 21164 C 2345.68 -1.78878 0.534745 0
M  V30 21165 C 2346.03 -1.71756 -0.948392 0
M  V30 21166 O 2345.15 -1.28587 -1.74053 0
M  V30 21167 C 2345.75 -3.24799 0.963896 0
M  V30 21168 C 2344.31 -3.70218 0.679376 0
M  V30 21169 C 2343.45 -2.52115 1.15469 0
M  V30 21170 H 2346.41 -1.18419 1.05653 0
M  V30 21171 H 2346.43 -3.79416 0.286958 0
M  V30 21172 H 2345.94 -3.29951 2.04338 0
M  V30 21173 H 2344.04 -3.70567 -0.388704 0
M  V30 21174 H 2344.15 -4.62315 1.25706 0
M  V30 21175 H 2342.52 -2.48138 0.574427 0
M  V30 21176 H 2343.3 -2.60012 2.24162 0
M  V30 21177 N 2345.74 -0.630439 -1.44441 0
M  V30 21178 C 2346.98 -0.137955 -2.03934 0
M  V30 21179 C 2347.35 1.2169 -1.48511 0
M  V30 21180 O 2348.55 1.80145 -1.99502 0
M  V30 21181 C 2346.82 -0.123436 -3.57187 0
M  V30 21182 S 2348.38 0.304527 -4.37742 0
M  V30 21183 H 2345.2 -0.0607477 -0.7084 0
M  V30 21184 H 2347.8 -0.833674 -1.76834 0
M  V30 21185 H 2346.5 -1.11263 -3.9503 0
M  V30 21186 H 2346.03 0.593552 -3.88897 0
M  V30 21187 H 2348.05 1.54889 -4.71406 0
M  V30 21188 N 2347.22 1.53172 -0.370945 0
M  V30 21189 C 2348.63 1.86393 0.107106 0
M  V30 21190 C 2348.98 1.29135 1.47712 0
M  V30 21191 O 2348.11 0.615475 2.07463 0
M  V30 21192 C 2348.7 3.38202 0.201127 0
M  V30 21193 C 2347.26 3.71201 0.623441 0
M  V30 21194 C 2346.41 2.76377 -0.226027 0
M  V30 21195 H 2349.36 1.47344 -0.589536 0
M  V30 21196 H 2349.38 3.6647 1.02371 0
M  V30 21197 H 2348.89 3.79847 -0.796124 0
M  V30 21198 H 2347 3.35117 1.62873 0
M  V30 21199 H 2347.11 4.77474 0.39433 0
M  V30 21200 H 2345.47 2.52856 0.305917 0
M  V30 21201 H 2346.26 3.20856 -1.22092 0
M  V30 21202 N 2348.7 0.100255 1.57281 0
M  V30 21203 C 2349.63 -0.886935 2.11344 0
M  V30 21204 C 2350.65 -1.24259 1.05184 0
M  V30 21205 O 2351.83 -1.1948 1.32615 0
M  V30 21206 C 2348.93 -2.19449 2.58254 0
M  V30 21207 C 2348.11 -2.01339 3.88306 0
M  V30 21208 C 2347.17 -3.15654 4.2101 0
M  V30 21209 O 2346.19 -2.8939 4.90145 0
M  V30 21210 N 2347.39 -4.41568 3.76826 0
M  V30 21211 H 2350.16 -0.425163 2.96669 0
M  V30 21212 H 2347.72 -0.084705 1.61678 0
M  V30 21213 H 2349.71 -2.94883 2.77175 0
M  V30 21214 H 2348.28 -2.57034 1.77912 0
M  V30 21215 H 2347.5 -1.10205 3.78482 0
M  V30 21216 H 2348.79 -1.86522 4.73378 0
M  V30 21217 H 2348.19 -4.65787 3.21029 0
M  V30 21218 H 2346.75 -5.13935 4.00892 0
M  V30 21219 N 2350.18 -1.56643 -0.17346 0
M  V30 21220 C 2351.41 -1.86006 -0.906062 0
M  V30 21221 C 2351.82 -0.685386 -1.7592 0
M  V30 21222 O 2351.18 0.345547 -1.79199 0
M  V30 21223 C 2351.23 -3.14381 -1.78456 0
M  V30 21224 O 2350.95 -4.27321 -0.965839 0
M  V30 21225 C 2352.45 -3.57076 -2.62701 0
M  V30 21226 H 2349.67 -0.61717 -0.26333 0
M  V30 21227 H 2352.22 -2.03757 -0.1742 0
M  V30 21228 H 2350.37 -2.98463 -2.46979 0
M  V30 21229 H 2350.79 -5.00562 -1.56646 0
M  V30 21230 H 2352.26 -4.4981 -3.19961 0
M  V30 21231 H 2352.74 -2.81092 -3.37467 0
M  V30 21232 H 2353.34 -3.75599 -1.99514 0
M  V30 21233 N 2351.66 0.44194 -1.51277 0
M  V30 21234 C 2352.9 1.19047 -1.64922 0
M  V30 21235 C 2353.26 1.89026 -0.358764 0
M  V30 21236 O 2352.55 1.80411 0.645161 0
M  V30 21237 C 2352.75 2.23681 -2.7875 0
M  V30 21238 C 2352.57 1.63972 -4.1874 0
M  V30 21239 C 2351.34 1.42665 -4.84742 0
M  V30 21240 C 2353.54 1.11849 -5.0199 0
M  V30 21241 N 2351.52 0.785052 -6.0886 0
M  V30 21242 C 2352.9 0.60188 -6.17072 0
M  V30 21243 C 2354.95 1.00981 -4.87552 0
M  V30 21244 C 2353.65 -0.0127276 -7.19299 0
M  V30 21245 C 2355.68 0.409103 -5.89983 0
M  V30 21246 C 2355.04 -0.0969889 -7.04333 0
M  V30 21247 H 2351.14 0.42346 -0.657424 0
M  V30 21248 H 2353.72 0.487787 -1.88491 0
M  V30 21249 H 2351.9 2.91343 -2.56853 0
M  V30 21250 H 2353.63 2.90661 -2.816 0
M  V30 21251 H 2350.38 1.68711 -4.42531 0
M  V30 21252 H 2350.81 0.481823 -6.75283 0
M  V30 21253 H 2355.45 1.38696 -3.99404 0
M  V30 21254 H 2353.17 -0.402021 -8.07099 0
M  V30 21255 H 2356.75 0.326977 -5.8088 0
M  V30 21256 H 2355.63 -0.554511 -7.82237 0
M  V30 21257 N 2353.14 1.41345 0.697083 0
M  V30 21258 C 2354.55 1.23781 1.00749 0
M  V30 21259 C 2354.75 0.126101 2.01105 0
M  V30 21260 O 2353.81 -0.509996 2.47296 0
M  V30 21261 C 2355.12 2.58656 1.53354 0
M  V30 21262 C 2356.67 2.65825 1.65246 0
M  V30 21263 C 2357.14 4.01013 2.21253 0
M  V30 21264 N 2358.63 4.02851 2.28615 0
M  V30 21265 C 2359.37 5.04254 2.72975 0
M  V30 21266 N 2358.87 6.16047 3.16951 0
M  V30 21267 N 2360.66 4.91616 2.72526 0
M  V30 21268 H 2352.81 2.12376 0.0322288 0
M  V30 21269 H 2355.07 0.944878 0.0768687 0
M  V30 21270 H 2354.78 3.40751 0.870713 0
M  V30 21271 H 2354.65 2.81036 2.51592 0
M  V30 21272 H 2357.04 1.8409 2.3064 0
M  V30 21273 H 2357.12 2.47257 0.65557 0
M  V30 21274 H 2356.76 4.83196 1.56474 0
M  V30 21275 H 2356.69 4.16921 3.2169 0
M  V30 21276 H 2359.19 3.22135 1.9758 0
M  V30 21277 H 2359.5 6.89293 3.49421 0
M  V30 21278 H 2357.84 6.19585 3.14864 0
M  V30 21279 H 2361.03 4.03365 2.37518 0
M  V30 21280 H 2361.21 5.70781 3.06779 0
M  V30 21281 N 2354.61 -0.931187 1.27148 0
M  V30 21282 C 2355.84 -1.71795 1.16194 0
M  V30 21283 C 2356.26 -1.86035 -0.277971 0
M  V30 21284 O 2355.62 -1.35784 -1.20134 0
M  V30 21285 C 2355.67 -3.09719 1.84679 0
M  V30 21286 O 2354.77 -3.96262 1.14238 0
M  V30 21287 H 2354.11 -0.526714 0.404312 0
M  V30 21288 H 2356.64 -1.16557 1.68154 0
M  V30 21289 H 2356.65 -3.60054 1.919 0
M  V30 21290 H 2355.33 -2.98672 2.89427 0
M  V30 21291 H 2353.91 -3.54704 1.15062 0
M  V30 21292 N 2356.09 -1.09114 -1.13719 0
M  V30 21293 C 2357.02 -0.749423 -2.21147 0
M  V30 21294 C 2358 0.271446 -1.6792 0
M  V30 21295 O 2359.19 0.140217 -1.93693 0
M  V30 21296 C 2356.32 -0.16572 -3.46904 0
M  V30 21297 C 2355.27 -1.11574 -4.13201 0
M  V30 21298 C 2354.6 -0.393903 -5.33247 0
M  V30 21299 C 2355.9 -2.45686 -4.60908 0
M  V30 21300 H 2357.59 -1.64763 -2.49987 0
M  V30 21301 H 2355.14 -0.793647 -1.20155 0
M  V30 21302 H 2357.09 0.0853919 -4.21313 0
M  V30 21303 H 2355.81 0.767658 -3.1745 0
M  V30 21304 H 2354.47 -1.35208 -3.40756 0
M  V30 21305 H 2354.12 0.543511 -5.00055 0
M  V30 21306 H 2353.82 -1.02731 -5.7855 0
M  V30 21307 H 2355.35 -0.151015 -6.10413 0
M  V30 21308 H 2356.76 -2.26278 -5.26755 0
M  V30 21309 H 2355.16 -3.04785 -5.16939 0
M  V30 21310 H 2356.23 -3.06684 -3.75597 0
M  V30 21311 N 2357.57 1.30887 -0.877861 0
M  V30 21312 C 2358.82 1.97087 -0.502808 0
M  V30 21313 C 2359.17 1.68084 0.936244 0
M  V30 21314 O 2358.46 0.971225 1.6516 0
M  V30 21315 C 2358.66 3.50361 -0.705809 0
M  V30 21316 C 2358.49 3.94262 -2.16304 0
M  V30 21317 C 2357.26 4.20214 -2.80621 0
M  V30 21318 C 2359.45 4.07617 -3.13613 0
M  V30 21319 N 2357.44 4.50524 -4.17014 0
M  V30 21320 C 2358.81 4.41728 -4.35059 0
M  V30 21321 C 2360.86 3.9002 -3.09498 0
M  V30 21322 C 2359.57 4.60079 -5.52919 0
M  V30 21323 C 2361.59 4.09569 -4.26623 0
M  V30 21324 C 2360.95 4.44019 -5.46833 0
M  V30 21325 H 2357.05 0.746425 -0.233181 0
M  V30 21326 H 2359.64 1.58259 -1.13411 0
M  V30 21327 H 2357.81 3.88261 -0.104044 0
M  V30 21328 H 2359.54 4.03599 -0.298362 0
M  V30 21329 H 2356.29 4.13149 -2.31528 0
M  V30 21330 H 2356.72 4.69826 -4.87435 0
M  V30 21331 H 2361.36 3.62467 -2.17664 0
M  V30 21332 H 2359.08 4.86477 -6.45264 0
M  V30 21333 H 2362.66 3.9743 -4.249 0
M  V30 21334 H 2361.54 4.58837 -6.35955 0
M  V30 21335 N 2359.05 0.638091 1.44105 0
M  V30 21336 C 2360.3 0.14278 2.01194 0
M  V30 21337 C 2360.61 -1.2453 1.50837 0
M  V30 21338 O 2361.82 -1.835 2.001 0
M  V30 21339 C 2360.27 0.204484 3.59319 0
M  V30 21340 C 2359.88 1.59431 4.18671 0
M  V30 21341 C 2361.62 -0.234004 4.23855 0
M  V30 21342 C 2359.53 1.61075 5.69042 0
M  V30 21343 H 2358.46 0.0496131 0.752366 0
M  V30 21344 H 2361.11 0.79791 1.65244 0
M  V30 21345 H 2359.49 -0.517877 3.92599 0
M  V30 21346 H 2360.67 2.34081 3.96917 0
M  V30 21347 H 2358.98 1.97747 3.66449 0
M  V30 21348 H 2361.58 -0.241349 5.34155 0
M  V30 21349 H 2361.92 -1.26263 3.9669 0
M  V30 21350 H 2362.46 0.436095 3.95402 0
M  V30 21351 H 2359.19 2.61798 6.00951 0
M  V30 21352 H 2358.71 0.907285 5.92898 0
M  V30 21353 H 2360.39 1.34777 6.32807 0
M  V30 21354 N 2360.53 -1.52973 0.379063 0
M  V30 21355 C 2361.77 -2.01048 -0.205978 0
M  V30 21356 C 2362.09 -1.26767 -1.48173 0
M  V30 21357 O 2361.36 -0.384776 -1.92084 0
M  V30 21358 H 2359.94 -0.7428 -0.0791053 0
M  V30 21359 H 2362.61 -1.88152 0.508399 0
M  V30 21360 H 2361.7 -3.09214 -0.423446 0
M  V30 21361 N 2362 -0.108595 -1.57225 0
M  V30 21362 C 2363.23 0.559107 -1.98891 0
M  V30 21363 C 2363.64 1.6142 -0.986918 0
M  V30 21364 O 2362.98 1.83676 0.0298382 0
M  V30 21365 C 2363.05 1.25309 -3.36954 0
M  V30 21366 C 2362.71 0.347168 -4.55679 0
M  V30 21367 C 2363.71 -0.410087 -5.1828 0
M  V30 21368 C 2361.39 0.261279 -5.0162 0
M  V30 21369 C 2363.39 -1.24107 -6.25201 0
M  V30 21370 C 2361.07 -0.573345 -6.08404 0
M  V30 21371 C 2362.07 -1.32316 -6.70061 0
M  V30 21372 O 2361.76 -2.14394 -7.74784 0
M  V30 21373 H 2361.49 0.153481 -0.658346 0
M  V30 21374 H 2364.05 -0.18862 -2.04532 0
M  V30 21375 H 2362.28 2.04767 -3.28036 0
M  V30 21376 H 2363.96 1.81666 -3.62977 0
M  V30 21377 H 2364.73 -0.353542 -4.8371 0
M  V30 21378 H 2360.61 0.834577 -4.53383 0
M  V30 21379 H 2364.15 -1.82681 -6.73256 0
M  V30 21380 H 2360.05 -0.631321 -6.42405 0
M  V30 21381 H 2360.82 -2.07223 -7.91834 0
M  V30 21382 N 2363.48 1.56732 0.16515 0
M  V30 21383 C 2364.71 1.86844 0.90022 0
M  V30 21384 C 2365.13 0.695627 1.74765 0
M  V30 21385 O 2364.49 -0.355188 1.77787 0
M  V30 21386 C 2364.54 3.15416 1.74771 0
M  V30 21387 O 2363.64 2.98073 2.85002 0
M  V30 21388 H 2362.98 0.614396 0.251821 0
M  V30 21389 H 2365.51 2.03962 0.161433 0
M  V30 21390 H 2365.52 3.46978 2.1464 0
M  V30 21391 H 2364.2 4.00387 1.12529 0
M  V30 21392 H 2362.77 2.7788 2.48671 0
M  V30 21393 N 2364.96 -0.433911 1.51509 0
M  V30 21394 C 2366.21 -1.18306 1.64347 0
M  V30 21395 C 2366.53 -1.91114 0.361349 0
M  V30 21396 O 2365.79 -1.84423 -0.65472 0
M  V30 21397 C 2366.09 -2.222 2.79932 0
M  V30 21398 C 2365.76 -1.6638 4.19081 0
M  V30 21399 C 2364.42 -1.50879 4.56934 0
M  V30 21400 C 2366.77 -1.25372 5.05897 0
M  V30 21401 C 2364.1 -0.928506 5.79306 0
M  V30 21402 C 2366.45 -0.687712 6.28851 0
M  V30 21403 C 2365.11 -0.519638 6.65474 0
M  V30 21404 H 2364.38 -0.432912 0.601388 0
M  V30 21405 H 2367.03 -0.473644 1.8555 0
M  V30 21406 H 2365.34 -2.99193 2.52964 0
M  V30 21407 H 2367.03 -2.79992 2.87064 0
M  V30 21408 H 2363.62 -1.79421 3.89238 0
M  V30 21409 H 2367.81 -1.36166 4.77255 0
M  V30 21410 H 2363.06 -0.786079 6.06326 0
M  V30 21411 H 2367.24 -0.361459 6.95461 0
M  V30 21412 H 2364.86 -0.0678643 7.6017 0
M  V30 21413 N 2366.44 -1.41713 -0.689577 0
M  V30 21414 C 2367.37 -1.4681 -1.81574 0
M  V30 21415 C 2368.35 -0.326134 -1.66944 0
M  V30 21416 O 2369.53 -0.53841 -1.86587 0
M  V30 21417 C 2366.66 -1.35541 -3.19759 0
M  V30 21418 C 2365.62 -2.47611 -3.49103 0
M  V30 21419 C 2364.94 -2.21405 -4.86707 0
M  V30 21420 C 2366.24 -3.89945 -3.47477 0
M  V30 21421 H 2367.94 -2.41061 -1.77566 0
M  V30 21422 H 2365.48 -1.16027 -0.852866 0
M  V30 21423 H 2367.44 -1.37717 -3.98261 0
M  V30 21424 H 2366.16 -0.377765 -3.24408 0
M  V30 21425 H 2364.82 -2.44727 -2.72955 0
M  V30 21426 H 2364.47 -1.21969 -4.87988 0
M  V30 21427 H 2364.17 -2.96506 -5.07304 0
M  V30 21428 H 2365.69 -2.25307 -5.67511 0
M  V30 21429 H 2367.11 -3.94512 -4.15973 0
M  V30 21430 H 2365.5 -4.64778 -3.79607 0
M  V30 21431 H 2366.57 -4.1767 -2.46333 0
M  V30 21432 N 2367.92 0.924431 -1.2764 0
M  V30 21433 C 2368.85 2.02625 -1.04969 0
M  V30 21434 C 2369.83 1.62571 0.0309219 0
M  V30 21435 O 2371.01 1.8815 -0.114879 0
M  V30 21436 C 2368.14 3.33469 -0.592978 0
M  V30 21437 C 2367.18 3.92503 -1.66865 0
M  V30 21438 S 2368.02 4.24683 -3.26197 0
M  V30 21439 C 2369.17 5.58604 -2.82335 0
M  V30 21440 H 2369.41 2.21544 -1.98256 0
M  V30 21441 H 2366.94 1.06796 -1.11508 0
M  V30 21442 H 2368.9 4.09121 -0.336158 0
M  V30 21443 H 2367.56 3.12467 0.319884 0
M  V30 21444 H 2366.75 4.86933 -1.30047 0
M  V30 21445 H 2366.35 3.23447 -1.87771 0
M  V30 21446 H 2368.65 6.3804 -2.27841 0
M  V30 21447 H 2369.59 6.00324 -3.75522 0
M  V30 21448 H 2370 5.19281 -2.21376 0
M  V30 21449 N 2369.39 1.09715 1.13139 0
M  V30 21450 C 2370.34 0.708631 2.16708 0
M  V30 21451 C 2371.33 -0.278495 1.58471 0
M  V30 21452 O 2372.52 -0.0883959 1.76779 0
M  V30 21453 C 2369.65 0.133983 3.43038 0
M  V30 21454 C 2368.74 1.1477 4.08275 0
M  V30 21455 N 2369.13 2.33585 4.48633 0
M  V30 21456 C 2367.42 0.986523 4.34953 0
M  V30 21457 C 2368.13 2.98093 4.99515 0
M  V30 21458 N 2367.1 2.25641 4.94557 0
M  V30 21459 H 2370.9 1.61319 2.45669 0
M  V30 21460 H 2368.42 0.973798 1.29965 0
M  V30 21461 H 2370.41 -0.162391 4.16584 0
M  V30 21462 H 2369.07 -0.765391 3.1555 0
M  V30 21463 H 2370.09 2.71158 4.41241 0
M  V30 21464 H 2366.76 0.142081 4.17258 0
M  V30 21465 H 2368.15 3.99117 5.40514 0
M  V30 21466 N 2370.87 -1.30419 0.88479 0
M  V30 21467 C 2372.1 -2.00309 0.51808 0
M  V30 21468 C 2372.52 -1.66326 -0.893378 0
M  V30 21469 O 2371.87 -0.90029 -1.58748 0
M  V30 21470 C 2371.92 -3.54988 0.68306 0
M  V30 21471 O 2371.64 -3.87761 2.03895 0
M  V30 21472 C 2373.15 -4.42148 0.319317 0
M  V30 21473 H 2370.37 -0.640414 0.200277 0
M  V30 21474 H 2372.91 -1.66308 1.19004 0
M  V30 21475 H 2371.06 -3.87356 0.0584733 0
M  V30 21476 H 2371.48 -4.82462 2.05744 0
M  V30 21477 H 2372.95 -5.49859 0.485652 0
M  V30 21478 H 2373.43 -4.32876 -0.74264 0
M  V30 21479 H 2374.04 -4.15225 0.92022 0
M  V30 21480 N 2372.35 -0.645724 -1.43764 0
M  V30 21481 C 2373.6 -0.155767 -2.01499 0
M  V30 21482 C 2373.92 1.23197 -1.51154 0
M  V30 21483 O 2373.19 1.82146 -0.721076 0
M  V30 21484 H 2371.77 -0.0545948 -0.745002 0
M  V30 21485 H 2374.43 -0.835708 -1.76074 0
M  V30 21486 H 2373.53 -0.134631 -3.11809 0
M  V30 21487 N 2373.83 1.5277 -0.38717 0
M  V30 21488 C 2374.79 2.24997 0.436899 0
M  V30 21489 C 2375.79 1.26557 0.991969 0
M  V30 21490 O 2376.98 1.5067 0.874308 0
M  V30 21491 C 2374.11 3.00338 1.61276 0
M  V30 21492 H 2375.31 2.99263 -0.195417 0
M  V30 21493 H 2372.86 1.55679 -0.139246 0
M  V30 21494 H 2373.59 2.30368 2.28256 0
M  V30 21495 H 2373.38 3.72589 1.22147 0
M  V30 21496 H 2374.87 3.55184 2.19623 0
M  V30 21497 N 2375.31 0.116931 1.57166 0
M  V30 21498 C 2376.55 -0.540499 1.94738 0
M  V30 21499 C 2376.88 -1.67347 1.00099 0
M  V30 21500 O 2376.15 -1.95817 0.0569199 0
M  V30 21501 H 2374.73 -0.202656 0.718985 0
M  V30 21502 H 2377.39 0.185388 1.94016 0
M  V30 21503 H 2376.48 -0.936431 2.9772 0
M  V30 21504 N 2376.78 -1.56818 -0.156836 0
M  V30 21505 C 2378.06 -1.73705 -0.899213 0
M  V30 21506 C 2378.44 -0.682289 -1.9977 0
M  V30 21507 O 2377.79 0.300482 -2.26516 0
M  V30 21508 C 2378 -3.17421 -1.45069 0
M  V30 21509 C 2379.35 -3.78813 -1.91796 0
M  V30 21510 O 2380.37 -3.20789 -1.54832 0
M  V30 21511 O 2379.23 -4.80726 -2.59932 0
M  V30 21512 H 2376.32 -0.709886 -0.424254 0
M  V30 21513 H 2378.87 -1.69092 -0.143531 0
M  V30 21514 H 2377.64 -3.8568 -0.660778 0
M  V30 21515 H 2377.27 -3.2642 -2.27016 0
M  V30 21516 N 2378.26 0.425871 -1.51737 0
M  V30 21517 C 2379.19 1.53635 -1.70085 0
M  V30 21518 C 2380.21 1.52065 -0.581375 0
M  V30 21519 O 2381.4 1.56634 -0.856044 0
M  V30 21520 C 2378.5 2.92547 -1.71083 0
M  V30 21521 C 2377.67 3.18494 -2.998 0
M  V30 21522 C 2376.73 4.37191 -2.92833 0
M  V30 21523 O 2375.75 4.35285 -3.66764 0
M  V30 21524 N 2376.96 5.4139 -2.0947 0
M  V30 21525 H 2379.72 1.38295 -2.65884 0
M  V30 21526 H 2377.28 0.614962 -1.49766 0
M  V30 21527 H 2379.27 3.69992 -1.63975 0
M  V30 21528 H 2377.84 3.01427 -0.828295 0
M  V30 21529 H 2377.06 2.29244 -3.20688 0
M  V30 21530 H 2378.35 3.32664 -3.84983 0
M  V30 21531 H 2377.75 5.45779 -1.48802 0
M  V30 21532 H 2376.31 6.17643 -2.08232 0
M  V30 21533 N 2379.74 1.42077 0.682052 0
M  V30 21534 C 2380.99 1.41878 1.43927 0
M  V30 21535 C 2381.31 0.0335942 1.94971 0
M  V30 21536 O 2380.58 -0.926743 1.72593 0
M  V30 21537 H 2379.16 0.522276 0.534076 0
M  V30 21538 H 2381.82 1.77435 0.806396 0
M  V30 21539 H 2380.92 2.11418 2.29584 0
M  V30 21540 N 2381.22 -0.917649 1.28129 0
M  V30 21541 C 2382.47 -1.6631 1.14828 0
M  V30 21542 C 2382.79 -1.9261 -0.304345 0
M  V30 21543 O 2382.06 -1.53949 -1.21146 0
M  V30 21544 H 2380.64 -0.616405 0.421964 0
M  V30 21545 H 2383.3 -1.10131 1.60802 0
M  V30 21546 H 2382.4 -2.62709 1.68494 0
M  V30 21547 N 2382.7 -1.10314 -1.12555 0
M  V30 21548 C 2383.95 -0.843123 -1.83673 0
M  V30 21549 C 2384.27 0.633099 -1.84437 0
M  V30 21550 O 2383.54 1.45962 -1.3066 0
M  V30 21551 H 2382.12 -0.308916 -0.680132 0
M  V30 21552 H 2384.78 -1.39315 -1.36299 0
M  V30 21553 H 2383.87 -1.20485 -2.87906 0
M  V30 21554 N 2384.18 1.29948 -0.891694 0
M  V30 21555 C 2385.11 2.26945 -0.320735 0
M  V30 21556 C 2386.12 1.53984 0.52847 0
M  V30 21557 O 2387.31 1.75096 0.346928 0
M  V30 21558 C 2384.41 3.34208 0.562007 0
M  V30 21559 C 2383.58 4.36629 -0.259652 0
M  V30 21560 C 2382.64 5.23269 0.554648 0
M  V30 21561 O 2381.67 5.69194 -0.0250312 0
M  V30 21562 N 2382.87 5.49814 1.8624 0
M  V30 21563 H 2385.63 2.76576 -1.15437 0
M  V30 21564 H 2383.2 1.43199 -0.755361 0
M  V30 21565 H 2385.19 3.89095 1.11297 0
M  V30 21566 H 2383.76 2.84454 1.29632 0
M  V30 21567 H 2382.98 3.81513 -0.992053 0
M  V30 21568 H 2384.27 5.02105 -0.822652 0
M  V30 21569 H 2383.66 5.14296 2.35619 0
M  V30 21570 H 2382.22 6.07549 2.36067 0
M  V30 21571 N 2385.65 0.653339 1.4342 0
M  V30 21572 C 2386.62 -0.0287548 2.29182 0
M  V30 21573 C 2387.62 -0.75044 1.42215 0
M  V30 21574 O 2388.81 -0.591672 1.63844 0
M  V30 21575 C 2385.94 -1.05145 3.2428 0
M  V30 21576 H 2387.13 0.725838 2.90984 0
M  V30 21577 H 2384.68 0.414572 1.50702 0
M  V30 21578 H 2385.42 -1.83527 2.67373 0
M  V30 21579 H 2385.2 -0.537619 3.88397 0
M  V30 21580 H 2386.69 -1.52779 3.88649 0
M  V30 21581 N 2387.13 -1.52563 0.395266 0
M  V30 21582 C 2388.06 -2.29538 -0.428344 0
M  V30 21583 C 2389.04 -1.33171 -1.05828 0
M  V30 21584 O 2390.23 -1.62069 -1.06992 0
M  V30 21585 C 2387.36 -3.10659 -1.55268 0
M  V30 21586 C 2386.31 -4.14959 -1.04848 0
M  V30 21587 C 2385.64 -4.84341 -2.26535 0
M  V30 21588 C 2386.94 -5.22179 -0.112232 0
M  V30 21589 H 2388.63 -2.98635 0.213919 0
M  V30 21590 H 2386.18 -1.43622 0.104323 0
M  V30 21591 H 2388.13 -3.63269 -2.13573 0
M  V30 21592 H 2386.85 -2.39306 -2.22262 0
M  V30 21593 H 2385.51 -3.63339 -0.487921 0
M  V30 21594 H 2385.16 -4.0953 -2.92052 0
M  V30 21595 H 2384.86 -5.54841 -1.93457 0
M  V30 21596 H 2386.39 -5.39758 -2.85471 0
M  V30 21597 H 2387.8 -5.70113 -0.603652 0
M  V30 21598 H 2386.2 -5.99961 0.129073 0
M  V30 21599 H 2387.27 -4.77619 0.837136 0
M  V30 21600 N 2388.61 -0.125265 -1.57101 0
M  V30 21601 C 2389.54 0.860057 -2.11372 0
M  V30 21602 C 2390.52 1.25677 -1.0317 0
M  V30 21603 O 2391.7 1.35672 -1.30864 0
M  V30 21604 C 2388.83 2.15186 -2.61558 0
M  V30 21605 C 2387.88 1.90273 -3.81705 0
M  V30 21606 S 2388.71 1.11334 -5.23799 0
M  V30 21607 C 2389.87 2.41679 -5.77358 0
M  V30 21608 H 2390.1 0.398468 -2.94618 0
M  V30 21609 H 2387.63 0.0886284 -1.54145 0
M  V30 21610 H 2389.59 2.89405 -2.91127 0
M  V30 21611 H 2388.25 2.58462 -1.78484 0
M  V30 21612 H 2387.44 2.86006 -4.1499 0
M  V30 21613 H 2387.05 1.24172 -3.52785 0
M  V30 21614 H 2389.34 3.37479 -5.87464 0
M  V30 21615 H 2390.28 2.1293 -6.75327 0
M  V30 21616 H 2390.69 2.51333 -5.05462 0
M  V30 21617 N 2390.09 1.56899 0.148518 0
M  V30 21618 C 2391.31 1.87789 0.880352 0
M  V30 21619 C 2391.74 0.714124 1.74017 0
M  V30 21620 O 2391.1 -0.336312 1.78153 0
M  V30 21621 C 2391.14 3.17252 1.71416 0
M  V30 21622 O 2390.25 3.01079 2.81824 0
M  V30 21623 H 2389.59 0.617032 0.24529 0
M  V30 21624 H 2392.12 2.04122 0.139791 0
M  V30 21625 H 2392.13 3.49235 2.10948 0
M  V30 21626 H 2390.8 4.01558 1.08277 0
M  V30 21627 H 2389.38 2.80501 2.4571 0
M  V30 21628 N 2391.57 -0.417818 1.51961 0
M  V30 21629 C 2392.98 -0.996972 1.57852 0
M  V30 21630 C 2393.33 -1.91788 0.413747 0
M  V30 21631 O 2392.45 -2.113 -0.467019 0
M  V30 21632 C 2393.05 -1.81491 2.86088 0
M  V30 21633 C 2391.61 -2.34423 2.94487 0
M  V30 21634 C 2390.75 -1.14165 2.52709 0
M  V30 21635 H 2393.7 -0.198364 1.57455 0
M  V30 21636 H 2393.73 -2.67143 2.70952 0
M  V30 21637 H 2393.24 -1.1444 3.70844 0
M  V30 21638 H 2391.34 -3.04872 2.14206 0
M  V30 21639 H 2391.45 -2.65884 3.98551 0
M  V30 21640 H 2389.82 -1.49297 2.06355 0
M  V30 21641 H 2390.6 -0.486939 3.39829 0
M  V30 21642 N 2393.04 -1.42436 -0.674508 0
M  V30 21643 C 2394.29 -1.42639 -1.43173 0
M  V30 21644 C 2394.61 -0.0439335 -1.94951 0
M  V30 21645 O 2393.88 0.917577 -1.73082 0
M  V30 21646 H 2392.46 -0.525101 -0.531298 0
M  V30 21647 H 2395.12 -1.7786 -0.796975 0
M  V30 21648 H 2394.22 -2.12633 -2.2846 0
M  V30 21649 N 2394.52 0.910841 -1.28614 0
M  V30 21650 C 2395.75 1.69925 -1.18913 0
M  V30 21651 C 2396.17 1.86453 0.248339 0
M  V30 21652 O 2395.53 1.37679 1.17959 0
M  V30 21653 C 2395.58 3.06742 -1.89583 0
M  V30 21654 O 2394.68 3.94394 -1.20528 0
M  V30 21655 H 2394.02 0.520215 -0.412641 0
M  V30 21656 H 2396.55 1.13867 -1.69987 0
M  V30 21657 H 2396.56 3.56955 -1.97603 0
M  V30 21658 H 2395.24 2.9403 -2.94142 0
M  V30 21659 H 2393.81 3.52829 -1.2069 0
M  V30 21660 N 2396 1.10909 1.11969 0
M  V30 21661 C 2397.24 0.86441 1.85222 0
M  V30 21662 C 2397.6 -0.599146 1.82412 0
M  V30 21663 O 2398.81 -0.960372 2.51058 0
M  V30 21664 C 2397.08 1.40377 3.28678 0
M  V30 21665 S 2398.64 1.29525 4.19248 0
M  V30 21666 H 2395.45 0.312231 0.638775 0
M  V30 21667 H 2398.06 1.4155 1.34847 0
M  V30 21668 H 2396.76 2.46287 3.28285 0
M  V30 21669 H 2396.29 0.84947 3.84119 0
M  V30 21670 H 2398.31 0.256146 4.95538 0
M  V30 21671 N 2397.48 -1.29474 0.898573 0
M  V30 21672 C 2398.41 -2.30185 0.392051 0
M  V30 21673 C 2399.39 -1.61556 -0.532331 0
M  V30 21674 O 2400.57 -1.89073 -0.443298 0
M  V30 21675 C 2397.7 -3.4519 -0.382293 0
M  V30 21676 C 2396.66 -4.25611 0.451558 0
M  V30 21677 C 2395.98 -5.32801 -0.450214 0
M  V30 21678 C 2397.28 -4.93829 1.70088 0
M  V30 21679 H 2398.98 -2.72802 1.23367 0
M  V30 21680 H 2396.52 -1.31148 0.594661 0
M  V30 21681 H 2398.48 -4.14719 -0.747378 0
M  V30 21682 H 2397.2 -3.01413 -1.25769 0
M  V30 21683 H 2395.86 -3.57788 0.79896 0
M  V30 21684 H 2395.51 -4.8527 -1.32371 0
M  V30 21685 H 2395.21 -5.87508 0.104005 0
M  V30 21686 H 2396.73 -6.05183 -0.811516 0
M  V30 21687 H 2398.15 -5.55802 1.40559 0
M  V30 21688 H 2396.54 -5.58463 2.19633 0
M  V30 21689 H 2397.61 -4.19182 2.43752 0
M  V30 21690 N 2398.96 -0.660936 -1.43071 0
M  V30 21691 C 2399.87 0.026375 -2.34585 0
M  V30 21692 C 2400.88 0.80387 -1.54318 0
M  V30 21693 O 2402.06 0.749358 -1.8694 0
M  V30 21694 C 2399.12 0.975581 -3.32691 0
M  V30 21695 C 2398.18 0.194161 -4.28861 0
M  V30 21696 C 2397.42 1.09815 -5.2228 0
M  V30 21697 O 2397.64 2.33754 -5.20303 0
M  V30 21698 O 2396.57 0.566408 -5.99229 0
M  V30 21699 H 2400.4 -0.727085 -2.94868 0
M  V30 21700 H 2397.99 -0.421135 -1.43342 0
M  V30 21701 H 2399.87 1.52087 -3.92998 0
M  V30 21702 H 2398.54 1.70913 -2.74901 0
M  V30 21703 H 2397.45 -0.394901 -3.7201 0
M  V30 21704 H 2398.78 -0.499985 -4.89654 0
M  V30 21705 N 2400.43 1.52351 -0.403352 0
M  V30 21706 C 2401.71 1.94212 0.232577 0
M  V30 21707 C 2402.09 1.33983 1.63131 0
M  V30 21708 O 2401.44 0.513383 2.22658 0
M  V30 21709 C 2401.65 3.48141 0.24475 0
M  V30 21710 C 2403 4.22025 0.466906 0
M  V30 21711 O 2404.02 3.5472 0.324356 0
M  V30 21712 O 2402.88 5.41365 0.747375 0
M  V30 21713 H 2399.97 0.813611 0.148209 0
M  V30 21714 H 2402.52 1.63378 -0.458877 0
M  V30 21715 H 2401.29 3.84346 -0.734445 0
M  V30 21716 H 2400.92 3.85319 0.980544 0
M  V30 21717 N 2401.91 0.133594 1.57033 0
M  V30 21718 C 2403.16 -0.520843 1.95687 0
M  V30 21719 C 2403.49 -1.65748 1.01773 0
M  V30 21720 O 2402.74 -1.9565 0.0443539 0
M  V30 21721 C 2403.04 -1.08051 3.40676 0
M  V30 21722 C 2402.71 -0.0637107 4.50855 0
M  V30 21723 C 2401.37 0.215841 4.80716 0
M  V30 21724 C 2403.72 0.628441 5.17397 0
M  V30 21725 C 2401.05 1.19358 5.74431 0
M  V30 21726 C 2403.4 1.59491 6.12165 0
M  V30 21727 C 2402.07 1.8823 6.40411 0
M  V30 21728 H 2401.34 -0.19059 0.71607 0
M  V30 21729 H 2403.98 0.21759 1.9026 0
M  V30 21730 H 2402.29 -1.896 3.42869 0
M  V30 21731 H 2403.98 -1.59522 3.67904 0
M  V30 21732 H 2400.57 -0.29178 4.27606 0
M  V30 21733 H 2404.76 0.425649 4.94471 0
M  V30 21734 H 2400.01 1.42283 5.94614 0
M  V30 21735 H 2404.19 2.13683 6.62807 0
M  V30 21736 H 2401.82 2.64145 7.12833 0
M  V30 21737 N 2403.39 -1.56975 -0.140195 0
M  V30 21738 C 2404.81 -1.51793 -0.493061 0
M  V30 21739 C 2405.01 -0.843148 -1.83012 0
M  V30 21740 O 2404.06 -0.416537 -2.49041 0
M  V30 21741 C 2405.38 -2.96563 -0.497092 0
M  V30 21742 C 2406.92 -3.07539 -0.582132 0
M  V30 21743 C 2407.4 -4.53828 -0.616759 0
M  V30 21744 N 2408.89 -4.58199 -0.678793 0
M  V30 21745 C 2409.62 -5.68777 -0.726682 0
M  V30 21746 N 2409.12 -6.88906 -0.733502 0
M  V30 21747 N 2410.91 -5.56828 -0.768081 0
M  V30 21748 H 2403.06 -1.99235 0.736143 0
M  V30 21749 H 2405.33 -0.908975 0.269198 0
M  V30 21750 H 2405.03 -3.49216 0.417278 0
M  V30 21751 H 2404.91 -3.52877 -1.33257 0
M  V30 21752 H 2407.29 -2.54901 -1.48692 0
M  V30 21753 H 2407.38 -2.54256 0.280625 0
M  V30 21754 H 2407.02 -5.07106 0.283901 0
M  V30 21755 H 2406.95 -5.049 -1.4961 0
M  V30 21756 H 2409.44 -3.71722 -0.680545 0
M  V30 21757 H 2409.75 -7.68934 -0.77208 0
M  V30 21758 H 2408.1 -6.91453 -0.701268 0
M  V30 21759 H 2411.29 -4.6189 -0.75997 0
M  V30 21760 H 2411.46 -6.43019 -0.801937 0
M  V30 21761 N 2404.87 0.409753 -1.5218 0
M  V30 21762 C 2405.83 1.48183 -1.74855 0
M  V30 21763 C 2406.83 1.48432 -0.618443 0
M  V30 21764 O 2408.02 1.49967 -0.886312 0
M  V30 21765 C 2405.15 2.87595 -1.83035 0
M  V30 21766 H 2406.35 1.2937 -2.70561 0
M  V30 21767 H 2403.9 0.640208 -1.42587 0
M  V30 21768 H 2404.63 3.11779 -0.892415 0
M  V30 21769 H 2404.42 2.88818 -2.65192 0
M  V30 21770 H 2405.91 3.65315 -2.02323 0
M  V30 21771 N 2406.35 1.42792 0.666944 0
M  V30 21772 C 2407.31 1.46571 1.76209 0
M  V30 21773 C 2408.31 0.352224 1.56895 0
M  V30 21774 O 2409.5 0.613393 1.63043 0
M  V30 21775 C 2406.63 1.305 3.14933 0
M  V30 21776 H 2407.82 2.44089 1.74243 0
M  V30 21777 H 2405.38 1.29355 0.877319 0
M  V30 21778 H 2406.11 0.339358 3.2252 0
M  V30 21779 H 2405.9 2.11205 3.30356 0
M  V30 21780 H 2407.39 1.36045 3.94818 0
M  V30 21781 N 2407.82 -0.904008 1.29095 0
M  V30 21782 C 2409.24 -1.4693 1.15189 0
M  V30 21783 C 2409.59 -1.94542 -0.254553 0
M  V30 21784 O 2408.71 -1.83334 -1.14969 0
M  V30 21785 C 2409.31 -2.67048 2.08497 0
M  V30 21786 C 2407.87 -3.19726 1.98627 0
M  V30 21787 C 2407.01 -1.92421 1.99673 0
M  V30 21788 H 2409.96 -0.715764 1.41642 0
M  V30 21789 H 2409.98 -3.42638 1.65467 0
M  V30 21790 H 2409.5 -2.32364 3.10851 0
M  V30 21791 H 2407.6 -3.59112 0.993452 0
M  V30 21792 H 2407.71 -3.84315 2.86075 0
M  V30 21793 H 2406.07 -2.09941 1.44212 0
M  V30 21794 H 2406.86 -1.6002 3.03724 0
M  V30 21795 N 2409.3 -1.11501 -1.11379 0
M  V30 21796 C 2410.55 -0.864264 -1.8313 0
M  V30 21797 C 2410.88 0.610082 -1.84684 0
M  V30 21798 O 2410.13 1.46644 -1.29592 0
M  V30 21799 C 2410.43 -1.37183 -3.30023 0
M  V30 21800 C 2410.1 -2.85952 -3.48629 0
M  V30 21801 C 2408.76 -3.26575 -3.53415 0
M  V30 21802 C 2411.11 -3.81765 -3.54831 0
M  V30 21803 C 2408.44 -4.61739 -3.61959 0
M  V30 21804 C 2410.79 -5.16746 -3.64906 0
M  V30 21805 C 2409.46 -5.56927 -3.67952 0
M  V30 21806 H 2408.73 -0.316256 -0.670122 0
M  V30 21807 H 2411.37 -1.39353 -1.31351 0
M  V30 21808 H 2409.68 -0.76282 -3.84302 0
M  V30 21809 H 2411.37 -1.15415 -3.84032 0
M  V30 21810 H 2407.96 -2.53527 -3.45575 0
M  V30 21811 H 2412.15 -3.51481 -3.50393 0
M  V30 21812 H 2407.4 -4.92276 -3.62594 0
M  V30 21813 H 2411.58 -5.90823 -3.68648 0
M  V30 21814 H 2409.21 -6.61653 -3.74325 0
M  V30 21815 N 2410.78 1.28995 -0.905426 0
M  V30 21816 C 2411.71 2.29974 -0.404253 0
M  V30 21817 C 2412.69 1.61836 0.523755 0
M  V30 21818 O 2413.88 1.89305 0.433265 0
M  V30 21819 C 2411.01 3.45387 0.363981 0
M  V30 21820 C 2409.96 4.25366 -0.474123 0
M  V30 21821 C 2409.29 5.33033 0.421952 0
M  V30 21822 C 2410.59 4.9292 -1.72704 0
M  V30 21823 H 2412.28 2.72144 -1.24812 0
M  V30 21824 H 2409.83 1.30831 -0.601608 0
M  V30 21825 H 2411.78 4.1511 0.725374 0
M  V30 21826 H 2410.5 3.02076 1.24168 0
M  V30 21827 H 2409.16 3.57359 -0.817923 0
M  V30 21828 H 2408.81 4.85965 1.29796 0
M  V30 21829 H 2408.51 5.87445 -0.13516 0
M  V30 21830 H 2410.04 6.05605 0.77941 0
M  V30 21831 H 2411.45 5.55049 -1.43505 0
M  V30 21832 H 2409.85 5.57291 -2.22592 0
M  V30 21833 H 2410.92 4.17883 -2.45971 0
M  V30 21834 N 2412.26 0.668514 1.42719 0
M  V30 21835 C 2413.17 -0.013934 2.34596 0
M  V30 21836 C 2414.19 -0.795675 1.54742 0
M  V30 21837 O 2415.36 -0.739433 1.87335 0
M  V30 21838 C 2412.43 -0.957924 3.33204 0
M  V30 21839 C 2411.49 -0.171415 4.28958 0
M  V30 21840 C 2410.72 -1.07044 5.22855 0
M  V30 21841 O 2410.94 -2.30991 5.21535 0
M  V30 21842 O 2409.88 -0.534621 5.99521 0
M  V30 21843 H 2413.7 0.742713 2.94478 0
M  V30 21844 H 2411.29 0.428731 1.43116 0
M  V30 21845 H 2413.17 -1.50001 3.93799 0
M  V30 21846 H 2411.85 -1.69453 2.75803 0
M  V30 21847 H 2410.75 0.414624 3.71795 0
M  V30 21848 H 2412.09 0.525946 4.89382 0
M  V30 21849 N 2413.74 -1.52135 0.411426 0
M  V30 21850 C 2414.98 -2.03748 -0.163108 0
M  V30 21851 C 2415.34 -1.29025 -1.42185 0
M  V30 21852 O 2416.54 -1.70876 -2.07497 0
M  V30 21853 C 2414.81 -3.55125 -0.402588 0
M  V30 21854 S 2416.37 -4.2852 -0.94424 0
M  V30 21855 H 2413.19 -0.709639 -0.0439709 0
M  V30 21856 H 2415.79 -1.87162 0.564873 0
M  V30 21857 H 2414.5 -4.07089 0.520284 0
M  V30 21858 H 2414.03 -3.75959 -1.15838 0
M  V30 21859 H 2416.04 -4.4354 -2.22456 0
M  V30 21860 N 2415.22 -0.14192 -1.5696 0
M  V30 21861 C 2416.15 0.830589 -2.13621 0
M  V30 21862 C 2417.16 1.21426 -1.08441 0
M  V30 21863 O 2418.35 1.15922 -1.35736 0
M  V30 21864 C 2415.45 2.12525 -2.63982 0
M  V30 21865 C 2414.62 1.90973 -3.93507 0
M  V30 21866 C 2413.68 3.0438 -4.29231 0
M  V30 21867 O 2412.71 2.76293 -4.97645 0
M  V30 21868 N 2413.91 4.31422 -3.88401 0
M  V30 21869 H 2416.67 0.346357 -2.97692 0
M  V30 21870 H 2414.24 0.041809 -1.61846 0
M  V30 21871 H 2416.23 2.87431 -2.84896 0
M  V30 21872 H 2414.8 2.52226 -1.84664 0
M  V30 21873 H 2414.02 1.00132 -3.81271 0
M  V30 21874 H 2415.31 1.73906 -4.78157 0
M  V30 21875 H 2414.7 4.57111 -3.33265 0
M  V30 21876 H 2413.26 5.03125 -4.14377 0
M  V30 21877 N 2416.69 1.57047 0.131868 0
M  V30 21878 C 2417.94 1.83805 0.840237 0
M  V30 21879 C 2418.26 0.725152 1.81015 0
M  V30 21880 O 2417.53 -0.251961 1.94273 0
M  V30 21881 H 2416.11 0.678132 0.313282 0
M  V30 21882 H 2418.77 1.94516 0.122259 0
M  V30 21883 H 2417.87 2.79273 1.3933 0
M  V30 21884 N 2418.17 -0.401677 1.52395 0
M  V30 21885 C 2419.59 -0.740839 1.41364 0
M  V30 21886 C 2419.79 -1.94567 0.524017 0
M  V30 21887 O 2418.84 -2.52499 -0.00736765 0
M  V30 21888 C 2420.16 -0.987797 2.84012 0
M  V30 21889 C 2421.7 -1.09005 2.93406 0
M  V30 21890 C 2422.18 -1.36972 4.37038 0
M  V30 21891 N 2423.67 -1.43821 4.40306 0
M  V30 21892 C 2424.41 -1.67102 5.48511 0
M  V30 21893 N 2423.9 -1.87937 6.66822 0
M  V30 21894 N 2425.69 -1.69178 5.36037 0
M  V30 21895 H 2417.85 0.391299 2.08764 0
M  V30 21896 H 2420.11 0.112815 0.941263 0
M  V30 21897 H 2419.81 -0.174773 3.51265 0
M  V30 21898 H 2419.69 -1.90594 3.25505 0
M  V30 21899 H 2422.08 -1.89366 2.26328 0
M  V30 21900 H 2422.16 -0.150105 2.55359 0
M  V30 21901 H 2421.8 -0.571264 5.04677 0
M  V30 21902 H 2421.73 -2.32231 4.72627 0
M  V30 21903 H 2424.22 -1.2948 3.55026 0
M  V30 21904 H 2424.53 -2.05172 7.45067 0
M  V30 21905 H 2422.88 -1.85187 6.69874 0
M  V30 21906 H 2426.07 -1.52443 4.42582 0
M  V30 21907 H 2426.24 -1.86982 6.20437 0
M  V30 21908 N 2419.65 -1.43144 -0.659362 0
M  V30 21909 C 2420.58 -1.43787 -1.78488 0
M  V30 21910 C 2421.59 -0.334815 -1.5932 0
M  V30 21911 O 2422.78 -0.598872 -1.68154 0
M  V30 21912 C 2419.88 -1.22911 -3.15826 0
M  V30 21913 C 2419.06 -2.45941 -3.61707 0
M  V30 21914 C 2418.12 -2.2038 -4.77828 0
M  V30 21915 O 2417.14 -2.9369 -4.87581 0
M  V30 21916 N 2418.34 -1.21657 -5.67609 0
M  V30 21917 H 2421.11 -2.40807 -1.78416 0
M  V30 21918 H 2418.67 -1.38222 -0.842996 0
M  V30 21919 H 2420.66 -1.03704 -3.91188 0
M  V30 21920 H 2419.23 -0.343597 -3.10706 0
M  V30 21921 H 2418.45 -2.80614 -2.76856 0
M  V30 21922 H 2419.74 -3.27832 -3.89106 0
M  V30 21923 H 2419.14 -0.610548 -5.62396 0
M  V30 21924 H 2417.69 -1.08434 -6.42717 0
M  V30 21925 N 2421.13 0.897149 -1.29572 0
M  V30 21926 C 2422.38 1.64462 -1.17459 0
M  V30 21927 C 2422.7 1.9307 0.273664 0
M  V30 21928 O 2421.97 1.55857 1.18682 0
M  V30 21929 H 2420.55 0.609614 -0.431717 0
M  V30 21930 H 2423.21 1.07559 -1.62533 0
M  V30 21931 H 2422.3 2.59995 -1.72652 0
M  V30 21932 N 2422.61 1.1209 1.10786 0
M  V30 21933 C 2423.83 0.896684 1.8646 0
M  V30 21934 C 2424.25 -0.55388 1.80493 0
M  V30 21935 O 2423.61 -1.38276 1.19105 0
M  V30 21936 C 2423.66 1.35849 3.35004 0
M  V30 21937 O 2423.38 2.75219 3.40861 0
M  V30 21938 C 2424.88 1.17067 4.27563 0
M  V30 21939 H 2422.1 0.320664 0.58942 0
M  V30 21940 H 2424.64 1.48995 1.40074 0
M  V30 21941 H 2422.8 0.808525 3.78869 0
M  V30 21942 H 2423.21 2.95397 4.33406 0
M  V30 21943 H 2424.69 1.54272 5.30004 0
M  V30 21944 H 2425.16 0.110891 4.3906 0
M  V30 21945 H 2425.77 1.70796 3.89498 0
M  V30 21946 N 2424.08 -1.28513 0.912254 0
M  V30 21947 C 2425.32 -1.96813 0.551712 0
M  V30 21948 C 2425.69 -1.70242 -0.887795 0
M  V30 21949 O 2426.89 -2.321 -1.35584 0
M  V30 21950 C 2425.16 -3.4713 0.850616 0
M  V30 21951 S 2426.72 -4.3473 0.596267 0
M  V30 21952 H 2423.54 -0.681045 0.204203 0
M  V30 21953 H 2426.14 -1.5607 1.17738 0
M  V30 21954 H 2424.84 -3.63964 1.89626 0
M  V30 21955 H 2424.37 -3.9282 0.21354 0
M  V30 21956 H 2426.39 -4.93108 -0.553067 0
M  V30 21957 N 2425.56 -0.676073 -1.42362 0
M  V30 21958 C 2426.51 0.0242502 -2.27987 0
M  V30 21959 C 2427.5 0.772294 -1.41154 0
M  V30 21960 O 2428.69 0.650996 -1.64594 0
M  V30 21961 C 2425.82 0.973895 -3.29196 0
M  V30 21962 C 2424.9 0.223127 -4.23513 0
M  V30 21963 N 2425.29 -0.772677 -4.99863 0
M  V30 21964 C 2423.59 0.461391 -4.43607 0
M  V30 21965 C 2424.29 -1.22037 -5.68755 0
M  V30 21966 N 2423.27 -0.55007 -5.4081 0
M  V30 21967 H 2427.07 -0.73954 -2.84443 0
M  V30 21968 H 2424.59 -0.505247 -1.54341 0
M  V30 21969 H 2426.58 1.4906 -3.89341 0
M  V30 21970 H 2425.24 1.7375 -2.74301 0
M  V30 21971 H 2426.25 -1.15226 -5.04919 0
M  V30 21972 H 2422.93 1.20439 -3.99751 0
M  V30 21973 H 2424.32 -2.04562 -6.40003 0
M  V30 21974 N 2427.04 1.51915 -0.419488 0
M  V30 21975 C 2428.29 2.01922 0.152904 0
M  V30 21976 C 2428.62 1.3046 1.44258 0
M  V30 21977 O 2427.87 0.402627 1.91513 0
M  V30 21978 C 2428.17 3.54718 0.437004 0
M  V30 21979 C 2427.84 4.44368 -0.76471 0
M  V30 21980 C 2426.5 4.68592 -1.09431 0
M  V30 21981 C 2428.85 4.97079 -1.56722 0
M  V30 21982 C 2426.18 5.42773 -2.22742 0
M  V30 21983 C 2428.53 5.72502 -2.69117 0
M  V30 21984 C 2427.19 5.94995 -3.02552 0
M  V30 21985 H 2426.46 0.738885 0.0559514 0
M  V30 21986 H 2429.11 1.83036 -0.56303 0
M  V30 21987 H 2427.42 3.71839 1.23463 0
M  V30 21988 H 2429.11 3.9093 0.893014 0
M  V30 21989 H 2425.7 4.25699 -0.49785 0
M  V30 21990 H 2429.89 4.78264 -1.3258 0
M  V30 21991 H 2425.14 5.58407 -2.48981 0
M  V30 21992 H 2429.32 6.1234 -3.31682 0
M  V30 21993 H 2426.94 6.52257 -3.90468 0
M  V30 21994 N 2428.52 0.150242 1.56882 0
M  V30 21995 C 2429.77 -0.500058 1.96229 0
M  V30 21996 C 2430.09 -1.64659 1.03525 0
M  V30 21997 O 2429.35 -1.95592 0.0651027 0
M  V30 21998 C 2429.65 -1.04431 3.41802 0
M  V30 21999 C 2429.31 -0.0158879 4.50897 0
M  V30 22000 C 2427.98 0.266816 4.8046 0
M  V30 22001 C 2430.33 0.683282 5.16702 0
M  V30 22002 C 2427.66 1.25444 5.73132 0
M  V30 22003 C 2430.01 1.65975 6.10439 0
M  V30 22004 C 2428.67 1.95012 6.38378 0
M  V30 22005 H 2427.94 -0.182984 0.718051 0
M  V30 22006 H 2430.59 0.237757 1.90018 0
M  V30 22007 H 2428.89 -1.85953 3.4486 0
M  V30 22008 H 2430.59 -1.55611 3.69576 0
M  V30 22009 H 2427.18 -0.24641 4.27891 0
M  V30 22010 H 2431.36 0.47807 4.93992 0
M  V30 22011 H 2426.62 1.48581 5.93071 0
M  V30 22012 H 2430.79 2.207 6.60503 0
M  V30 22013 H 2428.42 2.71691 7.09992 0
M  V30 22014 N 2430 -1.57115 -0.123538 0
M  V30 22015 C 2430.96 -1.99078 -1.1358 0
M  V30 22016 C 2431.96 -0.88032 -1.34562 0
M  V30 22017 O 2433.15 -1.14646 -1.31156 0
M  V30 22018 C 2430.28 -2.32702 -2.49124 0
M  V30 22019 H 2431.47 -2.89707 -0.775236 0
M  V30 22020 H 2429.03 -1.51914 -0.367683 0
M  V30 22021 H 2429.76 -1.44939 -2.90109 0
M  V30 22022 H 2429.55 -3.13688 -2.35249 0
M  V30 22023 H 2431.04 -2.65924 -3.21985 0
M  V30 22024 N 2431.47 0.393589 -1.52606 0
M  V30 22025 C 2432.42 1.50096 -1.77691 0
M  V30 22026 C 2433.42 1.56655 -0.644643 0
M  V30 22027 O 2434.62 1.59876 -0.827025 0
M  V30 22028 H 2431 0.499472 -0.562167 0
M  V30 22029 H 2432.97 1.26131 -2.70432 0
M  V30 22030 C 2431.72 2.87286 -1.95863 0
M  V30 22031 H 2431.04 2.82987 -2.82415 0
M  V30 22032 H 2432.48 3.6402 -2.17406 0
M  V30 22033 C 2430.94 3.28898 -0.729906 0
M  V30 22034 O 2431.47 4.01588 0.0948511 0
M  V30 22035 N 2429.68 2.85127 -0.561333 0
M  V30 22036 H 2429.22 2.26141 -1.23361 0
M  V30 22037 H 2429.18 3.13328 0.259445 0
M  V30 22038 N 2432.95 1.43492 0.651762 0
M  V30 22039 C 2433.9 1.48763 1.7646 0
M  V30 22040 C 2434.87 0.337217 1.62641 0
M  V30 22041 O 2436.05 0.544576 1.82863 0
M  V30 22042 C 2433.19 1.41802 3.14621 0
M  V30 22043 C 2432.31 2.67059 3.39563 0
M  V30 22044 C 2431.44 2.52076 4.6758 0
M  V30 22045 C 2430.48 3.72595 4.85633 0
M  V30 22046 N 2429.62 3.56413 6.04908 0
M  V30 22047 H 2434.46 2.43852 1.71289 0
M  V30 22048 H 2432 1.21044 0.835868 0
M  V30 22049 H 2433.95 1.3576 3.94494 0
M  V30 22050 H 2432.58 0.502936 3.18858 0
M  V30 22051 H 2431.64 2.83374 2.53778 0
M  V30 22052 H 2432.95 3.56578 3.48788 0
M  V30 22053 H 2432.1 2.4375 5.55582 0
M  V30 22054 H 2430.84 1.60084 4.60678 0
M  V30 22055 H 2429.85 3.81328 3.96067 0
M  V30 22056 H 2431.07 4.65598 4.94364 0
M  V30 22057 H 2429.02 2.67156 5.99136 0
M  V30 22058 H 2428.93 4.39534 6.15098 0
M  V30 22059 H 2430.2 3.51941 6.95527 0
M  V30 22060 N 2434.43 -0.890264 1.30046 0
M  V30 22061 C 2435.66 -1.67242 1.21299 0
M  V30 22062 C 2436.07 -1.87828 -0.227438 0
M  V30 22063 O 2435.41 -1.42202 -1.16293 0
M  V30 22064 C 2435.47 -3.07325 1.86524 0
M  V30 22065 C 2435.14 -3.09933 3.35843 0
M  V30 22066 C 2436.13 -2.89381 4.3192 0
M  V30 22067 C 2433.82 -3.31699 3.77202 0
M  V30 22068 C 2435.81 -2.90543 5.6733 0
M  V30 22069 C 2433.5 -3.3249 5.12731 0
M  V30 22070 C 2434.5 -3.11936 6.07606 0
M  V30 22071 O 2434.19 -3.12534 7.4066 0
M  V30 22072 H 2433.92 -0.528813 0.421109 0
M  V30 22073 H 2436.47 -1.121 1.72113 0
M  V30 22074 H 2434.7 -3.6411 1.30234 0
M  V30 22075 H 2436.39 -3.6767 1.71969 0
M  V30 22076 H 2437.16 -2.72368 4.01299 0
M  V30 22077 H 2433.04 -3.46735 3.03802 0
M  V30 22078 H 2436.58 -2.74418 6.41359 0
M  V30 22079 H 2432.48 -3.49038 5.42994 0
M  V30 22080 H 2433.25 -3.28736 7.49583 0
M  V30 22081 N 2435.91 -1.12676 -1.1019 0
M  V30 22082 C 2437.13 -0.906886 -1.86522 0
M  V30 22083 C 2437.56 0.538679 -1.80222 0
M  V30 22084 O 2436.92 1.38156 -1.17399 0
M  V30 22085 C 2436.96 -1.38946 -3.32756 0
M  V30 22086 O 2436.07 -0.569572 -4.08448 0
M  V30 22087 H 2435.41 -0.325629 -0.578672 0
M  V30 22088 H 2437.94 -1.49948 -1.392 0
M  V30 22089 H 2437.95 -1.38965 -3.83605 0
M  V30 22090 H 2436.62 -2.44203 -3.36657 0
M  V30 22091 H 2435.2 -0.636593 -3.67426 0
M  V30 22092 N 2437.39 1.28028 -0.919057 0
M  V30 22093 C 2438.63 1.94747 -0.554969 0
M  V30 22094 C 2438.96 1.72305 0.90228 0
M  V30 22095 O 2438.22 1.04021 1.65766 0
M  V30 22096 C 2438.52 3.47939 -0.816917 0
M  V30 22097 C 2438.18 3.90488 -2.25455 0
M  V30 22098 C 2436.84 4.01816 -2.64759 0
M  V30 22099 C 2439.2 4.12188 -3.18984 0
M  V30 22100 C 2436.52 4.32225 -3.96734 0
M  V30 22101 C 2438.88 4.44078 -4.5053 0
M  V30 22102 C 2437.54 4.53618 -4.89681 0
M  V30 22103 H 2436.81 0.712629 -0.203077 0
M  V30 22104 H 2439.46 1.52263 -1.16139 0
M  V30 22105 H 2437.76 3.91592 -0.127746 0
M  V30 22106 H 2439.46 3.97688 -0.514308 0
M  V30 22107 H 2436.05 3.82202 -1.93958 0
M  V30 22108 H 2440.23 4.02884 -2.89824 0
M  V30 22109 H 2435.49 4.37818 -4.26762 0
M  V30 22110 H 2439.66 4.59816 -5.23013 0
M  V30 22111 H 2437.29 4.76935 -5.91977 0
M  V30 22112 N 2438.86 0.683613 1.42002 0
M  V30 22113 C 2440.11 0.218572 2.02222 0
M  V30 22114 C 2440.47 -1.16489 1.53128 0
M  V30 22115 O 2439.76 -1.77252 0.72749 0
M  V30 22116 C 2439.95 0.20242 3.56826 0
M  V30 22117 C 2439.78 1.58278 4.20926 0
M  V30 22118 C 2438.55 2.1827 4.55726 0
M  V30 22119 C 2440.75 2.52714 4.47929 0
M  V30 22120 N 2438.73 3.48995 5.0505 0
M  V30 22121 C 2440.1 3.68103 4.98899 0
M  V30 22122 C 2442.16 2.51132 4.29927 0
M  V30 22123 C 2440.86 4.82176 5.33759 0
M  V30 22124 C 2442.89 3.64308 4.65869 0
M  V30 22125 C 2442.25 4.78426 5.16999 0
M  V30 22126 H 2438.35 0.125102 0.771928 0
M  V30 22127 H 2440.93 0.898509 1.72728 0
M  V30 22128 H 2439.1 -0.446961 3.8582 0
M  V30 22129 H 2440.83 -0.276328 4.03756 0
M  V30 22130 H 2437.59 1.70672 4.41778 0
M  V30 22131 H 2438.01 4.15971 5.34132 0
M  V30 22132 H 2442.66 1.64127 3.89644 0
M  V30 22133 H 2440.37 5.6985 5.72971 0
M  V30 22134 H 2443.96 3.64322 4.53609 0
M  V30 22135 H 2442.84 5.6455 5.44291 0
M  V30 22136 N 2440.34 -1.5169 0.427538 0
M  V30 22137 C 2441.27 -2.30394 -0.379559 0
M  V30 22138 C 2442.25 -1.35385 -1.0298 0
M  V30 22139 O 2443.44 -1.64302 -1.03531 0
M  V30 22140 C 2440.57 -3.13883 -1.48644 0
M  V30 22141 C 2439.52 -4.1709 -0.960221 0
M  V30 22142 C 2438.85 -4.89037 -2.1621 0
M  V30 22143 C 2440.15 -5.223 -0.00144499 0
M  V30 22144 H 2441.84 -2.98114 0.277216 0
M  V30 22145 H 2439.39 -1.43368 0.134764 0
M  V30 22146 H 2441.34 -3.67718 -2.0582 0
M  V30 22147 H 2440.07 -2.43966 -2.17136 0
M  V30 22148 H 2438.73 -3.64292 -0.410742 0
M  V30 22149 H 2438.37 -4.15633 -2.83299 0
M  V30 22150 H 2438.07 -5.58819 -1.81644 0
M  V30 22151 H 2439.6 -5.45692 -2.73958 0
M  V30 22152 H 2441.01 -5.71265 -0.482586 0
M  V30 22153 H 2439.41 -5.99552 0.256305 0
M  V30 22154 H 2440.48 -4.75736 0.938258 0
M  V30 22155 N 2441.82 -0.15856 -1.568 0
M  V30 22156 C 2443.05 0.496268 -2.0086 0
M  V30 22157 C 2443.46 1.57657 -1.03873 0
M  V30 22158 O 2442.82 1.82461 -0.0375485 0
M  V30 22159 C 2442.87 1.08632 -3.44792 0
M  V30 22160 O 2442.59 0.0491552 -4.38072 0
M  V30 22161 C 2444.09 1.82063 -4.04188 0
M  V30 22162 H 2441.31 0.128187 -0.658642 0
M  V30 22163 H 2443.86 -0.256542 -2.02884 0
M  V30 22164 H 2442.01 1.78969 -3.43582 0
M  V30 22165 H 2442.43 0.48301 -5.22271 0
M  V30 22166 H 2443.9 2.18624 -5.0686 0
M  V30 22167 H 2444.38 2.71089 -3.45554 0
M  V30 22168 H 2444.98 1.16397 -4.09062 0
M  V30 22169 N 2443.3 1.57178 0.115204 0
M  V30 22170 C 2444.53 1.8924 0.836403 0
M  V30 22171 C 2444.94 0.750206 1.73255 0
M  V30 22172 O 2444.3 -0.2788 1.80358 0
M  V30 22173 C 2444.35 3.20788 1.66665 0
M  V30 22174 O 2444.07 4.30611 0.806576 0
M  V30 22175 C 2445.57 3.6658 2.49267 0
M  V30 22176 H 2442.79 0.626518 0.240242 0
M  V30 22177 H 2445.34 2.04263 0.0984573 0
M  V30 22178 H 2443.49 3.07424 2.35731 0
M  V30 22179 H 2443.91 5.06031 1.37961 0
M  V30 22180 H 2445.38 4.61375 3.03046 0
M  V30 22181 H 2445.86 2.93423 3.26802 0
M  V30 22182 H 2446.46 3.82745 1.85436 0
M  V30 22183 N 2444.78 -0.38549 1.52813 0
M  V30 22184 C 2446.02 -1.13185 1.68277 0
M  V30 22185 C 2446.36 -1.89532 0.423212 0
M  V30 22186 O 2445.63 -1.8568 -0.57908 0
M  V30 22187 C 2445.91 -2.10725 2.92005 0
M  V30 22188 C 2445.77 -1.38118 4.28069 0
M  V30 22189 C 2447.09 -3.11107 3.11288 0
M  V30 22190 H 2444.21 -0.410104 0.612359 0
M  V30 22191 H 2446.85 -0.414836 1.85416 0
M  V30 22192 H 2445 -2.7187 2.77523 0
M  V30 22193 H 2446.67 -0.799107 4.54326 0
M  V30 22194 H 2444.91 -0.683017 4.28389 0
M  V30 22195 H 2445.58 -2.09408 5.10737 0
M  V30 22196 H 2448.06 -2.60055 3.24824 0
M  V30 22197 H 2446.94 -3.76598 3.99331 0
M  V30 22198 H 2447.2 -3.80169 2.25663 0
M  V30 22199 N 2446.26 -1.43835 -0.644143 0
M  V30 22200 C 2447.2 -1.49697 -1.75668 0
M  V30 22201 C 2448.17 -0.345838 -1.6246 0
M  V30 22202 O 2449.36 -0.554266 -1.82572 0
M  V30 22203 C 2446.5 -1.43468 -3.13864 0
M  V30 22204 C 2445.61 -2.68856 -3.38142 0
M  V30 22205 C 2444.75 -2.54552 -4.66237 0
M  V30 22206 C 2443.78 -3.75165 -4.8365 0
M  V30 22207 N 2442.92 -3.59616 -6.0301 0
M  V30 22208 H 2447.76 -2.44757 -1.69994 0
M  V30 22209 H 2445.3 -1.21486 -0.829437 0
M  V30 22210 H 2447.26 -1.3785 -3.93768 0
M  V30 22211 H 2445.89 -0.519839 -3.18587 0
M  V30 22212 H 2444.94 -2.84716 -2.52271 0
M  V30 22213 H 2446.25 -3.58423 -3.46892 0
M  V30 22214 H 2445.4 -2.46693 -5.54281 0
M  V30 22215 H 2444.14 -1.62524 -4.59823 0
M  V30 22216 H 2443.15 -3.83423 -3.94039 0
M  V30 22217 H 2444.37 -4.68213 -4.91887 0
M  V30 22218 H 2442.32 -2.7033 -5.9771 0
M  V30 22219 H 2442.24 -4.4279 -6.12758 0
M  V30 22220 H 2443.5 -3.55625 -6.93651 0
M  V30 22221 N 2447.73 0.883355 -1.30517 0
M  V30 22222 C 2448.7 1.9708 -1.17014 0
M  V30 22223 C 2449.7 1.60483 -0.100918 0
M  V30 22224 O 2450.89 1.70665 -0.349157 0
M  V30 22225 C 2448.02 3.31546 -0.793103 0
M  V30 22226 H 2449.21 2.10486 -2.13625 0
M  V30 22227 H 2446.76 1.06996 -1.13936 0
M  V30 22228 H 2447.5 3.23841 0.172442 0
M  V30 22229 H 2447.28 3.59478 -1.56583 0
M  V30 22230 H 2448.77 4.11309 -0.722146 0
M  V30 22231 N 2449.21 1.13259 1.09591 0
M  V30 22232 C 2450.49 0.804463 1.78291 0
M  V30 22233 C 2450.87 -0.704275 1.99005 0
M  V30 22234 O 2450.22 -1.64098 1.5901 0
M  V30 22235 C 2450.43 1.58946 3.10704 0
M  V30 22236 C 2451.77 1.78106 3.85439 0
M  V30 22237 O 2452.8 1.5553 3.20451 0
M  V30 22238 O 2451.66 2.15762 5.02105 0
M  V30 22239 H 2448.75 0.293541 0.773151 0
M  V30 22240 H 2451.3 1.23711 1.16162 0
M  V30 22241 H 2450.07 2.61487 2.91101 0
M  V30 22242 H 2449.69 1.15164 3.80556 0
M  V30 22243 N 2450.69 -1.27539 0.925834 0
M  V30 22244 C 2451.62 -2.29302 0.440788 0
M  V30 22245 C 2452.6 -1.62649 -0.497942 0
M  V30 22246 O 2453.79 -1.89971 -0.403093 0
M  V30 22247 C 2450.92 -3.45923 -0.308987 0
M  V30 22248 C 2449.87 -4.24558 0.541735 0
M  V30 22249 C 2449.2 -5.33636 -0.337097 0
M  V30 22250 C 2450.5 -4.9011 1.80524 0
M  V30 22251 H 2452.19 -2.70124 1.29126 0
M  V30 22252 H 2449.74 -1.29857 0.622346 0
M  V30 22253 H 2451.69 -4.16211 -0.659242 0
M  V30 22254 H 2450.41 -3.04013 -1.19347 0
M  V30 22255 H 2449.07 -3.56013 0.874672 0
M  V30 22256 H 2448.72 -4.87969 -1.22048 0
M  V30 22257 H 2448.42 -5.87155 0.228601 0
M  V30 22258 H 2449.94 -6.06768 -0.682965 0
M  V30 22259 H 2451.36 -5.52696 1.52317 0
M  V30 22260 H 2449.75 -5.53679 2.3143 0
M  V30 22261 H 2450.82 -4.13917 2.52588 0
M  V30 22262 N 2452.17 -0.691135 -1.41637 0
M  V30 22263 C 2453.1 0.016112 -2.29194 0
M  V30 22264 C 2454.11 0.74893 -1.44551 0
M  V30 22265 O 2455.3 0.60037 -1.68101 0
M  V30 22266 C 2452.4 1.04684 -3.22327 0
M  V30 22267 C 2451.57 0.384545 -4.35706 0
M  V30 22268 C 2450.63 1.31728 -5.09445 0
M  V30 22269 O 2449.66 0.811352 -5.63388 0
M  V30 22270 N 2450.86 2.64984 -5.16492 0
M  V30 22271 H 2453.63 -0.735574 -2.90533 0
M  V30 22272 H 2451.19 -0.536816 -1.52741 0
M  V30 22273 H 2453.18 1.67246 -3.68525 0
M  V30 22274 H 2451.75 1.70011 -2.62326 0
M  V30 22275 H 2450.97 -0.420873 -3.91947 0
M  V30 22276 H 2452.26 -0.076166 -5.08743 0
M  V30 22277 H 2451.66 3.0861 -4.74106 0
M  V30 22278 H 2450.21 3.22751 -5.66282 0
M  V30 22279 N 2453.65 1.51461 -0.435577 0
M  V30 22280 C 2454.89 2.02073 0.131479 0
M  V30 22281 C 2455.22 1.31983 1.42866 0
M  V30 22282 O 2454.48 0.422917 1.91076 0
M  V30 22283 C 2454.77 3.55162 0.399357 0
M  V30 22284 C 2454.44 4.43532 -0.811798 0
M  V30 22285 C 2453.1 4.67405 -1.14395 0
M  V30 22286 C 2455.45 4.95389 -1.61985 0
M  V30 22287 C 2452.78 5.4038 -2.28486 0
M  V30 22288 C 2455.13 5.69616 -2.75174 0
M  V30 22289 C 2453.8 5.91752 -3.08845 0
M  V30 22290 H 2453.07 0.739436 0.0481114 0
M  V30 22291 H 2455.72 1.82429 -0.582412 0
M  V30 22292 H 2454.02 3.73127 1.19512 0
M  V30 22293 H 2455.72 3.91855 0.851501 0
M  V30 22294 H 2452.31 4.25147 -0.542973 0
M  V30 22295 H 2456.49 4.76831 -1.37645 0
M  V30 22296 H 2451.75 5.55735 -2.5489 0
M  V30 22297 H 2455.92 6.08787 -3.38158 0
M  V30 22298 H 2453.55 6.48079 -3.97364 0
M  V30 22299 N 2455.12 0.166873 1.56714 0
M  V30 22300 C 2456.35 -0.488798 2.01558 0
M  V30 22301 C 2456.77 -1.56313 1.04633 0
M  V30 22302 O 2456.13 -1.81283 0.0251623 0
M  V30 22303 C 2456.18 -1.04812 3.45032 0
M  V30 22304 O 2455.28 -2.1623 3.51167 0
M  V30 22305 H 2454.63 -0.117515 0.653518 0
M  V30 22306 H 2457.16 0.269457 2.02818 0
M  V30 22307 H 2457.17 -1.37184 3.84245 0
M  V30 22308 H 2455.84 -0.261499 4.15077 0
M  V30 22309 H 2454.42 -1.84936 3.2381 0
M  V30 22310 N 2456.6 -1.57237 -0.106866 0
M  V30 22311 C 2457.83 -1.90057 -0.830254 0
M  V30 22312 C 2458.25 -0.76001 -1.72062 0
M  V30 22313 O 2457.61 0.288959 -1.78982 0
M  V30 22314 C 2457.66 -3.21685 -1.62944 0
M  V30 22315 O 2456.76 -3.08446 -2.73743 0
M  V30 22316 H 2456.1 -0.623319 -0.228844 0
M  V30 22317 H 2458.63 -2.04421 -0.0856221 0
M  V30 22318 H 2458.64 -3.54705 -2.01615 0
M  V30 22319 H 2457.32 -4.04288 -0.975918 0
M  V30 22320 H 2455.9 -2.86917 -2.38186 0
M  V30 22321 N 2458.08 0.377381 -1.53015 0
M  V30 22322 C 2459.04 1.44441 -1.77959 0
M  V30 22323 C 2460.04 1.47086 -0.649789 0
M  V30 22324 O 2461.23 1.48053 -0.917923 0
M  V30 22325 C 2458.37 2.83648 -1.89094 0
M  V30 22326 H 2459.56 1.23602 -2.73245 0
M  V30 22327 H 2457.11 0.609819 -1.43913 0
M  V30 22328 H 2457.85 3.09816 -0.958347 0
M  V30 22329 H 2457.63 2.83128 -2.71258 0
M  V30 22330 H 2459.12 3.60942 -2.10026 0
M  V30 22331 N 2459.56 1.44175 0.636506 0
M  V30 22332 C 2460.97 1.41495 1.21803 0
M  V30 22333 C 2461.32 0.127535 1.95785 0
M  V30 22334 O 2460.45 -0.772341 2.02148 0
M  V30 22335 C 2461.04 2.56325 2.21547 0
M  V30 22336 C 2459.6 2.56857 2.75139 0
M  V30 22337 C 2458.75 2.33197 1.50048 0
M  V30 22338 H 2461.7 1.52834 0.427504 0
M  V30 22339 H 2461.72 2.28771 3.04046 0
M  V30 22340 H 2461.23 3.50011 1.67673 0
M  V30 22341 H 2459.33 1.67098 3.3303 0
M  V30 22342 H 2459.44 3.55171 3.21544 0
M  V30 22343 H 2457.81 1.82186 1.7799 0
M  V30 22344 H 2458.59 3.2899 0.980845 0
M  V30 22345 N 2461.04 -0.876421 1.30983 0
M  V30 22346 C 2462 -1.96457 1.18057 0
M  V30 22347 C 2463 -1.60427 0.109428 0
M  V30 22348 O 2464.19 -1.70477 0.358203 0
M  V30 22349 C 2461.32 -3.31121 0.810675 0
M  V30 22350 H 2462.51 -2.0935 2.14739 0
M  V30 22351 H 2460.07 -1.0639 1.14502 0
M  V30 22352 H 2460.8 -3.23928 -0.155265 0
M  V30 22353 H 2460.59 -3.58642 1.58487 0
M  V30 22354 H 2462.08 -4.1092 0.743948 0
M  V30 22355 N 2462.51 -1.13839 -1.08989 0
M  V30 22356 C 2463.93 -0.914946 -1.62744 0
M  V30 22357 C 2464.28 0.547561 -1.88404 0
M  V30 22358 O 2463.4 1.41522 -1.63708 0
M  V30 22359 C 2464 -1.65442 -2.95659 0
M  V30 22360 C 2462.56 -1.47672 -3.46222 0
M  V30 22361 C 2461.7 -1.68074 -2.20559 0
M  V30 22362 H 2464.65 -1.29104 -0.922923 0
M  V30 22363 H 2464.67 -1.11413 -3.63823 0
M  V30 22364 H 2464.19 -2.71882 -2.76951 0
M  V30 22365 H 2462.29 -0.435543 -3.70046 0
M  V30 22366 H 2462.4 -2.24276 -4.23364 0
M  V30 22367 H 2460.76 -1.10593 -2.29437 0
M  V30 22368 H 2461.55 -2.75843 -2.04366 0
M  V30 22369 N 2463.99 1.27046 -0.932584 0
M  V30 22370 C 2465.27 1.89264 -0.493803 0
M  V30 22371 C 2465.65 1.84362 1.0283 0
M  V30 22372 O 2465 1.29212 1.88458 0
M  V30 22373 C 2465.21 3.32975 -1.04542 0
M  V30 22374 C 2466.56 4.09865 -1.10886 0
M  V30 22375 O 2467.58 3.42009 -0.995387 0
M  V30 22376 O 2466.44 5.31196 -1.28427 0
M  V30 22377 H 2463.53 0.811452 -0.15961 0
M  V30 22378 H 2466.08 1.35278 -1.02459 0
M  V30 22379 H 2464.85 3.30861 -2.08919 0
M  V30 22380 H 2464.47 3.94487 -0.496564 0
M  V30 22381 N 2465.47 0.698636 1.41269 0
M  V30 22382 C 2466.7 0.240028 2.05503 0
M  V30 22383 C 2467.11 -1.11189 1.52586 0
M  V30 22384 O 2466.47 -1.69544 0.675353 0
M  V30 22385 C 2466.52 0.192493 3.60987 0
M  V30 22386 O 2466.24 1.49101 4.11947 0
M  V30 22387 C 2467.74 -0.286732 4.42372 0
M  V30 22388 H 2464.96 0.111056 0.661746 0
M  V30 22389 H 2467.51 0.952082 1.80985 0
M  V30 22390 H 2465.66 -0.470405 3.84533 0
M  V30 22391 H 2466.08 1.38016 5.06016 0
M  V30 22392 H 2467.55 -0.268864 5.51345 0
M  V30 22393 H 2468.03 -1.32612 4.18701 0
M  V30 22394 H 2468.63 0.345276 4.23896 0
M  V30 22395 N 2466.95 -1.51228 0.443603 0
M  V30 22396 C 2467.88 -2.30784 -0.355102 0
M  V30 22397 C 2468.86 -1.3647 -1.01538 0
M  V30 22398 O 2470.04 -1.65391 -1.01782 0
M  V30 22399 C 2467.17 -3.15442 -1.45306 0
M  V30 22400 C 2466.13 -4.18085 -0.915929 0
M  V30 22401 C 2465.45 -4.91303 -2.11011 0
M  V30 22402 C 2466.75 -5.22272 0.053952 0
M  V30 22403 H 2468.45 -2.97803 0.308819 0
M  V30 22404 H 2465.99 -1.43217 0.149963 0
M  V30 22405 H 2467.95 -3.6988 -2.01908 0
M  V30 22406 H 2466.67 -2.46255 -2.14536 0
M  V30 22407 H 2465.33 -3.64707 -0.372081 0
M  V30 22408 H 2464.98 -4.18614 -2.78875 0
M  V30 22409 H 2464.68 -5.60715 -1.75707 0
M  V30 22410 H 2466.2 -5.48567 -2.68155 0
M  V30 22411 H 2467.62 -5.71745 -0.421969 0
M  V30 22412 H 2466.01 -5.99247 0.319881 0
M  V30 22413 H 2467.08 -4.74714 0.988663 0
M  V30 22414 N 2468.43 -0.175182 -1.56623 0
M  V30 22415 C 2469.37 0.753596 -2.1815 0
M  V30 22416 C 2470.34 1.22415 -1.12267 0
M  V30 22417 O 2471.53 1.29162 -1.40434 0
M  V30 22418 C 2468.67 1.97587 -2.82937 0
M  V30 22419 C 2467.78 1.54853 -4.03292 0
M  V30 22420 C 2466.92 2.72477 -4.55993 0
M  V30 22421 C 2465.96 2.26252 -5.6875 0
M  V30 22422 N 2465.09 3.36983 -6.15944 0
M  V30 22423 H 2469.93 0.222143 -2.97171 0
M  V30 22424 H 2467.47 0.0979164 -1.46774 0
M  V30 22425 H 2469.43 2.69282 -3.18658 0
M  V30 22426 H 2468.06 2.48097 -2.06514 0
M  V30 22427 H 2467.11 0.728181 -3.73365 0
M  V30 22428 H 2468.42 1.16925 -4.84902 0
M  V30 22429 H 2467.58 3.52323 -4.93916 0
M  V30 22430 H 2466.31 3.13668 -3.73449 0
M  V30 22431 H 2465.32 1.44854 -5.30375 0
M  V30 22432 H 2466.54 1.86115 -6.53099 0
M  V30 22433 H 2464.49 3.77742 -5.36328 0
M  V30 22434 H 2464.41 3.0316 -6.92553 0
M  V30 22435 H 2465.68 4.17102 -6.58518 0
M  V30 22436 N 2469.91 1.57292 0.0985263 0
M  V30 22437 C 2470.82 2.05139 1.13821 0
M  V30 22438 C 2471.83 0.975629 1.44075 0
M  V30 22439 O 2473.01 1.28856 1.54784 0
M  V30 22440 C 2470.07 2.46338 2.43964 0
M  V30 22441 C 2469.13 3.68091 2.20924 0
M  V30 22442 C 2468.37 4.07316 3.44862 0
M  V30 22443 O 2468.59 3.46667 4.52966 0
M  V30 22444 O 2467.52 5.00291 3.34652 0
M  V30 22445 H 2471.35 2.9399 0.761829 0
M  V30 22446 H 2468.93 1.46132 0.310792 0
M  V30 22447 H 2470.82 2.73479 3.20605 0
M  V30 22448 H 2469.49 1.60626 2.81035 0
M  V30 22449 H 2468.4 3.46071 1.42075 0
M  V30 22450 H 2469.73 4.54572 1.88747 0
M  V30 22451 N 2471.38 -0.369261 1.53213 0
M  V30 22452 C 2472.61 -1.13747 1.73425 0
M  V30 22453 C 2473.03 -1.82378 0.460436 0
M  V30 22454 O 2472.39 -1.71593 -0.585268 0
M  V30 22455 C 2472.44 -2.14625 2.89773 0
M  V30 22456 O 2471.54 -3.21629 2.58124 0
M  V30 22457 H 2470.88 -0.330217 0.576067 0
M  V30 22458 H 2473.41 -0.427512 2.00084 0
M  V30 22459 H 2473.42 -2.58289 3.15834 0
M  V30 22460 H 2472.1 -1.64064 3.82173 0
M  V30 22461 H 2470.68 -2.82964 2.42869 0
M  V30 22462 N 2472.86 -1.4451 -0.628851 0
M  V30 22463 C 2473.79 -1.47541 -1.75398 0
M  V30 22464 C 2474.81 -0.368534 -1.58574 0
M  V30 22465 O 2476 -0.634405 -1.66846 0
M  V30 22466 C 2473.1 -1.29583 -3.13148 0
M  V30 22467 C 2472.27 -2.53558 -3.56409 0
M  V30 22468 C 2471.33 -2.30466 -4.73046 0
M  V30 22469 O 2470.35 -3.03966 -4.81242 0
M  V30 22470 N 2471.56 -1.3367 -5.64901 0
M  V30 22471 H 2474.32 -2.44537 -1.73268 0
M  V30 22472 H 2471.88 -1.39979 -0.813487 0
M  V30 22473 H 2473.87 -1.11978 -3.889 0
M  V30 22474 H 2472.44 -0.409425 -3.09907 0
M  V30 22475 H 2471.66 -2.86423 -2.70842 0
M  V30 22476 H 2472.95 -3.36012 -3.82065 0
M  V30 22477 H 2472.35 -0.729703 -5.60974 0
M  V30 22478 H 2470.91 -1.22043 -6.40272 0
M  V30 22479 N 2474.34 0.869463 -1.31446 0
M  V30 22480 C 2475.3 1.95828 -1.19097 0
M  V30 22481 C 2476.3 1.60367 -0.117934 0
M  V30 22482 O 2477.49 1.70285 -0.367238 0
M  V30 22483 C 2474.62 3.30686 -0.828223 0
M  V30 22484 H 2475.82 2.08208 -2.15846 0
M  V30 22485 H 2473.37 1.05782 -1.15065 0
M  V30 22486 H 2474.11 3.24006 0.138085 0
M  V30 22487 H 2473.89 3.57797 -1.60387 0
M  V30 22488 H 2475.38 4.1052 -0.76573 0
M  V30 22489 N 2475.82 1.14415 1.08383 0
M  V30 22490 C 2476.75 0.789073 2.15189 0
M  V30 22491 C 2477.76 -0.194141 1.61638 0
M  V30 22492 O 2478.95 0.0276024 1.78479 0
M  V30 22493 C 2476.05 0.150639 3.38565 0
M  V30 22494 C 2475.22 1.16864 4.21499 0
M  V30 22495 C 2474.28 0.553924 5.23276 0
M  V30 22496 O 2473.31 1.21695 5.56039 0
M  V30 22497 N 2474.51 -0.669194 5.7663 0
M  V30 22498 H 2477.28 1.70819 2.46254 0
M  V30 22499 H 2474.84 1.0386 1.24196 0
M  V30 22500 H 2476.83 -0.27311 4.03777 0
M  V30 22501 H 2475.4 -0.671614 3.053 0
M  V30 22502 H 2474.62 1.76932 3.52262 0
M  V30 22503 H 2475.91 1.85632 4.73728 0
M  V30 22504 H 2475.31 -1.22644 5.52245 0
M  V30 22505 H 2473.86 -1.03545 6.43523 0
M  V30 22506 N 2477.3 -1.26549 0.939309 0
M  V30 22507 C 2478.71 -1.46148 0.64133 0
M  V30 22508 C 2478.91 -1.84681 -0.805931 0
M  V30 22509 O 2477.97 -1.96737 -1.58275 0
M  V30 22510 C 2479.28 -2.54526 1.60115 0
M  V30 22511 C 2480.83 -2.68379 1.61064 0
M  V30 22512 C 2481.3 -3.79927 2.55772 0
M  V30 22513 N 2482.79 -3.87317 2.54046 0
M  V30 22514 C 2483.53 -4.73079 3.24012 0
M  V30 22515 N 2483.03 -5.63242 4.03398 0
M  V30 22516 N 2484.82 -4.66909 3.12974 0
M  V30 22517 H 2476.97 -0.998252 1.8748 0
M  V30 22518 H 2479.23 -0.499764 0.805568 0
M  V30 22519 H 2478.94 -2.33034 2.63416 0
M  V30 22520 H 2478.81 -3.52146 1.35177 0
M  V30 22521 H 2481.2 -2.89246 0.584886 0
M  V30 22522 H 2481.28 -1.71209 1.90056 0
M  V30 22523 H 2480.92 -3.59813 3.58465 0
M  V30 22524 H 2480.85 -4.7655 2.24071 0
M  V30 22525 H 2483.35 -3.22854 1.96401 0
M  V30 22526 H 2483.66 -6.25571 4.53741 0
M  V30 22527 H 2482 -5.63 4.07499 0
M  V30 22528 H 2485.19 -3.95472 2.50439 0
M  V30 22529 H 2485.37 -5.33526 3.67769 0
M  V30 22530 N 2478.77 -0.706118 -1.40896 0
M  V30 22531 C 2479.71 -0.00819805 -2.29199 0
M  V30 22532 C 2480.72 0.733556 -1.45337 0
M  V30 22533 O 2481.91 0.582507 -1.68728 0
M  V30 22534 C 2479.01 1.0126 -3.23419 0
M  V30 22535 C 2478.18 0.338311 -4.3609 0
M  V30 22536 C 2477.24 1.26317 -5.10813 0
M  V30 22537 O 2476.27 0.751552 -5.64217 0
M  V30 22538 N 2477.47 2.59491 -5.19273 0
M  V30 22539 H 2480.23 -0.766348 -2.89736 0
M  V30 22540 H 2477.79 -0.552987 -1.52163 0
M  V30 22541 H 2479.79 1.63328 -3.70278 0
M  V30 22542 H 2478.36 1.67219 -2.64115 0
M  V30 22543 H 2477.58 -0.462421 -3.91478 0
M  V30 22544 H 2478.86 -0.130121 -5.08634 0
M  V30 22545 H 2478.26 3.03564 -4.77352 0
M  V30 22546 H 2476.82 3.16727 -5.69673 0
M  V30 22547 N 2480.25 1.50991 -0.451617 0
M  V30 22548 C 2481.2 2.28091 0.352585 0
M  V30 22549 C 2482.17 1.32293 1.00438 0
M  V30 22550 O 2483.35 1.61212 1.02055 0
M  V30 22551 C 2480.49 3.13631 1.43977 0
M  V30 22552 C 2479.61 4.24439 0.804697 0
M  V30 22553 C 2478.74 4.97267 1.86813 0
M  V30 22554 C 2477.78 5.99976 1.21226 0
M  V30 22555 N 2476.92 6.66156 2.21768 0
M  V30 22556 H 2481.76 2.9637 -0.311238 0
M  V30 22557 H 2479.29 1.46168 -0.165333 0
M  V30 22558 H 2481.25 3.61563 2.08155 0
M  V30 22559 H 2479.88 2.47438 2.07303 0
M  V30 22560 H 2478.93 3.80366 0.050846 0
M  V30 22561 H 2480.25 4.97979 0.285989 0
M  V30 22562 H 2479.4 5.48818 2.58619 0
M  V30 22563 H 2478.14 4.23389 2.4206 0
M  V30 22564 H 2477.14 5.47703 0.479732 0
M  V30 22565 H 2478.37 6.75817 0.666933 0
M  V30 22566 H 2476.32 5.95082 2.76069 0
M  V30 22567 H 2476.23 7.35507 1.74828 0
M  V30 22568 H 2477.5 7.22332 2.93013 0
M  V30 22569 N 2481.73 0.183486 1.56528 0
M  V30 22570 C 2482.98 -0.458477 1.9642 0
M  V30 22571 C 2483.29 -1.6356 1.07273 0
M  V30 22572 O 2484.5 -2.3446 1.36897 0
M  V30 22573 C 2482.95 -0.86706 3.49299 0
M  V30 22574 C 2482.56 0.285136 4.47092 0
M  V30 22575 C 2484.31 -1.47676 3.97985 0
M  V30 22576 C 2482.21 -0.143758 5.91225 0
M  V30 22577 H 2481.14 -0.175058 0.733397 0
M  V30 22578 H 2483.79 0.273656 1.81448 0
M  V30 22579 H 2482.18 -1.65552 3.59734 0
M  V30 22580 H 2483.35 1.06258 4.48381 0
M  V30 22581 H 2481.66 0.805575 4.08533 0
M  V30 22582 H 2484.26 -1.8099 5.03137 0
M  V30 22583 H 2484.6 -2.37908 3.41622 0
M  V30 22584 H 2485.14 -0.752494 3.90618 0
M  V30 22585 H 2481.88 0.724089 6.51488 0
M  V30 22586 H 2481.4 -0.886309 5.93215 0
M  V30 22587 H 2483.08 -0.583515 6.44363 0
M  V30 22588 N 2483.21 -1.57342 -0.0901833 0
M  V30 22589 C 2484.43 -1.90927 -0.810049 0
M  V30 22590 C 2484.86 -0.778217 -1.71247 0
M  V30 22591 O 2484.22 0.269959 -1.79279 0
M  V30 22592 C 2484.26 -3.23396 -1.59523 0
M  V30 22593 O 2483.37 -3.11332 -2.70456 0
M  V30 22594 H 2482.71 -0.625711 -0.22222 0
M  V30 22595 H 2485.24 -2.045 -0.0639357 0
M  V30 22596 H 2485.25 -3.56823 -1.97841 0
M  V30 22597 H 2483.92 -4.053 -0.932983 0
M  V30 22598 H 2482.5 -2.89428 -2.3513 0
M  V30 22599 N 2484.69 0.36113 -1.53407 0
M  V30 22600 C 2486.1 0.703099 -1.43278 0
M  V30 22601 C 2486.3 1.93109 -0.575418 0
M  V30 22602 O 2485.36 2.5243 -0.0595806 0
M  V30 22603 C 2486.67 0.912149 -2.86532 0
M  V30 22604 C 2488.22 1.01188 -2.96193 0
M  V30 22605 C 2488.69 1.25337 -4.40516 0
M  V30 22606 N 2490.19 1.32097 -4.43965 0
M  V30 22607 C 2490.92 1.525 -5.52749 0
M  V30 22608 N 2490.42 1.70191 -6.7157 0
M  V30 22609 N 2492.21 1.54906 -5.40334 0
M  V30 22610 H 2484.36 -0.446512 -2.07654 0
M  V30 22611 H 2486.62 -0.137731 -0.937941 0
M  V30 22612 H 2486.33 0.0815796 -3.51605 0
M  V30 22613 H 2486.2 1.81897 -3.30444 0
M  V30 22614 H 2488.59 1.83299 -2.3127 0
M  V30 22615 H 2488.67 0.0823479 -2.55667 0
M  V30 22616 H 2488.32 0.437257 -5.06014 0
M  V30 22617 H 2488.25 2.19619 -4.78618 0
M  V30 22618 H 2490.74 1.20021 -3.58334 0
M  V30 22619 H 2491.05 1.85346 -7.50244 0
M  V30 22620 H 2489.39 1.67361 -6.74548 0
M  V30 22621 H 2492.59 1.40656 -4.46468 0
M  V30 22622 H 2492.76 1.70466 -6.25176 0
M  V30 22623 N 2486.16 1.44842 0.621179 0
M  V30 22624 C 2487.4 1.49677 1.39199 0
M  V30 22625 C 2487.77 0.129798 1.91561 0
M  V30 22626 O 2488.97 0.0528286 2.68748 0
M  V30 22627 C 2487.24 2.53542 2.51896 0
M  V30 22628 S 2488.8 2.775 3.39911 0
M  V30 22629 H 2485.62 0.529277 0.474749 0
M  V30 22630 H 2488.22 1.81832 0.718139 0
M  V30 22631 H 2486.92 3.51551 2.11755 0
M  V30 22632 H 2486.45 2.22992 3.24096 0
M  V30 22633 H 2488.47 2.09848 4.49642 0
M  V30 22634 N 2487.64 -0.862479 1.31905 0
M  V30 22635 C 2488.57 -1.97673 1.16009 0
M  V30 22636 C 2489.59 -1.6251 0.0971519 0
M  V30 22637 O 2490.78 -1.75127 0.345367 0
M  V30 22638 C 2487.88 -3.30455 0.751849 0
M  V30 22639 C 2487.05 -3.93911 1.9014 0
M  V30 22640 C 2486.11 -5.05017 1.47799 0
M  V30 22641 O 2485.13 -5.25433 2.18881 0
M  V30 22642 N 2486.34 -5.79322 0.369593 0
M  V30 22643 H 2489.1 -2.11854 2.11986 0
M  V30 22644 H 2486.66 -1.03689 1.24339 0
M  V30 22645 H 2488.65 -4.02177 0.451155 0
M  V30 22646 H 2487.22 -3.12383 -0.116538 0
M  V30 22647 H 2486.44 -3.15074 2.36901 0
M  V30 22648 H 2487.73 -4.33042 2.67118 0
M  V30 22649 H 2487.13 -5.65263 -0.2222 0
M  V30 22650 H 2485.69 -6.51673 0.128469 0
M  V30 22651 N 2489.12 -1.14988 -1.07775 0
M  V30 22652 C 2490.37 -0.923454 -1.80555 0
M  V30 22653 C 2490.7 0.548304 -1.86299 0
M  V30 22654 O 2489.97 1.40637 -1.34356 0
M  V30 22655 C 2490.26 -1.53305 -3.25837 0
M  V30 22656 C 2490.11 -3.07511 -3.28264 0
M  V30 22657 C 2491.43 -1.21526 -4.22989 0
M  V30 22658 H 2488.55 -0.336906 -0.655487 0
M  V30 22659 H 2491.19 -1.42085 -1.26142 0
M  V30 22660 H 2489.34 -1.11006 -3.72304 0
M  V30 22661 H 2491.01 -3.58686 -2.90073 0
M  V30 22662 H 2489.26 -3.41624 -2.67349 0
M  V30 22663 H 2489.93 -3.45274 -4.30685 0
M  V30 22664 H 2492.4 -1.58107 -3.84891 0
M  V30 22665 H 2491.28 -1.66802 -5.22942 0
M  V30 22666 H 2491.54 -0.131582 -4.41904 0
M  V30 22667 N 2490.6 1.26049 -0.946007 0
M  V30 22668 C 2491.84 1.95281 -0.603699 0
M  V30 22669 C 2492.2 1.72536 0.842347 0
M  V30 22670 O 2493.4 2.35613 1.29383 0
M  V30 22671 C 2491.67 3.44753 -0.942353 0
M  V30 22672 S 2493.23 4.32996 -0.711318 0
M  V30 22673 H 2490.05 0.675392 -0.222188 0
M  V30 22674 H 2492.65 1.52894 -1.21835 0
M  V30 22675 H 2491.36 3.58809 -1.99209 0
M  V30 22676 H 2490.89 3.92116 -0.317615 0
M  V30 22677 H 2492.9 4.94401 0.422134 0
M  V30 22678 N 2492.08 0.71358 1.4052 0
M  V30 22679 C 2493.32 0.252599 2.01221 0
M  V30 22680 C 2493.66 -1.15057 1.56446 0
M  V30 22681 O 2492.93 -1.78015 0.783628 0
M  V30 22682 C 2493.21 0.330395 3.58581 0
M  V30 22683 C 2493.07 1.7718 4.13434 0
M  V30 22684 C 2494.39 -0.299564 4.39079 0
M  V30 22685 H 2491.5 0.0932599 0.731076 0
M  V30 22686 H 2494.15 0.905702 1.67024 0
M  V30 22687 H 2492.3 -0.225669 3.87844 0
M  V30 22688 H 2493.97 2.38309 3.94976 0
M  V30 22689 H 2492.21 2.30017 3.67797 0
M  V30 22690 H 2492.88 1.77764 5.22593 0
M  V30 22691 H 2495.36 0.174212 4.15735 0
M  V30 22692 H 2494.23 -0.214674 5.4848 0
M  V30 22693 H 2494.5 -1.38281 4.19918 0
M  V30 22694 N 2493.55 -1.50749 0.459618 0
M  V30 22695 C 2494.5 -2.28275 -0.340484 0
M  V30 22696 C 2495.47 -1.32824 -0.997347 0
M  V30 22697 O 2496.66 -1.61751 -1.01199 0
M  V30 22698 C 2493.8 -3.1439 -1.42312 0
M  V30 22699 C 2492.91 -4.2486 -0.782177 0
M  V30 22700 C 2492.04 -4.9825 -1.84174 0
M  V30 22701 C 2491.08 -6.0061 -1.18042 0
M  V30 22702 N 2490.22 -6.67322 -2.18232 0
M  V30 22703 H 2495.06 -2.96201 0.326951 0
M  V30 22704 H 2492.6 -1.46078 0.173083 0
M  V30 22705 H 2494.56 -3.62661 -2.06234 0
M  V30 22706 H 2493.19 -2.48534 -2.05988 0
M  V30 22707 H 2492.24 -3.80388 -0.0306736 0
M  V30 22708 H 2493.55 -4.98124 -0.259576 0
M  V30 22709 H 2492.7 -5.50182 -2.55705 0
M  V30 22710 H 2491.44 -4.24667 -2.39812 0
M  V30 22711 H 2490.45 -5.4795 -0.450679 0
M  V30 22712 H 2491.67 -6.76161 -0.631083 0
M  V30 22713 H 2489.62 -5.96537 -2.72909 0
M  V30 22714 H 2489.54 -7.36424 -1.70925 0
M  V30 22715 H 2490.8 -7.23876 -2.89179 0
M  V30 22716 N 2495.03 -0.191784 -1.56429 0
M  V30 22717 C 2496.26 0.452893 -2.01575 0
M  V30 22718 C 2496.67 1.55962 -1.0711 0
M  V30 22719 O 2496.01 1.83576 -0.0675663 0
M  V30 22720 C 2496.08 1.07272 -3.43122 0
M  V30 22721 C 2495.74 0.105134 -4.56879 0
M  V30 22722 C 2496.74 -0.684239 -5.15378 0
M  V30 22723 C 2494.42 -0.00498653 -5.023 0
M  V30 22724 C 2496.42 -1.57073 -6.17743 0
M  V30 22725 C 2494.1 -0.895041 -6.0451 0
M  V30 22726 C 2495.1 -1.67648 -6.62105 0
M  V30 22727 O 2494.79 -2.55163 -7.6233 0
M  V30 22728 H 2494.52 0.118368 -0.665556 0
M  V30 22729 H 2497.07 -0.296773 -2.03245 0
M  V30 22730 H 2495.3 1.87091 -3.38429 0
M  V30 22731 H 2496.99 1.6217 -3.72096 0
M  V30 22732 H 2497.76 -0.609449 -4.81156 0
M  V30 22733 H 2493.64 0.593075 -4.57169 0
M  V30 22734 H 2497.18 -2.18112 -6.62626 0
M  V30 22735 H 2493.08 -0.970959 -6.38156 0
M  V30 22736 H 2493.85 -2.48905 -7.79736 0
M  V30 22737 N 2496.51 1.57387 0.0818378 0
M  V30 22738 C 2497.74 1.91354 0.799912 0
M  V30 22739 C 2498.16 0.787288 1.70831 0
M  V30 22740 O 2497.52 -0.260448 1.7942 0
M  V30 22741 C 2497.57 3.24237 1.57806 0
M  V30 22742 O 2496.67 3.12762 2.68801 0
M  V30 22743 H 2496.01 0.626881 0.218899 0
M  V30 22744 H 2498.54 2.04531 0.0530896 0
M  V30 22745 H 2498.55 3.57868 1.95946 0
M  V30 22746 H 2497.23 4.05789 0.911476 0
M  V30 22747 H 2495.8 2.9067 2.33592 0
M  V30 22748 O 2498.03 -0.225609 1.59916 0
M  V30 22749 H 2498.72 -0.867131 1.73207 0
M  V30 END ATOM
M  V30 BEGIN BOND
M  V30 END BOND
M  V30 END CTAB
M  END
$$$$
