drugbank_target|P53582 Methionine aminopeptidase 1 (DB04324; DB07901; DB07902; DB07903)
 OpenBabel12092120473D

  0  0  0     0  0            999 V3000
M  V30 BEGIN CTAB
M  V30 COUNTS 5990 6064 0 0 0
M  V30 BEGIN ATOM
M  V30 1 H -0.908 1.98254 -0.117106 0
M  V30 2 N 0 1.576 0 0
M  V30 3 C 0.933 2.03868 1.02534 0
M  V30 4 C 1.911 0.928543 1.3348 0
M  V30 5 O 3.095 1.19667 1.45644 0
M  V30 6 C 0.222 2.43627 2.35294 0
M  V30 7 C -0.732 3.65373 2.2001 0
M  V30 8 S 0.101 5.13292 1.52614 0
M  V30 9 C 1.257 5.56322 2.86805 0
M  V30 10 H 1.49 2.90518 0.631377 0
M  V30 11 H -0.977 1.52953 0.210867 0
M  V30 12 H 0.981 2.67203 3.11629 0
M  V30 13 H -0.358 1.57376 2.7183 0
M  V30 14 H -1.165 3.90944 3.18086 0
M  V30 15 H -1.563 3.418 1.51819 0
M  V30 16 H 0.729 5.58782 3.83104 0
M  V30 17 H 1.672 6.56266 2.65933 0
M  V30 18 H 2.08 4.83886 2.90714 0
M  V30 19 N 1.4781 -0.272755 1.55222 0
M  V30 20 C 2.4411 -1.32041 1.87344 0
M  V30 21 C 3.4411 -1.42342 0.74803 0
M  V30 22 O 4.6311 -1.41488 1.0162 0
M  V30 23 C 1.7631 -2.70173 2.07893 0
M  V30 24 H 2.9561 -1.04789 2.80997 0
M  V30 25 H 0.5091 -0.51083 1.47717 0
M  V30 26 H 1.2441 -3.02605 1.16622 0
M  V30 27 H 1.0291 -2.64082 2.89833 0
M  V30 28 H 2.5191 -3.45869 2.34017 0
M  V30 29 N 2.9562 -1.48159 -0.537278 0
M  V30 30 C 3.9192 -1.61665 -1.62472 0
M  V30 31 C 4.9192 -0.490395 -1.5314 0
M  V30 32 O 6.1092 -0.755998 -1.5694 0
M  V30 33 C 3.2412 -1.57997 -3.02076 0
M  V30 34 H 4.4342 -2.58621 -1.51839 0
M  V30 35 H 1.9872 -1.36647 -0.758771 0
M  V30 36 H 2.7222 -0.624913 -3.18222 0
M  V30 37 H 2.5072 -2.39755 -3.10258 0
M  V30 38 H 3.9972 -1.70627 -3.81151 0
M  V30 39 N 4.4343 0.785586 -1.36625 0
M  V30 40 C 5.6803 1.54591 -1.31261 0
M  V30 41 C 6.0133 1.93906 0.106823 0
M  V30 42 O 5.2883 1.63007 1.06108 0
M  V30 43 C 5.5713 2.82038 -2.23889 0
M  V30 44 C 5.4243 2.49066 -3.74548 0
M  V30 45 C 6.7433 3.83887 -2.15217 0
M  V30 46 H 3.8623 0.560846 -0.478143 0
M  V30 47 H 6.5043 0.902278 -1.67209 0
M  V30 48 H 4.6543 3.36961 -1.93363 0
M  V30 49 H 6.3263 2.00164 -4.15611 0
M  V30 50 H 4.5693 1.81954 -3.93796 0
M  V30 51 H 5.2403 3.40109 -4.34776 0
M  V30 52 H 7.7163 3.38421 -2.42096 0
M  V30 53 H 6.5923 4.70806 -2.82193 0
M  V30 54 H 6.8533 4.27131 -1.14068 0
M  V30 55 N 5.9124 1.20967 1.01018 0
M  V30 56 C 6.8224 0.980157 2.13143 0
M  V30 57 C 7.8384 -0.0660665 1.73875 0
M  V30 58 O 9.0144 0.122821 2.01025 0
M  V30 59 C 6.0794 0.54216 3.42435 0
M  V30 60 C 5.1404 1.65999 3.95908 0
M  V30 61 C 4.3734 1.2428 5.19028 0
M  V30 62 O 4.5964 0.114196 5.70286 0
M  V30 63 O 3.5304 2.05271 5.65816 0
M  V30 64 H 7.3564 1.91913 2.35379 0
M  V30 65 H 4.9414 0.994099 1.11526 0
M  V30 66 H 6.8234 0.30744 4.20277 0
M  V30 67 H 5.4984 -0.36815 3.216 0
M  V30 68 H 4.4054 1.94906 3.19316 0
M  V30 69 H 5.7384 2.54753 4.21143 0
M  V30 70 N 7.3905 -1.2043 1.01659 0
M  V30 71 C 8.6185 -1.93777 0.725132 0
M  V30 72 C 9.0335 -1.74772 -0.714166 0
M  V30 73 O 8.3905 -1.06169 -1.4844 0
M  V30 74 C 8.4415 -3.45876 1.05129 0
M  V30 75 O 8.1625 -3.6426 2.43406 0
M  V30 76 C 9.6635 -4.36368 0.780891 0
M  V30 77 H 6.8835 -0.615901 0.266284 0
M  V30 78 H 9.4275 -1.52922 1.35776 0
M  V30 79 H 7.5825 -3.8461 0.464065 0
M  V30 80 H 7.9965 -4.58246 2.55169 0
M  V30 81 H 9.4705 -5.41743 1.05918 0
M  V30 82 H 9.9475 -4.38275 -0.284937 0
M  V30 83 H 10.5535 -4.03296 1.35027 0
M  V30 84 N 8.8686 -0.792821 -1.36206 0
M  V30 85 C 10.2846 -0.474903 -1.52371 0
M  V30 86 C 10.4846 1.00622 -1.74578 0
M  V30 87 O 9.5406 1.79162 -1.77924 0
M  V30 88 C 10.8536 -1.3083 -2.70747 0
M  V30 89 C 12.4016 -1.30234 -2.84619 0
M  V30 90 C 12.8766 -2.11956 -4.06004 0
M  V30 91 N 14.3676 -2.09419 -4.13156 0
M  V30 92 C 15.1026 -2.69419 -5.06163 0
M  V30 93 N 14.5986 -3.3829 -6.04592 0
M  V30 94 N 16.3916 -2.59134 -4.98804 0
M  V30 95 H 8.5426 -1.75222 -1.20046 0
M  V30 96 H 10.8056 -0.745024 -0.586211 0
M  V30 97 H 10.5116 -2.35881 -2.6087 0
M  V30 98 H 10.3856 -0.95196 -3.6499 0
M  V30 99 H 12.7726 -0.259748 -2.93955 0
M  V30 100 H 12.8536 -1.69847 -1.91274 0
M  V30 101 H 12.4976 -3.16248 -3.97429 0
M  V30 102 H 12.4276 -1.69711 -4.98503 0
M  V30 103 H 14.9186 -1.59297 -3.42685 0
M  V30 104 H 15.2316 -3.81394 -6.7213 0
M  V30 105 H 13.5766 -3.42393 -6.04807 0
M  V30 106 H 16.7676 -2.04927 -4.20859 0
M  V30 107 H 16.9406 -3.06185 -5.711 0
M  V30 108 N 10.3467 1.47872 -0.545128 0
M  V30 109 C 11.5927 2.02793 -0.0166104 0
M  V30 110 C 11.9257 1.41987 1.32489 0
M  V30 111 O 11.2007 0.571045 1.85928 0
M  V30 112 C 11.4837 3.59989 0.0893294 0
M  V30 113 C 11.3367 4.3125 -1.27841 0
M  V30 114 C 12.6557 4.32606 0.808724 0
M  V30 115 H 9.7747 0.736962 -0.00751035 0
M  V30 116 H 12.4167 1.76433 -0.705085 0
M  V30 117 H 10.5667 3.82579 0.675681 0
M  V30 118 H 12.2387 4.20035 -1.90704 0
M  V30 119 H 10.4817 3.92076 -1.85632 0
M  V30 120 H 11.1527 5.39736 -1.15713 0
M  V30 121 H 13.6287 4.14936 0.310992 0
M  V30 122 H 12.5047 5.42251 0.851782 0
M  V30 123 H 12.7657 4.00963 1.86229 0
M  V30 124 N 11.8248 0.280983 1.55075 0
M  V30 125 C 13.0648 -0.335234 2.01632 0
M  V30 126 C 13.4288 -1.5261 1.16508 0
M  V30 127 O 14.6298 -2.21235 1.52672 0
M  V30 128 C 12.9008 -0.702172 3.50434 0
M  V30 129 S 14.4598 -1.30409 4.18974 0
M  V30 130 H 11.2778 -0.103967 0.703358 0
M  V30 131 H 13.8798 0.404187 1.91276 0
M  V30 132 H 12.5838 0.17333 4.10034 0
M  V30 133 H 12.1148 -1.4729 3.64786 0
M  V30 134 H 14.1298 -2.59253 4.23087 0
M  V30 135 N 13.3029 -1.57598 0.00835791 0
M  V30 136 C 14.2129 -2.12385 -0.996487 0
M  V30 137 C 15.2289 -1.07108 -1.37127 0
M  V30 138 O 16.4049 -1.39055 -1.4569 0
M  V30 139 C 13.4699 -2.62314 -2.26699 0
M  V30 140 C 12.5309 -3.82225 -1.95456 0
M  V30 141 C 11.7639 -4.29763 -3.16449 0
M  V30 142 O 11.9869 -3.76584 -4.28416 0
M  V30 143 O 10.9209 -5.21832 -2.99958 0
M  V30 144 H 14.7469 -2.98479 -0.560725 0
M  V30 145 H 12.3319 -1.47903 -0.210987 0
M  V30 146 H 14.2139 -2.94589 -3.01322 0
M  V30 147 H 12.8889 -1.79313 -2.69497 0
M  V30 148 H 11.7959 -3.54909 -1.18282 0
M  V30 149 H 13.1289 -4.66324 -1.57489 0
M  V30 150 N 14.781 0.264519 -1.55364 0
M  V30 151 C 16.009 1.013 -1.80405 0
M  V30 152 C 16.424 1.79618 -0.581622 0
M  V30 153 O 15.781 1.76879 0.449468 0
M  V30 154 C 15.832 1.96487 -3.03439 0
M  V30 155 O 15.553 1.21341 -4.20961 0
M  V30 156 C 17.054 2.83079 -3.41147 0
M  V30 157 H 14.274 0.298875 -0.600762 0
M  V30 158 H 16.818 0.292736 -2.02394 0
M  V30 159 H 14.973 2.63965 -2.83551 0
M  V30 160 H 15.387 1.85573 -4.90574 0
M  V30 161 H 16.861 3.4565 -4.30384 0
M  V30 162 H 17.338 3.53286 -2.60932 0
M  V30 163 H 17.944 2.2108 -3.63323 0
M  V30 164 N 16.2591 1.48442 0.529413 0
M  V30 165 C 17.5361 1.46978 1.29062 0
M  V30 166 C 17.9161 0.181769 2.10316 0
M  V30 167 O 17.2641 -0.836481 2.12639 0
M  V30 168 C 17.4741 2.7321 2.17157 0
M  V30 169 C 18.8221 3.21562 2.77278 0
M  V30 170 O 19.8461 2.74131 2.27444 0
M  V30 171 O 18.7051 4.04094 3.67927 0
M  V30 172 H 15.7991 0.587003 0.582543 0
M  V30 173 H 18.3451 1.60676 0.546021 0
M  V30 174 H 17.1171 3.58465 1.56903 0
M  V30 175 H 16.7401 2.62235 2.98862 0
M  V30 176 N 17.7372 -0.778329 1.37039 0
M  V30 177 C 18.9852 -1.53361 1.31623 0
M  V30 178 C 19.3062 -1.94739 -0.100831 0
M  V30 179 O 18.5762 -1.65797 -1.04347 0
M  V30 180 H 17.1562 -0.568794 0.484234 0
M  V30 181 H 19.8182 -0.926742 1.71457 0
M  V30 182 H 18.9142 -2.43606 1.95096 0
M  V30 183 N 19.2153 -1.21501 -1.00376 0
M  V30 184 C 20.4553 -1.04444 -1.75701 0
M  V30 185 C 20.8193 0.414644 -1.87469 0
M  V30 186 O 22.0203 0.705763 -2.59369 0
M  V30 187 C 20.2913 -1.72389 -3.13077 0
M  V30 188 S 21.8503 -1.70604 -4.04277 0
M  V30 189 H 18.6683 -0.374249 -0.604532 0
M  V30 190 H 21.2703 -1.54267 -1.20091 0
M  V30 191 H 19.9743 -2.77734 -3.02146 0
M  V30 192 H 19.5053 -1.22751 -3.73759 0
M  V30 193 H 21.5203 -0.748012 -4.9053 0
M  V30 194 N 20.6934 1.19889 -1.02296 0
M  V30 195 C 21.9184 1.9393 -0.735237 0
M  V30 196 C 22.3434 1.74639 0.698782 0
M  V30 197 O 21.7014 1.04481 1.48167 0
M  V30 198 C 21.7494 3.43916 -1.08417 0
M  V30 199 O 20.8534 4.11917 -0.199446 0
M  V30 200 H 20.1944 0.605645 -0.272196 0
M  V30 201 H 22.7244 1.52137 -1.36804 0
M  V30 202 H 22.7344 3.9456 -1.03856 0
M  V30 203 H 21.4094 3.5728 -2.12894 0
M  V30 204 H 19.9864 3.71666 -0.303136 0
M  V30 205 N 22.1715 0.800033 1.35784 0
M  V30 206 C 23.3965 0.388511 2.03729 0
M  V30 207 C 23.8215 -0.990481 1.5991 0
M  V30 208 O 23.1795 -1.64013 0.772612 0
M  V30 209 C 23.2275 0.4726 3.5749 0
M  V30 210 O 22.3315 -0.51646 4.09153 0
M  V30 211 H 21.6725 0.163271 0.643614 0
M  V30 212 H 24.2025 1.0841 1.73518 0
M  V30 213 H 24.2125 0.34003 4.06581 0
M  V30 214 H 22.8875 1.47848 3.88734 0
M  V30 215 H 21.4645 -0.344673 3.71304 0
M  V30 216 N 23.6496 -1.47581 0.552962 0
M  V30 217 C 24.5596 -2.33743 -0.200353 0
M  V30 218 C 25.5756 -1.47928 -0.916151 0
M  V30 219 O 26.7516 -1.80865 -0.885993 0
M  V30 220 C 23.8166 -3.24536 -1.21973 0
M  V30 221 C 22.8776 -4.26238 -0.511819 0
M  V30 222 C 22.1106 -5.12693 -1.48263 0
M  V30 223 O 22.3336 -5.01525 -2.71714 0
M  V30 224 O 21.2676 -5.93375 -1.00945 0
M  V30 225 H 25.0936 -2.9945 0.506304 0
M  V30 226 H 22.6786 -1.46071 0.313622 0
M  V30 227 H 24.5606 -3.80631 -1.80827 0
M  V30 228 H 23.2356 -2.61462 -1.90839 0
M  V30 229 H 22.1426 -3.73914 0.117799 0
M  V30 230 H 23.4756 -4.92014 0.135308 0
M  V30 231 N 25.1277 -0.289203 -1.54924 0
M  V30 232 C 26.0907 0.579144 -2.21762 0
M  V30 233 C 27.0907 1.07047 -1.1999 0
M  V30 234 O 28.2807 0.968384 -1.44803 0
M  V30 235 C 25.4127 1.80055 -2.8947 0
M  V30 236 H 26.6057 -0.00464908 -2.999 0
M  V30 237 H 24.1587 -0.0399306 -1.56249 0
M  V30 238 H 24.8937 2.42449 -2.15381 0
M  V30 239 H 24.6787 1.45602 -3.64064 0
M  V30 240 H 26.1687 2.41773 -3.40493 0
M  V30 241 N 26.6058 1.57591 -0.0167156 0
M  V30 242 C 27.5528 2.09462 0.969251 0
M  V30 243 C 28.5228 0.99381 1.33089 0
M  V30 244 O 29.7078 1.26726 1.42636 0
M  V30 245 C 26.8478 2.61622 2.25051 0
M  V30 246 C 25.9608 3.85666 1.94642 0
M  V30 247 C 25.0958 4.26266 3.16972 0
M  V30 248 C 24.1348 5.43101 2.82326 0
M  V30 249 N 23.2718 5.78915 3.97243 0
M  V30 250 H 28.1118 2.93428 0.519997 0
M  V30 251 H 25.6488 1.45044 0.245087 0
M  V30 252 H 27.6068 2.89949 2.99976 0
M  V30 253 H 26.2368 1.80505 2.67615 0
M  V30 254 H 25.2888 3.64145 1.10013 0
M  V30 255 H 26.6008 4.70678 1.65117 0
M  V30 256 H 25.7548 4.55963 4.00228 0
M  V30 257 H 24.4938 3.39996 3.49648 0
M  V30 258 H 23.4988 5.1311 1.97479 0
M  V30 259 H 24.7238 6.3106 2.50879 0
M  V30 260 H 22.6698 4.95602 4.29785 0
M  V30 261 H 22.5868 6.58539 3.71299 0
M  V30 262 H 23.8548 6.13212 4.81239 0
M  V30 263 N 28.0839 -0.256276 1.55502 0
M  V30 264 C 29.0139 -1.32102 1.92539 0
M  V30 265 C 29.9949 -1.50684 0.789194 0
M  V30 266 O 31.1799 -1.63449 1.04872 0
M  V30 267 C 28.3099 -2.67752 2.21192 0
M  V30 268 C 27.2639 -2.63878 3.36975 0
M  V30 269 C 26.5899 -4.03236 3.51147 0
M  V30 270 C 27.8899 -2.21682 4.72921 0
M  V30 271 H 29.5839 -1.01351 2.81724 0
M  V30 272 H 27.1299 -0.486105 1.35547 0
M  V30 273 H 29.0829 -3.42365 2.45691 0
M  V30 274 H 27.8069 -3.0012 1.28824 0
M  V30 275 H 26.4659 -1.91722 3.12471 0
M  V30 276 H 26.1139 -4.32854 2.56216 0
M  V30 277 H 25.8139 -4.01535 4.29003 0
M  V30 278 H 27.3379 -4.79563 3.77957 0
M  V30 279 H 28.7519 -2.86023 4.96854 0
M  V30 280 H 27.1489 -2.3111 5.53812 0
M  V30 281 H 28.2189 -1.16833 4.70615 0
M  V30 282 N 29.562 -1.4872 -0.521534 0
M  V30 283 C 30.494 -1.59968 -1.64143 0
M  V30 284 C 31.507 -0.483463 -1.55456 0
M  V30 285 O 32.696 -0.75467 -1.61762 0
M  V30 286 C 29.796 -1.52127 -3.02838 0
M  V30 287 C 28.969 -2.78932 -3.36921 0
M  V30 288 C 28.028 -2.64428 -4.54933 0
M  V30 289 O 27.054 -3.38331 -4.57735 0
M  V30 290 N 28.256 -1.74606 -5.53618 0
M  V30 291 H 31.021 -2.56548 -1.54929 0
M  V30 292 H 28.582 -1.45551 -0.708988 0
M  V30 293 H 30.574 -1.40106 -3.79674 0
M  V30 294 H 29.144 -0.634868 -3.06085 0
M  V30 295 H 28.364 -3.05455 -2.4918 0
M  V30 296 H 29.652 -3.63041 -3.56481 0
M  V30 297 H 29.05 -1.13782 -5.54139 0
M  V30 298 H 27.607 -1.6852 -6.29638 0
M  V30 299 N 31.0401 0.771051 -1.3745 0
M  V30 300 C 32.2801 1.54264 -1.34096 0
M  V30 301 C 32.6441 1.91858 0.0737639 0
M  V30 302 O 33.8451 2.67797 0.23203 0
M  V30 303 C 32.1161 2.77326 -2.25445 0
M  V30 304 S 33.6751 3.67383 -2.39948 0
M  V30 305 H 30.4931 0.528122 -0.476034 0
M  V30 306 H 33.0951 0.906633 -1.73206 0
M  V30 307 H 31.7991 2.47788 -3.27153 0
M  V30 308 H 31.3301 3.45886 -1.87421 0
M  V30 309 H 33.3451 4.69334 -1.61059 0
M  V30 310 N 32.5182 1.22032 0.997298 0
M  V30 311 C 33.9292 1.0397 1.55071 0
M  V30 312 C 34.2802 -0.398192 1.92117 0
M  V30 313 O 33.4052 -1.28254 1.74298 0
M  V30 314 C 34.0002 1.88109 2.81781 0
M  V30 315 C 32.5592 1.74357 3.33581 0
M  V30 316 C 31.7062 1.84846 2.06706 0
M  V30 317 H 34.6572 1.35941 0.818883 0
M  V30 318 H 34.6782 1.39589 3.53971 0
M  V30 319 H 34.1902 2.92754 2.54787 0
M  V30 320 H 32.2912 0.72427 3.65493 0
M  V30 321 H 32.4042 2.56772 4.04481 0
M  V30 322 H 30.7682 1.28238 2.20062 0
M  V30 323 H 31.5512 2.91014 1.82114 0
M  V30 324 N 33.9963 -1.19345 1.0293 0
M  V30 325 C 35.2243 -1.92997 0.745644 0
M  V30 326 C 35.6393 -1.75519 -0.695589 0
M  V30 327 O 34.9963 -1.07737 -1.47306 0
M  V30 328 C 35.0473 -3.44741 1.08792 0
M  V30 329 O 34.7683 -3.61658 2.47256 0
M  V30 330 C 36.2693 -4.35515 0.827129 0
M  V30 331 H 33.4893 -0.613042 0.272801 0
M  V30 332 H 36.0333 -1.51473 1.3739 0
M  V30 333 H 34.1883 -3.84097 0.504832 0
M  V30 334 H 34.6023 -4.55514 2.60015 0
M  V30 335 H 36.0763 -5.40589 1.11658 0
M  V30 336 H 36.5533 -4.38552 -0.238436 0
M  V30 337 H 37.1593 -4.01841 1.39297 0
M  V30 338 N 35.4744 -0.807222 -1.35358 0
M  V30 339 C 36.7144 -0.393534 -2.00576 0
M  V30 340 C 37.0784 1.0203 -1.62647 0
M  V30 341 O 38.2794 1.53603 -2.20589 0
M  V30 342 C 36.5504 -0.572017 -3.52793 0
M  V30 343 S 38.1094 -0.248845 -4.38094 0
M  V30 344 H 34.9274 -0.149425 -0.695121 0
M  V30 345 H 37.5294 -1.04961 -1.64935 0
M  V30 346 H 36.2334 -1.60097 -3.77885 0
M  V30 347 H 35.7644 0.099359 -3.93275 0
M  V30 348 H 37.7794 0.943253 -4.87152 0
M  V30 349 N 36.9525 1.47285 -0.560781 0
M  V30 350 C 38.2015 2.01668 -0.035895 0
M  V30 351 C 38.5145 1.44021 1.32353 0
M  V30 352 O 39.7205 1.90088 1.93853 0
M  V30 353 C 38.1765 3.59897 -0.0136659 0
M  V30 354 C 37.7845 4.26536 -1.37006 0
M  V30 355 C 39.5285 4.22017 0.458425 0
M  V30 356 C 37.4355 5.76782 -1.30675 0
M  V30 357 H 36.3655 0.753938 -0.00964879 0
M  V30 358 H 39.0165 1.69243 -0.709166 0
M  V30 359 H 37.3985 3.89301 0.725325 0
M  V30 360 H 38.5725 4.0877 -2.12705 0
M  V30 361 H 36.8875 3.76419 -1.78038 0
M  V30 362 H 39.4845 5.32124 0.524247 0
M  V30 363 H 39.8275 3.89437 1.4712 0
M  V30 364 H 40.3605 3.97159 -0.225818 0
M  V30 365 H 37.0995 6.13988 -2.29564 0
M  V30 366 H 36.6195 5.96875 -0.591622 0
M  V30 367 H 38.2985 6.39063 -1.01033 0
M  V30 368 N 38.4306 0.297415 1.54768 0
M  V30 369 C 39.3776 -0.580276 2.23386 0
M  V30 370 C 40.3476 -1.13238 1.21517 0
M  V30 371 O 41.5326 -1.17757 1.50126 0
M  V30 372 C 38.6726 -1.74801 2.97555 0
M  V30 373 C 37.7856 -1.22764 4.1419 0
M  V30 374 C 36.9206 -2.35895 4.75949 0
M  V30 375 C 35.9596 -1.80974 5.84735 0
M  V30 376 N 35.0966 -2.87664 6.40464 0
M  V30 377 H 39.9366 0.0114833 2.97998 0
M  V30 378 H 37.4736 0.0174361 1.4709 0
M  V30 379 H 39.4316 -2.43475 3.38786 0
M  V30 380 H 38.0616 -2.31145 2.25326 0
M  V30 381 H 37.1136 -0.433271 3.77924 0
M  V30 382 H 38.4256 -0.785551 4.92575 0
M  V30 383 H 37.5796 -3.12523 5.20014 0
M  V30 384 H 36.3186 -2.83429 3.96887 0
M  V30 385 H 35.3236 -1.02834 5.40097 0
M  V30 386 H 36.5486 -1.34348 6.65678 0
M  V30 387 H 34.4946 -3.34538 5.64287 0
M  V30 388 H 34.4116 -2.4794 7.14186 0
M  V30 389 H 35.6796 -3.642 6.89187 0
M  V30 390 N 39.9087 -1.5758 0.0250728 0
M  V30 391 C 40.8387 -2.13007 -0.956575 0
M  V30 392 C 41.8197 -1.0452 -1.342 0
M  V30 393 O 43.0047 -1.32332 -1.42133 0
M  V30 394 C 40.1347 -2.65386 -2.24026 0
M  V30 395 C 39.0887 -3.78623 -1.99571 0
M  V30 396 C 38.4147 -4.17414 -3.3417 0
M  V30 397 C 39.7147 -5.04867 -1.33814 0
M  V30 398 H 41.4087 -2.9528 -0.494991 0
M  V30 399 H 38.9547 -1.42042 -0.236651 0
M  V30 400 H 40.9077 -3.02794 -2.93076 0
M  V30 401 H 39.6317 -1.80268 -2.72343 0
M  V30 402 H 38.2907 -3.41646 -1.32941 0
M  V30 403 H 37.9387 -3.29284 -3.80238 0
M  V30 404 H 37.6387 -4.93719 -3.18615 0
M  V30 405 H 39.1627 -4.57402 -4.04495 0
M  V30 406 H 40.5767 -5.39888 -1.92857 0
M  V30 407 H 38.9737 -5.86144 -1.28669 0
M  V30 408 H 40.0437 -4.83904 -0.310561 0
M  V30 409 N 41.3868 0.248026 -1.55636 0
M  V30 410 C 42.6348 0.974295 -1.77065 0
M  V30 411 C 42.9558 1.85897 -0.588849 0
M  V30 412 O 42.2258 1.91868 0.395407 0
M  V30 413 H 40.8058 0.362733 -0.653019 0
M  V30 414 H 43.4678 0.266244 -1.93073 0
M  V30 415 H 42.5638 1.59667 -2.68166 0
M  V30 416 N 42.8649 1.48995 0.513639 0
M  V30 417 C 44.1139 1.57093 1.2651 0
M  V30 418 C 44.4269 0.257091 1.93903 0
M  V30 419 O 45.6329 0.216478 2.70636 0
M  V30 420 C 44.0889 2.77118 2.29638 0
M  V30 421 C 43.6969 4.15209 1.68241 0
M  V30 422 C 45.4409 2.94538 3.05692 0
M  V30 423 C 43.3479 5.26474 2.69406 0
M  V30 424 H 42.2779 0.584876 0.475854 0
M  V30 425 H 44.9289 1.7536 0.540487 0
M  V30 426 H 43.3109 2.52319 3.05207 0
M  V30 427 H 44.4849 4.50094 0.987505 0
M  V30 428 H 42.7999 4.03042 1.04623 0
M  V30 429 H 45.3969 3.74832 3.8132 0
M  V30 430 H 45.7399 2.04614 3.62545 0
M  V30 431 H 46.2729 3.19316 2.37238 0
M  V30 432 H 43.0119 6.18417 2.17351 0
M  V30 433 H 42.5319 4.96058 3.37175 0
M  V30 434 H 44.2109 5.55277 3.32078 0
M  V30 435 N 44.343 -0.763751 1.37857 0
M  V30 436 C 45.275 -1.88664 1.30148 0
M  V30 437 C 46.288 -1.61365 0.215685 0
M  V30 438 O 47.477 -1.72134 0.472459 0
M  V30 439 C 44.577 -3.24075 0.991396 0
M  V30 440 C 43.75 -3.78958 2.18426 0
M  V30 441 C 42.809 -4.92862 1.8432 0
M  V30 442 O 41.835 -5.08027 2.56704 0
M  V30 443 N 43.037 -5.75071 0.792081 0
M  V30 444 H 45.802 -1.95791 2.26905 0
M  V30 445 H 43.363 -0.943226 1.31586 0
M  V30 446 H 45.355 -3.97804 0.743935 0
M  V30 447 H 43.925 -3.12399 0.112122 0
M  V30 448 H 43.145 -2.96913 2.59299 0
M  V30 449 H 44.433 -4.12357 2.98058 0
M  V30 450 H 43.831 -5.65375 0.191595 0
M  V30 451 H 42.388 -6.48991 0.60449 0
M  V30 452 N 45.8211 -1.22559 -0.990812 0
M  V30 453 C 47.0691 -1.04933 -1.72724 0
M  V30 454 C 47.3901 0.416158 -1.90508 0
M  V30 455 O 46.6601 1.29918 -1.46622 0
M  V30 456 H 45.2401 -0.385296 -0.639965 0
M  V30 457 H 47.9021 -1.54105 -1.19322 0
M  V30 458 H 46.9981 -1.52886 -2.72089 0
M  V30 459 N 47.2992 1.18797 -1.03562 0
M  V30 460 C 48.5242 1.9314 -0.755764 0
M  V30 461 C 48.9492 1.7537 0.68022 0
M  V30 462 O 48.3072 1.06046 1.47051 0
M  V30 463 C 48.3552 3.42747 -1.12058 0
M  V30 464 O 47.4592 4.11683 -0.243124 0
M  V30 465 H 46.8002 0.602724 -0.278604 0
M  V30 466 H 49.3302 1.50678 -1.3841 0
M  V30 467 H 49.3402 3.93437 -1.08035 0
M  V30 468 H 48.0152 3.55002 -2.16672 0
M  V30 469 H 46.5922 3.71323 -0.342539 0
M  V30 470 N 48.7773 0.814389 1.34928 0
M  V30 471 C 50.0073 0.41054 2.0248 0
M  V30 472 C 50.4153 -0.985625 1.61499 0
M  V30 473 O 49.7583 -1.64781 0.811976 0
M  V30 474 C 49.8203 0.423384 3.56998 0
M  V30 475 C 49.4843 1.77141 4.21272 0
M  V30 476 C 50.4813 2.73093 4.42398 0
M  V30 477 C 48.1663 2.05755 4.58225 0
M  V30 478 C 50.1603 3.95838 4.9959 0
M  V30 479 C 47.8473 3.28762 5.1513 0
M  V30 480 C 48.8453 4.23621 5.35755 0
M  V30 481 O 48.5333 5.44456 5.91458 0
M  V30 482 H 48.2653 0.163997 0.655806 0
M  V30 483 H 50.8193 1.10155 1.73364 0
M  V30 484 H 49.0493 -0.324276 3.85338 0
M  V30 485 H 50.7383 0.0407683 4.0588 0
M  V30 486 H 51.5043 2.5228 4.14222 0
M  V30 487 H 47.3833 1.32727 4.4148 0
M  V30 488 H 50.9273 4.69891 5.15605 0
M  V30 489 H 46.8243 3.49443 5.42734 0
M  V30 490 H 47.5923 5.4586 6.09901 0
M  V30 491 N 50.2554 -1.46986 0.568584 0
M  V30 492 C 51.5024 -2.02441 0.0487986 0
M  V30 493 C 51.8304 -1.44169 -1.30559 0
M  V30 494 O 51.0854 -0.591213 -1.86556 0
M  V30 495 C 51.3844 -3.57306 -0.081836 0
M  V30 496 C 51.0504 -4.34552 1.20313 0
M  V30 497 C 49.7124 -4.55376 1.5552 0
M  V30 498 C 52.0644 -4.79016 2.05411 0
M  V30 499 C 49.3924 -5.17913 2.7565 0
M  V30 500 C 51.7444 -5.42879 3.24754 0
M  V30 501 C 50.4084 -5.61933 3.60261 0
M  V30 502 H 49.6784 -0.740785 0.0178567 0
M  V30 503 H 52.3254 -1.76525 0.742384 0
M  V30 504 H 50.6304 -3.8228 -0.858463 0
M  V30 505 H 52.3274 -3.97876 -0.499546 0
M  V30 506 H 48.9174 -4.18631 0.919014 0
M  V30 507 H 53.1014 -4.62696 1.79516 0
M  V30 508 H 48.3574 -5.30858 3.03315 0
M  V30 509 H 52.5314 -5.76293 3.90973 0
M  V30 510 H 50.1584 -6.10161 4.53439 0
M  V30 511 N 51.7335 -0.305618 -1.54608 0
M  V30 512 C 52.9735 0.303114 -2.0214 0
M  V30 513 C 53.3375 1.50737 -1.18921 0
M  V30 514 O 54.5385 2.18778 -1.56172 0
M  V30 515 C 52.8095 0.646332 -3.51507 0
M  V30 516 S 54.3685 1.23727 -4.20995 0
M  V30 517 H 51.1865 0.0927643 -0.704923 0
M  V30 518 H 53.7885 -0.434566 -1.90609 0
M  V30 519 H 52.4925 -0.238541 -4.09706 0
M  V30 520 H 52.0235 1.41468 -3.67084 0
M  V30 521 H 54.0385 2.52489 -4.27158 0
M  V30 522 N 53.2116 1.57565 -0.0334293 0
M  V30 523 C 54.4366 1.96689 0.657895 0
M  V30 524 C 54.8616 0.910057 1.64619 0
M  V30 525 O 54.2196 -0.128598 1.80843 0
M  V30 526 C 54.2676 3.34905 1.33683 0
M  V30 527 O 53.3716 3.31574 2.45219 0
M  V30 528 H 52.7126 0.641205 0.172489 0
M  V30 529 H 55.2426 2.04372 -0.0965621 0
M  V30 530 H 55.2526 3.71234 1.69262 0
M  V30 531 H 53.9276 4.11366 0.612411 0
M  V30 532 H 52.5046 3.06968 2.11719 0
M  V30 533 N 54.6897 -0.239769 1.55765 0
M  V30 534 C 55.6217 -1.32001 1.87372 0
M  V30 535 C 56.6347 -1.43944 0.760522 0
M  V30 536 O 57.8237 -1.45167 1.0387 0
M  V30 537 C 54.9237 -2.69779 2.05115 0
M  V30 538 C 54.0967 -2.80014 3.36022 0
M  V30 539 C 53.1557 -3.98684 3.4342 0
M  V30 540 O 52.1817 -3.87877 4.16582 0
M  V30 541 N 53.3837 -5.12176 2.73232 0
M  V30 542 H 56.1487 -1.0522 2.80622 0
M  V30 543 H 53.7097 -0.429857 1.56089 0
M  V30 544 H 55.7017 -3.47517 2.07399 0
M  V30 545 H 54.2717 -2.89237 1.18577 0
M  V30 546 H 53.4917 -1.88896 3.45994 0
M  V30 547 H 54.7797 -2.83808 4.22292 0
M  V30 548 H 54.1777 -5.2385 2.13536 0
M  V30 549 H 52.7347 -5.88022 2.81199 0
M  V30 550 N 56.1678 -1.49265 -0.50573 0
M  V30 551 C 57.0778 -1.68312 -1.63427 0
M  V30 552 C 58.0938 -0.565682 -1.64548 0
M  V30 553 O 59.2698 -0.839801 -1.83055 0
M  V30 554 C 56.3348 -1.74107 -2.99813 0
M  V30 555 C 55.3958 -2.97653 -3.09356 0
M  V30 556 C 54.6288 -3.03163 -4.39236 0
M  V30 557 O 54.8518 -2.16396 -5.27758 0
M  V30 558 O 53.7858 -3.9558 -4.53652 0
M  V30 559 H 57.6118 -2.63907 -1.50289 0
M  V30 560 H 55.1968 -1.32951 -0.681502 0
M  V30 561 H 57.0788 -1.803 -3.80881 0
M  V30 562 H 55.7538 -0.816901 -3.13223 0
M  V30 563 H 54.6608 -2.96981 -2.27493 0
M  V30 564 H 55.9938 -3.89535 -3.00871 0
M  V30 565 N 57.6459 0.756429 -1.3826 0
M  V30 566 C 58.8859 1.52833 -1.35725 0
M  V30 567 C 59.2499 1.91926 0.0534106 0
M  V30 568 O 60.4509 2.68028 0.203613 0
M  V30 569 C 58.7219 2.74919 -2.28373 0
M  V30 570 S 60.2809 3.64817 -2.43832 0
M  V30 571 H 57.0989 0.523043 -0.481608 0
M  V30 572 H 59.7009 0.888212 -1.74158 0
M  V30 573 H 58.4049 2.44304 -3.29763 0
M  V30 574 H 57.9359 3.43878 -1.91079 0
M  V30 575 H 59.9509 4.676 -1.66027 0
M  V30 576 N 59.124 1.23083 0.984299 0
M  V30 577 C 60.371 1.06057 1.72505 0
M  V30 578 C 60.699 -0.403105 1.90277 0
M  V30 579 O 59.954 -1.3149 1.44944 0
M  V30 580 C 60.253 1.72673 3.1292 0
M  V30 581 C 59.919 3.22586 3.15038 0
M  V30 582 C 58.581 3.63489 3.15324 0
M  V30 583 C 60.933 4.185 3.10657 0
M  V30 584 C 58.261 4.98772 3.08939 0
M  V30 585 C 60.613 5.53769 3.05814 0
M  V30 586 C 59.277 5.94041 3.04419 0
M  V30 587 H 58.547 0.388091 0.631242 0
M  V30 588 H 61.194 1.52963 1.15215 0
M  V30 589 H 59.499 1.18116 3.73572 0
M  V30 590 H 61.196 1.56982 3.68996 0
M  V30 591 H 57.786 2.90022 3.15571 0
M  V30 592 H 61.97 3.87911 3.09579 0
M  V30 593 H 57.226 5.29193 3.0621 0
M  V30 594 H 61.4 6.27808 3.0138 0
M  V30 595 H 59.027 6.98833 2.99227 0
M  V30 596 N 60.6021 -1.18246 1.0419 0
M  V30 597 C 61.5491 -2.2192 0.634037 0
M  V30 598 C 62.5191 -1.62179 -0.358765 0
M  V30 599 O 63.7041 -1.89122 -0.252466 0
M  V30 600 C 60.8441 -3.451 0.00445535 0
M  V30 601 C 59.9571 -4.19174 1.04487 0
M  V30 602 C 59.0921 -5.29813 0.383676 0
M  V30 603 C 58.1311 -5.9566 1.4091 0
M  V30 604 N 57.2681 -6.97834 0.772784 0
M  V30 605 H 62.1081 -2.56164 1.52263 0
M  V30 606 H 59.6451 -1.25843 0.761701 0
M  V30 607 H 61.6031 -4.15485 -0.377919 0
M  V30 608 H 60.2331 -3.11472 -0.847652 0
M  V30 609 H 59.2851 -3.47604 1.54518 0
M  V30 610 H 60.5971 -4.64267 1.82368 0
M  V30 611 H 59.7511 -6.06677 -0.0528366 0
M  V30 612 H 58.4901 -4.85825 -0.427208 0
M  V30 613 H 57.4951 -5.17535 1.85574 0
M  V30 614 H 58.7201 -6.4173 2.22171 0
M  V30 615 H 56.6661 -6.55998 -0.0177708 0
M  V30 616 H 56.5831 -7.41186 1.48928 0
M  V30 617 H 57.8511 -7.78665 0.36071 0
M  V30 618 N 62.0802 -0.821533 -1.34494 0
M  V30 619 C 63.3282 -0.408139 -1.97936 0
M  V30 620 C 63.6492 1.03193 -1.65457 0
M  V30 621 O 62.9192 1.71622 -0.944595 0
M  V30 622 H 61.4992 -0.147928 -0.732206 0
M  V30 623 H 64.1612 -1.05067 -1.64155 0
M  V30 624 H 63.2572 -0.52601 -3.07635 0
M  V30 625 N 63.5583 1.46682 -0.576371 0
M  V30 626 C 64.7833 2.07304 -0.0630475 0
M  V30 627 C 65.2083 1.42329 1.2298 0
M  V30 628 O 64.5663 0.504865 1.74129 0
M  V30 629 C 64.6143 3.60472 0.095895 0
M  V30 630 O 63.7183 3.95927 1.15394 0
M  V30 631 H 63.0593 0.661288 -0.0599463 0
M  V30 632 H 65.5893 1.88417 -0.797511 0
M  V30 633 H 65.5993 4.06865 0.304071 0
M  V30 634 H 64.2743 4.07157 -0.84828 0
M  V30 635 H 62.8513 3.61252 0.924724 0
M  V30 636 N 65.0364 0.313813 1.54444 0
M  V30 637 C 66.2824 -0.284918 2.01395 0
M  V30 638 C 66.6374 -1.50537 1.19818 0
M  V30 639 O 65.9304 -1.89692 0.269748 0
M  V30 640 C 66.1244 -0.680386 3.50864 0
M  V30 641 C 65.9534 0.500198 4.4691 0
M  V30 642 C 64.7234 0.996248 4.95382 0
M  V30 643 C 66.9214 1.34928 4.96285 0
M  V30 644 N 64.9034 2.14226 5.75309 0
M  V30 645 C 66.2744 2.3426 5.7404 0
M  V30 646 C 68.3294 1.37818 4.78446 0
M  V30 647 C 67.0324 3.36272 6.35856 0
M  V30 648 C 69.0584 2.38695 5.4109 0
M  V30 649 C 68.4204 3.36755 6.18688 0
M  V30 650 H 64.5194 -0.0683689 0.779006 0
M  V30 651 H 67.1034 0.44664 1.89508 0
M  V30 652 H 65.2744 -1.38109 3.63016 0
M  V30 653 H 67.0064 -1.25975 3.84594 0
M  V30 654 H 63.7614 0.56912 4.70168 0
M  V30 655 H 64.1854 2.72005 6.19953 0
M  V30 656 H 68.8274 0.633747 4.18023 0
M  V30 657 H 66.5454 4.11627 6.95405 0
M  V30 658 H 70.1314 2.41721 5.29209 0
M  V30 659 H 69.0114 4.13535 6.66302 0
M  V30 660 N 66.5145 -1.57545 0.0417849 0
M  V30 661 C 67.4775 -2.09885 -0.92093 0
M  V30 662 C 68.4775 -1.01648 -1.24596 0
M  V30 663 O 69.6675 -1.27759 -1.1842 0
M  V30 664 C 66.7995 -2.57527 -2.23367 0
M  V30 665 H 67.9925 -2.96236 -0.467382 0
M  V30 666 H 65.5455 -1.5493 -0.206467 0
M  V30 667 H 66.2805 -1.74542 -2.73323 0
M  V30 668 H 66.0655 -3.36613 -2.01083 0
M  V30 669 H 67.5555 -2.98201 -2.92346 0
M  V30 670 N 67.9926 0.231505 -1.5589 0
M  V30 671 C 69.2206 0.974505 -1.82513 0
M  V30 672 C 69.6356 1.78344 -0.619591 0
M  V30 673 O 68.9926 1.77792 0.411848 0
M  V30 674 C 69.0436 1.90007 -3.07538 0
M  V30 675 O 68.7646 1.12385 -4.2344 0
M  V30 676 C 70.2656 2.75779 -3.47075 0
M  V30 677 H 67.4856 0.286065 -0.606966 0
M  V30 678 H 70.0296 0.249739 -2.02969 0
M  V30 679 H 68.1846 2.57891 -2.89086 0
M  V30 680 H 68.5986 1.75125 -4.944 0
M  V30 681 H 70.0726 3.36443 -4.37619 0
M  V30 682 H 70.5496 3.47672 -2.68367 0
M  V30 683 H 71.1556 2.13323 -3.67931 0
M  V30 684 N 69.4707 1.49531 0.497807 0
M  V30 685 C 70.4207 1.62829 1.59596 0
M  V30 686 C 71.4047 0.483824 1.53453 0
M  V30 687 O 72.5967 0.736937 1.60929 0
M  V30 688 C 69.7257 1.7011 2.98191 0
M  V30 689 C 68.8117 2.90144 3.09317 0
M  V30 690 N 69.2027 4.1418 2.90324 0
M  V30 691 C 67.5007 2.88148 3.40422 0
M  V30 692 C 68.2017 4.94886 3.05717 0
M  V30 693 N 67.1777 4.28314 3.34736 0
M  V30 694 H 70.9797 2.56446 1.4357 0
M  V30 695 H 68.4937 1.46347 0.704001 0
M  V30 696 H 70.4907 1.77735 3.77115 0
M  V30 697 H 69.1507 0.776315 3.15283 0
M  V30 698 H 70.1617 4.44109 2.66436 0
M  V30 699 H 66.8387 2.05061 3.63671 0
M  V30 700 H 68.2287 6.03432 2.95499 0
M  V30 701 N 70.9488 -0.749086 1.3866 0
M  V30 702 C 71.8958 -1.86291 1.36251 0
M  V30 703 C 72.8658 -1.64578 0.224347 0
M  V30 704 O 74.0508 -1.86181 0.417279 0
M  V30 705 C 71.1908 -3.23644 1.19786 0
M  V30 706 C 70.3038 -3.57158 2.43027 0
M  V30 707 C 69.4388 -4.83838 2.19258 0
M  V30 708 C 68.4778 -5.10152 3.38247 0
M  V30 709 N 67.6148 -6.28029 3.13884 0
M  V30 710 H 72.4548 -1.87685 2.3147 0
M  V30 711 H 69.9918 -0.917287 1.14997 0
M  V30 712 H 71.9498 -4.0291 1.08254 0
M  V30 713 H 70.5798 -3.21566 0.282031 0
M  V30 714 H 69.6318 -2.72701 2.65214 0
M  V30 715 H 70.9438 -3.7253 3.31697 0
M  V30 716 H 70.0978 -5.71057 2.04888 0
M  V30 717 H 68.8368 -4.70614 1.2796 0
M  V30 718 H 67.8418 -4.21401 3.53131 0
M  V30 719 H 69.0668 -5.25271 4.30427 0
M  V30 720 H 67.0128 -6.1612 2.25238 0
M  V30 721 H 66.9298 -6.43922 3.96106 0
M  V30 722 H 68.1978 -7.18124 3.03179 0
M  V30 723 N 72.4269 -1.23603 -0.977757 0
M  V30 724 C 73.3569 -1.04401 -2.0886 0
M  V30 725 C 74.3379 0.0399052 -1.70053 0
M  V30 726 O 75.5229 -0.125246 -1.93796 0
M  V30 727 C 72.6529 -0.637269 -3.41403 0
M  V30 728 C 71.6069 -1.66883 -3.94124 0
M  V30 729 C 70.9329 -1.11745 -5.22893 0
M  V30 730 C 72.2329 -3.06247 -4.23096 0
M  V30 731 H 73.9269 -1.97316 -2.25182 0
M  V30 732 H 71.4729 -0.950096 -1.08209 0
M  V30 733 H 73.4259 -0.48998 -4.18542 0
M  V30 734 H 72.1499 0.327557 -3.24953 0
M  V30 735 H 70.8089 -1.80416 -3.19133 0
M  V30 736 H 70.4569 -0.143527 -5.02795 0
M  V30 737 H 70.1569 -1.80672 -5.59134 0
M  V30 738 H 71.6809 -0.982067 -6.02651 0
M  V30 739 H 73.0949 -2.96001 -4.90975 0
M  V30 740 H 71.4919 -3.72436 -4.70544 0
M  V30 741 H 72.5619 -3.55041 -3.30263 0
M  V30 742 N 73.905 1.17692 -1.04816 0
M  V30 743 C 74.835 2.23777 -0.666791 0
M  V30 744 C 75.816 1.66796 0.33361 0
M  V30 745 O 77.001 1.93039 0.212042 0
M  V30 746 C 74.131 3.47281 -0.0367933 0
M  V30 747 C 73.085 4.17059 -0.961546 0
M  V30 748 C 72.411 5.34342 -0.195626 0
M  V30 749 C 73.711 4.69713 -2.28402 0
M  V30 750 H 75.405 2.55933 -1.55367 0
M  V30 751 H 72.951 1.23019 -0.748484 0
M  V30 752 H 74.904 4.20706 0.241775 0
M  V30 753 H 73.628 3.14381 0.885004 0
M  V30 754 H 72.287 3.45541 -1.22462 0
M  V30 755 H 71.935 4.97692 0.728816 0
M  V30 756 H 71.635 5.81966 -0.811775 0
M  V30 757 H 73.159 6.10553 0.0757473 0
M  V30 758 H 74.573 5.34794 -2.06563 0
M  V30 759 H 72.97 5.279 -2.8538 0
M  V30 760 H 74.04 3.86726 -2.92525 0
M  V30 761 N 75.3831 0.828654 1.34056 0
M  V30 762 C 76.3331 0.226828 2.26869 0
M  V30 763 C 77.3171 -0.612243 1.48796 0
M  V30 764 O 78.5091 -0.465884 1.70759 0
M  V30 765 C 75.6381 -0.605654 3.37915 0
M  V30 766 C 74.7241 0.244361 4.23395 0
M  V30 767 N 75.1151 1.31815 4.88322 0
M  V30 768 C 73.4131 0.0296616 4.4599 0
M  V30 769 C 74.1141 1.83895 5.51867 0
M  V30 770 N 73.0901 1.14196 5.3147 0
M  V30 771 H 76.8921 1.04811 2.74576 0
M  V30 772 H 74.4061 0.67205 1.47842 0
M  V30 773 H 76.4031 -1.05302 4.03382 0
M  V30 774 H 75.0631 -1.42504 2.91758 0
M  V30 775 H 76.0741 1.70099 4.8917 0
M  V30 776 H 72.7511 -0.757097 4.10578 0
M  V30 777 H 74.1411 2.7376 6.136 0
M  V30 778 N 76.8612 -1.46375 0.584142 0
M  V30 779 C 77.8082 -2.30323 -0.148286 0
M  V30 780 C 78.7782 -1.40703 -0.882713 0
M  V30 781 O 79.9632 -1.69651 -0.873099 0
M  V30 782 C 77.1032 -3.25196 -1.15507 0
M  V30 783 C 76.2162 -4.29915 -0.423943 0
M  V30 784 C 75.3512 -5.11914 -1.41838 0
M  V30 785 C 74.3902 -6.08381 -0.673736 0
M  V30 786 N 73.5272 -6.83242 -1.6163 0
M  V30 787 H 78.3672 -2.92427 0.573644 0
M  V30 788 H 75.9042 -1.44118 0.294703 0
M  V30 789 H 77.8622 -3.78646 -1.75166 0
M  V30 790 H 76.4922 -2.64898 -1.8447 0
M  V30 791 H 75.5442 -3.7931 0.287714 0
M  V30 792 H 76.8562 -4.98549 0.158128 0
M  V30 793 H 76.0102 -5.69648 -2.08773 0
M  V30 794 H 74.7492 -4.43243 -2.03438 0
M  V30 795 H 73.7542 -5.49799 0.00938483 0
M  V30 796 H 74.9792 -6.79071 -0.0631082 0
M  V30 797 H 72.9252 -6.1728 -2.22038 0
M  V30 798 H 72.8422 -7.48144 -1.08707 0
M  V30 799 H 74.1102 -7.45534 -2.27596 0
M  V30 800 N 78.3393 -0.321999 -1.54275 0
M  V30 801 C 79.2863 0.544664 -2.24281 0
M  V30 802 C 80.2563 1.1129 -1.23303 0
M  V30 803 O 81.4413 1.15354 -1.51981 0
M  V30 804 C 78.5813 1.70045 -3.00298 0
M  V30 805 C 77.6943 1.16159 -4.1609 0
M  V30 806 C 76.8293 2.28293 -4.79641 0
M  V30 807 C 75.8683 1.71648 -5.8754 0
M  V30 808 N 75.0053 2.77438 -6.44959 0
M  V30 809 H 79.8453 -0.0588907 -2.97942 0
M  V30 810 H 77.3823 -0.0408345 -1.47043 0
M  V30 811 H 79.3403 2.38054 -3.42616 0
M  V30 812 H 77.9703 2.27531 -2.28975 0
M  V30 813 H 77.0223 0.373092 -3.78566 0
M  V30 814 H 78.3343 0.707087 -4.93763 0
M  V30 815 H 77.4883 3.0421 -5.2492 0
M  V30 816 H 76.2273 2.77079 -4.01346 0
M  V30 817 H 75.2323 0.942282 -5.41665 0
M  V30 818 H 76.4573 1.23741 -6.67731 0
M  V30 819 H 74.4033 3.25519 -5.69538 0
M  V30 820 H 74.3203 2.36547 -7.1804 0
M  V30 821 H 75.5883 3.53189 -6.94894 0
M  V30 822 N 79.8174 1.5752 -0.0501392 0
M  V30 823 C 80.7804 2.1037 0.909786 0
M  V30 824 C 81.7804 1.02308 1.24056 0
M  V30 825 O 82.9704 1.28385 1.17741 0
M  V30 826 C 80.1024 2.58708 2.21998 0
M  V30 827 H 81.2954 2.96479 0.451665 0
M  V30 828 H 78.8484 1.55038 0.198248 0
M  V30 829 H 79.5834 1.75989 2.72394 0
M  V30 830 H 79.3684 3.37675 1.99295 0
M  V30 831 H 80.8584 2.99747 2.9076 0
M  V30 832 N 81.2955 -0.223234 1.56011 0
M  V30 833 C 82.2425 -1.27664 1.92277 0
M  V30 834 C 83.2125 -1.46659 0.779763 0
M  V30 835 O 84.3975 -1.60256 1.03551 0
M  V30 836 C 81.5375 -2.62234 2.24338 0
M  V30 837 C 80.6505 -2.51051 3.51564 0
M  V30 838 C 79.7855 -3.78133 3.7308 0
M  V30 839 C 78.8245 -3.61665 4.93827 0
M  V30 840 N 77.9615 -4.80693 5.11741 0
M  V30 841 H 82.8015 -0.960358 2.82101 0
M  V30 842 H 80.3385 -0.462901 1.39627 0
M  V30 843 H 82.2965 -3.40596 2.40936 0
M  V30 844 H 80.9265 -2.91961 1.3769 0
M  V30 845 H 79.9785 -1.64132 3.43169 0
M  V30 846 H 81.2905 -2.34803 4.40079 0
M  V30 847 H 80.4445 -4.64938 3.89766 0
M  V30 848 H 79.1835 -3.97304 2.82844 0
M  V30 849 H 78.1885 -2.73244 4.77093 0
M  V30 850 H 79.4135 -3.43966 5.85546 0
M  V30 851 H 77.3595 -5.00181 4.24446 0
M  V30 852 H 77.2765 -4.67165 5.94384 0
M  V30 853 H 78.5445 -5.6893 5.3286 0
M  V30 854 N 82.7736 -1.49793 -0.48987 0
M  V30 855 C 84.0506 -1.50348 -1.25119 0
M  V30 856 C 84.4306 -0.237466 -2.0976 0
M  V30 857 O 83.7786 0.77981 -2.14782 0
M  V30 858 C 83.9886 -2.78872 -2.09837 0
M  V30 859 C 85.3366 -3.288 -2.68655 0
M  V30 860 O 86.3606 -2.80065 -2.20096 0
M  V30 861 O 85.2196 -4.13707 -3.57083 0
M  V30 862 H 82.3136 -0.602242 -0.566775 0
M  V30 863 H 84.8596 -1.62067 -0.503229 0
M  V30 864 H 83.6316 -3.62499 -1.47343 0
M  V30 865 H 83.2546 -2.70066 -2.91805 0
M  V30 866 N 84.2517 0.741722 -1.39055 0
M  V30 867 C 85.1617 1.88621 -1.39496 0
M  V30 868 C 86.1777 1.71557 -0.290578 0
M  V30 869 O 87.3537 1.94275 -0.530954 0
M  V30 870 C 84.4187 3.24134 -1.23037 0
M  V30 871 C 83.4797 3.5364 -2.43387 0
M  V30 872 C 82.7127 4.82687 -2.27703 0
M  V30 873 O 82.9357 5.55922 -1.27696 0
M  V30 874 O 81.8697 5.1194 -3.16545 0
M  V30 875 H 85.6957 1.91203 -2.35956 0
M  V30 876 H 83.2807 0.888625 -1.20099 0
M  V30 877 H 85.1627 4.0513 -1.15964 0
M  V30 878 H 83.8377 3.22337 -0.296691 0
M  V30 879 H 82.7447 2.72758 -2.56035 0
M  V30 880 H 84.0777 3.60209 -3.35425 0
M  V30 881 N 85.7298 1.2412 0.971189 0
M  V30 882 C 86.6768 1.0305 2.06517 0
M  V30 883 C 87.6468 -0.0550666 1.66009 0
M  V30 884 O 88.8318 0.0988688 1.90544 0
M  V30 885 C 85.9718 0.637653 3.39158 0
M  V30 886 C 85.0848 1.79633 3.92882 0
M  V30 887 C 84.2198 1.34939 5.13775 0
M  V30 888 C 83.2588 2.47823 5.59687 0
M  V30 889 N 82.3958 2.04022 6.71803 0
M  V30 890 H 87.2358 1.96685 2.23873 0
M  V30 891 H 84.7728 0.979694 1.09729 0
M  V30 892 H 86.7308 0.390931 4.15364 0
M  V30 893 H 85.3608 -0.261693 3.21737 0
M  V30 894 H 84.4128 2.15681 3.13346 0
M  V30 895 H 85.7248 2.64466 4.22918 0
M  V30 896 H 84.8788 1.06134 5.97345 0
M  V30 897 H 83.6178 0.471557 4.85415 0
M  V30 898 H 82.6228 2.77392 4.74693 0
M  V30 899 H 83.8478 3.36158 5.90063 0
M  V30 900 H 81.7938 1.18632 6.45184 0
M  V30 901 H 81.7108 2.82409 7.01271 0
M  V30 902 H 82.9788 1.78347 7.58823 0
M  V30 903 N 87.2079 -1.17134 1.05439 0
M  V30 904 C 88.1709 -2.19439 0.661764 0
M  V30 905 C 89.1709 -1.58199 -0.288042 0
M  V30 906 O 90.3609 -1.74053 -0.0715803 0
M  V30 907 C 87.4929 -3.40889 -0.0276209 0
M  V30 908 H 88.6859 -2.55688 1.56728 0
M  V30 909 H 86.2389 -1.31259 0.848567 0
M  V30 910 H 86.9739 -3.10187 -0.94629 0
M  V30 911 H 86.7589 -3.86586 0.655238 0
M  V30 912 H 88.2489 -4.16603 -0.288342 0
M  V30 913 N 88.686 -0.835752 -1.33615 0
M  V30 914 C 89.633 -0.26473 -2.29277 0
M  V30 915 C 90.603 0.617712 -1.54187 0
M  V30 916 O 91.788 0.556641 -1.825 0
M  V30 917 C 88.928 0.556777 -3.40579 0
M  V30 918 C 88.041 -0.349339 -4.30585 0
M  V30 919 C 87.176 0.482969 -5.29 0
M  V30 920 C 86.215 -0.421732 -6.10645 0
M  V30 921 N 85.352 0.372262 -7.01112 0
M  V30 922 H 90.192 -1.08582 -2.77514 0
M  V30 923 H 87.729 -0.546927 -1.36554 0
M  V30 924 H 89.687 1.04852 -4.03809 0
M  V30 925 H 88.317 1.34286 -2.93542 0
M  V30 926 H 87.369 -0.959372 -3.68104 0
M  V30 927 H 88.681 -1.04445 -4.87742 0
M  V30 928 H 87.835 1.03866 -5.97743 0
M  V30 929 H 86.574 1.21153 -4.72412 0
M  V30 930 H 85.579 -0.989464 -5.40823 0
M  V30 931 H 86.804 -1.14861 -6.69316 0
M  V30 932 H 84.75 1.08426 -6.46977 0
M  V30 933 H 84.667 -0.264198 -7.55538 0
M  V30 934 H 85.935 0.910293 -7.74167 0
M  V30 935 N 90.1641 1.46063 -0.591896 0
M  V30 936 C 91.5801 1.57561 -0.254288 0
M  V30 937 C 91.7801 1.58565 1.24336 0
M  V30 938 O 90.8361 1.50753 2.02558 0
M  V30 939 C 92.1491 2.86549 -0.911611 0
M  V30 940 C 93.6971 3.00197 -0.886059 0
M  V30 941 C 94.1721 4.31933 -1.5231 0
M  V30 942 N 95.6631 4.38654 -1.48786 0
M  V30 943 C 96.3981 5.39222 -1.95006 0
M  V30 944 N 95.8941 6.46414 -2.49241 0
M  V30 945 N 97.6871 5.3048 -1.85868 0
M  V30 946 H 89.8381 1.43655 -1.56451 0
M  V30 947 H 92.1011 0.68583 -0.654478 0
M  V30 948 H 91.8071 2.91651 -1.96551 0
M  V30 949 H 91.6811 3.74794 -0.425368 0
M  V30 950 H 94.0681 2.9467 0.159246 0
M  V30 951 H 94.1491 2.13403 -1.41041 0
M  V30 952 H 93.7931 4.38217 -2.56765 0
M  V30 953 H 93.7231 5.17516 -0.973891 0
M  V30 954 H 96.2141 3.61793 -1.09151 0
M  V30 955 H 96.5271 7.19376 -2.82344 0
M  V30 956 H 94.8721 6.47208 -2.53272 0
M  V30 957 H 98.0631 4.45643 -1.43248 0
M  V30 958 H 98.2361 6.08711 -2.22204 0
M  V30 959 N 91.6422 0.330177 1.54103 0
M  V30 960 C 92.5522 -0.541534 2.28264 0
M  V30 961 C 93.5682 -1.12351 1.32866 0
M  V30 962 O 94.7442 -1.14206 1.65888 0
M  V30 963 C 91.8092 -1.68322 3.03098 0
M  V30 964 C 90.8702 -1.13238 4.14096 0
M  V30 965 C 90.1032 -2.21966 4.85352 0
M  V30 966 O 90.3262 -3.42437 4.56172 0
M  V30 967 O 89.2602 -1.87013 5.7211 0
M  V30 968 H 93.0862 0.060938 3.03639 0
M  V30 969 H 90.6712 0.09565 1.49093 0
M  V30 970 H 92.5532 -2.34777 3.49939 0
M  V30 971 H 91.2282 -2.27176 2.30593 0
M  V30 972 H 90.1352 -0.432736 3.71589 0
M  V30 973 H 91.4682 -0.588898 4.88664 0
M  V30 974 N 93.1203 -1.57491 0.0584922 0
M  V30 975 C 94.3663 -1.93264 -0.614558 0
M  V30 976 C 94.6993 -0.937717 -1.7006 0
M  V30 977 O 93.9743 0.0351652 -1.94468 0
M  V30 978 C 94.2573 -3.3938 -1.20386 0
M  V30 979 C 94.1103 -4.49625 -0.125375 0
M  V30 980 C 95.4293 -3.86039 -2.11334 0
M  V30 981 H 92.5483 -0.702791 -0.221933 0
M  V30 982 H 95.1903 -1.8961 0.12175 0
M  V30 983 H 93.3403 -3.42626 -1.83139 0
M  V30 984 H 95.0123 -4.58506 0.506971 0
M  V30 985 H 93.2553 -4.30354 0.545672 0
M  V30 986 H 93.9263 -5.48967 -0.577861 0
M  V30 987 H 96.4023 -3.84716 -1.58534 0
M  V30 988 H 95.2783 -4.88914 -2.49507 0
M  V30 989 H 95.5393 -3.23215 -3.01636 0
M  V30 990 N 94.5984 0.214957 -1.56127 0
M  V30 991 C 95.8234 0.95924 -1.83884 0
M  V30 992 C 96.2484 1.7689 -0.639644 0
M  V30 993 O 95.6064 1.76566 0.411601 0
M  V30 994 C 95.6544 1.84723 -3.09693 0
M  V30 995 O 94.7584 2.94346 -2.8885 0
M  V30 996 H 94.0994 0.27125 -0.606069 0
M  V30 997 H 96.6294 0.226276 -2.03345 0
M  V30 998 H 96.6394 2.25576 -3.39969 0
M  V30 999 H 95.3144 1.25218 -3.96602 0
M  V30 1000 H 93.8914 2.57391 -2.69823 0
M  V30 1001 N 96.0765 1.50051 0.48192 0
M  V30 1002 C 97.3015 1.64508 1.26301 0
M  V30 1003 C 97.7265 0.323851 1.85291 0
M  V30 1004 O 97.0845 -0.710969 1.66778 0
M  V30 1005 C 97.1325 2.7305 2.35533 0
M  V30 1006 O 96.2365 2.3355 3.39895 0
M  V30 1007 H 95.5775 0.549978 0.372048 0
M  V30 1008 H 98.1075 1.9636 0.574786 0
M  V30 1009 H 98.1175 2.95799 2.8101 0
M  V30 1010 H 96.7925 3.68946 1.91967 0
M  V30 1011 H 95.3695 2.21205 3.00204 0
M  V30 1012 N 97.5546 -0.734337 1.39446 0
M  V30 1013 C 98.8006 -1.49505 1.37913 0
M  V30 1014 C 99.1556 -1.92384 -0.0248416 0
M  V30 1015 O 98.4486 -1.6395 -0.991506 0
M  V30 1016 C 98.6426 -2.74711 2.28623 0
M  V30 1017 C 98.4716 -2.44075 3.777 0
M  V30 1018 C 97.2416 -2.36338 4.46623 0
M  V30 1019 C 99.4396 -2.09574 4.69663 0
M  V30 1020 N 97.4216 -1.9818 5.81032 0
M  V30 1021 C 98.7926 -1.81865 5.92727 0
M  V30 1022 C 100.848 -1.96048 4.57678 0
M  V30 1023 C 99.5506 -1.41992 7.05146 0
M  V30 1024 C 101.577 -1.57579 5.7002 0
M  V30 1025 C 100.939 -1.30754 6.92158 0
M  V30 1026 H 97.0376 -0.545896 0.55993 0
M  V30 1027 H 99.6216 -0.853373 1.75002 0
M  V30 1028 H 97.7926 -3.36657 1.93692 0
M  V30 1029 H 99.5246 -3.40916 2.18078 0
M  V30 1030 H 96.2796 -2.53456 4.00071 0
M  V30 1031 H 96.7036 -1.81691 6.52163 0
M  V30 1032 H 101.346 -2.15455 3.63784 0
M  V30 1033 H 99.0636 -1.21327 7.9894 0
M  V30 1034 H 102.65 -1.47718 5.62735 0
M  V30 1035 H 101.53 -1.01432 7.77612 0
M  V30 1036 N 99.0327 -1.24633 -0.964593 0
M  V30 1037 C 100.261 -1.11501 -1.74285 0
M  V30 1038 C 100.676 0.332165 -1.85855 0
M  V30 1039 O 100.033 1.22903 -1.34911 0
M  V30 1040 C 100.084 -1.75258 -3.16175 0
M  V30 1041 O 99.8047 -3.14318 -3.05182 0
M  V30 1042 C 101.306 -1.67776 -4.10324 0
M  V30 1043 H 98.5257 -0.389407 -0.546446 0
M  V30 1044 H 101.07 -1.64801 -1.21083 0
M  V30 1045 H 99.2247 -1.25954 -3.66353 0
M  V30 1046 H 99.6387 -3.4551 -3.94618 0
M  V30 1047 H 101.113 -2.17064 -5.0753 0
M  V30 1048 H 101.59 -0.639584 -4.34518 0
M  V30 1049 H 102.196 -2.16522 -3.66058 0
M  V30 1050 N 100.511 1.16574 -1.06058 0
M  V30 1051 C 101.757 1.87324 -0.777022 0
M  V30 1052 C 102.09 1.81351 0.694645 0
M  V30 1053 O 101.365 1.22753 1.50871 0
M  V30 1054 C 101.648 3.36991 -1.26922 0
M  V30 1055 C 101.501 3.51667 -2.80447 0
M  V30 1056 C 102.82 4.3131 -0.87521 0
M  V30 1057 H 99.9388 0.680191 -0.28374 0
M  V30 1058 H 102.581 1.37036 -1.3161 0
M  V30 1059 H 100.731 3.79949 -0.81063 0
M  V30 1060 H 102.403 3.17664 -3.34495 0
M  V30 1061 H 100.646 2.93656 -3.19294 0
M  V30 1062 H 101.317 4.56766 -3.0995 0
M  V30 1063 H 103.793 3.9624 -1.27014 0
M  V30 1064 H 102.669 5.34545 -1.2471 0
M  V30 1065 H 102.93 4.41552 0.220071 0
M  V30 1066 N 101.989 0.842826 1.3317 0
M  V30 1067 C 102.899 0.281444 2.32906 0
M  V30 1068 C 103.915 -0.594587 1.63526 0
M  V30 1069 O 105.091 -0.49777 1.95152 0
M  V30 1070 C 102.156 -0.530929 3.42611 0
M  V30 1071 C 101.217 0.369843 4.27704 0
M  V30 1072 C 100.45 -0.403853 5.3217 0
M  V30 1073 O 100.673 -1.63513 5.46461 0
M  V30 1074 O 99.6069 0.224199 6.01482 0
M  V30 1075 H 103.433 1.10744 2.82789 0
M  V30 1076 H 101.018 0.60545 1.36582 0
M  V30 1077 H 102.9 -0.992437 4.09547 0
M  V30 1078 H 101.575 -1.33392 2.94938 0
M  V30 1079 H 100.482 0.879275 3.6362 0
M  V30 1080 H 101.815 1.13771 4.78871 0
M  V30 1081 N 103.467 -1.45747 0.599634 0
M  V30 1082 C 104.715 -2.01893 0.0915472 0
M  V30 1083 C 105.036 -1.47155 -1.27946 0
M  V30 1084 O 104.306 -0.66273 -1.84349 0
M  V30 1085 H 102.886 -0.746363 0.0308524 0
M  V30 1086 H 105.548 -1.78645 0.779237 0
M  V30 1087 H 104.644 -3.1208 0.0353086 0
M  V30 1088 N 104.945 -0.338344 -1.53925 0
M  V30 1089 C 106.222 0.314774 -1.93051 0
M  V30 1090 C 106.602 1.68669 -1.26941 0
M  V30 1091 O 105.95 2.24636 -0.418445 0
M  V30 1092 C 106.16 0.392249 -3.46789 0
M  V30 1093 C 107.508 0.645554 -4.19664 0
M  V30 1094 O 108.532 0.474575 -3.53024 0
M  V30 1095 O 107.391 0.976408 -5.37707 0
M  V30 1096 H 104.485 0.182598 -0.80659 0
M  V30 1097 H 107.031 -0.389141 -1.65178 0
M  V30 1098 H 105.803 -0.570702 -3.87116 0
M  V30 1099 H 105.426 1.14316 -3.80812 0
M  V30 1100 N 106.423 1.57458 -0.0668435 0
M  V30 1101 C 107.672 1.92477 0.602947 0
M  V30 1102 C 107.985 0.948419 1.71068 0
M  V30 1103 O 109.191 1.19124 2.43971 0
M  V30 1104 C 107.647 3.41903 1.12383 0
M  V30 1105 C 107.255 4.47975 0.04737 0
M  V30 1106 C 108.999 3.85931 1.76797 0
M  V30 1107 C 106.906 5.88529 0.582022 0
M  V30 1108 H 105.836 0.718387 0.22899 0
M  V30 1109 H 108.487 1.82978 -0.138276 0
M  V30 1110 H 106.869 3.46459 1.91787 0
M  V30 1111 H 108.043 4.55029 -0.726978 0
M  V30 1112 H 106.358 4.13384 -0.500243 0
M  V30 1113 H 108.955 4.88322 2.17821 0
M  V30 1114 H 109.298 3.23029 2.62599 0
M  V30 1115 H 109.831 3.83958 1.04024 0
M  V30 1116 H 106.57 6.55065 -0.238721 0
M  V30 1117 H 106.09 5.85004 1.324 0
M  V30 1118 H 107.769 6.38258 1.05999 0
M  V30 1119 N 107.901 -0.206675 1.56239 0
M  V30 1120 C 108.849 -1.27571 1.94495 0
M  V30 1121 C 109.843 -1.47737 0.828862 0
M  V30 1122 O 111.049 -1.48735 1.0138 0
M  V30 1123 H 107.424 -0.428029 0.6183 0
M  V30 1124 H 109.395 -0.925961 2.8367 0
M  V30 1125 C 108.144 -2.61568 2.29079 0
M  V30 1126 H 107.467 -2.46863 3.14482 0
M  V30 1127 H 108.907 -3.35144 2.5972 0
M  V30 1128 C 107.366 -3.17695 1.12123 0
M  V30 1129 O 107.896 -3.99801 0.390153 0
M  V30 1130 N 106.102 -2.76276 0.901097 0
M  V30 1131 H 105.649 -2.09613 1.49733 0
M  V30 1132 H 105.607 -3.1417 0.120319 0
M  V30 1133 N 109.379 -1.50304 -0.473955 0
M  V30 1134 C 110.607 -1.64902 -1.24959 0
M  V30 1135 C 111.022 -0.331198 -1.85872 0
M  V30 1136 O 110.379 0.68652 -1.69095 0
M  V30 1137 C 110.43 -2.73803 -2.36038 0
M  V30 1138 O 110.151 -4.00477 -1.77624 0
M  V30 1139 C 111.652 -2.99349 -3.26964 0
M  V30 1140 H 108.872 -0.554383 -0.378022 0
M  V30 1141 H 111.416 -1.9651 -0.566054 0
M  V30 1142 H 109.571 -2.44898 -3.00173 0
M  V30 1143 H 109.985 -4.60678 -2.5075 0
M  V30 1144 H 111.459 -3.79217 -4.01121 0
M  V30 1145 H 111.936 -2.10307 -3.85574 0
M  V30 1146 H 112.542 -3.29774 -2.68569 0
M  V30 1147 N 110.857 0.726932 -1.39834 0
M  V30 1148 C 112.134 1.47902 -1.28001 0
M  V30 1149 C 112.514 2.1083 0.106789 0
M  V30 1150 O 111.862 1.99242 1.11869 0
M  V30 1151 C 112.072 2.52392 -2.41038 0
M  V30 1152 C 113.42 3.18546 -2.80737 0
M  V30 1153 O 114.444 2.62708 -2.40547 0
M  V30 1154 O 113.303 4.19604 -3.50135 0
M  V30 1155 H 110.397 0.657163 -0.502062 0
M  V30 1156 H 112.943 0.760071 -1.51727 0
M  V30 1157 H 111.715 2.04329 -3.33715 0
M  V30 1158 H 111.338 3.31837 -2.19021 0
M  V30 1159 N 112.336 1.25143 0.95797 0
M  V30 1160 C 113.747 1.08851 1.51685 0
M  V30 1161 C 114.098 -0.33687 1.93286 0
M  V30 1162 O 113.223 -1.22644 1.7829 0
M  V30 1163 C 113.818 1.96978 2.75654 0
M  V30 1164 C 112.377 1.84881 3.27866 0
M  V30 1165 C 111.524 1.91329 2.0072 0
M  V30 1166 H 114.475 1.38478 0.77522 0
M  V30 1167 H 114.496 1.5078 3.4935 0
M  V30 1168 H 114.008 3.00712 2.45345 0
M  V30 1169 H 112.109 0.840182 3.63004 0
M  V30 1170 H 112.222 2.6951 3.96107 0
M  V30 1171 H 110.586 1.35174 2.15871 0
M  V30 1172 H 111.369 2.96661 1.72764 0
M  V30 1173 N 113.814 -1.1601 1.06675 0
M  V30 1174 C 115.06 -1.87145 0.796766 0
M  V30 1175 C 115.415 -1.8037 -0.669658 0
M  V30 1176 O 114.708 -1.21116 -1.48463 0
M  V30 1177 C 114.902 -3.35547 1.23057 0
M  V30 1178 C 114.731 -3.56769 2.73762 0
M  V30 1179 C 113.501 -3.72635 3.41279 0
M  V30 1180 C 115.699 -3.55166 3.7197 0
M  V30 1181 N 113.681 -3.81845 4.80695 0
M  V30 1182 C 115.052 -3.70406 4.97191 0
M  V30 1183 C 117.107 -3.384 3.65226 0
M  V30 1184 C 115.81 -3.70615 6.16471 0
M  V30 1185 C 117.836 -3.39904 4.83962 0
M  V30 1186 C 117.198 -3.55667 6.08013 0
M  V30 1187 H 113.297 -0.702267 0.344014 0
M  V30 1188 H 115.881 -1.39165 1.36166 0
M  V30 1189 H 114.052 -3.82159 0.693456 0
M  V30 1190 H 115.784 -3.94363 0.908844 0
M  V30 1191 H 112.539 -3.73121 2.91681 0
M  V30 1192 H 112.963 -3.90209 5.53232 0
M  V30 1193 H 117.605 -3.25138 2.70269 0
M  V30 1194 H 115.323 -3.82658 7.11757 0
M  V30 1195 H 118.909 -3.28169 4.80413 0
M  V30 1196 H 117.789 -3.56755 6.98352 0
M  V30 1197 N 115.292 -0.849877 -1.32721 0
M  V30 1198 C 116.255 -0.296122 -2.27279 0
M  V30 1199 C 117.255 0.541458 -1.5141 0
M  V30 1200 O 118.445 0.353658 -1.70572 0
M  V30 1201 C 115.577 0.581579 -3.35902 0
M  V30 1202 H 116.77 -1.13064 -2.77771 0
M  V30 1203 H 114.323 -0.62383 -1.43311 0
M  V30 1204 H 115.058 1.43809 -2.9067 0
M  V30 1205 H 114.843 -0.0178814 -3.92096 0
M  V30 1206 H 116.333 0.961951 -4.0637 0
M  V30 1207 N 116.77 1.45427 -0.607355 0
M  V30 1208 C 118.018 2.01841 -0.102253 0
M  V30 1209 C 118.339 1.47832 1.27164 0
M  V30 1210 O 117.609 0.672497 1.83995 0
M  V30 1211 H 116.189 0.746188 -0.0348101 0
M  V30 1212 H 118.851 1.78229 -0.7887 0
M  V30 1213 H 117.947 3.12057 -0.0518585 0
M  V30 1214 N 118.248 0.346503 1.53744 0
M  V30 1215 C 119.478 -0.250047 2.05081 0
M  V30 1216 C 119.886 -1.44529 1.22098 0
M  V30 1217 O 119.229 -1.81992 0.249917 0
M  V30 1218 C 119.291 -0.725934 3.52094 0
M  V30 1219 C 118.955 0.350053 4.55657 0
M  V30 1220 C 119.952 1.19372 5.0601 0
M  V30 1221 C 117.637 0.504827 4.99757 0
M  V30 1222 C 119.631 2.17768 5.99046 0
M  V30 1223 C 117.318 1.49218 5.92602 0
M  V30 1224 C 118.316 2.32706 6.42135 0
M  V30 1225 O 118.004 3.2976 7.33153 0
M  V30 1226 H 117.736 -0.0515469 0.674032 0
M  V30 1227 H 120.29 0.497559 1.99282 0
M  V30 1228 H 118.52 -1.52483 3.55367 0
M  V30 1229 H 120.209 -1.24336 3.86388 0
M  V30 1230 H 120.975 1.08525 4.72702 0
M  V30 1231 H 116.854 -0.135178 4.60802 0
M  V30 1232 H 120.398 2.82971 6.37631 0
M  V30 1233 H 116.295 1.6012 6.25325 0
M  V30 1234 H 117.063 3.25265 7.51096 0
M  V30 1235 N 119.726 -1.57421 0.075193 0
M  V30 1236 C 121.142 -1.57099 -0.281444 0
M  V30 1237 C 121.342 -1.08486 -1.69803 0
M  V30 1238 O 120.398 -0.752279 -2.41033 0
M  V30 1239 C 121.711 -3.00571 -0.0880041 0
M  V30 1240 C 123.259 -3.12605 -0.157281 0
M  V30 1241 C 123.734 -4.57999 0.0079207 0
M  V30 1242 N 125.225 -4.63176 -0.0475725 0
M  V30 1243 C 125.96 -5.73373 0.0557876 0
M  V30 1244 N 125.456 -6.92473 0.21286 0
M  V30 1245 N 127.249 -5.621 -0.00152098 0
M  V30 1246 H 119.4 -1.87335 1.00098 0
M  V30 1247 H 121.663 -0.86377 0.390646 0
M  V30 1248 H 121.369 -3.40262 0.889629 0
M  V30 1249 H 121.243 -3.67754 -0.838875 0
M  V30 1250 H 123.63 -2.72798 -1.1254 0
M  V30 1251 H 123.711 -2.48053 0.62475 0
M  V30 1252 H 123.355 -4.98496 0.972824 0
M  V30 1253 H 123.285 -5.20586 -0.793556 0
M  V30 1254 H 125.776 -3.7753 -0.167244 0
M  V30 1255 H 126.089 -7.72279 0.283781 0
M  V30 1256 H 124.434 -6.94556 0.248267 0
M  V30 1257 H 127.625 -4.67938 -0.122958 0
M  V30 1258 H 127.798 -6.47948 0.0824844 0
M  V30 1259 N 121.204 0.198386 -1.56346 0
M  V30 1260 C 122.434 0.934215 -1.84271 0
M  V30 1261 C 122.842 1.77496 -0.655125 0
M  V30 1262 O 122.185 1.7961 0.385488 0
M  V30 1263 C 122.247 1.88278 -3.06254 0
M  V30 1264 C 121.911 1.22431 -4.40295 0
M  V30 1265 C 122.908 0.602839 -5.16393 0
M  V30 1266 C 120.593 1.22915 -4.87029 0
M  V30 1267 C 122.587 -0.0050083 -6.374 0
M  V30 1268 C 120.274 0.617465 -6.07973 0
M  V30 1269 C 121.272 0.00146341 -6.83 0
M  V30 1270 O 120.96 -0.600642 -8.01653 0
M  V30 1271 H 120.692 0.278245 -0.616081 0
M  V30 1272 H 123.246 0.211626 -2.04307 0
M  V30 1273 H 121.476 2.64498 -2.82095 0
M  V30 1274 H 123.165 2.48612 -3.20853 0
M  V30 1275 H 123.931 0.591265 -4.81382 0
M  V30 1276 H 119.81 1.69801 -4.28589 0
M  V30 1277 H 123.354 -0.48643 -6.95902 0
M  V30 1278 H 119.251 0.62653 -6.42452 0
M  V30 1279 H 120.019 -0.497225 -8.16988 0
M  V30 1280 N 122.682 1.50554 0.465978 0
M  V30 1281 C 123.91 1.65563 1.24083 0
M  V30 1282 C 124.325 0.341051 1.85694 0
M  V30 1283 O 123.682 -0.677543 1.69457 0
M  V30 1284 C 123.733 2.75051 2.34583 0
M  V30 1285 O 123.454 4.01413 1.75497 0
M  V30 1286 C 124.955 3.01078 3.25372 0
M  V30 1287 H 122.175 0.55638 0.375077 0
M  V30 1288 H 124.719 1.96807 0.555624 0
M  V30 1289 H 122.874 2.46486 2.9887 0
M  V30 1290 H 123.288 4.62002 2.48303 0
M  V30 1291 H 124.762 3.81339 3.99105 0
M  V30 1292 H 125.239 2.12349 3.84453 0
M  V30 1293 H 125.845 3.31194 2.66816 0
M  V30 1294 N 124.16 -0.719506 1.40217 0
M  V30 1295 C 125.408 -1.47641 1.3801 0
M  V30 1296 C 125.729 -1.94992 -0.018145 0
M  V30 1297 O 124.999 -1.70073 -0.972207 0
M  V30 1298 H 123.579 -0.547744 0.507923 0
M  V30 1299 H 126.241 -0.853187 1.75233 0
M  V30 1300 H 125.337 -2.35112 2.05253 0
M  V30 1301 N 125.638 -1.25649 -0.95132 0
M  V30 1302 C 126.585 -1.06323 -2.04851 0
M  V30 1303 C 127.555 0.0286491 -1.66075 0
M  V30 1304 O 128.74 -0.12917 -1.90362 0
M  V30 1305 C 125.88 -0.691529 -3.381 0
M  V30 1306 C 124.993 -1.85861 -3.89974 0
M  V30 1307 C 124.128 -1.43096 -5.11563 0
M  V30 1308 C 123.167 -2.56696 -5.55674 0
M  V30 1309 N 122.304 -2.14684 -6.68472 0
M  V30 1310 H 127.144 -2.00222 -2.20715 0
M  V30 1311 H 124.681 -0.997027 -1.08156 0
M  V30 1312 H 126.639 -0.456963 -4.1469 0
M  V30 1313 H 125.269 0.210474 -3.22113 0
M  V30 1314 H 124.321 -2.20639 -3.09875 0
M  V30 1315 H 125.633 -2.71161 -4.18657 0
M  V30 1316 H 124.787 -1.15624 -5.9558 0
M  V30 1317 H 123.526 -0.548722 -4.84603 0
M  V30 1318 H 122.531 -2.84909 -4.7022 0
M  V30 1319 H 123.756 -3.45503 -5.8464 0
M  V30 1320 H 121.702 -1.28881 -6.43215 0
M  V30 1321 H 121.619 -2.9353 -6.96689 0
M  V30 1322 H 122.887 -1.90397 -7.5589 0
M  V30 1323 N 127.117 1.15442 -1.07289 0
M  V30 1324 C 128.047 2.22312 -0.714107 0
M  V30 1325 C 129.028 1.67467 0.298155 0
M  V30 1326 O 130.213 1.93445 0.171048 0
M  V30 1327 C 127.343 3.47124 -0.110448 0
M  V30 1328 C 126.297 4.14926 -1.04979 0
M  V30 1329 C 125.623 5.33807 -0.308924 0
M  V30 1330 C 126.923 4.64762 -2.38314 0
M  V30 1331 H 128.617 2.5258 -1.6076 0
M  V30 1332 H 126.163 1.21404 -0.77441 0
M  V30 1333 H 128.116 4.21124 0.152482 0
M  V30 1334 H 126.84 3.16187 0.81812 0
M  V30 1335 H 125.499 3.42866 -1.29764 0
M  V30 1336 H 125.147 4.99126 0.623084 0
M  V30 1337 H 124.847 5.80113 -0.935036 0
M  V30 1338 H 126.371 6.10576 -0.0537771 0
M  V30 1339 H 127.785 5.30292 -2.1786 0
M  V30 1340 H 126.182 5.21728 -2.96514 0
M  V30 1341 H 127.252 3.80434 -3.00663 0
M  V30 1342 N 128.595 0.856903 1.32268 0
M  V30 1343 C 130.011 0.547061 1.49931 0
M  V30 1344 C 130.211 -0.921781 1.7918 0
M  V30 1345 O 129.267 -1.70469 1.8627 0
M  V30 1346 C 130.58 1.43599 2.64196 0
M  V30 1347 C 132.128 1.43665 2.78081 0
M  V30 1348 C 132.603 2.31085 3.95428 0
M  V30 1349 N 134.094 2.28893 4.02694 0
M  V30 1350 C 134.829 2.93262 4.92732 0
M  V30 1351 N 134.325 3.66751 5.87763 0
M  V30 1352 N 136.118 2.82638 4.85873 0
M  V30 1353 H 128.269 1.8075 1.11549 0
M  V30 1354 H 130.532 0.772144 0.549997 0
M  V30 1355 H 130.238 2.48058 2.49319 0
M  V30 1356 H 130.112 1.12502 3.60032 0
M  V30 1357 H 132.499 0.399701 2.92381 0
M  V30 1358 H 132.58 1.7878 1.82952 0
M  V30 1359 H 132.224 3.34849 3.81888 0
M  V30 1360 H 132.154 1.93302 4.89839 0
M  V30 1361 H 134.645 1.75466 3.34694 0
M  V30 1362 H 134.958 4.13027 6.53168 0
M  V30 1363 H 133.303 3.70859 5.87783 0
M  V30 1364 H 136.494 2.24774 4.10602 0
M  V30 1365 H 136.667 3.33084 5.55841 0
M  V30 1366 N 130.073 -1.45103 0.615059 0
M  V30 1367 C 131.484 -1.85654 0.197383 0
M  V30 1368 C 131.835 -1.51433 -1.24749 0
M  V30 1369 O 130.96 -0.944608 -1.94695 0
M  V30 1370 C 131.555 -3.36972 0.351448 0
M  V30 1371 C 130.114 -3.76398 -0.011593 0
M  V30 1372 C 129.261 -2.69024 0.672394 0
M  V30 1373 H 132.212 -1.35797 0.821263 0
M  V30 1374 H 132.233 -3.78239 -0.414227 0
M  V30 1375 H 131.745 -3.61847 1.40314 0
M  V30 1376 H 129.846 -3.5714 -1.06217 0
M  V30 1377 H 129.959 -4.77532 0.387265 0
M  V30 1378 H 128.323 -2.54465 0.109284 0
M  V30 1379 H 129.106 -2.96735 1.72636 0
M  V30 1380 N 131.551 -0.354651 -1.53558 0
M  V30 1381 C 132.501 0.513179 -2.2215 0
M  V30 1382 C 133.485 1.05734 -1.21281 0
M  V30 1383 O 134.677 0.989202 -1.46778 0
M  V30 1384 C 131.806 1.65798 -3.00609 0
M  V30 1385 C 130.892 1.12722 -4.08845 0
M  V30 1386 N 131.283 0.318563 -5.04796 0
M  V30 1387 C 129.581 1.40307 -4.23356 0
M  V30 1388 C 130.282 0.0292224 -5.81693 0
M  V30 1389 N 129.258 0.623891 -5.40008 0
M  V30 1390 H 133.06 -0.111586 -2.93688 0
M  V30 1391 H 130.574 -0.162091 -1.61589 0
M  V30 1392 H 132.571 2.29176 -3.48258 0
M  V30 1393 H 131.231 2.28591 -2.306 0
M  V30 1394 H 132.242 -0.0413091 -5.17884 0
M  V30 1395 H 128.919 2.03458 -3.6457 0
M  V30 1396 H 130.309 -0.623808 -6.68998 0
M  V30 1397 N 133.029 1.57378 -0.0835403 0
M  V30 1398 C 134.259 1.97975 0.590713 0
M  V30 1399 C 134.667 0.961083 1.62972 0
M  V30 1400 O 134.01 -0.0590879 1.83605 0
M  V30 1401 C 134.072 3.34915 1.3066 0
M  V30 1402 C 133.736 4.55069 0.419698 0
M  V30 1403 C 134.733 5.18868 -0.32749 0
M  V30 1404 C 132.418 5.0114 0.341137 0
M  V30 1405 C 134.412 6.27098 -1.14134 0
M  V30 1406 C 132.099 6.0924 -0.476374 0
M  V30 1407 C 133.097 6.72083 -1.21627 0
M  V30 1408 O 132.785 7.781 -2.02028 0
M  V30 1409 H 132.517 0.655818 0.163947 0
M  V30 1410 H 135.071 2.04807 -0.156021 0
M  V30 1411 H 133.301 3.24733 2.09966 0
M  V30 1412 H 134.99 3.60037 1.87424 0
M  V30 1413 H 135.756 4.84211 -0.276459 0
M  V30 1414 H 131.635 4.51996 0.90668 0
M  V30 1415 H 135.179 6.7608 -1.71935 0
M  V30 1416 H 131.076 6.43329 -0.528927 0
M  V30 1417 H 131.844 7.95034 -1.94586 0
M  V30 1418 N 134.507 -0.190092 1.56449 0
M  V30 1419 C 135.918 -0.754312 1.70784 0
M  V30 1420 C 136.269 -1.83631 0.690951 0
M  V30 1421 O 135.394 -2.15868 -0.151604 0
M  V30 1422 C 135.989 -1.37503 3.09642 0
M  V30 1423 C 134.548 -1.88628 3.25725 0
M  V30 1424 C 133.695 -0.758098 2.66736 0
M  V30 1425 H 136.646 0.0350524 1.58661 0
M  V30 1426 H 136.667 -2.2445 3.0725 0
M  V30 1427 H 136.179 -0.587302 3.83631 0
M  V30 1428 H 134.28 -2.70103 2.56661 0
M  V30 1429 H 134.393 -2.04462 4.3328 0
M  V30 1430 H 132.757 -1.17369 2.26046 0
M  V30 1431 H 133.54 0.0174705 3.43296 0
M  V30 1432 N 135.985 -1.50799 -0.457987 0
M  V30 1433 C 136.915 -1.73553 -1.5621 0
M  V30 1434 C 137.896 -0.584774 -1.59732 0
M  V30 1435 O 139.081 -0.825314 -1.7579 0
M  V30 1436 C 136.211 -1.84169 -2.94447 0
M  V30 1437 C 135.165 -2.99461 -3.0579 0
M  V30 1438 C 134.491 -2.95235 -4.45803 0
M  V30 1439 C 135.791 -4.39766 -2.81786 0
M  V30 1440 H 137.485 -2.66 -1.37421 0
M  V30 1441 H 135.031 -1.28002 -0.659662 0
M  V30 1442 H 136.984 -1.98672 -3.71628 0
M  V30 1443 H 135.708 -0.883545 -3.14422 0
M  V30 1444 H 134.367 -2.8463 -2.31044 0
M  V30 1445 H 134.015 -1.97239 -4.62715 0
M  V30 1446 H 133.715 -3.72642 -4.54326 0
M  V30 1447 H 135.239 -3.11803 -5.24987 0
M  V30 1448 H 136.653 -4.55054 -3.4871 0
M  V30 1449 H 135.05 -5.18722 -3.0174 0
M  V30 1450 H 136.12 -4.51229 -1.7754 0
M  V30 1451 N 137.463 0.71206 -1.40597 0
M  V30 1452 C 138.396 1.83582 -1.35546 0
M  V30 1453 C 139.374 1.61032 -0.225284 0
M  V30 1454 O 140.558 1.83998 -0.409519 0
M  V30 1455 C 137.685 3.19983 -1.11034 0
M  V30 1456 C 136.731 3.61355 -2.2655 0
M  V30 1457 S 137.564 3.68062 -3.88961 0
M  V30 1458 C 138.72 5.07216 -3.66719 0
M  V30 1459 H 138.953 1.87586 -2.30648 0
M  V30 1460 H 136.486 0.879182 -1.26924 0
M  V30 1461 H 138.444 3.98734 -0.975761 0
M  V30 1462 H 137.105 3.13608 -0.175798 0
M  V30 1463 H 136.298 4.60403 -2.0505 0
M  V30 1464 H 135.9 2.8987 -2.36329 0
M  V30 1465 H 138.192 5.94238 -3.25404 0
M  V30 1466 H 139.135 5.33753 -4.6531 0
M  V30 1467 H 139.543 4.77976 -3.00332 0
M  V30 1468 N 138.941 1.26152 0.944643 0
M  V30 1469 C 140.352 1.10454 1.50522 0
M  V30 1470 C 140.703 -0.31635 1.93633 0
M  V30 1471 O 139.828 -1.20746 1.79581 0
M  V30 1472 C 140.423 1.99891 2.73549 0
M  V30 1473 C 138.982 1.88348 3.25886 0
M  V30 1474 C 138.129 1.93447 1.9868 0
M  V30 1475 H 141.08 1.39292 0.760489 0
M  V30 1476 H 141.101 1.54477 3.47732 0
M  V30 1477 H 140.613 3.03297 2.42141 0
M  V30 1478 H 138.714 0.878636 3.62092 0
M  V30 1479 H 138.827 2.73696 3.93227 0
M  V30 1480 H 137.191 1.37456 2.14425 0
M  V30 1481 H 137.974 2.98476 1.69607 0
M  V30 1482 N 140.419 -1.14872 1.07899 0
M  V30 1483 C 141.647 -1.89661 0.82683 0
M  V30 1484 C 142.062 -1.78312 -0.620519 0
M  V30 1485 O 141.419 -1.13888 -1.42604 0
M  V30 1486 C 141.47 -3.39817 1.23316 0
M  V30 1487 O 141.191 -3.50845 2.62372 0
M  V30 1488 C 142.692 -4.31615 1.0111 0
M  V30 1489 H 139.912 -0.60092 0.298557 0
M  V30 1490 H 142.456 -1.4551 1.43691 0
M  V30 1491 H 140.611 -3.8161 0.667286 0
M  V30 1492 H 141.025 -4.44076 2.79101 0
M  V30 1493 H 142.499 -5.35367 1.34486 0
M  V30 1494 H 142.976 -4.39169 -0.0522168 0
M  V30 1495 H 143.582 -3.95572 1.56215 0
M  V30 1496 N 141.898 -0.863906 -1.31812 0
M  V30 1497 C 143.314 -0.555004 -1.49639 0
M  V30 1498 C 143.514 0.912266 -1.79666 0
M  V30 1499 O 142.57 1.69479 -1.87171 0
M  V30 1500 C 143.883 -1.44998 -2.63431 0
M  V30 1501 C 145.431 -1.45138 -2.77316 0
M  V30 1502 C 145.906 -2.33179 -3.94197 0
M  V30 1503 N 147.397 -2.31025 -4.01474 0
M  V30 1504 C 148.132 -2.95871 -4.9117 0
M  V30 1505 N 147.628 -3.69863 -5.8581 0
M  V30 1506 N 149.421 -2.85211 -4.84367 0
M  V30 1507 H 141.572 -1.81339 -1.10589 0
M  V30 1508 H 143.835 -0.77505 -0.545895 0
M  V30 1509 H 143.541 -2.49377 -2.48 0
M  V30 1510 H 143.415 -1.14409 -3.59431 0
M  V30 1511 H 145.802 -0.415201 -2.92164 0
M  V30 1512 H 145.883 -1.79747 -1.82001 0
M  V30 1513 H 145.527 -3.3687 -3.80107 0
M  V30 1514 H 145.457 -1.95897 -4.88807 0
M  V30 1515 H 147.948 -1.77238 -3.33759 0
M  V30 1516 H 148.261 -4.16486 -6.50968 0
M  V30 1517 H 146.606 -3.73971 -5.85808 0
M  V30 1518 H 149.797 -2.26948 -4.09405 0
M  V30 1519 H 149.97 -3.36027 -5.54066 0
M  V30 1520 N 143.376 1.44774 -0.622745 0
M  V30 1521 C 144.787 1.85546 -0.207226 0
M  V30 1522 C 145.138 1.52093 1.23944 0
M  V30 1523 O 144.263 0.95492 1.94191 0
M  V30 1524 C 144.858 3.36781 -0.369313 0
M  V30 1525 C 143.417 3.76399 -0.00836847 0
M  V30 1526 C 142.564 2.68664 -0.686651 0
M  V30 1527 H 145.515 1.3536 -0.828454 0
M  V30 1528 H 145.536 3.78453 0.394162 0
M  V30 1529 H 145.048 3.61098 -1.42231 0
M  V30 1530 H 143.149 3.57698 1.04322 0
M  V30 1531 H 143.262 4.7732 -0.412584 0
M  V30 1532 H 141.626 2.54404 -0.122777 0
M  V30 1533 H 142.409 2.95815 -1.74208 0
M  V30 1534 N 144.854 0.36279 1.53368 0
M  V30 1535 C 146.1 -0.228113 2.01513 0
M  V30 1536 C 146.433 -1.48648 1.2497 0
M  V30 1537 O 145.708 -1.91459 0.342616 0
M  V30 1538 C 145.991 -0.522884 3.56284 0
M  V30 1539 C 145.844 0.74892 4.43521 0
M  V30 1540 C 147.163 -1.32461 4.19693 0
M  V30 1541 H 144.282 -0.0814343 0.732487 0
M  V30 1542 H 146.924 0.48713 1.83649 0
M  V30 1543 H 145.074 -1.1322 3.71636 0
M  V30 1544 H 146.746 1.38648 4.39971 0
M  V30 1545 H 144.989 1.36986 4.11603 0
M  V30 1546 H 145.66 0.497667 5.49752 0
M  V30 1547 H 148.136 -0.809203 4.08156 0
M  V30 1548 H 147.012 -1.49961 5.28018 0
M  V30 1549 H 147.273 -2.33232 3.75573 0
M  V30 1550 N 146.332 -1.57332 0.0918853 0
M  V30 1551 C 147.743 -1.81496 -0.437739 0
M  V30 1552 C 148.094 -1.00727 -1.6837 0
M  V30 1553 O 147.219 -0.235694 -2.15113 0
M  V30 1554 C 147.814 -3.29197 -0.800939 0
M  V30 1555 C 146.373 -3.54136 -1.27532 0
M  V30 1556 C 145.52 -2.75979 -0.270392 0
M  V30 1557 H 148.471 -1.55494 0.317366 0
M  V30 1558 H 148.492 -3.42344 -1.66074 0
M  V30 1559 H 148.004 -3.87955 0.106078 0
M  V30 1560 H 146.105 -3.00705 -2.20016 0
M  V30 1561 H 146.218 -4.62792 -1.23938 0
M  V30 1562 H 144.582 -2.43349 -0.751872 0
M  V30 1563 H 145.365 -3.37484 0.629248 0
M  V30 1564 N 147.81 0.181792 -1.56548 0
M  V30 1565 C 149.035 0.920019 -1.85877 0
M  V30 1566 C 149.46 1.75494 -0.677021 0
M  V30 1567 O 148.818 1.77399 0.374056 0
M  V30 1568 C 148.866 1.78112 -3.13542 0
M  V30 1569 O 147.97 2.88152 -2.95029 0
M  V30 1570 H 147.311 0.258334 -0.611686 0
M  V30 1571 H 149.841 0.183092 -2.03779 0
M  V30 1572 H 149.851 2.18314 -3.44678 0
M  V30 1573 H 148.526 1.16777 -3.99169 0
M  V30 1574 H 147.103 2.51609 -2.75222 0
M  V30 1575 N 149.288 1.51039 0.449983 0
M  V30 1576 C 150.518 1.66627 1.22143 0
M  V30 1577 C 150.926 0.357776 1.85786 0
M  V30 1578 O 150.269 -0.672424 1.70951 0
M  V30 1579 C 150.331 2.71562 2.35573 0
M  V30 1580 C 149.995 4.14526 1.92399 0
M  V30 1581 C 150.992 4.99717 1.43453 0
M  V30 1582 C 148.677 4.60559 2.00475 0
M  V30 1583 C 150.671 6.28998 1.03155 0
M  V30 1584 C 148.358 5.8984 1.59788 0
M  V30 1585 C 149.356 6.73886 1.11208 0
M  V30 1586 O 149.044 8.0075 0.710935 0
M  V30 1587 H 148.776 0.562635 0.374724 0
M  V30 1588 H 151.33 1.98146 0.541036 0
M  V30 1589 H 149.56 2.3533 3.06849 0
M  V30 1590 H 151.249 2.76156 2.97478 0
M  V30 1591 H 152.015 4.65361 1.36618 0
M  V30 1592 H 147.894 3.95273 2.37235 0
M  V30 1593 H 151.438 6.9455 0.651663 0
M  V30 1594 H 147.335 6.23713 1.66289 0
M  V30 1595 H 148.103 8.142 0.837913 0
M  V30 1596 N 150.766 -0.704594 1.40972 0
M  V30 1597 C 152.015 -1.46018 1.39146 0
M  V30 1598 C 152.328 -1.956 0.000589254 0
M  V30 1599 O 153.534 -2.71137 -0.1403 0
M  V30 1600 C 151.99 -2.63996 2.4461 0
M  V30 1601 C 151.598 -2.21238 3.89561 0
M  V30 1602 C 153.342 -3.41677 2.51907 0
M  V30 1603 C 151.249 -3.3612 4.86598 0
M  V30 1604 H 150.179 -0.548444 0.517422 0
M  V30 1605 H 152.83 -0.765784 1.66757 0
M  V30 1606 H 151.212 -3.3566 2.10115 0
M  V30 1607 H 152.386 -1.56923 4.33257 0
M  V30 1608 H 150.701 -1.56574 3.85841 0
M  V30 1609 H 153.298 -4.27182 3.2159 0
M  V30 1610 H 153.641 -3.86247 1.55303 0
M  V30 1611 H 154.174 -2.77064 2.85448 0
M  V30 1612 H 150.913 -2.96572 5.84573 0
M  V30 1613 H 150.433 -3.99315 4.47557 0
M  V30 1614 H 152.112 -4.02029 5.06934 0
M  V30 1615 N 152.244 -1.26651 -0.937939 0
M  V30 1616 C 153.176 -1.04283 -2.04102 0
M  V30 1617 C 154.189 -0.00221014 -1.628 0
M  V30 1618 O 155.378 -0.242645 -1.76843 0
M  V30 1619 C 152.478 -0.557846 -3.34277 0
M  V30 1620 C 151.651 -1.66843 -4.04329 0
M  V30 1621 C 150.71 -1.18095 -5.12777 0
M  V30 1622 O 149.736 -1.87865 -5.37304 0
M  V30 1623 N 150.938 -0.0311006 -5.80492 0
M  V30 1624 H 153.703 -1.9927 -2.23856 0
M  V30 1625 H 151.264 -1.1808 -1.10764 0
M  V30 1626 H 153.256 -0.215836 -4.04124 0
M  V30 1627 H 151.826 0.298523 -3.11171 0
M  V30 1628 H 151.046 -2.18123 -3.28353 0
M  V30 1629 H 152.334 -2.41408 -4.47883 0
M  V30 1630 H 151.732 0.551486 -5.63005 0
M  V30 1631 H 150.289 0.251809 -6.51313 0
M  V30 1632 N 153.722 1.14298 -1.08507 0
M  V30 1633 C 155.138 1.37347 -0.812901 0
M  V30 1634 C 155.338 1.93052 0.577325 0
M  V30 1635 O 154.394 2.14389 1.33393 0
M  V30 1636 C 155.707 2.33359 -1.89642 0
M  V30 1637 C 157.255 2.46996 -1.92255 0
M  V30 1638 C 157.73 3.46309 -2.99724 0
M  V30 1639 N 159.221 3.53853 -2.98902 0
M  V30 1640 C 159.956 4.3055 -3.787 0
M  V30 1641 N 159.452 5.10482 -4.6838 0
M  V30 1642 N 161.245 4.25757 -3.66998 0
M  V30 1643 H 153.396 0.764867 -1.9815 0
M  V30 1644 H 155.659 0.398966 -0.859959 0
M  V30 1645 H 155.365 1.99565 -2.89597 0
M  V30 1646 H 155.239 3.33274 -1.76659 0
M  V30 1647 H 157.626 2.80081 -0.929445 0
M  V30 1648 H 157.707 1.47039 -2.09316 0
M  V30 1649 H 157.351 3.13957 -3.99241 0
M  V30 1650 H 157.281 4.46049 -2.79907 0
M  V30 1651 H 159.772 2.96812 -2.33904 0
M  V30 1652 H 160.085 5.66284 -5.25873 0
M  V30 1653 H 158.43 5.09747 -4.72422 0
M  V30 1654 H 161.621 3.62383 -2.96304 0
M  V30 1655 H 161.794 4.85279 -4.29427 0
M  V30 1656 N 155.201 0.870884 1.31352 0
M  V30 1657 C 156.612 0.534714 1.78879 0
M  V30 1658 C 156.963 -0.948423 1.71754 0
M  V30 1659 O 156.088 -1.74055 1.28584 0
M  V30 1660 C 156.683 0.963839 3.24801 0
M  V30 1661 C 155.242 0.679311 3.70219 0
M  V30 1662 C 154.389 1.15465 2.52117 0
M  V30 1663 H 157.34 1.05651 1.18421 0
M  V30 1664 H 157.361 0.286892 3.79417 0
M  V30 1665 H 156.873 2.04332 3.29955 0
M  V30 1666 H 154.974 -0.388769 3.70566 0
M  V30 1667 H 155.087 1.25698 4.62317 0
M  V30 1668 H 153.451 0.574383 2.48139 0
M  V30 1669 H 154.234 2.24157 2.60016 0
M  V30 1670 N 156.679 -1.44442 0.630414 0
M  V30 1671 C 157.956 -1.9549 0.0655657 0
M  V30 1672 C 158.336 -1.5724 -1.40851 0
M  V30 1673 O 157.684 -0.846116 -2.12257 0
M  V30 1674 C 157.894 -3.47812 0.287691 0
M  V30 1675 C 159.242 -4.24216 0.180513 0
M  V30 1676 O 160.266 -3.55526 0.219019 0
M  V30 1677 O 159.125 -5.46434 0.0848493 0
M  V30 1678 H 156.219 -0.826688 -0.0227177 0
M  V30 1679 H 158.765 -1.54496 0.702068 0
M  V30 1680 H 157.537 -3.687 1.31056 0
M  V30 1681 H 157.16 -3.95751 -0.382984 0
M  V30 1682 N 158.157 -0.370918 -1.53173 0
M  V30 1683 C 159.387 0.217389 -2.05453 0
M  V30 1684 C 159.795 1.42568 -1.24382 0
M  V30 1685 O 159.138 1.81571 -0.278839 0
M  V30 1686 C 159.2 0.669827 -3.53205 0
M  V30 1687 C 158.864 -0.4225 -4.55043 0
M  V30 1688 C 159.861 -1.27407 -5.04047 0
M  V30 1689 C 157.546 -0.58427 -4.9889 0
M  V30 1690 C 159.54 -2.27271 -5.95505 0
M  V30 1691 C 157.227 -1.58627 -5.90153 0
M  V30 1692 C 158.225 -2.42892 -6.38351 0
M  V30 1693 O 157.913 -3.41382 -7.27814 0
M  V30 1694 H 157.645 0.0408171 -0.674767 0
M  V30 1695 H 160.199 -0.5292 -1.98466 0
M  V30 1696 H 158.429 1.4681 -3.57748 0
M  V30 1697 H 160.118 1.18173 -3.88317 0
M  V30 1698 H 160.884 -1.16031 -4.70916 0
M  V30 1699 H 156.763 0.061851 -4.60959 0
M  V30 1700 H 160.307 -2.93079 -6.33049 0
M  V30 1701 H 156.204 -1.70048 -6.22699 0
M  V30 1702 H 156.972 -3.37173 -7.45826 0
M  V30 1703 N 159.635 1.57281 -0.100228 0
M  V30 1704 C 160.598 2.13158 0.842398 0
M  V30 1705 C 161.598 1.06202 1.20738 0
M  V30 1706 O 162.788 1.32066 1.13597 0
M  V30 1707 C 159.92 2.65639 2.13655 0
M  V30 1708 H 161.113 2.97766 0.357114 0
M  V30 1709 H 158.666 1.5559 0.148823 0
M  V30 1710 H 159.401 1.84566 2.66657 0
M  V30 1711 H 159.186 3.43844 1.88451 0
M  V30 1712 H 160.676 3.08846 2.81077 0
M  V30 1713 N 161.113 -0.173488 1.56642 0
M  V30 1714 C 162.39 -0.917617 1.7274 0
M  V30 1715 C 162.77 -2.00484 0.661027 0
M  V30 1716 O 162.118 -2.26184 -0.32453 0
M  V30 1717 C 162.328 -1.48433 3.15862 0
M  V30 1718 C 163.676 -1.95809 3.76754 0
M  V30 1719 O 164.7 -1.58231 3.19126 0
M  V30 1720 O 163.559 -2.65024 4.77938 0
M  V30 1721 H 160.653 -0.431772 0.705338 0
M  V30 1722 H 163.199 -0.161487 1.6893 0
M  V30 1723 H 161.971 -0.701715 3.84957 0
M  V30 1724 H 161.594 -2.30471 3.23989 0
M  V30 1725 N 162.591 -1.51276 -0.441967 0
M  V30 1726 C 163.541 -1.6864 -1.53442 0
M  V30 1727 C 164.525 -0.540444 -1.51552 0
M  V30 1728 O 165.717 -0.796157 -1.58083 0
M  V30 1729 C 162.846 -1.8106 -2.91672 0
M  V30 1730 C 161.932 -3.01424 -2.98336 0
M  V30 1731 N 162.323 -4.2467 -2.74752 0
M  V30 1732 C 160.621 -3.00584 -3.29493 0
M  V30 1733 C 161.322 -5.05891 -2.87139 0
M  V30 1734 N 160.298 -4.40442 -3.18609 0
M  V30 1735 H 164.1 -2.61598 -1.33954 0
M  V30 1736 H 161.614 -1.4886 -0.6492 0
M  V30 1737 H 163.611 -1.91609 -3.70259 0
M  V30 1738 H 162.271 -0.892795 -3.12185 0
M  V30 1739 H 163.282 -4.53691 -2.49769 0
M  V30 1740 H 159.959 -2.18417 -3.55809 0
M  V30 1741 H 161.349 -6.13983 -2.72899 0
M  V30 1742 N 164.069 0.697108 -1.41344 0
M  V30 1743 C 165.48 1.27697 -1.36199 0
M  V30 1744 C 165.831 1.9615 -0.0443463 0
M  V30 1745 O 164.956 1.98689 0.857419 0
M  V30 1746 C 165.551 2.32223 -2.46694 0
M  V30 1747 C 164.11 2.8579 -2.44952 0
M  V30 1748 C 163.257 1.59807 -2.26621 0
M  V30 1749 H 166.208 0.491968 -1.50882 0
M  V30 1750 H 166.229 3.1348 -2.15664 0
M  V30 1751 H 165.741 1.82373 -3.42581 0
M  V30 1752 H 163.842 3.3982 -1.52817 0
M  V30 1753 H 163.955 3.36325 -3.41207 0
M  V30 1754 H 162.319 1.8556 -1.7447 0
M  V30 1755 H 163.102 1.11956 -3.24532 0
M  V30 1756 N 165.547 1.27147 0.931209 0
M  V30 1757 C 166.477 1.12081 2.04842 0
M  V30 1758 C 167.458 0.0232364 1.70084 0
M  V30 1759 O 168.643 0.197085 1.93197 0
M  V30 1760 C 165.773 0.76354 3.38803 0
M  V30 1761 C 164.727 1.81396 3.87659 0
M  V30 1762 C 164.053 1.31075 5.18385 0
M  V30 1763 C 165.353 3.21739 4.11438 0
M  V30 1764 H 167.047 2.05537 2.17703 0
M  V30 1765 H 164.593 0.989603 1.04608 0
M  V30 1766 H 166.546 0.644982 4.16435 0
M  V30 1767 H 165.27 -0.206727 3.25945 0
M  V30 1768 H 163.929 1.92136 3.12217 0
M  V30 1769 H 163.577 0.330037 5.01916 0
M  V30 1770 H 163.277 2.013 5.52044 0
M  V30 1771 H 164.801 1.20506 5.98591 0
M  V30 1772 H 166.215 3.14019 4.79651 0
M  V30 1773 H 164.612 3.89644 4.56397 0
M  V30 1774 H 165.682 3.67054 3.16859 0
M  V30 1775 N 167.025 -1.13721 1.09112 0
M  V30 1776 C 168.273 -1.84559 0.823562 0
M  V30 1777 C 168.594 -1.83754 -0.652658 0
M  V30 1778 O 167.864 -1.29102 -1.47342 0
M  V30 1779 H 166.444 -0.683376 0.301673 0
M  V30 1780 H 169.106 -1.37771 1.37859 0
M  V30 1781 H 168.202 -2.8917 1.17419 0
M  V30 1782 N 168.503 -0.877838 -1.30888 0
M  V30 1783 C 169.436 -0.283995 -2.26426 0
M  V30 1784 C 170.414 0.591361 -1.51465 0
M  V30 1785 O 171.598 0.54304 -1.80509 0
M  V30 1786 C 168.725 0.597129 -3.33395 0
M  V30 1787 C 167.771 -0.207937 -4.25993 0
M  V30 1788 S 168.604 -1.59158 -5.11301 0
M  V30 1789 C 169.76 -0.716791 -6.21782 0
M  V30 1790 H 169.993 -1.09383 -2.76446 0
M  V30 1791 H 167.526 -0.676828 -1.38775 0
M  V30 1792 H 169.484 1.09978 -3.95493 0
M  V30 1793 H 168.145 1.38099 -2.82113 0
M  V30 1794 H 167.338 0.464163 -5.01858 0
M  V30 1795 H 166.94 -0.642963 -3.68432 0
M  V30 1796 H 169.232 0.0692833 -6.77465 0
M  V30 1797 H 170.175 -1.44682 -6.93161 0
M  V30 1798 H 170.583 -0.280855 -5.63801 0
M  V30 1799 N 169.982 1.44106 -0.638065 0
M  V30 1800 C 171.207 2.0685 -0.150916 0
M  V30 1801 C 171.632 1.47417 1.16833 0
M  V30 1802 O 170.99 0.578264 1.71831 0
M  V30 1803 C 171.038 3.60555 -0.05708 0
M  V30 1804 O 170.142 4.00465 0.984972 0
M  V30 1805 H 169.483 0.658151 -0.0879399 0
M  V30 1806 H 172.013 1.84865 -0.876707 0
M  V30 1807 H 172.023 4.07789 0.131232 0
M  V30 1808 H 170.698 4.03193 -1.02021 0
M  V30 1809 H 169.275 3.64849 0.770672 0
M  V30 1810 N 171.46 0.379036 1.52974 0
M  V30 1811 C 172.37 -0.468639 2.29872 0
M  V30 1812 C 173.386 -1.08067 1.36373 0
M  V30 1813 O 174.562 -1.08871 1.69438 0
M  V30 1814 C 171.627 -1.58594 3.083 0
M  V30 1815 C 170.688 -1.00007 4.17489 0
M  V30 1816 C 169.921 -2.06413 4.92168 0
M  V30 1817 O 170.144 -3.27751 4.66835 0
M  V30 1818 O 169.078 -1.68717 5.7777 0
M  V30 1819 H 172.904 0.157508 3.03291 0
M  V30 1820 H 170.489 0.143035 1.48714 0
M  V30 1821 H 172.371 -2.23525 3.57232 0
M  V30 1822 H 171.046 -2.19724 2.37703 0
M  V30 1823 H 169.953 -0.314299 3.72777 0
M  V30 1824 H 171.286 -0.433135 4.90291 0
M  V30 1825 N 172.938 -1.57226 0.108567 0
M  V30 1826 C 174.163 -1.99604 -0.563303 0
M  V30 1827 C 174.588 -0.987563 -1.6009 0
M  V30 1828 O 173.946 0.0421687 -1.81251 0
M  V30 1829 C 173.994 -3.40902 -1.17552 0
M  V30 1830 O 173.098 -3.42896 -2.2912 0
M  V30 1831 H 172.439 -0.648704 -0.1417 0
M  V30 1832 H 174.969 -2.03679 0.193961 0
M  V30 1833 H 174.979 -3.78886 -1.51357 0
M  V30 1834 H 173.654 -4.1382 -0.415445 0
M  V30 1835 H 172.231 -3.1672 -1.96832 0
M  V30 1836 N 174.416 0.165178 -1.56732 0
M  V30 1837 C 175.326 1.22423 -2.00125 0
M  V30 1838 C 176.342 1.48084 -0.913619 0
M  V30 1839 O 177.518 1.60112 -1.22172 0
M  V30 1840 C 174.583 2.54197 -2.35764 0
M  V30 1841 C 173.644 2.36343 -3.58386 0
M  V30 1842 C 172.877 3.61834 -3.92316 0
M  V30 1843 O 173.1 4.67267 -3.27135 0
M  V30 1844 O 172.034 3.55579 -4.85641 0
M  V30 1845 H 175.86 0.885886 -2.90492 0
M  V30 1846 H 173.445 0.372518 -1.44681 0
M  V30 1847 H 175.327 3.3192 -2.59629 0
M  V30 1848 H 174.002 2.87598 -1.48557 0
M  V30 1849 H 172.909 1.56632 -3.39731 0
M  V30 1850 H 174.242 2.07865 -4.46154 0
M  V30 1851 N 175.894 1.51508 0.433938 0
M  V30 1852 C 176.826 1.69266 1.54537 0
M  V30 1853 C 177.839 0.573276 1.52373 0
M  V30 1854 O 179.028 0.847698 1.57087 0
M  V30 1855 C 176.128 1.69524 2.93453 0
M  V30 1856 C 175.301 2.98101 3.20085 0
M  V30 1857 C 174.36 2.90502 4.38742 0
M  V30 1858 O 173.386 3.64442 4.3723 0
M  V30 1859 N 174.588 2.06586 5.42496 0
M  V30 1860 H 177.353 2.65145 1.39708 0
M  V30 1861 H 174.914 1.49437 0.622922 0
M  V30 1862 H 176.906 1.62004 3.70859 0
M  V30 1863 H 175.476 0.812245 3.01863 0
M  V30 1864 H 174.696 3.19464 2.30947 0
M  V30 1865 H 175.984 3.83207 3.34708 0
M  V30 1866 H 175.382 1.45896 5.46563 0
M  V30 1867 H 173.939 2.04943 6.18742 0
M  V30 1868 N 177.372 -0.689602 1.41712 0
M  V30 1869 C 178.335 -1.78521 1.43746 0
M  V30 1870 C 179.335 -1.57436 0.327191 0
M  V30 1871 O 180.525 -1.64 0.587348 0
M  V30 1872 C 177.657 -3.16971 1.25467 0
M  V30 1873 H 178.85 -1.78108 2.41283 0
M  V30 1874 H 176.403 -0.89781 1.27942 0
M  V30 1875 H 177.138 -3.23019 0.287948 0
M  V30 1876 H 176.923 -3.33678 2.05917 0
M  V30 1877 H 178.413 -3.96935 1.2974 0
M  V30 1878 N 178.85 -1.27639 -0.924453 0
M  V30 1879 C 179.78 -1.13166 -2.04244 0
M  V30 1880 C 180.761 -0.032256 -1.70069 0
M  V30 1881 O 181.946 -0.207328 -1.9309 0
M  V30 1882 C 179.076 -0.781496 -3.38393 0
M  V30 1883 C 178.03 -1.83449 -3.86692 0
M  V30 1884 C 177.356 -1.33822 -5.17683 0
M  V30 1885 C 178.656 -3.23917 -4.09726 0
M  V30 1886 H 180.35 -2.06689 -2.1661 0
M  V30 1887 H 177.896 -0.995136 -1.04082 0
M  V30 1888 H 179.849 -0.667057 -4.16087 0
M  V30 1889 H 178.573 0.189439 -3.2605 0
M  V30 1890 H 177.232 -1.93789 -3.11193 0
M  V30 1891 H 176.88 -0.35665 -5.01734 0
M  V30 1892 H 176.58 -2.04224 -5.50968 0
M  V30 1893 H 178.104 -1.23679 -5.97943 0
M  V30 1894 H 179.518 -3.16559 -4.77978 0
M  V30 1895 H 177.915 -3.92059 -4.54324 0
M  V30 1896 H 178.985 -3.68729 -3.14908 0
M  V30 1897 N 180.328 1.1314 -1.09713 0
M  V30 1898 C 181.275 2.18642 -0.739196 0
M  V30 1899 C 182.245 1.63706 0.280978 0
M  V30 1900 O 183.43 1.90111 0.161946 0
M  V30 1901 C 180.57 3.44685 -0.169102 0
M  V30 1902 C 179.683 4.13711 -1.24367 0
M  V30 1903 C 178.818 5.27379 -0.636019 0
M  V30 1904 C 177.857 5.88259 -1.69169 0
M  V30 1905 N 176.994 6.93352 -1.10485 0
M  V30 1906 H 181.834 2.48607 -1.64312 0
M  V30 1907 H 179.371 1.22066 -0.820875 0
M  V30 1908 H 181.329 4.16815 0.179256 0
M  V30 1909 H 179.959 3.15161 0.698079 0
M  V30 1910 H 179.011 3.39835 -1.70927 0
M  V30 1911 H 180.323 4.55037 -2.04311 0
M  V30 1912 H 179.477 6.06238 -0.236677 0
M  V30 1913 H 178.216 4.8731 0.194928 0
M  V30 1914 H 177.221 5.08092 -2.10055 0
M  V30 1915 H 178.446 6.30399 -2.52536 0
M  V30 1916 H 176.392 6.55335 -0.295234 0
M  V30 1917 H 176.309 7.33236 -1.84121 0
M  V30 1918 H 177.577 7.76057 -0.73181 0
M  V30 1919 N 181.806 0.884767 1.30421 0
M  V30 1920 C 183.054 0.502112 1.95763 0
M  V30 1921 C 183.375 -0.951815 1.70192 0
M  V30 1922 O 182.645 -1.6692 1.0254 0
M  V30 1923 H 181.225 0.182694 0.724315 0
M  V30 1924 H 183.887 1.1278 1.58955 0
M  V30 1925 H 182.983 0.672188 3.04775 0
M  V30 1926 N 183.284 -1.43765 0.645699 0
M  V30 1927 C 184.512 -2.06253 0.163556 0
M  V30 1928 C 184.927 -1.48352 -1.16778 0
M  V30 1929 O 184.284 -0.611932 -1.71935 0
M  V30 1930 C 184.335 -3.61453 0.0583186 0
M  V30 1931 O 184.056 -4.172 1.33702 0
M  V30 1932 C 185.557 -4.41002 -0.450795 0
M  V30 1933 H 182.777 -0.665413 0.0864077 0
M  V30 1934 H 185.321 -1.84396 0.884222 0
M  V30 1935 H 183.476 -3.82522 -0.612865 0
M  V30 1936 H 183.89 -5.10791 1.19131 0
M  V30 1937 H 185.364 -5.49966 -0.473403 0
M  V30 1938 H 185.841 -4.13488 -1.48068 0
M  V30 1939 H 186.447 -4.24886 0.187637 0
M  V30 1940 N 184.763 -0.387143 -1.52771 0
M  V30 1941 C 185.988 0.198407 -2.06449 0
M  V30 1942 C 186.413 1.39918 -1.25716 0
M  V30 1943 O 185.771 1.79099 -0.281657 0
M  V30 1944 C 185.819 0.548893 -3.56398 0
M  V30 1945 O 184.923 1.64315 -3.78252 0
M  V30 1946 H 184.264 0.0237731 -0.663574 0
M  V30 1947 H 186.794 -0.553989 -1.96957 0
M  V30 1948 H 186.804 0.813812 -3.99801 0
M  V30 1949 H 185.479 -0.329005 -4.14597 0
M  V30 1950 H 184.056 1.37211 -3.46738 0
M  V30 1951 N 186.241 1.57166 -0.116904 0
M  V30 1952 C 187.173 2.12271 0.864507 0
M  V30 1953 C 188.186 1.06494 1.23138 0
M  V30 1954 O 189.375 1.33873 1.18069 0
M  V30 1955 C 186.475 2.60564 2.16702 0
M  V30 1956 C 185.648 3.90416 1.97216 0
M  V30 1957 C 184.707 4.24329 3.11178 0
M  V30 1958 O 183.733 4.93182 2.84184 0
M  V30 1959 N 184.935 3.8148 4.37554 0
M  V30 1960 H 187.7 2.97102 0.393726 0
M  V30 1961 H 185.261 1.61759 0.0675805 0
M  V30 1962 H 187.253 2.80282 2.91932 0
M  V30 1963 H 185.823 1.80623 2.55135 0
M  V30 1964 H 185.043 3.79627 1.06192 0
M  V30 1965 H 186.331 4.75327 1.81499 0
M  V30 1966 H 185.729 3.25943 4.62361 0
M  V30 1967 H 184.286 4.06311 5.09661 0
M  V30 1968 N 187.719 -0.156864 1.56817 0
M  V30 1969 C 188.968 -0.869504 1.81996 0
M  V30 1970 C 189.281 -1.82777 0.696545 0
M  V30 1971 O 190.487 -2.58384 0.833658 0
M  V30 1972 C 188.943 -1.59679 3.22538 0
M  V30 1973 C 188.551 -0.681431 4.42787 0
M  V30 1974 C 190.295 -2.2968 3.56997 0
M  V30 1975 C 188.202 -1.40978 5.74351 0
M  V30 1976 H 187.132 -0.328438 0.678708 0
M  V30 1977 H 189.783 -0.1223 1.83092 0
M  V30 1978 H 188.165 -2.38927 3.158 0
M  V30 1979 H 189.339 0.0751166 4.60739 0
M  V30 1980 H 187.654 -0.0903431 4.16302 0
M  V30 1981 H 190.251 -2.84794 4.52544 0
M  V30 1982 H 190.594 -3.05707 2.82576 0
M  V30 1983 H 191.127 -1.57361 3.65352 0
M  V30 1984 H 187.866 -0.691561 6.51842 0
M  V30 1985 H 187.386 -2.13929 5.60352 0
M  V30 1986 H 189.065 -1.95337 6.16808 0
M  V30 1987 N 189.197 -1.51736 -0.425897 0
M  V30 1988 C 190.144 -1.73875 -1.51776 0
M  V30 1989 C 191.114 -0.580702 -1.55618 0
M  V30 1990 O 192.299 -0.81641 -1.72451 0
M  V30 1991 C 189.439 -1.88012 -2.89388 0
M  V30 1992 C 188.552 -3.15606 -2.94986 0
M  V30 1993 C 187.687 -3.20271 -4.23793 0
M  V30 1994 C 186.726 -4.42134 -4.23302 0
M  V30 1995 N 185.863 -4.44284 -5.43651 0
M  V30 1996 H 190.703 -2.67071 -1.32201 0
M  V30 1997 H 188.24 -1.32351 -0.642008 0
M  V30 1998 H 190.198 -1.9419 -3.69251 0
M  V30 1999 H 188.828 -0.98213 -3.07496 0
M  V30 2000 H 187.88 -3.18681 -2.07717 0
M  V30 2001 H 189.192 -4.05486 -2.90486 0
M  V30 2002 H 188.346 -3.25428 -5.12036 0
M  V30 2003 H 187.085 -2.28299 -4.30965 0
M  V30 2004 H 186.09 -4.3714 -3.3345 0
M  V30 2005 H 187.315 -5.35382 -4.17783 0
M  V30 2006 H 185.261 -3.55188 -5.51523 0
M  V30 2007 H 185.178 -5.27988 -5.41078 0
M  V30 2008 H 186.446 -4.53649 -6.33895 0
M  V30 2009 N 190.675 0.682077 -1.42076 0
M  V30 2010 C 191.605 1.80796 -1.47767 0
M  V30 2011 C 192.586 1.6677 -0.334954 0
M  V30 2012 O 193.771 1.863 -0.548264 0
M  V30 2013 C 190.901 3.19038 -1.37229 0
M  V30 2014 C 189.855 3.47789 -2.49453 0
M  V30 2015 C 189.181 4.8553 -2.23975 0
M  V30 2016 C 190.481 3.45411 -3.91776 0
M  V30 2017 H 192.175 1.7629 -2.41997 0
M  V30 2018 H 189.721 0.846721 -1.16476 0
M  V30 2019 H 191.674 3.97528 -1.39821 0
M  V30 2020 H 190.398 3.24204 -0.394907 0
M  V30 2021 H 189.057 2.71657 -2.46166 0
M  V30 2022 H 188.705 4.87337 -1.24547 0
M  V30 2023 H 188.405 5.0573 -2.99184 0
M  V30 2024 H 189.929 5.66312 -2.28304 0
M  V30 2025 H 191.343 4.13882 -3.96705 0
M  V30 2026 H 189.74 3.77145 -4.66778 0
M  V30 2027 H 190.81 2.44122 -4.18966 0
M  V30 2028 N 192.153 1.28127 0.917671 0
M  V30 2029 C 193.083 1.14248 2.03641 0
M  V30 2030 C 194.064 0.0412748 1.7005 0
M  V30 2031 O 195.249 0.217566 1.92977 0
M  V30 2032 C 192.379 0.799431 3.37974 0
M  V30 2033 C 191.333 1.85497 3.85713 0
M  V30 2034 C 190.659 1.36565 5.16966 0
M  V30 2035 C 191.959 3.26085 4.08002 0
M  V30 2036 H 193.653 2.07835 2.15511 0
M  V30 2037 H 191.199 1.00064 1.03553 0
M  V30 2038 H 193.152 0.689114 4.15727 0
M  V30 2039 H 191.876 -0.172145 3.26146 0
M  V30 2040 H 190.535 1.95437 3.10161 0
M  V30 2041 H 190.183 0.383253 5.01538 0
M  V30 2042 H 189.883 2.07143 5.49878 0
M  V30 2043 H 191.407 1.26848 5.97279 0
M  V30 2044 H 192.821 3.19089 4.76293 0
M  V30 2045 H 191.218 3.94462 4.52238 0
M  V30 2046 H 192.288 3.70394 3.12948 0
M  V30 2047 N 193.631 -1.12557 1.10312 0
M  V30 2048 C 194.856 -1.88405 0.867085 0
M  V30 2049 C 195.281 -1.79038 -0.576817 0
M  V30 2050 O 194.639 -1.14439 -1.40618 0
M  V30 2051 C 194.687 -3.3563 1.31851 0
M  V30 2052 O 193.791 -4.09565 0.482734 0
M  V30 2053 H 193.132 -0.585455 0.313271 0
M  V30 2054 H 195.662 -1.42352 1.4696 0
M  V30 2055 H 195.672 -3.86469 1.3079 0
M  V30 2056 H 194.347 -3.41765 2.37001 0
M  V30 2057 H 192.924 -3.68695 0.558448 0
M  V30 2058 N 195.109 -0.891671 -1.2995 0
M  V30 2059 C 196.334 -0.527932 -2.00568 0
M  V30 2060 C 196.759 0.877969 -1.66353 0
M  V30 2061 O 196.117 1.58301 -0.883762 0
M  V30 2062 C 196.165 -0.717745 -3.53385 0
M  V30 2063 O 195.269 0.233376 -4.11739 0
M  V30 2064 H 194.61 -0.20722 -0.630837 0
M  V30 2065 H 197.14 -1.20105 -1.65638 0
M  V30 2066 H 197.15 -0.619307 -4.03272 0
M  V30 2067 H 195.825 -1.74276 -3.77625 0
M  V30 2068 H 194.402 0.0880706 -3.72796 0
M  V30 2069 N 196.587 1.43421 -0.653314 0
M  V30 2070 C 197.497 2.34568 0.0388565 0
M  V30 2071 C 198.513 1.53888 0.81207 0
M  V30 2072 O 199.689 1.86539 0.759294 0
M  V30 2073 C 196.754 3.32167 0.993269 0
M  V30 2074 C 195.815 4.28751 0.216977 0
M  V30 2075 C 195.048 5.21688 1.12593 0
M  V30 2076 O 195.271 5.19052 2.36519 0
M  V30 2077 O 194.205 5.98919 0.598284 0
M  V30 2078 H 198.031 2.95251 -0.711386 0
M  V30 2079 H 195.616 1.43564 -0.413502 0
M  V30 2080 H 197.498 3.92183 1.54176 0
M  V30 2081 H 196.173 2.73987 1.72374 0
M  V30 2082 H 195.08 3.72215 -0.375101 0
M  V30 2083 H 196.413 4.89913 -0.473924 0
M  V30 2084 N 198.065 0.39524 1.52563 0
M  V30 2085 C 199.342 -0.242908 1.94086 0
M  V30 2086 C 199.722 -1.63841 1.33114 0
M  V30 2087 O 199.07 -2.22928 0.501529 0
M  V30 2088 C 199.28 -0.26327 3.48006 0
M  V30 2089 C 200.628 -0.489354 4.21771 0
M  V30 2090 O 201.652 -0.343226 3.54543 0
M  V30 2091 O 200.511 -0.776169 5.4096 0
M  V30 2092 H 197.605 -0.152536 0.812811 0
M  V30 2093 H 200.151 0.450178 1.6362 0
M  V30 2094 H 198.923 0.713985 3.84731 0
M  V30 2095 H 198.546 -1.00103 3.84792 0
M  V30 2096 N 199.544 -1.57102 0.125237 0
M  V30 2097 C 200.793 -1.94582 -0.531095 0
M  V30 2098 C 201.106 -1.01126 -1.6743 0
M  V30 2099 O 202.312 -1.28097 -2.39381 0
M  V30 2100 C 200.768 -3.45839 -0.996164 0
M  V30 2101 C 200.376 -4.47842 0.118926 0
M  V30 2102 C 202.12 -3.92227 -1.62352 0
M  V30 2103 C 200.027 -5.90284 -0.363192 0
M  V30 2104 H 198.957 -0.726391 -0.20217 0
M  V30 2105 H 201.608 -1.82339 0.206092 0
M  V30 2106 H 199.99 -3.53338 -1.78796 0
M  V30 2107 H 201.164 -4.52018 0.895358 0
M  V30 2108 H 199.479 -4.11243 0.653324 0
M  V30 2109 H 202.076 -4.96069 -1.99548 0
M  V30 2110 H 202.419 -3.32552 -2.50429 0
M  V30 2111 H 202.952 -3.87554 -0.897019 0
M  V30 2112 H 199.691 -6.53728 0.481679 0
M  V30 2113 H 199.211 -5.89515 -1.10597 0
M  V30 2114 H 200.89 -6.41752 -0.822377 0
M  V30 2115 N 201.022 0.148545 -1.56898 0
M  V30 2116 C 201.932 1.20293 -2.01412 0
M  V30 2117 C 202.948 1.47107 -0.929273 0
M  V30 2118 O 204.124 1.58807 -1.23863 0
M  V30 2119 C 201.189 2.51682 -2.38447 0
M  V30 2120 C 200.25 2.32529 -3.60872 0
M  V30 2121 C 199.483 3.57653 -3.96132 0
M  V30 2122 O 199.706 4.63771 -3.32073 0
M  V30 2123 O 198.64 3.50408 -4.89385 0
M  V30 2124 H 202.466 0.855025 -2.91416 0
M  V30 2125 H 200.051 0.357151 -1.45068 0
M  V30 2126 H 201.933 3.29147 -2.63135 0
M  V30 2127 H 200.608 2.86006 -1.51599 0
M  V30 2128 H 199.515 1.53019 -3.41373 0
M  V30 2129 H 200.848 2.03121 -4.48333 0
M  V30 2130 N 202.5 1.5196 0.417844 0
M  V30 2131 C 203.748 1.65263 1.16329 0
M  V30 2132 C 204.069 0.380634 1.91249 0
M  V30 2133 O 203.339 -0.604214 1.86349 0
M  V30 2134 H 201.919 0.60912 0.432414 0
M  V30 2135 H 204.581 1.88969 0.477162 0
M  V30 2136 H 203.677 2.4896 1.88217 0
M  V30 2137 N 203.978 -0.674533 1.42435 0
M  V30 2138 C 204.911 -1.79924 1.40366 0
M  V30 2139 C 205.889 -1.60378 0.267899 0
M  V30 2140 O 207.073 -1.82847 0.458159 0
M  V30 2141 C 204.2 -3.16927 1.19478 0
M  V30 2142 C 203.246 -3.55221 2.36051 0
M  V30 2143 S 204.079 -3.5762 3.98583 0
M  V30 2144 C 205.235 -4.97315 3.80038 0
M  V30 2145 H 205.468 -1.81405 2.35541 0
M  V30 2146 H 203.001 -0.845221 1.29211 0
M  V30 2147 H 204.959 -3.96007 1.08114 0
M  V30 2148 H 203.62 -3.13031 0.258883 0
M  V30 2149 H 202.813 -4.54804 2.17185 0
M  V30 2150 H 202.415 -2.83502 2.43932 0
M  V30 2151 H 204.707 -5.85401 3.41045 0
M  V30 2152 H 205.65 -5.21228 4.79298 0
M  V30 2153 H 206.058 -4.69845 3.12899 0
M  V30 2154 N 205.456 -1.28612 -0.910864 0
M  V30 2155 C 206.872 -1.06381 -1.18976 0
M  V30 2156 C 207.072 0.191998 -2.00583 0
M  V30 2157 O 206.128 0.892869 -2.36187 0
M  V30 2158 C 207.441 -2.31295 -1.92154 0
M  V30 2159 C 208.989 -2.36503 -2.05025 0
M  V30 2160 C 209.464 -3.61191 -2.81612 0
M  V30 2161 N 210.955 -3.61847 -2.89172 0
M  V30 2162 C 211.69 -4.55004 -3.4894 0
M  V30 2163 N 211.186 -5.58482 -4.09963 0
M  V30 2164 N 212.979 -4.42594 -3.46506 0
M  V30 2165 H 205.13 -2.09221 -0.366094 0
M  V30 2166 H 207.393 -0.921003 -0.224629 0
M  V30 2167 H 207.099 -3.228 -1.39618 0
M  V30 2168 H 206.973 -2.37934 -2.9269 0
M  V30 2169 H 209.36 -1.45494 -2.5674 0
M  V30 2170 H 209.441 -2.33857 -1.03657 0
M  V30 2171 H 209.085 -4.52545 -2.30576 0
M  V30 2172 H 209.015 -3.61092 -3.83302 0
M  V30 2173 H 211.506 -2.87022 -2.45819 0
M  V30 2174 H 211.819 -6.25704 -4.53557 0
M  V30 2175 H 210.164 -5.62305 -4.08459 0
M  V30 2176 H 213.355 -3.60953 -2.98045 0
M  V30 2177 H 213.528 -5.15381 -3.92793 0
M  V30 2178 N 206.934 1.1197 -1.10907 0
M  V30 2179 C 207.864 2.19928 -0.784473 0
M  V30 2180 C 208.845 1.6833 0.244726 0
M  V30 2181 O 210.03 1.93892 0.109418 0
M  V30 2182 C 207.16 3.46597 -0.220827 0
M  V30 2183 C 206.114 4.11376 -1.18127 0
M  V30 2184 C 205.44 5.32554 -0.478594 0
M  V30 2185 C 206.74 4.56945 -2.52979 0
M  V30 2186 H 208.434 2.47337 -1.68715 0
M  V30 2187 H 205.98 1.18879 -0.812642 0
M  V30 2188 H 207.933 4.21396 0.0184278 0
M  V30 2189 H 206.657 3.1863 0.717113 0
M  V30 2190 H 205.316 3.38564 -1.40606 0
M  V30 2191 H 204.964 5.00856 0.463976 0
M  V30 2192 H 204.664 5.76844 -1.11912 0
M  V30 2193 H 206.188 6.10096 -0.248 0
M  V30 2194 H 207.602 5.23093 -2.3462 0
M  V30 2195 H 205.999 5.1203 -3.12962 0
M  V30 2196 H 207.069 3.70676 -3.12614 0
M  V30 2197 N 208.412 0.89855 1.29475 0
M  V30 2198 C 209.658 0.524658 1.95896 0
M  V30 2199 C 209.991 -0.926468 1.70676 0
M  V30 2200 O 209.266 -1.65665 1.01908 0
M  V30 2201 C 209.549 0.81633 3.50725 0
M  V30 2202 C 209.402 2.31907 3.85408 0
M  V30 2203 C 210.721 0.302038 4.39062 0
M  V30 2204 H 207.84 0.19209 0.711527 0
M  V30 2205 H 210.482 1.12502 1.53112 0
M  V30 2206 H 208.632 0.305369 3.87298 0
M  V30 2207 H 210.304 2.89949 3.58786 0
M  V30 2208 H 208.547 2.78027 3.32992 0
M  V30 2209 H 209.218 2.47373 4.93468 0
M  V30 2210 H 211.694 0.739551 4.09475 0
M  V30 2211 H 210.57 0.535331 5.46283 0
M  V30 2212 H 210.831 -0.797216 4.34853 0
M  V30 2213 N 209.89 -1.43072 0.660911 0
M  V30 2214 C 211.13 -2.03596 0.181146 0
M  V30 2215 C 211.494 -1.51057 -1.18515 0
M  V30 2216 O 212.695 -2.03275 -1.75877 0
M  V30 2217 C 210.966 -3.56845 0.19911 0
M  V30 2218 S 212.525 -4.38289 -0.211684 0
M  V30 2219 H 209.343 -0.706954 0.0757479 0
M  V30 2220 H 211.945 -1.75027 0.870965 0
M  V30 2221 H 210.649 -3.92583 1.1961 0
M  V30 2222 H 210.18 -3.90067 -0.510996 0
M  V30 2223 H 212.195 -4.74583 -1.44863 0
M  V30 2224 N 211.368 -0.403325 -1.52352 0
M  V30 2225 C 212.784 -0.0539281 -1.59509 0
M  V30 2226 C 212.984 1.43307 -1.41652 0
M  V30 2227 O 212.04 2.19924 -1.24056 0
M  V30 2228 C 213.353 -0.543654 -2.95745 0
M  V30 2229 C 214.901 -0.501125 -3.08962 0
M  V30 2230 C 215.376 -0.967267 -4.47669 0
M  V30 2231 N 216.867 -0.923849 -4.53893 0
M  V30 2232 C 217.602 -1.25578 -5.5948 0
M  V30 2233 N 217.098 -1.65889 -6.72646 0
M  V30 2234 N 218.891 -1.17613 -5.49658 0
M  V30 2235 H 211.042 -1.37123 -1.62206 0
M  V30 2236 H 213.305 -0.56294 -0.76276 0
M  V30 2237 H 213.011 -1.58275 -3.14073 0
M  V30 2238 H 212.885 0.0498042 -3.77167 0
M  V30 2239 H 215.272 0.528909 -2.90321 0
M  V30 2240 H 215.353 -1.13056 -2.2946 0
M  V30 2241 H 214.997 -1.9956 -4.67053 0
M  V30 2242 H 214.927 -0.314698 -5.25659 0
M  V30 2243 H 217.418 -0.627403 -3.72655 0
M  V30 2244 H 217.731 -1.89543 -7.49195 0
M  V30 2245 H 216.076 -1.69787 -6.73942 0
M  V30 2246 H 219.267 -0.860115 -4.6013 0
M  V30 2247 H 219.44 -1.43812 -6.3184 0
M  V30 2248 N 212.846 1.57033 -0.133567 0
M  V30 2249 C 213.776 2.1909 0.807567 0
M  V30 2250 C 214.757 1.13517 1.26681 0
M  V30 2251 O 215.942 1.41809 1.32679 0
M  V30 2252 C 213.072 2.80188 2.05212 0
M  V30 2253 C 212.026 3.91471 1.73015 0
M  V30 2254 C 211.352 4.39443 3.04622 0
M  V30 2255 C 212.652 5.12886 0.987168 0
M  V30 2256 H 214.346 2.97988 0.290403 0
M  V30 2257 H 211.892 1.43335 0.138239 0
M  V30 2258 H 213.845 3.22264 2.71521 0
M  V30 2259 H 212.569 1.98601 2.59278 0
M  V30 2260 H 211.228 3.49993 1.0909 0
M  V30 2261 H 210.876 3.54695 3.56651 0
M  V30 2262 H 210.576 5.14495 2.83847 0
M  V30 2263 H 212.1 4.8418 3.72024 0
M  V30 2264 H 213.514 5.51891 1.55208 0
M  V30 2265 H 211.911 5.93615 0.87985 0
M  V30 2266 H 212.981 4.84894 -0.0235286 0
M  V30 2267 N 214.325 -0.140222 1.56975 0
M  V30 2268 C 215.288 -1.15689 1.97861 0
M  V30 2269 C 216.288 -1.3549 0.865974 0
M  V30 2270 O 217.478 -1.32367 1.13246 0
M  V30 2271 C 214.61 -2.51582 2.30042 0
M  V30 2272 H 215.803 -0.805971 2.88867 0
M  V30 2273 H 213.356 -0.383801 1.51515 0
M  V30 2274 H 214.091 -2.91632 1.41849 0
M  V30 2275 H 213.876 -2.38569 3.11171 0
M  V30 2276 H 215.366 -3.24792 2.62488 0
M  V30 2277 N 215.803 -1.52179 -0.40978 0
M  V30 2278 C 217.219 -1.40968 -0.74835 0
M  V30 2279 C 217.419 -0.513657 -1.94843 0
M  V30 2280 O 216.475 0.0208026 -2.52491 0
M  V30 2281 C 217.788 -2.83483 -1.0029 0
M  V30 2282 C 219.336 -2.92821 -1.10565 0
M  V30 2283 C 219.811 -4.36303 -1.39296 0
M  V30 2284 N 221.302 -4.39535 -1.46162 0
M  V30 2285 C 222.037 -5.47614 -1.70018 0
M  V30 2286 N 221.533 -6.65812 -1.91483 0
M  V30 2287 N 223.326 -5.35129 -1.72027 0
M  V30 2288 H 215.477 -2.0897 0.380186 0
M  V30 2289 H 217.74 -0.94185 0.107805 0
M  V30 2290 H 217.446 -3.51168 -0.193461 0
M  V30 2291 H 217.32 -3.24487 -1.92323 0
M  V30 2292 H 219.707 -2.25318 -1.90568 0
M  V30 2293 H 219.788 -2.55276 -0.16369 0
M  V30 2294 H 219.432 -5.04366 -0.598109 0
M  V30 2295 H 219.362 -4.71385 -2.34743 0
M  V30 2296 H 221.853 -3.54332 -1.31367 0
M  V30 2297 H 222.166 -7.43964 -2.09134 0
M  V30 2298 H 220.511 -6.68879 -1.88749 0
M  V30 2299 H 223.702 -4.41764 -1.54796 0
M  V30 2300 H 223.875 -6.19433 -1.9028 0
M  V30 2301 N 217.281 0.66697 -1.42791 0
M  V30 2302 C 218.191 1.80962 -1.49299 0
M  V30 2303 C 219.207 1.69775 -0.381108 0
M  V30 2304 O 220.383 1.91188 -0.633188 0
M  V30 2305 C 217.448 3.17156 -1.40045 0
M  V30 2306 C 216.509 3.40242 -2.6179 0
M  V30 2307 C 215.742 4.69939 -2.52969 0
M  V30 2308 O 215.965 5.48372 -1.56985 0
M  V30 2309 O 214.899 4.94441 -3.43237 0
M  V30 2310 H 218.725 1.78427 -2.45759 0
M  V30 2311 H 216.31 0.823713 -1.24641 0
M  V30 2312 H 218.192 3.98413 -1.37276 0
M  V30 2313 H 216.867 3.20312 -0.467138 0
M  V30 2314 H 215.774 2.58802 -2.70134 0
M  V30 2315 H 217.107 3.41923 -3.54047 0
M  V30 2316 N 218.759 1.29093 0.90403 0
M  V30 2317 C 220.005 1.16986 1.65656 0
M  V30 2318 C 220.338 -0.278925 1.92186 0
M  V30 2319 O 219.613 -1.2019 1.5292 0
M  V30 2320 C 219.896 1.97908 3.0084 0
M  V30 2321 C 219.749 3.50903 2.81403 0
M  V30 2322 C 221.068 1.80208 4.01513 0
M  V30 2323 H 218.187 0.426346 0.601164 0
M  V30 2324 H 220.829 1.58518 1.04747 0
M  V30 2325 H 218.979 1.62616 3.52829 0
M  V30 2326 H 220.651 3.96153 2.36348 0
M  V30 2327 H 218.894 3.76045 2.1627 0
M  V30 2328 H 219.565 4.02791 3.77443 0
M  V30 2329 H 222.041 2.11025 3.58619 0
M  V30 2330 H 220.917 2.39184 4.94047 0
M  V30 2331 H 221.178 0.756119 4.35586 0
M  V30 2332 N 220.237 -1.11381 1.11499 0
M  V30 2333 C 221.167 -2.19509 0.796125 0
M  V30 2334 C 222.148 -1.68458 -0.235796 0
M  V30 2335 O 223.333 -1.93947 -0.0991344 0
M  V30 2336 C 220.463 -3.46475 0.239205 0
M  V30 2337 C 219.417 -4.10744 1.20307 0
M  V30 2338 C 218.743 -5.32293 0.50683 0
M  V30 2339 C 220.043 -4.55597 2.55399 0
M  V30 2340 H 221.737 -2.46439 1.70024 0
M  V30 2341 H 219.283 -1.18446 0.818935 0
M  V30 2342 H 221.236 -4.214 0.00392006 0
M  V30 2343 H 219.96 -3.19006 -0.700206 0
M  V30 2344 H 218.619 -3.37813 1.42399 0
M  V30 2345 H 218.267 -5.01095 -0.437408 0
M  V30 2346 H 217.967 -5.76243 1.1497 0
M  V30 2347 H 219.491 -6.09956 0.280351 0
M  V30 2348 H 220.905 -5.21841 2.37391 0
M  V30 2349 H 219.302 -5.10363 3.15673 0
M  V30 2350 H 220.372 -3.69013 3.14575 0
M  V30 2351 N 221.715 -0.905404 -1.28997 0
M  V30 2352 C 222.992 -0.453513 -1.9027 0
M  V30 2353 C 223.372 1.06721 -1.82137 0
M  V30 2354 O 222.72 1.91159 -1.25182 0
M  V30 2355 C 222.93 -0.974494 -3.35119 0
M  V30 2356 C 224.278 -1.0216 -4.12127 0
M  V30 2357 O 225.302 -0.922557 -3.44046 0
M  V30 2358 O 224.161 -1.17121 -5.33802 0
M  V30 2359 H 221.255 -0.142347 -0.814657 0
M  V30 2360 H 223.801 -0.995642 -1.37423 0
M  V30 2361 H 222.573 -2.01848 -3.35221 0
M  V30 2362 H 222.196 -0.412706 -3.95452 0
M  V30 2363 N 223.193 1.4272 -0.668489 0
M  V30 2364 C 224.439 2.01923 -0.188419 0
M  V30 2365 C 224.772 1.52704 1.19979 0
M  V30 2366 O 224.047 0.726566 1.8042 0
M  V30 2367 C 224.33 3.59451 -0.216085 0
M  V30 2368 C 224.183 4.18864 -1.6393 0
M  V30 2369 C 225.502 4.37903 0.439179 0
M  V30 2370 H 222.621 0.733674 -0.0699412 0
M  V30 2371 H 225.263 1.69822 -0.852076 0
M  V30 2372 H 223.413 3.86929 0.349012 0
M  V30 2373 H 225.085 4.02362 -2.25616 0
M  V30 2374 H 223.328 3.74933 -2.18193 0
M  V30 2375 H 223.999 5.27987 -1.61039 0
M  V30 2376 H 226.475 4.16079 -0.0417878 0
M  V30 2377 H 225.351 5.47519 0.389157 0
M  V30 2378 H 225.612 4.15303 1.51577 0
M  V30 2379 N 224.671 0.411399 1.52136 0
M  V30 2380 C 225.634 -0.401089 2.25663 0
M  V30 2381 C 226.634 -0.971732 1.28117 0
M  V30 2382 O 227.824 -0.850254 1.52041 0
M  V30 2383 C 224.956 -1.56483 3.02863 0
M  V30 2384 H 226.149 0.24295 2.98914 0
M  V30 2385 H 223.702 0.163968 1.55438 0
M  V30 2386 H 224.437 -2.24567 2.33967 0
M  V30 2387 H 224.222 -1.16211 3.74483 0
M  V30 2388 H 225.712 -2.13951 3.58629 0
M  V30 2389 N 226.149 -1.5696 0.141893 0
M  V30 2390 C 227.112 -2.15316 -0.785587 0
M  V30 2391 C 228.112 -1.09366 -1.1788 0
M  V30 2392 O 229.302 -1.35031 -1.10056 0
M  V30 2393 C 226.434 -2.71211 -2.06537 0
M  V30 2394 H 227.627 -2.98608 -0.278041 0
M  V30 2395 H 225.18 -1.5593 -0.107519 0
M  V30 2396 H 225.915 -1.91571 -2.6167 0
M  V30 2397 H 225.7 -3.4872 -1.79268 0
M  V30 2398 H 227.19 -3.16189 -2.72789 0
M  V30 2399 N 227.627 0.131896 -1.57047 0
M  V30 2400 C 228.875 0.840269 -1.83804 0
M  V30 2401 C 229.196 1.81017 -0.72512 0
M  V30 2402 O 228.466 1.94272 0.251995 0
M  V30 2403 H 227.046 0.313294 -0.678127 0
M  V30 2404 H 229.708 0.122294 -1.94516 0
M  V30 2405 H 228.804 1.39335 -2.79271 0
M  V30 2406 N 229.106 1.52395 0.401703 0
M  V30 2407 C 230.039 1.70999 1.51111 0
M  V30 2408 C 231.017 0.55765 1.52738 0
M  V30 2409 O 232.201 0.785912 1.71335 0
M  V30 2410 C 229.328 1.75607 2.8962 0
M  V30 2411 C 228.374 2.97227 3.05873 0
M  V30 2412 S 229.207 4.57439 2.78405 0
M  V30 2413 C 230.363 4.64844 4.19131 0
M  V30 2414 H 230.596 2.6483 1.35102 0
M  V30 2415 H 228.129 1.42527 0.593762 0
M  V30 2416 H 230.087 1.78947 3.69443 0
M  V30 2417 H 228.748 0.828914 3.02965 0
M  V30 2418 H 227.941 2.96955 4.07227 0
M  V30 2419 H 227.543 2.91813 2.33925 0
M  V30 2420 H 229.835 4.42677 5.12877 0
M  V30 2421 H 230.778 5.66807 4.24424 0
M  V30 2422 H 231.186 3.93804 4.04448 0
M  V30 2423 N 230.584 -0.659388 1.43143 0
M  V30 2424 C 231.833 -1.41518 1.43721 0
M  V30 2425 C 232.146 -1.95499 0.0628176 0
M  V30 2426 O 233.352 -2.71446 -0.0539683 0
M  V30 2427 C 231.808 -2.5608 2.52885 0
M  V30 2428 C 231.416 -2.08733 3.96402 0
M  V30 2429 C 233.16 -3.3349 2.62649 0
M  V30 2430 C 231.067 -3.20469 4.97045 0
M  V30 2431 H 229.997 -0.531705 0.534608 0
M  V30 2432 H 232.648 -0.712343 1.69109 0
M  V30 2433 H 231.03 -3.28805 2.20688 0
M  V30 2434 H 232.204 -1.43059 4.3803 0
M  V30 2435 H 230.519 -1.44219 3.90627 0
M  V30 2436 H 233.116 -4.16734 3.35017 0
M  V30 2437 H 233.459 -3.8111 1.67513 0
M  V30 2438 H 233.992 -2.67842 2.94118 0
M  V30 2439 H 230.731 -2.77824 5.93712 0
M  V30 2440 H 230.251 -3.84874 4.60034 0
M  V30 2441 H 231.93 -3.85698 5.19467 0
M  V30 2442 N 232.062 -1.29571 -0.897171 0
M  V30 2443 C 233.009 -1.14916 -2.00158 0
M  V30 2444 C 233.979 -0.0418149 -1.66047 0
M  V30 2445 O 235.164 -0.209793 -1.89643 0
M  V30 2446 C 232.304 -0.834307 -3.34863 0
M  V30 2447 C 231.417 -2.02234 -3.8174 0
M  V30 2448 C 230.552 -1.64664 -5.05034 0
M  V30 2449 C 229.591 -2.80033 -5.44286 0
M  V30 2450 N 228.728 -2.42843 -6.58765 0
M  V30 2451 H 233.568 -2.09403 -2.12025 0
M  V30 2452 H 231.105 -1.042 -1.0383 0
M  V30 2453 H 233.063 -0.632436 -4.12379 0
M  V30 2454 H 231.693 0.0736656 -3.22716 0
M  V30 2455 H 230.745 -2.33583 -3.00238 0
M  V30 2456 H 232.057 -2.88673 -4.06779 0
M  V30 2457 H 231.211 -1.4078 -5.9014 0
M  V30 2458 H 229.95 -0.753766 -4.8184 0
M  V30 2459 H 228.955 -3.04596 -4.57713 0
M  V30 2460 H 230.18 -3.69989 -5.6946 0
M  V30 2461 H 228.126 -1.56046 -6.3717 0
M  V30 2462 H 228.043 -3.22815 -6.83613 0
M  V30 2463 H 229.311 -2.22285 -7.47134 0
M  V30 2464 N 233.54 1.10788 -1.12088 0
M  V30 2465 C 234.951 1.64181 -0.88891 0
M  V30 2466 C 235.302 1.87508 0.577498 0
M  V30 2467 O 234.427 1.61434 1.44112 0
M  V30 2468 C 235.022 2.98257 -1.60712 0
M  V30 2469 C 233.581 3.4853 -1.42139 0
M  V30 2470 C 232.728 2.23208 -1.6454 0
M  V30 2471 H 235.679 0.943368 -1.27618 0
M  V30 2472 H 235.7 3.65552 -1.05604 0
M  V30 2473 H 235.212 2.81246 -2.67436 0
M  V30 2474 H 233.313 3.70692 -0.376552 0
M  V30 2475 H 233.426 4.26882 -2.17505 0
M  V30 2476 H 231.79 2.31169 -1.06925 0
M  V30 2477 H 232.573 2.08733 -2.72554 0
M  V30 2478 N 235.018 0.912232 1.28515 0
M  V30 2479 C 236.266 0.543523 1.94654 0
M  V30 2480 C 236.587 -0.9155 1.72173 0
M  V30 2481 O 235.857 -1.64708 1.06058 0
M  V30 2482 H 234.437 0.198017 0.720277 0
M  V30 2483 H 237.099 1.16126 1.56527 0
M  V30 2484 H 236.195 0.736684 3.03281 0
M  V30 2485 N 236.496 -1.42363 0.676048 0
M  V30 2486 C 237.742 -2.0182 0.199125 0
M  V30 2487 C 238.075 -1.53339 -1.19168 0
M  V30 2488 O 237.35 -0.736124 -1.80032 0
M  V30 2489 C 237.633 -3.59331 0.235144 0
M  V30 2490 C 237.486 -4.17989 1.66149 0
M  V30 2491 C 238.805 -4.3813 -0.41595 0
M  V30 2492 H 235.924 -0.733293 0.0738311 0
M  V30 2493 H 238.566 -1.69368 0.86107 0
M  V30 2494 H 236.716 -3.87109 -0.328487 0
M  V30 2495 H 238.388 -4.0116 2.27747 0
M  V30 2496 H 236.631 -3.7377 2.20178 0
M  V30 2497 H 237.302 -5.27126 1.63837 0
M  V30 2498 H 239.778 -4.16051 0.0638529 0
M  V30 2499 H 238.654 -5.47717 -0.360115 0
M  V30 2500 H 238.915 -4.16101 -1.49373 0
M  V30 2501 N 237.974 -0.419461 -1.51915 0
M  V30 2502 C 239.202 0.152136 -2.0634 0
M  V30 2503 C 239.617 1.37988 -1.28859 0
M  V30 2504 O 238.974 1.79243 -0.343232 0
M  V30 2505 C 239.025 0.492266 -3.58133 0
M  V30 2506 O 238.746 -0.686736 -4.32684 0
M  V30 2507 C 240.247 1.11648 -4.2901 0
M  V30 2508 H 237.467 0.0158325 -0.670813 0
M  V30 2509 H 240.011 -0.593394 -1.95702 0
M  V30 2510 H 238.166 1.18769 -3.68745 0
M  V30 2511 H 238.58 -0.400341 -5.2297 0
M  V30 2512 H 240.054 1.3046 -5.36362 0
M  V30 2513 H 240.531 2.09251 -3.86148 0
M  V30 2514 H 241.137 0.460958 -4.22795 0
M  V30 2515 N 239.452 1.56882 -0.150215 0
M  V30 2516 C 240.68 2.00593 0.506948 0
M  V30 2517 C 241.095 1.03033 1.58208 0
M  V30 2518 O 240.452 0.0278396 1.82479 0
M  V30 2519 C 240.503 3.44209 1.10465 0
M  V30 2520 O 240.224 4.3804 0.0724636 0
M  V30 2521 C 241.725 4.03214 1.84211 0
M  V30 2522 H 238.945 0.65795 0.13169 0
M  V30 2523 H 241.489 2.03018 -0.245743 0
M  V30 2524 H 239.644 3.42625 1.80795 0
M  V30 2525 H 240.058 5.22007 0.510793 0
M  V30 2526 H 241.532 5.0569 2.21318 0
M  V30 2527 H 242.009 3.44107 2.72923 0
M  V30 2528 H 242.615 4.08437 1.18572 0
M  V30 2529 N 240.93 -0.123565 1.57115 0
M  V30 2530 C 241.84 -1.17074 2.033 0
M  V30 2531 C 242.856 -1.4561 0.952559 0
M  V30 2532 O 244.032 -1.56817 1.26374 0
M  V30 2533 C 241.097 -2.47857 2.42421 0
M  V30 2534 C 240.158 -2.26758 3.64526 0
M  V30 2535 C 239.391 -3.51305 4.01771 0
M  V30 2536 O 239.614 -4.5843 3.39409 0
M  V30 2537 O 238.548 -3.42578 4.94898 0
M  V30 2538 H 242.374 -0.808555 2.92739 0
M  V30 2539 H 239.959 -0.334027 1.45618 0
M  V30 2540 H 241.841 -3.2492 2.68338 0
M  V30 2541 H 240.516 -2.83558 1.5613 0
M  V30 2542 H 239.423 -1.47569 3.43765 0
M  V30 2543 H 240.756 -1.95963 4.51508 0
M  V30 2544 N 242.408 -1.52605 -0.393616 0
M  V30 2545 C 243.318 -1.79971 -1.50492 0
M  V30 2546 C 244.334 -0.686181 -1.59899 0
M  V30 2547 O 245.51 -0.973274 -1.76322 0
M  V30 2548 C 242.575 -1.95867 -2.86072 0
M  V30 2549 C 241.636 -3.19781 -2.86424 0
M  V30 2550 C 240.869 -3.34909 -4.15538 0
M  V30 2551 O 241.092 -2.54948 -5.10253 0
M  V30 2552 O 240.026 -4.28141 -4.23059 0
M  V30 2553 H 243.852 -2.74328 -1.30299 0
M  V30 2554 H 241.437 -1.3764 -0.581005 0
M  V30 2555 H 243.319 -2.08056 -3.66457 0
M  V30 2556 H 241.994 -1.04699 -3.063 0
M  V30 2557 H 240.901 -3.13038 -2.04837 0
M  V30 2558 H 242.234 -4.1078 -2.71147 0
M  V30 2559 N 243.887 0.651787 -1.4349 0
M  V30 2560 C 245.136 1.40754 -1.44469 0
M  V30 2561 C 245.449 1.95463 -0.0731845 0
M  V30 2562 O 246.655 2.71471 0.0395721 0
M  V30 2563 C 245.111 2.54735 -2.5424 0
M  V30 2564 C 244.719 2.06628 -3.97504 0
M  V30 2565 C 246.463 3.32092 -2.64414 0
M  V30 2566 C 244.37 3.17829 -4.98737 0
M  V30 2567 H 243.3 0.528862 -0.53742 0
M  V30 2568 H 245.951 0.703365 -1.69485 0
M  V30 2569 H 244.333 3.2763 -2.22428 0
M  V30 2570 H 245.507 1.40734 -4.38783 0
M  V30 2571 H 243.822 1.42146 -3.91387 0
M  V30 2572 H 246.419 4.14952 -3.37223 0
M  V30 2573 H 246.762 3.80217 -1.69532 0
M  V30 2574 H 247.295 2.66279 -2.95534 0
M  V30 2575 H 244.034 2.74671 -5.95177 0
M  V30 2576 H 243.554 3.82429 -4.62069 0
M  V30 2577 H 245.233 3.82937 -5.21505 0
M  V30 2578 N 245.365 1.30045 0.890287 0
M  V30 2579 C 246.642 1.09227 1.62262 0
M  V30 2580 C 247.022 -0.360305 2.08002 0
M  V30 2581 O 246.37 -1.35084 1.84295 0
M  V30 2582 C 246.58 2.08835 2.79623 0
M  V30 2583 C 247.928 2.40266 3.50082 0
M  V30 2584 O 248.952 2.07104 2.89804 0
M  V30 2585 O 247.811 2.96967 4.58773 0
M  V30 2586 H 244.905 0.419132 0.712922 0
M  V30 2587 H 247.451 1.41451 0.937529 0
M  V30 2588 H 246.223 3.06633 2.43089 0
M  V30 2589 H 245.846 1.77397 3.55832 0
M  V30 2590 N 246.843 -1.10192 1.12674 0
M  V30 2591 C 247.793 -2.14754 0.765801 0
M  V30 2592 C 248.777 -1.59154 -0.236409 0
M  V30 2593 O 249.969 -1.76951 -0.0415261 0
M  V30 2594 C 247.098 -3.42563 0.224827 0
M  V30 2595 C 246.184 -4.05091 1.25548 0
M  V30 2596 N 246.575 -4.42287 2.4539 0
M  V30 2597 C 244.873 -4.32186 1.10142 0
M  V30 2598 C 245.574 -4.91441 3.11224 0
M  V30 2599 N 244.55 -4.88405 2.38666 0
M  V30 2600 H 248.352 -2.41309 1.67772 0
M  V30 2601 H 245.866 -1.27339 1.00789 0
M  V30 2602 H 247.863 -4.16868 -0.0519578 0
M  V30 2603 H 246.523 -3.17467 -0.681515 0
M  V30 2604 H 247.534 -4.33902 2.82754 0
M  V30 2605 H 244.211 -4.16735 0.252587 0
M  V30 2606 H 245.601 -5.29749 4.13298 0
M  V30 2607 N 248.321 -0.919034 -1.28029 0
M  V30 2608 C 249.284 -0.416182 -2.2539 0
M  V30 2609 C 250.284 0.460438 -1.54067 0
M  V30 2610 O 251.474 0.262744 -1.72207 0
M  V30 2611 C 248.606 0.402707 -3.38513 0
M  V30 2612 H 249.799 -1.27629 -2.71387 0
M  V30 2613 H 247.352 -0.698919 -1.39803 0
M  V30 2614 H 248.087 1.282 -2.97885 0
M  V30 2615 H 247.872 -0.225698 -3.9145 0
M  V30 2616 H 249.362 0.745191 -4.10897 0
M  V30 2617 N 249.799 1.42003 -0.683588 0
M  V30 2618 C 251.045 2.01712 -0.209825 0
M  V30 2619 C 251.378 1.53968 1.18353 0
M  V30 2620 O 250.653 0.745661 1.79639 0
M  V30 2621 C 250.936 3.59202 -0.254197 0
M  V30 2622 C 250.789 4.17102 -1.68363 0
M  V30 2623 C 252.108 4.38344 0.392709 0
M  V30 2624 H 249.227 0.732891 -0.0777189 0
M  V30 2625 H 251.869 1.68909 -0.87004 0
M  V30 2626 H 250.019 3.87278 0.307954 0
M  V30 2627 H 251.691 3.99946 -2.29871 0
M  V30 2628 H 249.934 3.72597 -2.22157 0
M  V30 2629 H 250.605 5.26249 -1.6663 0
M  V30 2630 H 253.081 4.16011 -0.0859162 0
M  V30 2631 H 251.957 5.47901 0.331063 0
M  V30 2632 H 252.218 4.16887 1.47164 0
M  V30 2633 N 251.277 0.427512 1.51691 0
M  V30 2634 C 252.227 -0.406604 2.24345 0
M  V30 2635 C 253.211 -0.998276 1.26187 0
M  V30 2636 O 254.403 -0.918045 1.51331 0
M  V30 2637 C 251.532 -1.51266 3.08177 0
M  V30 2638 C 250.618 -0.930868 4.13758 0
M  V30 2639 N 251.009 -0.0773552 5.05741 0
M  V30 2640 C 249.307 -1.19948 4.29568 0
M  V30 2641 C 250.008 0.248344 5.8117 0
M  V30 2642 N 248.984 -0.365535 5.4237 0
M  V30 2643 H 252.786 0.251581 2.92821 0
M  V30 2644 H 250.3 0.239003 1.60632 0
M  V30 2645 H 252.297 -2.123 3.58796 0
M  V30 2646 H 250.957 -2.17328 2.41244 0
M  V30 2647 H 251.968 0.288351 5.17097 0
M  V30 2648 H 248.645 -1.85832 3.73862 0
M  V30 2649 H 250.035 0.942286 6.6526 0
M  V30 2650 N 252.755 -1.56801 0.158532 0
M  V30 2651 C 253.685 -2.20347 -0.772609 0
M  V30 2652 C 254.666 -1.15518 -1.24859 0
M  V30 2653 O 255.851 -1.43902 -1.30406 0
M  V30 2654 C 252.981 -2.83417 -2.00729 0
M  V30 2655 C 251.935 -3.94174 -1.66765 0
M  V30 2656 C 251.261 -4.44233 -2.97592 0
M  V30 2657 C 252.561 -5.14392 -0.905447 0
M  V30 2658 H 254.255 -2.98413 -0.242959 0
M  V30 2659 H 251.801 -1.43537 -0.115419 0
M  V30 2660 H 253.754 -3.26543 -2.6636 0
M  V30 2661 H 252.478 -2.02701 -2.56086 0
M  V30 2662 H 251.137 -3.51684 -1.03508 0
M  V30 2663 H 250.785 -3.60325 -3.50963 0
M  V30 2664 H 250.485 -5.18945 -2.75626 0
M  V30 2665 H 252.009 -4.90037 -3.64274 0
M  V30 2666 H 253.423 -5.5429 -1.46408 0
M  V30 2667 H 251.82 -5.9494 -0.7853 0
M  V30 2668 H 252.89 -4.84795 0.100668 0
M  V30 2669 N 254.233 0.115231 -1.57178 0
M  V30 2670 C 255.196 1.12526 -1.99676 0
M  V30 2671 C 256.196 1.34095 -0.88742 0
M  V30 2672 O 257.386 1.30548 -1.15337 0
M  V30 2673 C 254.518 2.4789 -2.34015 0
M  V30 2674 H 255.711 0.759912 -2.90113 0
M  V30 2675 H 253.264 0.359648 -1.52106 0
M  V30 2676 H 253.999 2.89339 -1.4647 0
M  V30 2677 H 253.784 2.33588 -3.14927 0
M  V30 2678 H 255.274 3.20575 -2.67622 0
M  V30 2679 N 255.711 1.52812 0.385517 0
M  V30 2680 C 256.951 1.69716 1.13911 0
M  V30 2681 C 257.315 0.42962 1.87132 0
M  V30 2682 O 258.516 0.475071 2.64569 0
M  V30 2683 C 256.787 2.90021 2.0886 0
M  V30 2684 S 258.346 3.27531 2.92009 0
M  V30 2685 H 255.164 0.59739 0.385547 0
M  V30 2686 H 257.766 1.90868 0.423061 0
M  V30 2687 H 256.47 3.80493 1.53797 0
M  V30 2688 H 256.001 2.71213 2.84969 0
M  V30 2689 H 258.016 2.77989 4.11019 0
M  V30 2690 N 257.189 -0.644168 1.43834 0
M  V30 2691 C 258.438 -1.39985 1.45214 0
M  V30 2692 C 258.751 -1.95421 0.0835494 0
M  V30 2693 O 259.957 -2.71488 -0.0251748 0
M  V30 2694 C 258.413 -2.53384 2.55587 0
M  V30 2695 C 258.021 -2.04517 3.98594 0
M  V30 2696 C 259.765 -3.30685 2.66172 0
M  V30 2697 C 257.672 -3.1518 5.00416 0
M  V30 2698 H 256.602 -0.526005 0.540218 0
M  V30 2699 H 259.253 -0.694367 1.69855 0
M  V30 2700 H 257.635 -3.26446 2.24163 0
M  V30 2701 H 258.809 -1.38405 4.39523 0
M  V30 2702 H 257.124 -1.40068 3.92135 0
M  V30 2703 H 259.721 -4.13158 3.39418 0
M  V30 2704 H 260.064 -3.79312 1.71546 0
M  V30 2705 H 260.597 -2.64708 2.96942 0
M  V30 2706 H 257.336 -2.71511 5.96625 0
M  V30 2707 H 256.856 -3.79974 4.64091 0
M  V30 2708 H 258.535 -3.80166 5.23529 0
M  V30 2709 N 258.668 -1.30515 -0.883378 0
M  V30 2710 C 259.631 -1.1701 -1.97082 0
M  V30 2711 C 260.631 -0.10089 -1.60483 0
M  V30 2712 O 261.821 -0.349127 -1.70666 0
M  V30 2713 C 258.953 -0.793045 -3.31547 0
M  V30 2714 H 260.146 -2.13622 -2.10489 0
M  V30 2715 H 257.699 -1.13935 -1.06998 0
M  V30 2716 H 258.434 0.172499 -3.23841 0
M  V30 2717 H 258.219 -1.56576 -3.5948 0
M  V30 2718 H 259.709 -0.722073 -4.1131 0
M  V30 2719 N 260.146 1.09593 -1.13257 0
M  V30 2720 C 261.562 1.33775 -0.870423 0
M  V30 2721 C 261.762 1.95327 0.494926 0
M  V30 2722 O 260.818 2.19853 1.2418 0
M  V30 2723 C 262.131 2.25106 -1.99369 0
M  V30 2724 C 263.679 2.3862 -2.02558 0
M  V30 2725 C 264.154 3.33285 -3.14142 0
M  V30 2726 N 265.645 3.40857 -3.13641 0
M  V30 2727 C 266.38 4.14101 -3.96621 0
M  V30 2728 N 265.876 4.90157 -4.8961 0
M  V30 2729 N 267.669 4.09808 -3.84726 0
M  V30 2730 H 259.82 0.680136 -2.01216 0
M  V30 2731 H 262.083 0.362133 -0.876107 0
M  V30 2732 H 261.789 1.87103 -2.97801 0
M  V30 2733 H 261.663 3.25481 -1.90635 0
M  V30 2734 H 264.05 2.75887 -1.0474 0
M  V30 2735 H 264.131 1.38028 -2.15364 0
M  V30 2736 H 263.775 2.96741 -4.12198 0
M  V30 2737 H 263.705 4.33776 -2.98574 0
M  V30 2738 H 266.196 2.86624 -2.46282 0
M  V30 2739 H 266.509 5.4347 -5.49418 0
M  V30 2740 H 264.854 4.89251 -4.93617 0
M  V30 2741 H 268.045 3.4949 -3.11408 0
M  V30 2742 H 268.218 4.66629 -4.49623 0
M  V30 2743 N 261.624 0.925811 1.2754 0
M  V30 2744 C 262.572 0.413897 2.28888 0
M  V30 2745 C 263.566 -0.500779 1.61829 0
M  V30 2746 O 264.772 -0.38069 1.75928 0
M  V30 2747 H 261.147 0.115274 0.743112 0
M  V30 2748 H 263.118 1.28151 2.69481 0
M  V30 2749 C 261.867 -0.319792 3.46226 0
M  V30 2750 H 261.19 0.374846 3.98039 0
M  V30 2751 H 262.63 -0.642435 4.19105 0
M  V30 2752 C 261.089 -1.53209 3.00048 0
M  V30 2753 O 261.619 -2.6309 3.03557 0
M  V30 2754 N 259.825 -1.38326 2.55566 0
M  V30 2755 H 259.372 -0.489292 2.5291 0
M  V30 2756 H 259.33 -2.19564 2.25031 0
M  V30 2757 N 263.102 -1.41638 0.69111 0
M  V30 2758 C 264.342 -2.03166 0.224291 0
M  V30 2759 C 264.706 -1.53537 -1.15284 0
M  V30 2760 O 265.907 -2.0696 -1.71525 0
M  V30 2761 C 264.178 -3.56342 0.274758 0
M  V30 2762 S 265.737 -4.3864 -0.118669 0
M  V30 2763 H 262.555 -0.705188 0.0907263 0
M  V30 2764 H 265.157 -1.7314 0.907895 0
M  V30 2765 H 263.861 -3.89958 1.2791 0
M  V30 2766 H 263.392 -3.91063 -0.428142 0
M  V30 2767 H 265.407 -4.77549 -1.34764 0
M  V30 2768 N 264.58 -0.43555 -1.51462 0
M  V30 2769 C 265.81 0.130053 -2.0619 0
M  V30 2770 C 266.218 1.37164 -1.30317 0
M  V30 2771 O 265.561 1.80225 -0.355598 0
M  V30 2772 C 265.623 0.519418 -3.55728 0
M  V30 2773 C 265.287 -0.615119 -4.52841 0
M  V30 2774 C 266.284 -1.48671 -4.9819 0
M  V30 2775 C 263.969 -0.795341 -4.95963 0
M  V30 2776 C 265.963 -2.52324 -5.8533 0
M  V30 2777 C 263.65 -1.83514 -5.82894 0
M  V30 2778 C 264.648 -2.69748 -6.27475 0
M  V30 2779 O 264.336 -3.71944 -7.1268 0
M  V30 2780 H 264.068 0.0121612 -0.675891 0
M  V30 2781 H 266.622 -0.6129 -1.96043 0
M  V30 2782 H 264.852 1.31505 -3.63653 0
M  V30 2783 H 266.541 1.01597 -3.92979 0
M  V30 2784 H 267.307 -1.359 -4.65571 0
M  V30 2785 H 263.186 -0.133713 -4.60806 0
M  V30 2786 H 266.73 -3.19665 -6.20048 0
M  V30 2787 H 262.627 -1.96306 -6.14926 0
M  V30 2788 H 263.395 -3.68503 -7.30854 0
M  V30 2789 N 266.058 1.56714 -0.166846 0
M  V30 2790 C 267.469 1.83378 0.350646 0
M  V30 2791 C 267.82 1.08646 1.63372 0
M  V30 2792 O 266.945 0.338058 2.13743 0
M  V30 2793 C 267.54 3.32643 0.642963 0
M  V30 2794 C 266.099 3.59818 1.10491 0
M  V30 2795 C 265.246 2.76954 0.138411 0
M  V30 2796 H 268.197 1.53803 -0.391193 0
M  V30 2797 H 268.218 3.49878 1.49551 0
M  V30 2798 H 267.73 3.87007 -0.291055 0
M  V30 2799 H 265.831 3.1086 2.05418 0
M  V30 2800 H 265.944 4.68178 1.01716 0
M  V30 2801 H 264.308 2.4666 0.634911 0
M  V30 2802 H 265.091 3.34097 -0.789549 0
M  V30 2803 N 267.536 -0.106894 1.57237 0
M  V30 2804 C 268.761 -0.830287 1.90055 0
M  V30 2805 C 269.186 -1.72064 0.75998 0
M  V30 2806 O 268.544 -1.78982 -0.288991 0
M  V30 2807 C 268.592 -1.6295 3.21683 0
M  V30 2808 O 267.696 -2.73748 3.08441 0
M  V30 2809 H 267.037 -0.228855 0.623315 0
M  V30 2810 H 269.567 -0.085658 2.04421 0
M  V30 2811 H 269.577 -2.01621 3.54701 0
M  V30 2812 H 268.252 -0.975989 4.04286 0
M  V30 2813 H 266.829 -2.38192 2.86913 0
M  V30 2814 N 269.014 -1.53014 -0.377408 0
M  V30 2815 C 270.425 -1.60438 -0.954798 0
M  V30 2816 C 270.776 -0.464418 -1.90624 0
M  V30 2817 O 269.901 0.41087 -2.12464 0
M  V30 2818 C 270.496 -2.90797 -1.73847 0
M  V30 2819 C 269.055 -3.00595 -2.26538 0
M  V30 2820 C 268.202 -2.55645 -1.07429 0
M  V30 2821 H 271.153 -1.57926 -0.156575 0
M  V30 2822 H 271.174 -2.77935 -2.5987 0
M  V30 2823 H 270.686 -3.73746 -1.04574 0
M  V30 2824 H 268.787 -2.22208 -2.99089 0
M  V30 2825 H 268.9 -4.05456 -2.5523 0
M  V30 2826 H 267.264 -2.10239 -1.43777 0
M  V30 2827 H 268.047 -3.41 -0.396728 0
M  V30 2828 N 270.492 0.636531 -1.44174 0
M  V30 2829 C 271.422 1.76003 -1.53444 0
M  V30 2830 C 272.403 1.65619 -0.387841 0
M  V30 2831 O 273.588 1.84461 -0.607257 0
M  V30 2832 C 270.718 3.14511 -1.4731 0
M  V30 2833 C 269.672 3.39677 -2.60391 0
M  V30 2834 C 268.998 4.78159 -2.39308 0
M  V30 2835 C 270.298 3.32772 -4.02567 0
M  V30 2836 H 271.992 1.68501 -2.47483 0
M  V30 2837 H 269.538 0.809237 -1.19111 0
M  V30 2838 H 271.491 3.92878 -1.52397 0
M  V30 2839 H 270.215 3.22783 -0.49785 0
M  V30 2840 H 268.874 2.63688 -2.54684 0
M  V30 2841 H 268.522 4.83128 -1.39988 0
M  V30 2842 H 268.222 4.95956 -3.15122 0
M  V30 2843 H 269.746 5.58762 -2.46205 0
M  V30 2844 H 271.16 4.01051 -4.09672 0
M  V30 2845 H 269.557 3.62104 -4.7854 0
M  V30 2846 H 270.627 2.30669 -4.2652 0
M  V30 2847 N 271.97 1.30982 0.876444 0
M  V30 2848 C 272.918 1.18006 2.00443 0
M  V30 2849 C 273.912 0.0898871 1.69161 0
M  V30 2850 O 275.118 0.251333 1.78237 0
M  V30 2851 H 271.493 0.365196 0.65737 0
M  V30 2852 H 273.464 2.13453 2.0852 0
M  V30 2853 C 272.213 0.897521 3.35916 0
M  V30 2854 H 271.536 1.7285 3.60504 0
M  V30 2855 H 272.976 0.846874 4.15456 0
M  V30 2856 C 271.435 -0.399674 3.34521 0
M  V30 2857 O 271.965 -1.41852 3.7582 0
M  V30 2858 N 270.171 -0.413893 2.87637 0
M  V30 2859 H 269.718 0.41571 2.54224 0
M  V30 2860 H 269.676 -1.28175 2.87086 0
M  V30 2861 N 273.449 -1.08991 1.13837 0
M  V30 2862 C 274.679 -1.84743 0.924859 0
M  V30 2863 C 275.087 -1.81629 -0.529874 0
M  V30 2864 O 274.43 -1.21397 -1.37872 0
M  V30 2865 C 274.492 -3.33568 1.34061 0
M  V30 2866 C 274.156 -3.60425 2.80968 0
M  V30 2867 C 275.153 -3.55771 3.79108 0
M  V30 2868 C 272.838 -3.88627 3.18236 0
M  V30 2869 C 274.832 -3.78939 5.12527 0
M  V30 2870 C 272.519 -4.11449 4.51833 0
M  V30 2871 C 273.517 -4.06598 5.48787 0
M  V30 2872 O 273.205 -4.28826 6.79973 0
M  V30 2873 H 272.937 -0.590258 0.329502 0
M  V30 2874 H 275.491 -1.38598 1.51591 0
M  V30 2875 H 273.721 -3.80442 0.692853 0
M  V30 2876 H 275.41 -3.90743 1.09886 0
M  V30 2877 H 276.176 -3.34005 3.51661 0
M  V30 2878 H 272.055 -3.91526 2.43369 0
M  V30 2879 H 275.599 -3.75068 5.88192 0
M  V30 2880 H 271.496 -4.32698 4.79002 0
M  V30 2881 H 272.264 -4.46264 6.86142 0
M  V30 2882 N 274.927 -0.932562 -1.27047 0
M  V30 2883 C 276.157 -0.591173 -1.97961 0
M  V30 2884 C 276.565 0.836219 -1.69717 0
M  V30 2885 O 275.908 1.56801 -0.957036 0
M  V30 2886 C 275.97 -0.743082 -3.51736 0
M  V30 2887 C 275.634 -2.1435 -4.03613 0
M  V30 2888 C 276.631 -3.11815 -4.16014 0
M  V30 2889 C 274.316 -2.46175 -4.37839 0
M  V30 2890 C 276.31 -4.39211 -4.61923 0
M  V30 2891 C 273.997 -3.73806 -4.83438 0
M  V30 2892 C 274.995 -4.70137 -4.95439 0
M  V30 2893 O 274.683 -5.95496 -5.40037 0
M  V30 2894 H 274.415 -0.222375 -0.638377 0
M  V30 2895 H 276.969 -1.25317 -1.62742 0
M  V30 2896 H 275.199 -0.0239739 -3.86693 0
M  V30 2897 H 276.888 -0.40603 -4.03864 0
M  V30 2898 H 277.654 -2.88549 -3.89826 0
M  V30 2899 H 273.533 -1.71936 -4.27737 0
M  V30 2900 H 277.077 -5.14404 -4.71205 0
M  V30 2901 H 272.974 -3.96888 -5.09068 0
M  V30 2902 H 273.742 -5.98554 -5.58279 0
M  V30 2903 N 276.405 1.4127 -0.698611 0
M  V30 2904 C 277.353 2.32588 -0.023855 0
M  V30 2905 C 278.347 1.51128 0.765292 0
M  V30 2906 O 279.553 1.67043 0.670571 0
M  V30 2907 H 275.928 0.751918 0.0110871 0
M  V30 2908 H 277.899 2.87167 -0.811031 0
M  V30 2909 C 276.648 3.35947 0.896369 0
M  V30 2910 H 275.971 3.98684 0.298548 0
M  V30 2911 H 277.411 4.02376 1.33676 0
M  V30 2912 C 275.87 2.70076 2.01396 0
M  V30 2913 O 276.4 2.55093 3.10307 0
M  V30 2914 N 274.606 2.28724 1.79259 0
M  V30 2915 H 274.153 2.4111 0.906841 0
M  V30 2916 H 274.111 1.84986 2.54219 0
M  V30 2917 N 277.883 0.443576 1.51229 0
M  V30 2918 C 279.13 -0.120796 2.02139 0
M  V30 2919 C 279.458 -1.42166 1.32736 0
M  V30 2920 O 278.713 -1.90849 0.43301 0
M  V30 2921 C 279.012 -0.380579 3.55368 0
M  V30 2922 C 278.678 0.83523 4.43097 0
M  V30 2923 C 277.34 1.16864 4.66794 0
M  V30 2924 C 279.692 1.64601 4.94526 0
M  V30 2925 C 277.02 2.31339 5.39165 0
M  V30 2926 C 279.372 2.78181 5.68153 0
M  V30 2927 C 278.036 3.11969 5.90112 0
M  V30 2928 H 277.306 -0.0442023 0.73968 0
M  V30 2929 H 279.953 0.592046 1.82118 0
M  V30 2930 H 278.258 -1.17538 3.73754 0
M  V30 2931 H 279.955 -0.830777 3.923 0
M  V30 2932 H 276.545 0.565437 4.24854 0
M  V30 2933 H 280.729 1.40163 4.76097 0
M  V30 2934 H 275.985 2.57823 5.5438 0
M  V30 2935 H 280.159 3.41371 6.06992 0
M  V30 2936 H 277.786 4.00784 6.45969 0
M  V30 2937 N 279.361 -1.56624 0.175154 0
M  V30 2938 C 280.772 -1.83561 -0.340916 0
M  V30 2939 C 281.123 -1.09511 -1.62794 0
M  V30 2940 O 280.248 -0.349389 -2.13561 0
M  V30 2941 C 280.843 -3.32979 -0.625313 0
M  V30 2942 C 279.402 -3.60399 -1.08581 0
M  V30 2943 C 278.549 -2.77024 -0.123722 0
M  V30 2944 H 281.5 -1.53593 0.399344 0
M  V30 2945 H 281.521 -3.50666 -1.47694 0
M  V30 2946 H 281.033 -3.86847 0.311575 0
M  V30 2947 H 279.134 -3.11945 -2.03767 0
M  V30 2948 H 279.247 -4.68711 -0.992317 0
M  V30 2949 H 277.611 -2.46993 -0.621821 0
M  V30 2950 H 278.394 -3.33674 0.807256 0
M  V30 2951 N 280.839 0.0985539 -1.57292 0
M  V30 2952 C 281.786 1.11981 -2.01814 0
M  V30 2953 C 282.756 1.39999 -0.89384 0
M  V30 2954 O 283.941 1.5152 -1.15958 0
M  V30 2955 C 281.081 2.43577 -2.44467 0
M  V30 2956 C 280.194 2.2232 -3.70402 0
M  V30 2957 C 279.329 3.4729 -4.01949 0
M  V30 2958 C 278.368 3.2128 -5.21005 0
M  V30 2959 N 277.505 4.38507 -5.48321 0
M  V30 2960 H 282.345 0.733149 -2.88841 0
M  V30 2961 H 279.882 0.350482 -1.42864 0
M  V30 2962 H 281.84 3.20373 -2.6724 0
M  V30 2963 H 280.47 2.80097 -1.60455 0
M  V30 2964 H 279.522 1.36343 -3.55126 0
M  V30 2965 H 280.834 1.99089 -4.57345 0
M  V30 2966 H 279.988 4.32495 -4.25479 0
M  V30 2967 H 278.727 3.73572 -3.13521 0
M  V30 2968 H 277.732 2.34468 -4.97298 0
M  V30 2969 H 278.957 2.96348 -6.11028 0
M  V30 2970 H 276.903 4.64871 -4.62851 0
M  V30 2971 H 276.82 4.18455 -6.29628 0
M  V30 2972 H 278.088 5.24787 -5.76385 0
M  V30 2973 N 282.317 1.53212 0.369288 0
M  V30 2974 C 283.542 1.73423 1.1375 0
M  V30 2975 C 283.967 0.460404 1.82378 0
M  V30 2976 O 283.325 -0.585298 1.71592 0
M  V30 2977 C 283.373 2.89769 2.1463 0
M  V30 2978 O 282.477 2.58119 3.21634 0
M  V30 2979 H 281.818 0.576061 0.330227 0
M  V30 2980 H 284.348 2.00083 0.427547 0
M  V30 2981 H 284.358 3.15829 2.58294 0
M  V30 2982 H 283.033 3.8217 1.64071 0
M  V30 2983 H 281.61 2.42864 2.82969 0
M  V30 2984 N 283.795 -0.628877 1.44509 0
M  V30 2985 C 285.035 -1.39993 1.48934 0
M  V30 2986 C 285.399 -1.91627 0.119604 0
M  V30 2987 O 286.6 -2.68772 0.0385283 0
M  V30 2988 C 284.871 -2.53241 2.52198 0
M  V30 2989 S 286.43 -3.41383 2.75687 0
M  V30 2990 H 283.248 -0.477558 0.526744 0
M  V30 2991 H 285.85 -0.727804 1.81448 0
M  V30 2992 H 284.554 -2.13622 3.50419 0
M  V30 2993 H 284.085 -3.25278 2.21264 0
M  V30 2994 H 286.1 -4.50752 2.07453 0
M  V30 2995 N 285.273 -1.31445 -0.869486 0
M  V30 2996 C 286.513 -1.22458 -1.63656 0
M  V30 2997 C 286.877 0.213846 -1.90805 0
M  V30 2998 O 288.078 0.427212 -2.65383 0
M  V30 2999 C 286.349 -2.04564 -2.93067 0
M  V30 3000 S 287.908 -2.12445 -3.83944 0
M  V30 3001 H 284.726 -0.436145 -0.561514 0
M  V30 3002 H 287.328 -1.66114 -1.03085 0
M  V30 3003 H 286.032 -3.0816 -2.71045 0
M  V30 3004 H 285.563 -1.6163 -3.58663 0
M  V30 3005 H 287.578 -1.26312 -4.79854 0
M  V30 3006 N 286.751 1.08385 -1.14413 0
M  V30 3007 C 287.979 1.84517 -0.936001 0
M  V30 3008 C 288.394 1.81626 0.515503 0
M  V30 3009 O 287.751 1.22008 1.35721 0
M  V30 3010 C 287.802 3.32049 -1.42918 0
M  V30 3011 O 287.523 3.34951 -2.82381 0
M  V30 3012 C 289.024 4.24986 -1.26103 0
M  V30 3013 H 286.244 0.582491 -0.333084 0
M  V30 3014 H 288.788 1.36885 -1.5193 0
M  V30 3015 H 286.943 3.7707 -0.888641 0
M  V30 3016 H 287.357 4.27048 -3.04517 0
M  V30 3017 H 288.831 5.26615 -1.6547 0
M  V30 3018 H 289.308 4.38726 -0.20392 0
M  V30 3019 H 289.914 3.85791 -1.79012 0
M  V30 3020 N 288.23 0.939286 1.26551 0
M  V30 3021 C 289.455 0.602008 1.98471 0
M  V30 3022 C 289.88 -0.815624 1.69497 0
M  V30 3023 O 289.238 -1.54912 0.941905 0
M  V30 3024 C 289.286 0.848407 3.50477 0
M  V30 3025 O 288.39 -0.0804009 4.12322 0
M  V30 3026 H 287.731 0.23049 0.622712 0
M  V30 3027 H 290.261 1.2617 1.61066 0
M  V30 3028 H 290.271 0.768553 4.00696 0
M  V30 3029 H 288.946 1.88171 3.70897 0
M  V30 3030 H 287.523 0.0503508 3.72866 0
M  V30 3031 N 289.708 -1.40897 0.706093 0
M  V30 3032 C 290.954 -2.01352 0.241889 0
M  V30 3033 C 291.287 -1.55832 -1.15888 0
M  V30 3034 O 290.562 -0.774145 -1.7843 0
M  V30 3035 C 290.845 -3.58752 0.311311 0
M  V30 3036 C 290.698 -4.1437 1.74978 0
M  V30 3037 C 292.017 -4.38914 -0.322922 0
M  V30 3038 H 289.136 -0.731562 0.0893687 0
M  V30 3039 H 291.778 -1.67504 0.896802 0
M  V30 3040 H 289.928 -3.87718 -0.246302 0
M  V30 3041 H 291.6 -3.96239 2.36205 0
M  V30 3042 H 289.843 -3.69016 2.28057 0
M  V30 3043 H 290.514 -5.23532 1.74981 0
M  V30 3044 H 292.99 -4.15822 0.152089 0
M  V30 3045 H 291.866 -5.48358 -0.243855 0
M  V30 3046 H 292.127 -4.19176 -1.40513 0
M  V30 3047 N 291.186 -0.45159 -1.50991 0
M  V30 3048 C 292.134 0.366864 -2.29689 0
M  V30 3049 C 293.128 1.00809 -1.36139 0
M  V30 3050 O 294.334 0.941427 -1.53418 0
M  V30 3051 H 290.709 0.137133 -0.739391 0
M  V30 3052 H 292.68 -0.317538 -2.96706 0
M  V30 3053 C 291.429 1.44751 -3.16137 0
M  V30 3054 H 290.752 0.963473 -3.88017 0
M  V30 3055 H 292.192 1.99315 -3.74232 0
M  V30 3056 C 290.651 2.43869 -2.32442 0
M  V30 3057 O 291.181 3.4872 -1.99392 0
M  V30 3058 N 289.387 2.15105 -1.95392 0
M  V30 3059 H 288.934 1.29866 -2.22469 0
M  V30 3060 H 288.892 2.81661 -1.39693 0
M  V30 3061 N 292.664 1.56529 -0.183458 0
M  V30 3062 C 293.574 2.22144 0.754272 0
M  V30 3063 C 294.59 1.21684 1.24374 0
M  V30 3064 O 295.766 1.54385 1.29333 0
M  V30 3065 C 292.831 2.85884 1.96141 0
M  V30 3066 C 291.892 4.01579 1.51765 0
M  V30 3067 C 291.125 4.6227 2.66725 0
M  V30 3068 O 291.348 4.21865 3.83909 0
M  V30 3069 O 290.282 5.51936 2.40104 0
M  V30 3070 H 294.108 3.02861 0.225527 0
M  V30 3071 H 291.693 1.49331 0.0453032 0
M  V30 3072 H 293.575 3.26253 2.66715 0
M  V30 3073 H 292.25 2.08154 2.47899 0
M  V30 3074 H 291.157 3.65856 0.781049 0
M  V30 3075 H 292.49 4.80938 1.04686 0
M  V30 3076 N 294.142 -0.090211 1.57342 0
M  V30 3077 C 295.388 -0.793982 1.86611 0
M  V30 3078 C 295.721 -1.78142 0.773252 0
M  V30 3079 O 294.996 -1.93271 -0.218304 0
M  V30 3080 C 295.279 -1.51839 3.26523 0
M  V30 3081 C 295.132 -0.548609 4.46442 0
M  V30 3082 C 296.451 -2.46779 3.64401 0
M  V30 3083 H 293.57 -0.287186 0.678744 0
M  V30 3084 H 296.212 -0.0575076 1.89913 0
M  V30 3085 H 294.362 -2.14617 3.23839 0
M  V30 3086 H 296.034 0.0725513 4.61243 0
M  V30 3087 H 294.277 0.137614 4.33582 0
M  V30 3088 H 294.948 -1.09271 5.41076 0
M  V30 3089 H 297.424 -1.94089 3.68061 0
M  V30 3090 H 296.3 -2.94479 4.63221 0
M  V30 3091 H 296.561 -3.30758 2.93346 0
M  V30 3092 N 295.62 -1.53406 -0.361157 0
M  V30 3093 C 296.869 -1.69022 -1.10066 0
M  V30 3094 C 297.182 -0.450838 -1.90333 0
M  V30 3095 O 298.388 -0.487617 -2.67085 0
M  V30 3096 C 296.844 -2.98812 -2.00598 0
M  V30 3097 C 296.452 -4.30027 -1.25621 0
M  V30 3098 C 298.196 -3.23795 -2.74513 0
M  V30 3099 C 296.103 -5.50903 -2.1508 0
M  V30 3100 H 295.033 -0.629776 -0.414606 0
M  V30 3101 H 297.684 -1.79907 -0.361348 0
M  V30 3102 H 296.066 -2.8174 -2.78278 0
M  V30 3103 H 297.24 -4.57745 -0.529739 0
M  V30 3104 H 295.555 -4.11522 -0.635496 0
M  V30 3105 H 298.152 -4.11289 -3.41681 0
M  V30 3106 H 298.495 -2.40045 -3.40123 0
M  V30 3107 H 299.028 -3.41561 -2.03914 0
M  V30 3108 H 295.767 -6.37143 -1.54041 0
M  V30 3109 H 295.287 -5.27459 -2.85565 0
M  V30 3110 H 296.966 -5.85865 -2.74538 0
M  V30 3111 N 297.098 0.621204 -1.44841 0
M  V30 3112 C 298.338 1.39201 -1.49674 0
M  V30 3113 C 298.702 1.91561 -0.129764 0
M  V30 3114 O 299.903 2.68748 -0.0527814 0
M  V30 3115 C 298.174 2.519 -2.53537 0
M  V30 3116 S 299.733 3.39916 -2.77494 0
M  V30 3117 H 296.551 0.474758 -0.529269 0
M  V30 3118 H 299.153 0.718171 -1.81831 0
M  V30 3119 H 297.857 2.11761 -3.51547 0
M  V30 3120 H 297.388 3.241 -2.22986 0
M  V30 3121 H 299.403 4.49646 -2.0984 0
M  V30 3122 N 298.576 1.31904 0.862503 0
M  V30 3123 C 299.526 1.16772 1.95827 0
M  V30 3124 C 300.51 0.0767098 1.60717 0
M  V30 3125 O 301.702 0.302407 1.74398 0
M  V30 3126 C 298.831 0.884858 3.317 0
M  V30 3127 C 297.917 2.0172 3.73055 0
M  V30 3128 N 298.308 3.265 3.86305 0
M  V30 3129 C 296.606 1.91861 4.02623 0
M  V30 3130 C 297.307 4.00616 4.2176 0
M  V30 3131 N 296.283 3.28847 4.32852 0
M  V30 3132 H 300.085 2.11382 2.04193 0
M  V30 3133 H 297.599 1.2357 1.05377 0
M  V30 3134 H 299.596 0.757419 4.09962 0
M  V30 3135 H 298.256 -0.0529448 3.24657 0
M  V30 3136 H 299.267 3.61529 3.70833 0
M  V30 3137 H 295.944 1.05593 4.03926 0
M  V30 3138 H 297.334 5.08182 4.39546 0
M  V30 3139 N 300.054 -1.07777 1.14986 0
M  V30 3140 C 301.302 -1.79934 0.920235 0
M  V30 3141 C 301.623 -1.86955 -0.554336 0
M  V30 3142 O 300.893 -1.36731 -1.40291 0
M  V30 3143 H 299.473 -0.666424 0.337473 0
M  V30 3144 H 302.135 -1.3027 1.44968 0
M  V30 3145 H 301.231 -2.82539 1.32583 0
M  V30 3146 N 301.532 -0.945985 -1.26051 0
M  V30 3147 C 302.781 -0.591836 -1.92822 0
M  V30 3148 C 303.094 0.873956 -1.7499 0
M  V30 3149 O 304.3 1.33769 -2.36259 0
M  V30 3150 C 302.756 -1.00776 -3.45503 0
M  V30 3151 C 302.364 -2.4955 -3.7206 0
M  V30 3152 C 304.108 -0.725735 -4.1825 0
M  V30 3153 C 302.015 -2.84988 -5.18205 0
M  V30 3154 H 300.945 -0.217635 -0.721908 0
M  V30 3155 H 303.596 -1.14927 -1.43052 0
M  V30 3156 H 301.978 -0.378812 -3.94184 0
M  V30 3157 H 303.152 -3.1739 -3.34066 0
M  V30 3158 H 301.467 -2.75133 -3.12555 0
M  V30 3159 H 304.064 -0.966771 -5.25887 0
M  V30 3160 H 304.407 0.337639 -4.14929 0
M  V30 3161 H 304.94 -1.31463 -3.7545 0
M  V30 3162 H 301.679 -3.90307 -5.26631 0
M  V30 3163 H 301.199 -2.21813 -5.57278 0
M  V30 3164 H 302.878 -2.73712 -5.86252 0
M  V30 3165 N 303.011 1.40521 -0.713556 0
M  V30 3166 C 304.422 1.83853 -0.324807 0
M  V30 3167 C 304.773 1.59667 1.14021 0
M  V30 3168 O 303.898 1.07649 1.87725 0
M  V30 3169 C 304.493 3.33751 -0.582746 0
M  V30 3170 C 303.052 3.75584 -0.247727 0
M  V30 3171 C 302.199 2.63753 -0.856121 0
M  V30 3172 H 305.15 1.29817 -0.91286 0
M  V30 3173 H 305.171 3.80194 0.152682 0
M  V30 3174 H 304.683 3.51322 -1.64908 0
M  V30 3175 H 302.784 3.63608 0.813624 0
M  V30 3176 H 302.897 4.7373 -0.715307 0
M  V30 3177 H 301.261 2.53108 -0.28432 0
M  V30 3178 H 302.044 2.84137 -1.92668 0
M  V30 3179 N 304.489 0.459591 1.5075 0
M  V30 3180 C 305.766 -0.160371 1.94941 0
M  V30 3181 C 306.146 -1.58048 1.39943 0
M  V30 3182 O 305.494 -2.206 0.595629 0
M  V30 3183 C 305.704 -0.115432 3.48809 0
M  V30 3184 C 307.052 -0.310026 4.23467 0
M  V30 3185 O 308.076 -0.192543 3.55679 0
M  V30 3186 O 306.935 -0.546031 5.43765 0
M  V30 3187 H 304.029 -0.117925 0.818549 0
M  V30 3188 H 306.575 0.519169 1.61563 0
M  V30 3189 H 305.347 0.87652 3.81357 0
M  V30 3190 H 304.97 -0.836928 3.88692 0
M  V30 3191 N 305.967 -1.56429 0.191757 0
M  V30 3192 C 307.383 -1.58754 -0.164137 0
M  V30 3193 C 307.583 -1.20782 -1.61288 0
M  V30 3194 O 306.639 -0.928999 -2.34789 0
M  V30 3195 C 307.952 -3.00396 0.135195 0
M  V30 3196 C 309.5 -3.1291 0.0750351 0
M  V30 3197 C 309.975 -4.56679 0.347632 0
M  V30 3198 N 311.466 -4.62252 0.296131 0
M  V30 3199 C 312.201 -5.71379 0.480948 0
M  V30 3200 N 311.697 -6.88986 0.725933 0
M  V30 3201 N 313.49 -5.60563 0.415435 0
M  V30 3202 H 305.641 -1.79393 1.13718 0
M  V30 3203 H 307.904 -0.832414 0.453643 0
M  V30 3204 H 307.61 -3.32726 1.13958 0
M  V30 3205 H 307.484 -3.72963 -0.563773 0
M  V30 3206 H 309.871 -2.80394 -0.919948 0
M  V30 3207 H 309.952 -2.42736 0.807029 0
M  V30 3208 H 309.596 -4.89907 1.33992 0
M  V30 3209 H 309.526 -5.25039 -0.405212 0
M  V30 3210 H 312.017 -3.7773 0.113259 0
M  V30 3211 H 312.33 -7.68046 0.855857 0
M  V30 3212 H 310.675 -6.90801 0.762788 0
M  V30 3213 H 313.866 -4.67561 0.224486 0
M  V30 3214 H 314.039 -6.45551 0.562889 0
M  V30 3215 N 307.445 0.0818655 -1.57387 0
M  V30 3216 C 308.861 0.436412 -1.53517 0
M  V30 3217 C 309.061 1.79758 -0.910459 0
M  V30 3218 O 308.117 2.47324 -0.508636 0
M  V30 3219 C 309.43 0.386734 -2.98203 0
M  V30 3220 C 310.978 0.467644 -3.09487 0
M  V30 3221 C 311.453 0.447978 -4.55804 0
M  V30 3222 N 312.944 0.508348 -4.60402 0
M  V30 3223 C 313.679 0.515184 -5.71081 0
M  V30 3224 N 313.175 0.477435 -6.91153 0
M  V30 3225 N 314.968 0.560988 -5.59294 0
M  V30 3226 H 307.119 -0.809546 -1.96367 0
M  V30 3227 H 309.382 -0.302733 -0.898363 0
M  V30 3228 H 309.088 -0.546539 -3.47427 0
M  V30 3229 H 308.962 1.20075 -3.57578 0
M  V30 3230 H 311.349 1.39134 -2.60242 0
M  V30 3231 H 311.43 -0.374753 -2.5304 0
M  V30 3232 H 311.074 -0.471826 -5.05704 0
M  V30 3233 H 311.004 1.30777 -5.10103 0
M  V30 3234 H 313.495 0.54218 -3.7399 0
M  V30 3235 H 313.808 0.486299 -7.71268 0
M  V30 3236 H 312.153 0.444278 -6.93579 0
M  V30 3237 H 315.344 0.5881 -4.64391 0
M  V30 3238 H 315.517 0.562846 -6.45551 0
M  V30 3239 N 308.923 1.53595 0.353017 0
M  V30 3240 C 310.334 1.61937 0.929153 0
M  V30 3241 C 310.685 0.494686 1.89861 0
M  V30 3242 O 309.81 -0.377017 2.1309 0
M  V30 3243 C 310.405 2.93526 1.69199 0
M  V30 3244 C 308.964 3.04161 2.21727 0
M  V30 3245 C 308.111 2.57322 1.03348 0
M  V30 3246 H 311.062 1.58155 0.131431 0
M  V30 3247 H 311.083 2.82034 2.55416 0
M  V30 3248 H 310.595 3.75362 0.986144 0
M  V30 3249 H 308.696 2.26938 2.95516 0
M  V30 3250 H 308.809 4.09465 2.48748 0
M  V30 3251 H 307.173 2.12499 1.40414 0
M  V30 3252 H 307.956 3.41588 0.342428 0
M  V30 3253 N 310.401 -0.613514 1.45168 0
M  V30 3254 C 311.331 -1.7354 1.56225 0
M  V30 3255 C 312.312 -1.64981 0.41414 0
M  V30 3256 O 313.497 -1.83472 0.636526 0
M  V30 3257 C 310.627 -3.12128 1.52295 0
M  V30 3258 C 309.581 -3.35491 2.65762 0
M  V30 3259 C 308.907 -4.74291 2.46885 0
M  V30 3260 C 310.207 -3.26325 4.0781 0
M  V30 3261 H 311.901 -1.64543 2.50132 0
M  V30 3262 H 309.447 -0.790185 1.20383 0
M  V30 3263 H 311.4 -3.90404 1.58628 0
M  V30 3264 H 310.124 -3.2195 0.549139 0
M  V30 3265 H 308.783 -2.59603 2.58847 0
M  V30 3266 H 308.431 -4.80839 1.47657 0
M  V30 3267 H 308.131 -4.9088 3.22972 0
M  V30 3268 H 309.655 -5.54775 2.55063 0
M  V30 3269 H 311.069 -3.94483 4.16 0
M  V30 3270 H 309.466 -3.54445 4.8424 0
M  V30 3271 H 310.536 -2.23855 4.30136 0
M  V30 3272 N 311.879 -1.3236 -0.855495 0
M  V30 3273 C 312.811 -1.17052 -1.97057 0
M  V30 3274 C 313.824 -0.10574 -1.62456 0
M  V30 3275 O 315.013 -0.354619 -1.74942 0
M  V30 3276 C 312.113 -0.769305 -3.30053 0
M  V30 3277 C 311.286 -1.9222 -3.929 0
M  V30 3278 C 310.345 -1.50466 -5.04228 0
M  V30 3279 O 309.371 -2.21655 -5.24269 0
M  V30 3280 N 310.573 -0.400209 -5.79119 0
M  V30 3281 H 313.338 -2.13103 -2.1073 0
M  V30 3282 H 310.899 -1.24885 -1.0303 0
M  V30 3283 H 312.891 -0.472407 -4.01933 0
M  V30 3284 H 311.461 0.100025 -3.1244 0
M  V30 3285 H 310.681 -2.38563 -3.13817 0
M  V30 3286 H 311.969 -2.69403 -4.31624 0
M  V30 3287 H 311.367 0.192319 -5.65373 0
M  V30 3288 H 309.924 -0.162912 -6.51596 0
M  V30 3289 N 313.357 1.07166 -1.15556 0
M  V30 3290 C 314.267 2.17947 -0.868116 0
M  V30 3291 C 315.283 1.73297 0.156297 0
M  V30 3292 O 316.459 2.01392 -0.0182327 0
M  V30 3293 C 313.524 3.44789 -0.36355 0
M  V30 3294 C 312.585 4.03996 -1.45209 0
M  V30 3295 C 311.818 5.24783 -0.971508 0
M  V30 3296 O 312.041 5.70109 0.182194 0
M  V30 3297 O 310.975 5.75715 -1.75603 0
M  V30 3298 H 314.801 2.4503 -1.79427 0
M  V30 3299 H 312.386 1.16539 -0.934824 0
M  V30 3300 H 314.268 4.21307 -0.0887113 0
M  V30 3301 H 312.943 3.19253 0.534708 0
M  V30 3302 H 311.85 3.29009 -1.78056 0
M  V30 3303 H 313.183 4.33808 -2.32533 0
M  V30 3304 N 314.835 0.952656 1.25548 0
M  V30 3305 C 316.083 0.605176 1.92826 0
M  V30 3306 C 316.404 -0.860261 1.74999 0
M  V30 3307 O 315.674 -1.6125 1.11244 0
M  V30 3308 H 314.254 0.220832 0.713612 0
M  V30 3309 H 316.916 1.21047 1.52754 0
M  V30 3310 H 316.012 0.832798 3.00784 0
M  V30 3311 N 316.313 -1.40141 0.720998 0
M  V30 3312 C 317.59 -1.94677 0.189757 0
M  V30 3313 C 317.97 -1.65879 -1.30566 0
M  V30 3314 O 317.318 -0.979391 -2.06447 0
M  V30 3315 C 317.528 -3.45279 0.508304 0
M  V30 3316 C 318.876 -4.22209 0.449934 0
M  V30 3317 O 319.9 -3.53413 0.444677 0
M  V30 3318 O 318.759 -5.44788 0.432189 0
M  V30 3319 H 315.853 -0.826459 0.0299026 0
M  V30 3320 H 318.399 -1.49719 0.7989 0
M  V30 3321 H 317.171 -3.59619 1.54239 0
M  V30 3322 H 316.794 -3.97386 -0.130525 0
M  V30 3323 N 317.792 -0.46758 -1.50504 0
M  V30 3324 C 319.041 0.0902868 -2.01498 0
M  V30 3325 C 319.354 1.411 -1.35463 0
M  V30 3326 O 320.56 2.0536 -1.77594 0
M  V30 3327 C 319.016 0.21142 -3.59278 0
M  V30 3328 C 318.624 -1.10065 -4.34269 0
M  V30 3329 C 320.368 0.721433 -4.18325 0
M  V30 3330 C 318.275 -0.943505 -5.83825 0
M  V30 3331 H 317.205 0.037517 -0.753066 0
M  V30 3332 H 319.856 -0.601943 -1.73346 0
M  V30 3333 H 318.238 0.967352 -3.84003 0
M  V30 3334 H 319.412 -1.86726 -4.21272 0
M  V30 3335 H 317.727 -1.5415 -3.86816 0
M  V30 3336 H 320.324 0.85598 -5.27804 0
M  V30 3337 H 320.667 1.71186 -3.79475 0
M  V30 3338 H 321.2 0.0229843 -3.97793 0
M  V30 3339 H 317.939 -1.90719 -6.27141 0
M  V30 3340 H 317.459 -0.217213 -5.99407 0
M  V30 3341 H 319.138 -0.608715 -6.4413 0
M  V30 3342 N 319.27 1.56325 -0.20005 0
M  V30 3343 C 320.516 1.98012 0.438059 0
M  V30 3344 C 320.849 1.08702 1.60927 0
M  V30 3345 O 320.124 0.140064 1.93995 0
M  V30 3346 C 320.407 3.48841 0.893419 0
M  V30 3347 C 320.26 4.48928 -0.279947 0
M  V30 3348 C 321.579 4.03498 1.75719 0
M  V30 3349 H 318.698 0.719918 0.157757 0
M  V30 3350 H 321.34 1.87743 -0.291968 0
M  V30 3351 H 319.49 3.57723 1.51547 0
M  V30 3352 H 321.162 4.52079 -0.91772 0
M  V30 3353 H 319.405 4.23694 -0.930919 0
M  V30 3354 H 320.076 5.5194 0.0812601 0
M  V30 3355 H 322.552 3.97427 1.23253 0
M  V30 3356 H 321.428 5.09393 2.04476 0
M  V30 3357 H 321.689 3.4906 2.71311 0
M  V30 3358 N 320.748 -0.0735177 1.57428 0
M  V30 3359 C 321.696 -1.10628 2.04607 0
M  V30 3360 C 322.69 -1.40181 0.951088 0
M  V30 3361 O 323.896 -1.39608 1.1362 0
M  V30 3362 H 320.271 -0.374088 0.652351 0
M  V30 3363 H 322.242 -0.682218 2.90497 0
M  V30 3364 C 320.991 -2.41212 2.50423 0
M  V30 3365 H 320.314 -2.19322 3.34272 0
M  V30 3366 H 321.754 -3.11927 2.87189 0
M  V30 3367 C 320.213 -3.0705 1.38644 0
M  V30 3368 O 320.743 -3.95056 0.727582 0
M  V30 3369 N 318.949 -2.67645 1.132 0
M  V30 3370 H 318.496 -1.96169 1.66959 0
M  V30 3371 H 318.454 -3.1202 0.386147 0
M  V30 3372 N 322.226 -1.5378 -0.344866 0
M  V30 3373 C 323.472 -1.71216 -1.08687 0
M  V30 3374 C 323.805 -0.473281 -1.88345 0
M  V30 3375 O 323.08 0.52968 -1.87149 0
M  V30 3376 C 323.363 -2.97486 -2.02914 0
M  V30 3377 C 323.216 -4.31579 -1.26727 0
M  V30 3378 C 324.535 -3.19422 -3.0275 0
M  V30 3379 H 321.654 -0.62301 -0.393735 0
M  V30 3380 H 324.296 -1.8645 -0.365563 0
M  V30 3381 H 322.446 -2.84629 -2.64421 0
M  V30 3382 H 324.118 -4.56284 -0.67845 0
M  V30 3383 H 322.361 -4.30049 -0.569273 0
M  V30 3384 H 323.032 -5.16106 -1.95803 0
M  V30 3385 H 325.508 -3.316 -2.51357 0
M  V30 3386 H 324.384 -4.09169 -3.65885 0
M  V30 3387 H 324.645 -2.35656 -3.74057 0
M  V30 3388 N 323.704 0.605807 -1.45491 0
M  V30 3389 C 324.981 1.36522 -1.40075 0
M  V30 3390 C 325.361 2.10976 -0.0722744 0
M  V30 3391 O 324.709 2.08007 0.945808 0
M  V30 3392 C 324.919 2.31056 -2.61561 0
M  V30 3393 C 326.267 2.93608 -3.06724 0
M  V30 3394 O 327.291 2.41376 -2.61946 0
M  V30 3395 O 326.15 3.88421 -3.84437 0
M  V30 3396 H 323.244 0.612248 -0.555951 0
M  V30 3397 H 325.79 0.628747 -1.57623 0
M  V30 3398 H 324.562 1.75311 -3.49831 0
M  V30 3399 H 324.185 3.12081 -2.46356 0
M  V30 3400 N 325.182 1.32811 0.848464 0
M  V30 3401 C 326.431 1.23075 1.59798 0
M  V30 3402 C 326.744 -0.204419 1.94529 0
M  V30 3403 O 327.95 -0.423701 2.68173 0
M  V30 3404 C 326.406 2.15594 2.88179 0
M  V30 3405 C 326.014 3.64228 2.60849 0
M  V30 3406 C 327.758 2.14709 3.66197 0
M  V30 3407 C 325.665 4.48689 3.85269 0
M  V30 3408 H 324.595 0.457091 0.599653 0
M  V30 3409 H 327.246 1.57813 0.936342 0
M  V30 3410 H 325.628 1.73778 3.55833 0
M  V30 3411 H 326.802 4.14424 2.01467 0
M  V30 3412 H 325.117 3.67306 1.96151 0
M  V30 3413 H 327.714 2.75046 4.58534 0
M  V30 3414 H 328.057 1.13966 4.00397 0
M  V30 3415 H 328.59 2.54837 3.05455 0
M  V30 3416 H 325.329 5.5027 3.56207 0
M  V30 3417 H 324.849 4.03241 4.44024 0
M  V30 3418 H 326.528 4.62006 4.52946 0
M  V30 3419 N 326.66 -1.06551 1.16123 0
M  V30 3420 C 327.888 -1.83005 0.965237 0
M  V30 3421 C 328.303 -1.82423 -0.486542 0
M  V30 3422 O 327.66 -1.24152 -1.33763 0
M  V30 3423 C 327.711 -3.29733 1.48183 0
M  V30 3424 O 327.432 -3.30416 2.87674 0
M  V30 3425 C 328.933 -4.22926 1.32848 0
M  V30 3426 H 326.153 -0.577118 0.342309 0
M  V30 3427 H 328.697 -1.3445 1.54089 0
M  V30 3428 H 326.852 -3.75609 0.948517 0
M  V30 3429 H 327.266 -4.22149 3.11272 0
M  V30 3430 H 328.74 -5.23916 1.73827 0
M  V30 3431 H 329.217 -4.38346 0.273692 0
M  V30 3432 H 329.823 -3.82894 1.85127 0
M  V30 3433 N 328.138 -0.959301 -1.25041 0
M  V30 3434 C 329.068 -0.501388 -2.28053 0
M  V30 3435 C 330.049 0.454673 -1.63911 0
M  V30 3436 O 331.234 0.352618 -1.90972 0
M  V30 3437 C 328.364 0.217224 -3.4662 0
M  V30 3438 C 327.318 -0.654034 -4.22973 0
M  V30 3439 C 326.644 0.195589 -5.34342 0
M  V30 3440 C 327.944 -1.93447 -4.85155 0
M  V30 3441 H 329.638 -1.36238 -2.66608 0
M  V30 3442 H 327.184 -0.656534 -1.28163 0
M  V30 3443 H 329.137 0.548732 -4.17812 0
M  V30 3444 H 327.861 1.1125 -3.07068 0
M  V30 3445 H 326.52 -0.968693 -3.5357 0
M  V30 3446 H 326.168 1.09076 -4.91031 0
M  V30 3447 H 325.868 -0.384091 -5.86343 0
M  V30 3448 H 327.392 0.521958 -6.08365 0
M  V30 3449 H 328.806 -1.66908 -5.48466 0
M  V30 3450 H 327.203 -2.46018 -5.47353 0
M  V30 3451 H 328.273 -2.63466 -4.07079 0
M  V30 3452 N 329.616 1.39756 -0.72842 0
M  V30 3453 C 330.846 2.04651 -0.283117 0
M  V30 3454 C 331.254 1.5502 1.08469 0
M  V30 3455 O 330.597 0.707343 1.69536 0
M  V30 3456 C 330.659 3.58947 -0.199309 0
M  V30 3457 C 330.323 4.31525 -1.5045 0
M  V30 3458 C 331.32 4.5861 -2.44894 0
M  V30 3459 C 329.005 4.70195 -1.76698 0
M  V30 3460 C 330.999 5.23366 -3.63822 0
M  V30 3461 C 328.686 5.3468 -2.95906 0
M  V30 3462 C 329.684 5.61198 -3.89289 0
M  V30 3463 O 329.372 6.24347 -5.06404 0
M  V30 3464 H 329.104 0.664777 -0.122666 0
M  V30 3465 H 331.658 1.79913 -0.990987 0
M  V30 3466 H 329.888 3.82556 0.56461 0
M  V30 3467 H 331.577 4.0534 0.213125 0
M  V30 3468 H 332.343 4.29187 -2.25883 0
M  V30 3469 H 328.222 4.48916 -1.04859 0
M  V30 3470 H 331.766 5.4398 -4.36728 0
M  V30 3471 H 327.663 5.63524 -3.14819 0
M  V30 3472 H 328.431 6.42842 -5.06652 0
M  V30 3473 N 331.094 0.475555 1.50254 0
M  V30 3474 C 332.51 0.12997 1.5907 0
M  V30 3475 C 332.71 -1.36385 1.48328 0
M  V30 3476 O 331.766 -2.13754 1.34407 0
M  V30 3477 C 333.079 0.684139 2.92814 0
M  V30 3478 C 334.627 0.647965 3.0622 0
M  V30 3479 C 335.102 1.17975 4.42545 0
M  V30 3480 N 336.593 1.13936 4.48969 0
M  V30 3481 C 337.328 1.52129 5.52851 0
M  V30 3482 N 336.824 1.97793 6.63965 0
M  V30 3483 N 338.617 1.43704 5.4342 0
M  V30 3484 H 330.768 1.44706 1.55479 0
M  V30 3485 H 333.031 0.598691 0.735033 0
M  V30 3486 H 332.737 1.73079 3.06164 0
M  V30 3487 H 332.611 0.130204 3.76975 0
M  V30 3488 H 334.998 -0.38979 2.92514 0
M  V30 3489 H 335.079 1.23876 2.23805 0
M  V30 3490 H 334.723 2.21616 4.57 0
M  V30 3491 H 334.653 0.565138 5.23559 0
M  V30 3492 H 337.144 0.804488 3.69238 0
M  V30 3493 H 337.457 2.25072 7.39299 0
M  V30 3494 H 335.802 2.01749 6.65073 0
M  V30 3495 H 338.993 1.07867 4.55502 0
M  V30 3496 H 339.166 1.73794 6.24259 0
M  V30 3497 N 332.573 -1.56217 0.208337 0
M  V30 3498 C 333.521 -2.21053 -0.723769 0
M  V30 3499 C 334.515 -1.18578 -1.20978 0
M  V30 3500 O 335.721 -1.36691 -1.17114 0
M  V30 3501 H 332.096 -0.708595 -0.251788 0
M  V30 3502 H 334.067 -2.98006 -0.153365 0
M  V30 3503 C 332.816 -2.89417 -1.927 0
M  V30 3504 H 332.139 -3.68019 -1.56212 0
M  V30 3505 H 333.579 -3.38201 -2.55727 0
M  V30 3506 C 332.038 -1.91166 -2.77411 0
M  V30 3507 O 332.568 -1.42026 -3.75754 0
M  V30 3508 N 330.774 -1.59105 -2.43175 0
M  V30 3509 H 330.321 -1.99259 -1.63259 0
M  V30 3510 H 330.279 -0.936255 -3.00136 0
M  V30 3511 N 334.051 0.0651679 -1.57465 0
M  V30 3512 C 335.299 0.761555 -1.87202 0
M  V30 3513 C 335.62 1.77778 -0.801243 0
M  V30 3514 O 334.89 1.95166 0.16937 0
M  V30 3515 H 333.47 0.284251 -0.690804 0
M  V30 3516 H 336.132 0.0396827 -1.9486 0
M  V30 3517 H 335.228 1.27365 -2.84929 0
M  V30 3518 N 335.529 1.53961 0.336706 0
M  V30 3519 C 336.759 1.75229 1.09446 0
M  V30 3520 C 337.167 0.494602 1.82621 0
M  V30 3521 O 336.51 -0.543764 1.75468 0
M  V30 3522 C 336.572 2.88288 2.1478 0
M  V30 3523 C 336.236 4.27656 1.6112 0
M  V30 3524 C 337.233 5.08981 1.0599 0
M  V30 3525 C 334.918 4.74161 1.6576 0
M  V30 3526 C 336.912 6.34916 0.562129 0
M  V30 3527 C 334.599 6.00067 1.15595 0
M  V30 3528 C 335.597 6.80278 0.609147 0
M  V30 3529 O 335.285 8.03818 0.114999 0
M  V30 3530 H 335.017 0.588881 0.331956 0
M  V30 3531 H 337.571 2.01614 0.392566 0
M  V30 3532 H 335.801 2.57443 2.88548 0
M  V30 3533 H 337.49 2.97461 2.76174 0
M  V30 3534 H 338.256 4.74213 1.01722 0
M  V30 3535 H 334.135 4.11781 2.07261 0
M  V30 3536 H 337.679 6.9747 0.134668 0
M  V30 3537 H 333.576 6.3433 1.19566 0
M  V30 3538 H 334.344 8.18172 0.231651 0
M  V30 3539 N 337.007 -0.598083 1.45811 0
M  V30 3540 C 337.957 -1.70272 1.51629 0
M  V30 3541 C 338.941 -1.56382 0.378629 0
M  V30 3542 O 340.133 -1.65557 0.626087 0
M  V30 3543 C 337.262 -3.09042 1.49493 0
M  V30 3544 C 336.348 -3.28284 2.68496 0
M  V30 3545 N 336.739 -3.17748 3.93535 0
M  V30 3546 C 335.037 -3.59182 2.64394 0
M  V30 3547 C 335.738 -3.38579 4.7301 0
M  V30 3548 N 334.714 -3.63016 4.04624 0
M  V30 3549 H 338.516 -1.60634 2.46118 0
M  V30 3550 H 336.03 -0.801642 1.41235 0
M  V30 3551 H 338.027 -3.88302 1.51747 0
M  V30 3552 H 336.687 -3.19823 0.560683 0
M  V30 3553 H 337.698 -2.95944 4.25014 0
M  V30 3554 H 334.375 -3.76742 1.79922 0
M  V30 3555 H 335.765 -3.35747 5.82 0
M  V30 3556 N 338.485 -1.33259 -0.841409 0
M  V30 3557 C 339.733 -1.24326 -1.59334 0
M  V30 3558 C 340.054 0.191564 -1.94057 0
M  V30 3559 O 339.324 1.11967 -1.60749 0
M  V30 3560 H 337.904 -0.457174 -0.590763 0
M  V30 3561 H 340.566 -1.66947 -1.00571 0
M  V30 3562 H 339.662 -1.8352 -2.52442 0
M  V30 3563 N 339.963 1.05934 -1.16686 0
M  V30 3564 C 341.24 1.75643 -0.860747 0
M  V30 3565 C 341.62 2.01144 0.640641 0
M  V30 3566 O 340.968 1.64147 1.58959 0
M  V30 3567 C 341.178 3.05493 -1.68745 0
M  V30 3568 C 342.526 3.79581 -1.90271 0
M  V30 3569 O 343.55 3.15344 -1.65641 0
M  V30 3570 O 342.409 4.9499 -2.31618 0
M  V30 3571 H 339.503 0.763426 -0.317977 0
M  V30 3572 H 342.049 1.1217 -1.27342 0
M  V30 3573 H 340.821 2.8264 -2.70611 0
M  V30 3574 H 340.444 3.76702 -1.27206 0
M  V30 3575 N 341.441 0.965919 1.2453 0
M  V30 3576 C 342.371 0.513476 2.27784 0
M  V30 3577 C 343.352 -0.445974 1.6415 0
M  V30 3578 O 344.537 -0.342485 1.91156 0
M  V30 3579 C 341.667 -0.198839 3.4673 0
M  V30 3580 C 340.621 0.676456 4.2262 0
M  V30 3581 C 339.947 -0.167248 5.34438 0
M  V30 3582 C 341.247 1.96017 4.84123 0
M  V30 3583 H 342.941 1.3765 2.65881 0
M  V30 3584 H 340.487 0.663321 1.27813 0
M  V30 3585 H 342.44 -0.526567 4.18097 0
M  V30 3586 H 341.164 -1.0962 3.07654 0
M  V30 3587 H 339.823 0.98743 3.53052 0
M  V30 3588 H 339.471 -1.0647 4.91603 0
M  V30 3589 H 339.171 0.415181 5.86131 0
M  V30 3590 H 340.695 -0.489688 6.08633 0
M  V30 3591 H 342.109 1.69814 5.47573 0
M  V30 3592 H 340.506 2.48918 5.4604 0
M  V30 3593 H 341.576 2.65622 4.05676 0
M  V30 3594 N 342.919 -1.39368 0.735821 0
M  V30 3595 C 343.867 -2.32443 0.0855131 0
M  V30 3596 C 344.861 -1.53104 -0.724954 0
M  V30 3597 O 346.067 -1.68762 -0.626047 0
M  V30 3598 H 342.442 -0.751948 0.00885257 0
M  V30 3599 H 344.413 -2.84916 0.886883 0
M  V30 3600 C 343.162 -3.38206 -0.806983 0
M  V30 3601 H 342.485 -3.99335 -0.19274 0
M  V30 3602 H 343.925 -4.05779 -1.2296 0
M  V30 3603 C 342.384 -2.75321 -1.94165 0
M  V30 3604 O 342.914 -2.63231 -3.03435 0
M  V30 3605 N 341.12 -2.33396 -1.73132 0
M  V30 3606 H 340.667 -2.4343 -0.842596 0
M  V30 3607 H 340.625 -1.91661 -2.49225 0
M  V30 3608 N 344.397 -0.483516 -1.5 0
M  V30 3609 C 345.307 0.309172 -2.32554 0
M  V30 3610 C 346.323 0.984159 -1.43493 0
M  V30 3611 O 347.499 0.969399 -1.76535 0
M  V30 3612 C 344.564 1.36979 -3.18493 0
M  V30 3613 C 343.625 0.710095 -4.23387 0
M  V30 3614 C 342.858 1.72018 -5.05218 0
M  V30 3615 O 343.081 2.94813 -4.88305 0
M  V30 3616 O 342.015 1.28515 -5.8802 0
M  V30 3617 H 345.841 -0.366064 -3.01486 0
M  V30 3618 H 343.426 -0.24514 -1.47375 0
M  V30 3619 H 345.308 1.98385 -3.71781 0
M  V30 3620 H 343.983 2.02828 -2.52275 0
M  V30 3621 H 342.89 0.0567539 -3.74057 0
M  V30 3622 H 344.223 0.0943557 -4.9211 0
M  V30 3623 N 345.875 1.56104 -0.216619 0
M  V30 3624 C 347.103 2.02563 0.421413 0
M  V30 3625 C 347.518 1.0965 1.53695 0
M  V30 3626 O 346.875 0.10521 1.82196 0
M  V30 3627 C 346.926 3.48584 0.957665 0
M  V30 3628 O 346.647 4.37953 -0.113389 0
M  V30 3629 C 348.148 4.10664 1.66943 0
M  V30 3630 H 345.368 0.662944 0.103665 0
M  V30 3631 H 347.912 2.01793 -0.331629 0
M  V30 3632 H 346.067 3.49985 1.661 0
M  V30 3633 H 346.481 5.23704 0.288932 0
M  V30 3634 H 347.955 5.14622 1.99671 0
M  V30 3635 H 348.432 3.55373 2.58083 0
M  V30 3636 H 349.038 4.13098 1.01142 0
M  V30 3637 N 347.353 -0.0568162 1.57498 0
M  V30 3638 C 348.6 -0.753104 1.87975 0
M  V30 3639 C 348.928 -1.76815 0.81035 0
M  V30 3640 O 348.183 -1.94756 -0.19199 0
M  V30 3641 C 348.482 -1.48359 3.25153 0
M  V30 3642 C 348.148 -0.60713 4.46794 0
M  V30 3643 C 346.81 -0.365642 4.79809 0
M  V30 3644 C 349.162 -0.000305978 5.212 0
M  V30 3645 C 346.49 0.491905 5.84634 0
M  V30 3646 C 348.842 0.844781 6.26934 0
M  V30 3647 C 347.506 1.096 6.58441 0
M  V30 3648 H 346.776 -0.27558 0.687849 0
M  V30 3649 H 349.423 -0.0135173 1.91495 0
M  V30 3650 H 347.728 -2.29577 3.17492 0
M  V30 3651 H 349.425 -2.02739 3.45974 0
M  V30 3652 H 346.015 -0.805487 4.20963 0
M  V30 3653 H 350.199 -0.173961 4.95995 0
M  V30 3654 H 345.455 0.695131 6.07436 0
M  V30 3655 H 349.629 1.32165 6.83744 0
M  V30 3656 H 347.256 1.76224 7.39492 0
M  V30 3657 N 348.832 -1.54138 -0.328536 0
M  V30 3658 C 350.079 -1.72105 -1.06706 0
M  V30 3659 C 350.407 -0.492111 -1.88171 0
M  V30 3660 O 349.662 0.526153 -1.88494 0
M  V30 3661 C 349.961 -2.9457 -2.02393 0
M  V30 3662 C 349.627 -4.29544 -1.37122 0
M  V30 3663 C 348.289 -4.6624 -1.19052 0
M  V30 3664 C 350.641 -5.1333 -0.902331 0
M  V30 3665 C 347.969 -5.84325 -0.527331 0
M  V30 3666 C 350.321 -6.32094 -0.252988 0
M  V30 3667 C 348.985 -6.67473 -0.0600901 0
M  V30 3668 H 348.255 -0.629775 -0.390466 0
M  V30 3669 H 350.902 -1.88372 -0.34473 0
M  V30 3670 H 349.207 -2.72969 -2.81061 0
M  V30 3671 H 350.904 -3.05665 -2.59557 0
M  V30 3672 H 347.494 -4.0067 -1.52188 0
M  V30 3673 H 351.678 -4.855 -1.02974 0
M  V30 3674 H 346.934 -6.103 -0.366634 0
M  V30 3675 H 351.108 -6.96299 0.118366 0
M  V30 3676 H 348.735 -7.58832 0.455828 0
M  V30 3677 N 350.31 0.590341 -1.46126 0
M  V30 3678 C 351.556 1.35082 -1.51264 0
M  V30 3679 C 351.889 1.93534 -0.160711 0
M  V30 3680 O 351.164 1.76045 0.826956 0
M  V30 3681 C 351.447 2.48588 -2.6053 0
M  V30 3682 C 351.3 1.95221 -4.05227 0
M  V30 3683 C 352.619 3.50662 -2.6594 0
M  V30 3684 H 349.738 0.489803 -0.550692 0
M  V30 3685 H 352.38 0.663887 -1.78024 0
M  V30 3686 H 350.53 3.07186 -2.37843 0
M  V30 3687 H 352.202 1.41139 -4.39178 0
M  V30 3688 H 350.445 1.26101 -4.15068 0
M  V30 3689 H 351.116 2.77121 -4.77397 0
M  V30 3690 H 353.592 3.01934 -2.86313 0
M  V30 3691 H 352.468 4.27551 -3.44226 0
M  V30 3692 H 352.729 4.07399 -1.71694 0
M  V30 3693 N 351.788 1.33704 0.83433 0
M  V30 3694 C 353.036 1.25169 1.58673 0
M  V30 3695 C 353.357 -0.18127 1.94156 0
M  V30 3696 O 352.627 -1.11113 1.6134 0
M  V30 3697 H 351.207 0.4603 0.58833 0
M  V30 3698 H 353.869 1.67478 0.996847 0
M  V30 3699 H 352.965 1.84856 2.51465 0
M  V30 3700 N 353.266 -1.05314 1.17247 0
M  V30 3701 C 354.176 -2.16538 0.90268 0
M  V30 3702 C 355.192 -1.73523 -0.128707 0
M  V30 3703 O 356.368 -2.01337 0.0502701 0
M  V30 3704 C 353.433 -3.44167 0.418356 0
M  V30 3705 C 352.494 -4.01635 1.51618 0
M  V30 3706 C 351.727 -5.23171 1.05487 0
M  V30 3707 O 351.95 -5.70327 -0.0914715 0
M  V30 3708 O 350.884 -5.72848 1.8474 0
M  V30 3709 H 354.71 -2.42145 1.83302 0
M  V30 3710 H 352.295 -1.15037 0.953246 0
M  V30 3711 H 354.177 -4.21112 0.155726 0
M  V30 3712 H 352.852 -3.20063 -0.48385 0
M  V30 3713 H 351.759 -3.26135 1.83268 0
M  V30 3714 H 353.092 -4.30053 2.39405 0
M  V30 3715 N 354.744 -0.972509 -1.24016 0
M  V30 3716 C 355.99 -0.637978 -1.92504 0
M  V30 3717 C 356.323 0.825383 -1.75787 0
M  V30 3718 O 355.598 1.59442 -1.11393 0
M  V30 3719 C 355.881 -1.01942 -3.45369 0
M  V30 3720 C 355.734 -2.53983 -3.71231 0
M  V30 3721 C 357.053 -0.55751 -4.36555 0
M  V30 3722 H 354.172 -0.233248 -0.699117 0
M  V30 3723 H 356.814 -1.21238 -1.46292 0
M  V30 3724 H 354.964 -0.530656 -3.84859 0
M  V30 3725 H 356.636 -3.10374 -3.41271 0
M  V30 3726 H 354.879 -2.96968 -3.16216 0
M  V30 3727 H 355.55 -2.75723 -4.78206 0
M  V30 3728 H 358.026 -0.977029 -4.04467 0
M  V30 3729 H 356.902 -0.85292 -5.42233 0
M  V30 3730 H 357.163 0.542328 -4.38761 0
M  V30 3731 N 356.222 1.38976 -0.743202 0
M  V30 3732 C 357.499 1.94351 -0.220705 0
M  V30 3733 C 357.879 1.67935 1.2791 0
M  V30 3734 O 357.227 1.01211 2.04862 0
M  V30 3735 C 357.437 3.44426 -0.563171 0
M  V30 3736 C 358.785 4.2144 -0.517046 0
M  V30 3737 O 359.809 3.52661 -0.500846 0
M  V30 3738 O 358.668 5.44032 -0.518806 0
M  V30 3739 H 355.762 0.825879 -0.043047 0
M  V30 3740 H 358.308 1.48429 -0.822618 0
M  V30 3741 H 357.08 3.5712 -1.59941 0
M  V30 3742 H 356.703 3.97543 0.0672883 0
M  V30 3743 N 357.7 0.491464 1.49741 0
M  V30 3744 C 358.977 -0.118984 1.95238 0
M  V30 3745 C 359.357 -1.55044 1.43264 0
M  V30 3746 O 358.705 -2.19287 0.642287 0
M  V30 3747 C 358.915 -0.0414187 3.48975 0
M  V30 3748 C 360.263 -0.220133 4.24029 0
M  V30 3749 O 361.287 -0.117055 3.56008 0
M  V30 3750 O 360.146 -0.430567 5.44801 0
M  V30 3751 H 357.24 -0.100536 0.820866 0
M  V30 3752 H 359.786 0.553322 1.60426 0
M  V30 3753 H 358.558 0.957214 3.79412 0
M  V30 3754 H 358.181 -0.754292 3.9038 0
M  V30 3755 N 359.178 -1.55987 0.224894 0
M  V30 3756 C 360.426 -1.97998 -0.405099 0
M  V30 3757 C 360.747 -1.11387 -1.60056 0
M  V30 3758 O 360.017 -0.191645 -1.9496 0
M  V30 3759 H 358.597 -0.731235 -0.152658 0
M  V30 3760 H 361.259 -1.92279 0.318567 0
M  V30 3761 H 360.355 -3.03463 -0.729167 0
M  V30 3762 N 360.656 0.0484629 -1.57525 0
M  V30 3763 C 361.619 1.03956 -2.04269 0
M  V30 3764 C 362.619 1.30211 -0.943496 0
M  V30 3765 O 363.809 1.25539 -1.20771 0
M  V30 3766 C 360.941 2.37742 -2.44319 0
M  V30 3767 H 362.134 0.636182 -2.93075 0
M  V30 3768 H 359.687 0.294811 -1.53494 0
M  V30 3769 H 360.422 2.82866 -1.5861 0
M  V30 3770 H 360.207 2.20021 -3.24551 0
M  V30 3771 H 361.697 3.08936 -2.80978 0
M  V30 3772 N 362.134 1.5431 0.320358 0
M  V30 3773 C 363.55 1.45091 0.664889 0
M  V30 3774 C 363.75 0.626382 1.91517 0
M  V30 3775 O 362.806 0.126443 2.52183 0
M  V30 3776 C 364.119 2.88848 0.83591 0
M  V30 3777 C 365.667 2.9877 0.933046 0
M  V30 3778 C 366.142 4.43683 1.13621 0
M  V30 3779 N 367.633 4.47309 1.20287 0
M  V30 3780 C 368.368 5.56595 1.37801 0
M  V30 3781 N 367.864 6.75844 1.52338 0
M  V30 3782 N 369.657 5.44248 1.40535 0
M  V30 3783 H 361.808 2.06398 -0.501374 0
M  V30 3784 H 364.071 0.933963 -0.162534 0
M  V30 3785 H 363.777 3.51698 -0.0116092 0
M  V30 3786 H 363.651 3.35148 1.73078 0
M  V30 3787 H 366.038 2.36045 1.77107 0
M  V30 3788 H 366.119 2.55796 0.0145782 0
M  V30 3789 H 365.763 5.06995 0.303032 0
M  V30 3790 H 365.693 4.84269 2.0686 0
M  V30 3791 H 368.184 3.61388 1.10485 0
M  V30 3792 H 368.497 7.54892 1.65403 0
M  V30 3793 H 366.842 6.78746 1.4943 0
M  V30 3794 H 370.033 4.50038 1.28777 0
M  V30 3795 H 370.206 6.29473 1.53842 0
M  V30 3796 N 363.613 -0.582584 1.46437 0
M  V30 3797 C 364.56 -1.69164 1.5701 0
M  V30 3798 C 365.53 -1.60847 0.414403 0
M  V30 3799 O 366.715 -1.80058 0.631171 0
M  V30 3800 C 363.855 -3.075 1.56646 0
M  V30 3801 C 362.968 -3.2644 2.82951 0
M  V30 3802 C 362.103 -4.55026 2.7409 0
M  V30 3803 C 361.142 -4.6731 3.95333 0
M  V30 3804 N 360.279 -5.87221 3.84858 0
M  V30 3805 H 365.119 -1.59464 2.51744 0
M  V30 3806 H 362.656 -0.777186 1.24893 0
M  V30 3807 H 364.614 -3.8757 1.5442 0
M  V30 3808 H 363.244 -3.16096 0.654439 0
M  V30 3809 H 362.296 -2.39974 2.95155 0
M  V30 3810 H 363.608 -3.31385 3.72808 0
M  V30 3811 H 362.762 -5.43324 2.6997 0
M  V30 3812 H 361.501 -4.52519 1.81873 0
M  V30 3813 H 360.506 -3.77429 3.99784 0
M  V30 3814 H 361.731 -4.71595 4.88646 0
M  V30 3815 H 359.677 -5.85712 2.95427 0
M  V30 3816 H 359.594 -5.93435 4.6837 0
M  V30 3817 H 360.862 -6.7795 3.84713 0
M  V30 3818 N 365.091 -1.34144 -0.827227 0
M  V30 3819 C 366.021 -1.28005 -1.95287 0
M  V30 3820 C 367.002 -0.158321 -1.69362 0
M  V30 3821 O 368.187 -0.349987 -1.9102 0
M  V30 3822 C 365.317 -1.03036 -3.31664 0
M  V30 3823 C 364.271 -2.11628 -3.72019 0
M  V30 3824 C 363.597 -1.71854 -5.0633 0
M  V30 3825 C 364.897 -3.53417 -3.8457 0
M  V30 3826 H 366.591 -2.22187 -2.00682 0
M  V30 3827 H 364.137 -1.0696 -0.964135 0
M  V30 3828 H 366.09 -0.973863 -4.09993 0
M  V30 3829 H 364.814 -0.0529391 -3.26557 0
M  V30 3830 H 363.473 -2.16339 -2.95961 0
M  V30 3831 H 363.121 -0.727841 -4.97706 0
M  V30 3832 H 362.821 -2.44531 -5.34302 0
M  V30 3833 H 364.345 -1.67692 -5.87122 0
M  V30 3834 H 365.759 -3.51142 -4.5318 0
M  V30 3835 H 364.156 -4.24679 -4.2399 0
M  V30 3836 H 365.226 -3.91072 -2.86689 0
M  V30 3837 N 366.569 1.04691 -1.17803 0
M  V30 3838 C 367.815 1.78045 -0.970969 0
M  V30 3839 C 368.148 1.87686 0.498751 0
M  V30 3840 O 367.423 1.38035 1.37027 0
M  V30 3841 C 367.706 3.2166 -1.61884 0
M  V30 3842 C 367.559 3.20001 -3.161 0
M  V30 3843 C 368.878 4.1962 -1.3269 0
M  V30 3844 H 365.997 0.64633 -0.354155 0
M  V30 3845 H 368.639 1.22333 -1.45378 0
M  V30 3846 H 366.789 3.69232 -1.20831 0
M  V30 3847 H 368.461 2.80467 -3.66246 0
M  V30 3848 H 366.704 2.58203 -3.48588 0
M  V30 3849 H 367.375 4.21386 -3.56564 0
M  V30 3850 H 369.851 3.80567 -1.68249 0
M  V30 3851 H 368.727 5.18339 -1.80599 0
M  V30 3852 H 368.988 4.414 -0.248622 0
M  V30 3853 N 368.047 0.979072 1.23499 0
M  V30 3854 C 368.979 0.476271 2.24197 0
M  V30 3855 C 369.992 -0.421166 1.57258 0
M  V30 3856 O 371.181 -0.225515 1.7707 0
M  V30 3857 C 368.281 -0.330503 3.37285 0
M  V30 3858 C 367.454 0.559744 4.33804 0
M  V30 3859 C 366.513 -0.192954 5.25846 0
M  V30 3860 O 365.539 0.416978 5.67671 0
M  V30 3861 N 366.741 -1.47932 5.61334 0
M  V30 3862 H 369.506 1.34211 2.67969 0
M  V30 3863 H 367.067 0.852189 1.37657 0
M  V30 3864 H 369.059 -0.842361 3.95836 0
M  V30 3865 H 367.629 -1.09734 2.92707 0
M  V30 3866 H 366.849 1.25245 3.73775 0
M  V30 3867 H 368.137 1.1665 4.95248 0
M  V30 3868 H 367.535 -1.9964 5.29302 0
M  V30 3869 H 366.092 -1.93664 6.22364 0
M  V30 3870 N 369.525 -1.3858 0.750561 0
M  V30 3871 C 370.753 -2.04471 0.316098 0
M  V30 3872 C 371.168 -1.56606 -1.05452 0
M  V30 3873 O 370.525 -0.737784 -1.66922 0
M  V30 3874 C 370.576 -3.60025 0.326275 0
M  V30 3875 O 370.297 -4.06133 1.6428 0
M  V30 3876 C 371.798 -4.43131 -0.122429 0
M  V30 3877 H 369.018 -0.65717 0.135528 0
M  V30 3878 H 371.562 -1.77329 1.01857 0
M  V30 3879 H 369.717 -3.86014 -0.327431 0
M  V30 3880 H 370.131 -5.00547 1.56693 0
M  V30 3881 H 371.605 -5.51963 -0.0641473 0
M  V30 3882 H 372.082 -4.23333 -1.16988 0
M  V30 3883 H 372.688 -4.22323 0.50229 0
M  V30 3884 N 371.003 -0.499398 -1.49478 0
M  V30 3885 C 372.231 0.0425456 -2.06856 0
M  V30 3886 C 372.646 1.30964 -1.35992 0
M  V30 3887 O 372.003 1.77172 -0.437762 0
M  V30 3888 C 372.054 0.301735 -3.60239 0
M  V30 3889 O 371.775 -0.915127 -4.28436 0
M  V30 3890 C 373.276 0.887499 -4.34325 0
M  V30 3891 H 370.496 -0.0197482 -0.670709 0
M  V30 3892 H 373.04 -0.696297 -1.92281 0
M  V30 3893 H 371.195 0.990556 -3.74522 0
M  V30 3894 H 371.609 -0.676993 -5.20113 0
M  V30 3895 H 373.083 1.01845 -5.42523 0
M  V30 3896 H 373.56 1.88488 -3.96698 0
M  V30 3897 H 374.166 0.236196 -4.24644 0
M  V30 3898 N 372.481 1.55866 -0.233164 0
M  V30 3899 C 373.711 2.02704 0.399325 0
M  V30 3900 C 374.119 1.11204 1.53069 0
M  V30 3901 O 373.462 0.116182 1.83332 0
M  V30 3902 C 373.524 3.45844 0.981429 0
M  V30 3903 C 373.188 4.56997 -0.0159561 0
M  V30 3904 C 374.185 5.13384 -0.820552 0
M  V30 3905 C 371.87 5.0211 -0.138072 0
M  V30 3906 C 373.864 6.13365 -1.73386 0
M  V30 3907 C 371.551 6.01926 -1.0549 0
M  V30 3908 C 372.549 6.57431 -1.85132 0
M  V30 3909 O 372.237 7.55302 -2.75272 0
M  V30 3910 H 371.969 0.668459 0.100692 0
M  V30 3911 H 374.523 2.02387 -0.35052 0
M  V30 3912 H 372.753 3.43267 1.78058 0
M  V30 3913 H 374.442 3.76262 1.52255 0
M  V30 3914 H 375.208 4.79372 -0.736721 0
M  V30 3915 H 371.087 4.5858 0.471737 0
M  V30 3916 H 374.631 6.56614 -2.35592 0
M  V30 3917 H 370.528 6.35359 -1.1397 0
M  V30 3918 H 371.296 7.72867 -2.69477 0
M  V30 3919 N 373.959 -0.0401083 1.57549 0
M  V30 3920 C 374.869 -1.06133 2.0922 0
M  V30 3921 C 375.885 -1.40356 1.0284 0
M  V30 3922 O 377.061 -1.49897 1.34509 0
M  V30 3923 C 374.126 -2.34658 2.55218 0
M  V30 3924 C 373.187 -2.07117 3.76033 0
M  V30 3925 C 372.42 -3.29514 4.19829 0
M  V30 3926 O 372.643 -4.39794 3.63232 0
M  V30 3927 O 371.577 -3.15863 5.12362 0
M  V30 3928 H 375.403 -0.652244 2.96613 0
M  V30 3929 H 372.988 -0.256368 1.47184 0
M  V30 3930 H 374.87 -3.10239 2.85184 0
M  V30 3931 H 373.545 -2.74883 1.70941 0
M  V30 3932 H 372.452 -1.29139 3.51104 0
M  V30 3933 H 373.785 -1.71754 4.61261 0
M  V30 3934 N 375.437 -1.54477 -0.31217 0
M  V30 3935 C 376.677 -1.74958 -1.05684 0
M  V30 3936 C 377.041 -0.518414 -1.84869 0
M  V30 3937 O 378.242 -0.600759 -2.62001 0
M  V30 3938 C 376.513 -2.99656 -1.94785 0
M  V30 3939 S 378.072 -3.4109 -2.76049 0
M  V30 3940 H 374.89 -0.615104 -0.356606 0
M  V30 3941 H 377.492 -1.92669 -0.331514 0
M  V30 3942 H 376.196 -3.87397 -1.35468 0
M  V30 3943 H 375.727 -2.845 -2.71704 0
M  V30 3944 H 377.742 -2.97283 -3.97287 0
M  V30 3945 N 376.915 0.57481 -1.46744 0
M  V30 3946 C 377.845 1.69337 -1.60771 0
M  V30 3947 C 378.826 1.63825 -0.457736 0
M  V30 3948 O 380.011 1.8172 -0.684947 0
M  V30 3949 C 377.141 3.0798 -1.60517 0
M  V30 3950 C 376.095 3.28327 -2.74564 0
M  V30 3951 C 375.421 4.67578 -2.59373 0
M  V30 3952 C 376.721 3.15398 -4.16319 0
M  V30 3953 H 378.415 1.57853 -2.54407 0
M  V30 3954 H 375.961 0.75799 -1.22436 0
M  V30 3955 H 377.914 3.86061 -1.68923 0
M  V30 3956 H 376.638 3.20381 -0.634305 0
M  V30 3957 H 375.297 2.52649 -2.65639 0
M  V30 3958 H 374.945 4.76755 -1.60353 0
M  V30 3959 H 374.645 4.82144 -3.35873 0
M  V30 3960 H 376.169 5.47817 -2.69682 0
M  V30 3961 H 377.583 3.83315 -4.26313 0
M  V30 3962 H 375.98 3.41482 -4.93468 0
M  V30 3963 H 377.05 2.12372 -4.3592 0
M  V30 3964 N 378.394 1.34581 0.820102 0
M  V30 3965 C 379.327 1.20735 1.93644 0
M  V30 3966 C 380.305 0.0983343 1.62302 0
M  V30 3967 O 381.489 0.263997 1.86642 0
M  V30 3968 C 378.616 0.856037 3.27704 0
M  V30 3969 C 377.662 1.97521 3.78005 0
M  V30 3970 S 378.495 3.58906 3.97425 0
M  V30 3971 C 379.651 3.25822 5.34407 0
M  V30 3972 H 379.884 2.15231 2.05093 0
M  V30 3973 H 377.417 1.1964 0.97599 0
M  V30 3974 H 379.375 0.660133 4.05157 0
M  V30 3975 H 378.036 -0.0706253 3.14021 0
M  V30 3976 H 377.229 1.68321 4.75062 0
M  V30 3977 H 376.831 2.12875 3.07507 0
M  V30 3978 H 379.123 2.77812 6.17922 0
M  V30 3979 H 380.066 4.22029 5.68592 0
M  V30 3980 H 380.474 2.61932 5.00052 0
M  V30 3981 N 379.872 -1.04064 1.18357 0
M  V30 3982 C 380.804 -2.12114 0.868358 0
M  V30 3983 C 381.817 -1.62247 -0.134045 0
M  V30 3984 O 383.006 -1.78253 0.0937933 0
M  V30 3985 C 380.106 -3.37773 0.276132 0
M  V30 3986 C 379.279 -4.16874 1.3242 0
M  V30 3987 C 378.338 -5.20861 0.747662 0
M  V30 3988 O 377.364 -5.51141 1.42239 0
M  V30 3989 N 378.566 -5.78715 -0.454823 0
M  V30 3990 H 381.331 -2.39748 1.79836 0
M  V30 3991 H 378.892 -1.20258 1.08396 0
M  V30 3992 H 380.884 -4.04513 -0.123133 0
M  V30 3993 H 379.454 -3.07581 -0.557895 0
M  V30 3994 H 378.674 -3.45456 1.89878 0
M  V30 3995 H 379.962 -4.66516 2.03078 0
M  V30 3996 H 379.36 -5.56415 -1.02073 0
M  V30 3997 H 377.917 -6.46921 -0.79601 0
M  V30 3998 N 381.35 -0.985608 -1.22978 0
M  V30 3999 C 382.313 -0.535071 -2.22867 0
M  V30 4000 C 383.313 0.378123 -1.56291 0
M  V30 4001 O 384.503 0.171092 -1.73358 0
M  V30 4002 C 381.635 0.222702 -3.40172 0
M  V30 4003 H 382.828 -1.41835 -2.6424 0
M  V30 4004 H 380.381 -0.772042 -1.35901 0
M  V30 4005 H 381.116 1.12229 -3.04262 0
M  V30 4006 H 380.901 -0.43288 -3.89703 0
M  V30 4007 H 382.391 0.526335 -4.1427 0
M  V30 4008 N 382.828 1.3818 -0.7579 0
M  V30 4009 C 384.077 1.99261 -0.312744 0
M  V30 4010 C 384.39 1.60846 1.11301 0
M  V30 4011 O 385.596 2.14929 1.65885 0
M  V30 4012 C 384.052 3.56294 -0.50821 0
M  V30 4013 C 383.66 4.03657 -1.94333 0
M  V30 4014 C 385.404 4.24313 -0.125982 0
M  V30 4015 C 383.311 5.53347 -2.08712 0
M  V30 4016 H 382.241 0.745456 -0.113185 0
M  V30 4017 H 384.892 1.57889 -0.935056 0
M  V30 4018 H 383.274 3.95575 0.183353 0
M  V30 4019 H 384.448 3.75655 -2.66871 0
M  V30 4020 H 382.763 3.48376 -2.28086 0
M  V30 4021 H 385.36 5.34279 -0.212125 0
M  V30 4022 H 385.703 4.05962 0.921964 0
M  V30 4023 H 386.236 3.90285 -0.769563 0
M  V30 4024 H 382.975 5.76607 -3.11777 0
M  V30 4025 H 382.495 5.83078 -1.4064 0
M  V30 4026 H 384.174 6.19111 -1.87912 0
M  V30 4027 N 384.306 0.507319 1.49211 0
M  V30 4028 C 385.583 -0.0982702 1.95353 0
M  V30 4029 C 385.963 -1.53516 1.449 0
M  V30 4030 O 385.311 -2.18594 0.66551 0
M  V30 4031 C 385.521 -0.00440283 3.49 0
M  V30 4032 C 386.869 -0.175147 4.24239 0
M  V30 4033 O 387.893 -0.0792891 3.56112 0
M  V30 4034 O 386.752 -0.37276 5.45227 0
M  V30 4035 H 383.846 -0.0918236 0.821887 0
M  V30 4036 H 386.392 0.570307 1.5983 0
M  V30 4037 H 385.164 0.997402 3.78375 0
M  V30 4038 H 384.787 -0.712845 3.91158 0
M  V30 4039 N 385.784 -1.5574 0.241426 0
M  V30 4040 C 386.747 -2.19877 -0.647063 0
M  V30 4041 C 387.747 -1.16642 -1.10686 0
M  V30 4042 O 388.937 -1.41757 -1.01245 0
M  V30 4043 C 386.069 -2.83797 -1.88871 0
M  V30 4044 H 387.262 -2.99772 -0.087574 0
M  V30 4045 H 384.815 -1.56298 -0.00813574 0
M  V30 4046 H 385.55 -2.07824 -2.48957 0
M  V30 4047 H 385.335 -3.59414 -1.56728 0
M  V30 4048 H 386.825 -3.32898 -2.52129 0
M  V30 4049 N 387.262 0.0317525 -1.57568 0
M  V30 4050 C 388.508 0.724175 -1.8943 0
M  V30 4051 C 388.841 1.75149 -0.838836 0
M  V30 4052 O 388.116 1.93948 0.146422 0
M  V30 4053 C 388.399 1.39615 -3.31933 0
M  V30 4054 C 388.252 0.382537 -4.4817 0
M  V30 4055 C 389.571 2.33084 -3.73309 0
M  V30 4056 H 386.69 0.261797 -0.688935 0
M  V30 4057 H 389.332 -0.013017 -1.89996 0
M  V30 4058 H 387.482 2.02451 -3.31581 0
M  V30 4059 H 389.154 -0.243689 -4.60656 0
M  V30 4060 H 387.397 -0.29844 -4.32772 0
M  V30 4061 H 388.068 0.891145 -5.44759 0
M  V30 4062 H 390.544 1.80295 -3.7501 0
M  V30 4063 H 389.42 2.77084 -4.73831 0
M  V30 4064 H 389.681 3.19643 -3.05419 0
M  V30 4065 N 388.74 1.54641 0.303973 0
M  V30 4066 C 389.687 1.85386 1.37479 0
M  V30 4067 C 390.657 0.702528 1.50512 0
M  V30 4068 O 391.842 0.950867 1.65418 0
M  V30 4069 C 388.982 2.10413 2.73533 0
M  V30 4070 C 388.095 3.38049 2.68974 0
M  V30 4071 C 387.23 3.52934 3.97002 0
M  V30 4072 C 386.269 4.74373 3.86829 0
M  V30 4073 N 385.406 4.8608 5.06627 0
M  V30 4074 H 390.246 2.76732 1.1056 0
M  V30 4075 H 387.783 1.37034 0.534805 0
M  V30 4076 H 389.741 2.22919 3.52652 0
M  V30 4077 H 388.371 1.22338 2.98719 0
M  V30 4078 H 387.423 3.3418 1.81736 0
M  V30 4079 H 388.735 4.27288 2.57346 0
M  V30 4080 H 387.889 3.65088 4.84557 0
M  V30 4081 H 386.628 2.61824 4.1146 0
M  V30 4082 H 385.633 4.62255 2.97658 0
M  V30 4083 H 386.858 5.66888 3.73918 0
M  V30 4084 H 384.804 3.97891 5.21554 0
M  V30 4085 H 384.721 5.69315 4.9741 0
M  V30 4086 H 385.989 5.02587 5.95841 0
M  V30 4087 N 390.218 -0.567019 1.47046 0
M  V30 4088 C 391.629 -1.14916 1.47143 0
M  V30 4089 C 391.98 -1.94954 0.220767 0
M  V30 4090 O 391.105 -2.05602 -0.67505 0
M  V30 4091 C 391.7 -2.09069 2.666 0
M  V30 4092 C 390.259 -2.62575 2.69687 0
M  V30 4093 C 389.406 -1.38755 2.40088 0
M  V30 4094 H 392.357 -0.354126 1.54699 0
M  V30 4095 H 392.378 -2.92789 2.43011 0
M  V30 4096 H 391.89 -1.50789 3.57609 0
M  V30 4097 H 389.991 -3.24681 1.82792 0
M  V30 4098 H 390.104 -3.04239 3.70102 0
M  V30 4099 H 388.468 -1.69098 1.90468 0
M  V30 4100 H 389.251 -0.822822 3.33293 0
M  V30 4101 N 391.696 -1.35014 -0.812953 0
M  V30 4102 C 392.944 -1.27678 -1.56661 0
M  V30 4103 C 393.265 0.150359 -1.94419 0
M  V30 4104 O 392.535 1.08532 -1.63088 0
M  V30 4105 H 391.115 -0.469602 -0.580933 0
M  V30 4106 H 393.777 -1.69043 -0.970076 0
M  V30 4107 H 392.873 -1.88833 -2.48492 0
M  V30 4108 N 393.175 1.03435 -1.18907 0
M  V30 4109 C 394.421 1.77005 -0.989798 0
M  V30 4110 C 394.754 1.88205 0.478816 0
M  V30 4111 O 394.029 1.39481 1.35556 0
M  V30 4112 C 394.312 3.19925 -1.65287 0
M  V30 4113 C 394.165 3.1663 -3.19477 0
M  V30 4114 C 395.484 4.18189 -1.37134 0
M  V30 4115 H 392.603 0.642538 -0.360991 0
M  V30 4116 H 395.245 1.20784 -1.46667 0
M  V30 4117 H 393.395 3.67929 -1.24741 0
M  V30 4118 H 395.067 2.76567 -3.692 0
M  V30 4119 H 393.31 2.54491 -3.51307 0
M  V30 4120 H 393.981 4.1758 -3.61013 0
M  V30 4121 H 396.457 3.78761 -1.72276 0
M  V30 4122 H 395.333 5.16394 -1.86087 0
M  V30 4123 H 395.594 4.41112 -0.295424 0
M  V30 4124 N 394.653 0.992116 1.22453 0
M  V30 4125 C 396.069 0.702713 1.43297 0
M  V30 4126 C 396.269 -0.726909 1.87932 0
M  V30 4127 O 395.325 -1.49792 2.0327 0
M  V30 4128 C 396.638 1.70762 2.47509 0
M  V30 4129 C 398.186 1.72298 2.61309 0
M  V30 4130 C 398.661 2.71649 3.68742 0
M  V30 4131 N 400.152 2.70239 3.76199 0
M  V30 4132 C 400.887 3.43778 4.58917 0
M  V30 4133 N 400.383 4.26914 5.45633 0
M  V30 4134 N 402.176 3.32487 4.5322 0
M  V30 4135 H 394.327 1.91543 0.917871 0
M  V30 4136 H 396.59 0.826031 0.465162 0
M  V30 4137 H 396.296 2.73059 2.21657 0
M  V30 4138 H 396.17 1.49985 3.46099 0
M  V30 4139 H 398.557 0.706989 2.86506 0
M  V30 4140 H 398.638 1.97143 1.62997 0
M  V30 4141 H 398.282 3.73397 3.44292 0
M  V30 4142 H 398.212 2.44074 4.66622 0
M  V30 4143 H 400.703 2.09912 3.14237 0
M  V30 4144 H 401.016 4.79855 6.05771 0
M  V30 4145 H 399.361 4.31002 5.45218 0
M  V30 4146 H 402.552 2.6698 3.84499 0
M  V30 4147 H 402.725 3.90058 5.17454 0
M  V30 4148 N 396.131 -1.37776 0.765217 0
M  V30 4149 C 397.361 -2.03828 0.337277 0
M  V30 4150 C 397.769 -1.57841 -1.04321 0
M  V30 4151 O 397.112 -0.752043 -1.67601 0
M  V30 4152 C 397.174 -3.58292 0.294407 0
M  V30 4153 C 396.838 -4.27384 1.61838 0
M  V30 4154 C 397.835 -4.51956 2.56967 0
M  V30 4155 C 395.52 -4.65345 1.89102 0
M  V30 4156 C 397.514 -5.13536 3.77571 0
M  V30 4157 C 395.201 -5.26647 3.09978 0
M  V30 4158 C 396.199 -5.50679 4.04032 0
M  V30 4159 O 395.887 -6.10702 5.2278 0
M  V30 4160 H 395.619 -0.661292 0.140248 0
M  V30 4161 H 398.173 -1.77222 1.03834 0
M  V30 4162 H 396.403 -3.83918 -0.462983 0
M  V30 4163 H 398.092 -4.05763 -0.105581 0
M  V30 4164 H 398.858 -4.23048 2.37183 0
M  V30 4165 H 394.737 -4.45978 1.16725 0
M  V30 4166 H 398.281 -5.3221 4.50997 0
M  V30 4167 H 394.178 -5.54979 3.29649 0
M  V30 4168 H 394.946 -6.29183 5.23517 0
M  V30 4169 N 397.609 -0.515225 -1.4894 0
M  V30 4170 C 399.025 -0.172099 -1.58669 0
M  V30 4171 C 399.225 1.32405 -1.51892 0
M  V30 4172 O 398.281 2.10116 -1.40027 0
M  V30 4173 C 399.594 -0.761533 -2.90897 0
M  V30 4174 C 401.142 -0.728926 -3.04394 0
M  V30 4175 C 401.617 -1.29667 -4.39261 0
M  V30 4176 N 403.108 -1.25799 -4.4579 0
M  V30 4177 C 403.843 -1.66733 -5.48623 0
M  V30 4178 N 403.339 -2.15327 -6.58488 0
M  V30 4179 N 405.132 -1.58061 -5.39419 0
M  V30 4180 H 397.283 -1.48778 -1.51588 0
M  V30 4181 H 399.546 -0.617968 -0.718901 0
M  V30 4182 H 399.252 -1.81136 -3.01468 0
M  V30 4183 H 399.126 -0.230106 -3.76497 0
M  V30 4184 H 401.513 0.312098 -2.93445 0
M  V30 4185 H 401.594 -1.29766 -2.20442 0
M  V30 4186 H 401.238 -2.33655 -4.50963 0
M  V30 4187 H 401.168 -0.703752 -5.21876 0
M  V30 4188 H 403.659 -0.902102 -3.66975 0
M  V30 4189 H 403.972 -2.44594 -7.33071 0
M  V30 4190 H 402.317 -2.19311 -6.59491 0
M  V30 4191 H 405.508 -1.19906 -4.52482 0
M  V30 4192 H 405.681 -1.90284 -6.19432 0
M  V30 4193 N 399.087 1.5561 -0.249682 0
M  V30 4194 C 399.997 2.25143 0.659375 0
M  V30 4195 C 401.013 1.2685 1.19101 0
M  V30 4196 O 402.189 1.59732 1.22669 0
M  V30 4197 C 399.254 2.93945 1.8384 0
M  V30 4198 C 398.315 4.07655 1.34596 0
M  V30 4199 C 397.548 4.73167 2.46878 0
M  V30 4200 O 397.771 4.37768 3.65671 0
M  V30 4201 O 396.705 5.61623 2.16478 0
M  V30 4202 H 400.531 3.03545 0.0968698 0
M  V30 4203 H 398.116 1.49389 -0.018074 0
M  V30 4204 H 399.998 3.37271 2.52638 0
M  V30 4205 H 398.673 2.18481 2.38847 0
M  V30 4206 H 397.58 3.68839 0.625174 0
M  V30 4207 H 398.913 4.84946 0.841941 0
M  V30 4208 N 400.565 -0.0233959 1.57583 0
M  V30 4209 C 401.495 -1.02162 2.09965 0
M  V30 4210 C 402.476 -1.3735 1.00344 0
M  V30 4211 O 403.661 -1.46135 1.27899 0
M  V30 4212 C 400.791 -2.32081 2.58371 0
M  V30 4213 C 399.745 -2.1112 3.72307 0
M  V30 4214 C 399.071 -3.46848 4.06941 0
M  V30 4215 C 400.371 -1.49276 5.00514 0
M  V30 4216 H 402.065 -0.585557 2.93618 0
M  V30 4217 H 399.611 -0.280218 1.41247 0
M  V30 4218 H 401.564 -3.02249 2.93639 0
M  V30 4219 H 400.288 -2.77758 1.71808 0
M  V30 4220 H 398.947 -1.43384 3.37397 0
M  V30 4221 H 398.595 -3.90184 3.17436 0
M  V30 4222 H 398.295 -3.33646 4.83688 0
M  V30 4223 H 399.819 -4.18369 4.44747 0
M  V30 4224 H 401.233 -2.09368 5.33702 0
M  V30 4225 H 399.63 -1.46632 5.8191 0
M  V30 4226 H 400.7 -0.459217 4.82721 0
M  V30 4227 N 402.043 -1.548 -0.295768 0
M  V30 4228 C 403.291 -1.73985 -1.02828 0
M  V30 4229 C 403.612 -0.531406 -1.87619 0
M  V30 4230 O 402.882 0.454221 -1.90561 0
M  V30 4231 H 401.462 -0.641556 -0.382642 0
M  V30 4232 H 404.124 -1.92163 -0.325489 0
M  V30 4233 H 403.22 -2.63129 -1.67838 0
M  V30 4234 N 403.521 0.559213 -1.47345 0
M  V30 4235 C 404.469 1.68747 -1.60085 0
M  V30 4236 C 405.463 1.628 -0.46825 0
M  V30 4237 O 406.669 1.68009 -0.645977 0
M  V30 4238 H 403.044 0.558329 -0.503759 0
M  V30 4239 H 405.015 1.55138 -2.54902 0
M  V30 4240 C 403.764 3.07103 -1.63042 0
M  V30 4241 H 403.087 3.12361 -2.49541 0
M  V30 4242 H 404.527 3.85743 -1.76006 0
M  V30 4243 C 402.986 3.34935 -0.363357 0
M  V30 4244 O 403.516 3.98102 0.536416 0
M  V30 4245 N 401.722 2.89574 -0.244 0
M  V30 4246 H 401.269 2.38348 -0.977133 0
M  V30 4247 H 401.227 3.08566 0.602836 0
M  V30 4248 N 404.999 1.35443 0.805782 0
M  V30 4249 C 406.248 1.28097 1.55801 0
M  V30 4250 C 406.561 -0.142428 1.95081 0
M  V30 4251 O 407.767 -0.33817 2.69386 0
M  V30 4252 C 406.223 2.24653 2.81174 0
M  V30 4253 C 405.831 3.72342 2.49129 0
M  V30 4254 C 407.575 2.2625 3.59181 0
M  V30 4255 C 405.482 4.60719 3.70799 0
M  V30 4256 H 404.412 0.475937 0.584808 0
M  V30 4257 H 407.063 1.60712 0.885661 0
M  V30 4258 H 405.445 1.85011 3.50124 0
M  V30 4259 H 406.619 4.20624 1.88181 0
M  V30 4260 H 404.934 3.73361 1.84366 0
M  V30 4261 H 407.531 2.89495 4.49552 0
M  V30 4262 H 407.874 1.26647 3.96568 0
M  V30 4263 H 408.407 2.64426 2.97193 0
M  V30 4264 H 405.146 5.61324 3.3852 0
M  V30 4265 H 404.666 4.17163 4.3097 0
M  V30 4266 H 406.345 4.76182 4.38018 0
M  V30 4267 N 406.477 -1.02803 1.19454 0
M  V30 4268 C 407.726 -1.7562 0.991996 0
M  V30 4269 C 408.039 -1.89672 -0.477901 0
M  V30 4270 O 409.245 -2.59468 -0.799287 0
M  V30 4271 C 407.701 -3.15812 1.72601 0
M  V30 4272 C 407.309 -3.0981 3.23607 0
M  V30 4273 C 409.053 -3.92918 1.60674 0
M  V30 4274 C 406.96 -4.44939 3.89594 0
M  V30 4275 H 405.89 -0.658352 0.367543 0
M  V30 4276 H 408.541 -1.15044 1.42959 0
M  V30 4277 H 406.923 -3.7686 1.21624 0
M  V30 4278 H 408.097 -2.58138 3.81709 0
M  V30 4279 H 406.412 -2.46201 3.35819 0
M  V30 4280 H 409.009 -4.9287 2.07323 0
M  V30 4281 H 409.352 -4.12502 0.561025 0
M  V30 4282 H 409.885 -3.38472 2.09001 0
M  V30 4283 H 406.624 -4.30559 4.94267 0
M  V30 4284 H 406.144 -4.96664 3.36281 0
M  V30 4285 H 407.823 -5.1382 3.93189 0
M  V30 4286 N 407.956 -0.998596 -1.21925 0
M  V30 4287 C 408.888 -0.511879 -2.23411 0
M  V30 4288 C 409.901 0.396094 -1.57908 0
M  V30 4289 O 411.09 0.197316 -1.77406 0
M  V30 4290 C 408.19 0.276802 -3.37768 0
M  V30 4291 C 407.363 -0.628687 -4.32858 0
M  V30 4292 C 406.422 0.109272 -5.26087 0
M  V30 4293 O 405.448 -0.507237 -5.66935 0
M  V30 4294 N 406.65 1.38983 -5.63617 0
M  V30 4295 H 409.415 -1.38457 -2.658 0
M  V30 4296 H 406.976 -0.873981 -1.36283 0
M  V30 4297 H 408.968 0.77928 -3.97126 0
M  V30 4298 H 407.538 1.05063 -2.94415 0
M  V30 4299 H 406.758 -1.31175 -3.71735 0
M  V30 4300 H 408.046 -1.24514 -4.93329 0
M  V30 4301 H 407.444 1.91194 -5.32411 0
M  V30 4302 H 406.001 1.83739 -6.25367 0
M  V30 4303 N 409.434 1.37368 -0.772513 0
M  V30 4304 C 410.381 2.30262 -0.157488 0
M  V30 4305 C 411.351 1.51137 0.688965 0
M  V30 4306 O 412.536 1.79704 0.641168 0
M  V30 4307 C 409.676 3.37611 0.715045 0
M  V30 4308 C 408.789 4.31746 -0.148098 0
M  V30 4309 C 407.924 5.26171 0.729213 0
M  V30 4310 C 406.963 6.11948 -0.136418 0
M  V30 4311 N 406.1 6.98613 0.698914 0
M  V30 4312 H 410.94 2.82277 -0.955179 0
M  V30 4313 H 408.477 1.38957 -0.482631 0
M  V30 4314 H 410.435 3.98479 1.23575 0
M  V30 4315 H 409.065 2.86959 1.47833 0
M  V30 4316 H 408.117 3.72178 -0.786613 0
M  V30 4317 H 409.429 4.92084 -0.81579 0
M  V30 4318 H 408.583 5.92247 1.31637 0
M  V30 4319 H 407.322 4.66246 1.43059 0
M  V30 4320 H 406.327 5.4485 -0.736102 0
M  V30 4321 H 407.552 6.73945 -0.835134 0
M  V30 4322 H 405.498 6.41215 1.38489 0
M  V30 4323 H 405.415 7.55948 0.0885358 0
M  V30 4324 H 406.683 7.69077 1.27044 0
M  V30 4325 N 410.912 0.523116 1.48665 0
M  V30 4326 C 411.862 -0.263106 2.26477 0
M  V30 4327 C 412.846 -0.916005 1.32281 0
M  V30 4328 O 414.038 -0.819946 1.56863 0
M  V30 4329 C 411.167 -1.31361 3.17174 0
M  V30 4330 C 410.253 -0.665849 4.1884 0
M  V30 4331 N 410.644 0.244434 5.05209 0
M  V30 4332 C 408.942 -0.923863 4.36326 0
M  V30 4333 C 409.643 0.617443 5.78414 0
M  V30 4334 N 408.619 -0.0198686 5.43596 0
M  V30 4335 H 412.421 0.437295 2.90629 0
M  V30 4336 H 409.935 0.340675 1.58787 0
M  V30 4337 H 411.932 -1.89052 3.71571 0
M  V30 4338 H 410.592 -2.01546 2.54576 0
M  V30 4339 H 411.603 0.616621 5.14216 0
M  V30 4340 H 408.28 -1.6168 3.84923 0
M  V30 4341 H 409.67 1.36346 6.57921 0
M  V30 4342 N 412.39 -1.55475 0.257931 0
M  V30 4343 C 413.353 -2.20551 -0.623706 0
M  V30 4344 C 414.353 -1.17809 -1.09443 0
M  V30 4345 O 415.543 -1.42823 -0.997362 0
M  V30 4346 C 412.675 -2.85784 -1.8585 0
M  V30 4347 H 413.868 -2.99848 -0.0557743 0
M  V30 4348 H 411.421 -1.56298 0.0084422 0
M  V30 4349 H 412.156 -2.10453 -2.46739 0
M  V30 4350 H 411.941 -3.61057 -1.52907 0
M  V30 4351 H 413.431 -3.35553 -2.48584 0
M  V30 4352 N 413.868 0.0150385 -1.57593 0
M  V30 4353 C 414.8 1.03912 -2.04291 0
M  V30 4354 C 415.813 1.31618 -0.958146 0
M  V30 4355 O 417.002 1.28859 -1.23522 0
M  V30 4356 C 414.102 2.37749 -2.41514 0
M  V30 4357 C 413.275 2.29198 -3.72541 0
M  V30 4358 C 412.334 3.45598 -3.96797 0
M  V30 4359 O 411.36 3.24461 -4.67668 0
M  V30 4360 N 412.562 4.67945 -3.43523 0
M  V30 4361 H 415.327 0.64099 -2.92765 0
M  V30 4362 H 412.888 0.20272 -1.60626 0
M  V30 4363 H 414.88 3.14364 -2.54867 0
M  V30 4364 H 413.45 2.69357 -1.58637 0
M  V30 4365 H 412.67 1.3759 -3.69408 0
M  V30 4366 H 413.958 2.20642 -4.5847 0
M  V30 4367 H 413.356 4.88017 -2.86104 0
M  V30 4368 H 411.913 5.41878 -3.62232 0
M  V30 4369 N 415.346 1.54954 0.287554 0
M  V30 4370 C 416.309 1.86076 1.33823 0
M  V30 4371 C 417.309 0.734414 1.43049 0
M  V30 4372 O 418.499 1.00266 1.42452 0
M  V30 4373 C 415.631 2.05305 2.72144 0
M  V30 4374 H 416.824 2.79984 1.07465 0
M  V30 4375 H 414.377 1.47223 0.524902 0
M  V30 4376 H 415.112 1.1373 3.03704 0
M  V30 4377 H 414.897 2.873 2.66836 0
M  V30 4378 H 416.387 2.30706 3.48087 0
M  V30 4379 N 416.824 -0.551391 1.4764 0
M  V30 4380 C 417.772 -1.67896 1.60978 0
M  V30 4381 C 418.766 -1.62549 0.476877 0
M  V30 4382 O 419.972 -1.67664 0.654878 0
M  V30 4383 H 416.347 -0.555649 0.506713 0
M  V30 4384 H 418.318 -1.53784 2.55721 0
M  V30 4385 C 417.067 -3.06234 1.64669 0
M  V30 4386 H 416.39 -3.11033 2.51194 0
M  V30 4387 H 417.83 -3.84804 1.7805 0
M  V30 4388 C 416.289 -3.34737 0.381115 0
M  V30 4389 O 416.819 -3.98381 -0.515297 0
M  V30 4390 N 415.025 -2.8944 0.259354 0
M  V30 4391 H 414.572 -2.37827 0.98976 0
M  V30 4392 H 414.53 -3.08882 -0.586464 0
M  V30 4393 N 418.302 -1.35869 -0.798587 0
M  V30 4394 C 419.55 -1.29332 -1.55298 0
M  V30 4395 C 419.871 0.129729 -1.94568 0
M  V30 4396 O 419.141 1.06796 -1.6423 0
M  V30 4397 H 417.721 -0.475737 -0.57592 0
M  V30 4398 H 420.383 -1.70062 -0.952093 0
M  V30 4399 H 419.479 -1.91458 -2.46476 0
M  V30 4400 N 419.78 1.02168 -1.19998 0
M  V30 4401 C 421.027 1.75685 -1.00702 0
M  V30 4402 C 421.355 1.88947 0.461426 0
M  V30 4403 O 420.61 1.40832 1.35885 0
M  V30 4404 C 420.909 3.18081 -1.62969 0
M  V30 4405 C 420.575 3.24809 -3.12746 0
M  V30 4406 C 419.237 3.26352 -3.53621 0
M  V30 4407 C 421.589 3.23379 -4.08749 0
M  V30 4408 C 418.917 3.2413 -4.89036 0
M  V30 4409 C 421.269 3.22698 -5.44104 0
M  V30 4410 C 419.933 3.22542 -5.84399 0
M  V30 4411 H 419.203 0.642877 -0.368496 0
M  V30 4412 H 421.85 1.19865 -1.49348 0
M  V30 4413 H 420.155 3.77027 -1.06573 0
M  V30 4414 H 421.852 3.73648 -1.45561 0
M  V30 4415 H 418.442 3.2434 -2.80181 0
M  V30 4416 H 422.626 3.21361 -3.78207 0
M  V30 4417 H 417.882 3.22338 -5.19527 0
M  V30 4418 H 422.056 3.20543 -6.18244 0
M  V30 4419 H 419.683 3.20575 -6.89301 0
M  V30 4420 N 421.258 1.00505 1.21394 0
M  V30 4421 C 422.483 0.706367 1.95001 0
M  V30 4422 C 422.908 -0.72463 1.73582 0
M  V30 4423 O 422.266 -1.49702 1.0227 0
M  V30 4424 C 422.314 1.03299 3.45487 0
M  V30 4425 O 421.418 0.138275 4.12168 0
M  V30 4426 H 420.759 0.263175 0.609619 0
M  V30 4427 H 423.289 1.34531 1.54151 0
M  V30 4428 H 423.299 0.979872 3.96059 0
M  V30 4429 H 421.974 2.07567 3.60401 0
M  V30 4430 H 420.551 0.247928 3.72075 0
M  V30 4431 N 422.737 -1.36956 0.779787 0
M  V30 4432 C 423.983 -1.99787 0.348281 0
M  V30 4433 C 424.316 -1.61756 -1.07465 0
M  V30 4434 O 423.591 -0.867639 -1.74075 0
M  V30 4435 C 423.874 -3.56597 0.50104 0
M  V30 4436 C 423.727 -4.04513 1.96697 0
M  V30 4437 C 425.046 -4.40008 -0.0898097 0
M  V30 4438 H 422.165 -0.725796 0.128022 0
M  V30 4439 H 424.807 -1.62514 0.984331 0
M  V30 4440 H 422.957 -3.88479 -0.0404347 0
M  V30 4441 H 424.629 -3.83161 2.56876 0
M  V30 4442 H 422.872 -3.56408 2.47297 0
M  V30 4443 H 423.543 -5.1352 2.02486 0
M  V30 4444 H 426.019 -4.14431 0.372293 0
M  V30 4445 H 424.895 -5.4888 0.0471605 0
M  V30 4446 H 425.156 -4.26035 -1.18096 0
M  V30 4447 N 424.215 -0.530993 -1.48385 0
M  V30 4448 C 425.461 0.00274135 -2.028 0
M  V30 4449 C 425.794 1.33838 -1.40716 0
M  V30 4450 O 425.069 1.86465 -0.553277 0
M  V30 4451 C 425.352 0.123676 -3.59888 0
M  V30 4452 C 425.205 -1.2372 -4.3245 0
M  V30 4453 C 426.524 0.849967 -4.31814 0
M  V30 4454 H 423.643 -0.000477758 -0.737 0
M  V30 4455 H 426.285 -0.688217 -1.77098 0
M  V30 4456 H 424.435 0.712157 -3.81917 0
M  V30 4457 H 426.107 -1.86687 -4.21836 0
M  V30 4458 H 424.35 -1.81882 -3.93829 0
M  V30 4459 H 425.021 -1.10557 -5.40815 0
M  V30 4460 H 427.497 0.350572 -4.14621 0
M  V30 4461 H 426.373 0.903486 -5.41413 0
M  V30 4462 H 426.634 1.90047 -3.99167 0
M  V30 4463 N 425.693 1.55336 -0.266172 0
M  V30 4464 C 427.109 1.59356 0.0882065 0
M  V30 4465 C 427.309 1.2834 1.55342 0
M  V30 4466 O 426.365 1.03996 2.30089 0
M  V30 4467 C 427.678 2.99409 -0.278364 0
M  V30 4468 C 429.226 3.12196 -0.224243 0
M  V30 4469 C 429.701 4.545 -0.565123 0
M  V30 4470 N 431.192 4.60313 -0.51634 0
M  V30 4471 C 431.927 5.68434 -0.753013 0
M  V30 4472 N 431.423 6.84738 -1.05383 0
M  V30 4473 N 433.216 5.57942 -0.682414 0
M  V30 4474 H 425.367 1.73764 -1.22147 0
M  V30 4475 H 427.63 0.809822 -0.492841 0
M  V30 4476 H 427.336 3.2691 -1.29703 0
M  V30 4477 H 427.21 3.75228 0.385186 0
M  V30 4478 H 429.597 2.84464 0.78512 0
M  V30 4479 H 429.678 2.38609 -0.921922 0
M  V30 4480 H 429.322 4.82956 -1.57213 0
M  V30 4481 H 429.252 5.26374 0.154248 0
M  V30 4482 H 431.743 3.7676 -0.29335 0
M  V30 4483 H 432.056 7.63088 -1.22133 0
M  V30 4484 H 430.401 6.86375 -1.09151 0
M  V30 4485 H 433.592 4.65958 -0.44731 0
M  V30 4486 H 433.765 6.4213 -0.870248 0
M  V30 4487 N 427.171 -0.0066808 1.57599 0
M  V30 4488 C 428.396 -0.707738 1.94951 0
M  V30 4489 C 428.821 -1.66882 0.867868 0
M  V30 4490 O 428.179 -1.80457 -0.17458 0
M  V30 4491 C 428.227 -1.42162 3.31394 0
M  V30 4492 O 427.331 -2.53578 3.25226 0
M  V30 4493 H 426.672 -0.188752 0.636607 0
M  V30 4494 H 429.202 0.0445193 2.04552 0
M  V30 4495 H 429.212 -1.78655 3.66806 0
M  V30 4496 H 427.887 -0.716903 4.09675 0
M  V30 4497 H 426.464 -2.19463 3.01481 0
M  V30 4498 N 428.649 -1.55105 -0.279332 0
M  V30 4499 C 429.879 -1.7917 -1.02867 0
M  V30 4500 C 430.287 -0.56204 -1.80659 0
M  V30 4501 O 429.63 0.478266 -1.77365 0
M  V30 4502 C 429.692 -2.96061 -2.03932 0
M  V30 4503 C 429.356 -4.33341 -1.45137 0
M  V30 4504 C 430.353 -5.12565 -0.870266 0
M  V30 4505 C 428.038 -4.79987 -1.48048 0
M  V30 4506 C 430.032 -6.36565 -0.326097 0
M  V30 4507 C 427.719 -6.03944 -0.932443 0
M  V30 4508 C 428.717 -6.8207 -0.356247 0
M  V30 4509 O 428.405 -8.03691 0.183412 0
M  V30 4510 H 428.137 -0.600796 -0.309872 0
M  V30 4511 H 430.691 -2.02932 -0.317468 0
M  V30 4512 H 428.921 -2.67975 -2.78794 0
M  V30 4513 H 430.61 -3.07506 -2.64943 0
M  V30 4514 H 431.376 -4.77661 -0.840521 0
M  V30 4515 H 427.255 -4.1919 -1.91835 0
M  V30 4516 H 430.799 -6.97489 0.124286 0
M  V30 4517 H 426.696 -6.3833 -0.959407 0
M  V30 4518 H 427.464 -8.18468 0.0721681 0
M  V30 4519 N 430.127 0.543554 -1.4793 0
M  V30 4520 C 431.367 1.31072 -1.56843 0
M  V30 4521 C 431.731 1.90604 -0.231124 0
M  V30 4522 O 432.932 2.68091 -0.195165 0
M  V30 4523 C 431.203 2.38106 -2.66533 0
M  V30 4524 S 432.762 3.24729 -2.95122 0
M  V30 4525 H 429.58 0.446035 -0.553691 0
M  V30 4526 H 432.182 0.620777 -1.85382 0
M  V30 4527 H 430.886 1.92828 -3.62278 0
M  V30 4528 H 430.417 3.11824 -2.39852 0
M  V30 4529 H 432.432 4.37891 -2.3338 0
M  V30 4530 N 431.605 1.3629 0.791371 0
M  V30 4531 C 432.853 1.30154 1.5461 0
M  V30 4532 C 433.174 -0.119409 1.94634 0
M  V30 4533 O 432.444 -1.05924 1.64794 0
M  V30 4534 H 431.024 0.478784 0.573389 0
M  V30 4535 H 433.686 1.70565 0.94306 0
M  V30 4536 H 432.782 1.92762 2.45457 0
M  V30 4537 N 433.083 -1.0153 1.20538 0
M  V30 4538 C 434.033 -2.08482 0.922991 0
M  V30 4539 C 435.017 -1.60469 -0.117702 0
M  V30 4540 O 436.209 -1.76772 0.0898465 0
M  V30 4541 C 433.338 -3.39952 0.478312 0
M  V30 4542 C 432.424 -3.94662 1.5525 0
M  V30 4543 N 432.815 -4.22866 2.77521 0
M  V30 4544 C 431.113 -4.22825 1.41897 0
M  V30 4545 C 431.814 -4.67002 3.4682 0
M  V30 4546 N 430.79 -4.69356 2.74237 0
M  V30 4547 H 434.592 -2.28199 1.85209 0
M  V30 4548 H 432.106 -1.19512 1.09957 0
M  V30 4549 H 434.103 -4.16105 0.257408 0
M  V30 4550 H 432.763 -3.21648 -0.444148 0
M  V30 4551 H 433.774 -4.11732 3.1416 0
M  V30 4552 H 430.451 -4.13714 0.561015 0
M  V30 4553 H 431.841 -4.97632 4.51455 0
M  V30 4554 N 434.561 -1.01147 -1.20859 0
M  V30 4555 C 435.809 -0.696486 -1.89719 0
M  V30 4556 C 436.13 0.775788 -1.78904 0
M  V30 4557 O 435.4 1.55759 -1.18811 0
M  V30 4558 H 433.98 -0.254628 -0.702263 0
M  V30 4559 H 436.642 -1.28197 -1.46804 0
M  V30 4560 H 435.738 -0.975357 -2.96468 0
M  V30 4561 N 436.039 1.36541 -0.78704 0
M  V30 4562 C 437.288 1.98552 -0.35494 0
M  V30 4563 C 437.601 1.63171 1.07864 0
M  V30 4564 O 438.807 2.18399 1.61289 0
M  V30 4565 C 437.263 3.55136 -0.583671 0
M  V30 4566 C 436.871 3.99444 -2.02851 0
M  V30 4567 C 438.615 4.2395 -0.215957 0
M  V30 4568 C 436.522 5.48796 -2.20403 0
M  V30 4569 H 435.452 0.742888 -0.128972 0
M  V30 4570 H 438.103 1.5587 -0.968337 0
M  V30 4571 H 436.485 3.95875 0.0994046 0
M  V30 4572 H 437.659 3.6991 -2.74779 0
M  V30 4573 H 435.974 3.43459 -2.35425 0
M  V30 4574 H 438.571 5.33709 -0.325405 0
M  V30 4575 H 438.914 4.07827 0.835646 0
M  V30 4576 H 439.447 3.88565 -0.852175 0
M  V30 4577 H 436.186 5.69864 -3.23937 0
M  V30 4578 H 435.706 5.79964 -1.52977 0
M  V30 4579 H 437.385 6.14986 -2.01002 0
M  V30 4580 N 437.518 0.538854 1.48102 0
M  V30 4581 C 438.468 -0.23907 2.26743 0
M  V30 4582 C 439.452 -0.901923 1.33245 0
M  V30 4583 O 440.644 -0.803263 1.57723 0
M  V30 4584 C 437.773 -1.2799 3.18549 0
M  V30 4585 C 436.859 -0.621388 4.19523 0
M  V30 4586 N 437.25 0.298004 5.04921 0
M  V30 4587 C 435.548 -0.877533 4.37282 0
M  V30 4588 C 436.249 0.678757 5.77726 0
M  V30 4589 N 435.225 0.0377881 5.43587 0
M  V30 4590 H 439.027 0.468096 2.90148 0
M  V30 4591 H 436.541 0.357497 1.58416 0
M  V30 4592 H 438.538 -1.851 3.73555 0
M  V30 4593 H 437.198 -1.98835 2.567 0
M  V30 4594 H 438.209 0.671126 5.13533 0
M  V30 4595 H 434.886 -1.57588 3.86616 0
M  V30 4596 H 436.276 1.43316 6.56437 0
M  V30 4597 N 438.996 -1.55193 0.274407 0
M  V30 4598 C 439.943 -2.225 -0.613374 0
M  V30 4599 C 440.913 -1.19823 -1.15029 0
M  V30 4600 O 442.098 -1.48362 -1.19973 0
M  V30 4601 C 439.238 -2.94927 -1.79199 0
M  V30 4602 C 438.351 -4.12322 -1.28899 0
M  V30 4603 C 437.486 -4.72394 -2.42934 0
M  V30 4604 C 436.525 -5.81984 -1.89634 0
M  V30 4605 N 435.662 -6.36123 -2.9714 0
M  V30 4606 H 440.502 -2.97982 -0.032756 0
M  V30 4607 H 438.039 -1.47099 -0.00440146 0
M  V30 4608 H 439.997 -3.35134 -2.48478 0
M  V30 4609 H 438.627 -2.2187 -2.34465 0
M  V30 4610 H 437.679 -3.7724 -0.489327 0
M  V30 4611 H 438.991 -4.91355 -0.858587 0
M  V30 4612 H 438.145 -5.15317 -3.20208 0
M  V30 4613 H 436.884 -3.92636 -2.8929 0
M  V30 4614 H 435.889 -5.38511 -1.1084 0
M  V30 4615 H 437.114 -6.6361 -1.44215 0
M  V30 4616 H 435.06 -5.59259 -3.42878 0
M  V30 4617 H 434.977 -7.10427 -2.58515 0
M  V30 4618 H 436.245 -6.83704 -3.74391 0
M  V30 4619 N 440.474 -0.00167713 -1.576 0
M  V30 4620 C 441.404 0.988091 -2.11563 0
M  V30 4621 C 442.385 1.35736 -1.02517 0
M  V30 4622 O 443.57 1.44082 -1.30208 0
M  V30 4623 C 440.7 2.27941 -2.62031 0
M  V30 4624 C 439.654 2.0517 -3.75619 0
M  V30 4625 C 438.98 3.4033 -4.12407 0
M  V30 4626 C 440.28 1.41294 -5.02825 0
M  V30 4627 H 441.974 0.538771 -2.94513 0
M  V30 4628 H 439.52 0.257712 -1.41675 0
M  V30 4629 H 441.473 2.97539 -2.9841 0
M  V30 4630 H 440.197 2.74989 -1.76205 0
M  V30 4631 H 438.856 1.37998 -3.39635 0
M  V30 4632 H 438.504 3.85085 -3.23603 0
M  V30 4633 H 438.204 3.25909 -4.88935 0
M  V30 4634 H 439.728 4.1124 -4.51347 0
M  V30 4635 H 441.142 2.00851 -5.36965 0
M  V30 4636 H 439.539 1.37356 -5.84169 0
M  V30 4637 H 440.609 0.382362 -4.8339 0
M  V30 4638 N 441.952 1.55251 0.271103 0
M  V30 4639 C 443.199 1.75946 1.00245 0
M  V30 4640 C 443.527 0.561611 1.86215 0
M  V30 4641 O 442.782 -0.455832 1.90317 0
M  V30 4642 C 443.081 3.01879 1.91321 0
M  V30 4643 C 442.747 4.34337 1.21086 0
M  V30 4644 C 441.409 4.70338 1.01666 0
M  V30 4645 C 443.761 5.16325 0.71119 0
M  V30 4646 C 441.089 5.8588 0.310099 0
M  V30 4647 C 443.441 6.32597 0.0182157 0
M  V30 4648 C 442.105 6.67236 -0.18768 0
M  V30 4649 H 441.375 0.643833 0.366824 0
M  V30 4650 H 444.022 1.89521 0.27458 0
M  V30 4651 H 442.327 2.83212 2.70736 0
M  V30 4652 H 444.024 3.15088 2.48033 0
M  V30 4653 H 440.614 4.06043 1.37213 0
M  V30 4654 H 444.798 4.88987 0.848844 0
M  V30 4655 H 440.054 6.1124 0.139873 0
M  V30 4656 H 444.228 6.9538 -0.376711 0
M  V30 4657 H 441.855 7.56618 -0.73715 0
M  V30 4658 N 443.43 -0.535701 1.48216 0
M  V30 4659 C 444.38 -1.63688 1.58714 0
M  V30 4660 C 445.364 -1.54635 0.444615 0
M  V30 4661 O 446.556 -1.62753 0.695742 0
M  V30 4662 C 443.685 -3.02423 1.62466 0
M  V30 4663 C 442.771 -3.16601 2.82178 0
M  V30 4664 N 443.162 -3.00771 4.06658 0
M  V30 4665 C 441.46 -3.47645 2.79391 0
M  V30 4666 C 442.161 -3.18213 4.86945 0
M  V30 4667 N 441.137 -3.45528 4.19656 0
M  V30 4668 H 444.939 -1.5005 2.5271 0
M  V30 4669 H 442.453 -0.741018 1.44508 0
M  V30 4670 H 444.45 -3.81517 1.6808 0
M  V30 4671 H 443.11 -3.17157 0.695826 0
M  V30 4672 H 444.121 -2.77652 4.37184 0
M  V30 4673 H 440.798 -3.68771 1.95739 0
M  V30 4674 H 442.188 -3.1076 5.95716 0
M  V30 4675 N 444.908 -1.36708 -0.784132 0
M  V30 4676 C 446.136 -1.34398 -1.57305 0
M  V30 4677 C 446.551 0.0735577 -1.88657 0
M  V30 4678 O 445.908 1.03193 -1.50524 0
M  V30 4679 C 445.959 -2.17053 -2.89085 0
M  V30 4680 O 445.68 -3.53281 -2.59083 0
M  V30 4681 C 447.181 -2.22583 -3.83369 0
M  V30 4682 H 444.401 -0.460819 -0.487736 0
M  V30 4683 H 446.945 -1.79879 -0.972819 0
M  V30 4684 H 445.1 -1.75113 -3.45564 0
M  V30 4685 H 445.514 -3.9647 -3.43383 0
M  V30 4686 H 446.988 -2.84763 -4.72878 0
M  V30 4687 H 447.465 -1.23075 -4.21603 0
M  V30 4688 H 448.071 -2.64781 -3.32823 0
M  V30 4689 N 446.386 1.0089 -1.21074 0
M  V30 4690 C 447.349 2.0775 -0.968129 0
M  V30 4691 C 448.349 1.6069 0.0593445 0
M  V30 4692 O 449.539 1.73293 -0.177525 0
M  V30 4693 C 446.671 3.37794 -0.459108 0
M  V30 4694 H 447.864 2.30707 -1.9161 0
M  V30 4695 H 445.417 1.17807 -1.02719 0
M  V30 4696 H 446.152 3.20516 0.49397 0
M  V30 4697 H 445.937 3.7328 -1.20019 0
M  V30 4698 H 447.427 4.16454 -0.309099 0
M  V30 4699 N 447.864 1.01787 1.20321 0
M  V30 4700 C 449.275 0.739307 1.71438 0
M  V30 4701 C 449.626 -0.742041 1.81627 0
M  V30 4702 O 448.751 -1.57903 1.47971 0
M  V30 4703 C 449.346 1.33538 3.11373 0
M  V30 4704 C 447.905 1.10566 3.59795 0
M  V30 4705 C 447.052 1.44028 2.36962 0
M  V30 4706 H 450.003 1.18718 1.05317 0
M  V30 4707 H 450.024 0.726611 3.73498 0
M  V30 4708 H 449.536 2.41352 3.03926 0
M  V30 4709 H 447.637 0.0452405 3.72573 0
M  V30 4710 H 447.75 1.78661 4.44542 0
M  V30 4711 H 446.114 0.85933 2.39766 0
M  V30 4712 H 446.897 2.52901 2.32155 0
M  V30 4713 N 449.342 -1.36122 0.79427 0
M  V30 4714 C 450.29 -2.31871 0.184023 0
M  V30 4715 C 451.284 -1.56041 -0.659365 0
M  V30 4716 O 452.49 -1.71266 -0.553906 0
M  V30 4717 H 448.865 -0.750896 0.0407373 0
M  V30 4718 H 450.836 -2.80898 1.00693 0
M  V30 4719 C 449.585 -3.41324 -0.662813 0
M  V30 4720 H 448.908 -3.99793 -0.0231944 0
M  V30 4721 H 450.348 -4.10629 -1.05639 0
M  V30 4722 C 448.807 -2.83308 -1.82313 0
M  V30 4723 O 449.337 -2.75863 -2.91997 0
M  V30 4724 N 447.543 -2.40529 -1.63077 0
M  V30 4725 H 447.09 -2.46785 -0.738591 0
M  V30 4726 H 447.048 -2.02059 -2.40872 0
M  V30 4727 N 450.82 -0.546701 -1.47814 0
M  V30 4728 C 452.066 -0.0187684 -2.02791 0
M  V30 4729 C 452.399 1.32338 -1.42128 0
M  V30 4730 O 451.674 1.85867 -0.573023 0
M  V30 4731 C 451.957 0.0854985 -3.59998 0
M  V30 4732 C 451.81 -1.283 -4.31114 0
M  V30 4733 C 453.129 0.80412 -4.32691 0
M  V30 4734 H 450.248 -0.0082946 -0.736953 0
M  V30 4735 H 452.89 -0.706962 -1.76358 0
M  V30 4736 H 451.04 0.671609 -3.82651 0
M  V30 4737 H 452.712 -1.91151 -4.19832 0
M  V30 4738 H 450.955 -1.86049 -3.91878 0
M  V30 4739 H 451.626 -1.16287 -5.39612 0
M  V30 4740 H 454.102 0.306576 -4.14969 0
M  V30 4741 H 452.978 0.846011 -5.42341 0
M  V30 4742 H 453.239 1.85802 -4.01161 0
M  V30 4743 N 452.299 1.55045 -0.282633 0
M  V30 4744 C 453.71 1.85473 0.213655 0
M  V30 4745 C 454.061 1.20465 1.54863 0
M  V30 4746 O 453.186 0.495676 2.10647 0
M  V30 4747 C 453.781 3.36496 0.394445 0
M  V30 4748 C 452.34 3.67022 0.834961 0
M  V30 4749 C 451.487 2.77218 -0.0674081 0
M  V30 4750 H 454.438 1.50478 -0.504202 0
M  V30 4751 H 454.459 3.60007 1.23186 0
M  V30 4752 H 453.971 3.83782 -0.577326 0
M  V30 4753 H 452.072 3.25241 1.81794 0
M  V30 4754 H 452.185 4.74433 0.667075 0
M  V30 4755 H 450.549 2.5069 0.450196 0
M  V30 4756 H 451.332 3.2732 -1.0352 0
M  V30 4757 N 453.777 0.010035 1.57597 0
M  V30 4758 C 454.727 -0.986858 2.05536 0
M  V30 4759 C 455.711 -1.29711 0.952042 0
M  V30 4760 O 456.903 -1.28641 1.21575 0
M  V30 4761 C 454.032 -2.2756 2.57043 0
M  V30 4762 C 453.118 -1.99455 3.74271 0
M  V30 4763 N 453.509 -1.41546 4.85591 0
M  V30 4764 C 451.807 -2.29547 3.82393 0
M  V30 4765 C 452.508 -1.3014 5.66956 0
M  V30 4766 N 451.484 -1.79044 5.13268 0
M  V30 4767 H 455.286 -0.533778 2.89012 0
M  V30 4768 H 452.8 -0.195432 1.6122 0
M  V30 4769 H 454.797 -2.99829 2.89669 0
M  V30 4770 H 453.457 -2.73512 1.7499 0
M  V30 4771 H 454.468 -1.09294 5.06236 0
M  V30 4772 H 451.145 -2.78304 3.11213 0
M  V30 4773 H 452.535 -0.855237 6.66435 0
M  V30 4774 N 455.255 -1.55392 -0.262866 0
M  V30 4775 C 456.485 -1.80251 -1.00961 0
M  V30 4776 C 456.893 -0.58117 -1.80053 0
M  V30 4777 O 456.236 0.459427 -1.77862 0
M  V30 4778 C 456.298 -2.98207 -2.00781 0
M  V30 4779 C 455.962 -4.34856 -1.40533 0
M  V30 4780 C 456.959 -5.13459 -0.815853 0
M  V30 4781 C 454.644 -4.8153 -1.42948 0
M  V30 4782 C 456.638 -6.36875 -0.258562 0
M  V30 4783 C 454.325 -6.04899 -0.868334 0
M  V30 4784 C 455.323 -6.8241 -0.283884 0
M  V30 4785 O 455.011 -8.03451 0.268644 0
M  V30 4786 H 454.743 -0.604049 -0.303482 0
M  V30 4787 H 457.297 -2.03257 -0.295926 0
M  V30 4788 H 455.527 -2.70917 -2.75936 0
M  V30 4789 H 457.216 -3.10299 -2.61667 0
M  V30 4790 H 457.982 -4.78526 -0.789812 0
M  V30 4791 H 453.861 -4.21201 -1.87378 0
M  V30 4792 H 457.405 -6.97318 0.198257 0
M  V30 4793 H 453.302 -6.39312 -0.891649 0
M  V30 4794 H 454.07 -8.18346 0.158974 0
M  V30 4795 N 456.733 0.527833 -1.48498 0
M  V30 4796 C 457.696 1.61439 -1.62696 0
M  V30 4797 C 458.696 1.52824 -0.500136 0
M  V30 4798 O 459.886 1.56456 -0.765976 0
M  V30 4799 C 457.018 3.01063 -1.59918 0
M  V30 4800 H 458.211 1.50189 -2.59583 0
M  V30 4801 H 455.764 0.750055 -1.37127 0
M  V30 4802 H 456.499 3.17818 -0.645163 0
M  V30 4803 H 456.284 3.08725 -2.41726 0
M  V30 4804 H 457.774 3.80057 -1.73051 0
M  V30 4805 N 458.211 1.37122 0.776871 0
M  V30 4806 C 459.158 1.3247 1.88998 0
M  V30 4807 C 460.128 0.191143 1.64997 0
M  V30 4808 O 461.313 0.379683 1.86984 0
M  V30 4809 C 458.453 1.13241 3.25992 0
M  V30 4810 C 457.566 2.35782 3.61982 0
M  V30 4811 C 456.701 2.09465 4.88158 0
M  V30 4812 C 455.74 3.279 5.16864 0
M  V30 4813 N 454.877 3.01167 6.34226 0
M  V30 4814 H 459.717 2.27642 1.9231 0
M  V30 4815 H 457.254 1.13125 0.94027 0
M  V30 4816 H 459.212 1.00115 4.0501 0
M  V30 4817 H 457.842 0.217186 3.22069 0
M  V30 4818 H 456.894 2.59666 2.77989 0
M  V30 4819 H 458.206 3.24125 3.79137 0
M  V30 4820 H 457.36 1.93341 5.75069 0
M  V30 4821 H 456.099 1.18452 4.73097 0
M  V30 4822 H 455.104 3.44569 4.2843 0
M  V30 4823 H 456.329 4.19757 5.33836 0
M  V30 4824 H 454.275 2.12779 6.20533 0
M  V30 4825 H 454.192 3.83052 6.51772 0
M  V30 4826 H 455.46 2.88649 7.24087 0
M  V30 4827 N 459.689 -1.00246 1.21608 0
M  V30 4828 C 460.637 -2.11193 0.97469 0
M  V30 4829 C 461.631 -1.69216 -0.0789303 0
M  V30 4830 O 462.837 -1.79853 0.0726806 0
M  V30 4831 H 459.212 -0.690455 0.297953 0
M  V30 4832 H 461.183 -2.2873 1.91638 0
M  V30 4833 C 459.932 -3.43182 0.558717 0
M  V30 4834 H 459.255 -3.75918 1.3611 0
M  V30 4835 H 460.695 -4.21823 0.429154 0
M  V30 4836 C 459.154 -3.28882 -0.730648 0
M  V30 4837 O 459.684 -3.59835 -1.78554 0
M  V30 4838 N 457.89 -2.8209 -0.698131 0
M  V30 4839 H 457.437 -2.57099 0.16061 0
M  V30 4840 H 457.395 -2.72903 -1.56113 0
M  V30 4841 N 461.167 -1.02423 -1.1978 0
M  V30 4842 C 462.114 -0.601023 -2.22837 0
M  V30 4843 C 463.084 0.382801 -1.61629 0
M  V30 4844 O 464.269 0.280514 -1.88727 0
M  V30 4845 C 461.409 0.0467755 -3.45068 0
M  V30 4846 C 460.522 -0.98253 -4.20678 0
M  V30 4847 C 459.657 -0.304982 -5.30324 0
M  V30 4848 C 458.696 -1.32052 -5.97686 0
M  V30 4849 N 457.833 -0.669105 -6.98904 0
M  V30 4850 H 462.673 -1.48444 -2.58396 0
M  V30 4851 H 460.21 -0.742936 -1.2696 0
M  V30 4852 H 462.168 0.439556 -4.14878 0
M  V30 4853 H 460.798 0.893796 -3.10179 0
M  V30 4854 H 459.85 -1.49341 -3.49859 0
M  V30 4855 H 461.162 -1.75455 -4.66923 0
M  V30 4856 H 460.316 0.142893 -6.06532 0
M  V30 4857 H 459.055 0.499283 -4.85138 0
M  V30 4858 H 458.06 -1.7787 -5.20233 0
M  V30 4859 H 459.285 -2.1262 -6.44957 0
M  V30 4860 H 457.231 0.115152 -6.55899 0
M  V30 4861 H 457.148 -1.37908 -7.43315 0
M  V30 4862 H 458.416 -0.245076 -7.79115 0
M  V30 4863 N 462.645 1.35699 -0.801477 0
M  V30 4864 C 463.608 2.28199 -0.213994 0
M  V30 4865 C 464.608 1.49359 0.595691 0
M  V30 4866 O 465.798 1.69186 0.414921 0
M  V30 4867 C 462.93 3.33587 0.702297 0
M  V30 4868 H 464.123 2.81666 -1.02976 0
M  V30 4869 H 461.676 1.45467 -0.571759 0
M  V30 4870 H 462.411 2.85297 1.54195 0
M  V30 4871 H 462.196 3.91906 0.123484 0
M  V30 4872 H 463.686 4.02638 1.10783 0
M  V30 4873 N 464.123 0.554532 1.47522 0
M  V30 4874 C 465.369 0.0295227 2.02779 0
M  V30 4875 C 465.702 -1.31582 1.42828 0
M  V30 4876 O 464.977 -1.85561 0.582872 0
M  V30 4877 C 465.26 -0.0664057 3.60039 0
M  V30 4878 C 465.113 1.30585 4.30427 0
M  V30 4879 C 466.432 -0.781162 4.33112 0
M  V30 4880 H 463.551 0.0122027 0.736899 0
M  V30 4881 H 466.193 0.716305 1.7598 0
M  V30 4882 H 464.343 -0.651307 3.83002 0
M  V30 4883 H 466.015 1.93374 4.18813 0
M  V30 4884 H 464.258 1.88125 3.90886 0
M  V30 4885 H 464.929 1.19147 5.38988 0
M  V30 4886 H 467.405 -0.284565 4.15126 0
M  V30 4887 H 466.281 -0.817237 5.42782 0
M  V30 4888 H 466.542 -1.83672 4.0214 0
M  V30 4889 N 465.601 -1.54893 0.290851 0
M  V30 4890 C 466.849 -1.99538 -0.320756 0
M  V30 4891 C 467.17 -1.18075 -1.55188 0
M  V30 4892 O 466.44 -0.274162 -1.93972 0
M  V30 4893 H 465.02 -0.737052 -0.121507 0
M  V30 4894 H 467.682 -1.90755 0.399832 0
M  V30 4895 H 466.778 -3.06282 -0.599802 0
M  V30 4896 N 467.08 -0.0183926 -1.57589 0
M  V30 4897 C 468.326 0.663543 -1.91638 0
M  V30 4898 C 468.659 1.72392 -0.894134 0
M  V30 4899 O 467.934 1.94316 0.0846449 0
M  V30 4900 C 468.217 1.28984 -3.36207 0
M  V30 4901 C 468.07 0.239761 -4.49161 0
M  V30 4902 C 469.389 2.2109 -3.80536 0
M  V30 4903 H 466.508 0.239746 -0.696915 0
M  V30 4904 H 469.15 -0.073456 -1.89858 0
M  V30 4905 H 467.3 1.91799 -3.37854 0
M  V30 4906 H 468.972 -0.390119 -4.59647 0
M  V30 4907 H 467.215 -0.435972 -4.31604 0
M  V30 4908 H 467.886 0.717383 -5.47319 0
M  V30 4909 H 470.362 1.68273 -3.80557 0
M  V30 4910 H 469.238 2.61869 -4.82406 0
M  V30 4911 H 469.499 3.09764 -3.15434 0
M  V30 4912 N 468.558 1.5553 0.254621 0
M  V30 4913 C 469.491 1.84624 1.34124 0
M  V30 4914 C 470.469 0.700693 1.46728 0
M  V30 4915 O 471.653 0.94564 1.63064 0
M  V30 4916 C 468.78 2.02412 2.71564 0
M  V30 4917 C 467.826 3.25028 2.7615 0
M  V30 4918 S 468.659 4.81893 2.33538 0
M  V30 4919 C 469.815 5.02677 3.72917 0
M  V30 4920 H 470.048 2.76501 1.09245 0
M  V30 4921 H 467.581 1.47537 0.455211 0
M  V30 4922 H 469.539 2.13345 3.50705 0
M  V30 4923 H 468.2 1.11391 2.93685 0
M  V30 4924 H 467.393 3.34418 3.77069 0
M  V30 4925 H 466.995 3.12781 2.05046 0
M  V30 4926 H 469.287 4.89546 4.68349 0
M  V30 4927 H 470.23 6.0468 3.68467 0
M  V30 4928 H 470.638 4.30561 3.65072 0
M  V30 4929 N 470.036 -0.519951 1.48776 0
M  V30 4930 C 470.983 -1.62352 1.64044 0
M  V30 4931 C 471.953 -1.58945 0.482251 0
M  V30 4932 O 473.138 -1.77219 0.706971 0
M  V30 4933 C 470.278 -3.00579 1.69547 0
M  V30 4934 C 469.391 -3.14145 2.96541 0
M  V30 4935 C 468.526 -4.42991 2.93142 0
M  V30 4936 C 467.565 -4.50122 4.14797 0
M  V30 4937 N 466.702 -5.7037 4.09418 0
M  V30 4938 H 471.542 -1.48643 2.58281 0
M  V30 4939 H 469.079 -0.723516 1.28077 0
M  V30 4940 H 471.037 -3.80671 1.70719 0
M  V30 4941 H 469.667 -3.13036 0.787918 0
M  V30 4942 H 468.719 -2.27239 3.05068 0
M  V30 4943 H 470.031 -3.15275 3.86527 0
M  V30 4944 H 469.185 -5.31385 2.92772 0
M  V30 4945 H 467.924 -4.44398 2.00902 0
M  V30 4946 H 466.929 -3.60133 4.15433 0
M  V30 4947 H 468.154 -4.50445 5.08208 0
M  V30 4948 H 466.1 -5.72655 3.20004 0
M  V30 4949 H 466.017 -5.73036 4.93119 0
M  V30 4950 H 467.285 -6.61023 4.13121 0
M  V30 4951 N 471.514 -1.37532 -0.769588 0
M  V30 4952 C 472.739 -1.36231 -1.56384 0
M  V30 4953 C 473.164 0.0495849 -1.88035 0
M  V30 4954 O 472.522 1.02723 -1.49391 0
M  V30 4955 C 472.57 -2.20986 -2.84952 0
M  V30 4956 O 471.674 -1.61597 -3.79421 0
M  V30 4957 H 471.015 -0.465387 -0.473615 0
M  V30 4958 H 473.545 -1.81085 -0.952342 0
M  V30 4959 H 473.555 -2.34277 -3.34034 0
M  V30 4960 H 472.23 -3.23612 -2.61243 0
M  V30 4961 H 470.807 -1.57359 -3.38072 0
M  V30 4962 N 472.992 0.995999 -1.22138 0
M  V30 4963 C 474.24 1.73167 -1.042 0
M  V30 4964 C 474.561 1.90329 0.42423 0
M  V30 4965 O 473.831 1.4607 1.30539 0
M  V30 4966 H 472.411 0.641593 -0.38258 0
M  V30 4967 H 475.073 1.19974 -1.53598 0
M  V30 4968 H 474.169 2.72734 -1.51731 0
M  V30 4969 N 474.47 1.03057 1.19235 0
M  V30 4970 C 475.42 0.583386 2.2041 0
M  V30 4971 C 476.404 -0.368776 1.56617 0
M  V30 4972 O 477.596 -0.189471 1.75983 0
M  V30 4973 C 474.725 -0.0626534 3.43243 0
M  V30 4974 C 473.811 0.91205 4.14177 0
M  V30 4975 N 474.202 2.07514 4.61272 0
M  V30 4976 C 472.5 0.735859 4.39888 0
M  V30 4977 C 473.201 2.69003 5.15764 0
M  V30 4978 N 472.177 1.96954 5.06666 0
M  V30 4979 H 475.979 1.46988 2.54503 0
M  V30 4980 H 473.493 0.897785 1.35328 0
M  V30 4981 H 475.49 -0.400653 4.1497 0
M  V30 4982 H 474.15 -0.944813 3.1065 0
M  V30 4983 H 475.161 2.45448 4.56043 0
M  V30 4984 H 471.838 -0.0970656 4.17387 0
M  V30 4985 H 473.228 3.67514 5.6248 0
M  V30 4986 N 475.948 -1.35272 0.808662 0
M  V30 4987 C 477.194 -1.99003 0.390581 0
M  V30 4988 C 477.527 -1.63999 -1.0401 0
M  V30 4989 O 476.802 -0.904368 -1.72196 0
M  V30 4990 C 477.085 -3.55454 0.576566 0
M  V30 4991 C 476.938 -4.00249 2.05233 0
M  V30 4992 C 478.257 -4.401 0.00354277 0
M  V30 4993 H 475.376 -0.722917 0.143388 0
M  V30 4994 H 478.018 -1.6039 1.01858 0
M  V30 4995 H 476.168 -3.88477 0.0419766 0
M  V30 4996 H 477.84 -3.77626 2.64946 0
M  V30 4997 H 476.083 -3.51082 2.54801 0
M  V30 4998 H 476.754 -5.0911 2.13333 0
M  V30 4999 H 479.23 -4.13548 0.460117 0
M  V30 5000 H 478.106 -5.48656 0.163575 0
M  V30 5001 H 478.367 -4.28444 -1.09032 0
M  V30 5002 N 477.426 -0.562348 -1.47226 0
M  V30 5003 C 478.673 -0.0402165 -2.0246 0
M  V30 5004 C 479.001 1.31169 -1.43614 0
M  V30 5005 O 478.256 1.86805 -0.5833 0
M  V30 5006 C 478.555 0.0969817 -3.57268 0
M  V30 5007 C 478.221 -1.1847 -4.35058 0
M  V30 5008 C 476.883 -1.53588 -4.56031 0
M  V30 5009 C 479.235 -2.03378 -4.79882 0
M  V30 5010 C 476.563 -2.73452 -5.19077 0
M  V30 5011 C 478.915 -3.2245 -5.44251 0
M  V30 5012 C 477.579 -3.57876 -5.63455 0
M  V30 5013 H 476.849 -0.0147163 -0.740854 0
M  V30 5014 H 479.496 -0.734895 -1.76838 0
M  V30 5015 H 477.801 0.87466 -3.81912 0
M  V30 5016 H 479.498 0.516408 -3.97661 0
M  V30 5017 H 476.088 -0.90126 -4.19017 0
M  V30 5018 H 480.272 -1.77553 -4.63453 0
M  V30 5019 H 475.528 -3.01062 -5.32139 0
M  V30 5020 H 479.702 -3.88526 -5.77945 0
M  V30 5021 H 477.329 -4.50849 -6.12078 0
M  V30 5022 N 478.904 1.54736 -0.299062 0
M  V30 5023 C 480.132 2.04512 0.313447 0
M  V30 5024 C 480.547 1.17643 1.47667 0
M  V30 5025 O 479.904 0.20164 1.81383 0
M  V30 5026 C 479.955 3.53171 0.771542 0
M  V30 5027 O 479.676 4.36736 -0.345379 0
M  V30 5028 C 481.177 4.18936 1.4494 0
M  V30 5029 H 478.397 0.667507 0.0683784 0
M  V30 5030 H 480.941 1.99752 -0.438129 0
M  V30 5031 H 479.096 3.58298 1.47314 0
M  V30 5032 H 479.51 5.24499 0.0109219 0
M  V30 5033 H 480.984 5.24482 1.72111 0
M  V30 5034 H 481.461 3.68554 2.38883 0
M  V30 5035 H 482.067 4.17879 0.791028 0
M  V30 5036 N 480.382 0.0267497 1.57577 0
M  V30 5037 C 481.631 -0.651736 1.9088 0
M  V30 5038 C 481.944 -1.73427 0.904576 0
M  V30 5039 O 483.15 -2.46923 1.12877 0
M  V30 5040 C 481.606 -1.21048 3.38933 0
M  V30 5041 C 481.214 -0.161362 4.47709 0
M  V30 5042 C 482.958 -1.86562 3.81307 0
M  V30 5043 C 480.865 -0.731611 5.86857 0
M  V30 5044 H 479.795 -0.247198 0.712326 0
M  V30 5045 H 482.446 0.0916641 1.83271 0
M  V30 5046 H 480.828 -2.00542 3.41466 0
M  V30 5047 H 482.002 0.61094 4.56732 0
M  V30 5048 H 480.317 0.394877 4.14523 0
M  V30 5049 H 482.914 -2.30178 4.8262 0
M  V30 5050 H 483.257 -2.70735 3.16241 0
M  V30 5051 H 483.79 -1.13762 3.81186 0
M  V30 5052 H 480.529 0.0719329 6.55461 0
M  V30 5053 H 480.049 -1.47245 5.81445 0
M  V30 5054 H 481.728 -1.22208 6.35354 0
M  V30 5055 N 481.861 -1.55662 -0.24637 0
M  V30 5056 C 482.771 -1.93495 -1.32653 0
M  V30 5057 C 483.787 -0.835462 -1.5263 0
M  V30 5058 O 484.963 -1.1369 -1.66242 0
M  V30 5059 C 482.028 -2.22242 -2.66101 0
M  V30 5060 C 481.089 -3.45625 -2.54641 0
M  V30 5061 C 480.322 -3.72991 -3.81724 0
M  V30 5062 O 480.545 -3.02421 -4.8363 0
M  V30 5063 O 479.479 -4.66515 -3.80325 0
M  V30 5064 H 483.305 -2.85498 -1.03559 0
M  V30 5065 H 480.89 -1.42551 -0.44717 0
M  V30 5066 H 482.772 -2.42037 -3.44958 0
M  V30 5067 H 481.447 -1.33417 -2.94926 0
M  V30 5068 H 480.354 -3.31136 -1.74067 0
M  V30 5069 H 481.687 -4.34754 -2.3076 0
M  V30 5070 N 483.339 0.512053 -1.4905 0
M  V30 5071 C 484.75 1.09376 -1.51307 0
M  V30 5072 C 485.101 1.94 -0.292971 0
M  V30 5073 O 484.226 2.07965 0.598277 0
M  V30 5074 C 484.821 1.99031 -2.74176 0
M  V30 5075 C 483.38 2.52385 -2.79247 0
M  V30 5076 C 482.527 1.29749 -2.45073 0
M  V30 5077 H 485.478 0.296467 -1.55906 0
M  V30 5078 H 485.499 2.83569 -2.53711 0
M  V30 5079 H 485.011 1.37412 -3.62959 0
M  V30 5080 H 483.112 3.17673 -1.94716 0
M  V30 5081 H 483.225 2.90293 -3.81139 0
M  V30 5082 H 481.589 1.61912 -1.96612 0
M  V30 5083 H 482.372 0.698555 -3.36118 0
M  V30 5084 N 484.817 1.37938 0.762283 0
M  V30 5085 C 485.75 1.2884 1.88349 0
M  V30 5086 C 486.728 0.167084 1.61739 0
M  V30 5087 O 487.912 0.34292 1.85355 0
M  V30 5088 C 485.039 0.994257 3.23778 0
M  V30 5089 C 484.085 2.13376 3.69287 0
M  V30 5090 S 484.918 3.75439 3.81845 0
M  V30 5091 C 486.074 3.48195 5.20107 0
M  V30 5092 H 486.307 2.23736 1.95779 0
M  V30 5093 H 483.84 1.23672 0.924368 0
M  V30 5094 H 485.798 0.83138 4.01993 0
M  V30 5095 H 484.459 0.0626251 3.14038 0
M  V30 5096 H 483.652 1.88319 4.67495 0
M  V30 5097 H 483.254 2.25726 2.98201 0
M  V30 5098 H 485.546 3.0377 6.05583 0
M  V30 5099 H 486.489 4.45765 5.50181 0
M  V30 5100 H 486.897 2.82905 4.88493 0
M  V30 5101 N 486.295 -0.989507 1.22664 0
M  V30 5102 C 487.544 -1.72375 1.04737 0
M  V30 5103 C 487.857 -1.91096 -0.417316 0
M  V30 5104 O 489.063 -2.6188 -0.716334 0
M  V30 5105 C 487.519 -3.10161 1.82561 0
M  V30 5106 C 487.127 -2.99358 3.333 0
M  V30 5107 C 488.871 -3.87607 1.73093 0
M  V30 5108 C 486.778 -4.32319 4.03552 0
M  V30 5109 H 485.708 -0.646326 0.388302 0
M  V30 5110 H 488.359 -1.10437 1.46546 0
M  V30 5111 H 486.741 -3.728 1.33552 0
M  V30 5112 H 487.915 -2.45863 3.89728 0
M  V30 5113 H 486.23 -2.35392 3.43481 0
M  V30 5114 H 488.827 -4.86025 2.22899 0
M  V30 5115 H 489.17 -4.10509 0.691976 0
M  V30 5116 H 489.703 -3.31652 2.19663 0
M  V30 5117 H 486.442 -4.14616 5.07714 0
M  V30 5118 H 485.962 -4.85714 3.51911 0
M  V30 5119 H 487.641 -5.01051 4.09337 0
M  V30 5120 N 487.773 -1.03688 -1.18687 0
M  V30 5121 C 489.013 -0.746858 -1.90267 0
M  V30 5122 C 489.377 0.712075 -1.78307 0
M  V30 5123 O 490.578 1.11553 -2.44559 0
M  V30 5124 C 488.849 -1.19543 -3.36815 0
M  V30 5125 S 490.408 -1.03047 -4.26529 0
M  V30 5126 H 487.226 -0.271663 -0.657054 0
M  V30 5127 H 489.828 -1.32838 -1.43437 0
M  V30 5128 H 488.532 -2.2527 -3.43047 0
M  V30 5129 H 488.063 -0.607533 -3.88681 0
M  V30 5130 H 490.078 0.0543232 -4.9617 0
M  V30 5131 N 489.251 1.34841 -0.815825 0
M  V30 5132 C 490.161 2.33425 -0.234462 0
M  V30 5133 C 491.177 1.62295 0.627413 0
M  V30 5134 O 492.353 1.94109 0.536987 0
M  V30 5135 C 489.418 3.41471 0.599849 0
M  V30 5136 C 488.479 4.28362 -0.283596 0
M  V30 5137 C 487.712 5.31248 0.51099 0
M  V30 5138 O 487.935 5.43056 1.7449 0
M  V30 5139 O 486.869 6.01812 -0.10297 0
M  V30 5140 H 490.695 2.84962 -1.05024 0
M  V30 5141 H 488.28 1.37774 -0.577809 0
M  V30 5142 H 490.162 4.07464 1.07475 0
M  V30 5143 H 488.837 2.9219 1.39308 0
M  V30 5144 H 487.744 3.65318 -0.805836 0
M  V30 5145 H 489.077 4.81066 -1.041 0
M  V30 5146 N 490.729 0.570148 1.46925 0
M  V30 5147 C 491.977 0.0508523 2.02036 0
M  V30 5148 C 492.298 -1.30885 1.44548 0
M  V30 5149 O 491.568 -1.85647 0.625453 0
M  V30 5150 H 490.148 0.0158088 0.746833 0
M  V30 5151 H 492.81 0.743086 1.80178 0
M  V30 5152 H 491.906 -0.027575 3.12088 0
M  V30 5153 N 492.207 -1.54576 0.307264 0
M  V30 5154 C 493.455 -1.99867 -0.299574 0
M  V30 5155 C 493.776 -1.19714 -1.53927 0
M  V30 5156 O 493.046 -0.29472 -1.9367 0
M  V30 5157 H 491.626 -0.738299 -0.113683 0
M  V30 5158 H 494.288 -1.9032 0.420042 0
M  V30 5159 H 493.384 -3.06901 -0.567283 0
M  V30 5160 N 493.685 -0.035106 -1.57561 0
M  V30 5161 C 494.931 0.637362 -1.93156 0
M  V30 5162 C 495.286 1.69391 -0.912392 0
M  V30 5163 O 494.579 1.91469 0.070735 0
M  V30 5164 C 494.773 1.29149 -3.3325 0
M  V30 5165 C 494.602 0.29983 -4.48699 0
M  V30 5166 C 493.372 -0.102454 -5.05196 0
M  V30 5167 C 495.57 -0.448297 -5.12342 0
M  V30 5168 N 493.552 -1.08866 -6.0417 0
M  V30 5169 C 494.923 -1.28807 -6.06472 0
M  V30 5170 C 496.978 -0.508351 -4.95298 0
M  V30 5171 C 495.681 -2.18248 -6.85391 0
M  V30 5172 C 497.707 -1.39013 -5.7483 0
M  V30 5173 C 497.069 -2.21766 -6.6858 0
M  V30 5174 H 493.168 0.205358 -0.754554 0
M  V30 5175 H 495.752 -0.103682 -1.94424 0
M  V30 5176 H 493.923 2.00264 -3.3279 0
M  V30 5177 H 495.655 1.92147 -3.56177 0
M  V30 5178 H 492.41 0.273223 -4.72811 0
M  V30 5179 H 492.834 -1.57817 -6.58348 0
M  V30 5180 H 497.476 0.117197 -4.22638 0
M  V30 5181 H 495.194 -2.81855 -7.57353 0
M  V30 5182 H 498.78 -1.44096 -5.63673 0
M  V30 5183 H 497.66 -2.88892 -7.29048 0
M  V30 5184 N 495.163 1.55791 0.238111 0
M  V30 5185 C 496.095 1.87513 1.31802 0
M  V30 5186 C 497.108 0.762053 1.43863 0
M  V30 5187 O 498.297 1.04024 1.45056 0
M  V30 5188 C 495.397 2.05402 2.69561 0
M  V30 5189 C 494.57 3.3632 2.79656 0
M  V30 5190 C 493.629 3.43844 3.98319 0
M  V30 5191 O 492.655 4.16994 3.87433 0
M  V30 5192 N 493.857 2.73777 5.11885 0
M  V30 5193 H 496.622 2.80734 1.04922 0
M  V30 5194 H 494.183 1.56135 0.428196 0
M  V30 5195 H 496.175 2.07769 3.47296 0
M  V30 5196 H 494.745 1.18884 2.89111 0
M  V30 5197 H 493.965 3.46195 1.88528 0
M  V30 5198 H 495.253 4.22594 2.83358 0
M  V30 5199 H 494.651 2.14094 5.23622 0
M  V30 5200 H 493.208 2.81825 5.87723 0
M  V30 5201 N 496.642 -0.504142 1.49319 0
M  V30 5202 C 497.919 -1.26548 1.49147 0
M  V30 5203 C 498.299 -2.09977 0.21744 0
M  V30 5204 O 497.647 -2.14028 -0.800269 0
M  V30 5205 C 497.857 -2.12489 2.76857 0
M  V30 5206 C 499.205 -2.7178 3.26222 0
M  V30 5207 O 500.229 -2.22758 2.77952 0
M  V30 5208 O 499.088 -3.61015 4.10281 0
M  V30 5209 H 496.182 -0.572495 0.596806 0
M  V30 5210 H 498.728 -0.51867 1.61579 0
M  V30 5211 H 497.5 -1.50796 3.61077 0
M  V30 5212 H 497.123 -2.94368 2.6727 0
M  V30 5213 N 498.12 -1.38341 -0.754957 0
M  V30 5214 C 499.03 -1.3769 -1.89944 0
M  V30 5215 C 500.046 -0.274194 -1.71826 0
M  V30 5216 O 501.222 -0.512391 -1.94773 0
M  V30 5217 C 498.287 -1.19938 -3.25293 0
M  V30 5218 C 497.348 -2.40001 -3.55946 0
M  V30 5219 C 496.581 -2.23087 -4.84838 0
M  V30 5220 O 496.804 -1.22386 -5.57116 0
M  V30 5221 O 495.738 -3.11646 -5.14937 0
M  V30 5222 H 499.564 -2.3412 -1.93446 0
M  V30 5223 H 497.149 -1.19246 -0.900044 0
M  V30 5224 H 499.031 -1.12093 -4.06218 0
M  V30 5225 H 497.706 -0.265919 -3.22606 0
M  V30 5226 H 496.613 -2.53421 -2.75188 0
M  V30 5227 H 497.946 -3.31973 -3.63394 0
M  V30 5228 N 499.598 0.982988 -1.23187 0
M  V30 5229 C 500.826 1.75921 -1.08901 0
M  V30 5230 C 501.241 1.85341 0.359719 0
M  V30 5231 O 500.598 1.33072 1.24892 0
M  V30 5232 C 500.649 3.18742 -1.70545 0
M  V30 5233 O 500.37 3.09814 -3.09753 0
M  V30 5234 C 501.871 4.1277 -1.61667 0
M  V30 5235 H 499.091 0.552166 -0.381252 0
M  V30 5236 H 501.635 1.23516 -1.62985 0
M  V30 5237 H 499.79 3.68182 -1.20501 0
M  V30 5238 H 500.204 3.99703 -3.39614 0
M  V30 5239 H 501.678 5.10697 -2.09506 0
M  V30 5240 H 502.155 4.3542 -0.575009 0
M  V30 5241 H 502.761 3.69232 -2.11064 0
M  V30 5242 N 501.076 1.04316 1.18135 0
M  V30 5243 C 502.322 0.758899 1.88712 0
M  V30 5244 C 502.677 -0.705863 1.78984 0
M  V30 5245 O 501.97 -1.50874 1.18101 0
M  V30 5246 C 502.164 1.16271 3.37958 0
M  V30 5247 C 501.993 2.66518 3.62213 0
M  V30 5248 C 500.763 3.33702 3.79436 0
M  V30 5249 C 502.961 3.64739 3.62588 0
M  V30 5250 N 500.943 4.72904 3.91452 0
M  V30 5251 C 502.314 4.89627 3.80348 0
M  V30 5252 C 504.369 3.58333 3.4569 0
M  V30 5253 C 503.072 6.08879 3.8296 0
M  V30 5254 C 505.098 4.77016 3.49586 0
M  V30 5255 C 504.46 6.00724 3.67845 0
M  V30 5256 H 500.559 0.329795 0.709055 0
M  V30 5257 H 503.143 1.33334 1.4188 0
M  V30 5258 H 501.314 0.616319 3.83479 0
M  V30 5259 H 503.046 0.829205 3.96114 0
M  V30 5260 H 499.801 2.84105 3.78921 0
M  V30 5261 H 500.225 5.45258 4.01277 0
M  V30 5262 H 504.867 2.63663 3.30517 0
M  V30 5263 H 502.585 7.03903 3.96921 0
M  V30 5264 H 506.171 4.73703 3.37782 0
M  V30 5265 H 505.051 6.91022 3.70753 0
M  V30 5266 N 502.554 -1.34406 0.822964 0
M  V30 5267 C 503.965 -1.8069 0.469879 0
M  V30 5268 C 504.316 -1.68223 -1.00972 0
M  V30 5269 O 503.441 -1.22226 -1.78577 0
M  V30 5270 C 504.036 -3.28064 0.846118 0
M  V30 5271 C 502.595 -3.72428 0.545402 0
M  V30 5272 C 501.742 -2.56116 1.06301 0
M  V30 5273 H 504.693 -1.22153 1.01313 0
M  V30 5274 H 504.714 -3.80205 0.149922 0
M  V30 5275 H 504.226 -3.37107 1.92304 0
M  V30 5276 H 502.327 -3.68924 -0.522109 0
M  V30 5277 H 502.44 -4.66548 1.0895 0
M  V30 5278 H 500.804 -2.50048 0.484554 0
M  V30 5279 H 501.587 -2.67928 2.14638 0
M  V30 5280 N 504.032 -0.577932 -1.46621 0
M  V30 5281 C 505.309 0.00495287 -1.95599 0
M  V30 5282 C 505.689 1.46428 -1.5206 0
M  V30 5283 O 505.037 2.1517 -0.769046 0
M  V30 5284 C 505.247 -0.162114 -3.48623 0
M  V30 5285 C 506.595 -0.0274623 -4.24591 0
M  V30 5286 O 507.619 -0.0907067 -3.56084 0
M  V30 5287 O 506.478 0.1122 -5.46385 0
M  V30 5288 H 503.572 0.0525057 -0.825332 0
M  V30 5289 H 506.118 -0.645914 -1.56927 0
M  V30 5290 H 504.89 -1.17679 -3.73185 0
M  V30 5291 H 504.513 0.525407 -3.94113 0
M  V30 5292 N 505.51 1.54411 -0.315457 0
M  V30 5293 C 506.758 2.00023 0.288971 0
M  V30 5294 C 507.079 1.20529 1.5329 0
M  V30 5295 O 506.349 0.304986 1.93511 0
M  V30 5296 H 504.929 0.738891 0.109766 0
M  V30 5297 H 507.591 1.90094 -0.430129 0
M  V30 5298 H 506.687 3.07198 0.550999 0
M  V30 5299 N 506.988 0.0434614 1.5754 0
M  V30 5300 C 508.234 -0.627109 1.93491 0
M  V30 5301 C 508.589 -1.68904 0.921362 0
M  V30 5302 O 507.882 -1.91504 -0.0605799 0
M  V30 5303 C 508.076 -1.2738 3.3393 0
M  V30 5304 C 507.905 -0.27603 4.48852 0
M  V30 5305 C 506.675 0.129244 5.05135 0
M  V30 5306 C 508.873 0.475462 5.12098 0
M  V30 5307 N 506.855 1.12068 6.03584 0
M  V30 5308 C 508.226 1.32021 6.05781 0
M  V30 5309 C 510.281 0.534611 4.95022 0
M  V30 5310 C 508.984 2.2188 6.84223 0
M  V30 5311 C 511.01 1.42059 5.74085 0
M  V30 5312 C 510.372 2.25309 6.67394 0
M  V30 5313 H 506.471 -0.201354 0.755633 0
M  V30 5314 H 509.055 0.113991 1.94366 0
M  V30 5315 H 507.226 -1.98496 3.33847 0
M  V30 5316 H 508.958 -1.90255 3.57191 0
M  V30 5317 H 505.713 -0.248145 4.72949 0
M  V30 5318 H 506.137 1.61306 6.57502 0
M  V30 5319 H 510.779 -0.0947817 4.22694 0
M  V30 5320 H 508.497 2.85868 7.55847 0
M  V30 5321 H 512.083 1.47083 5.62901 0
M  V30 5322 H 510.963 2.92754 7.27506 0
M  V30 5323 N 508.466 -1.55915 -0.229846 0
M  V30 5324 C 509.694 -1.82617 -0.972562 0
M  V30 5325 C 510.109 -0.621488 -1.78278 0
M  V30 5326 O 509.466 0.409956 -1.77836 0
M  V30 5327 C 509.517 -3.0774 -1.89679 0
M  V30 5328 O 509.238 -4.23559 -1.11934 0
M  V30 5329 C 510.739 -3.47368 -2.75409 0
M  V30 5330 H 507.959 -0.60727 -0.285419 0
M  V30 5331 H 510.503 -2.02996 -0.247579 0
M  V30 5332 H 508.658 -2.89361 -2.57583 0
M  V30 5333 H 509.072 -4.94586 -1.74599 0
M  V30 5334 H 510.546 -4.37977 -3.35977 0
M  V30 5335 H 511.023 -2.68737 -3.47386 0
M  V30 5336 H 511.629 -3.68158 -2.12931 0
M  V30 5337 N 509.944 0.496216 -1.49584 0
M  V30 5338 C 510.907 1.57952 -1.66084 0
M  V30 5339 C 511.907 1.51729 -0.53244 0
M  V30 5340 O 513.097 1.54796 -0.79899 0
M  V30 5341 C 510.229 2.97604 -1.66268 0
M  V30 5342 H 511.422 1.44649 -2.6271 0
M  V30 5343 H 508.975 0.7208 -1.38687 0
M  V30 5344 H 509.71 3.16378 -0.712432 0
M  V30 5345 H 509.495 3.03528 -2.4822 0
M  V30 5346 H 510.985 3.76301 -1.81073 0
M  V30 5347 N 511.423 1.38739 0.74761 0
M  V30 5348 C 512.669 1.35475 1.50912 0
M  V30 5349 C 513.002 -0.0533093 1.94127 0
M  V30 5350 O 512.277 -1.01572 1.65871 0
M  V30 5351 C 512.56 2.31582 2.75757 0
M  V30 5352 C 512.413 3.81274 2.38642 0
M  V30 5353 C 513.732 2.25722 3.77806 0
M  V30 5354 H 510.851 0.493427 0.547447 0
M  V30 5355 H 513.493 1.69634 0.855823 0
M  V30 5356 H 511.643 2.02582 3.31501 0
M  V30 5357 H 513.315 4.20972 1.88626 0
M  V30 5358 H 511.558 3.98664 1.71025 0
M  V30 5359 H 512.229 4.4399 3.27989 0
M  V30 5360 H 514.705 2.51336 3.31616 0
M  V30 5361 H 513.581 2.95069 4.62845 0
M  V30 5362 H 513.842 1.25803 4.23823 0
M  V30 5363 N 512.901 -0.976442 1.23707 0
M  V30 5364 C 514.129 -1.75341 1.09833 0
M  V30 5365 C 514.544 -1.8553 -0.349885 0
M  V30 5366 O 513.901 -1.33732 -1.24185 0
M  V30 5367 C 513.952 -3.17833 1.72233 0
M  V30 5368 O 513.673 -3.08167 3.11391 0
M  V30 5369 C 515.174 -4.11906 1.63853 0
M  V30 5370 H 512.394 -0.550137 0.384175 0
M  V30 5371 H 514.938 -1.2265 1.63638 0
M  V30 5372 H 513.093 -3.67538 1.22452 0
M  V30 5373 H 513.507 -3.97897 3.41729 0
M  V30 5374 H 514.981 -5.09579 2.12211 0
M  V30 5375 H 515.458 -4.35109 0.598092 0
M  V30 5376 H 516.064 -3.68107 2.13019 0
M  V30 5377 N 514.379 -1.04941 -1.1758 0
M  V30 5378 C 515.795 -0.770282 -1.39781 0
M  V30 5379 C 515.995 0.636417 -1.91186 0
M  V30 5380 O 515.051 1.39923 -2.10185 0
M  V30 5381 C 516.364 -1.82376 -2.3908 0
M  V30 5382 C 517.912 -1.84569 -2.52791 0
M  V30 5383 C 518.387 -2.88933 -3.55361 0
M  V30 5384 N 519.878 -2.8788 -3.62877 0
M  V30 5385 C 520.613 -3.65282 -4.41992 0
M  V30 5386 N 520.109 -4.52461 -5.24643 0
M  V30 5387 N 521.902 -3.53732 -4.36841 0
M  V30 5388 H 514.053 -1.95705 -0.825438 0
M  V30 5389 H 516.316 -0.847284 -0.425222 0
M  V30 5390 H 516.022 -2.83323 -2.08376 0
M  V30 5391 H 515.896 -1.66327 -3.38549 0
M  V30 5392 H 518.283 -0.842879 -2.82807 0
M  V30 5393 H 518.364 -2.04696 -1.53406 0
M  V30 5394 H 518.008 -3.89398 -3.26085 0
M  V30 5395 H 517.938 -2.66059 -4.54445 0
M  V30 5396 H 520.429 -2.24666 -3.03864 0
M  V30 5397 H 520.742 -5.08211 -5.82187 0
M  V30 5398 H 519.087 -4.56524 -5.24033 0
M  V30 5399 H 522.278 -2.85021 -3.71323 0
M  V30 5400 H 522.451 -4.14302 -4.98255 0
M  V30 5401 N 515.857 1.33968 -0.830081 0
M  V30 5402 C 517.134 1.92554 -0.343858 0
M  V30 5403 C 517.514 1.7573 1.16971 0
M  V30 5404 O 516.862 1.14035 1.98011 0
M  V30 5405 C 517.072 3.40147 -0.781073 0
M  V30 5406 C 518.42 4.17299 -0.78402 0
M  V30 5407 O 519.444 3.48762 -0.724112 0
M  V30 5408 O 518.303 5.39631 -0.863739 0
M  V30 5409 H 515.397 0.821469 -0.0954827 0
M  V30 5410 H 517.943 1.42897 -0.915348 0
M  V30 5411 H 516.715 3.46225 -1.82329 0
M  V30 5412 H 516.338 3.97166 -0.18567 0
M  V30 5413 N 517.335 0.585699 1.46312 0
M  V30 5414 C 518.583 0.072278 2.01971 0
M  V30 5415 C 518.904 -1.29345 1.45928 0
M  V30 5416 O 518.174 -1.84973 0.645109 0
M  V30 5417 H 516.754 0.023729 0.746623 0
M  V30 5418 H 519.416 0.762155 1.7938 0
M  V30 5419 H 518.512 0.00552767 3.121 0
M  V30 5420 N 518.813 -1.54241 0.323641 0
M  V30 5421 C 519.76 -2.24339 -0.542277 0
M  V30 5422 C 520.73 -1.23421 -1.11159 0
M  V30 5423 O 521.915 -1.52104 -1.15192 0
M  V30 5424 C 519.055 -3.00479 -1.69725 0
M  V30 5425 C 518.168 -4.16214 -1.15716 0
M  V30 5426 C 517.303 -4.79884 -2.27783 0
M  V30 5427 C 516.342 -5.87722 -1.71023 0
M  V30 5428 N 515.479 -6.45254 -2.76752 0
M  V30 5429 H 520.319 -2.97935 0.0620613 0
M  V30 5430 H 517.856 -1.47039 0.0423993 0
M  V30 5431 H 519.814 -3.42869 -2.3769 0
M  V30 5432 H 518.444 -2.29217 -2.27288 0
M  V30 5433 H 517.496 -3.78605 -0.369063 0
M  V30 5434 H 518.808 -4.93838 -0.701832 0
M  V30 5435 H 517.962 -5.25243 -3.03651 0
M  V30 5436 H 516.701 -4.01641 -2.76652 0
M  V30 5437 H 515.706 -5.41765 -0.936518 0
M  V30 5438 H 516.931 -6.67863 -1.2303 0
M  V30 5439 H 514.877 -5.69884 -3.24912 0
M  V30 5440 H 514.794 -7.18292 -2.35782 0
M  V30 5441 H 516.062 -6.95269 -3.5245 0
M  V30 5442 N 520.291 -0.0518155 -1.57515 0
M  V30 5443 C 521.707 0.304735 -1.56664 0
M  V30 5444 C 521.907 1.71395 -1.05953 0
M  V30 5445 O 520.963 2.42123 -0.716414 0
M  V30 5446 C 522.276 0.132614 -3.00407 0
M  V30 5447 C 523.824 0.20367 -3.12337 0
M  V30 5448 C 524.299 0.0600706 -4.57961 0
M  V30 5449 N 525.79 0.116326 -4.63054 0
M  V30 5450 C 526.525 0.0293363 -5.73392 0
M  V30 5451 N 526.021 -0.110038 -6.92713 0
M  V30 5452 N 527.814 0.0849651 -5.62036 0
M  V30 5453 H 519.965 -0.973056 -1.888 0
M  V30 5454 H 522.228 -0.377781 -0.869474 0
M  V30 5455 H 521.934 -0.839019 -3.41546 0
M  V30 5456 H 521.808 0.893376 -3.66468 0
M  V30 5457 H 524.195 1.16578 -2.71097 0
M  V30 5458 H 524.276 -0.587857 -2.48954 0
M  V30 5459 H 523.92 -0.898715 -4.99886 0
M  V30 5460 H 523.85 0.87075 -5.19351 0
M  V30 5461 H 526.341 0.22327 -3.7724 0
M  V30 5462 H 526.654 -0.169104 -7.72615 0
M  V30 5463 H 524.999 -0.145132 -6.94848 0
M  V30 5464 H 528.19 0.192411 -4.67704 0
M  V30 5465 H 528.363 0.0137131 -6.47999 0
M  V30 5466 N 521.769 1.56035 0.221574 0
M  V30 5467 C 522.994 1.83476 0.967026 0
M  V30 5468 C 523.419 0.632139 1.7716 0
M  V30 5469 O 522.777 -0.419082 1.7639 0
M  V30 5470 C 522.825 3.08907 1.86034 0
M  V30 5471 O 521.929 2.876 2.95567 0
M  V30 5472 H 521.27 0.604913 0.273817 0
M  V30 5473 H 523.8 2.03247 0.234893 0
M  V30 5474 H 523.81 3.3901 2.27016 0
M  V30 5475 H 522.485 3.96068 1.26898 0
M  V30 5476 H 521.062 2.6873 2.58532 0
M  V30 5477 N 523.247 -0.488276 1.49845 0
M  V30 5478 C 524.21 -1.57069 1.66919 0
M  V30 5479 C 525.21 -1.51445 0.540479 0
M  V30 5480 O 526.4 -1.5437 0.807188 0
M  V30 5481 C 523.532 -2.96718 1.67844 0
M  V30 5482 H 524.725 -1.43254 2.63474 0
M  V30 5483 H 522.278 -0.713435 1.39068 0
M  V30 5484 H 523.013 -3.15996 0.7292 0
M  V30 5485 H 522.798 -3.02208 2.49826 0
M  V30 5486 H 524.288 -3.75335 1.83066 0
M  V30 5487 N 524.725 -1.39134 -0.740242 0
M  V30 5488 C 525.657 -1.33332 -1.86428 0
M  V30 5489 C 526.67 -0.243042 -1.60976 0
M  V30 5490 O 527.859 -0.501608 -1.71307 0
M  V30 5491 C 524.959 -1.04626 -3.22346 0
M  V30 5492 C 524.132 -2.24826 -3.75196 0
M  V30 5493 C 523.191 -1.92659 -4.89662 0
M  V30 5494 O 522.217 -2.6529 -5.03597 0
M  V30 5495 N 523.419 -0.889575 -5.73643 0
M  V30 5496 H 526.184 -2.30196 -1.91911 0
M  V30 5497 H 523.745 -1.33168 -0.920756 0
M  V30 5498 H 525.737 -0.811347 -3.96484 0
M  V30 5499 H 524.307 -0.165129 -3.12164 0
M  V30 5500 H 523.527 -2.64301 -2.9247 0
M  V30 5501 H 524.815 -3.05015 -4.07239 0
M  V30 5502 H 524.213 -0.287529 -5.64969 0
M  V30 5503 H 522.77 -0.714557 -6.47871 0
M  V30 5504 N 526.204 0.969867 -1.24223 0
M  V30 5505 C 527.451 1.71256 -1.08063 0
M  V30 5506 C 527.779 1.90734 0.380872 0
M  V30 5507 O 527.034 1.46469 1.29789 0
M  V30 5508 C 527.333 3.10883 -1.76314 0
M  V30 5509 C 526.999 3.11252 -3.26241 0
M  V30 5510 C 525.661 3.1106 -3.67144 0
M  V30 5511 C 528.013 3.05751 -4.22097 0
M  V30 5512 C 525.341 3.03097 -5.02344 0
M  V30 5513 C 527.693 2.9933 -5.57301 0
M  V30 5514 C 526.357 2.97466 -5.97554 0
M  V30 5515 H 525.627 0.62667 -0.395431 0
M  V30 5516 H 528.274 1.13422 -1.54297 0
M  V30 5517 H 526.579 3.72168 -1.22468 0
M  V30 5518 H 528.276 3.67138 -1.61277 0
M  V30 5519 H 524.866 3.12165 -2.93685 0
M  V30 5520 H 529.05 3.05031 -3.91497 0
M  V30 5521 H 524.306 3.00013 -5.32731 0
M  V30 5522 H 528.48 2.94033 -6.31283 0
M  V30 5523 H 526.107 2.91051 -7.02277 0
M  V30 5524 N 527.682 1.05563 1.17022 0
M  V30 5525 C 528.592 0.670758 2.24807 0
M  V30 5526 C 529.608 -0.309865 1.71219 0
M  V30 5527 O 530.784 -0.161025 2.00755 0
M  V30 5528 C 527.849 0.055337 3.46656 0
M  V30 5529 C 526.91 1.08688 4.15314 0
M  V30 5530 C 526.143 0.500736 5.31346 0
M  V30 5531 O 526.366 -0.688718 5.66227 0
M  V30 5532 O 525.3 1.23683 5.89055 0
M  V30 5533 H 529.126 1.56914 2.60023 0
M  V30 5534 H 526.711 0.827428 1.24395 0
M  V30 5535 H 528.593 -0.286492 4.20425 0
M  V30 5536 H 527.268 -0.816638 3.13229 0
M  V30 5537 H 526.175 1.48077 3.43546 0
M  V30 5538 H 527.508 1.93014 4.52777 0
M  V30 5539 N 529.16 -1.33526 0.837174 0
M  V30 5540 C 530.11 -2.2672 0.241269 0
M  V30 5541 C 531.094 -1.49183 -0.602756 0
M  V30 5542 O 532.286 -1.71052 -0.455002 0
M  V30 5543 C 529.415 -3.38294 -0.584125 0
M  V30 5544 C 528.501 -4.23231 0.271315 0
M  V30 5545 N 528.892 -4.87473 1.34922 0
M  V30 5546 C 527.19 -4.45962 0.0580589 0
M  V30 5547 C 527.891 -5.50685 1.87405 0
M  V30 5548 N 526.867 -5.30732 1.17578 0
M  V30 5549 H 530.669 -2.73903 1.06558 0
M  V30 5550 H 528.183 -1.47411 0.68145 0
M  V30 5551 H 530.18 -4.04044 -1.02731 0
M  V30 5552 H 528.84 -2.9266 -1.40643 0
M  V30 5553 H 529.851 -4.88077 1.7321 0
M  V30 5554 H 526.528 -4.11052 -0.730938 0
M  V30 5555 H 527.918 -6.11845 2.77661 0
M  V30 5556 N 530.638 -0.59345 -1.46 0
M  V30 5557 C 531.866 -0.0890934 -2.06708 0
M  V30 5558 C 532.281 1.2205 -1.44046 0
M  V30 5559 O 531.638 1.74029 -0.549551 0
M  V30 5560 C 531.689 0.0720263 -3.61428 0
M  V30 5561 O 531.41 -1.18574 -4.21748 0
M  V30 5562 C 532.911 0.609487 -4.3909 0
M  V30 5563 H 530.131 -0.0623628 -0.668096 0
M  V30 5564 H 532.675 -0.817171 -1.87464 0
M  V30 5565 H 530.83 0.750369 -3.80063 0
M  V30 5566 H 531.244 -1.0064 -5.14754 0
M  V30 5567 H 532.718 0.671363 -5.47902 0
M  V30 5568 H 533.195 1.62878 -4.07882 0
M  V30 5569 H 533.801 -0.03434 -4.25286 0
M  V30 5570 N 532.116 1.54067 -0.331816 0
M  V30 5571 C 533.046 2.27569 0.522932 0
M  V30 5572 C 534.027 1.28679 1.11247 0
M  V30 5573 O 535.212 1.57504 1.13605 0
M  V30 5574 C 532.342 3.0397 1.67987 0
M  V30 5575 C 531.296 4.10267 1.21924 0
M  V30 5576 C 530.622 4.74555 2.46377 0
M  V30 5577 C 531.922 5.21268 0.32815 0
M  V30 5578 H 533.616 2.99264 -0.0901977 0
M  V30 5579 H 531.162 1.4393 -0.044821 0
M  V30 5580 H 533.115 3.54123 2.28418 0
M  V30 5581 H 531.839 2.29906 2.31971 0
M  V30 5582 H 530.498 3.61009 0.637809 0
M  V30 5583 H 530.146 3.97098 3.08743 0
M  V30 5584 H 529.846 5.46363 2.16243 0
M  V30 5585 H 531.37 5.27487 3.07555 0
M  V30 5586 H 532.784 5.67128 0.838978 0
M  V30 5587 H 531.181 5.99982 0.119228 0
M  V30 5588 H 532.251 4.80673 -0.638839 0
M  V30 5589 N 533.594 0.0601682 1.57485 0
M  V30 5590 C 534.524 -0.90889 2.15085 0
M  V30 5591 C 535.505 -1.31838 1.07484 0
M  V30 5592 O 536.69 -1.3915 1.35466 0
M  V30 5593 C 533.82 -2.18059 2.7031 0
M  V30 5594 C 532.774 -1.91088 3.82974 0
M  V30 5595 C 532.1 -3.24789 4.24754 0
M  V30 5596 C 533.4 -1.22535 5.07723 0
M  V30 5597 H 535.094 -0.429093 2.96309 0
M  V30 5598 H 532.64 -0.204952 1.42534 0
M  V30 5599 H 534.593 -2.86258 3.09248 0
M  V30 5600 H 533.317 -2.6826 1.8629 0
M  V30 5601 H 531.976 -1.25297 3.44523 0
M  V30 5602 H 531.624 -3.72809 3.37672 0
M  V30 5603 H 531.324 -3.07538 5.00694 0
M  V30 5604 H 532.848 -3.94205 4.66299 0
M  V30 5605 H 534.262 -1.80783 5.4405 0
M  V30 5606 H 532.659 -1.1558 5.88864 0
M  V30 5607 H 533.729 -0.202692 4.84476 0
M  V30 5608 N 535.072 -1.5615 -0.213296 0
M  V30 5609 C 536.318 -1.79812 -0.937849 0
M  V30 5610 C 536.651 -0.631201 -1.83656 0
M  V30 5611 O 535.926 0.369165 -1.90964 0
M  V30 5612 C 536.209 -3.13613 -1.76972 0
M  V30 5613 C 536.062 -4.40766 -0.89695 0
M  V30 5614 C 537.381 -3.43931 -2.7459 0
M  V30 5615 H 534.5 -0.654138 -0.339518 0
M  V30 5616 H 537.142 -1.88877 -0.20623 0
M  V30 5617 H 535.292 -3.06015 -2.39347 0
M  V30 5618 H 536.964 -4.60392 -0.289306 0
M  V30 5619 H 535.207 -4.33326 -0.202756 0
M  V30 5620 H 535.878 -5.30843 -1.51358 0
M  V30 5621 H 538.354 -3.5171 -2.22349 0
M  V30 5622 H 537.23 -4.38706 -3.29891 0
M  V30 5623 H 537.491 -2.6651 -3.52739 0
M  V30 5624 N 536.55 0.480323 -1.50102 0
M  V30 5625 C 537.778 1.25657 -1.64371 0
M  V30 5626 C 538.193 1.86011 -0.323316 0
M  V30 5627 O 537.55 1.68803 0.693682 0
M  V30 5628 C 537.601 2.37197 -2.728 0
M  V30 5629 O 537.322 1.7932 -3.9972 0
M  V30 5630 C 538.823 3.2823 -2.9796 0
M  V30 5631 H 536.043 0.380369 -0.552775 0
M  V30 5632 H 538.587 0.574379 -1.96268 0
M  V30 5633 H 536.742 3.01208 -2.43623 0
M  V30 5634 H 537.156 2.52701 -4.59611 0
M  V30 5635 H 538.63 4.02725 -3.77513 0
M  V30 5636 H 539.107 3.86462 -2.08671 0
M  V30 5637 H 539.713 2.69964 -3.28633 0
M  V30 5638 N 538.028 1.39524 0.732853 0
M  V30 5639 C 539.305 1.27373 1.48444 0
M  V30 5640 C 539.685 -0.115725 2.10783 0
M  V30 5641 O 539.033 -1.12713 1.98766 0
M  V30 5642 C 539.243 2.39966 2.53412 0
M  V30 5643 C 540.591 2.79384 3.19733 0
M  V30 5644 O 541.615 2.39431 2.63725 0
M  V30 5645 O 540.474 3.48353 4.21085 0
M  V30 5646 H 537.568 0.499272 0.659285 0
M  V30 5647 H 540.114 1.51403 0.766496 0
M  V30 5648 H 538.886 3.32845 2.05742 0
M  V30 5649 H 538.509 2.17612 3.32762 0
M  V30 5650 N 539.506 -0.963266 1.24736 0
M  V30 5651 C 540.734 -1.74166 1.11686 0
M  V30 5652 C 541.149 -1.8589 -0.330187 0
M  V30 5653 O 540.506 -1.35042 -1.2276 0
M  V30 5654 C 540.557 -3.15989 1.75595 0
M  V30 5655 O 540.278 -3.04847 3.14642 0
M  V30 5656 C 541.779 -4.10145 1.68213 0
M  V30 5657 H 538.999 -0.546031 0.389989 0
M  V30 5658 H 541.543 -1.20907 1.64929 0
M  V30 5659 H 539.698 -3.66219 1.26343 0
M  V30 5660 H 540.112 -3.9425 3.4593 0
M  V30 5661 H 541.586 -5.07299 2.17604 0
M  V30 5662 H 542.063 -4.3445 0.644208 0
M  V30 5663 H 542.669 -3.65827 2.16912 0
M  V30 5664 N 540.985 -1.06182 -1.16461 0
M  V30 5665 C 542.233 -0.776326 -1.86595 0
M  V30 5666 C 542.554 0.69921 -1.82033 0
M  V30 5667 O 541.824 1.50579 -1.2531 0
M  V30 5668 H 540.404 -0.284184 -0.690832 0
M  V30 5669 H 543.066 -1.34308 -1.41235 0
M  V30 5670 H 542.162 -1.10022 -2.92064 0
M  V30 5671 N 542.463 1.3308 -0.844243 0
M  V30 5672 C 543.703 1.99414 -0.448697 0
M  V30 5673 C 544.067 1.65398 0.975058 0
M  V30 5674 O 545.268 2.24741 1.47461 0
M  V30 5675 C 543.539 3.51081 -0.669089 0
M  V30 5676 S 545.098 4.37241 -0.369564 0
M  V30 5677 H 541.916 0.690736 -0.168538 0
M  V30 5678 H 544.518 1.61977 -1.0947 0
M  V30 5679 H 543.222 3.73326 -1.70457 0
M  V30 5680 H 542.753 3.93399 -0.00913211 0
M  V30 5681 H 544.768 4.89568 0.808552 0
M  V30 5682 N 543.941 0.601185 1.45683 0
M  V30 5683 C 544.851 -0.123395 2.34275 0
M  V30 5684 C 545.867 -0.86702 1.5086 0
M  V30 5685 O 547.043 -0.826049 1.8368 0
M  V30 5686 C 544.108 -1.11237 3.2837 0
M  V30 5687 C 543.169 -0.371405 4.2769 0
M  V30 5688 C 542.402 -1.31327 5.1729 0
M  V30 5689 O 542.625 -2.55078 5.10188 0
M  V30 5690 O 541.559 -0.813811 5.96373 0
M  V30 5691 H 545.385 0.604483 2.97623 0
M  V30 5692 H 542.97 0.361477 1.44961 0
M  V30 5693 H 544.852 -1.68214 3.8637 0
M  V30 5694 H 543.527 -1.82139 2.67595 0
M  V30 5695 H 542.434 0.24067 3.73325 0
M  V30 5696 H 543.767 0.296998 4.91303 0
M  V30 5697 N 545.419 -1.53889 0.339982 0
M  V30 5698 C 546.668 -2.00035 -0.258604 0
M  V30 5699 C 546.981 -1.23179 -1.51942 0
M  V30 5700 O 548.187 -1.59784 -2.19503 0
M  V30 5701 C 546.643 -3.56249 -0.511359 0
M  V30 5702 C 546.251 -4.41957 0.733349 0
M  V30 5703 C 547.995 -4.1082 -1.069 0
M  V30 5704 C 545.902 -5.89673 0.451591 0
M  V30 5705 H 544.832 -0.747284 -0.10041 0
M  V30 5706 H 547.483 -1.77776 0.454758 0
M  V30 5707 H 545.865 -3.7456 -1.28533 0
M  V30 5708 H 547.039 -4.35421 1.50815 0
M  V30 5709 H 545.354 -3.9836 1.21237 0
M  V30 5710 H 547.951 -5.18789 -1.2947 0
M  V30 5711 H 548.294 -3.63817 -2.02343 0
M  V30 5712 H 548.827 -3.96205 -0.355817 0
M  V30 5713 H 545.566 -6.40903 1.37565 0
M  V30 5714 H 545.086 -5.99122 -0.285193 0
M  V30 5715 H 546.765 -6.46965 0.0675067 0
M  V30 5716 N 546.897 -0.0685191 -1.57451 0
M  V30 5717 C 547.827 0.89747 -2.15564 0
M  V30 5718 C 548.808 1.31266 -1.08181 0
M  V30 5719 O 549.993 1.38429 -1.36202 0
M  V30 5720 C 547.123 2.16623 -2.71463 0
M  V30 5721 C 546.077 1.89054 -3.83982 0
M  V30 5722 C 545.403 3.22532 -4.26471 0
M  V30 5723 C 546.703 1.1984 -5.08366 0
M  V30 5724 H 548.397 0.413373 -2.96533 0
M  V30 5725 H 545.943 0.197391 -1.42641 0
M  V30 5726 H 547.896 2.84614 -3.10761 0
M  V30 5727 H 546.62 2.67269 -1.8771 0
M  V30 5728 H 545.279 1.23469 -3.45183 0
M  V30 5729 H 544.927 3.71013 -3.39644 0
M  V30 5730 H 544.627 3.04879 -5.02317 0
M  V30 5731 H 546.151 3.91727 -4.68383 0
M  V30 5732 H 547.565 1.77896 -5.45001 0
M  V30 5733 H 545.962 1.12456 -5.89469 0
M  V30 5734 H 547.032 0.176996 -4.84577 0
M  V30 5735 N 548.375 1.56261 0.205012 0
M  V30 5736 C 549.603 1.84141 0.943386 0
M  V30 5737 C 550.018 0.649772 1.77266 0
M  V30 5738 O 549.375 -0.381612 1.78466 0
M  V30 5739 C 549.426 3.10719 1.84759 0
M  V30 5740 O 549.147 4.25286 1.05181 0
M  V30 5741 C 550.648 3.51706 2.69848 0
M  V30 5742 H 547.868 0.611734 0.275721 0
M  V30 5743 H 550.412 2.03364 0.215253 0
M  V30 5744 H 548.567 2.93422 2.52947 0
M  V30 5745 H 548.981 4.97301 1.66709 0
M  V30 5746 H 550.455 4.43266 3.28967 0
M  V30 5747 H 550.932 2.7423 3.43067 0
M  V30 5748 H 551.538 3.71499 2.07047 0
M  V30 5749 N 549.853 -0.472356 1.50355 0
M  V30 5750 C 551.269 -0.806001 1.37753 0
M  V30 5751 C 551.469 -1.968 0.432649 0
M  V30 5752 O 550.525 -2.52189 -0.12519 0
M  V30 5753 C 551.838 -1.11926 2.79093 0
M  V30 5754 C 553.386 -1.22579 2.87999 0
M  V30 5755 C 553.861 -1.57218 4.3017 0
M  V30 5756 N 555.352 -1.64212 4.33115 0
M  V30 5757 C 556.087 -1.92517 5.40116 0
M  V30 5758 N 555.583 -2.1885 6.57325 0
M  V30 5759 N 557.376 -1.94008 5.27558 0
M  V30 5760 H 549.527 0.293451 2.10363 0
M  V30 5761 H 551.79 0.0687672 0.945503 0
M  V30 5762 H 551.496 -0.338504 3.50067 0
M  V30 5763 H 551.37 -2.05577 3.16256 0
M  V30 5764 H 553.757 -1.99722 2.17245 0
M  V30 5765 H 553.838 -0.269107 2.54381 0
M  V30 5766 H 553.482 -0.806154 5.01461 0
M  V30 5767 H 553.412 -2.54034 4.61275 0
M  V30 5768 H 555.903 -1.45906 3.48597 0
M  V30 5769 H 556.216 -2.39718 7.3468 0
M  V30 5770 H 554.561 -2.16245 6.60502 0
M  V30 5771 H 557.752 -1.72931 4.34986 0
M  V30 5772 H 557.925 -2.15731 6.11035 0
M  V30 5773 N 551.331 -1.39911 -0.725443 0
M  V30 5774 C 552.747 -1.21725 -1.03224 0
M  V30 5775 C 552.947 -0.0855224 -2.01318 0
M  V30 5776 O 552.003 0.55976 -2.46217 0
M  V30 5777 C 553.316 -2.55511 -1.58539 0
M  V30 5778 C 554.864 -2.62439 -1.70572 0
M  V30 5779 C 555.339 -3.9647 -2.29294 0
M  V30 5780 N 556.83 -3.98159 -2.36692 0
M  V30 5781 C 557.565 -4.98647 -2.83088 0
M  V30 5782 N 557.061 -6.0953 -3.2931 0
M  V30 5783 N 558.854 -4.8602 -2.82384 0
M  V30 5784 H 551.005 -2.12267 -0.075048 0
M  V30 5785 H 553.268 -0.943136 -0.0959066 0
M  V30 5786 H 552.974 -3.38926 -0.939249 0
M  V30 5787 H 552.848 -2.75905 -2.57208 0
M  V30 5788 H 555.235 -1.79401 -2.34306 0
M  V30 5789 H 555.316 -2.45885 -0.705297 0
M  V30 5790 H 554.96 -4.79942 -1.66186 0
M  V30 5791 H 554.89 -4.10349 -3.30032 0
M  V30 5792 H 557.381 -3.18085 -2.04035 0
M  V30 5793 H 557.694 -6.82106 -3.6325 0
M  V30 5794 H 556.039 -6.1311 -3.27294 0
M  V30 5795 H 559.23 -3.98493 -2.45603 0
M  V30 5796 H 559.403 -5.64478 -3.18226 0
M  V30 5797 N 552.809 0.956637 -1.25245 0
M  V30 5798 C 553.739 2.07058 -1.07931 0
M  V30 5799 C 554.72 1.70096 0.0110361 0
M  V30 5800 O 555.905 1.93555 -0.158121 0
M  V30 5801 C 553.035 3.40272 -0.695124 0
M  V30 5802 C 551.989 3.91235 -1.73549 0
M  V30 5803 C 551.315 5.20921 -1.20604 0
M  V30 5804 C 552.615 4.17837 -3.13385 0
M  V30 5805 H 554.309 2.218 -2.01109 0
M  V30 5806 H 551.855 1.06581 -0.968326 0
M  V30 5807 H 553.808 4.1765 -0.560949 0
M  V30 5808 H 552.532 3.25462 0.272355 0
M  V30 5809 H 551.191 3.16025 -1.85807 0
M  V30 5810 H 550.839 5.02479 -0.228846 0
M  V30 5811 H 550.539 5.55987 -1.90136 0
M  V30 5812 H 552.063 6.00897 -1.08421 0
M  V30 5813 H 553.477 4.8588 -3.04292 0
M  V30 5814 H 551.874 4.64154 -3.80369 0
M  V30 5815 H 552.944 3.2419 -3.60595 0
M  V30 5816 N 554.287 1.06798 1.15896 0
M  V30 5817 C 555.564 0.701057 1.82605 0
M  V30 5818 C 555.944 -0.817066 1.94646 0
M  V30 5819 O 555.292 -1.72933 1.49353 0
M  V30 5820 C 555.502 1.40895 3.19296 0
M  V30 5821 C 556.85 1.55744 3.95005 0
M  V30 5822 O 557.874 1.36927 3.28831 0
M  V30 5823 O 556.733 1.86658 5.13635 0
M  V30 5824 H 553.827 0.248791 0.78869 0
M  V30 5825 H 556.373 1.16857 1.23055 0
M  V30 5826 H 555.145 2.4439 3.05596 0
M  V30 5827 H 554.768 0.931847 3.86526 0
M  V30 5828 N 555.766 -1.3263 0.851289 0
M  V30 5829 C 556.991 -2.02097 0.466006 0
M  V30 5830 C 557.416 -1.63574 -0.928709 0
M  V30 5831 O 556.774 -0.834665 -1.60944 0
M  V30 5832 C 556.822 -3.55425 0.608737 0
M  V30 5833 O 555.926 -4.10827 -0.359878 0
M  V30 5834 H 555.267 -0.636911 0.187724 0
M  V30 5835 H 557.797 -1.69253 1.14955 0
M  V30 5836 H 557.807 -4.04986 0.495006 0
M  V30 5837 H 556.482 -3.82806 1.62581 0
M  V30 5838 H 555.059 -3.72349 -0.202666 0
M  V30 5839 N 557.244 -0.608902 -1.45362 0
M  V30 5840 C 558.207 0.0992563 -2.28985 0
M  V30 5841 C 559.207 0.793841 -1.39838 0
M  V30 5842 O 560.397 0.641804 -1.61946 0
M  V30 5843 C 557.529 1.15073 -3.20891 0
M  V30 5844 H 558.722 -0.635964 -2.93079 0
M  V30 5845 H 556.275 -0.368007 -1.51906 0
M  V30 5846 H 557.01 1.91667 -2.616 0
M  V30 5847 H 556.795 0.656867 -3.86559 0
M  V30 5848 H 558.285 1.64665 -3.83765 0
M  V30 5849 N 558.722 1.53707 -0.348139 0
M  V30 5850 C 560.138 1.596 0.00361134 0
M  V30 5851 C 560.338 1.36394 1.4832 0
M  V30 5852 O 559.394 1.16046 2.24253 0
M  V30 5853 C 560.707 2.97512 -0.436682 0
M  V30 5854 C 562.255 3.10568 -0.389416 0
M  V30 5855 C 562.73 4.50866 -0.805249 0
M  V30 5856 N 564.221 4.56929 -0.759616 0
M  V30 5857 C 564.956 5.63643 -1.05327 0
M  V30 5858 N 564.452 6.78189 -1.41531 0
M  V30 5859 N 566.245 5.5354 -0.977207 0
M  V30 5860 H 558.396 1.67044 -1.31187 0
M  V30 5861 H 560.659 0.782559 -0.535075 0
M  V30 5862 H 560.365 3.19575 -1.46849 0
M  V30 5863 H 560.239 3.76742 0.185744 0
M  V30 5864 H 562.626 2.88226 0.633228 0
M  V30 5865 H 562.707 2.33387 -1.04711 0
M  V30 5866 H 562.351 4.73943 -1.82593 0
M  V30 5867 H 562.281 5.26452 -0.124989 0
M  V30 5868 H 564.772 3.74675 -0.49265 0
M  V30 5869 H 565.085 7.55541 -1.62411 0
M  V30 5870 H 563.43 6.79624 -1.45381 0
M  V30 5871 H 566.621 4.62932 -0.693675 0
M  V30 5872 H 566.794 6.36614 -1.2094 0
M  V30 5873 N 560.2 0.0768682 1.57412 0
M  V30 5874 C 561.611 -0.455037 1.8107 0
M  V30 5875 C 561.962 -1.69323 0.991162 0
M  V30 5876 O 561.087 -2.15328 0.215156 0
M  V30 5877 C 561.682 -0.832316 3.28417 0
M  V30 5878 C 560.241 -1.30906 3.52903 0
M  V30 5879 C 559.388 -0.296714 2.75708 0
M  V30 5880 H 562.339 0.302514 1.5579 0
M  V30 5881 H 562.36 -1.69333 3.40744 0
M  V30 5882 H 561.872 0.0690532 3.88039 0
M  V30 5883 H 559.973 -2.22875 2.98592 0
M  V30 5884 H 560.086 -1.28348 4.61588 0
M  V30 5885 H 558.45 -0.775059 2.42621 0
M  V30 5886 H 559.233 0.597015 3.38069 0
M  V30 5887 N 561.678 -1.56367 -0.196722 0
M  V30 5888 C 562.628 -1.9082 -1.24787 0
M  V30 5889 C 563.612 -0.773719 -1.41076 0
M  V30 5890 O 564.804 -1.03655 -1.43474 0
M  V30 5891 C 561.933 -2.24982 -2.59303 0
M  V30 5892 C 561.019 -3.44882 -2.46814 0
M  V30 5893 N 561.41 -4.62835 -2.04003 0
M  V30 5894 C 559.708 -3.48988 -2.77711 0
M  V30 5895 C 560.409 -5.44993 -2.03366 0
M  V30 5896 N 559.385 -4.85356 -2.44807 0
M  V30 5897 H 563.187 -2.79516 -0.908175 0
M  V30 5898 H 560.701 -1.57265 -0.405166 0
M  V30 5899 H 562.698 -2.47848 -3.35227 0
M  V30 5900 H 561.358 -1.37611 -2.94098 0
M  V30 5901 H 562.369 -4.87532 -1.74738 0
M  V30 5902 H 559.046 -2.72029 -3.16712 0
M  V30 5903 H 560.436 -6.49464 -1.72181 0
M  V30 5904 N 563.156 0.464375 -1.50603 0
M  V30 5905 C 564.403 1.21596 -1.61928 0
M  V30 5906 C 564.731 1.91804 -0.322737 0
M  V30 5907 O 563.986 1.83065 0.691776 0
M  V30 5908 C 564.285 2.278 -2.75394 0
M  V30 5909 C 563.951 1.74797 -4.1564 0
M  V30 5910 C 562.613 1.60063 -4.53799 0
M  V30 5911 C 564.965 1.35548 -5.03266 0
M  V30 5912 C 562.293 1.04514 -5.77316 0
M  V30 5913 C 564.645 0.814381 -6.27336 0
M  V30 5914 C 563.309 0.653726 -6.64291 0
M  V30 5915 H 562.579 0.444951 -0.592536 0
M  V30 5916 H 565.226 0.510964 -1.84557 0
M  V30 5917 H 563.531 3.04233 -2.46879 0
M  V30 5918 H 565.228 2.85723 -2.81359 0
M  V30 5919 H 561.818 1.87234 -3.8554 0
M  V30 5920 H 566.002 1.45763 -4.74412 0
M  V30 5921 H 561.258 0.908186 -6.04617 0
M  V30 5922 H 565.432 0.501626 -6.94591 0
M  V30 5923 H 563.059 0.22114 -7.59878 0
M  V30 5924 N 564.634 1.40294 0.718013 0
M  V30 5925 C 565.567 1.34767 1.84155 0
M  V30 5926 C 566.545 0.218455 1.61126 0
M  V30 5927 O 567.729 0.401716 1.8417 0
M  V30 5928 C 564.856 1.09676 3.20451 0
M  V30 5929 C 563.902 2.25016 3.62312 0
M  V30 5930 S 564.735 3.87397 3.69707 0
M  V30 5931 C 565.891 3.64565 5.08766 0
M  V30 5932 H 566.124 2.29851 1.88562 0
M  V30 5933 H 563.657 1.2655 0.884555 0
M  V30 5934 H 565.615 0.95885 3.99144 0
M  V30 5935 H 564.276 0.162502 3.13679 0
M  V30 5936 H 563.469 2.03097 4.61268 0
M  V30 5937 H 563.071 2.35098 2.90869 0
M  V30 5938 H 565.363 3.22882 5.95612 0
M  V30 5939 H 566.306 4.63043 5.35721 0
M  V30 5940 H 566.714 2.98303 4.79245 0
M  V30 5941 N 566.112 -0.949982 1.2575 0
M  V30 5942 C 567.337 -1.73503 1.13628 0
M  V30 5943 C 567.762 -1.85601 -0.30559 0
M  V30 5944 O 567.12 -1.33984 -1.22139 0
M  V30 5945 C 567.168 -3.1243 1.80055 0
M  V30 5946 O 566.272 -3.97916 1.08336 0
M  V30 5947 H 565.613 -0.532665 0.396439 0
M  V30 5948 H 568.143 -1.19043 1.66403 0
M  V30 5949 H 568.153 -3.62866 1.86527 0
M  V30 5950 H 566.828 -3.02941 2.84956 0
M  V30 5951 H 565.405 -3.56375 1.09777 0
M  V30 5952 N 567.59 -1.07411 -1.15328 0
M  V30 5953 C 568.522 -0.652924 -2.19703 0
M  V30 5954 C 569.535 0.294869 -1.60107 0
M  V30 5955 O 570.724 0.0840932 -1.78302 0
M  V30 5956 C 567.824 0.061434 -3.38844 0
M  V30 5957 C 566.997 -0.902696 -4.27984 0
M  V30 5958 C 566.056 -0.225521 -5.25717 0
M  V30 5959 O 565.082 -0.86676 -5.62562 0
M  V30 5960 N 566.284 1.02858 -5.71315 0
M  V30 5961 H 569.049 -1.55081 -2.56457 0
M  V30 5962 H 566.61 -0.958883 -1.30449 0
M  V30 5963 H 568.602 0.525145 -4.01278 0
M  V30 5964 H 567.172 0.861269 -3.00501 0
M  V30 5965 H 566.392 -1.54551 -3.6264 0
M  V30 5966 H 567.68 -1.55636 -4.84412 0
M  V30 5967 H 567.078 1.56948 -5.43492 0
M  V30 5968 H 565.635 1.43596 -6.35786 0
M  V30 5969 N 569.068 1.32177 -0.85831 0
M  V30 5970 C 570.315 1.97125 -0.463484 0
M  V30 5971 C 570.643 1.67907 0.981705 0
M  V30 5972 O 569.898 0.961717 1.70439 0
M  V30 5973 C 570.197 3.51372 -0.653658 0
M  V30 5974 C 569.863 4.00584 -2.06987 0
M  V30 5975 C 568.525 4.13733 -2.4572 0
M  V30 5976 C 570.877 4.26624 -2.99402 0
M  V30 5977 C 568.205 4.50268 -3.76132 0
M  V30 5978 C 570.557 4.64618 -4.29316 0
M  V30 5979 C 569.221 4.75975 -4.67979 0
M  V30 5980 H 568.491 0.72133 -0.169601 0
M  V30 5981 H 571.138 1.57517 -1.08907 0
M  V30 5982 H 569.443 3.91761 0.0551328 0
M  V30 5983 H 571.14 3.99655 -0.328163 0
M  V30 5984 H 567.73 3.90837 -1.75911 0
M  V30 5985 H 571.914 4.1597 -2.70708 0
M  V30 5986 H 567.17 4.57256 -4.05865 0
M  V30 5987 H 571.344 4.83722 -5.00985 0
M  V30 5988 H 568.971 5.04041 -5.69076 0
M  V30 5989 O 570.585 0.756816 1.42669 0
M  V30 5990 H 571.276 0.315719 1.9111 0
M  V30 END ATOM
M  V30 BEGIN BOND
M  V30 END BOND
M  V30 END CTAB
M  END
$$$$
