drugbank_target|P53608 Arginase (DB00536)
 OpenBabel12092120263D

  0  0  0     0  0            999 V3000
M  V30 BEGIN CTAB
M  V30 COUNTS 4578 4617 0 0 0
M  V30 BEGIN ATOM
M  V30 1 H -0.908 1.98254 -0.117106 0
M  V30 2 N 0 1.576 0 0
M  V30 3 C 0.933 2.03868 1.02534 0
M  V30 4 C 1.911 0.928543 1.3348 0
M  V30 5 O 3.095 1.19667 1.45644 0
M  V30 6 C 0.222 2.43627 2.35294 0
M  V30 7 C -0.732 3.65373 2.2001 0
M  V30 8 S 0.101 5.13292 1.52614 0
M  V30 9 C 1.257 5.56322 2.86805 0
M  V30 10 H 1.49 2.90518 0.631377 0
M  V30 11 H -0.977 1.52953 0.210867 0
M  V30 12 H 0.981 2.67203 3.11629 0
M  V30 13 H -0.358 1.57376 2.7183 0
M  V30 14 H -1.165 3.90944 3.18086 0
M  V30 15 H -1.563 3.418 1.51819 0
M  V30 16 H 0.729 5.58782 3.83104 0
M  V30 17 H 1.672 6.56266 2.65933 0
M  V30 18 H 2.08 4.83886 2.90714 0
M  V30 19 N 1.4781 -0.272755 1.55222 0
M  V30 20 C 2.4251 -1.33716 1.88119 0
M  V30 21 C 3.3951 -1.49066 0.73271 0
M  V30 22 O 4.5801 -1.63469 0.984002 0
M  V30 23 C 1.7201 -2.69238 2.15882 0
M  V30 24 C 0.8331 -2.62108 3.43399 0
M  V30 25 C -0.0319 -3.89811 3.60861 0
M  V30 26 C -0.9929 -3.77193 4.8207 0
M  V30 27 N -1.8559 -4.9673 4.96189 0
M  V30 28 H 2.9841 -1.04962 2.78903 0
M  V30 29 H 0.5211 -0.507088 1.38083 0
M  V30 30 H 2.4791 -3.48089 2.29978 0
M  V30 31 H 1.1091 -2.96194 1.28331 0
M  V30 32 H 0.1611 -1.74967 3.37773 0
M  V30 33 H 1.4731 -2.48685 4.32386 0
M  V30 34 H 0.6271 -4.77103 3.74777 0
M  V30 35 H -0.6339 -4.06102 2.7006 0
M  V30 36 H -1.6289 -2.88284 4.68159 0
M  V30 37 H -0.4039 -3.62421 5.74307 0
M  V30 38 H -2.4579 -5.13431 4.08319 0
M  V30 39 H -2.5409 -4.85839 5.79221 0
M  V30 40 H -1.2729 -5.85594 5.1449 0
M  V30 41 N 2.9562 -1.48159 -0.537278 0
M  V30 42 C 4.3672 -1.49429 -1.11928 0
M  V30 43 C 4.7182 -0.26 -1.9447 0
M  V30 44 O 3.8432 0.633489 -2.0692 0
M  V30 45 C 4.4382 -2.70758 -2.03656 0
M  V30 46 C 2.9972 -2.74923 -2.57088 0
M  V30 47 C 2.1442 -2.42835 -1.3389 0
M  V30 48 H 5.0952 -1.55381 -0.322886 0
M  V30 49 H 5.1162 -2.48861 -2.87834 0
M  V30 50 H 4.6282 -3.60575 -1.43553 0
M  V30 51 H 2.7292 -1.89296 -3.20933 0
M  V30 52 H 2.8422 -3.76157 -2.9672 0
M  V30 53 H 1.2062 -1.93836 -1.65226 0
M  V30 54 H 1.9892 -3.34884 -0.755504 0
M  V30 55 N 4.4343 0.785586 -1.36625 0
M  V30 56 C 5.6833 1.53883 -1.30396 0
M  V30 57 C 5.9963 1.95271 0.113452 0
M  V30 58 O 7.2023 2.69858 0.298142 0
M  V30 59 C 5.6583 2.77808 -2.28802 0
M  V30 60 C 5.2663 2.43574 -3.75999 0
M  V30 61 C 7.0103 3.55783 -2.31558 0
M  V30 62 C 4.9173 3.63919 -4.66173 0
M  V30 63 H 3.8473 0.577678 -0.484566 0
M  V30 64 H 6.4983 0.861705 -1.62009 0
M  V30 65 H 4.8803 3.47339 -1.90188 0
M  V30 66 H 6.0543 1.81916 -4.23371 0
M  V30 67 H 4.3693 1.78803 -3.76056 0
M  V30 68 H 6.9663 4.45205 -2.96137 0
M  V30 69 H 7.3093 3.94644 -1.3252 0
M  V30 70 H 7.8423 2.93235 -2.68809 0
M  V30 71 H 4.5813 3.3015 -5.66287 0
M  V30 72 H 4.1013 4.2473 -4.23515 0
M  V30 73 H 5.7803 4.30901 -4.82632 0
M  V30 74 N 5.9124 1.20967 1.01018 0
M  V30 75 C 7.1374 1.0503 1.78839 0
M  V30 76 C 7.5624 -0.395752 1.8389 0
M  V30 77 O 6.9204 -1.28529 1.27867 0
M  V30 78 C 6.9684 1.64602 3.2084 0
M  V30 79 O 6.0724 0.887988 4.02726 0
M  V30 80 H 5.4134 0.369987 0.551367 0
M  V30 81 H 7.9434 1.60399 1.27018 0
M  V30 82 H 7.9534 1.68607 3.71532 0
M  V30 83 H 6.6284 2.69841 3.16479 0
M  V30 84 H 5.2054 0.922648 3.61305 0
M  V30 85 N 7.3905 -1.2043 1.01659 0
M  V30 86 C 8.6395 -1.89118 0.701237 0
M  V30 87 C 8.9525 -1.79705 -0.772358 0
M  V30 88 O 10.1585 -2.43528 -1.20026 0
M  V30 89 C 8.6145 -3.39168 1.20388 0
M  V30 90 C 8.2225 -3.57166 2.70438 0
M  V30 91 C 9.9665 -4.1341 0.963953 0
M  V30 92 C 7.8735 -5.01042 3.14183 0
M  V30 93 H 6.8035 -0.708267 0.2586 0
M  V30 94 H 9.4545 -1.36239 1.22927 0
M  V30 95 H 7.8365 -3.91369 0.603824 0
M  V30 96 H 9.0105 -3.15351 3.35992 0
M  V30 97 H 7.3255 -2.96294 2.92572 0
M  V30 98 H 9.9225 -5.19491 1.26621 0
M  V30 99 H 10.2655 -4.16181 -0.099578 0
M  V30 100 H 10.7985 -3.67309 1.52738 0
M  V30 101 H 7.5375 -5.03426 4.19812 0
M  V30 102 H 7.0575 -5.43668 2.53348 0
M  V30 103 H 8.7365 -5.69623 3.0682 0
M  V30 104 N 8.8686 -0.792821 -1.36206 0
M  V30 105 C 10.1176 -0.363353 -1.984 0
M  V30 106 C 10.4306 1.07172 -1.63626 0
M  V30 107 O 11.6366 1.60362 -2.19081 0
M  V30 108 C 10.0926 -0.59872 -3.54885 0
M  V30 109 C 9.7006 -2.04543 -3.9858 0
M  V30 110 C 11.4446 -0.233926 -4.23855 0
M  V30 111 C 9.3516 -2.22727 -5.47856 0
M  V30 112 H 8.2816 -0.13212 -0.742334 0
M  V30 113 H 10.9326 -0.974935 -1.55458 0
M  V30 114 H 9.3146 0.0826222 -3.95914 0
M  V30 115 H 10.4886 -2.76345 -3.68741 0
M  V30 116 H 8.8036 -2.36879 -3.42458 0
M  V30 117 H 11.4006 -0.348027 -5.33566 0
M  V30 118 H 11.7436 0.818351 -4.08177 0
M  V30 119 H 12.2766 -0.868639 -3.882 0
M  V30 120 H 9.0156 -3.2635 -5.68486 0
M  V30 121 H 8.5356 -1.55434 -5.7931 0
M  V30 122 H 10.2146 -2.03607 -6.14128 0
M  V30 123 N 10.3467 1.47872 -0.545128 0
M  V30 124 C 11.5947 2.02093 -0.016553 0
M  V30 125 C 11.9157 1.42305 1.3332 0
M  V30 126 O 11.1857 0.593853 1.86682 0
M  V30 127 H 9.7657 0.746993 -0.00313038 0
M  V30 128 H 12.4277 1.81414 -0.712397 0
M  V30 129 H 11.5237 3.11996 0.0805422 0
M  V30 130 N 11.8248 0.280983 1.55075 0
M  V30 131 C 13.0708 -0.33461 2.00021 0
M  V30 132 C 13.4038 -1.55063 1.16915 0
M  V30 133 O 12.6788 -1.93006 0.240646 0
M  V30 134 C 12.9618 -0.711007 3.53011 0
M  V30 135 C 12.8148 0.512766 4.46868 0
M  V30 136 C 14.1338 -1.54522 4.12081 0
M  V30 137 H 11.2528 -0.120147 0.727141 0
M  V30 138 H 13.8948 0.389097 1.85973 0
M  V30 139 H 12.0448 -1.32761 3.65112 0
M  V30 140 H 13.7168 1.15131 4.46702 0
M  V30 141 H 11.9598 1.14975 4.18286 0
M  V30 142 H 12.6308 0.205556 5.51617 0
M  V30 143 H 15.1068 -1.02442 4.03293 0
M  V30 144 H 13.9828 -1.77739 5.19327 0
M  V30 145 H 14.2438 -2.52813 3.62682 0
M  V30 146 N 13.3029 -1.57598 0.00835791 0
M  V30 147 C 14.7139 -1.7892 -0.53333 0
M  V30 148 C 15.0649 -0.916609 -1.73473 0
M  V30 149 O 14.1899 -0.121336 -2.1606 0
M  V30 150 C 14.7849 -3.24488 -0.974313 0
M  V30 151 C 13.3439 -3.46878 -1.46125 0
M  V30 152 C 12.4909 -2.74157 -0.416302 0
M  V30 153 H 15.4419 -1.56958 0.234495 0
M  V30 154 H 15.4629 -3.3306 -1.83988 0
M  V30 155 H 14.9749 -3.87972 -0.099718 0
M  V30 156 H 13.0759 -2.8862 -2.35646 0
M  V30 157 H 13.1889 -4.55572 -1.48295 0
M  V30 158 H 11.5529 -2.39022 -0.87981 0
M  V30 159 H 12.3359 -3.40345 0.44947 0
M  V30 160 N 14.781 0.264519 -1.55364 0
M  V30 161 C 15.714 1.35297 -1.83766 0
M  V30 162 C 16.692 1.47171 -0.691336 0
M  V30 163 O 17.876 1.63663 -0.935238 0
M  V30 164 C 15.003 2.72847 -2.00679 0
M  V30 165 C 14.049 2.78214 -3.23263 0
M  V30 166 S 14.882 2.36601 -4.80396 0
M  V30 167 C 16.038 3.7611 -5.00292 0
M  V30 168 H 16.271 1.11003 -2.758 0
M  V30 169 H 13.804 0.464596 -1.47244 0
M  V30 170 H 15.762 3.52057 -2.11108 0
M  V30 171 H 14.423 2.94388 -1.09518 0
M  V30 172 H 13.616 3.7919 -3.3201 0
M  V30 173 H 13.218 2.07034 -3.11469 0
M  V30 174 H 15.51 4.71457 -4.86554 0
M  V30 175 H 16.453 3.7231 -6.02321 0
M  V30 176 H 16.861 3.67806 -4.28228 0
M  V30 177 N 16.2591 1.48442 0.529413 0
M  V30 178 C 17.5361 1.46978 1.29062 0
M  V30 179 C 17.9161 0.181769 2.10316 0
M  V30 180 O 17.2641 -0.836481 2.12639 0
M  V30 181 C 17.4741 2.7321 2.17157 0
M  V30 182 C 18.8221 3.21562 2.77278 0
M  V30 183 O 19.8461 2.74131 2.27444 0
M  V30 184 O 18.7051 4.04094 3.67927 0
M  V30 185 H 15.7991 0.587003 0.582543 0
M  V30 186 H 18.3451 1.60676 0.546021 0
M  V30 187 H 17.1171 3.58465 1.56903 0
M  V30 188 H 16.7401 2.62235 2.98862 0
M  V30 189 N 17.7372 -0.778329 1.37039 0
M  V30 190 C 18.6672 -1.90546 1.34962 0
M  V30 191 C 19.6482 -1.68681 0.219274 0
M  V30 192 O 20.8332 -1.89634 0.418624 0
M  V30 193 C 17.9632 -3.27734 1.14925 0
M  V30 194 C 16.9172 -3.64147 2.24902 0
M  V30 195 C 16.2432 -4.99806 1.89996 0
M  V30 196 C 17.5432 -3.71579 3.67051 0
M  V30 197 H 19.2372 -1.92541 2.29277 0
M  V30 198 H 16.7832 -0.924948 1.10366 0
M  V30 199 H 18.7362 -4.06215 1.12104 0
M  V30 200 H 17.4602 -3.26154 0.170631 0
M  V30 201 H 16.1192 -2.8797 2.26868 0
M  V30 202 H 15.7672 -4.94759 0.906796 0
M  V30 203 H 15.4672 -5.25139 2.63634 0
M  V30 204 H 16.9912 -5.80694 1.88749 0
M  V30 205 H 18.4052 -4.40227 3.67251 0
M  V30 206 H 16.8022 -4.08405 4.39688 0
M  V30 207 H 17.8722 -2.72404 4.01154 0
M  V30 208 N 19.2153 -1.21501 -1.00376 0
M  V30 209 C 20.4633 -1.03095 -1.73827 0
M  V30 210 C 20.7843 0.436341 -1.90055 0
M  V30 211 O 20.0543 1.31466 -1.45236 0
M  V30 212 H 18.6343 -0.378487 -0.644016 0
M  V30 213 H 21.2963 -1.52831 -1.20949 0
M  V30 214 H 20.3923 -1.49991 -2.73695 0
M  V30 215 N 20.6934 1.19889 -1.02296 0
M  V30 216 C 21.6254 2.22334 -0.556787 0
M  V30 217 C 22.6384 1.58674 0.364199 0
M  V30 218 O 23.8274 1.77768 0.161533 0
M  V30 219 C 20.9274 3.38257 0.208694 0
M  V30 220 C 20.1004 4.31504 -0.71577 0
M  V30 221 C 19.1594 5.262 0.00325597 0
M  V30 222 O 18.1854 5.65798 -0.621357 0
M  V30 223 N 19.3874 5.66303 1.27599 0
M  V30 224 H 22.1524 2.62957 -1.43784 0
M  V30 225 H 19.7134 1.34495 -0.901261 0
M  V30 226 H 21.7054 3.98616 0.699111 0
M  V30 227 H 20.2754 2.96472 0.991102 0
M  V30 228 H 19.4954 3.69016 -1.38638 0
M  V30 229 H 20.7834 4.9072 -1.34428 0
M  V30 230 H 20.1814 5.36155 1.80429 0
M  V30 231 H 18.7384 6.28942 1.71102 0
M  V30 232 N 22.1715 0.800033 1.35784 0
M  V30 233 C 23.3995 0.389606 2.03199 0
M  V30 234 C 23.8145 -0.997375 1.60306 0
M  V30 235 O 23.1715 -1.64154 0.797481 0
M  V30 236 C 23.2225 0.455855 3.58614 0
M  V30 237 O 22.9435 1.78815 3.99946 0
M  V30 238 C 24.4445 0.0374032 4.43284 0
M  V30 239 H 21.6645 0.159132 0.651857 0
M  V30 240 H 24.2085 1.08183 1.73541 0
M  V30 241 H 22.3635 -0.188057 3.86943 0
M  V30 242 H 22.7775 1.74636 4.94573 0
M  V30 243 H 24.2515 0.134882 5.51835 0
M  V30 244 H 24.7285 -1.01651 4.27275 0
M  V30 245 H 25.3345 0.654215 4.20238 0
M  V30 246 N 23.6496 -1.47581 0.552962 0
M  V30 247 C 25.0656 -1.5818 0.212424 0
M  V30 248 C 25.2656 -1.55213 -1.28496 0
M  V30 249 O 24.3216 -1.45329 -2.06484 0
M  V30 250 C 25.6346 -2.88865 0.835318 0
M  V30 251 C 27.1826 -3.0244 0.806156 0
M  V30 252 C 27.6576 -4.35819 1.40804 0
M  V30 253 N 29.1486 -4.42444 1.37103 0
M  V30 254 C 29.8836 -5.44202 1.80641 0
M  V30 255 N 29.3796 -6.52795 2.32015 0
M  V30 256 N 31.1726 -5.35222 1.71738 0
M  V30 257 H 23.3236 -1.47753 1.52587 0
M  V30 258 H 25.5866 -0.702941 0.636064 0
M  V30 259 H 25.2926 -2.9676 1.88749 0
M  V30 260 H 25.1666 -3.7579 0.325848 0
M  V30 261 H 27.5536 -2.94144 -0.237317 0
M  V30 262 H 27.6346 -2.17068 1.35334 0
M  V30 263 H 27.2786 -4.44871 2.45056 0
M  V30 264 H 27.2086 -5.19916 0.836338 0
M  V30 265 H 29.6996 -3.6456 0.995202 0
M  V30 266 H 30.0126 -7.26609 2.63171 0
M  V30 267 H 28.3576 -6.53696 2.36023 0
M  V30 268 H 31.5486 -4.49284 1.31382 0
M  V30 269 H 31.7216 -6.14389 2.05987 0
M  V30 270 N 25.1277 -0.289203 -1.54924 0
M  V30 271 C 26.5437 0.0645403 -1.59469 0
M  V30 272 C 26.7437 1.53419 -1.30632 0
M  V30 273 O 25.7997 2.2852 -1.074 0
M  V30 274 C 27.1127 -0.32278 -2.98963 0
M  V30 275 C 28.6607 -0.270564 -3.11828 0
M  V30 276 C 29.1357 -0.632532 -4.53611 0
M  V30 277 N 30.6267 -0.584617 -4.59496 0
M  V30 278 C 31.3617 -0.837314 -5.67254 0
M  V30 279 N 30.8577 -1.15536 -6.83098 0
M  V30 280 N 32.6507 -0.765166 -5.56868 0
M  V30 281 H 24.8017 -1.24714 -1.71931 0
M  V30 282 H 27.0647 -0.504809 -0.802416 0
M  V30 283 H 26.7707 -1.34541 -3.24948 0
M  V30 284 H 26.6447 0.32944 -3.75759 0
M  V30 285 H 29.0317 0.742805 -2.85598 0
M  V30 286 H 29.1127 -0.957242 -2.37214 0
M  V30 287 H 28.7567 -1.64365 -4.80569 0
M  V30 288 H 28.6867 0.07609 -5.26545 0
M  V30 289 H 31.1777 -0.349248 -3.76283 0
M  V30 290 H 31.4907 -1.33447 -7.61191 0
M  V30 291 H 29.8357 -1.19328 -6.84679 0
M  V30 292 H 33.0267 -0.516432 -4.65243 0
M  V30 293 H 33.1997 -0.965477 -6.40767 0
M  V30 294 N 26.6058 1.57591 -0.0167156 0
M  V30 295 C 27.8538 1.90906 0.663285 0
M  V30 296 C 28.1748 0.892509 1.73376 0
M  V30 297 O 27.4448 -0.0677623 1.95783 0
M  V30 298 H 26.0248 0.704637 0.247983 0
M  V30 299 H 28.6868 1.94803 -0.0615909 0
M  V30 300 H 27.7828 2.9116 1.12393 0
M  V30 301 N 28.0839 -0.256276 1.55502 0
M  V30 302 C 29.3299 -0.987079 1.77157 0
M  V30 303 C 29.6629 -1.85327 0.580315 0
M  V30 304 O 28.9379 -1.89874 -0.421686 0
M  V30 305 C 29.2209 -1.85553 3.08613 0
M  V30 306 C 29.0739 -1.01816 4.38125 0
M  V30 307 C 30.3929 -2.8397 3.36228 0
M  V30 308 H 27.5119 -0.357428 0.644526 0
M  V30 309 H 30.1539 -0.258239 1.88237 0
M  V30 310 H 28.3039 -2.47695 2.99298 0
M  V30 311 H 29.9759 -0.416159 4.59419 0
M  V30 312 H 28.2189 -0.322178 4.32602 0
M  V30 313 H 28.8899 -1.65939 5.26468 0
M  V30 314 H 31.3659 -2.31964 3.45445 0
M  V30 315 H 30.2419 -3.41864 4.29442 0
M  V30 316 H 30.5029 -3.59955 2.56681 0
M  V30 317 N 29.562 -1.4872 -0.521534 0
M  V30 318 C 30.839 -1.4766 -1.2828 0
M  V30 319 C 31.219 -0.19292 -2.10217 0
M  V30 320 O 30.567 0.825193 -2.13079 0
M  V30 321 C 30.777 -2.74358 -2.15705 0
M  V30 322 C 32.125 -3.23028 -2.75569 0
M  V30 323 O 33.149 -2.75333 -2.25987 0
M  V30 324 O 32.008 -4.0604 -3.65778 0
M  V30 325 H 29.102 -0.590085 -0.579421 0
M  V30 326 H 31.648 -1.60963 -0.537492 0
M  V30 327 H 30.42 -3.59292 -1.54999 0
M  V30 328 H 30.043 -2.63816 -2.97467 0
M  V30 329 N 31.0401 0.771051 -1.3745 0
M  V30 330 C 31.9731 1.89166 -1.27638 0
M  V30 331 C 32.9511 1.61842 -0.156782 0
M  V30 332 O 34.1351 1.85569 -0.331111 0
M  V30 333 C 31.2621 3.24405 -0.973621 0
M  V30 334 C 30.3081 3.70638 -2.1102 0
M  V30 335 S 31.1411 3.84228 -3.73 0
M  V30 336 C 32.2971 5.22313 -3.44876 0
M  V30 337 H 32.5301 1.972 -2.22485 0
M  V30 338 H 30.0631 0.932224 -1.23081 0
M  V30 339 H 32.0211 4.02514 -0.805766 0
M  V30 340 H 30.6821 3.14071 -0.0426279 0
M  V30 341 H 29.8751 4.68685 -1.85338 0
M  V30 342 H 29.4771 2.99632 -2.23822 0
M  V30 343 H 31.7691 6.07505 -2.99908 0
M  V30 344 H 32.7121 5.53008 -4.42253 0
M  V30 345 H 33.1201 4.90284 -2.79789 0
M  V30 346 N 32.5182 1.22032 0.997298 0
M  V30 347 C 33.7662 1.04016 1.73278 0
M  V30 348 C 34.0872 -0.426255 1.90284 0
M  V30 349 O 33.3572 -1.30694 1.45931 0
M  V30 350 H 31.9372 0.381897 0.642 0
M  V30 351 H 34.5992 1.5347 1.20137 0
M  V30 352 H 33.6952 1.51441 2.72896 0
M  V30 353 N 33.9963 -1.19345 1.0293 0
M  V30 354 C 35.4073 -1.70725 0.755633 0
M  V30 355 C 35.7583 -1.82326 -0.724676 0
M  V30 356 O 34.8833 -1.49471 -1.56484 0
M  V30 357 C 35.4783 -3.10084 1.36503 0
M  V30 358 C 34.0373 -3.58723 1.13994 0
M  V30 359 C 33.1843 -2.35577 1.46283 0
M  V30 360 H 36.1353 -1.0418 1.19718 0
M  V30 361 H 36.1563 -3.72787 0.762217 0
M  V30 362 H 35.6683 -3.01609 2.44241 0
M  V30 363 H 33.7693 -3.72512 0.0807901 0
M  V30 364 H 33.8823 -4.42816 1.82894 0
M  V30 365 H 32.2463 -2.38935 0.88217 0
M  V30 366 H 33.0293 -2.29731 2.55105 0
M  V30 367 N 35.4744 -0.807222 -1.35358 0
M  V30 368 C 36.6994 -0.399309 -2.0352 0
M  V30 369 C 37.1244 0.981986 -1.60433 0
M  V30 370 O 36.4824 1.63601 -0.781299 0
M  V30 371 C 36.5304 -0.491552 -3.57234 0
M  V30 372 O 35.6344 0.494754 -4.09421 0
M  V30 373 H 34.9754 -0.166682 -0.642739 0
M  V30 374 H 37.5054 -1.09328 -1.72941 0
M  V30 375 H 37.5154 -0.361588 -4.06395 0
M  V30 376 H 36.1904 -1.49907 -3.87944 0
M  V30 377 H 34.7674 0.324977 -3.71481 0
M  V30 378 N 36.9525 1.47285 -0.560781 0
M  V30 379 C 37.9155 2.28535 0.174488 0
M  V30 380 C 38.9155 1.37153 0.839388 0
M  V30 381 O 40.1055 1.59748 0.694702 0
M  V30 382 C 37.2375 3.16934 1.25561 0
M  V30 383 H 38.4305 2.95012 -0.539262 0
M  V30 384 H 35.9835 1.53034 -0.317865 0
M  V30 385 H 36.7185 2.55157 2.00164 0
M  V30 386 H 36.5035 3.8419 0.783604 0
M  V30 387 H 37.9935 3.78143 1.77193 0
M  V30 388 N 38.4306 0.297415 1.54768 0
M  V30 389 C 39.3636 -0.622188 2.19554 0
M  V30 390 C 40.3416 -1.13558 1.16376 0
M  V30 391 O 41.5256 -1.20444 1.45002 0
M  V30 392 C 38.6526 -1.8509 2.83653 0
M  V30 393 C 37.6986 -1.47106 4.00328 0
M  V30 394 S 38.5316 -0.53006 5.3287 0
M  V30 395 C 39.6876 -1.76665 6.0045 0
M  V30 396 H 39.9206 -0.0717806 2.97213 0
M  V30 397 H 37.4536 0.0815678 1.54184 0
M  V30 398 H 39.4116 -2.55605 3.21211 0
M  V30 399 H 38.0726 -2.37247 2.05846 0
M  V30 400 H 37.2656 -2.38594 4.43947 0
M  V30 401 H 36.8676 -0.845885 3.64309 0
M  V30 402 H 39.1596 -2.7077 6.21039 0
M  V30 403 H 40.1026 -1.37308 6.9466 0
M  V30 404 H 40.5106 -1.94174 5.30054 0
M  V30 405 N 39.9087 -1.5758 0.0250728 0
M  V30 406 C 41.3247 -1.56124 -0.331282 0
M  V30 407 C 41.5247 -1.03029 -1.73169 0
M  V30 408 O 40.5807 -0.675215 -2.43305 0
M  V30 409 C 41.8937 -3.00139 -0.183584 0
M  V30 410 C 43.4417 -3.11946 -0.256654 0
M  V30 411 C 43.9167 -4.57793 -0.137792 0
M  V30 412 N 45.4077 -4.6279 -0.194904 0
M  V30 413 C 46.1427 -5.7326 -0.126655 0
M  V30 414 N 45.6387 -6.928 -0.00755288 0
M  V30 415 N 47.4317 -5.61811 -0.180348 0
M  V30 416 H 39.5827 -1.90424 0.94087 0
M  V30 417 H 41.8457 -0.875761 0.362968 0
M  V30 418 H 41.5517 -3.4292 0.780927 0
M  V30 419 H 41.4257 -3.64899 -0.955448 0
M  V30 420 H 43.8127 -2.69079 -1.21162 0
M  V30 421 H 43.8937 -2.49915 0.545517 0
M  V30 422 H 43.5377 -5.01339 0.813739 0
M  V30 423 H 43.4677 -5.17798 -0.958775 0
M  V30 424 H 45.9587 -3.76807 -0.287267 0
M  V30 425 H 46.2717 -7.72791 0.0379428 0
M  V30 426 H 44.6167 -6.94995 0.0271731 0
M  V30 427 H 47.8077 -4.6731 -0.271767 0
M  V30 428 H 47.9807 -6.47882 -0.123697 0
M  V30 429 N 41.3868 0.248026 -1.55636 0
M  V30 430 C 42.6168 0.992367 -1.81206 0
M  V30 431 C 43.0248 1.7949 -0.598324 0
M  V30 432 O 42.3678 1.78292 0.442434 0
M  V30 433 C 42.4298 1.97926 -3.00109 0
M  V30 434 C 42.0938 1.36377 -4.36177 0
M  V30 435 C 43.0908 0.76682 -5.14214 0
M  V30 436 C 40.7758 1.38347 -4.82872 0
M  V30 437 C 42.7698 0.197778 -6.37093 0
M  V30 438 C 40.4568 0.810574 -6.057 0
M  V30 439 C 41.4548 0.218754 -6.8265 0
M  V30 440 O 41.1428 -0.345298 -8.03158 0
M  V30 441 H 40.8748 0.297704 -0.606917 0
M  V30 442 H 43.4288 0.276517 -2.0353 0
M  V30 443 H 41.6588 2.73339 -2.73538 0
M  V30 444 H 43.3478 2.58694 -3.12781 0
M  V30 445 H 44.1138 0.744114 -4.79258 0
M  V30 446 H 39.9928 1.8335 -4.2297 0
M  V30 447 H 43.5368 -0.264788 -6.97097 0
M  V30 448 H 39.4338 0.830604 -6.40134 0
M  V30 449 H 40.2018 -0.237055 -8.18157 0
M  V30 450 N 42.8649 1.48995 0.513639 0
M  V30 451 C 43.8279 1.64229 1.59879 0
M  V30 452 C 44.8279 0.514696 1.5234 0
M  V30 453 O 46.0179 0.78087 1.55718 0
M  V30 454 C 43.1499 1.62783 2.99524 0
M  V30 455 H 44.3429 2.61004 1.47705 0
M  V30 456 H 41.8959 1.37837 0.736936 0
M  V30 457 H 42.6309 0.675461 3.17188 0
M  V30 458 H 42.4159 2.4466 3.06404 0
M  V30 459 H 43.9059 1.76669 3.78388 0
M  V30 460 N 44.343 -0.763751 1.37857 0
M  V30 461 C 45.591 -1.51957 1.33243 0
M  V30 462 C 45.912 -1.94835 -0.0801709 0
M  V30 463 O 45.182 -1.66894 -1.02582 0
M  V30 464 H 43.762 -0.563626 0.49024 0
M  V30 465 H 46.424 -0.908504 1.7243 0
M  V30 466 H 45.52 -2.41523 1.97669 0
M  V30 467 N 45.8211 -1.22559 -0.990812 0
M  V30 468 C 47.0671 -1.05297 -1.73322 0
M  V30 469 C 47.4001 0.410655 -1.89808 0
M  V30 470 O 46.6751 1.30439 -1.44277 0
M  V30 471 C 46.9581 -1.76713 -3.13759 0
M  V30 472 C 46.8111 -3.30684 -3.04907 0
M  V30 473 C 48.1301 -1.52121 -4.12974 0
M  V30 474 H 45.2491 -0.38392 -0.629106 0
M  V30 475 H 47.8911 -1.50926 -1.15418 0
M  V30 476 H 46.0411 -1.37924 -3.63193 0
M  V30 477 H 47.7131 -3.7893 -2.63077 0
M  V30 478 H 45.9561 -3.60253 -2.41661 0
M  V30 479 H 46.6271 -3.75833 -4.04294 0
M  V30 480 H 49.1031 -1.85819 -3.72304 0
M  V30 481 H 47.9791 -2.04582 -5.0935 0
M  V30 482 H 48.2401 -0.454257 -4.3976 0
M  V30 483 N 47.2992 1.18797 -1.03562 0
M  V30 484 C 48.5482 1.87978 -0.731235 0
M  V30 485 C 48.8612 1.80911 0.743671 0
M  V30 486 O 50.0672 2.45407 1.16137 0
M  V30 487 C 48.5232 3.3721 -1.25768 0
M  V30 488 C 48.1312 3.52818 -2.76085 0
M  V30 489 C 49.8752 4.11825 -1.0296 0
M  V30 490 C 47.7822 4.9598 -3.22114 0
M  V30 491 H 46.7122 0.704063 -0.269835 0
M  V30 492 H 49.3632 1.34266 -1.25079 0
M  V30 493 H 47.7452 3.90359 -0.666011 0
M  V30 494 H 48.9192 3.09965 -3.40966 0
M  V30 495 H 47.2342 2.91602 -2.97249 0
M  V30 496 H 49.8312 5.17411 -1.34869 0
M  V30 497 H 50.1742 4.16287 0.0333546 0
M  V30 498 H 50.7072 3.64833 -1.58562 0
M  V30 499 H 47.4462 4.96684 -4.27768 0
M  V30 500 H 46.9662 5.39569 -2.61965 0
M  V30 501 H 48.6452 5.6467 -3.15844 0
M  V30 502 N 48.7773 0.814389 1.34928 0
M  V30 503 C 49.6873 0.231978 2.3345 0
M  V30 504 C 50.7033 -0.629139 1.62228 0
M  V30 505 O 51.8793 -0.539052 1.94052 0
M  V30 506 C 48.9443 -0.603482 3.41407 0
M  V30 507 C 48.0053 0.279037 4.28392 0
M  V30 508 C 47.2383 -0.516643 5.31193 0
M  V30 509 O 47.4613 -1.75068 5.4287 0
M  V30 510 O 46.3953 0.0965652 6.01823 0
M  V30 511 H 50.2213 1.04721 2.85074 0
M  V30 512 H 47.8063 0.576343 1.37836 0
M  V30 513 H 49.6883 -1.07908 4.0735 0
M  V30 514 H 48.3633 -1.39618 2.92042 0
M  V30 515 H 47.2703 0.801948 3.65403 0
M  V30 516 H 48.6033 1.03588 4.81176 0
M  V30 517 N 50.2554 -1.46986 0.568584 0
M  V30 518 C 51.6714 -1.57946 0.229189 0
M  V30 519 C 51.8714 -1.56567 -1.26843 0
M  V30 520 O 50.9274 -1.47511 -2.04931 0
M  V30 521 C 52.2404 -2.87963 0.865909 0
M  V30 522 C 53.7884 -3.01568 0.838188 0
M  V30 523 C 54.2634 -4.34301 1.45419 0
M  V30 524 N 55.7544 -4.40965 1.41788 0
M  V30 525 C 56.4894 -5.42256 1.86403 0
M  V30 526 N 55.9854 -6.50297 2.38926 0
M  V30 527 N 57.7784 -5.3337 1.77405 0
M  V30 528 H 49.9294 -1.46126 1.54146 0
M  V30 529 H 52.1924 -0.696156 0.643484 0
M  V30 530 H 51.8984 -2.94742 1.91886 0
M  V30 531 H 51.7724 -3.75423 0.365687 0
M  V30 532 H 54.1594 -2.94379 -0.206106 0
M  V30 533 H 54.2404 -2.1562 1.37629 0
M  V30 534 H 53.8844 -4.42247 2.49761 0
M  V30 535 H 53.8144 -5.19 0.891435 0
M  V30 536 H 56.3054 -3.63484 1.03381 0
M  V30 537 H 56.6184 -7.23777 2.70863 0
M  V30 538 H 54.9634 -6.51155 2.42944 0
M  V30 539 H 58.1544 -4.47865 1.3614 0
M  V30 540 H 58.3274 -6.12169 2.12492 0
M  V30 541 N 51.7335 -0.305618 -1.54608 0
M  V30 542 C 52.6635 0.561482 -2.26649 0
M  V30 543 C 53.6445 1.13415 -1.26772 0
M  V30 544 O 54.8295 1.16262 -1.55553 0
M  V30 545 C 51.9595 1.73122 -3.01075 0
M  V30 546 C 50.9135 1.2887 -4.08138 0
M  V30 547 C 50.2395 2.54396 -4.70305 0
M  V30 548 C 51.5395 0.416578 -5.20636 0
M  V30 549 H 53.2335 -0.0393902 -2.99374 0
M  V30 550 H 50.7795 -0.020385 -1.43986 0
M  V30 551 H 52.7325 2.34396 -3.50195 0
M  V30 552 H 51.4565 2.3584 -2.25936 0
M  V30 553 H 50.1155 0.698991 -3.59875 0
M  V30 554 H 49.7635 3.15439 -3.918 0
M  V30 555 H 49.4635 2.25486 -5.42614 0
M  V30 556 H 50.9875 3.16464 -5.2219 0
M  V30 557 H 52.4015 0.935116 -5.65622 0
M  V30 558 H 50.7985 0.221046 -5.99693 0
M  V30 559 H 51.8685 -0.557162 -4.81688 0
M  V30 560 N 53.2116 1.57565 -0.0334293 0
M  V30 561 C 54.1216 2.13943 0.962572 0
M  V30 562 C 55.1376 1.09276 1.35406 0
M  V30 563 O 56.3136 1.41355 1.4346 0
M  V30 564 C 53.3786 2.65887 2.22497 0
M  V30 565 C 52.4396 3.85286 1.8935 0
M  V30 566 C 51.6726 4.34743 3.09571 0
M  V30 567 O 51.8956 3.83352 4.22371 0
M  V30 568 O 50.8296 5.26538 2.91618 0
M  V30 569 H 54.6556 2.99333 0.513169 0
M  V30 570 H 52.2406 1.4822 0.18743 0
M  V30 571 H 54.1226 2.99346 2.96598 0
M  V30 572 H 52.7976 1.83578 2.6661 0
M  V30 573 H 51.7046 3.56746 1.1262 0
M  V30 574 H 53.0376 4.68771 1.5005 0
M  V30 575 N 54.6897 -0.239769 1.55765 0
M  V30 576 C 56.1057 -0.588624 1.48349 0
M  V30 577 C 56.3057 -1.88005 0.72502 0
M  V30 578 O 55.3617 -2.51186 0.257269 0
M  V30 579 C 56.6747 -0.68474 2.928 0
M  V30 580 C 58.2227 -0.77659 3.03213 0
M  V30 581 C 58.6977 -0.904207 4.48986 0
M  V30 582 N 60.1887 -0.968896 4.52953 0
M  V30 583 C 60.9237 -1.08703 5.63002 0
M  V30 584 N 60.4197 -1.17026 6.82845 0
M  V30 585 N 62.2127 -1.12074 5.50814 0
M  V30 586 H 54.3637 0.607911 2.03515 0
M  V30 587 H 56.6267 0.21083 0.924259 0
M  V30 588 H 56.3327 0.194284 3.51163 0
M  V30 589 H 56.2067 -1.55435 3.43686 0
M  V30 590 H 58.5937 -1.64606 2.44926 0
M  V30 591 H 58.6747 0.118315 2.55526 0
M  V30 592 H 58.3187 -0.0392633 5.07885 0
M  V30 593 H 58.2487 -1.81426 4.9436 0
M  V30 594 H 60.7397 -0.915633 3.6664 0
M  V30 595 H 61.0527 -1.25966 7.62465 0
M  V30 596 H 59.3977 -1.13971 6.85591 0
M  V30 597 H 62.5887 -1.05226 4.5612 0
M  V30 598 H 62.7617 -1.20936 6.36615 0
M  V30 599 N 56.1678 -1.49265 -0.50573 0
M  V30 600 C 57.0978 -1.68495 -1.61653 0
M  V30 601 C 58.0788 -0.53366 -1.61512 0
M  V30 602 O 59.2638 -0.76897 -1.78327 0
M  V30 603 C 56.3938 -1.74709 -3.00157 0
M  V30 604 C 55.3478 -2.89581 -3.15162 0
M  V30 605 C 54.6738 -2.80903 -4.5497 0
M  V30 606 C 55.9738 -4.30578 -2.95634 0
M  V30 607 H 57.6678 -2.61493 -1.45814 0
M  V30 608 H 55.2138 -1.25838 -0.70005 0
M  V30 609 H 57.1668 -1.86748 -3.77761 0
M  V30 610 H 55.8908 -0.783067 -3.17074 0
M  V30 611 H 54.5498 -2.77136 -2.39982 0
M  V30 612 H 54.1978 -1.82419 -4.68756 0
M  V30 613 H 53.8978 -3.57999 -4.65951 0
M  V30 614 H 55.4218 -2.94944 -5.34641 0
M  V30 615 H 56.8358 -4.4373 -3.63011 0
M  V30 616 H 55.2328 -5.0886 -3.18091 0
M  V30 617 H 56.3028 -4.45352 -1.91806 0
M  V30 618 N 57.6459 0.756429 -1.3826 0
M  V30 619 C 58.5959 1.86069 -1.31766 0
M  V30 620 C 59.5799 1.59621 -0.202483 0
M  V30 621 O 60.7719 1.7149 -0.438211 0
M  V30 622 C 57.9009 3.23742 -1.1422 0
M  V30 623 C 56.9869 3.56091 -2.30348 0
M  V30 624 N 57.3779 3.59517 -3.55783 0
M  V30 625 C 55.6759 3.86341 -2.22838 0
M  V30 626 C 56.3769 3.89052 -4.32451 0
M  V30 627 N 55.3529 4.05736 -3.61772 0
M  V30 628 H 59.1549 1.86992 -2.26741 0
M  V30 629 H 56.6689 0.953643 -1.31451 0
M  V30 630 H 58.6659 4.02761 -1.07652 0
M  V30 631 H 57.3259 3.24073 -0.201763 0
M  V30 632 H 58.3369 3.41347 -3.89491 0
M  V30 633 H 55.0139 3.94404 -1.36937 0
M  V30 634 H 56.4039 3.98349 -5.4108 0
M  V30 635 N 59.124 1.23083 0.984299 0
M  V30 636 C 60.354 1.08556 1.75781 0
M  V30 637 C 60.762 -0.366171 1.85623 0
M  V30 638 O 60.105 -1.26524 1.33182 0
M  V30 639 C 60.167 1.63208 3.20318 0
M  V30 640 C 59.831 3.11922 3.33997 0
M  V30 641 C 60.828 4.09259 3.2063 0
M  V30 642 C 58.513 3.51552 3.58771 0
M  V30 643 C 60.507 5.4421 3.31835 0
M  V30 644 C 58.194 4.86649 3.69616 0
M  V30 645 C 59.192 5.82787 3.56157 0
M  V30 646 O 58.88 7.15431 3.66626 0
M  V30 647 H 58.612 0.380713 0.5586 0
M  V30 648 H 61.166 1.63321 1.2456 0
M  V30 649 H 59.396 1.0286 3.72769 0
M  V30 650 H 61.085 1.44216 3.79416 0
M  V30 651 H 61.851 3.79984 3.01392 0
M  V30 652 H 57.73 2.77239 3.6832 0
M  V30 653 H 61.274 6.1923 3.21247 0
M  V30 654 H 57.171 5.15601 3.88363 0
M  V30 655 H 57.939 7.23127 3.83445 0
M  V30 656 N 60.6021 -1.18246 1.0419 0
M  V30 657 C 61.8791 -1.84121 0.660208 0
M  V30 658 C 62.2591 -1.92778 -0.860221 0
M  V30 659 O 61.6071 -1.45464 -1.76217 0
M  V30 660 C 61.8171 -3.22355 1.33747 0
M  V30 661 C 63.1651 -3.98376 1.46906 0
M  V30 662 O 64.1891 -3.31799 1.29568 0
M  V30 663 O 63.0481 -5.17665 1.75171 0
M  V30 664 H 60.1421 -0.794036 0.231161 0
M  V30 665 H 62.6881 -1.25628 1.14087 0
M  V30 666 H 61.4601 -3.10964 2.37522 0
M  V30 667 H 61.0831 -3.88506 0.845515 0
M  V30 668 N 62.0802 -0.821533 -1.34494 0
M  V30 669 C 63.3292 -0.405355 -1.97585 0
M  V30 670 C 63.6422 1.03677 -1.65863 0
M  V30 671 O 64.8482 1.55679 -2.22433 0
M  V30 672 C 63.3042 -0.673861 -3.53535 0
M  V30 673 C 62.9122 -2.12951 -3.94152 0
M  V30 674 C 64.6562 -0.32378 -4.23263 0
M  V30 675 C 62.5632 -2.34298 -5.43009 0
M  V30 676 H 61.4932 -0.147836 -0.739365 0
M  V30 677 H 64.1442 -1.00769 -1.53355 0
M  V30 678 H 62.5262 -0.00137554 -3.96 0
M  V30 679 H 63.7002 -2.84104 -3.62797 0
M  V30 680 H 62.0152 -2.44089 -3.37356 0
M  V30 681 H 64.6122 -0.461126 -5.32708 0
M  V30 682 H 64.9552 0.731586 -4.09821 0
M  V30 683 H 65.4882 -0.950786 -3.8627 0
M  V30 684 H 62.2272 -3.38335 -5.61435 0
M  V30 685 H 61.7472 -1.67687 -5.75883 0
M  V30 686 H 63.4262 -2.16588 -6.09671 0
M  V30 687 N 63.5583 1.46682 -0.576371 0
M  V30 688 C 64.4683 2.34032 0.163141 0
M  V30 689 C 65.4843 1.49367 0.892501 0
M  V30 690 O 66.6603 1.82252 0.857106 0
M  V30 691 C 63.7253 3.26435 1.16795 0
M  V30 692 C 62.7863 4.26998 0.443944 0
M  V30 693 C 62.0193 5.14986 1.40088 0
M  V30 694 O 62.2423 5.05785 2.637 0
M  V30 695 O 61.1763 5.94906 0.914917 0
M  V30 696 H 65.0023 2.98607 -0.55388 0
M  V30 697 H 62.5873 1.45554 -0.336821 0
M  V30 698 H 64.4693 3.83459 1.74748 0
M  V30 699 H 63.1443 2.64465 1.86655 0
M  V30 700 H 62.0513 3.7368 -0.177271 0
M  V30 701 H 63.3843 4.91736 -0.213566 0
M  V30 702 N 65.0364 0.313813 1.54444 0
M  V30 703 C 66.3134 -0.345447 1.92525 0
M  V30 704 C 66.6934 -1.70667 1.24242 0
M  V30 705 O 66.0414 -2.25273 0.382654 0
M  V30 706 C 66.2514 -0.44737 3.46121 0
M  V30 707 C 67.5994 -0.712238 4.18584 0
M  V30 708 O 68.6234 -0.530678 3.52225 0
M  V30 709 O 67.4824 -1.06183 5.36085 0
M  V30 710 H 64.5764 -0.195407 0.803583 0
M  V30 711 H 67.1224 0.362813 1.65776 0
M  V30 712 H 65.8944 0.509043 3.87975 0
M  V30 713 H 65.5174 -1.20359 3.78945 0
M  V30 714 N 66.5145 -1.57545 0.0417849 0
M  V30 715 C 67.4445 -2.14009 -0.933929 0
M  V30 716 C 68.4255 -1.05938 -1.33083 0
M  V30 717 O 69.6105 -1.33833 -1.40721 0
M  V30 718 C 66.7405 -2.67747 -2.21199 0
M  V30 719 C 65.6945 -3.80718 -1.95544 0
M  V30 720 C 65.0205 -4.20935 -3.29724 0
M  V30 721 C 66.3205 -5.06258 -1.28452 0
M  V30 722 H 68.0145 -2.95788 -0.463645 0
M  V30 723 H 65.5605 -1.42285 -0.221573 0
M  V30 724 H 67.5135 -3.05886 -2.89848 0
M  V30 725 H 66.2375 -1.83147 -2.70416 0
M  V30 726 H 64.8965 -3.43037 -1.2931 0
M  V30 727 H 64.5445 -3.33298 -3.76724 0
M  V30 728 H 64.2445 -4.9707 -3.13361 0
M  V30 729 H 65.7685 -4.61666 -3.9962 0
M  V30 730 H 67.1825 -5.41903 -1.8712 0
M  V30 731 H 65.5795 -5.87475 -1.22445 0
M  V30 732 H 66.6495 -4.84207 -0.259219 0
M  V30 733 N 67.9926 0.231505 -1.5589 0
M  V30 734 C 69.2406 0.955461 -1.78088 0
M  V30 735 C 69.5616 1.85262 -0.608533 0
M  V30 736 O 68.8316 1.92277 0.375035 0
M  V30 737 H 67.4116 0.355787 -0.656829 0
M  V30 738 H 70.0736 0.245751 -1.93344 0
M  V30 739 H 69.1696 1.56814 -2.69844 0
M  V30 740 N 69.4707 1.49531 0.497807 0
M  V30 741 C 70.7477 1.49682 1.25915 0
M  V30 742 C 71.1277 0.226339 2.09883 0
M  V30 743 O 70.4757 -0.791189 2.14365 0
M  V30 744 C 70.6857 2.77755 2.11313 0
M  V30 745 C 72.0337 3.27371 2.70395 0
M  V30 746 O 73.0577 2.78894 2.21578 0
M  V30 747 O 71.9167 4.11808 3.59272 0
M  V30 748 H 69.0107 0.599228 0.56996 0
M  V30 749 H 71.5567 1.61798 0.511816 0
M  V30 750 H 70.3287 3.61713 1.49264 0
M  V30 751 H 69.9517 2.68515 2.93233 0
M  V30 752 N 70.9488 -0.749086 1.3866 0
M  V30 753 C 72.1978 -1.50371 1.3443 0
M  V30 754 C 72.5108 -1.95503 -0.0616397 0
M  V30 755 O 73.7168 -2.70554 -0.226489 0
M  V30 756 C 72.1728 -2.71644 2.36088 0
M  V30 757 C 71.7808 -2.3352 3.82325 0
M  V30 758 C 73.5248 -3.49518 2.40909 0
M  V30 759 C 71.4318 -3.51431 4.75658 0
M  V30 760 H 70.3618 -0.564628 0.499712 0
M  V30 761 H 73.0128 -0.818449 1.64237 0
M  V30 762 H 71.3948 -3.42175 1.9933 0
M  V30 763 H 72.5688 -1.70627 4.28046 0
M  V30 764 H 70.8838 -1.6877 3.80665 0
M  V30 765 H 73.4808 -4.37197 3.07836 0
M  V30 766 H 73.8238 -3.90992 1.42937 0
M  V30 767 H 74.3568 -2.86005 2.76489 0
M  V30 768 H 71.0958 -3.15019 5.74842 0
M  V30 769 H 70.6158 -4.13352 4.34627 0
M  V30 770 H 72.2948 -4.17953 4.93887 0
M  V30 771 N 72.4269 -1.23603 -0.977757 0
M  V30 772 C 73.8379 -1.06424 -1.53398 0
M  V30 773 C 74.1889 0.367578 -1.92726 0
M  V30 774 O 73.3139 1.25465 -1.76316 0
M  V30 775 C 73.9089 -1.92568 -2.78753 0
M  V30 776 C 72.4679 -1.79642 -3.30765 0
M  V30 777 C 71.6149 -1.88111 -2.03739 0
M  V30 778 H 74.5659 -1.37227 -0.797152 0
M  V30 779 H 74.5869 -1.45203 -3.51705 0
M  V30 780 H 74.0989 -2.96771 -2.50098 0
M  V30 781 H 72.1999 -0.782325 -3.64294 0
M  V30 782 H 72.3129 -2.63174 -4.00345 0
M  V30 783 H 70.6769 -1.31723 -2.17994 0
M  V30 784 H 71.4599 -2.93875 -1.77461 0
M  V30 785 N 73.905 1.17692 -1.04816 0
M  V30 786 C 75.154 1.87192 -0.751132 0
M  V30 787 C 75.467 1.8169 0.724441 0
M  V30 788 O 76.673 2.46625 1.13527 0
M  V30 789 C 75.129 3.35857 -1.29338 0
M  V30 790 C 74.737 3.4987 -2.79812 0
M  V30 791 C 76.481 4.10709 -1.07322 0
M  V30 792 C 74.388 4.92536 -3.27356 0
M  V30 793 H 73.318 0.701162 -0.277288 0
M  V30 794 H 75.969 1.32932 -1.26496 0
M  V30 795 H 74.351 3.89631 -0.707376 0
M  V30 796 H 75.525 3.06332 -3.44235 0
M  V30 797 H 73.84 2.88433 -3.00325 0
M  V30 798 H 76.437 5.15952 -1.4035 0
M  V30 799 H 76.78 4.16299 -0.0108001 0
M  V30 800 H 77.313 3.6313 -1.62423 0
M  V30 801 H 74.052 4.92119 -4.33012 0
M  V30 802 H 73.572 5.3676 -2.67673 0
M  V30 803 H 75.251 5.61288 -3.21815 0
M  V30 804 N 75.3831 0.828654 1.34056 0
M  V30 805 C 76.6311 0.41863 1.97717 0
M  V30 806 C 76.9521 -1.02314 1.66002 0
M  V30 807 O 76.2221 -1.71119 0.953683 0
M  V30 808 H 74.8021 0.151809 0.731412 0
M  V30 809 H 77.4641 1.05936 1.63596 0
M  V30 810 H 76.5601 0.542318 3.07352 0
M  V30 811 N 76.8612 -1.46375 0.584142 0
M  V30 812 C 77.8082 -2.30323 -0.148286 0
M  V30 813 C 78.7782 -1.40703 -0.882713 0
M  V30 814 O 79.9632 -1.69651 -0.873099 0
M  V30 815 C 77.1032 -3.25196 -1.15507 0
M  V30 816 C 76.2162 -4.29915 -0.423943 0
M  V30 817 C 75.3512 -5.11914 -1.41838 0
M  V30 818 C 74.3902 -6.08381 -0.673736 0
M  V30 819 N 73.5272 -6.83242 -1.6163 0
M  V30 820 H 78.3672 -2.92427 0.573644 0
M  V30 821 H 75.9042 -1.44118 0.294703 0
M  V30 822 H 77.8622 -3.78646 -1.75166 0
M  V30 823 H 76.4922 -2.64898 -1.8447 0
M  V30 824 H 75.5442 -3.7931 0.287714 0
M  V30 825 H 76.8562 -4.98549 0.158128 0
M  V30 826 H 76.0102 -5.69648 -2.08773 0
M  V30 827 H 74.7492 -4.43243 -2.03438 0
M  V30 828 H 73.7542 -5.49799 0.00938483 0
M  V30 829 H 74.9792 -6.79071 -0.0631082 0
M  V30 830 H 72.9252 -6.1728 -2.22038 0
M  V30 831 H 72.8422 -7.48144 -1.08707 0
M  V30 832 H 74.1102 -7.45534 -2.27596 0
M  V30 833 N 78.3393 -0.321999 -1.54275 0
M  V30 834 C 79.3023 0.531975 -2.22941 0
M  V30 835 C 80.3023 1.04478 -1.22234 0
M  V30 836 O 81.4923 0.937452 -1.46825 0
M  V30 837 C 78.6243 1.73874 -2.93224 0
M  V30 838 H 79.8173 -0.0682612 -2.99822 0
M  V30 839 H 77.3703 -0.0730644 -1.56129 0
M  V30 840 H 78.1053 2.37825 -2.20476 0
M  V30 841 H 77.8903 1.37847 -3.6707 0
M  V30 842 H 79.3803 2.34496 -3.45545 0
M  V30 843 N 79.8174 1.5752 -0.0501392 0
M  V30 844 C 80.7274 2.14952 0.939827 0
M  V30 845 C 81.7434 1.10706 1.34239 0
M  V30 846 O 82.9194 1.42869 1.41952 0
M  V30 847 C 79.9844 2.68232 2.19665 0
M  V30 848 C 79.0454 3.87272 1.85253 0
M  V30 849 C 78.2784 4.38002 3.04943 0
M  V30 850 O 78.5014 3.87811 4.18281 0
M  V30 851 O 77.4354 5.29602 2.86017 0
M  V30 852 H 81.2614 2.9986 0.481392 0
M  V30 853 H 78.8464 1.4841 0.171699 0
M  V30 854 H 80.7284 3.02475 2.93406 0
M  V30 855 H 79.4034 1.86395 2.64648 0
M  V30 856 H 78.3104 3.5792 1.0883 0
M  V30 857 H 79.6434 4.70336 1.4507 0
M  V30 858 N 81.2955 -0.223234 1.56011 0
M  V30 859 C 82.7115 -0.572856 1.48965 0
M  V30 860 C 82.9115 -1.87225 0.74492 0
M  V30 861 O 81.9675 -2.50899 0.283896 0
M  V30 862 C 83.2805 -0.653646 2.9351 0
M  V30 863 C 84.8285 -0.744386 3.0402 0
M  V30 864 C 85.3035 -0.856535 4.49919 0
M  V30 865 N 86.7945 -0.9208 4.53955 0
M  V30 866 C 87.5295 -1.02726 5.64123 0
M  V30 867 N 87.0255 -1.09777 6.84047 0
M  V30 868 N 88.8185 -1.06226 5.51971 0
M  V30 869 H 80.9695 0.629462 2.02858 0
M  V30 870 H 83.2325 0.220621 0.921971 0
M  V30 871 H 82.9385 0.231518 3.50937 0
M  V30 872 H 82.8125 -1.51781 3.45315 0
M  V30 873 H 85.1995 -1.61999 2.46658 0
M  V30 874 H 85.2805 0.14541 2.55386 0
M  V30 875 H 84.9245 0.0146069 5.07898 0
M  V30 876 H 84.8545 -1.76172 4.96257 0
M  V30 877 H 87.3455 -0.876694 3.6759 0
M  V30 878 H 87.6585 -1.17872 7.63758 0
M  V30 879 H 86.0035 -1.06693 6.86762 0
M  V30 880 H 89.1945 -1.00382 4.5721 0
M  V30 881 H 89.3675 -1.14177 6.37862 0
M  V30 882 N 82.7736 -1.49793 -0.48987 0
M  V30 883 C 83.7036 -1.70201 -1.59856 0
M  V30 884 C 84.6846 -0.55076 -1.60937 0
M  V30 885 O 85.8696 -0.787841 -1.77501 0
M  V30 886 C 82.9996 -1.77882 -2.98287 0
M  V30 887 C 81.9536 -2.92907 -3.12073 0
M  V30 888 C 81.2796 -2.85712 -4.51965 0
M  V30 889 C 82.5796 -4.3369 -2.91051 0
M  V30 890 H 84.2736 -2.63025 -1.43032 0
M  V30 891 H 81.8196 -1.26574 -0.686664 0
M  V30 892 H 83.7726 -1.90744 -3.75759 0
M  V30 893 H 82.4966 -0.816653 -3.16225 0
M  V30 894 H 81.1556 -2.79665 -2.37029 0
M  V30 895 H 80.8036 -1.8738 -4.66795 0
M  V30 896 H 80.5036 -3.62921 -4.62128 0
M  V30 897 H 82.0276 -3.00598 -5.31482 0
M  V30 898 H 83.4416 -4.47555 -3.58284 0
M  V30 899 H 81.8386 -5.12205 -3.12675 0
M  V30 900 H 82.9086 -4.47362 -1.87071 0
M  V30 901 N 84.2517 0.741722 -1.39055 0
M  V30 902 C 85.2017 1.84661 -1.33732 0
M  V30 903 C 86.1857 1.59397 -0.219401 0
M  V30 904 O 87.3777 1.71015 -0.456375 0
M  V30 905 C 84.5067 3.22512 -1.17647 0
M  V30 906 C 83.5927 3.53628 -2.34112 0
M  V30 907 N 83.9837 3.55723 -3.59576 0
M  V30 908 C 82.2817 3.83956 -2.26923 0
M  V30 909 C 82.9827 3.84443 -4.36553 0
M  V30 910 N 81.9587 4.01877 -3.66055 0
M  V30 911 H 85.7607 1.84576 -2.28711 0
M  V30 912 H 83.2747 0.939647 -1.32455 0
M  V30 913 H 85.2717 4.01597 -1.11917 0
M  V30 914 H 83.9317 3.2384 -0.236124 0
M  V30 915 H 84.9427 3.37196 -3.93089 0
M  V30 916 H 81.6197 3.92929 -1.41113 0
M  V30 917 H 83.0097 3.92588 -5.45274 0
M  V30 918 N 85.7298 1.2412 0.971189 0
M  V30 919 C 86.6398 1.04747 2.09917 0
M  V30 920 C 87.6558 -0.0107162 1.73997 0
M  V30 921 O 88.8318 0.186714 2.00533 0
M  V30 922 C 85.8968 0.650828 3.40537 0
M  V30 923 C 84.9578 1.7851 3.90426 0
M  V30 924 C 84.1908 1.40729 5.14812 0
M  V30 925 O 84.4138 0.29557 5.69634 0
M  V30 926 O 83.3478 2.23168 5.58999 0
M  V30 927 H 87.1738 1.99304 2.29154 0
M  V30 928 H 84.7588 1.02908 1.08307 0
M  V30 929 H 86.6408 0.440992 4.19086 0
M  V30 930 H 85.3158 -0.265649 3.22608 0
M  V30 931 H 84.2228 2.04966 3.12953 0
M  V30 932 H 85.5558 2.68023 4.12825 0
M  V30 933 N 87.2079 -1.17134 1.05439 0
M  V30 934 C 88.1399 -2.2078 0.615539 0
M  V30 935 C 89.1529 -1.59584 -0.322001 0
M  V30 936 O 90.3419 -1.78133 -0.114344 0
M  V30 937 C 87.4419 -3.38691 -0.118938 0
M  V30 938 C 86.6149 -4.29454 0.829924 0
M  V30 939 C 85.6739 -5.26024 0.136258 0
M  V30 940 O 84.6999 -5.63952 0.77115 0
M  V30 941 N 85.9019 -5.69487 -1.1254 0
M  V30 942 H 88.6669 -2.59052 1.50705 0
M  V30 943 H 86.2279 -1.32058 0.936603 0
M  V30 944 H 88.2199 -4.00329 -0.593179 0
M  V30 945 H 86.7899 -2.98996 -0.91215 0
M  V30 946 H 86.0099 -3.65211 1.48373 0
M  V30 947 H 87.2979 -4.86984 1.47392 0
M  V30 948 H 86.6959 -5.4075 -1.6615 0
M  V30 949 H 85.2529 -6.33257 -1.54366 0
M  V30 950 N 88.686 -0.835752 -1.33615 0
M  V30 951 C 89.934 -0.429109 -1.97492 0
M  V30 952 C 90.255 1.01433 -1.66543 0
M  V30 953 O 89.525 1.70611 -0.962744 0
M  V30 954 H 88.105 -0.155686 -0.730596 0
M  V30 955 H 90.767 -1.06802 -1.63031 0
M  V30 956 H 89.863 -0.55861 -3.0706 0
M  V30 957 N 90.1641 1.46063 -0.591896 0
M  V30 958 C 91.4411 1.95595 -0.0137119 0
M  V30 959 C 91.8211 1.5345 1.4497 0
M  V30 960 O 91.1691 0.789543 2.14426 0
M  V30 961 C 91.3791 3.48453 -0.195373 0
M  V30 962 C 92.7271 4.24546 -0.0679765 0
M  V30 963 O 93.7511 3.55982 -0.124681 0
M  V30 964 O 92.6101 5.46467 0.0600579 0
M  V30 965 H 89.7041 0.825795 0.0446279 0
M  V30 966 H 92.2501 1.56303 -0.660859 0
M  V30 967 H 91.0221 3.72045 -1.21235 0
M  V30 968 H 90.6451 3.94597 0.487775 0
M  V30 969 N 91.6422 0.330177 1.54103 0
M  V30 970 C 92.8672 -0.274893 2.0557 0
M  V30 971 C 93.2922 -1.44487 1.20437 0
M  V30 972 O 92.6502 -1.80021 0.214991 0
M  V30 973 C 92.6982 -0.68079 3.54115 0
M  V30 974 O 91.8022 -1.7824 3.71893 0
M  V30 975 H 91.1432 -0.0483849 0.662235 0
M  V30 976 H 93.6732 0.480508 1.98878 0
M  V30 977 H 93.6832 -0.961635 3.96505 0
M  V30 978 H 92.3582 0.174903 4.15532 0
M  V30 979 H 90.9352 -1.49985 3.41407 0
M  V30 980 N 93.1203 -1.57491 0.0584922 0
M  V30 981 C 94.5363 -1.56792 -0.298091 0
M  V30 982 C 94.7363 -1.06679 -1.70944 0
M  V30 983 O 93.7923 -0.726672 -2.41818 0
M  V30 984 C 95.1053 -3.00461 -0.119879 0
M  V30 985 C 96.6533 -3.1242 -0.190428 0
M  V30 986 C 97.1283 -4.57982 -0.0406567 0
M  V30 987 N 98.6193 -4.63099 -0.0966958 0
M  V30 988 C 99.3543 -5.734 -0.00502943 0
M  V30 989 N 98.8503 -6.9266 0.139402 0
M  V30 990 N 100.643 -5.62067 -0.0611391 0
M  V30 991 H 92.7943 -1.88386 0.98105 0
M  V30 992 H 95.0573 -0.867865 0.381463 0
M  V30 993 H 94.7633 -3.41187 0.85349 0
M  V30 994 H 94.6373 -3.66843 -0.877833 0
M  V30 995 H 97.0243 -2.71589 -1.15427 0
M  V30 996 H 97.1053 -2.48702 0.598405 0
M  V30 997 H 96.7493 -4.995 0.919897 0
M  V30 998 H 96.6793 -5.19715 -0.848727 0
M  V30 999 H 99.1703 -3.77331 -0.207277 0
M  V30 1000 H 99.4833 -7.72536 0.201855 0
M  V30 1001 H 97.8283 -6.94781 0.174586 0
M  V30 1002 H 101.019 -4.67782 -0.172583 0
M  V30 1003 H 101.192 -6.47999 0.0137562 0
M  V30 1004 N 94.5984 0.214957 -1.56127 0
M  V30 1005 C 95.5284 1.2695 -1.95974 0
M  V30 1006 C 96.5094 1.48539 -0.828868 0
M  V30 1007 O 97.6944 1.60611 -1.09168 0
M  V30 1008 C 94.8244 2.61794 -2.28214 0
M  V30 1009 C 93.7784 2.54851 -3.43853 0
M  V30 1010 C 93.1044 3.93785 -3.61715 0
M  V30 1011 C 94.4044 2.09065 -4.78632 0
M  V30 1012 H 96.0984 0.93846 -2.84312 0
M  V30 1013 H 93.6444 0.449996 -1.36788 0
M  V30 1014 H 95.5974 3.35731 -2.54682 0
M  V30 1015 H 94.3214 2.96599 -1.36736 0
M  V30 1016 H 92.9804 1.8337 -3.17444 0
M  V30 1017 H 92.6284 4.25908 -2.67602 0
M  V30 1018 H 92.3284 3.90019 -4.39498 0
M  V30 1019 H 93.8524 4.69374 -3.90539 0
M  V30 1020 H 95.2664 2.7275 -5.04262 0
M  V30 1021 H 93.6634 2.16346 -5.59745 0
M  V30 1022 H 94.7334 1.04315 -4.73547 0
M  V30 1023 N 96.0765 1.50051 0.48192 0
M  V30 1024 C 97.4925 1.37237 0.814756 0
M  V30 1025 C 97.6925 0.420109 1.97072 0
M  V30 1026 O 96.7485 -0.141246 2.52105 0
M  V30 1027 C 98.0615 2.78375 1.13701 0
M  V30 1028 C 99.6095 2.87213 1.2441 0
M  V30 1029 C 100.084 4.29161 1.59954 0
M  V30 1030 N 101.575 4.32061 1.66967 0
M  V30 1031 C 102.31 5.38879 1.95952 0
M  V30 1032 N 101.806 6.55918 2.23031 0
M  V30 1033 N 103.599 5.26312 1.97363 0
M  V30 1034 H 95.7505 2.10546 -0.28005 0
M  V30 1035 H 98.0135 0.945921 -0.0627454 0
M  V30 1036 H 97.7195 3.49845 0.360787 0
M  V30 1037 H 97.5935 3.14941 2.07586 0
M  V30 1038 H 99.9805 2.15969 2.01101 0
M  V30 1039 H 100.061 2.54204 0.285299 0
M  V30 1040 H 99.7055 5.00938 0.838067 0
M  V30 1041 H 99.6355 4.59648 2.56966 0
M  V30 1042 H 102.126 3.47661 1.48123 0
M  V30 1043 H 102.439 7.33139 2.44391 0
M  V30 1044 H 100.784 6.59112 2.20447 0
M  V30 1045 H 103.975 4.33876 1.75697 0
M  V30 1046 H 104.148 6.09649 2.19618 0
M  V30 1047 N 97.5546 -0.734337 1.39446 0
M  V30 1048 C 98.5026 -1.86971 1.38364 0
M  V30 1049 C 99.4966 -1.67288 0.266687 0
M  V30 1050 O 100.703 -1.74621 0.436755 0
M  V30 1051 H 97.0776 -0.615474 0.432082 0
M  V30 1052 H 99.0486 -1.85 2.34132 0
M  V30 1053 C 97.7976 -3.2466 1.24465 0
M  V30 1054 H 97.1206 -3.40402 2.09682 0
M  V30 1055 H 98.5606 -4.04292 1.27764 0
M  V30 1056 C 97.0196 -3.36867 -0.0468674 0
M  V30 1057 O 97.5496 -3.88618 -1.01681 0
M  V30 1058 N 95.7556 -2.90391 -0.110145 0
M  V30 1059 H 95.3026 -2.48466 0.679868 0
M  V30 1060 H 95.2606 -2.98939 -0.973799 0
M  V30 1061 N 99.0327 -1.24633 -0.964593 0
M  V30 1062 C 99.9627 -1.06611 -2.07741 0
M  V30 1063 C 100.944 0.0218666 -1.70086 0
M  V30 1064 O 102.129 -0.145793 -1.93652 0
M  V30 1065 C 99.2587 -0.673444 -3.40708 0
M  V30 1066 C 98.2127 -1.71054 -3.92332 0
M  V30 1067 C 97.5387 -1.17285 -5.21678 0
M  V30 1068 C 98.8387 -3.10718 -4.19824 0
M  V30 1069 H 100.533 -1.99693 -2.23076 0
M  V30 1070 H 98.0787 -0.96152 -1.07195 0
M  V30 1071 H 100.032 -0.534345 -4.17998 0
M  V30 1072 H 98.7557 0.293073 -3.25282 0
M  V30 1073 H 97.4147 -1.83791 -3.17201 0
M  V30 1074 H 97.0627 -0.196847 -5.02615 0
M  V30 1075 H 96.7627 -1.86592 -5.57187 0
M  V30 1076 H 98.2867 -1.04593 -6.01575 0
M  V30 1077 H 99.7007 -3.01192 -4.87808 0
M  V30 1078 H 98.0977 -3.77406 -4.66567 0
M  V30 1079 H 99.1677 -3.58524 -3.26479 0
M  V30 1080 N 100.511 1.16574 -1.06058 0
M  V30 1081 C 101.458 2.20883 -0.669263 0
M  V30 1082 C 102.428 1.62729 0.332918 0
M  V30 1083 O 103.613 1.895 0.222346 0
M  V30 1084 C 100.753 3.45049 -0.0593572 0
M  V30 1085 C 99.8658 4.17458 -1.11143 0
M  V30 1086 C 99.0008 5.29135 -0.467916 0
M  V30 1087 C 98.0398 5.93343 -1.50369 0
M  V30 1088 N 97.1768 6.96516 -0.883706 0
M  V30 1089 H 102.017 2.53709 -1.5632 0
M  V30 1090 H 99.5538 1.24616 -0.781625 0
M  V30 1091 H 101.512 4.16033 0.311771 0
M  V30 1092 H 100.142 3.12781 0.797992 0
M  V30 1093 H 99.1938 3.45101 -1.60029 0
M  V30 1094 H 100.506 4.61307 -1.89731 0
M  V30 1095 H 99.6598 6.06684 -0.0436871 0
M  V30 1096 H 98.3988 4.86443 0.349864 0
M  V30 1097 H 97.4038 5.14517 -1.93784 0
M  V30 1098 H 98.6288 6.38114 -2.32352 0
M  V30 1099 H 96.5748 6.55943 -0.086595 0
M  V30 1100 H 96.4918 7.38723 -1.607 0
M  V30 1101 H 97.7598 7.77993 -0.484543 0
M  V30 1102 N 101.989 0.842826 1.3317 0
M  V30 1103 C 102.952 0.284065 2.27433 0
M  V30 1104 C 103.952 -0.54948 1.5112 0
M  V30 1105 O 105.142 -0.362699 1.70382 0
M  V30 1106 C 102.274 -0.599384 3.35589 0
M  V30 1107 H 103.467 1.11589 2.78366 0
M  V30 1108 H 101.02 0.616221 1.4364 0
M  V30 1109 H 101.755 -1.45349 2.89904 0
M  V30 1110 H 101.54 -0.00291266 3.921 0
M  V30 1111 H 103.03 -0.983488 4.05854 0
M  V30 1112 N 103.467 -1.45747 0.599634 0
M  V30 1113 C 104.713 -2.02592 0.0918643 0
M  V30 1114 C 105.046 -1.46806 -1.27128 0
M  V30 1115 O 104.321 -0.639658 -1.83681 0
M  V30 1116 C 104.604 -3.60073 0.0443398 0
M  V30 1117 C 104.457 -4.26208 1.43759 0
M  V30 1118 C 105.776 -4.35309 -0.647608 0
M  V30 1119 H 102.895 -0.736175 0.034857 0
M  V30 1120 H 105.537 -1.73694 0.770081 0
M  V30 1121 H 103.687 -3.84823 -0.533224 0
M  V30 1122 H 105.359 -4.12668 2.06162 0
M  V30 1123 H 103.602 -3.84916 2.00056 0
M  V30 1124 H 104.273 -5.35069 1.35665 0
M  V30 1125 H 106.749 -4.15805 -0.156776 0
M  V30 1126 H 105.625 -5.45038 -0.649942 0
M  V30 1127 H 105.886 -4.07598 -1.71219 0
M  V30 1128 N 104.945 -0.338344 -1.53925 0
M  V30 1129 C 105.908 0.508299 -2.23493 0
M  V30 1130 C 106.908 1.03175 -1.23335 0
M  V30 1131 O 108.098 0.921826 -1.47811 0
M  V30 1132 C 105.23 1.70754 -2.95052 0
M  V30 1133 H 106.423 -0.100058 -2.99733 0
M  V30 1134 H 103.976 -0.0896198 -1.56043 0
M  V30 1135 H 104.711 2.35474 -2.22986 0
M  V30 1136 H 104.496 1.33946 -3.68512 0
M  V30 1137 H 105.986 2.30818 -3.48013 0
M  V30 1138 N 106.423 1.57458 -0.0668435 0
M  V30 1139 C 107.333 2.15937 0.916975 0
M  V30 1140 C 108.349 1.12123 1.33058 0
M  V30 1141 O 109.525 1.44366 1.40429 0
M  V30 1142 C 106.59 2.70547 2.16807 0
M  V30 1143 C 105.651 3.89215 1.81135 0
M  V30 1144 C 104.884 4.41211 3.0028 0
M  V30 1145 O 105.107 3.92225 4.14144 0
M  V30 1146 O 104.041 5.32605 2.80384 0
M  V30 1147 H 107.867 3.00354 0.449561 0
M  V30 1148 H 105.452 1.48584 0.155949 0
M  V30 1149 H 107.334 3.0557 2.90181 0
M  V30 1150 H 106.009 1.89192 2.62656 0
M  V30 1151 H 104.916 3.59054 1.05028 0
M  V30 1152 H 106.249 4.71848 1.40073 0
M  V30 1153 N 107.901 -0.206675 1.56239 0
M  V30 1154 C 108.864 -1.23976 1.92776 0
M  V30 1155 C 109.864 -1.39041 0.807729 0
M  V30 1156 O 111.054 -1.37051 1.0753 0
M  V30 1157 C 108.186 -2.61112 2.19165 0
M  V30 1158 H 109.379 -0.927764 2.85189 0
M  V30 1159 H 106.932 -0.447718 1.4975 0
M  V30 1160 H 107.667 -2.97386 1.29352 0
M  V30 1161 H 107.452 -2.51552 3.00772 0
M  V30 1162 H 108.942 -3.35633 2.48476 0
M  V30 1163 N 109.379 -1.50304 -0.473955 0
M  V30 1164 C 110.327 -1.69482 -1.59307 0
M  V30 1165 C 111.321 -0.560669 -1.59853 0
M  V30 1166 O 112.527 -0.741087 -1.64036 0
M  V30 1167 H 108.902 -0.534892 -0.528578 0
M  V30 1168 H 110.873 -2.63364 -1.40293 0
M  V30 1169 C 109.622 -1.80354 -2.97267 0
M  V30 1170 H 108.945 -2.67012 -2.97564 0
M  V30 1171 H 110.385 -1.97798 -3.75036 0
M  V30 1172 C 108.844 -0.55448 -3.32306 0
M  V30 1173 O 109.374 0.307661 -4.0052 0
M  V30 1174 N 107.58 -0.409354 -2.87702 0
M  V30 1175 H 107.127 -1.11196 -2.32364 0
M  V30 1176 H 107.085 0.425223 -3.11511 0
M  V30 1177 N 110.857 0.726932 -1.39834 0
M  V30 1178 C 111.767 1.87131 -1.41489 0
M  V30 1179 C 112.783 1.71239 -0.308757 0
M  V30 1180 O 113.959 1.93701 -0.551529 0
M  V30 1181 C 111.024 3.22811 -1.26468 0
M  V30 1182 C 110.085 3.51039 -2.47124 0
M  V30 1183 C 109.318 4.80245 -2.3281 0
M  V30 1184 O 109.541 5.54537 -1.33585 0
M  V30 1185 O 108.475 5.08554 -3.21957 0
M  V30 1186 H 112.301 1.8869 -2.3797 0
M  V30 1187 H 109.886 0.875837 -1.21035 0
M  V30 1188 H 111.768 4.03877 -1.20255 0
M  V30 1189 H 110.443 3.22005 -0.330862 0
M  V30 1190 H 109.35 2.70027 -2.58914 0
M  V30 1191 H 110.683 3.56632 -3.39227 0
M  V30 1192 N 112.336 1.25143 0.95797 0
M  V30 1193 C 113.283 1.05235 2.05412 0
M  V30 1194 C 114.253 -0.0374561 1.66058 0
M  V30 1195 O 115.438 0.119073 1.90428 0
M  V30 1196 C 112.578 0.673589 3.38462 0
M  V30 1197 C 111.691 1.8379 3.90954 0
M  V30 1198 C 110.826 1.40381 5.12315 0
M  V30 1199 C 109.865 2.53746 5.57027 0
M  V30 1200 N 109.002 2.11136 6.69601 0
M  V30 1201 H 113.842 1.99048 2.21774 0
M  V30 1202 H 111.379 0.991277 1.08683 0
M  V30 1203 H 113.337 0.434964 4.14926 0
M  V30 1204 H 111.967 -0.227554 3.21997 0
M  V30 1205 H 111.019 2.18992 3.11041 0
M  V30 1206 H 112.331 2.68937 4.20089 0
M  V30 1207 H 111.485 1.12464 5.96185 0
M  V30 1208 H 110.224 0.523015 4.84887 0
M  V30 1209 H 109.229 2.82412 4.71724 0
M  V30 1210 H 110.454 3.42398 5.86464 0
M  V30 1211 H 108.4 1.25468 6.4389 0
M  V30 1212 H 108.317 2.89832 6.98236 0
M  V30 1213 H 109.585 1.86385 7.56889 0
M  V30 1214 N 113.814 -1.1601 1.06675 0
M  V30 1215 C 114.744 -2.22688 0.702307 0
M  V30 1216 C 115.725 -1.67306 -0.307032 0
M  V30 1217 O 116.91 -1.93352 -0.181305 0
M  V30 1218 C 114.04 -3.47178 0.092038 0
M  V30 1219 C 112.994 -4.15477 1.02777 0
M  V30 1220 C 112.32 -5.33963 0.28061 0
M  V30 1221 C 113.62 -4.66019 2.35846 0
M  V30 1222 H 115.314 -2.53429 1.59419 0
M  V30 1223 H 112.86 -1.21813 0.767961 0
M  V30 1224 H 114.813 -4.21037 -0.174814 0
M  V30 1225 H 113.537 -3.15749 -0.834877 0
M  V30 1226 H 112.196 -3.43549 1.27944 0
M  V30 1227 H 111.844 -4.98788 -0.649545 0
M  V30 1228 H 111.544 -5.806 0.904258 0
M  V30 1229 H 113.068 -6.10596 0.021396 0
M  V30 1230 H 114.482 -5.3144 2.15045 0
M  V30 1231 H 112.879 -5.23293 2.93743 0
M  V30 1232 H 113.949 -3.82023 2.98641 0
M  V30 1233 N 115.292 -0.849877 -1.32721 0
M  V30 1234 C 116.255 -0.296122 -2.27279 0
M  V30 1235 C 117.255 0.541458 -1.5141 0
M  V30 1236 O 118.445 0.353658 -1.70572 0
M  V30 1237 C 115.577 0.581579 -3.35902 0
M  V30 1238 H 116.77 -1.13064 -2.77771 0
M  V30 1239 H 114.323 -0.62383 -1.43311 0
M  V30 1240 H 115.058 1.43809 -2.9067 0
M  V30 1241 H 114.843 -0.0178814 -3.92096 0
M  V30 1242 H 116.333 0.961951 -4.0637 0
M  V30 1243 N 116.77 1.45427 -0.607355 0
M  V30 1244 C 117.733 2.28974 0.101693 0
M  V30 1245 C 118.733 1.39754 0.795329 0
M  V30 1246 O 119.923 1.61878 0.643527 0
M  V30 1247 C 117.055 3.20768 1.15414 0
M  V30 1248 H 118.248 2.93147 -0.632844 0
M  V30 1249 H 115.801 1.51945 -0.366391 0
M  V30 1250 H 116.536 2.61395 1.91945 0
M  V30 1251 H 116.321 3.86489 0.66098 0
M  V30 1252 H 117.811 3.83589 1.65073 0
M  V30 1253 N 118.248 0.346503 1.53744 0
M  V30 1254 C 119.211 -0.496439 2.23759 0
M  V30 1255 C 120.211 -1.0252 1.2388 0
M  V30 1256 O 121.401 -0.913974 1.48297 0
M  V30 1257 C 118.533 -1.69187 2.95954 0
M  V30 1258 H 119.726 0.115952 2.99676 0
M  V30 1259 H 117.279 0.0978939 1.55993 0
M  V30 1260 H 118.014 -2.34288 2.24231 0
M  V30 1261 H 117.799 -1.31989 3.69217 0
M  V30 1262 H 119.289 -2.28969 3.49232 0
M  V30 1263 N 119.726 -1.57421 0.075193 0
M  V30 1264 C 120.972 -1.93905 -0.594025 0
M  V30 1265 C 121.305 -0.955701 -1.69056 0
M  V30 1266 O 120.58 0.0145373 -1.94495 0
M  V30 1267 C 120.863 -3.40638 -1.1678 0
M  V30 1268 C 120.716 -4.49733 -0.0776792 0
M  V30 1269 C 122.035 -3.88259 -2.07228 0
M  V30 1270 H 119.154 -0.705105 -0.214466 0
M  V30 1271 H 121.796 -1.8947 0.141854 0
M  V30 1272 H 119.946 -3.44549 -1.79494 0
M  V30 1273 H 121.618 -4.57942 0.555573 0
M  V30 1274 H 119.861 -4.29751 0.591286 0
M  V30 1275 H 120.532 -5.49549 -0.519603 0
M  V30 1276 H 123.008 -3.86376 -1.54445 0
M  V30 1277 H 121.884 -4.91533 -2.44308 0
M  V30 1278 H 122.145 -3.26396 -2.98191 0
M  V30 1279 N 121.204 0.198386 -1.56346 0
M  V30 1280 C 122.481 0.944982 -1.71258 0
M  V30 1281 C 122.861 2.0151 -0.629048 0
M  V30 1282 O 122.209 2.25639 0.360473 0
M  V30 1283 C 122.419 1.5344 -3.1346 0
M  V30 1284 C 123.767 2.01778 -3.73591 0
M  V30 1285 O 124.791 1.63288 -3.16568 0
M  V30 1286 O 123.65 2.72594 -4.73661 0
M  V30 1287 H 120.744 0.442939 -0.69838 0
M  V30 1288 H 123.29 0.188342 -1.68652 0
M  V30 1289 H 122.062 0.762869 -3.83792 0
M  V30 1290 H 121.685 2.35596 -3.20282 0
M  V30 1291 N 122.682 1.50554 0.465978 0
M  V30 1292 C 123.614 1.65949 1.58093 0
M  V30 1293 C 124.627 0.540827 1.53554 0
M  V30 1294 O 125.816 0.814187 1.5885 0
M  V30 1295 C 122.916 1.63261 2.96983 0
M  V30 1296 C 122.089 2.91245 3.26336 0
M  V30 1297 C 121.148 2.8113 4.44806 0
M  V30 1298 O 120.174 3.55086 4.44862 0
M  V30 1299 N 121.376 1.95032 5.46756 0
M  V30 1300 H 124.141 2.62122 1.45301 0
M  V30 1301 H 121.702 1.48082 0.65448 0
M  V30 1302 H 123.694 1.54101 3.74212 0
M  V30 1303 H 122.264 0.748032 3.03518 0
M  V30 1304 H 121.484 3.14493 2.37672 0
M  V30 1305 H 122.772 3.76022 3.42761 0
M  V30 1306 H 122.17 1.3427 5.49534 0
M  V30 1307 H 120.727 1.91772 6.2295 0
M  V30 1308 N 124.16 -0.719506 1.40217 0
M  V30 1309 C 125.406 -1.48152 1.38488 0
M  V30 1310 C 125.739 -1.94195 -0.0141867 0
M  V30 1311 O 125.014 -1.67884 -0.982096 0
M  V30 1312 C 125.297 -2.71035 2.37091 0
M  V30 1313 C 125.15 -2.30912 3.86005 0
M  V30 1314 C 126.469 -3.73182 2.33288 0
M  V30 1315 H 123.588 -0.537395 0.504357 0
M  V30 1316 H 126.23 -0.821472 1.71324 0
M  V30 1317 H 124.38 -3.27352 2.0922 0
M  V30 1318 H 126.052 -1.80107 4.24687 0
M  V30 1319 H 124.295 -1.62958 4.02029 0
M  V30 1320 H 124.966 -3.18978 4.50508 0
M  V30 1321 H 127.442 -3.26485 2.57966 0
M  V30 1322 H 126.318 -4.56806 3.04334 0
M  V30 1323 H 126.579 -4.21202 1.34317 0
M  V30 1324 N 125.638 -1.25649 -0.95132 0
M  V30 1325 C 126.884 -1.10757 -1.69884 0
M  V30 1326 C 127.217 0.350061 -1.91019 0
M  V30 1327 O 126.492 1.25783 -1.48354 0
M  V30 1328 C 126.775 -1.86606 -3.07978 0
M  V30 1329 C 126.628 -3.40217 -2.94232 0
M  V30 1330 C 127.947 -1.65182 -4.07925 0
M  V30 1331 H 125.066 -0.40374 -0.616574 0
M  V30 1332 H 127.708 -1.54521 -1.10558 0
M  V30 1333 H 125.858 -1.49409 -3.58621 0
M  V30 1334 H 127.53 -3.87108 -2.50889 0
M  V30 1335 H 125.773 -3.67759 -2.30078 0
M  V30 1336 H 126.444 -3.88505 -3.92133 0
M  V30 1337 H 128.92 -1.9757 -3.66204 0
M  V30 1338 H 127.796 -2.20683 -5.02583 0
M  V30 1339 H 128.057 -0.593933 -4.38092 0
M  V30 1340 N 127.117 1.15442 -1.07289 0
M  V30 1341 C 128.049 2.19773 -0.650585 0
M  V30 1342 C 129.062 1.60076 0.296572 0
M  V30 1343 O 130.251 1.78293 0.0859905 0
M  V30 1344 C 127.351 3.38838 0.0650398 0
M  V30 1345 C 126.524 4.2808 -0.898141 0
M  V30 1346 C 125.583 5.2574 -0.219926 0
M  V30 1347 O 124.609 5.62654 -0.860773 0
M  V30 1348 N 125.811 5.71205 1.03466 0
M  V30 1349 H 128.576 2.56622 -1.54808 0
M  V30 1350 H 126.137 1.30551 -0.957494 0
M  V30 1351 H 128.129 4.01222 0.529415 0
M  V30 1352 H 126.699 3.00409 0.864466 0
M  V30 1353 H 125.919 3.62804 -1.54165 0
M  V30 1354 H 127.207 4.84577 -1.5512 0
M  V30 1355 H 126.605 5.43325 1.57526 0
M  V30 1356 H 125.162 6.35633 1.44272 0
M  V30 1357 N 128.595 0.856903 1.32268 0
M  V30 1358 C 130.011 0.547061 1.49931 0
M  V30 1359 C 130.211 -0.921781 1.7918 0
M  V30 1360 O 129.267 -1.70469 1.8627 0
M  V30 1361 C 130.58 1.43599 2.64196 0
M  V30 1362 C 132.128 1.43665 2.78081 0
M  V30 1363 C 132.603 2.31085 3.95428 0
M  V30 1364 N 134.094 2.28893 4.02694 0
M  V30 1365 C 134.829 2.93262 4.92732 0
M  V30 1366 N 134.325 3.66751 5.87763 0
M  V30 1367 N 136.118 2.82638 4.85873 0
M  V30 1368 H 128.269 1.8075 1.11549 0
M  V30 1369 H 130.532 0.772144 0.549997 0
M  V30 1370 H 130.238 2.48058 2.49319 0
M  V30 1371 H 130.112 1.12502 3.60032 0
M  V30 1372 H 132.499 0.399701 2.92381 0
M  V30 1373 H 132.58 1.7878 1.82952 0
M  V30 1374 H 132.224 3.34849 3.81888 0
M  V30 1375 H 132.154 1.93302 4.89839 0
M  V30 1376 H 134.645 1.75466 3.34694 0
M  V30 1377 H 134.958 4.13027 6.53168 0
M  V30 1378 H 133.303 3.70859 5.87783 0
M  V30 1379 H 136.494 2.24774 4.10602 0
M  V30 1380 H 136.667 3.33084 5.55841 0
M  V30 1381 N 130.073 -1.45103 0.615059 0
M  V30 1382 C 131.321 -2.01784 0.112955 0
M  V30 1383 C 131.642 -1.48504 -1.26378 0
M  V30 1384 O 130.912 -0.682245 -1.83636 0
M  V30 1385 H 129.492 -0.745993 0.0387668 0
M  V30 1386 H 132.154 -1.77808 0.798141 0
M  V30 1387 H 131.25 -3.12025 0.0684069 0
M  V30 1388 N 131.551 -0.354651 -1.53558 0
M  V30 1389 C 132.967 -0.00315426 -1.596 0
M  V30 1390 C 133.167 1.47741 -1.37021 0
M  V30 1391 O 132.223 2.23759 -1.16996 0
M  V30 1392 C 133.536 -0.44929 -2.97325 0
M  V30 1393 C 135.084 -0.402578 -3.104 0
M  V30 1394 C 135.559 -0.824355 -4.5052 0
M  V30 1395 N 137.05 -0.778979 -4.56603 0
M  V30 1396 C 137.785 -1.07715 -5.63192 0
M  V30 1397 N 137.281 -1.44405 -6.77583 0
M  V30 1398 N 139.074 -1.00066 -5.53121 0
M  V30 1399 H 131.225 -1.31893 -1.66487 0
M  V30 1400 H 133.488 -0.538388 -0.780284 0
M  V30 1401 H 133.194 -1.48202 -3.1895 0
M  V30 1402 H 133.068 0.169772 -3.76818 0
M  V30 1403 H 135.455 0.621004 -2.88492 0
M  V30 1404 H 135.536 -1.05699 -2.32941 0
M  V30 1405 H 135.18 -1.846 -4.73165 0
M  V30 1406 H 135.11 -0.147304 -5.26394 0
M  V30 1407 H 137.601 -0.508528 -3.74463 0
M  V30 1408 H 137.914 -1.65612 -7.54846 0
M  V30 1409 H 136.259 -1.4826 -6.79002 0
M  V30 1410 H 139.45 -0.713293 -4.62633 0
M  V30 1411 H 139.623 -1.23638 -6.36096 0
M  V30 1412 N 133.029 1.57378 -0.0835403 0
M  V30 1413 C 134.276 1.9393 0.58287 0
M  V30 1414 C 134.604 0.964455 1.68904 0
M  V30 1415 O 133.859 -0.0179474 1.95692 0
M  V30 1416 C 134.158 3.37063 1.1884 0
M  V30 1417 C 133.824 4.50424 0.207194 0
M  V30 1418 C 132.486 4.81159 -0.0627115 0
M  V30 1419 C 134.838 5.19136 -0.463426 0
M  V30 1420 C 132.166 5.77939 -1.01012 0
M  V30 1421 C 134.518 6.16931 -1.39924 0
M  V30 1422 C 133.182 6.46078 -1.67749 0
M  V30 1423 H 132.452 0.70964 0.213287 0
M  V30 1424 H 135.099 1.90856 -0.156916 0
M  V30 1425 H 133.404 3.3666 2.00418 0
M  V30 1426 H 135.101 3.6264 1.71153 0
M  V30 1427 H 131.691 4.2646 0.427747 0
M  V30 1428 H 135.875 4.95576 -0.268034 0
M  V30 1429 H 131.131 5.98842 -1.23283 0
M  V30 1430 H 135.305 6.69273 -1.92476 0
M  V30 1431 H 132.932 7.2088 -2.41321 0
M  V30 1432 N 134.507 -0.190092 1.56449 0
M  V30 1433 C 135.918 -0.754312 1.70784 0
M  V30 1434 C 136.269 -1.83631 0.690951 0
M  V30 1435 O 135.394 -2.15868 -0.151604 0
M  V30 1436 C 135.989 -1.37503 3.09642 0
M  V30 1437 C 134.548 -1.88628 3.25725 0
M  V30 1438 C 133.695 -0.758098 2.66736 0
M  V30 1439 H 136.646 0.0350524 1.58661 0
M  V30 1440 H 136.667 -2.2445 3.0725 0
M  V30 1441 H 136.179 -0.587302 3.83631 0
M  V30 1442 H 134.28 -2.70103 2.56661 0
M  V30 1443 H 134.393 -2.04462 4.3328 0
M  V30 1444 H 132.757 -1.17369 2.26046 0
M  V30 1445 H 133.54 0.0174705 3.43296 0
M  V30 1446 N 135.985 -1.50799 -0.457987 0
M  V30 1447 C 136.915 -1.73553 -1.5621 0
M  V30 1448 C 137.896 -0.584774 -1.59732 0
M  V30 1449 O 139.081 -0.825314 -1.7579 0
M  V30 1450 C 136.211 -1.84169 -2.94447 0
M  V30 1451 C 135.165 -2.99461 -3.0579 0
M  V30 1452 C 134.491 -2.95235 -4.45803 0
M  V30 1453 C 135.791 -4.39766 -2.81786 0
M  V30 1454 H 137.485 -2.66 -1.37421 0
M  V30 1455 H 135.031 -1.28002 -0.659662 0
M  V30 1456 H 136.984 -1.98672 -3.71628 0
M  V30 1457 H 135.708 -0.883545 -3.14422 0
M  V30 1458 H 134.367 -2.8463 -2.31044 0
M  V30 1459 H 134.015 -1.97239 -4.62715 0
M  V30 1460 H 133.715 -3.72642 -4.54326 0
M  V30 1461 H 135.239 -3.11803 -5.24987 0
M  V30 1462 H 136.653 -4.55054 -3.4871 0
M  V30 1463 H 135.05 -5.18722 -3.0174 0
M  V30 1464 H 136.12 -4.51229 -1.7754 0
M  V30 1465 N 137.463 0.71206 -1.40597 0
M  V30 1466 C 138.709 1.47416 -1.39271 0
M  V30 1467 C 139.042 1.942 0.00388791 0
M  V30 1468 O 138.317 1.68403 0.973179 0
M  V30 1469 C 138.6 2.69774 -2.38525 0
M  V30 1470 C 138.453 2.28861 -3.87224 0
M  V30 1471 C 139.772 3.71939 -2.35264 0
M  V30 1472 H 136.891 0.534713 -0.5072 0
M  V30 1473 H 139.533 0.812375 -1.71757 0
M  V30 1474 H 137.683 3.26238 -2.10953 0
M  V30 1475 H 139.355 1.77852 -4.25636 0
M  V30 1476 H 137.598 1.60824 -4.02887 0
M  V30 1477 H 138.269 3.16584 -4.52193 0
M  V30 1478 H 140.745 3.25113 -2.59694 0
M  V30 1479 H 139.621 4.55186 -3.06753 0
M  V30 1480 H 139.882 4.20484 -1.36549 0
M  V30 1481 N 138.941 1.26152 0.944643 0
M  V30 1482 C 139.871 1.09902 2.06019 0
M  V30 1483 C 140.852 0.00519538 1.70099 0
M  V30 1484 O 142.037 0.176583 1.93396 0
M  V30 1485 C 139.167 0.727562 3.39594 0
M  V30 1486 C 138.121 1.77274 3.89561 0
M  V30 1487 C 137.447 1.25569 5.19747 0
M  V30 1488 C 138.747 3.17357 4.14827 0
M  V30 1489 H 140.441 2.03217 2.19871 0
M  V30 1490 H 137.987 0.978452 1.05652 0
M  V30 1491 H 139.94 0.600777 4.17095 0
M  V30 1492 H 138.664 -0.241287 3.25707 0
M  V30 1493 H 137.323 1.88814 3.14237 0
M  V30 1494 H 136.971 0.276783 5.02238 0
M  V30 1495 H 136.671 1.95433 5.54148 0
M  V30 1496 H 138.195 1.1415 5.99835 0
M  V30 1497 H 139.609 3.08914 4.82954 0
M  V30 1498 H 138.006 3.84781 4.60504 0
M  V30 1499 H 139.076 3.63673 3.20734 0
M  V30 1500 N 140.419 -1.14872 1.07899 0
M  V30 1501 C 141.667 -1.85422 0.803941 0
M  V30 1502 C 141.988 -1.83051 -0.67211 0
M  V30 1503 O 141.258 -1.27532 -1.48703 0
M  V30 1504 H 139.838 -0.686537 0.294408 0
M  V30 1505 H 142.5 -1.39226 1.3639 0
M  V30 1506 H 141.596 -2.90399 1.14346 0
M  V30 1507 N 141.898 -0.863906 -1.31812 0
M  V30 1508 C 143.146 -0.470904 -1.96537 0
M  V30 1509 C 143.467 0.978771 -1.68657 0
M  V30 1510 O 142.737 1.6853 -0.998717 0
M  V30 1511 H 141.317 -0.171148 -0.72713 0
M  V30 1512 H 143.979 -1.10236 -1.60729 0
M  V30 1513 H 143.075 -0.623616 -3.05806 0
M  V30 1514 N 143.376 1.44774 -0.622745 0
M  V30 1515 C 144.653 1.95522 -0.0551974 0
M  V30 1516 C 145.033 1.5649 1.41683 0
M  V30 1517 O 144.381 0.834848 2.12703 0
M  V30 1518 C 144.591 3.4796 -0.269242 0
M  V30 1519 C 145.939 4.24306 -0.158014 0
M  V30 1520 O 146.963 3.55637 -0.200162 0
M  V30 1521 O 145.822 5.46471 -0.0558693 0
M  V30 1522 H 142.916 0.826556 0.0271015 0
M  V30 1523 H 145.462 1.54866 -0.693864 0
M  V30 1524 H 144.234 3.6939 -1.29099 0
M  V30 1525 H 143.857 3.95543 0.403966 0
M  V30 1526 N 144.854 0.36279 1.53368 0
M  V30 1527 C 145.804 -0.501391 2.22419 0
M  V30 1528 C 146.788 -1.0509 1.2184 0
M  V30 1529 O 147.98 -0.981404 1.47301 0
M  V30 1530 C 145.109 -1.64201 3.01484 0
M  V30 1531 C 144.195 -1.10552 4.09438 0
M  V30 1532 N 144.586 -0.291788 5.04958 0
M  V30 1533 C 142.884 -1.3806 4.24094 0
M  V30 1534 C 143.585 0.00162655 5.817 0
M  V30 1535 N 142.561 -0.595244 5.40331 0
M  V30 1536 H 146.363 0.127159 2.93625 0
M  V30 1537 H 143.877 0.170658 1.61501 0
M  V30 1538 H 145.874 -2.27326 3.49469 0
M  V30 1539 H 144.534 -2.27365 2.31809 0
M  V30 1540 H 145.545 0.0687731 5.17854 0
M  V30 1541 H 142.222 -2.01522 3.65644 0
M  V30 1542 H 143.612 0.659278 6.68658 0
M  V30 1543 N 146.332 -1.57332 0.0918853 0
M  V30 1544 C 147.557 -1.98995 -0.584442 0
M  V30 1545 C 147.982 -0.970528 -1.61128 0
M  V30 1546 O 147.34 0.0613904 -1.81196 0
M  V30 1547 C 147.388 -3.39636 -1.21161 0
M  V30 1548 O 146.492 -3.40447 -2.32744 0
M  V30 1549 H 145.833 -0.647165 -0.148572 0
M  V30 1550 H 148.363 -2.03873 0.172347 0
M  V30 1551 H 148.373 -3.7726 -1.55367 0
M  V30 1552 H 147.048 -4.13356 -0.459313 0
M  V30 1553 H 145.625 -3.14614 -2.0018 0
M  V30 1554 N 147.81 0.181792 -1.56548 0
M  V30 1555 C 149.059 0.898348 -1.8059 0
M  V30 1556 C 149.372 1.83862 -0.667379 0
M  V30 1557 O 150.578 2.59678 -0.792446 0
M  V30 1558 C 149.034 1.64791 -3.19956 0
M  V30 1559 C 148.642 0.751789 -4.41647 0
M  V30 1560 C 150.386 2.35331 -3.53298 0
M  V30 1561 C 148.293 1.50098 -5.72035 0
M  V30 1562 H 147.223 0.339194 -0.673397 0
M  V30 1563 H 149.874 0.151413 -1.82874 0
M  V30 1564 H 148.256 2.43921 -3.11959 0
M  V30 1565 H 149.43 -0.0018076 -4.608 0
M  V30 1566 H 147.745 0.156562 -4.16106 0
M  V30 1567 H 150.342 2.91958 -4.47956 0
M  V30 1568 H 150.685 3.10164 -2.77676 0
M  V30 1569 H 151.218 1.63154 -3.62803 0
M  V30 1570 H 147.957 0.795175 -6.50659 0
M  V30 1571 H 147.477 2.22817 -5.56878 0
M  V30 1572 H 149.156 2.05125 -6.13622 0
M  V30 1573 N 149.288 1.51039 0.449983 0
M  V30 1574 C 150.251 1.70863 1.5277 0
M  V30 1575 C 151.251 0.578846 1.5002 0
M  V30 1576 O 152.441 0.846213 1.52266 0
M  V30 1577 C 149.573 1.75341 2.9235 0
M  V30 1578 H 150.766 2.67034 1.36502 0
M  V30 1579 H 148.319 1.40838 0.677812 0
M  V30 1580 H 149.054 0.809383 3.14037 0
M  V30 1581 H 148.839 2.57436 2.95752 0
M  V30 1582 H 150.329 1.92559 3.70555 0
M  V30 1583 N 150.766 -0.704594 1.40972 0
M  V30 1584 C 152.015 -1.46018 1.39146 0
M  V30 1585 C 152.328 -1.956 0.000589254 0
M  V30 1586 O 153.534 -2.71137 -0.1403 0
M  V30 1587 C 151.99 -2.63996 2.4461 0
M  V30 1588 C 151.598 -2.21238 3.89561 0
M  V30 1589 C 153.342 -3.41677 2.51907 0
M  V30 1590 C 151.249 -3.3612 4.86598 0
M  V30 1591 H 150.179 -0.548444 0.517422 0
M  V30 1592 H 152.83 -0.765784 1.66757 0
M  V30 1593 H 151.212 -3.3566 2.10115 0
M  V30 1594 H 152.386 -1.56923 4.33257 0
M  V30 1595 H 150.701 -1.56574 3.85841 0
M  V30 1596 H 153.298 -4.27182 3.2159 0
M  V30 1597 H 153.641 -3.86247 1.55303 0
M  V30 1598 H 154.174 -2.77064 2.85448 0
M  V30 1599 H 150.913 -2.96572 5.84573 0
M  V30 1600 H 150.433 -3.99315 4.47557 0
M  V30 1601 H 152.112 -4.02029 5.06934 0
M  V30 1602 N 152.244 -1.26651 -0.937939 0
M  V30 1603 C 153.492 -1.12165 -1.68118 0
M  V30 1604 C 153.813 0.334983 -1.92101 0
M  V30 1605 O 153.083 1.23583 -1.52 0
M  V30 1606 H 151.663 -0.412093 -0.623048 0
M  V30 1607 H 154.325 -1.59027 -1.12678 0
M  V30 1608 H 153.421 -1.64289 -2.6536 0
M  V30 1609 N 153.722 1.14298 -1.08507 0
M  V30 1610 C 154.95 1.89219 -0.836876 0
M  V30 1611 C 155.365 1.78638 0.611054 0
M  V30 1612 O 154.722 1.14643 1.41998 0
M  V30 1613 C 154.773 3.39158 -1.25116 0
M  V30 1614 O 154.494 3.49449 -2.64229 0
M  V30 1615 C 155.995 4.31073 -1.03398 0
M  V30 1616 H 153.215 0.599328 -0.301739 0
M  V30 1617 H 155.759 1.44746 -1.44461 0
M  V30 1618 H 153.914 3.81251 -0.687514 0
M  V30 1619 H 154.328 4.42589 -2.81452 0
M  V30 1620 H 155.802 5.34646 -1.37323 0
M  V30 1621 H 156.279 4.3919 0.0289259 0
M  V30 1622 H 156.885 3.94738 -1.58311 0
M  V30 1623 N 155.201 0.870884 1.31352 0
M  V30 1624 C 156.131 0.343096 2.30966 0
M  V30 1625 C 157.112 -0.566507 1.60389 0
M  V30 1626 O 158.297 -0.483336 1.88089 0
M  V30 1627 C 155.427 -0.455487 3.443 0
M  V30 1628 C 154.381 0.361103 4.26474 0
M  V30 1629 C 153.707 -0.563221 5.31725 0
M  V30 1630 C 155.007 1.59566 4.97329 0
M  V30 1631 H 156.701 1.17548 2.75359 0
M  V30 1632 H 154.247 0.566686 1.32381 0
M  V30 1633 H 156.2 -0.83525 4.13039 0
M  V30 1634 H 154.924 -1.32139 2.98675 0
M  V30 1635 H 153.583 0.722825 3.59403 0
M  V30 1636 H 153.231 -1.42643 4.82351 0
M  V30 1637 H 152.931 -0.0207409 5.87596 0
M  V30 1638 H 154.455 -0.939808 6.03324 0
M  V30 1639 H 155.869 1.28728 5.58661 0
M  V30 1640 H 154.266 2.07728 5.63 0
M  V30 1641 H 155.336 2.34798 4.24262 0
M  V30 1642 N 156.679 -1.44442 0.630414 0
M  V30 1643 C 157.642 -2.29107 -0.0652523 0
M  V30 1644 C 158.642 -1.41002 -0.772995 0
M  V30 1645 O 159.832 -1.62881 -0.617692 0
M  V30 1646 C 156.964 -3.22564 -1.10296 0
M  V30 1647 H 158.157 -2.92103 0.679401 0
M  V30 1648 H 155.71 -1.51343 0.390517 0
M  V30 1649 H 156.445 -2.64416 -1.87762 0
M  V30 1650 H 156.23 -3.87491 -0.59941 0
M  V30 1651 H 157.72 -3.86167 -1.5895 0
M  V30 1652 N 158.157 -0.370918 -1.53173 0
M  V30 1653 C 159.405 0.216673 -2.00935 0
M  V30 1654 C 159.726 1.48845 -1.25977 0
M  V30 1655 O 158.996 1.92286 -0.374551 0
M  V30 1656 H 157.576 0.0830565 -0.742368 0
M  V30 1657 H 160.238 -0.49838 -1.8842 0
M  V30 1658 H 159.334 0.439893 -3.08984 0
M  V30 1659 N 159.635 1.57281 -0.100228 0
M  V30 1660 C 160.881 1.94826 0.563101 0
M  V30 1661 C 161.214 0.982475 1.67514 0
M  V30 1662 O 160.489 0.0164069 1.94493 0
M  V30 1663 C 160.772 3.42453 1.11346 0
M  V30 1664 C 160.625 4.498 0.00612081 0
M  V30 1665 C 161.944 3.91506 2.01024 0
M  V30 1666 H 159.063 0.708428 0.203221 0
M  V30 1667 H 161.705 1.8922 -0.171979 0
M  V30 1668 H 159.855 3.47361 1.7399 0
M  V30 1669 H 161.527 4.57 -0.628357 0
M  V30 1670 H 159.77 4.28756 -0.659581 0
M  V30 1671 H 160.441 5.50306 0.432109 0
M  V30 1672 H 162.917 3.88784 1.48278 0
M  V30 1673 H 161.793 4.95358 2.36457 0
M  V30 1674 H 162.054 3.31099 2.92961 0
M  V30 1675 N 161.113 -0.173488 1.56642 0
M  V30 1676 C 162.076 -1.19859 1.95362 0
M  V30 1677 C 163.076 -1.37296 0.83704 0
M  V30 1678 O 164.266 -1.34739 1.10413 0
M  V30 1679 C 161.398 -2.56405 2.24654 0
M  V30 1680 H 162.591 -0.867062 2.87092 0
M  V30 1681 H 160.144 -0.415853 1.50666 0
M  V30 1682 H 160.879 -2.94576 1.35631 0
M  V30 1683 H 160.664 -2.45115 3.06041 0
M  V30 1684 H 162.154 -3.30287 2.5554 0
M  V30 1685 N 162.591 -1.51276 -0.441967 0
M  V30 1686 C 163.538 -1.72256 -1.53612 0
M  V30 1687 C 164.508 -0.564164 -1.56225 0
M  V30 1688 O 165.693 -0.798074 -1.73307 0
M  V30 1689 C 162.833 -1.84932 -2.91366 0
M  V30 1690 C 161.946 -3.12459 -2.98317 0
M  V30 1691 C 161.081 -3.15758 -4.27166 0
M  V30 1692 C 160.12 -4.37619 -4.27967 0
M  V30 1693 N 159.257 -4.38493 -5.48333 0
M  V30 1694 H 164.097 -2.65654 -1.35026 0
M  V30 1695 H 161.634 -1.31662 -0.656009 0
M  V30 1696 H 163.592 -1.90263 -3.7129 0
M  V30 1697 H 162.222 -0.949461 -3.08521 0
M  V30 1698 H 161.274 -3.1646 -2.11086 0
M  V30 1699 H 162.586 -4.02382 -2.94771 0
M  V30 1700 H 161.74 -3.19979 -5.15459 0
M  V30 1701 H 160.479 -2.23715 -4.33362 0
M  V30 1702 H 159.484 -4.33579 -3.38067 0
M  V30 1703 H 160.709 -5.30921 -4.23438 0
M  V30 1704 H 158.655 -3.49318 -5.55259 0
M  V30 1705 H 158.572 -5.22219 -5.46647 0
M  V30 1706 H 159.84 -4.469 -6.38671 0
M  V30 1707 N 164.069 0.697108 -1.41344 0
M  V30 1708 C 165.019 1.80313 -1.39539 0
M  V30 1709 C 166.003 1.58618 -0.270001 0
M  V30 1710 O 167.195 1.69477 -0.510551 0
M  V30 1711 C 164.324 3.18606 -1.27848 0
M  V30 1712 C 163.41 3.46001 -2.45244 0
M  V30 1713 N 163.801 3.44103 -3.70711 0
M  V30 1714 C 162.099 3.76542 -2.39023 0
M  V30 1715 C 162.8 3.7036 -4.48563 0
M  V30 1716 N 161.776 3.90027 -3.78655 0
M  V30 1717 H 165.578 1.77207 -2.34468 0
M  V30 1718 H 163.092 0.897031 -1.35378 0
M  V30 1719 H 165.089 3.97833 -1.24637 0
M  V30 1720 H 163.749 3.22925 -0.339032 0
M  V30 1721 H 164.76 3.2452 -4.03618 0
M  V30 1722 H 161.437 3.88241 -1.53542 0
M  V30 1723 H 162.827 3.75042 -5.57488 0
M  V30 1724 N 165.547 1.27147 0.931209 0
M  V30 1725 C 166.777 1.15914 1.71019 0
M  V30 1726 C 167.185 -0.287112 1.87009 0
M  V30 1727 O 166.528 -1.20761 1.38429 0
M  V30 1728 C 166.59 1.76647 3.13107 0
M  V30 1729 C 166.254 3.25807 3.20467 0
M  V30 1730 C 167.251 4.22489 3.02983 0
M  V30 1731 C 164.936 3.66452 3.43538 0
M  V30 1732 C 166.93 5.57794 3.08454 0
M  V30 1733 C 164.617 5.01888 3.48643 0
M  V30 1734 C 165.615 5.97369 3.31119 0
M  V30 1735 O 165.303 7.30337 3.35952 0
M  V30 1736 H 165.035 0.404062 0.54195 0
M  V30 1737 H 167.589 1.68457 1.17521 0
M  V30 1738 H 165.819 1.18578 3.68071 0
M  V30 1739 H 167.508 1.60179 3.72958 0
M  V30 1740 H 168.274 3.92425 2.85004 0
M  V30 1741 H 164.153 2.92611 3.5623 0
M  V30 1742 H 167.697 6.32298 2.94694 0
M  V30 1743 H 163.594 5.31609 3.66145 0
M  V30 1744 H 164.362 7.38739 3.5243 0
M  V30 1745 N 167.025 -1.13721 1.09112 0
M  V30 1746 C 167.935 -2.22638 0.73957 0
M  V30 1747 C 168.951 -1.72091 -0.257068 0
M  V30 1748 O 170.127 -2.01155 -0.0992154 0
M  V30 1749 C 167.192 -3.46322 0.16191 0
M  V30 1750 C 166.253 -4.11775 1.21408 0
M  V30 1751 C 165.486 -5.29555 0.663891 0
M  V30 1752 O 165.709 -5.68077 -0.514274 0
M  V30 1753 O 164.643 -5.84973 1.41738 0
M  V30 1754 H 168.469 -2.55074 1.64836 0
M  V30 1755 H 166.054 -1.21791 0.865289 0
M  V30 1756 H 167.936 -4.21107 -0.157073 0
M  V30 1757 H 166.611 -3.15593 -0.719932 0
M  V30 1758 H 165.518 -3.3883 1.58571 0
M  V30 1759 H 166.851 -4.46627 2.06845 0
M  V30 1760 N 168.503 -0.877838 -1.30888 0
M  V30 1761 C 169.919 -0.570844 -1.49042 0
M  V30 1762 C 170.119 0.893159 -1.80624 0
M  V30 1763 O 169.175 1.67485 -1.88958 0
M  V30 1764 C 170.488 -1.47784 -2.61878 0
M  V30 1765 C 172.036 -1.48071 -2.75761 0
M  V30 1766 C 172.511 -2.37347 -3.91702 0
M  V30 1767 N 174.002 -2.35271 -3.99001 0
M  V30 1768 C 174.737 -3.01063 -4.88004 0
M  V30 1769 N 174.233 -3.76055 -5.81854 0
M  V30 1770 N 176.026 -2.90332 -4.81315 0
M  V30 1771 H 168.177 -1.82502 -1.0866 0
M  V30 1772 H 170.44 -0.780797 -0.537644 0
M  V30 1773 H 170.146 -2.51993 -2.45341 0
M  V30 1774 H 170.02 -1.18215 -3.58197 0
M  V30 1775 H 172.407 -0.446166 -2.91708 0
M  V30 1776 H 172.488 -1.81668 -1.80085 0
M  V30 1777 H 172.132 -3.40883 -3.76512 0
M  V30 1778 H 172.062 -2.01071 -4.86701 0
M  V30 1779 H 174.553 -1.80768 -3.3186 0
M  V30 1780 H 174.866 -4.23366 -6.46514 0
M  V30 1781 H 173.211 -3.80163 -5.81808 0
M  V30 1782 H 176.402 -2.31278 -4.06974 0
M  V30 1783 H 176.575 -3.41885 -5.50471 0
M  V30 1784 N 169.982 1.44106 -0.638065 0
M  V30 1785 C 170.912 2.33448 0.0494287 0
M  V30 1786 C 171.893 1.48606 0.827672 0
M  V30 1787 O 173.078 1.77308 0.792173 0
M  V30 1788 C 170.208 3.31771 1.02691 0
M  V30 1789 C 169.162 4.26485 0.359823 0
M  V30 1790 C 168.488 5.14729 1.44769 0
M  V30 1791 C 169.788 5.17056 -0.738296 0
M  V30 1792 H 171.482 2.91183 -0.696636 0
M  V30 1793 H 169.028 1.40014 -0.336456 0
M  V30 1794 H 170.981 3.93161 1.51666 0
M  V30 1795 H 169.705 2.7226 1.80395 0
M  V30 1796 H 168.364 3.66437 -0.10934 0
M  V30 1797 H 168.012 4.51566 2.21578 0
M  V30 1798 H 167.712 5.78913 1.00668 0
M  V30 1799 H 169.236 5.78991 1.93911 0
M  V30 1800 H 170.65 5.72342 -0.331354 0
M  V30 1801 H 169.047 5.89879 -1.10286 0
M  V30 1802 H 170.117 4.57652 -1.60258 0
M  V30 1803 N 171.46 0.379036 1.52974 0
M  V30 1804 C 172.708 -0.206014 2.01047 0
M  V30 1805 C 173.029 -1.48175 1.26765 0
M  V30 1806 O 172.299 -1.92085 0.384743 0
M  V30 1807 H 170.879 -0.0791184 0.742798 0
M  V30 1808 H 173.541 0.508366 1.88153 0
M  V30 1809 H 172.637 -0.423501 3.09213 0
M  V30 1810 N 172.938 -1.57226 0.108567 0
M  V30 1811 C 174.184 -1.95121 -0.552761 0
M  V30 1812 C 174.517 -0.991345 -1.66991 0
M  V30 1813 O 173.792 -0.0267211 -1.94482 0
M  V30 1814 C 174.075 -3.43039 -1.09528 0
M  V30 1815 C 173.928 -4.49797 0.0177332 0
M  V30 1816 C 175.247 -3.92567 -1.98945 0
M  V30 1817 H 172.366 -0.709496 -0.199461 0
M  V30 1818 H 175.008 -1.89126 0.182011 0
M  V30 1819 H 173.158 -3.48279 -1.72146 0
M  V30 1820 H 174.83 -4.56661 0.652584 0
M  V30 1821 H 173.073 -4.284 0.682309 0
M  V30 1822 H 173.744 -5.50528 -0.402919 0
M  V30 1823 H 176.22 -3.89565 -1.46214 0
M  V30 1824 H 175.096 -4.96605 -2.33827 0
M  V30 1825 H 175.357 -3.32648 -2.91201 0
M  V30 1826 N 174.416 0.165178 -1.56732 0
M  V30 1827 C 175.665 0.879143 -1.81532 0
M  V30 1828 C 175.978 1.83144 -0.686842 0
M  V30 1829 O 177.184 2.58823 -0.819944 0
M  V30 1830 C 175.64 1.61388 -3.21686 0
M  V30 1831 C 175.248 0.704904 -4.4242 0
M  V30 1832 C 176.992 2.3157 -3.55774 0
M  V30 1833 C 174.899 1.44022 -5.73595 0
M  V30 1834 H 173.829 0.332033 -0.676957 0
M  V30 1835 H 176.48 0.132008 -1.83025 0
M  V30 1836 H 174.862 2.40599 -3.14529 0
M  V30 1837 H 176.036 -0.0506815 -4.60772 0
M  V30 1838 H 174.351 0.112419 -4.16248 0
M  V30 1839 H 176.948 2.8719 -4.51028 0
M  V30 1840 H 177.291 3.07201 -2.8095 0
M  V30 1841 H 177.824 1.59297 -3.64513 0
M  V30 1842 H 174.563 0.72612 -6.51466 0
M  V30 1843 H 174.083 2.16898 -5.5921 0
M  V30 1844 H 175.762 1.98606 -6.15764 0
M  V30 1845 N 175.894 1.51508 0.433938 0
M  V30 1846 C 177.14 1.65549 1.18173 0
M  V30 1847 C 177.495 0.368751 1.88833 0
M  V30 1848 O 176.788 -0.635616 1.8075 0
M  V30 1849 C 176.982 2.79928 2.22205 0
M  V30 1850 C 176.811 4.19601 1.61756 0
M  V30 1851 C 175.581 4.85489 1.40101 0
M  V30 1852 C 177.779 5.02574 1.09194 0
M  V30 1853 N 175.761 6.09266 0.752859 0
M  V30 1854 C 177.132 6.17381 0.569255 0
M  V30 1855 C 179.187 4.88079 0.984025 0
M  V30 1856 C 177.89 7.19282 -0.0507472 0
M  V30 1857 C 179.916 5.90191 0.377912 0
M  V30 1858 C 179.278 7.04272 -0.134216 0
M  V30 1859 H 175.377 0.659653 0.419979 0
M  V30 1860 H 177.961 1.88746 0.477818 0
M  V30 1861 H 176.132 2.5839 2.89982 0
M  V30 1862 H 177.864 2.83132 2.89168 0
M  V30 1863 H 174.619 4.43417 1.66369 0
M  V30 1864 H 175.043 6.75528 0.446123 0
M  V30 1865 H 179.685 4.00131 1.36583 0
M  V30 1866 H 177.403 8.06876 -0.444676 0
M  V30 1867 H 180.989 5.81045 0.296269 0
M  V30 1868 H 179.869 7.81933 -0.59585 0
M  V30 1869 N 177.372 -0.689602 1.41712 0
M  V30 1870 C 178.602 -1.47613 1.44548 0
M  V30 1871 C 179.01 -1.89132 0.0509034 0
M  V30 1872 O 178.353 -1.57741 -0.94146 0
M  V30 1873 C 178.415 -2.76596 2.2964 0
M  V30 1874 C 178.079 -2.57245 3.77722 0
M  V30 1875 C 179.076 -2.22804 4.69739 0
M  V30 1876 C 176.761 -2.727 4.2183 0
M  V30 1877 C 178.755 -2.04064 6.03851 0
M  V30 1878 C 176.442 -2.53576 5.56006 0
M  V30 1879 C 177.44 -2.1931 6.46832 0
M  V30 1880 O 177.128 -2.00359 7.78532 0
M  V30 1881 H 176.86 -0.461227 0.494212 0
M  V30 1882 H 179.414 -0.856045 1.86711 0
M  V30 1883 H 177.644 -3.41033 1.82301 0
M  V30 1884 H 179.333 -3.38424 2.24107 0
M  V30 1885 H 180.099 -2.10473 4.36951 0
M  V30 1886 H 175.978 -2.98353 3.51435 0
M  V30 1887 H 179.522 -1.77241 6.74708 0
M  V30 1888 H 175.419 -2.65499 5.88371 0
M  V30 1889 H 176.187 -2.15075 7.89737 0
M  V30 1890 N 178.85 -1.27639 -0.924453 0
M  V30 1891 C 180.127 -1.04887 -1.651 0
M  V30 1892 C 180.507 0.415327 -2.06974 0
M  V30 1893 O 179.855 1.39923 -1.80648 0
M  V30 1894 C 180.065 -2.01348 -2.85061 0
M  V30 1895 C 181.413 -2.30899 -3.56329 0
M  V30 1896 O 182.437 -1.99348 -2.95193 0
M  V30 1897 O 181.296 -2.84699 -4.66485 0
M  V30 1898 H 178.39 -0.400083 -0.723784 0
M  V30 1899 H 180.936 -1.38916 -0.974703 0
M  V30 1900 H 179.708 -3.0008 -2.51133 0
M  V30 1901 H 179.331 -1.679 -3.6041 0
M  V30 1902 N 180.328 1.1314 -1.09713 0
M  V30 1903 C 181.291 2.16831 -0.742751 0
M  V30 1904 C 182.291 1.59159 0.229129 0
M  V30 1905 O 183.481 1.74199 0.00693237 0
M  V30 1906 C 180.613 3.40756 -0.0989168 0
M  V30 1907 H 181.806 2.49695 -1.66109 0
M  V30 1908 H 179.359 1.2802 -0.896699 0
M  V30 1909 H 180.094 3.13485 0.830514 0
M  V30 1910 H 179.879 3.83888 -0.798265 0
M  V30 1911 H 181.369 4.17386 0.133524 0
M  V30 1912 N 181.806 0.884767 1.30421 0
M  V30 1913 C 182.756 0.322846 2.25703 0
M  V30 1914 C 183.74 -0.548582 1.51259 0
M  V30 1915 O 184.932 -0.39304 1.72581 0
M  V30 1916 C 182.061 -0.461787 3.4018 0
M  V30 1917 C 181.147 0.423717 4.21978 0
M  V30 1918 N 181.538 1.52408 4.82292 0
M  V30 1919 C 179.836 0.218795 4.45463 0
M  V30 1920 C 180.537 2.07136 5.43571 0
M  V30 1921 N 179.513 1.36635 5.26148 0
M  V30 1922 H 183.315 1.16363 2.69883 0
M  V30 1923 H 180.829 0.73415 1.44859 0
M  V30 1924 H 182.826 -0.880985 4.07485 0
M  V30 1925 H 181.486 -1.30001 2.9754 0
M  V30 1926 H 182.497 1.90693 4.81515 0
M  V30 1927 H 179.174 -0.582275 4.1342 0
M  V30 1928 H 180.564 2.99538 6.01437 0
M  V30 1929 N 183.284 -1.43765 0.645699 0
M  V30 1930 C 184.532 -2.01499 0.155731 0
M  V30 1931 C 184.853 -1.51151 -1.232 0
M  V30 1932 O 184.123 -0.721044 -1.82148 0
M  V30 1933 H 182.703 -0.745003 0.0545817 0
M  V30 1934 H 185.365 -1.76075 0.835677 0
M  V30 1935 H 184.461 -3.1181 0.134577 0
M  V30 1936 N 184.763 -0.387143 -1.52771 0
M  V30 1937 C 186.04 0.253197 -1.93954 0
M  V30 1938 C 186.42 1.64545 -1.32243 0
M  V30 1939 O 185.768 2.23191 -0.489699 0
M  V30 1940 C 185.978 0.281722 -3.47861 0
M  V30 1941 C 187.326 0.511715 -4.21505 0
M  V30 1942 O 188.35 0.362023 -3.54356 0
M  V30 1943 O 187.209 0.804847 -5.40541 0
M  V30 1944 H 184.303 0.156845 -0.811991 0
M  V30 1945 H 186.849 -0.441494 -1.63856 0
M  V30 1946 H 185.621 -0.693571 -3.85104 0
M  V30 1947 H 185.244 1.02142 -3.84256 0
M  V30 1948 N 186.241 1.57166 -0.116904 0
M  V30 1949 C 187.487 1.95412 0.542405 0
M  V30 1950 C 187.82 1.00019 1.66463 0
M  V30 1951 O 187.095 0.0370346 1.94465 0
M  V30 1952 C 187.378 3.43615 1.07708 0
M  V30 1953 C 187.231 4.49781 -0.0415868 0
M  V30 1954 C 188.55 3.93616 1.96861 0
M  V30 1955 H 185.669 0.710543 0.195696 0
M  V30 1956 H 188.311 1.89027 -0.192038 0
M  V30 1957 H 186.461 3.49187 1.70296 0
M  V30 1958 H 188.133 4.56308 -0.676793 0
M  V30 1959 H 186.376 4.28033 -0.705019 0
M  V30 1960 H 187.047 5.50733 0.373717 0
M  V30 1961 H 189.523 3.90335 1.44146 0
M  V30 1962 H 188.399 4.97838 2.3119 0
M  V30 1963 H 188.66 3.34188 2.89432 0
M  V30 1964 N 187.719 -0.156864 1.56817 0
M  V30 1965 C 188.667 -1.21319 1.98455 0
M  V30 1966 C 189.661 -1.45025 0.875444 0
M  V30 1967 O 190.867 -1.45435 1.0606 0
M  V30 1968 H 187.242 -0.408142 0.631605 0
M  V30 1969 H 189.213 -0.835244 2.86472 0
M  V30 1970 C 187.962 -2.54148 2.37285 0
M  V30 1971 H 187.285 -2.36733 3.22176 0
M  V30 1972 H 188.725 -3.26712 2.70251 0
M  V30 1973 C 187.184 -3.13967 1.22173 0
M  V30 1974 O 187.714 -3.98357 0.517149 0
M  V30 1975 N 185.92 -2.7327 0.988536 0
M  V30 1976 H 185.467 -2.04744 1.56326 0
M  V30 1977 H 185.425 -3.13628 0.220209 0
M  V30 1978 N 189.197 -1.51736 -0.425897 0
M  V30 1979 C 190.425 -1.68794 -1.1965 0
M  V30 1980 C 190.84 -0.390164 -1.84725 0
M  V30 1981 O 190.197 0.632376 -1.71194 0
M  V30 1982 C 190.248 -2.81174 -2.27208 0
M  V30 1983 O 189.969 -4.05925 -1.64793 0
M  V30 1984 C 191.47 -3.09599 -3.17275 0
M  V30 1985 H 188.69 -0.566128 -0.360194 0
M  V30 1986 H 191.234 -1.98211 -0.503249 0
M  V30 1987 H 189.389 -2.54324 -2.9223 0
M  V30 1988 H 189.803 -4.68423 -2.35967 0
M  V30 1989 H 191.277 -3.91786 -3.88854 0
M  V30 1990 H 191.754 -2.22468 -3.78688 0
M  V30 1991 H 192.36 -3.38151 -2.57941 0
M  V30 1992 N 190.675 0.682077 -1.42076 0
M  V30 1993 C 191.638 1.77756 -1.44691 0
M  V30 1994 C 192.638 1.5726 -0.335535 0
M  V30 1995 O 193.828 1.63686 -0.596037 0
M  V30 1996 C 190.96 3.16301 -1.27146 0
M  V30 1997 H 192.153 1.76826 -2.42224 0
M  V30 1998 H 189.706 0.891012 -1.28416 0
M  V30 1999 H 190.441 3.22862 -0.305075 0
M  V30 2000 H 190.226 3.32581 -2.07683 0
M  V30 2001 H 191.716 3.96241 -1.31843 0
M  V30 2002 N 192.153 1.28127 0.917671 0
M  V30 2003 C 193.063 1.13556 2.05286 0
M  V30 2004 C 194.079 0.0630914 1.73886 0
M  V30 2005 O 195.255 0.271598 1.9956 0
M  V30 2006 C 192.32 0.794676 3.3747 0
M  V30 2007 C 191.381 1.94909 3.82504 0
M  V30 2008 C 190.614 1.62437 5.0838 0
M  V30 2009 O 190.837 0.536905 5.67867 0
M  V30 2010 O 189.771 2.46677 5.4903 0
M  V30 2011 H 193.597 2.08844 2.20495 0
M  V30 2012 H 191.182 1.07409 1.03845 0
M  V30 2013 H 193.064 0.618344 4.16839 0
M  V30 2014 H 191.739 -0.128581 3.23445 0
M  V30 2015 H 190.646 2.18055 3.03978 0
M  V30 2016 H 191.979 2.85291 4.01086 0
M  V30 2017 N 193.631 -1.12557 1.10312 0
M  V30 2018 C 194.859 -1.87864 0.866873 0
M  V30 2019 C 195.274 -1.79588 -0.582557 0
M  V30 2020 O 194.631 -1.16887 -1.40156 0
M  V30 2021 C 194.682 -3.37125 1.30496 0
M  V30 2022 O 194.403 -3.45201 2.69755 0
M  V30 2023 C 195.904 -4.29373 1.10243 0
M  V30 2024 H 193.124 -0.594452 0.311236 0
M  V30 2025 H 195.668 -1.42429 1.46745 0
M  V30 2026 H 193.823 -3.80109 0.748081 0
M  V30 2027 H 194.237 -4.38056 2.88457 0
M  V30 2028 H 195.711 -5.32394 1.45811 0
M  V30 2029 H 196.188 -4.39181 0.0409492 0
M  V30 2030 H 196.794 -3.92169 1.64571 0
M  V30 2031 N 195.109 -0.891671 -1.2995 0
M  V30 2032 C 196.334 -0.527932 -2.00568 0
M  V30 2033 C 196.759 0.877969 -1.66353 0
M  V30 2034 O 196.117 1.58301 -0.883762 0
M  V30 2035 C 196.165 -0.717745 -3.53385 0
M  V30 2036 O 195.269 0.233376 -4.11739 0
M  V30 2037 H 194.61 -0.20722 -0.630837 0
M  V30 2038 H 197.14 -1.20105 -1.65638 0
M  V30 2039 H 197.15 -0.619307 -4.03272 0
M  V30 2040 H 195.825 -1.74276 -3.77625 0
M  V30 2041 H 194.402 0.0880706 -3.72796 0
M  V30 2042 N 196.587 1.43421 -0.653314 0
M  V30 2043 C 197.998 1.85065 -0.246537 0
M  V30 2044 C 198.349 1.54688 1.2069 0
M  V30 2045 O 197.474 0.995896 1.92122 0
M  V30 2046 C 198.069 3.35922 -0.440666 0
M  V30 2047 C 196.628 3.76297 -0.0882064 0
M  V30 2048 C 195.775 2.67147 -0.743484 0
M  V30 2049 H 198.726 1.33572 -0.856979 0
M  V30 2050 H 198.747 3.79204 0.313798 0
M  V30 2051 H 198.259 3.58 -1.49858 0
M  V30 2052 H 196.36 3.5983 0.96711 0
M  V30 2053 H 196.473 4.76338 -0.513738 0
M  V30 2054 H 194.837 2.54086 -0.176712 0
M  V30 2055 H 195.62 2.92053 -1.80443 0
M  V30 2056 N 198.065 0.39524 1.52563 0
M  V30 2057 C 199.29 -0.187456 2.06551 0
M  V30 2058 C 199.715 -1.39249 1.26457 0
M  V30 2059 O 199.073 -1.78947 0.291151 0
M  V30 2060 C 199.121 -0.529985 3.56684 0
M  V30 2061 O 198.225 -1.62307 3.79118 0
M  V30 2062 H 197.566 -0.0202537 0.663691 0
M  V30 2063 H 200.096 0.564426 1.96661 0
M  V30 2064 H 200.106 -0.792598 4.00227 0
M  V30 2065 H 198.781 0.350987 4.14416 0
M  V30 2066 H 197.358 -1.3537 3.47461 0
M  V30 2067 N 199.544 -1.57102 0.125237 0
M  V30 2068 C 200.792 -1.95021 -0.530198 0
M  V30 2069 C 201.113 -1.00982 -1.66816 0
M  V30 2070 O 200.383 -0.0672693 -1.95784 0
M  V30 2071 H 198.963 -0.720046 -0.198853 0
M  V30 2072 H 201.625 -1.93916 0.19564 0
M  V30 2073 H 200.721 -2.98211 -0.920681 0
M  V30 2074 N 201.022 0.148545 -1.56898 0
M  V30 2075 C 201.97 1.20265 -1.99096 0
M  V30 2076 C 202.964 1.44559 -0.883123 0
M  V30 2077 O 204.17 1.4487 -1.0683 0
M  V30 2078 H 200.545 0.404786 -0.63376 0
M  V30 2079 H 202.516 0.82004 -2.86911 0
M  V30 2080 C 201.265 2.52886 -2.3863 0
M  V30 2081 H 200.588 2.35021 -3.23427 0
M  V30 2082 H 202.028 3.25274 -2.7198 0
M  V30 2083 C 200.487 3.13315 -1.23837 0
M  V30 2084 O 201.017 3.98077 -0.538268 0
M  V30 2085 N 199.223 2.72742 -1.00301 0
M  V30 2086 H 198.77 2.03912 -1.5741 0
M  V30 2087 H 198.728 3.13507 -0.236838 0
M  V30 2088 N 202.5 1.5196 0.417844 0
M  V30 2089 C 203.749 1.6482 1.16264 0
M  V30 2090 C 204.062 0.379886 1.91876 0
M  V30 2091 O 205.268 0.388154 2.68711 0
M  V30 2092 C 203.724 2.91161 2.1155 0
M  V30 2093 C 203.332 4.25068 1.41495 0
M  V30 2094 C 205.076 3.13383 2.86341 0
M  V30 2095 C 202.983 5.42541 2.35379 0
M  V30 2096 H 201.913 0.613954 0.437694 0
M  V30 2097 H 204.564 1.78442 0.427871 0
M  V30 2098 H 202.946 2.71218 2.88543 0
M  V30 2099 H 204.12 4.55463 0.699263 0
M  V30 2100 H 202.435 4.0888 0.787792 0
M  V30 2101 H 205.032 3.98324 3.5671 0
M  V30 2102 H 205.375 2.27256 3.48798 0
M  V30 2103 H 205.908 3.33757 2.1645 0
M  V30 2104 H 202.647 6.30987 1.77582 0
M  V30 2105 H 202.167 5.16497 3.04945 0
M  V30 2106 H 203.846 5.75272 2.96093 0
M  V30 2107 N 203.978 -0.674533 1.42435 0
M  V30 2108 C 204.928 -1.7807 1.4239 0
M  V30 2109 C 205.912 -1.58169 0.295202 0
M  V30 2110 O 207.104 -1.68643 0.537449 0
M  V30 2111 C 204.233 -3.16532 1.32901 0
M  V30 2112 C 203.319 -3.42055 2.50717 0
M  V30 2113 N 203.71 -3.38162 3.76139 0
M  V30 2114 C 202.008 -3.72692 2.44983 0
M  V30 2115 C 202.709 -3.63177 4.54398 0
M  V30 2116 N 201.685 -3.83954 3.84812 0
M  V30 2117 H 205.487 -1.73454 2.37257 0
M  V30 2118 H 203.001 -0.875381 1.36788 0
M  V30 2119 H 204.998 -3.958 1.30951 0
M  V30 2120 H 203.658 -3.22345 0.390363 0
M  V30 2121 H 204.669 -3.18057 4.0873 0
M  V30 2122 H 201.346 -3.85749 1.59699 0
M  V30 2123 H 202.736 -3.66125 5.63384 0
M  V30 2124 N 205.456 -1.28612 -0.910864 0
M  V30 2125 C 206.704 -1.15705 -1.65701 0
M  V30 2126 C 207.025 0.29416 -1.92769 0
M  V30 2127 O 206.295 1.20331 -1.54588 0
M  V30 2128 H 204.875 -0.425216 -0.614167 0
M  V30 2129 H 207.537 -1.61381 -1.0928 0
M  V30 2130 H 206.633 -1.6988 -2.61815 0
M  V30 2131 N 206.934 1.1197 -1.10907 0
M  V30 2132 C 207.867 2.16998 -0.706192 0
M  V30 2133 C 208.845 1.59903 0.294897 0
M  V30 2134 O 210.029 1.87513 0.192636 0
M  V30 2135 C 207.156 3.38673 -0.0427664 0
M  V30 2136 C 206.202 4.14414 -1.00811 0
M  V30 2137 S 207.035 4.72079 -2.52789 0
M  V30 2138 C 208.191 5.97083 -1.87731 0
M  V30 2139 H 208.424 2.50837 -1.59587 0
M  V30 2140 H 205.957 1.23508 -0.926555 0
M  V30 2141 H 207.915 4.09142 0.333668 0
M  V30 2142 H 206.576 3.03105 0.823788 0
M  V30 2143 H 205.769 5.016 -0.491259 0
M  V30 2144 H 205.371 3.49678 -1.3267 0
M  V30 2145 H 207.663 6.66599 -1.21044 0
M  V30 2146 H 208.606 6.53403 -2.72892 0
M  V30 2147 H 209.014 5.4837 -1.33979 0
M  V30 2148 N 208.412 0.89855 1.29475 0
M  V30 2149 C 209.823 0.572537 1.77705 0
M  V30 2150 C 210.174 -0.911778 1.73727 0
M  V30 2151 O 209.299 -1.71288 1.32247 0
M  V30 2152 C 209.894 1.03252 3.22683 0
M  V30 2153 C 208.453 0.757687 3.68695 0
M  V30 2154 C 207.6 1.20787 2.49612 0
M  V30 2155 H 210.551 1.08139 1.16153 0
M  V30 2156 H 210.572 0.367307 3.78723 0
M  V30 2157 H 210.084 2.11285 3.25546 0
M  V30 2158 H 208.185 -0.310079 3.71308 0
M  V30 2159 H 208.298 1.35476 4.59547 0
M  V30 2160 H 206.662 0.626888 2.46865 0
M  V30 2161 H 207.445 2.29622 2.55203 0
M  V30 2162 N 209.89 -1.43072 0.660911 0
M  V30 2163 C 210.82 -2.33497 -0.0122829 0
M  V30 2164 C 211.801 -1.49903 -0.803925 0
M  V30 2165 O 212.986 -1.78546 -0.763864 0
M  V30 2166 C 210.116 -3.33363 -0.973994 0
M  V30 2167 C 209.07 -4.27003 -0.291928 0
M  V30 2168 C 208.396 -5.16967 -1.36562 0
M  V30 2169 C 209.696 -5.15816 0.820462 0
M  V30 2170 H 211.39 -2.90038 0.742873 0
M  V30 2171 H 208.936 -1.39461 0.358688 0
M  V30 2172 H 210.889 -3.95524 -1.45392 0
M  V30 2173 H 209.613 -2.75095 -1.7604 0
M  V30 2174 H 208.272 -3.66217 0.167623 0
M  V30 2175 H 207.92 -4.55034 -2.14366 0
M  V30 2176 H 207.62 -5.80441 -0.914454 0
M  V30 2177 H 209.144 -5.82003 -1.84675 0
M  V30 2178 H 210.558 -5.71742 0.422366 0
M  V30 2179 H 208.955 -5.8805 1.19656 0
M  V30 2180 H 210.025 -4.55045 1.67518 0
M  V30 2181 N 211.368 -0.403325 -1.52352 0
M  V30 2182 C 212.331 0.413051 -2.25447 0
M  V30 2183 C 213.331 0.978513 -1.276 0
M  V30 2184 O 214.521 0.858305 -1.51587 0
M  V30 2185 C 211.653 1.58087 -3.02029 0
M  V30 2186 H 212.846 -0.227094 -2.99039 0
M  V30 2187 H 210.399 -0.155722 -1.55522 0
M  V30 2188 H 211.134 2.25804 -2.32772 0
M  V30 2189 H 210.919 1.18195 -3.73861 0
M  V30 2190 H 212.409 2.1585 -3.57489 0
M  V30 2191 N 212.846 1.57033 -0.133567 0
M  V30 2192 C 213.809 2.14897 0.796995 0
M  V30 2193 C 214.809 1.0874 1.18458 0
M  V30 2194 O 215.999 1.34446 1.1077 0
M  V30 2195 C 213.131 2.70112 2.07973 0
M  V30 2196 H 214.324 2.98457 0.293873 0
M  V30 2197 H 211.877 1.55871 0.115787 0
M  V30 2198 H 212.612 1.9018 2.62682 0
M  V30 2199 H 212.397 3.47764 1.81115 0
M  V30 2200 H 213.887 3.14738 2.74462 0
M  V30 2201 N 214.325 -0.140222 1.56975 0
M  V30 2202 C 215.55 -0.870414 1.88251 0
M  V30 2203 C 215.975 -1.73637 0.723312 0
M  V30 2204 O 215.333 -1.78329 -0.32689 0
M  V30 2205 C 215.381 -1.69737 3.18154 0
M  V30 2206 O 214.485 -2.80229 3.02565 0
M  V30 2207 H 213.826 -0.242025 0.61832 0
M  V30 2208 H 216.356 -0.128999 2.04193 0
M  V30 2209 H 216.366 -2.09099 3.50345 0
M  V30 2210 H 215.041 -1.06152 4.02125 0
M  V30 2211 H 213.618 -2.44224 2.81796 0
M  V30 2212 N 215.803 -1.52179 -0.40978 0
M  V30 2213 C 216.733 -1.78435 -1.5061 0
M  V30 2214 C 217.714 -0.635295 -1.57791 0
M  V30 2215 O 218.899 -0.880823 -1.73076 0
M  V30 2216 C 216.029 -1.93444 -2.88439 0
M  V30 2217 C 214.983 -3.09038 -2.96108 0
M  V30 2218 C 214.309 -3.09268 -4.36185 0
M  V30 2219 C 215.609 -4.48508 -2.67652 0
M  V30 2220 H 217.303 -2.70237 -1.28889 0
M  V30 2221 H 214.849 -1.30036 -0.618605 0
M  V30 2222 H 216.802 -2.10394 -3.65119 0
M  V30 2223 H 215.526 -0.983129 -3.11452 0
M  V30 2224 H 214.185 -2.91837 -2.21872 0
M  V30 2225 H 213.833 -2.11861 -4.56206 0
M  V30 2226 H 213.533 -3.86907 -4.42241 0
M  V30 2227 H 215.057 -3.28348 -5.14801 0
M  V30 2228 H 216.471 -4.65918 -3.34056 0
M  V30 2229 H 214.868 -5.28059 -2.85085 0
M  V30 2230 H 215.938 -4.56649 -1.63095 0
M  V30 2231 N 217.281 0.66697 -1.42791 0
M  V30 2232 C 218.529 1.42417 -1.43394 0
M  V30 2233 C 218.85 1.94925 -0.0542373 0
M  V30 2234 O 218.12 1.73564 0.908415 0
M  V30 2235 H 216.7 0.528515 -0.527902 0
M  V30 2236 H 219.362 0.787562 -1.78279 0
M  V30 2237 H 218.458 2.27333 -2.13837 0
M  V30 2238 N 218.759 1.29093 0.90403 0
M  V30 2239 C 220.006 1.16813 1.65411 0
M  V30 2240 C 220.334 -0.28128 1.92455 0
M  V30 2241 O 219.589 -1.22006 1.53013 0
M  V30 2242 C 219.888 1.92224 3.01305 0
M  V30 2243 C 219.554 3.41968 2.93885 0
M  V30 2244 C 218.216 3.82807 2.91569 0
M  V30 2245 C 220.568 4.37409 2.83413 0
M  V30 2246 C 217.896 5.1741 2.76594 0
M  V30 2247 C 220.248 5.72097 2.69977 0
M  V30 2248 C 218.912 6.12199 2.66024 0
M  V30 2249 H 218.182 0.42745 0.605283 0
M  V30 2250 H 220.829 1.59981 1.05254 0
M  V30 2251 H 219.134 1.41635 3.65304 0
M  V30 2252 H 220.831 1.80131 3.58265 0
M  V30 2253 H 217.421 3.09504 2.96488 0
M  V30 2254 H 221.605 4.06813 2.84283 0
M  V30 2255 H 216.861 5.47596 2.71935 0
M  V30 2256 H 221.035 6.45704 2.60844 0
M  V30 2257 H 218.662 7.16448 2.54178 0
M  V30 2258 N 220.237 -1.11381 1.11499 0
M  V30 2259 C 221.485 -1.8277 0.862524 0
M  V30 2260 C 221.806 -1.85097 -0.613534 0
M  V30 2261 O 221.076 -1.32198 -1.4457 0
M  V30 2262 H 219.656 -0.676823 0.316101 0
M  V30 2263 H 222.318 -1.34816 1.4075 0
M  V30 2264 H 221.414 -2.86614 1.23527 0
M  V30 2265 N 221.715 -0.905404 -1.28997 0
M  V30 2266 C 222.665 -0.358713 -2.25161 0
M  V30 2267 C 223.649 0.524449 -1.52113 0
M  V30 2268 O 224.841 0.365534 -1.73184 0
M  V30 2269 C 221.97 0.407609 -3.40872 0
M  V30 2270 C 221.056 -0.490797 -4.21251 0
M  V30 2271 N 221.447 -1.60061 -4.79806 0
M  V30 2272 C 219.745 -0.289636 -4.45059 0
M  V30 2273 C 220.446 -2.15757 -5.40207 0
M  V30 2274 N 219.422 -1.44988 -5.23908 0
M  V30 2275 H 223.224 -1.20642 -2.67998 0
M  V30 2276 H 220.738 -0.757103 -1.43672 0
M  V30 2277 H 222.735 0.816046 -4.08835 0
M  V30 2278 H 221.395 1.25251 -2.9957 0
M  V30 2279 H 222.406 -1.98329 -4.7842 0
M  V30 2280 H 219.083 0.51643 -4.14294 0
M  V30 2281 H 220.473 -3.09069 -5.96595 0
M  V30 2282 N 223.193 1.4272 -0.668489 0
M  V30 2283 C 224.604 1.84793 -0.266151 0
M  V30 2284 C 224.955 1.55959 1.19043 0
M  V30 2285 O 224.08 1.01622 1.91055 0
M  V30 2286 C 224.675 3.35436 -0.476271 0
M  V30 2287 C 223.234 3.76182 -0.128113 0
M  V30 2288 C 222.381 2.66344 -0.771777 0
M  V30 2289 H 225.332 1.32656 -0.871098 0
M  V30 2290 H 225.353 3.79515 0.273561 0
M  V30 2291 H 224.865 3.5639 -1.53647 0
M  V30 2292 H 222.966 3.60836 0.928891 0
M  V30 2293 H 223.079 4.75766 -0.564231 0
M  V30 2294 H 221.443 2.53885 -0.203652 0
M  V30 2295 H 222.226 2.90123 -1.83531 0
M  V30 2296 N 224.671 0.411399 1.52136 0
M  V30 2297 C 225.634 -0.401089 2.25663 0
M  V30 2298 C 226.634 -0.971732 1.28117 0
M  V30 2299 O 227.824 -0.850254 1.52041 0
M  V30 2300 C 224.956 -1.56483 3.02863 0
M  V30 2301 H 226.149 0.24295 2.98914 0
M  V30 2302 H 223.702 0.163968 1.55438 0
M  V30 2303 H 224.437 -2.24567 2.33967 0
M  V30 2304 H 224.222 -1.16211 3.74483 0
M  V30 2305 H 225.712 -2.13951 3.58629 0
M  V30 2306 N 226.149 -1.5696 0.141893 0
M  V30 2307 C 227.079 -2.19516 -0.795936 0
M  V30 2308 C 228.06 -1.14187 -1.26077 0
M  V30 2309 O 229.245 -1.42511 -1.31925 0
M  V30 2310 C 226.375 -2.81272 -2.03723 0
M  V30 2311 C 225.329 -3.92384 -1.70936 0
M  V30 2312 C 224.655 -4.41052 -3.02287 0
M  V30 2313 C 225.955 -5.13403 -0.959954 0
M  V30 2314 H 227.649 -2.98138 -0.274596 0
M  V30 2315 H 225.195 -1.43406 -0.130636 0
M  V30 2316 H 227.148 -3.237 -2.69808 0
M  V30 2317 H 225.872 -1.99973 -2.58221 0
M  V30 2318 H 224.531 -3.50566 -1.07232 0
M  V30 2319 H 224.179 -3.56582 -3.54765 0
M  V30 2320 H 223.879 -5.15993 -2.81114 0
M  V30 2321 H 225.403 -4.86146 -3.69451 0
M  V30 2322 H 226.817 -5.52706 -1.52279 0
M  V30 2323 H 225.214 -5.94073 -0.848357 0
M  V30 2324 H 226.284 -4.84875 0.0492434 0
M  V30 2325 N 227.627 0.131896 -1.57047 0
M  V30 2326 C 228.855 0.856461 -1.88341 0
M  V30 2327 C 229.27 1.74042 -0.731757 0
M  V30 2328 O 228.627 1.80051 0.297945 0
M  V30 2329 C 228.678 1.70064 -3.18999 0
M  V30 2330 O 228.399 0.852278 -4.2973 0
M  V30 2331 C 229.9 2.53148 -3.63911 0
M  V30 2332 H 227.12 0.246885 -0.62393 0
M  V30 2333 H 229.664 0.120152 -2.04147 0
M  V30 2334 H 227.819 2.38984 -3.04902 0
M  V30 2335 H 228.233 1.43329 -5.04537 0
M  V30 2336 H 229.707 3.07931 -4.58129 0
M  V30 2337 H 230.184 3.29901 -2.89935 0
M  V30 2338 H 230.79 1.89492 -3.80753 0
M  V30 2339 N 229.106 1.52395 0.401703 0
M  V30 2340 C 230.038 1.72505 1.50912 0
M  V30 2341 C 231.051 0.605468 1.51122 0
M  V30 2342 O 232.24 0.880828 1.55254 0
M  V30 2343 C 229.34 1.75711 2.89791 0
M  V30 2344 C 228.513 3.04824 3.1369 0
M  V30 2345 C 227.572 2.99743 4.32482 0
M  V30 2346 O 226.598 3.73635 4.29402 0
M  V30 2347 N 227.8 2.18047 5.37992 0
M  V30 2348 H 230.565 2.68049 1.34052 0
M  V30 2349 H 228.126 1.50724 0.591084 0
M  V30 2350 H 230.118 1.69834 3.6734 0
M  V30 2351 H 228.688 0.876092 3.00072 0
M  V30 2352 H 227.908 3.2429 2.24119 0
M  V30 2353 H 229.196 3.90221 3.26504 0
M  V30 2354 H 228.594 1.57456 5.43345 0
M  V30 2355 H 227.151 2.18021 6.14256 0
M  V30 2356 N 230.584 -0.659388 1.43143 0
M  V30 2357 C 231.833 -1.41518 1.43721 0
M  V30 2358 C 232.146 -1.95499 0.0628176 0
M  V30 2359 O 233.352 -2.71446 -0.0539683 0
M  V30 2360 C 231.808 -2.5608 2.52885 0
M  V30 2361 C 231.416 -2.08733 3.96402 0
M  V30 2362 C 233.16 -3.3349 2.62649 0
M  V30 2363 C 231.067 -3.20469 4.97045 0
M  V30 2364 H 229.997 -0.531705 0.534608 0
M  V30 2365 H 232.648 -0.712343 1.69109 0
M  V30 2366 H 231.03 -3.28805 2.20688 0
M  V30 2367 H 232.204 -1.43059 4.3803 0
M  V30 2368 H 230.519 -1.44219 3.90627 0
M  V30 2369 H 233.116 -4.16734 3.35017 0
M  V30 2370 H 233.459 -3.8111 1.67513 0
M  V30 2371 H 233.992 -2.67842 2.94118 0
M  V30 2372 H 230.731 -2.77824 5.93712 0
M  V30 2373 H 230.251 -3.84874 4.60034 0
M  V30 2374 H 231.93 -3.85698 5.19467 0
M  V30 2375 N 232.062 -1.29571 -0.897171 0
M  V30 2376 C 233.31 -1.17456 -1.64464 0
M  V30 2377 C 233.631 0.273698 -1.9307 0
M  V30 2378 O 232.901 1.18684 -1.55855 0
M  V30 2379 H 231.481 -0.431706 -0.609622 0
M  V30 2380 H 234.143 -1.62531 -1.07562 0
M  V30 2381 H 233.239 -1.72648 -2.59998 0
M  V30 2382 N 233.54 1.10788 -1.12088 0
M  V30 2383 C 234.788 1.8231 -0.872205 0
M  V30 2384 C 235.109 1.85419 0.603709 0
M  V30 2385 O 234.379 1.32963 1.43867 0
M  V30 2386 H 232.959 0.675137 -0.319686 0
M  V30 2387 H 235.621 1.34068 -1.41463 0
M  V30 2388 H 234.717 2.85955 -1.25045 0
M  V30 2389 N 235.018 0.912232 1.28515 0
M  V30 2390 C 236.248 0.559604 1.98877 0
M  V30 2391 C 236.656 -0.863113 1.68366 0
M  V30 2392 O 235.999 -1.58304 0.931969 0
M  V30 2393 C 236.061 0.68703 3.52874 0
M  V30 2394 C 235.725 2.07901 4.06972 0
M  V30 2395 C 236.722 3.05157 4.20922 0
M  V30 2396 C 234.407 2.39178 4.417 0
M  V30 2397 C 236.401 4.31806 4.68852 0
M  V30 2398 C 234.088 3.66068 4.89324 0
M  V30 2399 C 235.086 4.62195 5.02856 0
M  V30 2400 O 234.774 5.86829 5.49442 0
M  V30 2401 H 234.506 0.212191 0.641834 0
M  V30 2402 H 237.06 1.22712 1.64715 0
M  V30 2403 H 235.29 -0.0375486 3.86682 0
M  V30 2404 H 236.979 0.341727 4.04459 0
M  V30 2405 H 237.745 2.82311 3.94367 0
M  V30 2406 H 233.624 1.65109 4.30418 0
M  V30 2407 H 237.168 5.06842 4.79329 0
M  V30 2408 H 233.065 3.88739 5.15318 0
M  V30 2409 H 233.833 5.89597 5.6773 0
M  V30 2410 N 236.496 -1.42363 0.676048 0
M  V30 2411 C 237.721 -2.06377 0.205705 0
M  V30 2412 C 238.146 -1.50463 -1.12883 0
M  V30 2413 O 237.504 -0.623619 -1.70237 0
M  V30 2414 C 237.552 -3.60277 0.152655 0
M  V30 2415 O 236.656 -4.02935 -0.87845 0
M  V30 2416 H 235.997 -0.655588 0.105359 0
M  V30 2417 H 238.527 -1.82475 0.925412 0
M  V30 2418 H 238.537 -4.07993 -0.0230675 0
M  V30 2419 H 237.212 -4.00346 1.12675 0
M  V30 2420 H 235.789 -3.66764 -0.673668 0
M  V30 2421 N 237.974 -0.419461 -1.51915 0
M  V30 2422 C 239.385 0.0477853 -1.86639 0
M  V30 2423 C 239.736 1.43531 -1.33766 0
M  V30 2424 O 238.861 2.05401 -0.68113 0
M  V30 2425 C 239.456 0.0934885 -3.38671 0
M  V30 2426 C 238.015 0.505097 -3.72996 0
M  V30 2427 C 237.162 -0.313792 -2.75519 0
M  V30 2428 H 240.113 -0.636088 -1.45395 0
M  V30 2429 H 240.134 0.906667 -3.6954 0
M  V30 2430 H 239.646 -0.916501 -3.77123 0
M  V30 2431 H 237.747 1.52135 -3.40126 0
M  V30 2432 H 237.86 0.242309 -4.78487 0
M  V30 2433 H 236.224 0.225363 -2.53701 0
M  V30 2434 H 237.007 -1.32232 -3.16812 0
M  V30 2435 N 239.452 1.56882 -0.150215 0
M  V30 2436 C 240.399 2.16922 0.788244 0
M  V30 2437 C 241.369 1.10303 1.24187 0
M  V30 2438 O 242.554 1.38359 1.31383 0
M  V30 2439 C 239.694 2.79754 2.02068 0
M  V30 2440 C 238.807 4.00775 1.61257 0
M  V30 2441 C 237.942 4.51595 2.79705 0
M  V30 2442 C 236.981 5.65074 2.35282 0
M  V30 2443 N 236.118 6.10499 3.4675 0
M  V30 2444 H 240.958 2.96779 0.269444 0
M  V30 2445 H 238.495 1.46599 0.12128 0
M  V30 2446 H 240.453 3.14329 2.74323 0
M  V30 2447 H 239.083 2.02536 2.51354 0
M  V30 2448 H 238.135 3.72158 0.787553 0
M  V30 2449 H 239.447 4.82978 1.24633 0
M  V30 2450 H 238.601 4.88242 3.60145 0
M  V30 2451 H 237.34 3.68406 3.19576 0
M  V30 2452 H 236.345 5.28 1.53283 0
M  V30 2453 H 237.57 6.50052 1.96493 0
M  V30 2454 H 235.516 5.30243 3.86236 0
M  V30 2455 H 235.433 6.87637 3.14152 0
M  V30 2456 H 236.701 6.51791 4.27537 0
M  V30 2457 N 240.93 -0.123565 1.57115 0
M  V30 2458 C 242.179 -0.830704 1.83799 0
M  V30 2459 C 242.492 -1.81259 0.735158 0
M  V30 2460 O 243.698 -2.56558 0.888278 0
M  V30 2461 C 242.154 -1.52802 3.25852 0
M  V30 2462 C 241.762 -0.587356 4.44133 0
M  V30 2463 C 243.506 -2.22056 3.61789 0
M  V30 2464 C 241.413 -1.28764 5.77212 0
M  V30 2465 H 240.343 -0.313967 0.685522 0
M  V30 2466 H 242.994 -0.0834359 1.8331 0
M  V30 2467 H 241.376 -2.32175 3.20797 0
M  V30 2468 H 242.55 0.172829 4.60476 0
M  V30 2469 H 240.865 -0.00201892 4.164 0
M  V30 2470 H 243.462 -2.75131 4.58483 0
M  V30 2471 H 243.805 -2.99644 2.88997 0
M  V30 2472 H 244.338 -1.49576 3.68608 0
M  V30 2473 H 241.077 -0.55314 6.53162 0
M  V30 2474 H 240.597 -2.01995 5.64764 0
M  V30 2475 H 242.276 -1.8221 6.20813 0
M  V30 2476 N 242.408 -1.52605 -0.393616 0
M  V30 2477 C 243.355 -1.77055 -1.48054 0
M  V30 2478 C 244.325 -0.61358 -1.54352 0
M  V30 2479 O 245.51 -0.852806 -1.70681 0
M  V30 2480 C 242.65 -1.94108 -2.85335 0
M  V30 2481 C 241.763 -3.21792 -2.88226 0
M  V30 2482 C 240.898 -3.29188 -4.16904 0
M  V30 2483 C 239.937 -4.51013 -4.13828 0
M  V30 2484 N 239.074 -4.55716 -5.34105 0
M  V30 2485 H 243.914 -2.69815 -1.26506 0
M  V30 2486 H 241.451 -1.33683 -0.61379 0
M  V30 2487 H 243.409 -2.01979 -3.65049 0
M  V30 2488 H 242.039 -1.04713 -3.05344 0
M  V30 2489 H 241.091 -3.23015 -2.00911 0
M  V30 2490 H 242.403 -4.11557 -2.8182 0
M  V30 2491 H 241.557 -3.36216 -5.05018 0
M  V30 2492 H 240.296 -2.37389 -4.26026 0
M  V30 2493 H 239.301 -4.44115 -3.24102 0
M  V30 2494 H 240.526 -5.44123 -4.06333 0
M  V30 2495 H 238.472 -3.66807 -5.43865 0
M  V30 2496 H 238.389 -5.39346 -5.29756 0
M  V30 2497 H 239.657 -4.66993 -6.2413 0
M  V30 2498 N 243.887 0.651787 -1.4349 0
M  V30 2499 C 245.298 1.233 -1.40193 0
M  V30 2500 C 245.649 1.9591 -0.106727 0
M  V30 2501 O 244.774 2.01316 0.793773 0
M  V30 2502 C 245.369 2.24257 -2.53957 0
M  V30 2503 C 243.928 2.77852 -2.5392 0
M  V30 2504 C 243.075 1.52517 -2.3159 0
M  V30 2505 H 246.026 0.443717 -1.52371 0
M  V30 2506 H 246.047 3.0646 -2.25528 0
M  V30 2507 H 245.559 1.71382 -3.4821 0
M  V30 2508 H 243.66 3.34786 -1.63551 0
M  V30 2509 H 243.773 3.25299 -3.51735 0
M  V30 2510 H 242.137 1.79915 -1.80285 0
M  V30 2511 H 242.92 1.01574 -3.27929 0
M  V30 2512 N 245.365 1.30045 0.890287 0
M  V30 2513 C 246.275 1.17885 2.02831 0
M  V30 2514 C 247.291 0.0999609 1.73713 0
M  V30 2515 O 248.467 0.313867 1.98939 0
M  V30 2516 C 245.532 0.866079 3.35708 0
M  V30 2517 C 244.593 2.02979 3.78283 0
M  V30 2518 C 243.826 1.73184 5.0482 0
M  V30 2519 O 244.049 0.657237 5.66601 0
M  V30 2520 O 242.983 2.58267 5.43674 0
M  V30 2521 H 246.809 2.13474 2.16015 0
M  V30 2522 H 244.394 1.09587 1.01543 0
M  V30 2523 H 246.276 0.706623 4.15433 0
M  V30 2524 H 244.951 -0.0599443 3.23644 0
M  V30 2525 H 243.858 2.24454 2.99285 0
M  V30 2526 H 245.191 2.93734 3.94944 0
M  V30 2527 N 246.843 -1.10192 1.12674 0
M  V30 2528 C 247.793 -2.14754 0.765801 0
M  V30 2529 C 248.777 -1.59154 -0.236409 0
M  V30 2530 O 249.969 -1.76951 -0.0415261 0
M  V30 2531 C 247.098 -3.42563 0.224827 0
M  V30 2532 C 246.184 -4.05091 1.25548 0
M  V30 2533 N 246.575 -4.42287 2.4539 0
M  V30 2534 C 244.873 -4.32186 1.10142 0
M  V30 2535 C 245.574 -4.91441 3.11224 0
M  V30 2536 N 244.55 -4.88405 2.38666 0
M  V30 2537 H 248.352 -2.41309 1.67772 0
M  V30 2538 H 245.866 -1.27339 1.00789 0
M  V30 2539 H 247.863 -4.16868 -0.0519578 0
M  V30 2540 H 246.523 -3.17467 -0.681515 0
M  V30 2541 H 247.534 -4.33902 2.82754 0
M  V30 2542 H 244.211 -4.16735 0.252587 0
M  V30 2543 H 245.601 -5.29749 4.13298 0
M  V30 2544 N 248.321 -0.919034 -1.28029 0
M  V30 2545 C 249.567 -0.555757 -1.95036 0
M  V30 2546 C 249.9 0.899198 -1.72128 0
M  V30 2547 O 249.175 1.64023 -1.04531 0
M  V30 2548 C 249.458 -0.872024 -3.49382 0
M  V30 2549 C 249.311 -2.3801 -3.81669 0
M  V30 2550 C 250.63 -0.37185 -4.38526 0
M  V30 2551 H 247.749 -0.203386 -0.708381 0
M  V30 2552 H 250.391 -1.14924 -1.51303 0
M  V30 2553 H 248.541 -0.366946 -3.86763 0
M  V30 2554 H 250.213 -2.9562 -3.54128 0
M  V30 2555 H 248.456 -2.83289 -3.28526 0
M  V30 2556 H 249.127 -2.55192 -4.8947 0
M  V30 2557 H 251.603 -0.804602 -4.08247 0
M  V30 2558 H 250.479 -0.622173 -5.45362 0
M  V30 2559 H 250.74 0.727934 -4.36066 0
M  V30 2560 N 249.799 1.42003 -0.683588 0
M  V30 2561 C 251.045 2.01712 -0.209825 0
M  V30 2562 C 251.378 1.53968 1.18353 0
M  V30 2563 O 250.653 0.745661 1.79639 0
M  V30 2564 C 250.936 3.59202 -0.254197 0
M  V30 2565 C 250.789 4.17102 -1.68363 0
M  V30 2566 C 252.108 4.38344 0.392709 0
M  V30 2567 H 249.227 0.732891 -0.0777189 0
M  V30 2568 H 251.869 1.68909 -0.87004 0
M  V30 2569 H 250.019 3.87278 0.307954 0
M  V30 2570 H 251.691 3.99946 -2.29871 0
M  V30 2571 H 249.934 3.72597 -2.22157 0
M  V30 2572 H 250.605 5.26249 -1.6663 0
M  V30 2573 H 253.081 4.16011 -0.0859162 0
M  V30 2574 H 251.957 5.47901 0.331063 0
M  V30 2575 H 252.218 4.16887 1.47164 0
M  V30 2576 N 251.277 0.427512 1.51691 0
M  V30 2577 C 252.207 -0.3796 2.30394 0
M  V30 2578 C 253.188 -1.02982 1.35384 0
M  V30 2579 O 254.373 -1.03534 1.643 0
M  V30 2580 C 251.503 -1.48649 3.1388 0
M  V30 2581 C 250.457 -0.960294 4.17088 0
M  V30 2582 C 249.783 -2.16219 4.89033 0
M  V30 2583 C 251.083 -0.00153679 5.223 0
M  V30 2584 H 252.777 0.277164 2.98114 0
M  V30 2585 H 250.323 0.134739 1.43368 0
M  V30 2586 H 252.276 -2.05826 3.67714 0
M  V30 2587 H 251 -2.1714 2.43962 0
M  V30 2588 H 249.659 -0.410806 3.64291 0
M  V30 2589 H 249.307 -2.83307 4.15628 0
M  V30 2590 H 249.007 -1.81654 5.58816 0
M  V30 2591 H 250.531 -2.73968 5.45687 0
M  V30 2592 H 251.945 -0.482687 5.71264 0
M  V30 2593 H 250.342 0.256199 5.99553 0
M  V30 2594 H 251.412 0.938174 4.75738 0
M  V30 2595 N 252.755 -1.56801 0.158532 0
M  V30 2596 C 254.004 -1.95665 -0.489702 0
M  V30 2597 C 254.317 -1.04654 -1.65248 0
M  V30 2598 O 255.523 -1.33146 -2.3661 0
M  V30 2599 C 253.979 -3.47874 -0.922582 0
M  V30 2600 C 253.587 -4.47489 0.213893 0
M  V30 2601 C 255.331 -3.95583 -1.53996 0
M  V30 2602 C 253.238 -5.90921 -0.237903 0
M  V30 2603 H 252.168 -0.730516 -0.186716 0
M  V30 2604 H 254.819 -1.81861 0.244722 0
M  V30 2605 H 253.201 -3.57051 -1.71261 0
M  V30 2606 H 254.375 -4.50017 0.991036 0
M  V30 2607 H 252.69 -4.09764 0.740407 0
M  V30 2608 H 255.287 -5.0019 -1.8898 0
M  V30 2609 H 255.63 -3.37789 -2.43319 0
M  V30 2610 H 256.163 -3.8937 -0.814611 0
M  V30 2611 H 252.902 -6.52559 0.620236 0
M  V30 2612 H 252.422 -5.91729 -0.980676 0
M  V30 2613 H 254.101 -6.43352 -0.686067 0
M  V30 2614 N 254.233 0.115231 -1.57178 0
M  V30 2615 C 255.481 0.820727 -1.84685 0
M  V30 2616 C 255.802 1.80237 -0.744279 0
M  V30 2617 O 255.072 1.94529 0.231375 0
M  V30 2618 H 253.652 0.306084 -0.681411 0
M  V30 2619 H 256.314 0.101656 -1.94635 0
M  V30 2620 H 255.41 1.36366 -2.80733 0
M  V30 2621 N 255.711 1.52812 0.385517 0
M  V30 2622 C 256.957 1.68275 1.13188 0
M  V30 2623 C 257.29 0.423179 1.89533 0
M  V30 2624 O 256.565 -0.579113 1.85679 0
M  V30 2625 C 256.848 2.92001 2.1073 0
M  V30 2626 C 256.701 4.28067 1.38125 0
M  V30 2627 C 258.02 3.11283 3.11113 0
M  V30 2628 H 255.139 0.612352 0.410115 0
M  V30 2629 H 257.781 1.85415 0.414869 0
M  V30 2630 H 255.931 2.77519 2.71874 0
M  V30 2631 H 257.603 4.54324 0.799187 0
M  V30 2632 H 255.846 4.28388 0.683092 0
M  V30 2633 H 256.517 5.10733 2.09417 0
M  V30 2634 H 258.993 3.2482 2.6006 0
M  V30 2635 H 257.869 3.99325 3.76605 0
M  V30 2636 H 258.13 2.25656 3.80173 0
M  V30 2637 N 257.189 -0.644168 1.43834 0
M  V30 2638 C 258.605 -0.960875 1.27434 0
M  V30 2639 C 258.805 -2.00499 0.200618 0
M  V30 2640 O 257.861 -2.49018 -0.417906 0
M  V30 2641 C 259.174 -1.43653 2.64167 0
M  V30 2642 C 260.722 -1.55271 2.71772 0
M  V30 2643 C 261.197 -2.06224 4.08944 0
M  V30 2644 N 262.688 -2.13513 4.11055 0
M  V30 2645 C 263.423 -2.54081 5.14033 0
M  V30 2646 N 262.919 -2.9388 6.27381 0
M  V30 2647 N 264.712 -2.54101 5.01387 0
M  V30 2648 H 256.863 0.0465779 2.12349 0
M  V30 2649 H 259.126 -0.0417638 0.94708 0
M  V30 2650 H 258.832 -0.743706 3.43747 0
M  V30 2651 H 258.706 -2.40993 2.90176 0
M  V30 2652 H 261.093 -2.23653 1.92519 0
M  V30 2653 H 261.174 -0.563395 2.49519 0
M  V30 2654 H 260.818 -1.38441 4.88668 0
M  V30 2655 H 260.748 -3.06003 4.28567 0
M  V30 2656 H 263.239 -1.85493 3.29242 0
M  V30 2657 H 263.552 -3.2361 7.01781 0
M  V30 2658 H 261.897 -2.91663 6.30839 0
M  V30 2659 H 265.088 -2.22391 4.11898 0
M  V30 2660 H 265.261 -2.85394 5.81768 0
M  V30 2661 N 258.668 -1.30515 -0.883378 0
M  V30 2662 C 259.893 -1.22487 -1.67367 0
M  V30 2663 C 260.318 0.208767 -1.86938 0
M  V30 2664 O 259.676 1.15015 -1.40148 0
M  V30 2665 C 259.724 -1.96041 -3.02655 0
M  V30 2666 O 258.828 -1.28859 -3.91751 0
M  V30 2667 H 258.169 -0.423573 -0.511353 0
M  V30 2668 H 260.699 -1.72362 -1.10239 0
M  V30 2669 H 260.709 -2.05124 -3.52687 0
M  V30 2670 H 259.384 -3.00307 -2.8773 0
M  V30 2671 H 257.961 -1.28141 -3.50192 0
M  V30 2672 N 260.146 1.09593 -1.13257 0
M  V30 2673 C 261.076 2.18214 -0.830946 0
M  V30 2674 C 262.057 1.68812 0.208966 0
M  V30 2675 O 263.242 1.9408 0.0682666 0
M  V30 2676 C 260.372 3.46051 -0.294296 0
M  V30 2677 C 259.326 4.08778 -1.26826 0
M  V30 2678 C 258.652 5.31419 -0.591449 0
M  V30 2679 C 259.952 4.51476 -2.62615 0
M  V30 2680 H 261.646 2.43703 -1.73923 0
M  V30 2681 H 259.192 1.17128 -0.837675 0
M  V30 2682 H 261.145 4.2134 -0.0709606 0
M  V30 2683 H 259.869 3.20079 0.649366 0
M  V30 2684 H 258.528 3.35505 -1.47756 0
M  V30 2685 H 258.176 5.01727 0.357633 0
M  V30 2686 H 257.876 5.74341 -1.24123 0
M  V30 2687 H 259.4 6.09433 -0.377355 0
M  V30 2688 H 260.814 5.17999 -2.45663 0
M  V30 2689 H 259.211 5.05277 -3.23752 0
M  V30 2690 H 260.281 3.63962 -3.20406 0
M  V30 2691 N 261.624 0.925811 1.2754 0
M  V30 2692 C 262.901 0.483726 1.89524 0
M  V30 2693 C 263.281 -1.03809 1.83812 0
M  V30 2694 O 262.629 -1.89143 1.28207 0
M  V30 2695 C 262.839 1.02769 3.33526 0
M  V30 2696 C 264.187 1.08703 4.10449 0
M  V30 2697 O 265.211 0.977175 3.42534 0
M  V30 2698 O 264.07 1.25599 5.31871 0
M  V30 2699 H 261.164 0.15529 0.812289 0
M  V30 2700 H 263.71 1.01738 1.35822 0
M  V30 2701 H 262.482 2.07155 3.31967 0
M  V30 2702 H 262.105 0.475567 3.94746 0
M  V30 2703 N 263.102 -1.41638 0.69111 0
M  V30 2704 C 264.012 -2.34588 0.0233487 0
M  V30 2705 C 265.028 -1.55987 -0.770984 0
M  V30 2706 O 266.204 -1.88486 -0.709569 0
M  V30 2707 C 263.269 -3.34684 -0.904851 0
M  V30 2708 C 262.33 -4.29176 -0.103225 0
M  V30 2709 C 261.563 -5.2449 -0.987216 0
M  V30 2710 O 261.786 -5.2514 -2.22674 0
M  V30 2711 O 260.72 -6.00295 -0.439281 0
M  V30 2712 H 264.546 -2.93261 0.789416 0
M  V30 2713 H 262.131 -1.42417 0.45142 0
M  V30 2714 H 264.013 -3.96133 -1.43724 0
M  V30 2715 H 262.688 -2.78461 -1.65049 0
M  V30 2716 H 261.595 -3.71089 0.473655 0
M  V30 2717 H 262.928 -4.88484 0.60365 0
M  V30 2718 N 264.58 -0.43555 -1.51462 0
M  V30 2719 C 265.828 0.131254 -2.01673 0
M  V30 2720 C 266.149 1.43368 -1.32177 0
M  V30 2721 O 265.419 1.90524 -0.455769 0
M  V30 2722 H 263.999 0.0514954 -0.745223 0
M  V30 2723 H 266.661 -0.577847 -1.86137 0
M  V30 2724 H 265.757 0.308446 -3.10572 0
M  V30 2725 N 266.058 1.56714 -0.166846 0
M  V30 2726 C 266.968 2.21331 0.777791 0
M  V30 2727 C 267.984 1.20358 1.25658 0
M  V30 2728 O 269.16 1.53005 1.30964 0
M  V30 2729 C 266.225 2.83787 1.99163 0
M  V30 2730 C 265.286 3.99947 1.56016 0
M  V30 2731 C 264.519 4.59415 2.71613 0
M  V30 2732 O 264.742 4.17769 3.88362 0
M  V30 2733 O 263.676 5.49359 2.45945 0
M  V30 2734 H 267.502 3.02605 0.257636 0
M  V30 2735 H 265.087 1.49275 0.0611393 0
M  V30 2736 H 266.969 3.23405 2.70161 0
M  V30 2737 H 265.644 2.05513 2.50092 0
M  V30 2738 H 264.551 3.65007 0.819809 0
M  V30 2739 H 265.884 4.79801 1.09782 0
M  V30 2740 N 267.536 -0.106894 1.57237 0
M  V30 2741 C 268.483 -1.13049 2.01217 0
M  V30 2742 C 269.453 -1.40471 0.886403 0
M  V30 2743 O 270.638 -1.52133 1.15153 0
M  V30 2744 C 267.778 -2.4487 2.43172 0
M  V30 2745 C 266.891 -2.24281 3.69218 0
M  V30 2746 C 266.026 -3.49417 4.00101 0
M  V30 2747 C 265.065 -3.24038 5.19294 0
M  V30 2748 N 264.202 -4.41409 5.45988 0
M  V30 2749 H 269.042 -0.748456 2.88448 0
M  V30 2750 H 266.579 -0.358054 1.42676 0
M  V30 2751 H 268.537 -3.21786 2.65537 0
M  V30 2752 H 267.167 -2.80944 1.58967 0
M  V30 2753 H 266.219 -1.38224 3.54398 0
M  V30 2754 H 267.531 -2.01512 4.56283 0
M  V30 2755 H 266.685 -4.34746 4.2318 0
M  V30 2756 H 265.424 -3.75229 3.11535 0
M  V30 2757 H 264.429 -2.37102 4.96047 0
M  V30 2758 H 265.654 -2.99584 6.09447 0
M  V30 2759 H 263.6 -4.67319 4.60379 0
M  V30 2760 H 263.517 -4.21788 6.274 0
M  V30 2761 H 264.785 -5.27836 5.73593 0
M  V30 2762 N 269.014 -1.53014 -0.377408 0
M  V30 2763 C 269.961 -1.78616 -1.46168 0
M  V30 2764 C 270.931 -0.629917 -1.53692 0
M  V30 2765 O 272.116 -0.870861 -1.69766 0
M  V30 2766 C 269.256 -1.97123 -2.8326 0
M  V30 2767 C 268.369 -3.24831 -2.84796 0
M  V30 2768 C 267.504 -3.33591 -4.13389 0
M  V30 2769 C 266.543 -4.55377 -4.09021 0
M  V30 2770 N 265.68 -4.61355 -5.29241 0
M  V30 2771 H 270.52 -2.71142 -1.23637 0
M  V30 2772 H 268.057 -1.34326 -0.599577 0
M  V30 2773 H 270.015 -2.05839 -3.62886 0
M  V30 2774 H 268.645 -1.07946 -3.04216 0
M  V30 2775 H 267.697 -3.25128 -1.97474 0
M  V30 2776 H 269.009 -4.14523 -2.77439 0
M  V30 2777 H 268.163 -3.41554 -5.01424 0
M  V30 2778 H 266.902 -2.41894 -4.23484 0
M  V30 2779 H 265.907 -4.47527 -3.19373 0
M  V30 2780 H 267.132 -5.48402 -4.00539 0
M  V30 2781 H 265.078 -3.72554 -5.39944 0
M  V30 2782 H 264.995 -5.44935 -5.24006 0
M  V30 2783 H 266.263 -4.73586 -6.19141 0
M  V30 2784 N 270.492 0.636531 -1.44174 0
M  V30 2785 C 271.739 1.39619 -1.46672 0
M  V30 2786 C 272.067 1.94257 -0.0972691 0
M  V30 2787 O 271.322 1.73768 0.900175 0
M  V30 2788 C 271.621 2.58309 -2.47005 0
M  V30 2789 C 271.287 2.21992 -3.92467 0
M  V30 2790 C 269.949 2.118 -4.32081 0
M  V30 2791 C 272.301 1.9321 -4.84065 0
M  V30 2792 C 269.629 1.71007 -5.61225 0
M  V30 2793 C 271.981 1.53911 -6.13591 0
M  V30 2794 C 270.645 1.42257 -6.52165 0
M  V30 2795 H 269.915 0.510902 -0.536712 0
M  V30 2796 H 272.562 0.722328 -1.77355 0
M  V30 2797 H 270.867 3.30903 -2.09786 0
M  V30 2798 H 272.564 3.16533 -2.46186 0
M  V30 2799 H 269.154 2.30841 -3.61124 0
M  V30 2800 H 273.338 1.99997 -4.54219 0
M  V30 2801 H 268.594 1.60583 -5.89935 0
M  V30 2802 H 272.768 1.30677 -6.8403 0
M  V30 2803 H 270.395 1.10419 -7.52138 0
M  V30 2804 N 271.97 1.30982 0.876444 0
M  V30 2805 C 273.219 1.19658 1.62373 0
M  V30 2806 C 273.532 -0.245636 1.94052 0
M  V30 2807 O 274.738 -0.48049 2.67214 0
M  V30 2808 C 273.194 2.09433 2.92687 0
M  V30 2809 C 272.802 3.58613 2.68516 0
M  V30 2810 C 274.546 2.06893 3.70669 0
M  V30 2811 C 272.453 4.40416 3.94699 0
M  V30 2812 H 271.383 0.444268 0.609214 0
M  V30 2813 H 274.034 1.55791 0.969605 0
M  V30 2814 H 272.416 1.66191 3.59439 0
M  V30 2815 H 273.59 4.10058 2.10212 0
M  V30 2816 H 271.905 3.63063 2.03898 0
M  V30 2817 H 274.502 2.65258 4.64265 0
M  V30 2818 H 274.845 1.05448 4.02724 0
M  V30 2819 H 275.378 2.48301 3.10792 0
M  V30 2820 H 272.117 5.42591 3.67798 0
M  V30 2821 H 271.637 3.93731 4.52477 0
M  V30 2822 H 273.316 4.52294 4.62644 0
M  V30 2823 N 273.449 -1.08991 1.13837 0
M  V30 2824 C 274.865 -1.33312 0.877506 0
M  V30 2825 C 275.065 -1.95587 -0.48456 0
M  V30 2826 O 274.121 -2.20509 -1.23013 0
M  V30 2827 C 275.434 -2.24045 2.0056 0
M  V30 2828 C 276.982 -2.37542 2.03821 0
M  V30 2829 C 277.457 -3.31614 3.15905 0
M  V30 2830 N 278.948 -3.39189 3.15445 0
M  V30 2831 C 279.683 -4.11992 3.98811 0
M  V30 2832 N 279.179 -4.87553 4.92203 0
M  V30 2833 N 280.972 -4.07762 3.86894 0
M  V30 2834 H 273.123 -0.669456 2.01574 0
M  V30 2835 H 275.386 -0.357482 0.878015 0
M  V30 2836 H 275.092 -1.85521 2.98789 0
M  V30 2837 H 274.966 -3.24466 1.92359 0
M  V30 2838 H 277.353 -2.75327 1.06202 0
M  V30 2839 H 277.434 -1.36884 2.16093 0
M  V30 2840 H 277.078 -2.94551 4.13766 0
M  V30 2841 H 277.008 -4.32186 3.0087 0
M  V30 2842 H 279.499 -2.85314 2.47799 0
M  V30 2843 H 279.812 -5.40549 5.52292 0
M  V30 2844 H 278.157 -4.86627 4.96205 0
M  V30 2845 H 281.348 -3.47833 3.13257 0
M  V30 2846 H 281.521 -4.64238 4.52092 0
M  V30 2847 N 274.927 -0.932562 -1.27047 0
M  V30 2848 C 275.837 -0.441219 -2.30414 0
M  V30 2849 C 276.853 0.480525 -1.67233 0
M  V30 2850 O 278.029 0.362151 -1.98117 0
M  V30 2851 C 275.094 0.293651 -3.45454 0
M  V30 2852 C 274.155 -0.663601 -4.2414 0
M  V30 2853 C 273.388 0.0362932 -5.33688 0
M  V30 2854 O 273.611 1.2548 -5.56427 0
M  V30 2855 O 272.545 -0.638015 -5.98509 0
M  V30 2856 H 276.371 -1.29962 -2.74488 0
M  V30 2857 H 273.956 -0.6981 -1.32087 0
M  V30 2858 H 275.838 0.707951 -4.15411 0
M  V30 2859 H 274.513 1.12758 -3.03426 0
M  V30 2860 H 273.42 -1.12768 -3.56699 0
M  V30 2861 H 274.753 -1.46489 -4.69896 0
M  V30 2862 N 276.405 1.4127 -0.698611 0
M  V30 2863 C 277.352 2.30773 -0.0352094 0
M  V30 2864 C 278.322 1.47273 0.768111 0
M  V30 2865 O 279.507 1.76053 0.735524 0
M  V30 2866 C 276.647 3.33346 0.893 0
M  V30 2867 C 275.76 4.31924 0.0809695 0
M  V30 2868 C 274.895 5.21566 1.0071 0
M  V30 2869 C 273.934 6.11811 0.188155 0
M  V30 2870 N 273.071 6.93926 1.06825 0
M  V30 2871 H 277.911 2.86943 -0.804207 0
M  V30 2872 H 275.448 1.4132 -0.408294 0
M  V30 2873 H 277.406 3.91368 1.44523 0
M  V30 2874 H 276.036 2.78719 1.62836 0
M  V30 2875 H 275.088 3.75825 -0.588224 0
M  V30 2876 H 276.4 4.95716 -0.553801 0
M  V30 2877 H 275.554 5.84437 1.62845 0
M  V30 2878 H 274.293 4.58008 1.67572 0
M  V30 2879 H 273.298 5.47986 -0.446254 0
M  V30 2880 H 274.523 6.77425 -0.476716 0
M  V30 2881 H 272.469 6.32973 1.72283 0
M  V30 2882 H 272.386 7.54416 0.489123 0
M  V30 2883 H 273.654 7.61262 1.67632 0
M  V30 2884 N 277.883 0.443576 1.51229 0
M  V30 2885 C 279.131 -0.120557 2.0174 0
M  V30 2886 C 279.452 -1.42665 1.32935 0
M  V30 2887 O 278.722 -1.9028 0.465866 0
M  V30 2888 H 277.302 -0.0475426 0.745486 0
M  V30 2889 H 279.964 0.587711 1.85828 0
M  V30 2890 H 279.06 -0.291972 3.10731 0
M  V30 2891 N 279.361 -1.56624 0.175154 0
M  V30 2892 C 280.61 -1.96173 -0.468921 0
M  V30 2893 C 280.923 -1.06401 -1.64128 0
M  V30 2894 O 282.129 -1.35648 -2.35185 0
M  V30 2895 C 280.585 -3.48833 -0.885633 0
M  V30 2896 C 280.193 -4.47237 0.261343 0
M  V30 2897 C 281.937 -3.97194 -1.49791 0
M  V30 2898 C 279.844 -5.9114 -0.175214 0
M  V30 2899 H 278.774 -0.732455 -0.178958 0
M  V30 2900 H 281.425 -1.81591 0.263997 0
M  V30 2901 H 279.807 -3.58848 -1.67464 0
M  V30 2902 H 280.981 -4.4894 1.03871 0
M  V30 2903 H 279.296 -4.08956 0.783827 0
M  V30 2904 H 281.893 -5.02167 -1.83665 0
M  V30 2905 H 282.236 -3.40351 -2.39722 0
M  V30 2906 H 282.769 -3.90212 -0.773267 0
M  V30 2907 H 279.508 -6.51865 0.689414 0
M  V30 2908 H 279.028 -5.92735 -0.91786 0
M  V30 2909 H 280.707 -6.44044 -0.617792 0
M  V30 2910 N 280.839 0.0985539 -1.57292 0
M  V30 2911 C 281.786 1.11981 -2.01814 0
M  V30 2912 C 282.756 1.39999 -0.89384 0
M  V30 2913 O 283.941 1.5152 -1.15958 0
M  V30 2914 C 281.081 2.43577 -2.44467 0
M  V30 2915 C 280.194 2.2232 -3.70402 0
M  V30 2916 C 279.329 3.4729 -4.01949 0
M  V30 2917 C 278.368 3.2128 -5.21005 0
M  V30 2918 N 277.505 4.38507 -5.48321 0
M  V30 2919 H 282.345 0.733149 -2.88841 0
M  V30 2920 H 279.882 0.350482 -1.42864 0
M  V30 2921 H 281.84 3.20373 -2.6724 0
M  V30 2922 H 280.47 2.80097 -1.60455 0
M  V30 2923 H 279.522 1.36343 -3.55126 0
M  V30 2924 H 280.834 1.99089 -4.57345 0
M  V30 2925 H 279.988 4.32495 -4.25479 0
M  V30 2926 H 278.727 3.73572 -3.13521 0
M  V30 2927 H 277.732 2.34468 -4.97298 0
M  V30 2928 H 278.957 2.96348 -6.11028 0
M  V30 2929 H 276.903 4.64871 -4.62851 0
M  V30 2930 H 276.82 4.18455 -6.29628 0
M  V30 2931 H 278.088 5.24787 -5.76385 0
M  V30 2932 N 282.317 1.53212 0.369288 0
M  V30 2933 C 283.566 1.68436 1.10961 0
M  V30 2934 C 283.879 0.440738 1.9057 0
M  V30 2935 O 285.085 0.473446 2.6734 0
M  V30 2936 C 283.541 2.97744 2.0218 0
M  V30 2937 C 283.149 4.29355 1.279 0
M  V30 2938 C 284.893 3.22334 2.76226 0
M  V30 2939 C 282.8 5.49755 2.17999 0
M  V30 2940 H 281.73 0.627568 0.41794 0
M  V30 2941 H 284.381 1.79713 0.370884 0
M  V30 2942 H 282.763 2.8026 2.79768 0
M  V30 2943 H 283.937 4.57458 0.554007 0
M  V30 2944 H 282.252 4.11179 0.657311 0
M  V30 2945 H 284.849 4.09471 3.43857 0
M  V30 2946 H 285.192 2.38238 3.41392 0
M  V30 2947 H 285.725 3.40475 2.05723 0
M  V30 2948 H 282.464 6.36318 1.57417 0
M  V30 2949 H 281.984 5.25937 2.88359 0
M  V30 2950 H 283.663 5.84401 2.77641 0
M  V30 2951 N 283.795 -0.628877 1.44509 0
M  V30 2952 C 285.025 -1.41349 1.50678 0
M  V30 2953 C 285.433 -1.88745 0.131075 0
M  V30 2954 O 284.776 -1.61592 -0.87371 0
M  V30 2955 C 284.838 -2.66608 2.41165 0
M  V30 2956 C 284.502 -2.40993 3.88293 0
M  V30 2957 C 285.499 -2.0268 4.78766 0
M  V30 2958 C 283.184 -2.54563 4.33016 0
M  V30 2959 C 285.178 -1.78269 6.11963 0
M  V30 2960 C 282.865 -2.29766 5.6626 0
M  V30 2961 C 283.863 -1.91678 6.55552 0
M  V30 2962 O 283.551 -1.67158 7.86329 0
M  V30 2963 H 283.283 -0.439851 0.51333 0
M  V30 2964 H 285.837 -0.776084 1.90174 0
M  V30 2965 H 284.067 -3.32994 1.96601 0
M  V30 2966 H 285.756 -3.28615 2.38259 0
M  V30 2967 H 286.522 -1.91751 4.45485 0
M  V30 2968 H 282.401 -2.83179 3.63773 0
M  V30 2969 H 285.945 -1.48465 6.81619 0
M  V30 2970 H 281.842 -2.40306 5.99102 0
M  V30 2971 H 282.61 -1.81386 7.98149 0
M  V30 2972 N 285.273 -1.31445 -0.869486 0
M  V30 2973 C 286.501 -1.24122 -1.65534 0
M  V30 2974 C 286.916 0.193387 -1.87807 0
M  V30 2975 O 286.273 1.12557 -1.43656 0
M  V30 2976 C 286.324 -1.98229 -3.02304 0
M  V30 2977 O 286.045 -3.3609 -2.81026 0
M  V30 2978 C 287.546 -1.97751 -3.96749 0
M  V30 2979 H 284.766 -0.428868 -0.516055 0
M  V30 2980 H 287.31 -1.73328 -1.08525 0
M  V30 2981 H 285.465 -1.52782 -3.56001 0
M  V30 2982 H 285.879 -3.7383 -3.67902 0
M  V30 2983 H 287.353 -2.54114 -4.90031 0
M  V30 2984 H 287.83 -0.960137 -4.28577 0
M  V30 2985 H 288.436 -2.43079 -3.48988 0
M  V30 2986 N 286.751 1.08385 -1.14413 0
M  V30 2987 C 287.684 2.14642 -0.774871 0
M  V30 2988 C 288.662 1.60761 0.243876 0
M  V30 2989 O 289.846 1.88031 0.132883 0
M  V30 2990 C 286.973 3.38366 -0.150491 0
M  V30 2991 C 286.019 4.10997 -1.13945 0
M  V30 2992 S 286.852 4.63797 -2.67679 0
M  V30 2993 C 288.008 5.90808 -2.06631 0
M  V30 2994 H 288.241 2.45633 -1.67487 0
M  V30 2995 H 285.774 1.20498 -0.96538 0
M  V30 2996 H 287.732 4.09996 0.203334 0
M  V30 2997 H 286.393 3.05572 0.72694 0
M  V30 2998 H 285.586 4.99783 -0.65059 0
M  V30 2999 H 285.188 3.4528 -1.43727 0
M  V30 3000 H 287.48 6.62411 -1.4219 0
M  V30 3001 H 288.423 6.4439 -2.93542 0
M  V30 3002 H 288.831 5.4383 -1.51357 0
M  V30 3003 N 288.23 0.939286 1.26551 0
M  V30 3004 C 289.18 0.418284 2.2413 0
M  V30 3005 C 290.164 -0.483935 1.5345 0
M  V30 3006 O 291.356 -0.319489 1.74093 0
M  V30 3007 C 288.485 -0.31709 3.41832 0
M  V30 3008 C 287.571 0.602311 4.19801 0
M  V30 3009 N 287.962 1.72726 4.75394 0
M  V30 3010 C 286.26 0.407534 4.44134 0
M  V30 3011 C 286.961 2.30004 5.34297 0
M  V30 3012 N 285.937 1.58828 5.1988 0
M  V30 3013 H 289.739 1.27705 2.64705 0
M  V30 3014 H 287.253 0.794929 1.41614 0
M  V30 3015 H 289.25 -0.707364 4.10855 0
M  V30 3016 H 287.91 -1.17264 3.02786 0
M  V30 3017 H 288.921 2.10944 4.72994 0
M  V30 3018 H 285.598 -0.406406 4.15517 0
M  V30 3019 H 286.988 3.24778 5.88191 0
M  V30 3020 N 289.708 -1.40897 0.706093 0
M  V30 3021 C 290.618 -2.3455 0.0482286 0
M  V30 3022 C 291.634 -1.56796 -0.754396 0
M  V30 3023 O 292.81 -1.89228 -0.689538 0
M  V30 3024 C 289.875 -3.35625 -0.869303 0
M  V30 3025 C 288.936 -4.29261 -0.0576994 0
M  V30 3026 C 288.169 -5.25508 -0.931531 0
M  V30 3027 O 288.392 -5.27472 -2.17092 0
M  V30 3028 O 287.326 -6.00727 -0.375587 0
M  V30 3029 H 291.152 -2.92407 0.820476 0
M  V30 3030 H 288.737 -1.4193 0.4665 0
M  V30 3031 H 290.619 -3.97635 -1.39514 0
M  V30 3032 H 289.294 -2.80196 -1.62086 0
M  V30 3033 H 288.201 -3.70566 0.512988 0
M  V30 3034 H 289.534 -4.87817 0.655426 0
M  V30 3035 N 291.186 -0.45159 -1.50991 0
M  V30 3036 C 292.432 0.110237 -2.025 0
M  V30 3037 C 292.765 1.41109 -1.33424 0
M  V30 3038 O 292.04 1.89135 -0.453659 0
M  V30 3039 C 292.323 0.314271 -3.58726 0
M  V30 3040 C 292.176 -1.00623 -4.38401 0
M  V30 3041 C 293.495 1.07767 -4.26702 0
M  V30 3042 H 290.614 0.0385897 -0.735989 0
M  V30 3043 H 293.256 -0.593374 -1.80497 0
M  V30 3044 H 291.406 0.913601 -3.77605 0
M  V30 3045 H 293.078 -1.64064 -4.31139 0
M  V30 3046 H 291.321 -1.6075 -4.02917 0
M  V30 3047 H 291.992 -0.817341 -5.45915 0
M  V30 3048 H 294.468 0.56986 -4.12179 0
M  V30 3049 H 293.344 1.18921 -5.35863 0
M  V30 3050 H 293.605 2.10939 -3.88532 0
M  V30 3051 N 292.664 1.56529 -0.183458 0
M  V30 3052 C 293.941 1.88959 0.50536 0
M  V30 3053 C 294.321 1.09523 1.80466 0
M  V30 3054 O 293.669 0.19278 2.27685 0
M  V30 3055 C 293.879 3.41162 0.73547 0
M  V30 3056 C 295.227 4.11155 1.06005 0
M  V30 3057 O 296.251 3.46548 0.823594 0
M  V30 3058 O 295.11 5.25318 1.50675 0
M  V30 3059 H 292.204 0.78441 0.261973 0
M  V30 3060 H 294.75 1.68231 -0.222802 0
M  V30 3061 H 293.522 3.90874 -0.182561 0
M  V30 3062 H 293.145 3.67543 1.51651 0
M  V30 3063 N 294.142 -0.090211 1.57342 0
M  V30 3064 C 295.558 -0.444547 1.53284 0
M  V30 3065 C 295.758 -1.80238 0.900914 0
M  V30 3066 O 294.814 -2.4759 0.495513 0
M  V30 3067 C 296.127 -0.402543 2.97993 0
M  V30 3068 C 297.675 -0.48405 3.09234 0
M  V30 3069 C 298.15 -0.472144 4.5556 0
M  V30 3070 N 299.641 -0.532757 4.60126 0
M  V30 3071 C 300.376 -0.545462 5.708 0
M  V30 3072 N 299.872 -0.514082 6.9089 0
M  V30 3073 N 301.665 -0.59064 5.58988 0
M  V30 3074 H 293.816 0.799121 1.96794 0
M  V30 3075 H 296.079 0.297965 0.899956 0
M  V30 3076 H 295.785 0.528106 3.47712 0
M  V30 3077 H 295.659 -1.21969 3.56936 0
M  V30 3078 H 298.046 -1.40512 2.595 0
M  V30 3079 H 298.127 0.361328 2.53235 0
M  V30 3080 H 297.771 0.445 5.05947 0
M  V30 3081 H 297.701 -1.3348 5.09402 0
M  V30 3082 H 300.192 -0.562006 3.73698 0
M  V30 3083 H 300.505 -0.527195 7.71 0
M  V30 3084 H 298.85 -0.481054 6.93333 0
M  V30 3085 H 302.041 -0.61272 4.64073 0
M  V30 3086 H 302.214 -0.597073 6.45243 0
M  V30 3087 N 295.62 -1.53406 -0.361157 0
M  V30 3088 C 296.55 -1.83136 -1.44857 0
M  V30 3089 C 297.531 -0.685174 -1.5569 0
M  V30 3090 O 298.716 -0.93544 -1.70186 0
M  V30 3091 C 295.846 -2.02522 -2.82138 0
M  V30 3092 C 294.8 -3.18302 -2.86126 0
M  V30 3093 C 294.126 -3.22989 -4.26125 0
M  V30 3094 C 295.426 -4.56796 -2.53248 0
M  V30 3095 H 297.12 -2.74201 -1.20226 0
M  V30 3096 H 294.666 -1.31938 -0.576922 0
M  V30 3097 H 296.619 -2.21904 -3.58241 0
M  V30 3098 H 295.343 -1.08172 -3.08166 0
M  V30 3099 H 294.002 -2.98747 -2.12475 0
M  V30 3100 H 293.65 -2.26267 -4.49235 0
M  V30 3101 H 293.35 -4.00781 -4.29708 0
M  V30 3102 H 294.874 -3.44559 -5.04094 0
M  V30 3103 H 296.288 -4.7631 -3.19064 0
M  V30 3104 H 294.685 -5.36862 -2.68141 0
M  V30 3105 H 295.755 -4.61606 -1.48484 0
M  V30 3106 N 297.098 0.621204 -1.44841 0
M  V30 3107 C 298.346 1.37783 -1.47852 0
M  V30 3108 C 298.667 1.94653 -0.116224 0
M  V30 3109 O 297.937 1.76367 0.852737 0
M  V30 3110 H 296.517 0.511453 -0.544449 0
M  V30 3111 H 299.179 0.730446 -1.80694 0
M  V30 3112 H 298.275 2.20414 -2.20961 0
M  V30 3113 N 298.576 1.31904 0.862503 0
M  V30 3114 C 299.509 1.14514 1.97388 0
M  V30 3115 C 300.487 0.0466493 1.62533 0
M  V30 3116 O 301.671 0.204484 1.87388 0
M  V30 3117 C 298.798 0.751347 3.30261 0
M  V30 3118 C 297.844 1.85395 3.84098 0
M  V30 3119 S 298.677 3.46081 4.08642 0
M  V30 3120 C 299.833 3.08655 5.44502 0
M  V30 3121 H 300.066 2.08597 2.11836 0
M  V30 3122 H 297.599 1.16475 1.01356 0
M  V30 3123 H 299.557 0.530901 4.07052 0
M  V30 3124 H 298.218 -0.170493 3.13637 0
M  V30 3125 H 297.411 1.53122 4.80177 0
M  V30 3126 H 297.013 2.02984 3.14123 0
M  V30 3127 H 299.305 2.58012 6.26447 0
M  V30 3128 H 300.248 4.03726 5.81731 0
M  V30 3129 H 300.656 2.45891 5.08132 0
M  V30 3130 N 300.054 -1.07777 1.14986 0
M  V30 3131 C 301.282 -1.84018 0.945773 0
M  V30 3132 C 301.697 -1.81897 -0.505863 0
M  V30 3133 O 301.054 -1.22726 -1.35072 0
M  V30 3134 C 301.105 -3.31287 1.44677 0
M  V30 3135 O 300.826 -3.33449 2.84154 0
M  V30 3136 C 302.327 -4.24311 1.28355 0
M  V30 3137 H 299.547 -0.580716 0.336169 0
M  V30 3138 H 302.091 -1.36077 1.52654 0
M  V30 3139 H 300.246 -3.76594 0.908625 0
M  V30 3140 H 300.66 -4.25427 3.06777 0
M  V30 3141 H 302.134 -5.2573 1.68261 0
M  V30 3142 H 302.611 -4.38612 0.227184 0
M  V30 3143 H 303.217 -3.84836 1.81056 0
M  V30 3144 N 301.532 -0.945985 -1.26051 0
M  V30 3145 C 302.948 -0.649045 -1.45807 0
M  V30 3146 C 303.148 0.796158 -1.85104 0
M  V30 3147 O 302.204 1.57233 -1.97571 0
M  V30 3148 C 303.517 -1.61458 -2.53677 0
M  V30 3149 C 305.065 -1.62481 -2.67524 0
M  V30 3150 C 305.54 -2.57776 -3.7857 0
M  V30 3151 N 307.031 -2.5609 -3.85969 0
M  V30 3152 C 307.766 -3.26508 -4.7136 0
M  V30 3153 N 307.262 -4.0637 -5.61102 0
M  V30 3154 N 309.055 -3.15437 -4.65248 0
M  V30 3155 H 301.206 -1.88005 -0.988328 0
M  V30 3156 H 303.469 -0.808198 -0.4955 0
M  V30 3157 H 303.175 -2.64644 -2.31638 0
M  V30 3158 H 303.049 -1.37036 -3.51427 0
M  V30 3159 H 305.436 -0.600167 -2.88933 0
M  V30 3160 H 305.517 -1.90958 -1.70202 0
M  V30 3161 H 305.161 -3.60361 -3.57913 0
M  V30 3162 H 305.091 -2.26587 -4.75359 0
M  V30 3163 H 307.582 -1.98105 -3.21812 0
M  V30 3164 H 307.895 -4.57042 -6.23164 0
M  V30 3165 H 306.24 -4.10469 -5.60839 0
M  V30 3166 H 309.431 -2.52525 -3.94143 0
M  V30 3167 H 309.604 -3.70584 -5.31575 0
M  V30 3168 N 303.011 1.40521 -0.713556 0
M  V30 3169 C 304.257 2.01221 -0.252564 0
M  V30 3170 C 304.59 1.56444 1.1506 0
M  V30 3171 O 303.865 0.783597 1.78017 0
M  V30 3172 C 304.148 3.58582 -0.330332 0
M  V30 3173 C 304.001 4.13437 -1.77173 0
M  V30 3174 C 305.32 4.39079 0.299641 0
M  V30 3175 H 302.439 0.731077 -0.0932471 0
M  V30 3176 H 305.081 1.67026 -0.905673 0
M  V30 3177 H 303.231 3.87844 0.225737 0
M  V30 3178 H 304.903 3.9498 -2.38303 0
M  V30 3179 H 303.146 3.67801 -2.3001 0
M  V30 3180 H 303.817 5.22597 -1.77755 0
M  V30 3181 H 306.293 4.15735 -0.174139 0
M  V30 3182 H 305.169 5.4848 0.214771 0
M  V30 3183 H 305.43 4.19915 1.38288 0
M  V30 3184 N 304.489 0.459591 1.5075 0
M  V30 3185 C 305.422 -0.386257 2.24907 0
M  V30 3186 C 306.4 -1.006 1.27744 0
M  V30 3187 O 307.584 -1.04416 1.56938 0
M  V30 3188 C 304.711 -1.54021 3.01654 0
M  V30 3189 C 303.757 -1.03898 4.13651 0
M  V30 3190 S 304.59 0.0370501 5.35487 0
M  V30 3191 C 305.746 -1.12105 6.15779 0
M  V30 3192 H 305.979 0.243272 2.96303 0
M  V30 3193 H 303.512 0.244339 1.52454 0
M  V30 3194 H 305.47 -2.20163 3.46466 0
M  V30 3195 H 304.131 -2.14121 2.29806 0
M  V30 3196 H 303.324 -1.90254 4.66711 0
M  V30 3197 H 302.926 -0.45545 3.71216 0
M  V30 3198 H 305.218 -2.03501 6.46215 0
M  V30 3199 H 306.161 -0.62995 7.05292 0
M  V30 3200 H 306.569 -1.36967 5.47631 0
M  V30 3201 N 305.967 -1.56429 0.191757 0
M  V30 3202 C 306.877 -2.22541 -0.742481 0
M  V30 3203 C 307.893 -1.22342 -1.23727 0
M  V30 3204 O 309.069 -1.55069 -1.28513 0
M  V30 3205 C 306.134 -2.8692 -1.94623 0
M  V30 3206 C 305.195 -4.02378 -1.49633 0
M  V30 3207 C 304.428 -4.63678 -2.6427 0
M  V30 3208 O 304.651 -4.23895 -3.81666 0
M  V30 3209 O 303.585 -5.53202 -2.37174 0
M  V30 3210 H 307.411 -3.02977 -0.209462 0
M  V30 3211 H 304.996 -1.49353 -0.0373832 0
M  V30 3212 H 306.878 -3.27663 -2.64982 0
M  V30 3213 H 305.553 -2.09466 -2.46791 0
M  V30 3214 H 304.46 -3.66265 -0.761636 0
M  V30 3215 H 305.793 -4.81487 -1.02134 0
M  V30 3216 N 307.445 0.0818655 -1.57387 0
M  V30 3217 C 308.355 1.11642 -2.06333 0
M  V30 3218 C 309.371 1.43033 -0.99083 0
M  V30 3219 O 310.547 1.53411 -1.30488 0
M  V30 3220 C 307.612 2.41342 -2.48907 0
M  V30 3221 C 306.673 2.17014 -3.7041 0
M  V30 3222 C 305.906 3.4053 -4.10944 0
M  V30 3223 O 306.129 4.4927 -3.51444 0
M  V30 3224 O 305.063 3.29336 -5.03807 0
M  V30 3225 H 308.889 0.730657 -2.9478 0
M  V30 3226 H 306.474 0.295301 -1.46452 0
M  V30 3227 H 308.356 3.17691 -2.76858 0
M  V30 3228 H 307.031 2.79319 -1.63593 0
M  V30 3229 H 305.938 1.38403 -3.47556 0
M  V30 3230 H 307.271 1.83923 -4.56545 0
M  V30 3231 N 308.923 1.53595 0.353017 0
M  V30 3232 C 310.151 1.74311 1.1146 0
M  V30 3233 C 310.566 0.477854 1.82653 0
M  V30 3234 O 309.923 -0.549977 1.74016 0
M  V30 3235 C 309.974 2.91694 2.13534 0
M  V30 3236 O 309.695 4.13325 1.45238 0
M  V30 3237 C 311.196 3.24384 3.02142 0
M  V30 3238 H 308.416 0.582669 0.332773 0
M  V30 3239 H 310.96 2.00386 0.408107 0
M  V30 3240 H 309.115 2.67977 2.79763 0
M  V30 3241 H 309.529 4.79148 2.13349 0
M  V30 3242 H 311.003 4.09893 3.69718 0
M  V30 3243 H 311.48 2.40282 3.67643 0
M  V30 3244 H 312.086 3.50073 2.41514 0
M  V30 3245 N 310.401 -0.613514 1.45168 0
M  V30 3246 C 311.65 -1.36874 1.4815 0
M  V30 3247 C 311.963 -1.952 0.124982 0
M  V30 3248 O 313.169 -2.71481 0.0324176 0
M  V30 3249 C 311.625 -2.47905 2.60904 0
M  V30 3250 C 311.233 -1.96016 4.02842 0
M  V30 3251 C 312.977 -3.24965 2.73126 0
M  V30 3252 C 310.884 -3.04494 5.06988 0
M  V30 3253 H 309.814 -0.514428 0.551253 0
M  V30 3254 H 312.465 -0.658182 1.7129 0
M  V30 3255 H 310.847 -3.21618 2.31037 0
M  V30 3256 H 312.021 -1.29051 4.4236 0
M  V30 3257 H 310.336 -1.31719 3.95018 0
M  V30 3258 H 312.933 -4.05865 3.48106 0
M  V30 3259 H 313.276 -3.75588 1.79553 0
M  V30 3260 H 313.809 -2.5835 3.0249 0
M  V30 3261 H 310.548 -2.58795 6.0225 0
M  V30 3262 H 310.068 -3.70044 4.72046 0
M  V30 3263 H 311.747 -3.68976 5.31475 0
M  V30 3264 N 311.879 -1.3236 -0.855495 0
M  V30 3265 C 312.842 -1.21164 -1.94556 0
M  V30 3266 C 313.842 -0.134908 -1.60233 0
M  V30 3267 O 315.032 -0.385249 -1.69887 0
M  V30 3268 C 312.164 -0.863192 -3.29791 0
M  V30 3269 H 313.357 -2.18038 -2.05911 0
M  V30 3270 H 310.91 -1.16179 -1.04557 0
M  V30 3271 H 311.645 0.103769 -3.24134 0
M  V30 3272 H 311.43 -1.64166 -3.56078 0
M  V30 3273 H 312.92 -0.809156 -4.09686 0
M  V30 3274 N 313.357 1.07166 -1.15556 0
M  V30 3275 C 314.587 1.83248 -0.954133 0
M  V30 3276 C 314.995 1.82449 0.500911 0
M  V30 3277 O 314.338 1.23575 1.35923 0
M  V30 3278 C 314.4 3.31393 -1.39351 0
M  V30 3279 C 314.064 3.5591 -2.86666 0
M  V30 3280 C 315.061 3.49695 -3.8472 0
M  V30 3281 C 312.746 3.83515 -3.24379 0
M  V30 3282 C 314.74 3.70737 -5.18491 0
M  V30 3283 C 312.427 4.04209 -4.58321 0
M  V30 3284 C 313.425 3.97815 -5.55186 0
M  V30 3285 O 313.113 4.17954 -6.86709 0
M  V30 3286 H 312.845 0.584941 -0.338851 0
M  V30 3287 H 315.399 1.36169 -1.53777 0
M  V30 3288 H 313.629 3.79292 -0.75329 0
M  V30 3289 H 315.318 3.88945 -1.16089 0
M  V30 3290 H 316.084 3.28368 -3.56931 0
M  V30 3291 H 311.963 3.87605 -2.49567 0
M  V30 3292 H 315.507 3.65663 -5.94085 0
M  V30 3293 H 311.404 4.25023 -4.85825 0
M  V30 3294 H 312.172 4.35291 -6.93155 0
M  V30 3295 N 314.835 0.952656 1.25548 0
M  V30 3296 C 315.765 0.489287 2.28316 0
M  V30 3297 C 316.746 -0.463359 1.63667 0
M  V30 3298 O 317.931 -0.36274 1.90782 0
M  V30 3299 C 315.061 -0.235603 3.465 0
M  V30 3300 C 314.015 0.631593 4.23314 0
M  V30 3301 C 313.341 -0.223923 5.34231 0
M  V30 3302 C 314.641 1.90871 4.86174 0
M  V30 3303 H 316.335 1.34822 2.67326 0
M  V30 3304 H 313.881 0.649728 1.28509 0
M  V30 3305 H 315.834 -0.570882 4.17515 0
M  V30 3306 H 314.558 -1.12877 3.06474 0
M  V30 3307 H 313.217 0.949929 3.54079 0
M  V30 3308 H 312.865 -1.11678 4.90446 0
M  V30 3309 H 312.565 0.35299 5.86539 0
M  V30 3310 H 314.089 -0.554214 6.0808 0
M  V30 3311 H 315.503 1.63997 5.49343 0
M  V30 3312 H 313.9 2.43112 5.4865 0
M  V30 3313 H 314.97 2.61304 4.08471 0
M  V30 3314 N 316.313 -1.40141 0.720998 0
M  V30 3315 C 317.26 -2.30688 0.071919 0
M  V30 3316 C 318.23 -1.48476 -0.744584 0
M  V30 3317 O 319.415 -1.77201 -0.707423 0
M  V30 3318 C 316.555 -3.34724 -0.839855 0
M  V30 3319 C 315.668 -4.31998 -0.0122438 0
M  V30 3320 C 314.803 -5.23102 -0.923995 0
M  V30 3321 C 313.842 -6.12033 -0.0907969 0
M  V30 3322 N 312.979 -6.95537 -0.957718 0
M  V30 3323 H 317.819 -2.85628 0.849755 0
M  V30 3324 H 315.356 -1.40653 0.430726 0
M  V30 3325 H 317.314 -3.93618 -1.38279 0
M  V30 3326 H 315.944 -2.81274 -1.58381 0
M  V30 3327 H 314.996 -3.74841 0.64794 0
M  V30 3328 H 316.308 -4.94772 0.632595 0
M  V30 3329 H 315.462 -5.86953 -1.53527 0
M  V30 3330 H 314.201 -4.60615 -1.60264 0
M  V30 3331 H 313.206 -5.47207 0.533377 0
M  V30 3332 H 314.431 -6.76581 0.584428 0
M  V30 3333 H 312.377 -6.35633 -1.62192 0
M  V30 3334 H 312.294 -7.55099 -0.36904 0
M  V30 3335 H 313.562 -7.63832 -1.555 0
M  V30 3336 N 317.792 -0.46758 -1.50504 0
M  V30 3337 C 318.702 0.33382 -2.32213 0
M  V30 3338 C 319.718 0.999323 -1.42441 0
M  V30 3339 O 320.894 0.988068 -1.75497 0
M  V30 3340 C 317.959 1.4035 -3.17022 0
M  V30 3341 C 317.02 0.754961 -4.2261 0
M  V30 3342 C 316.253 1.77367 -5.03365 0
M  V30 3343 O 316.476 2.99976 -4.8515 0
M  V30 3344 O 315.41 1.34744 -5.86624 0
M  V30 3345 H 319.236 -0.334067 -3.01857 0
M  V30 3346 H 316.821 -0.229496 -1.47627 0
M  V30 3347 H 318.703 2.02318 -3.69656 0
M  V30 3348 H 317.378 2.05492 -2.5011 0
M  V30 3349 H 316.285 0.0964244 -3.73976 0
M  V30 3350 H 317.618 0.146545 -4.91982 0
M  V30 3351 N 319.27 1.56325 -0.20005 0
M  V30 3352 C 320.686 1.58839 0.155716 0
M  V30 3353 C 320.886 1.21636 1.60645 0
M  V30 3354 O 319.942 0.941437 2.34293 0
M  V30 3355 C 321.255 3.0032 -0.151124 0
M  V30 3356 C 322.803 3.12866 -0.0916284 0
M  V30 3357 C 323.278 4.56488 -0.371845 0
M  V30 3358 N 324.769 4.62089 -0.320641 0
M  V30 3359 C 325.504 5.71116 -0.511243 0
M  V30 3360 N 325 6.88592 -0.762461 0
M  V30 3361 N 326.793 5.60335 -0.445157 0
M  V30 3362 H 318.944 1.78788 -1.14668 0
M  V30 3363 H 321.207 0.829996 -0.458051 0
M  V30 3364 H 320.913 3.32117 -1.15721 0
M  V30 3365 H 320.787 3.73257 0.543986 0
M  V30 3366 H 323.174 2.80878 0.905065 0
M  V30 3367 H 323.255 2.42304 -0.81989 0
M  V30 3368 H 322.899 4.89189 -1.36588 0
M  V30 3369 H 322.829 5.25246 0.377362 0
M  V30 3370 H 325.32 3.77665 -0.13329 0
M  V30 3371 H 325.633 7.67581 -0.896576 0
M  V30 3372 H 323.978 6.90387 -0.799412 0
M  V30 3373 H 327.169 4.67436 -0.249278 0
M  V30 3374 H 327.342 6.45243 -0.597116 0
M  V30 3375 N 320.748 -0.0735177 1.57428 0
M  V30 3376 C 321.976 -0.785969 1.9139 0
M  V30 3377 C 322.391 -1.71207 0.795847 0
M  V30 3378 O 321.748 -1.81033 -0.230915 0
M  V30 3379 C 321.799 -1.58107 3.25091 0
M  V30 3380 O 321.52 -0.6922 4.32597 0
M  V30 3381 C 323.021 -2.39467 3.73055 0
M  V30 3382 H 320.241 -0.223558 0.632663 0
M  V30 3383 H 322.785 -0.044302 2.04452 0
M  V30 3384 H 320.94 -2.27503 3.13562 0
M  V30 3385 H 321.354 -1.24504 5.09508 0
M  V30 3386 H 322.828 -2.90716 4.69242 0
M  V30 3387 H 323.305 -3.18913 3.01979 0
M  V30 3388 H 323.911 -1.7523 3.87523 0
M  V30 3389 N 322.226 -1.5378 -0.344866 0
M  V30 3390 C 323.503 -1.61589 -1.10219 0
M  V30 3391 C 323.883 -0.436316 -2.06542 0
M  V30 3392 O 323.231 0.571543 -2.21237 0
M  V30 3393 C 323.441 -2.97602 -1.82301 0
M  V30 3394 C 324.789 -3.5291 -2.36093 0
M  V30 3395 O 325.813 -2.99768 -1.924 0
M  V30 3396 O 324.672 -4.45859 -3.16026 0
M  V30 3397 H 321.766 -0.653522 -0.506792 0
M  V30 3398 H 324.312 -1.66126 -0.346465 0
M  V30 3399 H 323.084 -3.74893 -1.12121 0
M  V30 3400 H 322.707 -2.9665 -2.64735 0
M  V30 3401 N 323.704 0.605807 -1.45491 0
M  V30 3402 C 324.952 1.36207 -1.49305 0
M  V30 3403 C 325.273 1.94519 -0.136863 0
M  V30 3404 O 324.543 1.77261 0.833983 0
M  V30 3405 H 323.123 0.50565 -0.549843 0
M  V30 3406 H 325.785 0.711239 -1.81459 0
M  V30 3407 H 324.881 2.18058 -2.23287 0
M  V30 3408 N 325.182 1.32811 0.848464 0
M  V30 3409 C 326.428 1.23907 1.60546 0
M  V30 3410 C 326.761 -0.197161 1.93197 0
M  V30 3411 O 326.036 -1.13596 1.5788 0
M  V30 3412 C 326.319 2.10489 2.92175 0
M  V30 3413 C 326.172 3.62522 2.66266 0
M  V30 3414 C 327.491 1.97075 3.93509 0
M  V30 3415 H 324.61 0.451459 0.58254 0
M  V30 3416 H 327.252 1.62818 0.979296 0
M  V30 3417 H 325.402 1.77434 3.45614 0
M  V30 3418 H 327.074 4.05821 2.19334 0
M  V30 3419 H 325.317 3.84879 2.00126 0
M  V30 3420 H 325.988 4.18437 3.6002 0
M  V30 3421 H 328.464 2.26045 3.49346 0
M  V30 3422 H 327.34 2.59923 4.83457 0
M  V30 3423 H 327.601 0.940186 4.31987 0
M  V30 3424 N 326.66 -1.06551 1.16123 0
M  V30 3425 C 327.61 -2.12209 0.833736 0
M  V30 3426 C 328.594 -1.59825 -0.185656 0
M  V30 3427 O 329.786 -1.76994 0.0147906 0
M  V30 3428 C 326.915 -3.41674 0.333697 0
M  V30 3429 C 326.001 -4.00892 1.38372 0
M  V30 3430 N 326.392 -4.34256 2.59337 0
M  V30 3431 C 324.69 -4.28463 1.23836 0
M  V30 3432 C 325.391 -4.81291 3.26701 0
M  V30 3433 N 324.367 -4.80565 2.54083 0
M  V30 3434 H 328.169 -2.35849 1.75364 0
M  V30 3435 H 325.683 -1.24068 1.04789 0
M  V30 3436 H 327.68 -4.16822 0.0806918 0
M  V30 3437 H 326.34 -3.19475 -0.58017 0
M  V30 3438 H 327.351 -4.24687 2.96415 0
M  V30 3439 H 324.028 -4.15721 0.38504 0
M  V30 3440 H 325.418 -5.16332 4.29943 0
M  V30 3441 N 328.138 -0.959301 -1.25041 0
M  V30 3442 C 329.068 -0.501388 -2.28053 0
M  V30 3443 C 330.049 0.454673 -1.63911 0
M  V30 3444 O 331.234 0.352618 -1.90972 0
M  V30 3445 C 328.364 0.217224 -3.4662 0
M  V30 3446 C 327.318 -0.654034 -4.22973 0
M  V30 3447 C 326.644 0.195589 -5.34342 0
M  V30 3448 C 327.944 -1.93447 -4.85155 0
M  V30 3449 H 329.638 -1.36238 -2.66608 0
M  V30 3450 H 327.184 -0.656534 -1.28163 0
M  V30 3451 H 329.137 0.548732 -4.17812 0
M  V30 3452 H 327.861 1.1125 -3.07068 0
M  V30 3453 H 326.52 -0.968693 -3.5357 0
M  V30 3454 H 326.168 1.09076 -4.91031 0
M  V30 3455 H 325.868 -0.384091 -5.86343 0
M  V30 3456 H 327.392 0.521958 -6.08365 0
M  V30 3457 H 328.806 -1.66908 -5.48466 0
M  V30 3458 H 327.203 -2.46018 -5.47353 0
M  V30 3459 H 328.273 -2.63466 -4.07079 0
M  V30 3460 N 329.616 1.39756 -0.72842 0
M  V30 3461 C 330.841 2.05472 -0.282159 0
M  V30 3462 C 331.266 1.54549 1.07221 0
M  V30 3463 O 330.624 0.686372 1.67805 0
M  V30 3464 C 330.672 3.59462 -0.286264 0
M  V30 3465 O 329.776 4.05918 0.728298 0
M  V30 3466 H 329.117 0.651226 -0.129618 0
M  V30 3467 H 331.647 1.78915 -0.992499 0
M  V30 3468 H 331.657 4.07798 -0.128373 0
M  V30 3469 H 330.332 3.95889 -1.27456 0
M  V30 3470 H 328.909 3.69012 0.537081 0
M  V30 3471 N 331.094 0.475555 1.50254 0
M  V30 3472 C 332.024 -0.30611 2.31485 0
M  V30 3473 C 333.005 -0.986228 1.38591 0
M  V30 3474 O 334.19 -0.982541 1.67511 0
M  V30 3475 C 331.32 -1.38588 3.1845 0
M  V30 3476 C 330.274 -0.827115 4.19932 0
M  V30 3477 C 329.6 -2.00551 4.95665 0
M  V30 3478 C 330.9 0.16463 5.2204 0
M  V30 3479 H 332.594 0.371866 2.97082 0
M  V30 3480 H 330.14 0.180282 1.42867 0
M  V30 3481 H 332.093 -1.94023 3.74076 0
M  V30 3482 H 330.817 -2.09269 2.50747 0
M  V30 3483 H 329.476 -0.294702 3.65414 0
M  V30 3484 H 329.124 -2.6994 4.2443 0
M  V30 3485 H 328.824 -1.63784 5.64313 0
M  V30 3486 H 330.348 -2.56468 5.54127 0
M  V30 3487 H 331.762 -0.300699 5.72511 0
M  V30 3488 H 330.159 0.446813 5.98434 0
M  V30 3489 H 331.229 1.08905 4.72512 0
M  V30 3490 N 332.573 -1.56217 0.208337 0
M  V30 3491 C 333.85 -1.89739 -0.475234 0
M  V30 3492 C 334.23 -1.1238 -1.78701 0
M  V30 3493 O 333.578 -0.228979 -2.2735 0
M  V30 3494 C 333.788 -3.42289 -0.681101 0
M  V30 3495 C 335.136 -4.12789 -0.994507 0
M  V30 3496 O 336.16 -3.47814 -0.768357 0
M  V30 3497 O 335.019 -5.27649 -1.42299 0
M  V30 3498 H 332.113 -0.788478 -0.249461 0
M  V30 3499 H 334.659 -1.67855 0.249538 0
M  V30 3500 H 333.431 -3.90534 0.244722 0
M  V30 3501 H 333.054 -3.69909 -1.45785 0
M  V30 3502 N 334.051 0.0651679 -1.57465 0
M  V30 3503 C 334.981 1.07693 -2.07182 0
M  V30 3504 C 335.962 1.39962 -0.966673 0
M  V30 3505 O 337.147 1.49475 -1.2398 0
M  V30 3506 C 334.277 2.3885 -2.52127 0
M  V30 3507 C 333.231 2.20917 -3.66579 0
M  V30 3508 C 332.557 3.57515 -3.97601 0
M  V30 3509 C 333.857 1.62493 -4.9638 0
M  V30 3510 H 335.551 0.663199 -2.91962 0
M  V30 3511 H 333.097 0.317569 -1.40455 0
M  V30 3512 H 335.05 3.09928 -2.85522 0
M  V30 3513 H 333.774 2.82215 -1.64384 0
M  V30 3514 H 332.433 1.52279 -3.33477 0
M  V30 3515 H 332.081 3.98463 -3.06979 0
M  V30 3516 H 331.781 3.46353 -4.74672 0
M  V30 3517 H 333.305 4.30013 -4.33499 0
M  V30 3518 H 334.719 2.23445 -5.27963 0
M  V30 3519 H 333.116 1.62009 -5.77818 0
M  V30 3520 H 334.186 0.587041 -4.81333 0
M  V30 3521 N 335.529 1.53961 0.336706 0
M  V30 3522 C 336.806 1.62171 1.09361 0
M  V30 3523 C 337.186 0.447263 2.06307 0
M  V30 3524 O 336.534 -0.559802 2.21537 0
M  V30 3525 C 336.744 2.98565 1.80721 0
M  V30 3526 C 338.092 3.54157 2.34218 0
M  V30 3527 O 339.116 3.00784 1.90807 0
M  V30 3528 O 337.975 4.47528 3.13657 0
M  V30 3529 H 335.069 0.6562 0.503319 0
M  V30 3530 H 337.615 1.66307 0.33765 0
M  V30 3531 H 336.387 3.75482 1.10132 0
M  V30 3532 H 336.01 2.9805 2.63158 0
M  V30 3533 N 337.007 -0.598083 1.45811 0
M  V30 3534 C 338.255 -1.35413 1.50026 0
M  V30 3535 C 338.576 -1.94444 0.147177 0
M  V30 3536 O 337.846 -1.77701 -0.824571 0
M  V30 3537 H 336.426 -0.502727 0.552517 0
M  V30 3538 H 339.088 -0.701606 1.81834 0
M  V30 3539 H 338.184 -2.16871 2.2444 0
M  V30 3540 N 338.485 -1.33259 -0.841409 0
M  V30 3541 C 339.415 -1.25926 -1.96634 0
M  V30 3542 C 340.396 -0.140349 -1.6952 0
M  V30 3543 O 341.581 -0.329707 -1.91381 0
M  V30 3544 C 338.711 -0.99512 -3.32738 0
M  V30 3545 C 337.665 -2.0767 -3.74242 0
M  V30 3546 C 336.991 -1.66474 -5.08125 0
M  V30 3547 C 338.291 -3.49318 -3.88297 0
M  V30 3548 H 339.985 -2.20046 -2.03027 0
M  V30 3549 H 337.531 -1.05931 -0.975425 0
M  V30 3550 H 339.484 -0.930323 -4.11002 0
M  V30 3551 H 338.208 -0.0183004 -3.26595 0
M  V30 3552 H 336.867 -2.13187 -2.98239 0
M  V30 3553 H 336.515 -0.675012 -4.9845 0
M  V30 3554 H 336.215 -2.3885 -5.36865 0
M  V30 3555 H 337.739 -1.61455 -5.88867 0
M  V30 3556 H 339.153 -3.46316 -4.56879 0
M  V30 3557 H 337.55 -4.20158 -4.28471 0
M  V30 3558 H 338.62 -3.8801 -2.9082 0
M  V30 3559 N 339.963 1.05934 -1.16686 0
M  V30 3560 C 341.24 1.75643 -0.860747 0
M  V30 3561 C 341.62 2.01144 0.640641 0
M  V30 3562 O 340.968 1.64147 1.58959 0
M  V30 3563 C 341.178 3.05493 -1.68745 0
M  V30 3564 C 342.526 3.79581 -1.90271 0
M  V30 3565 O 343.55 3.15344 -1.65641 0
M  V30 3566 O 342.409 4.9499 -2.31618 0
M  V30 3567 H 339.503 0.763426 -0.317977 0
M  V30 3568 H 342.049 1.1217 -1.27342 0
M  V30 3569 H 340.821 2.8264 -2.70611 0
M  V30 3570 H 340.444 3.76702 -1.27206 0
M  V30 3571 N 341.441 0.965919 1.2453 0
M  V30 3572 C 342.852 0.665929 1.7442 0
M  V30 3573 C 343.203 -0.818407 1.78316 0
M  V30 3574 O 342.328 -1.64037 1.41141 0
M  V30 3575 C 342.923 1.20211 3.16757 0
M  V30 3576 C 341.482 0.952059 3.6416 0
M  V30 3577 C 340.629 1.33848 2.42858 0
M  V30 3578 H 343.58 1.14144 1.10258 0
M  V30 3579 H 343.601 0.567544 3.76244 0
M  V30 3580 H 343.113 2.28244 3.13889 0
M  V30 3581 H 341.214 -0.112821 3.72429 0
M  V30 3582 H 341.327 1.59645 4.51719 0
M  V30 3583 H 339.691 0.756864 2.43195 0
M  V30 3584 H 340.474 2.42827 2.42673 0
M  V30 3585 N 342.919 -1.39368 0.735821 0
M  V30 3586 C 344.144 -2.05319 0.293052 0
M  V30 3587 C 344.569 -1.55115 -1.064 0
M  V30 3588 O 343.927 -0.695261 -1.67439 0
M  V30 3589 C 343.975 -3.59305 0.305323 0
M  V30 3590 O 343.079 -4.06299 -0.706761 0
M  V30 3591 H 342.42 -0.650529 0.13307 0
M  V30 3592 H 344.95 -1.78386 1.00197 0
M  V30 3593 H 344.96 -4.07724 0.149997 0
M  V30 3594 H 343.635 -3.95207 1.29553 0
M  V30 3595 H 342.212 -3.69292 -0.517504 0
M  V30 3596 N 344.397 -0.483516 -1.5 0
M  V30 3597 C 345.674 0.129337 -1.95172 0
M  V30 3598 C 346.054 1.55802 -1.4244 0
M  V30 3599 O 345.402 2.19625 -0.630649 0
M  V30 3600 C 345.612 0.0599251 -3.48949 0
M  V30 3601 C 346.96 0.242617 -4.23906 0
M  V30 3602 O 347.984 0.135933 -3.55941 0
M  V30 3603 O 346.843 0.459454 -5.44565 0
M  V30 3604 H 343.937 0.104887 -0.820322 0
M  V30 3605 H 346.483 -0.544807 -1.60717 0
M  V30 3606 H 345.255 -0.937079 -3.79914 0
M  V30 3607 H 344.878 0.774984 -3.89974 0
M  V30 3608 N 345.875 1.56104 -0.216619 0
M  V30 3609 C 346.838 2.18819 0.681962 0
M  V30 3610 C 347.838 1.14866 1.12528 0
M  V30 3611 O 349.028 1.40128 1.03488 0
M  V30 3612 C 346.16 2.80756 1.93362 0
M  V30 3613 H 347.353 2.99595 0.135254 0
M  V30 3614 H 344.906 1.56265 0.0330003 0
M  V30 3615 H 345.641 2.03837 2.52232 0
M  V30 3616 H 345.426 3.56876 1.62426 0
M  V30 3617 H 346.916 3.28844 2.57393 0
M  V30 3618 N 347.353 -0.0568162 1.57498 0
M  V30 3619 C 348.764 -0.606858 1.76562 0
M  V30 3620 C 349.115 -1.77114 0.844094 0
M  V30 3621 O 348.24 -2.16376 0.0318911 0
M  V30 3622 C 348.835 -1.10766 3.20182 0
M  V30 3623 C 347.394 -1.60344 3.40539 0
M  V30 3624 C 346.541 -0.529311 2.72201 0
M  V30 3625 H 349.492 0.169393 1.57793 0
M  V30 3626 H 349.513 -1.97602 3.25167 0
M  V30 3627 H 349.025 -0.26006 3.87228 0
M  V30 3628 H 347.126 -2.47379 2.78629 0
M  V30 3629 H 347.239 -1.67006 4.4905 0
M  V30 3630 H 345.603 -0.977893 2.35179 0
M  V30 3631 H 346.386 0.308352 3.41912 0
M  V30 3632 N 348.832 -1.54138 -0.328536 0
M  V30 3633 C 350.08 -1.71765 -1.06496 0
M  V30 3634 C 350.401 -0.49149 -1.88704 0
M  V30 3635 O 349.671 0.494539 -1.89555 0
M  V30 3636 H 348.251 -0.633295 -0.396164 0
M  V30 3637 H 350.913 -1.91429 -0.366176 0
M  V30 3638 H 350.009 -2.5951 -1.73381 0
M  V30 3639 N 350.31 0.590341 -1.46126 0
M  V30 3640 C 351.556 1.35082 -1.51264 0
M  V30 3641 C 351.889 1.93534 -0.160711 0
M  V30 3642 O 351.164 1.76045 0.826956 0
M  V30 3643 C 351.447 2.48588 -2.6053 0
M  V30 3644 C 351.3 1.95221 -4.05227 0
M  V30 3645 C 352.619 3.50662 -2.6594 0
M  V30 3646 H 349.738 0.489803 -0.550692 0
M  V30 3647 H 352.38 0.663887 -1.78024 0
M  V30 3648 H 350.53 3.07186 -2.37843 0
M  V30 3649 H 352.202 1.41139 -4.39178 0
M  V30 3650 H 350.445 1.26101 -4.15068 0
M  V30 3651 H 351.116 2.77121 -4.77397 0
M  V30 3652 H 353.592 3.01934 -2.86313 0
M  V30 3653 H 352.468 4.27551 -3.44226 0
M  V30 3654 H 352.729 4.07399 -1.71694 0
M  V30 3655 N 351.788 1.33704 0.83433 0
M  V30 3656 C 353.036 1.25169 1.58673 0
M  V30 3657 C 353.357 -0.18127 1.94156 0
M  V30 3658 O 352.627 -1.11113 1.6134 0
M  V30 3659 H 351.207 0.4603 0.58833 0
M  V30 3660 H 353.869 1.67478 0.996847 0
M  V30 3661 H 352.965 1.84856 2.51465 0
M  V30 3662 N 353.266 -1.05314 1.17247 0
M  V30 3663 C 354.494 -1.81971 0.984593 0
M  V30 3664 C 354.909 -1.82929 -0.467166 0
M  V30 3665 O 354.266 -1.25564 -1.32438 0
M  V30 3666 C 354.317 -3.28143 1.51672 0
M  V30 3667 O 354.038 -3.27347 2.91163 0
M  V30 3668 C 355.539 -4.21493 1.37326 0
M  V30 3669 H 352.759 -0.573455 0.348411 0
M  V30 3670 H 355.303 -1.32808 1.55506 0
M  V30 3671 H 353.458 -3.74582 0.988302 0
M  V30 3672 H 353.872 -4.18824 3.15732 0
M  V30 3673 H 355.346 -5.22043 1.79375 0
M  V30 3674 H 355.823 -4.38031 0.320169 0
M  V30 3675 H 356.429 -3.80909 1.89178 0
M  V30 3676 N 354.744 -0.972509 -1.24016 0
M  V30 3677 C 356.155 -0.67517 -1.74064 0
M  V30 3678 C 356.506 0.808939 -1.78747 0
M  V30 3679 O 355.631 1.63286 -1.42009 0
M  V30 3680 C 356.226 -1.21889 -3.16115 0
M  V30 3681 C 354.785 -0.971358 -3.6365 0
M  V30 3682 C 353.932 -1.35134 -2.42145 0
M  V30 3683 H 356.883 -1.14727 -1.09651 0
M  V30 3684 H 356.904 -0.587489 -3.75937 0
M  V30 3685 H 356.416 -2.29906 -3.12674 0
M  V30 3686 H 354.517 0.0930686 -3.72484 0
M  V30 3687 H 354.63 -1.62039 -4.50866 0
M  V30 3688 H 352.994 -0.769751 -2.4279 0
M  V30 3689 H 353.777 -2.4411 -2.41381 0
M  V30 3690 N 356.222 1.38976 -0.743202 0
M  V30 3691 C 357.468 2.0064 -0.295189 0
M  V30 3692 C 357.801 1.5885 1.11716 0
M  V30 3693 O 357.076 0.821181 1.76315 0
M  V30 3694 C 357.359 3.578 -0.406318 0
M  V30 3695 C 357.212 4.09586 -1.85903 0
M  V30 3696 C 358.531 4.39616 0.206439 0
M  V30 3697 H 355.65 0.728935 -0.108733 0
M  V30 3698 H 358.292 1.65067 -0.940897 0
M  V30 3699 H 356.442 3.88235 0.143419 0
M  V30 3700 H 358.114 3.89837 -2.46627 0
M  V30 3701 H 356.357 3.6284 -2.3776 0
M  V30 3702 H 357.028 5.18708 -1.888 0
M  V30 3703 H 359.504 4.15273 -0.262283 0
M  V30 3704 H 358.38 5.48812 0.0983819 0
M  V30 3705 H 358.641 4.22754 1.2935 0
M  V30 3706 N 357.7 0.491464 1.49741 0
M  V30 3707 C 358.949 -0.0582189 2.01616 0
M  V30 3708 C 359.262 -1.38927 1.3769 0
M  V30 3709 O 360.468 -2.02509 1.80838 0
M  V30 3710 C 358.924 -0.154235 3.59569 0
M  V30 3711 C 358.532 1.1696 4.32463 0
M  V30 3712 C 360.276 -0.65479 4.1942 0
M  V30 3713 C 358.183 1.03627 5.8225 0
M  V30 3714 H 357.113 -0.0255317 0.753568 0
M  V30 3715 H 359.764 0.629445 1.72367 0
M  V30 3716 H 358.146 -0.906138 3.85493 0
M  V30 3717 H 359.32 1.93405 4.18248 0
M  V30 3718 H 357.635 1.60285 3.84315 0
M  V30 3719 H 360.232 -0.771903 5.29099 0
M  V30 3720 H 360.575 -1.65127 3.8215 0
M  V30 3721 H 361.108 0.040304 3.9778 0
M  V30 3722 H 357.847 2.00672 6.24028 0
M  V30 3723 H 357.367 0.312546 5.98985 0
M  V30 3724 H 359.046 0.711114 6.4308 0
M  V30 3725 N 359.178 -1.55987 0.224894 0
M  V30 3726 C 360.426 -1.97998 -0.405099 0
M  V30 3727 C 360.747 -1.11387 -1.60056 0
M  V30 3728 O 360.017 -0.191645 -1.9496 0
M  V30 3729 H 358.597 -0.731235 -0.152658 0
M  V30 3730 H 361.259 -1.92279 0.318567 0
M  V30 3731 H 360.355 -3.03463 -0.729167 0
M  V30 3732 N 360.656 0.0484629 -1.57525 0
M  V30 3733 C 361.904 0.741657 -1.88 0
M  V30 3734 C 362.225 1.76918 -0.820054 0
M  V30 3735 O 361.495 1.95335 0.148661 0
M  V30 3736 H 360.075 0.276908 -0.69378 0
M  V30 3737 H 362.737 0.019013 -1.94891 0
M  V30 3738 H 361.833 1.24336 -2.86264 0
M  V30 3739 N 362.134 1.5431 0.320358 0
M  V30 3740 C 363.064 1.86912 1.3995 0
M  V30 3741 C 364.045 0.726211 1.53819 0
M  V30 3742 O 365.23 0.980233 1.67646 0
M  V30 3743 C 362.36 2.09932 2.7667 0
M  V30 3744 C 361.314 3.25776 2.77586 0
M  V30 3745 C 360.64 3.34173 4.17412 0
M  V30 3746 C 361.94 4.6335 2.41048 0
M  V30 3747 H 363.634 2.77292 1.12914 0
M  V30 3748 H 361.18 1.33421 0.541738 0
M  V30 3749 H 363.133 2.31324 3.52232 0
M  V30 3750 H 361.857 1.16304 3.0519 0
M  V30 3751 H 360.516 3.04276 2.04479 0
M  V30 3752 H 360.164 2.38098 4.43078 0
M  V30 3753 H 359.864 4.12033 4.18931 0
M  V30 3754 H 361.388 3.57803 4.94782 0
M  V30 3755 H 362.802 4.84602 3.06324 0
M  V30 3756 H 361.199 5.43782 2.53813 0
M  V30 3757 H 362.269 4.65381 1.36193 0
M  V30 3758 N 363.613 -0.582584 1.46437 0
M  V30 3759 C 364.841 -1.36682 1.55324 0
M  V30 3760 C 365.256 -1.87796 0.194409 0
M  V30 3761 O 364.613 -1.63623 -0.808318 0
M  V30 3762 C 364.664 -2.55426 2.55812 0
M  V30 3763 O 364.385 -2.0643 3.86417 0
M  V30 3764 C 365.886 -3.47976 2.74641 0
M  V30 3765 H 363.106 -0.417545 0.525259 0
M  V30 3766 H 365.65 -0.708219 1.91845 0
M  V30 3767 H 363.805 -3.17275 2.22295 0
M  V30 3768 H 364.219 -2.83762 4.41111 0
M  V30 3769 H 365.693 -4.27775 3.48874 0
M  V30 3770 H 366.17 -3.99919 1.81553 0
M  V30 3771 H 366.776 -2.91962 3.09255 0
M  V30 3772 N 365.091 -1.34144 -0.827227 0
M  V30 3773 C 366.321 -1.29138 -1.61267 0
M  V30 3774 C 366.729 0.137597 -1.88699 0
M  V30 3775 O 366.072 1.09379 -1.47587 0
M  V30 3776 C 366.134 -2.0097 -2.9808 0
M  V30 3777 C 365.798 -3.50242 -2.93563 0
M  V30 3778 C 366.795 -4.4523 -2.68452 0
M  V30 3779 C 364.48 -3.92592 -3.13331 0
M  V30 3780 C 366.474 -5.80542 -2.63154 0
M  V30 3781 C 364.161 -5.28005 -3.07658 0
M  V30 3782 C 365.159 -6.21792 -2.82602 0
M  V30 3783 O 364.847 -7.54723 -2.76853 0
M  V30 3784 H 364.579 -0.445851 -0.508127 0
M  V30 3785 H 367.133 -1.77263 -1.03763 0
M  V30 3786 H 365.363 -1.47451 -3.57484 0
M  V30 3787 H 367.052 -1.89309 -3.5905 0
M  V30 3788 H 367.818 -4.13832 -2.52919 0
M  V30 3789 H 363.697 -3.19994 -3.31851 0
M  V30 3790 H 367.241 -6.53717 -2.43516 0
M  V30 3791 H 363.138 -5.59023 -3.22743 0
M  V30 3792 H 363.906 -7.64409 -2.92611 0
M  V30 3793 N 366.569 1.04691 -1.17803 0
M  V30 3794 C 367.985 1.29963 -0.926379 0
M  V30 3795 C 368.185 1.97251 0.411635 0
M  V30 3796 O 367.241 2.24922 1.14744 0
M  V30 3797 C 368.554 2.16447 -2.08737 0
M  V30 3798 C 370.102 2.29814 -2.12496 0
M  V30 3799 C 370.577 3.19661 -3.27995 0
M  V30 3800 N 372.068 3.27247 -3.27816 0
M  V30 3801 C 372.803 3.96906 -4.13827 0
M  V30 3802 N 372.299 4.6895 -5.09959 0
M  V30 3803 N 374.092 3.93122 -4.01761 0
M  V30 3804 H 366.243 0.594182 -2.0392 0
M  V30 3805 H 368.506 0.324649 -0.890678 0
M  V30 3806 H 368.212 1.74304 -3.05469 0
M  V30 3807 H 368.086 3.17103 -2.04268 0
M  V30 3808 H 370.473 2.71196 -1.16347 0
M  V30 3809 H 370.554 1.2877 -2.21025 0
M  V30 3810 H 370.198 2.78991 -4.24413 0
M  V30 3811 H 370.128 4.20722 -3.16703 0
M  V30 3812 H 372.619 2.75921 -2.58217 0
M  V30 3813 H 372.932 5.19679 -5.71974 0
M  V30 3814 H 371.277 4.67875 -5.13924 0
M  V30 3815 H 374.468 3.35967 -3.2595 0
M  V30 3816 H 374.641 4.47139 -4.6901 0
M  V30 3817 N 368.047 0.979072 1.23499 0
M  V30 3818 C 368.957 0.526431 2.28617 0
M  V30 3819 C 369.973 -0.418126 1.68901 0
M  V30 3820 O 371.149 -0.288372 1.99325 0
M  V30 3821 C 368.214 -0.165235 3.46306 0
M  V30 3822 C 367.275 0.82056 4.21385 0
M  V30 3823 C 366.508 0.161807 5.33455 0
M  V30 3824 O 366.731 -1.04742 5.60701 0
M  V30 3825 O 365.665 0.859708 5.95729 0
M  V30 3826 H 369.491 1.4006 2.69475 0
M  V30 3827 H 367.076 0.746643 1.29405 0
M  V30 3828 H 368.958 -0.553287 4.17752 0
M  V30 3829 H 367.633 -1.01419 3.07402 0
M  V30 3830 H 366.54 1.25929 3.52268 0
M  V30 3831 H 367.873 1.63828 4.64135 0
M  V30 3832 N 369.525 -1.3858 0.750561 0
M  V30 3833 C 370.75 -2.04997 0.314812 0
M  V30 3834 C 371.175 -1.56235 -1.04749 0
M  V30 3835 O 370.533 -0.712981 -1.66692 0
M  V30 3836 C 370.581 -3.58961 0.343415 0
M  V30 3837 O 369.685 -4.07025 -0.663628 0
M  V30 3838 H 369.026 -0.649081 0.139962 0
M  V30 3839 H 371.556 -1.77313 1.02084 0
M  V30 3840 H 371.566 -4.07542 0.193233 0
M  V30 3841 H 370.241 -3.93811 1.33738 0
M  V30 3842 H 368.818 -3.6982 -0.478307 0
M  V30 3843 N 371.003 -0.499398 -1.49478 0
M  V30 3844 C 371.953 0.299103 -2.2603 0
M  V30 3845 C 372.937 0.936934 -1.30807 0
M  V30 3846 O 374.129 0.844798 -1.55538 0
M  V30 3847 C 371.258 1.36391 -3.15044 0
M  V30 3848 C 370.344 0.732398 -4.17728 0
M  V30 3849 N 370.735 -0.164028 -5.05534 0
M  V30 3850 C 369.033 0.993162 -4.34801 0
M  V30 3851 C 369.734 -0.525345 -5.79323 0
M  V30 3852 N 368.71 0.106348 -5.43496 0
M  V30 3853 H 372.512 -0.391003 -2.91287 0
M  V30 3854 H 370.026 -0.31537 -1.59308 0
M  V30 3855 H 372.023 1.94939 -3.68516 0
M  V30 3856 H 370.683 2.05571 -2.51338 0
M  V30 3857 H 371.694 -0.534736 -5.15132 0
M  V30 3858 H 368.371 1.67783 -3.82302 0
M  V30 3859 H 369.761 -1.25862 -6.60006 0
M  V30 3860 N 372.481 1.55866 -0.233164 0
M  V30 3861 C 373.411 2.23783 0.666599 0
M  V30 3862 C 374.392 1.21343 1.19205 0
M  V30 3863 O 375.577 1.4996 1.23392 0
M  V30 3864 C 372.707 2.92671 1.86978 0
M  V30 3865 C 371.661 4.01682 1.47768 0
M  V30 3866 C 370.987 4.57926 2.76058 0
M  V30 3867 C 372.287 5.18126 0.658993 0
M  V30 3868 H 373.981 2.99232 0.100306 0
M  V30 3869 H 371.527 1.43924 0.046804 0
M  V30 3870 H 373.48 3.3888 2.50476 0
M  V30 3871 H 372.204 2.14688 2.46123 0
M  V30 3872 H 370.863 3.56222 0.866106 0
M  V30 3873 H 370.511 3.76659 3.33372 0
M  V30 3874 H 370.211 5.31505 2.50552 0
M  V30 3875 H 371.735 5.06859 3.40479 0
M  V30 3876 H 373.149 5.60644 1.19795 0
M  V30 3877 H 371.546 5.98009 0.500552 0
M  V30 3878 H 372.616 4.83763 -0.331856 0
M  V30 3879 N 373.959 -0.0401083 1.57549 0
M  V30 3880 C 374.922 -1.02871 2.04817 0
M  V30 3881 C 375.922 -1.29708 0.950388 0
M  V30 3882 O 377.112 -1.24897 1.21435 0
M  V30 3883 C 374.244 -2.36443 2.45576 0
M  V30 3884 H 375.437 -0.620631 2.93408 0
M  V30 3885 H 372.99 -0.286667 1.53649 0
M  V30 3886 H 373.725 -2.82021 1.60108 0
M  V30 3887 H 373.51 -2.18296 3.25713 0
M  V30 3888 H 375 -3.07441 2.82612 0
M  V30 3889 N 375.437 -1.54477 -0.31217 0
M  V30 3890 C 376.37 -1.79519 -1.40884 0
M  V30 3891 C 377.348 -0.645753 -1.49227 0
M  V30 3892 O 378.532 -0.884468 -1.66461 0
M  V30 3893 C 375.659 -1.92194 -2.78889 0
M  V30 3894 C 374.705 -3.14555 -2.88023 0
M  V30 3895 S 375.538 -4.72893 -2.51262 0
M  V30 3896 C 376.694 -4.8849 -3.91317 0
M  V30 3897 H 376.927 -2.72256 -1.19432 0
M  V30 3898 H 374.46 -1.45746 -0.509654 0
M  V30 3899 H 376.418 -2.00182 -3.58382 0
M  V30 3900 H 375.079 -1.00414 -2.97617 0
M  V30 3901 H 374.272 -3.20193 -3.89221 0
M  V30 3902 H 373.874 -3.04955 -2.16514 0
M  V30 3903 H 376.166 -4.71826 -4.86196 0
M  V30 3904 H 377.109 -5.90588 -3.90656 0
M  V30 3905 H 377.517 -4.16715 -3.80801 0
M  V30 3906 N 376.915 0.57481 -1.46744 0
M  V30 3907 C 377.825 1.711 -1.60505 0
M  V30 3908 C 378.841 1.67008 -0.488307 0
M  V30 3909 O 380.017 1.86774 -0.753495 0
M  V30 3910 C 377.082 3.07608 -1.59932 0
M  V30 3911 C 376.143 3.22904 -2.82898 0
M  V30 3912 C 375.376 4.529 -2.82343 0
M  V30 3913 O 375.599 5.37278 -1.91542 0
M  V30 3914 O 374.533 4.71611 -3.73987 0
M  V30 3915 H 378.359 1.62436 -2.56609 0
M  V30 3916 H 375.944 0.742779 -1.29627 0
M  V30 3917 H 377.826 3.88877 -1.62336 0
M  V30 3918 H 376.501 3.16692 -0.669898 0
M  V30 3919 H 375.408 2.41099 -2.86046 0
M  V30 3920 H 376.741 3.18715 -3.75076 0
M  V30 3921 N 378.394 1.34581 0.820102 0
M  V30 3922 C 379.327 1.20735 1.93644 0
M  V30 3923 C 380.305 0.0983343 1.62302 0
M  V30 3924 O 381.489 0.263997 1.86642 0
M  V30 3925 C 378.616 0.856037 3.27704 0
M  V30 3926 C 377.662 1.97521 3.78005 0
M  V30 3927 S 378.495 3.58906 3.97425 0
M  V30 3928 C 379.651 3.25822 5.34407 0
M  V30 3929 H 379.884 2.15231 2.05093 0
M  V30 3930 H 377.417 1.1964 0.97599 0
M  V30 3931 H 379.375 0.660133 4.05157 0
M  V30 3932 H 378.036 -0.0706253 3.14021 0
M  V30 3933 H 377.229 1.68321 4.75062 0
M  V30 3934 H 376.831 2.12875 3.07507 0
M  V30 3935 H 379.123 2.77812 6.17922 0
M  V30 3936 H 380.066 4.22029 5.68592 0
M  V30 3937 H 380.474 2.61932 5.00052 0
M  V30 3938 N 379.872 -1.04064 1.18357 0
M  V30 3939 C 380.802 -2.14001 0.934113 0
M  V30 3940 C 381.783 -1.69616 -0.128186 0
M  V30 3941 O 382.968 -1.94185 0.0244093 0
M  V30 3942 C 380.098 -3.44253 0.459066 0
M  V30 3943 C 379.052 -4.02261 1.46185 0
M  V30 3944 C 378.378 -5.27992 0.844322 0
M  V30 3945 C 379.678 -4.38432 2.83856 0
M  V30 3946 H 381.372 -2.35127 1.85352 0
M  V30 3947 H 378.918 -1.12998 0.892604 0
M  V30 3948 H 380.871 -4.20522 0.271907 0
M  V30 3949 H 379.595 -3.22813 -0.495912 0
M  V30 3950 H 378.254 -3.28074 1.63595 0
M  V30 3951 H 377.902 -5.02862 -0.117845 0
M  V30 3952 H 377.602 -5.67765 1.51384 0
M  V30 3953 H 379.126 -6.06938 0.667693 0
M  V30 3954 H 380.54 -5.05688 2.70098 0
M  V30 3955 H 378.937 -4.89254 3.47491 0
M  V30 3956 H 380.007 -3.4826 3.37406 0
M  V30 3957 N 381.35 -0.985608 -1.22978 0
M  V30 3958 C 382.313 -0.535071 -2.22867 0
M  V30 3959 C 383.313 0.378123 -1.56291 0
M  V30 3960 O 384.503 0.171092 -1.73358 0
M  V30 3961 C 381.635 0.222702 -3.40172 0
M  V30 3962 H 382.828 -1.41835 -2.6424 0
M  V30 3963 H 380.381 -0.772042 -1.35901 0
M  V30 3964 H 381.116 1.12229 -3.04262 0
M  V30 3965 H 380.901 -0.43288 -3.89703 0
M  V30 3966 H 382.391 0.526335 -4.1427 0
M  V30 3967 N 382.828 1.3818 -0.7579 0
M  V30 3968 C 383.738 2.3421 -0.135247 0
M  V30 3969 C 384.754 1.59487 0.695683 0
M  V30 3970 O 385.93 1.91657 0.618832 0
M  V30 3971 C 382.995 3.3862 0.744139 0
M  V30 3972 C 382.056 4.2918 -0.101658 0
M  V30 3973 C 381.289 5.28603 0.735851 0
M  V30 3974 O 381.512 5.35166 1.97366 0
M  V30 3975 O 380.446 6.01707 0.152372 0
M  V30 3976 H 384.272 2.8916 -0.928436 0
M  V30 3977 H 381.857 1.40101 -0.518855 0
M  V30 3978 H 383.739 4.02539 1.2466 0
M  V30 3979 H 382.414 2.86019 1.51575 0
M  V30 3980 H 381.321 3.68407 -0.650167 0
M  V30 3981 H 382.654 4.85048 -0.836024 0
M  V30 3982 N 384.306 0.507319 1.49211 0
M  V30 3983 C 385.269 -0.256763 2.27757 0
M  V30 3984 C 386.269 -0.888287 1.34038 0
M  V30 3985 O 387.459 -0.751841 1.5714 0
M  V30 3986 C 384.591 -1.36905 3.12202 0
M  V30 3987 H 385.784 0.432557 2.96764 0
M  V30 3988 H 383.337 0.262488 1.5408 0
M  V30 3989 H 384.072 -2.09233 2.47775 0
M  V30 3990 H 383.857 -0.921599 3.81115 0
M  V30 3991 H 385.347 -1.9071 3.7151 0
M  V30 3992 N 385.784 -1.5574 0.241426 0
M  V30 3993 C 386.716 -2.18469 -0.693091 0
M  V30 3994 C 387.729 -1.15942 -1.14286 0
M  V30 3995 O 388.918 -1.42832 -1.07058 0
M  V30 3996 C 386.018 -2.7696 -1.95311 0
M  V30 3997 C 385.191 -4.04853 -1.65568 0
M  V30 3998 C 384.25 -4.47715 -2.76474 0
M  V30 3999 O 383.276 -5.14205 -2.44094 0
M  V30 4000 N 384.478 -4.15044 -4.05855 0
M  V30 4001 H 387.243 -2.99292 -0.156388 0
M  V30 4002 H 384.804 -1.61784 0.0611752 0
M  V30 4003 H 386.796 -3.02594 -2.68736 0
M  V30 4004 H 385.366 -2.00326 -2.39975 0
M  V30 4005 H 384.586 -3.86865 -0.756886 0
M  V30 4006 H 385.874 -4.88246 -1.43153 0
M  V30 4007 H 385.272 -3.61654 -4.34998 0
M  V30 4008 H 383.829 -4.45526 -4.75762 0
M  V30 4009 N 387.262 0.0317525 -1.57568 0
M  V30 4010 C 388.511 0.722131 -1.8833 0
M  V30 4011 C 388.824 1.76664 -0.839587 0
M  V30 4012 O 390.03 2.50942 -1.03635 0
M  V30 4013 C 388.486 1.33544 -3.34207 0
M  V30 4014 C 388.094 0.327415 -4.46802 0
M  V30 4015 C 389.838 2.00585 -3.7412 0
M  V30 4016 C 387.745 0.948915 -5.83738 0
M  V30 4017 H 386.675 0.273466 -0.702661 0
M  V30 4018 H 389.326 -0.0235811 -1.83485 0
M  V30 4019 H 387.708 2.13077 -3.33788 0
M  V30 4020 H 388.882 -0.441006 -4.58685 0
M  V30 4021 H 387.197 -0.240758 -4.15703 0
M  V30 4022 H 389.794 2.47932 -4.73744 0
M  V30 4023 H 390.137 2.82285 -3.05975 0
M  V30 4024 H 390.67 1.27831 -3.76702 0
M  V30 4025 H 387.409 0.171387 -6.55276 0
M  V30 4026 H 386.929 1.68724 -5.7558 0
M  V30 4027 H 388.608 1.45705 -6.3038 0
M  V30 4028 N 388.74 1.54641 0.303973 0
M  V30 4029 C 389.989 1.7299 1.03717 0
M  V30 4030 C 390.302 0.521168 1.88529 0
M  V30 4031 O 391.508 0.586408 2.65092 0
M  V30 4032 C 389.964 3.06051 1.89369 0
M  V30 4033 C 389.572 4.34393 1.09574 0
M  V30 4034 C 391.316 3.3376 2.62306 0
M  V30 4035 C 389.223 5.58506 1.94486 0
M  V30 4036 H 388.153 0.64473 0.390947 0
M  V30 4037 H 390.804 1.81124 0.294328 0
M  V30 4038 H 389.186 2.91874 2.67629 0
M  V30 4039 H 390.36 4.59396 0.359485 0
M  V30 4040 H 388.675 4.13597 0.482324 0
M  V30 4041 H 391.272 4.23687 3.26181 0
M  V30 4042 H 391.615 2.52503 3.3098 0
M  V30 4043 H 392.148 3.48894 1.91097 0
M  V30 4044 H 388.887 6.42422 1.30287 0
M  V30 4045 H 388.407 5.37694 2.65792 0
M  V30 4046 H 390.086 5.95651 2.52605 0
M  V30 4047 N 390.218 -0.567019 1.47046 0
M  V30 4048 C 391.446 -1.35027 1.56765 0
M  V30 4049 C 391.861 -1.8758 0.214316 0
M  V30 4050 O 391.218 -1.64471 -0.790919 0
M  V30 4051 C 391.269 -2.52698 2.58507 0
M  V30 4052 O 390.99 -2.0232 3.88585 0
M  V30 4053 C 392.491 -3.45043 2.78316 0
M  V30 4054 H 389.711 -0.41195 0.529658 0
M  V30 4055 H 392.255 -0.687832 1.92585 0
M  V30 4056 H 390.41 -3.149 2.25648 0
M  V30 4057 H 390.824 -2.79068 4.44096 0
M  V30 4058 H 392.298 -4.2405 3.53391 0
M  V30 4059 H 392.775 -3.97971 1.85784 0
M  V30 4060 H 393.381 -2.88665 3.12334 0
M  V30 4061 N 391.696 -1.35014 -0.812953 0
M  V30 4062 C 392.921 -1.31187 -1.60639 0
M  V30 4063 C 393.346 0.109382 -1.87782 0
M  V30 4064 O 392.704 1.07424 -1.46047 0
M  V30 4065 C 392.752 -2.11809 -2.91838 0
M  V30 4066 O 391.856 -1.49444 -3.8437 0
M  V30 4067 H 391.197 -0.450084 -0.488181 0
M  V30 4068 H 393.727 -1.77963 -1.00947 0
M  V30 4069 H 393.737 -2.23531 -3.41318 0
M  V30 4070 H 392.412 -3.15137 -2.71407 0
M  V30 4071 H 390.989 -1.46524 -3.42907 0
M  V30 4072 N 393.175 1.03435 -1.18907 0
M  V30 4073 C 394.138 2.09756 -0.923844 0
M  V30 4074 C 395.138 1.60528 0.093416 0
M  V30 4075 O 396.328 1.73631 -0.140727 0
M  V30 4076 C 393.46 3.38692 -0.387354 0
M  V30 4077 H 394.653 2.34719 -1.86674 0
M  V30 4078 H 392.206 1.19959 -1.00197 0
M  V30 4079 H 392.941 3.19396 0.561845 0
M  V30 4080 H 392.726 3.75742 -1.12074 0
M  V30 4081 H 394.216 4.17016 -0.220694 0
M  V30 4082 N 394.653 0.992116 1.22453 0
M  V30 4083 C 395.563 0.55065 2.28046 0
M  V30 4084 C 396.579 -0.400189 1.69335 0
M  V30 4085 O 397.755 -0.267215 1.99619 0
M  V30 4086 C 394.82 -0.128496 3.46462 0
M  V30 4087 C 393.881 0.865208 4.20491 0
M  V30 4088 C 393.114 0.218377 5.33253 0
M  V30 4089 O 393.337 -0.987894 5.6178 0
M  V30 4090 O 392.271 0.922845 5.94783 0
M  V30 4091 H 396.097 1.4291 2.67975 0
M  V30 4092 H 393.682 0.760326 1.28606 0
M  V30 4093 H 395.564 -0.508947 4.18315 0
M  V30 4094 H 394.239 -0.981526 3.0846 0
M  V30 4095 H 393.146 1.29658 3.50913 0
M  V30 4096 H 394.479 1.68741 4.62371 0
M  V30 4097 N 396.131 -1.37776 0.765217 0
M  V30 4098 C 397.378 -1.99849 0.326588 0
M  V30 4099 C 397.706 -1.60746 -1.09504 0
M  V30 4100 O 396.961 -0.84202 -1.76659 0
M  V30 4101 C 397.26 -3.5504 0.410053 0
M  V30 4102 C 396.926 -4.13891 1.78899 0
M  V30 4103 C 395.588 -4.29678 2.16635 0
M  V30 4104 C 397.94 -4.46236 2.69301 0
M  V30 4105 C 395.268 -4.7511 3.44221 0
M  V30 4106 C 397.62 -4.93089 3.9629 0
M  V30 4107 C 396.284 -5.07082 4.34078 0
M  V30 4108 H 395.554 -0.7313 0.119507 0
M  V30 4109 H 398.201 -1.64645 0.977968 0
M  V30 4110 H 396.506 -3.90451 -0.324878 0
M  V30 4111 H 398.203 -4.00966 0.0520699 0
M  V30 4112 H 394.793 -4.02026 1.48569 0
M  V30 4113 H 398.977 -4.3363 2.41409 0
M  V30 4114 H 394.233 -4.84129 3.73402 0
M  V30 4115 H 398.407 -5.17084 4.66472 0
M  V30 4116 H 396.034 -5.42046 5.33001 0
M  V30 4117 N 397.609 -0.515225 -1.4894 0
M  V30 4118 C 398.855 0.0242508 -2.02785 0
M  V30 4119 C 399.188 1.35323 -1.39289 0
M  V30 4120 O 398.463 1.87041 -0.533469 0
M  V30 4121 C 398.746 0.16184 -3.59736 0
M  V30 4122 C 398.599 -1.19127 -4.33738 0
M  V30 4123 C 399.918 0.895719 -4.30888 0
M  V30 4124 H 397.037 0.00733914 -0.736963 0
M  V30 4125 H 399.679 -0.669395 -1.77818 0
M  V30 4126 H 397.829 0.752624 -3.8114 0
M  V30 4127 H 399.501 -1.82202 -4.23792 0
M  V30 4128 H 397.744 -1.77695 -3.95736 0
M  V30 4129 H 398.415 -1.04815 -5.41957 0
M  V30 4130 H 400.891 0.394528 -4.14225 0
M  V30 4131 H 399.767 0.960859 -5.40425 0
M  V30 4132 H 400.028 1.9427 -3.97129 0
M  V30 4133 N 399.087 1.5561 -0.249682 0
M  V30 4134 C 399.997 2.25143 0.659375 0
M  V30 4135 C 401.013 1.2685 1.19101 0
M  V30 4136 O 402.189 1.59732 1.22669 0
M  V30 4137 C 399.254 2.93945 1.8384 0
M  V30 4138 C 398.315 4.07655 1.34596 0
M  V30 4139 C 397.548 4.73167 2.46878 0
M  V30 4140 O 397.771 4.37768 3.65671 0
M  V30 4141 O 396.705 5.61623 2.16478 0
M  V30 4142 H 400.531 3.03545 0.0968698 0
M  V30 4143 H 398.116 1.49389 -0.018074 0
M  V30 4144 H 399.998 3.37271 2.52638 0
M  V30 4145 H 398.673 2.18481 2.38847 0
M  V30 4146 H 397.58 3.68839 0.625174 0
M  V30 4147 H 398.913 4.84946 0.841941 0
M  V30 4148 N 400.565 -0.0233959 1.57583 0
M  V30 4149 C 401.811 -0.714119 1.89811 0
M  V30 4150 C 402.144 -1.74702 0.848113 0
M  V30 4151 O 401.419 -1.94023 -0.136135 0
M  V30 4152 C 401.702 -1.37853 3.32669 0
M  V30 4153 C 401.555 -0.358764 4.48367 0
M  V30 4154 C 402.874 -2.31101 3.7454 0
M  V30 4155 H 399.993 -0.25814 0.690314 0
M  V30 4156 H 402.635 0.0230927 1.89986 0
M  V30 4157 H 400.785 -2.00689 3.3265 0
M  V30 4158 H 402.457 0.268115 4.6052 0
M  V30 4159 H 400.7 0.321387 4.32608 0
M  V30 4160 H 401.371 -0.862242 5.45224 0
M  V30 4161 H 403.847 -1.78304 3.75961 0
M  V30 4162 H 402.723 -2.74567 4.75294 0
M  V30 4163 H 402.984 -3.18018 3.0711 0
M  V30 4164 N 402.043 -1.548 -0.295768 0
M  V30 4165 C 402.991 -1.86874 -1.38495 0
M  V30 4166 C 403.985 -0.742938 -1.52239 0
M  V30 4167 O 405.191 -0.926999 -1.54294 0
M  V30 4168 H 401.566 -0.592786 -0.462719 0
M  V30 4169 H 403.537 -2.77904 -1.08682 0
M  V30 4170 C 402.286 -2.13732 -2.74252 0
M  V30 4171 H 401.609 -2.99835 -2.64459 0
M  V30 4172 H 403.049 -2.4011 -3.49461 0
M  V30 4173 C 401.508 -0.937539 -3.23592 0
M  V30 4174 O 402.038 -0.160665 -4.01379 0
M  V30 4175 N 400.244 -0.741478 -2.80981 0
M  V30 4176 H 399.791 -1.37489 -2.1784 0
M  V30 4177 H 399.749 0.0597103 -3.14343 0
M  V30 4178 N 403.521 0.559213 -1.47345 0
M  V30 4179 C 404.932 1.14134 -1.47751 0
M  V30 4180 C 405.283 1.94834 -0.231103 0
M  V30 4181 O 404.408 2.05957 0.664137 0
M  V30 4182 C 405.003 2.07653 -2.67705 0
M  V30 4183 C 403.562 2.61141 -2.71076 0
M  V30 4184 C 402.709 1.3748 -2.40821 0
M  V30 4185 H 405.66 0.345917 -1.54884 0
M  V30 4186 H 405.681 2.91497 -2.44561 0
M  V30 4187 H 405.193 1.4889 -3.58404 0
M  V30 4188 H 403.294 3.23707 -1.84511 0
M  V30 4189 H 403.407 3.02272 -3.7171 0
M  V30 4190 H 401.771 1.68086 -1.91362 0
M  V30 4191 H 402.554 0.805135 -3.33725 0
M  V30 4192 N 404.999 1.35443 0.805782 0
M  V30 4193 C 406.248 1.28097 1.55801 0
M  V30 4194 C 406.561 -0.142428 1.95081 0
M  V30 4195 O 407.767 -0.33817 2.69386 0
M  V30 4196 C 406.223 2.24653 2.81174 0
M  V30 4197 C 405.831 3.72342 2.49129 0
M  V30 4198 C 407.575 2.2625 3.59181 0
M  V30 4199 C 405.482 4.60719 3.70799 0
M  V30 4200 H 404.412 0.475937 0.584808 0
M  V30 4201 H 407.063 1.60712 0.885661 0
M  V30 4202 H 405.445 1.85011 3.50124 0
M  V30 4203 H 406.619 4.20624 1.88181 0
M  V30 4204 H 404.934 3.73361 1.84366 0
M  V30 4205 H 407.531 2.89495 4.49552 0
M  V30 4206 H 407.874 1.26647 3.96568 0
M  V30 4207 H 408.407 2.64426 2.97193 0
M  V30 4208 H 405.146 5.61324 3.3852 0
M  V30 4209 H 404.666 4.17163 4.3097 0
M  V30 4210 H 406.345 4.76182 4.38018 0
M  V30 4211 N 406.477 -1.02803 1.19454 0
M  V30 4212 C 407.407 -2.12999 0.956758 0
M  V30 4213 C 408.388 -1.69743 -0.110188 0
M  V30 4214 O 409.573 -1.94148 0.0450038 0
M  V30 4215 C 406.703 -3.43746 0.495553 0
M  V30 4216 C 405.657 -4.00688 1.50443 0
M  V30 4217 C 404.983 -5.27067 0.900275 0
M  V30 4218 C 406.283 -4.35397 2.8849 0
M  V30 4219 H 407.977 -2.33148 1.87836 0
M  V30 4220 H 405.523 -1.12045 0.904539 0
M  V30 4221 H 407.476 -4.2021 0.316493 0
M  V30 4222 H 406.2 -3.23321 -0.461646 0
M  V30 4223 H 404.859 -3.2632 1.67065 0
M  V30 4224 H 404.507 -5.02959 -0.064503 0
M  V30 4225 H 404.207 -5.66127 1.57397 0
M  V30 4226 H 405.731 -6.06196 0.73203 0
M  V30 4227 H 407.145 -5.02795 2.75446 0
M  V30 4228 H 405.542 -4.85541 3.52661 0
M  V30 4229 H 406.612 -3.44662 3.41081 0
M  V30 4230 N 407.956 -0.998596 -1.21925 0
M  V30 4231 C 409.233 -0.593401 -1.86382 0
M  V30 4232 C 409.613 0.92916 -1.89552 0
M  V30 4233 O 408.961 1.81347 -1.39017 0
M  V30 4234 C 409.171 -1.22039 -3.26967 0
M  V30 4235 C 410.519 -1.32449 -4.03413 0
M  V30 4236 O 411.543 -1.17522 -3.36254 0
M  V30 4237 O 410.402 -1.56395 -5.23644 0
M  V30 4238 H 407.496 -0.202385 -0.801854 0
M  V30 4239 H 410.042 -1.09484 -1.29659 0
M  V30 4240 H 408.814 -2.26158 -3.19325 0
M  V30 4241 H 408.437 -0.704906 -3.91301 0
M  V30 4242 N 409.434 1.37368 -0.772513 0
M  V30 4243 C 410.344 2.34053 -0.160081 0
M  V30 4244 C 411.36 1.60216 0.678728 0
M  V30 4245 O 412.536 1.92303 0.59847 0
M  V30 4246 C 409.601 3.3939 0.708182 0
M  V30 4247 C 408.662 4.29048 -0.147172 0
M  V30 4248 C 407.895 5.29354 0.679744 0
M  V30 4249 O 408.118 5.3723 1.91678 0
M  V30 4250 O 407.052 6.01835 0.0885444 0
M  V30 4251 H 410.878 2.88159 -0.959053 0
M  V30 4252 H 408.463 1.39543 -0.533685 0
M  V30 4253 H 410.345 4.03839 1.20384 0
M  V30 4254 H 409.02 2.8761 1.48533 0
M  V30 4255 H 407.927 3.67697 -0.689205 0
M  V30 4256 H 409.26 4.84134 -0.887423 0
M  V30 4257 N 410.912 0.523116 1.48665 0
M  V30 4258 C 412.328 0.180511 1.58576 0
M  V30 4259 C 412.528 -1.31597 1.52592 0
M  V30 4260 O 411.584 -2.0937 1.4114 0
M  V30 4261 C 412.897 0.776949 2.90489 0
M  V30 4262 C 414.445 0.745058 3.04003 0
M  V30 4263 C 414.92 1.31995 4.38567 0
M  V30 4264 N 416.411 1.28162 4.45117 0
M  V30 4265 C 417.146 1.6964 5.47731 0
M  V30 4266 N 416.642 2.18816 6.57337 0
M  V30 4267 N 418.435 1.6092 5.38573 0
M  V30 4268 H 410.586 1.4958 1.50797 0
M  V30 4269 H 412.849 0.621772 0.715614 0
M  V30 4270 H 412.555 1.82732 3.00503 0
M  V30 4271 H 412.429 0.25007 3.7637 0
M  V30 4272 H 414.816 -0.296532 2.93606 0
M  V30 4273 H 414.897 1.30933 2.1975 0
M  V30 4274 H 414.541 2.36043 4.49718 0
M  V30 4275 H 414.471 0.731418 5.21496 0
M  V30 4276 H 416.962 0.92155 3.66491 0
M  V30 4277 H 417.275 2.48478 7.31764 0
M  V30 4278 H 415.62 2.22805 6.58318 0
M  V30 4279 H 418.811 1.22304 4.5184 0
M  V30 4280 H 418.984 1.93567 6.18414 0
M  V30 4281 N 412.39 -1.55475 0.257931 0
M  V30 4282 C 413.338 -2.23244 -0.653076 0
M  V30 4283 C 414.332 -1.22366 -1.17144 0
M  V30 4284 O 415.538 -1.40347 -1.12706 0
M  V30 4285 H 411.913 -0.716247 -0.229117 0
M  V30 4286 H 413.884 -2.98343 -0.0584788 0
M  V30 4287 C 412.633 -2.95401 -1.83395 0
M  V30 4288 H 411.956 -3.72802 -1.44424 0
M  V30 4289 H 413.396 -3.46165 -2.44838 0
M  V30 4290 C 411.855 -1.99895 -2.71189 0
M  V30 4291 O 412.385 -1.53909 -3.71046 0
M  V30 4292 N 410.591 -1.6676 -2.3799 0
M  V30 4293 H 410.138 -2.04352 -1.56837 0
M  V30 4294 H 410.096 -1.03127 -2.97005 0
M  V30 4295 N 413.868 0.0150385 -1.57593 0
M  V30 4296 C 414.815 1.01126 -2.07466 0
M  V30 4297 C 415.785 1.35064 -0.966794 0
M  V30 4298 O 416.97 1.4516 -1.23827 0
M  V30 4299 C 414.11 2.30276 -2.57035 0
M  V30 4300 C 413.223 2.02373 -3.81666 0
M  V30 4301 C 412.358 3.25496 -4.19793 0
M  V30 4302 C 411.397 2.93211 -5.37303 0
M  V30 4303 N 410.534 4.08826 -5.70794 0
M  V30 4304 H 415.374 0.57901 -2.92321 0
M  V30 4305 H 412.911 0.27426 -1.44521 0
M  V30 4306 H 414.869 3.05757 -2.83846 0
M  V30 4307 H 413.499 2.71197 -1.75077 0
M  V30 4308 H 412.551 1.17327 -3.61854 0
M  V30 4309 H 413.863 1.74567 -4.67256 0
M  V30 4310 H 413.017 4.09333 -4.47807 0
M  V30 4311 H 411.756 3.56428 -3.32882 0
M  V30 4312 H 410.761 2.07777 -5.09027 0
M  V30 4313 H 411.986 2.63542 -6.25877 0
M  V30 4314 H 409.932 4.39682 -4.86842 0
M  V30 4315 H 409.849 3.84491 -6.50924 0
M  V30 4316 H 411.117 4.93496 -6.03392 0
M  V30 4317 N 415.346 1.54954 0.287554 0
M  V30 4318 C 416.574 1.78881 1.03967 0
M  V30 4319 C 416.989 0.554894 1.80462 0
M  V30 4320 O 416.346 -0.475676 1.76192 0
M  V30 4321 C 416.397 3.00488 2.0097 0
M  V30 4322 O 416.118 4.19113 1.27577 0
M  V30 4323 C 417.619 3.36907 2.88112 0
M  V30 4324 H 414.839 0.596259 0.307761 0
M  V30 4325 H 417.383 2.01937 0.322749 0
M  V30 4326 H 415.538 2.79601 2.68145 0
M  V30 4327 H 415.952 4.87765 1.92835 0
M  V30 4328 H 417.426 4.25205 3.52001 0
M  V30 4329 H 417.903 2.55659 3.57121 0
M  V30 4330 H 418.509 3.60001 2.26449 0
M  V30 4331 N 416.824 -0.551391 1.4764 0
M  V30 4332 C 417.787 -1.64007 1.60107 0
M  V30 4333 C 418.787 -1.53601 0.47576 0
M  V30 4334 O 419.977 -1.57655 0.740988 0
M  V30 4335 C 417.109 -3.03569 1.55108 0
M  V30 4336 H 418.302 -1.543 2.57161 0
M  V30 4337 H 415.855 -0.771776 1.35917 0
M  V30 4338 H 416.59 -3.18804 0.594519 0
M  V30 4339 H 416.375 -3.12532 2.36783 0
M  V30 4340 H 417.865 -3.82762 1.66982 0
M  V30 4341 N 418.302 -1.35869 -0.798587 0
M  V30 4342 C 419.527 -1.32883 -1.59238 0
M  V30 4343 C 419.952 0.0894587 -1.87887 0
M  V30 4344 O 419.31 1.05869 -1.47178 0
M  V30 4345 C 419.358 -2.14892 -2.89575 0
M  V30 4346 O 418.462 -1.53512 -3.82763 0
M  V30 4347 H 417.803 -0.455236 -0.48338 0
M  V30 4348 H 420.333 -1.79024 -0.990539 0
M  V30 4349 H 420.343 -2.27139 -3.38928 0
M  V30 4350 H 419.018 -3.17998 -2.68049 0
M  V30 4351 H 417.595 -1.50153 -3.41334 0
M  V30 4352 N 419.78 1.02168 -1.19998 0
M  V30 4353 C 421.026 1.75945 -1.00852 0
M  V30 4354 C 421.359 1.88702 0.458828 0
M  V30 4355 O 420.634 1.40911 1.34069 0
M  V30 4356 C 420.917 3.18154 -1.68671 0
M  V30 4357 C 420.77 3.13224 -3.22817 0
M  V30 4358 C 422.089 4.16711 -1.41561 0
M  V30 4359 H 419.208 0.638673 -0.367785 0
M  V30 4360 H 421.85 1.19222 -1.4794 0
M  V30 4361 H 420 3.66586 -1.28636 0
M  V30 4362 H 421.672 2.72635 -3.72112 0
M  V30 4363 H 419.915 2.50751 -3.53986 0
M  V30 4364 H 420.586 4.13728 -3.65422 0
M  V30 4365 H 423.062 3.76913 -1.76284 0
M  V30 4366 H 421.938 5.14391 -1.91553 0
M  V30 4367 H 422.199 4.40774 -0.342193 0
M  V30 4368 N 421.258 1.00505 1.21394 0
M  V30 4369 C 422.221 0.570459 2.21987 0
M  V30 4370 C 423.221 -0.353211 1.56873 0
M  V30 4371 O 424.411 -0.14349 1.73608 0
M  V30 4372 C 421.543 -0.168555 3.40483 0
M  V30 4373 H 422.736 1.46021 2.6195 0
M  V30 4374 H 420.289 0.793565 1.34656 0
M  V30 4375 H 421.024 -1.07374 3.06009 0
M  V30 4376 H 420.809 0.494823 3.88965 0
M  V30 4377 H 422.299 -0.460362 4.15055 0
M  V30 4378 N 422.737 -1.36956 0.779787 0
M  V30 4379 C 423.983 -1.99787 0.348281 0
M  V30 4380 C 424.316 -1.61756 -1.07465 0
M  V30 4381 O 423.591 -0.867639 -1.74075 0
M  V30 4382 C 423.874 -3.56597 0.50104 0
M  V30 4383 C 423.727 -4.04513 1.96697 0
M  V30 4384 C 425.046 -4.40008 -0.0898097 0
M  V30 4385 H 422.165 -0.725796 0.128022 0
M  V30 4386 H 424.807 -1.62514 0.984331 0
M  V30 4387 H 422.957 -3.88479 -0.0404347 0
M  V30 4388 H 424.629 -3.83161 2.56876 0
M  V30 4389 H 422.872 -3.56408 2.47297 0
M  V30 4390 H 423.543 -5.1352 2.02486 0
M  V30 4391 H 426.019 -4.14431 0.372293 0
M  V30 4392 H 424.895 -5.4888 0.0471605 0
M  V30 4393 H 425.156 -4.26035 -1.18096 0
M  V30 4394 N 424.215 -0.530993 -1.48385 0
M  V30 4395 C 425.178 0.220497 -2.28137 0
M  V30 4396 C 426.178 0.866851 -1.35434 0
M  V30 4397 O 427.368 0.726746 -1.58316 0
M  V30 4398 C 424.5 1.31921 -3.1434 0
M  V30 4399 H 425.693 -0.479714 -2.96038 0
M  V30 4400 H 423.246 -0.286968 -1.53643 0
M  V30 4401 H 423.981 2.05264 -2.51072 0
M  V30 4402 H 423.766 0.86085 -3.82533 0
M  V30 4403 H 425.256 1.84776 -3.74497 0
M  V30 4404 N 425.693 1.55336 -0.266172 0
M  V30 4405 C 426.623 2.25146 0.618981 0
M  V30 4406 C 427.604 1.23845 1.16604 0
M  V30 4407 O 428.789 1.52544 1.20183 0
M  V30 4408 C 425.919 2.96572 1.80728 0
M  V30 4409 C 424.873 4.04726 1.39215 0
M  V30 4410 C 424.199 4.63678 2.66283 0
M  V30 4411 C 425.499 5.19407 0.548942 0
M  V30 4412 H 427.193 2.99377 0.0368116 0
M  V30 4413 H 424.739 1.43991 0.0162651 0
M  V30 4414 H 426.692 3.44116 2.43232 0
M  V30 4415 H 425.416 2.19861 2.41514 0
M  V30 4416 H 424.075 3.57979 0.790351 0
M  V30 4417 H 423.723 3.83646 3.25308 0
M  V30 4418 H 423.423 5.367 2.39222 0
M  V30 4419 H 424.947 5.13967 3.29651 0
M  V30 4420 H 426.361 5.63059 1.07876 0
M  V30 4421 H 424.758 5.98936 0.373593 0
M  V30 4422 H 425.828 4.8295 -0.434394 0
M  V30 4423 N 427.171 -0.0066808 1.57599 0
M  V30 4424 C 428.104 -1.03397 2.03431 0
M  V30 4425 C 429.082 -1.33872 0.922877 0
M  V30 4426 O 430.266 -1.4615 1.19048 0
M  V30 4427 C 427.393 -2.36325 2.42628 0
M  V30 4428 C 426.439 -2.21557 3.64438 0
M  V30 4429 S 427.272 -1.54789 5.12641 0
M  V30 4430 C 428.428 -2.8916 5.55101 0
M  V30 4431 H 428.661 -0.643687 2.90248 0
M  V30 4432 H 426.194 -0.217349 1.52863 0
M  V30 4433 H 428.152 -3.12759 2.65879 0
M  V30 4434 H 426.813 -2.72495 1.56222 0
M  V30 4435 H 426.006 -3.1974 3.89592 0
M  V30 4436 H 425.608 -1.53267 3.41153 0
M  V30 4437 H 427.9 -3.8547 5.57153 0
M  V30 4438 H 428.843 -2.68713 6.55133 0
M  V30 4439 H 429.251 -2.92762 4.82649 0
M  V30 4440 N 428.649 -1.55105 -0.279332 0
M  V30 4441 C 429.897 -1.75066 -1.00977 0
M  V30 4442 C 430.218 -0.551276 -1.87045 0
M  V30 4443 O 429.488 0.433984 -1.91032 0
M  V30 4444 H 428.068 -0.645578 -0.375816 0
M  V30 4445 H 430.73 -1.92497 -0.305089 0
M  V30 4446 H 429.826 -2.64894 -1.65038 0
M  V30 4447 N 430.127 0.543554 -1.4793 0
M  V30 4448 C 431.352 1.32995 -1.59145 0
M  V30 4449 C 431.777 1.86472 -0.246956 0
M  V30 4450 O 431.135 1.63696 0.779324 0
M  V30 4451 C 431.183 2.46623 -2.63077 0
M  V30 4452 O 430.287 3.49261 -2.19295 0
M  V30 4453 H 429.628 0.394472 -0.534124 0
M  V30 4454 H 432.158 0.655489 -1.93816 0
M  V30 4455 H 432.168 2.93001 -2.83926 0
M  V30 4456 H 430.843 2.07059 -3.60693 0
M  V30 4457 H 429.42 3.09094 -2.08603 0
M  V30 4458 N 431.605 1.3629 0.791371 0
M  V30 4459 C 432.535 1.33137 1.91825 0
M  V30 4460 C 433.516 0.203168 1.68882 0
M  V30 4461 O 434.701 0.400509 1.90025 0
M  V30 4462 C 431.831 1.11793 3.28816 0
M  V30 4463 C 430.785 2.21417 3.66277 0
M  V30 4464 C 430.111 1.85218 5.01596 0
M  V30 4465 C 431.411 3.63489 3.75064 0
M  V30 4466 H 433.105 2.2743 1.9472 0
M  V30 4467 H 430.651 1.09479 0.935437 0
M  V30 4468 H 432.604 1.08222 4.07266 0
M  V30 4469 H 431.328 0.139501 3.26302 0
M  V30 4470 H 429.987 2.2411 2.90121 0
M  V30 4471 H 429.635 0.859544 4.95602 0
M  V30 4472 H 429.335 2.58611 5.27631 0
M  V30 4473 H 430.859 1.832 5.82469 0
M  V30 4474 H 432.273 3.63034 4.43711 0
M  V30 4475 H 430.67 4.35771 4.12582 0
M  V30 4476 H 431.74 3.98536 2.76219 0
M  V30 4477 N 433.083 -1.0153 1.20538 0
M  V30 4478 C 434.33 -1.75149 1.01633 0
M  V30 4479 C 434.658 -1.89189 -0.451399 0
M  V30 4480 O 433.913 -1.41551 -1.35136 0
M  V30 4481 C 434.212 -3.17213 1.64654 0
M  V30 4482 C 433.878 -3.23146 3.14464 0
M  V30 4483 C 432.54 -3.24472 3.55347 0
M  V30 4484 C 434.892 -3.21207 4.10458 0
M  V30 4485 C 432.22 -3.21532 4.90748 0
M  V30 4486 C 434.572 -3.19808 5.45807 0
M  V30 4487 C 433.236 -3.19439 5.86102 0
M  V30 4488 H 432.506 -0.640914 0.3719 0
M  V30 4489 H 435.153 -1.19071 1.49981 0
M  V30 4490 H 433.458 -3.76457 1.08571 0
M  V30 4491 H 435.155 -3.72871 1.4754 0
M  V30 4492 H 431.745 -3.2285 2.81897 0
M  V30 4493 H 435.929 -3.19351 3.79906 0
M  V30 4494 H 431.185 -3.19578 5.21229 0
M  V30 4495 H 435.359 -3.1726 6.19935 0
M  V30 4496 H 432.986 -3.16915 6.90991 0
M  V30 4497 N 434.561 -1.01147 -1.20859 0
M  V30 4498 C 435.809 -0.696486 -1.89719 0
M  V30 4499 C 436.13 0.775788 -1.78904 0
M  V30 4500 O 435.4 1.55759 -1.18811 0
M  V30 4501 H 433.98 -0.254628 -0.702263 0
M  V30 4502 H 436.642 -1.28197 -1.46804 0
M  V30 4503 H 435.738 -0.975357 -2.96468 0
M  V30 4504 N 436.039 1.36541 -0.78704 0
M  V30 4505 C 436.949 2.3387 -0.184896 0
M  V30 4506 C 437.965 1.60927 0.661697 0
M  V30 4507 O 439.141 1.92927 0.57804 0
M  V30 4508 C 436.206 3.40122 0.672145 0
M  V30 4509 C 435.267 4.28867 -0.19267 0
M  V30 4510 C 434.5 5.30045 0.623561 0
M  V30 4511 O 434.723 5.39232 1.8597 0
M  V30 4512 O 433.657 6.01895 0.0247068 0
M  V30 4513 H 437.483 2.87126 -0.989562 0
M  V30 4514 H 435.068 1.38969 -0.548455 0
M  V30 4515 H 436.95 4.05093 1.16094 0
M  V30 4516 H 435.625 2.89169 1.45474 0
M  V30 4517 H 434.532 3.66945 -0.728166 0
M  V30 4518 H 435.865 4.83165 -0.938722 0
M  V30 4519 N 437.518 0.538854 1.48102 0
M  V30 4520 C 438.465 -0.219042 2.29758 0
M  V30 4521 C 439.435 -0.925562 1.37922 0
M  V30 4522 O 440.62 -0.924855 1.66886 0
M  V30 4523 C 437.76 -1.25452 3.2149 0
M  V30 4524 C 436.873 -0.555943 4.28408 0
M  V30 4525 C 436.008 -1.57512 5.0731 0
M  V30 4526 C 435.047 -0.860498 6.06021 0
M  V30 4527 N 434.184 -1.82564 6.77949 0
M  V30 4528 H 439.024 0.483449 2.94052 0
M  V30 4529 H 436.561 0.250247 1.44956 0
M  V30 4530 H 438.519 -1.86727 3.7308 0
M  V30 4531 H 437.149 -1.92528 2.591 0
M  V30 4532 H 436.201 0.170938 3.80016 0
M  V30 4533 H 437.513 0.00474616 4.988 0
M  V30 4534 H 436.667 -2.26191 5.62959 0
M  V30 4535 H 435.406 -2.16972 4.36778 0
M  V30 4536 H 434.411 -0.159686 5.49568 0
M  V30 4537 H 435.636 -0.271897 6.78555 0
M  V30 4538 H 433.582 -2.40915 6.10161 0
M  V30 4539 H 433.499 -1.31662 7.44447 0
M  V30 4540 H 434.767 -2.50414 7.38182 0
M  V30 4541 N 438.996 -1.55193 0.274407 0
M  V30 4542 C 439.926 -2.25471 -0.607032 0
M  V30 4543 C 440.907 -1.24461 -1.15946 0
M  V30 4544 O 442.092 -1.53179 -1.19373 0
M  V30 4545 C 439.222 -2.97526 -1.79153 0
M  V30 4546 C 438.176 -4.05459 -1.37067 0
M  V30 4547 C 437.502 -4.65084 -2.6382 0
M  V30 4548 C 438.802 -5.19691 -0.521389 0
M  V30 4549 H 440.496 -2.99393 -0.0209343 0
M  V30 4550 H 438.042 -1.43997 -0.00862866 0
M  V30 4551 H 439.995 -3.45402 -2.41404 0
M  V30 4552 H 438.719 -2.21138 -2.40344 0
M  V30 4553 H 437.378 -3.58393 -0.771355 0
M  V30 4554 H 437.026 -3.85365 -3.23268 0
M  V30 4555 H 436.726 -5.37961 -2.36372 0
M  V30 4556 H 438.25 -5.15708 -3.26921 0
M  V30 4557 H 439.664 -5.63623 -1.04889 0
M  V30 4558 H 438.061 -5.99126 -0.341825 0
M  V30 4559 H 439.131 -4.82713 0.46 0
M  V30 4560 N 440.474 -0.00167713 -1.576 0
M  V30 4561 C 441.407 1.02317 -2.03977 0
M  V30 4562 C 442.385 1.33381 -0.929963 0
M  V30 4563 O 443.569 1.45517 -1.19822 0
M  V30 4564 C 440.696 2.35035 -2.43878 0
M  V30 4565 C 439.742 2.19621 -3.65607 0
M  V30 4566 S 440.575 1.52068 -5.13455 0
M  V30 4567 C 441.731 2.86212 -5.56627 0
M  V30 4568 H 441.964 0.628285 -2.90585 0
M  V30 4569 H 439.497 0.209239 -1.52976 0
M  V30 4570 H 441.455 3.11345 -2.67534 0
M  V30 4571 H 440.116 2.71663 -1.57665 0
M  V30 4572 H 439.309 3.1767 -3.91282 0
M  V30 4573 H 438.911 1.51455 -3.41961 0
M  V30 4574 H 441.203 3.82509 -5.59189 0
M  V30 4575 H 442.146 2.65235 -6.56549 0
M  V30 4576 H 442.554 2.90199 -4.84195 0
M  V30 4577 O 441.991 1.60887 0.140552 0
M  V30 4578 H 442.682 1.77558 0.77413 0
M  V30 END ATOM
M  V30 BEGIN BOND
M  V30 END BOND
M  V30 END CTAB
M  END
$$$$
