drugbank_target|P53671 LIM domain kinase 2 (DB12010)
 OpenBabel12092121163D

  0  0  0     0  0            999 V3000
M  V30 BEGIN CTAB
M  V30 COUNTS 10092 10210 0 0 0
M  V30 BEGIN ATOM
M  V30 1 H -0.908 1.98254 -0.117106 0
M  V30 2 N 0 1.576 0 0
M  V30 3 C 0.933 2.03868 1.02534 0
M  V30 4 C 1.911 0.928543 1.3348 0
M  V30 5 O 3.095 1.19667 1.45644 0
M  V30 6 C 0.222 2.43627 2.35294 0
M  V30 7 C -0.732 3.65373 2.2001 0
M  V30 8 S 0.101 5.13292 1.52614 0
M  V30 9 C 1.257 5.56322 2.86805 0
M  V30 10 H 1.49 2.90518 0.631377 0
M  V30 11 H -0.977 1.52953 0.210867 0
M  V30 12 H 0.981 2.67203 3.11629 0
M  V30 13 H -0.358 1.57376 2.7183 0
M  V30 14 H -1.165 3.90944 3.18086 0
M  V30 15 H -1.563 3.418 1.51819 0
M  V30 16 H 0.729 5.58782 3.83104 0
M  V30 17 H 1.672 6.56266 2.65933 0
M  V30 18 H 2.08 4.83886 2.90714 0
M  V30 19 N 1.4781 -0.272755 1.55222 0
M  V30 20 C 2.7031 -1.02683 1.80197 0
M  V30 21 C 3.1281 -1.79142 0.573551 0
M  V30 22 O 2.4861 -1.74917 -0.476849 0
M  V30 23 C 2.5341 -1.9609 3.02624 0
M  V30 24 O 1.6381 -3.04863 2.77727 0
M  V30 25 H 0.9791 -0.293557 0.595584 0
M  V30 26 H 3.5091 -0.30159 2.02365 0
M  V30 27 H 3.5191 -2.38039 3.31363 0
M  V30 28 H 2.1941 -1.39851 3.91682 0
M  V30 29 H 0.7711 -2.67228 2.60084 0
M  V30 30 N 2.9562 -1.48159 -0.537278 0
M  V30 31 C 3.9192 -1.61665 -1.62472 0
M  V30 32 C 4.9192 -0.490395 -1.5314 0
M  V30 33 O 6.1092 -0.755998 -1.5694 0
M  V30 34 C 3.2412 -1.57997 -3.02076 0
M  V30 35 H 4.4342 -2.58621 -1.51839 0
M  V30 36 H 1.9872 -1.36647 -0.758771 0
M  V30 37 H 2.7222 -0.624913 -3.18222 0
M  V30 38 H 2.5072 -2.39755 -3.10258 0
M  V30 39 H 3.9972 -1.70627 -3.81151 0
M  V30 40 N 4.4343 0.785586 -1.36625 0
M  V30 41 C 5.3643 1.91259 -1.33949 0
M  V30 42 C 6.3453 1.68795 -0.210325 0
M  V30 43 O 7.5303 1.89854 -0.408561 0
M  V30 44 C 4.6603 3.28339 -1.13186 0
M  V30 45 C 3.6143 3.65335 -2.22967 0
M  V30 46 C 2.9403 5.00806 -1.87342 0
M  V30 47 C 4.2403 3.7352 -3.65075 0
M  V30 48 H 5.9343 1.93755 -2.28253 0
M  V30 49 H 3.4803 0.930788 -1.09874 0
M  V30 50 H 5.4333 4.06804 -1.09948 0
M  V30 51 H 4.1573 3.2624 -0.153332 0
M  V30 52 H 2.8163 2.89169 -2.25337 0
M  V30 53 H 2.4643 4.95233 -0.880545 0
M  V30 54 H 2.1643 5.26529 -2.60846 0
M  V30 55 H 3.6883 5.81687 -1.85667 0
M  V30 56 H 5.1023 4.42168 -3.64911 0
M  V30 57 H 3.4993 4.10731 -4.37516 0
M  V30 58 H 4.5693 2.74527 -3.99703 0
M  V30 59 N 5.9124 1.20967 1.01018 0
M  V30 60 C 6.8754 0.965918 2.07853 0
M  V30 61 C 7.8754 -0.0610545 1.60684 0
M  V30 62 O 9.0654 0.175681 1.73312 0
M  V30 63 C 6.1974 0.455513 3.37843 0
M  V30 64 H 7.3904 1.91365 2.3091 0
M  V30 65 H 4.9434 1.02594 1.17916 0
M  V30 66 H 5.6784 -0.497381 3.20463 0
M  V30 67 H 5.4634 1.19622 3.73407 0
M  V30 68 H 6.9534 0.304667 4.16487 0
M  V30 69 N 7.3905 -1.2043 1.01659 0
M  V30 70 C 8.6385 -1.89423 0.704522 0
M  V30 71 C 8.9595 -1.79231 -0.768197 0
M  V30 72 O 8.2295 -1.1947 -1.55254 0
M  V30 73 H 6.8095 -0.701178 0.257602 0
M  V30 74 H 9.4715 -1.4626 1.28818 0
M  V30 75 H 8.5675 -2.96052 0.987916 0
M  V30 76 N 8.8686 -0.792821 -1.36206 0
M  V30 77 C 9.7786 -0.194808 -2.3379 0
M  V30 78 C 10.7946 0.654869 -1.61206 0
M  V30 79 O 11.9706 0.569856 -1.9317 0
M  V30 80 C 9.0356 0.657721 -3.40404 0
M  V30 81 C 8.0966 -0.210849 -4.28782 0
M  V30 82 C 7.3296 0.601086 -5.30304 0
M  V30 83 O 7.5526 1.83682 -5.40016 0
M  V30 84 O 6.4866 -0.000808277 -6.019 0
M  V30 85 H 10.3126 -1.00172 -2.86704 0
M  V30 86 H 7.8976 -0.554341 -1.38735 0
M  V30 87 H 9.7796 1.14375 -4.05581 0
M  V30 88 H 8.4546 1.44247 -2.89784 0
M  V30 89 H 7.3616 -0.743714 -3.66633 0
M  V30 90 H 8.6946 -0.959195 -4.82763 0
M  V30 91 N 10.3467 1.47872 -0.545128 0
M  V30 92 C 11.6237 1.9554 0.0485222 0
M  V30 93 C 12.0037 1.4876 1.49779 0
M  V30 94 O 11.3517 0.720925 2.16829 0
M  V30 95 C 11.5617 3.48898 -0.084417 0
M  V30 96 C 12.9097 4.24547 0.0671239 0
M  V30 97 O 13.9337 3.56198 -0.0113649 0
M  V30 98 O 12.7927 5.45999 0.233882 0
M  V30 99 H 9.8867 0.823957 0.0708773 0
M  V30 100 H 12.4327 1.58327 -0.610798 0
M  V30 101 H 11.2047 3.75714 -1.09337 0
M  V30 102 H 10.8277 3.92845 0.613066 0
M  V30 103 N 11.8248 0.280983 1.55075 0
M  V30 104 C 13.0708 -0.33461 2.00021 0
M  V30 105 C 13.4038 -1.55063 1.16915 0
M  V30 106 O 12.6788 -1.93006 0.240646 0
M  V30 107 C 12.9618 -0.711007 3.53011 0
M  V30 108 C 12.8148 0.512766 4.46868 0
M  V30 109 C 14.1338 -1.54522 4.12081 0
M  V30 110 H 11.2528 -0.120147 0.727141 0
M  V30 111 H 13.8948 0.389097 1.85973 0
M  V30 112 H 12.0448 -1.32761 3.65112 0
M  V30 113 H 13.7168 1.15131 4.46702 0
M  V30 114 H 11.9598 1.14975 4.18286 0
M  V30 115 H 12.6308 0.205556 5.51617 0
M  V30 116 H 15.1068 -1.02442 4.03293 0
M  V30 117 H 13.9828 -1.77739 5.19327 0
M  V30 118 H 14.2438 -2.52813 3.62682 0
M  V30 119 N 13.3029 -1.57598 0.00835791 0
M  V30 120 C 14.5489 -1.92046 -0.670055 0
M  V30 121 C 14.9039 -0.88351 -1.70915 0
M  V30 122 O 14.1969 0.103223 -1.91322 0
M  V30 123 C 14.3909 -3.3101 -1.34787 0
M  V30 124 C 14.2199 -4.48126 -0.375945 0
M  V30 125 C 12.9899 -5.05297 0.0166914 0
M  V30 126 C 15.1879 -5.1303 0.361272 0
M  V30 127 N 13.1699 -6.05931 0.985952 0
M  V30 128 C 14.5409 -6.08571 1.18495 0
M  V30 129 C 16.5959 -4.9609 0.42421 0
M  V30 130 C 15.2989 -6.88996 2.06584 0
M  V30 131 C 17.3249 -5.77107 1.29236 0
M  V30 132 C 16.6869 -6.72248 2.10386 0
M  V30 133 H 12.7859 -0.75096 -0.218136 0
M  V30 134 H 15.3699 -1.94572 0.0706669 0
M  V30 135 H 13.5409 -3.29342 -2.05884 0
M  V30 136 H 15.2729 -3.52864 -1.98164 0
M  V30 137 H 12.0279 -4.72279 -0.353435 0
M  V30 138 H 12.4519 -6.60932 1.4662 0
M  V30 139 H 17.0939 -4.22378 -0.188915 0
M  V30 140 H 14.8119 -7.62028 2.6896 0
M  V30 141 H 18.3979 -5.66038 1.34508 0
M  V30 142 H 17.2779 -7.33846 2.76476 0
M  V30 143 N 14.781 0.264519 -1.55364 0
M  V30 144 C 16.197 0.61215 -1.47394 0
M  V30 145 C 16.397 1.89134 -0.695018 0
M  V30 146 O 15.453 2.51563 -0.217275 0
M  V30 147 C 16.766 0.731235 -2.91674 0
M  V30 148 C 18.314 0.82473 -3.01939 0
M  V30 149 C 18.789 0.975522 -4.4749 0
M  V30 150 N 20.28 1.04083 -4.51354 0
M  V30 151 C 21.015 1.17646 -5.61201 0
M  V30 152 N 20.511 1.27874 -6.80896 0
M  V30 153 N 22.304 1.20823 -5.48961 0
M  V30 154 H 14.455 -0.575456 -2.04456 0
M  V30 155 H 16.718 -0.196099 -0.927496 0
M  V30 156 H 16.424 -0.138392 -3.51428 0
M  V30 157 H 16.298 1.60883 -3.41169 0
M  V30 158 H 18.685 1.68482 -2.42276 0
M  V30 159 H 18.766 -0.0776479 -2.55682 0
M  V30 160 H 18.41 0.120058 -5.07758 0
M  V30 161 H 18.34 1.89268 -4.91412 0
M  V30 162 H 20.831 0.973846 -3.65136 0
M  V30 163 H 21.144 1.38081 -7.60364 0
M  V30 164 H 19.489 1.24863 -6.83692 0
M  V30 165 H 22.68 1.12469 -4.54388 0
M  V30 166 H 22.853 1.31049 -6.3461 0
M  V30 167 N 16.2591 1.48442 0.529413 0
M  V30 168 C 17.4991 1.58086 1.29569 0
M  V30 169 C 17.8631 0.249302 1.90375 0
M  V30 170 O 19.0641 0.220738 2.67892 0
M  V30 171 C 17.3351 2.68793 2.35552 0
M  V30 172 S 18.8941 2.98207 3.21898 0
M  V30 173 H 15.7121 0.557922 0.440732 0
M  V30 174 H 18.3141 1.85966 0.603059 0
M  V30 175 H 17.0181 3.64102 1.89363 0
M  V30 176 H 16.5491 2.42817 3.09522 0
M  V30 177 H 18.5641 2.37548 4.35644 0
M  V30 178 N 17.7372 -0.778329 1.37039 0
M  V30 179 C 19.1482 -1.35421 1.28523 0
M  V30 180 C 19.4992 -1.96075 -0.0700901 0
M  V30 181 O 18.6242 -1.93352 -0.971801 0
M  V30 182 C 19.2192 -2.46211 2.32735 0
M  V30 183 C 17.7782 -2.99585 2.27873 0
M  V30 184 C 16.9252 -1.72748 2.16918 0
M  V30 185 H 19.8762 -0.5791 1.47757 0
M  V30 186 H 19.8972 -3.2552 1.9702 0
M  V30 187 H 19.4092 -2.02036 3.31365 0
M  V30 188 H 17.5102 -3.48152 1.32745 0
M  V30 189 H 17.6232 -3.55646 3.21018 0
M  V30 190 H 15.9872 -1.95416 1.63354 0
M  V30 191 H 16.7702 -1.30686 3.17452 0
M  V30 192 N 19.2153 -1.21501 -1.00376 0
M  V30 193 C 20.4633 -1.03095 -1.73827 0
M  V30 194 C 20.7843 0.436341 -1.90055 0
M  V30 195 O 20.0543 1.31466 -1.45236 0
M  V30 196 H 18.6343 -0.378487 -0.644016 0
M  V30 197 H 21.2963 -1.52831 -1.20949 0
M  V30 198 H 20.3923 -1.49991 -2.73695 0
M  V30 199 N 20.6934 1.19889 -1.02296 0
M  V30 200 C 21.9334 1.91125 -0.724602 0
M  V30 201 C 22.2974 1.77464 0.732835 0
M  V30 202 O 23.4984 2.43241 1.144 0
M  V30 203 C 21.7694 3.38187 -1.15604 0
M  V30 204 S 23.3284 4.27702 -0.980621 0
M  V30 205 H 20.1464 0.66018 -0.263976 0
M  V30 206 H 22.7484 1.44978 -1.31155 0
M  V30 207 H 21.4524 3.45653 -2.21251 0
M  V30 208 H 20.9834 3.89363 -0.562131 0
M  V30 209 H 22.9984 4.96073 0.112225 0
M  V30 210 N 22.1715 0.800033 1.35784 0
M  V30 211 C 23.4195 0.376597 1.9856 0
M  V30 212 C 23.7405 -1.05812 1.63795 0
M  V30 213 O 23.0105 -1.73103 0.917171 0
M  V30 214 H 21.5905 0.136261 0.734467 0
M  V30 215 H 24.2525 1.02442 1.65806 0
M  V30 216 H 23.3485 0.477002 3.08433 0
M  V30 217 N 23.6496 -1.47581 0.552962 0
M  V30 218 C 24.9266 -1.95563 -0.0381515 0
M  V30 219 C 25.3066 -1.49552 -1.48988 0
M  V30 220 O 24.6546 -0.732414 -2.16444 0
M  V30 221 C 24.8646 -3.48848 0.102919 0
M  V30 222 C 26.2126 -4.24577 -0.0446082 0
M  V30 223 O 27.2366 -3.56187 0.0302548 0
M  V30 224 O 26.0956 -5.46116 -0.204923 0
M  V30 225 H 23.1896 -0.824321 -0.0665067 0
M  V30 226 H 25.7356 -1.58001 0.619186 0
M  V30 227 H 24.5076 -3.75129 1.11328 0
M  V30 228 H 24.1306 -3.93165 -0.592224 0
M  V30 229 N 25.1277 -0.289203 -1.54924 0
M  V30 230 C 26.0777 0.606939 -2.19773 0
M  V30 231 C 27.0617 1.10783 -1.16687 0
M  V30 232 O 28.2537 1.05057 -1.4245 0
M  V30 233 C 25.3827 1.78398 -2.93307 0
M  V30 234 C 24.4687 1.29961 -4.03697 0
M  V30 235 N 24.8597 0.532377 -5.0299 0
M  V30 236 C 23.1577 1.58136 -4.17024 0
M  V30 237 C 23.8587 0.275912 -5.81045 0
M  V30 238 N 22.8347 0.852365 -5.36876 0
M  V30 239 H 26.6367 0.0130779 -2.93897 0
M  V30 240 H 24.1507 -0.09341 -1.62131 0
M  V30 241 H 26.1477 2.43741 -3.38225 0
M  V30 242 H 24.8077 2.38166 -2.20697 0
M  V30 243 H 25.8187 0.17838 -5.17593 0
M  V30 244 H 22.4957 2.18738 -3.55612 0
M  V30 245 H 23.8857 -0.339502 -6.71042 0
M  V30 246 N 26.6058 1.57591 -0.0167156 0
M  V30 247 C 27.8548 1.90461 0.663877 0
M  V30 248 C 28.1678 0.893515 1.73999 0
M  V30 249 O 29.3738 1.11302 2.47637 0
M  V30 250 C 27.8298 3.38155 1.23204 0
M  V30 251 C 27.4378 4.47597 0.189866 0
M  V30 252 C 29.1818 3.80111 1.88986 0
M  V30 253 C 27.0888 5.86379 0.768964 0
M  V30 254 H 26.0188 0.710738 0.251729 0
M  V30 255 H 28.6698 1.83326 -0.0799926 0
M  V30 256 H 27.0518 3.40182 2.02712 0
M  V30 257 H 28.2258 4.57112 -0.581846 0
M  V30 258 H 26.5408 4.14766 -0.368475 0
M  V30 259 H 29.1378 4.81145 2.33247 0
M  V30 260 H 29.4808 3.14511 2.72743 0
M  V30 261 H 30.0138 3.80454 1.16187 0
M  V30 262 H 26.7528 6.55493 -0.0301957 0
M  V30 263 H 26.2728 5.80496 1.50945 0
M  V30 264 H 27.9518 6.34563 1.26251 0
M  V30 265 N 28.0839 -0.256276 1.55502 0
M  V30 266 C 29.0469 -1.30047 1.88734 0
M  V30 267 C 30.0469 -1.4154 0.763086 0
M  V30 268 O 31.2369 -1.40403 1.03115 0
M  V30 269 C 28.3689 -2.67953 2.10747 0
M  V30 270 H 29.5619 -1.01802 2.82093 0
M  V30 271 H 27.1149 -0.495134 1.4825 0
M  V30 272 H 27.8499 -3.01351 1.19825 0
M  V30 273 H 27.6349 -2.60993 2.92617 0
M  V30 274 H 29.1249 -3.43368 2.37673 0
M  V30 275 N 29.562 -1.4872 -0.521534 0
M  V30 276 C 30.973 -1.50607 -1.10337 0
M  V30 277 C 31.324 -0.280612 -1.94183 0
M  V30 278 O 30.449 0.611507 -2.0758 0
M  V30 279 C 31.044 -2.72903 -2.00772 0
M  V30 280 C 29.603 -2.77634 -2.54158 0
M  V30 281 C 28.75 -2.44241 -1.31307 0
M  V30 282 H 31.701 -1.55714 -0.306388 0
M  V30 283 H 31.722 -2.519 -2.85178 0
M  V30 284 H 31.234 -3.62077 -1.39721 0
M  V30 285 H 29.335 -1.92689 -3.18907 0
M  V30 286 H 29.448 -3.79283 -2.92714 0
M  V30 287 H 27.812 -1.95577 -1.63161 0
M  V30 288 H 28.595 -3.35666 -0.719943 0
M  V30 289 N 31.0401 0.771051 -1.3745 0
M  V30 290 C 32.2651 1.56529 -1.36065 0
M  V30 291 C 32.6901 1.88029 0.0515859 0
M  V30 292 O 32.0481 1.49282 1.02882 0
M  V30 293 C 32.0961 2.85187 -2.20683 0
M  V30 294 O 31.2001 3.79593 -1.61193 0
M  V30 295 H 30.5411 0.47411 -0.464883 0
M  V30 296 H 33.0711 0.954269 -1.80983 0
M  V30 297 H 33.0811 3.34283 -2.33921 0
M  V30 298 H 31.7561 2.61588 -3.23334 0
M  V30 299 H 30.3331 3.38239 -1.56999 0
M  V30 300 N 32.5182 1.22032 0.997298 0
M  V30 301 C 33.4502 0.944263 2.08845 0
M  V30 302 C 34.4632 -0.0754663 1.62625 0
M  V30 303 O 35.6522 0.157994 1.77799 0
M  V30 304 C 32.7522 0.397723 3.36558 0
M  V30 305 C 31.9252 1.47362 4.11829 0
M  V30 306 C 30.9842 0.934951 5.17827 0
M  V30 307 O 30.0102 1.62016 5.45655 0
M  V30 308 N 31.2122 -0.245895 5.79979 0
M  V30 309 H 33.9772 1.88363 2.33109 0
M  V30 310 H 31.5382 1.12661 1.16272 0
M  V30 311 H 33.5302 0.0227771 4.04694 0
M  V30 312 H 32.1002 -0.446646 3.09393 0
M  V30 313 H 31.3202 2.02208 3.38386 0
M  V30 314 H 32.6082 2.19764 4.58891 0
M  V30 315 H 32.0062 -0.819475 5.59733 0
M  V30 316 H 30.5632 -0.562272 6.4937 0
M  V30 317 N 33.9963 -1.19345 1.0293 0
M  V30 318 C 35.2453 -1.88363 0.721256 0
M  V30 319 C 35.5583 -1.80514 -0.753254 0
M  V30 320 O 36.7643 -2.44788 -1.17436 0
M  V30 321 C 35.2203 -3.37872 1.23978 0
M  V30 322 C 34.8283 -3.54278 2.74211 0
M  V30 323 C 36.5723 -4.12365 1.00775 0
M  V30 324 C 34.4793 -4.97682 3.19479 0
M  V30 325 H 33.4093 -0.705484 0.266098 0
M  V30 326 H 36.0603 -1.34928 1.24365 0
M  V30 327 H 34.4423 -3.90707 0.6453 0
M  V30 328 H 35.6163 -3.11769 3.39318 0
M  V30 329 H 33.9313 -2.93174 2.95699 0
M  V30 330 H 36.5283 -5.18119 1.32123 0
M  V30 331 H 36.8713 -4.16263 -0.0554308 0
M  V30 332 H 37.4043 -3.65668 1.56625 0
M  V30 333 H 34.1433 -4.98945 4.25128 0
M  V30 334 H 33.6633 -5.4095 2.591 0
M  V30 335 H 35.3423 -5.66337 3.12845 0
M  V30 336 N 35.4744 -0.807222 -1.35358 0
M  V30 337 C 36.7204 -0.397594 -1.99476 0
M  V30 338 C 37.0754 1.02405 -1.62883 0
M  V30 339 O 36.3684 1.70077 -0.882282 0
M  V30 340 C 36.5624 -0.519036 -3.53611 0
M  V30 341 C 36.3914 -1.95094 -4.05177 0
M  V30 342 C 35.1614 -2.57945 -4.34503 0
M  V30 343 C 37.3594 -2.91558 -4.23673 0
M  V30 344 N 35.3414 -3.92539 -4.72003 0
M  V30 345 C 36.7124 -4.11024 -4.64176 0
M  V30 346 C 38.7674 -2.88381 -4.05883 0
M  V30 347 C 37.4704 -5.27745 -4.88751 0
M  V30 348 C 39.4964 -4.04306 -4.31614 0
M  V30 349 C 38.8584 -5.22519 -4.72391 0
M  V30 350 H 34.9574 -0.193274 -0.75774 0
M  V30 351 H 37.5414 -1.0486 -1.6405 0
M  V30 352 H 35.7124 0.101979 -3.88266 0
M  V30 353 H 37.4444 -0.0839321 -4.04613 0
M  V30 354 H 34.1994 -2.09295 -4.24844 0
M  V30 355 H 34.6234 -4.61836 -4.95011 0
M  V30 356 H 39.2654 -1.98137 -3.73499 0
M  V30 357 H 36.9834 -6.1856 -5.20008 0
M  V30 358 H 40.5694 -4.03229 -4.19402 0
M  V30 359 H 39.4494 -6.1073 -4.91913 0
M  V30 360 N 36.9525 1.47285 -0.560781 0
M  V30 361 C 38.1825 2.06555 -0.0429638 0
M  V30 362 C 38.5905 1.41339 1.25777 0
M  V30 363 O 37.9335 0.505182 1.76617 0
M  V30 364 C 37.9955 3.58827 0.219887 0
M  V30 365 C 37.6595 4.46105 -0.991944 0
M  V30 366 C 38.6565 4.84 -1.89843 0
M  V30 367 C 36.3415 4.87567 -1.20762 0
M  V30 368 C 38.3355 5.6216 -3.00425 0
M  V30 369 C 36.0225 5.65491 -2.31653 0
M  V30 370 C 37.0205 6.02699 -3.21315 0
M  V30 371 O 36.7085 6.79052 -4.30283 0
M  V30 372 H 36.4405 0.674537 -0.0444468 0
M  V30 373 H 38.9945 1.90225 -0.774818 0
M  V30 374 H 37.2245 3.73383 1.00609 0
M  V30 375 H 38.9135 4.00103 0.683522 0
M  V30 376 H 39.6795 4.52564 -1.74387 0
M  V30 377 H 35.5585 4.5807 -0.518893 0
M  V30 378 H 39.1025 5.9112 -3.70436 0
M  V30 379 H 34.9995 5.9634 -2.47081 0
M  V30 380 H 35.7675 6.9745 -4.28376 0
M  V30 381 N 38.4306 0.297415 1.54768 0
M  V30 382 C 39.8466 -0.0560823 1.59501 0
M  V30 383 C 40.0466 -1.52725 1.31444 0
M  V30 384 O 39.1026 -2.27947 1.08611 0
M  V30 385 C 40.4156 0.338631 2.98787 0
M  V30 386 C 41.9636 0.287097 3.11681 0
M  V30 387 C 42.4386 0.656579 4.53269 0
M  V30 388 N 43.9296 0.608977 4.59179 0
M  V30 389 C 44.6646 0.867385 5.66802 0
M  V30 390 N 44.1606 1.19157 6.82476 0
M  V30 391 N 45.9536 0.794687 5.56454 0
M  V30 392 H 38.1046 1.25624 1.71267 0
M  V30 393 H 40.3676 0.509057 0.799728 0
M  V30 394 H 40.0736 1.36263 3.2423 0
M  V30 395 H 39.9476 -0.309508 3.75928 0
M  V30 396 H 42.3346 -0.727649 2.85988 0
M  V30 397 H 42.4156 0.969809 2.36703 0
M  V30 398 H 42.0596 1.66912 4.7969 0
M  V30 399 H 41.9896 -0.0481649 5.26578 0
M  V30 400 H 44.4806 0.369198 3.76092 0
M  V30 401 H 44.7936 1.37482 7.60473 0
M  V30 402 H 43.1386 1.22958 6.84037 0
M  V30 403 H 46.3296 0.541098 4.64962 0
M  V30 404 H 46.5026 0.999445 6.40246 0
M  V30 405 N 39.9087 -1.5758 0.0250728 0
M  V30 406 C 41.1367 -1.9593 -0.664747 0
M  V30 407 C 41.5517 -0.901352 -1.65895 0
M  V30 408 O 40.9087 0.117255 -1.82123 0
M  V30 409 C 40.9597 -3.34342 -1.37468 0
M  V30 410 O 40.6807 -4.36079 -0.420324 0
M  V30 411 C 42.1817 -3.873 -2.1567 0
M  V30 412 H 39.4017 -0.645405 -0.183557 0
M  V30 413 H 41.9457 -2.04329 0.0836372 0
M  V30 414 H 40.1007 -3.27175 -2.0745 0
M  V30 415 H 40.5147 -5.16297 -0.923991 0
M  V30 416 H 41.9887 -4.86504 -2.60803 0
M  V30 417 H 42.4657 -3.21331 -2.99405 0
M  V30 418 H 43.0717 -3.97723 -1.50654 0
M  V30 419 N 41.3868 0.248026 -1.55636 0
M  V30 420 C 42.6328 0.97767 -1.77678 0
M  V30 421 C 42.9658 1.85016 -0.590135 0
M  V30 422 O 42.2408 1.90095 0.411611 0
M  V30 423 C 42.5238 1.83914 -3.09593 0
M  V30 424 C 42.3768 0.99491 -4.38659 0
M  V30 425 C 43.6958 2.82183 -3.37729 0
M  V30 426 H 40.8148 0.354005 -0.646413 0
M  V30 427 H 43.4568 0.248253 -1.88371 0
M  V30 428 H 41.6068 2.46104 -3.00608 0
M  V30 429 H 43.2788 0.391789 -4.59633 0
M  V30 430 H 41.5218 0.299231 -4.32767 0
M  V30 431 H 42.1928 1.63145 -5.2734 0
M  V30 432 H 44.6688 2.30129 -3.4667 0
M  V30 433 H 43.5448 3.39582 -4.31249 0
M  V30 434 H 43.8058 3.58588 -2.58586 0
M  V30 435 N 42.8649 1.48995 0.513639 0
M  V30 436 C 43.8129 1.65199 1.63744 0
M  V30 437 C 44.8069 0.51809 1.61283 0
M  V30 438 O 46.0129 0.697335 1.65943 0
M  V30 439 H 42.3879 0.52069 0.542574 0
M  V30 440 H 44.3589 2.59552 1.47226 0
M  V30 441 C 43.1079 1.72409 3.01945 0
M  V30 442 H 42.4309 2.59029 3.04539 0
M  V30 443 H 43.8709 1.87785 3.80148 0
M  V30 444 C 42.3299 0.46618 3.33659 0
M  V30 445 O 42.8599 -0.413744 3.99564 0
M  V30 446 N 41.0659 0.332931 2.88687 0
M  V30 447 H 40.6129 1.04996 2.35231 0
M  V30 448 H 40.5709 -0.507665 3.10274 0
M  V30 449 N 44.343 -0.763751 1.37857 0
M  V30 450 C 45.253 -1.90817 1.36478 0
M  V30 451 C 46.269 -1.71997 0.263248 0
M  V30 452 O 47.445 -1.95095 0.499979 0
M  V30 453 C 44.51 -3.2605 1.17864 0
M  V30 454 C 43.571 -3.57467 2.3773 0
M  V30 455 C 42.804 -4.86249 2.19995 0
M  V30 456 O 43.027 -5.57884 1.18836 0
M  V30 457 O 41.961 -5.16911 3.08361 0
M  V30 458 H 45.787 -1.94933 2.32884 0
M  V30 459 H 43.372 -0.907619 1.1867 0
M  V30 460 H 45.254 -4.06924 1.09504 0
M  V30 461 H 43.929 -3.22769 0.245372 0
M  V30 462 H 42.836 -2.76796 2.51664 0
M  V30 463 H 44.169 -3.655 3.29652 0
M  V30 464 N 45.8211 -1.22559 -0.990812 0
M  V30 465 C 47.0491 -1.07779 -1.76611 0
M  V30 466 C 47.4641 0.371513 -1.85109 0
M  V30 467 O 46.8211 1.25737 -1.32274 0
M  V30 468 C 46.8721 -1.68512 -3.19822 0
M  V30 469 O 46.5931 -3.07774 -3.1178 0
M  V30 470 C 48.0941 -1.59035 -4.13791 0
M  V30 471 H 45.3141 -0.377729 -0.554583 0
M  V30 472 H 47.8581 -1.62195 -1.24551 0
M  V30 473 H 46.0131 -1.18154 -3.68942 0
M  V30 474 H 46.4271 -3.37062 -4.01858 0
M  V30 475 H 47.9011 -2.0625 -5.1202 0
M  V30 476 H 48.3781 -0.547273 -4.35777 0
M  V30 477 H 48.9841 -2.08709 -3.70568 0
M  V30 478 N 47.2992 1.18797 -1.03562 0
M  V30 479 C 48.5452 1.89192 -0.746867 0
M  V30 480 C 48.9002 1.78531 0.717245 0
M  V30 481 O 48.1932 1.17137 1.51622 0
M  V30 482 C 48.3872 3.38692 -1.14117 0
M  V30 483 C 48.2162 3.63902 -2.64207 0
M  V30 484 C 46.9862 3.81553 -3.31279 0
M  V30 485 C 49.1842 3.64903 -3.62423 0
M  V30 486 N 47.1662 3.94455 -4.70402 0
M  V30 487 C 48.5372 3.83458 -4.87196 0
M  V30 488 C 50.5922 3.47965 -3.56125 0
M  V30 489 C 49.2952 3.86829 -6.06429 0
M  V30 490 C 51.3212 3.52616 -4.7478 0
M  V30 491 C 50.6832 3.71663 -5.9837 0
M  V30 492 H 46.7822 0.711141 -0.325273 0
M  V30 493 H 49.3662 1.42727 -1.32428 0
M  V30 494 H 47.5372 3.83864 -0.591889 0
M  V30 495 H 49.2692 3.96634 -0.803966 0
M  V30 496 H 46.0242 3.80723 -2.81686 0
M  V30 497 H 46.4482 4.0474 -5.42692 0
M  V30 498 H 51.0902 3.32189 -2.61553 0
M  V30 499 H 48.8082 4.01395 -7.01362 0
M  V30 500 H 52.3942 3.40791 -4.71543 0
M  V30 501 H 51.2742 3.75145 -6.88648 0
M  V30 502 N 48.7773 0.814389 1.34928 0
M  V30 503 C 49.7273 0.202752 2.27097 0
M  V30 504 C 50.7113 -0.62799 1.48139 0
M  V30 505 O 51.9033 -0.483969 1.70255 0
M  V30 506 C 49.0323 -0.64146 3.37254 0
M  V30 507 C 48.1183 0.19944 4.23631 0
M  V30 508 N 48.5093 1.26628 4.89693 0
M  V30 509 C 46.8073 -0.0176433 4.45997 0
M  V30 510 C 47.5083 1.78031 5.53787 0
M  V30 511 N 46.4843 1.08553 5.32651 0
M  V30 512 H 50.2863 1.01893 2.75672 0
M  V30 513 H 47.8003 0.656332 1.48546 0
M  V30 514 H 49.7973 -1.09575 4.02243 0
M  V30 515 H 48.4573 -1.4559 2.9023 0
M  V30 516 H 49.4683 1.64901 4.90946 0
M  V30 517 H 46.1453 -0.800601 4.09752 0
M  V30 518 H 47.5353 2.67236 6.16469 0
M  V30 519 N 50.2554 -1.46986 0.568584 0
M  V30 520 C 51.5034 -2.02041 0.0487022 0
M  V30 521 C 51.8244 -1.44408 -1.31039 0
M  V30 522 O 51.0944 -0.623477 -1.85714 0
M  V30 523 H 49.6744 -0.746849 0.015014 0
M  V30 524 H 52.3364 -1.80257 0.741168 0
M  V30 525 H 51.4324 -3.12085 -0.0308961 0
M  V30 526 N 51.7335 -0.305618 -1.54608 0
M  V30 527 C 52.9585 0.307562 -2.05107 0
M  V30 528 C 53.3835 1.46385 -1.18123 0
M  V30 529 O 52.7415 1.8034 -0.186324 0
M  V30 530 C 52.7895 0.73704 -3.52987 0
M  V30 531 O 51.8935 1.84134 -3.6901 0
M  V30 532 H 51.2345 0.0589143 -0.661381 0
M  V30 533 H 53.7645 -0.448807 -1.99617 0
M  V30 534 H 53.7745 1.02459 -3.94925 0
M  V30 535 H 52.4495 -0.108773 -4.15758 0
M  V30 536 H 51.0265 1.55398 -3.38978 0
M  V30 537 N 53.2116 1.57565 -0.0334293 0
M  V30 538 C 54.4516 1.93844 0.648379 0
M  V30 539 C 54.8156 0.910387 1.69044 0
M  V30 540 O 56.0166 1.15952 2.42505 0
M  V30 541 C 54.2876 3.35017 1.24492 0
M  V30 542 S 55.8466 3.93229 1.94721 0
M  V30 543 H 52.6646 0.678231 0.213364 0
M  V30 544 H 55.2666 1.95254 -0.0981253 0
M  V30 545 H 53.9706 4.07652 0.474128 0
M  V30 546 H 53.5016 3.37061 2.02864 0
M  V30 547 H 55.5166 3.77014 3.22606 0
M  V30 548 N 54.6897 -0.239769 1.55765 0
M  V30 549 C 55.9367 -0.966801 1.7793 0
M  V30 550 C 56.2647 -1.85046 0.599015 0
M  V30 551 O 55.5197 -1.91197 -0.417395 0
M  V30 552 C 55.8187 -1.852 3.05672 0
M  V30 553 C 55.4847 -1.1231 4.36689 0
M  V30 554 C 54.1467 -0.921689 4.72291 0
M  V30 555 C 56.4987 -0.607019 5.17653 0
M  V30 556 C 53.8267 -0.191996 5.86386 0
M  V30 557 C 56.1787 0.109241 6.32506 0
M  V30 558 C 54.8427 0.322073 6.66723 0
M  V30 559 H 54.1127 -0.353778 0.651093 0
M  V30 560 H 56.7597 -0.23634 1.90036 0
M  V30 561 H 55.0647 -2.64975 2.8861 0
M  V30 562 H 56.7617 -2.41635 3.20021 0
M  V30 563 H 53.3517 -1.29004 4.08725 0
M  V30 564 H 57.5357 -0.750153 4.90598 0
M  V30 565 H 52.7917 -0.0166949 6.11398 0
M  V30 566 H 56.9657 0.516737 6.9448 0
M  V30 567 H 54.5927 0.88944 7.54979 0
M  V30 568 N 56.1678 -1.49265 -0.50573 0
M  V30 569 C 57.5838 -1.35923 -0.836486 0
M  V30 570 C 57.7838 -0.388704 -1.97715 0
M  V30 571 O 56.8398 0.181336 -2.51848 0
M  V30 572 C 58.1528 -2.76531 -1.18115 0
M  V30 573 C 59.7008 -2.85197 -1.28964 0
M  V30 574 C 60.1758 -4.26561 -1.66761 0
M  V30 575 N 61.6668 -4.2935 -1.73819 0
M  V30 576 C 62.4018 -5.35693 -2.045 0
M  V30 577 N 61.8978 -6.52287 -2.33438 0
M  V30 578 N 63.6908 -5.23105 -2.05711 0
M  V30 579 H 55.8418 -2.10965 0.246519 0
M  V30 580 H 58.1048 -0.9468 0.0476887 0
M  V30 581 H 57.8108 -3.49226 -0.416398 0
M  V30 582 H 57.6848 -3.11599 -2.1257 0
M  V30 583 H 60.0718 -2.12742 -2.04511 0
M  V30 584 H 60.1528 -2.53718 -0.325704 0
M  V30 585 H 59.7968 -4.99541 -0.917656 0
M  V30 586 H 59.7268 -4.55502 -2.64246 0
M  V30 587 H 62.2178 -3.4526 -1.53635 0
M  V30 588 H 62.5308 -7.29158 -2.56024 0
M  V30 589 H 60.8758 -6.55521 -2.30905 0
M  V30 590 H 64.0668 -4.31026 -1.82577 0
M  V30 591 H 64.2398 -6.06078 -2.29289 0
M  V30 592 N 57.6459 0.756429 -1.3826 0
M  V30 593 C 58.8859 1.52833 -1.35725 0
M  V30 594 C 59.2499 1.91926 0.0534106 0
M  V30 595 O 60.4509 2.68028 0.203613 0
M  V30 596 C 58.7219 2.74919 -2.28373 0
M  V30 597 S 60.2809 3.64817 -2.43832 0
M  V30 598 H 57.0989 0.523043 -0.481608 0
M  V30 599 H 59.7009 0.888212 -1.74158 0
M  V30 600 H 58.4049 2.44304 -3.29763 0
M  V30 601 H 57.9359 3.43878 -1.91079 0
M  V30 602 H 59.9509 4.676 -1.66027 0
M  V30 603 N 59.124 1.23083 0.984299 0
M  V30 604 C 60.349 1.088 1.76571 0
M  V30 605 C 60.774 -0.356657 1.84688 0
M  V30 606 O 60.132 -1.25788 1.30565 0
M  V30 607 C 60.18 1.71371 3.17277 0
M  V30 608 O 59.284 0.973213 4.00752 0
M  V30 609 H 58.625 0.381599 0.543395 0
M  V30 610 H 61.155 1.63057 1.23587 0
M  V30 611 H 61.165 1.76449 3.67872 0
M  V30 612 H 59.84 2.76493 3.10684 0
M  V30 613 H 58.417 0.999078 3.59267 0
M  V30 614 N 60.6021 -1.18246 1.0419 0
M  V30 615 C 61.5121 -2.25574 0.644476 0
M  V30 616 C 62.5281 -1.70845 -0.329826 0
M  V30 617 O 63.7041 -2.00554 -0.184443 0
M  V30 618 C 60.7691 -3.46697 0.014877 0
M  V30 619 C 59.8301 -4.16554 1.03834 0
M  V30 620 C 59.0631 -5.31894 0.438692 0
M  V30 621 O 59.2861 -5.65385 -0.754752 0
M  V30 622 O 58.2201 -5.90459 1.168 0
M  V30 623 H 62.0461 -2.61836 1.53869 0
M  V30 624 H 59.6311 -1.25352 0.812854 0
M  V30 625 H 61.5131 -4.20062 -0.335538 0
M  V30 626 H 60.1881 -3.12255 -0.853138 0
M  V30 627 H 59.0951 -3.45251 1.44057 0
M  V30 628 H 60.4281 -4.54998 1.87716 0
M  V30 629 N 62.0802 -0.821533 -1.34494 0
M  V30 630 C 63.3202 -0.414785 -2.00147 0
M  V30 631 C 63.6842 1.00299 -1.6372 0
M  V30 632 O 64.8852 1.51255 -2.22206 0
M  V30 633 C 63.1562 -0.609403 -3.52166 0
M  V30 634 S 64.7152 -0.295297 -4.37805 0
M  V30 635 H 61.5332 -0.15679 -0.693497 0
M  V30 636 H 64.1352 -1.06705 -1.63812 0
M  V30 637 H 62.8392 -1.64096 -3.76166 0
M  V30 638 H 62.3702 0.0576414 -3.93358 0
M  V30 639 H 64.3852 0.891531 -4.88125 0
M  V30 640 N 63.5583 1.46682 -0.576371 0
M  V30 641 C 64.4903 2.28341 0.198231 0
M  V30 642 C 65.5033 1.38141 0.861453 0
M  V30 643 O 66.6923 1.62797 0.732082 0
M  V30 644 C 63.7923 3.12986 1.29972 0
M  V30 645 C 62.9653 4.31271 0.729639 0
M  V30 646 C 62.0243 4.97363 1.71803 0
M  V30 647 O 61.0503 5.55156 1.25658 0
M  V30 648 N 62.2523 4.93796 3.05198 0
M  V30 649 H 65.0173 2.9546 -0.502324 0
M  V30 650 H 62.5783 1.56525 -0.413715 0
M  V30 651 H 64.5703 3.54066 1.96008 0
M  V30 652 H 63.1403 2.47984 1.90323 0
M  V30 653 H 62.3603 3.94052 -0.108012 0
M  V30 654 H 63.6483 5.07739 0.328438 0
M  V30 655 H 63.0463 4.48077 3.45317 0
M  V30 656 H 61.6033 5.38837 3.6674 0
M  V30 657 N 65.0364 0.313813 1.54444 0
M  V30 658 C 66.3134 -0.345447 1.92525 0
M  V30 659 C 66.6934 -1.70667 1.24242 0
M  V30 660 O 66.0414 -2.25273 0.382654 0
M  V30 661 C 66.2514 -0.44737 3.46121 0
M  V30 662 C 67.5994 -0.712238 4.18584 0
M  V30 663 O 68.6234 -0.530678 3.52225 0
M  V30 664 O 67.4824 -1.06183 5.36085 0
M  V30 665 H 64.5764 -0.195407 0.803583 0
M  V30 666 H 67.1224 0.362813 1.65776 0
M  V30 667 H 65.8944 0.509043 3.87975 0
M  V30 668 H 65.5174 -1.20359 3.78945 0
M  V30 669 N 66.5145 -1.57545 0.0417849 0
M  V30 670 C 67.7395 -1.97035 -0.647455 0
M  V30 671 C 68.1645 -0.918775 -1.64135 0
M  V30 672 O 67.5225 0.119006 -1.80909 0
M  V30 673 C 67.5705 -3.35609 -1.31905 0
M  V30 674 O 66.6745 -3.3287 -2.43457 0
M  V30 675 H 66.0155 -0.64211 -0.169086 0
M  V30 676 H 68.5455 -2.04318 0.107399 0
M  V30 677 H 68.5555 -3.72126 -1.67291 0
M  V30 678 H 67.2305 -4.11685 -0.590586 0
M  V30 679 H 65.8075 -3.08087 -2.10088 0
M  V30 680 N 67.9926 0.231505 -1.5589 0
M  V30 681 C 68.9226 1.29022 -1.94617 0
M  V30 682 C 69.9036 1.4941 -0.813067 0
M  V30 683 O 71.0886 1.6176 -1.07459 0
M  V30 684 C 68.2186 2.64199 -2.25424 0
M  V30 685 C 67.1726 2.58484 -3.41131 0
M  V30 686 C 66.4986 3.97599 -3.57518 0
M  V30 687 C 67.7986 2.1413 -4.76388 0
M  V30 688 H 69.4926 0.968563 -2.83301 0
M  V30 689 H 67.0386 0.464479 -1.36303 0
M  V30 690 H 68.9916 3.38413 -2.51107 0
M  V30 691 H 67.7156 2.98032 -1.33583 0
M  V30 692 H 66.3746 1.86727 -3.15481 0
M  V30 693 H 66.0226 4.28723 -2.6307 0
M  V30 694 H 65.7226 3.94659 -4.35337 0
M  V30 695 H 67.2466 4.7349 -3.85538 0
M  V30 696 H 68.6606 2.78083 -5.01341 0
M  V30 697 H 67.0576 2.2227 -5.57419 0
M  V30 698 H 68.1276 1.09331 -4.72414 0
M  V30 699 N 69.4707 1.49531 0.497807 0
M  V30 700 C 70.6987 1.62893 1.27567 0
M  V30 701 C 71.1137 0.301585 1.86376 0
M  V30 702 O 70.4707 -0.713335 1.67982 0
M  V30 703 C 70.5217 2.70013 2.40364 0
M  V30 704 O 70.2427 3.976 1.83972 0
M  V30 705 C 71.7437 2.94109 3.31685 0
M  V30 706 H 68.9637 0.548298 0.386794 0
M  V30 707 H 71.5077 1.95584 0.597245 0
M  V30 708 H 69.6627 2.40092 3.04031 0
M  V30 709 H 70.0767 4.56631 2.58047 0
M  V30 710 H 71.5507 3.72788 4.07104 0
M  V30 711 H 72.0277 2.04147 3.88871 0
M  V30 712 H 72.6337 3.2546 2.73781 0
M  V30 713 N 70.9488 -0.749086 1.3866 0
M  V30 714 C 71.8968 -1.88428 1.36373 0
M  V30 715 C 72.8908 -1.67561 0.248929 0
M  V30 716 O 74.0968 -1.75074 0.41821 0
M  V30 717 H 70.4718 -0.620023 0.42553 0
M  V30 718 H 72.4428 -1.87473 2.32156 0
M  V30 719 C 71.1918 -3.25961 1.21014 0
M  V30 720 H 70.5148 -3.42607 2.06059 0
M  V30 721 H 71.9548 -4.05625 1.23469 0
M  V30 722 C 70.4138 -3.36799 -0.0825941 0
M  V30 723 O 70.9438 -3.87517 -1.05797 0
M  V30 724 N 69.1498 -2.90258 -0.140939 0
M  V30 725 H 68.6968 -2.49174 0.653477 0
M  V30 726 H 68.6548 -2.97889 -1.00545 0
M  V30 727 N 72.4269 -1.23603 -0.977757 0
M  V30 728 C 73.6729 -1.08136 -1.72274 0
M  V30 729 C 74.0279 0.377453 -1.88661 0
M  V30 730 O 73.3209 1.27552 -1.42972 0
M  V30 731 C 73.5149 -1.7433 -3.11999 0
M  V30 732 C 73.3439 -3.26498 -3.0924 0
M  V30 733 C 72.1139 -3.9567 -3.14282 0
M  V30 734 C 74.3119 -4.2323 -2.92201 0
M  V30 735 N 72.2939 -5.34799 -3.01436 0
M  V30 736 C 73.6649 -5.49289 -2.87544 0
M  V30 737 C 75.7199 -4.13931 -2.76705 0
M  V30 738 C 74.4229 -6.67116 -2.68978 0
M  V30 739 C 76.4489 -5.31424 -2.59504 0
M  V30 740 C 75.8109 -6.5641 -2.55548 0
M  V30 741 H 71.9099 -0.450247 -0.639376 0
M  V30 742 H 74.4939 -1.5637 -1.16002 0
M  V30 743 H 72.6649 -1.28624 -3.66484 0
M  V30 744 H 74.3969 -1.51815 -3.75146 0
M  V30 745 H 71.1519 -3.46767 -3.22567 0
M  V30 746 H 71.5759 -6.07748 -2.98281 0
M  V30 747 H 76.2179 -3.1807 -2.78552 0
M  V30 748 H 73.9359 -7.63109 -2.65876 0
M  V30 749 H 77.5219 -5.26072 -2.48474 0
M  V30 750 H 76.4019 -7.45795 -2.42405 0
M  V30 751 N 73.905 1.17692 -1.04816 0
M  V30 752 C 75.135 1.91508 -0.775128 0
M  V30 753 C 75.543 1.76844 0.67253 0
M  V30 754 O 74.886 1.10057 1.47082 0
M  V30 755 C 74.948 3.43167 -1.0713 0
M  V30 756 C 74.612 3.81612 -2.51438 0
M  V30 757 C 75.609 3.84772 -3.49638 0
M  V30 758 C 73.294 4.12687 -2.86348 0
M  V30 759 C 75.288 4.18469 -4.80794 0
M  V30 760 C 72.975 4.46053 -4.17708 0
M  V30 761 C 73.973 4.48921 -5.14741 0
M  V30 762 O 73.661 4.81504 -6.43746 0
M  V30 763 H 73.393 0.614575 -0.281555 0
M  V30 764 H 75.947 1.50206 -1.40098 0
M  V30 765 H 74.177 3.84745 -0.388342 0
M  V30 766 H 75.866 3.98239 -0.784883 0
M  V30 767 H 76.632 3.60893 -3.24008 0
M  V30 768 H 72.511 4.09627 -2.11486 0
M  V30 769 H 76.055 4.20623 -5.56527 0
M  V30 770 H 71.952 4.69393 -4.43103 0
M  V30 771 H 72.72 4.99377 -6.4851 0
M  V30 772 N 75.3831 0.828654 1.34056 0
M  V30 773 C 76.6131 0.431993 2.02033 0
M  V30 774 C 77.0211 -0.96844 1.62536 0
M  V30 775 O 76.3641 -1.6391 0.829408 0
M  V30 776 C 76.4261 0.461224 3.56529 0
M  V30 777 C 76.0901 1.81599 4.1937 0
M  V30 778 C 77.0871 2.7777 4.39477 0
M  V30 779 C 74.7721 2.10604 4.56017 0
M  V30 780 C 76.7661 4.01115 4.95364 0
M  V30 781 C 74.4531 3.34207 5.11614 0
M  V30 782 C 75.4511 4.2928 5.31232 0
M  V30 783 O 75.1391 5.50699 5.8565 0
M  V30 784 H 74.8711 0.170943 0.654029 0
M  V30 785 H 77.4251 1.11988 1.72185 0
M  V30 786 H 75.6551 -0.283388 3.8566 0
M  V30 787 H 77.3441 0.0838149 4.05813 0
M  V30 788 H 78.1101 2.56659 4.11523 0
M  V30 789 H 73.9891 1.37402 4.40047 0
M  V30 790 H 77.5331 4.75333 5.10592 0
M  V30 791 H 73.4301 3.55179 5.38997 0
M  V30 792 H 74.1981 5.52298 6.04077 0
M  V30 793 N 76.8612 -1.46375 0.584142 0
M  V30 794 C 77.7712 -2.34115 -0.150728 0
M  V30 795 C 78.7872 -1.49838 -0.884567 0
M  V30 796 O 79.9632 -1.82704 -0.847429 0
M  V30 797 C 77.0282 -3.2705 -1.15062 0
M  V30 798 C 76.0892 -4.27228 -0.421293 0
M  V30 799 C 75.3222 -5.15722 -1.37355 0
M  V30 800 O 75.5452 -5.07176 -2.61014 0
M  V30 801 O 74.4792 -5.95383 -0.883355 0
M  V30 802 H 78.3052 -2.98309 0.569708 0
M  V30 803 H 75.8902 -1.45373 0.344535 0
M  V30 804 H 77.7722 -3.84381 -1.72712 0
M  V30 805 H 76.4472 -2.65451 -1.8525 0
M  V30 806 H 75.3542 -3.7358 0.197085 0
M  V30 807 H 76.6872 -4.91616 0.239641 0
M  V30 808 N 78.3393 -0.321999 -1.54275 0
M  V30 809 C 79.2863 0.544664 -2.24281 0
M  V30 810 C 80.2563 1.1129 -1.23303 0
M  V30 811 O 81.4413 1.15354 -1.51981 0
M  V30 812 C 78.5813 1.70045 -3.00298 0
M  V30 813 C 77.6943 1.16159 -4.1609 0
M  V30 814 C 76.8293 2.28293 -4.79641 0
M  V30 815 C 75.8683 1.71648 -5.8754 0
M  V30 816 N 75.0053 2.77438 -6.44959 0
M  V30 817 H 79.8453 -0.0588907 -2.97942 0
M  V30 818 H 77.3823 -0.0408345 -1.47043 0
M  V30 819 H 79.3403 2.38054 -3.42616 0
M  V30 820 H 77.9703 2.27531 -2.28975 0
M  V30 821 H 77.0223 0.373092 -3.78566 0
M  V30 822 H 78.3343 0.707087 -4.93763 0
M  V30 823 H 77.4883 3.0421 -5.2492 0
M  V30 824 H 76.2273 2.77079 -4.01346 0
M  V30 825 H 75.2323 0.942282 -5.41665 0
M  V30 826 H 76.4573 1.23741 -6.67731 0
M  V30 827 H 74.4033 3.25519 -5.69538 0
M  V30 828 H 74.3203 2.36547 -7.1804 0
M  V30 829 H 75.5883 3.53189 -6.94894 0
M  V30 830 N 79.8174 1.5752 -0.0501392 0
M  V30 831 C 81.0944 1.83996 0.663685 0
M  V30 832 C 81.4744 0.938339 1.89099 0
M  V30 833 O 80.8224 -0.00087759 2.285 0
M  V30 834 C 81.0324 3.33702 1.02196 0
M  V30 835 C 82.3804 4.00691 1.40469 0
M  V30 836 O 83.4044 3.38321 1.11433 0
M  V30 837 O 82.2634 5.10658 1.94654 0
M  V30 838 H 79.3574 0.759385 0.32751 0
M  V30 839 H 81.9034 1.69514 -0.0794238 0
M  V30 840 H 80.6754 3.91015 0.149364 0
M  V30 841 H 80.2984 3.53368 1.82255 0
M  V30 842 N 81.2955 -0.223234 1.56011 0
M  V30 843 C 82.5435 -0.946003 1.78592 0
M  V30 844 C 82.8645 -1.84936 0.618349 0
M  V30 845 O 82.1345 -1.92473 -0.364833 0
M  V30 846 H 80.7145 -0.352298 0.658707 0
M  V30 847 H 83.3765 -0.235494 1.93472 0
M  V30 848 H 82.4725 -1.55381 2.70672 0
M  V30 849 N 82.7736 -1.49793 -0.48987 0
M  V30 850 C 83.7206 -1.67281 -1.59014 0
M  V30 851 C 84.6906 -0.514177 -1.57941 0
M  V30 852 O 85.8756 -0.742533 -1.75759 0
M  V30 853 C 83.0156 -1.75569 -2.97102 0
M  V30 854 C 82.1286 -3.0281 -3.08107 0
M  V30 855 C 81.2636 -3.02008 -4.36995 0
M  V30 856 C 80.3026 -4.23782 -4.41673 0
M  V30 857 N 79.4396 -4.20826 -5.62005 0
M  V30 858 H 84.2796 -2.61224 -1.43409 0
M  V30 859 H 81.8166 -1.29508 -0.697565 0
M  V30 860 H 83.7746 -1.78354 -3.77155 0
M  V30 861 H 82.4046 -0.850827 -3.11385 0
M  V30 862 H 81.4566 -3.09584 -2.21047 0
M  V30 863 H 82.7686 -3.92801 -3.07423 0
M  V30 864 H 81.9226 -3.03418 -5.25378 0
M  V30 865 H 80.6616 -2.09815 -4.4026 0
M  V30 866 H 79.6666 -4.22604 -3.5169 0
M  V30 867 H 80.8916 -5.17181 -4.40115 0
M  V30 868 H 78.8376 -3.31476 -5.66091 0
M  V30 869 H 78.7546 -5.04564 -5.62984 0
M  V30 870 H 80.0226 -4.26355 -6.52565 0
M  V30 871 N 84.2517 0.741722 -1.39055 0
M  V30 872 C 85.1817 1.869 -1.39966 0
M  V30 873 C 86.1627 1.6804 -0.26392 0
M  V30 874 O 87.3477 1.88458 -0.468755 0
M  V30 875 C 84.4777 3.24572 -1.23574 0
M  V30 876 C 83.4317 3.58056 -2.34477 0
M  V30 877 C 82.7577 4.94593 -2.0318 0
M  V30 878 C 84.0577 3.61716 -3.76774 0
M  V30 879 H 85.7517 1.86395 -2.34302 0
M  V30 880 H 83.2977 0.895361 -1.1278 0
M  V30 881 H 85.2507 4.031 -1.22834 0
M  V30 882 H 83.9747 3.25587 -0.257045 0
M  V30 883 H 82.6337 2.81854 -2.34423 0
M  V30 884 H 82.2817 4.92181 -1.03765 0
M  V30 885 H 81.9817 5.17964 -2.77465 0
M  V30 886 H 83.5057 5.75486 -2.04079 0
M  V30 887 H 84.9197 4.30335 -3.78794 0
M  V30 888 H 83.3167 3.96603 -4.50362 0
M  V30 889 H 84.3867 2.61672 -4.08235 0
M  V30 890 N 85.7298 1.2412 0.971189 0
M  V30 891 C 86.9598 1.10415 1.7462 0
M  V30 892 C 87.3678 -0.346462 1.86001 0
M  V30 893 O 86.7108 -1.25104 1.34517 0
M  V30 894 C 86.7728 1.66596 3.18568 0
M  V30 895 C 86.4368 3.15446 3.3067 0
M  V30 896 C 87.4338 4.12636 3.16271 0
M  V30 897 C 85.1188 3.55337 3.55022 0
M  V30 898 C 87.1128 5.47699 3.26044 0
M  V30 899 C 84.7998 4.90542 3.64434 0
M  V30 900 C 85.7978 5.86532 3.49956 0
M  V30 901 O 85.4858 7.19279 3.59017 0
M  V30 902 H 85.2178 0.386616 0.55453 0
M  V30 903 H 87.7718 1.64633 1.22821 0
M  V30 904 H 86.0018 1.06808 3.71657 0
M  V30 905 H 87.6908 1.48232 3.77865 0
M  V30 906 H 88.4568 3.8316 2.97344 0
M  V30 907 H 84.3358 2.8113 3.65359 0
M  V30 908 H 87.8798 6.22603 3.14661 0
M  V30 909 H 83.7768 5.19691 3.82873 0
M  V30 910 H 84.5448 7.27153 3.75754 0
M  V30 911 N 87.2079 -1.17134 1.05439 0
M  V30 912 C 88.4479 -1.89137 0.77502 0
M  V30 913 C 88.8119 -1.79345 -0.685526 0
M  V30 914 O 90.0129 -2.46188 -1.0791 0
M  V30 915 C 88.2839 -3.35003 1.2453 0
M  V30 916 S 89.8429 -4.24952 1.09367 0
M  V30 917 H 86.6609 -0.652949 0.281387 0
M  V30 918 H 89.2629 -1.4145 1.34953 0
M  V30 919 H 87.9669 -3.39666 2.30338 0
M  V30 920 H 87.4979 -3.87736 0.665166 0
M  V30 921 H 89.5129 -4.96196 0.0193397 0
M  V30 922 N 88.686 -0.835752 -1.33615 0
M  V30 923 C 90.097 -0.487099 -1.80234 0
M  V30 924 C 90.448 0.993627 -1.69179 0
M  V30 925 O 89.573 1.77403 -1.23924 0
M  V30 926 C 90.168 -0.877385 -3.27242 0
M  V30 927 C 88.727 -0.580915 -3.7189 0
M  V30 928 C 87.874 -1.0874 -2.5509 0
M  V30 929 H 90.825 -1.02474 -1.2118 0
M  V30 930 H 90.846 -0.186195 -3.80044 0
M  V30 931 H 90.358 -1.95512 -3.35256 0
M  V30 932 H 88.459 0.486881 -3.69405 0
M  V30 933 H 88.572 -1.13396 -4.65487 0
M  V30 934 H 86.936 -0.508392 -2.49575 0
M  V30 935 H 87.719 -2.17184 -2.65868 0
M  V30 936 N 90.1641 1.46063 -0.591896 0
M  V30 937 C 91.1111 2.30399 0.136069 0
M  V30 938 C 92.0811 1.41169 0.875238 0
M  V30 939 O 93.2661 1.70112 0.86409 0
M  V30 940 C 90.4061 3.25804 1.13781 0
M  V30 941 C 89.5191 4.30134 0.401137 0
M  V30 942 C 88.6541 5.12659 1.39121 0
M  V30 943 C 87.6931 6.0873 0.641462 0
M  V30 944 N 86.8301 6.8409 1.58004 0
M  V30 945 H 91.6701 2.92118 -0.589144 0
M  V30 946 H 89.2071 1.43959 -0.302342 0
M  V30 947 H 91.1651 3.79569 1.73156 0
M  V30 948 H 89.7951 2.65872 1.83062 0
M  V30 949 H 88.8471 3.79152 -0.307826 0
M  V30 950 H 90.1591 4.98458 -0.184565 0
M  V30 951 H 89.3131 5.70747 2.05749 0
M  V30 952 H 88.0521 4.44316 2.01084 0
M  V30 953 H 87.0571 5.49786 -0.0385419 0
M  V30 954 H 88.2821 6.79095 0.0270945 0
M  V30 955 H 86.2281 6.18449 2.18761 0
M  V30 956 H 86.1451 7.48709 1.04738 0
M  V30 957 H 87.4131 7.4673 2.23639 0
M  V30 958 N 91.6422 0.330177 1.54103 0
M  V30 959 C 92.9192 -0.325007 1.92881 0
M  V30 960 C 93.2992 -1.6934 1.26045 0
M  V30 961 O 92.6472 -2.24855 0.406526 0
M  V30 962 C 92.8572 -0.410634 3.46576 0
M  V30 963 C 94.2052 -0.667801 4.19316 0
M  V30 964 O 95.2292 -0.49329 3.52768 0
M  V30 965 O 94.0882 -1.00491 5.37181 0
M  V30 966 H 91.1822 -0.186873 0.80561 0
M  V30 967 H 93.7282 0.380376 1.65382 0
M  V30 968 H 92.5002 0.550164 3.87413 0
M  V30 969 H 92.1232 -1.16333 3.802 0
M  V30 970 N 93.1203 -1.57491 0.0584922 0
M  V30 971 C 94.3503 -1.9701 -0.622134 0
M  V30 972 C 94.7583 -0.935034 -1.6448 0
M  V30 973 O 94.1013 0.0882904 -1.83488 0
M  V30 974 C 94.1633 -3.32794 -1.35972 0
M  V30 975 C 93.8273 -4.54343 -0.492043 0
M  V30 976 C 94.8243 -5.19323 0.244901 0
M  V30 977 C 92.5093 -5.00534 -0.420821 0
M  V30 978 C 94.5033 -6.28835 1.04143 0
M  V30 979 C 92.1903 -6.09921 0.379389 0
M  V30 980 C 93.1883 -6.73933 1.10919 0
M  V30 981 O 92.8763 -7.81216 1.89623 0
M  V30 982 H 92.6083 -0.653127 -0.174359 0
M  V30 983 H 95.1623 -2.05029 0.123418 0
M  V30 984 H 93.3923 -3.21351 -2.15105 0
M  V30 985 H 95.0813 -3.5701 -1.93129 0
M  V30 986 H 95.8473 -4.8459 0.19939 0
M  V30 987 H 91.7263 -4.50496 -0.978474 0
M  V30 988 H 95.2703 -6.7873 1.61157 0
M  V30 989 H 91.1673 -6.44089 0.426512 0
M  V30 990 H 91.9353 -7.98029 1.81913 0
M  V30 991 N 94.5984 0.214957 -1.56127 0
M  V30 992 C 95.8444 0.935325 -1.80619 0
M  V30 993 C 96.1994 1.81706 -0.632507 0
M  V30 994 O 95.4924 1.87931 0.373182 0
M  V30 995 C 95.6864 1.80314 -3.0858 0
M  V30 996 C 95.5154 1.00691 -4.38282 0
M  V30 997 C 94.2854 0.699211 -5.00439 0
M  V30 998 C 96.4834 0.369057 -5.12974 0
M  V30 999 N 94.4654 -0.117734 -6.13787 0
M  V30 1000 C 95.8364 -0.310981 -6.1922 0
M  V30 1001 C 97.8914 0.282759 -4.97096 0
M  V30 1002 C 96.5944 -1.06907 -7.11311 0
M  V30 1003 C 98.6204 -0.461881 -5.89594 0
M  V30 1004 C 97.9824 -1.13044 -6.9527 0
M  V30 1005 H 94.0814 0.322307 -0.71249 0
M  V30 1006 H 96.6654 0.205649 -1.93611 0
M  V30 1007 H 94.8364 2.50458 -2.96859 0
M  V30 1008 H 96.5684 2.46148 -3.21237 0
M  V30 1009 H 93.3234 1.01884 -4.62511 0
M  V30 1010 H 93.7474 -0.515235 -6.75037 0
M  V30 1011 H 98.3894 0.785292 -4.15443 0
M  V30 1012 H 96.1074 -1.5831 -7.92442 0
M  V30 1013 H 99.6934 -0.529746 -5.79383 0
M  V30 1014 H 98.5734 -1.69742 -7.65609 0
M  V30 1015 N 96.0765 1.50051 0.48192 0
M  V30 1016 C 97.3245 1.60181 1.23234 0
M  V30 1017 C 97.6455 0.299176 1.92691 0
M  V30 1018 O 96.9155 -0.682708 1.83619 0
M  V30 1019 H 95.4955 0.590232 0.457859 0
M  V30 1020 H 98.1575 1.86775 0.556881 0
M  V30 1021 H 97.2535 2.40753 1.98607 0
M  V30 1022 N 97.5546 -0.734337 1.39446 0
M  V30 1023 C 98.5016 -1.84835 1.38219 0
M  V30 1024 C 99.4716 -1.64331 0.24179 0
M  V30 1025 O 100.657 -1.85728 0.437002 0
M  V30 1026 C 97.7966 -3.22355 1.23212 0
M  V30 1027 C 96.9096 -3.5456 2.46801 0
M  V30 1028 C 96.0446 -4.81485 2.24377 0
M  V30 1029 C 95.0836 -5.06536 3.43639 0
M  V30 1030 N 94.2206 -6.24665 3.20528 0
M  V30 1031 H 99.0606 -1.85219 2.33448 0
M  V30 1032 H 96.5976 -0.905039 1.15963 0
M  V30 1033 H 98.5556 -4.0174 1.12522 0
M  V30 1034 H 97.1856 -3.21248 0.316121 0
M  V30 1035 H 96.2376 -2.69872 2.68092 0
M  V30 1036 H 97.5496 -3.6899 3.3563 0
M  V30 1037 H 96.7036 -5.68852 2.10933 0
M  V30 1038 H 95.4426 -4.6923 1.32944 0
M  V30 1039 H 94.4476 -4.17632 3.5758 0
M  V30 1040 H 95.6726 -5.20676 4.35974 0
M  V30 1041 H 93.6186 -6.13696 2.3176 0
M  V30 1042 H 93.5356 -6.39685 4.02913 0
M  V30 1043 H 94.8036 -7.14868 3.10779 0
M  V30 1044 N 99.0327 -1.24633 -0.964593 0
M  V30 1045 C 100.28 -1.08788 -1.70796 0
M  V30 1046 C 100.608 0.372783 -1.90894 0
M  V30 1047 O 99.8627 1.29167 -1.47018 0
M  V30 1048 C 100.162 -1.7763 -3.10133 0
M  V30 1049 C 99.8277 -3.27557 -3.09866 0
M  V30 1050 C 98.4897 -3.6846 -3.09501 0
M  V30 1051 C 100.842 -4.23389 -3.03959 0
M  V30 1052 C 98.1697 -5.03624 -3.00965 0
M  V30 1053 C 100.522 -5.58565 -2.96965 0
M  V30 1054 C 99.1857 -5.98809 -2.9493 0
M  V30 1055 H 98.4557 -0.398084 -0.624988 0
M  V30 1056 H 101.103 -1.54777 -1.12767 0
M  V30 1057 H 99.4077 -1.24044 -3.71645 0
M  V30 1058 H 101.105 -1.62832 -3.66451 0
M  V30 1059 H 97.6947 -2.95006 -3.10917 0
M  V30 1060 H 101.879 -3.92787 -3.03368 0
M  V30 1061 H 97.1347 -5.33998 -2.97752 0
M  V30 1062 H 101.309 -6.32523 -2.91354 0
M  V30 1063 H 98.9357 -7.03505 -2.88071 0
M  V30 1064 N 100.511 1.16574 -1.06058 0
M  V30 1065 C 101.759 1.86677 -0.77434 0
M  V30 1066 C 102.08 1.81959 0.701147 0
M  V30 1067 O 101.35 1.2515 1.50713 0
M  V30 1068 H 99.9298 0.691134 -0.283449 0
M  V30 1069 H 102.592 1.41378 -1.34158 0
M  V30 1070 H 101.688 2.92181 -1.09711 0
M  V30 1071 N 101.989 0.842826 1.3317 0
M  V30 1072 C 102.899 0.281444 2.32906 0
M  V30 1073 C 103.915 -0.594587 1.63526 0
M  V30 1074 O 105.091 -0.49777 1.95152 0
M  V30 1075 C 102.156 -0.530929 3.42611 0
M  V30 1076 C 101.217 0.369843 4.27704 0
M  V30 1077 C 100.45 -0.403853 5.3217 0
M  V30 1078 O 100.673 -1.63513 5.46461 0
M  V30 1079 O 99.6069 0.224199 6.01482 0
M  V30 1080 H 103.433 1.10744 2.82789 0
M  V30 1081 H 101.018 0.60545 1.36582 0
M  V30 1082 H 102.9 -0.992437 4.09547 0
M  V30 1083 H 101.575 -1.33392 2.94938 0
M  V30 1084 H 100.482 0.879275 3.6362 0
M  V30 1085 H 101.815 1.13771 4.78871 0
M  V30 1086 N 103.467 -1.45747 0.599634 0
M  V30 1087 C 104.714 -2.02292 0.0917284 0
M  V30 1088 C 105.042 -1.46906 -1.27472 0
M  V30 1089 O 104.297 -0.630652 -1.8526 0
M  V30 1090 C 104.596 -3.57399 -0.00602758 0
M  V30 1091 C 104.262 -4.31902 1.29503 0
M  V30 1092 C 102.924 -4.51974 1.65144 0
M  V30 1093 C 105.276 -4.74551 2.15525 0
M  V30 1094 C 102.604 -5.11949 2.86574 0
M  V30 1095 C 104.956 -5.35868 3.36196 0
M  V30 1096 C 103.62 -5.54165 3.72099 0
M  V30 1097 H 102.89 -0.740239 0.0335658 0
M  V30 1098 H 105.537 -1.7491 0.779661 0
M  V30 1099 H 103.842 -3.84014 -0.777183 0
M  V30 1100 H 105.539 -3.98846 -0.415038 0
M  V30 1101 H 102.129 -4.16588 1.00761 0
M  V30 1102 H 106.313 -4.58784 1.8929 0
M  V30 1103 H 101.569 -5.24305 3.14507 0
M  V30 1104 H 105.743 -5.6787 4.03109 0
M  V30 1105 H 103.37 -6.00406 4.6628 0
M  V30 1106 N 104.945 -0.338344 -1.53925 0
M  V30 1107 C 106.185 0.260168 -2.02737 0
M  V30 1108 C 106.549 1.48181 -1.22092 0
M  V30 1109 O 107.75 2.15416 -1.60777 0
M  V30 1110 C 106.021 0.571627 -3.52799 0
M  V30 1111 S 107.58 1.14769 -4.23525 0
M  V30 1112 H 104.398 0.077791 -0.706732 0
M  V30 1113 H 107 -0.474899 -1.89644 0
M  V30 1114 H 105.704 -0.325392 -4.09108 0
M  V30 1115 H 105.235 1.3365 -3.70002 0
M  V30 1116 H 107.25 2.43372 -4.32417 0
M  V30 1117 N 106.423 1.57458 -0.0668435 0
M  V30 1118 C 107.373 2.0896 0.912119 0
M  V30 1119 C 108.357 0.998186 1.26195 0
M  V30 1120 O 109.549 1.26133 1.24175 0
M  V30 1121 C 106.678 2.6508 2.18145 0
M  V30 1122 C 105.764 3.81218 1.85832 0
M  V30 1123 N 106.155 4.90378 1.23948 0
M  V30 1124 C 104.453 3.9042 2.15612 0
M  V30 1125 C 105.154 5.71279 1.09616 0
M  V30 1126 N 104.13 5.19389 1.60423 0
M  V30 1127 H 107.932 2.90749 0.42924 0
M  V30 1128 H 105.446 1.6182 0.137184 0
M  V30 1129 H 107.443 3.0029 2.89192 0
M  V30 1130 H 106.103 1.84736 2.67025 0
M  V30 1131 H 107.114 5.09847 0.909731 0
M  V30 1132 H 103.791 3.21043 2.66903 0
M  V30 1133 H 105.181 6.69085 0.614425 0
M  V30 1134 N 107.901 -0.206675 1.56239 0
M  V30 1135 C 109.149 -0.927007 1.79586 0
M  V30 1136 C 109.47 -1.8427 0.637929 0
M  V30 1137 O 108.74 -1.92849 -0.344398 0
M  V30 1138 H 107.32 -0.345292 0.662407 0
M  V30 1139 H 109.982 -0.21496 1.93711 0
M  V30 1140 H 109.078 -1.52501 2.72305 0
M  V30 1141 N 109.379 -1.50304 -0.473955 0
M  V30 1142 C 110.619 -1.62786 -1.23612 0
M  V30 1143 C 110.983 -0.319786 -1.89318 0
M  V30 1144 O 112.184 -0.320012 -2.66888 0
M  V30 1145 C 110.455 -2.77351 -2.25414 0
M  V30 1146 S 112.014 -3.09948 -3.10608 0
M  V30 1147 H 108.832 -0.573895 -0.419721 0
M  V30 1148 H 111.434 -1.88076 -0.533623 0
M  V30 1149 H 110.138 -3.70879 -1.75719 0
M  V30 1150 H 109.669 -2.54137 -3.00296 0
M  V30 1151 H 111.684 -2.53553 -4.26527 0
M  V30 1152 N 110.857 0.726932 -1.39834 0
M  V30 1153 C 112.082 1.52121 -1.40976 0
M  V30 1154 C 112.507 1.88098 -0.00826029 0
M  V30 1155 O 111.865 1.52479 0.980807 0
M  V30 1156 C 111.913 2.78021 -2.29644 0
M  V30 1157 O 111.017 3.74272 -1.73188 0
M  V30 1158 H 110.358 0.45908 -0.479731 0
M  V30 1159 H 112.888 0.896207 -1.83927 0
M  V30 1160 H 112.898 3.26671 -2.44438 0
M  V30 1161 H 111.573 2.51169 -3.31492 0
M  V30 1162 H 110.15 3.33073 -1.6768 0
M  V30 1163 N 112.336 1.25143 0.95797 0
M  V30 1164 C 113.266 1.07711 2.07173 0
M  V30 1165 C 114.247 -0.0128462 1.70095 0
M  V30 1166 O 115.432 0.156061 1.93572 0
M  V30 1167 C 112.562 0.691503 3.40346 0
M  V30 1168 C 111.516 1.73132 3.9142 0
M  V30 1169 C 110.842 1.20049 5.21049 0
M  V30 1170 C 112.142 3.1294 4.1817 0
M  V30 1171 H 113.836 2.00873 2.22014 0
M  V30 1172 H 111.382 0.967191 1.06684 0
M  V30 1173 H 113.335 0.556505 4.17709 0
M  V30 1174 H 112.059 -0.275819 3.25433 0
M  V30 1175 H 110.718 1.8547 3.16222 0
M  V30 1176 H 110.366 0.223499 5.02503 0
M  V30 1177 H 110.066 1.89545 5.56189 0
M  V30 1178 H 111.59 1.07782 6.01012 0
M  V30 1179 H 113.004 3.03775 4.86203 0
M  V30 1180 H 111.401 3.79875 4.64559 0
M  V30 1181 H 112.471 3.6025 3.24573 0
M  V30 1182 N 113.814 -1.1601 1.06675 0
M  V30 1183 C 114.744 -2.22688 0.702307 0
M  V30 1184 C 115.725 -1.67306 -0.307032 0
M  V30 1185 O 116.91 -1.93352 -0.181305 0
M  V30 1186 C 114.04 -3.47178 0.092038 0
M  V30 1187 C 112.994 -4.15477 1.02777 0
M  V30 1188 C 112.32 -5.33963 0.28061 0
M  V30 1189 C 113.62 -4.66019 2.35846 0
M  V30 1190 H 115.314 -2.53429 1.59419 0
M  V30 1191 H 112.86 -1.21813 0.767961 0
M  V30 1192 H 114.813 -4.21037 -0.174814 0
M  V30 1193 H 113.537 -3.15749 -0.834877 0
M  V30 1194 H 112.196 -3.43549 1.27944 0
M  V30 1195 H 111.844 -4.98788 -0.649545 0
M  V30 1196 H 111.544 -5.806 0.904258 0
M  V30 1197 H 113.068 -6.10596 0.021396 0
M  V30 1198 H 114.482 -5.3144 2.15045 0
M  V30 1199 H 112.879 -5.23293 2.93743 0
M  V30 1200 H 113.949 -3.82023 2.98641 0
M  V30 1201 N 115.292 -0.849877 -1.32721 0
M  V30 1202 C 116.225 -0.235903 -2.26977 0
M  V30 1203 C 117.203 0.623355 -1.50177 0
M  V30 1204 O 118.387 0.581207 -1.79316 0
M  V30 1205 C 115.514 0.667712 -3.32053 0
M  V30 1206 C 114.56 -0.11753 -4.26338 0
M  V30 1207 S 115.393 -1.48277 -5.14562 0
M  V30 1208 C 116.549 -0.584741 -6.23163 0
M  V30 1209 H 116.782 -1.03495 -2.78704 0
M  V30 1210 H 114.315 -0.64724 -1.40179 0
M  V30 1211 H 116.273 1.18343 -3.93072 0
M  V30 1212 H 114.934 1.44052 -2.7912 0
M  V30 1213 H 114.127 0.57051 -5.00761 0
M  V30 1214 H 113.729 -0.564668 -3.69713 0
M  V30 1215 H 116.021 0.212968 -6.77165 0
M  V30 1216 H 116.964 -1.29947 -6.96074 0
M  V30 1217 H 117.372 -0.161202 -5.6427 0
M  V30 1218 N 116.77 1.45427 -0.607355 0
M  V30 1219 C 117.998 2.06614 -0.108814 0
M  V30 1220 C 118.413 1.45204 1.2067 0
M  V30 1221 O 117.77 0.566132 1.73497 0
M  V30 1222 C 117.821 3.61481 0.0375347 0
M  V30 1223 O 117.542 4.20598 -1.22593 0
M  V30 1224 C 119.043 4.39652 0.567561 0
M  V30 1225 H 116.263 0.66747 -0.0687351 0
M  V30 1226 H 118.807 1.86675 -0.835022 0
M  V30 1227 H 116.962 3.80762 0.714068 0
M  V30 1228 H 117.376 5.1377 -1.05547 0
M  V30 1229 H 118.85 5.48518 0.61905 0
M  V30 1230 H 119.327 4.09417 1.58978 0
M  V30 1231 H 119.933 4.25234 -0.0749202 0
M  V30 1232 N 118.248 0.346503 1.53744 0
M  V30 1233 C 119.496 -0.248612 2.00565 0
M  V30 1234 C 119.817 -1.5083 1.23593 0
M  V30 1235 O 119.087 -1.92858 0.343912 0
M  V30 1236 H 117.667 -0.0948564 0.740953 0
M  V30 1237 H 120.329 0.468341 1.89189 0
M  V30 1238 H 119.425 -0.488994 3.08245 0
M  V30 1239 N 119.726 -1.57421 0.075193 0
M  V30 1240 C 121.137 -1.81021 -0.456964 0
M  V30 1241 C 121.488 -0.98936 -1.69429 0
M  V30 1242 O 120.613 -0.212865 -2.15351 0
M  V30 1243 C 121.208 -3.28329 -0.83581 0
M  V30 1244 C 119.767 -3.52764 -1.31281 0
M  V30 1245 C 118.914 -2.75676 -0.299648 0
M  V30 1246 H 121.865 -1.55822 0.300856 0
M  V30 1247 H 121.886 -3.40564 -1.69696 0
M  V30 1248 H 121.398 -3.88046 0.0649238 0
M  V30 1249 H 119.499 -2.98355 -2.23193 0
M  V30 1250 H 119.612 -4.61451 -1.28839 0
M  V30 1251 H 117.976 -2.42538 -0.777641 0
M  V30 1252 H 118.759 -3.38132 0.593417 0
M  V30 1253 N 121.204 0.198386 -1.56346 0
M  V30 1254 C 122.451 0.919286 -1.80431 0
M  V30 1255 C 122.779 1.83393 -0.647866 0
M  V30 1256 O 122.034 1.92236 0.366556 0
M  V30 1257 C 122.333 1.77031 -3.10475 0
M  V30 1258 C 121.999 1.00693 -4.39513 0
M  V30 1259 C 120.661 0.796145 -4.74568 0
M  V30 1260 C 123.013 0.469559 -5.19081 0
M  V30 1261 C 120.341 0.0364588 -5.86689 0
M  V30 1262 C 122.693 -0.2769 -6.31994 0
M  V30 1263 C 121.357 -0.49873 -6.65634 0
M  V30 1264 H 120.627 0.336391 -0.660244 0
M  V30 1265 H 123.274 0.185872 -1.90596 0
M  V30 1266 H 121.579 2.5723 -2.95533 0
M  V30 1267 H 123.276 2.33065 -3.26315 0
M  V30 1268 H 119.866 1.18122 -4.12001 0
M  V30 1269 H 124.05 0.619816 -4.92414 0
M  V30 1270 H 119.306 -0.145412 -6.11227 0
M  V30 1271 H 123.48 -0.700684 -6.92866 0
M  V30 1272 H 121.107 -1.0893 -7.52355 0
M  V30 1273 N 122.682 1.50554 0.465978 0
M  V30 1274 C 123.615 1.64436 1.58227 0
M  V30 1275 C 124.593 0.492367 1.54966 0
M  V30 1276 O 125.777 0.712536 1.74514 0
M  V30 1277 C 122.904 1.63165 2.96808 0
M  V30 1278 C 121.95 2.83987 3.18204 0
M  V30 1279 S 122.783 4.45219 2.97557 0
M  V30 1280 C 123.939 4.46649 4.3847 0
M  V30 1281 H 124.172 2.58861 1.46213 0
M  V30 1282 H 121.705 1.3988 0.653678 0
M  V30 1283 H 123.663 1.63116 3.76701 0
M  V30 1284 H 122.324 0.69967 3.06208 0
M  V30 1285 H 121.517 2.79416 4.19455 0
M  V30 1286 H 121.119 2.81629 2.46092 0
M  V30 1287 H 123.411 4.20526 5.31191 0
M  V30 1288 H 124.354 5.48295 4.48082 0
M  V30 1289 H 124.762 3.76296 4.20787 0
M  V30 1290 N 124.16 -0.719506 1.40217 0
M  V30 1291 C 125.406 -1.48152 1.38488 0
M  V30 1292 C 125.739 -1.94195 -0.0141867 0
M  V30 1293 O 125.014 -1.67884 -0.982096 0
M  V30 1294 C 125.297 -2.71035 2.37091 0
M  V30 1295 C 125.15 -2.30912 3.86005 0
M  V30 1296 C 126.469 -3.73182 2.33288 0
M  V30 1297 H 123.588 -0.537395 0.504357 0
M  V30 1298 H 126.23 -0.821472 1.71324 0
M  V30 1299 H 124.38 -3.27352 2.0922 0
M  V30 1300 H 126.052 -1.80107 4.24687 0
M  V30 1301 H 124.295 -1.62958 4.02029 0
M  V30 1302 H 124.966 -3.18978 4.50508 0
M  V30 1303 H 127.442 -3.26485 2.57966 0
M  V30 1304 H 126.318 -4.56806 3.04334 0
M  V30 1305 H 126.579 -4.21202 1.34317 0
M  V30 1306 N 125.638 -1.25649 -0.95132 0
M  V30 1307 C 126.601 -1.06399 -2.03007 0
M  V30 1308 C 127.601 -0.0156794 -1.60792 0
M  V30 1309 O 128.791 -0.25817 -1.72276 0
M  V30 1310 C 125.923 -0.616184 -3.35285 0
M  V30 1311 H 127.116 -2.02164 -2.21517 0
M  V30 1312 H 124.669 -1.08103 -1.12887 0
M  V30 1313 H 125.404 0.343917 -3.22471 0
M  V30 1314 H 125.189 -1.37301 -3.67275 0
M  V30 1315 H 126.679 -0.503032 -4.14559 0
M  V30 1316 N 127.117 1.15442 -1.07289 0
M  V30 1317 C 128.365 1.85845 -0.794096 0
M  V30 1318 C 128.686 1.82692 0.681809 0
M  V30 1319 O 127.956 1.26741 1.49377 0
M  V30 1320 H 126.536 0.688089 -0.290763 0
M  V30 1321 H 129.198 1.39947 -1.3565 0
M  V30 1322 H 128.294 2.91001 -1.12804 0
M  V30 1323 N 128.595 0.856903 1.32268 0
M  V30 1324 C 129.505 0.306131 2.32594 0
M  V30 1325 C 130.521 -0.577209 1.64147 0
M  V30 1326 O 131.697 -0.477043 1.95669 0
M  V30 1327 C 128.762 -0.494561 3.43154 0
M  V30 1328 C 127.823 0.415186 4.27288 0
M  V30 1329 C 127.056 -0.347387 5.32568 0
M  V30 1330 O 127.279 -1.57708 5.48165 0
M  V30 1331 O 126.213 0.287982 6.01211 0
M  V30 1332 H 130.039 1.13737 2.81598 0
M  V30 1333 H 127.624 0.619902 1.35932 0
M  V30 1334 H 129.506 -0.948944 4.10576 0
M  V30 1335 H 128.181 -1.30257 2.96336 0
M  V30 1336 H 127.088 0.917793 3.62667 0
M  V30 1337 H 128.421 1.18844 4.77637 0
M  V30 1338 N 130.073 -1.45103 0.615059 0
M  V30 1339 C 131.32 -2.02183 0.113179 0
M  V30 1340 C 131.648 -1.48249 -1.25906 0
M  V30 1341 O 130.903 -0.650265 -1.84581 0
M  V30 1342 C 131.202 -3.57386 0.0318797 0
M  V30 1343 C 130.868 -4.30505 1.34077 0
M  V30 1344 C 129.53 -4.50197 1.69929 0
M  V30 1345 C 131.882 -4.72238 2.20546 0
M  V30 1346 C 129.21 -5.08881 2.91988 0
M  V30 1347 C 131.562 -5.32272 3.41861 0
M  V30 1348 C 130.226 -5.50187 3.77956 0
M  V30 1349 H 129.496 -0.739842 0.0414151 0
M  V30 1350 H 132.143 -1.74073 0.798168 0
M  V30 1351 H 130.448 -3.84817 -0.736409 0
M  V30 1352 H 132.145 -3.99264 -0.372712 0
M  V30 1353 H 128.735 -4.15496 1.05173 0
M  V30 1354 H 132.919 -4.56751 1.94146 0
M  V30 1355 H 128.175 -5.20939 3.2005 0
M  V30 1356 H 132.349 -5.63563 4.09109 0
M  V30 1357 H 129.976 -5.95427 4.72622 0
M  V30 1358 N 131.551 -0.354651 -1.53558 0
M  V30 1359 C 132.498 0.496968 -2.25386 0
M  V30 1360 C 133.468 1.0865 -1.25636 0
M  V30 1361 O 134.653 1.12104 -1.54394 0
M  V30 1362 C 131.793 1.63637 -3.03837 0
M  V30 1363 C 130.906 1.07307 -4.18461 0
M  V30 1364 C 130.041 2.18068 -4.84376 0
M  V30 1365 C 129.08 1.59147 -5.91049 0
M  V30 1366 N 128.217 2.63695 -6.50699 0
M  V30 1367 H 133.057 -0.122075 -2.9775 0
M  V30 1368 H 130.594 -0.0720154 -1.46924 0
M  V30 1369 H 132.552 2.30734 -3.47589 0
M  V30 1370 H 131.182 2.22623 -2.33749 0
M  V30 1371 H 130.234 0.292708 -3.79272 0
M  V30 1372 H 131.546 0.602193 -4.95152 0
M  V30 1373 H 130.7 2.93007 -5.31255 0
M  V30 1374 H 129.439 2.68504 -4.07133 0
M  V30 1375 H 128.444 0.827175 -5.43542 0
M  V30 1376 H 129.669 1.09549 -6.70206 0
M  V30 1377 H 127.615 3.13365 -5.76315 0
M  V30 1378 H 127.532 2.21263 -7.22896 0
M  V30 1379 H 128.8 3.3837 -7.02229 0
M  V30 1380 N 133.029 1.57378 -0.0835403 0
M  V30 1381 C 134.259 1.97975 0.590713 0
M  V30 1382 C 134.667 0.961083 1.62972 0
M  V30 1383 O 134.01 -0.0590879 1.83605 0
M  V30 1384 C 134.072 3.34915 1.3066 0
M  V30 1385 C 133.736 4.55069 0.419698 0
M  V30 1386 C 134.733 5.18868 -0.32749 0
M  V30 1387 C 132.418 5.0114 0.341137 0
M  V30 1388 C 134.412 6.27098 -1.14134 0
M  V30 1389 C 132.099 6.0924 -0.476374 0
M  V30 1390 C 133.097 6.72083 -1.21627 0
M  V30 1391 O 132.785 7.781 -2.02028 0
M  V30 1392 H 132.517 0.655818 0.163947 0
M  V30 1393 H 135.071 2.04807 -0.156021 0
M  V30 1394 H 133.301 3.24733 2.09966 0
M  V30 1395 H 134.99 3.60037 1.87424 0
M  V30 1396 H 135.756 4.84211 -0.276459 0
M  V30 1397 H 131.635 4.51996 0.90668 0
M  V30 1398 H 135.179 6.7608 -1.71935 0
M  V30 1399 H 131.076 6.43329 -0.528927 0
M  V30 1400 H 131.844 7.95034 -1.94586 0
M  V30 1401 N 134.507 -0.190092 1.56449 0
M  V30 1402 C 135.457 -1.23977 1.91347 0
M  V30 1403 C 136.441 -1.40747 0.779693 0
M  V30 1404 O 137.633 -1.43033 1.04262 0
M  V30 1405 C 134.762 -2.58347 2.26079 0
M  V30 1406 C 133.848 -2.4535 3.45925 0
M  V30 1407 N 134.239 -2.02039 4.63696 0
M  V30 1408 C 132.537 -2.76229 3.50162 0
M  V30 1409 C 133.238 -2.01053 5.4585 0
M  V30 1410 N 132.214 -2.42747 4.8639 0
M  V30 1411 H 136.016 -0.896318 2.79899 0
M  V30 1412 H 133.53 -0.398496 1.57435 0
M  V30 1413 H 135.527 -3.34173 2.49267 0
M  V30 1414 H 134.187 -2.93512 1.38856 0
M  V30 1415 H 135.198 -1.7267 4.88268 0
M  V30 1416 H 131.875 -3.15556 2.73369 0
M  V30 1417 H 133.265 -1.69426 6.50188 0
M  V30 1418 N 135.985 -1.50799 -0.457987 0
M  V30 1419 C 137.396 -1.55152 -1.0385 0
M  V30 1420 C 137.747 -0.362719 -1.92818 0
M  V30 1421 O 136.872 0.522915 -2.09987 0
M  V30 1422 C 137.467 -2.81173 -1.89017 0
M  V30 1423 C 136.026 -2.88164 -2.42154 0
M  V30 1424 C 135.173 -2.49591 -1.20829 0
M  V30 1425 H 138.124 -1.56874 -0.240068 0
M  V30 1426 H 138.145 -2.63769 -2.74238 0
M  V30 1427 H 137.657 -3.67677 -1.24238 0
M  V30 1428 H 135.758 -2.06042 -3.10447 0
M  V30 1429 H 135.871 -3.91356 -2.76364 0
M  V30 1430 H 134.235 -2.02322 -1.54719 0
M  V30 1431 H 135.018 -3.38418 -0.576927 0
M  V30 1432 N 137.463 0.71206 -1.40597 0
M  V30 1433 C 138.373 1.8562 -1.43466 0
M  V30 1434 C 139.389 1.70902 -0.326902 0
M  V30 1435 O 140.565 1.93105 -0.572043 0
M  V30 1436 C 137.63 3.21451 -1.29884 0
M  V30 1437 C 136.691 3.48398 -2.50833 0
M  V30 1438 C 135.924 4.77749 -2.3789 0
M  V30 1439 O 136.147 5.53089 -1.39459 0
M  V30 1440 O 135.081 5.05111 -3.27333 0
M  V30 1441 H 138.907 1.86155 -2.39958 0
M  V30 1442 H 136.492 0.86295 -1.21957 0
M  V30 1443 H 138.374 4.02579 -1.24531 0
M  V30 1444 H 137.049 3.21636 -0.364997 0
M  V30 1445 H 135.956 2.67265 -2.61763 0
M  V30 1446 H 137.289 3.53014 -3.4299 0
M  V30 1447 N 138.941 1.26152 0.944643 0
M  V30 1448 C 140.181 1.12708 1.70517 0
M  V30 1449 C 140.545 -0.324727 1.89234 0
M  V30 1450 O 141.746 -0.581211 2.62441 0
M  V30 1451 C 140.017 1.8713 3.04495 0
M  V30 1452 S 141.576 1.89698 3.95677 0
M  V30 1453 H 138.394 0.402665 0.585988 0
M  V30 1454 H 140.996 1.59821 1.12594 0
M  V30 1455 H 139.7 2.91833 2.88551 0
M  V30 1456 H 139.231 1.40444 3.67477 0
M  V30 1457 H 141.246 0.981198 4.86402 0
M  V30 1458 N 140.419 -1.14872 1.07899 0
M  V30 1459 C 141.666 -1.85789 0.805532 0
M  V30 1460 C 141.994 -1.82649 -0.668561 0
M  V30 1461 O 141.249 -1.24858 -1.50695 0
M  V30 1462 C 141.548 -3.34223 1.26609 0
M  V30 1463 C 141.214 -3.57555 2.74709 0
M  V30 1464 C 139.876 -3.63631 3.1516 0
M  V30 1465 C 142.228 -3.66803 3.70277 0
M  V30 1466 C 139.556 -3.76473 4.49983 0
M  V30 1467 C 141.908 -3.8117 5.04869 0
M  V30 1468 C 140.572 -3.85494 5.44932 0
M  V30 1469 H 139.842 -0.679849 0.294765 0
M  V30 1470 H 142.489 -1.3572 1.35101 0
M  V30 1471 H 140.794 -3.86536 0.640103 0
M  V30 1472 H 142.491 -3.87511 1.03132 0
M  V30 1473 H 139.081 -3.5347 2.42398 0
M  V30 1474 H 143.265 -3.61404 3.40149 0
M  V30 1475 H 138.521 -3.7808 4.80484 0
M  V30 1476 H 142.695 -3.87268 5.78789 0
M  V30 1477 H 140.322 -3.95197 6.49403 0
M  V30 1478 N 141.898 -0.863906 -1.31812 0
M  V30 1479 C 142.861 -0.320212 -2.26952 0
M  V30 1480 C 143.861 0.525369 -1.51975 0
M  V30 1481 O 145.051 0.335547 -1.70938 0
M  V30 1482 C 142.183 0.545919 -3.365 0
M  V30 1483 H 143.376 -1.16004 -2.76556 0
M  V30 1484 H 140.929 -0.638995 -1.42641 0
M  V30 1485 H 141.664 1.40718 -2.92179 0
M  V30 1486 H 141.449 -0.0594674 -3.92055 0
M  V30 1487 H 142.939 0.918796 -4.07367 0
M  V30 1488 N 143.376 1.44774 -0.622745 0
M  V30 1489 C 144.616 2.04004 -0.127102 0
M  V30 1490 C 144.98 1.47862 1.22478 0
M  V30 1491 O 146.181 1.98541 1.81204 0
M  V30 1492 C 144.452 3.57247 -0.104429 0
M  V30 1493 S 146.011 4.37574 0.327814 0
M  V30 1494 H 142.829 0.708713 -0.0569776 0
M  V30 1495 H 145.431 1.77275 -0.824253 0
M  V30 1496 H 144.135 3.95616 -1.09159 0
M  V30 1497 H 143.666 3.88575 0.614236 0
M  V30 1498 H 145.681 4.70575 1.57395 0
M  V30 1499 N 144.854 0.36279 1.53368 0
M  V30 1500 C 145.787 -0.528507 2.21996 0
M  V30 1501 C 146.765 -1.0852 1.21087 0
M  V30 1502 O 147.949 -1.14186 1.4998 0
M  V30 1503 C 145.076 -1.72893 2.91249 0
M  V30 1504 C 144.122 -1.29994 4.06207 0
M  V30 1505 S 144.955 -0.303575 5.34639 0
M  V30 1506 C 146.111 -1.51039 6.07403 0
M  V30 1507 H 146.344 0.0543423 2.9725 0
M  V30 1508 H 143.877 0.146889 1.537 0
M  V30 1509 H 145.835 -2.41751 3.31763 0
M  V30 1510 H 144.496 -2.28303 2.15724 0
M  V30 1511 H 143.689 -2.19549 4.53667 0
M  V30 1512 H 143.291 -0.690608 3.67569 0
M  V30 1513 H 145.583 -2.44186 6.31965 0
M  V30 1514 H 146.526 -1.07721 6.99858 0
M  V30 1515 H 146.934 -1.71518 5.37812 0
M  V30 1516 N 146.332 -1.57332 0.0918853 0
M  V30 1517 C 147.557 -1.98995 -0.584442 0
M  V30 1518 C 147.982 -0.970528 -1.61128 0
M  V30 1519 O 147.34 0.0613904 -1.81196 0
M  V30 1520 C 147.388 -3.39636 -1.21161 0
M  V30 1521 O 146.492 -3.40447 -2.32744 0
M  V30 1522 H 145.833 -0.647165 -0.148572 0
M  V30 1523 H 148.363 -2.03873 0.172347 0
M  V30 1524 H 148.373 -3.7726 -1.55367 0
M  V30 1525 H 147.048 -4.13356 -0.459313 0
M  V30 1526 H 145.625 -3.14614 -2.0018 0
M  V30 1527 N 147.81 0.181792 -1.56548 0
M  V30 1528 C 149.05 0.906711 -1.83189 0
M  V30 1529 C 149.414 1.79882 -0.671312 0
M  V30 1530 O 150.615 2.56054 -0.81792 0
M  V30 1531 C 148.886 1.69023 -3.14906 0
M  V30 1532 S 150.445 2.46535 -3.62996 0
M  V30 1533 H 147.263 0.303877 -0.642791 0
M  V30 1534 H 149.865 0.169107 -1.94767 0
M  V30 1535 H 148.569 1.02571 -3.97376 0
M  V30 1536 H 148.1 2.46941 -3.06241 0
M  V30 1537 H 150.115 3.71014 -3.29489 0
M  V30 1538 N 149.288 1.51039 0.449983 0
M  V30 1539 C 150.235 1.71439 1.54523 0
M  V30 1540 C 151.205 0.555871 1.56522 0
M  V30 1541 O 152.39 0.788871 1.73728 0
M  V30 1542 C 149.53 1.83384 2.92343 0
M  V30 1543 C 148.643 3.10873 2.9997 0
M  V30 1544 C 147.778 3.13488 4.28834 0
M  V30 1545 C 146.817 4.35343 4.30282 0
M  V30 1546 N 145.954 4.35579 5.5065 0
M  V30 1547 H 150.794 2.64934 1.36433 0
M  V30 1548 H 148.331 1.31312 0.662982 0
M  V30 1549 H 150.289 1.88291 3.72293 0
M  V30 1550 H 148.919 0.933086 3.0902 0
M  V30 1551 H 147.971 3.15336 2.12761 0
M  V30 1552 H 149.283 4.00814 2.96901 0
M  V30 1553 H 148.437 3.17241 5.17149 0
M  V30 1554 H 147.176 2.21414 4.34543 0
M  V30 1555 H 146.181 4.3178 3.40362 0
M  V30 1556 H 147.406 5.28668 4.26248 0
M  V30 1557 H 145.352 3.46369 5.57104 0
M  V30 1558 H 145.269 5.19313 5.49409 0
M  V30 1559 H 146.537 4.43507 6.41032 0
M  V30 1560 N 150.766 -0.704594 1.40972 0
M  V30 1561 C 152.012 -1.46675 1.40051 0
M  V30 1562 C 152.345 -1.94199 0.00641102 0
M  V30 1563 O 151.62 -1.68916 -0.964235 0
M  V30 1564 C 151.903 -2.68505 2.39952 0
M  V30 1565 C 151.756 -2.26805 3.88432 0
M  V30 1566 C 153.075 -3.70686 2.37233 0
M  V30 1567 H 150.194 -0.532015 0.510028 0
M  V30 1568 H 152.836 -0.803255 1.72185 0
M  V30 1569 H 150.986 -3.25114 2.1268 0
M  V30 1570 H 152.658 -1.75592 4.26574 0
M  V30 1571 H 150.901 -1.58685 4.03734 0
M  V30 1572 H 151.572 -3.14181 4.53866 0
M  V30 1573 H 154.048 -3.23731 2.61415 0
M  V30 1574 H 152.924 -4.53553 3.09162 0
M  V30 1575 H 153.185 -4.19754 1.38777 0
M  V30 1576 N 152.244 -1.26651 -0.937939 0
M  V30 1577 C 153.493 -1.11775 -1.67897 0
M  V30 1578 C 153.806 0.33794 -1.92659 0
M  V30 1579 O 155.012 0.607434 -2.64618 0
M  V30 1580 C 153.468 -1.9523 -3.02346 0
M  V30 1581 C 153.076 -3.45393 -2.8532 0
M  V30 1582 C 154.82 -1.88972 -3.80118 0
M  V30 1583 C 152.727 -4.21083 -4.15263 0
M  V30 1584 H 151.657 -0.414696 -0.629717 0
M  V30 1585 H 154.308 -1.50988 -1.04283 0
M  V30 1586 H 152.69 -1.48853 -3.66959 0
M  V30 1587 H 153.864 -3.99561 -2.29537 0
M  V30 1588 H 152.179 -3.52921 -2.20988 0
M  V30 1589 H 154.776 -2.42805 -4.76392 0
M  V30 1590 H 155.119 -0.86113 -4.07296 0
M  V30 1591 H 155.652 -2.33189 -3.22285 0
M  V30 1592 H 152.391 -5.24425 -3.93267 0
M  V30 1593 H 151.911 -3.71695 -4.70747 0
M  V30 1594 H 153.59 -4.29706 -4.83696 0
M  V30 1595 N 153.722 1.14298 -1.08507 0
M  V30 1596 C 154.971 1.84708 -0.810305 0
M  V30 1597 C 155.284 1.83903 0.666271 0
M  V30 1598 O 156.49 2.50112 1.05624 0
M  V30 1599 C 154.946 3.31572 -1.39957 0
M  V30 1600 C 154.554 3.40791 -2.90801 0
M  V30 1601 C 156.298 4.07087 -1.20334 0
M  V30 1602 C 154.205 4.81872 -3.4286 0
M  V30 1603 H 153.135 0.691985 -0.299454 0
M  V30 1604 H 155.786 1.28841 -1.30661 0
M  V30 1605 H 154.168 3.87183 -0.830976 0
M  V30 1606 H 155.342 2.95225 -3.53806 0
M  V30 1607 H 153.657 2.78732 -3.0935 0
M  V30 1608 H 156.254 5.11225 -1.56693 0
M  V30 1609 H 156.597 4.16054 -0.143237 0
M  V30 1610 H 157.13 3.57779 -1.73893 0
M  V30 1611 H 153.869 4.78094 -4.48449 0
M  V30 1612 H 153.389 5.27972 -2.84615 0
M  V30 1613 H 155.068 5.50765 -3.39509 0
M  V30 1614 N 155.201 0.870884 1.31352 0
M  V30 1615 C 156.111 0.330783 2.32256 0
M  V30 1616 C 157.127 -0.559767 1.6475 0
M  V30 1617 O 158.303 -0.456263 1.96164 0
M  V30 1618 C 155.368 -0.458137 3.4366 0
M  V30 1619 C 154.429 0.460482 4.26823 0
M  V30 1620 C 153.662 -0.290881 5.32907 0
M  V30 1621 O 153.885 -1.51885 5.49806 0
M  V30 1622 O 152.819 0.351732 6.00871 0
M  V30 1623 H 156.645 1.16718 2.80376 0
M  V30 1624 H 154.23 0.634285 1.35267 0
M  V30 1625 H 156.112 -0.905343 4.1156 0
M  V30 1626 H 154.787 -1.27106 2.97701 0
M  V30 1627 H 153.694 0.956207 3.61673 0
M  V30 1628 H 155.027 1.23903 4.7635 0
M  V30 1629 N 156.679 -1.44442 0.630414 0
M  V30 1630 C 157.956 -1.9549 0.0655657 0
M  V30 1631 C 158.336 -1.5724 -1.40851 0
M  V30 1632 O 157.684 -0.846116 -2.12257 0
M  V30 1633 C 157.894 -3.47812 0.287691 0
M  V30 1634 C 159.242 -4.24216 0.180513 0
M  V30 1635 O 160.266 -3.55526 0.219019 0
M  V30 1636 O 159.125 -5.46434 0.0848493 0
M  V30 1637 H 156.219 -0.826688 -0.0227177 0
M  V30 1638 H 158.765 -1.54496 0.702068 0
M  V30 1639 H 157.537 -3.687 1.31056 0
M  V30 1640 H 157.16 -3.95751 -0.382984 0
M  V30 1641 N 158.157 -0.370918 -1.53173 0
M  V30 1642 C 159.405 0.216673 -2.00935 0
M  V30 1643 C 159.726 1.48845 -1.25977 0
M  V30 1644 O 158.996 1.92286 -0.374551 0
M  V30 1645 H 157.576 0.0830565 -0.742368 0
M  V30 1646 H 160.238 -0.49838 -1.8842 0
M  V30 1647 H 159.334 0.439893 -3.08984 0
M  V30 1648 N 159.635 1.57281 -0.100228 0
M  V30 1649 C 160.912 1.86014 0.604812 0
M  V30 1650 C 161.292 0.998025 1.86018 0
M  V30 1651 O 160.64 0.0718184 2.28387 0
M  V30 1652 C 160.85 3.36784 0.915278 0
M  V30 1653 C 162.198 4.04957 1.27651 0
M  V30 1654 O 163.222 3.41695 1.00613 0
M  V30 1655 O 162.081 5.16593 1.7831 0
M  V30 1656 H 159.175 0.76942 0.303185 0
M  V30 1657 H 161.721 1.69176 -0.133313 0
M  V30 1658 H 160.493 3.91292 0.0248896 0
M  V30 1659 H 160.116 3.58987 1.70921 0
M  V30 1660 N 161.113 -0.173488 1.56642 0
M  V30 1661 C 162.076 -1.19859 1.95362 0
M  V30 1662 C 163.076 -1.37296 0.83704 0
M  V30 1663 O 164.266 -1.34739 1.10413 0
M  V30 1664 C 161.398 -2.56405 2.24654 0
M  V30 1665 H 162.591 -0.867062 2.87092 0
M  V30 1666 H 160.144 -0.415853 1.50666 0
M  V30 1667 H 160.879 -2.94576 1.35631 0
M  V30 1668 H 160.664 -2.45115 3.06041 0
M  V30 1669 H 162.154 -3.30287 2.5554 0
M  V30 1670 N 162.591 -1.51276 -0.441967 0
M  V30 1671 C 163.821 -1.67273 -1.21257 0
M  V30 1672 C 164.229 -0.367624 -1.85594 0
M  V30 1673 O 163.572 0.663349 -1.71305 0
M  V30 1674 C 163.634 -2.72807 -2.34129 0
M  V30 1675 C 163.298 -4.1554 -1.90198 0
M  V30 1676 C 164.295 -5.00471 -1.40801 0
M  V30 1677 C 161.98 -4.61616 -1.9803 0
M  V30 1678 C 163.974 -6.29536 -0.998174 0
M  V30 1679 C 161.661 -5.90679 -1.56658 0
M  V30 1680 C 162.659 -6.74466 -1.07633 0
M  V30 1681 O 162.347 -8.01116 -0.668459 0
M  V30 1682 H 162.079 -0.564614 -0.371734 0
M  V30 1683 H 164.633 -1.9843 -0.530521 0
M  V30 1684 H 162.863 -2.36954 -3.05597 0
M  V30 1685 H 164.552 -2.77729 -2.96009 0
M  V30 1686 H 165.318 -4.66079 -1.34148 0
M  V30 1687 H 161.197 -3.96526 -2.35135 0
M  V30 1688 H 164.741 -6.94885 -0.61482 0
M  V30 1689 H 160.638 -6.24586 -1.62979 0
M  V30 1690 H 161.406 -8.14633 -0.794722 0
M  V30 1691 N 164.069 0.697108 -1.41344 0
M  V30 1692 C 165.032 1.79281 -1.42797 0
M  V30 1693 C 166.032 1.57607 -0.318837 0
M  V30 1694 O 167.222 1.64309 -0.578642 0
M  V30 1695 C 164.354 3.17632 -1.23785 0
M  V30 1696 H 165.547 1.79385 -2.40335 0
M  V30 1697 H 163.1 0.904582 -1.27464 0
M  V30 1698 H 163.835 3.23167 -0.270814 0
M  V30 1699 H 163.62 3.34765 -2.04144 0
M  V30 1700 H 165.11 3.97617 -1.27633 0
M  V30 1701 N 165.547 1.27147 0.931209 0
M  V30 1702 C 166.477 1.12081 2.04842 0
M  V30 1703 C 167.458 0.0232364 1.70084 0
M  V30 1704 O 168.643 0.197085 1.93197 0
M  V30 1705 C 165.773 0.76354 3.38803 0
M  V30 1706 C 164.727 1.81396 3.87659 0
M  V30 1707 C 164.053 1.31075 5.18385 0
M  V30 1708 C 165.353 3.21739 4.11438 0
M  V30 1709 H 167.047 2.05537 2.17703 0
M  V30 1710 H 164.593 0.989603 1.04608 0
M  V30 1711 H 166.546 0.644982 4.16435 0
M  V30 1712 H 165.27 -0.206727 3.25945 0
M  V30 1713 H 163.929 1.92136 3.12217 0
M  V30 1714 H 163.577 0.330037 5.01916 0
M  V30 1715 H 163.277 2.013 5.52044 0
M  V30 1716 H 164.801 1.20506 5.98591 0
M  V30 1717 H 166.215 3.14019 4.79651 0
M  V30 1718 H 164.612 3.89644 4.56397 0
M  V30 1719 H 165.682 3.67054 3.16859 0
M  V30 1720 N 167.025 -1.13721 1.09112 0
M  V30 1721 C 168.271 -1.85198 0.826414 0
M  V30 1722 C 168.604 -1.83129 -0.646319 0
M  V30 1723 O 167.879 -1.2671 -1.47563 0
M  V30 1724 C 168.162 -3.33507 1.35812 0
M  V30 1725 C 168.015 -3.44108 2.89672 0
M  V30 1726 C 169.334 -4.28838 0.989256 0
M  V30 1727 H 166.453 -0.67243 0.301675 0
M  V30 1728 H 169.095 -1.33499 1.35197 0
M  V30 1729 H 167.245 -3.77666 0.911082 0
M  V30 1730 H 168.917 -3.08684 3.428 0
M  V30 1731 H 167.16 -2.85087 3.26967 0
M  V30 1732 H 167.831 -4.48388 3.21951 0
M  V30 1733 H 170.307 -3.92734 1.37475 0
M  V30 1734 H 169.183 -5.31051 1.38838 0
M  V30 1735 H 169.444 -4.4198 -0.102924 0
M  V30 1736 N 168.503 -0.877838 -1.30888 0
M  V30 1737 C 169.435 -0.296607 -2.27273 0
M  V30 1738 C 170.448 0.544799 -1.53414 0
M  V30 1739 O 171.637 0.365511 -1.74718 0
M  V30 1740 C 168.737 0.597481 -3.33592 0
M  V30 1741 C 167.91 -0.213251 -4.3688 0
M  V30 1742 C 166.969 0.610208 -5.2265 0
M  V30 1743 O 165.995 0.035441 -5.69189 0
M  V30 1744 N 167.197 1.92071 -5.47804 0
M  V30 1745 H 169.962 -1.12492 -2.77787 0
M  V30 1746 H 167.523 -0.740105 -1.43993 0
M  V30 1747 H 169.515 1.15425 -3.87891 0
M  V30 1748 H 168.085 1.32647 -2.83061 0
M  V30 1749 H 167.305 -0.951466 -3.82545 0
M  V30 1750 H 168.593 -0.769262 -5.02951 0
M  V30 1751 H 167.991 2.4107 -5.11763 0
M  V30 1752 H 166.548 2.42508 -6.05007 0
M  V30 1753 N 169.982 1.44106 -0.638065 0
M  V30 1754 C 170.932 2.27843 0.0847285 0
M  V30 1755 C 171.916 1.39055 0.809471 0
M  V30 1756 O 173.108 1.62808 0.694435 0
M  V30 1757 C 170.237 3.26497 1.06089 0
M  V30 1758 C 169.323 4.22772 0.33541 0
M  V30 1759 N 169.714 5.01737 -0.639787 0
M  V30 1760 C 168.012 4.42227 0.578921 0
M  V30 1761 C 168.713 5.71792 -1.06904 0
M  V30 1762 N 167.689 5.42079 -0.406395 0
M  V30 1763 H 171.491 2.86305 -0.663814 0
M  V30 1764 H 169.005 1.55627 -0.464122 0
M  V30 1765 H 171.002 3.8525 1.59337 0
M  V30 1766 H 169.662 2.69595 1.80966 0
M  V30 1767 H 170.673 5.07799 -1.01789 0
M  V30 1768 H 167.35 3.96415 1.31003 0
M  V30 1769 H 168.74 6.45205 -1.8751 0
M  V30 1770 N 171.46 0.379036 1.52974 0
M  V30 1771 C 172.423 -0.448865 2.24762 0
M  V30 1772 C 173.423 -0.998689 1.26027 0
M  V30 1773 O 174.613 -0.882313 1.50203 0
M  V30 1774 C 171.745 -1.62872 2.99476 0
M  V30 1775 H 172.938 0.179491 2.99362 0
M  V30 1776 H 170.491 0.13096 1.5575 0
M  V30 1777 H 171.226 -2.29479 2.29151 0
M  V30 1778 H 171.011 -1.24128 3.71934 0
M  V30 1779 H 172.501 -2.2151 3.5401 0
M  V30 1780 N 172.938 -1.57226 0.108567 0
M  V30 1781 C 174.166 -1.99179 -0.559954 0
M  V30 1782 C 174.581 -0.988022 -1.60884 0
M  V30 1783 O 173.938 0.0205512 -1.82488 0
M  V30 1784 C 173.989 -3.41159 -1.19552 0
M  V30 1785 O 173.71 -4.37694 -0.188577 0
M  V30 1786 C 175.211 -3.98188 -1.94837 0
M  V30 1787 H 172.431 -0.654228 -0.149088 0
M  V30 1788 H 174.975 -2.03598 0.19183 0
M  V30 1789 H 173.13 -3.37711 -1.89815 0
M  V30 1790 H 173.544 -5.20469 -0.649014 0
M  V30 1791 H 175.018 -4.99644 -2.34648 0
M  V30 1792 H 175.495 -3.3675 -2.81951 0
M  V30 1793 H 176.101 -4.0515 -1.2936 0
M  V30 1794 N 174.416 0.165178 -1.56732 0
M  V30 1795 C 175.346 1.20651 -1.99914 0
M  V30 1796 C 176.327 1.45827 -0.875705 0
M  V30 1797 O 177.512 1.57057 -1.14223 0
M  V30 1798 C 174.642 2.54401 -2.36427 0
M  V30 1799 C 173.596 2.43782 -3.51787 0
M  V30 1800 C 172.922 3.82078 -3.7406 0
M  V30 1801 C 174.222 1.93732 -4.85041 0
M  V30 1802 H 175.916 0.847534 -2.87154 0
M  V30 1803 H 173.462 0.40625 -1.38151 0
M  V30 1804 H 175.415 3.27458 -2.65234 0
M  V30 1805 H 174.139 2.92098 -1.46103 0
M  V30 1806 H 172.798 1.73178 -3.23117 0
M  V30 1807 H 172.446 4.17179 -2.81017 0
M  V30 1808 H 172.146 3.7584 -4.51684 0
M  V30 1809 H 173.67 4.56712 -4.05274 0
M  V30 1810 H 175.084 2.56569 -5.12684 0
M  V30 1811 H 173.481 1.98428 -5.66345 0
M  V30 1812 H 174.551 0.891962 -4.76626 0
M  V30 1813 N 175.894 1.51508 0.433938 0
M  V30 1814 C 177.124 1.67914 1.20369 0
M  V30 1815 C 177.532 0.377461 1.85397 0
M  V30 1816 O 176.875 -0.654255 1.71654 0
M  V30 1817 C 176.937 2.74045 2.32679 0
M  V30 1818 C 176.601 4.16543 1.87991 0
M  V30 1819 C 177.598 5.01211 1.38145 0
M  V30 1820 C 175.283 4.6266 1.95579 0
M  V30 1821 C 177.277 6.30056 0.964774 0
M  V30 1822 C 174.964 5.91501 1.53523 0
M  V30 1823 C 175.962 6.75027 1.04055 0
M  V30 1824 O 175.65 8.01459 0.625964 0
M  V30 1825 H 175.382 0.566578 0.368735 0
M  V30 1826 H 177.936 1.98709 0.51999 0
M  V30 1827 H 176.166 2.38572 3.04336 0
M  V30 1828 H 177.855 2.79295 2.94532 0
M  V30 1829 H 178.621 4.66783 1.31675 0
M  V30 1830 H 174.5 3.97767 2.33029 0
M  V30 1831 H 178.044 6.95202 0.57796 0
M  V30 1832 H 173.941 6.25442 1.59665 0
M  V30 1833 H 174.709 8.15043 0.751509 0
M  V30 1834 N 177.372 -0.689602 1.41712 0
M  V30 1835 C 178.612 -1.46184 1.42862 0
M  V30 1836 C 178.976 -1.91962 0.0382204 0
M  V30 1837 O 180.177 -2.68694 -0.0755019 0
M  V30 1838 C 178.448 -2.6371 2.4123 0
M  V30 1839 S 180.007 -3.52768 2.6096 0
M  V30 1840 H 176.825 -0.49947 0.506015 0
M  V30 1841 H 179.427 -0.804107 1.78198 0
M  V30 1842 H 178.131 -2.28293 3.41044 0
M  V30 1843 H 177.662 -3.3437 2.07269 0
M  V30 1844 H 179.677 -4.59146 1.88148 0
M  V30 1845 N 178.85 -1.27639 -0.924453 0
M  V30 1846 C 180.098 -1.13941 -1.66918 0
M  V30 1847 C 180.419 0.314589 -1.92446 0
M  V30 1848 O 179.689 1.21964 -1.53303 0
M  V30 1849 H 178.269 -0.418678 -0.618642 0
M  V30 1850 H 180.931 -1.60213 -1.10985 0
M  V30 1851 H 180.027 -1.67094 -2.63602 0
M  V30 1852 N 180.328 1.1314 -1.09713 0
M  V30 1853 C 181.275 2.18642 -0.739196 0
M  V30 1854 C 182.245 1.63706 0.280978 0
M  V30 1855 O 183.43 1.90111 0.161946 0
M  V30 1856 C 180.57 3.44685 -0.169102 0
M  V30 1857 C 179.683 4.13711 -1.24367 0
M  V30 1858 C 178.818 5.27379 -0.636019 0
M  V30 1859 C 177.857 5.88259 -1.69169 0
M  V30 1860 N 176.994 6.93352 -1.10485 0
M  V30 1861 H 181.834 2.48607 -1.64312 0
M  V30 1862 H 179.371 1.22066 -0.820875 0
M  V30 1863 H 181.329 4.16815 0.179256 0
M  V30 1864 H 179.959 3.15161 0.698079 0
M  V30 1865 H 179.011 3.39835 -1.70927 0
M  V30 1866 H 180.323 4.55037 -2.04311 0
M  V30 1867 H 179.477 6.06238 -0.236677 0
M  V30 1868 H 178.216 4.8731 0.194928 0
M  V30 1869 H 177.221 5.08092 -2.10055 0
M  V30 1870 H 178.446 6.30399 -2.52536 0
M  V30 1871 H 176.392 6.55335 -0.295234 0
M  V30 1872 H 176.309 7.33236 -1.84121 0
M  V30 1873 H 177.577 7.76057 -0.73181 0
M  V30 1874 N 181.806 0.884767 1.30421 0
M  V30 1875 C 183.046 0.509806 1.9794 0
M  V30 1876 C 183.41 -0.923736 1.68319 0
M  V30 1877 O 184.611 -1.40481 2.29169 0
M  V30 1878 C 182.882 0.776732 3.48858 0
M  V30 1879 S 184.441 0.503843 4.35898 0
M  V30 1880 H 181.259 0.189699 0.685227 0
M  V30 1881 H 183.861 1.14399 1.58535 0
M  V30 1882 H 182.565 1.81857 3.67908 0
M  V30 1883 H 182.096 0.1301 3.93185 0
M  V30 1884 H 184.111 -0.657625 4.91823 0
M  V30 1885 N 183.284 -1.43765 0.645699 0
M  V30 1886 C 184.234 -2.27884 -0.0726442 0
M  V30 1887 C 185.218 -1.39483 -0.802086 0
M  V30 1888 O 186.41 -1.63174 -0.685791 0
M  V30 1889 C 183.539 -3.27055 -1.04356 0
M  V30 1890 C 182.625 -4.22944 -0.312985 0
M  V30 1891 N 183.016 -5.01391 0.666386 0
M  V30 1892 C 181.314 -4.42528 -0.55546 0
M  V30 1893 C 182.015 -5.71217 1.09935 0
M  V30 1894 N 180.991 -5.41856 0.435137 0
M  V30 1895 H 184.793 -2.85949 0.678988 0
M  V30 1896 H 182.307 -1.55378 0.472368 0
M  V30 1897 H 184.304 -3.86089 -1.57292 0
M  V30 1898 H 182.964 -2.70551 -1.79534 0
M  V30 1899 H 183.975 -5.07252 1.04481 0
M  V30 1900 H 180.652 -3.97104 -1.28899 0
M  V30 1901 H 182.042 -6.44202 1.90929 0
M  V30 1902 N 184.763 -0.387143 -1.52771 0
M  V30 1903 C 185.711 0.463953 -2.27926 0
M  V30 1904 C 186.705 1.06493 -1.31741 0
M  V30 1905 O 187.911 1.00565 -1.49287 0
M  V30 1906 H 184.286 0.16837 -0.732909 0
M  V30 1907 H 186.257 -0.19141 -2.97785 0
M  V30 1908 C 185.006 1.5803 -3.09713 0
M  V30 1909 H 184.329 1.12718 -3.83581 0
M  V30 1910 H 185.769 2.15008 -3.65442 0
M  V30 1911 C 184.228 2.53509 -2.2189 0
M  V30 1912 O 184.758 3.56863 -1.84422 0
M  V30 1913 N 182.964 2.23199 -1.86093 0
M  V30 1914 H 182.511 1.39185 -2.16761 0
M  V30 1915 H 182.469 2.87333 -1.27621 0
M  V30 1916 N 186.241 1.57166 -0.116904 0
M  V30 1917 C 187.151 2.18745 0.847812 0
M  V30 1918 C 188.167 1.163 1.29423 0
M  V30 1919 O 189.343 1.48761 1.35765 0
M  V30 1920 C 186.408 2.77307 2.0809 0
M  V30 1921 C 185.469 3.94781 1.68661 0
M  V30 1922 C 184.702 4.50541 2.86091 0
M  V30 1923 O 184.925 4.05202 4.01456 0
M  V30 1924 O 183.859 5.41256 2.63298 0
M  V30 1925 H 187.685 3.01632 0.353778 0
M  V30 1926 H 185.27 1.49005 0.108599 0
M  V30 1927 H 187.152 3.14647 2.80313 0
M  V30 1928 H 185.827 1.97452 2.56504 0
M  V30 1929 H 184.734 3.62214 0.935518 0
M  V30 1930 H 186.067 4.76065 1.24991 0
M  V30 1931 N 187.719 -0.156864 1.56817 0
M  V30 1932 C 188.965 -0.872416 1.83076 0
M  V30 1933 C 189.298 -1.81261 0.697001 0
M  V30 1934 O 188.573 -1.92171 -0.30008 0
M  V30 1935 C 188.856 -1.65551 3.19789 0
M  V30 1936 C 188.709 -0.737467 4.43713 0
M  V30 1937 C 190.028 -2.62012 3.53606 0
M  V30 1938 H 187.147 -0.315715 0.665953 0
M  V30 1939 H 189.789 -0.138004 1.89498 0
M  V30 1940 H 187.939 -2.28159 3.14445 0
M  V30 1941 H 189.611 -0.123143 4.61136 0
M  V30 1942 H 187.854 -0.0464067 4.33775 0
M  V30 1943 H 188.525 -1.32122 5.35955 0
M  V30 1944 H 191.001 -2.09525 3.59497 0
M  V30 1945 H 189.877 -3.13861 4.50314 0
M  V30 1946 H 190.138 -3.42902 2.79053 0
M  V30 1947 N 189.197 -1.51736 -0.425897 0
M  V30 1948 C 190.443 -1.65214 -1.1761 0
M  V30 1949 C 190.776 -0.372778 -1.90589 0
M  V30 1950 O 190.051 0.628139 -1.84078 0
M  V30 1951 C 190.334 -2.86312 -2.18398 0
M  V30 1952 C 190.187 -4.24254 -1.49426 0
M  V30 1953 C 191.506 -3.02925 -3.19256 0
M  V30 1954 H 188.625 -0.601263 -0.426206 0
M  V30 1955 H 191.267 -1.8425 -0.463882 0
M  V30 1956 H 189.417 -2.70213 -2.79137 0
M  V30 1957 H 191.089 -4.52046 -0.919362 0
M  V30 1958 H 189.332 -4.26426 -0.796432 0
M  V30 1959 H 190.003 -5.05001 -2.22885 0
M  V30 1960 H 192.479 -3.1781 -2.68581 0
M  V30 1961 H 191.355 -3.89199 -3.8706 0
M  V30 1962 H 191.616 -2.15497 -3.86023 0
M  V30 1963 N 190.675 0.682077 -1.42076 0
M  V30 1964 C 191.605 1.80796 -1.47767 0
M  V30 1965 C 192.586 1.6677 -0.334954 0
M  V30 1966 O 193.771 1.863 -0.548264 0
M  V30 1967 C 190.901 3.19038 -1.37229 0
M  V30 1968 C 189.855 3.47789 -2.49453 0
M  V30 1969 C 189.181 4.8553 -2.23975 0
M  V30 1970 C 190.481 3.45411 -3.91776 0
M  V30 1971 H 192.175 1.7629 -2.41997 0
M  V30 1972 H 189.721 0.846721 -1.16476 0
M  V30 1973 H 191.674 3.97528 -1.39821 0
M  V30 1974 H 190.398 3.24204 -0.394907 0
M  V30 1975 H 189.057 2.71657 -2.46166 0
M  V30 1976 H 188.705 4.87337 -1.24547 0
M  V30 1977 H 188.405 5.0573 -2.99184 0
M  V30 1978 H 189.929 5.66312 -2.28304 0
M  V30 1979 H 191.343 4.13882 -3.96705 0
M  V30 1980 H 189.74 3.77145 -4.66778 0
M  V30 1981 H 190.81 2.44122 -4.18966 0
M  V30 1982 N 192.153 1.28127 0.917671 0
M  V30 1983 C 193.116 1.11744 2.00115 0
M  V30 1984 C 194.116 0.0583052 1.60694 0
M  V30 1985 O 195.306 0.303755 1.71531 0
M  V30 1986 C 192.438 0.704862 3.33533 0
M  V30 1987 H 193.631 2.07966 2.16079 0
M  V30 1988 H 191.184 1.11058 1.09981 0
M  V30 1989 H 191.919 -0.258299 3.2327 0
M  V30 1990 H 191.704 1.4699 3.63505 0
M  V30 1991 H 193.194 0.612768 4.1308 0
M  V30 1992 N 193.631 -1.12557 1.10312 0
M  V30 1993 C 195.042 -1.65574 0.862678 0
M  V30 1994 C 195.393 -1.86566 -0.607256 0
M  V30 1995 O 194.518 -1.59121 -1.46662 0
M  V30 1996 C 195.113 -3.00776 1.55947 0
M  V30 1997 C 193.672 -3.50748 1.36576 0
M  V30 1998 C 192.819 -2.25797 1.60968 0
M  V30 1999 H 195.77 -0.963552 1.26101 0
M  V30 2000 H 195.791 -3.67185 0.997753 0
M  V30 2001 H 195.303 -2.85465 2.62928 0
M  V30 2002 H 193.404 -3.71245 0.317531 0
M  V30 2003 H 193.517 -4.30289 2.10686 0
M  V30 2004 H 191.881 -2.32841 1.03234 0
M  V30 2005 H 192.664 -2.13043 2.69198 0
M  V30 2006 N 195.109 -0.891671 -1.2995 0
M  V30 2007 C 196.042 -0.307994 -2.26112 0
M  V30 2008 C 197.02 0.575262 -1.52084 0
M  V30 2009 O 198.204 0.523864 -1.81074 0
M  V30 2010 C 195.331 0.561734 -3.34009 0
M  V30 2011 C 194.377 -0.253107 -4.25748 0
M  V30 2012 S 195.21 -1.64572 -5.09584 0
M  V30 2013 C 196.366 -0.782699 -6.20987 0
M  V30 2014 H 196.599 -1.12309 -2.75271 0
M  V30 2015 H 194.132 -0.691509 -1.38049 0
M  V30 2016 H 196.09 1.05777 -3.96638 0
M  V30 2017 H 194.751 1.35099 -2.83561 0
M  V30 2018 H 193.944 0.410908 -5.02322 0
M  V30 2019 H 193.546 -0.682004 -3.67729 0
M  V30 2020 H 195.838 -0.00257476 -6.775 0
M  V30 2021 H 196.781 -1.52026 -6.91588 0
M  V30 2022 H 197.189 -0.340638 -5.63471 0
M  V30 2023 N 196.587 1.43421 -0.653314 0
M  V30 2024 C 197.834 2.01812 -0.166745 0
M  V30 2025 C 198.162 1.51535 1.21931 0
M  V30 2026 O 197.417 0.698975 1.82792 0
M  V30 2027 C 197.716 3.57176 -0.126623 0
M  V30 2028 C 197.382 4.26798 -1.45444 0
M  V30 2029 C 196.044 4.45534 -1.81805 0
M  V30 2030 C 198.396 4.66225 -2.32989 0
M  V30 2031 C 195.724 5.00961 -3.05377 0
M  V30 2032 C 198.076 5.23021 -3.55853 0
M  V30 2033 C 196.74 5.39973 -3.9241 0
M  V30 2034 H 196.01 0.738484 -0.0610162 0
M  V30 2035 H 198.657 1.71896 -0.84404 0
M  V30 2036 H 196.962 3.86634 0.634123 0
M  V30 2037 H 198.659 4.00112 0.266723 0
M  V30 2038 H 195.249 4.12561 -1.16153 0
M  V30 2039 H 199.433 4.51443 -2.06187 0
M  V30 2040 H 194.689 5.12271 -3.3375 0
M  V30 2041 H 198.863 5.52518 -4.23907 0
M  V30 2042 H 196.49 5.82687 -4.88242 0
M  V30 2043 N 198.065 0.39524 1.52563 0
M  V30 2044 C 198.975 -0.444232 2.30356 0
M  V30 2045 C 199.991 -1.06615 1.37511 0
M  V30 2046 O 201.167 -1.07067 1.70583 0
M  V30 2047 C 198.232 -1.55315 3.09964 0
M  V30 2048 C 197.293 -0.955734 4.18526 0
M  V30 2049 C 196.526 -2.01181 4.9433 0
M  V30 2050 O 196.749 -3.22781 4.70285 0
M  V30 2051 O 195.683 -1.62579 5.79527 0
M  V30 2052 H 199.509 0.189667 3.03107 0
M  V30 2053 H 197.094 0.1588 1.48554 0
M  V30 2054 H 198.976 -2.19724 3.59582 0
M  V30 2055 H 197.651 -2.17191 2.4002 0
M  V30 2056 H 196.558 -0.274743 3.7309 0
M  V30 2057 H 197.891 -0.381109 4.90722 0
M  V30 2058 N 199.544 -1.57102 0.125237 0
M  V30 2059 C 200.96 -1.57915 -0.231322 0
M  V30 2060 C 201.16 -1.13833 -1.66266 0
M  V30 2061 O 200.216 -0.828581 -2.38518 0
M  V30 2062 C 201.529 -3.00699 0.00766489 0
M  V30 2063 C 203.077 -3.12947 -0.0577483 0
M  V30 2064 C 203.552 -4.57742 0.153626 0
M  V30 2065 N 205.043 -4.63092 0.0998073 0
M  V30 2066 C 205.778 -5.72905 0.238174 0
M  V30 2067 N 205.274 -6.91445 0.433057 0
M  V30 2068 N 207.067 -5.6182 0.177308 0
M  V30 2069 H 199.218 -1.84055 1.06007 0
M  V30 2070 H 201.481 -0.850905 0.417929 0
M  V30 2071 H 201.187 -3.3726 0.997431 0
M  V30 2072 H 201.061 -3.70236 -0.721452 0
M  V30 2073 H 203.448 -2.7624 -1.03804 0
M  V30 2074 H 203.529 -2.4594 0.70335 0
M  V30 2075 H 203.173 -4.95149 1.13092 0
M  V30 2076 H 203.103 -5.22848 -0.627534 0
M  V30 2077 H 205.594 -3.77871 -0.047051 0
M  V30 2078 H 205.907 -7.70985 0.529332 0
M  V30 2079 H 204.252 -6.93415 0.469109 0
M  V30 2080 H 207.443 -4.68093 0.0259748 0
M  V30 2081 H 207.616 -6.47357 0.288582 0
M  V30 2082 N 201.022 0.148545 -1.56898 0
M  V30 2083 C 201.952 1.18524 -2.01182 0
M  V30 2084 C 202.933 1.4489 -0.891123 0
M  V30 2085 O 204.118 1.55836 -1.15882 0
M  V30 2086 C 201.248 2.51879 -2.39112 0
M  V30 2087 C 200.202 2.40038 -3.54353 0
M  V30 2088 C 199.528 3.78089 -3.78091 0
M  V30 2089 C 200.828 1.88577 -4.87069 0
M  V30 2090 H 202.522 0.817029 -2.88036 0
M  V30 2091 H 200.068 0.391575 -1.38574 0
M  V30 2092 H 202.021 3.24627 -2.68692 0
M  V30 2093 H 200.745 2.90532 -1.49193 0
M  V30 2094 H 199.404 1.69742 -3.24936 0
M  V30 2095 H 199.052 4.14175 -2.85426 0
M  V30 2096 H 198.752 3.71028 -4.55645 0
M  V30 2097 H 200.276 4.52387 -4.10095 0
M  V30 2098 H 201.69 2.51117 -5.15377 0
M  V30 2099 H 200.087 1.9241 -5.68417 0
M  V30 2100 H 201.157 0.84136 -4.77545 0
M  V30 2101 N 202.5 1.5196 0.417844 0
M  V30 2102 C 203.725 1.69717 1.1921 0
M  V30 2103 C 204.15 0.402148 1.83751 0
M  V30 2104 O 203.508 -0.639593 1.69643 0
M  V30 2105 C 203.556 2.82794 2.2374 0
M  V30 2106 O 202.66 2.47756 3.29683 0
M  V30 2107 H 202.001 0.565263 0.348387 0
M  V30 2108 H 204.531 1.98621 0.490985 0
M  V30 2109 H 204.541 3.07452 2.68212 0
M  V30 2110 H 203.216 3.76756 1.76146 0
M  V30 2111 H 201.793 2.33739 2.90552 0
M  V30 2112 N 203.978 -0.674533 1.42435 0
M  V30 2113 C 205.206 -1.46283 1.46317 0
M  V30 2114 C 205.621 -1.88653 0.0745836 0
M  V30 2115 O 204.978 -1.58151 -0.91074 0
M  V30 2116 C 205.029 -2.71178 2.3905 0
M  V30 2117 O 204.75 -2.30586 3.72507 0
M  V30 2118 C 206.251 -3.64738 2.51955 0
M  V30 2119 H 203.471 -0.450104 0.497642 0
M  V30 2120 H 206.015 -0.828792 1.86953 0
M  V30 2121 H 204.17 -3.3077 2.01667 0
M  V30 2122 H 204.584 -3.11241 4.22172 0
M  V30 2123 H 206.058 -4.49096 3.20962 0
M  V30 2124 H 206.535 -4.10656 1.55752 0
M  V30 2125 H 207.141 -3.11038 2.90061 0
M  V30 2126 N 205.456 -1.28612 -0.910864 0
M  V30 2127 C 206.366 -1.14643 -2.0468 0
M  V30 2128 C 207.382 -0.0723121 -1.7385 0
M  V30 2129 O 208.558 -0.282178 -1.99413 0
M  V30 2130 C 205.623 -0.812561 -3.37044 0
M  V30 2131 C 204.684 -1.96935 -3.81465 0
M  V30 2132 C 203.917 -1.65131 -5.07511 0
M  V30 2133 O 204.14 -0.567013 -5.67575 0
M  V30 2134 O 203.074 -2.49585 -5.47714 0
M  V30 2135 H 206.9 -2.1001 -2.19384 0
M  V30 2136 H 204.485 -1.07958 -1.03274 0
M  V30 2137 H 206.367 -0.640441 -4.16505 0
M  V30 2138 H 205.042 0.111426 -3.23508 0
M  V30 2139 H 203.949 -2.19664 -3.02818 0
M  V30 2140 H 205.282 -2.87414 -3.99567 0
M  V30 2141 N 206.934 1.1197 -1.10907 0
M  V30 2142 C 208.159 1.87942 -0.877064 0
M  V30 2143 C 208.584 1.79341 0.567314 0
M  V30 2144 O 207.942 1.15184 1.40009 0
M  V30 2145 C 207.99 3.34926 -1.33629 0
M  V30 2146 O 207.094 4.09303 -0.504447 0
M  V30 2147 H 206.435 0.583785 -0.316371 0
M  V30 2148 H 208.965 1.4157 -1.47712 0
M  V30 2149 H 208.975 3.8577 -1.32837 0
M  V30 2150 H 207.65 3.40504 -2.3881 0
M  V30 2151 H 206.227 3.68393 -0.577993 0
M  V30 2152 N 208.412 0.89855 1.29475 0
M  V30 2153 C 209.658 0.524658 1.95896 0
M  V30 2154 C 209.991 -0.926468 1.70676 0
M  V30 2155 O 209.266 -1.65665 1.01908 0
M  V30 2156 C 209.549 0.81633 3.50725 0
M  V30 2157 C 209.402 2.31907 3.85408 0
M  V30 2158 C 210.721 0.302038 4.39062 0
M  V30 2159 H 207.84 0.19209 0.711527 0
M  V30 2160 H 210.482 1.12502 1.53112 0
M  V30 2161 H 208.632 0.305369 3.87298 0
M  V30 2162 H 210.304 2.89949 3.58786 0
M  V30 2163 H 208.547 2.78027 3.32992 0
M  V30 2164 H 209.218 2.47373 4.93468 0
M  V30 2165 H 211.694 0.739551 4.09475 0
M  V30 2166 H 210.57 0.535331 5.46283 0
M  V30 2167 H 210.831 -0.797216 4.34853 0
M  V30 2168 N 209.89 -1.43072 0.660911 0
M  V30 2169 C 210.822 -2.29108 -0.0647641 0
M  V30 2170 C 211.835 -1.42928 -0.779448 0
M  V30 2171 O 213.024 -1.66788 -0.635921 0
M  V30 2172 C 210.124 -3.20032 -1.11503 0
M  V30 2173 C 209.297 -4.34792 -0.476955 0
M  V30 2174 C 208.356 -5.06534 -1.42513 0
M  V30 2175 O 207.382 -5.61538 -0.930771 0
M  V30 2176 N 208.584 -5.1075 -2.75889 0
M  V30 2177 H 211.349 -2.92029 0.673731 0
M  V30 2178 H 208.91 -1.53846 0.50427 0
M  V30 2179 H 210.902 -3.64892 -1.75032 0
M  V30 2180 H 209.472 -2.58658 -1.75541 0
M  V30 2181 H 208.692 -3.92752 0.337572 0
M  V30 2182 H 209.98 -5.0879 -0.0318525 0
M  V30 2183 H 209.378 -4.67447 -3.18606 0
M  V30 2184 H 207.935 -5.59302 -3.347 0
M  V30 2185 N 211.368 -0.403325 -1.52352 0
M  V30 2186 C 212.278 0.432009 -2.30588 0
M  V30 2187 C 213.294 1.05884 -1.38075 0
M  V30 2188 O 214.47 1.06161 -1.71148 0
M  V30 2189 C 211.535 1.53669 -3.10784 0
M  V30 2190 C 210.596 0.933525 -4.19027 0
M  V30 2191 C 209.829 1.98557 -4.9539 0
M  V30 2192 O 210.052 3.20283 -4.71991 0
M  V30 2193 O 208.986 1.59504 -5.80381 0
M  V30 2194 H 212.812 -0.205739 -3.03002 0
M  V30 2195 H 210.397 -0.166675 -1.48467 0
M  V30 2196 H 212.279 2.17814 -3.60742 0
M  V30 2197 H 210.954 2.15915 -2.41169 0
M  V30 2198 H 209.861 0.254954 -3.7323 0
M  V30 2199 H 211.194 0.35508 -4.90918 0
M  V30 2200 N 212.846 1.57033 -0.133567 0
M  V30 2201 C 213.778 2.13176 0.841944 0
M  V30 2202 C 214.791 1.07794 1.22001 0
M  V30 2203 O 215.98 1.35117 1.16643 0
M  V30 2204 C 213.08 2.62847 2.13926 0
M  V30 2205 C 212.253 3.92486 1.93064 0
M  V30 2206 C 211.312 4.27605 3.0666 0
M  V30 2207 O 210.338 4.96168 2.78937 0
M  V30 2208 N 211.54 3.861 4.33483 0
M  V30 2209 H 214.305 2.97503 0.362192 0
M  V30 2210 H 211.866 1.61821 0.05042 0
M  V30 2211 H 213.858 2.83363 2.88942 0
M  V30 2212 H 212.428 1.83319 2.53205 0
M  V30 2213 H 211.648 3.80732 1.02159 0
M  V30 2214 H 212.936 4.77225 1.76447 0
M  V30 2215 H 212.334 3.30828 4.58878 0
M  V30 2216 H 210.891 4.11694 5.05323 0
M  V30 2217 N 214.325 -0.140222 1.56975 0
M  V30 2218 C 215.255 -1.17456 2.01808 0
M  V30 2219 C 216.236 -1.44415 0.898794 0
M  V30 2220 O 217.421 -1.5522 1.16707 0
M  V30 2221 C 214.551 -2.50607 2.40444 0
M  V30 2222 C 213.505 -2.38155 3.55621 0
M  V30 2223 C 212.831 -3.76078 3.80091 0
M  V30 2224 C 214.131 -1.85991 4.88062 0
M  V30 2225 H 215.825 -0.801743 2.88466 0
M  V30 2226 H 213.371 -0.38422 1.38779 0
M  V30 2227 H 215.324 -3.23197 2.7041 0
M  V30 2228 H 214.048 -2.89737 1.50732 0
M  V30 2229 H 212.707 -1.68016 3.25832 0
M  V30 2230 H 212.355 -4.12656 2.87618 0
M  V30 2231 H 212.055 -3.68606 4.57606 0
M  V30 2232 H 213.579 -4.50206 4.12488 0
M  V30 2233 H 214.993 -2.4838 5.16701 0
M  V30 2234 H 213.39 -1.89393 5.6943 0
M  V30 2235 H 214.46 -0.816023 4.77984 0
M  V30 2236 N 215.803 -1.52179 -0.40978 0
M  V30 2237 C 217.214 -1.58377 -0.988615 0
M  V30 2238 C 217.565 -0.423879 -1.91566 0
M  V30 2239 O 216.69 0.455844 -2.11544 0
M  V30 2240 C 217.285 -2.87044 -1.79976 0
M  V30 2241 C 215.844 -2.95722 -2.32863 0
M  V30 2242 C 214.991 -2.53309 -1.12828 0
M  V30 2243 H 217.942 -1.57558 -0.190039 0
M  V30 2244 H 217.963 -2.7236 -2.65707 0
M  V30 2245 H 217.475 -3.71444 -1.12478 0
M  V30 2246 H 215.576 -2.15814 -3.03735 0
M  V30 2247 H 215.689 -3.99951 -2.63773 0
M  V30 2248 H 214.053 -2.07142 -1.48204 0
M  V30 2249 H 214.836 -3.40082 -0.46897 0
M  V30 2250 N 217.281 0.66697 -1.42791 0
M  V30 2251 C 218.511 1.45294 -1.46878 0
M  V30 2252 C 218.919 1.89027 -0.0809861 0
M  V30 2253 O 218.262 1.59219 0.916246 0
M  V30 2254 C 218.324 2.72908 -2.34012 0
M  V30 2255 C 217.988 2.51203 -3.81767 0
M  V30 2256 C 218.985 2.15302 -4.73224 0
M  V30 2257 C 216.67 2.65954 -4.26115 0
M  V30 2258 C 218.664 1.94431 -6.07022 0
M  V30 2259 C 216.351 2.44699 -5.59969 0
M  V30 2260 C 217.349 2.08992 -6.5024 0
M  V30 2261 O 217.037 1.87948 -7.81621 0
M  V30 2262 H 216.769 0.453306 -0.501487 0
M  V30 2263 H 219.323 0.826232 -1.88049 0
M  V30 2264 H 217.553 3.38089 -1.87703 0
M  V30 2265 H 219.242 3.34816 -2.29462 0
M  V30 2266 H 220.008 2.03495 -4.40244 0
M  V30 2267 H 215.887 2.92724 -3.56137 0
M  V30 2268 H 219.431 1.66484 -6.77443 0
M  V30 2269 H 215.328 2.56105 -5.9252 0
M  V30 2270 H 216.096 2.02483 -7.93059 0
M  V30 2271 N 218.759 1.29093 0.90403 0
M  V30 2272 C 219.984 1.19809 1.69294 0
M  V30 2273 C 220.409 -0.238481 1.86582 0
M  V30 2274 O 219.767 -1.1723 1.383 0
M  V30 2275 C 219.815 1.91202 3.05736 0
M  V30 2276 O 218.919 1.22611 3.93752 0
M  V30 2277 H 218.26 0.415385 0.518027 0
M  V30 2278 H 220.79 1.70586 1.12967 0
M  V30 2279 H 220.8 1.99487 3.55906 0
M  V30 2280 H 219.475 2.95692 2.92471 0
M  V30 2281 H 218.052 1.22554 3.52186 0
M  V30 2282 N 220.237 -1.11381 1.11499 0
M  V30 2283 C 221.483 -1.83403 0.865512 0
M  V30 2284 C 221.816 -1.84459 -0.607329 0
M  V30 2285 O 221.091 -1.29811 -1.44842 0
M  V30 2286 C 221.374 -3.30552 1.42855 0
M  V30 2287 C 221.227 -3.37886 2.96906 0
M  V30 2288 C 222.546 -4.26643 1.08 0
M  V30 2289 H 219.665 -0.665879 0.31587 0
M  V30 2290 H 222.307 -1.30601 1.37998 0
M  V30 2291 H 220.457 -3.75648 0.990985 0
M  V30 2292 H 222.129 -3.01343 3.49271 0
M  V30 2293 H 220.372 -2.78088 3.32941 0
M  V30 2294 H 221.043 -4.41458 3.31389 0
M  V30 2295 H 223.519 -3.89729 1.45775 0
M  V30 2296 H 222.395 -5.27986 1.50072 0
M  V30 2297 H 222.656 -4.42099 -0.00915037 0
M  V30 2298 N 221.715 -0.905404 -1.28997 0
M  V30 2299 C 222.943 -0.549846 -1.9946 0
M  V30 2300 C 223.358 0.866834 -1.67724 0
M  V30 2301 O 222.715 1.57298 -0.925404 0
M  V30 2302 C 222.766 -0.739387 -3.53858 0
M  V30 2303 O 222.487 -2.10031 -3.84472 0
M  V30 2304 C 223.988 -0.389541 -4.41585 0
M  V30 2305 H 221.208 -0.210429 -0.637151 0
M  V30 2306 H 223.752 -1.21632 -1.64396 0
M  V30 2307 H 221.907 -0.120023 -3.87214 0
M  V30 2308 H 222.321 -2.13385 -4.79132 0
M  V30 2309 H 223.795 -0.572972 -5.49018 0
M  V30 2310 H 224.272 0.673756 -4.34001 0
M  V30 2311 H 224.878 -0.986089 -4.1371 0
M  V30 2312 N 223.193 1.4272 -0.668489 0
M  V30 2313 C 224.123 2.335 -0.000100175 0
M  V30 2314 C 225.104 1.50328 0.795964 0
M  V30 2315 O 226.289 1.78949 0.754385 0
M  V30 2316 C 223.419 3.33874 0.956302 0
M  V30 2317 C 222.373 4.27152 0.269278 0
M  V30 2318 C 221.699 5.17684 1.33818 0
M  V30 2319 C 222.999 5.15373 -0.847805 0
M  V30 2320 H 224.693 2.89639 -0.758244 0
M  V30 2321 H 222.239 1.39269 -0.366079 0
M  V30 2322 H 224.192 3.9629 1.43292 0
M  V30 2323 H 222.916 2.76025 1.74579 0
M  V30 2324 H 221.575 3.66123 -0.187042 0
M  V30 2325 H 221.223 4.56165 2.1195 0
M  V30 2326 H 220.923 5.80918 0.883659 0
M  V30 2327 H 222.447 5.82974 1.81586 0
M  V30 2328 H 223.861 5.7151 -0.452681 0
M  V30 2329 H 222.258 5.87407 -1.22773 0
M  V30 2330 H 223.328 4.5415 -1.69929 0
M  V30 2331 N 224.671 0.411399 1.52136 0
M  V30 2332 C 225.92 -0.165009 2.01024 0
M  V30 2333 C 226.233 -1.4603 1.30133 0
M  V30 2334 O 227.439 -2.1181 1.69849 0
M  V30 2335 C 225.895 -0.344618 3.58246 0
M  V30 2336 C 225.503 0.938716 4.38055 0
M  V30 2337 C 227.247 -0.876195 4.15359 0
M  V30 2338 C 225.154 0.726172 5.86925 0
M  V30 2339 H 224.084 -0.0654407 0.751155 0
M  V30 2340 H 226.735 0.537192 1.75461 0
M  V30 2341 H 225.117 -1.10921 3.80148 0
M  V30 2342 H 226.291 1.70963 4.27912 0
M  V30 2343 H 224.606 1.39688 3.92271 0
M  V30 2344 H 227.203 -1.05128 5.24263 0
M  V30 2345 H 227.546 -1.85152 3.7286 0
M  V30 2346 H 228.079 -0.170607 3.97434 0
M  V30 2347 H 224.818 1.67312 6.33788 0
M  V30 2348 H 224.338 -0.00540283 5.998 0
M  V30 2349 H 226.017 0.369231 6.45946 0
M  V30 2350 N 226.149 -1.5696 0.141893 0
M  V30 2351 C 227.374 -2.00754 -0.520838 0
M  V30 2352 C 227.799 -1.0213 -1.57959 0
M  V30 2353 O 227.157 0.00371324 -1.813 0
M  V30 2354 C 227.205 -3.43318 -1.10294 0
M  V30 2355 O 226.309 -3.47679 -2.21795 0
M  V30 2356 H 225.65 -0.651564 -0.127908 0
M  V30 2357 H 228.18 -2.03221 0.23712 0
M  V30 2358 H 228.19 -3.82012 -1.43287 0
M  V30 2359 H 226.865 -4.14608 -0.327574 0
M  V30 2360 H 225.442 -3.20824 -1.9007 0
M  V30 2361 N 227.627 0.131896 -1.57047 0
M  V30 2362 C 228.56 1.19236 -1.94571 0
M  V30 2363 C 229.538 1.40782 -0.813576 0
M  V30 2364 O 230.722 1.55148 -1.07058 0
M  V30 2365 C 227.849 2.54858 -2.23081 0
M  V30 2366 C 226.895 2.49817 -3.45679 0
M  V30 2367 S 227.728 1.95036 -4.98719 0
M  V30 2368 C 228.884 3.32357 -5.30367 0
M  V30 2369 H 229.117 0.872297 -2.84215 0
M  V30 2370 H 226.65 0.338134 -1.50652 0
M  V30 2371 H 228.608 3.32898 -2.40185 0
M  V30 2372 H 227.269 2.84047 -1.34074 0
M  V30 2373 H 226.462 3.49688 -3.62952 0
M  V30 2374 H 226.064 1.79892 -3.27895 0
M  V30 2375 H 228.356 4.28525 -5.2476 0
M  V30 2376 H 229.299 3.19923 -6.31708 0
M  V30 2377 H 229.707 3.3019 -4.57859 0
M  V30 2378 N 229.106 1.52395 0.401703 0
M  V30 2379 C 230.517 1.58899 0.980202 0
M  V30 2380 C 230.868 0.434032 1.91339 0
M  V30 2381 O 229.993 -0.444619 2.11783 0
M  V30 2382 C 230.588 2.87994 1.78451 0
M  V30 2383 C 229.147 2.96953 2.31292 0
M  V30 2384 C 228.294 2.53903 1.11483 0
M  V30 2385 H 231.245 1.57657 0.18168 0
M  V30 2386 H 231.266 2.73765 2.64259 0
M  V30 2387 H 230.778 3.72035 1.10506 0
M  V30 2388 H 228.879 2.17422 3.02586 0
M  V30 2389 H 228.992 4.01344 2.61649 0
M  V30 2390 H 227.356 2.07925 1.47104 0
M  V30 2391 H 228.139 3.40326 0.450928 0
M  V30 2392 N 230.584 -0.659388 1.43143 0
M  V30 2393 C 231.547 -1.75432 1.47501 0
M  V30 2394 C 232.547 -1.56707 0.360512 0
M  V30 2395 O 233.737 -1.62717 0.622002 0
M  V30 2396 C 230.869 -3.14239 1.32162 0
M  V30 2397 H 232.062 -1.7295 2.45006 0
M  V30 2398 H 229.615 -0.870469 1.29817 0
M  V30 2399 H 230.35 -3.22336 0.356401 0
M  V30 2400 H 230.135 -3.29235 2.12948 0
M  V30 2401 H 231.625 -3.94094 1.3813 0
M  V30 2402 N 232.062 -1.29571 -0.897171 0
M  V30 2403 C 233.29 -1.20583 -1.68129 0
M  V30 2404 C 233.705 0.233181 -1.87354 0
M  V30 2405 O 233.062 1.15579 -1.41236 0
M  V30 2406 C 233.113 -1.91772 -3.06441 0
M  V30 2407 O 232.834 -3.30053 -2.88091 0
M  V30 2408 C 234.335 -1.89291 -4.00854 0
M  V30 2409 H 231.555 -0.417826 -0.525036 0
M  V30 2410 H 234.099 -1.70987 -1.12177 0
M  V30 2411 H 232.254 -1.45196 -3.59161 0
M  V30 2412 H 232.668 -3.65942 -3.75748 0
M  V30 2413 H 234.142 -2.43662 -4.95311 0
M  V30 2414 H 234.619 -0.869014 -4.30517 0
M  V30 2415 H 235.225 -2.35622 -3.54066 0
M  V30 2416 N 233.54 1.10788 -1.12088 0
M  V30 2417 C 234.768 1.86461 -0.896651 0
M  V30 2418 C 235.183 1.80492 0.553912 0
M  V30 2419 O 234.54 1.19102 1.38278 0
M  V30 2420 C 234.591 3.35006 -1.35843 0
M  V30 2421 O 234.312 3.40866 -2.75213 0
M  V30 2422 C 235.813 4.27565 -1.1706 0
M  V30 2423 H 233.033 0.589425 -0.320654 0
M  V30 2424 H 235.577 1.40076 -1.48993 0
M  V30 2425 H 233.732 3.7887 -0.808458 0
M  V30 2426 H 234.146 4.33411 -2.9539 0
M  V30 2427 H 235.62 5.30007 -1.54263 0
M  V30 2428 H 236.097 4.3906 -0.110814 0
M  V30 2429 H 236.703 3.89501 -1.70789 0
M  V30 2430 N 235.018 0.912232 1.28515 0
M  V30 2431 C 235.928 0.404506 2.31086 0
M  V30 2432 C 236.944 -0.50707 1.66448 0
M  V30 2433 O 238.12 -0.393624 1.97516 0
M  V30 2434 C 235.185 -0.348572 3.44943 0
M  V30 2435 C 234.246 0.59604 4.25142 0
M  V30 2436 C 233.479 -0.121194 5.33562 0
M  V30 2437 O 233.702 -1.34317 5.5436 0
M  V30 2438 O 232.636 0.542716 5.99448 0
M  V30 2439 H 236.462 1.25579 2.76521 0
M  V30 2440 H 234.047 0.676998 1.33181 0
M  V30 2441 H 235.929 -0.77395 4.14232 0
M  V30 2442 H 234.604 -1.17571 3.01594 0
M  V30 2443 H 233.511 1.07079 3.58448 0
M  V30 2444 H 234.844 1.38995 4.72167 0
M  V30 2445 N 236.496 -1.42363 0.676048 0
M  V30 2446 C 237.744 -2.01123 0.198437 0
M  V30 2447 C 238.065 -1.53731 -1.19966 0
M  V30 2448 O 237.335 -0.759518 -1.80577 0
M  V30 2449 H 235.915 -0.743678 0.0703721 0
M  V30 2450 H 238.577 -1.74263 0.872837 0
M  V30 2451 H 237.673 -3.11454 0.200686 0
M  V30 2452 N 237.974 -0.419461 -1.51915 0
M  V30 2453 C 239.39 -0.0708431 -1.59443 0
M  V30 2454 C 239.59 1.41796 -1.43164 0
M  V30 2455 O 238.646 2.18596 -1.26381 0
M  V30 2456 C 239.959 -0.574991 -2.95151 0
M  V30 2457 C 241.507 -0.533867 -3.08413 0
M  V30 2458 C 241.982 -1.01469 -4.46618 0
M  V30 2459 N 243.473 -0.971939 -4.52888 0
M  V30 2460 C 244.208 -1.31505 -5.58116 0
M  V30 2461 N 243.704 -1.73014 -6.70849 0
M  V30 2462 N 245.497 -1.23436 -5.48379 0
M  V30 2463 H 237.648 -1.38836 -1.60743 0
M  V30 2464 H 239.911 -0.570998 -0.756747 0
M  V30 2465 H 239.617 -1.61597 -3.12377 0
M  V30 2466 H 239.491 0.00979777 -3.77199 0
M  V30 2467 H 241.878 0.498086 -2.90866 0
M  V30 2468 H 241.959 -1.15484 -2.28248 0
M  V30 2469 H 241.603 -2.04502 -4.6491 0
M  V30 2470 H 241.533 -0.370433 -5.25295 0
M  V30 2471 H 244.024 -0.666893 -3.71969 0
M  V30 2472 H 244.337 -1.97479 -7.47143 0
M  V30 2473 H 242.682 -1.76926 -6.72103 0
M  V30 2474 H 245.873 -0.908869 -4.59192 0
M  V30 2475 H 246.046 -1.50506 -6.30279 0
M  V30 2476 N 239.452 1.56882 -0.150215 0
M  V30 2477 C 240.868 1.58263 0.20617 0
M  V30 2478 C 241.068 1.16464 1.64434 0
M  V30 2479 O 240.124 0.866422 2.3717 0
M  V30 2480 C 241.437 3.00649 -0.0555025 0
M  V30 2481 C 242.985 3.12999 0.00795388 0
M  V30 2482 C 243.46 4.5744 -0.226429 0
M  V30 2483 N 244.951 4.62875 -0.173469 0
M  V30 2484 C 245.686 5.72454 -0.329288 0
M  V30 2485 N 245.182 6.90669 -0.543005 0
M  V30 2486 N 246.975 5.61467 -0.266666 0
M  V30 2487 H 239.126 1.82345 -1.08922 0
M  V30 2488 H 241.389 0.844149 -0.431413 0
M  V30 2489 H 241.095 3.3563 -1.05096 0
M  V30 2490 H 240.969 3.71337 0.66246 0
M  V30 2491 H 243.356 2.77857 0.993966 0
M  V30 2492 H 243.437 2.4479 -0.742388 0
M  V30 2493 H 243.081 4.93287 -1.20956 0
M  V30 2494 H 243.011 5.2378 0.544274 0
M  V30 2495 H 245.502 3.77898 -0.0130709 0
M  V30 2496 H 245.815 7.70045 -0.651922 0
M  V30 2497 H 244.16 6.92581 -0.579366 0
M  V30 2498 H 247.351 4.67992 -0.100441 0
M  V30 2499 H 247.524 6.46816 -0.391535 0
M  V30 2500 N 240.93 -0.123565 1.57115 0
M  V30 2501 C 242.178 -0.83051 1.84247 0
M  V30 2502 C 242.499 -1.80629 0.73471 0
M  V30 2503 O 241.769 -1.94403 -0.241688 0
M  V30 2504 H 240.349 -0.309694 0.679778 0
M  V30 2505 H 243.011 -0.111976 1.94578 0
M  V30 2506 H 242.107 -1.37852 2.80006 0
M  V30 2507 N 242.408 -1.52605 -0.393616 0
M  V30 2508 C 243.655 -1.67424 -1.1391 0
M  V30 2509 C 243.983 -0.411859 -1.90089 0
M  V30 2510 O 243.238 0.605626 -1.86093 0
M  V30 2511 C 243.537 -2.85721 -2.14705 0
M  V30 2512 C 243.203 -4.23342 -1.55218 0
M  V30 2513 C 241.865 -4.60771 -1.3872 0
M  V30 2514 C 244.217 -5.09041 -1.11924 0
M  V30 2515 C 241.545 -5.81563 -0.774689 0
M  V30 2516 C 243.897 -6.30452 -0.520853 0
M  V30 2517 C 242.561 -6.66617 -0.343134 0
M  V30 2518 H 241.831 -0.612648 -0.416826 0
M  V30 2519 H 244.478 -1.8674 -0.424315 0
M  V30 2520 H 242.783 -2.60803 -2.92385 0
M  V30 2521 H 244.48 -2.94382 -2.72288 0
M  V30 2522 H 241.07 -3.93855 -1.69045 0
M  V30 2523 H 245.254 -4.80695 -1.23473 0
M  V30 2524 H 240.51 -6.08196 -0.625154 0
M  V30 2525 H 244.684 -6.96175 -0.177065 0
M  V30 2526 H 242.311 -7.60083 0.133571 0
M  V30 2527 N 243.887 0.651787 -1.4349 0
M  V30 2528 C 245.112 1.44434 -1.48841 0
M  V30 2529 C 245.537 1.8779 -0.107955 0
M  V30 2530 O 244.895 1.57464 0.898602 0
M  V30 2531 C 244.943 2.65458 -2.44059 0
M  V30 2532 O 244.047 3.64566 -1.92784 0
M  V30 2533 H 243.388 0.433005 -0.503391 0
M  V30 2534 H 245.918 0.797451 -1.88419 0
M  V30 2535 H 245.928 3.13255 -2.6141 0
M  V30 2536 H 244.603 2.33244 -3.4434 0
M  V30 2537 H 243.18 3.23716 -1.851 0
M  V30 2538 N 245.365 1.30045 0.890287 0
M  V30 2539 C 246.611 1.18737 1.64406 0
M  V30 2540 C 246.944 -0.258525 1.92472 0
M  V30 2541 O 246.219 -1.18562 1.54186 0
M  V30 2542 C 246.502 2.01087 2.98724 0
M  V30 2543 C 246.355 3.53867 2.77665 0
M  V30 2544 C 247.674 1.84457 3.9958 0
M  V30 2545 H 244.793 0.432698 0.596608 0
M  V30 2546 H 247.435 1.5962 1.0306 0
M  V30 2547 H 245.585 1.66349 3.51084 0
M  V30 2548 H 247.257 3.98637 2.32133 0
M  V30 2549 H 245.5 3.78318 2.12269 0
M  V30 2550 H 246.171 4.06772 3.7315 0
M  V30 2551 H 248.647 2.14817 3.56361 0
M  V30 2552 H 247.523 2.44411 4.91482 0
M  V30 2553 H 247.784 0.802276 4.3476 0
M  V30 2554 N 246.843 -1.10192 1.12674 0
M  V30 2555 C 248.068 -1.86523 0.906853 0
M  V30 2556 C 248.493 -1.80221 -0.538711 0
M  V30 2557 O 247.851 -1.17396 -1.38158 0
M  V30 2558 C 247.899 -3.32758 1.3894 0
M  V30 2559 O 247.003 -4.08449 0.5695 0
M  V30 2560 H 246.344 -0.578678 0.325619 0
M  V30 2561 H 248.874 -1.39203 1.49946 0
M  V30 2562 H 248.884 -3.83608 1.38958 0
M  V30 2563 H 247.559 -3.36661 2.44197 0
M  V30 2564 H 246.136 -3.67427 0.636528 0
M  V30 2565 N 248.321 -0.919034 -1.28029 0
M  V30 2566 C 249.567 -0.555757 -1.95036 0
M  V30 2567 C 249.9 0.899198 -1.72128 0
M  V30 2568 O 249.175 1.64023 -1.04531 0
M  V30 2569 C 249.458 -0.872024 -3.49382 0
M  V30 2570 C 249.311 -2.3801 -3.81669 0
M  V30 2571 C 250.63 -0.37185 -4.38526 0
M  V30 2572 H 247.749 -0.203386 -0.708381 0
M  V30 2573 H 250.391 -1.14924 -1.51303 0
M  V30 2574 H 248.541 -0.366946 -3.86763 0
M  V30 2575 H 250.213 -2.9562 -3.54128 0
M  V30 2576 H 248.456 -2.83289 -3.28526 0
M  V30 2577 H 249.127 -2.55192 -4.8947 0
M  V30 2578 H 251.603 -0.804602 -4.08247 0
M  V30 2579 H 250.479 -0.622173 -5.45362 0
M  V30 2580 H 250.74 0.727934 -4.36066 0
M  V30 2581 N 249.799 1.42003 -0.683588 0
M  V30 2582 C 250.709 2.34597 -0.0109075 0
M  V30 2583 C 251.725 1.55576 0.779245 0
M  V30 2584 O 252.901 1.88107 0.719555 0
M  V30 2585 C 249.966 3.34199 0.922588 0
M  V30 2586 C 249.027 4.29115 0.125984 0
M  V30 2587 C 248.26 5.23959 1.01502 0
M  V30 2588 O 248.483 5.23952 2.25456 0
M  V30 2589 O 247.417 6.00053 0.47111 0
M  V30 2590 H 251.243 2.93675 -0.773853 0
M  V30 2591 H 248.828 1.42654 -0.443861 0
M  V30 2592 H 250.71 3.95365 1.45823 0
M  V30 2593 H 249.385 2.77582 1.66523 0
M  V30 2594 H 248.292 3.71335 -0.453969 0
M  V30 2595 H 249.625 4.88798 -0.577736 0
M  V30 2596 N 251.277 0.427512 1.51691 0
M  V30 2597 C 252.502 -0.143601 2.06902 0
M  V30 2598 C 252.927 -1.36536 1.29382 0
M  V30 2599 O 252.285 -1.78289 0.329043 0
M  V30 2600 C 252.333 -0.454207 3.57728 0
M  V30 2601 O 251.437 -1.54228 3.82475 0
M  V30 2602 H 250.778 -0.00617128 0.663971 0
M  V30 2603 H 253.308 0.606014 1.95419 0
M  V30 2604 H 253.318 -0.707525 4.01818 0
M  V30 2605 H 251.993 0.438812 4.13579 0
M  V30 2606 H 250.57 -1.2797 3.50254 0
M  V30 2607 N 252.755 -1.56801 0.158532 0
M  V30 2608 C 253.718 -2.16138 -0.762705 0
M  V30 2609 C 254.718 -1.1061 -1.16713 0
M  V30 2610 O 255.908 -1.36191 -1.08617 0
M  V30 2611 C 253.04 -2.73386 -2.03649 0
M  V30 2612 H 254.233 -2.98886 -0.246354 0
M  V30 2613 H 251.786 -1.56035 -0.0909744 0
M  V30 2614 H 252.521 -1.94335 -2.59623 0
M  V30 2615 H 252.306 -3.50601 -1.75559 0
M  V30 2616 H 253.796 -3.19065 -2.6942 0
M  V30 2617 N 254.233 0.115231 -1.57178 0
M  V30 2618 C 255.473 0.828199 -1.8687 0
M  V30 2619 C 255.837 1.76873 -0.747002 0
M  V30 2620 O 257.038 2.52354 -0.925785 0
M  V30 2621 C 255.309 1.55515 -3.21792 0
M  V30 2622 S 256.868 2.30917 -3.73125 0
M  V30 2623 H 253.686 0.27634 -0.655101 0
M  V30 2624 H 256.288 0.0863469 -1.95309 0
M  V30 2625 H 254.992 0.856248 -4.01368 0
M  V30 2626 H 254.523 2.3373 -3.16439 0
M  V30 2627 H 256.538 3.56705 -3.44929 0
M  V30 2628 N 255.711 1.52812 0.385517 0
M  V30 2629 C 256.936 1.72207 1.15583 0
M  V30 2630 C 257.361 0.441034 1.82857 0
M  V30 2631 O 256.719 -0.603465 1.70962 0
M  V30 2632 C 256.767 2.87476 2.17692 0
M  V30 2633 O 255.871 2.54693 3.24354 0
M  V30 2634 H 255.212 0.572526 0.336319 0
M  V30 2635 H 257.742 1.99618 0.448744 0
M  V30 2636 H 257.752 3.13072 2.6163 0
M  V30 2637 H 256.427 3.80408 1.68115 0
M  V30 2638 H 255.004 2.3985 2.85529 0
M  V30 2639 N 257.189 -0.644168 1.43834 0
M  V30 2640 C 258.137 -1.77793 1.49974 0
M  V30 2641 C 259.131 -1.65253 0.372536 0
M  V30 2642 O 260.337 -1.7149 0.546924 0
M  V30 2643 H 256.712 -0.58675 0.47035 0
M  V30 2644 H 258.683 -1.69736 2.45423 0
M  V30 2645 C 257.432 -3.16087 1.4486 0
M  V30 2646 H 256.755 -3.26378 2.30905 0
M  V30 2647 H 258.195 -3.95349 1.53217 0
M  V30 2648 C 256.654 -3.36484 0.167463 0
M  V30 2649 O 257.184 -3.94298 -0.767609 0
M  V30 2650 N 255.39 -2.90504 0.0747556 0
M  V30 2651 H 254.937 -2.4364 0.836507 0
M  V30 2652 H 254.895 -3.04527 -0.781714 0
M  V30 2653 N 258.668 -1.30515 -0.883378 0
M  V30 2654 C 259.898 -1.22182 -1.66599 0
M  V30 2655 C 260.306 0.217507 -1.87946 0
M  V30 2656 O 259.649 1.1554 -1.42815 0
M  V30 2657 C 259.711 -1.88146 -3.06335 0
M  V30 2658 C 259.375 -3.37476 -3.08154 0
M  V30 2659 C 260.372 -4.33443 -2.87094 0
M  V30 2660 C 258.057 -3.7895 -3.29701 0
M  V30 2661 C 260.051 -5.68858 -2.8754 0
M  V30 2662 C 257.738 -5.14482 -3.29776 0
M  V30 2663 C 258.736 -6.09246 -3.0872 0
M  V30 2664 O 258.424 -7.42302 -3.08615 0
M  V30 2665 H 258.156 -0.423898 -0.52658 0
M  V30 2666 H 260.71 -1.72703 -1.11188 0
M  V30 2667 H 258.94 -1.32157 -3.63416 0
M  V30 2668 H 260.629 -1.7391 -3.66756 0
M  V30 2669 H 261.395 -4.02733 -2.70243 0
M  V30 2670 H 257.274 -3.05631 -3.45124 0
M  V30 2671 H 260.818 -6.428 -2.71024 0
M  V30 2672 H 256.715 -5.44832 -3.46163 0
M  V30 2673 H 257.483 -7.5131 -3.24769 0
M  V30 2674 N 260.146 1.09593 -1.13257 0
M  V30 2675 C 261.109 2.14359 -0.811358 0
M  V30 2676 C 262.109 1.59808 0.178377 0
M  V30 2677 O 263.299 1.74132 -0.0484911 0
M  V30 2678 C 260.431 3.40269 -0.207276 0
M  V30 2679 H 261.624 2.44284 -1.73969 0
M  V30 2680 H 259.177 1.25102 -0.936973 0
M  V30 2681 H 259.912 3.15969 0.73036 0
M  V30 2682 H 259.697 3.81154 -0.919992 0
M  V30 2683 H 261.187 4.176 0.000667944 0
M  V30 2684 N 261.624 0.925811 1.2754 0
M  V30 2685 C 262.852 0.581509 1.9856 0
M  V30 2686 C 263.267 -0.840041 1.69082 0
M  V30 2687 O 262.624 -1.55805 0.950312 0
M  V30 2688 C 262.675 0.795589 3.52637 0
M  V30 2689 O 262.396 2.16121 3.81082 0
M  V30 2690 C 263.897 0.459744 4.4091 0
M  V30 2691 H 261.117 0.220538 0.633722 0
M  V30 2692 H 263.661 1.24232 1.6244 0
M  V30 2693 H 261.816 0.18161 3.86974 0
M  V30 2694 H 262.23 2.2098 4.75676 0
M  V30 2695 H 263.704 0.660244 5.48037 0
M  V30 2696 H 264.181 -0.604625 4.35018 0
M  V30 2697 H 264.787 1.05178 4.12089 0
M  V30 2698 N 263.102 -1.41638 0.69111 0
M  V30 2699 C 264.33 -2.05628 0.22909 0
M  V30 2700 C 264.745 -1.51992 -1.11999 0
M  V30 2701 O 264.102 -0.666322 -1.69901 0
M  V30 2702 C 264.153 -3.61084 0.173283 0
M  V30 2703 O 263.874 -4.12735 1.46907 0
M  V30 2704 C 265.375 -4.42213 -0.310266 0
M  V30 2705 H 262.595 -0.662327 0.107534 0
M  V30 2706 H 265.139 -1.81489 0.942438 0
M  V30 2707 H 263.294 -3.84278 -0.490858 0
M  V30 2708 H 263.708 -5.06743 1.35322 0
M  V30 2709 H 265.182 -5.51194 -0.298196 0
M  V30 2710 H 265.659 -4.1799 -1.34838 0
M  V30 2711 H 266.265 -4.24074 0.322716 0
M  V30 2712 N 264.58 -0.43555 -1.51462 0
M  V30 2713 C 265.826 0.131709 -2.02372 0
M  V30 2714 C 266.159 1.42516 -1.3192 0
M  V30 2715 O 265.434 1.89606 -0.433573 0
M  V30 2716 C 265.717 0.352301 -3.58373 0
M  V30 2717 C 265.57 -0.959676 -4.39443 0
M  V30 2718 C 266.889 1.12286 -4.25535 0
M  V30 2719 H 264.008 0.0463936 -0.735538 0
M  V30 2720 H 266.65 -0.574197 -1.81116 0
M  V30 2721 H 264.8 0.9536 -3.76615 0
M  V30 2722 H 266.472 -1.59482 -4.32855 0
M  V30 2723 H 264.715 -1.56468 -4.04599 0
M  V30 2724 H 265.386 -0.759394 -5.46752 0
M  V30 2725 H 267.862 0.613545 -4.11552 0
M  V30 2726 H 266.738 1.24598 -5.34571 0
M  V30 2727 H 266.999 2.15048 -3.86273 0
M  V30 2728 N 266.058 1.56714 -0.166846 0
M  V30 2729 C 266.99 2.14914 0.796537 0
M  V30 2730 C 268.003 1.10357 1.19688 0
M  V30 2731 O 269.192 1.37561 1.13751 0
M  V30 2732 C 266.292 2.67326 2.08303 0
M  V30 2733 C 265.465 3.96493 1.84696 0
M  V30 2734 C 264.524 4.34014 2.97521 0
M  V30 2735 O 263.55 5.01973 2.6835 0
M  V30 2736 N 264.752 3.95208 4.25196 0
M  V30 2737 H 267.517 2.98205 0.299006 0
M  V30 2738 H 265.078 1.61892 0.0160839 0
M  V30 2739 H 267.07 2.89428 2.82867 0
M  V30 2740 H 265.64 1.88649 2.4926 0
M  V30 2741 H 264.86 3.82814 0.940602 0
M  V30 2742 H 266.148 4.8086 1.66285 0
M  V30 2743 H 265.546 3.40487 4.51758 0
M  V30 2744 H 264.103 4.2232 4.96477 0
M  V30 2745 N 267.536 -0.106894 1.57237 0
M  V30 2746 C 268.782 -0.81373 1.85759 0
M  V30 2747 C 269.115 -1.78952 0.754315 0
M  V30 2748 O 268.39 -1.93029 -0.23879 0
M  V30 2749 C 268.673 -1.55293 3.24894 0
M  V30 2750 C 268.526 -0.595929 4.45835 0
M  V30 2751 C 269.845 -2.5063 3.61763 0
M  V30 2752 H 266.964 -0.294369 0.67566 0
M  V30 2753 H 269.606 -0.0776472 1.89841 0
M  V30 2754 H 267.756 -2.1804 3.21544 0
M  V30 2755 H 269.428 0.0236262 4.61294 0
M  V30 2756 H 267.671 0.0916191 4.33703 0
M  V30 2757 H 268.342 -1.15004 5.39887 0
M  V30 2758 H 270.818 -1.97982 3.65981 0
M  V30 2759 H 269.694 -2.99376 4.60071 0
M  V30 2760 H 269.955 -3.3385 2.89821 0
M  V30 2761 N 269.014 -1.53014 -0.377408 0
M  V30 2762 C 269.961 -1.78616 -1.46168 0
M  V30 2763 C 270.931 -0.629917 -1.53692 0
M  V30 2764 O 272.116 -0.870861 -1.69766 0
M  V30 2765 C 269.256 -1.97123 -2.8326 0
M  V30 2766 C 268.369 -3.24831 -2.84796 0
M  V30 2767 C 267.504 -3.33591 -4.13389 0
M  V30 2768 C 266.543 -4.55377 -4.09021 0
M  V30 2769 N 265.68 -4.61355 -5.29241 0
M  V30 2770 H 270.52 -2.71142 -1.23637 0
M  V30 2771 H 268.057 -1.34326 -0.599577 0
M  V30 2772 H 270.015 -2.05839 -3.62886 0
M  V30 2773 H 268.645 -1.07946 -3.04216 0
M  V30 2774 H 267.697 -3.25128 -1.97474 0
M  V30 2775 H 269.009 -4.14523 -2.77439 0
M  V30 2776 H 268.163 -3.41554 -5.01424 0
M  V30 2777 H 266.902 -2.41894 -4.23484 0
M  V30 2778 H 265.907 -4.47527 -3.19373 0
M  V30 2779 H 267.132 -5.48402 -4.00539 0
M  V30 2780 H 265.078 -3.72554 -5.39944 0
M  V30 2781 H 264.995 -5.44935 -5.24006 0
M  V30 2782 H 266.263 -4.73586 -6.19141 0
M  V30 2783 N 270.492 0.636531 -1.44174 0
M  V30 2784 C 271.402 1.77754 -1.53103 0
M  V30 2785 C 272.418 1.68928 -0.417034 0
M  V30 2786 O 273.594 1.89801 -0.6736 0
M  V30 2787 C 270.659 3.14115 -1.46741 0
M  V30 2788 C 269.72 3.34612 -2.68948 0
M  V30 2789 C 268.953 4.64467 -2.6288 0
M  V30 2790 O 269.176 5.44919 -1.68581 0
M  V30 2791 O 268.11 4.87049 -3.53648 0
M  V30 2792 H 271.936 1.73174 -2.49489 0
M  V30 2793 H 269.521 0.79709 -1.2636 0
M  V30 2794 H 271.403 3.95412 -1.45696 0
M  V30 2795 H 270.078 3.19249 -0.534975 0
M  V30 2796 H 268.985 2.53014 -2.75562 0
M  V30 2797 H 270.318 3.34336 -3.61221 0
M  V30 2798 N 271.97 1.30982 0.876444 0
M  V30 2799 C 273.216 1.20474 1.63138 0
M  V30 2800 C 273.549 -0.238096 1.92735 0
M  V30 2801 O 272.824 -1.1692 1.55435 0
M  V30 2802 C 273.107 2.04244 2.96574 0
M  V30 2803 C 272.96 3.56793 2.73896 0
M  V30 2804 C 274.279 1.88684 3.97601 0
M  V30 2805 H 271.398 0.439001 0.591985 0
M  V30 2806 H 274.04 1.60704 1.01361 0
M  V30 2807 H 272.19 1.70063 3.493 0
M  V30 2808 H 273.862 4.01077 2.27892 0
M  V30 2809 H 272.105 3.80548 2.08245 0
M  V30 2810 H 272.776 4.10706 3.68815 0
M  V30 2811 H 275.252 2.18584 3.54062 0
M  V30 2812 H 274.128 2.4961 4.88862 0
M  V30 2813 H 274.389 0.848343 4.33884 0
M  V30 2814 N 273.449 -1.08991 1.13837 0
M  V30 2815 C 274.397 -2.17841 0.815347 0
M  V30 2816 C 275.391 -1.68164 -0.204233 0
M  V30 2817 O 276.597 -1.79897 -0.0609304 0
M  V30 2818 H 272.972 -0.710654 0.245915 0
M  V30 2819 H 274.943 -2.42315 1.74143 0
M  V30 2820 C 273.692 -3.46381 0.302614 0
M  V30 2821 H 273.015 -3.84979 1.0785 0
M  V30 2822 H 274.455 -4.23844 0.115074 0
M  V30 2823 C 272.914 -3.22556 -0.972591 0
M  V30 2824 O 273.444 -3.45599 -2.04754 0
M  V30 2825 N 271.65 -2.76134 -0.905455 0
M  V30 2826 H 271.197 -2.57582 -0.0305421 0
M  V30 2827 H 271.155 -2.60571 -1.75926 0
M  V30 2828 N 274.927 -0.932562 -1.27047 0
M  V30 2829 C 276.343 -0.633544 -1.46487 0
M  V30 2830 C 276.543 0.815746 -1.84249 0
M  V30 2831 O 275.599 1.59319 -1.95892 0
M  V30 2832 C 276.912 -1.58758 -2.55375 0
M  V30 2833 C 278.46 -1.59634 -2.69232 0
M  V30 2834 C 278.935 -2.53747 -3.81283 0
M  V30 2835 N 280.426 -2.51982 -3.88664 0
M  V30 2836 C 281.161 -3.21491 -4.74796 0
M  V30 2837 N 280.657 -4.00395 -5.65381 0
M  V30 2838 N 282.45 -3.10485 -4.68568 0
M  V30 2839 H 274.601 -1.86946 -1.00821 0
M  V30 2840 H 276.864 -0.802897 -0.504044 0
M  V30 2841 H 276.57 -2.62172 -2.34432 0
M  V30 2842 H 276.444 -1.33301 -3.52861 0
M  V30 2843 H 278.831 -0.569488 -2.89553 0
M  V30 2844 H 278.912 -1.89142 -1.72218 0
M  V30 2845 H 278.556 -3.56545 -3.61715 0
M  V30 2846 H 278.486 -2.21532 -4.77735 0
M  V30 2847 H 280.977 -1.94681 -3.23895 0
M  V30 2848 H 281.29 -4.50406 -6.27976 0
M  V30 2849 H 279.635 -4.04498 -5.65161 0
M  V30 2850 H 282.826 -2.48331 -3.96799 0
M  V30 2851 H 282.999 -3.64925 -5.35475 0
M  V30 2852 N 276.405 1.4127 -0.698611 0
M  V30 2853 C 277.338 2.28195 0.0153898 0
M  V30 2854 C 278.316 1.42402 0.784883 0
M  V30 2855 O 279.5 1.71828 0.775067 0
M  V30 2856 C 276.627 3.22685 1.02918 0
M  V30 2857 C 275.673 4.25041 0.352501 0
M  V30 2858 S 276.506 5.27757 -0.907322 0
M  V30 2859 C 277.662 6.25812 0.104796 0
M  V30 2860 H 277.895 2.88403 -0.721858 0
M  V30 2861 H 275.428 1.46452 -0.488996 0
M  V30 2862 H 277.386 3.77655 1.60893 0
M  V30 2863 H 276.047 2.61566 1.73902 0
M  V30 2864 H 275.24 4.91437 1.11828 0
M  V30 2865 H 274.842 3.73682 -0.154254 0
M  V30 2866 H 277.134 6.70705 0.957103 0
M  V30 2867 H 278.077 7.06149 -0.525323 0
M  V30 2868 H 278.485 5.62615 0.460931 0
M  V30 2869 N 277.883 0.443576 1.51229 0
M  V30 2870 C 278.833 -0.382787 2.24764 0
M  V30 2871 C 279.817 -0.984836 1.27239 0
M  V30 2872 O 281.009 -0.901943 1.52296 0
M  V30 2873 C 278.138 -1.47989 3.09765 0
M  V30 2874 C 277.224 -0.886931 4.14722 0
M  V30 2875 N 277.615 -0.0237103 5.05794 0
M  V30 2876 C 275.913 -1.15385 4.30816 0
M  V30 2877 C 276.614 0.309971 5.80874 0
M  V30 2878 N 275.59 -0.307989 5.42727 0
M  V30 2879 H 279.392 0.282624 2.92538 0
M  V30 2880 H 276.906 0.256027 1.60369 0
M  V30 2881 H 278.903 -2.08482 3.61027 0
M  V30 2882 H 277.563 -2.14758 2.43535 0
M  V30 2883 H 278.574 0.34318 5.16762 0
M  V30 2884 H 275.251 -1.81857 3.75812 0
M  V30 2885 H 276.641 1.01279 6.64223 0
M  V30 2886 N 279.361 -1.56624 0.175154 0
M  V30 2887 C 280.61 -1.96173 -0.468921 0
M  V30 2888 C 280.923 -1.06401 -1.64128 0
M  V30 2889 O 282.129 -1.35648 -2.35185 0
M  V30 2890 C 280.585 -3.48833 -0.885633 0
M  V30 2891 C 280.193 -4.47237 0.261343 0
M  V30 2892 C 281.937 -3.97194 -1.49791 0
M  V30 2893 C 279.844 -5.9114 -0.175214 0
M  V30 2894 H 278.774 -0.732455 -0.178958 0
M  V30 2895 H 281.425 -1.81591 0.263997 0
M  V30 2896 H 279.807 -3.58848 -1.67464 0
M  V30 2897 H 280.981 -4.4894 1.03871 0
M  V30 2898 H 279.296 -4.08956 0.783827 0
M  V30 2899 H 281.893 -5.02167 -1.83665 0
M  V30 2900 H 282.236 -3.40351 -2.39722 0
M  V30 2901 H 282.769 -3.90212 -0.773267 0
M  V30 2902 H 279.508 -6.51865 0.689414 0
M  V30 2903 H 279.028 -5.92735 -0.91786 0
M  V30 2904 H 280.707 -6.44044 -0.617792 0
M  V30 2905 N 280.839 0.0985539 -1.57292 0
M  V30 2906 C 282.064 0.820196 -1.90493 0
M  V30 2907 C 282.489 1.71658 -0.769094 0
M  V30 2908 O 281.847 1.79133 0.279495 0
M  V30 2909 C 281.895 1.61242 -3.22542 0
M  V30 2910 O 280.999 2.72108 -3.09888 0
M  V30 2911 H 280.34 0.225547 -0.62452 0
M  V30 2912 H 282.87 0.0748159 -2.04463 0
M  V30 2913 H 282.88 1.99737 -3.55766 0
M  V30 2914 H 281.555 0.954535 -4.04798 0
M  V30 2915 H 280.132 2.36667 -2.88172 0
M  V30 2916 N 282.317 1.53212 0.369288 0
M  V30 2917 C 283.728 1.60943 0.946276 0
M  V30 2918 C 284.079 0.47452 1.90375 0
M  V30 2919 O 283.204 -0.399597 2.12679 0
M  V30 2920 C 283.799 2.91715 1.72302 0
M  V30 2921 C 282.358 3.01792 2.24941 0
M  V30 2922 C 281.505 2.56211 1.06072 0
M  V30 2923 H 284.456 1.58007 0.148198 0
M  V30 2924 H 284.477 2.79309 2.58393 0
M  V30 2925 H 283.989 3.74295 1.0259 0
M  V30 2926 H 282.09 2.23791 2.97906 0
M  V30 2927 H 282.203 4.06803 2.53077 0
M  V30 2928 H 280.567 2.10998 1.4266 0
M  V30 2929 H 281.35 3.41206 0.378639 0
M  V30 2930 N 283.795 -0.628877 1.44509 0
M  V30 2931 C 284.743 -1.76193 1.51852 0
M  V30 2932 C 285.737 -1.64849 0.390042 0
M  V30 2933 O 286.943 -1.709 0.565082 0
M  V30 2934 H 283.318 -0.581728 0.476547 0
M  V30 2935 H 285.289 -1.67123 2.47209 0
M  V30 2936 C 284.038 -3.14533 1.48204 0
M  V30 2937 H 283.361 -3.23911 2.34354 0
M  V30 2938 H 284.801 -3.93701 1.57402 0
M  V30 2939 C 283.26 -3.36287 0.203142 0
M  V30 2940 O 283.79 -3.9509 -0.725745 0
M  V30 2941 N 281.996 -2.90408 0.105563 0
M  V30 2942 H 281.543 -2.42739 0.862301 0
M  V30 2943 H 281.501 -3.05339 -0.749371 0
M  V30 2944 N 285.273 -1.31445 -0.869486 0
M  V30 2945 C 286.221 -1.19067 -1.99814 0
M  V30 2946 C 287.215 -0.0988569 -1.69111 0
M  V30 2947 O 288.421 -0.260781 -1.78101 0
M  V30 2948 H 284.796 -0.368677 -0.655425 0
M  V30 2949 H 286.767 -2.14555 -2.07385 0
M  V30 2950 C 285.516 -0.915323 -3.35436 0
M  V30 2951 H 284.839 -1.74759 -3.59582 0
M  V30 2952 H 286.279 -0.868895 -4.15001 0
M  V30 2953 C 284.738 0.381928 -3.34728 0
M  V30 2954 O 285.268 1.39857 -3.76567 0
M  V30 2955 N 283.474 0.398633 -2.87853 0
M  V30 2956 H 283.021 -0.429186 -2.54 0
M  V30 2957 H 282.979 1.26651 -2.87762 0
M  V30 2958 N 286.751 1.08385 -1.14413 0
M  V30 2959 C 288.167 1.32844 -0.884563 0
M  V30 2960 C 288.367 1.95841 0.474181 0
M  V30 2961 O 287.423 2.21158 1.21842 0
M  V30 2962 C 288.736 2.22978 -2.01745 0
M  V30 2963 C 290.284 2.36458 -2.05077 0
M  V30 2964 C 290.759 3.29934 -3.1766 0
M  V30 2965 N 292.25 3.37511 -3.17239 0
M  V30 2966 C 292.985 4.09871 -4.0099 0
M  V30 2967 N 292.481 4.84936 -4.94781 0
M  V30 2968 N 294.274 4.05704 -3.89051 0
M  V30 2969 H 286.425 0.658756 -2.01926 0
M  V30 2970 H 288.688 0.352821 -0.879899 0
M  V30 2971 H 288.394 1.83934 -2.99769 0
M  V30 2972 H 288.268 3.23441 -1.94077 0
M  V30 2973 H 290.655 2.7476 -1.0766 0
M  V30 2974 H 290.736 1.35736 -2.16816 0
M  V30 2975 H 290.38 2.92352 -4.15322 0
M  V30 2976 H 290.31 4.30584 -3.03158 0
M  V30 2977 H 292.801 2.83996 -2.49308 0
M  V30 2978 H 293.114 5.37612 -5.55151 0
M  V30 2979 H 291.459 4.83988 -4.98779 0
M  V30 2980 H 294.65 3.46167 -3.15097 0
M  V30 2981 H 294.823 4.61834 -4.54547 0
M  V30 2982 N 288.23 0.939286 1.26551 0
M  V30 2983 C 289.178 0.43815 2.28436 0
M  V30 2984 C 290.172 -0.483587 1.62351 0
M  V30 2985 O 291.378 -0.362009 1.76322 0
M  V30 2986 H 287.753 0.123149 0.741848 0
M  V30 2987 H 289.724 1.31002 2.68106 0
M  V30 2988 C 288.473 -0.283052 3.46546 0
M  V30 2989 H 287.796 0.417043 3.97619 0
M  V30 2990 H 289.236 -0.597948 4.19763 0
M  V30 2991 C 287.695 -1.50018 3.01656 0
M  V30 2992 O 288.225 -2.59855 3.0633 0
M  V30 2993 N 286.431 -1.35608 2.57019 0
M  V30 2994 H 285.978 -0.46244 2.53415 0
M  V30 2995 H 285.936 -2.17165 2.27347 0
M  V30 2996 N 289.708 -1.40897 0.706093 0
M  V30 2997 C 290.671 -2.29131 0.0562841 0
M  V30 2998 C 291.671 -1.44901 -0.697166 0
M  V30 2999 O 292.861 -1.65926 -0.530484 0
M  V30 3000 C 289.993 -3.27957 -0.93043 0
M  V30 3001 H 291.186 -2.88091 0.833284 0
M  V30 3002 H 288.739 -1.4906 0.470192 0
M  V30 3003 H 289.474 -2.73997 -1.73482 0
M  V30 3004 H 289.259 -3.90124 -0.393166 0
M  V30 3005 H 290.749 -3.94049 -1.38256 0
M  V30 3006 N 291.186 -0.45159 -1.50991 0
M  V30 3007 C 292.435 0.111653 -2.01391 0
M  V30 3008 C 292.748 1.42529 -1.33959 0
M  V30 3009 O 293.954 2.07232 -1.75405 0
M  V30 3010 C 292.41 0.249514 -3.59034 0
M  V30 3011 C 292.018 -1.05453 -4.35412 0
M  V30 3012 C 293.762 0.765762 -4.17536 0
M  V30 3013 C 291.669 -0.881529 -5.84793 0
M  V30 3014 H 290.599 0.0455022 -0.752626 0
M  V30 3015 H 293.25 -0.583524 -1.73975 0
M  V30 3016 H 291.632 1.00803 -3.82955 0
M  V30 3017 H 292.806 -1.82248 -4.23229 0
M  V30 3018 H 291.121 -1.50039 -3.88429 0
M  V30 3019 H 293.718 0.911913 -5.26866 0
M  V30 3020 H 294.061 1.75201 -3.77638 0
M  V30 3021 H 294.594 0.0651744 -3.97747 0
M  V30 3022 H 291.333 -1.84057 -6.29129 0
M  V30 3023 H 290.853 -0.153625 -5.99603 0
M  V30 3024 H 292.532 -0.540363 -6.4474 0
M  V30 3025 N 292.664 1.56529 -0.183458 0
M  V30 3026 C 293.614 2.1515 0.754605 0
M  V30 3027 C 294.598 1.08904 1.18443 0
M  V30 3028 O 295.79 1.34997 1.14476 0
M  V30 3029 C 292.919 2.80531 1.97881 0
M  V30 3030 C 292.005 3.93952 1.57043 0
M  V30 3031 N 292.396 4.98221 0.87231 0
M  V30 3032 C 290.694 4.05338 1.86057 0
M  V30 3033 C 291.395 5.77836 0.669377 0
M  V30 3034 N 290.371 5.29858 1.21454 0
M  V30 3035 H 294.173 2.93132 0.212387 0
M  V30 3036 H 291.687 1.62391 0.0167725 0
M  V30 3037 H 293.684 3.20914 2.6612 0
M  V30 3038 H 292.344 2.04035 2.52586 0
M  V30 3039 H 293.355 5.15191 0.529033 0
M  V30 3040 H 290.032 3.39957 2.42354 0
M  V30 3041 H 291.422 6.71799 0.116422 0
M  V30 3042 N 294.142 -0.090211 1.57342 0
M  V30 3043 C 295.553 -0.644173 1.75235 0
M  V30 3044 C 295.904 -1.78865 0.806335 0
M  V30 3045 O 295.029 -2.16395 -0.0140128 0
M  V30 3046 C 295.624 -1.17532 3.1776 0
M  V30 3047 C 294.183 -1.67531 3.37061 0
M  V30 3048 C 293.33 -0.58693 2.71017 0
M  V30 3049 H 296.281 0.135884 1.58117 0
M  V30 3050 H 296.302 -2.04455 3.20902 0
M  V30 3051 H 295.814 -0.342138 3.86589 0
M  V30 3052 H 293.915 -2.53234 2.73319 0
M  V30 3053 H 294.028 -1.76493 4.45406 0
M  V30 3054 H 292.392 -1.02756 2.33052 0
M  V30 3055 H 293.175 0.235758 3.4249 0
M  V30 3056 N 295.62 -1.53406 -0.361157 0
M  V30 3057 C 296.868 -1.69467 -1.10115 0
M  V30 3058 C 297.189 -0.451352 -1.89705 0
M  V30 3059 O 296.459 0.534636 -1.88463 0
M  V30 3060 H 295.039 -0.624749 -0.409508 0
M  V30 3061 H 297.701 -1.90609 -0.406699 0
M  V30 3062 H 296.797 -2.55774 -1.78847 0
M  V30 3063 N 297.098 0.621204 -1.44841 0
M  V30 3064 C 298.375 1.38 -1.38619 0
M  V30 3065 C 298.755 2.11041 -0.0498935 0
M  V30 3066 O 298.103 2.06992 0.967816 0
M  V30 3067 C 298.313 2.33817 -2.59096 0
M  V30 3068 C 299.661 2.96844 -3.03593 0
M  V30 3069 O 300.685 2.44141 -2.59371 0
M  V30 3070 O 299.544 3.92476 -3.80296 0
M  V30 3071 H 296.638 0.61811 -0.549426 0
M  V30 3072 H 299.184 0.645429 -1.56947 0
M  V30 3073 H 297.956 1.79012 -3.47952 0
M  V30 3074 H 297.579 3.14676 -2.43032 0
M  V30 3075 N 298.576 1.31904 0.862503 0
M  V30 3076 C 299.992 1.10724 1.14945 0
M  V30 3077 C 300.192 -0.117421 2.01158 0
M  V30 3078 O 299.248 -0.804595 2.39338 0
M  V30 3079 C 300.561 2.38267 1.83437 0
M  V30 3080 C 302.109 2.43949 1.96106 0
M  V30 3081 C 302.584 3.71394 2.68013 0
M  V30 3082 N 304.075 3.72331 2.75543 0
M  V30 3083 C 304.81 4.67641 3.31812 0
M  V30 3084 N 304.306 5.73313 3.88953 0
M  V30 3085 N 306.099 4.5515 3.29841 0
M  V30 3086 H 298.25 2.10436 0.288191 0
M  V30 3087 H 300.513 0.928705 0.190292 0
M  V30 3088 H 300.219 3.27759 1.27542 0
M  V30 3089 H 300.093 2.48633 2.83657 0
M  V30 3090 H 302.48 1.54922 2.51164 0
M  V30 3091 H 302.561 2.37543 0.949059 0
M  V30 3092 H 302.205 4.60791 2.13621 0
M  V30 3093 H 302.135 3.75069 3.69636 0
M  V30 3094 H 304.626 2.95947 2.34997 0
M  V30 3095 H 304.939 6.42107 4.30022 0
M  V30 3096 H 303.284 5.77077 3.87308 0
M  V30 3097 H 306.475 3.71766 2.84443 0
M  V30 3098 H 306.648 5.29604 3.73394 0
M  V30 3099 N 300.054 -1.07777 1.14986 0
M  V30 3100 C 301.303 -1.79669 0.916617 0
M  V30 3101 C 301.616 -1.87474 -0.557917 0
M  V30 3102 O 302.822 -2.55845 -0.908617 0
M  V30 3103 C 301.278 -3.22848 1.59051 0
M  V30 3104 C 300.886 -3.23257 3.10176 0
M  V30 3105 C 302.63 -3.99379 1.43864 0
M  V30 3106 C 300.537 -4.61063 3.70372 0
M  V30 3107 H 299.467 -0.673349 0.33929 0
M  V30 3108 H 302.118 -1.21003 1.37951 0
M  V30 3109 H 300.5 -3.8168 1.0553 0
M  V30 3110 H 301.674 -2.74095 3.70417 0
M  V30 3111 H 299.989 -2.60222 3.25074 0
M  V30 3112 H 302.586 -5.0122 1.86232 0
M  V30 3113 H 302.929 -4.14511 0.385564 0
M  V30 3114 H 303.462 -3.47032 1.94457 0
M  V30 3115 H 300.201 -4.51135 4.7556 0
M  V30 3116 H 299.721 -5.1048 3.14913 0
M  V30 3117 H 301.4 -5.30034 3.71043 0
M  V30 3118 N 301.532 -0.945985 -1.26051 0
M  V30 3119 C 302.462 -0.477172 -2.28572 0
M  V30 3120 C 303.443 0.472032 -1.63419 0
M  V30 3121 O 304.628 0.372853 -1.90587 0
M  V30 3122 C 301.758 0.253975 -3.4637 0
M  V30 3123 C 300.712 -0.609135 -4.23643 0
M  V30 3124 C 300.038 0.252252 -5.34105 0
M  V30 3125 C 301.338 -1.8829 -4.8718 0
M  V30 3126 H 303.032 -1.33402 -2.68038 0
M  V30 3127 H 300.578 -0.642904 -1.28852 0
M  V30 3128 H 302.531 0.593016 -4.17207 0
M  V30 3129 H 301.255 1.145 -3.05871 0
M  V30 3130 H 299.914 -0.931138 -3.54578 0
M  V30 3131 H 299.562 1.14278 -4.89846 0
M  V30 3132 H 299.262 -0.32188 -5.86718 0
M  V30 3133 H 300.786 0.586454 -6.07777 0
M  V30 3134 H 302.2 -1.61081 -5.50205 0
M  V30 3135 H 300.597 -2.40199 -5.49931 0
M  V30 3136 H 301.667 -2.59134 -4.09851 0
M  V30 3137 N 303.011 1.40521 -0.713556 0
M  V30 3138 C 303.921 2.34522 -0.0606667 0
M  V30 3139 C 304.937 1.57193 0.74607 0
M  V30 3140 O 306.113 1.89591 0.679493 0
M  V30 3141 C 303.178 3.36081 0.851491 0
M  V30 3142 C 302.239 4.29286 0.0349339 0
M  V30 3143 C 301.472 5.25994 0.903649 0
M  V30 3144 O 301.695 5.28616 2.14292 0
M  V30 3145 O 300.629 6.00918 0.343723 0
M  V30 3146 H 304.455 2.91968 -0.835972 0
M  V30 3147 H 302.04 1.41681 -0.47402 0
M  V30 3148 H 303.922 3.98369 1.37404 0
M  V30 3149 H 302.597 2.81052 1.60598 0
M  V30 3150 H 301.504 3.70289 -0.532633 0
M  V30 3151 H 302.837 4.87462 -0.681287 0
M  V30 3152 N 304.489 0.459591 1.5075 0
M  V30 3153 C 305.738 -0.100971 2.01447 0
M  V30 3154 C 306.051 -1.41816 1.34713 0
M  V30 3155 O 307.257 -2.06299 1.76502 0
M  V30 3156 C 305.713 -0.23047 3.59161 0
M  V30 3157 C 305.321 1.0776 4.34847 0
M  V30 3158 C 307.065 -0.743608 4.17936 0
M  V30 3159 C 304.972 0.91253 5.84317 0
M  V30 3160 H 303.902 -0.0415102 0.752856 0
M  V30 3161 H 306.553 0.592742 1.73663 0
M  V30 3162 H 304.935 -0.987703 3.83485 0
M  V30 3163 H 306.109 1.8449 4.22256 0
M  V30 3164 H 304.424 1.52097 3.87628 0
M  V30 3165 H 307.021 -0.883959 5.27343 0
M  V30 3166 H 307.364 -1.73196 3.78562 0
M  V30 3167 H 307.897 -0.04408 3.97776 0
M  V30 3168 H 304.636 1.87391 6.28144 0
M  V30 3169 H 304.156 0.185422 5.99513 0
M  V30 3170 H 305.835 0.574547 6.44444 0
M  V30 3171 N 305.967 -1.56429 0.191757 0
M  V30 3172 C 306.915 -2.20273 -0.747174 0
M  V30 3173 C 307.909 -1.17288 -1.22229 0
M  V30 3174 O 309.115 -1.35441 -1.18557 0
M  V30 3175 H 305.49 -0.705885 -0.259289 0
M  V30 3176 H 307.461 -2.97826 -0.184963 0
M  V30 3177 C 306.21 -2.87356 -1.95759 0
M  V30 3178 H 305.533 -3.66341 -1.60106 0
M  V30 3179 H 306.973 -3.3547 -2.59299 0
M  V30 3180 C 305.432 -1.88213 -2.79423 0
M  V30 3181 O 305.962 -1.38033 -3.7724 0
M  V30 3182 N 304.168 -1.56516 -2.44849 0
M  V30 3183 H 303.715 -1.97516 -1.65364 0
M  V30 3184 H 303.673 -0.904369 -3.01112 0
M  V30 3185 N 307.445 0.0818655 -1.57387 0
M  V30 3186 C 308.693 0.781368 -1.86384 0
M  V30 3187 C 309.014 1.78618 -0.782342 0
M  V30 3188 O 308.284 1.94976 0.190061 0
M  V30 3189 H 306.864 0.291562 -0.687751 0
M  V30 3190 H 309.526 0.060348 -1.94807 0
M  V30 3191 H 308.622 1.3038 -2.83562 0
M  V30 3192 N 308.923 1.53595 0.353017 0
M  V30 3193 C 310.151 1.74311 1.1146 0
M  V30 3194 C 310.566 0.477854 1.82653 0
M  V30 3195 O 309.923 -0.549977 1.74016 0
M  V30 3196 C 309.974 2.91694 2.13534 0
M  V30 3197 O 309.695 4.13325 1.45238 0
M  V30 3198 C 311.196 3.24384 3.02142 0
M  V30 3199 H 308.416 0.582669 0.332773 0
M  V30 3200 H 310.96 2.00386 0.408107 0
M  V30 3201 H 309.115 2.67977 2.79763 0
M  V30 3202 H 309.529 4.79148 2.13349 0
M  V30 3203 H 311.003 4.09893 3.69718 0
M  V30 3204 H 311.48 2.40282 3.67643 0
M  V30 3205 H 312.086 3.50073 2.41514 0
M  V30 3206 N 310.401 -0.613514 1.45168 0
M  V30 3207 C 311.812 -1.19539 1.43413 0
M  V30 3208 C 312.163 -1.95558 0.158632 0
M  V30 3209 O 311.288 -2.0335 -0.740119 0
M  V30 3210 C 311.883 -2.17445 2.59813 0
M  V30 3211 C 310.442 -2.71022 2.61197 0
M  V30 3212 C 309.589 -1.46323 2.35552 0
M  V30 3213 H 312.54 -0.403163 1.53494 0
M  V30 3214 H 312.561 -3.00373 2.33574 0
M  V30 3215 H 312.073 -1.62089 3.52631 0
M  V30 3216 H 310.174 -3.30332 1.7237 0
M  V30 3217 H 310.287 -3.15859 3.60236 0
M  V30 3218 H 308.651 -1.75072 1.84992 0
M  V30 3219 H 309.434 -0.92844 3.30507 0
M  V30 3220 N 311.879 -1.3236 -0.855495 0
M  V30 3221 C 313.125 -1.23054 -1.612 0
M  V30 3222 C 313.458 0.207404 -1.93089 0
M  V30 3223 O 312.733 1.14432 -1.57275 0
M  V30 3224 C 313.016 -2.08937 -2.93287 0
M  V30 3225 C 312.869 -3.61105 -2.68185 0
M  V30 3226 C 314.188 -1.94986 -3.94549 0
M  V30 3227 H 311.307 -0.448364 -0.584926 0
M  V30 3228 H 313.949 -1.62297 -0.987917 0
M  V30 3229 H 312.099 -1.75599 -3.46551 0
M  V30 3230 H 313.771 -4.04652 -2.21483 0
M  V30 3231 H 312.014 -3.83813 -2.02164 0
M  V30 3232 H 312.685 -4.16522 -3.62234 0
M  V30 3233 H 315.161 -2.24189 -3.5054 0
M  V30 3234 H 314.037 -2.57356 -4.84829 0
M  V30 3235 H 314.298 -0.917263 -4.3248 0
M  V30 3236 N 313.357 1.07166 -1.15556 0
M  V30 3237 C 314.773 1.31899 -0.898603 0
M  V30 3238 C 314.973 1.96333 0.453383 0
M  V30 3239 O 314.029 2.22438 1.19489 0
M  V30 3240 C 315.342 2.20826 -2.04099 0
M  V30 3241 C 316.89 2.34269 -2.07574 0
M  V30 3242 C 317.365 3.26546 -3.21141 0
M  V30 3243 N 318.856 3.34127 -3.20801 0
M  V30 3244 C 319.591 4.05595 -4.05315 0
M  V30 3245 N 319.087 4.79661 -4.99897 0
M  V30 3246 N 320.88 4.01555 -3.93332 0
M  V30 3247 H 313.031 0.637302 -2.02613 0
M  V30 3248 H 315.294 0.343468 -0.883591 0
M  V30 3249 H 315 1.80744 -3.01703 0
M  V30 3250 H 314.874 3.21364 -1.97496 0
M  V30 3251 H 317.261 2.73603 -1.10568 0
M  V30 3252 H 317.342 1.33429 -2.18244 0
M  V30 3253 H 316.986 2.87931 -4.184 0
M  V30 3254 H 316.916 4.27345 -3.07708 0
M  V30 3255 H 319.407 2.81336 -2.52306 0
M  V30 3256 H 319.72 5.31694 -5.60822 0
M  V30 3257 H 318.065 4.78671 -5.03884 0
M  V30 3258 H 321.256 3.42806 -3.18751 0
M  V30 3259 H 321.429 4.56987 -4.5942 0
M  V30 3260 N 314.835 0.952656 1.25548 0
M  V30 3261 C 316.063 0.623496 1.97282 0
M  V30 3262 C 316.478 -0.803987 1.70826 0
M  V30 3263 O 315.835 -1.53755 0.983147 0
M  V30 3264 C 315.886 0.870209 3.5087 0
M  V30 3265 O 315.607 2.24156 3.76412 0
M  V30 3266 C 317.108 0.553164 4.39835 0
M  V30 3267 H 314.328 0.233931 0.628902 0
M  V30 3268 H 316.872 1.27649 1.59768 0
M  V30 3269 H 315.027 0.263652 3.86502 0
M  V30 3270 H 315.441 2.31021 4.70882 0
M  V30 3271 H 316.915 0.776342 5.46513 0
M  V30 3272 H 317.392 -0.512215 4.36203 0
M  V30 3273 H 317.998 1.13896 4.09766 0
M  V30 3274 N 316.313 -1.40141 0.720998 0
M  V30 3275 C 317.243 -2.33339 0.0867621 0
M  V30 3276 C 318.224 -1.53178 -0.739622 0
M  V30 3277 O 319.409 -1.81625 -0.687449 0
M  V30 3278 C 316.539 -3.37194 -0.831728 0
M  V30 3279 C 315.493 -4.27857 -0.110558 0
M  V30 3280 C 314.819 -5.22294 -1.14513 0
M  V30 3281 C 316.119 -5.11872 1.0385 0
M  V30 3282 H 317.813 -2.86626 0.865219 0
M  V30 3283 H 315.359 -1.37814 0.417516 0
M  V30 3284 H 317.312 -4.01335 -1.28485 0
M  V30 3285 H 316.036 -2.82314 -1.64214 0
M  V30 3286 H 314.695 -3.65176 0.322797 0
M  V30 3287 H 314.343 -4.63717 -1.94874 0
M  V30 3288 H 314.043 -5.83797 -0.667446 0
M  V30 3289 H 315.567 -5.89312 -1.59824 0
M  V30 3290 H 316.981 -5.69436 0.664482 0
M  V30 3291 H 315.378 -5.82445 1.4449 0
M  V30 3292 H 316.448 -4.4753 1.86668 0
M  V30 3293 N 317.792 -0.46758 -1.50504 0
M  V30 3294 C 319.208 -0.121533 -1.59137 0
M  V30 3295 C 319.408 1.3717 -1.47603 0
M  V30 3296 O 318.464 2.14464 -1.33272 0
M  V30 3297 C 319.777 -0.6686 -2.93173 0
M  V30 3298 C 321.325 -0.631716 -3.06559 0
M  V30 3299 C 321.8 -1.15627 -4.43164 0
M  V30 3300 N 323.291 -1.11553 -4.49567 0
M  V30 3301 C 324.026 -1.49195 -5.5365 0
M  V30 3302 N 323.522 -1.94269 -6.65005 0
M  V30 3303 N 325.315 -1.4082 -5.44175 0
M  V30 3304 H 317.466 -1.4388 -1.56245 0
M  V30 3305 H 319.729 -0.594784 -0.738198 0
M  V30 3306 H 319.435 -1.71453 -3.07078 0
M  V30 3307 H 319.309 -0.11021 -3.77039 0
M  V30 3308 H 321.696 0.405297 -2.92304 0
M  V30 3309 H 321.777 -1.22687 -2.24458 0
M  V30 3310 H 321.421 -2.1919 -4.58168 0
M  V30 3311 H 321.351 -0.537365 -5.23851 0
M  V30 3312 H 323.842 -0.784895 -3.69659 0
M  V30 3313 H 324.155 -2.21148 -7.40482 0
M  V30 3314 H 322.5 -1.98219 -6.66134 0
M  V30 3315 H 325.691 -1.0545 -4.56068 0
M  V30 3316 H 325.864 -1.70481 -6.25172 0
M  V30 3317 N 319.27 1.56325 -0.20005 0
M  V30 3318 C 320.516 1.98012 0.438059 0
M  V30 3319 C 320.849 1.08702 1.60927 0
M  V30 3320 O 320.124 0.140064 1.93995 0
M  V30 3321 C 320.407 3.48841 0.893419 0
M  V30 3322 C 320.26 4.48928 -0.279947 0
M  V30 3323 C 321.579 4.03498 1.75719 0
M  V30 3324 H 318.698 0.719918 0.157757 0
M  V30 3325 H 321.34 1.87743 -0.291968 0
M  V30 3326 H 319.49 3.57723 1.51547 0
M  V30 3327 H 321.162 4.52079 -0.91772 0
M  V30 3328 H 319.405 4.23694 -0.930919 0
M  V30 3329 H 320.076 5.5194 0.0812601 0
M  V30 3330 H 322.552 3.97427 1.23253 0
M  V30 3331 H 321.428 5.09393 2.04476 0
M  V30 3332 H 321.689 3.4906 2.71311 0
M  V30 3333 N 320.748 -0.0735177 1.57428 0
M  V30 3334 C 321.658 -1.10547 2.06922 0
M  V30 3335 C 322.674 -1.42506 0.998402 0
M  V30 3336 O 323.85 -1.52717 1.31299 0
M  V30 3337 C 320.915 -2.40019 2.50184 0
M  V30 3338 C 319.976 -2.15046 3.71556 0
M  V30 3339 C 319.209 -3.38345 4.12745 0
M  V30 3340 O 319.432 -4.47399 3.53822 0
M  V30 3341 O 318.366 -3.2666 5.05546 0
M  V30 3342 H 322.192 -0.715013 2.95163 0
M  V30 3343 H 319.777 -0.287531 1.46607 0
M  V30 3344 H 321.659 -3.16218 2.78539 0
M  V30 3345 H 320.334 -2.78447 1.65072 0
M  V30 3346 H 319.241 -1.36558 3.48285 0
M  V30 3347 H 320.574 -1.81499 4.57514 0
M  V30 3348 N 322.226 -1.5378 -0.344866 0
M  V30 3349 C 323.136 -1.84667 -1.4469 0
M  V30 3350 C 324.152 -0.736704 -1.57635 0
M  V30 3351 O 325.328 -1.02888 -1.73136 0
M  V30 3352 C 322.393 -2.04869 -2.79696 0
M  V30 3353 C 321.454 -3.28731 -2.76106 0
M  V30 3354 C 320.687 -3.4796 -4.04673 0
M  V30 3355 O 320.91 -2.71052 -5.01883 0
M  V30 3356 O 319.844 -4.41383 -4.09224 0
M  V30 3357 H 323.67 -2.78334 -1.21506 0
M  V30 3358 H 321.255 -1.39418 -0.536921 0
M  V30 3359 H 323.137 -2.19609 -3.59652 0
M  V30 3360 H 321.812 -1.14391 -3.02814 0
M  V30 3361 H 320.719 -3.19396 -1.94774 0
M  V30 3362 H 322.052 -4.19198 -2.57941 0
M  V30 3363 N 323.704 0.605807 -1.45491 0
M  V30 3364 C 324.95 1.36679 -1.49823 0
M  V30 3365 C 325.283 1.93693 -0.140175 0
M  V30 3366 O 324.558 1.75158 0.845581 0
M  V30 3367 C 324.841 2.51337 -2.57879 0
M  V30 3368 C 324.694 1.99508 -4.03134 0
M  V30 3369 C 326.013 3.53463 -2.62205 0
M  V30 3370 H 323.132 0.495617 -0.545466 0
M  V30 3371 H 325.774 0.682732 -1.7731 0
M  V30 3372 H 323.924 3.09691 -2.34571 0
M  V30 3373 H 325.596 1.45789 -4.37656 0
M  V30 3374 H 323.839 1.30496 -4.13707 0
M  V30 3375 H 324.51 2.82169 -4.74431 0
M  V30 3376 H 326.986 3.04953 -2.83095 0
M  V30 3377 H 325.862 4.31178 -3.39672 0
M  V30 3378 H 326.123 4.09197 -1.67363 0
M  V30 3379 N 325.182 1.32811 0.848464 0
M  V30 3380 C 326.092 1.24278 1.98978 0
M  V30 3381 C 327.108 0.155176 1.73307 0
M  V30 3382 O 328.284 0.376999 1.9784 0
M  V30 3383 C 325.349 0.972444 3.32783 0
M  V30 3384 C 324.41 2.14911 3.71634 0
M  V30 3385 C 323.643 1.89157 4.99054 0
M  V30 3386 O 323.866 0.837165 5.64223 0
M  V30 3387 O 322.8 2.75433 5.35183 0
M  V30 3388 H 326.626 2.20238 2.09115 0
M  V30 3389 H 324.211 1.12762 0.980052 0
M  V30 3390 H 326.093 0.838432 4.12975 0
M  V30 3391 H 324.768 0.043051 3.23671 0
M  V30 3392 H 323.675 2.33862 2.91992 0
M  V30 3393 H 325.008 3.06151 3.85399 0
M  V30 3394 N 326.66 -1.06551 1.16123 0
M  V30 3395 C 327.937 -1.76097 0.85142 0
M  V30 3396 C 328.317 -2.00802 -0.6513 0
M  V30 3397 O 327.665 -1.63302 -1.59827 0
M  V30 3398 C 327.875 -3.06384 1.67122 0
M  V30 3399 C 329.223 -3.80585 1.88255 0
M  V30 3400 O 330.247 -3.16218 1.63966 0
M  V30 3401 O 329.106 -4.96212 2.2899 0
M  V30 3402 H 326.2 -0.765102 0.313923 0
M  V30 3403 H 328.746 -1.12844 1.26745 0
M  V30 3404 H 327.518 -2.84071 2.69108 0
M  V30 3405 H 327.141 -3.77371 1.25206 0
M  V30 3406 N 328.138 -0.959301 -1.25041 0
M  V30 3407 C 329.101 -0.487677 -2.23952 0
M  V30 3408 C 330.101 0.41119 -1.55454 0
M  V30 3409 O 331.291 0.207825 -1.72956 0
M  V30 3410 C 328.423 0.294807 -3.39623 0
M  V30 3411 H 329.616 -1.36198 -2.67189 0
M  V30 3412 H 327.169 -0.743042 -1.37508 0
M  V30 3413 H 327.904 1.18658 -3.01813 0
M  V30 3414 H 327.689 -0.35012 -3.90534 0
M  V30 3415 H 329.179 0.614089 -4.1306 0
M  V30 3416 N 329.616 1.39756 -0.72842 0
M  V30 3417 C 330.865 1.99879 -0.270407 0
M  V30 3418 C 331.178 1.58449 1.14688 0
M  V30 3419 O 332.384 2.11362 1.70407 0
M  V30 3420 C 330.84 3.57292 -0.43252 0
M  V30 3421 C 330.448 4.07688 -1.85727 0
M  V30 3422 C 332.192 4.24485 -0.0359507 0
M  V30 3423 C 330.099 5.5765 -1.96928 0
M  V30 3424 H 329.029 0.747689 -0.0973472 0
M  V30 3425 H 331.68 1.59837 -0.901355 0
M  V30 3426 H 330.062 3.95097 0.267219 0
M  V30 3427 H 331.236 3.81231 -2.58843 0
M  V30 3428 H 329.551 3.53135 -2.20646 0
M  V30 3429 H 332.148 5.34609 -0.0987484 0
M  V30 3430 H 332.491 4.03915 1.00787 0
M  V30 3431 H 333.024 3.9183 -0.686604 0
M  V30 3432 H 329.763 5.8309 -2.99476 0
M  V30 3433 H 329.283 5.8593 -1.28241 0
M  V30 3434 H 330.962 6.22957 -1.74737 0
M  V30 3435 N 331.094 0.475555 1.50254 0
M  V30 3436 C 332.319 -0.0777042 2.07254 0
M  V30 3437 C 332.744 -1.3235 1.3366 0
M  V30 3438 O 332.102 -1.77152 0.385597 0
M  V30 3439 C 332.15 -0.340169 3.58992 0
M  V30 3440 O 331.254 -1.41982 3.87188 0
M  V30 3441 H 330.595 0.0149556 0.663832 0
M  V30 3442 H 333.125 0.667878 1.93392 0
M  V30 3443 H 333.135 -0.579332 4.03866 0
M  V30 3444 H 331.81 0.570167 4.11973 0
M  V30 3445 H 330.387 -1.16762 3.54148 0
M  V30 3446 N 332.573 -1.56217 0.208337 0
M  V30 3447 C 333.505 -2.1695 -0.739276 0
M  V30 3448 C 334.518 -1.13492 -1.1672 0
M  V30 3449 O 335.707 -1.40529 -1.10063 0
M  V30 3450 C 332.807 -2.72755 -2.01142 0
M  V30 3451 C 331.98 -4.0125 -1.74118 0
M  V30 3452 C 331.039 -4.41749 -2.85909 0
M  V30 3453 O 330.065 -5.08912 -2.54946 0
M  V30 3454 N 331.267 -4.06342 -4.14568 0
M  V30 3455 H 334.032 -2.98893 -0.219837 0
M  V30 3456 H 331.593 -1.61878 0.0268445 0
M  V30 3457 H 333.585 -2.96826 -2.75094 0
M  V30 3458 H 332.155 -1.95191 -2.4417 0
M  V30 3459 H 331.375 -3.85173 -0.838775 0
M  V30 3460 H 332.663 -4.851 -1.53477 0
M  V30 3461 H 332.061 -3.52345 -4.42571 0
M  V30 3462 H 330.618 -4.35335 -4.85105 0
M  V30 3463 N 334.051 0.0651679 -1.57465 0
M  V30 3464 C 335.279 0.775808 -1.91804 0
M  V30 3465 C 335.694 1.70782 -0.804916 0
M  V30 3466 O 335.051 1.81153 0.221311 0
M  V30 3467 C 335.102 1.56381 -3.25925 0
M  V30 3468 O 334.823 0.669248 -4.32958 0
M  V30 3469 C 336.324 2.37485 -3.7432 0
M  V30 3470 H 333.544 0.2202 -0.63384 0
M  V30 3471 H 336.088 0.0334587 -2.04473 0
M  V30 3472 H 334.243 2.25837 -3.14764 0
M  V30 3473 H 334.657 1.21801 -5.10162 0
M  V30 3474 H 336.131 2.88223 -4.70778 0
M  V30 3475 H 336.608 3.17307 -3.03666 0
M  V30 3476 H 337.214 1.73173 -3.88447 0
M  V30 3477 N 335.529 1.53961 0.336706 0
M  V30 3478 C 336.754 1.75797 1.10046 0
M  V30 3479 C 337.179 0.498985 1.81361 0
M  V30 3480 O 336.537 -0.548769 1.72795 0
M  V30 3481 C 336.585 2.94257 2.08436 0
M  V30 3482 O 335.689 2.64883 3.16087 0
M  V30 3483 H 335.03 0.582936 0.317934 0
M  V30 3484 H 337.56 2.00945 0.38501 0
M  V30 3485 H 337.57 3.21237 2.51537 0
M  V30 3486 H 336.245 3.85564 1.55927 0
M  V30 3487 H 334.822 2.48812 2.77753 0
M  V30 3488 N 337.007 -0.598083 1.45811 0
M  V30 3489 C 337.939 -1.72231 1.51225 0
M  V30 3490 C 338.952 -1.57757 0.402059 0
M  V30 3491 O 340.141 -1.65464 0.669624 0
M  V30 3492 C 337.241 -3.10331 1.3619 0
M  V30 3493 C 336.414 -3.50955 2.61054 0
M  V30 3494 C 335.473 -4.68055 2.40439 0
M  V30 3495 O 334.499 -4.74691 3.14097 0
M  V30 3496 N 335.701 -5.61941 1.45612 0
M  V30 3497 H 338.466 -1.68046 2.48154 0
M  V30 3498 H 336.027 -0.783637 1.41671 0
M  V30 3499 H 338.019 -3.86439 1.20195 0
M  V30 3500 H 336.589 -3.0897 0.475015 0
M  V30 3501 H 335.809 -2.64711 2.92099 0
M  V30 3502 H 337.097 -3.74858 3.44034 0
M  V30 3503 H 336.495 -5.59301 0.848431 0
M  V30 3504 H 335.052 -6.37542 1.35585 0
M  V30 3505 N 338.485 -1.33259 -0.841409 0
M  V30 3506 C 339.713 -1.27605 -1.62864 0
M  V30 3507 C 340.128 0.153507 -1.88175 0
M  V30 3508 O 339.485 1.09485 -1.46011 0
M  V30 3509 C 339.536 -2.04596 -2.98031 0
M  V30 3510 O 339.257 -3.41975 -2.73834 0
M  V30 3511 C 340.758 -2.06122 -3.92465 0
M  V30 3512 H 337.978 -0.439718 -0.506842 0
M  V30 3513 H 340.522 -1.75591 -1.04824 0
M  V30 3514 H 338.677 -1.60299 -3.5268 0
M  V30 3515 H 339.091 -3.81549 -3.59889 0
M  V30 3516 H 340.565 -2.64451 -4.84531 0
M  V30 3517 H 341.042 -1.05083 -4.26444 0
M  V30 3518 H 341.648 -2.50427 -3.43753 0
M  V30 3519 N 339.963 1.05934 -1.16686 0
M  V30 3520 C 340.893 2.1546 -0.899949 0
M  V30 3521 C 341.874 1.69391 0.155154 0
M  V30 3522 O 343.059 1.94199 0.00648693 0
M  V30 3523 C 340.189 3.44939 -0.404241 0
M  V30 3524 C 339.143 4.04536 -1.39767 0
M  V30 3525 C 338.469 5.29268 -0.760216 0
M  V30 3526 C 339.769 4.42893 -2.76845 0
M  V30 3527 H 341.463 2.38046 -1.81588 0
M  V30 3528 H 339.009 1.14404 -0.874514 0
M  V30 3529 H 340.962 4.20901 -0.204971 0
M  V30 3530 H 339.686 3.21983 0.547206 0
M  V30 3531 H 338.345 3.30635 -1.58355 0
M  V30 3532 H 337.993 5.02611 0.197831 0
M  V30 3533 H 337.693 5.70101 -1.42332 0
M  V30 3534 H 339.217 6.07924 -0.57105 0
M  V30 3535 H 340.631 5.09921 -2.62019 0
M  V30 3536 H 339.028 4.94721 -3.39663 0
M  V30 3537 H 340.098 3.53584 -3.31823 0
M  V30 3538 N 341.441 0.965919 1.2453 0
M  V30 3539 C 342.373 0.452465 2.2469 0
M  V30 3540 C 343.386 -0.437821 1.56802 0
M  V30 3541 O 344.575 -0.244283 1.76821 0
M  V30 3542 C 341.675 -0.366258 3.36915 0
M  V30 3543 C 340.848 0.513701 4.34373 0
M  V30 3544 C 339.907 -0.248716 5.25612 0
M  V30 3545 O 338.933 0.356745 5.68081 0
M  V30 3546 N 340.135 -1.53877 5.59734 0
M  V30 3547 H 342.9 1.31361 2.69378 0
M  V30 3548 H 340.461 0.837541 1.38553 0
M  V30 3549 H 342.453 -0.884297 3.94921 0
M  V30 3550 H 341.023 -1.12832 2.91526 0
M  V30 3551 H 340.243 1.21273 3.75082 0
M  V30 3552 H 341.531 1.11391 4.96457 0
M  V30 3553 H 340.929 -2.05243 5.27154 0
M  V30 3554 H 339.486 -2.00254 6.20275 0
M  V30 3555 N 342.919 -1.39368 0.735821 0
M  V30 3556 C 343.849 -2.33234 0.111506 0
M  V30 3557 C 344.83 -1.53954 -0.723334 0
M  V30 3558 O 346.015 -1.82344 -0.668147 0
M  V30 3559 C 343.145 -3.38057 -0.795917 0
M  V30 3560 C 342.099 -4.2795 -0.065172 0
M  V30 3561 C 341.425 -5.23479 -1.08967 0
M  V30 3562 C 342.725 -5.10741 1.09273 0
M  V30 3563 H 344.419 -2.85692 0.895571 0
M  V30 3564 H 341.965 -1.37364 0.432109 0
M  V30 3565 H 343.918 -4.02675 -1.24221 0
M  V30 3566 H 342.642 -2.8404 -1.61211 0
M  V30 3567 H 341.301 -3.64813 0.361511 0
M  V30 3568 H 340.949 -4.65758 -1.89944 0
M  V30 3569 H 340.649 -5.84472 -0.605489 0
M  V30 3570 H 342.173 -5.90974 -1.53565 0
M  V30 3571 H 343.587 -5.68699 0.724841 0
M  V30 3572 H 341.984 -5.8088 1.50659 0
M  V30 3573 H 343.054 -4.45525 1.91404 0
M  V30 3574 N 344.397 -0.483516 -1.5 0
M  V30 3575 C 345.327 0.293829 -2.31644 0
M  V30 3576 C 346.308 0.978864 -1.39112 0
M  V30 3577 O 347.493 0.973644 -1.68029 0
M  V30 3578 C 344.623 1.36897 -3.19181 0
M  V30 3579 C 343.577 0.804833 -4.20365 0
M  V30 3580 C 342.903 1.9792 -4.96721 0
M  V30 3581 C 344.203 -0.192313 -5.21946 0
M  V30 3582 H 345.897 -0.387616 -2.9688 0
M  V30 3583 H 343.443 -0.187856 -1.42769 0
M  V30 3584 H 345.396 1.92037 -3.751 0
M  V30 3585 H 344.12 2.07936 -2.51853 0
M  V30 3586 H 342.779 0.275319 -3.65565 0
M  V30 3587 H 342.427 2.67686 -4.25856 0
M  V30 3588 H 342.127 1.60789 -5.65173 0
M  V30 3589 H 343.651 2.53526 -5.55479 0
M  V30 3590 H 345.065 0.270333 -5.72662 0
M  V30 3591 H 343.462 -0.478543 -5.98189 0
M  V30 3592 H 344.532 -1.11409 -4.71928 0
M  V30 3593 N 345.875 1.56104 -0.216619 0
M  V30 3594 C 347.124 1.97348 0.416744 0
M  V30 3595 C 347.437 1.10715 1.6125 0
M  V30 3596 O 348.643 1.41836 2.31506 0
M  V30 3597 C 347.099 3.51059 0.792835 0
M  V30 3598 C 346.707 4.46387 -0.379828 0
M  V30 3599 C 348.451 4.01026 1.39208 0
M  V30 3600 C 346.358 5.91397 0.0184223 0
M  V30 3601 H 345.288 0.736942 0.159475 0
M  V30 3602 H 347.939 1.80827 -0.31205 0
M  V30 3603 H 346.321 3.63162 1.57891 0
M  V30 3604 H 347.495 4.46029 -1.15737 0
M  V30 3605 H 345.81 4.06734 -0.891979 0
M  V30 3606 H 348.407 5.0686 1.70286 0
M  V30 3607 H 348.75 3.46587 2.30614 0
M  V30 3608 H 349.283 3.92125 0.669537 0
M  V30 3609 H 346.022 6.49807 -0.862002 0
M  V30 3610 H 345.542 5.94961 0.760384 0
M  V30 3611 H 347.221 6.45455 0.446818 0
M  V30 3612 N 347.353 -0.0568162 1.57498 0
M  V30 3613 C 348.263 -1.08346 2.08083 0
M  V30 3614 C 349.279 -1.41439 1.01346 0
M  V30 3615 O 350.455 -1.51316 1.32912 0
M  V30 3616 C 347.52 -2.37352 2.52715 0
M  V30 3617 C 346.581 -2.11093 3.73816 0
M  V30 3618 C 345.814 -3.33949 4.1631 0
M  V30 3619 O 346.037 -4.43622 3.58547 0
M  V30 3620 O 344.971 -3.21279 5.08983 0
M  V30 3621 H 348.797 -0.683667 2.95905 0
M  V30 3622 H 346.382 -0.271965 1.46904 0
M  V30 3623 H 348.264 -3.13246 2.81877 0
M  V30 3624 H 346.939 -2.76681 1.68016 0
M  V30 3625 H 345.846 -1.32856 3.49714 0
M  V30 3626 H 347.179 -1.76637 4.59413 0
M  V30 3627 N 348.832 -1.54138 -0.328536 0
M  V30 3628 C 349.782 -1.79557 -1.4051 0
M  V30 3629 C 350.766 -0.651373 -1.47126 0
M  V30 3630 O 351.958 -0.911226 -1.51742 0
M  V30 3631 C 349.087 -2.02196 -2.77438 0
M  V30 3632 C 348.173 -3.22724 -2.75155 0
M  V30 3633 N 348.564 -4.43881 -2.42494 0
M  V30 3634 C 346.862 -3.24196 -3.06289 0
M  V30 3635 C 347.563 -5.25797 -2.48822 0
M  V30 3636 N 346.539 -4.62862 -2.8506 0
M  V30 3637 H 350.341 -2.70814 -1.1418 0
M  V30 3638 H 347.855 -1.53265 -0.536991 0
M  V30 3639 H 349.852 -2.18546 -3.55026 0
M  V30 3640 H 348.512 -1.12191 -3.04702 0
M  V30 3641 H 349.523 -4.70969 -2.15428 0
M  V30 3642 H 346.2 -2.44208 -3.38627 0
M  V30 3643 H 347.59 -6.32535 -2.26603 0
M  V30 3644 N 350.31 0.590341 -1.46126 0
M  V30 3645 C 351.587 1.35029 -1.41515 0
M  V30 3646 C 351.967 2.10888 -0.0946472 0
M  V30 3647 O 351.315 2.08998 0.923693 0
M  V30 3648 C 351.525 2.28269 -2.63997 0
M  V30 3649 C 352.873 2.90338 -3.09821 0
M  V30 3650 O 353.897 2.38585 -2.64492 0
M  V30 3651 O 352.756 3.84321 -3.88535 0
M  V30 3652 H 349.85 0.606317 -0.562413 0
M  V30 3653 H 352.396 0.611994 -1.58281 0
M  V30 3654 H 351.168 1.71591 -3.51671 0
M  V30 3655 H 350.791 3.0945 -2.49652 0
M  V30 3656 N 351.788 1.33704 0.83433 0
M  V30 3657 C 353.199 1.22813 1.4062 0
M  V30 3658 C 353.55 -0.151107 1.95617 0
M  V30 3659 O 352.675 -1.05092 1.89168 0
M  V30 3660 C 353.27 2.22355 2.55624 0
M  V30 3661 C 351.829 2.1529 3.08751 0
M  V30 3662 C 350.976 2.09589 1.8157 0
M  V30 3663 H 353.927 1.45236 0.639702 0
M  V30 3664 H 353.948 1.83391 3.33389 0
M  V30 3665 H 353.46 3.22728 2.15566 0
M  V30 3666 H 351.561 1.18235 3.53343 0
M  V30 3667 H 351.674 3.06038 3.68616 0
M  V30 3668 H 350.038 1.55134 2.02004 0
M  V30 3669 H 350.821 3.11777 1.43701 0
M  V30 3670 N 353.266 -1.05314 1.17247 0
M  V30 3671 C 354.512 -1.78557 0.961513 0
M  V30 3672 C 354.845 -1.87419 -0.508697 0
M  V30 3673 O 354.12 -1.37307 -1.37757 0
M  V30 3674 C 354.403 -3.22514 1.60176 0
M  V30 3675 C 354.256 -3.21673 3.14399 0
M  V30 3676 C 355.575 -4.20318 1.30463 0
M  V30 3677 H 352.694 -0.6482 0.350723 0
M  V30 3678 H 355.336 -1.23102 1.44727 0
M  V30 3679 H 353.486 -3.69867 1.18871 0
M  V30 3680 H 355.158 -2.82405 3.64753 0
M  V30 3681 H 353.401 -2.60048 3.47214 0
M  V30 3682 H 354.072 -4.23271 3.54324 0
M  V30 3683 H 356.548 -3.81454 1.66229 0
M  V30 3684 H 355.424 -5.19289 1.77848 0
M  V30 3685 H 355.685 -4.41526 0.22521 0
M  V30 3686 N 354.744 -0.972509 -1.24016 0
M  V30 3687 C 355.969 -0.654417 -1.96805 0
M  V30 3688 C 356.394 0.770398 -1.716 0
M  V30 3689 O 355.752 1.52361 -0.982647 0
M  V30 3690 C 355.8 -0.941031 -3.48105 0
M  V30 3691 O 354.904 -0.0289472 -4.1239 0
M  V30 3692 H 354.245 -0.24692 -0.616382 0
M  V30 3693 H 356.775 -1.30396 -1.57664 0
M  V30 3694 H 356.785 -0.87452 -3.98517 0
M  V30 3695 H 355.46 -1.97939 -3.65777 0
M  V30 3696 H 354.037 -0.149192 -3.72601 0
M  V30 3697 N 356.222 1.38976 -0.743202 0
M  V30 3698 C 357.154 2.29096 -0.0689228 0
M  V30 3699 C 358.167 1.47229 0.694791 0
M  V30 3700 O 359.356 1.70212 0.537597 0
M  V30 3701 C 356.456 3.25988 0.926548 0
M  V30 3702 C 355.629 4.36833 0.222647 0
M  V30 3703 C 354.688 5.13981 1.12739 0
M  V30 3704 O 353.714 5.6601 0.601795 0
M  V30 3705 N 354.916 5.25966 2.45641 0
M  V30 3706 H 357.681 2.87604 -0.842846 0
M  V30 3707 H 355.242 1.50645 -0.593109 0
M  V30 3708 H 357.234 3.74476 1.5346 0
M  V30 3709 H 355.804 2.68453 1.60162 0
M  V30 3710 H 355.024 3.90116 -0.565983 0
M  V30 3711 H 356.312 5.0811 -0.264841 0
M  V30 3712 H 355.71 4.85228 2.9081 0
M  V30 3713 H 354.267 5.77865 3.01522 0
M  V30 3714 N 357.7 0.491464 1.49741 0
M  V30 3715 C 359.116 0.146835 1.58923 0
M  V30 3716 C 359.316 -1.34804 1.49767 0
M  V30 3717 O 358.372 -2.12317 1.36667 0
M  V30 3718 C 359.685 0.715157 2.92072 0
M  V30 3719 C 361.233 0.680407 3.05515 0
M  V30 3720 C 361.708 1.22663 4.41269 0
M  V30 3721 N 363.199 1.18691 4.47735 0
M  V30 3722 C 363.934 1.57984 5.51207 0
M  V30 3723 N 363.43 2.04824 6.6183 0
M  V30 3724 N 365.223 1.49459 5.41866 0
M  V30 3725 H 357.374 1.46347 1.53936 0
M  V30 3726 H 359.637 0.606453 0.728642 0
M  V30 3727 H 359.343 1.76317 3.04311 0
M  V30 3728 H 359.217 0.17018 3.76816 0
M  V30 3729 H 361.604 -0.358743 2.92911 0
M  V30 3730 H 361.685 1.26242 2.22478 0
M  V30 3731 H 361.329 2.26451 4.54623 0
M  V30 3732 H 361.259 0.620637 5.2293 0
M  V30 3733 H 363.75 0.843605 3.68364 0
M  V30 3734 H 364.063 2.32901 7.3687 0
M  V30 3735 H 362.408 2.08791 6.62896 0
M  V30 3736 H 365.599 1.12692 4.54333 0
M  V30 3737 H 365.772 1.80406 6.22381 0
M  V30 3738 N 359.178 -1.55987 0.224894 0
M  V30 3739 C 360.108 -2.23426 -0.678457 0
M  V30 3740 C 361.089 -1.20709 -1.19847 0
M  V30 3741 O 362.274 -1.49304 -1.24186 0
M  V30 3742 C 359.404 -2.91676 -1.88527 0
M  V30 3743 C 358.358 -4.00893 -1.49896 0
M  V30 3744 C 357.684 -4.56455 -2.78483 0
M  V30 3745 C 358.984 -5.17769 -0.686461 0
M  V30 3746 H 360.678 -2.99175 -0.116173 0
M  V30 3747 H 358.224 -1.43897 -0.054436 0
M  V30 3748 H 360.177 -3.37547 -2.5227 0
M  V30 3749 H 358.901 -2.1338 -2.47258 0
M  V30 3750 H 357.56 -3.55758 -0.884985 0
M  V30 3751 H 357.208 -3.74886 -3.35365 0
M  V30 3752 H 356.908 -5.30169 -2.53368 0
M  V30 3753 H 358.432 -5.05047 -3.43162 0
M  V30 3754 H 359.846 -5.60001 -1.22767 0
M  V30 3755 H 358.243 -5.97735 -0.532259 0
M  V30 3756 H 359.313 -4.83932 0.306196 0
M  V30 3757 N 360.656 0.0484629 -1.57525 0
M  V30 3758 C 361.933 0.777447 -1.79486 0
M  V30 3759 C 362.313 1.94597 -0.818251 0
M  V30 3760 O 361.661 2.28047 0.143767 0
M  V30 3761 C 361.871 1.22864 -3.26658 0
M  V30 3762 C 363.219 1.65251 -3.91123 0
M  V30 3763 O 364.243 1.32372 -3.3069 0
M  V30 3764 O 363.102 2.26207 -4.97486 0
M  V30 3765 H 360.196 0.374357 -0.737419 0
M  V30 3766 H 362.742 0.0267359 -1.69679 0
M  V30 3767 H 361.514 0.393589 -3.89316 0
M  V30 3768 H 361.137 2.03996 -3.41279 0
M  V30 3769 N 362.134 1.5431 0.320358 0
M  V30 3770 C 363.066 1.80262 1.41556 0
M  V30 3771 C 364.079 0.684723 1.477 0
M  V30 3772 O 365.268 0.961886 1.50366 0
M  V30 3773 C 362.368 1.90825 2.8007 0
M  V30 3774 C 361.541 3.21023 2.97091 0
M  V30 3775 C 360.6 3.22247 4.15985 0
M  V30 3776 O 359.626 3.95871 4.08992 0
M  V30 3777 N 360.828 2.46258 5.25678 0
M  V30 3778 H 363.593 2.74778 1.19655 0
M  V30 3779 H 361.154 1.53646 0.510358 0
M  V30 3780 H 363.146 1.89067 3.57821 0
M  V30 3781 H 361.716 1.03392 2.95006 0
M  V30 3782 H 360.936 3.35715 2.06614 0
M  V30 3783 H 362.224 4.0698 3.05361 0
M  V30 3784 H 361.622 1.86037 5.34235 0
M  V30 3785 H 360.179 2.50275 6.01835 0
M  V30 3786 N 363.613 -0.582584 1.46437 0
M  V30 3787 C 364.543 -1.70187 1.59871 0
M  V30 3788 C 365.524 -1.64066 0.449042 0
M  V30 3789 O 366.709 -1.82081 0.6753 0
M  V30 3790 C 363.839 -3.08827 1.58881 0
M  V30 3791 C 362.793 -3.29779 2.72819 0
M  V30 3792 C 362.119 -4.68947 2.5689 0
M  V30 3793 C 363.419 -3.17601 4.1464 0
M  V30 3794 H 365.113 -1.592 2.53566 0
M  V30 3795 H 362.659 -0.764472 1.22032 0
M  V30 3796 H 364.612 -3.86951 1.66873 0
M  V30 3797 H 363.336 -3.20713 0.617306 0
M  V30 3798 H 361.995 -2.54054 2.64296 0
M  V30 3799 H 361.643 -4.77599 1.57823 0
M  V30 3800 H 361.343 -4.83919 3.33312 0
M  V30 3801 H 362.867 -5.4924 2.66773 0
M  V30 3802 H 364.281 -3.8557 4.24274 0
M  V30 3803 H 362.678 -3.44094 4.9165 0
M  V30 3804 H 363.748 -2.14681 4.34788 0
M  V30 3805 N 365.091 -1.34144 -0.827227 0
M  V30 3806 C 366.507 -1.13732 -1.11969 0
M  V30 3807 C 366.707 0.0640463 -2.01398 0
M  V30 3808 O 365.763 0.740856 -2.41387 0
M  V30 3809 C 367.076 -2.43047 -1.77055 0
M  V30 3810 C 368.624 -2.49063 -1.89569 0
M  V30 3811 C 369.099 -3.78369 -2.58072 0
M  V30 3812 N 370.59 -3.79505 -2.65575 0
M  V30 3813 C 371.325 -4.76274 -3.19297 0
M  V30 3814 N 370.821 -5.83424 -3.73616 0
M  V30 3815 N 372.614 -4.63735 -3.17658 0
M  V30 3816 H 364.765 -2.11126 -0.232296 0
M  V30 3817 H 367.028 -0.933424 -0.165602 0
M  V30 3818 H 366.734 -3.31025 -1.18807 0
M  V30 3819 H 366.608 -2.56066 -2.76966 0
M  V30 3820 H 368.995 -1.61527 -2.46968 0
M  V30 3821 H 369.076 -2.39975 -0.885745 0
M  V30 3822 H 368.72 -4.66293 -2.01329 0
M  V30 3823 H 368.65 -3.84737 -3.59562 0
M  V30 3824 H 371.141 -3.02074 -2.27068 0
M  V30 3825 H 371.454 -6.53282 -4.12846 0
M  V30 3826 H 369.799 -5.87143 -3.71871 0
M  V30 3827 H 372.99 -3.79177 -2.74486 0
M  V30 3828 H 373.163 -5.39318 -3.59221 0
M  V30 3829 N 366.569 1.04691 -1.17803 0
M  V30 3830 C 367.499 2.14494 -0.92275 0
M  V30 3831 C 368.48 1.69546 0.137179 0
M  V30 3832 O 369.665 1.94195 -0.0141108 0
M  V30 3833 C 366.795 3.44491 -0.440803 0
M  V30 3834 C 365.749 4.03031 -1.4405 0
M  V30 3835 C 365.075 5.28432 -0.81631 0
M  V30 3836 C 366.375 4.39932 -2.81527 0
M  V30 3837 H 368.069 2.36107 -1.84103 0
M  V30 3838 H 365.615 1.1347 -0.886599 0
M  V30 3839 H 367.568 4.2066 -0.249602 0
M  V30 3840 H 366.292 3.22546 0.513025 0
M  V30 3841 H 364.951 3.28937 -1.61853 0
M  V30 3842 H 364.599 5.02792 0.144511 0
M  V30 3843 H 364.299 5.68559 -1.48371 0
M  V30 3844 H 365.823 6.07284 -0.635496 0
M  V30 3845 H 367.237 5.07113 -2.67412 0
M  V30 3846 H 365.634 4.9109 -3.44892 0
M  V30 3847 H 366.704 3.50045 -3.35554 0
M  V30 3848 N 368.047 0.979072 1.23499 0
M  V30 3849 C 368.957 0.526431 2.28617 0
M  V30 3850 C 369.973 -0.418126 1.68901 0
M  V30 3851 O 371.149 -0.288372 1.99325 0
M  V30 3852 C 368.214 -0.165235 3.46306 0
M  V30 3853 C 367.275 0.82056 4.21385 0
M  V30 3854 C 366.508 0.161807 5.33455 0
M  V30 3855 O 366.731 -1.04742 5.60701 0
M  V30 3856 O 365.665 0.859708 5.95729 0
M  V30 3857 H 369.491 1.4006 2.69475 0
M  V30 3858 H 367.076 0.746643 1.29405 0
M  V30 3859 H 368.958 -0.553287 4.17752 0
M  V30 3860 H 367.633 -1.01419 3.07402 0
M  V30 3861 H 366.54 1.25929 3.52268 0
M  V30 3862 H 367.873 1.63828 4.64135 0
M  V30 3863 N 369.525 -1.3858 0.750561 0
M  V30 3864 C 370.488 -2.28836 0.129152 0
M  V30 3865 C 371.488 -1.47045 -0.650714 0
M  V30 3866 O 372.678 -1.6753 -0.477428 0
M  V30 3867 C 369.81 -3.30751 -0.825622 0
M  V30 3868 H 371.003 -2.85294 0.924516 0
M  V30 3869 H 368.556 -1.47489 0.517376 0
M  V30 3870 H 369.291 -2.79378 -1.64677 0
M  V30 3871 H 369.076 -3.91177 -0.268852 0
M  V30 3872 H 370.566 -3.98249 -1.2565 0
M  V30 3873 N 371.003 -0.499398 -1.49478 0
M  V30 3874 C 372.419 -0.155261 -1.58843 0
M  V30 3875 C 372.619 1.34008 -1.50479 0
M  V30 3876 O 371.675 2.11589 -1.37791 0
M  V30 3877 C 372.988 -0.730636 -2.91689 0
M  V30 3878 C 374.536 -0.696599 -3.0515 0
M  V30 3879 C 375.011 -1.25001 -4.40612 0
M  V30 3880 N 376.502 -1.21064 -4.47099 0
M  V30 3881 C 377.237 -1.60905 -5.50361 0
M  V30 3882 N 376.733 -2.08331 -6.60735 0
M  V30 3883 N 378.526 -1.52331 -5.41065 0
M  V30 3884 H 370.677 -1.47162 -1.53158 0
M  V30 3885 H 372.94 -0.610309 -0.725415 0
M  V30 3886 H 372.646 -1.77928 -3.03372 0
M  V30 3887 H 372.52 -0.190161 -3.7672 0
M  V30 3888 H 374.907 0.343204 -2.93097 0
M  V30 3889 H 374.988 -1.2742 -2.21806 0
M  V30 3890 H 374.632 -2.28859 -4.53416 0
M  V30 3891 H 374.562 -0.64836 -5.22593 0
M  V30 3892 H 377.053 -0.863128 -3.67911 0
M  V30 3893 H 377.366 -2.36805 -7.35624 0
M  V30 3894 H 375.711 -2.12304 -6.6178 0
M  V30 3895 H 378.902 -1.151 -4.53729 0
M  V30 3896 H 379.075 -1.83704 -6.21415 0
M  V30 3897 N 372.481 1.55866 -0.233164 0
M  V30 3898 C 373.411 2.23783 0.666599 0
M  V30 3899 C 374.392 1.21343 1.19205 0
M  V30 3900 O 375.577 1.4996 1.23392 0
M  V30 3901 C 372.707 2.92671 1.86978 0
M  V30 3902 C 371.661 4.01682 1.47768 0
M  V30 3903 C 370.987 4.57926 2.76058 0
M  V30 3904 C 372.287 5.18126 0.658993 0
M  V30 3905 H 373.981 2.99232 0.100306 0
M  V30 3906 H 371.527 1.43924 0.046804 0
M  V30 3907 H 373.48 3.3888 2.50476 0
M  V30 3908 H 372.204 2.14688 2.46123 0
M  V30 3909 H 370.863 3.56222 0.866106 0
M  V30 3910 H 370.511 3.76659 3.33372 0
M  V30 3911 H 370.211 5.31505 2.50552 0
M  V30 3912 H 371.735 5.06859 3.40479 0
M  V30 3913 H 373.149 5.60644 1.19795 0
M  V30 3914 H 371.546 5.98009 0.500552 0
M  V30 3915 H 372.616 4.83763 -0.331856 0
M  V30 3916 N 373.959 -0.0401083 1.57549 0
M  V30 3917 C 374.922 -1.02871 2.04817 0
M  V30 3918 C 375.922 -1.29708 0.950388 0
M  V30 3919 O 377.112 -1.24897 1.21435 0
M  V30 3920 C 374.244 -2.36443 2.45576 0
M  V30 3921 H 375.437 -0.620631 2.93408 0
M  V30 3922 H 372.99 -0.286667 1.53649 0
M  V30 3923 H 373.725 -2.82021 1.60108 0
M  V30 3924 H 373.51 -2.18296 3.25713 0
M  V30 3925 H 375 -3.07441 2.82612 0
M  V30 3926 N 375.437 -1.54477 -0.31217 0
M  V30 3927 C 376.848 -1.64344 -0.885891 0
M  V30 3928 C 377.199 -0.54485 -1.88483 0
M  V30 3929 O 376.324 0.320387 -2.14015 0
M  V30 3930 C 376.919 -2.97908 -1.61357 0
M  V30 3931 C 375.478 -3.09933 -2.13585 0
M  V30 3932 C 374.625 -2.59971 -0.964897 0
M  V30 3933 H 377.576 -1.58448 -0.0894528 0
M  V30 3934 H 377.597 -2.88706 -2.47848 0
M  V30 3935 H 377.109 -3.77845 -0.886277 0
M  V30 3936 H 375.21 -2.34694 -2.89395 0
M  V30 3937 H 375.323 -4.15916 -2.37804 0
M  V30 3938 H 373.687 -2.16147 -1.34731 0
M  V30 3939 H 374.47 -3.42376 -0.251742 0
M  V30 3940 N 376.915 0.57481 -1.46744 0
M  V30 3941 C 377.865 1.67838 -1.54319 0
M  V30 3942 C 378.849 1.55759 -0.40346 0
M  V30 3943 O 380.041 1.6454 -0.652347 0
M  V30 3944 C 377.17 3.06624 -1.5439 0
M  V30 3945 C 376.256 3.23971 -2.73685 0
M  V30 3946 N 376.647 3.11447 -3.9854 0
M  V30 3947 C 374.945 3.5493 -2.70075 0
M  V30 3948 C 375.646 3.31011 -4.78337 0
M  V30 3949 N 374.622 3.56533 -4.10348 0
M  V30 3950 H 378.424 1.56698 -2.48642 0
M  V30 3951 H 375.938 0.779071 -1.42493 0
M  V30 3952 H 377.935 3.85839 -1.57905 0
M  V30 3953 H 376.595 3.1889 -0.611493 0
M  V30 3954 H 377.606 2.89145 -4.29669 0
M  V30 3955 H 374.283 3.73832 -1.85893 0
M  V30 3956 H 375.673 3.26445 -5.87268 0
M  V30 3957 N 378.394 1.34581 0.820102 0
M  V30 3958 C 379.327 1.20735 1.93644 0
M  V30 3959 C 380.305 0.0983343 1.62302 0
M  V30 3960 O 381.489 0.263997 1.86642 0
M  V30 3961 C 378.616 0.856037 3.27704 0
M  V30 3962 C 377.662 1.97521 3.78005 0
M  V30 3963 S 378.495 3.58906 3.97425 0
M  V30 3964 C 379.651 3.25822 5.34407 0
M  V30 3965 H 379.884 2.15231 2.05093 0
M  V30 3966 H 377.417 1.1964 0.97599 0
M  V30 3967 H 379.375 0.660133 4.05157 0
M  V30 3968 H 378.036 -0.0706253 3.14021 0
M  V30 3969 H 377.229 1.68321 4.75062 0
M  V30 3970 H 376.831 2.12875 3.07507 0
M  V30 3971 H 379.123 2.77812 6.17922 0
M  V30 3972 H 380.066 4.22029 5.68592 0
M  V30 3973 H 380.474 2.61932 5.00052 0
M  V30 3974 N 379.872 -1.04064 1.18357 0
M  V30 3975 C 380.804 -2.12114 0.868358 0
M  V30 3976 C 381.817 -1.62247 -0.134045 0
M  V30 3977 O 383.006 -1.78253 0.0937933 0
M  V30 3978 C 380.106 -3.37773 0.276132 0
M  V30 3979 C 379.279 -4.16874 1.3242 0
M  V30 3980 C 378.338 -5.20861 0.747662 0
M  V30 3981 O 377.364 -5.51141 1.42239 0
M  V30 3982 N 378.566 -5.78715 -0.454823 0
M  V30 3983 H 381.331 -2.39748 1.79836 0
M  V30 3984 H 378.892 -1.20258 1.08396 0
M  V30 3985 H 380.884 -4.04513 -0.123133 0
M  V30 3986 H 379.454 -3.07581 -0.557895 0
M  V30 3987 H 378.674 -3.45456 1.89878 0
M  V30 3988 H 379.962 -4.66516 2.03078 0
M  V30 3989 H 379.36 -5.56415 -1.02073 0
M  V30 3990 H 377.917 -6.46921 -0.79601 0
M  V30 3991 N 381.35 -0.985608 -1.22978 0
M  V30 3992 C 382.298 -0.522631 -2.26652 0
M  V30 3993 C 383.292 0.422998 -1.64034 0
M  V30 3994 O 384.498 0.296319 -1.77544 0
M  V30 3995 H 380.873 -0.150597 -0.736766 0
M  V30 3996 H 382.844 -1.40863 -2.63059 0
M  V30 3997 C 381.593 0.154238 -3.47358 0
M  V30 3998 H 380.916 -0.564329 -3.95797 0
M  V30 3999 H 382.356 0.441744 -4.21693 0
M  V30 4000 C 380.815 1.38719 -3.07016 0
M  V30 4001 O 381.345 2.48307 -3.15764 0
M  V30 4002 N 379.551 1.25975 -2.61875 0
M  V30 4003 H 379.098 0.368068 -2.54957 0
M  V30 4004 H 379.056 2.08578 -2.3525 0
M  V30 4005 N 382.828 1.3818 -0.7579 0
M  V30 4006 C 383.791 2.28764 -0.141286 0
M  V30 4007 C 384.791 1.47388 0.642907 0
M  V30 4008 O 385.981 1.67781 0.468536 0
M  V30 4009 C 383.113 3.31184 0.808069 0
M  V30 4010 H 384.306 2.848 -0.939633 0
M  V30 4011 H 381.859 1.47212 -0.525191 0
M  V30 4012 H 382.594 2.80247 1.63193 0
M  V30 4013 H 382.379 3.91314 0.248104 0
M  V30 4014 H 383.869 3.98909 1.23536 0
M  V30 4015 N 384.306 0.507319 1.49211 0
M  V30 4016 C 385.554 -0.0348839 2.0207 0
M  V30 4017 C 385.875 -1.36898 1.38866 0
M  V30 4018 O 385.145 -1.88133 0.546151 0
M  V30 4019 H 383.725 -0.0158812 0.746831 0
M  V30 4020 H 386.387 0.665998 1.83168 0
M  V30 4021 H 385.483 -0.159917 3.1169 0
M  V30 4022 N 385.784 -1.5574 0.241426 0
M  V30 4023 C 386.734 -2.17803 -0.674233 0
M  V30 4024 C 387.718 -1.13225 -1.14319 0
M  V30 4025 O 388.91 -1.39153 -1.09387 0
M  V30 4026 C 386.039 -2.87682 -1.87333 0
M  V30 4027 C 385.125 -3.99509 -1.42313 0
M  V30 4028 N 385.516 -5.01115 -0.686798 0
M  V30 4029 C 383.814 -4.11964 -1.70885 0
M  V30 4030 C 384.515 -5.79922 -0.454456 0
M  V30 4031 N 383.491 -5.34001 -1.01705 0
M  V30 4032 H 387.293 -2.93718 -0.103447 0
M  V30 4033 H 384.807 -1.62342 0.0435095 0
M  V30 4034 H 386.804 -3.3057 -2.54026 0
M  V30 4035 H 385.464 -2.13269 -2.4484 0
M  V30 4036 H 386.475 -5.16799 -0.337459 0
M  V30 4037 H 383.152 -3.48718 -2.2957 0
M  V30 4038 H 384.542 -6.71768 0.132992 0
M  V30 4039 N 387.262 0.0317525 -1.57568 0
M  V30 4040 C 388.673 0.578692 -1.77505 0
M  V30 4041 C 389.024 1.75749 -0.872164 0
M  V30 4042 O 388.149 2.16298 -0.0663106 0
M  V30 4043 C 388.744 1.05658 -3.21904 0
M  V30 4044 C 387.303 1.54906 -3.43047 0
M  V30 4045 C 386.45 0.485939 -2.73009 0
M  V30 4046 H 389.401 -0.194475 -1.57504 0
M  V30 4047 H 389.422 1.92404 -3.28269 0
M  V30 4048 H 388.934 0.198422 -3.87592 0
M  V30 4049 H 387.035 2.42915 -2.82529 0
M  V30 4050 H 387.148 1.59841 -4.5165 0
M  V30 4051 H 385.512 0.940354 -2.36705 0
M  V30 4052 H 386.295 -0.362709 -3.41379 0
M  V30 4053 N 388.74 1.54641 0.303973 0
M  V30 4054 C 389.69 1.8177 1.37636 0
M  V30 4055 C 390.674 0.674697 1.46071 0
M  V30 4056 O 391.866 0.935251 1.50273 0
M  V30 4057 C 388.995 2.06584 2.74186 0
M  V30 4058 C 388.081 3.2706 2.69986 0
M  V30 4059 N 388.472 4.47682 2.35402 0
M  V30 4060 C 386.77 3.29028 3.01092 0
M  V30 4061 C 387.471 5.29689 2.40426 0
M  V30 4062 N 386.447 4.67339 2.7766 0
M  V30 4063 H 390.249 2.72596 1.09857 0
M  V30 4064 H 387.763 1.541 0.51254 0
M  V30 4065 H 389.76 2.24166 3.51504 0
M  V30 4066 H 388.42 1.17024 3.02879 0
M  V30 4067 H 389.431 4.74336 2.07908 0
M  V30 4068 H 386.108 2.49565 3.34699 0
M  V30 4069 H 387.498 6.3606 2.16512 0
M  V30 4070 N 390.218 -0.567019 1.47046 0
M  V30 4071 C 391.181 -1.65696 1.58359 0
M  V30 4072 C 392.181 -1.54097 0.459441 0
M  V30 4073 O 393.371 -1.58432 0.724225 0
M  V30 4074 C 390.503 -3.05197 1.51879 0
M  V30 4075 H 391.696 -1.57019 2.5551 0
M  V30 4076 H 389.249 -0.786148 1.3509 0
M  V30 4077 H 389.984 -3.19417 0.560673 0
M  V30 4078 H 389.769 -3.15025 2.33455 0
M  V30 4079 H 391.259 -3.84511 1.62913 0
M  V30 4080 N 391.696 -1.35014 -0.812953 0
M  V30 4081 C 392.626 -1.30069 -1.93919 0
M  V30 4082 C 393.607 -0.176275 -1.69184 0
M  V30 4083 O 394.792 -0.370227 -1.90638 0
M  V30 4084 C 391.922 -1.06547 -3.30552 0
M  V30 4085 C 390.876 -2.15561 -3.69753 0
M  V30 4086 C 390.202 -1.77214 -5.04479 0
M  V30 4087 C 391.502 -3.57476 -3.808 0
M  V30 4088 H 393.196 -2.24303 -1.98314 0
M  V30 4089 H 390.742 -1.07977 -0.952736 0
M  V30 4090 H 392.695 -1.01729 -4.08937 0
M  V30 4091 H 391.419 -0.0875719 -3.26483 0
M  V30 4092 H 390.078 -2.19466 -2.9365 0
M  V30 4093 H 389.726 -0.780589 -4.96906 0
M  V30 4094 H 389.426 -2.50184 -5.31678 0
M  V30 4095 H 390.95 -1.7391 -5.8531 0
M  V30 4096 H 392.364 -3.55929 -4.4943 0
M  V30 4097 H 390.761 -4.29152 -4.19462 0
M  V30 4098 H 391.831 -3.94091 -2.82525 0
M  V30 4099 N 393.175 1.03435 -1.18907 0
M  V30 4100 C 394.4 1.80919 -1.01406 0
M  V30 4101 C 394.825 1.83055 0.432721 0
M  V30 4102 O 394.183 1.25252 1.31079 0
M  V30 4103 C 394.231 3.24091 -1.58105 0
M  V30 4104 O 393.335 4.04434 -0.806669 0
M  V30 4105 H 392.676 0.558709 -0.358803 0
M  V30 4106 H 395.206 1.30223 -1.57807 0
M  V30 4107 H 395.216 3.74853 -1.61087 0
M  V30 4108 H 393.891 3.21851 -2.6341 0
M  V30 4109 H 392.468 3.63091 -0.849666 0
M  V30 4110 N 394.653 0.992116 1.22453 0
M  V30 4111 C 395.881 0.685944 1.95198 0
M  V30 4112 C 396.296 -0.749233 1.73297 0
M  V30 4113 O 395.653 -1.50549 1.03156 0
M  V30 4114 C 395.704 0.981395 3.47924 0
M  V30 4115 O 395.425 2.36018 3.6909 0
M  V30 4116 C 396.926 0.692815 4.37853 0
M  V30 4117 H 394.146 0.253821 0.621141 0
M  V30 4118 H 396.69 1.32668 1.55626 0
M  V30 4119 H 394.845 0.386481 3.85467 0
M  V30 4120 H 395.259 2.45884 4.63294 0
M  V30 4121 H 396.733 0.949818 5.43767 0
M  V30 4122 H 397.21 -0.373181 4.37612 0
M  V30 4123 H 397.816 1.26874 4.05935 0
M  V30 4124 N 396.131 -1.37776 0.765217 0
M  V30 4125 C 397.061 -2.32945 0.160953 0
M  V30 4126 C 398.042 -1.55454 -0.690516 0
M  V30 4127 O 399.227 -1.83721 -0.629318 0
M  V30 4128 C 396.357 -3.39669 -0.724031 0
M  V30 4129 C 395.311 -4.27992 0.0256173 0
M  V30 4130 C 394.637 -5.25673 -0.978383 0
M  V30 4131 C 395.937 -5.08309 1.20082 0
M  V30 4132 H 397.631 -2.83728 0.955969 0
M  V30 4133 H 395.177 -1.36416 0.461149 0
M  V30 4134 H 397.13 -4.05219 -1.15652 0
M  V30 4135 H 395.854 -2.87396 -1.5515 0
M  V30 4136 H 394.513 -3.63964 0.438812 0
M  V30 4137 H 394.161 -4.69682 -1.80022 0
M  V30 4138 H 393.861 -5.85625 -0.481378 0
M  V30 4139 H 395.385 -5.94098 -1.40995 0
M  V30 4140 H 396.799 -5.67034 0.845307 0
M  V30 4141 H 395.196 -5.77554 1.62947 0
M  V30 4142 H 396.266 -4.41365 2.00811 0
M  V30 4143 N 397.609 -0.515225 -1.4894 0
M  V30 4144 C 398.886 0.0879088 -1.95402 0
M  V30 4145 C 399.266 1.52745 -1.45712 0
M  V30 4146 O 398.614 2.18238 -0.677093 0
M  V30 4147 C 398.824 -0.0141055 -3.48997 0
M  V30 4148 C 400.172 0.152646 -4.24326 0
M  V30 4149 O 401.196 0.0604025 -3.56149 0
M  V30 4150 O 400.055 0.34384 -5.45417 0
M  V30 4151 H 397.149 0.0874636 -0.822362 0
M  V30 4152 H 399.695 -0.578775 -1.59525 0
M  V30 4153 H 398.467 -1.01745 -3.77841 0
M  V30 4154 H 398.09 0.692091 -3.9153 0
M  V30 4155 N 399.087 1.5561 -0.249682 0
M  V30 4156 C 400.315 2.03411 0.378352 0
M  V30 4157 C 400.73 1.12886 1.51335 0
M  V30 4158 O 400.087 0.143833 1.81932 0
M  V30 4159 C 400.138 3.50537 0.88351 0
M  V30 4160 O 399.859 4.37614 -0.20626 0
M  V30 4161 C 401.36 4.14113 1.58195 0
M  V30 4162 H 398.58 0.664994 0.08958 0
M  V30 4163 H 401.124 2.01044 -0.374357 0
M  V30 4164 H 399.279 3.5343 1.58639 0
M  V30 4165 H 399.693 5.24199 0.177782 0
M  V30 4166 H 401.167 5.18741 1.8871 0
M  V30 4167 H 401.644 3.60767 2.50487 0
M  V30 4168 H 402.25 4.15151 0.923573 0
M  V30 4169 N 400.565 -0.0233959 1.57583 0
M  V30 4170 C 401.512 -1.02224 2.06927 0
M  V30 4171 C 402.482 -1.35575 0.959617 0
M  V30 4172 O 403.667 -1.45815 1.23055 0
M  V30 4173 C 400.807 -2.31636 2.5581 0
M  V30 4174 C 399.92 -2.04394 3.80588 0
M  V30 4175 C 399.055 -3.27717 4.18061 0
M  V30 4176 C 398.094 -2.96056 5.3574 0
M  V30 4177 N 397.231 -4.11847 5.68618 0
M  V30 4178 H 402.071 -0.594504 2.9201 0
M  V30 4179 H 399.608 -0.281921 1.44373 0
M  V30 4180 H 401.566 -3.07258 2.82221 0
M  V30 4181 H 400.196 -2.72122 1.73636 0
M  V30 4182 H 399.248 -1.19244 3.61227 0
M  V30 4183 H 400.56 -1.77042 4.66323 0
M  V30 4184 H 399.714 -4.11702 4.4563 0
M  V30 4185 H 398.453 -3.58188 3.30988 0
M  V30 4186 H 397.458 -2.10474 5.07918 0
M  V30 4187 H 398.683 -2.66857 6.24471 0
M  V30 4188 H 396.629 -4.42258 4.84504 0
M  V30 4189 H 396.546 -3.87938 6.48876 0
M  V30 4190 H 397.814 -4.96689 6.00766 0
M  V30 4191 N 402.043 -1.548 -0.295768 0
M  V30 4192 C 402.953 -1.89177 -1.38742 0
M  V30 4193 C 403.969 -0.786481 -1.55211 0
M  V30 4194 O 405.145 -1.08344 -1.69775 0
M  V30 4195 C 402.21 -2.13663 -2.73036 0
M  V30 4196 C 401.271 -3.37349 -2.65508 0
M  V30 4197 C 400.504 -3.60658 -3.93398 0
M  V30 4198 O 400.727 -2.86882 -4.93006 0
M  V30 4199 O 399.661 -4.54179 -3.94975 0
M  V30 4200 H 403.487 -2.82059 -1.12589 0
M  V30 4201 H 401.072 -1.41056 -0.492295 0
M  V30 4202 H 402.954 -2.3094 -3.52484 0
M  V30 4203 H 401.629 -1.23967 -2.99022 0
M  V30 4204 H 400.536 -3.25431 -1.84514 0
M  V30 4205 H 401.869 -4.27192 -2.44474 0
M  V30 4206 N 403.521 0.559213 -1.47345 0
M  V30 4207 C 404.469 1.68747 -1.60085 0
M  V30 4208 C 405.463 1.628 -0.46825 0
M  V30 4209 O 406.669 1.68009 -0.645977 0
M  V30 4210 H 403.044 0.558329 -0.503759 0
M  V30 4211 H 405.015 1.55138 -2.54902 0
M  V30 4212 C 403.764 3.07103 -1.63042 0
M  V30 4213 H 403.087 3.12361 -2.49541 0
M  V30 4214 H 404.527 3.85743 -1.76006 0
M  V30 4215 C 402.986 3.34935 -0.363357 0
M  V30 4216 O 403.516 3.98102 0.536416 0
M  V30 4217 N 401.722 2.89574 -0.244 0
M  V30 4218 H 401.269 2.38348 -0.977133 0
M  V30 4219 H 401.227 3.08566 0.602836 0
M  V30 4220 N 404.999 1.35443 0.805782 0
M  V30 4221 C 405.929 1.31095 1.93226 0
M  V30 4222 C 406.91 0.185244 1.69088 0
M  V30 4223 O 408.095 0.380332 1.90439 0
M  V30 4224 C 405.225 1.08299 3.29983 0
M  V30 4225 C 404.179 2.17519 3.68605 0
M  V30 4226 C 403.505 1.79887 5.03532 0
M  V30 4227 C 404.805 3.5949 3.78898 0
M  V30 4228 H 406.499 2.25352 1.97122 0
M  V30 4229 H 404.045 1.0848 0.946996 0
M  V30 4230 H 405.998 1.03897 4.08391 0
M  V30 4231 H 404.722 0.104885 3.26432 0
M  V30 4232 H 403.381 2.2102 2.92482 0
M  V30 4233 H 403.029 0.80693 4.96485 0
M  V30 4234 H 402.729 2.53001 5.30344 0
M  V30 4235 H 404.253 1.77011 5.84379 0
M  V30 4236 H 405.667 3.58307 4.47536 0
M  V30 4237 H 404.064 4.31371 4.1718 0
M  V30 4238 H 405.134 3.95584 2.80431 0
M  V30 4239 N 406.477 -1.02803 1.19454 0
M  V30 4240 C 407.387 -2.14575 0.948408 0
M  V30 4241 C 408.403 -1.73757 -0.091871 0
M  V30 4242 O 409.579 -2.01185 0.0929654 0
M  V30 4243 C 406.644 -3.43202 0.491265 0
M  V30 4244 C 405.705 -3.98328 1.60103 0
M  V30 4245 C 404.938 -5.20816 1.16561 0
M  V30 4246 O 405.161 -5.70392 0.0295238 0
M  V30 4247 O 404.095 -5.68801 1.96849 0
M  V30 4248 H 407.921 -2.38202 1.88397 0
M  V30 4249 H 405.506 -1.12989 0.977433 0
M  V30 4250 H 407.388 -4.20687 0.245015 0
M  V30 4251 H 406.063 -3.21018 -0.415851 0
M  V30 4252 H 404.97 -3.22174 1.90144 0
M  V30 4253 H 406.303 -4.24879 2.48473 0
M  V30 4254 N 407.956 -0.998596 -1.21925 0
M  V30 4255 C 409.204 -0.676325 -1.90448 0
M  V30 4256 C 409.525 0.794719 -1.78071 0
M  V30 4257 O 408.795 1.5701 -1.17152 0
M  V30 4258 H 407.375 -0.247165 -0.704925 0
M  V30 4259 H 410.037 -1.26633 -1.48156 0
M  V30 4260 H 409.133 -0.943858 -2.97486 0
M  V30 4261 N 409.434 1.37368 -0.772513 0
M  V30 4262 C 410.662 2.03942 -0.348588 0
M  V30 4263 C 411.077 1.58264 1.02947 0
M  V30 4264 O 410.434 0.764246 1.65727 0
M  V30 4265 C 410.485 3.5946 -0.38351 0
M  V30 4266 O 410.206 4.03468 -1.70721 0
M  V30 4267 C 411.707 4.4327 0.0519152 0
M  V30 4268 H 408.927 0.654931 -0.145966 0
M  V30 4269 H 411.471 1.75686 -1.04665 0
M  V30 4270 H 409.626 3.86486 0.265978 0
M  V30 4271 H 410.04 4.97991 -1.64636 0
M  V30 4272 H 411.514 5.51995 -0.0236733 0
M  V30 4273 H 411.991 4.2514 1.10238 0
M  V30 4274 H 412.597 4.21471 -0.569415 0
M  V30 4275 N 410.912 0.523116 1.48665 0
M  V30 4276 C 411.842 -0.23231 2.32342 0
M  V30 4277 C 412.823 -0.941637 1.41659 0
M  V30 4278 O 414.008 -0.928751 1.70552 0
M  V30 4279 C 411.138 -1.28387 3.22698 0
M  V30 4280 C 410.092 -0.693098 4.22351 0
M  V30 4281 C 409.418 -1.8468 5.01794 0
M  V30 4282 C 410.718 0.33063 5.21252 0
M  V30 4283 H 412.412 0.466192 2.95748 0
M  V30 4284 H 409.958 0.225643 1.42221 0
M  V30 4285 H 411.911 -1.82024 3.80059 0
M  V30 4286 H 410.635 -2.01186 2.57278 0
M  V30 4287 H 409.294 -0.178299 3.66166 0
M  V30 4288 H 408.942 -2.56301 4.32804 0
M  V30 4289 H 408.642 -1.45747 5.69238 0
M  V30 4290 H 410.166 -2.38709 5.62006 0
M  V30 4291 H 411.58 -0.118407 5.73178 0
M  V30 4292 H 409.977 0.636974 5.9671 0
M  V30 4293 H 411.047 1.23883 4.68808 0
M  V30 4294 N 412.39 -1.55475 0.257931 0
M  V30 4295 C 413.806 -1.59307 -0.0966563 0
M  V30 4296 C 414.006 -1.27514 -1.5602 0
M  V30 4297 O 413.062 -1.02774 -2.30637 0
M  V30 4298 C 414.375 -2.99552 0.262481 0
M  V30 4299 C 415.923 -3.1231 0.207683 0
M  V30 4300 C 416.398 -4.54793 0.541012 0
M  V30 4301 N 417.889 -4.6058 0.491921 0
M  V30 4302 C 418.624 -5.68825 0.722857 0
M  V30 4303 N 418.12 -6.85287 1.0175 0
M  V30 4304 N 419.913 -5.58296 0.652815 0
M  V30 4305 H 412.064 -1.74409 1.21224 0
M  V30 4306 H 414.327 -0.812424 0.48854 0
M  V30 4307 H 414.033 -3.27593 1.27967 0
M  V30 4308 H 413.907 -3.75019 -0.40508 0
M  V30 4309 H 416.294 -2.84044 -0.800195 0
M  V30 4310 H 416.375 -2.39095 0.909255 0
M  V30 4311 H 416.019 -4.83783 1.5465 0
M  V30 4312 H 415.949 -5.26285 -0.18216 0
M  V30 4313 H 418.44 -3.7691 0.273366 0
M  V30 4314 H 418.753 -7.63725 1.18084 0
M  V30 4315 H 417.098 -6.86945 1.05509 0
M  V30 4316 H 420.289 -4.66189 0.422592 0
M  V30 4317 H 420.462 -6.42582 0.836182 0
M  V30 4318 N 413.868 0.0150385 -1.57593 0
M  V30 4319 C 415.284 0.370907 -1.5523 0
M  V30 4320 C 415.484 1.75735 -0.985882 0
M  V30 4321 O 414.54 2.44944 -0.613077 0
M  V30 4322 C 415.853 0.259908 -2.99575 0
M  V30 4323 C 417.401 0.335959 -3.11192 0
M  V30 4324 C 417.876 0.254253 -4.57294 0
M  V30 4325 N 419.367 0.312618 -4.62144 0
M  V30 4326 C 420.102 0.272505 -5.72752 0
M  V30 4327 N 419.598 0.183864 -6.92556 0
M  V30 4328 N 421.391 0.323267 -5.6117 0
M  V30 4329 H 413.542 -0.892104 -1.92757 0
M  V30 4330 H 415.805 -0.340563 -0.884715 0
M  V30 4331 H 415.511 -0.693403 -3.44797 0
M  V30 4332 H 415.385 1.048 -3.62349 0
M  V30 4333 H 417.772 1.27971 -2.65909 0
M  V30 4334 H 417.853 -0.481739 -2.51223 0
M  V30 4335 H 417.497 -0.685887 -5.03247 0
M  V30 4336 H 417.427 1.09024 -5.15191 0
M  V30 4337 H 419.918 0.38307 -3.75953 0
M  V30 4338 H 420.231 0.15874 -7.72637 0
M  V30 4339 H 418.576 0.149708 -6.94839 0
M  V30 4340 H 421.767 0.390607 -4.66467 0
M  V30 4341 H 421.94 0.288539 -6.47357 0
M  V30 4342 N 415.346 1.54954 0.287554 0
M  V30 4343 C 416.762 1.46469 0.633964 0
M  V30 4344 C 416.962 0.666865 1.90145 0
M  V30 4345 O 416.018 0.179906 2.51858 0
M  V30 4346 C 417.331 2.90556 0.774454 0
M  V30 4347 C 418.879 3.00681 0.869462 0
M  V30 4348 C 419.354 4.45993 1.04184 0
M  V30 4349 N 420.845 4.4976 1.10772 0
M  V30 4350 C 421.58 5.59393 1.25964 0
M  V30 4351 N 421.076 6.78923 1.37968 0
M  V30 4352 N 422.869 5.47107 1.28959 0
M  V30 4353 H 415.02 2.05288 -0.545041 0
M  V30 4354 H 417.283 0.930305 -0.182308 0
M  V30 4355 H 416.989 3.51594 -0.086207 0
M  V30 4356 H 416.863 3.38743 1.6593 0
M  V30 4357 H 419.25 2.39749 1.7206 0
M  V30 4358 H 419.331 2.55769 -0.0396831 0
M  V30 4359 H 418.975 5.07524 0.195422 0
M  V30 4360 H 418.905 4.88548 1.96542 0
M  V30 4361 H 421.396 3.63651 1.02794 0
M  V30 4362 H 421.709 7.58231 1.49353 0
M  V30 4363 H 420.054 6.81763 1.34999 0
M  V30 4364 H 423.245 4.52668 1.19202 0
M  V30 4365 H 423.418 6.32595 1.40455 0
M  V30 4366 N 416.824 -0.551391 1.4764 0
M  V30 4367 C 418.049 -1.33837 1.58437 0
M  V30 4368 C 418.474 -1.866 0.237063 0
M  V30 4369 O 417.832 -1.6328 -0.787994 0
M  V30 4370 C 417.88 -2.48014 2.61766 0
M  V30 4371 O 416.984 -3.50419 2.1744 0
M  V30 4372 H 416.325 -0.397299 0.532024 0
M  V30 4373 H 418.855 -0.665759 1.93465 0
M  V30 4374 H 418.865 -2.94503 2.82369 0
M  V30 4375 H 417.54 -2.08969 3.5959 0
M  V30 4376 H 416.117 -3.10196 2.06961 0
M  V30 4377 N 418.302 -1.35869 -0.798587 0
M  V30 4378 C 419.232 -1.32118 -1.92528 0
M  V30 4379 C 420.213 -0.194209 -1.68988 0
M  V30 4380 O 421.398 -0.390426 -1.90235 0
M  V30 4381 C 418.528 -1.10047 -3.29404 0
M  V30 4382 C 417.482 -2.19471 -3.67446 0
M  V30 4383 C 416.808 -1.82555 -5.02571 0
M  V30 4384 C 418.108 -3.61495 -3.76987 0
M  V30 4385 H 419.802 -2.26394 -1.95924 0
M  V30 4386 H 417.348 -1.08981 -0.94123 0
M  V30 4387 H 419.301 -1.06061 -4.07835 0
M  V30 4388 H 418.025 -0.122195 -3.26371 0
M  V30 4389 H 416.684 -2.22568 -2.91306 0
M  V30 4390 H 416.332 -0.833249 -4.9605 0
M  V30 4391 H 416.032 -2.5581 -5.28995 0
M  V30 4392 H 417.556 -1.80108 -5.83432 0
M  V30 4393 H 418.97 -3.60676 -4.4563 0
M  V30 4394 H 417.367 -4.33577 -4.14887 0
M  V30 4395 H 418.437 -3.97065 -2.78329 0
M  V30 4396 N 419.78 1.02168 -1.19998 0
M  V30 4397 C 421.196 1.27969 -0.953737 0
M  V30 4398 C 421.396 1.98079 0.369703 0
M  V30 4399 O 420.452 2.27306 1.09947 0
M  V30 4400 C 421.765 2.11971 -2.13281 0
M  V30 4401 C 423.313 2.25255 -2.17323 0
M  V30 4402 C 423.788 3.12632 -3.34702 0
M  V30 4403 N 425.279 3.2022 -3.34684 0
M  V30 4404 C 426.014 3.88039 -4.22153 0
M  V30 4405 N 425.51 4.58027 -5.19791 0
M  V30 4406 N 427.303 3.84511 -4.10009 0
M  V30 4407 H 419.454 0.550794 -2.05134 0
M  V30 4408 H 421.717 0.305683 -0.897364 0
M  V30 4409 H 421.423 1.67785 -3.09097 0
M  V30 4410 H 421.297 3.12699 -2.10949 0
M  V30 4411 H 423.684 2.68667 -1.22073 0
M  V30 4412 H 423.765 1.24053 -2.23706 0
M  V30 4413 H 423.409 2.69926 -4.30235 0
M  V30 4414 H 423.339 4.13909 -3.25556 0
M  V30 4415 H 425.83 2.70382 -2.64012 0
M  V30 4416 H 426.143 5.07429 -5.82868 0
M  V30 4417 H 424.488 4.56869 -5.23733 0
M  V30 4418 H 427.679 3.28978 -3.33003 0
M  V30 4419 H 427.852 4.3709 -4.78389 0
M  V30 4420 N 421.258 1.00505 1.21394 0
M  V30 4421 C 422.674 0.717873 1.42544 0
M  V30 4422 C 422.874 -0.706936 1.88692 0
M  V30 4423 O 421.93 -1.47627 2.04847 0
M  V30 4424 C 423.243 1.73377 2.45684 0
M  V30 4425 C 424.791 1.75059 2.59467 0
M  V30 4426 C 425.266 2.75545 3.6584 0
M  V30 4427 N 426.757 2.74213 3.73311 0
M  V30 4428 C 427.492 3.48626 4.55245 0
M  V30 4429 N 426.988 4.32678 5.41075 0
M  V30 4430 N 428.781 3.37276 4.49668 0
M  V30 4431 H 420.932 1.92506 0.897503 0
M  V30 4432 H 423.195 0.830919 0.456375 0
M  V30 4433 H 422.901 2.75395 2.18748 0
M  V30 4434 H 422.775 1.53647 3.44489 0
M  V30 4435 H 425.162 0.737337 2.8574 0
M  V30 4436 H 425.243 1.98861 1.60897 0
M  V30 4437 H 424.887 3.77028 3.40313 0
M  V30 4438 H 424.817 2.49009 4.64007 0
M  V30 4439 H 427.308 2.13234 3.11993 0
M  V30 4440 H 427.621 4.86253 6.00648 0
M  V30 4441 H 425.966 4.3676 5.40616 0
M  V30 4442 H 429.157 2.71043 3.81646 0
M  V30 4443 H 429.33 3.95524 5.13288 0
M  V30 4444 N 422.737 -1.36956 0.779787 0
M  V30 4445 C 423.962 -2.04283 0.358224 0
M  V30 4446 C 424.387 -1.58422 -1.01411 0
M  V30 4447 O 423.745 -0.748179 -1.65142 0
M  V30 4448 C 423.793 -3.58152 0.419479 0
M  V30 4449 O 422.897 -4.08342 -0.577142 0
M  V30 4450 H 422.238 -0.645967 0.153698 0
M  V30 4451 H 424.768 -1.75108 1.05822 0
M  V30 4452 H 424.778 -4.07041 0.279636 0
M  V30 4453 H 423.453 -3.90886 1.42061 0
M  V30 4454 H 422.03 -3.70751 -0.399755 0
M  V30 4455 N 424.215 -0.530993 -1.48385 0
M  V30 4456 C 425.163 0.244595 -2.3131 0
M  V30 4457 C 426.157 0.93451 -1.41291 0
M  V30 4458 O 427.363 0.85878 -1.58193 0
M  V30 4459 H 423.738 0.0977472 -0.74562 0
M  V30 4460 H 425.709 -0.474369 -2.94605 0
M  V30 4461 C 424.458 1.2779 -3.23365 0
M  V30 4462 H 423.781 0.756439 -3.92579 0
M  V30 4463 H 425.221 1.79198 -3.84271 0
M  V30 4464 C 423.68 2.31205 -2.45042 0
M  V30 4465 O 424.21 3.37661 -2.17596 0
M  V30 4466 N 422.416 2.04446 -2.0652 0
M  V30 4467 H 421.963 1.17891 -2.2904 0
M  V30 4468 H 421.921 2.73861 -1.54427 0
M  V30 4469 N 425.693 1.55336 -0.266172 0
M  V30 4470 C 426.918 2.04258 0.359661 0
M  V30 4471 C 427.343 1.14359 1.49344 0
M  V30 4472 O 426.701 0.140369 1.80756 0
M  V30 4473 C 426.749 3.50997 0.826635 0
M  V30 4474 O 425.853 3.64204 1.93466 0
M  V30 4475 H 425.194 0.659668 0.075727 0
M  V30 4476 H 427.724 2.00694 -0.39786 0
M  V30 4477 H 427.734 3.9219 1.12477 0
M  V30 4478 H 426.409 4.159 -0.00293032 0
M  V30 4479 H 424.986 3.34913 1.63974 0
M  V30 4480 N 427.171 -0.0066808 1.57599 0
M  V30 4481 C 428.42 -0.692078 1.89455 0
M  V30 4482 C 428.733 -1.75306 0.867586 0
M  V30 4483 O 429.939 -2.49262 1.07614 0
M  V30 4484 C 428.395 -1.2821 3.36289 0
M  V30 4485 C 428.003 -0.256291 4.47266 0
M  V30 4486 C 429.747 -1.94608 3.77264 0
M  V30 4487 C 427.654 -0.855927 5.85173 0
M  V30 4488 H 426.584 -0.262252 0.706923 0
M  V30 4489 H 429.235 0.052769 1.83424 0
M  V30 4490 H 427.617 -2.0774 3.37135 0
M  V30 4491 H 428.791 0.513923 4.57925 0
M  V30 4492 H 427.106 0.306862 4.15268 0
M  V30 4493 H 429.703 -2.40364 4.77629 0
M  V30 4494 H 430.046 -2.77382 3.10427 0
M  V30 4495 H 430.579 -1.21822 3.78688 0
M  V30 4496 H 427.318 -0.0671161 6.55466 0
M  V30 4497 H 426.838 -1.59546 5.78191 0
M  V30 4498 H 428.517 -1.35658 6.32618 0
M  V30 4499 N 428.649 -1.55105 -0.279332 0
M  V30 4500 C 429.874 -1.7976 -1.03446 0
M  V30 4501 C 430.299 -0.565952 -1.79384 0
M  V30 4502 O 429.657 0.484259 -1.74713 0
M  V30 4503 C 429.705 -3.0179 -1.97371 0
M  V30 4504 O 428.809 -2.76432 -3.06038 0
M  V30 4505 H 428.15 -0.594334 -0.29608 0
M  V30 4506 H 430.68 -2.02235 -0.310165 0
M  V30 4507 H 430.69 -3.30351 -2.39441 0
M  V30 4508 H 429.365 -3.91085 -1.4151 0
M  V30 4509 H 427.942 -2.58949 -2.68328 0
M  V30 4510 N 430.127 0.543554 -1.4793 0
M  V30 4511 C 431.074 1.64942 -1.6144 0
M  V30 4512 C 432.044 1.59692 -0.456903 0
M  V30 4513 O 433.229 1.78321 -0.678688 0
M  V30 4514 C 430.369 3.03238 -1.64744 0
M  V30 4515 C 429.482 3.18823 -2.91506 0
M  V30 4516 C 428.617 4.47599 -2.86057 0
M  V30 4517 C 427.656 4.56664 -4.07584 0
M  V30 4518 N 426.793 5.76811 -4.00292 0
M  V30 4519 H 431.633 1.52733 -2.55884 0
M  V30 4520 H 429.17 0.7438 -1.2691 0
M  V30 4521 H 431.128 3.83339 -1.64641 0
M  V30 4522 H 429.758 3.1425 -0.738017 0
M  V30 4523 H 428.81 2.32064 -3.01414 0
M  V30 4524 H 430.122 3.21384 -3.81463 0
M  V30 4525 H 429.276 5.35975 -2.84281 0
M  V30 4526 H 428.015 4.47538 -1.93807 0
M  V30 4527 H 427.02 3.66697 -4.09651 0
M  V30 4528 H 428.245 4.58474 -5.00978 0
M  V30 4529 H 426.191 5.77673 -3.10853 0
M  V30 4530 H 426.108 5.80808 -4.8394 0
M  V30 4531 H 427.376 6.67512 -4.02553 0
M  V30 4532 N 431.605 1.3629 0.791371 0
M  V30 4533 C 432.83 1.33726 1.58531 0
M  V30 4534 C 433.255 -0.0794933 1.87932 0
M  V30 4535 O 432.613 -1.05087 1.47738 0
M  V30 4536 C 432.661 2.16425 2.88431 0
M  V30 4537 O 431.765 1.5554 3.81944 0
M  V30 4538 H 431.106 0.457793 0.480959 0
M  V30 4539 H 433.636 1.79547 0.981031 0
M  V30 4540 H 433.646 2.28933 3.37718 0
M  V30 4541 H 432.321 3.19415 2.66359 0
M  V30 4542 H 430.898 1.51961 3.40532 0
M  V30 4543 N 433.083 -1.0153 1.20538 0
M  V30 4544 C 434.494 -1.56598 1.01657 0
M  V30 4545 C 434.845 -1.91505 -0.426668 0
M  V30 4546 O 433.97 -1.72375 -1.30827 0
M  V30 4547 C 434.565 -2.84542 1.83905 0
M  V30 4548 C 433.124 -3.36133 1.69386 0
M  V30 4549 C 432.271 -2.09427 1.81757 0
M  V30 4550 H 435.222 -0.838974 1.34711 0
M  V30 4551 H 435.243 -3.56004 1.34319 0
M  V30 4552 H 434.755 -2.59105 2.8894 0
M  V30 4553 H 432.856 -3.66528 0.669933 0
M  V30 4554 H 432.969 -4.08248 2.50739 0
M  V30 4555 H 431.333 -2.21941 1.24957 0
M  V30 4556 H 432.116 -1.86414 2.88279 0
M  V30 4557 N 434.561 -1.01147 -1.20859 0
M  V30 4558 C 435.809 -0.696486 -1.89719 0
M  V30 4559 C 436.13 0.775788 -1.78904 0
M  V30 4560 O 435.4 1.55759 -1.18811 0
M  V30 4561 H 433.98 -0.254628 -0.702263 0
M  V30 4562 H 436.642 -1.28197 -1.46804 0
M  V30 4563 H 435.738 -0.975357 -2.96468 0
M  V30 4564 N 436.039 1.36541 -0.78704 0
M  V30 4565 C 437.45 1.81873 -0.421807 0
M  V30 4566 C 437.801 1.65487 1.05397 0
M  V30 4567 O 436.926 1.17448 1.81755 0
M  V30 4568 C 437.521 3.30192 -0.758841 0
M  V30 4569 C 436.08 3.73743 -0.446468 0
M  V30 4570 C 435.227 2.58844 -0.994728 0
M  V30 4571 H 438.178 1.24796 -0.98039 0
M  V30 4572 H 438.199 3.80468 -0.0490648 0
M  V30 4573 H 437.711 3.42087 -1.83299 0
M  V30 4574 H 435.812 3.6741 0.619739 0
M  V30 4575 H 435.925 4.69272 -0.965415 0
M  V30 4576 H 434.289 2.51245 -0.418087 0
M  V30 4577 H 435.072 2.73525 -2.07458 0
M  V30 4578 N 437.518 0.538854 1.48102 0
M  V30 4579 C 438.743 0.0102694 2.07397 0
M  V30 4580 C 439.168 -1.26562 1.39153 0
M  V30 4581 O 438.526 -1.75357 0.460387 0
M  V30 4582 C 438.574 -0.187602 3.60112 0
M  V30 4583 O 437.678 -1.25432 3.92862 0
M  V30 4584 H 437.019 0.0430975 0.6626 0
M  V30 4585 H 439.549 0.749301 1.90385 0
M  V30 4586 H 439.559 -0.407517 4.0596 0
M  V30 4587 H 438.234 0.744386 4.09184 0
M  V30 4588 H 436.811 -1.01636 3.58782 0
M  V30 4589 N 438.996 -1.55193 0.274407 0
M  V30 4590 C 440.221 -2.04446 -0.348824 0
M  V30 4591 C 440.646 -1.15149 -1.48735 0
M  V30 4592 O 440.004 -0.149952 -1.80679 0
M  V30 4593 C 440.052 -3.51431 -0.808009 0
M  V30 4594 O 439.156 -3.65225 -1.91531 0
M  V30 4595 H 438.497 -0.66006 -0.0722276 0
M  V30 4596 H 441.027 -2.00481 0.408498 0
M  V30 4597 H 441.037 -3.92781 -1.10395 0
M  V30 4598 H 439.712 -4.15892 0.0249865 0
M  V30 4599 H 438.289 -3.35778 -1.62196 0
M  V30 4600 N 440.474 -0.00167713 -1.576 0
M  V30 4601 C 441.885 0.54091 -1.78693 0
M  V30 4602 C 442.236 1.7386 -0.909247 0
M  V30 4603 O 441.361 2.16109 -0.112176 0
M  V30 4604 C 441.956 0.98806 -3.24072 0
M  V30 4605 C 440.515 1.47594 -3.46256 0
M  V30 4606 C 439.662 0.42792 -2.73978 0
M  V30 4607 H 442.613 -0.22784 -1.57056 0
M  V30 4608 H 442.634 1.85398 -3.32277 0
M  V30 4609 H 442.146 0.116164 -3.87926 0
M  V30 4610 H 440.247 2.36868 -2.87618 0
M  V30 4611 H 440.36 1.50225 -4.54939 0
M  V30 4612 H 438.724 0.889934 -2.38647 0
M  V30 4613 H 439.507 -0.435038 -3.40532 0
M  V30 4614 N 441.952 1.55251 0.271103 0
M  V30 4615 C 442.899 1.88261 1.33516 0
M  V30 4616 C 443.869 0.734296 1.48988 0
M  V30 4617 O 445.054 0.985741 1.63364 0
M  V30 4618 C 442.194 2.16168 2.69008 0
M  V30 4619 C 441.307 3.43678 2.61743 0
M  V30 4620 C 440.442 3.61276 3.89427 0
M  V30 4621 C 439.481 4.82472 3.7668 0
M  V30 4622 N 438.618 4.96717 4.96202 0
M  V30 4623 H 443.458 2.79015 1.04665 0
M  V30 4624 H 440.995 1.38137 0.505618 0
M  V30 4625 H 442.953 2.30349 3.47844 0
M  V30 4626 H 441.583 1.28646 2.96057 0
M  V30 4627 H 440.635 3.37959 1.74607 0
M  V30 4628 H 441.947 4.3265 2.48224 0
M  V30 4629 H 441.101 3.75284 4.76704 0
M  V30 4630 H 439.84 2.70492 4.05814 0
M  V30 4631 H 438.845 4.68465 2.87786 0
M  V30 4632 H 440.07 5.74692 3.61809 0
M  V30 4633 H 438.016 4.08865 5.12997 0
M  V30 4634 H 437.933 5.79738 4.85222 0
M  V30 4635 H 439.201 5.15113 5.85046 0
M  V30 4636 N 443.43 -0.535701 1.48216 0
M  V30 4637 C 444.34 -1.66785 1.64985 0
M  V30 4638 C 445.356 -1.65654 0.532414 0
M  V30 4639 O 446.532 -1.8471 0.80275 0
M  V30 4640 C 443.597 -3.0326 1.68031 0
M  V30 4641 C 442.658 -3.1529 2.9136 0
M  V30 4642 C 441.891 -4.45255 2.94252 0
M  V30 4643 O 442.114 -5.32011 2.05719 0
M  V30 4644 O 441.048 -4.6153 3.86359 0
M  V30 4645 H 444.874 -1.55576 2.60825 0
M  V30 4646 H 442.459 -0.70815 1.31551 0
M  V30 4647 H 444.341 -3.84436 1.72589 0
M  V30 4648 H 443.016 -3.14805 0.753628 0
M  V30 4649 H 441.923 -2.3343 2.92337 0
M  V30 4650 H 443.256 -3.08658 3.83394 0
M  V30 4651 N 444.908 -1.36708 -0.784132 0
M  V30 4652 C 446.319 -1.27947 -1.35965 0
M  V30 4653 C 446.67 0.0784013 -1.96043 0
M  V30 4654 O 445.795 0.979989 -1.92938 0
M  V30 4655 C 446.39 -2.31689 -2.47195 0
M  V30 4656 C 444.949 -2.26601 -3.00548 0
M  V30 4657 C 444.096 -2.16184 -1.73666 0
M  V30 4658 H 447.047 -1.4751 -0.585358 0
M  V30 4659 H 447.068 -1.95638 -3.26352 0
M  V30 4660 H 446.58 -3.30506 -2.03439 0
M  V30 4661 H 444.681 -1.31268 -3.48711 0
M  V30 4662 H 444.794 -3.19508 -3.57004 0
M  V30 4663 H 443.158 -1.62524 -1.96107 0
M  V30 4664 H 443.941 -3.16896 -1.32031 0
M  V30 4665 N 446.386 1.0089 -1.21074 0
M  V30 4666 C 447.316 2.1145 -0.990523 0
M  V30 4667 C 448.297 1.69897 0.0831699 0
M  V30 4668 O 449.482 1.94052 -0.0758853 0
M  V30 4669 C 446.612 3.42914 -0.550177 0
M  V30 4670 C 445.566 3.98244 -1.56799 0
M  V30 4671 C 444.892 5.25568 -0.984013 0
M  V30 4672 C 446.192 4.30752 -2.95381 0
M  V30 4673 H 447.886 2.3013 -1.91521 0
M  V30 4674 H 445.432 1.10592 -0.92225 0
M  V30 4675 H 447.385 4.19653 -0.383305 0
M  V30 4676 H 446.109 3.24014 0.41015 0
M  V30 4677 H 444.768 3.23621 -1.72236 0
M  V30 4678 H 444.416 5.02998 -0.0155216 0
M  V30 4679 H 444.116 5.63551 -1.66384 0
M  V30 4680 H 445.64 6.04955 -0.828378 0
M  V30 4681 H 447.054 4.98349 -2.8341 0
M  V30 4682 H 445.451 4.79869 -3.60341 0
M  V30 4683 H 446.521 3.39192 -3.46521 0
M  V30 4684 N 447.864 1.01787 1.20321 0
M  V30 4685 C 448.794 0.609625 2.25401 0
M  V30 4686 C 449.775 -0.375951 1.65893 0
M  V30 4687 O 450.96 -0.261101 1.92437 0
M  V30 4688 C 448.09 -0.0515995 3.47262 0
M  V30 4689 C 447.044 0.855095 4.19371 0
M  V30 4690 C 446.37 0.0595757 5.34667 0
M  V30 4691 C 447.67 2.16374 4.75373 0
M  V30 4692 H 449.364 1.48803 2.59804 0
M  V30 4693 H 446.91 0.716934 1.24884 0
M  V30 4694 H 448.863 -0.348764 4.19954 0
M  V30 4695 H 447.587 -0.964726 3.12027 0
M  V30 4696 H 446.246 1.13628 3.48546 0
M  V30 4697 H 445.894 -0.85524 4.95676 0
M  V30 4698 H 445.594 0.663406 5.83843 0
M  V30 4699 H 447.118 -0.231105 6.10162 0
M  V30 4700 H 448.532 1.92885 5.39878 0
M  V30 4701 H 446.929 2.71853 5.34991 0
M  V30 4702 H 447.999 2.82589 3.94045 0
M  V30 4703 N 449.342 -1.36122 0.79427 0
M  V30 4704 C 450.589 -1.99111 0.368905 0
M  V30 4705 C 450.917 -1.63032 -1.0607 0
M  V30 4706 O 450.172 -0.879303 -1.74833 0
M  V30 4707 C 450.471 -3.5409 0.48527 0
M  V30 4708 C 450.137 -4.10003 1.87638 0
M  V30 4709 C 448.799 -4.24986 2.257 0
M  V30 4710 C 451.151 -4.40423 2.78706 0
M  V30 4711 C 448.479 -4.67701 3.54221 0
M  V30 4712 C 450.831 -4.84573 4.0666 0
M  V30 4713 C 449.495 -4.97761 4.44737 0
M  V30 4714 H 448.765 -0.7286 0.134992 0
M  V30 4715 H 451.412 -1.62534 1.01267 0
M  V30 4716 H 449.717 -3.91052 -0.241984 0
M  V30 4717 H 451.414 -4.00766 0.137109 0
M  V30 4718 H 448.004 -3.98784 1.57064 0
M  V30 4719 H 452.188 -4.28412 2.50553 0
M  V30 4720 H 447.444 -4.761 3.83587 0
M  V30 4721 H 451.618 -5.07074 4.77336 0
M  V30 4722 H 449.245 -5.30618 5.44379 0
M  V30 4723 N 450.82 -0.546701 -1.47814 0
M  V30 4724 C 452.045 -0.021268 -2.07389 0
M  V30 4725 C 452.47 1.25822 -1.39822 0
M  V30 4726 O 451.828 1.75111 -0.46968 0
M  V30 4727 C 451.876 0.168502 -3.60206 0
M  V30 4728 O 450.98 1.23347 -3.93522 0
M  V30 4729 H 450.321 -0.0466108 -0.662362 0
M  V30 4730 H 452.851 -0.759387 -1.89985 0
M  V30 4731 H 452.861 0.385982 -4.0617 0
M  V30 4732 H 451.536 -0.766075 -4.08784 0
M  V30 4733 H 450.113 0.997319 -3.59316 0
M  V30 4734 N 452.299 1.55045 -0.282633 0
M  V30 4735 C 453.715 1.59441 0.0712997 0
M  V30 4736 C 453.915 1.2998 1.53972 0
M  V30 4737 O 452.971 1.06431 2.28973 0
M  V30 4738 C 454.284 2.99097 -0.310104 0
M  V30 4739 C 455.832 3.1194 -0.257343 0
M  V30 4740 C 456.307 4.53875 -0.613297 0
M  V30 4741 N 457.798 4.5974 -0.565134 0
M  V30 4742 C 458.533 5.67603 -0.81326 0
M  V30 4743 N 458.029 6.83582 -1.1264 0
M  V30 4744 N 459.822 5.57187 -0.741553 0
M  V30 4745 H 451.973 1.72458 -1.23984 0
M  V30 4746 H 454.236 0.804549 -0.501403 0
M  V30 4747 H 453.942 3.25516 -1.33163 0
M  V30 4748 H 453.816 3.75616 0.345366 0
M  V30 4749 H 456.203 2.85281 0.754905 0
M  V30 4750 H 456.284 2.37618 -0.947178 0
M  V30 4751 H 455.928 4.81261 -1.62327 0
M  V30 4752 H 455.858 5.26508 0.09841 0
M  V30 4753 H 458.349 3.76427 -0.333294 0
M  V30 4754 H 458.662 7.6175 -1.30219 0
M  V30 4755 H 457.007 6.85179 -1.16425 0
M  V30 4756 H 460.198 4.65457 -0.496705 0
M  V30 4757 H 460.371 6.41171 -0.938306 0
M  V30 4758 N 453.777 0.010035 1.57597 0
M  V30 4759 C 455.054 -0.710296 1.82248 0
M  V30 4760 C 455.434 -1.91426 0.889911 0
M  V30 4761 O 454.782 -2.28424 -0.0590292 0
M  V30 4762 C 454.992 -1.10655 3.30993 0
M  V30 4763 C 456.34 -1.50621 3.96987 0
M  V30 4764 O 457.364 -1.20007 3.35375 0
M  V30 4765 O 456.223 -2.07587 5.05539 0
M  V30 4766 H 453.317 -0.34673 0.750804 0
M  V30 4767 H 455.863 0.0362578 1.69661 0
M  V30 4768 H 454.635 -0.248826 3.90508 0
M  V30 4769 H 454.258 -1.91189 3.48615 0
M  V30 4770 N 455.255 -1.55392 -0.262866 0
M  V30 4771 C 456.504 -1.75679 -0.990943 0
M  V30 4772 C 456.817 -0.57097 -1.87081 0
M  V30 4773 O 458.023 -0.656486 -2.63444 0
M  V30 4774 C 456.479 -3.10964 -1.81188 0
M  V30 4775 C 456.087 -4.37146 -0.980188 0
M  V30 4776 C 457.831 -3.40597 -2.53365 0
M  V30 4777 C 455.738 -5.63466 -1.7961 0
M  V30 4778 H 454.668 -0.654868 -0.373716 0
M  V30 4779 H 457.319 -1.81841 -0.246203 0
M  V30 4780 H 455.701 -2.98867 -2.59797 0
M  V30 4781 H 456.875 -4.60187 -0.237558 0
M  V30 4782 H 455.19 -4.14731 -0.372497 0
M  V30 4783 H 457.787 -4.32186 -3.14833 0
M  V30 4784 H 458.13 -2.6119 -3.24169 0
M  V30 4785 H 458.663 -3.53838 -1.81779 0
M  V30 4786 H 455.402 -6.4565 -1.13209 0
M  V30 4787 H 454.922 -5.44552 -2.51443 0
M  V30 4788 H 456.601 -6.02139 -2.36723 0
M  V30 4789 N 456.733 0.527833 -1.48498 0
M  V30 4790 C 457.958 1.313 -1.60546 0
M  V30 4791 C 458.383 1.86199 -0.26672 0
M  V30 4792 O 457.741 1.64513 0.761918 0
M  V30 4793 C 457.789 2.43818 -2.65678 0
M  V30 4794 O 456.893 3.46916 -2.22987 0
M  V30 4795 H 456.234 0.388784 -0.538277 0
M  V30 4796 H 458.764 0.634896 -1.945 0
M  V30 4797 H 458.774 2.89973 -2.87018 0
M  V30 4798 H 457.449 2.03222 -3.62869 0
M  V30 4799 H 456.026 3.06864 -2.11869 0
M  V30 4800 N 458.211 1.37122 0.776871 0
M  V30 4801 C 459.627 1.1781 1.07671 0
M  V30 4802 C 459.827 0.0107454 2.01497 0
M  V30 4803 O 458.883 -0.650756 2.4397 0
M  V30 4804 C 460.196 2.49451 1.67913 0
M  V30 4805 C 461.744 2.55927 1.80195 0
M  V30 4806 C 462.219 3.87686 2.43851 0
M  V30 4807 N 463.71 3.891 2.51307 0
M  V30 4808 C 464.445 4.87797 3.014 0
M  V30 4809 N 463.941 5.96888 3.51705 0
M  V30 4810 N 465.734 4.75205 3.00227 0
M  V30 4811 H 457.885 2.11843 0.153778 0
M  V30 4812 H 460.148 0.938927 0.130844 0
M  V30 4813 H 459.854 3.35207 1.06439 0
M  V30 4814 H 459.728 2.66169 2.67271 0
M  V30 4815 H 462.115 1.70582 2.40803 0
M  V30 4816 H 462.196 2.43097 0.796069 0
M  V30 4817 H 461.84 4.73444 1.83884 0
M  V30 4818 H 461.77 3.97817 3.45035 0
M  V30 4819 H 464.261 3.10293 2.157 0
M  V30 4820 H 464.574 6.68155 3.88316 0
M  V30 4821 H 462.919 6.0054 3.49824 0
M  V30 4822 H 466.11 3.89103 2.60224 0
M  V30 4823 H 466.283 5.52279 3.38957 0
M  V30 4824 N 459.689 -1.00246 1.21608 0
M  V30 4825 C 460.914 -1.78167 1.06167 0
M  V30 4826 C 461.339 -1.84138 -0.384035 0
M  V30 4827 O 460.697 -1.28683 -1.27712 0
M  V30 4828 C 460.745 -3.19786 1.66642 0
M  V30 4829 O 459.849 -4.02153 0.913613 0
M  V30 4830 H 459.19 -0.549 0.37349 0
M  V30 4831 H 461.72 -1.25994 1.61204 0
M  V30 4832 H 461.73 -3.70451 1.70969 0
M  V30 4833 H 460.405 -3.14754 2.7185 0
M  V30 4834 H 458.982 -3.60711 0.945635 0
M  V30 4835 N 461.167 -1.02423 -1.1978 0
M  V30 4836 C 462.077 -0.610919 -2.26506 0
M  V30 4837 C 463.093 0.355152 -1.70337 0
M  V30 4838 O 464.269 0.214195 -2.00258 0
M  V30 4839 C 461.334 0.0365921 -3.46681 0
M  V30 4840 C 460.395 -0.976389 -4.18049 0
M  V30 4841 C 459.628 -0.359683 -5.32487 0
M  V30 4842 O 459.851 0.838601 -5.64202 0
M  V30 4843 O 458.785 -1.08022 -5.92127 0
M  V30 4844 H 462.611 -1.49965 -2.64091 0
M  V30 4845 H 460.196 -0.794156 -1.26545 0
M  V30 4846 H 462.078 0.39786 -4.19518 0
M  V30 4847 H 460.753 0.899398 -3.10954 0
M  V30 4848 H 459.66 -1.38916 -3.47352 0
M  V30 4849 H 460.993 -1.80941 -4.57735 0
M  V30 4850 N 462.645 1.35699 -0.801477 0
M  V30 4851 C 463.87 2.03687 -0.390678 0
M  V30 4852 C 464.295 1.60015 0.988778 0
M  V30 4853 O 463.653 0.774357 1.63931 0
M  V30 4854 C 463.701 3.57439 -0.476404 0
M  V30 4855 O 462.805 4.09208 0.512106 0
M  V30 4856 H 462.146 0.64344 -0.163956 0
M  V30 4857 H 464.676 1.73403 -1.08594 0
M  V30 4858 H 464.686 4.06544 -0.344357 0
M  V30 4859 H 463.361 3.88576 -1.48262 0
M  V30 4860 H 461.938 3.7134 0.340721 0
M  V30 4861 N 464.123 0.554532 1.47522 0
M  V30 4862 C 465.053 -0.182974 2.32782 0
M  V30 4863 C 466.034 -0.911377 1.43624 0
M  V30 4864 O 467.219 -0.892366 1.72483 0
M  V30 4865 C 464.349 -1.21513 3.25349 0
M  V30 4866 C 463.303 -0.603355 4.23726 0
M  V30 4867 C 462.629 -1.73995 5.05598 0
M  V30 4868 C 463.929 0.441121 5.20434 0
M  V30 4869 H 465.623 0.52882 2.94693 0
M  V30 4870 H 463.169 0.255759 1.41711 0
M  V30 4871 H 465.122 -1.73922 3.83835 0
M  V30 4872 H 463.846 -1.95683 2.61487 0
M  V30 4873 H 462.505 -0.10059 3.66462 0
M  V30 4874 H 462.153 -2.47063 4.38143 0
M  V30 4875 H 461.853 -1.3364 5.72201 0
M  V30 4876 H 463.377 -2.26735 5.66942 0
M  V30 4877 H 464.791 0.00319931 5.733 0
M  V30 4878 H 463.188 0.763402 5.95224 0
M  V30 4879 H 464.258 1.33799 4.66075 0
M  V30 4880 N 465.601 -1.54893 0.290851 0
M  V30 4881 C 467.017 -1.59476 -0.0628432 0
M  V30 4882 C 467.217 -1.30795 -1.5328 0
M  V30 4883 O 466.273 -1.07644 -2.28406 0
M  V30 4884 C 467.586 -2.98928 0.325962 0
M  V30 4885 C 469.134 -3.11799 0.273882 0
M  V30 4886 C 469.609 -4.53544 0.637359 0
M  V30 4887 N 471.1 -4.59433 0.589507 0
M  V30 4888 C 471.835 -5.67164 0.84335 0
M  V30 4889 N 471.331 -6.82975 1.16263 0
M  V30 4890 N 473.124 -5.56786 0.771091 0
M  V30 4891 H 465.275 -1.71798 1.24896 0
M  V30 4892 H 467.538 -0.801879 0.505663 0
M  V30 4893 H 467.244 -3.24805 1.34887 0
M  V30 4894 H 467.118 -3.75793 -0.325441 0
M  V30 4895 H 469.505 -2.85677 -0.739765 0
M  V30 4896 H 469.586 -2.37112 0.959766 0
M  V30 4897 H 469.23 -4.80394 1.64877 0
M  V30 4898 H 469.16 -5.26553 -0.0704866 0
M  V30 4899 H 471.651 -3.76245 0.353252 0
M  V30 4900 H 471.964 -7.61048 1.34257 0
M  V30 4901 H 470.309 -6.84552 1.20057 0
M  V30 4902 H 473.5 -4.65187 0.521383 0
M  V30 4903 H 473.673 -6.40664 0.972295 0
M  V30 4904 N 467.08 -0.0183926 -1.57589 0
M  V30 4905 C 468.32 0.666846 -1.93216 0
M  V30 4906 C 468.684 1.69905 -0.894215 0
M  V30 4907 O 469.885 2.436 -1.13633 0
M  V30 4908 C 468.156 1.27684 -3.33814 0
M  V30 4909 S 469.715 1.98464 -3.91353 0
M  V30 4910 H 466.533 0.219826 -0.676164 0
M  V30 4911 H 469.135 -0.0794893 -1.95338 0
M  V30 4912 H 467.839 0.513006 -4.07181 0
M  V30 4913 H 467.37 2.06071 -3.3511 0
M  V30 4914 H 469.385 3.26189 -3.73918 0
M  V30 4915 N 468.558 1.5553 0.254621 0
M  V30 4916 C 469.783 1.81383 1.00573 0
M  V30 4917 C 470.208 0.594419 1.78461 0
M  V30 4918 O 469.566 -0.456403 1.75461 0
M  V30 4919 C 469.614 3.04892 1.92545 0
M  V30 4920 O 468.718 2.81266 3.01601 0
M  V30 4921 H 468.059 0.598969 0.286587 0
M  V30 4922 H 470.589 2.02703 0.277952 0
M  V30 4923 H 470.599 3.34119 2.34155 0
M  V30 4924 H 469.274 3.93287 1.3527 0
M  V30 4925 H 467.851 2.63185 2.64174 0
M  V30 4926 N 470.036 -0.519951 1.48776 0
M  V30 4927 C 471.261 -1.30447 1.6124 0
M  V30 4928 C 471.686 -1.86055 0.276591 0
M  V30 4929 O 471.044 -1.64915 -0.753183 0
M  V30 4930 C 471.092 -2.42406 2.66967 0
M  V30 4931 O 470.196 -3.45728 2.24824 0
M  V30 4932 H 469.537 -0.385924 0.540332 0
M  V30 4933 H 472.067 -0.624572 1.94834 0
M  V30 4934 H 472.077 -2.88447 2.88552 0
M  V30 4935 H 470.752 -2.01294 3.63941 0
M  V30 4936 H 469.329 -3.05737 2.13494 0
M  V30 4937 N 471.514 -1.37532 -0.769588 0
M  V30 4938 C 472.739 -1.36231 -1.56384 0
M  V30 4939 C 473.164 0.0495849 -1.88035 0
M  V30 4940 O 472.522 1.02723 -1.49391 0
M  V30 4941 C 472.57 -2.20986 -2.84952 0
M  V30 4942 O 471.674 -1.61597 -3.79421 0
M  V30 4943 H 471.015 -0.465387 -0.473615 0
M  V30 4944 H 473.545 -1.81085 -0.952342 0
M  V30 4945 H 473.555 -2.34277 -3.34034 0
M  V30 4946 H 472.23 -3.23612 -2.61243 0
M  V30 4947 H 470.807 -1.57359 -3.38072 0
M  V30 4948 N 472.992 0.995999 -1.22138 0
M  V30 4949 C 474.222 1.76809 -1.06874 0
M  V30 4950 C 474.63 1.85265 0.383866 0
M  V30 4951 O 473.973 1.31969 1.27789 0
M  V30 4952 C 474.035 3.2186 -1.60144 0
M  V30 4953 C 473.699 3.36958 -3.0872 0
M  V30 4954 C 474.696 3.2452 -4.0618 0
M  V30 4955 C 472.381 3.62109 -3.48112 0
M  V30 4956 C 474.375 3.37013 -5.41019 0
M  V30 4957 C 472.062 3.74243 -4.831 0
M  V30 4958 C 473.06 3.61702 -5.79362 0
M  V30 4959 O 472.748 3.73436 -7.119 0
M  V30 4960 H 472.48 0.562207 -0.375365 0
M  V30 4961 H 475.034 1.26113 -1.62125 0
M  V30 4962 H 473.264 3.73734 -0.992981 0
M  V30 4963 H 474.953 3.80775 -1.40589 0
M  V30 4964 H 475.719 3.05004 -3.77091 0
M  V30 4965 H 471.598 3.70949 -2.73712 0
M  V30 4966 H 475.142 3.27141 -6.16137 0
M  V30 4967 H 471.039 3.93266 -5.11872 0
M  V30 4968 H 471.807 3.90328 -7.19435 0
M  V30 4969 N 474.47 1.03057 1.19235 0
M  V30 4970 C 475.695 0.74757 1.93458 0
M  V30 4971 C 476.12 -0.687648 1.7508 0
M  V30 4972 O 475.478 -1.47499 1.05422 0
M  V30 4973 C 475.526 1.10604 3.43219 0
M  V30 4974 O 474.63 0.225671 4.11782 0
M  V30 4975 H 473.971 0.276047 0.603899 0
M  V30 4976 H 476.501 1.3777 1.51263 0
M  V30 4977 H 476.511 1.06366 3.93891 0
M  V30 4978 H 475.186 2.15165 3.55917 0
M  V30 4979 H 473.763 0.326795 3.71465 0
M  V30 4980 N 475.948 -1.35272 0.808662 0
M  V30 4981 C 476.88 -2.28507 0.178149 0
M  V30 4982 C 477.893 -1.50377 -0.623754 0
M  V30 4983 O 479.082 -1.72583 -0.455774 0
M  V30 4984 C 476.182 -3.30038 -0.769959 0
M  V30 4985 C 475.355 -4.37398 -0.0139749 0
M  V30 4986 C 474.414 -5.18775 -0.880875 0
M  V30 4987 O 473.44 -5.68236 -0.331059 0
M  V30 4988 N 474.642 -5.37087 -2.20267 0
M  V30 4989 H 477.407 -2.83255 0.979106 0
M  V30 4990 H 474.968 -1.47643 0.664308 0
M  V30 4991 H 476.96 -3.81371 -1.35418 0
M  V30 4992 H 475.53 -2.75789 -1.47171 0
M  V30 4993 H 474.75 -3.86971 0.751468 0
M  V30 4994 H 476.038 -5.06268 0.506965 0
M  V30 4995 H 475.436 -4.9855 -2.67328 0
M  V30 4996 H 473.993 -5.91593 -2.73608 0
M  V30 4997 N 477.426 -0.562348 -1.47226 0
M  V30 4998 C 478.358 0.220011 -2.28142 0
M  V30 4999 C 479.371 0.874596 -1.37312 0
M  V30 5000 O 480.56 0.747583 -1.62091 0
M  V30 5001 C 477.66 1.32953 -3.11732 0
M  V30 5002 C 476.833 0.770759 -4.30556 0
M  V30 5003 C 475.892 1.76541 -4.95701 0
M  V30 5004 O 474.918 1.3095 -5.53932 0
M  V30 5005 N 476.12 3.09896 -4.90861 0
M  V30 5006 H 478.885 -0.474107 -2.95926 0
M  V30 5007 H 476.446 -0.398761 -1.56912 0
M  V30 5008 H 478.438 1.99378 -3.5218 0
M  V30 5009 H 477.008 1.92681 -2.46156 0
M  V30 5010 H 476.228 -0.0704056 -3.94137 0
M  V30 5011 H 477.516 0.376872 -5.07402 0
M  V30 5012 H 476.914 3.49577 -4.44761 0
M  V30 5013 H 475.471 3.71865 -5.35313 0
M  V30 5014 N 478.904 1.54736 -0.299062 0
M  V30 5015 C 480.153 1.99279 0.311549 0
M  V30 5016 C 480.466 1.19107 1.55154 0
M  V30 5017 O 481.672 1.53908 2.23662 0
M  V30 5018 C 480.128 3.54768 0.605632 0
M  V30 5019 C 479.736 4.43746 -0.615914 0
M  V30 5020 C 481.48 4.07841 1.17754 0
M  V30 5021 C 479.387 5.90663 -0.29509 0
M  V30 5022 H 478.317 0.744359 0.120187 0
M  V30 5023 H 480.968 1.78919 -0.407464 0
M  V30 5024 H 479.35 3.71021 1.38419 0
M  V30 5025 H 480.524 4.39267 -1.39218 0
M  V30 5026 H 478.839 4.01434 -1.10633 0
M  V30 5027 H 481.436 5.15174 1.43179 0
M  V30 5028 H 481.779 3.58324 2.11918 0
M  V30 5029 H 482.312 3.95123 0.460739 0
M  V30 5030 H 479.051 6.44325 -1.20524 0
M  V30 5031 H 478.571 5.98155 0.44394 0
M  V30 5032 H 480.25 6.46916 0.104048 0
M  V30 5033 N 480.382 0.0267497 1.57577 0
M  V30 5034 C 481.629 -0.652404 1.91703 0
M  V30 5035 C 481.957 -1.72271 0.902936 0
M  V30 5036 O 481.212 -1.955 -0.0884843 0
M  V30 5037 C 481.511 -1.30914 3.3256 0
M  V30 5038 C 481.177 -0.369441 4.49384 0
M  V30 5039 C 479.839 -0.110791 4.81072 0
M  V30 5040 C 482.191 0.275971 5.20469 0
M  V30 5041 C 479.519 0.801116 5.81205 0
M  V30 5042 C 481.871 1.17592 6.21575 0
M  V30 5043 C 480.535 1.44348 6.51705 0
M  V30 5044 H 479.805 -0.238732 0.70149 0
M  V30 5045 H 482.452 0.0880091 1.91298 0
M  V30 5046 H 480.757 -2.12425 3.29216 0
M  V30 5047 H 482.454 -1.84115 3.56234 0
M  V30 5048 H 479.044 -0.581211 4.24641 0
M  V30 5049 H 483.228 0.0892 4.9622 0
M  V30 5050 H 478.484 1.01614 6.02897 0
M  V30 5051 H 482.658 1.68223 6.75777 0
M  V30 5052 H 480.285 2.15176 7.29111 0
M  V30 5053 N 481.861 -1.55662 -0.24637 0
M  V30 5054 C 483.277 -1.48098 -0.594907 0
M  V30 5055 C 483.477 -0.717044 -1.8831 0
M  V30 5056 O 482.533 -0.246618 -2.51293 0
M  V30 5057 C 483.846 -2.92507 -0.697146 0
M  V30 5058 C 485.394 -3.02881 -0.789436 0
M  V30 5059 C 485.869 -4.48598 -0.923232 0
M  V30 5060 N 487.36 -4.52538 -0.988088 0
M  V30 5061 C 488.095 -5.62536 -1.11089 0
M  V30 5062 N 487.591 -6.82342 -1.19919 0
M  V30 5063 N 489.384 -5.50334 -1.14408 0
M  V30 5064 H 481.535 -2.0377 0.599278 0
M  V30 5065 H 483.798 -0.925145 0.20691 0
M  V30 5066 H 483.504 -3.51242 0.179396 0
M  V30 5067 H 483.378 -3.43024 -1.5689 0
M  V30 5068 H 485.765 -2.44226 -1.65643 0
M  V30 5069 H 485.846 -2.55574 0.107482 0
M  V30 5070 H 485.49 -5.07864 -0.0607927 0
M  V30 5071 H 485.42 -4.93587 -1.8352 0
M  V30 5072 H 487.911 -3.66248 -0.931167 0
M  V30 5073 H 488.224 -7.61924 -1.29197 0
M  V30 5074 H 486.569 -6.85102 -1.16876 0
M  V30 5075 H 489.76 -4.5567 -1.07158 0
M  V30 5076 H 489.933 -6.36096 -1.23634 0
M  V30 5077 N 483.339 0.512053 -1.4905 0
M  V30 5078 C 484.75 1.09376 -1.51307 0
M  V30 5079 C 485.101 1.94 -0.292971 0
M  V30 5080 O 484.226 2.07965 0.598277 0
M  V30 5081 C 484.821 1.99031 -2.74176 0
M  V30 5082 C 483.38 2.52385 -2.79247 0
M  V30 5083 C 482.527 1.29749 -2.45073 0
M  V30 5084 H 485.478 0.296467 -1.55906 0
M  V30 5085 H 485.499 2.83569 -2.53711 0
M  V30 5086 H 485.011 1.37412 -3.62959 0
M  V30 5087 H 483.112 3.17673 -1.94716 0
M  V30 5088 H 483.225 2.90293 -3.81139 0
M  V30 5089 H 481.589 1.61912 -1.96612 0
M  V30 5090 H 482.372 0.698555 -3.36118 0
M  V30 5091 N 484.817 1.37938 0.762283 0
M  V30 5092 C 486.057 1.35076 1.53407 0
M  V30 5093 C 486.421 -0.061546 1.91901 0
M  V30 5094 O 487.622 -0.214973 2.67939 0
M  V30 5095 C 485.893 2.27206 2.75884 0
M  V30 5096 S 487.452 2.42283 3.65848 0
M  V30 5097 H 484.27 0.479387 0.52508 0
M  V30 5098 H 486.872 1.7378 0.895586 0
M  V30 5099 H 485.576 3.28724 2.457 0
M  V30 5100 H 485.107 1.8962 3.44685 0
M  V30 5101 H 487.122 1.64044 4.68299 0
M  V30 5102 N 486.295 -0.989507 1.22664 0
M  V30 5103 C 487.572 -1.70326 0.961688 0
M  V30 5104 C 487.952 -2.04537 -0.522279 0
M  V30 5105 O 487.3 -1.73136 -1.49118 0
M  V30 5106 C 487.51 -2.95135 1.86269 0
M  V30 5107 C 488.858 -3.67842 2.12078 0
M  V30 5108 O 489.882 -3.0515 1.83745 0
M  V30 5109 O 488.741 -4.80644 2.60083 0
M  V30 5110 H 485.835 -0.743589 0.361946 0
M  V30 5111 H 488.381 -1.04555 1.33665 0
M  V30 5112 H 487.153 -2.66382 2.8663 0
M  V30 5113 H 486.776 -3.68645 1.48952 0
M  V30 5114 N 487.773 -1.03688 -1.18687 0
M  V30 5115 C 488.703 -0.645407 -2.24403 0
M  V30 5116 C 489.684 0.349511 -1.66471 0
M  V30 5117 O 490.869 0.230453 -1.92828 0
M  V30 5118 C 487.999 -0.00365337 -3.473 0
M  V30 5119 C 486.953 -0.921705 -4.17958 0
M  V30 5120 C 486.279 -0.144629 -5.34504 0
M  V30 5121 C 487.579 -2.23909 -4.71871 0
M  V30 5122 H 489.273 -1.52917 -2.57404 0
M  V30 5123 H 486.819 -0.736711 -1.23728 0
M  V30 5124 H 488.772 0.281908 -4.20456 0
M  V30 5125 H 487.496 0.914963 -3.13522 0
M  V30 5126 H 486.155 -1.19159 -3.46694 0
M  V30 5127 H 485.803 0.776274 -4.96974 0
M  V30 5128 H 485.503 -0.756206 -5.82714 0
M  V30 5129 H 487.027 0.134004 -6.10453 0
M  V30 5130 H 488.441 -2.0145 -5.36741 0
M  V30 5131 H 486.838 -2.8033 -5.30599 0
M  V30 5132 H 487.908 -2.88822 -3.895 0
M  V30 5133 N 489.251 1.34841 -0.815825 0
M  V30 5134 C 490.5 1.97755 -0.396976 0
M  V30 5135 C 490.813 1.65422 1.04379 0
M  V30 5136 O 492.019 2.21771 1.5662 0
M  V30 5137 C 490.475 3.53818 -0.658869 0
M  V30 5138 C 490.083 3.95051 -2.11278 0
M  V30 5139 C 491.827 4.23397 -0.305834 0
M  V30 5140 C 489.734 5.43997 -2.31994 0
M  V30 5141 H 488.664 0.739985 -0.1447 0
M  V30 5142 H 491.315 1.53781 -1.00118 0
M  V30 5143 H 489.697 3.95997 0.0154112 0
M  V30 5144 H 490.871 3.63998 -2.82564 0
M  V30 5145 H 489.186 3.38388 -2.42657 0
M  V30 5146 H 491.783 5.32899 -0.43854 0
M  V30 5147 H 492.126 4.09508 0.748952 0
M  V30 5148 H 492.659 3.8667 -0.934403 0
M  V30 5149 H 489.398 5.62865 -3.35952 0
M  V30 5150 H 488.918 5.76589 -1.65244 0
M  V30 5151 H 490.597 6.10584 -2.14001 0
M  V30 5152 N 490.729 0.570148 1.46925 0
M  V30 5153 C 491.679 -0.190921 2.27199 0
M  V30 5154 C 492.663 -0.873457 1.35128 0
M  V30 5155 O 493.855 -0.769627 1.59392 0
M  V30 5156 C 490.984 -1.21204 3.21192 0
M  V30 5157 C 490.07 -0.532261 4.20747 0
M  V30 5158 N 490.461 0.405038 5.04176 0
M  V30 5159 C 488.759 -0.784582 4.39045 0
M  V30 5160 C 489.46 0.801149 5.76157 0
M  V30 5161 N 488.436 0.153082 5.43384 0
M  V30 5162 H 492.238 0.529535 2.8909 0
M  V30 5163 H 489.752 0.391019 1.57622 0
M  V30 5164 H 491.749 -1.77135 3.77398 0
M  V30 5165 H 490.409 -1.93345 2.6086 0
M  V30 5166 H 491.42 0.779903 5.11994 0
M  V30 5167 H 488.097 -1.49352 3.89872 0
M  V30 5168 H 489.487 1.57208 6.5325 0
M  V30 5169 N 492.207 -1.54576 0.307264 0
M  V30 5170 C 493.455 -1.99867 -0.299574 0
M  V30 5171 C 493.776 -1.19714 -1.53927 0
M  V30 5172 O 493.046 -0.29472 -1.9367 0
M  V30 5173 H 491.626 -0.738299 -0.113683 0
M  V30 5174 H 494.288 -1.9032 0.420042 0
M  V30 5175 H 493.384 -3.06901 -0.567283 0
M  V30 5176 N 493.685 -0.035106 -1.57561 0
M  V30 5177 C 494.595 0.960295 -2.14046 0
M  V30 5178 C 495.611 1.3529 -1.0942 0
M  V30 5179 O 496.787 1.43309 -1.41508 0
M  V30 5180 C 493.852 2.22214 -2.66124 0
M  V30 5181 C 492.913 1.8894 -3.85487 0
M  V30 5182 C 492.146 3.09109 -4.35072 0
M  V30 5183 O 492.369 4.21963 -3.83802 0
M  V30 5184 O 491.303 2.91058 -5.26848 0
M  V30 5185 H 495.129 0.509983 -2.99387 0
M  V30 5186 H 492.714 0.185853 -1.48239 0
M  V30 5187 H 494.596 2.96279 -2.99661 0
M  V30 5188 H 493.271 2.66414 -1.83862 0
M  V30 5189 H 492.178 1.12241 -3.56865 0
M  V30 5190 H 493.511 1.49551 -4.6893 0
M  V30 5191 N 495.163 1.55791 0.238111 0
M  V30 5192 C 496.409 1.78297 0.966337 0
M  V30 5193 C 496.742 0.601903 1.84637 0
M  V30 5194 O 496.017 -0.399499 1.90353 0
M  V30 5195 C 496.3 3.10758 1.81939 0
M  V30 5196 C 496.153 4.39283 0.966958 0
M  V30 5197 C 497.472 3.39519 2.80027 0
M  V30 5198 H 494.591 0.648654 0.349882 0
M  V30 5199 H 497.233 1.88525 0.236253 0
M  V30 5200 H 495.383 3.02168 2.44185 0
M  V30 5201 H 497.055 4.59873 0.362514 0
M  V30 5202 H 495.298 4.32948 0.271669 0
M  V30 5203 H 495.969 5.28368 1.59784 0
M  V30 5204 H 498.445 3.48128 2.27917 0
M  V30 5205 H 497.321 4.33402 3.36829 0
M  V30 5206 H 497.582 2.60864 3.56934 0
M  V30 5207 N 496.642 -0.504142 1.49319 0
M  V30 5208 C 497.572 -1.61473 1.68667 0
M  V30 5209 C 498.553 -1.61455 0.535378 0
M  V30 5210 O 499.738 -1.78245 0.770868 0
M  V30 5211 C 496.868 -2.99971 1.75028 0
M  V30 5212 C 495.822 -3.14854 2.89916 0
M  V30 5213 C 495.148 -4.54671 2.81387 0
M  V30 5214 C 496.448 -2.95176 4.30893 0
M  V30 5215 H 498.142 -1.45535 2.61648 0
M  V30 5216 H 495.688 -0.698711 1.25913 0
M  V30 5217 H 497.641 -3.77562 1.8715 0
M  V30 5218 H 496.365 -3.1699 0.786441 0
M  V30 5219 H 495.024 -2.39687 2.77391 0
M  V30 5220 H 494.672 -4.68562 1.82917 0
M  V30 5221 H 494.372 -4.6557 3.58494 0
M  V30 5222 H 495.896 -5.34327 2.95512 0
M  V30 5223 H 497.31 -3.62538 4.44116 0
M  V30 5224 H 495.707 -3.17549 5.09198 0
M  V30 5225 H 496.777 -1.91332 4.45556 0
M  V30 5226 N 498.12 -1.38341 -0.754957 0
M  V30 5227 C 499.368 -1.34208 -1.51105 0
M  V30 5228 C 499.689 0.0677634 -1.94882 0
M  V30 5229 O 498.959 1.01517 -1.67544 0
M  V30 5230 H 497.539 -0.493819 -0.560493 0
M  V30 5231 H 500.201 -1.73005 -0.897507 0
M  V30 5232 H 499.297 -1.99203 -2.4026 0
M  V30 5233 N 499.598 0.982988 -1.23187 0
M  V30 5234 C 500.545 2.07491 -1.01075 0
M  V30 5235 C 501.515 1.65949 0.070905 0
M  V30 5236 O 502.7 1.90629 -0.0806822 0
M  V30 5237 C 499.84 3.39751 -0.605261 0
M  V30 5238 C 498.953 3.94578 -1.75876 0
M  V30 5239 C 498.088 5.15039 -1.3003 0
M  V30 5240 C 497.127 5.62027 -2.42472 0
M  V30 5241 N 496.264 6.73719 -1.97602 0
M  V30 5242 H 501.104 2.25739 -1.9454 0
M  V30 5243 H 498.641 1.10659 -0.969179 0
M  V30 5244 H 500.599 4.15719 -0.351279 0
M  V30 5245 H 499.229 3.21473 0.292382 0
M  V30 5246 H 498.281 3.1539 -2.12681 0
M  V30 5247 H 499.593 4.25422 -2.60418 0
M  V30 5248 H 498.747 5.9833 -1.00429 0
M  V30 5249 H 497.486 4.85843 -0.425216 0
M  V30 5250 H 496.491 4.77318 -2.7285 0
M  V30 5251 H 497.716 5.93244 -3.30512 0
M  V30 5252 H 495.662 6.46287 -1.1247 0
M  V30 5253 H 495.579 7.03934 -2.75705 0
M  V30 5254 H 496.847 7.6049 -1.71098 0
M  V30 5255 N 501.076 1.04316 1.18135 0
M  V30 5256 C 502.324 0.746542 1.87806 0
M  V30 5257 C 502.645 -0.728082 1.80898 0
M  V30 5258 O 501.915 -1.52554 1.22899 0
M  V30 5259 H 500.495 0.273157 0.695265 0
M  V30 5260 H 503.157 1.32044 1.43354 0
M  V30 5261 H 502.253 1.05362 2.93778 0
M  V30 5262 N 502.554 -1.34406 0.822964 0
M  V30 5263 C 503.801 -1.98284 0.411057 0
M  V30 5264 C 504.129 -1.65245 -1.02588 0
M  V30 5265 O 503.384 -0.91619 -1.72929 0
M  V30 5266 C 503.683 -3.52981 0.560268 0
M  V30 5267 C 503.349 -4.05931 1.96293 0
M  V30 5268 C 502.011 -4.20103 2.34664 0
M  V30 5269 C 504.363 -4.34412 2.87985 0
M  V30 5270 C 501.691 -4.60082 3.64062 0
M  V30 5271 C 504.043 -4.75838 4.16847 0
M  V30 5272 C 502.707 -4.88215 4.55195 0
M  V30 5273 H 501.977 -0.725573 0.150416 0
M  V30 5274 H 504.624 -1.60349 1.04692 0
M  V30 5275 H 502.929 -3.91477 -0.158982 0
M  V30 5276 H 504.626 -4.00385 0.222087 0
M  V30 5277 H 501.216 -3.95363 1.65487 0
M  V30 5278 H 505.4 -4.23001 2.59584 0
M  V30 5279 H 500.656 -4.67856 3.93599 0
M  V30 5280 H 504.83 -4.96834 4.87984 0
M  V30 5281 H 502.457 -5.18952 5.55512 0
M  V30 5282 N 504.032 -0.577932 -1.46621 0
M  V30 5283 C 505.279 -0.0616879 -2.02406 0
M  V30 5284 C 505.607 1.29638 -1.44997 0
M  V30 5285 O 504.862 1.86176 -0.60308 0
M  V30 5286 C 505.161 0.0590832 -3.57351 0
M  V30 5287 C 504.827 -1.23077 -4.33777 0
M  V30 5288 C 503.489 -1.58416 -4.54376 0
M  V30 5289 C 505.841 -2.08457 -4.77698 0
M  V30 5290 C 503.169 -2.78943 -5.16147 0
M  V30 5291 C 505.521 -3.28204 -5.408 0
M  V30 5292 C 504.185 -3.63832 -5.59627 0
M  V30 5293 H 503.455 -0.0225732 -0.740656 0
M  V30 5294 H 506.102 -0.753609 -1.76048 0
M  V30 5295 H 504.407 0.834104 -3.82818 0
M  V30 5296 H 506.104 0.474202 -3.98186 0
M  V30 5297 H 502.694 -0.945652 -4.18038 0
M  V30 5298 H 506.878 -1.82459 -4.61544 0
M  V30 5299 H 502.134 -3.06689 -5.28916 0
M  V30 5300 H 506.308 -3.94634 -5.73792 0
M  V30 5301 H 503.935 -4.57315 -6.07262 0
M  V30 5302 N 505.51 1.54411 -0.315457 0
M  V30 5303 C 506.758 2.00023 0.288971 0
M  V30 5304 C 507.079 1.20529 1.5329 0
M  V30 5305 O 506.349 0.304986 1.93511 0
M  V30 5306 H 504.929 0.738891 0.109766 0
M  V30 5307 H 507.591 1.90094 -0.430129 0
M  V30 5308 H 506.687 3.07198 0.550999 0
M  V30 5309 N 506.988 0.0434614 1.5754 0
M  V30 5310 C 507.92 -0.962586 2.08007 0
M  V30 5311 C 508.933 -1.27972 1.00634 0
M  V30 5312 O 510.122 -1.24186 1.28219 0
M  V30 5313 C 507.222 -2.28621 2.50171 0
M  V30 5314 C 506.395 -2.15214 3.80791 0
M  V30 5315 C 505.454 -3.30633 4.09351 0
M  V30 5316 O 504.48 -3.0688 4.79388 0
M  V30 5317 N 505.682 -4.54873 3.60654 0
M  V30 5318 H 508.447 -0.531891 2.94942 0
M  V30 5319 H 506.008 -0.142965 1.61268 0
M  V30 5320 H 508 -3.04689 2.66359 0
M  V30 5321 H 506.57 -2.63283 1.68525 0
M  V30 5322 H 505.79 -1.23785 3.74261 0
M  V30 5323 H 507.078 -2.03475 4.66343 0
M  V30 5324 H 506.476 -4.77063 3.04019 0
M  V30 5325 H 505.033 -5.2806 3.82094 0
M  V30 5326 N 508.466 -1.55915 -0.229846 0
M  V30 5327 C 509.429 -1.90914 -1.26824 0
M  V30 5328 C 510.429 -0.786999 -1.40225 0
M  V30 5329 O 511.619 -1.05484 -1.38632 0
M  V30 5330 C 508.751 -2.15264 -2.64337 0
M  V30 5331 H 509.944 -2.8378 -0.969998 0
M  V30 5332 H 507.497 -1.49069 -0.4699 0
M  V30 5333 H 508.232 -1.24923 -2.99274 0
M  V30 5334 H 508.017 -2.97005 -2.55989 0
M  V30 5335 H 509.507 -2.43467 -3.39284 0
M  V30 5336 N 509.944 0.496216 -1.49584 0
M  V30 5337 C 511.193 1.24668 -1.58558 0
M  V30 5338 C 511.506 1.9359 -0.279703 0
M  V30 5339 O 512.712 2.70365 -0.248048 0
M  V30 5340 C 511.168 2.26388 -2.79779 0
M  V30 5341 C 510.776 1.63384 -4.17145 0
M  V30 5342 C 512.52 3.02233 -2.98086 0
M  V30 5343 C 510.427 2.63243 -5.29582 0
M  V30 5344 H 509.357 0.468995 -0.590389 0
M  V30 5345 H 512.008 0.519985 -1.75978 0
M  V30 5346 H 510.39 3.02241 -2.55863 0
M  V30 5347 H 511.564 0.93491 -4.51216 0
M  V30 5348 H 509.879 0.999121 -4.04236 0
M  V30 5349 H 512.476 3.76919 -3.79257 0
M  V30 5350 H 512.819 3.60132 -2.08831 0
M  V30 5351 H 513.352 2.33495 -3.22063 0
M  V30 5352 H 510.091 2.10119 -6.20911 0
M  V30 5353 H 509.611 3.31363 -4.99959 0
M  V30 5354 H 511.29 3.25575 -5.59115 0
M  V30 5355 N 511.423 1.38739 0.74761 0
M  V30 5356 C 512.37 1.36449 1.86146 0
M  V30 5357 C 513.34 0.226098 1.64554 0
M  V30 5358 O 514.525 0.41926 1.86137 0
M  V30 5359 C 511.665 1.2013 3.23516 0
M  V30 5360 C 510.778 2.43407 3.56899 0
M  V30 5361 C 509.913 2.19773 4.83605 0
M  V30 5362 C 508.952 3.3879 5.09792 0
M  V30 5363 N 508.089 3.14553 6.27695 0
M  V30 5364 H 512.929 2.3167 1.87438 0
M  V30 5365 H 510.466 1.15094 0.916063 0
M  V30 5366 H 512.424 1.08683 4.02795 0
M  V30 5367 H 511.054 0.285453 3.21535 0
M  V30 5368 H 510.106 2.65504 2.72418 0
M  V30 5369 H 511.418 3.32094 3.72176 0
M  V30 5370 H 510.572 2.05496 5.70838 0
M  V30 5371 H 509.311 1.28461 4.70478 0
M  V30 5372 H 508.316 3.53579 4.21025 0
M  V30 5373 H 509.541 4.30986 5.24812 0
M  V30 5374 H 507.487 2.25893 6.1588 0
M  V30 5375 H 507.404 3.96791 6.435 0
M  V30 5376 H 508.672 3.03943 7.17801 0
M  V30 5377 N 512.901 -0.976442 1.23707 0
M  V30 5378 C 514.147 -1.72081 1.07312 0
M  V30 5379 C 514.48 -1.90275 -0.388476 0
M  V30 5380 O 513.755 -1.4579 -1.28746 0
M  V30 5381 C 514.038 -3.11675 1.80363 0
M  V30 5382 C 513.891 -3.01027 3.3422 0
M  V30 5383 C 515.21 -4.1117 1.5693 0
M  V30 5384 H 512.329 -0.624583 0.391236 0
M  V30 5385 H 514.971 -1.13649 1.52263 0
M  V30 5386 H 513.121 -3.61559 1.42153 0
M  V30 5387 H 514.793 -2.58637 3.81975 0
M  V30 5388 H 513.036 -2.3744 3.63049 0
M  V30 5389 H 513.707 -3.9988 3.80525 0
M  V30 5390 H 516.183 -3.7011 1.90151 0
M  V30 5391 H 515.059 -5.06928 2.10513 0
M  V30 5392 H 515.32 -4.392 0.505548 0
M  V30 5393 N 514.379 -1.04941 -1.1758 0
M  V30 5394 C 515.607 -0.778294 -1.91703 0
M  V30 5395 C 516.022 0.665697 -1.76675 0
M  V30 5396 O 515.379 1.45456 -1.10222 0
M  V30 5397 C 515.43 -1.14628 -3.42845 0
M  V30 5398 O 515.151 -2.53359 -3.57409 0
M  V30 5399 C 516.652 -0.900931 -4.34049 0
M  V30 5400 H 513.872 -0.283167 -0.608323 0
M  V30 5401 H 516.416 -1.39942 -1.49119 0
M  V30 5402 H 514.571 -0.569953 -3.83184 0
M  V30 5403 H 514.985 -2.67709 -4.51035 0
M  V30 5404 H 516.459 -1.20817 -5.38616 0
M  V30 5405 H 516.936 0.163966 -4.38894 0
M  V30 5406 H 517.542 -1.46097 -3.99419 0
M  V30 5407 N 515.857 1.33968 -0.830081 0
M  V30 5408 C 516.807 2.26845 -0.229242 0
M  V30 5409 C 517.791 1.48862 0.610659 0
M  V30 5410 O 518.983 1.70808 0.464067 0
M  V30 5411 C 516.112 3.3798 0.602057 0
M  V30 5412 C 515.198 4.23369 -0.248866 0
M  V30 5413 N 515.589 4.88182 -1.32334 0
M  V30 5414 C 513.887 4.45987 -0.0344077 0
M  V30 5415 C 514.588 5.51671 -1.84482 0
M  V30 5416 N 513.564 5.31348 -1.14762 0
M  V30 5417 H 517.366 2.74464 -1.05104 0
M  V30 5418 H 514.88 1.4777 -0.673623 0
M  V30 5419 H 516.877 4.03494 1.04873 0
M  V30 5420 H 515.537 2.9191 1.42193 0
M  V30 5421 H 516.548 4.88988 -1.70619 0
M  V30 5422 H 513.225 4.10658 0.752727 0
M  V30 5423 H 514.615 6.13308 -2.74413 0
M  V30 5424 N 517.335 0.585699 1.46312 0
M  V30 5425 C 518.282 -0.145835 2.30339 0
M  V30 5426 C 519.252 -0.881215 1.40797 0
M  V30 5427 O 520.437 -0.871293 1.69744 0
M  V30 5428 C 517.577 -1.15161 3.25318 0
M  V30 5429 C 516.69 -0.419367 4.2996 0
M  V30 5430 C 515.825 -1.41293 5.12064 0
M  V30 5431 C 514.864 -0.667261 6.08452 0
M  V30 5432 N 514.001 -1.60903 6.83414 0
M  V30 5433 H 518.841 0.576755 2.92365 0
M  V30 5434 H 516.378 0.296237 1.44086 0
M  V30 5435 H 518.336 -1.74763 3.78832 0
M  V30 5436 H 516.966 -1.84188 2.65094 0
M  V30 5437 H 516.018 0.291751 3.7928 0
M  V30 5438 H 517.33 0.163433 4.98532 0
M  V30 5439 H 516.484 -2.08167 5.6987 0
M  V30 5440 H 515.223 -2.02966 4.43459 0
M  V30 5441 H 514.228 0.0152356 5.49798 0
M  V30 5442 H 515.453 -0.0558817 6.79077 0
M  V30 5443 H 513.399 -2.21381 6.17516 0
M  V30 5444 H 513.316 -1.07911 7.48259 0
M  V30 5445 H 514.584 -2.26802 7.45775 0
M  V30 5446 N 518.813 -1.54241 0.323641 0
M  V30 5447 C 519.776 -2.22997 -0.529602 0
M  V30 5448 C 520.776 -1.22345 -1.04347 0
M  V30 5449 O 521.966 -1.46924 -0.935889 0
M  V30 5450 C 519.098 -2.93409 -1.73562 0
M  V30 5451 H 520.291 -2.99815 0.0714518 0
M  V30 5452 H 517.844 -1.56121 0.0747258 0
M  V30 5453 H 518.579 -2.20729 -2.37591 0
M  V30 5454 H 518.364 -3.67217 -1.37456 0
M  V30 5455 H 519.854 -3.45794 -2.34128 0
M  V30 5456 N 520.291 -0.0518155 -1.57515 0
M  V30 5457 C 521.519 0.631395 -1.9703 0
M  V30 5458 C 521.934 1.64341 -0.92938 0
M  V30 5459 O 521.291 1.82296 0.0863266 0
M  V30 5460 C 521.342 1.31774 -3.36627 0
M  V30 5461 O 521.063 0.346247 -4.3673 0
M  V30 5462 C 522.564 2.09065 -3.90905 0
M  V30 5463 H 519.784 0.172576 -0.648428 0
M  V30 5464 H 522.328 -0.118306 -2.04158 0
M  V30 5465 H 520.483 2.01867 -3.30649 0
M  V30 5466 H 520.897 0.836226 -5.17791 0
M  V30 5467 H 522.371 2.52508 -4.9086 0
M  V30 5468 H 522.848 2.93908 -3.26366 0
M  V30 5469 H 523.454 1.43882 -4.00223 0
M  V30 5470 N 521.769 1.56035 0.221574 0
M  V30 5471 C 523.017 1.78693 0.944102 0
M  V30 5472 C 523.338 0.620317 1.8487 0
M  V30 5473 O 522.608 -0.362784 1.92512 0
M  V30 5474 H 521.188 0.659082 0.351597 0
M  V30 5475 H 523.85 1.93497 0.233435 0
M  V30 5476 H 522.946 2.70837 1.55093 0
M  V30 5477 N 523.247 -0.488276 1.49845 0
M  V30 5478 C 524.194 -1.58836 1.67451 0
M  V30 5479 C 525.164 -1.57886 0.515857 0
M  V30 5480 O 526.349 -1.75679 0.744403 0
M  V30 5481 C 523.489 -2.96915 1.75885 0
M  V30 5482 C 522.602 -3.07784 3.03138 0
M  V30 5483 C 521.737 -4.36673 3.02473 0
M  V30 5484 C 520.776 -4.41222 4.24252 0
M  V30 5485 N 519.913 -5.61557 4.21424 0
M  V30 5486 H 524.753 -1.43131 2.61376 0
M  V30 5487 H 522.29 -0.696186 1.29583 0
M  V30 5488 H 524.248 -3.76965 1.78755 0
M  V30 5489 H 522.878 -3.11295 0.85414 0
M  V30 5490 H 521.93 -2.20717 3.09819 0
M  V30 5491 H 523.242 -3.07005 3.93128 0
M  V30 5492 H 522.396 -5.25055 3.03977 0
M  V30 5493 H 521.135 -4.40037 2.10283 0
M  V30 5494 H 520.14 -3.5124 4.22978 0
M  V30 5495 H 521.365 -4.39564 5.17649 0
M  V30 5496 H 519.311 -5.65738 3.32078 0
M  V30 5497 H 519.228 -5.62447 5.05163 0
M  V30 5498 H 520.496 -6.52111 4.2705 0
M  V30 5499 N 524.725 -1.39134 -0.740242 0
M  V30 5500 C 525.971 -1.36273 -1.50192 0
M  V30 5501 C 526.304 0.0430136 -1.94152 0
M  V30 5502 O 525.579 1.00691 -1.66408 0
M  V30 5503 C 525.862 -2.33041 -2.74525 0
M  V30 5504 C 525.715 -3.82535 -2.36617 0
M  V30 5505 C 527.034 -2.27723 -3.76604 0
M  V30 5506 H 524.153 -0.496323 -0.544823 0
M  V30 5507 H 526.795 -1.70085 -0.846815 0
M  V30 5508 H 524.945 -2.04337 -3.30422 0
M  V30 5509 H 526.617 -4.21967 -1.86391 0
M  V30 5510 H 524.86 -3.99565 -1.68909 0
M  V30 5511 H 525.531 -4.45723 -3.2563 0
M  V30 5512 H 528.007 -2.53091 -3.30279 0
M  V30 5513 H 526.883 -2.97519 -4.61274 0
M  V30 5514 H 527.144 -1.28049 -4.2315 0
M  V30 5515 N 526.204 0.969867 -1.24223 0
M  V30 5516 C 527.137 2.06279 -0.975926 0
M  V30 5517 C 528.115 1.62353 0.0895385 0
M  V30 5518 O 529.299 1.88442 -0.0469418 0
M  V30 5519 C 526.426 3.35391 -0.472315 0
M  V30 5520 C 525.472 3.98266 -1.526 0
M  V30 5521 S 526.305 4.36172 -3.10667 0
M  V30 5522 C 527.461 5.68423 -2.62003 0
M  V30 5523 H 527.694 2.28551 -1.90137 0
M  V30 5524 H 525.227 1.10748 -1.07584 0
M  V30 5525 H 527.185 4.10068 -0.188376 0
M  V30 5526 H 525.846 3.1111 0.432378 0
M  V30 5527 H 525.039 4.91307 -1.12399 0
M  V30 5528 H 524.641 3.30009 -1.75983 0
M  V30 5529 H 526.933 6.45842 -2.0468 0
M  V30 5530 H 527.876 6.13478 -3.53625 0
M  V30 5531 H 528.284 5.26928 -2.02502 0
M  V30 5532 N 527.682 1.05563 1.17022 0
M  V30 5533 C 528.928 0.769074 1.87652 0
M  V30 5534 C 529.261 -0.702326 1.81055 0
M  V30 5535 O 528.536 -1.5139 1.22112 0
M  V30 5536 C 528.819 1.25492 3.37526 0
M  V30 5537 C 528.672 2.78953 3.52853 0
M  V30 5538 C 529.991 0.856919 4.31677 0
M  V30 5539 H 527.11 0.280854 0.681388 0
M  V30 5540 H 529.752 1.31027 1.37593 0
M  V30 5541 H 527.902 0.794516 3.80289 0
M  V30 5542 H 529.574 3.33146 3.19079 0
M  V30 5543 H 527.817 3.18046 2.95007 0
M  V30 5544 H 528.488 3.08011 4.58076 0
M  V30 5545 H 530.964 1.25334 3.96775 0
M  V30 5546 H 529.84 1.22443 5.35069 0
M  V30 5547 H 530.101 -0.238787 4.41455 0
M  V30 5548 N 529.16 -1.33526 0.837174 0
M  V30 5549 C 530.093 -2.27192 0.214233 0
M  V30 5550 C 531.071 -1.49575 -0.637657 0
M  V30 5551 O 532.255 -1.78753 -0.598291 0
M  V30 5552 C 529.382 -3.31401 -0.699367 0
M  V30 5553 C 528.428 -4.26431 0.0768429 0
M  V30 5554 S 529.261 -5.15954 1.4336 0
M  V30 5555 C 530.417 -6.23692 0.525251 0
M  V30 5556 H 530.65 -2.79679 1.00831 0
M  V30 5557 H 528.183 -1.4079 0.633834 0
M  V30 5558 H 530.141 -3.91924 -1.22088 0
M  V30 5559 H 528.802 -2.77732 -1.46709 0
M  V30 5560 H 527.995 -5.00193 -0.618268 0
M  V30 5561 H 527.597 -3.70235 0.529364 0
M  V30 5562 H 529.889 -6.76931 -0.277575 0
M  V30 5563 H 530.832 -6.97283 1.23299 0
M  V30 5564 H 531.24 -5.64398 0.107351 0
M  V30 5565 N 530.638 -0.59345 -1.46 0
M  V30 5566 C 531.585 0.133618 -2.30413 0
M  V30 5567 C 532.555 0.873736 -1.41262 0
M  V30 5568 O 533.74 0.862279 -1.70204 0
M  V30 5569 C 530.88 1.13434 -3.25924 0
M  V30 5570 C 529.993 0.39656 -4.30176 0
M  V30 5571 C 529.128 1.38575 -5.12806 0
M  V30 5572 C 528.167 0.634984 -6.08797 0
M  V30 5573 N 527.304 1.57276 -6.84258 0
M  V30 5574 H 532.144 -0.592252 -2.92055 0
M  V30 5575 H 529.681 -0.303874 -1.43927 0
M  V30 5576 H 531.639 1.72752 -3.79753 0
M  V30 5577 H 530.269 1.82779 -2.66067 0
M  V30 5578 H 529.321 -0.311861 -3.79119 0
M  V30 5579 H 530.633 -0.189869 -4.98438 0
M  V30 5580 H 529.787 2.05141 -5.70966 0
M  V30 5581 H 528.526 2.00611 -4.44529 0
M  V30 5582 H 527.531 -0.0443925 -5.49782 0
M  V30 5583 H 528.756 0.0198678 -6.79097 0
M  V30 5584 H 526.702 2.18103 -6.18682 0
M  V30 5585 H 526.619 1.03941 -7.48821 0
M  V30 5586 H 527.887 2.22844 -7.46968 0
M  V30 5587 N 532.116 1.54067 -0.331816 0
M  V30 5588 C 533.026 2.28322 0.539104 0
M  V30 5589 C 534.042 1.32985 1.1221 0
M  V30 5590 O 535.218 1.6601 1.1403 0
M  V30 5591 C 532.283 3.03277 1.68 0
M  V30 5592 C 531.344 4.14216 1.12798 0
M  V30 5593 C 530.577 4.85588 2.2145 0
M  V30 5594 O 530.8 4.56536 3.41952 0
M  V30 5595 O 529.734 5.72309 1.86404 0
M  V30 5596 H 533.56 3.03632 -0.0641692 0
M  V30 5597 H 531.145 1.49083 -0.0972365 0
M  V30 5598 H 533.027 3.50189 2.34405 0
M  V30 5599 H 531.702 2.30834 2.2693 0
M  V30 5600 H 530.609 3.71635 0.428782 0
M  V30 5601 H 531.942 4.88727 0.583698 0
M  V30 5602 N 533.594 0.0601682 1.57485 0
M  V30 5603 C 534.524 -0.90889 2.15085 0
M  V30 5604 C 535.505 -1.31838 1.07484 0
M  V30 5605 O 536.69 -1.3915 1.35466 0
M  V30 5606 C 533.82 -2.18059 2.7031 0
M  V30 5607 C 532.774 -1.91088 3.82974 0
M  V30 5608 C 532.1 -3.24789 4.24754 0
M  V30 5609 C 533.4 -1.22535 5.07723 0
M  V30 5610 H 535.094 -0.429093 2.96309 0
M  V30 5611 H 532.64 -0.204952 1.42534 0
M  V30 5612 H 534.593 -2.86258 3.09248 0
M  V30 5613 H 533.317 -2.6826 1.8629 0
M  V30 5614 H 531.976 -1.25297 3.44523 0
M  V30 5615 H 531.624 -3.72809 3.37672 0
M  V30 5616 H 531.324 -3.07538 5.00694 0
M  V30 5617 H 532.848 -3.94205 4.66299 0
M  V30 5618 H 534.262 -1.80783 5.4405 0
M  V30 5619 H 532.659 -1.1558 5.88864 0
M  V30 5620 H 533.729 -0.202692 4.84476 0
M  V30 5621 N 535.072 -1.5615 -0.213296 0
M  V30 5622 C 536.321 -1.78743 -0.93455 0
M  V30 5623 C 536.634 -0.630199 -1.8517 0
M  V30 5624 O 537.84 -0.739966 -2.61222 0
M  V30 5625 C 536.296 -3.16571 -1.71203 0
M  V30 5626 C 535.904 -4.40043 -0.840617 0
M  V30 5627 C 537.648 -3.48485 -2.42401 0
M  V30 5628 C 535.555 -5.68895 -1.61592 0
M  V30 5629 H 534.485 -0.666426 -0.352692 0
M  V30 5630 H 537.136 -1.82532 -0.188227 0
M  V30 5631 H 535.518 -3.06981 -2.50157 0
M  V30 5632 H 536.692 -4.6071 -0.0910326 0
M  V30 5633 H 535.007 -4.15706 -0.240365 0
M  V30 5634 H 537.604 -4.41983 -3.00924 0
M  V30 5635 H 537.947 -2.71371 -3.15695 0
M  V30 5636 H 538.48 -3.59442 -1.7043 0
M  V30 5637 H 535.219 -6.48925 -0.926106 0
M  V30 5638 H 534.739 -5.52275 -2.33991 0
M  V30 5639 H 536.418 -6.09365 -2.17447 0
M  V30 5640 N 536.55 0.480323 -1.50102 0
M  V30 5641 C 537.966 0.813295 -1.37323 0
M  V30 5642 C 538.166 1.97027 -0.422206 0
M  V30 5643 O 537.222 2.5212 0.138563 0
M  V30 5644 C 538.535 1.13404 -2.78496 0
M  V30 5645 C 540.083 1.24104 -2.87345 0
M  V30 5646 C 540.558 1.59497 -4.29331 0
M  V30 5647 N 542.049 1.66507 -4.32238 0
M  V30 5648 C 542.784 1.95378 -5.39087 0
M  V30 5649 N 542.28 2.22333 -6.56155 0
M  V30 5650 N 544.073 1.96803 -5.26522 0
M  V30 5651 H 536.224 -0.282291 -2.10516 0
M  V30 5652 H 538.487 -0.063752 -0.945854 0
M  V30 5653 H 538.193 0.357064 -3.49883 0
M  V30 5654 H 538.067 2.07251 -3.15162 0
M  V30 5655 H 540.454 2.00871 -2.16183 0
M  V30 5656 H 540.535 0.282593 -2.54234 0
M  V30 5657 H 540.179 0.832736 -5.01027 0
M  V30 5658 H 540.109 2.56477 -4.59921 0
M  V30 5659 H 542.6 1.47753 -3.47818 0
M  V30 5660 H 542.913 2.43611 -7.33399 0
M  V30 5661 H 541.258 2.19745 -6.59346 0
M  V30 5662 H 544.449 1.75235 -4.34062 0
M  V30 5663 H 544.622 2.18969 -6.09883 0
M  V30 5664 N 538.028 1.39524 0.732853 0
M  V30 5665 C 539.268 1.383 1.50508 0
M  V30 5666 C 539.632 -0.0208271 1.91989 0
M  V30 5667 O 540.833 -0.158091 2.68335 0
M  V30 5668 C 539.104 2.33007 2.71003 0
M  V30 5669 S 540.663 2.49989 3.60626 0
M  V30 5670 H 537.481 0.490417 0.514794 0
M  V30 5671 H 540.083 1.75641 0.858524 0
M  V30 5672 H 538.787 3.33862 2.38672 0
M  V30 5673 H 538.318 1.96889 3.40585 0
M  V30 5674 H 540.333 1.7394 4.64714 0
M  V30 5675 N 539.506 -0.963266 1.24736 0
M  V30 5676 C 540.783 -1.68248 0.9976 0
M  V30 5677 C 541.163 -2.05599 -0.478776 0
M  V30 5678 O 540.511 -1.7626 -1.45412 0
M  V30 5679 C 540.721 -2.91118 1.92487 0
M  V30 5680 C 542.069 -3.63261 2.19833 0
M  V30 5681 O 543.093 -3.01184 1.90176 0
M  V30 5682 O 541.952 -4.75019 2.7022 0
M  V30 5683 H 539.046 -0.735744 0.377637 0
M  V30 5684 H 541.592 -1.01696 1.35853 0
M  V30 5685 H 540.364 -2.60242 2.92215 0
M  V30 5686 H 539.987 -3.65402 1.56738 0
M  V30 5687 N 540.985 -1.06182 -1.16461 0
M  V30 5688 C 541.895 -0.682671 -2.24448 0
M  V30 5689 C 542.911 0.30078 -1.71381 0
M  V30 5690 O 544.087 0.150376 -2.00838 0
M  V30 5691 C 541.152 -0.0737202 -3.46622 0
M  V30 5692 C 540.213 -1.10889 -4.14731 0
M  V30 5693 C 539.446 -0.528908 -5.31073 0
M  V30 5694 O 539.669 0.65868 -5.66584 0
M  V30 5695 O 538.603 -1.26805 -5.88391 0
M  V30 5696 H 542.429 -1.58291 -2.59187 0
M  V30 5697 H 540.014 -0.834013 -1.23954 0
M  V30 5698 H 541.896 0.264192 -4.20571 0
M  V30 5699 H 540.571 0.800015 -3.13658 0
M  V30 5700 H 539.478 -1.49896 -3.42756 0
M  V30 5701 H 540.811 -1.95412 -4.51747 0
M  V30 5702 N 542.463 1.3308 -0.844243 0
M  V30 5703 C 543.373 2.32876 -0.283922 0
M  V30 5704 C 544.389 1.63589 0.592846 0
M  V30 5705 O 545.565 1.95205 0.495693 0
M  V30 5706 C 542.63 3.42667 0.527283 0
M  V30 5707 C 541.691 4.27664 -0.374394 0
M  V30 5708 C 540.924 5.32212 0.39819 0
M  V30 5709 O 541.147 5.46635 1.62932 0
M  V30 5710 O 540.081 6.01458 -0.2306 0
M  V30 5711 H 543.907 2.82671 -1.11045 0
M  V30 5712 H 541.492 1.36518 -0.606903 0
M  V30 5713 H 543.374 4.09652 0.988078 0
M  V30 5714 H 542.049 2.95079 1.33078 0
M  V30 5715 H 540.956 3.63526 -0.883144 0
M  V30 5716 H 542.289 4.78749 -1.1428 0
M  V30 5717 N 543.941 0.601185 1.45683 0
M  V30 5718 C 545.169 0.100054 2.06658 0
M  V30 5719 C 545.584 -1.21285 1.44691 0
M  V30 5720 O 544.941 -1.73735 0.558772 0
M  V30 5721 C 544.992 -0.0528579 3.61461 0
M  V30 5722 O 544.713 1.20809 4.21114 0
M  V30 5723 C 546.214 -0.586193 4.39407 0
M  V30 5724 H 543.434 0.065905 0.667756 0
M  V30 5725 H 545.978 0.827101 1.87028 0
M  V30 5726 H 544.133 -0.730203 3.80456 0
M  V30 5727 H 544.547 1.03368 5.14213 0
M  V30 5728 H 546.021 -0.642297 5.4825 0
M  V30 5729 H 546.498 -1.60713 4.0874 0
M  V30 5730 H 547.104 0.0568935 4.25262 0
M  V30 5731 N 545.419 -1.53889 0.339982 0
M  V30 5732 C 546.351 -2.22435 -0.55275 0
M  V30 5733 C 547.364 -1.22975 -1.06681 0
M  V30 5734 O 548.553 -1.49351 -0.977575 0
M  V30 5735 C 545.653 -2.8882 -1.77302 0
M  V30 5736 C 544.826 -4.14563 -1.39486 0
M  V30 5737 C 543.885 -4.64391 -2.47442 0
M  V30 5738 O 542.911 -5.28687 -2.10899 0
M  V30 5739 N 544.113 -4.40015 -3.78639 0
M  V30 5740 H 546.878 -2.9968 0.0342669 0
M  V30 5741 H 544.439 -1.61068 0.16394 0
M  V30 5742 H 546.431 -3.19072 -2.48948 0
M  V30 5743 H 545.001 -2.15182 -2.26749 0
M  V30 5744 H 544.221 -3.90896 -0.509321 0
M  V30 5745 H 545.509 -4.96362 -1.11813 0
M  V30 5746 H 544.907 -3.88586 -4.11118 0
M  V30 5747 H 543.464 -4.74881 -4.46465 0
M  V30 5748 N 546.897 -0.0685191 -1.57451 0
M  V30 5749 C 547.844 0.899861 -2.12535 0
M  V30 5750 C 548.814 1.29749 -1.03703 0
M  V30 5751 O 549.999 1.38392 -1.31348 0
M  V30 5752 C 547.139 2.16328 -2.6888 0
M  V30 5753 C 546.252 1.81857 -3.91857 0
M  V30 5754 C 545.387 3.02786 -4.36457 0
M  V30 5755 C 544.426 2.64317 -5.5209 0
M  V30 5756 N 543.563 3.77994 -5.91663 0
M  V30 5757 H 548.403 0.423243 -2.94979 0
M  V30 5758 H 545.94 0.197268 -1.45771 0
M  V30 5759 H 547.898 2.90281 -2.99655 0
M  V30 5760 H 546.528 2.61536 -1.89206 0
M  V30 5761 H 545.58 0.979808 -3.67565 0
M  V30 5762 H 546.892 1.49553 -4.75852 0
M  V30 5763 H 546.046 3.85021 -4.68875 0
M  V30 5764 H 544.785 3.38281 -3.51308 0
M  V30 5765 H 543.79 1.80503 -5.19325 0
M  V30 5766 H 545.015 2.29995 -6.38967 0
M  V30 5767 H 542.961 4.13258 -5.09464 0
M  V30 5768 H 542.878 3.49447 -6.7039 0
M  V30 5769 H 544.146 4.60818 -6.28703 0
M  V30 5770 N 548.375 1.56261 0.205012 0
M  V30 5771 C 549.603 1.84141 0.943386 0
M  V30 5772 C 550.018 0.649772 1.77266 0
M  V30 5773 O 549.375 -0.381612 1.78466 0
M  V30 5774 C 549.426 3.10719 1.84759 0
M  V30 5775 O 549.147 4.25286 1.05181 0
M  V30 5776 C 550.648 3.51706 2.69848 0
M  V30 5777 H 547.868 0.611734 0.275721 0
M  V30 5778 H 550.412 2.03364 0.215253 0
M  V30 5779 H 548.567 2.93422 2.52947 0
M  V30 5780 H 548.981 4.97301 1.66709 0
M  V30 5781 H 550.455 4.43266 3.28967 0
M  V30 5782 H 550.932 2.7423 3.43067 0
M  V30 5783 H 551.538 3.71499 2.07047 0
M  V30 5784 N 549.853 -0.472356 1.50355 0
M  V30 5785 C 551.1 -1.22453 1.61281 0
M  V30 5786 C 551.428 -1.91972 0.31256 0
M  V30 5787 O 550.683 -1.82696 -0.701475 0
M  V30 5788 C 550.982 -2.29257 2.74182 0
M  V30 5789 C 550.648 -1.76999 4.14708 0
M  V30 5790 C 549.31 -1.62467 4.52944 0
M  V30 5791 C 551.662 -1.38215 5.0254 0
M  V30 5792 C 548.99 -1.07574 5.76754 0
M  V30 5793 C 551.342 -0.847638 6.26895 0
M  V30 5794 C 550.006 -0.688946 6.63935 0
M  V30 5795 H 549.276 -0.448087 0.590168 0
M  V30 5796 H 551.923 -0.520744 1.84284 0
M  V30 5797 H 550.228 -3.05538 2.45263 0
M  V30 5798 H 551.925 -2.87212 2.7984 0
M  V30 5799 H 548.515 -1.89276 3.84542 0
M  V30 5800 H 552.699 -1.48276 4.73633 0
M  V30 5801 H 547.955 -0.940237 6.04127 0
M  V30 5802 H 552.129 -0.538455 6.94315 0
M  V30 5803 H 549.756 -0.261435 7.5975 0
M  V30 5804 N 551.331 -1.39911 -0.725443 0
M  V30 5805 C 552.261 -1.42138 -1.85254 0
M  V30 5806 C 553.242 -0.283513 -1.67721 0
M  V30 5807 O 554.427 -0.490717 -1.87898 0
M  V30 5808 C 551.557 -1.27354 -3.23107 0
M  V30 5809 C 550.511 -2.3864 -3.55296 0
M  V30 5810 C 549.837 -2.08939 -4.92188 0
M  V30 5811 C 551.137 -3.8097 -3.57295 0
M  V30 5812 H 552.831 -2.36461 -1.83648 0
M  V30 5813 H 550.377 -1.13817 -0.882138 0
M  V30 5814 H 552.33 -1.2753 -4.01639 0
M  V30 5815 H 551.054 -0.295025 -3.25265 0
M  V30 5816 H 549.713 -2.37696 -2.79099 0
M  V30 5817 H 549.361 -1.09502 -4.90936 0
M  V30 5818 H 549.061 -2.83491 -5.14691 0
M  V30 5819 H 550.585 -2.10781 -5.73065 0
M  V30 5820 H 551.999 -3.8379 -4.25885 0
M  V30 5821 H 550.396 -4.5496 -3.9132 0
M  V30 5822 H 551.466 -4.11261 -2.5689 0
M  V30 5823 N 552.809 0.956637 -1.25245 0
M  V30 5824 C 554.037 1.73571 -1.12608 0
M  V30 5825 C 554.452 1.86063 0.320324 0
M  V30 5826 O 553.809 1.35691 1.22042 0
M  V30 5827 C 553.86 3.15053 -1.77268 0
M  V30 5828 O 553.581 3.03174 -3.16255 0
M  V30 5829 C 555.082 4.09248 -1.70386 0
M  V30 5830 H 552.302 0.543955 -0.392879 0
M  V30 5831 H 554.846 1.20031 -1.65568 0
M  V30 5832 H 553.001 3.65543 -1.28284 0
M  V30 5833 H 553.415 3.9241 -3.48015 0
M  V30 5834 H 554.889 5.06138 -2.20291 0
M  V30 5835 H 555.366 4.34102 -0.667239 0
M  V30 5836 H 555.972 3.64672 -2.18849 0
M  V30 5837 N 554.287 1.06798 1.15896 0
M  V30 5838 C 555.197 0.694564 2.24083 0
M  V30 5839 C 556.213 -0.291687 1.71538 0
M  V30 5840 O 557.389 -0.139723 2.00915 0
M  V30 5841 C 554.454 0.0921014 3.46578 0
M  V30 5842 C 553.515 1.13087 4.14137 0
M  V30 5843 C 552.748 0.557064 5.30785 0
M  V30 5844 O 552.971 -0.628623 5.66925 0
M  V30 5845 O 551.905 1.29924 5.8771 0
M  V30 5846 H 555.731 1.59663 2.58344 0
M  V30 5847 H 553.316 0.840575 1.2351 0
M  V30 5848 H 555.198 -0.241884 4.20705 0
M  V30 5849 H 553.873 -0.78337 3.14078 0
M  V30 5850 H 552.78 1.51712 3.41957 0
M  V30 5851 H 554.113 1.97805 4.50704 0
M  V30 5852 N 555.766 -1.3263 0.851289 0
M  V30 5853 C 557.012 -1.9766 0.453694 0
M  V30 5854 C 557.345 -1.67225 -0.987396 0
M  V30 5855 O 556.62 -0.958693 -1.69232 0
M  V30 5856 C 556.903 -3.5344 0.68936 0
M  V30 5857 C 556.756 -3.93517 2.17862 0
M  V30 5858 C 558.075 -4.39866 0.143555 0
M  V30 5859 H 555.194 -0.717989 0.166314 0
M  V30 5860 H 557.836 -1.57068 1.06909 0
M  V30 5861 H 555.986 -3.88147 0.165546 0
M  V30 5862 H 557.658 -3.69006 2.76826 0
M  V30 5863 H 555.901 -3.42798 2.65841 0
M  V30 5864 H 556.572 -5.02065 2.29422 0
M  V30 5865 H 559.048 -4.11875 0.591451 0
M  V30 5866 H 557.924 -5.47858 0.338043 0
M  V30 5867 H 558.185 -4.31696 -0.953466 0
M  V30 5868 N 557.244 -0.608902 -1.45362 0
M  V30 5869 C 558.191 0.109172 -2.30542 0
M  V30 5870 C 559.161 0.858704 -1.42181 0
M  V30 5871 O 560.346 0.844178 -1.71109 0
M  V30 5872 C 557.486 1.09971 -3.27109 0
M  V30 5873 C 556.599 0.350911 -4.30572 0
M  V30 5874 C 555.734 1.33129 -5.14247 0
M  V30 5875 C 554.773 0.570377 -6.09437 0
M  V30 5876 N 553.91 1.5001 -6.85887 0
M  V30 5877 H 558.75 -0.623195 -2.91411 0
M  V30 5878 H 556.287 -0.319122 -1.43597 0
M  V30 5879 H 558.245 1.68714 -3.81564 0
M  V30 5880 H 556.875 1.79947 -2.67991 0
M  V30 5881 H 555.927 -0.352054 -3.78767 0
M  V30 5882 H 557.239 -0.242725 -4.98209 0
M  V30 5883 H 556.393 1.99074 -5.73109 0
M  V30 5884 H 555.132 1.95885 -4.46632 0
M  V30 5885 H 554.137 -0.102702 -5.49704 0
M  V30 5886 H 555.362 -0.0521607 -6.7908 0
M  V30 5887 H 553.308 2.11529 -6.2096 0
M  V30 5888 H 553.225 0.959934 -7.49881 0
M  V30 5889 H 554.493 2.14909 -7.49289 0
M  V30 5890 N 558.722 1.53707 -0.348139 0
M  V30 5891 C 559.968 2.01286 0.247332 0
M  V30 5892 C 560.301 1.23546 1.49834 0
M  V30 5893 O 559.576 0.324331 1.91777 0
M  V30 5894 C 559.859 3.55768 0.556858 0
M  V30 5895 C 559.712 4.44216 -0.706564 0
M  V30 5896 C 561.031 4.1841 1.3646 0
M  V30 5897 H 558.15 0.731677 0.0884201 0
M  V30 5898 H 560.792 1.84106 -0.469584 0
M  V30 5899 H 558.942 3.70539 1.16761 0
M  V30 5900 H 560.614 4.41274 -1.34444 0
M  V30 5901 H 558.857 4.12892 -1.33052 0
M  V30 5902 H 559.528 5.50202 -0.445186 0
M  V30 5903 H 562.004 4.07365 0.848113 0
M  V30 5904 H 560.88 5.26563 1.54992 0
M  V30 5905 H 561.141 3.7333 2.36805 0
M  V30 5906 N 560.2 0.0768682 1.57412 0
M  V30 5907 C 561.133 -0.924685 2.08626 0
M  V30 5908 C 562.111 -1.28792 0.992542 0
M  V30 5909 O 563.295 -1.39634 1.26628 0
M  V30 5910 C 560.422 -2.23131 2.54814 0
M  V30 5911 C 559.468 -2.01928 3.75669 0
M  V30 5912 S 560.301 -1.27397 5.20125 0
M  V30 5913 C 561.457 -2.59329 5.69648 0
M  V30 5914 H 561.69 -0.488928 2.93252 0
M  V30 5915 H 559.223 -0.136014 1.538 0
M  V30 5916 H 561.181 -2.98226 2.82084 0
M  V30 5917 H 559.842 -2.63831 1.70447 0
M  V30 5918 H 559.035 -2.98639 4.05993 0
M  V30 5919 H 558.637 -1.34967 3.48798 0
M  V30 5920 H 560.929 -3.55394 5.76803 0
M  V30 5921 H 561.872 -2.33608 6.68456 0
M  V30 5922 H 562.28 -2.66767 4.9749 0
M  V30 5923 N 561.678 -1.56367 -0.196722 0
M  V30 5924 C 563.094 -1.49916 -0.54749 0
M  V30 5925 C 563.294 -0.77659 -1.85934 0
M  V30 5926 O 562.35 -0.32644 -2.50381 0
M  V30 5927 C 563.663 -2.94577 -0.603734 0
M  V30 5928 C 565.211 -3.05239 -0.692677 0
M  V30 5929 C 565.686 -4.51308 -0.780046 0
M  V30 5930 N 567.177 -4.55453 -0.843616 0
M  V30 5931 C 567.912 -5.65786 -0.931358 0
M  V30 5932 N 567.408 -6.85812 -0.981503 0
M  V30 5933 N 569.201 -5.53695 -0.968421 0
M  V30 5934 H 561.352 -2.01761 0.663803 0
M  V30 5935 H 563.615 -0.918094 0.236238 0
M  V30 5936 H 563.321 -3.50494 0.29105 0
M  V30 5937 H 563.195 -3.47841 -1.45898 0
M  V30 5938 H 565.582 -2.49372 -1.57789 0
M  V30 5939 H 565.663 -2.55103 0.188736 0
M  V30 5940 H 565.307 -5.078 0.100811 0
M  V30 5941 H 565.237 -4.99176 -1.67724 0
M  V30 5942 H 567.728 -3.69025 -0.814176 0
M  V30 5943 H 568.041 -7.65648 -1.04892 0
M  V30 5944 H 566.386 -6.88474 -0.950208 0
M  V30 5945 H 569.577 -4.58848 -0.926072 0
M  V30 5946 H 569.75 -6.39708 -1.03334 0
M  V30 5947 N 563.156 0.464375 -1.50603 0
M  V30 5948 C 564.381 1.24372 -1.65971 0
M  V30 5949 C 564.806 1.84901 -0.345453 0
M  V30 5950 O 564.164 1.67596 0.691457 0
M  V30 5951 C 564.212 2.32331 -2.7578 0
M  V30 5952 O 563.316 3.37146 -2.375 0
M  V30 5953 H 562.657 0.365604 -0.554283 0
M  V30 5954 H 565.187 0.55183 -1.97018 0
M  V30 5955 H 565.197 2.77539 -2.99059 0
M  V30 5956 H 563.872 1.87648 -3.71162 0
M  V30 5957 H 562.449 2.97602 -2.24694 0
M  V30 5958 N 564.634 1.40294 0.718013 0
M  V30 5959 C 565.564 1.43118 1.84498 0
M  V30 5960 C 566.545 0.292403 1.67568 0
M  V30 5961 O 567.73 0.500675 1.87635 0
M  V30 5962 C 564.86 1.29065 3.22427 0
M  V30 5963 C 563.814 2.40521 3.54025 0
M  V30 5964 C 563.14 2.11546 4.91073 0
M  V30 5965 C 564.44 3.82859 3.55269 0
M  V30 5966 H 566.134 2.37432 1.82391 0
M  V30 5967 H 563.68 1.14283 0.87609 0
M  V30 5968 H 565.633 1.29658 4.00957 0
M  V30 5969 H 564.357 0.312271 3.25104 0
M  V30 5970 H 563.016 2.39173 2.77834 0
M  V30 5971 H 562.664 1.12104 4.90348 0
M  V30 5972 H 562.364 2.86216 5.1318 0
M  V30 5973 H 563.888 2.13817 5.71939 0
M  V30 5974 H 565.302 3.86044 4.23843 0
M  V30 5975 H 563.699 4.57029 3.88902 0
M  V30 5976 H 564.769 4.12617 2.54706 0
M  V30 5977 N 566.112 -0.949982 1.2575 0
M  V30 5978 C 567.389 -1.6718 1.01539 0
M  V30 5979 C 567.769 -2.06095 -0.456942 0
M  V30 5980 O 567.117 -1.77792 -1.43534 0
M  V30 5981 C 567.327 -2.8906 1.95564 0
M  V30 5982 C 568.675 -3.60909 2.23673 0
M  V30 5983 O 569.699 -2.9915 1.9336 0
M  V30 5984 O 568.558 -4.72127 2.75243 0
M  V30 5985 H 565.652 -0.731697 0.385419 0
M  V30 5986 H 568.198 -1.00249 1.36924 0
M  V30 5987 H 566.97 -2.57128 2.94959 0
M  V30 5988 H 566.593 -3.63719 1.60605 0
M  V30 5989 N 567.59 -1.07411 -1.15328 0
M  V30 5990 C 568.54 -0.664788 -2.18093 0
M  V30 5991 C 569.524 0.310395 -1.57878 0
M  V30 5992 O 570.716 0.124026 -1.76565 0
M  V30 5993 C 567.845 -0.0647822 -3.43239 0
M  V30 5994 C 566.931 -1.06514 -4.10506 0
M  V30 5995 N 567.322 -2.24491 -4.53252 0
M  V30 5996 C 565.62 -0.898613 -4.36853 0
M  V30 5997 C 566.321 -2.8796 -5.05424 0
M  V30 5998 N 565.297 -2.15622 -4.99007 0
M  V30 5999 H 569.099 -1.56333 -2.48872 0
M  V30 6000 H 566.613 -0.947393 -1.31902 0
M  V30 6001 H 568.61 0.246363 -4.16171 0
M  V30 6002 H 567.27 0.828866 -3.13943 0
M  V30 6003 H 568.281 -2.62205 -4.46619 0
M  V30 6004 H 564.958 -0.0579118 -4.1746 0
M  V30 6005 H 566.348 -3.88137 -5.48452 0
M  V30 6006 N 569.068 1.32177 -0.85831 0
M  V30 6007 C 570.479 1.79381 -0.517621 0
M  V30 6008 C 570.83 1.70841 0.964769 0
M  V30 6009 O 569.955 1.26917 1.75274 0
M  V30 6010 C 570.55 3.25706 -0.932801 0
M  V30 6011 C 569.109 3.70851 -0.643953 0
M  V30 6012 C 568.256 2.53208 -1.13054 0
M  V30 6013 H 571.207 1.19424 -1.04516 0
M  V30 6014 H 571.228 3.79673 -0.250674 0
M  V30 6015 H 570.74 3.31889 -2.01174 0
M  V30 6016 H 568.841 3.70178 0.424112 0
M  V30 6017 H 568.954 4.63495 -1.21281 0
M  V30 6018 H 567.318 2.48676 -0.550679 0
M  V30 6019 H 568.101 2.62143 -2.21666 0
M  V30 6020 N 570.547 0.616602 1.45037 0
M  V30 6021 C 571.495 -0.109318 2.32343 0
M  V30 6022 C 572.489 -0.850543 1.465 0
M  V30 6023 O 573.695 -0.765088 1.62931 0
M  V30 6024 H 570.07 -0.0541091 0.750051 0
M  V30 6025 H 572.041 0.645326 2.91338 0
M  V30 6026 C 570.79 -1.0872 3.30266 0
M  V30 6027 H 570.113 -0.526267 3.96321 0
M  V30 6028 H 571.553 -1.56489 3.94065 0
M  V30 6029 C 570.012 -2.16525 2.58105 0
M  V30 6030 O 570.542 -3.244 2.36913 0
M  V30 6031 N 568.748 -1.92057 2.18088 0
M  V30 6032 H 568.295 -1.04337 2.35524 0
M  V30 6033 H 568.253 -2.64391 1.70131 0
M  V30 6034 N 572.025 -1.5352 0.356285 0
M  V30 6035 C 573.271 -2.01414 -0.236653 0
M  V30 6036 C 573.604 -1.24339 -1.49176 0
M  V30 6037 O 572.879 -0.334496 -1.91602 0
M  V30 6038 C 573.162 -3.56059 -0.537982 0
M  V30 6039 C 573.015 -4.43835 0.730112 0
M  V30 6040 C 574.334 -4.19127 -1.34239 0
M  V30 6041 H 571.453 -0.732135 -0.0845386 0
M  V30 6042 H 574.095 -1.83854 0.479341 0
M  V30 6043 H 572.245 -3.71153 -1.14795 0
M  V30 6044 H 573.917 -4.40555 1.36782 0
M  V30 6045 H 572.16 -4.1218 1.3524 0
M  V30 6046 H 572.831 -5.49958 0.474358 0
M  V30 6047 H 575.307 -4.07809 -0.826498 0
M  V30 6048 H 574.183 -5.27378 -1.52198 0
M  V30 6049 H 574.444 -3.74581 -2.34822 0
M  V30 6050 N 573.503 -0.0852151 -1.57369 0
M  V30 6051 C 574.433 0.874556 -2.16503 0
M  V30 6052 C 575.414 1.30111 -1.09568 0
M  V30 6053 O 576.599 1.36977 -1.37662 0
M  V30 6054 C 573.729 2.13731 -2.73745 0
M  V30 6055 C 572.683 1.84971 -3.85966 0
M  V30 6056 C 572.009 3.17991 -4.29867 0
M  V30 6057 C 573.309 1.14442 -5.09608 0
M  V30 6058 H 575.003 0.381899 -2.96954 0
M  V30 6059 H 572.549 0.18225 -1.42842 0
M  V30 6060 H 574.502 2.81302 -3.13763 0
M  V30 6061 H 573.226 2.65263 -1.90534 0
M  V30 6062 H 571.885 1.19801 -3.46473 0
M  V30 6063 H 571.533 3.6739 -3.4356 0
M  V30 6064 H 571.233 2.99534 -5.05523 0
M  V30 6065 H 572.757 3.86737 -4.72511 0
M  V30 6066 H 574.171 1.72105 -5.46857 0
M  V30 6067 H 572.568 1.06197 -5.90629 0
M  V30 6068 H 573.638 0.12559 -4.84737 0
M  V30 6069 N 574.981 1.5647 0.188427 0
M  V30 6070 C 575.928 1.95073 1.23349 0
M  V30 6071 C 576.898 0.812238 1.44886 0
M  V30 6072 O 578.083 1.07095 1.57909 0
M  V30 6073 C 575.223 2.30124 2.57171 0
M  V30 6074 C 574.336 3.57069 2.43157 0
M  V30 6075 C 573.471 3.81411 3.69729 0
M  V30 6076 C 572.51 5.0176 3.50575 0
M  V30 6077 N 571.647 5.22321 4.69175 0
M  V30 6078 H 576.487 2.84171 0.89728 0
M  V30 6079 H 574.024 1.40623 0.431683 0
M  V30 6080 H 575.982 2.48463 3.35145 0
M  V30 6081 H 574.612 1.44159 2.88822 0
M  V30 6082 H 573.664 3.4674 1.56447 0
M  V30 6083 H 574.976 4.452 2.24942 0
M  V30 6084 H 574.13 4.00026 4.56141 0
M  V30 6085 H 572.869 2.91624 3.90905 0
M  V30 6086 H 571.874 4.83061 2.62549 0
M  V30 6087 H 573.099 5.93063 3.30837 0
M  V30 6088 H 571.045 4.35483 4.90602 0
M  V30 6089 H 570.962 6.04643 4.53809 0
M  V30 6090 H 572.23 5.45401 5.56919 0
M  V30 6091 N 576.459 -0.456382 1.50847 0
M  V30 6092 C 577.706 -1.20736 1.62571 0
M  V30 6093 C 578.034 -1.9163 0.332904 0
M  V30 6094 O 577.289 -1.8343 -0.682058 0
M  V30 6095 C 577.588 -2.26336 2.76599 0
M  V30 6096 C 577.254 -1.7259 4.16562 0
M  V30 6097 C 575.916 -1.57654 4.54641 0
M  V30 6098 C 578.268 -1.32877 5.03977 0
M  V30 6099 C 575.596 -1.0145 5.77862 0
M  V30 6100 C 577.948 -0.7811 6.27759 0
M  V30 6101 C 576.612 -0.618488 6.64628 0
M  V30 6102 H 575.882 -0.441803 0.594888 0
M  V30 6103 H 578.529 -0.501169 1.84826 0
M  V30 6104 H 576.834 -3.0292 2.48489 0
M  V30 6105 H 578.531 -2.84227 2.82871 0
M  V30 6106 H 575.121 -1.85187 3.86528 0
M  V30 6107 H 579.305 -1.43245 4.75179 0
M  V30 6108 H 574.561 -0.876109 6.0509 0
M  V30 6109 H 578.735 -0.464783 6.94847 0
M  V30 6110 H 576.362 -0.180838 7.59985 0
M  V30 6111 N 577.937 -1.40673 -0.710563 0
M  V30 6112 C 579.186 -1.38525 -1.46607 0
M  V30 6113 C 579.499 0.0077024 -1.95598 0
M  V30 6114 O 580.705 0.151792 -2.71075 0
M  V30 6115 C 579.161 -2.43489 -2.6503 0
M  V30 6116 C 578.769 -3.88619 -2.22888 0
M  V30 6117 C 580.513 -2.50456 -3.42742 0
M  V30 6118 C 578.42 -4.85168 -3.3818 0
M  V30 6119 H 577.35 -0.515092 -0.550632 0
M  V30 6120 H 580.001 -1.66431 -0.772846 0
M  V30 6121 H 578.383 -2.0869 -3.36548 0
M  V30 6122 H 579.557 -4.32588 -1.58758 0
M  V30 6123 H 577.872 -3.85174 -1.58208 0
M  V30 6124 H 580.469 -3.19776 -4.28541 0
M  V30 6125 H 580.812 -1.53665 -3.86902 0
M  V30 6126 H 581.345 -2.84271 -2.78271 0
M  V30 6127 H 578.084 -5.8331 -2.99047 0
M  V30 6128 H 577.604 -4.4586 -4.01209 0
M  V30 6129 H 579.283 -5.05225 -4.04174 0
M  V30 6130 N 579.415 0.9433 -1.26252 0
M  V30 6131 C 580.663 1.68592 -1.11451 0
M  V30 6132 C 580.984 1.91957 0.343123 0
M  V30 6133 O 580.254 1.51475 1.24226 0
M  V30 6134 H 578.834 0.624789 -0.409448 0
M  V30 6135 H 581.496 1.13351 -1.58548 0
M  V30 6136 H 580.592 2.66054 -1.63162 0
M  V30 6137 N 580.893 1.08022 1.14757 0
M  V30 6138 C 582.139 0.808705 1.85978 0
M  V30 6139 C 582.472 -0.663764 1.82504 0
M  V30 6140 O 581.747 -1.48765 1.25296 0
M  V30 6141 C 582.03 1.32623 3.34788 0
M  V30 6142 C 581.883 2.86375 3.46856 0
M  V30 6143 C 583.202 0.948291 4.29762 0
M  V30 6144 H 580.321 0.295244 0.675278 0
M  V30 6145 H 582.963 1.33917 1.34783 0
M  V30 6146 H 581.113 0.875002 3.78518 0
M  V30 6147 H 582.785 3.39839 3.11941 0
M  V30 6148 H 581.028 3.24232 2.88194 0
M  V30 6149 H 581.699 3.17658 4.51439 0
M  V30 6150 H 584.175 1.33722 3.94028 0
M  V30 6151 H 583.051 1.33765 5.32352 0
M  V30 6152 H 583.312 -0.145094 4.41862 0
M  V30 6153 N 582.371 -1.3172 0.865308 0
M  V30 6154 C 583.301 -2.31109 0.333302 0
M  V30 6155 C 584.282 -1.60148 -0.573301 0
M  V30 6156 O 585.467 -1.87882 -0.491305 0
M  V30 6157 C 582.597 -3.44104 -0.470078 0
M  V30 6158 C 581.551 -4.26623 0.343021 0
M  V30 6159 C 580.877 -5.31482 -0.585756 0
M  V30 6160 C 582.177 -4.98001 1.57456 0
M  V30 6161 H 583.871 -2.75855 1.1638 0
M  V30 6162 H 581.417 -1.3262 0.561069 0
M  V30 6163 H 583.37 -4.12682 -0.852752 0
M  V30 6164 H 582.094 -2.98112 -1.33404 0
M  V30 6165 H 580.753 -3.59707 0.707583 0
M  V30 6166 H 580.401 -4.81741 -1.44686 0
M  V30 6167 H 580.101 -5.87582 -0.0456494 0
M  V30 6168 H 581.625 -6.0292 -0.965375 0
M  V30 6169 H 583.039 -5.59201 1.26359 0
M  V30 6170 H 581.436 -5.63876 2.05339 0
M  V30 6171 H 582.506 -4.25253 2.32997 0
M  V30 6172 N 583.85 -0.624285 -1.44708 0
M  V30 6173 C 585.08 -0.132726 -2.06173 0
M  V30 6174 C 585.488 1.19513 -1.46674 0
M  V30 6175 O 584.831 1.74254 -0.581491 0
M  V30 6176 C 584.893 0.0636732 -3.59444 0
M  V30 6177 C 584.557 -1.18496 -4.4137 0
M  V30 6178 C 585.553 -2.10706 -4.75288 0
M  V30 6179 C 583.239 -1.41846 -4.81856 0
M  V30 6180 C 585.233 -3.24582 -5.48567 0
M  V30 6181 C 582.92 -2.5602 -5.54885 0
M  V30 6182 C 583.918 -3.47215 -5.88159 0
M  V30 6183 O 583.606 -4.59399 -6.59703 0
M  V30 6184 H 583.338 -0.0737313 -0.671967 0
M  V30 6185 H 585.892 -0.856789 -1.86677 0
M  V30 6186 H 584.122 0.842809 -3.77404 0
M  V30 6187 H 585.811 0.508924 -4.02697 0
M  V30 6188 H 586.577 -1.93898 -4.44554 0
M  V30 6189 H 582.456 -0.717556 -4.55381 0
M  V30 6190 H 586 -3.95785 -5.74456 0
M  V30 6191 H 581.897 -2.72774 -5.85034 0
M  V30 6192 H 582.665 -4.58293 -6.78166 0
M  V30 6193 N 585.328 1.53329 -0.364422 0
M  V30 6194 C 586.275 2.25698 0.482607 0
M  V30 6195 C 587.245 1.26325 1.07848 0
M  V30 6196 O 588.43 1.55104 1.11119 0
M  V30 6197 C 585.57 3.04873 1.61699 0
M  V30 6198 C 584.683 4.19135 1.0464 0
M  V30 6199 C 583.818 4.85754 2.14979 0
M  V30 6200 C 582.857 5.9205 1.5538 0
M  V30 6201 N 581.994 6.52365 2.59547 0
M  V30 6202 H 586.834 2.97666 -0.141032 0
M  V30 6203 H 584.371 1.46875 -0.0813692 0
M  V30 6204 H 586.329 3.49051 2.28516 0
M  V30 6205 H 584.959 2.35162 2.2113 0
M  V30 6206 H 584.011 3.79451 0.268553 0
M  V30 6207 H 585.323 4.95525 0.570653 0
M  V30 6208 H 584.477 5.3311 2.89619 0
M  V30 6209 H 583.216 4.08834 2.65906 0
M  V30 6210 H 582.221 5.44058 0.792549 0
M  V30 6211 H 583.446 6.7089 1.0528 0
M  V30 6212 H 581.392 5.78298 3.09689 0
M  V30 6213 H 581.309 7.2429 2.16655 0
M  V30 6214 H 582.577 7.0437 3.33892 0
M  V30 6215 N 586.806 0.0935595 1.57322 0
M  V30 6216 C 588.083 -0.612692 1.85756 0
M  V30 6217 C 588.463 -1.86439 0.99013 0
M  V30 6218 O 587.811 -2.28416 0.0621362 0
M  V30 6219 C 588.021 -0.929547 3.36393 0
M  V30 6220 C 589.369 -1.29366 4.04413 0
M  V30 6221 O 590.393 -1.02061 3.41265 0
M  V30 6222 O 589.252 -1.80498 5.15832 0
M  V30 6223 H 586.346 -0.306444 0.768128 0
M  V30 6224 H 588.892 0.126141 1.69231 0
M  V30 6225 H 587.664 -0.0414766 3.91278 0
M  V30 6226 H 587.287 -1.72441 3.5826 0
M  V30 6227 N 588.284 -1.56567 -0.180126 0
M  V30 6228 C 589.231 -1.95725 -1.22313 0
M  V30 6229 C 590.201 -0.819911 -1.44453 0
M  V30 6230 O 591.386 -1.07931 -1.57339 0
M  V30 6231 C 588.526 -2.31484 -2.55947 0
M  V30 6232 C 587.639 -3.58354 -2.4126 0
M  V30 6233 C 586.774 -3.83366 -3.67701 0
M  V30 6234 C 585.813 -5.03612 -3.47909 0
M  V30 6235 N 584.95 -5.24802 -4.66398 0
M  V30 6236 H 589.79 -2.84642 -0.882198 0
M  V30 6237 H 587.327 -1.4085 -0.42422 0
M  V30 6238 H 589.285 -2.50237 -3.33822 0
M  V30 6239 H 587.915 -1.45689 -2.88053 0
M  V30 6240 H 586.967 -3.47565 -1.54606 0
M  V30 6241 H 588.279 -4.46386 -2.22577 0
M  V30 6242 H 587.433 -4.02439 -4.54013 0
M  V30 6243 H 586.172 -2.93692 -3.89353 0
M  V30 6244 H 585.177 -4.84447 -2.59983 0
M  V30 6245 H 586.402 -5.94809 -3.27688 0
M  V30 6246 H 584.348 -4.38079 -4.88286 0
M  V30 6247 H 584.265 -6.07041 -4.50596 0
M  V30 6248 H 585.533 -5.48346 -5.54019 0
M  V30 6249 N 589.762 0.448376 -1.51087 0
M  V30 6250 C 590.709 1.54341 -1.71603 0
M  V30 6251 C 591.679 1.56463 -0.557536 0
M  V30 6252 O 592.864 1.73644 -0.79072 0
M  V30 6253 C 590.004 2.92148 -1.83695 0
M  V30 6254 C 589.117 2.99639 -3.11192 0
M  V30 6255 C 588.252 4.285 -3.13944 0
M  V30 6256 C 587.291 4.29819 -4.35801 0
M  V30 6257 N 586.428 5.50186 -4.36164 0
M  V30 6258 H 591.268 1.36151 -2.65079 0
M  V30 6259 H 588.805 0.661585 -1.31383 0
M  V30 6260 H 590.763 3.72093 -1.88687 0
M  V30 6261 H 589.393 3.0892 -0.936374 0
M  V30 6262 H 588.445 2.12425 -3.15562 0
M  V30 6263 H 589.757 2.96474 -4.01129 0
M  V30 6264 H 588.911 5.16811 -3.17791 0
M  V30 6265 H 587.65 4.34307 -2.21876 0
M  V30 6266 H 586.655 3.39902 -4.32142 0
M  V30 6267 H 587.88 4.25685 -5.29121 0
M  V30 6268 H 585.826 5.56735 -3.46961 0
M  V30 6269 H 585.743 5.48856 -5.19897 0
M  V30 6270 H 587.011 6.40559 -4.44189 0
M  V30 6271 N 591.24 1.41047 0.703093 0
M  V30 6272 C 592.17 1.45067 1.82969 0
M  V30 6273 C 593.151 0.31016 1.67248 0
M  V30 6274 O 594.336 0.520548 1.87093 0
M  V30 6275 C 591.466 1.32478 3.2104 0
M  V30 6276 C 590.42 2.44262 3.51454 0
M  V30 6277 C 589.746 2.16742 4.88801 0
M  V30 6278 C 591.046 3.86606 3.51189 0
M  V30 6279 H 592.74 2.39353 1.79863 0
M  V30 6280 H 590.286 1.15206 0.863919 0
M  V30 6281 H 592.239 1.33904 3.99559 0
M  V30 6282 H 590.963 0.346735 3.24754 0
M  V30 6283 H 589.622 2.42107 2.75282 0
M  V30 6284 H 589.27 1.17299 4.89132 0
M  V30 6285 H 588.97 2.91643 5.10116 0
M  V30 6286 H 590.494 2.19872 5.69639 0
M  V30 6287 H 591.908 3.90517 4.19725 0
M  V30 6288 H 590.305 4.61128 3.84033 0
M  V30 6289 H 591.375 4.15296 2.50315 0
M  V30 6290 N 592.718 -0.936591 1.26751 0
M  V30 6291 C 593.666 -2.0573 1.08527 0
M  V30 6292 C 594.66 -1.69397 0.0108784 0
M  V30 6293 O 595.866 -1.79215 0.167915 0
M  V30 6294 H 592.241 -0.673691 0.334133 0
M  V30 6295 H 594.212 -2.1825 2.03493 0
M  V30 6296 C 592.961 -3.39738 0.739845 0
M  V30 6297 H 592.284 -3.68174 1.55845 0
M  V30 6298 H 593.724 -4.18955 0.652149 0
M  V30 6299 C 592.183 -3.32292 -0.555288 0
M  V30 6300 O 592.713 -3.68794 -1.59229 0
M  V30 6301 N 590.919 -2.85394 -0.54762 0
M  V30 6302 H 590.466 -2.55886 0.296667 0
M  V30 6303 H 590.424 -2.80795 -1.41427 0
M  V30 6304 N 594.196 -1.08629 -1.14182 0
M  V30 6305 C 595.126 -0.740003 -2.21464 0
M  V30 6306 C 596.107 0.278591 -1.67803 0
M  V30 6307 O 597.292 0.148461 -1.93632 0
M  V30 6308 C 594.422 -0.150952 -3.46972 0
M  V30 6309 C 593.376 -1.09815 -4.13672 0
M  V30 6310 C 592.702 -0.3712 -5.3341 0
M  V30 6311 C 594.002 -2.43722 -4.61949 0
M  V30 6312 H 595.696 -1.63697 -2.50686 0
M  V30 6313 H 593.242 -0.788526 -1.20492 0
M  V30 6314 H 595.195 0.103325 -4.21273 0
M  V30 6315 H 593.919 0.781164 -3.1712 0
M  V30 6316 H 592.578 -1.33756 -3.41328 0
M  V30 6317 H 592.226 0.564792 -4.99819 0
M  V30 6318 H 591.926 -1.00267 -5.78982 0
M  V30 6319 H 593.45 -0.12503 -6.10472 0
M  V30 6320 H 594.864 -2.24034 -5.27714 0
M  V30 6321 H 593.261 -3.02582 -5.18232 0
M  V30 6322 H 594.331 -3.05082 -3.76899 0
M  V30 6323 N 595.674 1.31259 -0.872281 0
M  V30 6324 C 596.604 2.30929 -0.345554 0
M  V30 6325 C 597.585 1.60449 0.5648 0
M  V30 6326 O 598.77 1.8814 0.481335 0
M  V30 6327 C 595.9 3.44348 0.451823 0
M  V30 6328 C 594.854 4.26435 -0.365641 0
M  V30 6329 C 594.18 5.31785 0.557562 0
M  V30 6330 C 595.48 4.97159 -1.60095 0
M  V30 6331 H 597.174 2.75234 -1.17841 0
M  V30 6332 H 594.72 1.3232 -0.568094 0
M  V30 6333 H 596.673 4.13128 0.830854 0
M  V30 6334 H 595.397 2.98816 1.31821 0
M  V30 6335 H 594.056 3.59326 -0.726649 0
M  V30 6336 H 593.704 4.82502 1.4213 0
M  V30 6337 H 593.404 5.87598 0.0144878 0
M  V30 6338 H 594.928 6.03424 0.933387 0
M  V30 6339 H 596.342 5.58523 -1.29323 0
M  V30 6340 H 594.739 5.62779 -2.08327 0
M  V30 6341 H 595.809 4.24012 -2.35249 0
M  V30 6342 N 597.152 0.631951 1.44375 0
M  V30 6343 C 598.38 0.143867 2.06399 0
M  V30 6344 C 598.795 -1.18188 1.47231 0
M  V30 6345 O 598.152 -1.72511 0.595498 0
M  V30 6346 C 598.203 0.0238253 3.61492 0
M  V30 6347 O 597.924 1.29715 4.18456 0
M  V30 6348 C 599.425 -0.492856 4.40552 0
M  V30 6349 H 596.645 0.0800542 0.666207 0
M  V30 6350 H 599.189 0.866586 1.85231 0
M  V30 6351 H 597.344 -0.649338 3.81919 0
M  V30 6352 H 597.758 1.14252 5.11905 0
M  V30 6353 H 599.232 -0.525861 5.49489 0
M  V30 6354 H 599.709 -1.52006 4.12057 0
M  V30 6355 H 600.315 0.147085 4.25046 0
M  V30 6356 N 598.631 -1.53133 0.372548 0
M  V30 6357 C 599.541 -2.29671 -0.478379 0
M  V30 6358 C 600.557 -1.35913 -1.08644 0
M  V30 6359 O 601.733 -1.68975 -1.09588 0
M  V30 6360 C 598.798 -3.07625 -1.599 0
M  V30 6361 C 597.859 -4.17061 -1.01776 0
M  V30 6362 C 597.092 -4.91289 -2.08497 0
M  V30 6363 O 597.315 -4.65442 -3.29727 0
M  V30 6364 O 596.249 -5.7705 -1.71164 0
M  V30 6365 H 600.075 -3.03355 0.144649 0
M  V30 6366 H 597.66 -1.48773 0.136729 0
M  V30 6367 H 599.542 -3.56281 -2.25038 0
M  V30 6368 H 598.217 -2.3677 -2.2073 0
M  V30 6369 H 597.124 -3.72641 -0.330098 0
M  V30 6370 H 598.457 -4.90102 -0.453915 0
M  V30 6371 N 600.109 -0.101901 -1.5727 0
M  V30 6372 C 601.339 0.567568 -1.98651 0
M  V30 6373 C 601.747 1.61839 -0.980037 0
M  V30 6374 O 601.09 1.83661 0.0376564 0
M  V30 6375 C 601.152 1.26742 -3.36417 0
M  V30 6376 C 600.816 0.366561 -4.55528 0
M  V30 6377 C 601.813 -0.388022 -5.1845 0
M  V30 6378 C 599.498 0.282629 -5.01504 0
M  V30 6379 C 601.492 -1.21445 -6.25724 0
M  V30 6380 C 599.179 -0.547443 -6.08643 0
M  V30 6381 C 600.177 -1.29462 -6.70618 0
M  V30 6382 O 599.865 -2.11095 -7.7569 0
M  V30 6383 H 599.597 0.156282 -0.657687 0
M  V30 6384 H 602.151 -0.179912 -2.04611 0
M  V30 6385 H 600.381 2.06162 -3.27161 0
M  V30 6386 H 602.07 1.8321 -3.622 0
M  V30 6387 H 602.836 -0.332949 -4.83856 0
M  V30 6388 H 598.715 0.853868 -4.53023 0
M  V30 6389 H 602.259 -1.79814 -6.74027 0
M  V30 6390 H 598.156 -0.603971 -6.42668 0
M  V30 6391 H 598.924 -2.03851 -7.92709 0
M  V30 6392 N 601.587 1.56661 0.17182 0
M  V30 6393 C 602.836 1.81158 0.886831 0
M  V30 6394 C 603.149 0.679072 1.83434 0
M  V30 6395 O 604.355 0.808964 2.59168 0
M  V30 6396 C 602.811 3.20999 1.6275 0
M  V30 6397 C 602.419 4.42117 0.723652 0
M  V30 6398 C 604.163 3.5479 2.33076 0
M  V30 6399 C 602.07 5.7298 1.46452 0
M  V30 6400 H 601 0.675543 0.334899 0
M  V30 6401 H 603.651 1.82967 0.139765 0
M  V30 6402 H 602.033 3.13506 2.4193 0
M  V30 6403 H 603.207 4.60789 -0.0311485 0
M  V30 6404 H 601.522 4.16197 0.130063 0
M  V30 6405 H 604.119 4.49806 2.89099 0
M  V30 6406 H 604.462 2.79646 3.08389 0
M  V30 6407 H 604.995 3.63834 1.6084 0
M  V30 6408 H 601.734 6.51152 0.753729 0
M  V30 6409 H 601.254 5.58285 2.19266 0
M  V30 6410 H 602.933 6.14916 2.01214 0
M  V30 6411 N 603.065 -0.440357 1.51323 0
M  V30 6412 C 603.975 -1.55955 1.75258 0
M  V30 6413 C 604.991 -1.61933 0.636687 0
M  V30 6414 O 606.167 -1.79231 0.918593 0
M  V30 6415 C 603.232 -2.9196 1.86977 0
M  V30 6416 C 602.293 -2.96122 3.10822 0
M  V30 6417 C 601.526 -4.2564 3.21973 0
M  V30 6418 O 601.749 -5.17851 2.39137 0
M  V30 6419 O 600.683 -4.36025 4.14929 0
M  V30 6420 H 604.509 -1.38673 2.70191 0
M  V30 6421 H 602.094 -0.623055 1.35788 0
M  V30 6422 H 603.976 -3.72682 1.96688 0
M  V30 6423 H 602.651 -3.09375 0.952307 0
M  V30 6424 H 601.558 -2.14366 3.06591 0
M  V30 6425 H 602.891 -2.83651 4.02247 0
M  V30 6426 N 604.543 -1.41418 -0.695603 0
M  V30 6427 C 605.791 -1.40496 -1.45277 0
M  V30 6428 C 606.112 -0.0149538 -1.94994 0
M  V30 6429 O 605.382 0.9432 -1.71699 0
M  V30 6430 H 603.962 -0.517147 -0.539044 0
M  V30 6431 H 606.624 -1.76656 -0.823321 0
M  V30 6432 H 605.72 -2.09214 -2.31595 0
M  V30 6433 N 606.021 0.929856 -1.27246 0
M  V30 6434 C 607.269 1.674 -1.13233 0
M  V30 6435 C 607.59 1.92311 0.322744 0
M  V30 6436 O 606.86 1.52784 1.22612 0
M  V30 6437 H 605.44 0.620411 -0.416052 0
M  V30 6438 H 608.102 1.11663 -1.59741 0
M  V30 6439 H 607.198 2.64308 -1.65975 0
M  V30 6440 N 607.499 1.09233 1.13605 0
M  V30 6441 C 608.727 0.848908 1.88683 0
M  V30 6442 C 609.142 -0.599667 1.79024 0
M  V30 6443 O 608.499 -1.41265 1.15544 0
M  V30 6444 C 608.55 1.27273 3.38355 0
M  V30 6445 O 608.271 2.66449 3.47759 0
M  V30 6446 C 609.772 1.0614 4.30406 0
M  V30 6447 H 606.992 0.305549 0.597395 0
M  V30 6448 H 609.536 1.4538 1.43823 0
M  V30 6449 H 607.691 0.711776 3.80805 0
M  V30 6450 H 608.105 2.84264 4.40788 0
M  V30 6451 H 609.579 1.40725 5.33761 0
M  V30 6452 H 610.056 -0.000960332 4.392 0
M  V30 6453 H 610.662 1.60821 3.93722 0
M  V30 6454 N 608.977 -1.30795 0.87923 0
M  V30 6455 C 609.907 -2.30742 0.357796 0
M  V30 6456 C 610.888 -1.60747 -0.556283 0
M  V30 6457 O 612.073 -1.88393 -0.47135 0
M  V30 6458 C 609.203 -3.44583 -0.433555 0
M  V30 6459 C 608.157 -4.26235 0.388251 0
M  V30 6460 C 607.483 -5.32073 -0.529352 0
M  V30 6461 C 608.783 -4.96303 1.62729 0
M  V30 6462 H 610.477 -2.74605 1.19299 0
M  V30 6463 H 608.023 -1.32017 0.575104 0
M  V30 6464 H 609.976 -4.13563 -0.808934 0
M  V30 6465 H 608.7 -2.99511 -1.30234 0
M  V30 6466 H 607.359 -3.58936 0.745695 0
M  V30 6467 H 607.007 -4.83249 -1.39569 0
M  V30 6468 H 606.707 -5.87598 0.0166741 0
M  V30 6469 H 608.231 -6.0391 -0.901373 0
M  V30 6470 H 609.645 -5.5783 1.32283 0
M  V30 6471 H 608.042 -5.61666 2.11309 0
M  V30 6472 H 609.112 -4.22758 2.37494 0
M  V30 6473 N 610.455 -0.639598 -1.44038 0
M  V30 6474 C 611.402 0.0602458 -2.30721 0
M  V30 6475 C 612.372 0.828352 -1.43971 0
M  V30 6476 O 613.557 0.807693 -1.72861 0
M  V30 6477 C 610.697 1.03008 -3.29368 0
M  V30 6478 C 609.81 0.259502 -4.3122 0
M  V30 6479 C 608.945 1.22191 -5.16955 0
M  V30 6480 C 607.984 0.440978 -6.10509 0
M  V30 6481 N 607.121 1.35428 -6.88915 0
M  V30 6482 H 611.961 -0.684867 -2.90023 0
M  V30 6483 H 609.498 -0.349509 -1.42888 0
M  V30 6484 H 611.456 1.60583 -3.85057 0
M  V30 6485 H 610.086 1.74222 -2.71747 0
M  V30 6486 H 609.138 -0.432317 -3.77935 0
M  V30 6487 H 610.45 -0.348347 -4.97582 0
M  V30 6488 H 609.604 1.86873 -5.77203 0
M  V30 6489 H 608.343 1.86367 -4.50687 0
M  V30 6490 H 607.348 -0.219279 -5.49363 0
M  V30 6491 H 608.573 -0.196192 -6.78817 0
M  V30 6492 H 606.519 1.9831 -6.25307 0
M  V30 6493 H 606.436 0.800657 -7.51748 0
M  V30 6494 H 607.704 1.98967 -7.53679 0
M  V30 6495 N 611.933 1.52934 -0.380664 0
M  V30 6496 C 613.21 1.93845 0.261417 0
M  V30 6497 C 613.59 1.31544 1.65104 0
M  V30 6498 O 612.938 0.480234 2.23397 0
M  V30 6499 C 613.148 3.47739 0.296466 0
M  V30 6500 C 614.496 4.21284 0.529578 0
M  V30 6501 O 615.52 3.54199 0.377041 0
M  V30 6502 O 614.379 5.40195 0.827753 0
M  V30 6503 H 611.473 0.811318 0.160285 0
M  V30 6504 H 614.019 1.64042 -0.434544 0
M  V30 6505 H 612.791 3.85395 -0.67724 0
M  V30 6506 H 612.414 3.8382 1.0377 0
M  V30 6507 N 613.412 0.11024 1.57214 0
M  V30 6508 C 614.659 -0.54987 1.94891 0
M  V30 6509 C 614.987 -1.67243 0.992984 0
M  V30 6510 O 614.242 -1.95694 0.0152703 0
M  V30 6511 C 614.541 -1.13102 3.39032 0
M  V30 6512 C 614.207 -0.130713 4.5071 0
M  V30 6513 C 612.869 0.14437 4.80983 0
M  V30 6514 C 615.221 0.551472 5.18274 0
M  V30 6515 C 612.549 1.10807 5.76141 0
M  V30 6516 C 614.901 1.50375 6.14467 0
M  V30 6517 C 613.565 1.78691 6.43138 0
M  V30 6518 H 612.835 -0.201212 0.713158 0
M  V30 6519 H 615.482 0.189288 1.90562 0
M  V30 6520 H 613.787 -1.94675 3.40013 0
M  V30 6521 H 615.484 -1.64973 3.65493 0
M  V30 6522 H 612.074 -0.355301 4.27125 0
M  V30 6523 H 616.258 0.35211 4.95049 0
M  V30 6524 H 611.514 1.3343 5.96663 0
M  V30 6525 H 615.688 2.03808 6.65909 0
M  V30 6526 H 613.315 2.53522 7.1668 0
M  V30 6527 N 614.89 -1.56749 -0.16351 0
M  V30 6528 C 615.82 -2.00042 -1.20438 0
M  V30 6529 C 616.801 -0.877256 -1.45733 0
M  V30 6530 O 617.986 -1.1439 -1.56935 0
M  V30 6531 C 615.116 -2.36697 -2.54149 0
M  V30 6532 C 614.07 -3.52046 -2.43408 0
M  V30 6533 C 613.396 -3.74466 -3.81679 0
M  V30 6534 C 614.696 -4.85247 -1.93216 0
M  V30 6535 H 616.39 -2.87244 -0.844477 0
M  V30 6536 H 613.936 -1.38194 -0.40478 0
M  V30 6537 H 615.889 -2.65582 -3.27176 0
M  V30 6538 H 614.613 -1.46414 -2.91943 0
M  V30 6539 H 613.272 -3.23301 -1.72834 0
M  V30 6540 H 612.92 -2.81461 -4.1688 0
M  V30 6541 H 612.62 -4.52084 -3.75359 0
M  V30 6542 H 614.144 -4.0576 -4.5628 0
M  V30 6543 H 615.558 -5.12957 -2.56023 0
M  V30 6544 H 613.955 -5.66556 -1.97825 0
M  V30 6545 H 615.025 -4.7672 -0.88689 0
M  V30 6546 N 616.368 0.432326 -1.51554 0
M  V30 6547 C 617.784 0.769195 -1.39841 0
M  V30 6548 C 617.984 1.95584 -0.484675 0
M  V30 6549 O 617.04 2.52433 0.0582829 0
M  V30 6550 C 618.353 1.04487 -2.81963 0
M  V30 6551 C 619.901 1.149 -2.91148 0
M  V30 6552 C 620.376 1.45758 -4.34187 0
M  V30 6553 N 621.867 1.52671 -4.37317 0
M  V30 6554 C 622.602 1.78129 -5.4503 0
M  V30 6555 N 622.098 2.01345 -6.62897 0
M  V30 6556 N 623.891 1.79953 -5.32516 0
M  V30 6557 H 616.042 -0.349122 -2.09511 0
M  V30 6558 H 618.305 -0.0938113 -0.943347 0
M  V30 6559 H 618.011 0.24557 -3.50842 0
M  V30 6560 H 617.885 1.97119 -3.21596 0
M  V30 6561 H 620.272 1.93891 -2.22464 0
M  V30 6562 H 620.353 0.201568 -2.55005 0
M  V30 6563 H 619.997 0.672917 -5.03423 0
M  V30 6564 H 619.927 2.41715 -4.67848 0
M  V30 6565 H 622.418 1.36612 -3.52343 0
M  V30 6566 H 622.731 2.20155 -7.40778 0
M  V30 6567 H 621.076 1.98657 -6.66003 0
M  V30 6568 H 624.267 1.61337 -4.39418 0
M  V30 6569 H 624.44 1.99455 -6.1654 0
M  V30 6570 N 617.846 1.41785 0.688094 0
M  V30 6571 C 619.071 1.45117 1.48175 0
M  V30 6572 C 619.496 0.060129 1.88004 0
M  V30 6573 O 618.854 -0.938385 1.55126 0
M  V30 6574 C 618.902 2.37224 2.71583 0
M  V30 6575 O 618.006 1.83443 3.69354 0
M  V30 6576 H 617.347 0.492208 0.445676 0
M  V30 6577 H 619.877 1.86329 0.845145 0
M  V30 6578 H 619.887 2.53353 3.19806 0
M  V30 6579 H 618.562 3.38293 2.41931 0
M  V30 6580 H 617.139 1.76802 3.28322 0
M  V30 6581 N 619.324 -0.923095 1.27737 0
M  V30 6582 C 620.257 -2.02515 1.05181 0
M  V30 6583 C 621.235 -1.62574 -0.0292204 0
M  V30 6584 O 622.419 -1.88137 0.116848 0
M  V30 6585 C 619.546 -3.33407 0.596468 0
M  V30 6586 C 618.592 -3.92328 1.67276 0
M  V30 6587 S 619.425 -4.24342 3.26641 0
M  V30 6588 C 620.581 -5.58308 2.82919 0
M  V30 6589 H 620.814 -2.21336 1.98488 0
M  V30 6590 H 618.347 -1.06679 1.1162 0
M  V30 6591 H 620.305 -4.09086 0.34044 0
M  V30 6592 H 618.966 -3.125 -0.316614 0
M  V30 6593 H 618.159 -4.86797 1.30556 0
M  V30 6594 H 617.761 -3.2325 1.8811 0
M  V30 6595 H 620.053 -6.37801 2.28509 0
M  V30 6596 H 620.996 -5.99931 3.7615 0
M  V30 6597 H 621.404 -5.19049 2.21919 0
M  V30 6598 N 620.802 -1.09834 -1.13024 0
M  V30 6599 C 622.079 -0.749225 -1.80682 0
M  V30 6600 C 622.459 0.765171 -1.96744 0
M  V30 6601 O 621.807 1.68912 -1.53886 0
M  V30 6602 C 622.017 -1.49311 -3.15448 0
M  V30 6603 C 623.365 -1.66162 -3.90737 0
M  V30 6604 O 624.389 -1.45597 -3.25085 0
M  V30 6605 O 623.248 -2.00211 -5.08505 0
M  V30 6606 H 620.342 -0.269614 -0.781817 0
M  V30 6607 H 622.888 -1.20078 -1.19914 0
M  V30 6608 H 621.66 -2.52407 -2.99009 0
M  V30 6609 H 621.283 -1.034 -3.8392 0
M  V30 6610 N 622.28 1.30327 -0.886154 0
M  V30 6611 C 623.691 1.78243 -0.555554 0
M  V30 6612 C 624.042 1.72849 0.928314 0
M  V30 6613 O 623.167 1.30607 1.72542 0
M  V30 6614 C 623.762 3.23654 -1.00168 0
M  V30 6615 C 622.321 3.69401 -0.722471 0
M  V30 6616 C 621.468 2.50753 -1.18399 0
M  V30 6617 H 624.419 1.1718 -1.07026 0
M  V30 6618 H 624.44 3.79056 -0.331152 0
M  V30 6619 H 623.952 3.27548 -2.08169 0
M  V30 6620 H 622.053 3.70995 0.345496 0
M  V30 6621 H 622.166 4.60818 -1.31085 0
M  V30 6622 H 620.53 2.47452 -0.603303 0
M  V30 6623 H 621.313 2.57383 -2.27176 0
M  V30 6624 N 623.758 0.647228 1.43697 0
M  V30 6625 C 625.005 0.158188 2.01881 0
M  V30 6626 C 625.333 -1.22573 1.51017 0
M  V30 6627 O 624.588 -1.83086 0.69122 0
M  V30 6628 C 624.887 0.111481 3.57226 0
M  V30 6629 C 624.553 1.43633 4.27411 0
M  V30 6630 C 623.215 1.79915 4.463 0
M  V30 6631 C 625.567 2.31011 4.67208 0
M  V30 6632 C 622.895 3.03251 5.02251 0
M  V30 6633 C 625.247 3.53633 5.24525 0
M  V30 6634 C 623.911 3.90118 5.41631 0
M  V30 6635 H 623.181 0.0578851 0.738736 0
M  V30 6636 H 625.828 0.836746 1.72252 0
M  V30 6637 H 624.133 -0.650507 3.86362 0
M  V30 6638 H 625.83 -0.283682 3.99995 0
M  V30 6639 H 622.42 1.14403 4.1305 0
M  V30 6640 H 626.604 2.04272 4.52313 0
M  V30 6641 H 621.86 3.31575 5.13681 0
M  V30 6642 H 626.034 4.21561 5.5431 0
M  V30 6643 H 623.661 4.85768 5.84751 0
M  V30 6644 N 625.236 -1.5273 0.388769 0
M  V30 6645 C 626.647 -1.86505 -0.0853788 0
M  V30 6646 C 626.998 -1.30847 -1.46197 0
M  V30 6647 O 626.123 -0.639609 -2.06732 0
M  V30 6648 C 626.718 -3.38414 -0.161703 0
M  V30 6649 C 625.277 -3.71902 -0.580144 0
M  V30 6650 C 624.424 -2.76095 0.258218 0
M  V30 6651 H 627.375 -1.46647 0.606665 0
M  V30 6652 H 627.396 -3.67638 -0.980936 0
M  V30 6653 H 626.908 -3.78893 0.840333 0
M  V30 6654 H 625.009 -3.36992 -1.58957 0
M  V30 6655 H 625.122 -4.77902 -0.338663 0
M  V30 6656 H 623.486 -2.53195 -0.276432 0
M  V30 6657 H 624.269 -3.19411 1.25822 0
M  V30 6658 N 626.714 -0.118576 -1.57153 0
M  V30 6659 C 627.96 0.534078 -1.96263 0
M  V30 6660 C 628.315 1.64316 -1.0009 0
M  V30 6661 O 627.608 1.91575 -0.0308582 0
M  V30 6662 C 627.802 1.11303 -3.39627 0
M  V30 6663 C 627.631 0.0615624 -4.49658 0
M  V30 6664 C 626.401 -0.370103 -5.03943 0
M  V30 6665 C 628.599 -0.719249 -5.09246 0
M  V30 6666 N 626.581 -1.40738 -5.9755 0
M  V30 6667 C 627.952 -1.60774 -5.98792 0
M  V30 6668 C 630.007 -0.770183 -4.91907 0
M  V30 6669 C 628.71 -2.54272 -6.72858 0
M  V30 6670 C 630.736 -1.69288 -5.66653 0
M  V30 6671 C 630.098 -2.56894 -6.55885 0
M  V30 6672 H 626.197 0.165072 -0.764379 0
M  V30 6673 H 628.781 -0.206596 -1.93601 0
M  V30 6674 H 626.952 1.82342 -3.42937 0
M  V30 6675 H 628.684 1.72996 -3.65861 0
M  V30 6676 H 625.439 0.0222121 -4.73595 0
M  V30 6677 H 625.863 -1.92493 -6.49057 0
M  V30 6678 H 630.505 -0.106999 -4.22665 0
M  V30 6679 H 628.223 -3.21605 -7.41347 0
M  V30 6680 H 631.809 -1.73772 -5.55243 0
M  V30 6681 H 630.689 -3.27131 -7.1271 0
M  V30 6682 N 628.193 1.56834 0.155195 0
M  V30 6683 C 629.125 1.94235 1.21677 0
M  V30 6684 C 630.138 0.83724 1.39621 0
M  V30 6685 O 631.327 1.11567 1.39338 0
M  V30 6686 C 628.427 2.19402 2.58294 0
M  V30 6687 C 627.6 3.50671 2.61436 0
M  V30 6688 C 626.659 3.64475 3.79532 0
M  V30 6689 O 625.685 4.36945 3.64784 0
M  V30 6690 N 626.887 3.00526 4.96653 0
M  V30 6691 H 629.652 2.85901 0.898932 0
M  V30 6692 H 627.213 1.58185 0.34483 0
M  V30 6693 H 629.205 2.25886 3.35794 0
M  V30 6694 H 627.775 1.34042 2.82403 0
M  V30 6695 H 626.995 3.55702 1.69912 0
M  V30 6696 H 628.283 4.3702 2.60559 0
M  V30 6697 H 627.681 2.41549 5.11538 0
M  V30 6698 H 626.238 3.12583 5.71958 0
M  V30 6699 N 629.671 -0.424282 1.51781 0
M  V30 6700 C 630.603 -1.53457 1.70246 0
M  V30 6701 C 631.616 -1.52004 0.582967 0
M  V30 6702 O 632.805 -1.56544 0.857683 0
M  V30 6703 C 629.905 -2.92368 1.71389 0
M  V30 6704 C 629.078 -3.1818 3.00133 0
M  V30 6705 C 628.137 -4.36884 2.9329 0
M  V30 6706 O 627.163 -4.34901 3.67219 0
M  V30 6707 N 628.365 -5.4117 2.10036 0
M  V30 6708 H 631.13 -1.38017 2.66029 0
M  V30 6709 H 628.691 -0.613394 1.4983 0
M  V30 6710 H 630.683 -3.6982 1.64362 0
M  V30 6711 H 629.253 -3.0134 0.831449 0
M  V30 6712 H 628.473 -2.28908 3.20928 0
M  V30 6713 H 629.761 -3.32261 3.85331 0
M  V30 6714 H 629.159 -5.45623 1.49373 0
M  V30 6715 H 627.716 -6.17425 2.08878 0
M  V30 6716 N 631.149 -1.42148 -0.680565 0
M  V30 6717 C 632.096 -1.45175 -1.79424 0
M  V30 6718 C 633.066 -0.304352 -1.63288 0
M  V30 6719 O 634.251 -0.507591 -1.83924 0
M  V30 6720 C 631.391 -1.35429 -3.17416 0
M  V30 6721 C 630.504 -2.60158 -3.4488 0
M  V30 6722 C 629.639 -2.42596 -4.72568 0
M  V30 6723 C 628.678 -3.62727 -4.93047 0
M  V30 6724 N 627.815 -3.44143 -6.11973 0
M  V30 6725 H 632.655 -2.40349 -1.76172 0
M  V30 6726 H 630.192 -1.19334 -0.860107 0
M  V30 6727 H 632.15 -1.27777 -3.97151 0
M  V30 6728 H 630.78 -0.438536 -3.19807 0
M  V30 6729 H 629.832 -2.78199 -2.5944 0
M  V30 6730 H 631.144 -3.49473 -3.55908 0
M  V30 6731 H 630.298 -2.32497 -5.60384 0
M  V30 6732 H 629.037 -1.50761 -4.63813 0
M  V30 6733 H 628.042 -3.73264 -4.03676 0
M  V30 6734 H 629.267 -4.55534 -5.03652 0
M  V30 6735 H 627.213 -2.5502 -6.04401 0
M  V30 6736 H 627.13 -4.27041 -6.23836 0
M  V30 6737 H 628.398 -3.37845 -7.02482 0
M  V30 6738 N 632.627 0.916307 -1.28225 0
M  V30 6739 C 633.873 1.66765 -1.154 0
M  V30 6740 C 634.206 1.91912 0.297251 0
M  V30 6741 O 633.481 1.51766 1.21644 0
M  V30 6742 C 633.764 3.02715 -1.95028 0
M  V30 6743 C 633.617 2.84738 -3.48201 0
M  V30 6744 C 634.936 4.03215 -1.76369 0
M  V30 6745 H 632.055 0.605205 -0.42059 0
M  V30 6746 H 634.697 1.06255 -1.57512 0
M  V30 6747 H 632.847 3.54365 -1.59242 0
M  V30 6748 H 634.519 2.40118 -3.9388 0
M  V30 6749 H 632.762 2.19848 -3.73964 0
M  V30 6750 H 633.433 3.8127 -3.99171 0
M  V30 6751 H 635.909 3.60617 -2.07593 0
M  V30 6752 H 634.785 4.96306 -2.34459 0
M  V30 6753 H 635.046 4.36288 -0.71452 0
M  V30 6754 N 634.105 1.10431 1.1244 0
M  V30 6755 C 635.521 0.836096 1.35947 0
M  V30 6756 C 635.721 -0.544475 1.94004 0
M  V30 6757 O 634.777 -1.29735 2.16622 0
M  V30 6758 C 636.09 1.93575 2.30107 0
M  V30 6759 C 637.638 1.9642 2.43697 0
M  V30 6760 C 638.113 3.05559 3.41171 0
M  V30 6761 N 639.604 3.04865 3.48728 0
M  V30 6762 C 640.339 3.85954 4.24061 0
M  V30 6763 N 639.835 4.76977 5.02458 0
M  V30 6764 N 641.628 3.74172 4.19466 0
M  V30 6765 H 633.779 1.9942 0.731124 0
M  V30 6766 H 636.042 0.866607 0.384312 0
M  V30 6767 H 635.748 2.92943 1.94621 0
M  V30 6768 H 635.622 1.8229 3.30227 0
M  V30 6769 H 638.009 0.97685 2.78463 0
M  V30 6770 H 638.09 2.11782 1.43465 0
M  V30 6771 H 637.734 4.04513 3.07135 0
M  V30 6772 H 637.664 2.87438 4.41234 0
M  V30 6773 H 640.155 2.38908 2.92799 0
M  V30 6774 H 640.468 5.35409 5.57277 0
M  V30 6775 H 638.813 4.81006 5.01655 0
M  V30 6776 H 642.004 3.02412 3.57302 0
M  V30 6777 H 642.177 4.37602 4.77921 0
M  V30 6778 N 635.583 -1.29855 0.893053 0
M  V30 6779 C 636.83 -1.95826 0.515585 0
M  V30 6780 C 637.158 -1.70451 -0.936842 0
M  V30 6781 O 636.413 -1.00657 -1.67829 0
M  V30 6782 C 636.712 -3.49515 0.746588 0
M  V30 6783 C 636.378 -3.94955 2.17535 0
M  V30 6784 C 635.04 -4.07073 2.56603 0
M  V30 6785 C 637.392 -4.18536 3.10607 0
M  V30 6786 C 634.72 -4.40138 3.87938 0
M  V30 6787 C 637.072 -4.53073 4.41484 0
M  V30 6788 C 635.736 -4.634 4.80434 0
M  V30 6789 H 635.006 -0.71658 0.188666 0
M  V30 6790 H 637.653 -1.54574 1.13045 0
M  V30 6791 H 635.958 -3.9177 0.0487551 0
M  V30 6792 H 637.655 -3.98644 0.434009 0
M  V30 6793 H 634.245 -3.86035 1.86212 0
M  V30 6794 H 638.429 -4.08646 2.81641 0
M  V30 6795 H 633.685 -4.46335 4.17846 0
M  V30 6796 H 637.859 -4.70269 5.13634 0
M  V30 6797 H 635.486 -4.88775 5.82239 0
M  V30 6798 N 637.061 -0.65484 -1.43351 0
M  V30 6799 C 638.024 0.0263562 -2.29185 0
M  V30 6800 C 639.024 0.748951 -1.42293 0
M  V30 6801 O 640.214 0.589957 -1.63906 0
M  V30 6802 C 637.346 1.04806 -3.2439 0
M  V30 6803 H 638.539 -0.728883 -2.90908 0
M  V30 6804 H 636.092 -0.416149 -1.50658 0
M  V30 6805 H 636.827 1.83247 -2.67565 0
M  V30 6806 H 636.612 0.533554 -3.88453 0
M  V30 6807 H 638.102 1.52372 -3.88809 0
M  V30 6808 N 638.539 1.52521 -0.396863 0
M  V30 6809 C 639.486 2.26671 0.434624 0
M  V30 6810 C 640.456 1.28584 1.05144 0
M  V30 6811 O 641.641 1.57426 1.07804 0
M  V30 6812 C 638.781 3.08234 1.55196 0
M  V30 6813 C 637.894 4.21261 0.957262 0
M  V30 6814 C 637.029 4.90205 2.04627 0
M  V30 6815 C 636.068 5.95213 1.42787 0
M  V30 6816 N 635.205 6.57723 2.45651 0
M  V30 6817 H 640.045 2.973 -0.204139 0
M  V30 6818 H 637.582 1.46669 -0.112505 0
M  V30 6819 H 639.54 3.53819 2.2106 0
M  V30 6820 H 638.17 2.398 2.16092 0
M  V30 6821 H 637.222 3.79935 0.188005 0
M  V30 6822 H 638.534 4.96624 0.465416 0
M  V30 6823 H 637.688 5.39133 2.78246 0
M  V30 6824 H 636.427 4.14383 2.57174 0
M  V30 6825 H 635.432 5.45616 0.676968 0
M  V30 6826 H 636.657 6.72972 0.910255 0
M  V30 6827 H 634.603 5.84737 2.97353 0
M  V30 6828 H 634.52 7.28723 2.01243 0
M  V30 6829 H 635.788 7.11293 3.18876 0
M  V30 6830 N 640.017 0.126909 1.57088 0
M  V30 6831 C 641.265 -0.528123 1.95078 0
M  V30 6832 C 641.586 -1.66708 1.0116 0
M  V30 6833 O 640.856 -1.95777 0.0693527 0
M  V30 6834 H 639.436 -0.198087 0.720257 0
M  V30 6835 H 642.098 0.197703 1.93895 0
M  V30 6836 H 641.194 -0.917507 2.98309 0
M  V30 6837 N 641.495 -1.56914 -0.146875 0
M  V30 6838 C 642.744 -1.82546 -0.857898 0
M  V30 6839 C 643.057 -0.708169 -1.8233 0
M  V30 6840 O 644.263 -0.850093 -2.57848 0
M  V30 6841 C 642.719 -3.23548 -1.57623 0
M  V30 6842 C 642.327 -4.43212 -0.653224 0
M  V30 6843 C 644.071 -3.58453 -2.27402 0
M  V30 6844 C 641.978 -5.75237 -1.37318 0
M  V30 6845 H 640.908 -0.680786 -0.32411 0
M  V30 6846 H 643.559 -1.83166 -0.110639 0
M  V30 6847 H 641.941 -3.17315 -2.36912 0
M  V30 6848 H 643.115 -4.60682 0.104452 0
M  V30 6849 H 641.43 -4.16351 -0.0638336 0
M  V30 6850 H 644.027 -4.54349 -2.81907 0
M  V30 6851 H 644.37 -2.84516 -3.03901 0
M  V30 6852 H 644.903 -3.66347 -1.55032 0
M  V30 6853 H 641.642 -6.52269 -0.650041 0
M  V30 6854 H 641.162 -5.61703 -2.10357 0
M  V30 6855 H 642.841 -6.18039 -1.91406 0
M  V30 6856 N 642.974 0.416227 -1.52004 0
M  V30 6857 C 643.937 1.48926 -1.74223 0
M  V30 6858 C 644.937 1.48693 -0.612119 0
M  V30 6859 O 646.127 1.50343 -0.879921 0
M  V30 6860 C 643.259 2.88372 -1.81809 0
M  V30 6861 H 644.452 1.3052 -2.70008 0
M  V30 6862 H 642.005 0.646271 -1.42313 0
M  V30 6863 H 642.74 3.12157 -0.879135 0
M  V30 6864 H 642.525 2.89944 -2.6396 0
M  V30 6865 H 644.015 3.66173 -2.00766 0
M  V30 6866 N 644.452 1.42507 0.673017 0
M  V30 6867 C 645.677 1.4668 1.46627 0
M  V30 6868 C 646.102 0.080066 1.8793 0
M  V30 6869 O 645.46 -0.921879 1.56112 0
M  V30 6870 C 645.508 2.40091 2.69051 0
M  V30 6871 O 644.612 1.8735 3.67387 0
M  V30 6872 H 643.953 0.496908 0.44043 0
M  V30 6873 H 646.483 1.87215 0.825334 0
M  V30 6874 H 646.493 2.56731 3.17101 0
M  V30 6875 H 645.168 3.4084 2.3833 0
M  V30 6876 H 643.745 1.80274 3.26429 0
M  V30 6877 N 645.93 -0.909495 1.28709 0
M  V30 6878 C 647.178 -1.65577 1.15882 0
M  V30 6879 C 647.499 -1.928 -0.292108 0
M  V30 6880 O 646.769 -1.54716 -1.20166 0
M  V30 6881 H 645.349 -0.613714 0.425869 0
M  V30 6882 H 648.011 -1.09108 1.61498 0
M  V30 6883 H 647.107 -2.61634 1.70159 0
M  V30 6884 N 647.408 -1.11026 -1.11852 0
M  V30 6885 C 648.341 -0.708501 -2.16923 0
M  V30 6886 C 649.319 0.293196 -1.59935 0
M  V30 6887 O 650.503 0.190641 -1.87533 0
M  V30 6888 C 647.63 -0.0463705 -3.38668 0
M  V30 6889 C 646.676 -1.01252 -4.14307 0
M  V30 6890 S 647.509 -2.53291 -4.71809 0
M  V30 6891 C 648.665 -1.88366 -5.96883 0
M  V30 6892 H 648.898 -1.59854 -2.50667 0
M  V30 6893 H 646.431 -0.927869 -1.2341 0
M  V30 6894 H 648.389 0.329314 -4.09177 0
M  V30 6895 H 647.05 0.820562 -3.03192 0
M  V30 6896 H 646.243 -0.496596 -5.01548 0
M  V30 6897 H 645.845 -1.33042 -3.49537 0
M  V30 6898 H 648.137 -1.21753 -6.6647 0
M  V30 6899 H 649.08 -2.73588 -6.53112 0
M  V30 6900 H 649.488 -1.34562 -5.48227 0
M  V30 6901 N 648.886 1.2938 -0.899927 0
M  V30 6902 C 649.849 2.25983 -0.382677 0
M  V30 6903 C 650.849 1.53366 0.483259 0
M  V30 6904 O 652.039 1.71798 0.28828 0
M  V30 6905 C 649.171 3.37878 0.452915 0
M  V30 6906 H 650.364 2.73252 -1.23586 0
M  V30 6907 H 647.917 1.40825 -0.678088 0
M  V30 6908 H 648.652 2.95949 1.32608 0
M  V30 6909 H 648.437 3.91742 -0.167562 0
M  V30 6910 H 649.927 4.09746 0.806107 0
M  V30 6911 N 650.364 0.662433 1.43002 0
M  V30 6912 C 651.594 0.187343 2.05749 0
M  V30 6913 C 652.002 -1.15582 1.49791 0
M  V30 6914 O 651.345 -1.72651 0.627487 0
M  V30 6915 C 651.407 0.0316493 3.59486 0
M  V30 6916 C 651.071 1.30156 4.38073 0
M  V30 6917 C 652.068 2.23234 4.69535 0
M  V30 6918 C 649.753 1.54572 4.77926 0
M  V30 6919 C 651.747 3.39012 5.39768 0
M  V30 6920 C 649.434 2.70641 5.47902 0
M  V30 6921 C 650.432 3.62687 5.78746 0
M  V30 6922 O 650.12 4.76728 6.47291 0
M  V30 6923 H 649.852 0.0915214 0.669776 0
M  V30 6924 H 652.406 0.905982 1.8434 0
M  V30 6925 H 650.636 -0.742451 3.79506 0
M  V30 6926 H 652.325 -0.401977 4.03905 0
M  V30 6927 H 653.091 2.05616 4.39257 0
M  V30 6928 H 648.97 0.83804 4.53319 0
M  V30 6929 H 652.514 4.10877 5.63761 0
M  V30 6930 H 648.411 2.88189 5.77596 0
M  V30 6931 H 649.179 4.76113 6.65777 0
M  V30 6932 N 651.842 -1.52309 0.404946 0
M  V30 6933 C 652.772 -2.29805 -0.41376 0
M  V30 6934 C 653.753 -1.3384 -1.0498 0
M  V30 6935 O 654.938 -1.62745 -1.05961 0
M  V30 6936 C 652.068 -3.11639 -1.53292 0
M  V30 6937 C 651.022 -4.15616 -1.02211 0
M  V30 6938 C 650.348 -4.8577 -2.23455 0
M  V30 6939 C 651.648 -5.2224 -0.0790725 0
M  V30 6940 H 653.342 -2.98493 0.232878 0
M  V30 6941 H 650.888 -1.43552 0.113441 0
M  V30 6942 H 652.841 -3.64618 -2.11262 0
M  V30 6943 H 651.565 -2.40712 -2.20738 0
M  V30 6944 H 650.224 -3.63641 -0.46484 0
M  V30 6945 H 649.872 -4.11376 -2.89445 0
M  V30 6946 H 649.572 -5.56058 -1.89929 0
M  V30 6947 H 651.096 -5.4156 -2.82038 0
M  V30 6948 H 652.51 -5.70485 -0.567438 0
M  V30 6949 H 650.907 -5.99867 0.167167 0
M  V30 6950 H 651.977 -4.77078 0.867447 0
M  V30 6951 N 653.32 -0.135238 -1.57019 0
M  V30 6952 C 654.27 0.820408 -2.12728 0
M  V30 6953 C 655.254 1.21735 -1.05211 0
M  V30 6954 O 656.446 1.18574 -1.31413 0
M  V30 6955 C 653.575 2.06414 -2.74314 0
M  V30 6956 C 652.661 1.69083 -3.88937 0
M  V30 6957 N 653.052 1.0251 -4.95303 0
M  V30 6958 C 651.35 1.98434 -3.99425 0
M  V30 6959 C 652.051 0.846749 -5.75504 0
M  V30 6960 N 651.027 1.3769 -5.25873 0
M  V30 6961 H 654.829 0.302426 -2.9234 0
M  V30 6962 H 652.343 0.0667009 -1.62263 0
M  V30 6963 H 654.34 2.75863 -3.12579 0
M  V30 6964 H 653 2.58741 -1.96171 0
M  V30 6965 H 654.011 0.687207 -5.1332 0
M  V30 6966 H 650.688 2.52693 -3.32344 0
M  V30 6967 H 652.078 0.322949 -6.71123 0
M  V30 6968 N 654.798 1.5699 0.138552 0
M  V30 6969 C 656.023 1.88344 0.86841 0
M  V30 6970 C 656.448 0.725159 1.7356 0
M  V30 6971 O 655.806 -0.324992 1.78363 0
M  V30 6972 C 655.854 3.18334 1.69398 0
M  V30 6973 O 654.958 3.02863 2.79907 0
M  V30 6974 H 654.299 0.618577 0.241367 0
M  V30 6975 H 656.829 2.04207 0.126826 0
M  V30 6976 H 656.839 3.50567 2.08726 0
M  V30 6977 H 655.514 4.02238 1.05725 0
M  V30 6978 H 654.091 2.82056 2.43924 0
M  V30 6979 N 656.276 -0.40816 1.52223 0
M  V30 6980 C 657.209 -1.51834 1.70357 0
M  V30 6981 C 658.187 -1.52973 0.551171 0
M  V30 6982 O 659.371 -1.71667 0.778642 0
M  V30 6983 C 656.498 -2.90362 1.74378 0
M  V30 6984 C 655.544 -3.0713 2.95928 0
M  V30 6985 S 656.377 -2.80342 4.56255 0
M  V30 6986 C 657.533 -4.21098 4.63063 0
M  V30 6987 H 657.766 -1.36223 2.64255 0
M  V30 6988 H 655.299 -0.599798 1.42274 0
M  V30 6989 H 657.257 -3.70199 1.77379 0
M  V30 6990 H 655.918 -3.03314 0.816063 0
M  V30 6991 H 655.111 -4.08482 2.95226 0
M  V30 6992 H 654.713 -2.3516 2.90819 0
M  V30 6993 H 657.005 -5.14749 4.40499 0
M  V30 6994 H 657.948 -4.26823 5.65002 0
M  V30 6995 H 658.356 -4.06114 3.92086 0
M  V30 6996 N 657.755 -1.42862 -0.66545 0
M  V30 6997 C 658.995 -1.45323 -1.43738 0
M  V30 6998 C 659.359 -0.0707969 -1.91869 0
M  V30 6999 O 660.56 0.0298852 -2.68783 0
M  V30 7000 C 658.831 -2.45671 -2.59577 0
M  V30 7001 S 660.39 -2.6691 -3.48288 0
M  V30 7002 H 657.208 -0.51442 -0.490809 0
M  V30 7003 H 659.81 -1.79537 -0.773745 0
M  V30 7004 H 658.514 -3.44869 -2.22471 0
M  V30 7005 H 658.045 -2.12914 -3.30804 0
M  V30 7006 H 660.06 -1.95914 -4.55886 0
M  V30 7007 N 659.233 0.902656 -1.29189 0
M  V30 7008 C 660.482 1.6475 -1.16362 0
M  V30 7009 C 660.795 1.93517 0.284682 0
M  V30 7010 O 662.001 2.66192 0.534229 0
M  V30 7011 C 660.457 2.96848 -2.03493 0
M  V30 7012 C 660.065 2.75687 -3.5313 0
M  V30 7013 C 661.809 3.74762 -1.99383 0
M  V30 7014 C 659.716 4.03492 -4.32375 0
M  V30 7015 H 658.646 0.618041 -0.431904 0
M  V30 7016 H 661.297 1.0008 -1.53806 0
M  V30 7017 H 659.679 3.62715 -1.58916 0
M  V30 7018 H 660.853 2.18431 -4.05739 0
M  V30 7019 H 659.168 2.11171 -3.58881 0
M  V30 7020 H 661.765 4.69515 -2.5585 0
M  V30 7021 H 662.108 4.04767 -0.973123 0
M  V30 7022 H 662.641 3.15732 -2.41988 0
M  V30 7023 H 659.38 3.78656 -5.3507 0
M  V30 7024 H 658.9 4.60318 -3.84535 0
M  V30 7025 H 660.579 4.71662 -4.42881 0
M  V30 7026 N 660.711 1.11618 1.11262 0
M  V30 7027 C 661.96 0.860934 1.82403 0
M  V30 7028 C 662.273 -0.615303 1.8567 0
M  V30 7029 O 663.479 -0.986861 2.52929 0
M  V30 7030 C 661.935 1.49048 3.27586 0
M  V30 7031 C 661.543 3.00089 3.32642 0
M  V30 7032 C 663.287 1.31515 4.03614 0
M  V30 7033 C 661.194 3.56019 4.72234 0
M  V30 7034 H 660.124 0.318423 0.683464 0
M  V30 7035 H 662.775 1.34165 1.25188 0
M  V30 7036 H 661.157 0.937434 3.84744 0
M  V30 7037 H 662.331 3.61813 2.85356 0
M  V30 7038 H 660.646 3.16919 2.70096 0
M  V30 7039 H 663.243 1.70732 5.0671 0
M  V30 7040 H 663.586 0.257917 4.155 0
M  V30 7041 H 664.119 1.83694 3.52848 0
M  V30 7042 H 660.858 4.61463 4.65545 0
M  V30 7043 H 660.378 2.99066 5.19923 0
M  V30 7044 H 662.057 3.54568 5.41193 0
M  V30 7045 N 662.189 -1.289 0.906776 0
M  V30 7046 C 663.139 -2.25122 0.361109 0
M  V30 7047 C 664.123 -1.52169 -0.52283 0
M  V30 7048 O 665.315 -1.73223 -0.363691 0
M  V30 7049 C 662.444 -3.40915 -0.403982 0
M  V30 7050 C 661.53 -4.21198 0.495279 0
M  V30 7051 N 661.921 -4.79636 1.60572 0
M  V30 7052 C 660.219 -4.45027 0.294372 0
M  V30 7053 C 660.92 -5.39977 2.16332 0
M  V30 7054 N 659.896 -5.23753 1.45546 0
M  V30 7055 H 663.698 -2.67869 1.20927 0
M  V30 7056 H 661.212 -1.43592 0.758632 0
M  V30 7057 H 663.209 -4.08922 -0.811695 0
M  V30 7058 H 661.869 -2.99703 -1.24932 0
M  V30 7059 H 662.88 -4.78209 1.98838 0
M  V30 7060 H 659.557 -4.14348 -0.512021 0
M  V30 7061 H 660.947 -5.96266 3.09704 0
M  V30 7062 N 663.667 -0.670007 -1.42649 0
M  V30 7063 C 665.083 -0.33911 -1.55956 0
M  V30 7064 C 665.283 1.1558 -1.65056 0
M  V30 7065 O 664.339 1.94111 -1.61485 0
M  V30 7066 C 665.652 -1.06522 -2.812 0
M  V30 7067 C 667.2 -1.04708 -2.94966 0
M  V30 7068 C 667.675 -1.75442 -4.23065 0
M  V30 7069 N 669.166 -1.72286 -4.29967 0
M  V30 7070 C 669.901 -2.23877 -5.27889 0
M  V30 7071 N 669.397 -2.83829 -6.31991 0
M  V30 7072 N 671.19 -2.14279 -5.19654 0
M  V30 7073 H 663.341 -1.6399 -1.34986 0
M  V30 7074 H 665.604 -0.690603 -0.649439 0
M  V30 7075 H 665.31 -2.12033 -2.80597 0
M  V30 7076 H 665.184 -0.627398 -3.71946 0
M  V30 7077 H 667.571 -0.000315966 -2.951 0
M  V30 7078 H 667.652 -1.52374 -2.05465 0
M  V30 7079 H 667.296 -2.80084 -4.23693 0
M  V30 7080 H 667.226 -1.25229 -5.11493 0
M  V30 7081 H 669.717 -1.28554 -3.55362 0
M  V30 7082 H 670.03 -3.20827 -7.03057 0
M  V30 7083 H 668.375 -2.87896 -6.32567 0
M  V30 7084 H 671.566 -1.67135 -4.37245 0
M  V30 7085 H 671.739 -2.54792 -5.95806 0
M  V30 7086 N 665.145 1.52092 -0.413018 0
M  V30 7087 C 666.422 1.94356 0.22024 0
M  V30 7088 C 666.802 1.35017 1.62277 0
M  V30 7089 O 666.15 0.527511 2.22328 0
M  V30 7090 C 666.36 3.48289 0.222638 0
M  V30 7091 C 667.708 4.22313 0.440098 0
M  V30 7092 O 668.732 3.54919 0.301826 0
M  V30 7093 O 667.591 5.41829 0.712984 0
M  V30 7094 H 664.685 0.814536 0.14304 0
M  V30 7095 H 667.231 1.63083 -0.469242 0
M  V30 7096 H 666.003 3.83872 -0.758836 0
M  V30 7097 H 665.626 3.85934 0.956057 0
M  V30 7098 N 666.623 0.143563 1.56945 0
M  V30 7099 C 667.553 -0.7936 2.196 0
M  V30 7100 C 668.534 -1.25955 1.14321 0
M  V30 7101 O 669.719 -1.31773 1.42651 0
M  V30 7102 C 666.849 -2.03424 2.81489 0
M  V30 7103 C 665.803 -1.70519 3.92565 0
M  V30 7104 C 665.129 -3.01817 4.41373 0
M  V30 7105 C 666.429 -0.95449 5.13504 0
M  V30 7106 H 668.123 -0.271423 2.98167 0
M  V30 7107 H 665.669 -0.12911 1.4342 0
M  V30 7108 H 667.622 -2.69463 3.23987 0
M  V30 7109 H 666.346 -2.58008 2.00248 0
M  V30 7110 H 665.005 -1.06859 3.5068 0
M  V30 7111 H 664.653 -3.54386 3.56959 0
M  V30 7112 H 664.353 -2.80565 5.16292 0
M  V30 7113 H 665.877 -3.68934 4.86539 0
M  V30 7114 H 667.291 -1.5169 5.52868 0
M  V30 7115 H 665.688 -0.842035 5.94163 0
M  V30 7116 H 666.758 0.0544033 4.84869 0
M  V30 7117 N 668.101 -1.57061 -0.130224 0
M  V30 7118 C 669.049 -2.00486 -1.17933 0
M  V30 7119 C 670.043 -0.899933 -1.43519 0
M  V30 7120 O 671.249 -1.08514 -1.43613 0
M  V30 7121 H 667.624 -0.638441 -0.397363 0
M  V30 7122 H 669.595 -2.87848 -0.786501 0
M  V30 7123 C 668.344 -2.41565 -2.50084 0
M  V30 7124 H 667.667 -3.26148 -2.31231 0
M  V30 7125 H 669.107 -2.75757 -3.22078 0
M  V30 7126 C 667.566 -1.27485 -3.11848 0
M  V30 7127 O 668.096 -0.584688 -3.97422 0
M  V30 7128 N 666.302 -1.03478 -2.71552 0
M  V30 7129 H 665.849 -1.59779 -2.02061 0
M  V30 7130 H 665.807 -0.27341 -3.13209 0
M  V30 7131 N 669.579 0.400081 -1.52437 0
M  V30 7132 C 670.804 1.17221 -1.71096 0
M  V30 7133 C 671.229 1.83269 -0.423565 0
M  V30 7134 O 670.587 1.70378 0.619751 0
M  V30 7135 C 670.635 2.20425 -2.85386 0
M  V30 7136 O 669.739 3.26769 -2.51586 0
M  V30 7137 H 669.08 0.341766 -0.569291 0
M  V30 7138 H 671.61 0.467772 -1.99181 0
M  V30 7139 H 671.62 2.64605 -3.10561 0
M  V30 7140 H 670.295 1.71737 -3.78786 0
M  V30 7141 H 668.872 2.87804 -2.37114 0
M  V30 7142 N 671.057 1.43213 0.657864 0
M  V30 7143 C 672.007 1.44459 1.76396 0
M  V30 7144 C 672.991 0.313641 1.57814 0
M  V30 7145 O 674.183 0.557094 1.68004 0
M  V30 7146 C 671.312 1.36586 3.14959 0
M  V30 7147 C 670.398 2.54692 3.39106 0
M  V30 7148 N 670.789 3.80059 3.33749 0
M  V30 7149 C 669.087 2.49316 3.69807 0
M  V30 7150 C 669.788 4.58606 3.57849 0
M  V30 7151 N 668.764 3.89267 3.79437 0
M  V30 7152 H 672.566 2.39265 1.70673 0
M  V30 7153 H 670.08 1.378 0.859357 0
M  V30 7154 H 672.077 1.35561 3.94245 0
M  V30 7155 H 670.737 0.427956 3.21867 0
M  V30 7156 H 671.748 4.12414 3.13266 0
M  V30 7157 H 668.425 1.6419 3.83859 0
M  V30 7158 H 669.815 5.67619 3.59525 0
M  V30 7159 N 672.536 -0.895792 1.29666 0
M  V30 7160 C 673.484 -2.02173 1.15017 0
M  V30 7161 C 674.478 -1.69276 0.0647651 0
M  V30 7162 O 675.684 -1.7859 0.224846 0
M  V30 7163 H 672.059 -0.662719 0.355397 0
M  V30 7164 H 674.03 -2.11666 2.10334 0
M  V30 7165 C 672.779 -3.37212 0.847555 0
M  V30 7166 H 672.102 -3.6303 1.67479 0
M  V30 7167 H 673.542 -4.16668 0.785106 0
M  V30 7168 C 672.001 -3.33891 -0.44929 0
M  V30 7169 O 672.531 -3.73673 -1.47415 0
M  V30 7170 N 670.737 -2.86991 -0.456547 0
M  V30 7171 H 670.284 -2.54813 0.377925 0
M  V30 7172 H 670.242 -2.85152 -1.32423 0
M  V30 7173 N 674.014 -1.12206 -1.10668 0
M  V30 7174 C 675.254 -0.885935 -1.84202 0
M  V30 7175 C 675.618 0.577849 -1.83098 0
M  V30 7176 O 676.819 0.931051 -2.5216 0
M  V30 7177 C 675.09 -1.44197 -3.2702 0
M  V30 7178 S 676.649 -1.34402 -4.1771 0
M  V30 7179 H 673.467 -0.319653 -0.635093 0
M  V30 7180 H 676.069 -1.43112 -1.33189 0
M  V30 7181 H 674.773 -2.50096 -3.25392 0
M  V30 7182 H 674.304 -0.894173 -3.83103 0
M  V30 7183 H 676.319 -0.313873 -4.95206 0
M  V30 7184 N 675.492 1.28418 -0.913599 0
M  V30 7185 C 676.422 2.29713 -0.418847 0
M  V30 7186 C 677.403 1.62165 0.513469 0
M  V30 7187 O 678.588 1.89576 0.421235 0
M  V30 7188 C 675.718 3.45612 0.342042 0
M  V30 7189 C 674.672 4.25056 -0.501123 0
M  V30 7190 C 673.998 5.3329 0.388097 0
M  V30 7191 C 675.298 4.91814 -1.75831 0
M  V30 7192 H 676.992 2.71346 -1.26538 0
M  V30 7193 H 674.538 1.30446 -0.609903 0
M  V30 7194 H 676.491 4.15562 0.699 0
M  V30 7195 H 675.215 3.02858 1.22248 0
M  V30 7196 H 673.874 3.56833 -0.840598 0
M  V30 7197 H 673.522 4.8678 1.26707 0
M  V30 7198 H 673.222 5.87347 -0.172459 0
M  V30 7199 H 674.746 6.06088 0.74094 0
M  V30 7200 H 676.16 5.54126 -1.47026 0
M  V30 7201 H 674.557 5.55866 -2.26126 0
M  V30 7202 H 675.627 4.16313 -2.4862 0
M  V30 7203 N 676.97 0.677563 1.42291 0
M  V30 7204 C 678.219 0.198173 2.00724 0
M  V30 7205 C 678.532 -1.20325 1.54211 0
M  V30 7206 O 679.738 -1.77916 2.05081 0
M  V30 7207 C 678.194 0.303432 3.58619 0
M  V30 7208 C 677.802 1.70909 4.14119 0
M  V30 7209 C 679.546 -0.117103 4.24338 0
M  V30 7210 C 677.453 1.76696 5.64387 0
M  V30 7211 H 676.383 0.070329 0.750713 0
M  V30 7212 H 679.034 0.843147 1.62982 0
M  V30 7213 H 677.416 -0.409482 3.93877 0
M  V30 7214 H 678.59 2.44931 3.90315 0
M  V30 7215 H 676.905 2.07771 3.6086 0
M  V30 7216 H 679.502 -0.0940471 5.34617 0
M  V30 7217 H 679.845 -1.15283 4.00019 0
M  V30 7218 H 680.378 0.5449 3.9405 0
M  V30 7219 H 677.117 2.7826 5.93508 0
M  V30 7220 H 676.637 1.07034 5.90173 0
M  V30 7221 H 678.316 1.52166 6.28852 0
M  V30 7222 N 678.448 -1.51871 0.421078 0
M  V30 7223 C 679.395 -2.27334 -0.398508 0
M  V30 7224 C 680.365 -1.30241 -1.03085 0
M  V30 7225 O 681.55 -1.59121 -1.05285 0
M  V30 7226 C 678.69 -3.10664 -1.50272 0
M  V30 7227 C 677.803 -4.2273 -0.890122 0
M  V30 7228 C 676.938 -4.93399 -1.96803 0
M  V30 7229 C 675.977 -5.97409 -1.333 0
M  V30 7230 N 675.114 -6.61548 -2.35156 0
M  V30 7231 H 679.954 -2.96938 0.251411 0
M  V30 7232 H 677.491 -1.46472 0.135825 0
M  V30 7233 H 679.449 -3.57292 -2.15403 0
M  V30 7234 H 678.079 -2.43207 -2.1225 0
M  V30 7235 H 677.131 -3.80186 -0.127537 0
M  V30 7236 H 678.443 -4.97302 -0.386349 0
M  V30 7237 H 677.597 -5.43491 -2.69633 0
M  V30 7238 H 676.336 -4.18421 -2.50549 0
M  V30 7239 H 675.341 -5.46624 -0.59008 0
M  V30 7240 H 676.566 -6.74335 -0.803076 0
M  V30 7241 H 674.512 -5.89394 -2.88012 0
M  V30 7242 H 674.429 -7.31832 -1.89624 0
M  V30 7243 H 675.697 -7.16276 -3.0752 0
M  V30 7244 N 679.926 -0.151884 -1.56866 0
M  V30 7245 C 680.856 0.781943 -2.20018 0
M  V30 7246 C 681.837 1.25347 -1.14987 0
M  V30 7247 O 683.022 1.31015 -1.43348 0
M  V30 7248 C 680.152 2.01928 -2.82564 0
M  V30 7249 C 679.106 1.68434 -3.93464 0
M  V30 7250 C 678.432 2.99472 -4.42968 0
M  V30 7251 C 679.732 0.927244 -5.14003 0
M  V30 7252 H 681.426 0.255607 -2.98307 0
M  V30 7253 H 678.972 0.121502 -1.43486 0
M  V30 7254 H 680.925 2.67741 -3.25411 0
M  V30 7255 H 679.649 2.56943 -2.01614 0
M  V30 7256 H 678.308 1.04998 -3.51242 0
M  V30 7257 H 677.956 3.52488 -3.58834 0
M  V30 7258 H 677.656 2.77823 -5.17772 0
M  V30 7259 H 679.18 3.66348 -4.88489 0
M  V30 7260 H 680.594 1.48756 -5.53665 0
M  V30 7261 H 678.991 0.810513 -5.94601 0
M  V30 7262 H 680.061 -0.0801163 -4.84834 0
M  V30 7263 N 681.404 1.57128 0.121893 0
M  V30 7264 C 682.681 1.75664 0.860327 0
M  V30 7265 C 683.061 0.726585 1.98202 0
M  V30 7266 O 682.409 -0.24999 2.27128 0
M  V30 7267 C 682.619 3.20571 1.37968 0
M  V30 7268 C 683.967 3.82988 1.83317 0
M  V30 7269 O 684.991 3.24156 1.47654 0
M  V30 7270 O 683.85 4.86393 2.49168 0
M  V30 7271 H 680.944 0.719153 0.408348 0
M  V30 7272 H 683.49 1.6937 0.105859 0
M  V30 7273 H 682.262 3.87056 0.57477 0
M  V30 7274 H 681.885 3.31392 2.19694 0
M  V30 7275 N 682.882 -0.391992 1.52647 0
M  V30 7276 C 683.829 -1.47866 1.77213 0
M  V30 7277 C 684.799 -1.54286 0.615223 0
M  V30 7278 O 685.984 -1.7059 0.854622 0
M  V30 7279 C 683.124 -2.85129 1.94411 0
M  V30 7280 C 682.237 -2.87883 3.22098 0
M  V30 7281 C 681.372 -4.16553 3.29631 0
M  V30 7282 C 680.411 -4.13348 4.51453 0
M  V30 7283 N 679.548 -5.33619 4.56284 0
M  V30 7284 H 684.388 -1.26219 2.6995 0
M  V30 7285 H 681.925 -0.612367 1.33748 0
M  V30 7286 H 683.883 -3.64833 2.02367 0
M  V30 7287 H 682.513 -3.05232 1.05038 0
M  V30 7288 H 681.565 -2.00567 3.23229 0
M  V30 7289 H 682.877 -2.81382 4.11856 0
M  V30 7290 H 682.031 -5.0466 3.36753 0
M  V30 7291 H 680.77 -4.25773 2.37842 0
M  V30 7292 H 679.775 -3.23629 4.44459 0
M  V30 7293 H 681 -4.05754 5.44555 0
M  V30 7294 H 678.946 -5.43474 3.67385 0
M  V30 7295 H 678.863 -5.29182 5.3991 0
M  V30 7296 H 680.131 -6.23632 4.67657 0
M  V30 7297 N 684.36 -1.4356 -0.65026 0
M  V30 7298 C 685.588 -1.48779 -1.43779 0
M  V30 7299 C 686.003 -0.106593 -1.88499 0
M  V30 7300 O 685.36 0.883766 -1.59674 0
M  V30 7301 C 685.411 -2.43618 -2.67081 0
M  V30 7302 O 685.132 -3.76367 -2.24231 0
M  V30 7303 C 686.633 -2.5811 -3.60409 0
M  V30 7304 H 683.853 -0.50521 -0.441593 0
M  V30 7305 H 686.397 -1.88332 -0.796941 0
M  V30 7306 H 684.552 -2.07253 -3.273 0
M  V30 7307 H 684.966 -4.27394 -3.0403 0
M  V30 7308 H 686.44 -3.28539 -4.43583 0
M  V30 7309 H 686.917 -1.627 -4.07953 0
M  V30 7310 H 687.523 -2.95298 -3.0607 0
M  V30 7311 N 685.838 0.888903 -1.30139 0
M  V30 7312 C 687.084 1.6428 -1.18912 0
M  V30 7313 C 687.417 1.92499 0.256477 0
M  V30 7314 O 686.692 1.54312 1.18397 0
M  V30 7315 C 686.975 2.9851 -2.01405 0
M  V30 7316 C 686.828 2.77288 -3.54163 0
M  V30 7317 C 688.147 3.99383 -1.84882 0
M  V30 7318 H 685.266 0.596148 -0.433333 0
M  V30 7319 H 687.908 1.0289 -1.5973 0
M  V30 7320 H 686.058 3.50907 -1.66722 0
M  V30 7321 H 687.73 2.31709 -3.98884 0
M  V30 7322 H 685.973 2.11867 -3.78543 0
M  V30 7323 H 686.644 3.72717 -4.07168 0
M  V30 7324 H 689.12 3.56132 -2.15196 0
M  V30 7325 H 687.996 4.91222 -2.44934 0
M  V30 7326 H 688.257 4.34674 -0.806902 0
M  V30 7327 N 687.317 1.12792 1.10072 0
M  V30 7328 C 688.563 0.886857 1.82381 0
M  V30 7329 C 688.896 -0.58576 1.85155 0
M  V30 7330 O 688.171 -1.43317 1.31493 0
M  V30 7331 C 688.454 1.46703 3.28862 0
M  V30 7332 C 688.307 3.00829 3.34398 0
M  V30 7333 C 689.626 1.12971 4.25353 0
M  V30 7334 H 686.745 0.32362 0.662148 0
M  V30 7335 H 689.387 1.39513 1.28982 0
M  V30 7336 H 687.537 1.03476 3.74466 0
M  V30 7337 H 689.209 3.52764 2.97247 0
M  V30 7338 H 687.452 3.36164 2.74183 0
M  V30 7339 H 688.123 3.36519 4.3756 0
M  V30 7340 H 690.599 1.50313 3.88001 0
M  V30 7341 H 689.475 1.56223 5.26199 0
M  V30 7342 H 689.736 0.0424452 4.4208 0
M  V30 7343 N 688.795 -1.27931 0.920396 0
M  V30 7344 C 690.041 -1.94977 0.557832 0
M  V30 7345 C 690.374 -1.72224 -0.897365 0
M  V30 7346 O 689.649 -1.04705 -1.63912 0
M  V30 7347 C 689.932 -3.49289 0.875741 0
M  V30 7348 C 689.785 -3.81416 2.38416 0
M  V30 7349 C 691.104 -4.38486 0.376517 0
M  V30 7350 H 688.223 -0.708164 0.20414 0
M  V30 7351 H 690.865 -1.5118 1.15085 0
M  V30 7352 H 689.015 -3.86724 0.371062 0
M  V30 7353 H 690.687 -3.53813 2.95997 0
M  V30 7354 H 688.93 -3.28225 2.83639 0
M  V30 7355 H 689.601 -4.89198 2.55713 0
M  V30 7356 H 692.077 -4.08161 0.808945 0
M  V30 7357 H 690.953 -5.45296 0.627976 0
M  V30 7358 H 691.214 -4.36143 -0.723293 0
M  V30 7359 N 690.273 -0.685099 -1.4193 0
M  V30 7360 C 691.236 -0.0222632 -2.29189 0
M  V30 7361 C 692.236 0.7186 -1.4385 0
M  V30 7362 O 693.426 0.555058 -1.6512 0
M  V30 7363 C 690.558 0.979013 -3.2654 0
M  V30 7364 H 691.751 -0.790424 -2.89296 0
M  V30 7365 H 689.304 -0.448012 -1.49742 0
M  V30 7366 H 690.039 1.77531 -2.71392 0
M  V30 7367 H 689.824 0.451037 -3.89497 0
M  V30 7368 H 691.314 1.44091 -3.91954 0
M  V30 7369 N 691.751 1.51645 -0.429126 0
M  V30 7370 C 693.028 1.94579 0.199614 0
M  V30 7371 C 693.408 1.3673 1.60836 0
M  V30 7372 O 692.756 0.551062 2.21756 0
M  V30 7373 C 692.966 3.48506 0.185685 0
M  V30 7374 C 694.314 4.22756 0.395282 0
M  V30 7375 O 695.338 3.55219 0.264165 0
M  V30 7376 O 694.197 5.42555 0.655475 0
M  V30 7377 H 691.291 0.816007 0.134393 0
M  V30 7378 H 693.837 1.62577 -0.486513 0
M  V30 7379 H 692.609 3.83045 -0.799508 0
M  V30 7380 H 692.232 3.86927 0.91507 0
M  V30 7381 N 693.229 0.160201 1.56784 0
M  V30 7382 C 694.476 -0.487588 1.96542 0
M  V30 7383 C 694.804 -1.63999 1.04569 0
M  V30 7384 O 694.059 -1.95546 0.0775211 0
M  V30 7385 C 694.358 -1.02259 3.42459 0
M  V30 7386 C 694.024 0.0127436 4.50898 0
M  V30 7387 C 692.686 0.297318 4.80281 0
M  V30 7388 C 695.038 0.716078 5.16257 0
M  V30 7389 C 692.366 1.29081 5.72324 0
M  V30 7390 C 694.718 1.69847 6.09372 0
M  V30 7391 C 693.382 1.99061 6.37127 0
M  V30 7392 H 692.652 -0.178421 0.719199 0
M  V30 7393 H 695.299 0.249818 1.89864 0
M  V30 7394 H 693.604 -1.8376 3.46034 0
M  V30 7395 H 695.301 -1.53261 3.70556 0
M  V30 7396 H 691.891 -0.219235 4.28039 0
M  V30 7397 H 696.075 0.509428 4.93679 0
M  V30 7398 H 691.331 1.52344 5.92116 0
M  V30 7399 H 695.505 2.2489 6.59088 0
M  V30 7400 H 693.132 2.76194 7.08252 0
M  V30 7401 N 694.707 -1.5719 -0.113559 0
M  V30 7402 C 695.955 -1.84772 -0.818761 0
M  V30 7403 C 696.276 -0.746196 -1.80158 0
M  V30 7404 O 695.546 0.229305 -1.94553 0
M  V30 7405 H 694.126 -0.681737 -0.305359 0
M  V30 7406 H 696.788 -1.94645 -0.0995845 0
M  V30 7407 H 695.884 -2.80878 -1.36067 0
M  V30 7408 N 696.185 0.383891 -1.52853 0
M  V30 7409 C 697.115 1.47559 -1.80965 0
M  V30 7410 C 698.096 1.5669 -0.661986 0
M  V30 7411 O 699.281 1.71556 -0.910072 0
M  V30 7412 C 696.411 2.85114 -1.98312 0
M  V30 7413 C 695.365 2.9082 -3.14019 0
M  V30 7414 C 694.691 4.30873 -3.16627 0
M  V30 7415 C 695.991 2.60001 -4.52986 0
M  V30 7416 H 697.685 1.24283 -2.72386 0
M  V30 7417 H 695.231 0.596445 -1.31067 0
M  V30 7418 H 697.184 3.61496 -2.16561 0
M  V30 7419 H 695.908 3.09738 -1.03585 0
M  V30 7420 H 694.567 2.16886 -2.9556 0
M  V30 7421 H 694.215 4.52545 -2.19573 0
M  V30 7422 H 693.915 4.3561 -3.94357 0
M  V30 7423 H 695.439 5.09154 -3.37038 0
M  V30 7424 H 696.853 3.261 -4.71521 0
M  V30 7425 H 695.25 2.76081 -5.32822 0
M  V30 7426 H 696.32 1.5532 -4.59351 0
M  V30 7427 N 697.663 1.43903 0.642637 0
M  V30 7428 C 698.888 1.49758 1.43483 0
M  V30 7429 C 699.313 0.119911 1.87717 0
M  V30 7430 O 698.671 -0.888558 1.58033 0
M  V30 7431 C 698.719 2.45744 2.63898 0
M  V30 7432 O 697.823 1.95101 3.63331 0
M  V30 7433 H 697.164 0.506138 0.429791 0
M  V30 7434 H 699.694 1.88923 0.785438 0
M  V30 7435 H 699.704 2.63399 3.11584 0
M  V30 7436 H 698.379 3.45818 2.31046 0
M  V30 7437 H 696.956 1.87158 3.22531 0
M  V30 7438 N 699.141 -0.881989 1.30609 0
M  V30 7439 C 700.557 -1.16576 1.09005 0
M  V30 7440 C 700.757 -2.00961 -0.14727 0
M  V30 7441 O 699.813 -2.38117 -0.840036 0
M  V30 7442 C 701.126 -1.86954 2.35518 0
M  V30 7443 C 702.674 -1.99706 2.41011 0
M  V30 7444 C 703.149 -2.73497 3.67374 0
M  V30 7445 N 704.64 -2.8104 3.68199 0
M  V30 7446 C 705.375 -3.38718 4.62664 0
M  V30 7447 N 704.871 -3.97421 5.67475 0
M  V30 7448 N 706.664 -3.36561 4.50203 0
M  V30 7449 H 698.815 -0.319398 2.09985 0
M  V30 7450 H 701.078 -0.204058 0.925778 0
M  V30 7451 H 700.784 -1.32393 3.2583 0
M  V30 7452 H 700.658 -2.87317 2.44395 0
M  V30 7453 H 703.045 -2.53436 1.51176 0
M  V30 7454 H 703.126 -0.984218 2.36108 0
M  V30 7455 H 702.77 -2.20438 4.57569 0
M  V30 7456 H 702.7 -3.75163 3.6954 0
M  V30 7457 H 705.191 -2.39365 2.92426 0
M  V30 7458 H 705.504 -4.39507 6.35652 0
M  V30 7459 H 703.849 -3.95832 5.71264 0
M  V30 7460 H 707.04 -2.8993 3.67503 0
M  V30 7461 H 707.213 -3.81215 5.24003 0
M  V30 7462 N 700.619 -1.13374 -1.09472 0
M  V30 7463 C 701.549 -0.833268 -2.18126 0
M  V30 7464 C 702.53 0.207169 -1.68834 0
M  V30 7465 O 703.715 0.0662012 -1.94087 0
M  V30 7466 C 700.845 -0.297979 -3.46019 0
M  V30 7467 C 699.799 -1.27261 -4.08642 0
M  V30 7468 C 699.125 -0.597104 -5.31356 0
M  V30 7469 C 700.425 -2.63095 -4.51197 0
M  V30 7470 H 702.119 -1.74182 -2.43518 0
M  V30 7471 H 699.665 -0.838921 -1.17039 0
M  V30 7472 H 701.618 -0.0754444 -4.21332 0
M  V30 7473 H 700.342 0.645959 -3.20148 0
M  V30 7474 H 699.001 -1.48113 -3.35348 0
M  V30 7475 H 698.649 0.352293 -5.01765 0
M  V30 7476 H 698.349 -1.24734 -5.74208 0
M  V30 7477 H 699.873 -0.38384 -6.09392 0
M  V30 7478 H 701.287 -2.46214 -5.17737 0
M  V30 7479 H 699.684 -3.2429 -5.04932 0
M  V30 7480 H 700.754 -3.20793 -3.6362 0
M  V30 7481 N 702.098 1.27442 -0.927168 0
M  V30 7482 C 703.347 1.93679 -0.563146 0
M  V30 7483 C 703.66 1.73673 0.899837 0
M  V30 7484 O 704.866 2.34247 1.37262 0
M  V30 7485 C 703.322 3.46961 -0.95636 0
M  V30 7486 C 702.93 3.75724 -2.43999 0
M  V30 7487 C 704.674 4.19282 -0.663565 0
M  V30 7488 C 702.581 5.22378 -2.77263 0
M  V30 7489 H 701.511 0.725059 -0.206894 0
M  V30 7490 H 704.162 1.44743 -1.12791 0
M  V30 7491 H 702.544 3.94703 -0.320254 0
M  V30 7492 H 703.718 3.38741 -3.12396 0
M  V30 7493 H 702.033 3.16605 -2.70463 0
M  V30 7494 H 704.63 5.27265 -0.888596 0
M  V30 7495 H 704.973 4.14382 0.399198 0
M  V30 7496 H 705.506 3.7736 -1.25875 0
M  V30 7497 H 702.245 5.32367 -3.82446 0
M  V30 7498 H 701.765 5.6051 -2.13516 0
M  V30 7499 H 703.444 5.9025 -2.64979 0
M  V30 7500 N 703.576 0.692616 1.41565 0
M  V30 7501 C 704.822 0.222664 2.01574 0
M  V30 7502 C 705.155 -1.1737 1.54719 0
M  V30 7503 O 704.43 -1.79161 0.757084 0
M  V30 7504 C 704.713 0.277064 3.59033 0
M  V30 7505 C 704.566 1.71016 4.16021 0
M  V30 7506 C 705.885 -0.36479 4.38586 0
M  V30 7507 H 703.004 0.0823839 0.732381 0
M  V30 7508 H 705.646 0.880778 1.68352 0
M  V30 7509 H 703.796 -0.283288 3.87466 0
M  V30 7510 H 705.468 2.32413 3.98475 0
M  V30 7511 H 703.711 2.24525 3.71175 0
M  V30 7512 H 704.382 1.69978 5.25178 0
M  V30 7513 H 706.858 0.112404 4.15948 0
M  V30 7514 H 705.734 -0.296169 5.481 0
M  V30 7515 H 705.995 -1.44506 4.17816 0
M  V30 7516 N 705.054 -1.51416 0.437162 0
M  V30 7517 C 705.964 -2.31493 -0.380537 0
M  V30 7518 C 706.98 -1.40399 -1.02782 0
M  V30 7519 O 708.156 -1.73471 -1.02323 0
M  V30 7520 C 705.221 -3.1413 -1.46709 0
M  V30 7521 C 704.282 -4.21003 -0.839953 0
M  V30 7522 C 703.515 -4.9969 -1.87473 0
M  V30 7523 O 703.738 -4.79008 -3.09689 0
M  V30 7524 O 702.672 -5.8379 -1.46536 0
M  V30 7525 H 706.498 -3.02469 0.273183 0
M  V30 7526 H 704.083 -1.48059 0.199706 0
M  V30 7527 H 705.965 -3.65505 -2.09724 0
M  V30 7528 H 704.64 -2.45919 -2.10489 0
M  V30 7529 H 703.547 -3.73706 -0.171752 0
M  V30 7530 H 704.88 -4.91587 -0.245638 0
M  V30 7531 N 706.532 -0.168513 -1.56696 0
M  V30 7532 C 707.442 0.775435 -2.21414 0
M  V30 7533 C 708.458 1.25529 -1.20492 0
M  V30 7534 O 709.634 1.30801 -1.53144 0
M  V30 7535 C 706.699 1.9886 -2.83999 0
M  V30 7536 C 705.76 1.5559 -4.00113 0
M  V30 7537 C 704.993 2.71124 -4.59704 0
M  V30 7538 O 705.216 3.87917 -4.18182 0
M  V30 7539 O 704.15 2.4536 -5.4962 0
M  V30 7540 H 707.976 0.254416 -3.02632 0
M  V30 7541 H 705.561 0.0595507 -1.49281 0
M  V30 7542 H 707.443 2.69816 -3.23693 0
M  V30 7543 H 706.118 2.49874 -2.05779 0
M  V30 7544 H 705.025 0.815924 -3.65094 0
M  V30 7545 H 706.358 1.09271 -4.79917 0
M  V30 7546 N 708.01 1.57248 0.105221 0
M  V30 7547 C 709.426 1.52853 0.459153 0
M  V30 7548 C 709.626 0.883674 1.8109 0
M  V30 7549 O 708.682 0.471864 2.48052 0
M  V30 7550 C 709.995 2.97596 0.43096 0
M  V30 7551 C 711.543 3.08758 0.513536 0
M  V30 7552 C 712.018 4.55089 0.515593 0
M  V30 7553 N 713.509 4.59597 0.576639 0
M  V30 7554 C 714.244 5.70253 0.599904 0
M  V30 7555 N 713.74 6.90368 0.579985 0
M  V30 7556 N 715.533 5.58399 0.643953 0
M  V30 7557 H 707.684 1.97547 -0.780306 0
M  V30 7558 H 709.947 0.902758 -0.289363 0
M  V30 7559 H 709.653 3.48201 -0.494903 0
M  V30 7560 H 709.527 3.55756 1.2537 0
M  V30 7561 H 711.914 2.58148 1.42982 0
M  V30 7562 H 711.995 2.53568 -0.337148 0
M  V30 7563 H 711.639 5.06348 -0.396701 0
M  V30 7564 H 711.569 5.08105 1.38335 0
M  V30 7565 H 714.06 3.73144 0.597639 0
M  V30 7566 H 714.373 7.70462 0.600741 0
M  V30 7567 H 712.718 6.92843 0.547191 0
M  V30 7568 H 715.909 4.63467 0.656975 0
M  V30 7569 H 716.082 6.44644 0.658616 0
M  V30 7570 N 709.488 -0.375779 1.53054 0
M  V30 7571 C 710.435 -1.45978 1.78771 0
M  V30 7572 C 711.405 -1.53625 0.631552 0
M  V30 7573 O 712.59 -1.69674 0.872667 0
M  V30 7574 C 709.73 -2.8305 1.97425 0
M  V30 7575 C 708.843 -2.84451 3.25134 0
M  V30 7576 C 707.978 -4.13034 3.34031 0
M  V30 7577 C 707.017 -4.08536 4.55812 0
M  V30 7578 N 706.154 -5.2875 4.61918 0
M  V30 7579 H 710.994 -1.23349 2.71273 0
M  V30 7580 H 708.531 -0.598147 1.3439 0
M  V30 7581 H 710.489 -3.62666 2.06225 0
M  V30 7582 H 709.119 -3.04101 1.0827 0
M  V30 7583 H 708.171 -1.97127 3.25338 0
M  V30 7584 H 709.483 -2.76998 4.14818 0
M  V30 7585 H 708.637 -5.0106 3.42087 0
M  V30 7586 H 707.376 -4.23226 2.42345 0
M  V30 7587 H 706.381 -3.18897 4.47867 0
M  V30 7588 H 707.606 -3.99955 5.48828 0
M  V30 7589 H 705.552 -5.39547 3.73129 0
M  V30 7590 H 705.469 -5.23426 5.45492 0
M  V30 7591 H 706.737 -6.18637 4.74245 0
M  V30 7592 N 710.966 -1.44241 -0.634997 0
M  V30 7593 C 712.382 -1.28043 -0.952742 0
M  V30 7594 C 712.582 -0.21338 -2.00367 0
M  V30 7595 O 711.638 0.402042 -2.49279 0
M  V30 7596 C 712.951 -2.65076 -1.41968 0
M  V30 7597 C 714.499 -2.72755 -1.53537 0
M  V30 7598 C 714.974 -4.10249 -2.03616 0
M  V30 7599 N 716.465 -4.12406 -2.10892 0
M  V30 7600 C 717.2 -5.15641 -2.50803 0
M  V30 7601 N 716.696 -6.29239 -2.89879 0
M  V30 7602 N 718.489 -5.02995 -2.50903 0
M  V30 7603 H 710.64 -2.12315 0.060098 0
M  V30 7604 H 712.903 -0.947326 -0.0357325 0
M  V30 7605 H 712.609 -3.44213 -0.721804 0
M  V30 7606 H 712.483 -2.91704 -2.39141 0
M  V30 7607 H 714.87 -1.93939 -2.22422 0
M  V30 7608 H 714.951 -2.49872 -0.547496 0
M  V30 7609 H 714.595 -4.8954 -1.35327 0
M  V30 7610 H 714.525 -4.30507 -3.03268 0
M  V30 7611 H 717.016 -3.30417 -1.83393 0
M  V30 7612 H 717.329 -7.03827 -3.19135 0
M  V30 7613 H 715.674 -6.32683 -2.8764 0
M  V30 7614 H 718.865 -4.13306 -2.19763 0
M  V30 7615 H 719.038 -5.83574 -2.81683 0
M  V30 7616 N 712.444 0.87505 -1.31075 0
M  V30 7617 C 713.407 1.96333 -1.18263 0
M  V30 7618 C 714.407 1.60416 -0.111106 0
M  V30 7619 O 715.597 1.7044 -0.359987 0
M  V30 7620 C 712.729 3.31036 -0.81414 0
M  V30 7621 H 713.922 2.09125 -2.14958 0
M  V30 7622 H 711.475 1.06271 -1.14614 0
M  V30 7623 H 712.21 3.23944 0.151875 0
M  V30 7624 H 711.995 3.58476 -1.58862 0
M  V30 7625 H 713.485 4.10842 -0.748249 0
M  V30 7626 N 713.922 1.13953 1.08869 0
M  V30 7627 C 715.333 0.916649 1.62648 0
M  V30 7628 C 715.684 -0.545589 1.88462 0
M  V30 7629 O 714.809 -1.41351 1.63856 0
M  V30 7630 C 715.404 1.65751 2.95486 0
M  V30 7631 C 713.963 1.48034 3.46068 0
M  V30 7632 C 713.11 1.68305 2.20383 0
M  V30 7633 H 716.061 1.292 0.921572 0
M  V30 7634 H 716.082 1.11794 3.63707 0
M  V30 7635 H 715.594 2.72171 2.76667 0
M  V30 7636 H 713.695 0.439416 3.7 0
M  V30 7637 H 713.808 2.24719 4.23129 0
M  V30 7638 H 712.172 1.10833 2.29321 0
M  V30 7639 H 712.955 2.76057 2.04077 0
M  V30 7640 N 715.4 -1.26948 0.933913 0
M  V30 7641 C 716.333 -2.24977 0.382169 0
M  V30 7642 C 717.311 -1.53893 -0.524949 0
M  V30 7643 O 718.495 -1.82699 -0.464048 0
M  V30 7644 C 715.622 -3.35676 -0.451615 0
M  V30 7645 C 714.668 -4.24686 0.392947 0
M  V30 7646 S 715.501 -5.03898 1.81237 0
M  V30 7647 C 716.657 -6.18078 0.986443 0
M  V30 7648 H 716.89 -2.71429 1.21299 0
M  V30 7649 H 714.423 -1.35701 0.736523 0
M  V30 7650 H 716.381 -3.99901 -0.926797 0
M  V30 7651 H 715.042 -2.8785 -1.25703 0
M  V30 7652 H 714.235 -5.03402 -0.245533 0
M  V30 7653 H 713.837 -3.65288 0.802537 0
M  V30 7654 H 716.129 -6.77125 0.225321 0
M  V30 7655 H 717.072 -6.86216 1.74682 0
M  V30 7656 H 717.48 -5.62047 0.525711 0
M  V30 7657 N 716.879 -0.700114 -1.41195 0
M  V30 7658 C 717.789 -0.0382854 -2.34569 0
M  V30 7659 C 718.805 0.761036 -1.56474 0
M  V30 7660 O 719.981 0.697553 -1.88934 0
M  V30 7661 C 717.046 0.883522 -3.35253 0
M  V30 7662 C 716.107 0.0758957 -4.29233 0
M  V30 7663 C 715.34 0.9538 -5.25108 0
M  V30 7664 O 715.563 2.19326 -5.26547 0
M  V30 7665 O 714.497 0.401049 -6.00562 0
M  V30 7666 H 718.323 -0.808073 -2.92752 0
M  V30 7667 H 715.908 -0.460479 -1.42127 0
M  V30 7668 H 717.79 1.41199 -3.9704 0
M  V30 7669 H 716.465 1.63272 -2.79506 0
M  V30 7670 H 715.372 -0.497274 -3.7078 0
M  V30 7671 H 716.705 -0.634741 -4.8809 0
M  V30 7672 N 718.357 1.51182 -0.445186 0
M  V30 7673 C 719.304 2.27939 0.362291 0
M  V30 7674 C 720.274 1.31864 1.01 0
M  V30 7675 O 721.459 1.60776 1.02741 0
M  V30 7676 C 718.599 3.13016 1.45311 0
M  V30 7677 C 717.712 4.24093 0.822757 0
M  V30 7678 C 716.847 4.96467 1.88928 0
M  V30 7679 C 715.886 5.99454 1.23778 0
M  V30 7680 N 715.023 6.65206 2.24602 0
M  V30 7681 H 719.863 2.965 -0.29862 0
M  V30 7682 H 717.4 1.46237 -0.15911 0
M  V30 7683 H 719.358 3.60673 2.09692 0
M  V30 7684 H 717.988 2.46553 2.08354 0
M  V30 7685 H 717.04 3.80341 0.0670364 0
M  V30 7686 H 718.352 4.97853 0.307184 0
M  V30 7687 H 717.506 5.47712 2.60953 0
M  V30 7688 H 716.245 4.22355 2.4386 0
M  V30 7689 H 715.25 5.47494 0.503042 0
M  V30 7690 H 716.475 6.75527 0.695694 0
M  V30 7691 H 714.421 5.93901 2.78599 0
M  V30 7692 H 714.338 7.34756 1.77958 0
M  V30 7693 H 715.606 7.21078 2.96085 0
M  V30 7694 N 719.835 0.176821 1.56605 0
M  V30 7695 C 720.798 -0.737429 2.17013 0
M  V30 7696 C 721.798 -1.15414 1.11965 0
M  V30 7697 O 722.988 -1.0702 1.37449 0
M  V30 7698 C 720.12 -2.00445 2.75744 0
M  V30 7699 H 721.313 -0.211455 2.99154 0
M  V30 7700 H 718.866 -0.0727582 1.56131 0
M  V30 7701 H 719.601 -2.57338 1.97352 0
M  V30 7702 H 719.386 -1.71456 3.52626 0
M  V30 7703 H 720.876 -2.65679 3.22187 0
M  V30 7704 N 721.313 -1.57302 -0.09688 0
M  V30 7705 C 722.541 -1.90202 -0.814295 0
M  V30 7706 C 722.956 -0.770344 -1.72369 0
M  V30 7707 O 722.313 0.257764 -1.8067 0
M  V30 7708 C 722.364 -3.22708 -1.62916 0
M  V30 7709 O 722.085 -4.31522 -0.756343 0
M  V30 7710 C 723.586 -3.69459 -2.44979 0
M  V30 7711 H 720.806 -0.629275 -0.232925 0
M  V30 7712 H 723.35 -2.04364 -0.0746482 0
M  V30 7713 H 721.505 -3.1015 -2.32133 0
M  V30 7714 H 721.919 -5.07604 -1.32054 0
M  V30 7715 H 723.393 -4.64875 -2.9765 0
M  V30 7716 H 723.87 -2.97211 -3.23361 0
M  V30 7717 H 724.476 -3.84879 -1.80964 0
M  V30 7718 N 722.791 0.367657 -1.53252 0
M  V30 7719 C 724.019 1.13119 -1.73239 0
M  V30 7720 C 724.434 1.831 -0.460404 0
M  V30 7721 O 723.791 1.73483 0.566557 0
M  V30 7722 C 723.842 2.16308 -2.89643 0
M  V30 7723 O 723.563 1.49175 -4.1192 0
M  V30 7724 C 725.064 3.05224 -3.21486 0
M  V30 7725 H 722.284 0.338318 -0.579467 0
M  V30 7726 H 724.828 0.42721 -1.99988 0
M  V30 7727 H 722.983 2.82307 -2.65295 0
M  V30 7728 H 723.397 2.17912 -4.7709 0
M  V30 7729 H 724.871 3.73613 -4.06346 0
M  V30 7730 H 725.348 3.69919 -2.36763 0
M  V30 7731 H 725.954 2.44843 -3.47753 0
M  V30 7732 N 724.269 1.44576 0.627338 0
M  V30 7733 C 725.216 1.51734 1.73912 0
M  V30 7734 C 726.186 0.364745 1.62046 0
M  V30 7735 O 727.371 0.575503 1.81914 0
M  V30 7736 C 724.511 1.47116 3.12171 0
M  V30 7737 C 723.624 2.72778 3.34986 0
M  V30 7738 C 722.759 2.59968 4.63239 0
M  V30 7739 C 721.798 3.80776 4.79245 0
M  V30 7740 N 720.935 3.66618 5.98778 0
M  V30 7741 H 725.775 2.46722 1.6713 0
M  V30 7742 H 723.312 1.22444 0.815224 0
M  V30 7743 H 725.27 1.42429 3.92135 0
M  V30 7744 H 723.9 0.556928 3.17959 0
M  V30 7745 H 722.952 2.87637 2.48936 0
M  V30 7746 H 724.264 3.62441 3.42692 0
M  V30 7747 H 723.418 2.53135 5.51369 0
M  V30 7748 H 722.157 1.67872 4.57898 0
M  V30 7749 H 721.162 3.87989 3.89544 0
M  V30 7750 H 722.387 4.73913 4.86398 0
M  V30 7751 H 720.333 2.77277 5.9452 0
M  V30 7752 H 720.25 4.499 6.07557 0
M  V30 7753 H 721.518 3.63684 6.89459 0
M  V30 7754 N 725.747 -0.868086 1.31537 0
M  V30 7755 C 726.694 -1.97548 1.19346 0
M  V30 7756 C 727.664 -1.65913 0.0787922 0
M  V30 7757 O 728.849 -1.89129 0.251985 0
M  V30 7758 C 725.989 -3.32922 0.908692 0
M  V30 7759 C 725.102 -3.77141 2.10687 0
M  V30 7760 C 724.237 -5.01241 1.75873 0
M  V30 7761 C 723.276 -5.37914 2.92088 0
M  V30 7762 N 722.413 -6.53192 2.57457 0
M  V30 7763 H 727.253 -2.07307 2.14074 0
M  V30 7764 H 724.79 -1.01483 1.06487 0
M  V30 7765 H 726.748 -4.10867 0.724138 0
M  V30 7766 H 725.378 -3.228 -0.0017611 0
M  V30 7767 H 724.43 -2.94961 2.40213 0
M  V30 7768 H 725.742 -4.00248 2.97663 0
M  V30 7769 H 724.896 -5.86858 1.53891 0
M  V30 7770 H 723.635 -4.80041 0.86091 0
M  V30 7771 H 722.64 -4.50814 3.14717 0
M  V30 7772 H 723.865 -5.61077 3.82582 0
M  V30 7773 H 721.811 -6.33536 1.702 0
M  V30 7774 H 721.728 -6.76252 3.37963 0
M  V30 7775 H 722.996 -7.41997 2.38873 0
M  V30 7776 N 727.225 -1.14528 -1.08264 0
M  V30 7777 C 728.641 -0.885976 -1.3275 0
M  V30 7778 C 728.841 0.472096 -1.95892 0
M  V30 7779 O 727.897 1.21606 -2.21288 0
M  V30 7780 C 729.21 -2.01982 -2.22764 0
M  V30 7781 C 730.758 -2.05329 -2.36239 0
M  V30 7782 C 731.233 -3.1801 -3.29596 0
M  V30 7783 N 732.724 -3.17598 -3.37173 0
M  V30 7784 C 733.459 -4.01426 -4.09444 0
M  V30 7785 N 732.955 -4.95297 -4.8441 0
M  V30 7786 N 734.748 -3.89482 -4.0529 0
M  V30 7787 H 726.899 -2.01996 -0.656607 0
M  V30 7788 H 729.162 -0.880274 -0.351884 0
M  V30 7789 H 728.868 -2.99964 -1.83615 0
M  V30 7790 H 728.742 -1.94421 -3.23234 0
M  V30 7791 H 731.129 -1.07953 -2.74646 0
M  V30 7792 H 731.21 -2.1696 -1.35506 0
M  V30 7793 H 730.854 -4.15633 -2.9191 0
M  V30 7794 H 730.784 -3.03616 -4.30261 0
M  V30 7795 H 733.275 -2.4961 -2.83731 0
M  V30 7796 H 733.588 -5.55723 -5.37021 0
M  V30 7797 H 731.933 -4.99293 -4.83457 0
M  V30 7798 H 735.124 -3.15465 -3.45832 0
M  V30 7799 H 735.297 -4.55039 -4.6135 0
M  V30 7800 N 728.703 1.26451 -0.940633 0
M  V30 7801 C 729.931 1.97868 -0.604642 0
M  V30 7802 C 730.346 1.70051 0.820251 0
M  V30 7803 O 729.703 0.96843 1.54686 0
M  V30 7804 C 729.754 3.51684 -0.836689 0
M  V30 7805 O 729.475 3.78533 -2.20554 0
M  V30 7806 C 730.976 4.40343 -0.511169 0
M  V30 7807 H 728.196 0.631105 -0.227919 0
M  V30 7808 H 730.74 1.60979 -1.26119 0
M  V30 7809 H 728.895 3.86736 -0.226759 0
M  V30 7810 H 729.309 4.73065 -2.26517 0
M  V30 7811 H 730.783 5.47229 -0.724157 0
M  V30 7812 H 731.26 4.35694 0.553815 0
M  V30 7813 H 731.866 4.10834 -1.0998 0
M  V30 7814 N 730.181 0.707592 1.40822 0
M  V30 7815 C 731.111 0.0644925 2.33411 0
M  V30 7816 C 732.092 -0.754205 1.52466 0
M  V30 7817 O 733.277 -0.704749 1.80961 0
M  V30 7818 C 730.407 -0.863865 3.36385 0
M  V30 7819 C 729.361 -0.15138 4.27732 0
M  V30 7820 C 728.687 -1.19491 5.21177 0
M  V30 7821 C 729.987 0.989607 5.12839 0
M  V30 7822 H 731.681 0.837829 2.87438 0
M  V30 7823 H 729.227 0.404346 1.38207 0
M  V30 7824 H 731.18 -1.32309 4.0009 0
M  V30 7825 H 729.904 -1.66901 2.80734 0
M  V30 7826 H 728.563 0.287937 3.65467 0
M  V30 7827 H 728.211 -1.9929 4.61836 0
M  V30 7828 H 727.911 -0.723123 5.83134 0
M  V30 7829 H 729.435 -1.6544 5.8776 0
M  V30 7830 H 730.849 0.610114 5.70044 0
M  V30 7831 H 729.246 1.38926 5.83798 0
M  V30 7832 H 730.316 1.82389 4.49291 0
M  V30 7833 N 731.66 -1.50943 0.453197 0
M  V30 7834 C 733.076 -1.59245 0.106342 0
M  V30 7835 C 733.276 -1.46287 -1.38572 0
M  V30 7836 O 732.332 -1.31219 -2.15726 0
M  V30 7837 C 733.645 -2.93797 0.640595 0
M  V30 7838 C 735.193 -3.07148 0.602435 0
M  V30 7839 C 735.668 -4.44247 1.11393 0
M  V30 7840 N 737.159 -4.50611 1.07258 0
M  V30 7841 C 737.894 -5.55049 1.43905 0
M  V30 7842 N 737.39 -6.66828 1.87914 0
M  V30 7843 N 739.183 -5.45494 1.35621 0
M  V30 7844 H 731.334 -1.5761 1.42382 0
M  V30 7845 H 733.597 -0.74384 0.587713 0
M  V30 7846 H 733.303 -3.087 1.68515 0
M  V30 7847 H 733.177 -3.77127 0.0742272 0
M  V30 7848 H 735.564 -2.91903 -0.433171 0
M  V30 7849 H 735.645 -2.25619 1.20539 0
M  V30 7850 H 735.289 -4.60239 2.14808 0
M  V30 7851 H 735.219 -5.2434 0.487353 0
M  V30 7852 H 737.71 -3.70391 0.749585 0
M  V30 7853 H 738.023 -7.42558 2.14072 0
M  V30 7854 H 736.368 -6.67995 1.91853 0
M  V30 7855 H 739.559 -4.57053 1.01093 0
M  V30 7856 H 739.732 -6.2677 1.64508 0
M  V30 7857 N 733.138 -0.185124 -1.56509 0
M  V30 7858 C 734.085 0.739729 -2.18624 0
M  V30 7859 C 735.055 1.217 -1.13042 0
M  V30 7860 O 736.24 1.28268 -1.41251 0
M  V30 7861 C 733.38 1.95787 -2.84186 0
M  V30 7862 C 732.493 1.52289 -4.04267 0
M  V30 7863 C 731.628 2.69576 -4.57714 0
M  V30 7864 C 730.667 2.22636 -5.70175 0
M  V30 7865 N 729.804 3.33065 -6.18071 0
M  V30 7866 H 734.644 0.203269 -2.97306 0
M  V30 7867 H 732.181 0.0885946 -1.46833 0
M  V30 7868 H 734.139 2.67253 -3.20361 0
M  V30 7869 H 732.769 2.4678 -2.08085 0
M  V30 7870 H 731.821 0.704458 -3.7382 0
M  V30 7871 H 733.133 1.13843 -4.85635 0
M  V30 7872 H 732.287 3.4918 -4.96143 0
M  V30 7873 H 731.026 3.1129 -3.75433 0
M  V30 7874 H 730.031 1.41483 -5.31284 0
M  V30 7875 H 731.256 1.81964 -6.54267 0
M  V30 7876 H 729.202 3.74328 -5.38715 0
M  V30 7877 H 729.119 2.98756 -6.94464 0
M  V30 7878 H 730.387 4.12912 -6.61153 0
M  V30 7879 N 734.616 1.57351 0.0885366 0
M  V30 7880 C 735.564 2.03542 1.12576 0
M  V30 7881 C 736.558 0.937668 1.41082 0
M  V30 7882 O 737.764 1.12283 1.40686 0
M  V30 7883 H 734.139 0.648752 0.380296 0
M  V30 7884 H 736.11 2.89833 0.709906 0
M  V30 7885 C 734.859 2.4811 2.43591 0
M  V30 7886 H 734.182 3.32164 2.22502 0
M  V30 7887 H 735.622 2.842 3.14653 0
M  V30 7888 C 734.081 1.35708 3.08359 0
M  V30 7889 O 734.611 0.689852 3.95732 0
M  V30 7890 N 732.817 1.10641 2.68713 0
M  V30 7891 H 732.364 1.6508 1.97753 0
M  V30 7892 H 732.322 0.356355 3.12374 0
M  V30 7893 N 736.094 -0.359525 1.53444 0
M  V30 7894 C 737.371 -1.11756 1.6053 0
M  V30 7895 C 737.751 -2.06949 0.416587 0
M  V30 7896 O 737.099 -2.20681 -0.592628 0
M  V30 7897 C 737.309 -1.85133 2.95849 0
M  V30 7898 C 738.657 -2.3945 3.50641 0
M  V30 7899 O 739.681 -1.95251 2.97918 0
M  V30 7900 O 738.54 -3.20266 4.42823 0
M  V30 7901 H 735.634 -0.513005 0.648656 0
M  V30 7902 H 738.18 -0.362301 1.65787 0
M  V30 7903 H 736.952 -1.15694 3.73806 0
M  V30 7904 H 736.575 -2.67554 2.9411 0
M  V30 7905 N 737.572 -1.44907 -0.619662 0
M  V30 7906 C 738.988 -1.29046 -0.939107 0
M  V30 7907 C 739.188 -0.23462 -2.00129 0
M  V30 7908 O 738.244 0.37558 -2.49691 0
M  V30 7909 C 739.557 -2.66567 -1.39149 0
M  V30 7910 C 741.105 -2.74368 -1.50635 0
M  V30 7911 C 741.58 -4.12386 -1.99253 0
M  V30 7912 N 743.071 -4.1462 -2.06506 0
M  V30 7913 C 743.806 -5.18272 -2.4532 0
M  V30 7914 N 743.302 -6.32278 -2.83189 0
M  V30 7915 N 745.095 -5.05628 -2.45554 0
M  V30 7916 H 737.246 -2.12239 0.0826135 0
M  V30 7917 H 739.509 -0.947652 -0.0256829 0
M  V30 7918 H 739.215 -3.4496 -0.685254 0
M  V30 7919 H 739.089 -2.94224 -2.36034 0
M  V30 7920 H 741.476 -1.96287 -2.20353 0
M  V30 7921 H 741.557 -2.50439 -0.520963 0
M  V30 7922 H 741.201 -4.90947 -1.30127 0
M  V30 7923 H 741.131 -4.33699 -2.98684 0
M  V30 7924 H 743.622 -3.32343 -1.79878 0
M  V30 7925 H 743.935 -7.07172 -3.11652 0
M  V30 7926 H 742.28 -6.35699 -2.80913 0
M  V30 7927 H 745.471 -4.15613 -2.15367 0
M  V30 7928 H 745.644 -5.86529 -2.75478 0
M  V30 7929 N 739.05 0.861098 -1.31996 0
M  V30 7930 C 739.997 1.96912 -1.20392 0
M  V30 7931 C 740.967 1.65869 -0.0875899 0
M  V30 7932 O 742.152 1.88992 -0.262011 0
M  V30 7933 C 739.292 3.32435 -0.926335 0
M  V30 7934 C 738.405 3.76018 -2.12684 0
M  V30 7935 C 737.54 5.00301 -1.78529 0
M  V30 7936 C 736.579 5.36357 -2.94937 0
M  V30 7937 N 735.716 6.51818 -2.60917 0
M  V30 7938 H 740.556 2.06169 -2.1517 0
M  V30 7939 H 738.093 1.00917 -1.07024 0
M  V30 7940 H 740.051 4.10478 -0.745917 0
M  V30 7941 H 738.681 3.22796 -0.0153578 0
M  V30 7942 H 737.733 2.93683 -2.41774 0
M  V30 7943 H 739.045 3.98664 -2.99781 0
M  V30 7944 H 738.199 5.86034 -1.57001 0
M  V30 7945 H 736.938 4.79578 -0.886356 0
M  V30 7946 H 735.943 4.49139 -3.17103 0
M  V30 7947 H 737.168 5.59041 -3.85552 0
M  V30 7948 H 735.114 6.32624 -1.73558 0
M  V30 7949 H 735.031 6.7445 -3.41544 0
M  V30 7950 H 736.299 7.4072 -2.42804 0
M  V30 7951 N 740.528 1.15101 1.07655 0
M  V30 7952 C 741.475 0.844958 2.14777 0
M  V30 7953 C 742.445 -0.200798 1.64882 0
M  V30 7954 O 743.63 -0.0690278 1.90675 0
M  V30 7955 C 740.77 0.337018 3.4345 0
M  V30 7956 C 739.883 1.44398 4.07153 0
M  V30 7957 C 739.018 0.892487 5.23649 0
M  V30 7958 C 738.057 1.9766 5.79307 0
M  V30 7959 N 737.194 1.44171 6.87138 0
M  V30 7960 H 742.034 1.76242 2.40297 0
M  V30 7961 H 739.571 0.879435 1.17917 0
M  V30 7962 H 741.529 0.024256 4.17193 0
M  V30 7963 H 740.159 -0.543531 3.18191 0
M  V30 7964 H 739.211 1.87299 3.31094 0
M  V30 7965 H 740.523 2.26262 4.4453 0
M  V30 7966 H 739.677 0.532083 6.04362 0
M  V30 7967 H 738.416 0.0429854 4.87681 0
M  V30 7968 H 737.421 2.34586 4.97242 0
M  V30 7969 H 738.646 2.82982 6.17331 0
M  V30 7970 H 736.592 0.614518 6.53115 0
M  V30 7971 H 736.509 2.19665 7.23383 0
M  V30 7972 H 737.777 1.10945 7.71564 0
M  V30 7973 N 742.006 -1.2595 0.947325 0
M  V30 7974 C 743.422 -1.45737 0.650597 0
M  V30 7975 C 743.622 -1.85189 -0.794188 0
M  V30 7976 O 742.678 -1.97738 -1.57022 0
M  V30 7977 C 743.991 -2.53505 1.61728 0
M  V30 7978 C 745.539 -2.67351 1.62765 0
M  V30 7979 C 746.014 -3.78296 2.58179 0
M  V30 7980 N 747.505 -3.85696 2.56501 0
M  V30 7981 C 748.24 -4.71012 3.2701 0
M  V30 7982 N 747.736 -5.60669 4.06966 0
M  V30 7983 N 749.529 -4.64912 3.15932 0
M  V30 7984 H 741.68 -0.986327 1.8811 0
M  V30 7985 H 743.943 -0.494639 0.808725 0
M  V30 7986 H 743.649 -2.31357 2.6489 0
M  V30 7987 H 743.523 -3.51281 1.3741 0
M  V30 7988 H 745.91 -2.88869 0.603241 0
M  V30 7989 H 745.991 -1.69998 1.91139 0
M  V30 7990 H 745.635 -3.5753 3.60742 0
M  V30 7991 H 745.565 -4.75117 2.27093 0
M  V30 7992 H 748.056 -3.21601 1.98447 0
M  V30 7993 H 748.369 -6.22677 4.57704 0
M  V30 7994 H 746.714 -5.60402 4.11066 0
M  V30 7995 H 749.905 -3.93874 2.52945 0
M  V30 7996 H 750.078 -5.3118 3.71149 0
M  V30 7997 N 743.484 -0.715051 -1.40445 0
M  V30 7998 C 744.714 -0.263576 -2.04912 0
M  V30 7999 C 745.122 1.09943 -1.53978 0
M  V30 8000 O 744.465 1.70203 -0.691133 0
M  V30 8001 C 744.527 -0.165048 -3.59121 0
M  V30 8002 C 744.191 -1.46325 -4.32941 0
M  V30 8003 C 745.188 -2.40506 -4.60926 0
M  V30 8004 C 742.873 -1.72203 -4.7186 0
M  V30 8005 C 744.867 -3.58812 -5.26814 0
M  V30 8006 C 742.554 -2.9079 -5.3748 0
M  V30 8007 C 743.552 -3.83917 -5.64887 0
M  V30 8008 O 743.24 -5.00424 -6.29151 0
M  V30 8009 H 742.972 -0.116317 -0.665918 0
M  V30 8010 H 745.526 -0.973774 -1.8085 0
M  V30 8011 H 743.756 0.601088 -3.82 0
M  V30 8012 H 745.445 0.251794 -4.05118 0
M  V30 8013 H 746.211 -2.21778 -4.31323 0
M  V30 8014 H 742.09 -1.00571 -4.49896 0
M  V30 8015 H 745.634 -4.31517 -5.48123 0
M  V30 8016 H 741.531 -3.09428 -5.66502 0
M  V30 8017 H 742.299 -5.00494 -6.47648 0
M  V30 8018 N 744.962 1.50701 -0.461195 0
M  V30 8019 C 746.19 2.06681 0.0951756 0
M  V30 8020 C 746.605 1.32615 1.34382 0
M  V30 8021 O 745.962 0.392531 1.78229 0
M  V30 8022 C 746.013 3.59354 0.393316 0
M  V30 8023 O 745.734 4.30626 -0.805797 0
M  V30 8024 C 747.235 4.31926 0.997744 0
M  V30 8025 H 744.455 0.670995 -0.00267259 0
M  V30 8026 H 746.999 1.93991 -0.647137 0
M  V30 8027 H 745.154 3.7188 1.08555 0
M  V30 8028 H 745.568 5.21667 -0.544409 0
M  V30 8029 H 747.042 5.39756 1.15619 0
M  V30 8030 H 747.519 3.91772 1.98523 0
M  V30 8031 H 748.125 4.23905 0.344188 0
M  V30 8032 N 746.441 0.193421 1.56409 0
M  V30 8033 C 747.687 -0.446449 1.97825 0
M  V30 8034 C 748.02 -1.61386 1.08019 0
M  V30 8035 O 747.295 -1.94053 0.131839 0
M  V30 8036 C 747.578 -0.908199 3.48459 0
M  V30 8037 C 747.431 0.260914 4.49043 0
M  V30 8038 C 748.75 -1.77428 4.0275 0
M  V30 8039 H 745.869 -0.160807 0.719243 0
M  V30 8040 H 748.511 0.284006 1.87865 0
M  V30 8041 H 746.661 -1.53062 3.57077 0
M  V30 8042 H 748.333 0.898548 4.52464 0
M  V30 8043 H 746.576 0.912949 4.24085 0
M  V30 8044 H 747.247 -0.104657 5.51901 0
M  V30 8045 H 749.723 -1.24936 3.96901 0
M  V30 8046 H 748.599 -2.06633 5.08521 0
M  V30 8047 H 748.86 -2.72788 3.47907 0
M  V30 8048 N 747.919 -1.57396 -0.0801906 0
M  V30 8049 C 749.165 -1.87113 -0.782083 0
M  V30 8050 C 749.498 -0.78458 -1.77646 0
M  V30 8051 O 748.773 0.205993 -1.93406 0
M  V30 8052 C 749.056 -3.27483 -1.49756 0
M  V30 8053 C 748.909 -4.46782 -0.520171 0
M  V30 8054 C 750.228 -3.65965 -2.44454 0
M  V30 8055 H 747.347 -0.680559 -0.282858 0
M  V30 8056 H 749.989 -1.89946 -0.0454139 0
M  V30 8057 H 748.139 -3.25199 -2.12551 0
M  V30 8058 H 749.811 -4.61187 0.101919 0
M  V30 8059 H 748.054 -4.33485 0.165219 0
M  V30 8060 H 748.725 -5.41761 -1.05824 0
M  V30 8061 H 751.201 -3.69289 -1.91742 0
M  V30 8062 H 750.077 -4.65086 -2.91524 0
M  V30 8063 H 750.338 -2.95446 -3.28883 0
M  V30 8064 N 749.397 0.351382 -1.53633 0
M  V30 8065 C 750.645 1.09034 -1.70165 0
M  V30 8066 C 750.966 1.89413 -0.463422 0
M  V30 8067 O 750.236 1.888 0.522624 0
M  V30 8068 H 748.816 0.405522 -0.627344 0
M  V30 8069 H 751.478 0.394554 -1.90865 0
M  V30 8070 H 750.574 1.77215 -2.56907 0
M  V30 8071 N 750.875 1.45233 0.611969 0
M  V30 8072 C 751.823 1.53898 1.74408 0
M  V30 8073 C 752.817 0.409254 1.64382 0
M  V30 8074 O 754.023 0.584988 1.70229 0
M  V30 8075 H 750.398 0.483303 0.576127 0
M  V30 8076 H 752.369 2.49143 1.64227 0
M  V30 8077 C 751.118 1.51865 3.12782 0
M  V30 8078 H 750.441 2.38118 3.21154 0
M  V30 8079 H 751.881 1.61986 3.91838 0
M  V30 8080 C 750.34 0.242374 3.36027 0
M  V30 8081 O 750.87 -0.679587 3.9591 0
M  V30 8082 N 749.076 0.139448 2.90265 0
M  V30 8083 H 748.623 0.890571 2.41716 0
M  V30 8084 H 748.581 -0.713686 3.06193 0
M  V30 8085 N 752.353 -0.854086 1.3245 0
M  V30 8086 C 753.764 -1.42427 1.20712 0
M  V30 8087 C 754.115 -1.95371 -0.18013 0
M  V30 8088 O 753.24 -1.87587 -1.07889 0
M  V30 8089 C 753.835 -2.58897 2.18536 0
M  V30 8090 C 752.394 -3.11913 2.10683 0
M  V30 8091 C 751.541 -1.84661 2.06871 0
M  V30 8092 H 754.492 -0.661192 1.4427 0
M  V30 8093 H 754.513 -3.36074 1.78422 0
M  V30 8094 H 754.025 -2.20333 3.19492 0
M  V30 8095 H 752.126 -3.55059 1.12977 0
M  V30 8096 H 752.239 -3.73119 3.00532 0
M  V30 8097 H 750.603 -2.04285 1.52118 0
M  V30 8098 H 751.386 -1.48314 3.09609 0
M  V30 8099 N 753.831 -1.1567 -1.07043 0
M  V30 8100 C 755.061 -0.956083 -1.83146 0
M  V30 8101 C 755.469 0.498969 -1.82502 0
M  V30 8102 O 754.812 1.35791 -1.23719 0
M  V30 8103 C 754.874 -1.39704 -3.31245 0
M  V30 8104 C 754.538 -2.87045 -3.55604 0
M  V30 8105 C 755.535 -3.85092 -3.49285 0
M  V30 8106 C 753.22 -3.24787 -3.8317 0
M  V30 8107 C 755.214 -5.18885 -3.70185 0
M  V30 8108 C 752.901 -4.58751 -4.03721 0
M  V30 8109 C 753.899 -5.55609 -3.97224 0
M  V30 8110 O 753.587 -6.87154 -4.17223 0
M  V30 8111 H 753.319 -0.339473 -0.58458 0
M  V30 8112 H 755.873 -1.53922 -1.36005 0
M  V30 8113 H 754.103 -0.757326 -3.79212 0
M  V30 8114 H 755.792 -1.16503 -3.88821 0
M  V30 8115 H 756.558 -3.5728 -3.27988 0
M  V30 8116 H 752.437 -2.49979 -3.87339 0
M  V30 8117 H 755.981 -5.94473 -3.6503 0
M  V30 8118 H 751.878 -4.86277 -4.24505 0
M  V30 8119 H 752.646 -6.93618 -4.34553 0
M  V30 8120 N 755.309 1.25446 -0.953992 0
M  V30 8121 C 756.555 1.93756 -0.618888 0
M  V30 8122 C 756.91 1.73344 0.83484 0
M  V30 8123 O 756.203 1.06753 1.59105 0
M  V30 8124 C 756.397 3.45555 -0.912496 0
M  V30 8125 C 756.226 3.8073 -2.39321 0
M  V30 8126 C 754.996 4.02819 -3.05065 0
M  V30 8127 C 757.194 3.88286 -3.37251 0
M  V30 8128 N 755.176 4.24981 -4.43017 0
M  V30 8129 C 756.547 4.1513 -4.60507 0
M  V30 8130 C 758.602 3.70965 -3.32099 0
M  V30 8131 C 757.305 4.26454 -5.79249 0
M  V30 8132 C 759.331 3.83528 -4.50178 0
M  V30 8133 C 758.693 4.10783 -5.72221 0
M  V30 8134 H 754.792 0.731271 -0.277069 0
M  V30 8135 H 757.376 1.5125 -1.22604 0
M  V30 8136 H 755.547 3.86959 -0.334284 0
M  V30 8137 H 757.279 4.01117 -0.537362 0
M  V30 8138 H 754.034 3.9868 -2.55639 0
M  V30 8139 H 754.458 4.4007 -5.14459 0
M  V30 8140 H 759.1 3.4891 -2.38791 0
M  V30 8141 H 756.818 4.47325 -6.72998 0
M  V30 8142 H 760.404 3.71513 -4.47738 0
M  V30 8143 H 759.284 4.20285 -6.62065 0
M  V30 8144 N 756.787 0.722489 1.40064 0
M  V30 8145 C 757.72 0.0233443 2.28188 0
M  V30 8146 C 758.698 -0.7606 1.43714 0
M  V30 8147 O 759.882 -0.745791 1.73119 0
M  V30 8148 C 757.009 -0.974264 3.24385 0
M  V30 8149 C 756.055 -0.280307 4.25578 0
M  V30 8150 S 756.888 0.996769 5.26141 0
M  V30 8151 C 758.044 0.00143923 6.259 0
M  V30 8152 H 758.277 0.770705 2.87137 0
M  V30 8153 H 755.81 0.513783 1.45601 0
M  V30 8154 H 757.768 -1.5446 3.80332 0
M  V30 8155 H 756.429 -1.69438 2.6448 0
M  V30 8156 H 755.622 -1.03471 4.93264 0
M  V30 8157 H 755.224 0.217657 3.73366 0
M  V30 8158 H 757.516 -0.843126 6.72233 0
M  V30 8159 H 758.459 0.645104 7.05155 0
M  V30 8160 H 758.867 -0.365371 5.63316 0
M  V30 8161 N 758.265 -1.50454 0.469181 0
M  V30 8162 C 759.228 -2.2703 -0.314643 0
M  V30 8163 C 760.228 -1.31734 -0.922111 0
M  V30 8164 O 761.418 -1.55176 -0.791588 0
M  V30 8165 C 758.55 -3.08616 -1.44806 0
M  V30 8166 H 759.743 -2.97769 0.356892 0
M  V30 8167 H 757.296 -1.54698 0.223191 0
M  V30 8168 H 758.031 -2.42369 -2.1547 0
M  V30 8169 H 757.816 -3.78647 -1.01829 0
M  V30 8170 H 759.306 -3.66536 -2.00103 0
M  V30 8171 N 759.743 -0.201713 -1.56304 0
M  V30 8172 C 761.154 0.309711 -1.84113 0
M  V30 8173 C 761.505 1.60912 -1.12258 0
M  V30 8174 O 760.63 2.12937 -0.385587 0
M  V30 8175 C 761.225 0.568706 -3.33993 0
M  V30 8176 C 759.784 1.02448 -3.6219 0
M  V30 8177 C 758.931 0.0766842 -2.77194 0
M  V30 8178 H 761.882 -0.425356 -1.52893 0
M  V30 8179 H 761.903 1.41721 -3.53122 0
M  V30 8180 H 761.415 -0.37719 -3.86263 0
M  V30 8181 H 759.516 1.98443 -3.15359 0
M  V30 8182 H 759.629 0.912619 -4.70328 0
M  V30 8183 H 757.993 0.579809 -2.48013 0
M  V30 8184 H 758.776 -0.863774 -3.32256 0
M  V30 8185 N 761.222 1.57436 0.0718424 0
M  V30 8186 C 762.132 2.07039 1.10326 0
M  V30 8187 C 763.148 0.999918 1.424 0
M  V30 8188 O 764.324 1.31462 1.52577 0
M  V30 8189 C 761.389 2.50439 2.39752 0
M  V30 8190 C 760.45 3.71784 2.14651 0
M  V30 8191 C 759.683 4.13104 3.37906 0
M  V30 8192 O 759.906 3.54298 4.47023 0
M  V30 8193 O 758.84 5.05894 3.26121 0
M  V30 8194 H 762.666 2.95239 0.711872 0
M  V30 8195 H 760.251 1.46638 0.28597 0
M  V30 8196 H 762.133 2.78876 3.15921 0
M  V30 8197 H 760.808 1.65368 2.78271 0
M  V30 8198 H 759.715 3.48431 1.36187 0
M  V30 8199 H 761.048 4.57707 1.81012 0
M  V30 8200 N 762.7 -0.34323 1.53817 0
M  V30 8201 C 763.633 -1.44472 1.76644 0
M  V30 8202 C 764.611 -1.50498 0.615556 0
M  V30 8203 O 765.795 -1.6821 0.850751 0
M  V30 8204 C 762.922 -2.82705 1.86536 0
M  V30 8205 C 761.968 -2.94302 3.08688 0
M  V30 8206 S 762.801 -2.60739 4.67735 0
M  V30 8207 C 763.957 -4.01079 4.80506 0
M  V30 8208 H 764.19 -1.24893 2.69794 0
M  V30 8209 H 761.723 -0.538915 1.4469 0
M  V30 8210 H 763.681 -3.62342 1.92921 0
M  V30 8211 H 762.342 -2.9958 0.943975 0
M  V30 8212 H 761.535 -3.95593 3.12286 0
M  V30 8213 H 761.137 -2.22614 3.00531 0
M  V30 8214 H 763.429 -4.95603 4.61935 0
M  V30 8215 H 764.372 -4.02475 5.82597 0
M  V30 8216 H 764.78 -3.89119 4.08958 0
M  V30 8217 N 764.178 -1.45556 -0.604258 0
M  V30 8218 C 765.108 -1.57327 -1.72541 0
M  V30 8219 C 766.089 -0.424637 -1.64714 0
M  V30 8220 O 767.274 -0.648196 -1.83063 0
M  V30 8221 C 764.404 -1.54279 -3.11152 0
M  V30 8222 C 763.358 -2.67893 -3.33792 0
M  V30 8223 C 762.684 -2.499 -4.72709 0
M  V30 8224 C 763.984 -4.0988 -3.23722 0
M  V30 8225 H 765.678 -2.51175 -1.62947 0
M  V30 8226 H 763.224 -1.20884 -0.782504 0
M  V30 8227 H 765.177 -1.6111 -3.89386 0
M  V30 8228 H 763.901 -0.569627 -3.21594 0
M  V30 8229 H 762.56 -2.60495 -2.57949 0
M  V30 8230 H 762.208 -1.50715 -4.79889 0
M  V30 8231 H 761.908 -3.26091 -4.88813 0
M  V30 8232 H 763.432 -2.5859 -5.5314 0
M  V30 8233 H 764.846 -4.18503 -3.91826 0
M  V30 8234 H 763.243 -4.86487 -3.51355 0
M  V30 8235 H 764.313 -4.31553 -2.21111 0
M  V30 8236 N 765.656 0.84705 -1.32902 0
M  V30 8237 C 766.604 1.97765 -1.22441 0
M  V30 8238 C 767.598 1.68919 -0.127546 0
M  V30 8239 O 768.804 1.77633 -0.290973 0
M  V30 8240 H 765.179 0.649072 -0.379748 0
M  V30 8241 H 767.15 2.03713 -2.18044 0
M  V30 8242 C 765.899 3.33834 -0.972125 0
M  V30 8243 H 765.222 3.56564 -1.80837 0
M  V30 8244 H 766.662 4.13467 -0.939209 0
M  V30 8245 C 765.121 3.35328 0.325059 0
M  V30 8246 O 765.651 3.78887 1.33445 0
M  V30 8247 N 763.857 2.88488 0.349718 0
M  V30 8248 H 763.404 2.53234 -0.472236 0
M  V30 8249 H 763.362 2.8987 1.21748 0
M  V30 8250 N 767.134 1.16236 1.06428 0
M  V30 8251 C 768.382 0.941171 1.78847 0
M  V30 8252 C 768.703 -0.53248 1.87589 0
M  V30 8253 O 767.973 -1.38686 1.38358 0
M  V30 8254 H 766.553 0.345228 0.66244 0
M  V30 8255 H 769.215 1.46479 1.28569 0
M  V30 8256 H 768.311 1.35871 2.80972 0
M  V30 8257 N 768.612 -1.24939 0.960631 0
M  V30 8258 C 769.559 -2.25658 0.484459 0
M  V30 8259 C 770.529 -1.59422 -0.466242 0
M  V30 8260 O 771.714 -1.87015 -0.378169 0
M  V30 8261 C 768.854 -3.44359 -0.225958 0
M  V30 8262 C 767.967 -4.25214 0.762682 0
M  V30 8263 C 767.102 -5.31192 0.0290931 0
M  V30 8264 C 766.141 -6.03739 1.00827 0
M  V30 8265 N 765.278 -7.01437 0.305155 0
M  V30 8266 H 770.118 -2.65758 1.34821 0
M  V30 8267 H 767.655 -1.30648 0.675983 0
M  V30 8268 H 769.613 -4.12035 -0.654472 0
M  V30 8269 H 768.243 -3.05118 -1.05371 0
M  V30 8270 H 767.295 -3.57144 1.30966 0
M  V30 8271 H 768.607 -4.75406 1.50964 0
M  V30 8272 H 767.761 -6.04971 -0.457763 0
M  V30 8273 H 766.5 -4.81889 -0.750614 0
M  V30 8274 H 765.505 -5.2877 1.50607 0
M  V30 8275 H 766.73 -6.55131 1.7883 0
M  V30 8276 H 764.676 -6.54415 -0.455704 0
M  V30 8277 H 764.593 -7.49475 0.991104 0
M  V30 8278 H 765.861 -7.79336 -0.159966 0
M  V30 8279 N 770.09 -0.729906 -1.39679 0
M  V30 8280 C 771.315 -0.284345 -2.05442 0
M  V30 8281 C 771.74 1.07056 -1.54663 0
M  V30 8282 O 771.098 1.67732 -0.688157 0
M  V30 8283 C 771.146 -0.290089 -3.59431 0
M  V30 8284 O 770.25 0.723978 -4.05995 0
M  V30 8285 H 769.591 -0.130311 -0.651088 0
M  V30 8286 H 772.121 -0.994403 -1.78809 0
M  V30 8287 H 772.131 -0.132712 -4.07784 0
M  V30 8288 H 770.806 -1.27877 -3.95753 0
M  V30 8289 H 769.383 0.533154 -3.69069 0
M  V30 8290 N 771.568 1.50203 -0.477153 0
M  V30 8291 C 772.798 2.0647 0.0731427 0
M  V30 8292 C 773.206 1.3405 1.33518 0
M  V30 8293 O 772.549 0.405164 1.79176 0
M  V30 8294 C 772.611 3.57025 0.421121 0
M  V30 8295 C 772.275 4.50973 -0.739765 0
M  V30 8296 C 773.272 4.939 -1.62353 0
M  V30 8297 C 770.957 4.93581 -0.93181 0
M  V30 8298 C 772.951 5.78149 -2.6837 0
M  V30 8299 C 770.638 5.77612 -1.99519 0
M  V30 8300 C 771.636 6.19798 -2.86949 0
M  V30 8301 O 771.324 7.02152 -3.91456 0
M  V30 8302 H 771.056 0.675969 -0.00648243 0
M  V30 8303 H 773.61 1.94278 -0.66673 0
M  V30 8304 H 771.84 3.67141 1.21426 0
M  V30 8305 H 773.529 3.95632 0.907213 0
M  V30 8306 H 774.295 4.61646 -1.48687 0
M  V30 8307 H 770.174 4.60262 -0.260739 0
M  V30 8308 H 773.718 6.10997 -3.36643 0
M  V30 8309 H 769.615 6.09279 -2.13189 0
M  V30 8310 H 770.383 7.20414 -3.88518 0
M  V30 8311 N 773.046 0.209999 1.56195 0
M  V30 8312 C 774.323 -0.473214 1.89789 0
M  V30 8313 C 774.703 -1.78581 1.1257 0
M  V30 8314 O 774.051 -2.27325 0.231398 0
M  V30 8315 C 774.261 -0.677458 3.42362 0
M  V30 8316 C 775.609 -0.990114 4.12895 0
M  V30 8317 O 776.633 -0.764655 3.47896 0
M  V30 8318 O 775.492 -1.41737 5.278 0
M  V30 8319 H 772.586 -0.248622 0.788743 0
M  V30 8320 H 775.132 0.251324 1.67829 0
M  V30 8321 H 773.904 0.248878 3.90508 0
M  V30 8322 H 773.527 -1.45391 3.70064 0
M  V30 8323 N 774.524 -1.57472 -0.0634922 0
M  V30 8324 C 775.434 -2.07621 -1.09227 0
M  V30 8325 C 776.45 -1.00746 -1.41867 0
M  V30 8326 O 777.626 -1.32269 -1.51878 0
M  V30 8327 C 774.691 -2.51707 -2.38421 0
M  V30 8328 C 773.752 -3.72917 -2.12676 0
M  V30 8329 C 772.985 -4.14891 -3.3571 0
M  V30 8330 O 773.208 -3.56663 -4.45137 0
M  V30 8331 O 772.142 -5.07616 -3.23434 0
M  V30 8332 H 775.968 -2.95612 -0.696205 0
M  V30 8333 H 773.553 -1.46787 -0.27819 0
M  V30 8334 H 775.435 -2.80547 -3.14438 0
M  V30 8335 H 774.11 -1.66842 -2.77391 0
M  V30 8336 H 773.017 -3.49148 -1.34337 0
M  V30 8337 H 774.35 -4.5866 -1.78583 0
M  V30 8338 N 776.003 0.335068 -1.53997 0
M  V30 8339 C 777.231 1.09418 -1.756 0
M  V30 8340 C 777.646 1.82083 -0.499138 0
M  V30 8341 O 777.003 1.74646 0.529631 0
M  V30 8342 C 777.054 2.10115 -2.94166 0
M  V30 8343 O 776.775 1.40404 -4.14992 0
M  V30 8344 C 778.276 2.98336 -3.27888 0
M  V30 8345 H 775.496 0.32595 -0.586513 0
M  V30 8346 H 778.04 0.384693 -2.00849 0
M  V30 8347 H 776.195 2.76616 -2.71224 0
M  V30 8348 H 776.609 2.07743 -4.81605 0
M  V30 8349 H 778.083 3.6491 -4.1418 0
M  V30 8350 H 778.56 3.64814 -2.44556 0
M  V30 8351 H 779.166 2.37412 -3.52868 0
M  V30 8352 N 777.481 1.45874 0.596531 0
M  V30 8353 C 778.727 1.5069 1.35722 0
M  V30 8354 C 779.06 0.152506 1.936 0
M  V30 8355 O 778.335 -0.834411 1.75692 0
M  V30 8356 C 778.618 2.59474 2.4969 0
M  V30 8357 C 778.471 4.04396 1.96937 0
M  V30 8358 C 779.79 2.64451 3.51787 0
M  V30 8359 H 776.909 0.548611 0.492133 0
M  V30 8360 H 779.551 1.77741 0.671428 0
M  V30 8361 H 777.701 2.36539 3.08191 0
M  V30 8362 H 779.373 4.38576 1.43 0
M  V30 8363 H 777.616 4.14529 1.27859 0
M  V30 8364 H 778.287 4.76218 2.79143 0
M  V30 8365 H 780.763 2.85031 3.03145 0
M  V30 8366 H 779.639 3.42411 4.29006 0
M  V30 8367 H 779.9 1.69965 4.08123 0
M  V30 8368 N 778.959 -0.83999 1.33349 0
M  V30 8369 C 780.236 -1.57973 1.15342 0
M  V30 8370 C 780.616 -2.09226 -0.280632 0
M  V30 8371 O 779.964 -1.89317 -1.2795 0
M  V30 8372 C 780.174 -2.71446 2.19359 0
M  V30 8373 C 781.522 -3.40654 2.53456 0
M  V30 8374 O 782.546 -2.81686 2.18017 0
M  V30 8375 O 781.405 -4.47101 3.14266 0
M  V30 8376 H 778.499 -0.6964 0.446044 0
M  V30 8377 H 781.045 -0.882843 1.44927 0
M  V30 8378 H 779.817 -2.31205 3.1569 0
M  V30 8379 H 779.44 -3.488 1.90852 0
M  V30 8380 N 780.437 -1.16799 -1.0581 0
M  V30 8381 C 781.686 -0.94698 -1.78088 0
M  V30 8382 C 781.999 0.526016 -1.88394 0
M  V30 8383 O 783.205 0.865061 -2.5735 0
M  V30 8384 C 781.661 -1.64508 -3.20102 0
M  V30 8385 C 781.269 -3.15618 -3.17946 0
M  V30 8386 C 783.013 -1.50622 -3.96879 0
M  V30 8387 C 780.92 -3.78144 -4.5471 0
M  V30 8388 H 779.85 -0.35067 -0.667493 0
M  V30 8389 H 782.501 -1.39985 -1.18645 0
M  V30 8390 H 780.883 -1.11993 -3.79834 0
M  V30 8391 H 782.057 -3.75016 -2.67768 0
M  V30 8392 H 780.372 -3.29444 -2.54667 0
M  V30 8393 H 782.969 -1.94713 -4.97987 0
M  V30 8394 H 783.312 -0.455864 -4.13797 0
M  V30 8395 H 783.845 -2.00319 -3.43682 0
M  V30 8396 H 780.584 -4.83149 -4.42998 0
M  V30 8397 H 780.104 -3.23532 -5.05062 0
M  V30 8398 H 781.783 -3.79986 -5.2366 0
M  V30 8399 N 781.915 1.24427 -0.967243 0
M  V30 8400 C 783.162 1.92487 -0.62888 0
M  V30 8401 C 783.49 1.75623 0.835871 0
M  V30 8402 O 782.745 1.1027 1.61675 0
M  V30 8403 C 783.044 3.44568 -0.949096 0
M  V30 8404 C 782.71 3.816 -2.40192 0
M  V30 8405 C 781.372 3.9142 -2.799 0
M  V30 8406 C 783.724 3.99715 -3.34481 0
M  V30 8407 C 781.052 4.16771 -4.12939 0
M  V30 8408 C 783.404 4.26562 -4.67148 0
M  V30 8409 C 782.068 4.34601 -5.06634 0
M  V30 8410 H 781.338 0.704361 -0.230124 0
M  V30 8411 H 783.985 1.4772 -1.21864 0
M  V30 8412 H 782.29 3.90819 -0.277085 0
M  V30 8413 H 783.987 3.95436 -0.665692 0
M  V30 8414 H 780.577 3.74522 -2.08402 0
M  V30 8415 H 784.761 3.91531 -3.04987 0
M  V30 8416 H 780.017 4.21214 -4.43158 0
M  V30 8417 H 784.191 4.39523 -5.40178 0
M  V30 8418 H 781.818 4.53998 -6.09746 0
M  V30 8419 N 783.393 0.737304 1.3929 0
M  V30 8420 C 784.618 0.295237 2.05288 0
M  V30 8421 C 785.043 -1.06235 1.55228 0
M  V30 8422 O 784.401 -1.67365 0.697043 0
M  V30 8423 C 784.449 0.309146 3.59272 0
M  V30 8424 O 783.553 -0.702437 4.06374 0
M  V30 8425 H 782.894 0.133762 0.650387 0
M  V30 8426 H 785.424 1.00387 1.78279 0
M  V30 8427 H 785.434 0.154336 4.07708 0
M  V30 8428 H 784.109 1.29974 3.95069 0
M  V30 8429 H 782.686 -0.513574 3.69346 0
M  V30 8430 N 784.871 -1.49948 0.485112 0
M  V30 8431 C 786.118 -2.02396 -0.0650059 0
M  V30 8432 C 786.446 -1.36606 -1.38452 0
M  V30 8433 O 785.701 -0.485476 -1.89583 0
M  V30 8434 C 786 -3.56282 -0.282434 0
M  V30 8435 C 785.666 -4.40625 0.957106 0
M  V30 8436 C 784.328 -4.63393 1.29692 0
M  V30 8437 C 786.68 -4.89799 1.78176 0
M  V30 8438 C 784.008 -5.3258 2.4612 0
M  V30 8439 C 786.36 -5.60266 2.93743 0
M  V30 8440 C 785.024 -5.81284 3.28124 0
M  V30 8441 H 784.294 -0.740618 -0.0237873 0
M  V30 8442 H 786.941 -1.80416 0.642044 0
M  V30 8443 H 785.246 -3.76853 -1.07186 0
M  V30 8444 H 786.943 -3.94442 -0.722276 0
M  V30 8445 H 783.533 -4.23133 0.682384 0
M  V30 8446 H 787.717 -4.7205 1.53239 0
M  V30 8447 H 782.973 -5.47059 2.73014 0
M  V30 8448 H 787.147 -5.97347 3.5798 0
M  V30 8449 H 784.774 -6.34671 4.18446 0
M  V30 8450 N 786.349 -0.21828 -1.56081 0
M  V30 8451 C 787.597 0.413488 -1.97825 0
M  V30 8452 C 787.918 1.60527 -1.10707 0
M  V30 8453 O 787.188 1.9504 -0.183378 0
M  V30 8454 H 785.768 0.155757 -0.730581 0
M  V30 8455 H 788.43 -0.310413 -1.92412 0
M  V30 8456 H 787.526 0.742024 -3.03151 0
M  V30 8457 N 787.827 1.57504 0.0551401 0
M  V30 8458 C 789.076 1.87237 0.750009 0
M  V30 8459 C 789.389 0.813268 1.77891 0
M  V30 8460 O 790.595 0.99898 2.52453 0
M  V30 8461 C 789.051 3.32187 1.38491 0
M  V30 8462 C 788.659 4.46267 0.393707 0
M  V30 8463 C 790.403 3.71101 2.06117 0
M  V30 8464 C 788.31 5.82265 1.03547 0
M  V30 8465 H 787.24 0.698524 0.283866 0
M  V30 8466 H 789.891 1.835 0.00365997 0
M  V30 8467 H 788.273 3.30588 2.18008 0
M  V30 8468 H 789.447 4.59289 -0.372865 0
M  V30 8469 H 787.762 4.16015 -0.17902 0
M  V30 8470 H 790.359 4.70012 2.54937 0
M  V30 8471 H 790.702 3.01751 2.86796 0
M  V30 8472 H 791.235 3.74762 1.33409 0
M  V30 8473 H 787.974 6.54949 0.268644 0
M  V30 8474 H 787.494 5.73012 1.7725 0
M  V30 8475 H 789.173 6.28148 1.55047 0
M  V30 8476 N 789.305 -0.326896 1.54172 0
M  V30 8477 C 790.551 -1.06681 1.72473 0
M  V30 8478 C 790.884 -1.87779 0.49523 0
M  V30 8479 O 790.159 -1.87754 -0.507803 0
M  V30 8480 C 790.442 -1.99429 2.99834 0
M  V30 8481 C 790.295 -1.21682 4.33028 0
M  V30 8482 C 791.614 -2.99002 3.22933 0
M  V30 8483 H 788.733 -0.386438 0.627563 0
M  V30 8484 H 791.375 -0.343779 1.86864 0
M  V30 8485 H 789.525 -2.61081 2.87696 0
M  V30 8486 H 791.197 -0.625153 4.57044 0
M  V30 8487 H 789.44 -0.519045 4.30684 0
M  V30 8488 H 790.111 -1.89766 5.18356 0
M  V30 8489 H 792.587 -2.4747 3.34511 0
M  V30 8490 H 791.463 -3.61085 4.13412 0
M  V30 8491 H 791.724 -3.71281 2.40006 0
M  V30 8492 N 790.784 -1.46188 -0.588786 0
M  V30 8493 C 791.714 -1.59148 -1.70863 0
M  V30 8494 C 792.695 -0.442083 -1.64255 0
M  V30 8495 O 793.88 -0.667575 -1.82365 0
M  V30 8496 C 791.01 -1.5757 -3.09498 0
M  V30 8497 C 789.964 -2.71418 -3.30932 0
M  V30 8498 C 789.29 -2.549 -4.70032 0
M  V30 8499 C 790.59 -4.1329 -3.19356 0
M  V30 8500 H 792.284 -2.52889 -1.60274 0
M  V30 8501 H 789.83 -1.21707 -0.769638 0
M  V30 8502 H 791.783 -1.65231 -3.87655 0
M  V30 8503 H 790.507 -0.603705 -3.20972 0
M  V30 8504 H 789.166 -2.63216 -2.55172 0
M  V30 8505 H 788.814 -1.55797 -4.78264 0
M  V30 8506 H 788.514 -3.31257 -4.85327 0
M  V30 8507 H 790.038 -2.64443 -5.50366 0
M  V30 8508 H 791.452 -4.22636 -3.87365 0
M  V30 8509 H 789.849 -4.90187 -3.46175 0
M  V30 8510 H 790.919 -4.33874 -2.16522 0
M  V30 8511 N 792.262 0.832906 -1.33792 0
M  V30 8512 C 793.502 1.60217 -1.26925 0
M  V30 8513 C 793.866 1.91323 0.161146 0
M  V30 8514 O 795.067 2.66461 0.353864 0
M  V30 8515 C 793.338 2.87314 -2.12568 0
M  V30 8516 S 794.897 3.77939 -2.22952 0
M  V30 8517 H 791.715 0.549273 -0.451464 0
M  V30 8518 H 794.317 0.984648 -1.68893 0
M  V30 8519 H 793.021 2.62444 -3.15518 0
M  V30 8520 H 792.552 3.5407 -1.71459 0
M  V30 8521 H 794.567 4.76188 -1.39496 0
M  V30 8522 N 793.74 1.17359 1.05189 0
M  V30 8523 C 794.65 0.904984 2.16442 0
M  V30 8524 C 795.666 -0.12686 1.73537 0
M  V30 8525 O 796.842 0.0524127 2.01332 0
M  V30 8526 C 793.907 0.422019 3.44122 0
M  V30 8527 C 792.968 1.52045 4.01473 0
M  V30 8528 C 792.201 1.06044 5.23059 0
M  V30 8529 O 792.424 -0.0854023 5.70336 0
M  V30 8530 O 791.358 1.85349 5.72651 0
M  V30 8531 H 795.184 1.8356 2.41949 0
M  V30 8532 H 792.769 0.95447 1.14936 0
M  V30 8533 H 794.651 0.160208 4.21095 0
M  V30 8534 H 793.326 -0.480444 3.20115 0
M  V30 8535 H 792.233 1.83615 3.25939 0
M  V30 8536 H 793.566 2.39863 4.29798 0
M  V30 8537 N 795.218 -1.23913 0.973828 0
M  V30 8538 C 796.467 -1.91455 0.63464 0
M  V30 8539 C 796.78 -1.76893 -0.834759 0
M  V30 8540 O 797.986 -2.3918 -1.28473 0
M  V30 8541 C 796.442 -3.43172 1.08447 0
M  V30 8542 C 796.05 -3.66409 2.57776 0
M  V30 8543 C 797.794 -4.1653 0.818721 0
M  V30 8544 C 795.701 -5.11728 2.9646 0
M  V30 8545 H 794.631 -0.716881 0.233661 0
M  V30 8546 H 797.282 -1.40457 1.18085 0
M  V30 8547 H 795.664 -3.93242 0.466524 0
M  V30 8548 H 796.838 -3.26913 3.24753 0
M  V30 8549 H 795.153 -3.06349 2.82027 0
M  V30 8550 H 797.75 -5.23603 1.08367 0
M  V30 8551 H 798.093 -4.15578 -0.245128 0
M  V30 8552 H 798.626 -3.72428 1.39793 0
M  V30 8553 H 795.365 -5.17806 4.01941 0
M  V30 8554 H 794.885 -5.52199 2.34172 0
M  V30 8555 H 796.564 -5.80009 2.86703 0
M  V30 8556 N 796.696 -0.74468 -1.38897 0
M  V30 8557 C 797.945 -0.293716 -1.9955 0
M  V30 8558 C 798.258 1.12831 -1.59777 0
M  V30 8559 O 799.464 1.67929 -2.13336 0
M  V30 8560 C 797.92 -0.474188 -3.56762 0
M  V30 8561 C 797.528 -1.90472 -4.05493 0
M  V30 8562 C 799.272 -0.0854875 -4.24414 0
M  V30 8563 C 797.179 -2.03423 -5.55314 0
M  V30 8564 H 796.109 -0.106066 -0.746502 0
M  V30 8565 H 798.76 -0.919948 -1.58774 0
M  V30 8566 H 797.142 0.221092 -3.95382 0
M  V30 8567 H 798.316 -2.63274 -3.78184 0
M  V30 8568 H 796.631 -2.24752 -3.50536 0
M  V30 8569 H 799.228 -0.161133 -5.34457 0
M  V30 8570 H 799.571 0.96066 -4.05064 0
M  V30 8571 H 800.104 -0.732286 -3.91002 0
M  V30 8572 H 796.843 -3.0626 -5.79556 0
M  V30 8573 H 796.363 -1.3507 -5.84394 0
M  V30 8574 H 798.042 -1.81996 -6.20876 0
M  V30 8575 N 798.174 1.49689 -0.493057 0
M  V30 8576 C 799.422 2.02027 0.0541642 0
M  V30 8577 C 799.743 1.37554 1.38217 0
M  V30 8578 O 799.013 0.528174 1.88646 0
M  V30 8579 H 797.593 0.746646 0.0230069 0
M  V30 8580 H 800.255 1.83795 -0.648489 0
M  V30 8581 H 799.351 3.11523 0.189652 0
M  V30 8582 N 799.652 0.226554 1.55963 0
M  V30 8583 C 800.584 -0.713907 2.17798 0
M  V30 8584 C 801.597 -1.15387 1.14846 0
M  V30 8585 O 802.786 -1.08416 1.41804 0
M  V30 8586 C 799.886 -1.97945 2.75084 0
M  V30 8587 C 799.059 -1.69424 4.03255 0
M  V30 8588 C 798.118 -2.80734 4.45056 0
M  V30 8589 O 797.144 -2.4899 5.11852 0
M  V30 8590 N 798.346 -4.09797 4.11152 0
M  V30 8591 H 801.111 -0.18494 2.99129 0
M  V30 8592 H 798.672 0.0457346 1.61835 0
M  V30 8593 H 800.664 -2.71611 3.00016 0
M  V30 8594 H 799.234 -2.41876 1.98027 0
M  V30 8595 H 798.454 -0.793767 3.86126 0
M  V30 8596 H 799.742 -1.47806 4.86858 0
M  V30 8597 H 799.14 -4.38429 3.57486 0
M  V30 8598 H 797.697 -4.79992 4.40966 0
M  V30 8599 N 801.13 -1.57531 -0.0467866 0
M  V30 8600 C 802.376 -1.8873 -0.742218 0
M  V30 8601 C 802.709 -0.822084 -1.75941 0
M  V30 8602 O 801.984 0.164922 -1.938 0
M  V30 8603 C 802.267 -3.30586 -1.42776 0
M  V30 8604 C 802.12 -4.47785 -0.425285 0
M  V30 8605 C 803.439 -3.71068 -2.36636 0
M  V30 8606 H 800.558 -0.686406 -0.268359 0
M  V30 8607 H 803.2 -1.89999 -0.00511341 0
M  V30 8608 H 801.35 -3.29634 -2.05605 0
M  V30 8609 H 803.022 -4.60867 0.199721 0
M  V30 8610 H 801.265 -4.33037 0.25713 0
M  V30 8611 H 801.936 -5.43884 -0.943086 0
M  V30 8612 H 804.412 -3.73273 -1.83866 0
M  V30 8613 H 803.288 -4.71165 -2.81593 0
M  V30 8614 H 803.549 -3.02355 -3.22542 0
M  V30 8615 N 802.608 0.318715 -1.54344 0
M  V30 8616 C 803.838 1.07394 -1.76494 0
M  V30 8617 C 804.246 1.82031 -0.515881 0
M  V30 8618 O 803.589 1.7609 0.52325 0
M  V30 8619 C 803.651 2.11401 -2.90775 0
M  V30 8620 C 803.315 1.56118 -4.29507 0
M  V30 8621 C 804.312 1.00043 -5.10184 0
M  V30 8622 C 801.997 1.60215 -4.76063 0
M  V30 8623 C 803.991 0.487993 -6.35529 0
M  V30 8624 C 801.678 1.08584 -6.01376 0
M  V30 8625 C 802.676 0.529714 -6.80943 0
M  V30 8626 O 802.364 0.0211823 -8.03897 0
M  V30 8627 H 802.096 0.325061 -0.592715 0
M  V30 8628 H 804.65 0.36901 -2.02058 0
M  V30 8629 H 802.88 2.85524 -2.60793 0
M  V30 8630 H 804.569 2.72683 -3.00664 0
M  V30 8631 H 805.335 0.961811 -4.75367 0
M  V30 8632 H 801.214 2.02441 -4.14172 0
M  V30 8633 H 804.758 0.0532608 -6.9758 0
M  V30 8634 H 800.655 1.12155 -6.35682 0
M  V30 8635 H 801.423 0.136151 -8.18387 0
M  V30 8636 N 804.086 1.46499 0.581025 0
M  V30 8637 C 805.049 1.5677 1.672 0
M  V30 8638 C 806.049 0.444716 1.54528 0
M  V30 8639 O 807.239 0.709074 1.59116 0
M  V30 8640 C 804.371 1.4896 3.06633 0
M  V30 8641 H 805.564 2.54 1.5945 0
M  V30 8642 H 803.117 1.34334 0.799003 0
M  V30 8643 H 803.852 0.530168 3.19937 0
M  V30 8644 H 803.637 2.30439 3.17239 0
M  V30 8645 H 805.127 1.59237 3.86048 0
M  V30 8646 N 805.565 -0.825799 1.34232 0
M  V30 8647 C 806.842 -1.56741 1.17011 0
M  V30 8648 C 807.222 -2.09512 -0.258425 0
M  V30 8649 O 806.57 -1.90664 -1.25935 0
M  V30 8650 C 806.78 -2.69104 2.22225 0
M  V30 8651 C 808.128 -3.37947 2.57055 0
M  V30 8652 O 809.152 -2.79358 2.20992 0
M  V30 8653 O 808.011 -4.43743 3.1899 0
M  V30 8654 H 805.105 -0.69163 0.453405 0
M  V30 8655 H 807.651 -0.867422 1.45856 0
M  V30 8656 H 806.423 -2.27844 3.18124 0
M  V30 8657 H 806.046 -3.46756 1.94541 0
M  V30 8658 N 807.043 -1.17915 -1.04565 0
M  V30 8659 C 808.454 -0.976383 -1.59134 0
M  V30 8660 C 808.805 0.475267 -1.90357 0
M  V30 8661 O 807.93 1.35172 -1.6899 0
M  V30 8662 C 808.525 -1.76604 -2.89131 0
M  V30 8663 C 807.084 -1.60777 -3.40335 0
M  V30 8664 C 806.231 -1.76369 -2.13985 0
M  V30 8665 H 809.182 -1.32532 -0.872985 0
M  V30 8666 H 809.203 -1.25215 -3.59307 0
M  V30 8667 H 808.715 -2.82252 -2.66375 0
M  V30 8668 H 806.816 -0.576436 -3.68114 0
M  V30 8669 H 806.929 -2.40268 -4.14497 0
M  V30 8670 H 805.293 -1.19268 -2.25049 0
M  V30 8671 H 806.076 -2.83441 -1.9369 0
M  V30 8672 N 808.521 1.23394 -0.980386 0
M  V30 8673 C 809.798 1.87242 -0.565667 0
M  V30 8674 C 810.178 1.88151 0.957197 0
M  V30 8675 O 809.526 1.36309 1.8339 0
M  V30 8676 C 809.736 3.28743 -1.17172 0
M  V30 8677 C 811.084 4.05335 -1.26446 0
M  V30 8678 O 812.108 3.37962 -1.12517 0
M  V30 8679 O 810.967 5.25908 -1.48604 0
M  V30 8680 H 808.061 0.80477 -0.190459 0
M  V30 8681 H 810.607 1.3127 -1.07547 0
M  V30 8682 H 809.379 3.22647 -2.21392 0
M  V30 8683 H 809.002 3.92305 -0.646739 0
M  V30 8684 N 809.999 0.752036 1.385 0
M  V30 8685 C 811.239 0.312408 2.01998 0
M  V30 8686 C 811.603 -1.085 1.58404 0
M  V30 8687 O 812.804 -1.62365 2.14222 0
M  V30 8688 C 811.075 0.429423 3.54811 0
M  V30 8689 S 812.634 0.0721487 4.38741 0
M  V30 8690 H 809.452 0.1213 0.700576 0
M  V30 8691 H 812.054 0.982312 1.69029 0
M  V30 8692 H 810.758 1.44743 3.84028 0
M  V30 8693 H 810.289 -0.257716 3.92555 0
M  V30 8694 H 812.304 -1.13875 4.82957 0
M  V30 8695 N 811.477 -1.49425 0.500989 0
M  V30 8696 C 812.407 -2.31971 -0.266775 0
M  V30 8697 C 813.388 -1.40245 -0.962563 0
M  V30 8698 O 814.573 -1.69154 -0.953968 0
M  V30 8699 C 811.703 -3.20757 -1.33163 0
M  V30 8700 C 810.657 -4.21275 -0.75572 0
M  V30 8701 C 809.983 -4.98997 -1.92109 0
M  V30 8702 C 811.283 -5.21686 0.253213 0
M  V30 8703 H 812.977 -2.96408 0.422237 0
M  V30 8704 H 810.523 -1.4254 0.204505 0
M  V30 8705 H 812.476 -3.77315 -1.87646 0
M  V30 8706 H 811.2 -2.54263 -2.04983 0
M  V30 8707 H 809.859 -3.65861 -0.232637 0
M  V30 8708 H 809.507 -4.28951 -2.62698 0
M  V30 8709 H 809.207 -5.67011 -1.54182 0
M  V30 8710 H 810.731 -5.584 -2.47026 0
M  V30 8711 H 812.145 -5.72939 -0.203483 0
M  V30 8712 H 810.542 -5.9759 0.548322 0
M  V30 8713 H 811.612 -4.70596 1.16909 0
M  V30 8714 N 812.955 -0.234822 -1.55841 0
M  V30 8715 C 814.366 0.270588 -1.84729 0
M  V30 8716 C 814.717 1.58494 -1.15646 0
M  V30 8717 O 813.842 2.12071 -0.430667 0
M  V30 8718 C 814.437 0.497733 -3.35124 0
M  V30 8719 C 812.996 0.947428 -3.64281 0
M  V30 8720 C 812.143 0.01787 -2.77294 0
M  V30 8721 H 815.094 -0.457691 -1.51957 0
M  V30 8722 H 815.115 1.34199 -3.56049 0
M  V30 8723 H 814.627 -0.459037 -3.85376 0
M  V30 8724 H 812.728 1.91709 -3.19497 0
M  V30 8725 H 812.841 0.812651 -4.72158 0
M  V30 8726 H 811.205 0.527071 -2.49187 0
M  V30 8727 H 811.988 -0.934056 -3.30349 0
M  V30 8728 N 814.433 1.57553 0.0384317 0
M  V30 8729 C 815.849 1.54663 0.39391 0
M  V30 8730 C 816.049 0.959685 1.77179 0
M  V30 8731 O 815.105 0.576647 2.45827 0
M  V30 8732 C 816.418 2.99156 0.304352 0
M  V30 8733 C 817.966 3.10659 0.382119 0
M  V30 8734 C 818.441 4.56866 0.322111 0
M  V30 8735 N 819.932 4.61629 0.38119 0
M  V30 8736 C 820.667 5.72284 0.357501 0
M  V30 8737 N 820.163 6.92207 0.286654 0
M  V30 8738 N 821.956 5.60628 0.406538 0
M  V30 8739 H 814.107 1.9406 -0.86339 0
M  V30 8740 H 816.37 0.889673 -0.327392 0
M  V30 8741 H 816.076 3.45788 -0.642141 0
M  V30 8742 H 815.95 3.60753 1.10168 0
M  V30 8743 H 818.337 2.6398 1.31904 0
M  V30 8744 H 818.418 2.5191 -0.444391 0
M  V30 8745 H 818.062 5.0421 -0.611104 0
M  V30 8746 H 817.992 5.13515 1.1666 0
M  V30 8747 H 820.483 3.75343 0.438838 0
M  V30 8748 H 820.796 7.72316 0.273421 0
M  V30 8749 H 819.141 6.9454 0.252841 0
M  V30 8750 H 822.332 4.65836 0.459812 0
M  V30 8751 H 822.505 6.46858 0.384608 0
M  V30 8752 N 815.911 -0.310526 1.54511 0
M  V30 8753 C 817.139 -1.06611 1.77318 0
M  V30 8754 C 817.554 -1.81265 0.528043 0
M  V30 8755 O 816.911 -1.75466 -0.50178 0
M  V30 8756 C 816.962 -2.05409 2.97472 0
M  V30 8757 O 816.683 -1.33785 4.17173 0
M  V30 8758 C 818.184 -2.93082 3.32593 0
M  V30 8759 H 815.404 -0.316578 0.591624 0
M  V30 8760 H 817.948 -0.352691 2.01436 0
M  V30 8761 H 816.103 -2.72266 2.7559 0
M  V30 8762 H 816.517 -2.00055 4.84849 0
M  V30 8763 H 817.991 -3.58274 4.19933 0
M  V30 8764 H 818.468 -3.60877 2.50329 0
M  V30 8765 H 819.074 -2.31768 3.566 0
M  V30 8766 N 817.389 -1.46805 -0.573248 0
M  V30 8767 C 818.319 -1.60951 -1.69165 0
M  V30 8768 C 819.3 -0.45948 -1.63777 0
M  V30 8769 O 820.485 -0.68688 -1.81647 0
M  V30 8770 C 817.615 -1.60844 -3.07809 0
M  V30 8771 C 816.569 -2.74913 -3.28035 0
M  V30 8772 C 815.895 -2.59871 -4.67302 0
M  V30 8773 C 817.195 -4.16654 -3.14955 0
M  V30 8774 H 818.889 -2.54574 -1.57582 0
M  V30 8775 H 816.435 -1.22516 -0.756686 0
M  V30 8776 H 818.388 -1.69334 -3.85881 0
M  V30 8777 H 817.112 -0.637714 -3.20314 0
M  V30 8778 H 815.771 -2.65908 -2.52366 0
M  V30 8779 H 815.419 -1.60861 -4.76585 0
M  V30 8780 H 815.119 -3.36386 -4.81786 0
M  V30 8781 H 816.643 -2.70265 -5.4753 0
M  V30 8782 H 818.057 -4.26721 -3.82861 0
M  V30 8783 H 816.454 -4.93831 -3.40956 0
M  V30 8784 H 817.524 -4.36146 -2.11908 0
M  V30 8785 N 818.867 0.818669 -1.34668 0
M  V30 8786 C 820.144 1.56118 -1.17841 0
M  V30 8787 C 820.524 2.09646 0.24731 0
M  V30 8788 O 819.872 1.91329 1.24922 0
M  V30 8789 C 820.082 2.67922 -2.23649 0
M  V30 8790 C 821.43 3.36579 -2.58843 0
M  V30 8791 O 822.454 2.78182 -2.22471 0
M  V30 8792 O 821.313 4.42045 -3.21339 0
M  V30 8793 H 818.407 0.689216 -0.457067 0
M  V30 8794 H 820.953 0.859674 -1.46314 0
M  V30 8795 H 819.725 2.26153 -3.19328 0
M  V30 8796 H 819.348 3.45719 -1.96377 0
M  V30 8797 N 820.346 1.18468 1.03938 0
M  V30 8798 C 821.593 0.980833 1.77161 0
M  V30 8799 C 821.921 -0.489425 1.88242 0
M  V30 8800 O 821.176 -1.37961 1.388 0
M  V30 8801 C 821.475 1.58229 3.20466 0
M  V30 8802 C 821.141 3.07889 3.29416 0
M  V30 8803 C 819.803 3.48737 3.31566 0
M  V30 8804 C 822.155 4.03903 3.29411 0
M  V30 8805 C 819.483 4.84171 3.31355 0
M  V30 8806 C 821.835 5.39253 3.3074 0
M  V30 8807 C 820.499 5.79547 3.31182 0
M  V30 8808 H 819.769 0.358912 0.648277 0
M  V30 8809 H 822.416 1.47552 1.22069 0
M  V30 8810 H 820.721 1.00964 3.78568 0
M  V30 8811 H 822.418 1.39998 3.75768 0
M  V30 8812 H 819.008 2.75335 3.28464 0
M  V30 8813 H 823.192 3.73395 3.2694 0
M  V30 8814 H 818.448 5.14685 3.30015 0
M  V30 8815 H 822.622 6.13417 3.29686 0
M  V30 8816 H 820.249 6.84466 3.30772 0
M  V30 8817 N 821.824 -1.22873 0.986916 0
M  V30 8818 C 823.072 -1.91084 0.658121 0
M  V30 8819 C 823.393 -1.77304 -0.811675 0
M  V30 8820 O 822.663 -1.15649 -1.58121 0
M  V30 8821 H 821.243 -0.707251 0.240427 0
M  V30 8822 H 823.905 -1.49357 1.25213 0
M  V30 8823 H 823.001 -2.98373 0.915428 0
M  V30 8824 N 823.302 -0.75937 -1.38099 0
M  V30 8825 C 824.232 -0.151077 -2.33011 0
M  V30 8826 C 825.213 0.697099 -1.5516 0
M  V30 8827 O 826.398 0.637101 -1.83452 0
M  V30 8828 C 823.528 0.738423 -3.39359 0
M  V30 8829 C 822.482 -0.0074741 -4.27999 0
M  V30 8830 C 821.808 1.00066 -5.25253 0
M  V30 8831 C 823.108 -1.17926 -5.08813 0
M  V30 8832 H 824.802 -0.943933 -2.84131 0
M  V30 8833 H 822.348 -0.455362 -1.36611 0
M  V30 8834 H 824.301 1.17369 -4.04725 0
M  V30 8835 H 823.025 1.56366 -2.86735 0
M  V30 8836 H 821.684 -0.423379 -3.64147 0
M  V30 8837 H 821.332 1.82012 -4.68914 0
M  V30 8838 H 821.032 0.506199 -5.85416 0
M  V30 8839 H 822.556 1.43512 -5.93495 0
M  V30 8840 H 823.97 -0.821262 -5.67387 0
M  V30 8841 H 822.367 -1.60497 -5.78239 0
M  V30 8842 H 823.437 -1.98938 -4.42212 0
M  V30 8843 N 824.78 1.49157 -0.508906 0
M  V30 8844 C 825.728 2.30922 0.278906 0
M  V30 8845 C 826.722 1.39889 0.955382 0
M  V30 8846 O 827.928 1.56901 0.882169 0
M  V30 8847 H 824.303 0.744087 0.108805 0
M  V30 8848 H 826.274 2.95277 -0.430583 0
M  V30 8849 C 825.023 3.21432 1.32576 0
M  V30 8850 H 824.346 3.91413 0.814634 0
M  V30 8851 H 825.786 3.81568 1.84882 0
M  V30 8852 C 824.245 2.41583 2.34817 0
M  V30 8853 O 824.775 2.1256 3.40854 0
M  V30 8854 N 822.981 2.03462 2.07489 0
M  V30 8855 H 822.528 2.27265 1.21278 0
M  V30 8856 H 822.486 1.50345 2.76123 0
M  V30 8857 N 826.258 0.243083 1.55714 0
M  V30 8858 C 827.504 -0.383287 1.99145 0
M  V30 8859 C 827.837 -1.57868 1.13098 0
M  V30 8860 O 827.112 -1.93535 0.193509 0
M  V30 8861 C 827.395 -0.796879 3.51172 0
M  V30 8862 C 827.248 0.403642 4.47985 0
M  V30 8863 C 828.567 -1.64525 4.08191 0
M  V30 8864 H 825.686 -0.137843 0.723995 0
M  V30 8865 H 828.328 0.343631 1.86867 0
M  V30 8866 H 826.478 -1.41625 3.61766 0
M  V30 8867 H 828.15 1.04204 4.49376 0
M  V30 8868 H 826.393 1.04741 4.20965 0
M  V30 8869 H 827.064 0.0709794 5.51954 0
M  V30 8870 H 829.54 -1.12246 4.00674 0
M  V30 8871 H 828.416 -1.9035 5.14838 0
M  V30 8872 H 828.677 -2.61582 3.56409 0
M  V30 8873 N 827.736 -1.57571 -0.0300757 0
M  V30 8874 C 828.683 -2.06492 -1.03101 0
M  V30 8875 C 829.653 -0.953862 -1.3598 0
M  V30 8876 O 830.838 -1.22436 -1.46335 0
M  V30 8877 C 827.978 -2.54826 -2.32718 0
M  V30 8878 C 827.091 -3.79718 -2.06006 0
M  V30 8879 C 826.226 -4.16668 -3.29487 0
M  V30 8880 C 825.265 -5.3448 -2.98324 0
M  V30 8881 N 824.402 -5.66867 -4.14254 0
M  V30 8882 H 829.242 -2.91755 -0.606877 0
M  V30 8883 H 826.779 -1.44252 -0.288038 0
M  V30 8884 H 828.737 -2.80916 -3.08451 0
M  V30 8885 H 827.367 -1.72481 -2.72856 0
M  V30 8886 H 826.419 -3.60718 -1.20774 0
M  V30 8887 H 827.731 -4.65569 -1.79017 0
M  V30 8888 H 826.885 -4.43881 -4.13588 0
M  V30 8889 H 825.624 -3.29466 -3.59588 0
M  V30 8890 H 824.629 -5.07021 -2.12625 0
M  V30 8891 H 825.854 -6.23334 -2.69502 0
M  V30 8892 H 823.8 -4.82625 -4.44308 0
M  V30 8893 H 823.717 -6.47226 -3.90685 0
M  V30 8894 H 824.985 -5.98656 -4.99231 0
M  V30 8895 N 829.214 0.302327 -1.54673 0
M  V30 8896 C 830.144 1.37759 -1.88533 0
M  V30 8897 C 831.125 1.52961 -0.744113 0
M  V30 8898 O 832.31 1.6649 -0.999731 0
M  V30 8899 C 829.44 2.74201 -2.13146 0
M  V30 8900 C 828.394 2.73765 -3.28993 0
M  V30 8901 C 827.72 4.13483 -3.39022 0
M  V30 8902 C 829.02 2.35624 -4.66132 0
M  V30 8903 H 830.714 1.0967 -2.78591 0
M  V30 8904 H 828.26 0.52613 -1.34044 0
M  V30 8905 H 830.213 3.49508 -2.35419 0
M  V30 8906 H 828.937 3.03812 -1.19858 0
M  V30 8907 H 827.596 2.00914 -3.06642 0
M  V30 8908 H 827.244 4.40269 -2.43253 0
M  V30 8909 H 826.944 4.14093 -4.16894 0
M  V30 8910 H 828.468 4.90572 -3.63553 0
M  V30 8911 H 829.882 3.00647 -4.88143 0
M  V30 8912 H 828.279 2.47449 -5.46707 0
M  V30 8913 H 829.349 1.30753 -4.66939 0
M  V30 8914 N 830.692 1.47107 0.565454 0
M  V30 8915 C 831.939 1.53308 1.32299 0
M  V30 8916 C 832.267 0.1919 1.93551 0
M  V30 8917 O 831.522 -0.81435 1.77952 0
M  V30 8918 C 831.821 2.59309 2.45954 0
M  V30 8919 C 831.487 4.02827 2.02586 0
M  V30 8920 C 830.149 4.41897 1.90474 0
M  V30 8921 C 832.501 4.92913 1.6937 0
M  V30 8922 C 829.829 5.68898 1.4343 0
M  V30 8923 C 832.181 6.20368 1.238 0
M  V30 8924 C 830.845 6.58327 1.10278 0
M  V30 8925 H 830.115 0.560993 0.484116 0
M  V30 8926 H 832.762 1.80667 0.634965 0
M  V30 8927 H 831.067 2.25676 3.20277 0
M  V30 8928 H 832.764 2.61332 3.04149 0
M  V30 8929 H 829.354 3.71953 2.12952 0
M  V30 8930 H 833.538 4.63433 1.77605 0
M  V30 8931 H 828.794 5.97065 1.31618 0
M  V30 8932 H 832.968 6.89589 0.971586 0
M  V30 8933 H 830.595 7.56628 0.736027 0
M  V30 8934 N 832.17 -0.811516 1.35101 0
M  V30 8935 C 833.416 -1.57016 1.29296 0
M  V30 8936 C 833.771 -1.91941 -0.13288 0
M  V30 8937 O 833.064 -1.58121 -1.08204 0
M  V30 8938 C 833.258 -2.87121 2.1283 0
M  V30 8939 C 833.087 -2.64908 3.63392 0
M  V30 8940 C 831.857 -2.61055 4.32641 0
M  V30 8941 C 834.055 -2.35628 4.57148 0
M  V30 8942 N 832.037 -2.30508 5.68981 0
M  V30 8943 C 833.408 -2.14876 5.81574 0
M  V30 8944 C 835.463 -2.2145 4.45942 0
M  V30 8945 C 834.166 -1.81381 6.96055 0
M  V30 8946 C 836.192 -1.89352 5.60267 0
M  V30 8947 C 835.554 -1.69432 6.83719 0
M  V30 8948 H 831.653 -0.57649 0.528378 0
M  V30 8949 H 834.237 -0.950338 1.69931 0
M  V30 8950 H 832.408 -3.47007 1.74473 0
M  V30 8951 H 834.14 -3.52629 1.98582 0
M  V30 8952 H 830.895 -2.75531 3.85201 0
M  V30 8953 H 831.319 -2.18042 6.40927 0
M  V30 8954 H 835.961 -2.35551 3.51106 0
M  V30 8955 H 833.679 -1.66018 7.90863 0
M  V30 8956 H 837.265 -1.79098 5.53548 0
M  V30 8957 H 836.145 -1.44957 7.70686 0
M  V30 8958 N 833.648 -1.19017 -1.03309 0
M  V30 8959 C 834.558 -0.939303 -2.14975 0
M  V30 8960 C 835.574 0.0992359 -1.73717 0
M  V30 8961 O 836.75 -0.0844362 -2.01223 0
M  V30 8962 C 833.815 -0.476712 -3.43407 0
M  V30 8963 C 832.876 -1.58413 -3.99003 0
M  V30 8964 C 832.109 -1.14352 -5.21305 0
M  V30 8965 O 832.332 -0.00534408 -5.704 0
M  V30 8966 O 831.266 -1.94436 -5.6963 0
M  V30 8967 H 835.092 -1.87386 -2.38998 0
M  V30 8968 H 832.677 -0.972635 -1.13403 0
M  V30 8969 H 834.559 -0.22718 -4.20787 0
M  V30 8970 H 833.234 0.429455 -3.20839 0
M  V30 8971 H 832.141 -1.88777 -3.22977 0
M  V30 8972 H 833.474 -2.4667 -4.25928 0
M  V30 8973 N 835.127 1.22348 -0.993418 0
M  V30 8974 C 836.074 2.24294 -0.544118 0
M  V30 8975 C 837.044 1.60602 0.42381 0
M  V30 8976 O 838.229 1.87952 0.328453 0
M  V30 8977 C 835.369 3.44837 0.134578 0
M  V30 8978 C 834.482 4.23043 -0.875151 0
M  V30 8979 C 833.617 5.30928 -0.169919 0
M  V30 8980 C 832.656 6.00853 -1.16798 0
M  V30 8981 N 831.793 7.00381 -0.491021 0
M  V30 8982 H 836.633 2.6209 -1.4182 0
M  V30 8983 H 834.17 1.2881 -0.710384 0
M  V30 8984 H 836.128 4.13625 0.544998 0
M  V30 8985 H 834.758 3.07804 0.972446 0
M  V30 8986 H 833.81 3.53546 -1.40389 0
M  V30 8987 H 835.122 4.71237 -1.63516 0
M  V30 8988 H 834.276 6.05972 0.297205 0
M  V30 8989 H 833.015 4.8371 0.622586 0
M  V30 8990 H 832.02 5.24591 -1.64573 0
M  V30 8991 H 833.245 6.50159 -1.96137 0
M  V30 8992 H 831.191 6.55393 0.282037 0
M  V30 8993 H 831.108 7.46584 -1.18947 0
M  V30 8994 H 832.376 7.79486 -0.0467169 0
M  V30 8995 N 836.605 0.766683 1.37694 0
M  V30 8996 C 837.852 0.328714 1.99814 0
M  V30 8997 C 838.18 -1.09333 1.60862 0
M  V30 8998 O 837.435 -1.7657 0.8439 0
M  V30 8999 C 837.734 0.413831 3.54996 0
M  V30 9000 C 837.4 1.7934 4.137 0
M  V30 9001 C 836.062 2.17092 4.29447 0
M  V30 9002 C 838.414 2.69776 4.45949 0
M  V30 9003 C 835.742 3.44726 4.74743 0
M  V30 9004 C 838.094 3.96814 4.92667 0
M  V30 9005 C 836.758 4.34618 5.0662 0
M  V30 9006 H 836.028 0.120285 0.731172 0
M  V30 9007 H 838.675 0.97972 1.64541 0
M  V30 9008 H 836.98 -0.320723 3.90485 0
M  V30 9009 H 838.677 0.0563369 4.0096 0
M  V30 9010 H 835.267 1.48997 4.01868 0
M  V30 9011 H 839.451 2.41871 4.33373 0
M  V30 9012 H 834.707 3.73917 4.83731 0
M  V30 9013 H 838.881 4.67022 5.16588 0
M  V30 9014 H 836.508 5.33578 5.41478 0
M  V30 9015 N 838.083 -1.48885 0.516809 0
M  V30 9016 C 839.329 -2.02788 -0.0220928 0
M  V30 9017 C 839.662 -1.39433 -1.35175 0
M  V30 9018 O 838.937 -0.535459 -1.86984 0
M  V30 9019 C 839.22 -3.59753 -0.158012 0
M  V30 9020 C 839.073 -4.33611 1.19588 0
M  V30 9021 C 840.392 -4.30984 -0.891133 0
M  V30 9022 H 837.511 -0.736971 -0.00655488 0
M  V30 9023 H 840.153 -1.77746 0.671287 0
M  V30 9024 H 838.303 -3.8122 -0.748568 0
M  V30 9025 H 839.975 -4.23598 1.82653 0
M  V30 9026 H 838.218 -3.95547 1.78116 0
M  V30 9027 H 838.889 -5.41846 1.05391 0
M  V30 9028 H 841.365 -4.14267 -0.39012 0
M  V30 9029 H 840.241 -5.40527 -0.955107 0
M  V30 9030 H 840.502 -3.97336 -1.93847 0
M  V30 9031 N 839.561 -0.251338 -1.55583 0
M  V30 9032 C 840.972 0.25098 -1.85005 0
M  V30 9033 C 841.323 1.57259 -1.17321 0
M  V30 9034 O 840.448 2.11603 -0.453136 0
M  V30 9035 C 841.043 0.462161 -3.35633 0
M  V30 9036 C 839.602 0.908737 -3.65266 0
M  V30 9037 C 838.749 -0.0115418 -2.77298 0
M  V30 9038 H 841.7 -0.473782 -1.51463 0
M  V30 9039 H 841.721 1.30415 -3.57452 0
M  V30 9040 H 841.233 -0.499886 -3.84867 0
M  V30 9041 H 839.334 1.8831 -3.21512 0
M  V30 9042 H 839.447 0.762526 -4.72993 0
M  V30 9043 H 837.811 0.500612 -2.49732 0
M  V30 9044 H 838.594 -0.969042 -3.29339 0
M  V30 9045 N 841.039 1.57585 0.0217189 0
M  V30 9046 C 842.267 1.93871 0.722619 0
M  V30 9047 C 842.682 0.851706 1.68498 0
M  V30 9048 O 842.039 -0.17127 1.81695 0
M  V30 9049 C 842.09 3.30114 1.47333 0
M  V30 9050 O 841.811 4.34639 0.549597 0
M  V30 9051 C 843.312 3.80727 2.27072 0
M  V30 9052 H 840.532 0.639671 0.202637 0
M  V30 9053 H 843.076 2.04487 -0.0229414 0
M  V30 9054 H 841.231 3.20872 2.17071 0
M  V30 9055 H 841.645 5.13326 1.07686 0
M  V30 9056 H 843.119 4.78547 2.75131 0
M  V30 9057 H 843.596 3.12301 3.08812 0
M  V30 9058 H 844.202 3.93075 1.62395 0
M  V30 9059 N 842.517 -0.29412 1.54831 0
M  V30 9060 C 843.794 -1.04847 1.65126 0
M  V30 9061 C 844.174 -2.04996 0.503986 0
M  V30 9062 O 843.522 -2.22996 -0.498496 0
M  V30 9063 C 843.732 -1.72418 3.03435 0
M  V30 9064 C 845.08 -2.24362 3.60481 0
M  V30 9065 O 846.104 -1.8244 3.05932 0
M  V30 9066 O 844.963 -3.01196 4.56008 0
M  V30 9067 H 842.057 -0.485032 0.669831 0
M  V30 9068 H 844.603 -0.291659 1.67175 0
M  V30 9069 H 843.375 -0.997351 3.78376 0
M  V30 9070 H 842.998 -2.54839 3.05193 0
M  V30 9071 N 843.995 -1.47404 -0.557645 0
M  V30 9072 C 845.235 -1.55585 -1.32562 0
M  V30 9073 C 845.599 -0.212926 -1.90816 0
M  V30 9074 O 846.8 -0.169574 -2.68265 0
M  V30 9075 C 845.071 -2.64249 -2.40639 0
M  V30 9076 S 846.63 -2.9201 -3.2753 0
M  V30 9077 H 843.448 -0.549409 -0.451298 0
M  V30 9078 H 846.05 -1.84782 -0.638438 0
M  V30 9079 H 844.754 -3.60421 -1.96277 0
M  V30 9080 H 844.285 -2.36866 -3.14099 0
M  V30 9081 H 846.3 -2.29191 -4.40098 0
M  V30 9082 N 845.473 0.80434 -1.35529 0
M  V30 9083 C 846.884 1.37849 -1.25915 0
M  V30 9084 C 847.235 1.95905 0.107495 0
M  V30 9085 O 846.36 1.91462 1.00852 0
M  V30 9086 C 846.955 2.50608 -2.27994 0
M  V30 9087 C 845.514 3.03879 -2.22114 0
M  V30 9088 C 844.661 1.76856 -2.13582 0
M  V30 9089 H 847.612 0.607192 -1.46625 0
M  V30 9090 H 847.633 3.29221 -1.90772 0
M  V30 9091 H 847.145 2.08323 -3.27449 0
M  V30 9092 H 845.246 3.50622 -1.26077 0
M  V30 9093 H 845.359 3.61707 -3.14173 0
M  V30 9094 H 843.723 1.98498 -1.59595 0
M  V30 9095 H 844.506 1.36721 -3.14901 0
M  V30 9096 N 846.951 1.19563 1.02676 0
M  V30 9097 C 848.362 1.00158 1.57561 0
M  V30 9098 C 848.713 -0.444922 1.91089 0
M  V30 9099 O 847.838 -1.32466 1.71119 0
M  V30 9100 C 848.433 1.81181 2.86284 0
M  V30 9101 C 846.992 1.66171 3.37734 0
M  V30 9102 C 846.139 1.7975 2.11152 0
M  V30 9103 H 849.09 1.33904 0.85179 0
M  V30 9104 H 849.111 1.30916 3.57269 0
M  V30 9105 H 848.623 2.86454 2.6185 0
M  V30 9106 H 846.724 0.634927 3.6715 0
M  V30 9107 H 846.837 2.46832 4.10622 0
M  V30 9108 H 845.201 1.22833 2.23123 0
M  V30 9109 H 845.984 2.86487 1.89157 0
M  V30 9110 N 848.429 -1.21819 0.999893 0
M  V30 9111 C 849.392 -2.22227 0.561044 0
M  V30 9112 C 850.392 -1.56722 -0.359858 0
M  V30 9113 O 851.582 -1.73546 -0.150848 0
M  V30 9114 C 848.714 -3.40409 -0.182987 0
M  V30 9115 H 849.907 -2.62567 1.44909 0
M  V30 9116 H 847.46 -1.34991 0.78785 0
M  V30 9117 H 848.195 -3.05551 -1.08671 0
M  V30 9118 H 847.98 -3.89171 0.47833 0
M  V30 9119 H 849.47 -4.14856 -0.477952 0
M  V30 9120 N 849.908 -0.773975 -1.37286 0
M  V30 9121 C 851.155 -0.339306 -1.99637 0
M  V30 9122 C 851.483 1.08478 -1.61439 0
M  V30 9123 O 850.738 1.7612 -0.853252 0
M  V30 9124 C 851.037 -0.432651 -3.54772 0
M  V30 9125 C 850.703 -1.81531 -4.12744 0
M  V30 9126 C 849.365 -2.19366 -4.2829 0
M  V30 9127 C 851.717 -2.72137 -4.44512 0
M  V30 9128 C 849.045 -3.47239 -4.72908 0
M  V30 9129 C 851.397 -3.99421 -4.90556 0
M  V30 9130 C 850.061 -4.37298 -5.04308 0
M  V30 9131 H 849.331 -0.124161 -0.730524 0
M  V30 9132 H 851.978 -0.988432 -1.64019 0
M  V30 9133 H 850.283 0.30001 -3.9065 0
M  V30 9134 H 851.98 -0.0776 -4.00925 0
M  V30 9135 H 848.57 -1.51126 -4.01072 0
M  V30 9136 H 852.754 -2.44165 -4.32084 0
M  V30 9137 H 848.01 -3.76477 -4.81742 0
M  V30 9138 H 852.184 -4.69756 -5.14104 0
M  V30 9139 H 849.811 -5.36442 -5.38641 0
M  V30 9140 N 851.386 1.48609 -0.524698 0
M  V30 9141 C 852.633 2.02497 0.0113214 0
M  V30 9142 C 852.961 1.40229 1.34781 0
M  V30 9143 O 852.216 0.53557 1.88229 0
M  V30 9144 C 852.515 3.56906 0.187873 0
M  V30 9145 C 852.181 4.37932 -1.07359 0
M  V30 9146 C 850.843 4.59792 -1.41933 0
M  V30 9147 C 853.195 4.84902 -1.911 0
M  V30 9148 C 850.523 5.25868 -2.60154 0
M  V30 9149 C 852.875 5.52281 -3.08495 0
M  V30 9150 C 851.539 5.7238 -3.4342 0
M  V30 9151 H 850.809 0.740988 0.0041428 0
M  V30 9152 H 853.456 1.78651 -0.689652 0
M  V30 9153 H 851.761 3.79563 0.971572 0
M  V30 9154 H 853.458 3.96218 0.617443 0
M  V30 9155 H 850.048 4.21175 -0.794331 0
M  V30 9156 H 854.232 4.67821 -1.65701 0
M  V30 9157 H 849.488 5.39628 -2.87422 0
M  V30 9158 H 853.662 5.87645 -3.73692 0
M  V30 9159 H 851.289 6.23354 -4.35126 0
M  V30 9160 N 852.864 0.259585 1.55447 0
M  V30 9161 C 854.275 -0.241165 1.85136 0
M  V30 9162 C 854.626 -1.56634 1.18153 0
M  V30 9163 O 853.751 -2.11359 0.464351 0
M  V30 9164 C 854.346 -0.444355 3.35873 0
M  V30 9165 C 852.905 -0.889354 3.65742 0
M  V30 9166 C 852.052 0.0262474 2.77288 0
M  V30 9167 H 855.003 0.481808 1.51209 0
M  V30 9168 H 855.024 -1.28517 3.58139 0
M  V30 9169 H 854.536 0.520289 3.84597 0
M  V30 9170 H 852.637 -1.86602 3.22507 0
M  V30 9171 H 852.75 -0.737432 4.73391 0
M  V30 9172 H 851.114 -0.487361 2.49994 0
M  V30 9173 H 851.897 0.986494 3.28821 0
M  V30 9174 N 854.342 -1.57594 -0.0133615 0
M  V30 9175 C 855.272 -2.10611 -1.00823 0
M  V30 9176 C 856.253 -1.01217 -1.36708 0
M  V30 9177 O 857.438 -1.28827 -1.45318 0
M  V30 9178 C 854.568 -2.59844 -2.30431 0
M  V30 9179 C 853.522 -3.73644 -2.08745 0
M  V30 9180 C 852.848 -4.09141 -3.4425 0
M  V30 9181 C 854.148 -5.01454 -1.46086 0
M  V30 9182 H 855.842 -2.93985 -0.566849 0
M  V30 9183 H 853.388 -1.41423 -0.271219 0
M  V30 9184 H 855.341 -2.95557 -3.00373 0
M  V30 9185 H 854.065 -1.73573 -2.76658 0
M  V30 9186 H 852.724 -3.38303 -1.41232 0
M  V30 9187 H 852.372 -3.19914 -3.88155 0
M  V30 9188 H 852.072 -4.85802 -3.3056 0
M  V30 9189 H 853.596 -4.47402 -4.15528 0
M  V30 9190 H 855.01 -5.35024 -2.05966 0
M  V30 9191 H 853.407 -5.82832 -1.42924 0
M  V30 9192 H 854.477 -4.83003 -0.428471 0
M  V30 9193 N 855.82 0.285905 -1.54985 0
M  V30 9194 C 856.783 1.33625 -1.86218 0
M  V30 9195 C 857.783 1.42971 -0.735936 0
M  V30 9196 O 858.973 1.42345 -1.00417 0
M  V30 9197 C 856.105 2.71926 -2.05595 0
M  V30 9198 H 857.298 1.07167 -2.80099 0
M  V30 9199 H 854.851 0.523335 -1.47278 0
M  V30 9200 H 855.586 3.03583 -1.14053 0
M  V30 9201 H 855.371 2.6653 -2.87583 0
M  V30 9202 H 856.861 3.47841 -2.31077 0
M  V30 9203 N 857.298 1.47698 0.54982 0
M  V30 9204 C 858.261 1.60282 1.63837 0
M  V30 9205 C 859.261 0.477394 1.5355 0
M  V30 9206 O 860.451 0.742665 1.57576 0
M  V30 9207 C 857.583 1.55431 3.03404 0
M  V30 9208 H 858.776 2.57325 1.54026 0
M  V30 9209 H 856.329 1.35999 0.770329 0
M  V30 9210 H 857.064 0.597912 3.1874 0
M  V30 9211 H 856.849 2.37116 3.12279 0
M  V30 9212 H 858.339 1.6739 3.82584 0
M  V30 9213 N 858.776 -0.797141 1.35954 0
M  V30 9214 C 860.025 -1.54983 1.29086 0
M  V30 9215 C 860.338 -1.95167 -0.130003 0
M  V30 9216 O 861.544 -2.69596 -0.32101 0
M  V30 9217 C 860 -2.79738 2.26439 0
M  V30 9218 C 859.608 -2.46753 3.73921 0
M  V30 9219 C 861.352 -3.57733 2.28533 0
M  V30 9220 C 859.259 -3.67858 4.63071 0
M  V30 9221 H 858.189 -0.581766 0.479651 0
M  V30 9222 H 860.84 -0.87541 1.61273 0
M  V30 9223 H 859.222 -3.48939 1.87236 0
M  V30 9224 H 860.396 -1.85499 4.21814 0
M  V30 9225 H 858.711 -1.81985 3.74527 0
M  V30 9226 H 861.308 -4.47699 2.92351 0
M  V30 9227 H 861.651 -3.95754 1.29169 0
M  V30 9228 H 862.184 -2.95504 2.66313 0
M  V30 9229 H 858.923 -3.34939 5.63468 0
M  V30 9230 H 858.443 -4.28305 4.19898 0
M  V30 9231 H 860.122 -4.34977 4.78961 0
M  V30 9232 N 860.254 -1.20106 -1.0204 0
M  V30 9233 C 861.494 -1.02013 -1.77123 0
M  V30 9234 C 861.858 0.440439 -1.8688 0
M  V30 9235 O 863.059 0.74144 -2.58372 0
M  V30 9236 C 861.33 -1.68058 -3.15423 0
M  V30 9237 S 862.889 -1.65016 -4.0659 0
M  V30 9238 H 859.707 -0.365882 -0.609632 0
M  V30 9239 H 862.309 -1.52597 -1.22206 0
M  V30 9240 H 861.013 -2.73544 -3.05944 0
M  V30 9241 H 860.544 -1.17589 -3.75415 0
M  V30 9242 H 862.559 -0.680341 -4.91514 0
M  V30 9243 N 861.732 1.21287 -1.00634 0
M  V30 9244 C 862.972 1.92106 -0.698194 0
M  V30 9245 C 863.336 1.76437 0.757222 0
M  V30 9246 O 864.537 2.41641 1.17741 0
M  V30 9247 C 862.808 3.39748 -1.10932 0
M  V30 9248 S 864.367 4.29013 -0.921586 0
M  V30 9249 H 861.185 0.663755 -0.254853 0
M  V30 9250 H 863.787 1.46772 -1.29145 0
M  V30 9251 H 862.491 3.48669 -2.16467 0
M  V30 9252 H 862.022 3.90101 -0.508419 0
M  V30 9253 H 864.037 4.95871 0.180578 0
M  V30 9254 N 863.21 0.781244 1.36873 0
M  V30 9255 C 864.626 0.461968 1.52768 0
M  V30 9256 C 864.826 -1.02099 1.73719 0
M  V30 9257 O 863.882 -1.80665 1.76399 0
M  V30 9258 C 865.195 1.2853 2.71846 0
M  V30 9259 C 866.743 1.27817 2.85713 0
M  V30 9260 C 867.218 2.08506 4.07786 0
M  V30 9261 N 868.709 2.05909 4.14917 0
M  V30 9262 C 869.444 2.65118 5.08429 0
M  V30 9263 N 868.94 3.33152 6.07438 0
M  V30 9264 N 870.733 2.54896 5.00983 0
M  V30 9265 H 862.884 1.74198 1.21527 0
M  V30 9266 H 865.147 0.740027 0.592506 0
M  V30 9267 H 864.853 2.3366 2.62861 0
M  V30 9268 H 864.727 0.920981 3.65784 0
M  V30 9269 H 867.114 0.234817 2.94164 0
M  V30 9270 H 867.195 1.68219 1.92707 0
M  V30 9271 H 866.839 3.12867 4.00096 0
M  V30 9272 H 866.769 1.65479 4.99924 0
M  V30 9273 H 869.26 1.56386 3.44023 0
M  V30 9274 H 869.573 3.75681 6.75339 0
M  V30 9275 H 867.918 3.37253 6.07689 0
M  V30 9276 H 871.109 2.01352 4.22581 0
M  V30 9277 H 871.282 3.01332 5.73675 0
M  V30 9278 N 864.689 -1.48329 0.532571 0
M  V30 9279 C 865.619 -2.32485 -0.217511 0
M  V30 9280 C 866.6 -1.42255 -0.932598 0
M  V30 9281 O 867.785 -1.7114 -0.917873 0
M  V30 9282 C 864.915 -3.23509 -1.26329 0
M  V30 9283 C 863.869 -4.22784 -0.666191 0
M  V30 9284 C 863.195 -5.0296 -1.81482 0
M  V30 9285 C 864.495 -5.21031 0.363813 0
M  V30 9286 H 866.189 -2.95445 0.485014 0
M  V30 9287 H 863.735 -1.42075 0.234694 0
M  V30 9288 H 865.688 -3.81211 -1.79601 0
M  V30 9289 H 864.412 -2.58554 -1.99543 0
M  V30 9290 H 863.071 -3.66272 -0.15498 0
M  V30 9291 H 862.719 -4.34427 -2.5354 0
M  V30 9292 H 862.419 -5.70154 -1.4212 0
M  V30 9293 H 863.943 -5.63514 -2.35126 0
M  V30 9294 H 865.357 -5.73241 -0.0819079 0
M  V30 9295 H 863.754 -5.96292 0.674956 0
M  V30 9296 H 864.824 -4.6801 1.26865 0
M  V30 9297 N 866.167 -0.267825 -1.55308 0
M  V30 9298 C 867.077 0.633055 -2.25897 0
M  V30 9299 C 868.093 1.17613 -1.28231 0
M  V30 9300 O 869.269 1.20797 -1.61153 0
M  V30 9301 C 866.334 1.80397 -2.96071 0
M  V30 9302 C 865.395 1.29829 -4.09198 0
M  V30 9303 C 864.628 2.4134 -4.76016 0
M  V30 9304 O 864.851 3.60537 -4.42006 0
M  V30 9305 O 863.785 2.09909 -5.64111 0
M  V30 9306 H 867.611 0.0614381 -3.03638 0
M  V30 9307 H 865.196 -0.0355072 -1.49358 0
M  V30 9308 H 867.078 2.48685 -3.40197 0
M  V30 9309 H 865.753 2.36281 -2.21253 0
M  V30 9310 H 864.66 0.582086 -3.69544 0
M  V30 9311 H 865.993 0.785288 -4.85895 0
M  V30 9312 N 867.645 1.57599 0.00500368 0
M  V30 9313 C 869.056 1.78462 0.54848 0
M  V30 9314 C 869.407 0.901869 1.74243 0
M  V30 9315 O 868.532 0.103014 2.16155 0
M  V30 9316 C 869.127 3.2365 1.00179 0
M  V30 9317 C 867.686 3.45627 1.49061 0
M  V30 9318 C 866.833 2.73794 0.439531 0
M  V30 9319 H 869.784 1.57151 -0.22118 0
M  V30 9320 H 869.805 3.31488 1.86805 0
M  V30 9321 H 869.317 3.87873 0.132607 0
M  V30 9322 H 867.418 2.86612 2.38085 0
M  V30 9323 H 867.531 4.54298 1.52152 0
M  V30 9324 H 865.895 2.38267 0.900043 0
M  V30 9325 H 866.678 3.40714 -0.420599 0
M  V30 9326 N 869.123 -0.277682 1.55134 0
M  V30 9327 C 870.033 -1.36524 1.90783 0
M  V30 9328 C 871.049 -1.54283 0.804542 0
M  V30 9329 O 872.225 -1.68499 1.10318 0
M  V30 9330 C 869.29 -2.70524 2.16835 0
M  V30 9331 C 868.351 -2.61552 3.40424 0
M  V30 9332 C 867.584 -3.89162 3.65224 0
M  V30 9333 O 867.807 -4.89624 2.92616 0
M  V30 9334 O 866.741 -3.89647 4.58758 0
M  V30 9335 H 870.567 -1.0929 2.83354 0
M  V30 9336 H 868.152 -0.475799 1.41621 0
M  V30 9337 H 870.034 -3.49765 2.35038 0
M  V30 9338 H 868.709 -2.97555 1.27448 0
M  V30 9339 H 867.616 -1.80704 3.27562 0
M  V30 9340 H 868.949 -2.39472 4.30016 0
M  V30 9341 N 870.601 -1.47988 -0.541979 0
M  V30 9342 C 871.826 -1.59286 -1.32826 0
M  V30 9343 C 872.251 -0.24894 -1.86445 0
M  V30 9344 O 871.609 0.777581 -1.63778 0
M  V30 9345 C 871.657 -2.6334 -2.46343 0
M  V30 9346 O 870.761 -2.19667 -3.49028 0
M  V30 9347 H 870.102 -0.534543 -0.393903 0
M  V30 9348 H 872.632 -1.93885 -0.653427 0
M  V30 9349 H 872.642 -2.84238 -2.92699 0
M  V30 9350 H 871.317 -3.60913 -2.06675 0
M  V30 9351 H 869.894 -2.08932 -3.08872 0
M  V30 9352 N 872.079 0.78992 -1.36375 0
M  V30 9353 C 873.495 1.0879 -1.16777 0
M  V30 9354 C 873.695 2.01498 0.00848236 0
M  V30 9355 O 872.751 2.43338 0.674007 0
M  V30 9356 C 874.064 1.70285 -2.47837 0
M  V30 9357 C 875.612 1.82629 -2.54196 0
M  V30 9358 C 876.087 2.47539 -3.85342 0
M  V30 9359 N 877.578 2.55008 -3.86685 0
M  V30 9360 C 878.313 3.06041 -4.84898 0
M  V30 9361 N 877.809 3.57385 -5.93505 0
M  V30 9362 N 879.602 3.04748 -4.72319 0
M  V30 9363 H 871.753 0.173985 -2.11686 0
M  V30 9364 H 874.016 0.139798 -0.937636 0
M  V30 9365 H 873.722 1.09633 -3.34176 0
M  V30 9366 H 873.596 2.69799 -2.63607 0
M  V30 9367 H 875.983 2.42419 -1.68276 0
M  V30 9368 H 876.064 0.81923 -2.42327 0
M  V30 9369 H 875.708 1.88393 -4.71668 0
M  V30 9370 H 875.638 3.48815 -3.94507 0
M  V30 9371 H 878.129 2.18651 -3.08221 0
M  V30 9372 H 878.442 3.94674 -6.64419 0
M  V30 9373 H 876.787 3.55538 -5.97175 0
M  V30 9374 H 879.978 2.63925 -3.86602 0
M  V30 9375 H 880.151 3.44212 -5.49019 0
M  V30 9376 N 873.557 1.20646 1.01402 0
M  V30 9377 C 874.968 1.01823 1.56489 0
M  V30 9378 C 875.319 -0.42463 1.9155 0
M  V30 9379 O 874.444 -1.30644 1.72514 0
M  V30 9380 C 875.039 1.84208 2.84347 0
M  V30 9381 C 873.598 1.69743 3.35953 0
M  V30 9382 C 872.745 1.8198 2.09233 0
M  V30 9383 H 875.696 1.348 0.837539 0
M  V30 9384 H 875.717 1.34698 3.55861 0
M  V30 9385 H 875.229 2.89215 2.58798 0
M  V30 9386 H 873.33 0.673833 3.66456 0
M  V30 9387 H 873.443 2.51173 4.07981 0
M  V30 9388 H 871.807 1.25193 2.21808 0
M  V30 9389 H 872.59 2.88477 1.86107 0
M  V30 9390 N 875.035 -1.20752 1.01276 0
M  V30 9391 C 875.998 -2.2162 0.584583 0
M  V30 9392 C 876.998 -1.57094 -0.343215 0
M  V30 9393 O 878.188 -1.73696 -0.132433 0
M  V30 9394 C 875.32 -3.40583 -0.146872 0
M  V30 9395 H 876.513 -2.61015 1.47686 0
M  V30 9396 H 874.066 -1.34148 0.802123 0
M  V30 9397 H 874.801 -3.06686 -1.05424 0
M  V30 9398 H 874.586 -3.88642 0.51958 0
M  V30 9399 H 876.076 -4.15339 -0.433924 0
M  V30 9400 N 876.513 -0.788492 -1.36457 0
M  V30 9401 C 877.76 -0.360461 -1.99266 0
M  V30 9402 C 878.088 1.0676 -1.62581 0
M  V30 9403 O 877.343 1.75205 -0.871884 0
M  V30 9404 C 877.642 -0.470255 -3.54293 0
M  V30 9405 C 877.308 -1.85899 -4.10795 0
M  V30 9406 C 875.97 -2.23896 -4.25939 0
M  V30 9407 C 878.322 -2.76836 -4.41601 0
M  V30 9408 C 875.65 -3.52235 -4.69199 0
M  V30 9409 C 878.002 -4.04602 -4.86292 0
M  V30 9410 C 876.666 -4.42623 -4.99641 0
M  V30 9411 H 875.936 -0.131902 -0.729166 0
M  V30 9412 H 878.583 -1.00577 -1.62962 0
M  V30 9413 H 876.888 0.258559 -3.90946 0
M  V30 9414 H 878.585 -0.120119 -4.0082 0
M  V30 9415 H 875.175 -1.55372 -3.99447 0
M  V30 9416 H 879.359 -2.48735 -4.2947 0
M  V30 9417 H 874.615 -3.81565 -4.77722 0
M  V30 9418 H 878.789 -4.75182 -5.09092 0
M  V30 9419 H 876.416 -5.42125 -5.32921 0
M  V30 9420 N 877.991 1.48044 -0.54043 0
M  V30 9421 C 879.216 2.07396 -0.0124765 0
M  V30 9422 C 879.641 1.39288 1.26414 0
M  V30 9423 O 878.999 0.462252 1.75308 0
M  V30 9424 C 879.047 3.60131 0.18377 0
M  V30 9425 O 878.151 3.92995 1.25014 0
M  V30 9426 H 877.492 0.662554 -0.0438026 0
M  V30 9427 H 880.022 1.90306 -0.751327 0
M  V30 9428 H 880.032 4.06003 0.403197 0
M  V30 9429 H 878.707 4.09105 -0.74874 0
M  V30 9430 H 877.284 3.5889 1.01254 0
M  V30 9431 N 879.47 0.276058 1.55163 0
M  V30 9432 C 880.417 -0.611006 2.22565 0
M  V30 9433 C 881.387 -1.14902 1.19945 0
M  V30 9434 O 882.572 -1.19815 1.48489 0
M  V30 9435 C 879.712 -1.78885 2.95117 0
M  V30 9436 C 878.825 -1.2846 4.12458 0
M  V30 9437 C 877.96 -2.42432 4.72652 0
M  V30 9438 C 876.999 -1.89015 5.82185 0
M  V30 9439 N 876.136 -2.96463 6.36439 0
M  V30 9440 H 880.976 -0.0295849 2.97985 0
M  V30 9441 H 878.513 -0.00283607 1.471 0
M  V30 9442 H 880.471 -2.48121 3.35398 0
M  V30 9443 H 879.101 -2.34229 2.22119 0
M  V30 9444 H 878.153 -0.485312 3.77292 0
M  V30 9445 H 879.465 -0.853358 4.91446 0
M  V30 9446 H 878.619 -3.19659 5.15658 0
M  V30 9447 H 877.358 -2.88872 3.92943 0
M  V30 9448 H 876.363 -1.10267 5.38629 0
M  V30 9449 H 877.588 -1.43509 6.63763 0
M  V30 9450 H 875.534 -3.42283 5.59623 0
M  V30 9451 H 875.451 -2.57759 7.10701 0
M  V30 9452 H 876.719 -3.73663 6.84103 0
M  V30 9453 N 880.948 -1.576 0.00335426 0
M  V30 9454 C 881.878 -2.11668 -0.985839 0
M  V30 9455 C 882.859 -1.02661 -1.35627 0
M  V30 9456 O 884.044 -1.30361 -1.43943 0
M  V30 9457 C 881.174 -2.62273 -2.27662 0
M  V30 9458 C 880.128 -3.75837 -2.0477 0
M  V30 9459 C 879.454 -4.12769 -3.39891 0
M  V30 9460 C 880.754 -5.02975 -1.40759 0
M  V30 9461 H 882.448 -2.9457 -0.535637 0
M  V30 9462 H 879.994 -1.41702 -0.256204 0
M  V30 9463 H 881.947 -2.98727 -2.97221 0
M  V30 9464 H 880.671 -1.76498 -2.74802 0
M  V30 9465 H 879.33 -3.39782 -1.37636 0
M  V30 9466 H 878.978 -3.24013 -3.8474 0
M  V30 9467 H 878.678 -4.89281 -3.25389 0
M  V30 9468 H 880.202 -4.51784 -4.1076 0
M  V30 9469 H 881.616 -5.37179 -2.00279 0
M  V30 9470 H 880.013 -5.84315 -1.36734 0
M  V30 9471 H 881.083 -4.83431 -0.377218 0
M  V30 9472 N 882.426 0.269451 -1.5528 0
M  V30 9473 C 883.336 1.35511 -1.91505 0
M  V30 9474 C 884.352 1.53854 -0.812712 0
M  V30 9475 O 885.528 1.67912 -1.1121 0
M  V30 9476 C 882.593 2.6937 -2.18267 0
M  V30 9477 C 881.654 2.59743 -3.41807 0
M  V30 9478 C 880.887 3.87219 -3.67283 0
M  V30 9479 O 881.11 4.88066 -2.95208 0
M  V30 9480 O 880.044 3.87209 -4.60818 0
M  V30 9481 H 883.87 1.07785 -2.8393 0
M  V30 9482 H 881.455 0.468282 -1.41871 0
M  V30 9483 H 883.337 3.48513 -2.36889 0
M  V30 9484 H 882.012 2.96874 -1.29024 0
M  V30 9485 H 880.919 1.78964 -3.28516 0
M  V30 9486 H 882.252 2.37188 -4.3128 0
M  V30 9487 N 883.904 1.48273 0.534124 0
M  V30 9488 C 885.181 1.46567 1.29528 0
M  V30 9489 C 885.561 0.17509 2.10373 0
M  V30 9490 O 884.909 -0.843228 2.12372 0
M  V30 9491 C 885.119 2.72519 2.18023 0
M  V30 9492 C 886.467 3.2068 2.78298 0
M  V30 9493 O 887.491 2.73408 2.28313 0
M  V30 9494 O 886.35 4.02924 3.69208 0
M  V30 9495 H 883.444 0.585151 0.584403 0
M  V30 9496 H 885.99 1.60502 0.551119 0
M  V30 9497 H 884.762 3.57965 1.5804 0
M  V30 9498 H 884.385 2.61285 2.99693 0
M  V30 9499 N 885.382 -0.782676 1.36792 0
M  V30 9500 C 886.607 -1.57676 1.34733 0
M  V30 9501 C 887.032 -1.87979 -0.0675253 0
M  V30 9502 O 886.39 -1.48404 -1.04144 0
M  V30 9503 C 886.438 -2.87047 2.18257 0
M  V30 9504 O 885.542 -3.80946 1.57969 0
M  V30 9505 H 884.883 -0.478034 0.460846 0
M  V30 9506 H 887.413 -0.969578 1.80168 0
M  V30 9507 H 887.423 -3.36254 2.31079 0
M  V30 9508 H 886.098 -2.64319 3.21104 0
M  V30 9509 H 884.675 -3.39558 1.54126 0
M  V30 9510 N 886.86 -1.21182 -1.00761 0
M  V30 9511 C 888.107 -1.02746 -1.74498 0
M  V30 9512 C 888.435 0.439344 -1.89473 0
M  V30 9513 O 887.69 1.34232 -1.42409 0
M  V30 9514 C 887.989 -1.6667 -3.16158 0
M  V30 9515 C 887.655 -3.16515 -3.21137 0
M  V30 9516 C 886.317 -3.57405 -3.22203 0
M  V30 9517 C 888.669 -4.12495 -3.18587 0
M  V30 9518 C 885.997 -4.92786 -3.18401 0
M  V30 9519 C 888.349 -5.47833 -3.16326 0
M  V30 9520 C 887.013 -5.88124 -3.157 0
M  V30 9521 H 886.283 -0.375974 -0.638533 0
M  V30 9522 H 888.93 -1.50736 -1.18114 0
M  V30 9523 H 887.235 -1.10966 -3.75758 0
M  V30 9524 H 888.932 -1.49911 -3.71924 0
M  V30 9525 H 885.522 -2.83947 -3.21048 0
M  V30 9526 H 889.706 -3.81932 -3.16925 0
M  V30 9527 H 884.962 -5.23253 -3.16253 0
M  V30 9528 H 889.136 -6.21942 -3.13306 0
M  V30 9529 H 886.763 -6.92995 -3.12508 0
M  V30 9530 N 888.338 1.20213 -1.01915 0
M  V30 9531 C 889.248 2.26763 -0.601311 0
M  V30 9532 C 890.264 1.70185 0.362369 0
M  V30 9533 O 891.44 2.00165 0.222682 0
M  V30 9534 C 888.505 3.46662 0.0512879 0
M  V30 9535 C 887.566 4.18459 -0.958659 0
M  V30 9536 C 886.799 5.32634 -0.337107 0
M  V30 9537 O 887.022 5.63841 0.86251 0
M  V30 9538 O 885.956 5.9258 -1.05511 0
M  V30 9539 H 889.782 2.64725 -1.48844 0
M  V30 9540 H 887.367 1.2688 -0.788784 0
M  V30 9541 H 889.249 4.19345 0.41564 0
M  V30 9542 H 887.924 3.1057 0.912572 0
M  V30 9543 H 886.831 3.47937 -1.37442 0
M  V30 9544 H 888.164 4.58498 -1.78999 0
M  V30 9545 N 889.816 0.795718 1.36037 0
M  V30 9546 C 890.779 0.204318 2.28287 0
M  V30 9547 C 891.779 -0.602017 1.49105 0
M  V30 9548 O 892.969 -0.422089 1.69009 0
M  V30 9549 C 890.101 -0.716431 3.33287 0
M  V30 9550 H 891.294 1.01781 2.821 0
M  V30 9551 H 888.847 0.565588 1.45708 0
M  V30 9552 H 889.582 -1.55403 2.84641 0
M  V30 9553 H 889.367 -0.140096 3.9185 0
M  V30 9554 H 890.857 -1.12488 4.02164 0
M  V30 9555 N 891.294 -1.47756 0.548274 0
M  V30 9556 C 892.224 -2.32702 -0.19284 0
M  V30 9557 C 893.205 -1.43237 -0.917457 0
M  V30 9558 O 894.39 -1.72103 -0.89967 0
M  V30 9559 C 891.52 -3.24831 -1.22891 0
M  V30 9560 C 890.474 -4.23466 -0.621312 0
M  V30 9561 C 889.8 -5.04856 -1.76137 0
M  V30 9562 C 891.1 -5.20616 0.419055 0
M  V30 9563 H 892.794 -2.94914 0.516323 0
M  V30 9564 H 890.34 -1.41818 0.24975 0
M  V30 9565 H 892.293 -3.83094 -1.75547 0
M  V30 9566 H 891.017 -2.60656 -1.9679 0
M  V30 9567 H 889.676 -3.66416 -0.116123 0
M  V30 9568 H 889.324 -4.37091 -2.48918 0
M  V30 9569 H 889.024 -5.71629 -1.36065 0
M  V30 9570 H 890.548 -5.65976 -2.29136 0
M  V30 9571 H 891.962 -5.73296 -0.0211034 0
M  V30 9572 H 890.359 -5.95543 0.738163 0
M  V30 9573 H 891.429 -4.66638 1.31822 0
M  V30 9574 N 892.772 -0.284283 -1.55015 0
M  V30 9575 C 893.997 0.335799 -2.04664 0
M  V30 9576 C 894.422 1.47999 -1.16094 0
M  V30 9577 O 893.78 1.8058 -0.161454 0
M  V30 9578 C 893.828 0.785615 -3.51938 0
M  V30 9579 O 892.932 1.89202 -3.66437 0
M  V30 9580 H 892.273 0.0680233 -0.660506 0
M  V30 9581 H 894.803 -0.421255 -2.00216 0
M  V30 9582 H 894.813 1.07892 -3.93476 0
M  V30 9583 H 893.488 -0.0514675 -4.15868 0
M  V30 9584 H 892.065 1.60055 -3.36804 0
M  V30 9585 N 894.251 1.57596 -0.0117121 0
M  V30 9586 C 895.181 2.12188 0.9746 0
M  V30 9587 C 896.162 1.03379 1.35081 0
M  V30 9588 O 897.347 1.31123 1.4325 0
M  V30 9589 C 894.477 2.63477 2.26268 0
M  V30 9590 C 893.431 3.76917 2.02774 0
M  V30 9591 C 892.757 4.14566 3.37697 0
M  V30 9592 C 894.057 5.03715 1.38089 0
M  V30 9593 H 895.751 2.9485 0.520007 0
M  V30 9594 H 893.297 1.41836 0.248685 0
M  V30 9595 H 895.25 3.00299 2.95633 0
M  V30 9596 H 893.974 1.77953 2.73862 0
M  V30 9597 H 892.633 3.40507 1.35832 0
M  V30 9598 H 892.281 3.26048 3.83016 0
M  V30 9599 H 891.981 4.91 3.22789 0
M  V30 9600 H 893.505 4.53956 4.08358 0
M  V30 9601 H 894.919 5.38233 1.97428 0
M  V30 9602 H 893.316 5.85032 1.33634 0
M  V30 9603 H 894.386 4.83624 0.351575 0
M  V30 9604 N 895.729 -0.261212 1.5542 0
M  V30 9605 C 896.959 -1.00769 1.80358 0
M  V30 9606 C 897.367 -1.79991 0.583085 0
M  V30 9607 O 896.71 -1.77911 -0.457534 0
M  V30 9608 C 896.772 -2.00463 2.9842 0
M  V30 9609 C 896.436 -1.4007 4.35005 0
M  V30 9610 C 897.433 -0.810388 5.13545 0
M  V30 9611 C 895.118 -1.42436 4.81682 0
M  V30 9612 C 897.112 -0.251784 6.36903 0
M  V30 9613 C 894.799 -0.861897 6.04991 0
M  V30 9614 C 895.797 -0.276622 6.8244 0
M  V30 9615 O 895.485 0.277194 8.03422 0
M  V30 9616 H 895.217 -0.302839 0.604371 0
M  V30 9617 H 897.771 -0.293763 2.03288 0
M  V30 9618 H 896.001 -2.75648 2.71211 0
M  V30 9619 H 897.69 -2.61336 3.10577 0
M  V30 9620 H 898.456 -0.784719 4.7861 0
M  V30 9621 H 894.335 -1.8693 4.214 0
M  V30 9622 H 897.879 0.205678 6.97297 0
M  V30 9623 H 893.776 -0.884846 6.39407 0
M  V30 9624 H 894.544 0.167682 8.18328 0
M  V30 9625 N 897.207 -1.48554 -0.526253 0
M  V30 9626 C 898.137 -1.66252 -1.63959 0
M  V30 9627 C 899.118 -0.511351 -1.62232 0
M  V30 9628 O 900.303 -0.744322 -1.7937 0
M  V30 9629 C 897.433 -1.70556 -3.02536 0
M  V30 9630 C 896.387 -2.8521 -3.19123 0
M  V30 9631 C 895.713 -2.74606 -4.58798 0
M  V30 9632 C 897.013 -4.26463 -3.0154 0
M  V30 9633 H 898.707 -2.59459 -1.49404 0
M  V30 9634 H 896.253 -1.24862 -0.717326 0
M  V30 9635 H 898.206 -1.81524 -3.80298 0
M  V30 9636 H 896.93 -0.739297 -3.18123 0
M  V30 9637 H 895.589 -2.73802 -2.43779 0
M  V30 9638 H 895.237 -1.75941 -4.71226 0
M  V30 9639 H 894.937 -3.51544 -4.70841 0
M  V30 9640 H 896.461 -2.87548 -5.38655 0
M  V30 9641 H 897.875 -4.38685 -3.69091 0
M  V30 9642 H 896.272 -5.04428 -3.25073 0
M  V30 9643 H 897.342 -4.42667 -1.97925 0
M  V30 9644 N 898.685 0.775411 -1.37205 0
M  V30 9645 C 899.933 1.53081 -1.3195 0
M  V30 9646 C 900.254 1.9476 0.0966864 0
M  V30 9647 O 899.524 1.66019 1.03993 0
M  V30 9648 H 898.104 0.567762 -0.485444 0
M  V30 9649 H 900.766 0.92309 -1.71654 0
M  V30 9650 H 899.862 2.4319 -1.95614 0
M  V30 9651 N 900.163 1.21714 1.00117 0
M  V30 9652 C 901.073 0.99597 2.12409 0
M  V30 9653 C 902.089 -0.0531431 1.73919 0
M  V30 9654 O 903.265 0.137757 2.00928 0
M  V30 9655 C 900.33 0.567593 3.42022 0
M  V30 9656 C 899.391 1.68936 3.94663 0
M  V30 9657 C 898.624 1.28133 5.1809 0
M  V30 9658 O 898.847 0.156574 5.70185 0
M  V30 9659 O 897.781 2.0947 5.64275 0
M  V30 9660 H 901.607 1.93657 2.33946 0
M  V30 9661 H 899.192 1.00236 1.10784 0
M  V30 9662 H 901.074 0.338664 4.20037 0
M  V30 9663 H 899.749 -0.34424 3.21864 0
M  V30 9664 H 898.656 1.97274 3.17858 0
M  V30 9665 H 899.989 2.57876 4.19238 0
M  V30 9666 N 901.641 -1.19671 1.02551 0
M  V30 9667 C 902.571 -2.25009 0.623965 0
M  V30 9668 C 903.552 -1.66129 -0.36538 0
M  V30 9669 O 904.737 -1.92599 -0.248842 0
M  V30 9670 C 901.867 -3.47287 -0.0294869 0
M  V30 9671 C 900.821 -4.18818 0.881781 0
M  V30 9672 C 900.147 -5.34618 0.0936189 0
M  V30 9673 C 901.447 -4.73986 2.19396 0
M  V30 9674 H 903.141 -2.58851 1.50454 0
M  V30 9675 H 900.687 -1.24425 0.724872 0
M  V30 9676 H 902.64 -4.20168 -0.322016 0
M  V30 9677 H 901.364 -3.12635 -0.944838 0
M  V30 9678 H 900.023 -3.47815 1.15845 0
M  V30 9679 H 899.671 -4.9621 -0.823661 0
M  V30 9680 H 899.371 -5.83409 0.700568 0
M  V30 9681 H 900.895 -6.10297 -0.192249 0
M  V30 9682 H 902.309 -5.38639 1.96319 0
M  V30 9683 H 900.706 -5.3325 2.75254 0
M  V30 9684 H 901.776 -3.92238 2.85092 0
M  V30 9685 N 903.119 -0.802921 -1.35613 0
M  V30 9686 C 904.367 -0.380822 -1.9848 0
M  V30 9687 C 904.688 1.05464 -1.6402 0
M  V30 9688 O 903.958 1.72908 -0.920854 0
M  V30 9689 H 902.538 -0.137824 -0.734176 0
M  V30 9690 H 905.2 -1.02795 -1.65587 0
M  V30 9691 H 904.296 -0.483565 -3.08331 0
M  V30 9692 N 904.597 1.47463 -0.556102 0
M  V30 9693 C 905.846 2.01678 -0.029492 0
M  V30 9694 C 906.159 1.436 1.32809 0
M  V30 9695 O 907.365 1.89472 1.94455 0
M  V30 9696 C 905.821 3.599 -0.00223937 0
M  V30 9697 C 905.429 4.26969 -1.35651 0
M  V30 9698 C 907.173 4.2187 0.471822 0
M  V30 9699 C 905.08 5.77194 -1.28843 0
M  V30 9700 H 904.01 0.753965 -0.00725504 0
M  V30 9701 H 906.661 1.69467 -0.703789 0
M  V30 9702 H 905.043 3.89068 0.737682 0
M  V30 9703 H 906.217 4.09444 -2.11406 0
M  V30 9704 H 904.532 3.76983 -1.76842 0
M  V30 9705 H 907.129 5.31955 0.541139 0
M  V30 9706 H 907.472 3.88968 1.48356 0
M  V30 9707 H 908.005 3.97228 -0.213207 0
M  V30 9708 H 904.744 6.14713 -2.27613 0
M  V30 9709 H 904.264 5.9706 -0.572668 0
M  V30 9710 H 905.943 6.3938 -0.990031 0
M  V30 9711 N 906.075 0.2925 1.54862 0
M  V30 9712 C 907.486 -0.201841 1.85606 0
M  V30 9713 C 907.837 -1.54093 1.21449 0
M  V30 9714 O 906.962 -2.10327 0.509079 0
M  V30 9715 C 907.557 -0.373011 3.3674 0
M  V30 9716 C 906.116 -0.811574 3.67547 0
M  V30 9717 C 905.263 0.0850583 2.7717 0
M  V30 9718 H 908.214 0.513774 1.50153 0
M  V30 9719 H 908.235 -1.20892 3.60785 0
M  V30 9720 H 907.747 0.601751 3.83407 0
M  V30 9721 H 905.848 -1.79719 3.26392 0
M  V30 9722 H 905.961 -0.636853 4.74848 0
M  V30 9723 H 904.325 -0.434224 2.50971 0
M  V30 9724 H 905.108 1.05602 3.26654 0
M  V30 9725 N 907.553 -1.57587 0.0200696 0
M  V30 9726 C 908.483 -2.12702 -0.963333 0
M  V30 9727 C 909.464 -1.04094 -1.34531 0
M  V30 9728 O 910.649 -1.31881 -1.42552 0
M  V30 9729 C 907.779 -2.64673 -2.24868 0
M  V30 9730 C 906.733 -3.77987 -2.00772 0
M  V30 9731 C 906.059 -4.16351 -3.35494 0
M  V30 9732 C 907.359 -5.0444 -1.35416 0
M  V30 9733 H 909.053 -2.95121 -0.504363 0
M  V30 9734 H 906.599 -1.41966 -0.24116 0
M  V30 9735 H 908.552 -3.01862 -2.94036 0
M  V30 9736 H 907.276 -1.79403 -2.72914 0
M  V30 9737 H 905.935 -3.41223 -1.34025 0
M  V30 9738 H 905.583 -3.28075 -3.81282 0
M  V30 9739 H 905.283 -4.92705 -3.20181 0
M  V30 9740 H 906.807 -4.56115 -4.05945 0
M  V30 9741 H 908.221 -5.39273 -1.94571 0
M  V30 9742 H 906.618 -5.85732 -1.30529 0
M  V30 9743 H 907.688 -4.83803 -0.325923 0
M  V30 9744 N 909.032 0.252966 -1.55557 0
M  V30 9745 C 910.443 0.822503 -1.67606 0
M  V30 9746 C 910.794 1.86265 -0.616411 0
M  V30 9747 O 909.919 2.15082 0.238447 0
M  V30 9748 C 910.514 1.49866 -3.03852 0
M  V30 9749 C 909.073 2.01597 -3.17861 0
M  V30 9750 C 908.22 0.864943 -2.63465 0
M  V30 9751 H 911.171 0.0288958 -1.58674 0
M  V30 9752 H 911.192 2.36646 -2.97958 0
M  V30 9753 H 910.704 0.741378 -3.80953 0
M  V30 9754 H 908.805 2.80224 -2.45571 0
M  V30 9755 H 908.918 2.21752 -4.24692 0
M  V30 9756 H 907.282 1.2638 -2.21134 0
M  V30 9757 H 908.065 0.120847 -3.43087 0
M  V30 9758 N 910.51 1.48831 0.518367 0
M  V30 9759 C 911.473 1.63721 1.604 0
M  V30 9760 C 912.473 0.509857 1.52503 0
M  V30 9761 O 913.663 0.775922 1.55965 0
M  V30 9762 C 910.795 1.61831 3.00039 0
M  V30 9763 H 911.988 2.60534 1.48533 0
M  V30 9764 H 909.541 1.37602 0.741309 0
M  V30 9765 H 910.276 0.665387 3.17401 0
M  V30 9766 H 910.061 2.43686 3.0718 0
M  V30 9767 H 911.551 1.75467 3.78947 0
M  V30 9768 N 911.988 -0.768124 1.37614 0
M  V30 9769 C 912.898 -1.91249 1.35871 0
M  V30 9770 C 913.914 -1.7208 0.257786 0
M  V30 9771 O 915.09 -1.95253 0.493782 0
M  V30 9772 C 912.155 -3.26423 1.16829 0
M  V30 9773 C 911.216 -3.5822 2.36594 0
M  V30 9774 C 910.449 -4.86945 2.1845 0
M  V30 9775 O 910.672 -5.58258 1.17064 0
M  V30 9776 O 909.606 -5.17888 3.06718 0
M  V30 9777 H 913.432 -1.95671 2.32264 0
M  V30 9778 H 911.017 -0.911382 1.18382 0
M  V30 9779 H 912.899 -4.07269 1.08212 0
M  V30 9780 H 911.574 -3.22845 0.235123 0
M  V30 9781 H 910.481 -2.77594 2.50783 0
M  V30 9782 H 911.814 -3.66545 3.2849 0
M  V30 9783 N 913.466 -1.22244 -0.994698 0
M  V30 9784 C 914.396 -1.01513 -2.10279 0
M  V30 9785 C 915.377 0.0633365 -1.69982 0
M  V30 9786 O 916.562 -0.0985268 -1.9395 0
M  V30 9787 C 913.692 -0.59016 -3.42249 0
M  V30 9788 C 912.646 -1.61436 -3.96387 0
M  V30 9789 C 911.972 -1.04528 -5.24383 0
M  V30 9790 C 913.272 -3.00388 -4.27276 0
M  V30 9791 H 914.966 -1.94194 -2.2788 0
M  V30 9792 H 912.512 -0.935094 -1.09508 0
M  V30 9793 H 914.465 -0.432254 -4.19177 0
M  V30 9794 H 913.189 0.372308 -3.24471 0
M  V30 9795 H 911.848 -1.76001 -3.21589 0
M  V30 9796 H 911.496 -0.0742225 -5.02945 0
M  V30 9797 H 911.196 -1.72949 -5.61571 0
M  V30 9798 H 912.72 -0.898922 -6.03947 0
M  V30 9799 H 914.134 -2.89207 -4.95007 0
M  V30 9800 H 912.531 -3.65916 -4.75631 0
M  V30 9801 H 913.601 -3.50456 -3.35125 0
M  V30 9802 N 914.944 1.19125 -1.03184 0
M  V30 9803 C 915.854 2.26112 -0.625329 0
M  V30 9804 C 916.87 1.7056 0.344298 0
M  V30 9805 O 918.046 2.0039 0.20144 0
M  V30 9806 C 915.111 3.46697 0.0145169 0
M  V30 9807 C 914.172 4.17419 -1.00299 0
M  V30 9808 C 913.405 5.32247 -0.393581 0
M  V30 9809 O 913.628 5.64724 0.802659 0
M  V30 9810 O 912.562 5.91428 -1.1179 0
M  V30 9811 H 916.388 2.63131 -1.51643 0
M  V30 9812 H 913.973 1.26036 -0.802197 0
M  V30 9813 H 915.855 4.19762 0.371139 0
M  V30 9814 H 914.53 3.11521 0.879581 0
M  V30 9815 H 913.437 3.4646 -1.41125 0
M  V30 9816 H 914.77 4.56573 -1.83852 0
M  V30 9817 N 916.422 0.810101 1.35185 0
M  V30 9818 C 917.332 0.224565 2.33523 0
M  V30 9819 C 918.348 -0.634287 1.62027 0
M  V30 9820 O 919.524 -0.545211 1.9388 0
M  V30 9821 C 916.589 -0.614319 3.41214 0
M  V30 9822 C 915.65 0.265435 4.28479 0
M  V30 9823 C 914.883 -0.533506 5.31027 0
M  V30 9824 O 915.106 -1.7679 5.42311 0
M  V30 9825 O 914.04 0.0774573 6.0185 0
M  V30 9826 H 917.866 1.03815 2.85405 0
M  V30 9827 H 915.451 0.571964 1.38018 0
M  V30 9828 H 917.333 -1.09201 4.07005 0
M  V30 9829 H 916.008 -1.40545 2.91597 0
M  V30 9830 H 914.915 0.790343 3.65656 0
M  V30 9831 H 916.248 1.0206 4.81503 0
M  V30 9832 N 917.9 -1.47166 0.563914 0
M  V30 9833 C 918.83 -2.32894 -0.168148 0
M  V30 9834 C 919.811 -1.44202 -0.902214 0
M  V30 9835 O 920.996 -1.73048 -0.881365 0
M  V30 9836 C 918.126 -3.26116 -1.19439 0
M  V30 9837 C 917.08 -4.24101 -0.576363 0
M  V30 9838 C 916.406 -5.06696 -1.70772 0
M  V30 9839 C 917.706 -5.20142 0.47425 0
M  V30 9840 H 919.4 -2.9435 0.547573 0
M  V30 9841 H 916.946 -1.41545 0.264778 0
M  V30 9842 H 918.899 -3.84935 -1.71474 0
M  V30 9843 H 917.623 -2.62728 -1.94014 0
M  V30 9844 H 916.282 -3.66519 -0.0772534 0
M  V30 9845 H 915.93 -4.39707 -2.44268 0
M  V30 9846 H 915.63 -5.7304 -1.29994 0
M  V30 9847 H 917.154 -5.68375 -2.2312 0
M  V30 9848 H 918.568 -5.73286 0.0397035 0
M  V30 9849 H 916.965 -5.94726 0.801287 0
M  V30 9850 H 918.035 -4.65214 1.36764 0
M  V30 9851 N 919.378 -0.300708 -1.54705 0
M  V30 9852 C 920.655 0.361757 -1.92226 0
M  V30 9853 C 921.035 1.71714 -1.2279 0
M  V30 9854 O 920.383 2.2559 -0.363542 0
M  V30 9855 C 920.593 0.476699 -3.45729 0
M  V30 9856 C 921.941 0.7477 -4.17965 0
M  V30 9857 O 922.965 0.560521 -3.51762 0
M  V30 9858 O 921.824 1.10724 -5.35166 0
M  V30 9859 H 918.918 0.202213 -0.801897 0
M  V30 9860 H 921.464 -0.348746 -1.66078 0
M  V30 9861 H 920.236 -0.476132 -3.88392 0
M  V30 9862 H 919.859 1.23568 -3.77911 0
M  V30 9863 N 920.856 1.57574 -0.0284266 0
M  V30 9864 C 921.806 2.06674 0.962804 0
M  V30 9865 C 922.79 0.967115 1.28591 0
M  V30 9866 O 923.982 1.23068 1.27214 0
M  V30 9867 C 921.111 2.59682 2.24545 0
M  V30 9868 C 920.197 3.76573 1.95073 0
M  V30 9869 N 920.588 4.8721 1.35869 0
M  V30 9870 C 918.886 3.85046 2.25068 0
M  V30 9871 C 919.587 5.68436 1.23514 0
M  V30 9872 N 918.563 5.15323 1.73041 0
M  V30 9873 H 922.365 2.89615 0.500013 0
M  V30 9874 H 919.879 1.61437 0.176604 0
M  V30 9875 H 921.876 2.93148 2.96428 0
M  V30 9876 H 920.536 1.7817 2.71451 0
M  V30 9877 H 921.547 5.07477 1.03379 0
M  V30 9878 H 918.224 3.14439 2.74653 0
M  V30 9879 H 919.614 6.67387 0.777403 0
M  V30 9880 N 922.334 -0.244713 1.55689 0
M  V30 9881 C 923.562 -0.989944 1.8168 0
M  V30 9882 C 923.977 -1.78863 0.604449 0
M  V30 9883 O 923.334 -1.77437 -0.426907 0
M  V30 9884 C 923.385 -1.92607 3.05916 0
M  V30 9885 O 923.106 -1.1597 4.22472 0
M  V30 9886 C 924.607 -2.78711 3.44724 0
M  V30 9887 H 921.827 -0.2912 0.604519 0
M  V30 9888 H 924.371 -0.266938 2.0275 0
M  V30 9889 H 922.526 -2.60333 2.8689 0
M  V30 9890 H 922.94 -1.79311 4.92898 0
M  V30 9891 H 924.414 -3.40141 4.34751 0
M  V30 9892 H 924.891 -3.49935 2.6541 0
M  V30 9893 H 925.497 -2.16435 3.66109 0
M  V30 9894 N 923.813 -1.49104 -0.510467 0
M  V30 9895 C 925.059 -1.58346 -1.26705 0
M  V30 9896 C 925.392 -0.265121 -1.92382 0
M  V30 9897 O 924.667 0.730558 -1.80258 0
M  V30 9898 C 924.95 -2.7359 -2.34137 0
M  V30 9899 C 924.803 -4.1519 -1.73024 0
M  V30 9900 C 926.122 -2.84511 -3.3577 0
M  V30 9901 H 923.241 -0.57637 -0.459311 0
M  V30 9902 H 925.883 -1.81353 -0.566658 0
M  V30 9903 H 924.033 -2.54105 -2.93876 0
M  V30 9904 H 925.705 -4.46167 -1.17186 0
M  V30 9905 H 923.948 -4.21279 -1.03473 0
M  V30 9906 H 924.619 -4.91683 -2.50903 0
M  V30 9907 H 927.095 -3.0222 -2.86011 0
M  V30 9908 H 925.971 -3.6684 -4.08313 0
M  V30 9909 H 926.232 -1.93471 -3.97519 0
M  V30 9910 N 925.291 0.760815 -1.38019 0
M  V30 9911 C 926.516 1.55513 -1.37224 0
M  V30 9912 C 926.941 1.88062 0.037611 0
M  V30 9913 O 926.299 1.50042 1.0177 0
M  V30 9914 C 926.347 2.83539 -2.22796 0
M  V30 9915 O 925.451 3.78384 -1.64009 0
M  V30 9916 H 924.792 0.470642 -0.468393 0
M  V30 9917 H 927.322 0.940792 -1.81687 0
M  V30 9918 H 927.332 3.32535 -2.36399 0
M  V30 9919 H 926.007 2.59178 -3.25269 0
M  V30 9920 H 924.584 3.37063 -1.59508 0
M  V30 9921 N 926.769 1.22769 0.988202 0
M  V30 9922 C 927.702 0.945196 2.07705 0
M  V30 9923 C 928.68 -0.11363 1.62202 0
M  V30 9924 O 929.864 0.0189624 1.8849 0
M  V30 9925 C 926.991 0.422474 3.36055 0
M  V30 9926 C 926.037 1.4667 4.00487 0
M  V30 9927 S 926.87 3.04158 4.40736 0
M  V30 9928 C 928.026 2.53536 5.7225 0
M  V30 9929 H 928.259 1.86723 2.31348 0
M  V30 9930 H 925.792 1.05928 1.12333 0
M  V30 9931 H 927.75 0.12748 4.10302 0
M  V30 9932 H 926.411 -0.478515 3.10434 0
M  V30 9933 H 925.604 1.05093 4.92921 0
M  V30 9934 H 925.206 1.71064 3.32585 0
M  V30 9935 H 927.498 1.95069 6.4881 0
M  V30 9936 H 928.441 3.44479 6.1866 0
M  V30 9937 H 928.849 1.94658 5.29876 0
M  V30 9938 N 928.247 -1.18576 1.03814 0
M  V30 9939 C 929.179 -2.21607 0.585055 0
M  V30 9940 C 930.192 -1.59125 -0.343963 0
M  V30 9941 O 931.381 -1.77959 -0.138882 0
M  V30 9942 C 928.481 -3.38495 -0.165602 0
M  V30 9943 C 927.654 -4.30557 0.770662 0
M  V30 9944 C 926.713 -5.26161 0.0637534 0
M  V30 9945 O 925.739 -5.64961 0.693359 0
M  V30 9946 N 926.941 -5.67882 -1.20377 0
M  V30 9947 H 929.706 -2.61104 1.47121 0
M  V30 9948 H 927.267 -1.33336 0.918316 0
M  V30 9949 H 929.259 -3.99474 -0.648292 0
M  V30 9950 H 927.829 -2.97711 -0.953268 0
M  V30 9951 H 927.049 -3.67221 1.43326 0
M  V30 9952 H 928.337 -4.88969 1.40667 0
M  V30 9953 H 927.735 -5.38409 -1.73586 0
M  V30 9954 H 926.292 -6.31069 -1.63079 0
M  V30 9955 N 929.725 -0.817259 -1.34754 0
M  V30 9956 C 930.955 -0.414849 -2.02392 0
M  V30 9957 C 931.363 0.982186 -1.61709 0
M  V30 9958 O 930.706 1.64607 -0.815481 0
M  V30 9959 C 930.768 -0.430981 -3.56907 0
M  V30 9960 C 930.432 -1.78037 -4.20894 0
M  V30 9961 C 931.429 -2.74034 -4.41816 0
M  V30 9962 C 929.114 -2.0673 -4.57786 0
M  V30 9963 C 931.108 -3.96901 -4.98747 0
M  V30 9964 C 928.795 -3.29858 -5.14429 0
M  V30 9965 C 929.793 -4.24761 -5.34853 0
M  V30 9966 O 929.481 -5.45714 -5.90298 0
M  V30 9967 H 929.213 -0.165392 -0.655455 0
M  V30 9968 H 931.767 -1.10524 -1.73129 0
M  V30 9969 H 929.997 0.316074 -3.85406 0
M  V30 9970 H 931.686 -0.0494067 -4.0587 0
M  V30 9971 H 932.452 -2.53161 -4.13684 0
M  V30 9972 H 928.331 -1.33666 -4.41197 0
M  V30 9973 H 931.875 -4.70987 -5.14604 0
M  V30 9974 H 927.772 -3.50597 -5.41989 0
M  V30 9975 H 928.54 -5.47157 -6.08738 0
M  V30 9976 N 931.203 1.46865 -0.571711 0
M  V30 9977 C 932.451 2.0203 -0.0530022 0
M  V30 9978 C 932.772 1.44687 1.30731 0
M  V30 9979 O 932.042 0.627429 1.85581 0
M  V30 9980 H 930.622 0.746815 -0.0166035 0
M  V30 9981 H 933.284 1.80099 -0.745003 0
M  V30 9982 H 932.38 3.12091 0.0242538 0
M  V30 9983 N 932.681 0.308908 1.54543 0
M  V30 9984 C 933.611 -0.556657 2.26768 0
M  V30 9985 C 934.592 -1.13145 1.27013 0
M  V30 9986 O 935.777 -1.15931 1.558 0
M  V30 9987 C 932.907 -1.72481 3.01443 0
M  V30 9988 C 931.861 -1.28001 4.08411 0
M  V30 9989 C 931.187 -2.53395 4.70845 0
M  V30 9990 C 932.487 -0.405497 5.20724 0
M  V30 9991 H 934.181 0.0457618 2.99365 0
M  V30 9992 H 931.727 0.0234495 1.43981 0
M  V30 9993 H 933.68 -2.3365 3.50693 0
M  V30 9994 H 932.404 -2.35359 2.26437 0
M  V30 9995 H 931.063 -0.69133 3.60022 0
M  V30 9996 H 930.711 -3.14604 3.92471 0
M  V30 9997 H 930.411 -2.2433 5.43093 0
M  V30 9998 H 931.935 -3.15352 5.22863 0
M  V30 9999 H 933.349 -0.923076 5.6582 0
M  V30 10000 H 931.746 -0.208282 5.99738 0
M  V30 10001 H 932.816 0.567412 4.81569 0
M  V30 10002 N 934.159 -1.57557 0.0367827 0
M  V30 10003 C 935.387 -1.96419 -0.650168 0
M  V30 10004 C 935.802 -0.913656 -1.6522 0
M  V30 10005 O 935.159 0.103718 -1.82205 0
M  V30 10006 C 935.21 -3.35355 -1.3498 0
M  V30 10007 O 934.931 -4.36379 -0.387905 0
M  V30 10008 C 936.432 -3.88892 -2.12786 0
M  V30 10009 H 933.652 -0.646751 -0.178756 0
M  V30 10010 H 936.196 -2.04261 0.0988197 0
M  V30 10011 H 934.351 -3.28708 -2.05012 0
M  V30 10012 H 934.765 -5.16969 -0.885596 0
M  V30 10013 H 936.239 -4.88428 -2.5718 0
M  V30 10014 H 936.716 -3.23547 -2.97008 0
M  V30 10015 H 937.322 -3.98831 -1.47694 0
M  V30 10016 N 935.637 0.236453 -1.55816 0
M  V30 10017 C 937.053 0.585465 -1.48474 0
M  V30 10018 C 937.253 1.8785 -0.72902 0
M  V30 10019 O 936.309 2.51131 -0.262614 0
M  V30 10020 C 937.622 0.678506 -2.92945 0
M  V30 10021 C 939.17 0.770135 -3.03378 0
M  V30 10022 C 939.645 0.894649 -4.49177 0
M  V30 10023 N 941.136 0.959253 -4.53158 0
M  V30 10024 C 941.871 1.07505 -5.63232 0
M  V30 10025 N 941.367 1.15572 -6.83092 0
M  V30 10026 N 943.16 1.10902 -5.51051 0
M  V30 10027 H 935.311 -0.612241 -2.03385 0
M  V30 10028 H 937.574 -0.212796 -0.923808 0
M  V30 10029 H 937.28 -0.201757 -3.51121 0
M  V30 10030 H 937.154 1.54703 -3.44016 0
M  V30 10031 H 939.541 1.64085 -2.45276 0
M  V30 10032 H 939.622 -0.123753 -2.555 0
M  V30 10033 H 939.266 0.0284537 -5.07892 0
M  V30 10034 H 939.196 1.80373 -4.94745 0
M  V30 10035 H 941.687 0.907827 -3.66834 0
M  V30 10036 H 942 1.24343 -7.62731 0
M  V30 10037 H 940.345 1.12511 -6.85833 0
M  V30 10038 H 943.536 1.04255 -4.56343 0
M  V30 10039 H 943.709 1.19581 -6.36871 0
M  V30 10040 N 937.115 1.49373 0.502552 0
M  V30 10041 C 938.392 1.49282 1.26389 0
M  V30 10042 C 938.772 0.219674 2.09954 0
M  V30 10043 O 938.12 -0.797991 2.14113 0
M  V30 10044 C 938.33 2.77083 2.12194 0
M  V30 10045 C 939.678 3.26511 2.71433 0
M  V30 10046 O 940.702 2.78189 2.22462 0
M  V30 10047 O 939.561 4.10665 3.60578 0
M  V30 10048 H 936.655 0.597415 0.57186 0
M  V30 10049 H 939.201 1.61634 0.516951 0
M  V30 10050 H 937.973 3.61237 1.50411 0
M  V30 10051 H 937.596 2.67583 2.94084 0
M  V30 10052 N 938.594 -0.753485 1.38421 0
M  V30 10053 C 939.819 -1.54783 1.38047 0
M  V30 10054 C 940.244 -1.8808 -0.0276371 0
M  V30 10055 O 939.602 -1.5058 -1.00973 0
M  V30 10056 C 939.65 -2.82353 2.24297 0
M  V30 10057 O 938.754 -3.77509 1.66014 0
M  V30 10058 H 938.095 -0.468151 0.470883 0
M  V30 10059 H 940.625 -0.931144 1.82184 0
M  V30 10060 H 940.635 -3.31277 2.38159 0
M  V30 10061 H 939.31 -2.57449 3.26639 0
M  V30 10062 H 937.887 -3.36212 1.61294 0
M  V30 10063 N 940.072 -1.23292 -0.981677 0
M  V30 10064 C 941.483 -1.05936 -1.53735 0
M  V30 10065 C 941.834 0.373695 -1.92608 0
M  V30 10066 O 940.959 1.26024 -1.75917 0
M  V30 10067 C 941.554 -1.91682 -2.79363 0
M  V30 10068 C 940.113 -1.78591 -3.31334 0
M  V30 10069 C 939.26 -1.87463 -2.04335 0
M  V30 10070 H 942.211 -1.36973 -0.801505 0
M  V30 10071 H 942.232 -1.44085 -3.52164 0
M  V30 10072 H 941.744 -2.95975 -2.51039 0
M  V30 10073 H 939.845 -0.770755 -3.64541 0
M  V30 10074 H 939.958 -2.61902 -4.01179 0
M  V30 10075 H 938.322 -1.3103 -2.18411 0
M  V30 10076 H 939.105 -2.9331 -1.78394 0
M  V30 10077 N 941.55 1.18024 -1.04442 0
M  V30 10078 C 942.961 1.69749 -0.777312 0
M  V30 10079 C 943.312 1.83234 0.701399 0
M  V30 10080 O 942.437 1.51452 1.54568 0
M  V30 10081 C 943.032 3.08321 -1.40441 0
M  V30 10082 C 941.591 3.57243 -1.18553 0
M  V30 10083 C 940.738 2.33695 -1.49271 0
M  V30 10084 H 943.689 1.02647 -1.21035 0
M  V30 10085 H 943.71 3.71787 -0.809628 0
M  V30 10086 H 943.222 2.98474 -2.48062 0
M  V30 10087 H 941.323 3.72379 -0.128221 0
M  V30 10088 H 941.436 4.40451 -1.88519 0
M  V30 10089 H 939.8 2.37792 -0.912526 0
M  V30 10090 H 940.583 2.26464 -2.5801 0
M  V30 10091 O 943.067 0.959562 1.29903 0
M  V30 10092 H 943.758 0.594984 1.84336 0
M  V30 END ATOM
M  V30 BEGIN BOND
M  V30 END BOND
M  V30 END CTAB
M  END
$$$$
