drugbank_target|P53778 Mitogen-activated protein kinase 12 (DB02482; DB04395; DB05157; DB05403)
 OpenBabel12092120243D

  0  0  0     0  0            999 V3000
M  V30 BEGIN CTAB
M  V30 COUNTS 5902 5967 0 0 0
M  V30 BEGIN ATOM
M  V30 1 H -0.908 1.98254 -0.117106 0
M  V30 2 N 0 1.576 0 0
M  V30 3 C 0.933 2.03868 1.02534 0
M  V30 4 C 1.911 0.928543 1.3348 0
M  V30 5 O 3.095 1.19667 1.45644 0
M  V30 6 C 0.222 2.43627 2.35294 0
M  V30 7 C -0.732 3.65373 2.2001 0
M  V30 8 S 0.101 5.13292 1.52614 0
M  V30 9 C 1.257 5.56322 2.86805 0
M  V30 10 H 1.49 2.90518 0.631377 0
M  V30 11 H -0.977 1.52953 0.210867 0
M  V30 12 H 0.981 2.67203 3.11629 0
M  V30 13 H -0.358 1.57376 2.7183 0
M  V30 14 H -1.165 3.90944 3.18086 0
M  V30 15 H -1.563 3.418 1.51819 0
M  V30 16 H 0.729 5.58782 3.83104 0
M  V30 17 H 1.672 6.56266 2.65933 0
M  V30 18 H 2.08 4.83886 2.90714 0
M  V30 19 N 1.4781 -0.272755 1.55222 0
M  V30 20 C 2.7031 -1.02683 1.80197 0
M  V30 21 C 3.1281 -1.79142 0.573551 0
M  V30 22 O 2.4861 -1.74917 -0.476849 0
M  V30 23 C 2.5341 -1.9609 3.02624 0
M  V30 24 O 1.6381 -3.04863 2.77727 0
M  V30 25 H 0.9791 -0.293557 0.595584 0
M  V30 26 H 3.5091 -0.30159 2.02365 0
M  V30 27 H 3.5191 -2.38039 3.31363 0
M  V30 28 H 2.1941 -1.39851 3.91682 0
M  V30 29 H 0.7711 -2.67228 2.60084 0
M  V30 30 N 2.9562 -1.48159 -0.537278 0
M  V30 31 C 4.1812 -1.59707 -1.32319 0
M  V30 32 C 4.6062 -0.254859 -1.86365 0
M  V30 33 O 3.9642 0.772378 -1.64024 0
M  V30 34 C 4.0122 -2.6412 -2.45505 0
M  V30 35 O 3.1162 -2.20774 -3.48328 0
M  V30 36 H 2.4572 -0.535791 -0.392204 0
M  V30 37 H 4.9872 -1.94092 -0.647268 0
M  V30 38 H 4.9972 -2.85166 -2.91795 0
M  V30 39 H 3.6722 -3.61567 -2.05528 0
M  V30 40 H 2.2492 -2.09911 -3.08207 0
M  V30 41 N 4.4343 0.785586 -1.36625 0
M  V30 42 C 5.8453 1.36101 -1.27803 0
M  V30 43 C 6.1963 1.96035 0.0804875 0
M  V30 44 O 5.3213 1.92834 0.982042 0
M  V30 45 C 5.9163 2.47442 -2.31426 0
M  V30 46 C 4.4753 3.00789 -2.26281 0
M  V30 47 C 3.6223 1.73896 -2.15999 0
M  V30 48 H 6.5733 0.586928 -1.47448 0
M  V30 49 H 6.5943 3.2656 -1.95291 0
M  V30 50 H 6.1063 2.03791 -3.30289 0
M  V30 51 H 4.2073 3.48851 -1.30896 0
M  V30 52 H 4.3203 3.57343 -3.19128 0
M  V30 53 H 2.6843 1.9628 -1.62316 0
M  V30 54 H 3.4673 1.32368 -3.16755 0
M  V30 55 N 5.9124 1.20967 1.01018 0
M  V30 56 C 7.3234 1.02319 1.56165 0
M  V30 57 C 7.6744 -0.418546 1.91684 0
M  V30 58 O 6.7994 -1.30096 1.72928 0
M  V30 59 C 7.3944 1.85109 2.8376 0
M  V30 60 C 5.9534 1.70809 3.35412 0
M  V30 61 C 5.1004 1.82643 2.08655 0
M  V30 62 H 8.0514 1.35065 0.833255 0
M  V30 63 H 8.0724 1.35827 3.55431 0
M  V30 64 H 7.5844 2.90035 2.57878 0
M  V30 65 H 5.6854 0.685464 3.66241 0
M  V30 66 H 5.7984 2.52467 4.07182 0
M  V30 67 H 4.1624 1.25896 2.21409 0
M  V30 68 H 4.9454 2.89066 1.85191 0
M  V30 69 N 7.3905 -1.2043 1.01659 0
M  V30 70 C 8.8015 -1.71517 0.737482 0
M  V30 71 C 9.1525 -1.81547 -0.743973 0
M  V30 72 O 8.2775 -1.47803 -1.58061 0
M  V30 73 C 8.8725 -3.11515 1.33206 0
M  V30 74 C 7.4315 -3.59912 1.10183 0
M  V30 75 C 6.5785 -2.37116 1.43776 0
M  V30 76 H 9.5295 -1.05444 1.18606 0
M  V30 77 H 9.5505 -3.73575 0.722636 0
M  V30 78 H 9.0625 -3.04182 2.41028 0
M  V30 79 H 7.1635 -3.72577 0.0412756 0
M  V30 80 H 7.2765 -4.44731 1.78188 0
M  V30 81 H 5.6405 -2.39857 0.856778 0
M  V30 82 H 6.4235 -2.32424 2.52654 0
M  V30 83 N 8.8686 -0.792821 -1.36206 0
M  V30 84 C 9.8316 -0.199459 -2.2833 0
M  V30 85 C 10.8316 0.605189 -1.48977 0
M  V30 86 O 12.0216 0.425685 -1.68919 0
M  V30 87 C 9.1536 0.723523 -3.33134 0
M  V30 88 H 10.3466 -1.01181 -2.82316 0
M  V30 89 H 7.8996 -0.562485 -1.45828 0
M  V30 90 H 8.6346 1.56008 -2.84309 0
M  V30 91 H 8.4196 0.148436 -3.91819 0
M  V30 92 H 9.9096 1.13344 -4.01924 0
M  V30 93 N 10.3467 1.47872 -0.545128 0
M  V30 94 C 11.7627 1.5829 -0.204032 0
M  V30 95 C 11.9627 1.54529 1.29317 0
M  V30 96 O 11.0187 1.44232 2.07252 0
M  V30 97 C 12.3317 2.89304 -0.819987 0
M  V30 98 C 13.8797 3.02864 -0.790105 0
M  V30 99 C 14.3547 4.3656 -1.38491 0
M  V30 100 N 15.8457 4.43165 -1.34755 0
M  V30 101 C 16.5807 5.45153 -1.77753 0
M  V30 102 N 16.0767 6.54016 -2.2855 0
M  V30 103 N 17.8697 5.36125 -1.68897 0
M  V30 104 H 10.0207 1.4856 -1.51802 0
M  V30 105 H 12.2837 0.706305 -0.632327 0
M  V30 106 H 11.9897 2.97757 -1.87173 0
M  V30 107 H 11.8637 3.75957 -0.305915 0
M  V30 108 H 14.2507 2.94014 0.252913 0
M  V30 109 H 14.3317 2.17782 -1.34181 0
M  V30 110 H 13.9757 4.46164 -2.42693 0
M  V30 111 H 13.9057 5.20353 -0.808754 0
M  V30 112 H 16.3967 3.65083 -0.975855 0
M  V30 113 H 16.7097 7.27994 -2.59314 0
M  V30 114 H 15.0547 6.54938 -2.32553 0
M  V30 115 H 18.2457 4.49975 -1.28998 0
M  V30 116 H 18.4187 6.15472 -2.02726 0
M  V30 117 N 11.8248 0.280983 1.55075 0
M  V30 118 C 13.0498 -0.340154 2.04592 0
M  V30 119 C 13.4748 -1.48246 1.15779 0
M  V30 120 O 12.8328 -1.80614 0.15761 0
M  V30 121 C 12.8808 -0.793104 3.5177 0
M  V30 122 O 11.9848 -1.89981 3.66034 0
M  V30 123 H 11.3258 -0.0694289 0.66036 0
M  V30 124 H 13.8558 0.416993 2.00306 0
M  V30 125 H 13.8658 -1.08729 3.93245 0
M  V30 126 H 12.5408 0.0426163 4.15878 0
M  V30 127 H 11.1178 -1.60771 3.36463 0
M  V30 128 N 13.3029 -1.57598 0.00835791 0
M  V30 129 C 14.5509 -1.90551 -0.6734 0
M  V30 130 C 14.8719 -0.883301 -1.73847 0
M  V30 131 O 14.1419 0.0781442 -1.95744 0
M  V30 132 H 12.7219 -0.703312 -0.251717 0
M  V30 133 H 15.3839 -1.94833 0.0512592 0
M  V30 134 H 14.4799 -2.9056 -1.13935 0
M  V30 135 N 14.781 0.264519 -1.55364 0
M  V30 136 C 16.028 0.994986 -1.7637 0
M  V30 137 C 16.356 1.85976 -0.5695 0
M  V30 138 O 15.611 1.90509 0.44776 0
M  V30 139 C 15.91 1.9004 -3.02687 0
M  V30 140 C 15.576 1.19243 -4.34847 0
M  V30 141 C 14.238 0.996709 -4.70764 0
M  V30 142 C 16.59 0.689296 -5.16622 0
M  V30 143 C 13.918 0.285261 -5.86006 0
M  V30 144 C 16.27 -0.00860079 -6.32599 0
M  V30 145 C 14.934 -0.215963 -6.67151 0
M  V30 146 H 14.204 0.364091 -0.645383 0
M  V30 147 H 16.851 0.266543 -1.89636 0
M  V30 148 H 15.156 2.69533 -2.84357 0
M  V30 149 H 16.853 2.46695 -3.16137 0
M  V30 150 H 13.443 1.3549 -4.06621 0
M  V30 151 H 17.627 0.828108 -4.89342 0
M  V30 152 H 12.883 0.113961 -6.11294 0
M  V30 153 H 17.057 -0.406186 -6.95214 0
M  V30 154 H 14.684 -0.769217 -7.56298 0
M  V30 155 N 16.2591 1.48442 0.529413 0
M  V30 156 C 17.4891 1.59919 1.30804 0
M  V30 157 C 17.8971 0.258792 1.87422 0
M  V30 158 O 17.2401 -0.762096 1.67146 0
M  V30 159 C 17.3021 2.58693 2.49636 0
M  V30 160 C 16.9661 4.03745 2.14101 0
M  V30 161 C 17.9631 4.9141 1.6974 0
M  V30 162 C 15.6481 4.49285 2.24607 0
M  V30 163 C 17.6421 6.22645 1.36351 0
M  V30 164 C 15.3291 5.8054 1.9083 0
M  V30 165 C 16.3271 6.67043 1.46773 0
M  V30 166 O 16.0151 7.95856 1.1344 0
M  V30 167 H 15.7471 0.541981 0.404021 0
M  V30 168 H 18.3011 1.95 0.645309 0
M  V30 169 H 16.5311 2.18734 3.18892 0
M  V30 170 H 18.2201 2.59999 3.11698 0
M  V30 171 H 18.9861 4.57465 1.61094 0
M  V30 172 H 14.8651 3.82142 2.57854 0
M  V30 173 H 18.4091 6.90119 1.01891 0
M  V30 174 H 14.3061 6.14022 1.99117 0
M  V30 175 H 15.0741 8.08613 1.26832 0
M  V30 176 N 17.7372 -0.778329 1.37039 0
M  V30 177 C 19.1532 -1.07796 1.17695 0
M  V30 178 C 19.3532 -2.01498 0.00860115 0
M  V30 179 O 18.4092 -2.43901 -0.653352 0
M  V30 180 C 19.7222 -1.68178 2.49272 0
M  V30 181 C 21.2702 -1.80467 2.55735 0
M  V30 182 C 21.7452 -2.44263 3.87427 0
M  V30 183 N 23.2362 -2.51721 3.88833 0
M  V30 184 C 23.9712 -3.01919 4.87476 0
M  V30 185 N 23.4672 -3.5234 5.96513 0
M  V30 186 N 25.2602 -3.00733 4.74885 0
M  V30 187 H 17.4112 -0.156032 2.11826 0
M  V30 188 H 19.6742 -0.131844 0.938787 0
M  V30 189 H 19.3802 -1.06796 3.35093 0
M  V30 190 H 19.2542 -2.67554 2.65885 0
M  V30 191 H 21.6412 -2.40984 1.70325 0
M  V30 192 H 21.7222 -0.798656 2.43013 0
M  V30 193 H 21.3662 -1.84388 4.73248 0
M  V30 194 H 21.2962 -3.45458 3.9745 0
M  V30 195 H 23.7872 -2.1603 3.10063 0
M  V30 196 H 24.1002 -3.89027 6.67741 0
M  V30 197 H 22.4452 -3.50462 6.00168 0
M  V30 198 H 25.6362 -2.60638 3.88826 0
M  V30 199 H 25.8092 -3.39545 5.51918 0
M  V30 200 N 19.2153 -1.21501 -1.00376 0
M  V30 201 C 20.1473 -0.933174 -2.09343 0
M  V30 202 C 21.1603 0.0840896 -1.62583 0
M  V30 203 O 22.3493 -0.148563 -1.77881 0
M  V30 204 C 19.4493 -0.379869 -3.36764 0
M  V30 205 C 18.6223 -1.45176 -4.12605 0
M  V30 206 C 17.6813 -0.907476 -5.18316 0
M  V30 207 O 16.7073 -1.5912 -5.46507 0
M  V30 208 N 17.9093 0.276649 -5.7984 0
M  V30 209 H 20.6743 -1.87124 -2.34104 0
M  V30 210 H 18.2353 -1.12043 -1.16867 0
M  V30 211 H 20.2273 -0.00131488 -4.047 0
M  V30 212 H 18.7973 0.463048 -3.09151 0
M  V30 213 H 18.0173 -2.00411 -3.39454 0
M  V30 214 H 19.3053 -2.17328 -4.6005 0
M  V30 215 H 18.7033 0.849147 -5.59291 0
M  V30 216 H 17.2603 0.596702 -6.49063 0
M  V30 217 N 20.6934 1.19889 -1.02296 0
M  V30 218 C 21.6034 2.26571 -0.608508 0
M  V30 219 C 22.6194 1.70299 0.356964 0
M  V30 220 O 23.7954 2.00235 0.216326 0
M  V30 221 C 20.8604 3.46677 0.0402814 0
M  V30 222 C 19.9214 4.18153 -0.97194 0
M  V30 223 C 19.1544 5.32525 -0.354016 0
M  V30 224 O 19.3774 5.64112 0.844604 0
M  V30 225 O 18.3114 5.92242 -1.07391 0
M  V30 226 H 22.1374 2.64251 -1.49684 0
M  V30 227 H 19.7224 1.26629 -0.792809 0
M  V30 228 H 21.6044 4.19475 0.402324 0
M  V30 229 H 20.2794 3.10858 0.902707 0
M  V30 230 H 19.1864 3.47499 -1.38546 0
M  V30 231 H 20.5194 4.57927 -1.80454 0
M  V30 232 N 22.1715 0.800033 1.35784 0
M  V30 233 C 23.4175 0.377901 1.99248 0
M  V30 234 C 23.7505 -1.05052 1.63333 0
M  V30 235 O 23.0255 -1.72768 0.893385 0
M  V30 236 C 23.3085 0.553922 3.55814 0
M  V30 237 C 23.1615 2.0268 4.01548 0
M  V30 238 C 24.4805 -0.0244802 4.40093 0
M  V30 239 H 21.5995 0.138782 0.723815 0
M  V30 240 H 24.2415 1.00835 1.61035 0
M  V30 241 H 22.3915 0.0172398 3.88496 0
M  V30 242 H 24.0635 2.62536 3.79305 0
M  V30 243 H 22.3065 2.5256 3.52698 0
M  V30 244 H 22.9775 2.10087 5.10458 0
M  V30 245 H 25.4535 0.433775 4.13833 0
M  V30 246 H 24.3295 0.128637 5.48749 0
M  V30 247 H 24.5905 -1.11758 4.27741 0
M  V30 248 N 23.6496 -1.47581 0.552962 0
M  V30 249 C 24.8776 -2.06875 0.0320556 0
M  V30 250 C 25.2926 -1.40625 -1.25976 0
M  V30 251 O 24.6496 -0.501349 -1.75479 0
M  V30 252 C 24.7006 -3.61092 -0.17167 0
M  V30 253 O 24.4216 -4.24858 1.06899 0
M  V30 254 C 25.9226 -4.37242 -0.730344 0
M  V30 255 H 23.1426 -0.669561 0.043915 0
M  V30 256 H 25.6866 -1.89646 0.765163 0
M  V30 257 H 23.8416 -3.7785 -0.854894 0
M  V30 258 H 24.2556 -5.17334 0.864059 0
M  V30 259 H 25.7296 -5.45842 -0.822203 0
M  V30 260 H 26.2066 -4.03235 -1.74064 0
M  V30 261 H 26.8126 -4.25219 -0.0829543 0
M  V30 262 N 25.1277 -0.289203 -1.54924 0
M  V30 263 C 26.0747 0.592115 -2.23075 0
M  V30 264 C 27.0447 1.13881 -1.20915 0
M  V30 265 O 28.2297 1.18551 -1.495 0
M  V30 266 C 25.3697 1.76376 -2.96623 0
M  V30 267 C 24.4827 1.24959 -4.13533 0
M  V30 268 C 23.6177 2.38416 -4.74691 0
M  V30 269 C 22.6567 1.84072 -5.83767 0
M  V30 270 N 21.7937 2.91057 -6.38929 0
M  V30 271 H 26.6337 0.00432038 -2.98 0
M  V30 272 H 24.1707 -0.00963529 -1.47097 0
M  V30 273 H 26.1287 2.45268 -3.3749 0
M  V30 274 H 24.7587 2.32337 -2.24097 0
M  V30 275 H 23.8107 0.453307 -3.77689 0
M  V30 276 H 25.1227 0.811662 -4.92152 0
M  V30 277 H 24.2767 3.15276 -5.18349 0
M  V30 278 H 23.0157 2.8553 -3.95378 0
M  V30 279 H 22.0207 1.05697 -5.39545 0
M  V30 280 H 23.2457 1.37877 -6.64956 0
M  V30 281 H 21.1917 3.37526 -5.62505 0
M  V30 282 H 21.1087 2.51724 -7.12861 0
M  V30 283 H 22.3767 3.6785 -6.87246 0
M  V30 284 N 26.6058 1.57591 -0.0167156 0
M  V30 285 C 27.8338 1.95575 0.675128 0
M  V30 286 C 28.2488 0.892542 1.6637 0
M  V30 287 O 27.6058 -0.126912 1.82058 0
M  V30 288 C 27.6568 3.33608 1.39239 0
M  V30 289 O 27.3778 4.3585 0.443444 0
M  V30 290 C 28.8788 3.86151 2.17721 0
M  V30 291 H 26.0988 0.644423 0.186978 0
M  V30 292 H 28.6428 2.0437 -0.0728 0
M  V30 293 H 26.7978 3.2607 2.09182 0
M  V30 294 H 27.2118 5.158 0.951358 0
M  V30 295 H 28.6858 4.85114 2.63379 0
M  V30 296 H 29.1628 3.19738 3.01105 0
M  V30 297 H 29.7688 3.96918 1.52761 0
M  V30 298 N 28.0839 -0.256276 1.55502 0
M  V30 299 C 29.0469 -1.30047 1.88734 0
M  V30 300 C 30.0469 -1.4154 0.763086 0
M  V30 301 O 31.2369 -1.40403 1.03115 0
M  V30 302 C 28.3689 -2.67953 2.10747 0
M  V30 303 H 29.5619 -1.01802 2.82093 0
M  V30 304 H 27.1149 -0.495134 1.4825 0
M  V30 305 H 27.8499 -3.01351 1.19825 0
M  V30 306 H 27.6349 -2.60993 2.92617 0
M  V30 307 H 29.1249 -3.43368 2.37673 0
M  V30 308 N 29.562 -1.4872 -0.521534 0
M  V30 309 C 30.808 -1.58378 -1.27624 0
M  V30 310 C 31.163 -0.258028 -1.90662 0
M  V30 311 O 30.456 0.739917 -1.76736 0
M  V30 312 C 30.65 -2.66497 -2.38148 0
M  V30 313 C 30.479 -4.09456 -1.85945 0
M  V30 314 C 29.249 -4.76495 -1.68168 0
M  V30 315 C 31.447 -4.95353 -1.3831 0
M  V30 316 N 29.429 -6.0384 -1.1068 0
M  V30 317 C 30.8 -6.13012 -0.928238 0
M  V30 318 C 32.855 -4.81512 -1.26692 0
M  V30 319 C 31.558 -7.18354 -0.368701 0
M  V30 320 C 33.584 -5.86984 -0.721368 0
M  V30 321 C 32.946 -7.03857 -0.276623 0
M  V30 322 H 29.045 -0.634045 -0.457724 0
M  V30 323 H 31.629 -1.85639 -0.587049 0
M  V30 324 H 29.8 -2.41043 -3.04553 0
M  V30 325 H 31.532 -2.65791 -3.05184 0
M  V30 326 H 28.287 -4.32962 -1.91939 0
M  V30 327 H 28.711 -6.71778 -0.839217 0
M  V30 328 H 33.353 -3.91487 -1.5968 0
M  V30 329 H 31.071 -8.08096 -0.0265122 0
M  V30 330 H 34.657 -5.78329 -0.634531 0
M  V30 331 H 33.537 -7.84077 0.138947 0
M  V30 332 N 31.0401 0.771051 -1.3745 0
M  V30 333 C 31.9501 1.91538 -1.35464 0
M  V30 334 C 32.9661 1.72134 -0.254123 0
M  V30 335 O 34.1421 1.95358 -0.489626 0
M  V30 336 C 31.2071 3.26671 -1.16134 0
M  V30 337 C 30.2681 3.58723 -2.35831 0
M  V30 338 C 29.5011 4.87409 -2.17413 0
M  V30 339 O 29.7241 5.58506 -1.15876 0
M  V30 340 O 28.6581 5.18539 -3.05615 0
M  V30 341 H 32.4841 1.96165 -2.31847 0
M  V30 342 H 30.0691 0.9139 -1.18187 0
M  V30 343 H 31.9511 4.07499 -1.07345 0
M  V30 344 H 30.6261 3.22894 -0.228251 0
M  V30 345 H 29.5331 2.78127 -2.50192 0
M  V30 346 H 30.8661 3.67243 -3.27709 0
M  V30 347 N 32.5182 1.22032 0.997298 0
M  V30 348 C 33.7642 1.04376 1.73878 0
M  V30 349 C 34.0972 -0.420716 1.89588 0
M  V30 350 O 33.3722 -1.31202 1.43583 0
M  V30 351 C 33.6552 1.75047 3.14691 0
M  V30 352 C 33.5082 3.29062 3.06656 0
M  V30 353 C 34.8272 1.49928 4.13775 0
M  V30 354 H 31.9462 0.380578 0.631133 0
M  V30 355 H 34.5882 1.50312 1.16217 0
M  V30 356 H 32.7382 1.35996 3.63919 0
M  V30 357 H 34.4102 3.7753 2.65083 0
M  V30 358 H 32.6532 3.58967 2.43568 0
M  V30 359 H 33.3242 3.73683 4.06282 0
M  V30 360 H 35.8002 1.83842 3.73285 0
M  V30 361 H 34.6762 2.01878 5.10428 0
M  V30 362 H 34.9372 0.430929 4.39995 0
M  V30 363 N 33.9963 -1.19345 1.0293 0
M  V30 364 C 35.4123 -1.41069 0.746446 0
M  V30 365 C 35.6123 -1.90078 -0.668776 0
M  V30 366 O 34.6683 -2.0778 -1.4347 0
M  V30 367 C 35.9813 -2.42141 1.78292 0
M  V30 368 C 37.5293 -2.55887 1.80252 0
M  V30 369 C 38.0043 -3.60214 2.8286 0
M  V30 370 N 39.4953 -3.67711 2.81679 0
M  V30 371 C 40.2303 -4.48128 3.57727 0
M  V30 372 N 39.7263 -5.32248 4.43491 0
M  V30 373 N 41.5193 -4.42782 3.46267 0
M  V30 374 H 33.6703 -0.858536 1.94275 0
M  V30 375 H 35.9333 -0.439541 0.839945 0
M  V30 376 H 35.6393 -2.13155 2.79746 0
M  V30 377 H 35.5133 -3.41323 1.60557 0
M  V30 378 H 37.9003 -2.84196 0.794757 0
M  V30 379 H 37.9813 -1.56858 2.02062 0
M  V30 380 H 37.6253 -3.32647 3.83807 0
M  V30 381 H 37.5553 -4.58895 2.58307 0
M  V30 382 H 40.0463 -3.07634 2.19476 0
M  V30 383 H 40.3593 -5.90729 4.98256 0
M  V30 384 H 38.7043 -5.31707 4.47564 0
M  V30 385 H 41.8953 -3.76107 2.78677 0
M  V30 386 H 42.0683 -5.05215 4.05785 0
M  V30 387 N 35.4744 -0.807222 -1.35358 0
M  V30 388 C 36.4374 -0.223665 -2.28106 0
M  V30 389 C 37.4374 0.589354 -1.4961 0
M  V30 390 O 38.6274 0.407745 -1.69361 0
M  V30 391 C 35.7594 0.688149 -3.33882 0
M  V30 392 H 36.9524 -1.04169 -2.81227 0
M  V30 393 H 34.5054 -0.577921 -1.45223 0
M  V30 394 H 35.2404 1.52984 -2.85948 0
M  V30 395 H 35.0254 0.10687 -3.91954 0
M  V30 396 H 36.5154 1.09075 -4.03104 0
M  V30 397 N 36.9525 1.47285 -0.560781 0
M  V30 398 C 38.1985 2.02764 -0.0381184 0
M  V30 399 C 38.5315 1.43384 1.30976 0
M  V30 400 O 37.8065 0.590733 1.85312 0
M  V30 401 C 38.0895 3.60064 0.0511427 0
M  V30 402 C 37.9425 4.2987 -1.32408 0
M  V30 403 C 39.2615 4.33439 0.762795 0
M  V30 404 H 36.3805 0.736841 -0.0153264 0
M  V30 405 H 39.0225 1.75675 -0.723759 0
M  V30 406 H 37.1725 3.83274 0.635065 0
M  V30 407 H 38.8445 4.17989 -1.95148 0
M  V30 408 H 37.0875 3.90085 -1.8978 0
M  V30 409 H 37.7585 5.38478 -1.21431 0
M  V30 410 H 40.2345 4.15243 0.266965 0
M  V30 411 H 39.1105 5.43124 0.794221 0
M  V30 412 H 39.3715 4.02915 1.81966 0
M  V30 413 N 38.4306 0.297415 1.54768 0
M  V30 414 C 39.6606 -0.315165 2.04182 0
M  V30 415 C 40.0686 -1.4834 1.17439 0
M  V30 416 O 39.4116 -1.82695 0.191891 0
M  V30 417 C 39.4736 -0.837583 3.49607 0
M  V30 418 C 39.1376 0.204912 4.5654 0
M  V30 419 C 40.1346 1.03214 5.09552 0
M  V30 420 C 37.8196 0.345578 5.0111 0
M  V30 421 C 39.8136 1.986 6.05671 0
M  V30 422 C 37.5006 1.30289 5.97049 0
M  V30 423 C 38.4986 2.12159 6.49213 0
M  V30 424 O 38.1866 3.06268 7.43273 0
M  V30 425 H 37.9186 -0.0729646 0.672051 0
M  V30 426 H 40.4726 0.433907 2.00765 0
M  V30 427 H 38.7026 -1.63712 3.50336 0
M  V30 428 H 40.3916 -1.36566 3.82236 0
M  V30 429 H 41.1576 0.934312 4.75916 0
M  V30 430 H 37.0366 -0.28171 4.60138 0
M  V30 431 H 40.5806 2.62542 6.46311 0
M  V30 432 H 36.4776 1.40145 6.30103 0
M  V30 433 H 37.2456 3.01205 7.61064 0
M  V30 434 N 39.9087 -1.5758 0.0250728 0
M  V30 435 C 41.3247 -1.56124 -0.331282 0
M  V30 436 C 41.5247 -1.03029 -1.73169 0
M  V30 437 O 40.5807 -0.675215 -2.43305 0
M  V30 438 C 41.8937 -3.00139 -0.183584 0
M  V30 439 C 43.4417 -3.11946 -0.256654 0
M  V30 440 C 43.9167 -4.57793 -0.137792 0
M  V30 441 N 45.4077 -4.6279 -0.194904 0
M  V30 442 C 46.1427 -5.7326 -0.126655 0
M  V30 443 N 45.6387 -6.928 -0.00755288 0
M  V30 444 N 47.4317 -5.61811 -0.180348 0
M  V30 445 H 39.5827 -1.90424 0.94087 0
M  V30 446 H 41.8457 -0.875761 0.362968 0
M  V30 447 H 41.5517 -3.4292 0.780927 0
M  V30 448 H 41.4257 -3.64899 -0.955448 0
M  V30 449 H 43.8127 -2.69079 -1.21162 0
M  V30 450 H 43.8937 -2.49915 0.545517 0
M  V30 451 H 43.5377 -5.01339 0.813739 0
M  V30 452 H 43.4677 -5.17798 -0.958775 0
M  V30 453 H 45.9587 -3.76807 -0.287267 0
M  V30 454 H 46.2717 -7.72791 0.0379428 0
M  V30 455 H 44.6167 -6.94995 0.0271731 0
M  V30 456 H 47.8077 -4.6731 -0.271767 0
M  V30 457 H 47.9807 -6.47882 -0.123697 0
M  V30 458 N 41.3868 0.248026 -1.55636 0
M  V30 459 C 42.6638 0.998988 -1.68165 0
M  V30 460 C 43.0438 2.03409 -0.564621 0
M  V30 461 O 42.3918 2.24378 0.432076 0
M  V30 462 C 42.6018 1.63334 -3.0842 0
M  V30 463 C 43.9498 2.13562 -3.66983 0
M  V30 464 O 44.9738 1.73277 -3.11213 0
M  V30 465 O 43.8328 2.87526 -4.64749 0
M  V30 466 H 40.9268 0.464933 -0.683935 0
M  V30 467 H 43.4728 0.241902 -1.67967 0
M  V30 468 H 42.2448 0.884583 -3.8117 0
M  V30 469 H 41.8678 2.45666 -3.12624 0
M  V30 470 N 42.8649 1.48995 0.513639 0
M  V30 471 C 43.7949 1.67636 1.62544 0
M  V30 472 C 44.7759 0.525087 1.61793 0
M  V30 473 O 45.9609 0.759502 1.78732 0
M  V30 474 C 43.0909 1.73114 3.01079 0
M  V30 475 C 42.0449 2.87905 3.16693 0
M  V30 476 C 41.3709 2.78486 4.56453 0
M  V30 477 C 42.6709 4.29005 2.97913 0
M  V30 478 H 44.3649 2.60716 1.47198 0
M  V30 479 H 41.9109 1.25465 0.706714 0
M  V30 480 H 43.8639 1.84742 3.78746 0
M  V30 481 H 42.5879 0.766241 3.17484 0
M  V30 482 H 41.2469 2.75859 2.41448 0
M  V30 483 H 40.8949 1.7993 4.69717 0
M  V30 484 H 40.5949 3.55523 4.67843 0
M  V30 485 H 42.1189 2.92104 5.36197 0
M  V30 486 H 43.5329 4.41798 3.65359 0
M  V30 487 H 41.9299 5.07166 3.20785 0
M  V30 488 H 42.9999 4.44329 1.94165 0
M  V30 489 N 44.343 -0.763751 1.37857 0
M  V30 490 C 45.275 -1.88664 1.30148 0
M  V30 491 C 46.288 -1.61365 0.215685 0
M  V30 492 O 47.477 -1.72134 0.472459 0
M  V30 493 C 44.577 -3.24075 0.991396 0
M  V30 494 C 43.75 -3.78958 2.18426 0
M  V30 495 C 42.809 -4.92862 1.8432 0
M  V30 496 O 41.835 -5.08027 2.56704 0
M  V30 497 N 43.037 -5.75071 0.792081 0
M  V30 498 H 45.802 -1.95791 2.26905 0
M  V30 499 H 43.363 -0.943226 1.31586 0
M  V30 500 H 45.355 -3.97804 0.743935 0
M  V30 501 H 43.925 -3.12399 0.112122 0
M  V30 502 H 43.145 -2.96913 2.59299 0
M  V30 503 H 44.433 -4.12357 2.98058 0
M  V30 504 H 43.831 -5.65375 0.191595 0
M  V30 505 H 42.388 -6.48991 0.60449 0
M  V30 506 N 45.8211 -1.22559 -0.990812 0
M  V30 507 C 47.2321 -1.04791 -1.54518 0
M  V30 508 C 47.5831 0.387998 -1.92325 0
M  V30 509 O 46.7081 1.27328 -1.74976 0
M  V30 510 C 47.3031 -1.896 -2.80779 0
M  V30 511 C 45.8621 -1.76124 -3.32652 0
M  V30 512 C 45.0091 -1.8594 -2.05722 0
M  V30 513 H 47.9601 -1.36374 -0.811662 0
M  V30 514 H 47.9811 -1.41464 -3.53225 0
M  V30 515 H 47.4931 -2.94101 -2.53231 0
M  V30 516 H 45.5941 -0.743643 -3.65104 0
M  V30 517 H 45.7071 -2.58913 -4.03114 0
M  V30 518 H 44.0711 -1.29403 -2.19379 0
M  V30 519 H 44.8541 -2.91976 -1.80568 0
M  V30 520 N 47.2992 1.18797 -1.03562 0
M  V30 521 C 48.5452 1.8893 -0.737113 0
M  V30 522 C 48.8782 1.79837 0.732956 0
M  V30 523 O 48.1532 1.19525 1.5344 0
M  V30 524 C 48.4362 3.39607 -1.19745 0
M  V30 525 C 48.2892 3.57537 -2.72924 0
M  V30 526 C 49.6082 4.33069 -0.783526 0
M  V30 527 H 46.7272 0.686057 -0.269249 0
M  V30 528 H 49.3692 1.39797 -1.28673 0
M  V30 529 H 47.5192 3.81583 -0.729855 0
M  V30 530 H 49.1912 3.24688 -3.27682 0
M  V30 531 H 47.4342 3.00363 -3.12993 0
M  V30 532 H 48.1052 4.63238 -3.00191 0
M  V30 533 H 50.5812 3.98846 -1.18581 0
M  V30 534 H 49.4572 5.3707 -1.13343 0
M  V30 535 H 49.7182 4.40986 0.313681 0
M  V30 536 N 48.7773 0.814389 1.34928 0
M  V30 537 C 50.0253 0.397636 1.9815 0
M  V30 538 C 50.3463 -1.04069 1.64908 0
M  V30 539 O 49.6163 -1.72121 0.93548 0
M  V30 540 H 48.1963 0.144043 0.732981 0
M  V30 541 H 50.8583 1.04195 1.6471 0
M  V30 542 H 49.9543 0.509688 3.0791 0
M  V30 543 N 50.2554 -1.46986 0.568584 0
M  V30 544 C 51.4804 -2.07335 0.0520528 0
M  V30 545 C 51.9054 -1.41675 -1.23733 0
M  V30 546 O 51.2634 -0.495623 -1.74394 0
M  V30 547 C 51.3114 -3.60417 -0.11501 0
M  V30 548 O 50.4154 -3.95309 -1.17492 0
M  V30 549 H 49.7564 -0.661597 0.0564385 0
M  V30 550 H 52.2864 -1.88837 0.787507 0
M  V30 551 H 52.2964 -4.06698 -0.325644 0
M  V30 552 H 50.9714 -4.07601 0.826675 0
M  V30 553 H 49.5484 -3.60757 -0.943869 0
M  V30 554 N 51.7335 -0.305618 -1.54608 0
M  V30 555 C 52.9815 0.301701 -1.99835 0
M  V30 556 C 53.3025 1.54054 -1.19551 0
M  V30 557 O 52.5725 1.93702 -0.292658 0
M  V30 558 H 51.1525 0.114468 -0.738178 0
M  V30 559 H 53.8145 -0.418016 -1.90364 0
M  V30 560 H 52.9105 0.570548 -3.06841 0
M  V30 561 N 53.2116 1.57565 -0.0334293 0
M  V30 562 C 54.1746 2.09393 0.932048 0
M  V30 563 C 55.1746 1.00986 1.25134 0
M  V30 564 O 56.3646 1.27129 1.19096 0
M  V30 565 C 53.4966 2.56338 2.2473 0
M  V30 566 H 54.6896 2.95984 0.483085 0
M  V30 567 H 52.2426 1.54819 0.21468 0
M  V30 568 H 52.9776 1.7309 2.74245 0
M  V30 569 H 52.7626 3.35542 2.02865 0
M  V30 570 H 54.2526 2.96646 2.93923 0
M  V30 571 N 54.6897 -0.239769 1.55765 0
M  V30 572 C 55.9197 -0.982743 1.8173 0
M  V30 573 C 56.3277 -1.7917 0.607835 0
M  V30 574 O 55.6707 -1.78525 -0.432973 0
M  V30 575 C 55.7327 -1.96332 3.01155 0
M  V30 576 C 55.3967 -1.34062 4.36894 0
M  V30 577 C 56.3937 -0.739539 5.14613 0
M  V30 578 C 54.0787 -1.35784 4.83599 0
M  V30 579 C 56.0727 -0.163989 6.37189 0
M  V30 580 C 53.7597 -0.778441 6.06122 0
M  V30 581 C 54.7577 -0.182548 6.82756 0
M  V30 582 O 54.4457 0.387887 8.02964 0
M  V30 583 H 54.1777 -0.294481 0.608487 0
M  V30 584 H 56.7317 -0.26572 2.03674 0
M  V30 585 H 54.9617 -2.71884 2.74984 0
M  V30 586 H 56.6507 -2.57032 3.14149 0
M  V30 587 H 57.4167 -0.718687 4.79646 0
M  V30 588 H 53.2957 -1.81105 4.23936 0
M  V30 589 H 56.8397 0.301753 6.96947 0
M  V30 590 H 52.7367 -0.796645 6.40565 0
M  V30 591 H 53.5047 0.28044 8.18019 0
M  V30 592 N 56.1678 -1.49265 -0.50573 0
M  V30 593 C 57.4158 -1.582 -1.25766 0
M  V30 594 C 57.7368 -0.268482 -1.93143 0
M  V30 595 O 57.0068 0.711833 -1.8251 0
M  V30 596 H 55.5868 -0.582873 -0.467191 0
M  V30 597 H 58.2488 -1.85865 -0.586525 0
M  V30 598 H 57.3448 -2.37563 -2.02412 0
M  V30 599 N 57.6459 0.756429 -1.3826 0
M  V30 600 C 58.6089 1.85176 -1.35065 0
M  V30 601 C 59.6089 1.58818 -0.251703 0
M  V30 602 O 60.7989 1.66615 -0.508433 0
M  V30 603 C 57.9309 3.22596 -1.10201 0
M  V30 604 H 59.1239 1.89417 -2.3251 0
M  V30 605 H 56.6769 0.95783 -1.23512 0
M  V30 606 H 57.4119 3.24025 -0.133504 0
M  V30 607 H 57.1969 3.43122 -1.89762 0
M  V30 608 H 58.6869 4.02673 -1.10654 0
M  V30 609 N 59.124 1.23083 0.984299 0
M  V30 610 C 60.37 1.06214 1.72761 0
M  V30 611 C 60.703 -0.400584 1.90024 0
M  V30 612 O 59.978 -1.29672 1.44967 0
M  V30 613 C 60.261 1.78375 3.12817 0
M  V30 614 C 60.114 3.32296 3.03149 0
M  V30 615 C 61.433 1.54309 4.12161 0
M  V30 616 H 58.552 0.387251 0.627061 0
M  V30 617 H 61.194 1.51536 1.14616 0
M  V30 618 H 59.344 1.39848 3.62457 0
M  V30 619 H 61.016 3.8032 2.61064 0
M  V30 620 H 59.259 3.6153 2.39747 0
M  V30 621 H 59.93 3.77972 4.02295 0
M  V30 622 H 62.406 1.87791 3.71314 0
M  V30 623 H 61.282 2.07281 5.08258 0
M  V30 624 H 61.543 0.477572 4.39513 0
M  V30 625 N 60.6021 -1.18246 1.0419 0
M  V30 626 C 61.8421 -1.89948 0.754916 0
M  V30 627 C 62.2061 -1.78608 -0.70451 0
M  V30 628 O 63.4071 -2.4503 -1.10516 0
M  V30 629 C 61.6781 -3.36305 1.20969 0
M  V30 630 S 63.2371 -4.26088 1.04854 0
M  V30 631 H 60.0551 -0.655897 0.274446 0
M  V30 632 H 62.6571 -1.42873 1.33445 0
M  V30 633 H 61.3611 -3.42089 2.26722 0
M  V30 634 H 60.8921 -3.8842 0.624004 0
M  V30 635 H 62.9071 -4.96189 -0.0332896 0
M  V30 636 N 62.0802 -0.821533 -1.34494 0
M  V30 637 C 63.3052 -0.420873 -2.03085 0
M  V30 638 C 63.7302 0.964915 -1.61465 0
M  V30 639 O 63.0882 1.62763 -0.798607 0
M  V30 640 C 63.1362 -0.529414 -3.56693 0
M  V30 641 O 62.2402 0.451302 -4.09923 0
M  V30 642 H 61.5812 -0.173489 -0.640935 0
M  V30 643 H 64.1112 -1.11157 -1.71771 0
M  V30 644 H 64.1212 -0.404671 -4.05988 0
M  V30 645 H 62.7962 -1.54014 -3.86332 0
M  V30 646 H 61.3732 0.285558 -3.71805 0
M  V30 647 N 63.5583 1.46682 -0.576371 0
M  V30 648 C 64.5213 2.28707 0.150239 0
M  V30 649 C 65.5213 1.38035 0.824794 0
M  V30 650 O 66.7113 1.60476 0.677719 0
M  V30 651 C 63.8433 3.18248 1.22192 0
M  V30 652 H 65.0363 2.94423 -0.570521 0
M  V30 653 H 62.5893 1.52688 -0.334078 0
M  V30 654 H 63.3243 2.57265 1.97447 0
M  V30 655 H 63.1093 3.85 0.742812 0
M  V30 656 H 64.5993 3.80001 1.73172 0
M  V30 657 N 65.0364 0.313813 1.54444 0
M  V30 658 C 66.2824 -0.292108 2.00685 0
M  V30 659 C 66.6154 -1.52548 1.20177 0
M  V30 660 O 65.8904 -1.92452 0.281531 0
M  V30 661 C 66.1734 -0.635968 3.5444 0
M  V30 662 C 66.0264 0.607437 4.4568 0
M  V30 663 C 67.3454 -1.45747 4.15266 0
M  V30 664 H 64.4644 -0.104697 0.729526 0
M  V30 665 H 67.1064 0.428457 1.85106 0
M  V30 666 H 65.2564 -1.24986 3.67846 0
M  V30 667 H 66.9284 1.24581 4.44159 0
M  V30 668 H 65.1714 1.23822 4.15753 0
M  V30 669 H 65.8424 0.322515 5.51057 0
M  V30 670 H 68.3184 -0.938645 4.05375 0
M  V30 671 H 67.1944 -1.66683 5.2298 0
M  V30 672 H 67.4554 -2.45063 3.67963 0
M  V30 673 N 66.5145 -1.57545 0.0417849 0
M  V30 674 C 67.7915 -1.83642 -0.673433 0
M  V30 675 C 68.1715 -0.928298 -1.89594 0
M  V30 676 O 67.5195 0.0129955 -2.28496 0
M  V30 677 C 67.7295 -3.33155 -1.03964 0
M  V30 678 C 69.0775 -3.99941 -1.42592 0
M  V30 679 O 70.1015 -3.37725 -1.13226 0
M  V30 680 O 68.9605 -5.09619 -1.9736 0
M  V30 681 H 66.0545 -0.757638 -0.331533 0
M  V30 682 H 68.6005 -1.69554 0.070433 0
M  V30 683 H 67.3725 -3.9093 -0.170098 0
M  V30 684 H 66.9955 -3.52396 -1.84126 0
M  V30 685 N 67.9926 0.231505 -1.5589 0
M  V30 686 C 69.2406 0.955461 -1.78088 0
M  V30 687 C 69.5616 1.85262 -0.608533 0
M  V30 688 O 68.8316 1.92277 0.375035 0
M  V30 689 H 67.4116 0.355787 -0.656829 0
M  V30 690 H 70.0736 0.245751 -1.93344 0
M  V30 691 H 69.1696 1.56814 -2.69844 0
M  V30 692 N 69.4707 1.49531 0.497807 0
M  V30 693 C 70.8867 1.36365 0.829266 0
M  V30 694 C 71.0867 0.399184 1.97506 0
M  V30 695 O 70.1427 -0.167977 2.51941 0
M  V30 696 C 71.4557 2.77153 1.16647 0
M  V30 697 C 73.0037 2.85877 1.27449 0
M  V30 698 C 73.4787 4.2744 1.64497 0
M  V30 699 N 74.9697 4.30265 1.7154 0
M  V30 700 C 75.7047 5.3677 2.01656 0
M  V30 701 N 75.2007 6.53516 2.29976 0
M  V30 702 N 76.9937 5.24189 2.02934 0
M  V30 703 H 69.1447 2.10831 -0.257703 0
M  V30 704 H 71.4077 0.946534 -0.0527091 0
M  V30 705 H 71.1137 3.49442 0.397872 0
M  V30 706 H 70.9877 3.12722 2.10915 0
M  V30 707 H 73.3747 2.13824 2.0338 0
M  V30 708 H 73.4557 2.53887 0.312244 0
M  V30 709 H 73.0997 5.00021 0.891151 0
M  V30 710 H 73.0297 4.56896 2.61827 0
M  V30 711 H 75.5207 3.4607 1.51802 0
M  V30 712 H 75.8337 7.30506 2.52153 0
M  V30 713 H 74.1787 6.56737 2.27425 0
M  V30 714 H 77.3697 4.31988 1.80289 0
M  V30 715 H 77.5427 6.07286 2.26071 0
M  V30 716 N 70.9488 -0.749086 1.3866 0
M  V30 717 C 72.1768 -1.53834 1.38358 0
M  V30 718 C 72.5918 -1.88783 -0.0255219 0
M  V30 719 O 71.9488 -1.53101 -0.993292 0
M  V30 720 C 71.9998 -2.83468 2.2434 0
M  V30 721 O 71.7208 -2.50008 3.5976 0
M  V30 722 C 73.2218 -3.7758 2.32267 0
M  V30 723 H 70.4418 -0.47585 0.473083 0
M  V30 724 H 72.9858 -0.926726 1.82297 0
M  V30 725 H 71.1408 -3.40995 1.83851 0
M  V30 726 H 71.5548 -3.33182 4.05081 0
M  V30 727 H 73.0288 -4.65478 2.96706 0
M  V30 728 H 73.5058 -4.18334 1.33765 0
M  V30 729 H 74.1118 -3.25976 2.73166 0
M  V30 730 N 72.4269 -1.23603 -0.977757 0
M  V30 731 C 73.6749 -1.06759 -1.71601 0
M  V30 732 C 73.9959 0.395929 -1.90938 0
M  V30 733 O 73.2659 1.28356 -1.47992 0
M  V30 734 H 71.8459 -0.392062 -0.635843 0
M  V30 735 H 74.5079 -1.55362 -1.1768 0
M  V30 736 H 73.6039 -1.55763 -2.70452 0
M  V30 737 N 73.905 1.17692 -1.04816 0
M  V30 738 C 74.868 2.19787 -0.650117 0
M  V30 739 C 75.868 1.58044 0.296427 0
M  V30 740 O 77.058 1.74012 0.0808097 0
M  V30 741 C 74.19 3.40869 0.0456987 0
M  V30 742 H 75.383 2.56516 -1.5537 0
M  V30 743 H 72.936 1.31708 -0.841594 0
M  V30 744 H 73.671 3.09681 0.962726 0
M  V30 745 H 73.456 3.86928 -0.634727 0
M  V30 746 H 74.946 4.16445 0.310432 0
M  V30 747 N 75.3831 0.828654 1.34056 0
M  V30 748 C 76.3301 0.252567 2.29414 0
M  V30 749 C 77.3001 -0.62588 1.53857 0
M  V30 750 O 78.4851 -0.566312 1.82202 0
M  V30 751 C 75.6251 -0.574831 3.40279 0
M  V30 752 C 74.7381 0.326499 4.30764 0
M  V30 753 C 73.8731 -0.511016 5.28736 0
M  V30 754 C 72.9121 0.389342 6.1086 0
M  V30 755 N 72.0491 -0.409439 7.00905 0
M  V30 756 H 76.8891 1.07108 2.78086 0
M  V30 757 H 74.4261 0.539677 1.36843 0
M  V30 758 H 76.3841 -1.06992 4.03248 0
M  V30 759 H 75.0141 -1.35841 2.92826 0
M  V30 760 H 74.0661 0.939837 3.68607 0
M  V30 761 H 75.3781 1.01857 4.88289 0
M  V30 762 H 74.5321 -1.07035 5.97184 0
M  V30 763 H 73.2711 -1.23657 4.71763 0
M  V30 764 H 72.2761 0.960769 5.4134 0
M  V30 765 H 73.5011 1.1131 6.69916 0
M  V30 766 H 71.4471 -1.11856 6.46393 0
M  V30 767 H 71.3641 0.224126 7.55668 0
M  V30 768 H 72.6321 -0.951336 7.73673 0
M  V30 769 N 76.8612 -1.46375 0.584142 0
M  V30 770 C 78.1072 -2.02678 0.0703716 0
M  V30 771 C 78.4402 -1.4545 -1.28678 0
M  V30 772 O 77.7152 -0.62014 -1.84349 0
M  V30 773 C 77.9982 -3.60099 0.00614674 0
M  V30 774 C 77.8512 -4.27709 1.3923 0
M  V30 775 C 79.1702 -4.34598 -0.693742 0
M  V30 776 H 76.2892 -0.736504 0.027047 0
M  V30 777 H 78.9312 -1.74501 0.751615 0
M  V30 778 H 77.0812 -3.84236 -0.574009 0
M  V30 779 H 78.7532 -4.14832 2.01773 0
M  V30 780 H 76.9962 -3.87016 1.95962 0
M  V30 781 H 77.6672 -5.36478 1.29982 0
M  V30 782 H 80.1432 -4.15615 -0.200869 0
M  V30 783 H 79.0192 -5.44318 -0.707714 0
M  V30 784 H 79.2802 -4.05759 -1.75533 0
M  V30 785 N 78.3393 -0.321999 -1.54275 0
M  V30 786 C 79.3023 0.531975 -2.22941 0
M  V30 787 C 80.3023 1.04478 -1.22234 0
M  V30 788 O 81.4923 0.937452 -1.46825 0
M  V30 789 C 78.6243 1.73874 -2.93224 0
M  V30 790 H 79.8173 -0.0682612 -2.99822 0
M  V30 791 H 77.3703 -0.0730644 -1.56129 0
M  V30 792 H 78.1053 2.37825 -2.20476 0
M  V30 793 H 77.8903 1.37847 -3.6707 0
M  V30 794 H 79.3803 2.34496 -3.45545 0
M  V30 795 N 79.8174 1.5752 -0.0501392 0
M  V30 796 C 81.0664 1.91827 0.623328 0
M  V30 797 C 81.3794 0.930222 1.72065 0
M  V30 798 O 82.5854 1.1653 2.4522 0
M  V30 799 C 81.0414 3.40692 1.16003 0
M  V30 800 C 80.6494 4.479 0.0948811 0
M  V30 801 C 82.3934 3.84034 1.80881 0
M  V30 802 C 80.3004 5.87879 0.644411 0
M  V30 803 H 79.2304 0.715918 0.236596 0
M  V30 804 H 81.8814 1.83115 -0.118861 0
M  V30 805 H 80.2634 3.44405 1.9545 0
M  V30 806 H 81.4374 4.55775 -0.678675 0
M  V30 807 H 79.7524 4.13892 -0.45637 0
M  V30 808 H 82.3494 4.85984 2.22988 0
M  V30 809 H 82.6924 3.20225 2.6601 0
M  V30 810 H 83.2254 3.82833 1.0809 0
M  V30 811 H 79.9644 6.55282 -0.169229 0
M  V30 812 H 79.4844 5.83567 1.38598 0
M  V30 813 H 81.1634 6.37098 1.12763 0
M  V30 814 N 81.2955 -0.223234 1.56011 0
M  V30 815 C 82.2425 -1.27664 1.92277 0
M  V30 816 C 83.2125 -1.46659 0.779763 0
M  V30 817 O 84.3975 -1.60256 1.03551 0
M  V30 818 C 81.5375 -2.62234 2.24338 0
M  V30 819 C 80.6505 -2.51051 3.51564 0
M  V30 820 C 79.7855 -3.78133 3.7308 0
M  V30 821 C 78.8245 -3.61665 4.93827 0
M  V30 822 N 77.9615 -4.80693 5.11741 0
M  V30 823 H 82.8015 -0.960358 2.82101 0
M  V30 824 H 80.3385 -0.462901 1.39627 0
M  V30 825 H 82.2965 -3.40596 2.40936 0
M  V30 826 H 80.9265 -2.91961 1.3769 0
M  V30 827 H 79.9785 -1.64132 3.43169 0
M  V30 828 H 81.2905 -2.34803 4.40079 0
M  V30 829 H 80.4445 -4.64938 3.89766 0
M  V30 830 H 79.1835 -3.97304 2.82844 0
M  V30 831 H 78.1885 -2.73244 4.77093 0
M  V30 832 H 79.4135 -3.43966 5.85546 0
M  V30 833 H 77.3595 -5.00181 4.24446 0
M  V30 834 H 77.2765 -4.67165 5.94384 0
M  V30 835 H 78.5445 -5.6893 5.3286 0
M  V30 836 N 82.7736 -1.49793 -0.48987 0
M  V30 837 C 83.7206 -1.67281 -1.59014 0
M  V30 838 C 84.6906 -0.514177 -1.57941 0
M  V30 839 O 85.8756 -0.742533 -1.75759 0
M  V30 840 C 83.0156 -1.75569 -2.97102 0
M  V30 841 C 82.1286 -3.0281 -3.08107 0
M  V30 842 C 81.2636 -3.02008 -4.36995 0
M  V30 843 C 80.3026 -4.23782 -4.41673 0
M  V30 844 N 79.4396 -4.20826 -5.62005 0
M  V30 845 H 84.2796 -2.61224 -1.43409 0
M  V30 846 H 81.8166 -1.29508 -0.697565 0
M  V30 847 H 83.7746 -1.78354 -3.77155 0
M  V30 848 H 82.4046 -0.850827 -3.11385 0
M  V30 849 H 81.4566 -3.09584 -2.21047 0
M  V30 850 H 82.7686 -3.92801 -3.07423 0
M  V30 851 H 81.9226 -3.03418 -5.25378 0
M  V30 852 H 80.6616 -2.09815 -4.4026 0
M  V30 853 H 79.6666 -4.22604 -3.5169 0
M  V30 854 H 80.8916 -5.17181 -4.40115 0
M  V30 855 H 78.8376 -3.31476 -5.66091 0
M  V30 856 H 78.7546 -5.04564 -5.62984 0
M  V30 857 H 80.0226 -4.26355 -6.52565 0
M  V30 858 N 84.2517 0.741722 -1.39055 0
M  V30 859 C 85.1817 1.869 -1.39966 0
M  V30 860 C 86.1627 1.6804 -0.26392 0
M  V30 861 O 87.3477 1.88458 -0.468755 0
M  V30 862 C 84.4777 3.24572 -1.23574 0
M  V30 863 C 83.4317 3.58056 -2.34477 0
M  V30 864 C 82.7577 4.94593 -2.0318 0
M  V30 865 C 84.0577 3.61716 -3.76774 0
M  V30 866 H 85.7517 1.86395 -2.34302 0
M  V30 867 H 83.2977 0.895361 -1.1278 0
M  V30 868 H 85.2507 4.031 -1.22834 0
M  V30 869 H 83.9747 3.25587 -0.257045 0
M  V30 870 H 82.6337 2.81854 -2.34423 0
M  V30 871 H 82.2817 4.92181 -1.03765 0
M  V30 872 H 81.9817 5.17964 -2.77465 0
M  V30 873 H 83.5057 5.75486 -2.04079 0
M  V30 874 H 84.9197 4.30335 -3.78794 0
M  V30 875 H 83.3167 3.96603 -4.50362 0
M  V30 876 H 84.3867 2.61672 -4.08235 0
M  V30 877 N 85.7298 1.2412 0.971189 0
M  V30 878 C 86.9598 1.10415 1.7462 0
M  V30 879 C 87.3678 -0.346462 1.86001 0
M  V30 880 O 86.7108 -1.25104 1.34517 0
M  V30 881 C 86.7728 1.66596 3.18568 0
M  V30 882 C 86.4368 3.15446 3.3067 0
M  V30 883 C 87.4338 4.12636 3.16271 0
M  V30 884 C 85.1188 3.55337 3.55022 0
M  V30 885 C 87.1128 5.47699 3.26044 0
M  V30 886 C 84.7998 4.90542 3.64434 0
M  V30 887 C 85.7978 5.86532 3.49956 0
M  V30 888 O 85.4858 7.19279 3.59017 0
M  V30 889 H 85.2178 0.386616 0.55453 0
M  V30 890 H 87.7718 1.64633 1.22821 0
M  V30 891 H 86.0018 1.06808 3.71657 0
M  V30 892 H 87.6908 1.48232 3.77865 0
M  V30 893 H 88.4568 3.8316 2.97344 0
M  V30 894 H 84.3358 2.8113 3.65359 0
M  V30 895 H 87.8798 6.22603 3.14661 0
M  V30 896 H 83.7768 5.19691 3.82873 0
M  V30 897 H 84.5448 7.27153 3.75754 0
M  V30 898 N 87.2079 -1.17134 1.05439 0
M  V30 899 C 88.6239 -1.39454 0.776201 0
M  V30 900 C 88.8239 -1.91454 -0.628307 0
M  V30 901 O 87.8799 -2.10777 -1.39031 0
M  V30 902 C 89.1929 -2.38305 1.83388 0
M  V30 903 C 90.7409 -2.52006 1.85639 0
M  V30 904 C 91.2159 -3.54133 2.90437 0
M  V30 905 N 92.7069 -3.61653 2.89415 0
M  V30 906 C 93.4419 -4.4044 3.67152 0
M  V30 907 N 92.9379 -5.22721 4.54681 0
M  V30 908 N 94.7309 -4.35337 3.55581 0
M  V30 909 H 86.8819 -0.817134 1.96053 0
M  V30 910 H 89.1449 -0.421626 0.849079 0
M  V30 911 H 88.8509 -2.07173 2.84204 0
M  V30 912 H 88.7249 -3.37841 1.67761 0
M  V30 913 H 91.1119 -2.82447 0.85486 0
M  V30 914 H 91.1929 -1.52537 2.05344 0
M  V30 915 H 90.8369 -3.24431 3.90777 0
M  V30 916 H 90.7669 -4.53313 2.67983 0
M  V30 917 H 93.2579 -3.02909 2.25952 0
M  V30 918 H 93.5709 -5.80027 5.10674 0
M  V30 919 H 91.9159 -5.22093 4.58741 0
M  V30 920 H 95.1069 -3.70112 2.86592 0
M  V30 921 H 95.2799 -4.96494 4.1641 0
M  V30 922 N 88.686 -0.835752 -1.33615 0
M  V30 923 C 90.097 -0.487099 -1.80234 0
M  V30 924 C 90.448 0.993627 -1.69179 0
M  V30 925 O 89.573 1.77403 -1.23924 0
M  V30 926 C 90.168 -0.877385 -3.27242 0
M  V30 927 C 88.727 -0.580915 -3.7189 0
M  V30 928 C 87.874 -1.0874 -2.5509 0
M  V30 929 H 90.825 -1.02474 -1.2118 0
M  V30 930 H 90.846 -0.186195 -3.80044 0
M  V30 931 H 90.358 -1.95512 -3.35256 0
M  V30 932 H 88.459 0.486881 -3.69405 0
M  V30 933 H 88.572 -1.13396 -4.65487 0
M  V30 934 H 86.936 -0.508392 -2.49575 0
M  V30 935 H 87.719 -2.17184 -2.65868 0
M  V30 936 N 90.1641 1.46063 -0.591896 0
M  V30 937 C 91.4111 2.02338 -0.0809991 0
M  V30 938 C 91.7391 1.46228 1.28249 0
M  V30 939 O 90.9941 0.620818 1.85592 0
M  V30 940 C 91.2931 3.57391 0.0249813 0
M  V30 941 C 90.9591 4.32583 -1.27211 0
M  V30 942 C 89.6211 4.52844 -1.62745 0
M  V30 943 C 91.9731 4.75687 -2.13005 0
M  V30 944 C 89.3011 5.13462 -2.83855 0
M  V30 945 C 91.6531 5.37644 -3.3335 0
M  V30 946 C 90.3171 5.5613 -3.69155 0
M  V30 947 H 89.5871 0.740407 -0.0296397 0
M  V30 948 H 92.2341 1.75321 -0.770374 0
M  V30 949 H 90.5391 3.83597 0.797537 0
M  V30 950 H 92.2361 3.98621 0.436184 0
M  V30 951 H 88.8261 4.17116 -0.985499 0
M  V30 952 H 93.0101 4.59782 -1.86855 0
M  V30 953 H 88.2661 5.25965 -3.11722 0
M  V30 954 H 92.4401 5.7 -4.00092 0
M  V30 955 H 90.0671 6.0287 -4.63089 0
M  V30 956 N 91.6422 0.330177 1.54103 0
M  V30 957 C 92.5742 -0.566902 2.22079 0
M  V30 958 C 93.5872 -1.07462 1.22294 0
M  V30 959 O 94.7762 -0.987065 1.48726 0
M  V30 960 C 91.8762 -1.79138 2.87685 0
M  V30 961 C 91.0492 -1.42123 4.13666 0
M  V30 962 C 90.1082 -2.50394 4.62806 0
M  V30 963 O 89.1342 -2.14261 5.27334 0
M  V30 964 N 90.3362 -3.81433 4.37595 0
M  V30 965 H 93.1012 0.0151844 2.99696 0
M  V30 966 H 90.6622 0.153681 1.61169 0
M  V30 967 H 92.6542 -2.50975 3.1748 0
M  V30 968 H 91.2242 -2.28115 2.13734 0
M  V30 969 H 90.4442 -0.534201 3.90564 0
M  V30 970 H 91.7322 -1.14971 4.9564 0
M  V30 971 H 91.1302 -4.13584 3.8596 0
M  V30 972 H 89.6872 -4.4948 4.72029 0
M  V30 973 N 93.1203 -1.57491 0.0584922 0
M  V30 974 C 94.3453 -1.97711 -0.62652 0
M  V30 975 C 94.7703 -0.936132 -1.63151 0
M  V30 976 O 94.1283 0.099811 -1.81025 0
M  V30 977 C 94.1763 -3.36989 -1.28338 0
M  V30 978 O 93.2803 -3.35433 -2.39913 0
M  V30 979 H 92.6213 -0.643868 -0.162266 0
M  V30 980 H 95.1513 -2.04193 0.129064 0
M  V30 981 H 95.1613 -3.73879 -1.63335 0
M  V30 982 H 93.8363 -4.12289 -0.546889 0
M  V30 983 H 92.4133 -3.10298 -2.06809 0
M  V30 984 N 94.5984 0.214957 -1.56127 0
M  V30 985 C 95.5084 1.28727 -1.96129 0
M  V30 986 C 96.5244 1.50916 -0.866044 0
M  V30 987 O 97.7004 1.63918 -1.17016 0
M  V30 988 C 94.7654 2.61569 -2.27558 0
M  V30 989 C 93.8264 2.47625 -3.50685 0
M  V30 990 C 93.0594 3.74132 -3.80606 0
M  V30 991 O 93.2824 4.77438 -3.12104 0
M  V30 992 O 92.2164 3.70849 -4.74083 0
M  V30 993 H 96.0424 0.977855 -2.87527 0
M  V30 994 H 93.6274 0.418358 -1.43423 0
M  V30 995 H 95.5094 3.40012 -2.48938 0
M  V30 996 H 94.1844 2.92178 -1.39332 0
M  V30 997 H 93.0914 1.67361 -3.34576 0
M  V30 998 H 94.4244 2.21954 -4.39315 0
M  V30 999 N 96.0765 1.50051 0.48192 0
M  V30 1000 C 97.0065 1.71046 1.58951 0
M  V30 1001 C 97.9875 0.559288 1.60642 0
M  V30 1002 O 99.1725 0.797243 1.77081 0
M  V30 1003 C 96.3025 1.79462 2.97339 0
M  V30 1004 C 95.2565 2.94558 3.10515 0
M  V30 1005 C 94.5825 2.88105 4.50444 0
M  V30 1006 C 95.8825 4.35227 2.88747 0
M  V30 1007 H 97.5765 2.6378 1.41635 0
M  V30 1008 H 95.1225 1.26936 0.679942 0
M  V30 1009 H 97.0755 1.92734 3.74742 0
M  V30 1010 H 95.7995 0.833412 3.15788 0
M  V30 1011 H 94.4585 2.80918 2.35543 0
M  V30 1012 H 94.1065 1.89853 4.65795 0
M  V30 1013 H 93.8065 3.65366 4.60197 0
M  V30 1014 H 95.3305 3.03412 5.29881 0
M  V30 1015 H 96.7445 4.49449 3.55905 0
M  V30 1016 H 95.1415 5.13856 3.09955 0
M  V30 1017 H 96.2115 4.48347 1.84696 0
M  V30 1018 N 97.5546 -0.734337 1.39446 0
M  V30 1019 C 98.8016 -1.49391 1.36706 0
M  V30 1020 C 99.1296 -1.94465 -0.0367813 0
M  V30 1021 O 98.3846 -1.67154 -1.01774 0
M  V30 1022 C 98.6836 -2.74711 2.28623 0
M  V30 1023 C 98.3496 -2.48501 3.76242 0
M  V30 1024 C 97.0116 -2.41062 4.16464 0
M  V30 1025 C 99.3636 -2.26098 4.69606 0
M  V30 1026 C 96.6916 -2.09262 5.48112 0
M  V30 1027 C 99.0436 -1.95814 6.01531 0
M  V30 1028 C 97.7076 -1.86845 6.40816 0
M  V30 1029 H 96.9776 -0.546661 0.500243 0
M  V30 1030 H 99.6246 -0.842788 1.71957 0
M  V30 1031 H 97.9296 -3.44569 1.86492 0
M  V30 1032 H 99.6266 -3.32741 2.23796 0
M  V30 1033 H 96.2166 -2.55169 3.44364 0
M  V30 1034 H 100.401 -2.30812 4.39363 0
M  V30 1035 H 95.6566 -2.00841 5.77471 0
M  V30 1036 H 99.8306 -1.77488 6.73403 0
M  V30 1037 H 97.4576 -1.6197 7.42745 0
M  V30 1038 N 99.0327 -1.24633 -0.964593 0
M  V30 1039 C 99.9957 -1.0424 -2.04124 0
M  V30 1040 C 100.996 0.00137563 -1.608 0
M  V30 1041 O 102.186 -0.239883 -1.7254 0
M  V30 1042 C 99.3177 -0.580588 -3.3592 0
M  V30 1043 H 100.511 -1.99803 -2.23649 0
M  V30 1044 H 98.0637 -1.06899 -1.14027 0
M  V30 1045 H 98.7987 0.3781 -3.22088 0
M  V30 1046 H 98.5837 -1.33398 -3.6871 0
M  V30 1047 H 100.074 -0.459034 -4.15069 0
M  V30 1048 N 100.511 1.16574 -1.06058 0
M  V30 1049 C 101.458 2.20883 -0.669263 0
M  V30 1050 C 102.428 1.62729 0.332918 0
M  V30 1051 O 103.613 1.895 0.222346 0
M  V30 1052 C 100.753 3.45049 -0.0593572 0
M  V30 1053 C 99.8658 4.17458 -1.11143 0
M  V30 1054 C 99.0008 5.29135 -0.467916 0
M  V30 1055 C 98.0398 5.93343 -1.50369 0
M  V30 1056 N 97.1768 6.96516 -0.883706 0
M  V30 1057 H 102.017 2.53709 -1.5632 0
M  V30 1058 H 99.5538 1.24616 -0.781625 0
M  V30 1059 H 101.512 4.16033 0.311771 0
M  V30 1060 H 100.142 3.12781 0.797992 0
M  V30 1061 H 99.1938 3.45101 -1.60029 0
M  V30 1062 H 100.506 4.61307 -1.89731 0
M  V30 1063 H 99.6598 6.06684 -0.0436871 0
M  V30 1064 H 98.3988 4.86443 0.349864 0
M  V30 1065 H 97.4038 5.14517 -1.93784 0
M  V30 1066 H 98.6288 6.38114 -2.32352 0
M  V30 1067 H 96.5748 6.55943 -0.086595 0
M  V30 1068 H 96.4918 7.38723 -1.607 0
M  V30 1069 H 97.7598 7.77993 -0.484543 0
M  V30 1070 N 101.989 0.842826 1.3317 0
M  V30 1071 C 103.405 0.531128 1.50503 0
M  V30 1072 C 103.605 -0.940734 1.78192 0
M  V30 1073 O 102.661 -1.72436 1.84451 0
M  V30 1074 C 103.974 1.40789 2.65705 0
M  V30 1075 C 105.522 1.40708 2.79589 0
M  V30 1076 C 105.997 2.26878 3.97857 0
M  V30 1077 N 107.488 2.24609 4.05099 0
M  V30 1078 C 108.223 2.88019 4.95815 0
M  V30 1079 N 107.719 3.60496 5.9162 0
M  V30 1080 N 109.512 2.77469 4.88843 0
M  V30 1081 H 101.663 1.79557 1.1346 0
M  V30 1082 H 103.926 0.766267 0.558156 0
M  V30 1083 H 103.632 2.454 2.51936 0
M  V30 1084 H 103.506 1.08677 3.61205 0
M  V30 1085 H 105.893 0.368668 2.92788 0
M  V30 1086 H 105.974 1.76829 1.84838 0
M  V30 1087 H 105.618 3.3078 3.85418 0
M  V30 1088 H 105.548 1.88096 4.91861 0
M  V30 1089 H 108.039 1.71906 3.36536 0
M  V30 1090 H 108.352 4.06076 6.57512 0
M  V30 1091 H 106.697 3.64604 5.91683 0
M  V30 1092 H 109.888 2.20406 4.12963 0
M  V30 1093 H 110.061 3.2717 5.59342 0
M  V30 1094 N 103.467 -1.45747 0.599634 0
M  V30 1095 C 104.43 -2.28917 -0.113835 0
M  V30 1096 C 105.43 -1.3933 -0.802729 0
M  V30 1097 O 106.62 -1.61534 -0.652103 0
M  V30 1098 C 103.752 -3.20152 -1.17114 0
M  V30 1099 H 104.945 -2.93478 0.617289 0
M  V30 1100 H 102.498 -1.52137 0.358327 0
M  V30 1101 H 103.233 -2.60374 -1.93329 0
M  V30 1102 H 103.018 -3.86133 -0.681468 0
M  V30 1103 H 104.508 -3.82708 -1.67105 0
M  V30 1104 N 104.945 -0.338344 -1.53925 0
M  V30 1105 C 106.175 0.260919 -2.04946 0
M  V30 1106 C 106.583 1.45174 -1.2133 0
M  V30 1107 O 105.926 1.82122 -0.240262 0
M  V30 1108 C 105.988 0.744596 -3.51704 0
M  V30 1109 C 105.652 -0.325883 -4.55837 0
M  V30 1110 C 106.649 -1.16687 -5.06636 0
M  V30 1111 C 104.334 -0.478317 -5.00017 0
M  V30 1112 C 106.328 -2.14588 -6.00192 0
M  V30 1113 C 104.015 -1.46073 -5.93385 0
M  V30 1114 C 105.013 -2.29297 -6.4336 0
M  V30 1115 O 104.701 -3.25867 -7.34892 0
M  V30 1116 H 104.433 0.0551207 -0.673749 0
M  V30 1117 H 106.987 -0.486984 -1.99544 0
M  V30 1118 H 105.217 1.54366 -3.54553 0
M  V30 1119 H 106.906 1.26383 -3.85723 0
M  V30 1120 H 107.672 -1.06016 -4.73271 0
M  V30 1121 H 103.551 0.159613 -4.60724 0
M  V30 1122 H 107.095 -2.79585 -6.39123 0
M  V30 1123 H 102.992 -1.56802 -6.26166 0
M  V30 1124 H 103.76 -3.21278 -7.5281 0
M  V30 1125 N 106.423 1.57458 -0.0668435 0
M  V30 1126 C 107.839 1.56947 0.289772 0
M  V30 1127 C 108.039 1.07584 1.70376 0
M  V30 1128 O 107.095 0.739486 2.41429 0
M  V30 1129 C 108.408 3.0052 0.103943 0
M  V30 1130 C 109.956 3.12517 0.173857 0
M  V30 1131 C 110.431 4.57997 0.0163682 0
M  V30 1132 N 111.922 4.63144 0.0721352 0
M  V30 1133 C 112.657 5.73394 -0.0253794 0
M  V30 1134 N 112.153 6.92576 -0.176133 0
M  V30 1135 N 113.946 5.62091 0.0313305 0
M  V30 1136 H 106.097 1.87863 -0.991027 0
M  V30 1137 H 108.36 0.86583 -0.38606 0
M  V30 1138 H 108.066 3.40729 -0.871572 0
M  V30 1139 H 107.94 3.67304 0.858366 0
M  V30 1140 H 110.327 2.72197 1.13985 0
M  V30 1141 H 110.408 2.48381 -0.611586 0
M  V30 1142 H 110.052 4.99005 -0.946374 0
M  V30 1143 H 109.982 5.20158 0.821153 0
M  V30 1144 H 112.473 3.77436 0.187263 0
M  V30 1145 H 112.786 7.72418 -0.242821 0
M  V30 1146 H 111.131 6.94678 -0.211429 0
M  V30 1147 H 114.322 4.67867 0.147773 0
M  V30 1148 H 114.495 6.47982 -0.048121 0
M  V30 1149 N 107.901 -0.206675 1.56239 0
M  V30 1150 C 108.811 -1.27686 1.96808 0
M  V30 1151 C 109.827 -1.50455 0.874035 0
M  V30 1152 O 111.003 -1.63295 1.17884 0
M  V30 1153 C 108.068 -2.60358 2.28942 0
M  V30 1154 C 107.129 -2.45762 3.51994 0
M  V30 1155 C 106.362 -3.72108 3.82585 0
M  V30 1156 O 106.585 -4.75776 3.14631 0
M  V30 1157 O 105.519 -3.6833 4.76043 0
M  V30 1158 H 109.345 -0.962593 2.88041 0
M  V30 1159 H 106.93 -0.410746 1.43643 0
M  V30 1160 H 108.812 -3.38687 2.50737 0
M  V30 1161 H 107.487 -2.91435 1.4088 0
M  V30 1162 H 106.394 -1.65584 3.35459 0
M  V30 1163 H 107.727 -2.19621 4.40486 0
M  V30 1164 N 109.379 -1.50304 -0.473955 0
M  V30 1165 C 110.309 -1.71886 -1.58042 0
M  V30 1166 C 111.29 -0.567799 -1.60344 0
M  V30 1167 O 112.475 -0.806623 -1.76656 0
M  V30 1168 C 109.605 -1.81036 -2.96384 0
M  V30 1169 C 108.559 -2.962 -3.08949 0
M  V30 1170 C 107.885 -2.9049 -4.48909 0
M  V30 1171 C 109.185 -4.36752 -2.86434 0
M  V30 1172 H 110.879 -2.64527 -1.40234 0
M  V30 1173 H 108.425 -1.27295 -0.673201 0
M  V30 1174 H 110.378 -1.94719 -3.73714 0
M  V30 1175 H 109.102 -0.850147 -3.15341 0
M  V30 1176 H 107.761 -2.82164 -2.3405 0
M  V30 1177 H 107.409 -1.92321 -4.64781 0
M  V30 1178 H 107.109 -3.67802 -4.58253 0
M  V30 1179 H 108.633 -3.06218 -5.28264 0
M  V30 1180 H 110.047 -4.5133 -3.53517 0
M  V30 1181 H 108.444 -5.15493 -3.07225 0
M  V30 1182 H 109.514 -4.49321 -1.82316 0
M  V30 1183 N 110.857 0.726932 -1.39834 0
M  V30 1184 C 112.273 1.03354 -1.21615 0
M  V30 1185 C 112.473 2.01327 -0.08338 0
M  V30 1186 O 111.529 2.46158 0.56238 0
M  V30 1187 C 112.842 1.58811 -2.55342 0
M  V30 1188 C 114.39 1.70851 -2.62257 0
M  V30 1189 C 114.865 2.29716 -3.96225 0
M  V30 1190 N 116.356 2.37116 -3.97907 0
M  V30 1191 C 117.091 2.83619 -4.98345 0
M  V30 1192 N 116.587 3.29958 -6.09179 0
M  V30 1193 N 118.38 2.82901 -4.8572 0
M  V30 1194 H 110.531 0.0773069 -2.12259 0
M  V30 1195 H 112.794 0.0969102 -0.943034 0
M  V30 1196 H 112.5 0.942855 -3.38826 0
M  V30 1197 H 112.374 2.57502 -2.75632 0
M  V30 1198 H 114.761 2.34497 -1.79152 0
M  V30 1199 H 114.842 0.707913 -2.45809 0
M  V30 1200 H 114.486 1.66696 -4.79765 0
M  V30 1201 H 114.416 3.30469 -4.09997 0
M  V30 1202 H 116.907 2.04374 -3.17868 0
M  V30 1203 H 117.22 3.63976 -6.8172 0
M  V30 1204 H 115.565 3.27946 -6.12761 0
M  V30 1205 H 118.756 2.46027 -3.98231 0
M  V30 1206 H 118.929 3.18827 -5.6414 0
M  V30 1207 N 112.336 1.25143 0.95797 0
M  V30 1208 C 113.266 1.07711 2.07173 0
M  V30 1209 C 114.247 -0.0128462 1.70095 0
M  V30 1210 O 115.432 0.156061 1.93572 0
M  V30 1211 C 112.562 0.691503 3.40346 0
M  V30 1212 C 111.516 1.73132 3.9142 0
M  V30 1213 C 110.842 1.20049 5.21049 0
M  V30 1214 C 112.142 3.1294 4.1817 0
M  V30 1215 H 113.836 2.00873 2.22014 0
M  V30 1216 H 111.382 0.967191 1.06684 0
M  V30 1217 H 113.335 0.556505 4.17709 0
M  V30 1218 H 112.059 -0.275819 3.25433 0
M  V30 1219 H 110.718 1.8547 3.16222 0
M  V30 1220 H 110.366 0.223499 5.02503 0
M  V30 1221 H 110.066 1.89545 5.56189 0
M  V30 1222 H 111.59 1.07782 6.01012 0
M  V30 1223 H 113.004 3.03775 4.86203 0
M  V30 1224 H 111.401 3.79875 4.64559 0
M  V30 1225 H 112.471 3.6025 3.24573 0
M  V30 1226 N 113.814 -1.1601 1.06675 0
M  V30 1227 C 114.744 -2.22688 0.702307 0
M  V30 1228 C 115.725 -1.67306 -0.307032 0
M  V30 1229 O 116.91 -1.93352 -0.181305 0
M  V30 1230 C 114.04 -3.47178 0.092038 0
M  V30 1231 C 112.994 -4.15477 1.02777 0
M  V30 1232 C 112.32 -5.33963 0.28061 0
M  V30 1233 C 113.62 -4.66019 2.35846 0
M  V30 1234 H 115.314 -2.53429 1.59419 0
M  V30 1235 H 112.86 -1.21813 0.767961 0
M  V30 1236 H 114.813 -4.21037 -0.174814 0
M  V30 1237 H 113.537 -3.15749 -0.834877 0
M  V30 1238 H 112.196 -3.43549 1.27944 0
M  V30 1239 H 111.844 -4.98788 -0.649545 0
M  V30 1240 H 111.544 -5.806 0.904258 0
M  V30 1241 H 113.068 -6.10596 0.021396 0
M  V30 1242 H 114.482 -5.3144 2.15045 0
M  V30 1243 H 112.879 -5.23293 2.93743 0
M  V30 1244 H 113.949 -3.82023 2.98641 0
M  V30 1245 N 115.292 -0.849877 -1.32721 0
M  V30 1246 C 116.239 -0.289033 -2.28983 0
M  V30 1247 C 117.209 0.601324 -1.54833 0
M  V30 1248 O 118.394 0.537253 -1.8308 0
M  V30 1249 C 115.534 0.520623 -3.4115 0
M  V30 1250 C 114.647 -0.394989 -4.3019 0
M  V30 1251 C 113.782 0.426834 -5.29482 0
M  V30 1252 C 112.821 -0.486476 -6.10164 0
M  V30 1253 N 111.958 0.297879 -7.01468 0
M  V30 1254 H 116.798 -1.11519 -2.76347 0
M  V30 1255 H 114.335 -0.56138 -1.35967 0
M  V30 1256 H 116.293 1.00563 -4.04899 0
M  V30 1257 H 114.923 1.31165 -2.9495 0
M  V30 1258 H 113.975 -0.99836 -3.67065 0
M  V30 1259 H 115.287 -1.09612 -4.86607 0
M  V30 1260 H 114.441 0.975205 -5.98811 0
M  V30 1261 H 113.18 1.16136 -4.73671 0
M  V30 1262 H 112.185 -1.04677 -5.39743 0
M  V30 1263 H 113.41 -1.21953 -6.6806 0
M  V30 1264 H 111.356 1.01558 -6.48091 0
M  V30 1265 H 111.273 -0.344318 -7.55216 0
M  V30 1266 H 112.541 0.828131 -7.75089 0
M  V30 1267 N 116.77 1.45427 -0.607355 0
M  V30 1268 C 117.72 2.27612 0.133038 0
M  V30 1269 C 118.704 1.37307 0.838785 0
M  V30 1270 O 119.896 1.61299 0.728813 0
M  V30 1271 C 117.025 3.24173 1.12991 0
M  V30 1272 C 116.111 4.21965 0.425011 0
M  V30 1273 N 116.502 5.02982 -0.533217 0
M  V30 1274 C 114.8 4.40899 0.672593 0
M  V30 1275 C 115.501 5.73931 -0.947518 0
M  V30 1276 N 114.477 5.42819 -0.291321 0
M  V30 1277 H 118.279 2.87649 -0.602935 0
M  V30 1278 H 115.793 1.56576 -0.431006 0
M  V30 1279 H 117.79 3.81783 1.67473 0
M  V30 1280 H 116.45 2.65696 1.86644 0
M  V30 1281 H 117.461 5.09843 -0.90995 0
M  V30 1282 H 114.138 3.93547 1.39382 0
M  V30 1283 H 115.528 6.49037 -1.73782 0
M  V30 1284 N 118.248 0.346503 1.53744 0
M  V30 1285 C 119.181 -0.552023 2.21423 0
M  V30 1286 C 120.159 -1.09798 1.19929 0
M  V30 1287 O 121.343 -1.1577 1.4876 0
M  V30 1288 C 118.47 -1.75972 2.89398 0
M  V30 1289 C 117.516 -1.34295 4.04805 0
M  V30 1290 S 118.349 -0.360263 5.34287 0
M  V30 1291 C 119.505 -1.57473 6.05767 0
M  V30 1292 H 119.738 0.0228119 2.97291 0
M  V30 1293 H 117.271 0.130579 1.53847 0
M  V30 1294 H 119.229 -2.45256 3.2918 0
M  V30 1295 H 117.89 -2.30578 2.1329 0
M  V30 1296 H 117.083 -2.24349 4.51313 0
M  V30 1297 H 116.685 -0.729555 3.66815 0
M  V30 1298 H 118.977 -2.50875 6.29339 0
M  V30 1299 H 119.92 -1.15138 6.98676 0
M  V30 1300 H 120.328 -1.77212 5.35963 0
M  V30 1301 N 119.726 -1.57421 0.075193 0
M  V30 1302 C 121.142 -1.57099 -0.281444 0
M  V30 1303 C 121.342 -1.08486 -1.69803 0
M  V30 1304 O 120.398 -0.752279 -2.41033 0
M  V30 1305 C 121.711 -3.00571 -0.0880041 0
M  V30 1306 C 123.259 -3.12605 -0.157281 0
M  V30 1307 C 123.734 -4.57999 0.0079207 0
M  V30 1308 N 125.225 -4.63176 -0.0475725 0
M  V30 1309 C 125.96 -5.73373 0.0557876 0
M  V30 1310 N 125.456 -6.92473 0.21286 0
M  V30 1311 N 127.249 -5.621 -0.00152098 0
M  V30 1312 H 119.4 -1.87335 1.00098 0
M  V30 1313 H 121.663 -0.86377 0.390646 0
M  V30 1314 H 121.369 -3.40262 0.889629 0
M  V30 1315 H 121.243 -3.67754 -0.838875 0
M  V30 1316 H 123.63 -2.72798 -1.1254 0
M  V30 1317 H 123.711 -2.48053 0.62475 0
M  V30 1318 H 123.355 -4.98496 0.972824 0
M  V30 1319 H 123.285 -5.20586 -0.793556 0
M  V30 1320 H 125.776 -3.7753 -0.167244 0
M  V30 1321 H 126.089 -7.72279 0.283781 0
M  V30 1322 H 124.434 -6.94556 0.248267 0
M  V30 1323 H 127.625 -4.67938 -0.122958 0
M  V30 1324 H 127.798 -6.47948 0.0824844 0
M  V30 1325 N 121.204 0.198386 -1.56346 0
M  V30 1326 C 122.154 1.2499 -1.90687 0
M  V30 1327 C 123.138 1.41158 -0.772217 0
M  V30 1328 O 124.33 1.43584 -1.03502 0
M  V30 1329 C 121.459 2.59542 -2.24706 0
M  V30 1330 C 120.545 2.47181 -3.44619 0
M  V30 1331 N 120.936 2.04495 -4.62618 0
M  V30 1332 C 119.234 2.78082 -3.48692 0
M  V30 1333 C 119.935 2.03945 -5.44776 0
M  V30 1334 N 118.911 2.45323 -4.85095 0
M  V30 1335 H 122.713 0.911149 -2.7942 0
M  V30 1336 H 120.227 0.40684 -1.57221 0
M  V30 1337 H 122.224 3.3549 -2.47491 0
M  V30 1338 H 120.884 2.94244 -1.37298 0
M  V30 1339 H 121.895 1.75256 -4.87345 0
M  V30 1340 H 118.572 3.17002 -2.71691 0
M  V30 1341 H 119.962 1.72872 -6.4928 0
M  V30 1342 N 122.682 1.50554 0.465978 0
M  V30 1343 C 123.592 1.72585 1.58907 0
M  V30 1344 C 124.608 0.60911 1.6299 0
M  V30 1345 O 125.784 0.88804 1.80765 0
M  V30 1346 C 122.849 1.81995 2.95091 0
M  V30 1347 C 121.91 3.05751 3.01355 0
M  V30 1348 C 121.143 3.14702 4.31043 0
M  V30 1349 O 121.366 2.30313 5.21835 0
M  V30 1350 O 120.3 4.07468 4.43005 0
M  V30 1351 H 124.126 2.67799 1.43239 0
M  V30 1352 H 121.711 1.34711 0.646013 0
M  V30 1353 H 123.593 1.90335 3.75966 0
M  V30 1354 H 122.268 0.899659 3.10947 0
M  V30 1355 H 121.175 3.02908 2.19539 0
M  V30 1356 H 122.508 3.97375 2.90437 0
M  V30 1357 N 124.16 -0.719506 1.40217 0
M  V30 1358 C 125.108 -1.85493 1.40339 0
M  V30 1359 C 126.102 -1.66995 0.284415 0
M  V30 1360 O 127.308 -1.74148 0.455252 0
M  V30 1361 H 123.683 -0.610857 0.438586 0
M  V30 1362 H 125.654 -1.82506 2.36081 0
M  V30 1363 C 124.403 -3.23321 1.27901 0
M  V30 1364 H 123.726 -3.38159 2.1328 0
M  V30 1365 H 125.166 -4.02914 1.32045 0
M  V30 1366 C 123.625 -3.36898 -0.0111355 0
M  V30 1367 O 124.155 -3.89674 -0.975538 0
M  V30 1368 N 122.361 -2.90492 -0.0793393 0
M  V30 1369 H 121.908 -2.47731 0.706183 0
M  V30 1370 H 121.866 -2.99955 -0.942038 0
M  V30 1371 N 125.638 -1.25649 -0.95132 0
M  V30 1372 C 126.884 -1.10757 -1.69884 0
M  V30 1373 C 127.217 0.350061 -1.91019 0
M  V30 1374 O 126.492 1.25783 -1.48354 0
M  V30 1375 C 126.775 -1.86606 -3.07978 0
M  V30 1376 C 126.628 -3.40217 -2.94232 0
M  V30 1377 C 127.947 -1.65182 -4.07925 0
M  V30 1378 H 125.066 -0.40374 -0.616574 0
M  V30 1379 H 127.708 -1.54521 -1.10558 0
M  V30 1380 H 125.858 -1.49409 -3.58621 0
M  V30 1381 H 127.53 -3.87108 -2.50889 0
M  V30 1382 H 125.773 -3.67759 -2.30078 0
M  V30 1383 H 126.444 -3.88505 -3.92133 0
M  V30 1384 H 128.92 -1.9757 -3.66204 0
M  V30 1385 H 127.796 -2.20683 -5.02583 0
M  V30 1386 H 128.057 -0.593933 -4.38092 0
M  V30 1387 N 127.117 1.15442 -1.07289 0
M  V30 1388 C 128.366 1.85557 -0.790669 0
M  V30 1389 C 128.679 1.83186 0.685739 0
M  V30 1390 O 129.885 2.48977 1.0827 0
M  V30 1391 C 128.341 3.33038 -1.36433 0
M  V30 1392 C 127.949 3.43856 -2.8717 0
M  V30 1393 C 129.693 4.0834 -1.1601 0
M  V30 1394 C 127.6 4.85482 -3.3773 0
M  V30 1395 H 126.53 0.695122 -0.292098 0
M  V30 1396 H 129.181 1.30219 -1.29287 0
M  V30 1397 H 127.563 3.88043 -0.789864 0
M  V30 1398 H 128.737 2.98961 -3.50655 0
M  V30 1399 H 127.052 2.81998 -3.06376 0
M  V30 1400 H 129.649 5.12859 -1.51262 0
M  V30 1401 H 129.992 4.16182 -0.0991007 0
M  V30 1402 H 130.525 3.59603 -1.70089 0
M  V30 1403 H 127.264 4.82823 -4.43353 0
M  V30 1404 H 126.784 5.30961 -2.78999 0
M  V30 1405 H 128.463 5.54335 -3.33648 0
M  V30 1406 N 128.595 0.856903 1.32268 0
M  V30 1407 C 129.843 0.460474 1.96784 0
M  V30 1408 C 130.164 -0.987701 1.68135 0
M  V30 1409 O 129.434 -1.69058 0.989765 0
M  V30 1410 H 128.014 0.167289 0.728027 0
M  V30 1411 H 130.676 1.09383 1.61312 0
M  V30 1412 H 129.772 0.60739 3.06133 0
M  V30 1413 N 130.073 -1.45103 0.615059 0
M  V30 1414 C 131.003 -2.33339 -0.0865619 0
M  V30 1415 C 131.984 -1.4727 -0.851209 0
M  V30 1416 O 133.169 -1.76026 -0.820281 0
M  V30 1417 C 130.299 -3.30095 -1.07956 0
M  V30 1418 C 129.253 -4.25858 -0.427628 0
M  V30 1419 C 128.579 -5.12361 -1.5294 0
M  V30 1420 C 129.879 -5.18165 0.655944 0
M  V30 1421 H 131.573 -2.92254 0.650224 0
M  V30 1422 H 129.119 -1.40532 0.314138 0
M  V30 1423 H 131.072 -3.90698 -1.57901 0
M  V30 1424 H 129.796 -2.69355 -1.84703 0
M  V30 1425 H 128.455 -3.66564 0.0510292 0
M  V30 1426 H 128.103 -4.47984 -2.28734 0
M  V30 1427 H 127.803 -5.77238 -1.09865 0
M  V30 1428 H 129.327 -5.75833 -2.03098 0
M  V30 1429 H 130.741 -5.72796 0.240257 0
M  V30 1430 H 129.138 -5.91559 1.00888 0
M  V30 1431 H 130.208 -4.60144 1.52957 0
M  V30 1432 N 131.551 -0.354651 -1.53558 0
M  V30 1433 C 132.481 0.489091 -2.2832 0
M  V30 1434 C 133.462 1.09324 -1.30316 0
M  V30 1435 O 134.647 1.11255 -1.59173 0
M  V30 1436 C 131.777 1.63456 -3.0643 0
M  V30 1437 C 130.731 1.1582 -4.12031 0
M  V30 1438 C 130.057 2.39305 -4.7816 0
M  V30 1439 C 131.357 0.250731 -5.21698 0
M  V30 1440 H 133.051 -0.134614 -2.99097 0
M  V30 1441 H 130.597 -0.0661826 -1.43848 0
M  V30 1442 H 132.55 2.23136 -3.57475 0
M  V30 1443 H 131.274 2.28533 -2.33325 0
M  V30 1444 H 129.933 0.584146 -3.61916 0
M  V30 1445 H 129.581 3.02814 -4.01637 0
M  V30 1446 H 129.281 2.08109 -5.49513 0
M  V30 1447 H 130.805 2.99691 -5.31994 0
M  V30 1448 H 132.219 0.754695 -5.68311 0
M  V30 1449 H 130.616 0.0301468 -6.00092 0
M  V30 1450 H 131.686 -0.710125 -4.79672 0
M  V30 1451 N 133.029 1.57378 -0.0835403 0
M  V30 1452 C 134.306 1.85363 0.624507 0
M  V30 1453 C 134.686 0.978239 1.87066 0
M  V30 1454 O 134.034 0.0475908 2.2845 0
M  V30 1455 C 134.244 3.35795 0.950947 0
M  V30 1456 C 135.592 4.03581 1.31939 0
M  V30 1457 O 136.616 3.40609 1.04232 0
M  V30 1458 O 135.475 5.14672 1.83779 0
M  V30 1459 H 132.569 0.766162 0.311329 0
M  V30 1460 H 135.115 1.69307 -0.115362 0
M  V30 1461 H 133.887 3.91244 0.0663899 0
M  V30 1462 H 133.51 3.57154 1.74719 0
M  V30 1463 N 134.507 -0.190092 1.56449 0
M  V30 1464 C 135.753 -0.911052 1.81184 0
M  V30 1465 C 136.086 -1.82699 0.658396 0
M  V30 1466 O 135.361 -1.91491 -0.340775 0
M  V30 1467 C 135.644 -1.72297 3.16205 0
M  V30 1468 C 135.497 -0.831419 4.42049 0
M  V30 1469 C 136.816 -2.69454 3.47969 0
M  V30 1470 H 133.935 -0.32977 0.659106 0
M  V30 1471 H 136.577 -0.178169 1.89163 0
M  V30 1472 H 134.727 -2.34778 3.09534 0
M  V30 1473 H 136.399 -0.220929 4.60771 0
M  V30 1474 H 134.642 -0.138406 4.33579 0
M  V30 1475 H 135.313 -1.43461 5.33032 0
M  V30 1476 H 137.789 -2.17104 3.54972 0
M  V30 1477 H 136.665 -3.23342 4.43555 0
M  V30 1478 H 136.926 -3.48744 2.71717 0
M  V30 1479 N 135.985 -1.50799 -0.457987 0
M  V30 1480 C 137.232 -1.62442 -1.20908 0
M  V30 1481 C 137.56 -0.330865 -1.91665 0
M  V30 1482 O 136.815 0.68401 -1.83357 0
M  V30 1483 C 137.114 -2.76358 -2.2663 0
M  V30 1484 C 136.78 -4.16378 -1.73033 0
M  V30 1485 C 135.442 -4.54473 -1.58138 0
M  V30 1486 C 137.794 -5.03836 -1.33413 0
M  V30 1487 C 135.122 -5.77754 -1.02065 0
M  V30 1488 C 137.474 -6.27676 -0.78778 0
M  V30 1489 C 136.138 -6.64562 -0.625561 0
M  V30 1490 H 135.408 -0.594417 -0.442435 0
M  V30 1491 H 138.055 -1.84772 -0.503136 0
M  V30 1492 H 136.36 -2.48167 -3.03184 0
M  V30 1493 H 138.057 -2.82568 -2.84528 0
M  V30 1494 H 134.647 -3.86331 -1.85598 0
M  V30 1495 H 138.831 -4.75026 -1.4375 0
M  V30 1496 H 134.087 -6.04997 -0.882547 0
M  V30 1497 H 138.261 -6.94797 -0.472177 0
M  V30 1498 H 135.888 -7.59965 -0.188926 0
M  V30 1499 N 137.463 0.71206 -1.40597 0
M  V30 1500 C 138.691 1.50111 -1.42388 0
M  V30 1501 C 139.106 1.88784 -0.0245395 0
M  V30 1502 O 138.463 1.55681 0.952351 0
M  V30 1503 C 138.514 2.7742 -2.31776 0
M  V30 1504 O 138.235 2.40382 -3.66262 0
M  V30 1505 C 139.736 3.7129 -2.42196 0
M  V30 1506 H 136.956 0.46314 -0.485533 0
M  V30 1507 H 139.5 0.878068 -1.8469 0
M  V30 1508 H 137.655 3.36001 -1.92827 0
M  V30 1509 H 138.069 3.22324 -4.13772 0
M  V30 1510 H 139.543 4.57448 -3.08943 0
M  V30 1511 H 140.02 4.14641 -1.44809 0
M  V30 1512 H 140.626 3.18619 -2.81712 0
M  V30 1513 N 138.941 1.26152 0.944643 0
M  V30 1514 C 140.352 1.10454 1.50522 0
M  V30 1515 C 140.703 -0.31635 1.93633 0
M  V30 1516 O 139.828 -1.20746 1.79581 0
M  V30 1517 C 140.423 1.99891 2.73549 0
M  V30 1518 C 138.982 1.88348 3.25886 0
M  V30 1519 C 138.129 1.93447 1.9868 0
M  V30 1520 H 141.08 1.39292 0.760489 0
M  V30 1521 H 141.101 1.54477 3.47732 0
M  V30 1522 H 140.613 3.03297 2.42141 0
M  V30 1523 H 138.714 0.878636 3.62092 0
M  V30 1524 H 138.827 2.73696 3.93227 0
M  V30 1525 H 137.191 1.37456 2.14425 0
M  V30 1526 H 137.974 2.98476 1.69607 0
M  V30 1527 N 140.419 -1.14872 1.07899 0
M  V30 1528 C 141.696 -1.81928 0.71845 0
M  V30 1529 C 142.076 -1.95417 -0.798455 0
M  V30 1530 O 141.424 -1.50997 -1.715 0
M  V30 1531 C 141.634 -3.17937 1.43935 0
M  V30 1532 C 142.982 -3.93501 1.59506 0
M  V30 1533 O 144.006 -3.27509 1.40058 0
M  V30 1534 O 142.865 -5.1183 1.91551 0
M  V30 1535 H 139.959 -0.78628 0.256305 0
M  V30 1536 H 142.505 -1.21934 1.18026 0
M  V30 1537 H 141.277 -3.0325 2.47295 0
M  V30 1538 H 140.9 -3.85619 0.968687 0
M  V30 1539 N 141.898 -0.863906 -1.31812 0
M  V30 1540 C 142.808 -0.318461 -2.32428 0
M  V30 1541 C 143.824 0.568496 -1.64451 0
M  V30 1542 O 145 0.46666 -1.95919 0
M  V30 1543 C 142.065 0.476355 -3.43412 0
M  V30 1544 C 141.126 -0.43784 -4.27061 0
M  V30 1545 C 140.359 0.319138 -5.32745 0
M  V30 1546 O 140.582 1.54799 -5.48993 0
M  V30 1547 O 139.516 -0.319861 -6.01049 0
M  V30 1548 H 143.342 -1.15229 -2.80991 0
M  V30 1549 H 140.927 -0.627103 -1.35602 0
M  V30 1550 H 142.809 0.927156 -4.11074 0
M  V30 1551 H 141.484 1.28683 -2.97022 0
M  V30 1552 H 140.391 -0.937013 -3.62175 0
M  V30 1553 H 141.724 -1.21375 -4.77 0
M  V30 1554 N 143.376 1.44774 -0.622745 0
M  V30 1555 C 144.604 2.06487 -0.130722 0
M  V30 1556 C 145.019 1.46476 1.19123 0
M  V30 1557 O 144.376 0.584502 1.72887 0
M  V30 1558 C 144.427 3.615 -0.000807207 0
M  V30 1559 O 144.148 4.19274 -1.27048 0
M  V30 1560 C 145.649 4.40229 0.520898 0
M  V30 1561 H 142.869 0.666704 -0.0758106 0
M  V30 1562 H 145.413 1.85779 -0.854774 0
M  V30 1563 H 143.568 3.81498 0.673643 0
M  V30 1564 H 143.982 5.12622 -1.1099 0
M  V30 1565 H 145.456 5.49144 0.560838 0
M  V30 1566 H 145.933 4.1108 1.54627 0
M  V30 1567 H 146.539 4.25131 -0.120018 0
M  V30 1568 N 144.854 0.36279 1.53368 0
M  V30 1569 C 145.784 -0.476976 2.28576 0
M  V30 1570 C 146.765 -1.08631 1.30894 0
M  V30 1571 O 147.95 -1.10409 1.59761 0
M  V30 1572 C 145.08 -1.61828 3.07293 0
M  V30 1573 C 144.034 -1.13633 4.1264 0
M  V30 1574 C 143.36 -2.36766 4.79423 0
M  V30 1575 C 144.66 -0.223061 5.21823 0
M  V30 1576 H 146.354 0.150474 2.99022 0
M  V30 1577 H 143.9 0.0738103 1.43811 0
M  V30 1578 H 145.853 -2.21237 3.58653 0
M  V30 1579 H 144.577 -2.27292 2.34533 0
M  V30 1580 H 143.236 -0.564945 3.62221 0
M  V30 1581 H 142.884 -3.0068 4.03238 0
M  V30 1582 H 142.584 -2.05192 5.50609 0
M  V30 1583 H 144.108 -2.96865 5.33576 0
M  V30 1584 H 145.522 -0.724545 5.68703 0
M  V30 1585 H 143.919 0.001678 6.001 0
M  V30 1586 H 144.989 0.735553 4.79289 0
M  V30 1587 N 146.332 -1.57332 0.0918853 0
M  V30 1588 C 147.609 -1.85691 -0.614668 0
M  V30 1589 C 147.989 -0.988146 -1.86545 0
M  V30 1590 O 147.337 -0.0597055 -2.28422 0
M  V30 1591 C 147.547 -3.36294 -0.933126 0
M  V30 1592 C 148.895 -4.04275 -1.29796 0
M  V30 1593 O 149.919 -3.41157 -1.02424 0
M  V30 1594 O 148.778 -5.1564 -1.81047 0
M  V30 1595 H 145.872 -0.767802 -0.307261 0
M  V30 1596 H 148.418 -1.69244 0.12434 0
M  V30 1597 H 147.19 -3.91273 -0.0456404 0
M  V30 1598 H 146.813 -3.58076 -1.72822 0
M  V30 1599 N 147.81 0.181792 -1.56548 0
M  V30 1600 C 149.087 0.926765 -1.72251 0
M  V30 1601 C 149.467 2.00831 -0.650386 0
M  V30 1602 O 148.815 2.26008 0.336521 0
M  V30 1603 C 149.025 1.50106 -3.1507 0
M  V30 1604 C 150.373 1.97805 -3.75711 0
M  V30 1605 O 151.397 1.59922 -3.18282 0
M  V30 1606 O 150.256 2.67555 -4.76525 0
M  V30 1607 H 147.35 0.435506 -0.703039 0
M  V30 1608 H 149.896 0.170443 -1.68842 0
M  V30 1609 H 148.668 0.72212 -3.84579 0
M  V30 1610 H 148.291 2.32186 -3.22763 0
M  V30 1611 N 149.288 1.51039 0.449983 0
M  V30 1612 C 150.535 1.63081 1.20045 0
M  V30 1613 C 150.863 0.341024 1.91487 0
M  V30 1614 O 150.118 -0.674276 1.83717 0
M  V30 1615 C 150.417 2.77556 2.25161 0
M  V30 1616 C 150.083 4.17289 1.70823 0
M  V30 1617 C 148.745 4.55305 1.55725 0
M  V30 1618 C 151.097 5.04536 1.3074 0
M  V30 1619 C 148.425 5.78287 0.989999 0
M  V30 1620 C 150.777 6.28085 0.754482 0
M  V30 1621 C 149.441 6.64885 0.590308 0
M  V30 1622 H 148.711 0.596755 0.439277 0
M  V30 1623 H 151.358 1.85037 0.49333 0
M  V30 1624 H 149.663 2.49771 3.01863 0
M  V30 1625 H 151.36 2.84073 2.83026 0
M  V30 1626 H 147.95 3.8731 1.83546 0
M  V30 1627 H 152.134 4.75782 1.41229 0
M  V30 1628 H 147.39 6.05456 0.850451 0
M  V30 1629 H 151.564 6.95038 0.435324 0
M  V30 1630 H 149.191 7.60055 0.14862 0
M  V30 1631 N 150.766 -0.704594 1.40972 0
M  V30 1632 C 151.994 -1.49354 1.43182 0
M  V30 1633 C 152.409 -1.88768 0.0345508 0
M  V30 1634 O 151.766 -1.56184 -0.944081 0
M  V30 1635 C 151.817 -2.76187 2.33244 0
M  V30 1636 O 151.538 -2.38436 3.67532 0
M  V30 1637 C 153.039 -3.7 2.44162 0
M  V30 1638 H 150.259 -0.460559 0.487982 0
M  V30 1639 H 152.803 -0.868261 1.85153 0
M  V30 1640 H 150.958 -3.34974 1.94606 0
M  V30 1641 H 151.372 -3.20126 4.15475 0
M  V30 1642 H 152.846 -4.55803 3.11364 0
M  V30 1643 H 153.323 -4.13867 1.47006 0
M  V30 1644 H 153.929 -3.17121 2.83398 0
M  V30 1645 N 152.244 -1.26651 -0.937939 0
M  V30 1646 C 153.521 -1.0313 -1.66204 0
M  V30 1647 C 153.901 0.437256 -2.06522 0
M  V30 1648 O 153.249 1.41831 -1.79154 0
M  V30 1649 C 153.459 -1.98314 -2.87181 0
M  V30 1650 C 154.807 -2.27107 -3.58758 0
M  V30 1651 O 155.831 -1.96205 -2.97291 0
M  V30 1652 O 154.69 -2.79736 -4.69479 0
M  V30 1653 H 151.784 -0.392384 -0.727986 0
M  V30 1654 H 154.33 -1.37874 -0.989382 0
M  V30 1655 H 153.102 -2.97399 -2.54302 0
M  V30 1656 H 152.725 -1.64068 -3.6217 0
M  V30 1657 N 153.722 1.14298 -1.08507 0
M  V30 1658 C 154.969 1.85359 -0.815373 0
M  V30 1659 C 155.297 1.83001 0.658865 0
M  V30 1660 O 154.552 1.25655 1.50031 0
M  V30 1661 C 154.851 3.33547 -1.28379 0
M  V30 1662 C 154.517 3.56093 -2.76602 0
M  V30 1663 C 153.179 3.61955 -3.17084 0
M  V30 1664 C 155.531 3.64834 -3.72217 0
M  V30 1665 C 152.859 3.74082 -4.51973 0
M  V30 1666 C 155.211 3.78487 -5.06883 0
M  V30 1667 C 153.875 3.82598 -5.46969 0
M  V30 1668 H 153.145 0.678276 -0.298366 0
M  V30 1669 H 155.792 1.35002 -1.35819 0
M  V30 1670 H 154.097 3.86191 -0.660593 0
M  V30 1671 H 155.794 3.86959 -1.05186 0
M  V30 1672 H 152.384 3.52179 -2.4427 0
M  V30 1673 H 156.568 3.59595 -3.42061 0
M  V30 1674 H 151.824 3.75527 -4.82483 0
M  V30 1675 H 155.998 3.84193 -5.80834 0
M  V30 1676 H 153.625 3.91747 -6.51489 0
M  V30 1677 N 155.201 0.870884 1.31352 0
M  V30 1678 C 156.431 0.496049 2.00557 0
M  V30 1679 C 156.839 -0.916241 1.65534 0
M  V30 1680 O 156.182 -1.61188 0.881134 0
M  V30 1681 C 156.244 0.574418 3.54881 0
M  V30 1682 C 155.908 1.94849 4.1338 0
M  V30 1683 C 156.905 2.91611 4.30417 0
M  V30 1684 C 154.59 2.25005 4.49086 0
M  V30 1685 C 156.584 4.16672 4.82352 0
M  V30 1686 C 154.271 3.50315 5.00722 0
M  V30 1687 C 155.269 4.45964 5.17306 0
M  V30 1688 O 154.957 5.69052 5.67833 0
M  V30 1689 H 154.689 0.191664 0.64826 0
M  V30 1690 H 157.243 1.17409 1.68536 0
M  V30 1691 H 155.473 -0.160549 3.86367 0
M  V30 1692 H 157.162 0.212879 4.05341 0
M  V30 1693 H 157.928 2.69622 4.03149 0
M  V30 1694 H 153.807 1.51332 4.35453 0
M  V30 1695 H 157.351 4.91336 4.95211 0
M  V30 1696 H 153.248 3.72147 5.27424 0
M  V30 1697 H 154.016 5.71236 5.86201 0
M  V30 1698 N 156.679 -1.44442 0.630414 0
M  V30 1699 C 157.609 -2.33418 -0.0618083 0
M  V30 1700 C 158.59 -1.48165 -0.835541 0
M  V30 1701 O 159.775 -1.76886 -0.801564 0
M  V30 1702 C 156.905 -3.31222 -1.04449 0
M  V30 1703 C 155.859 -4.26288 -0.382436 0
M  V30 1704 C 155.185 -5.13954 -1.47497 0
M  V30 1705 C 156.485 -5.1744 0.710865 0
M  V30 1706 H 158.179 -2.91548 0.681184 0
M  V30 1707 H 155.725 -1.40191 0.329026 0
M  V30 1708 H 157.678 -3.92351 -1.53748 0
M  V30 1709 H 156.402 -2.71299 -1.81836 0
M  V30 1710 H 155.061 -3.6649 0.0899054 0
M  V30 1711 H 154.709 -4.50385 -2.2397 0
M  V30 1712 H 154.409 -5.7837 -1.03737 0
M  V30 1713 H 155.933 -5.77955 -1.96979 0
M  V30 1714 H 157.347 -5.72509 0.300996 0
M  V30 1715 H 155.744 -5.90455 1.07156 0
M  V30 1716 H 156.814 -4.58496 1.57829 0
M  V30 1717 N 158.157 -0.370918 -1.53173 0
M  V30 1718 C 159.403 0.217423 -2.01631 0
M  V30 1719 C 159.736 1.47983 -1.25756 0
M  V30 1720 O 159.011 1.91274 -0.352764 0
M  V30 1721 C 159.294 0.503982 -3.56556 0
M  V30 1722 C 159.147 -0.77243 -4.43118 0
M  V30 1723 C 160.466 1.30234 -4.20389 0
M  V30 1724 H 157.585 0.0775486 -0.732909 0
M  V30 1725 H 160.227 -0.496863 -1.83388 0
M  V30 1726 H 158.377 1.11248 -3.72231 0
M  V30 1727 H 160.049 -1.4098 -4.39229 0
M  V30 1728 H 158.292 -1.39167 -4.10871 0
M  V30 1729 H 158.963 -0.526815 -5.4948 0
M  V30 1730 H 161.439 0.787546 -4.08579 0
M  V30 1731 H 160.315 1.47158 -5.28806 0
M  V30 1732 H 160.576 2.31237 -3.76805 0
M  V30 1733 N 159.635 1.57281 -0.100228 0
M  V30 1734 C 160.568 2.09976 0.893612 0
M  V30 1735 C 161.546 1.01155 1.27304 0
M  V30 1736 O 162.73 1.28687 1.37739 0
M  V30 1737 C 159.857 2.58098 2.19324 0
M  V30 1738 C 158.903 3.78626 1.96328 0
M  V30 1739 S 159.736 5.21959 1.19662 0
M  V30 1740 C 160.892 5.73435 2.50844 0
M  V30 1741 H 161.125 2.93946 0.44534 0
M  V30 1742 H 158.658 1.53985 0.113167 0
M  V30 1743 H 160.616 2.8648 2.94005 0
M  V30 1744 H 159.277 1.74344 2.61272 0
M  V30 1745 H 158.47 4.10382 2.92579 0
M  V30 1746 H 158.072 3.50763 1.29775 0
M  V30 1747 H 160.364 5.82015 3.46792 0
M  V30 1748 H 161.307 6.7185 2.23659 0
M  V30 1749 H 161.715 5.01395 2.59352 0
M  V30 1750 N 161.113 -0.173488 1.56642 0
M  V30 1751 C 162.524 -0.736155 1.71574 0
M  V30 1752 C 162.875 -1.82888 0.710389 0
M  V30 1753 O 162 -2.16017 -0.1287 0
M  V30 1754 C 162.595 -1.34211 3.11083 0
M  V30 1755 C 161.154 -1.85162 3.27707 0
M  V30 1756 C 160.301 -0.729765 2.67525 0
M  V30 1757 H 163.252 0.0518786 1.58615 0
M  V30 1758 H 163.273 -2.21178 3.09613 0
M  V30 1759 H 162.785 -0.546579 3.84232 0
M  V30 1760 H 160.886 -2.67366 2.59512 0
M  V30 1761 H 160.999 -1.99855 4.35425 0
M  V30 1762 H 159.363 -1.14965 2.27278 0
M  V30 1763 H 160.146 0.0538806 3.43258 0
M  V30 1764 N 162.591 -1.51276 -0.441967 0
M  V30 1765 C 163.838 -1.63715 -1.19179 0
M  V30 1766 C 164.166 -0.351175 -1.91303 0
M  V30 1767 O 163.421 0.664524 -1.84072 0
M  V30 1768 C 163.72 -2.78746 -2.23686 0
M  V30 1769 C 163.386 -4.18189 -1.68607 0
M  V30 1770 C 162.048 -4.56125 -1.53308 0
M  V30 1771 C 164.4 -5.05222 -1.28062 0
M  V30 1772 C 161.728 -5.78804 -0.959317 0
M  V30 1773 C 164.08 -6.28476 -0.721162 0
M  V30 1774 C 162.744 -6.65188 -0.55504 0
M  V30 1775 H 162.014 -0.599076 -0.436106 0
M  V30 1776 H 164.661 -1.85296 -0.48351 0
M  V30 1777 H 162.966 -2.51369 -3.00535 0
M  V30 1778 H 164.663 -2.8557 -2.81515 0
M  V30 1779 H 161.253 -3.88277 -1.8149 0
M  V30 1780 H 165.437 -4.76524 -1.38704 0
M  V30 1781 H 160.693 -6.05899 -0.81833 0
M  V30 1782 H 164.867 -6.95259 -0.398458 0
M  V30 1783 H 162.494 -7.60123 -0.108311 0
M  V30 1784 N 164.069 0.697108 -1.41344 0
M  V30 1785 C 165.002 1.82134 -1.37486 0
M  V30 1786 C 165.98 1.60784 -0.242351 0
M  V30 1787 O 167.164 1.83553 -0.429012 0
M  V30 1788 C 164.291 3.18788 -1.14421 0
M  V30 1789 C 163.337 3.58932 -2.3037 0
M  V30 1790 S 164.17 3.63916 -3.92843 0
M  V30 1791 C 165.326 5.03298 -3.72078 0
M  V30 1792 H 165.559 1.85129 -2.32625 0
M  V30 1793 H 163.092 0.865671 -1.2785 0
M  V30 1794 H 165.05 3.97677 -1.018 0
M  V30 1795 H 163.711 3.13404 -0.20905 0
M  V30 1796 H 162.904 4.58202 -2.09922 0
M  V30 1797 H 162.506 2.87347 -2.39391 0
M  V30 1798 H 164.798 5.90753 -3.31688 0
M  V30 1799 H 165.741 5.28788 -4.70945 0
M  V30 1800 H 166.149 4.74764 -3.05384 0
M  V30 1801 N 165.547 1.27147 0.931209 0
M  V30 1802 C 166.795 1.13055 1.6752 0
M  V30 1803 C 167.116 -0.324791 1.92276 0
M  V30 1804 O 166.386 -1.22775 1.52654 0
M  V30 1805 H 164.966 0.415391 0.620854 0
M  V30 1806 H 167.628 1.59623 1.11833 0
M  V30 1807 H 166.724 1.65694 2.64485 0
M  V30 1808 N 167.025 -1.13721 1.09112 0
M  V30 1809 C 168.253 -1.88773 0.846899 0
M  V30 1810 C 168.668 -1.7896 -0.601572 0
M  V30 1811 O 168.025 -1.15394 -1.41388 0
M  V30 1812 C 168.076 -3.3849 1.26913 0
M  V30 1813 O 167.797 -3.48043 2.66079 0
M  V30 1814 C 169.298 -4.30518 1.05682 0
M  V30 1815 H 166.518 -0.59772 0.304914 0
M  V30 1816 H 169.062 -1.43977 1.45227 0
M  V30 1817 H 167.217 -3.80881 0.707723 0
M  V30 1818 H 167.631 -4.4109 2.83795 0
M  V30 1819 H 169.105 -5.3391 1.40156 0
M  V30 1820 H 169.582 -4.392 -0.00563416 0
M  V30 1821 H 170.188 -3.93893 1.60402 0
M  V30 1822 N 168.503 -0.877838 -1.30888 0
M  V30 1823 C 169.78 -0.413052 -1.91189 0
M  V30 1824 C 170.16 1.1056 -1.79832 0
M  V30 1825 O 169.508 1.93771 -1.21099 0
M  V30 1826 C 169.718 -0.903191 -3.3711 0
M  V30 1827 C 171.066 -0.93395 -4.14201 0
M  V30 1828 O 172.09 -0.849373 -3.45925 0
M  V30 1829 O 170.949 -1.05772 -5.36167 0
M  V30 1830 H 168.043 -0.125035 -0.817493 0
M  V30 1831 H 170.589 -0.966269 -1.39504 0
M  V30 1832 H 169.361 -1.94692 -3.39427 0
M  V30 1833 H 168.984 -0.328732 -3.96239 0
M  V30 1834 N 169.982 1.44106 -0.638065 0
M  V30 1835 C 170.912 2.33448 0.0494287 0
M  V30 1836 C 171.893 1.48606 0.827672 0
M  V30 1837 O 173.078 1.77308 0.792173 0
M  V30 1838 C 170.208 3.31771 1.02691 0
M  V30 1839 C 169.162 4.26485 0.359823 0
M  V30 1840 C 168.488 5.14729 1.44769 0
M  V30 1841 C 169.788 5.17056 -0.738296 0
M  V30 1842 H 171.482 2.91183 -0.696636 0
M  V30 1843 H 169.028 1.40014 -0.336456 0
M  V30 1844 H 170.981 3.93161 1.51666 0
M  V30 1845 H 169.705 2.7226 1.80395 0
M  V30 1846 H 168.364 3.66437 -0.10934 0
M  V30 1847 H 168.012 4.51566 2.21578 0
M  V30 1848 H 167.712 5.78913 1.00668 0
M  V30 1849 H 169.236 5.78991 1.93911 0
M  V30 1850 H 170.65 5.72342 -0.331354 0
M  V30 1851 H 169.047 5.89879 -1.10286 0
M  V30 1852 H 170.117 4.57652 -1.60258 0
M  V30 1853 N 171.46 0.379036 1.52974 0
M  V30 1854 C 172.708 -0.206014 2.01047 0
M  V30 1855 C 173.029 -1.48175 1.26765 0
M  V30 1856 O 172.299 -1.92085 0.384743 0
M  V30 1857 H 170.879 -0.0791184 0.742798 0
M  V30 1858 H 173.541 0.508366 1.88153 0
M  V30 1859 H 172.637 -0.423501 3.09213 0
M  V30 1860 N 172.938 -1.57226 0.108567 0
M  V30 1861 C 173.885 -2.14756 -0.845481 0
M  V30 1862 C 174.855 -1.06971 -1.27068 0
M  V30 1863 O 176.04 -1.34827 -1.35005 0
M  V30 1864 C 173.18 -2.74298 -2.09415 0
M  V30 1865 C 172.293 -3.96358 -1.71826 0
M  V30 1866 C 171.428 -4.44021 -2.9158 0
M  V30 1867 C 170.467 -5.58637 -2.50181 0
M  V30 1868 N 169.604 -6.01091 -3.62814 0
M  V30 1869 H 174.444 -2.95961 -0.348035 0
M  V30 1870 H 171.981 -1.46226 -0.160106 0
M  V30 1871 H 173.939 -3.06945 -2.82561 0
M  V30 1872 H 172.569 -1.95801 -2.56636 0
M  V30 1873 H 171.621 -3.69939 -0.885947 0
M  V30 1874 H 172.933 -4.79504 -1.37394 0
M  V30 1875 H 172.087 -4.78522 -3.72963 0
M  V30 1876 H 170.826 -3.59803 -3.29231 0
M  V30 1877 H 169.831 -5.23751 -1.67228 0
M  V30 1878 H 171.056 -6.44613 -2.13659 0
M  V30 1879 H 169.002 -5.19817 -4.00158 0
M  V30 1880 H 168.919 -6.79066 -3.32273 0
M  V30 1881 H 170.187 -6.40227 -4.44668 0
M  V30 1882 N 174.416 0.165178 -1.56732 0
M  V30 1883 C 175.346 1.20651 -1.99914 0
M  V30 1884 C 176.327 1.45827 -0.875705 0
M  V30 1885 O 177.512 1.57057 -1.14223 0
M  V30 1886 C 174.642 2.54401 -2.36427 0
M  V30 1887 C 173.596 2.43782 -3.51787 0
M  V30 1888 C 172.922 3.82078 -3.7406 0
M  V30 1889 C 174.222 1.93732 -4.85041 0
M  V30 1890 H 175.916 0.847534 -2.87154 0
M  V30 1891 H 173.462 0.40625 -1.38151 0
M  V30 1892 H 175.415 3.27458 -2.65234 0
M  V30 1893 H 174.139 2.92098 -1.46103 0
M  V30 1894 H 172.798 1.73178 -3.23117 0
M  V30 1895 H 172.446 4.17179 -2.81017 0
M  V30 1896 H 172.146 3.7584 -4.51684 0
M  V30 1897 H 173.67 4.56712 -4.05274 0
M  V30 1898 H 175.084 2.56569 -5.12684 0
M  V30 1899 H 173.481 1.98428 -5.66345 0
M  V30 1900 H 174.551 0.891962 -4.76626 0
M  V30 1901 N 175.894 1.51508 0.433938 0
M  V30 1902 C 176.827 1.67756 1.54704 0
M  V30 1903 C 177.805 0.525127 1.53887 0
M  V30 1904 O 178.989 0.749393 1.72963 0
M  V30 1905 C 176.116 1.69424 2.9328 0
M  V30 1906 C 175.162 2.90673 3.12108 0
M  V30 1907 S 175.995 4.51431 2.88046 0
M  V30 1908 C 177.151 4.55849 4.28897 0
M  V30 1909 H 177.384 2.61904 1.40689 0
M  V30 1910 H 174.917 1.41235 0.62386 0
M  V30 1911 H 176.875 1.7107 3.73156 0
M  V30 1912 H 175.536 0.764464 3.04655 0
M  V30 1913 H 174.729 2.88251 4.13434 0
M  V30 1914 H 174.331 2.86786 2.40062 0
M  V30 1915 H 176.623 4.31699 5.22152 0
M  V30 1916 H 177.566 5.57676 4.36351 0
M  V30 1917 H 177.974 3.85137 4.12711 0
M  V30 1918 N 177.372 -0.689602 1.41712 0
M  V30 1919 C 178.319 -1.80345 1.44029 0
M  V30 1920 C 179.289 -1.63478 0.293948 0
M  V30 1921 O 180.474 -1.84244 0.495869 0
M  V30 1922 C 177.614 -3.18272 1.33405 0
M  V30 1923 C 176.727 -3.46529 2.57956 0
M  V30 1924 C 175.862 -4.74103 2.39582 0
M  V30 1925 C 174.901 -4.95347 3.5958 0
M  V30 1926 N 174.038 -6.14151 3.40239 0
M  V30 1927 H 178.878 -1.77698 2.39222 0
M  V30 1928 H 176.415 -0.867688 1.18784 0
M  V30 1929 H 178.373 -3.97956 1.25246 0
M  V30 1930 H 177.003 -3.2008 0.418164 0
M  V30 1931 H 176.055 -2.61207 2.76542 0
M  V30 1932 H 177.367 -3.58126 3.47199 0
M  V30 1933 H 176.521 -5.61853 2.28924 0
M  V30 1934 H 175.26 -4.64763 1.47805 0
M  V30 1935 H 174.265 -4.06044 3.70686 0
M  V30 1936 H 175.49 -5.06542 4.52318 0
M  V30 1937 H 173.436 -6.06013 2.51167 0
M  V30 1938 H 173.353 -6.26543 4.23061 0
M  V30 1939 H 174.621 -7.04619 3.33365 0
M  V30 1940 N 178.85 -1.27639 -0.924453 0
M  V30 1941 C 179.8 -1.07295 -2.01176 0
M  V30 1942 C 180.784 5.77352e-05 -1.609 0
M  V30 1943 O 181.976 -0.218855 -1.75642 0
M  V30 1944 C 179.105 -0.725592 -3.35544 0
M  V30 1945 C 178.191 -1.83691 -3.82254 0
M  V30 1946 N 178.582 -3.07697 -4.01443 0
M  V30 1947 C 176.88 -1.72433 -4.11319 0
M  V30 1948 C 177.581 -3.80037 -4.40394 0
M  V30 1949 N 176.557 -3.0782 -4.48049 0
M  V30 1950 H 180.359 -2.01399 -2.14046 0
M  V30 1951 H 177.873 -1.18401 -1.11153 0
M  V30 1952 H 179.87 -0.560959 -4.13109 0
M  V30 1953 H 178.53 0.207782 -3.24034 0
M  V30 1954 H 179.541 -3.43424 -3.8766 0
M  V30 1955 H 176.218 -0.862005 -4.08504 0
M  V30 1956 H 177.608 -4.86632 -4.63291 0
M  V30 1957 N 180.328 1.1314 -1.09713 0
M  V30 1958 C 181.238 2.22242 -0.751367 0
M  V30 1959 C 182.254 1.72224 0.247938 0
M  V30 1960 O 183.43 2.01205 0.0885463 0
M  V30 1961 C 180.495 3.46231 -0.180274 0
M  V30 1962 C 179.556 4.11125 -1.2359 0
M  V30 1963 C 178.789 5.29195 -0.691966 0
M  V30 1964 O 179.012 5.68342 0.48414 0
M  V30 1965 O 177.946 5.84214 -1.44838 0
M  V30 1966 H 181.772 2.54197 -1.66186 0
M  V30 1967 H 179.357 1.21331 -0.871735 0
M  V30 1968 H 181.239 4.21185 0.134739 0
M  V30 1969 H 179.914 3.1597 0.703185 0
M  V30 1970 H 178.821 3.37985 -1.60366 0
M  V30 1971 H 180.154 4.45524 -2.09211 0
M  V30 1972 N 181.806 0.884767 1.30421 0
M  V30 1973 C 182.753 0.349642 2.28136 0
M  V30 1974 C 183.723 -0.560061 1.56373 0
M  V30 1975 O 184.908 -0.488524 1.8444 0
M  V30 1976 C 182.048 -0.42999 3.42411 0
M  V30 1977 C 181.161 0.508907 4.28992 0
M  V30 1978 C 180.296 -0.286301 5.30428 0
M  V30 1979 C 179.335 0.648079 6.08659 0
M  V30 1980 N 178.472 -0.111792 7.02011 0
M  V30 1981 H 183.312 1.18807 2.73293 0
M  V30 1982 H 180.849 0.597231 1.3443 0
M  V30 1983 H 182.807 -0.897923 4.07423 0
M  V30 1984 H 181.437 -1.23299 2.98324 0
M  V30 1985 H 180.489 1.09533 3.64289 0
M  V30 1986 H 181.801 1.22475 4.8353 0
M  V30 1987 H 180.955 -0.816098 6.01186 0
M  V30 1988 H 179.694 -1.03536 4.76583 0
M  V30 1989 H 178.699 1.18951 5.36778 0
M  V30 1990 H 179.924 1.39623 6.64592 0
M  V30 1991 H 177.87 -0.843395 6.50556 0
M  V30 1992 H 177.787 0.544429 7.54037 0
M  V30 1993 H 179.055 -0.622339 7.77012 0
M  V30 1994 N 183.284 -1.43765 0.645699 0
M  V30 1995 C 184.214 -2.33471 -0.0370477 0
M  V30 1996 C 185.195 -1.49042 -0.819779 0
M  V30 1997 O 186.38 -1.77726 -0.782758 0
M  V30 1998 C 183.51 -3.32311 -1.0093 0
M  V30 1999 C 182.464 -4.2667 -0.337201 0
M  V30 2000 C 181.79 -5.1549 -1.42037 0
M  V30 2001 C 183.09 -5.16657 0.765706 0
M  V30 2002 H 184.784 -2.90809 0.712069 0
M  V30 2003 H 182.33 -1.39834 0.343876 0
M  V30 2004 H 184.283 -3.9396 -1.49578 0
M  V30 2005 H 183.007 -2.73213 -1.78948 0
M  V30 2006 H 181.666 -3.66374 0.128771 0
M  V30 2007 H 181.314 -4.52735 -2.1918 0
M  V30 2008 H 181.014 -5.79438 -0.975966 0
M  V30 2009 H 182.538 -5.80012 -1.90838 0
M  V30 2010 H 183.952 -5.72158 0.361702 0
M  V30 2011 H 182.349 -5.89286 1.13413 0
M  V30 2012 H 183.419 -4.56796 1.62683 0
M  V30 2013 N 184.763 -0.387143 -1.52771 0
M  V30 2014 C 186.011 0.195349 -2.01154 0
M  V30 2015 C 186.332 1.475 -1.27549 0
M  V30 2016 O 185.602 1.91878 -0.394924 0
M  V30 2017 H 184.182 0.075178 -0.743207 0
M  V30 2018 H 186.844 -0.518337 -1.87881 0
M  V30 2019 H 185.94 0.407096 -3.09434 0
M  V30 2020 N 186.241 1.57166 -0.116904 0
M  V30 2021 C 187.151 2.18745 0.847812 0
M  V30 2022 C 188.167 1.163 1.29423 0
M  V30 2023 O 189.343 1.48761 1.35765 0
M  V30 2024 C 186.408 2.77307 2.0809 0
M  V30 2025 C 185.469 3.94781 1.68661 0
M  V30 2026 C 184.702 4.50541 2.86091 0
M  V30 2027 O 184.925 4.05202 4.01456 0
M  V30 2028 O 183.859 5.41256 2.63298 0
M  V30 2029 H 187.685 3.01632 0.353778 0
M  V30 2030 H 185.27 1.49005 0.108599 0
M  V30 2031 H 187.152 3.14647 2.80313 0
M  V30 2032 H 185.827 1.97452 2.56504 0
M  V30 2033 H 184.734 3.62214 0.935518 0
M  V30 2034 H 186.067 4.76065 1.24991 0
M  V30 2035 N 187.719 -0.156864 1.56817 0
M  V30 2036 C 188.996 -0.899244 1.73704 0
M  V30 2037 C 189.376 -1.99771 0.682254 0
M  V30 2038 O 188.724 -2.26515 -0.300522 0
M  V30 2039 C 188.934 -1.45075 3.17418 0
M  V30 2040 C 190.282 -1.91802 3.7881 0
M  V30 2041 O 191.306 -1.54838 3.20786 0
M  V30 2042 O 190.165 -2.5994 4.80722 0
M  V30 2043 H 187.259 -0.424267 0.709878 0
M  V30 2044 H 189.805 -0.143561 1.69092 0
M  V30 2045 H 188.577 -0.660846 3.85679 0
M  V30 2046 H 188.2 -2.27021 3.26416 0
M  V30 2047 N 189.197 -1.51736 -0.425897 0
M  V30 2048 C 190.613 -1.40166 -0.76326 0
M  V30 2049 C 190.813 -0.492962 -1.95377 0
M  V30 2050 O 189.869 0.0475815 -2.52455 0
M  V30 2051 C 191.182 -2.82403 -1.03291 0
M  V30 2052 C 192.73 -2.91632 -1.13665 0
M  V30 2053 C 193.205 -4.34801 -1.43916 0
M  V30 2054 N 194.696 -4.3796 -1.50816 0
M  V30 2055 C 195.431 -5.4578 -1.75817 0
M  V30 2056 N 194.927 -6.63744 -1.98534 0
M  V30 2057 N 196.72 -5.33274 -1.77694 0
M  V30 2058 H 188.871 -2.09361 0.358 0
M  V30 2059 H 191.134 -0.942941 0.0978094 0
M  V30 2060 H 190.84 -3.50943 -0.230696 0
M  V30 2061 H 190.714 -3.22428 -1.95754 0
M  V30 2062 H 193.101 -2.23284 -1.92947 0
M  V30 2063 H 193.182 -2.55088 -0.190756 0
M  V30 2064 H 192.826 -5.03703 -0.65157 0
M  V30 2065 H 192.756 -4.68868 -2.39729 0
M  V30 2066 H 195.247 -3.52919 -1.35118 0
M  V30 2067 H 195.56 -7.41704 -2.17013 0
M  V30 2068 H 193.905 -6.66839 -1.95832 0
M  V30 2069 H 197.096 -4.40098 -1.59473 0
M  V30 2070 H 197.269 -6.1738 -1.9684 0
M  V30 2071 N 190.675 0.682077 -1.42076 0
M  V30 2072 C 191.924 1.43786 -1.41451 0
M  V30 2073 C 192.237 1.95574 -0.0317074 0
M  V30 2074 O 193.443 2.71326 0.0971462 0
M  V30 2075 C 191.899 2.60071 -2.48779 0
M  V30 2076 C 191.507 2.15013 -3.93031 0
M  V30 2077 C 193.251 3.37626 -2.57311 0
M  V30 2078 C 191.158 3.28336 -4.91883 0
M  V30 2079 H 190.088 0.540143 -0.526082 0
M  V30 2080 H 192.739 0.739157 -1.67955 0
M  V30 2081 H 191.121 3.32275 -2.15429 0
M  V30 2082 H 192.295 1.5001 -4.35699 0
M  V30 2083 H 190.61 1.50416 -3.88284 0
M  V30 2084 H 193.207 4.22012 -3.28345 0
M  V30 2085 H 193.55 3.83727 -1.61429 0
M  V30 2086 H 194.083 2.72488 -2.89819 0
M  V30 2087 H 190.822 2.87234 -5.89217 0
M  V30 2088 H 190.342 3.92145 -4.53853 0
M  V30 2089 H 192.021 3.93913 -5.13265 0
M  V30 2090 N 192.153 1.28127 0.917671 0
M  V30 2091 C 193.085 1.07517 2.02417 0
M  V30 2092 C 194.098 0.0281099 1.62776 0
M  V30 2093 O 195.287 0.270748 1.76435 0
M  V30 2094 C 192.387 0.610957 3.33347 0
M  V30 2095 C 191.56 1.73255 4.01624 0
M  V30 2096 C 190.619 1.26238 5.10833 0
M  V30 2097 O 189.645 1.96389 5.34247 0
M  V30 2098 N 190.847 0.123448 5.80369 0
M  V30 2099 H 193.612 2.02806 2.20658 0
M  V30 2100 H 191.173 1.19827 1.08871 0
M  V30 2101 H 193.165 0.280101 4.0373 0
M  V30 2102 H 191.735 -0.24898 3.11607 0
M  V30 2103 H 190.955 2.23319 3.24842 0
M  V30 2104 H 192.243 2.48503 4.43986 0
M  V30 2105 H 191.641 -0.461847 5.63812 0
M  V30 2106 H 190.198 -0.148158 6.51632 0
M  V30 2107 N 193.631 -1.12557 1.10312 0
M  V30 2108 C 194.878 -1.84038 0.844759 0
M  V30 2109 C 195.206 -1.84026 -0.629668 0
M  V30 2110 O 194.461 -1.28026 -1.48013 0
M  V30 2111 C 194.76 -3.31462 1.33669 0
M  V30 2112 C 194.426 -3.51647 2.82232 0
M  V30 2113 C 193.088 -3.56864 3.22802 0
M  V30 2114 C 195.44 -3.58867 3.77974 0
M  V30 2115 C 192.768 -3.66844 4.57867 0
M  V30 2116 C 195.12 -3.70375 5.1284 0
M  V30 2117 C 193.784 -3.73848 5.52986 0
M  V30 2118 H 193.054 -0.673444 0.309119 0
M  V30 2119 H 195.701 -1.32824 1.37949 0
M  V30 2120 H 194.006 -3.85091 0.721949 0
M  V30 2121 H 195.703 -3.85236 1.11329 0
M  V30 2122 H 192.293 -3.48249 2.49842 0
M  V30 2123 H 196.477 -3.54107 3.47738 0
M  V30 2124 H 191.733 -3.67804 4.88396 0
M  V30 2125 H 195.907 -3.74904 5.86873 0
M  V30 2126 H 193.534 -3.81333 6.57639 0
M  V30 2127 N 195.109 -0.891671 -1.2995 0
M  V30 2128 C 196.039 -0.379797 -2.30391 0
M  V30 2129 C 197.02 0.540919 -1.6127 0
M  V30 2130 O 198.205 0.453352 -1.88834 0
M  V30 2131 C 195.335 0.400654 -3.44981 0
M  V30 2132 C 194.289 -0.428905 -4.25846 0
M  V30 2133 C 193.615 0.478557 -5.32554 0
M  V30 2134 C 194.915 -1.67458 -4.94727 0
M  V30 2135 H 196.609 -1.21914 -2.73454 0
M  V30 2136 H 194.155 -0.587675 -1.31462 0
M  V30 2137 H 196.108 0.769434 -4.14316 0
M  V30 2138 H 194.832 1.27371 -3.0074 0
M  V30 2139 H 193.491 -0.779911 -3.58208 0
M  V30 2140 H 193.139 1.34951 -4.84559 0
M  V30 2141 H 192.839 -0.0727433 -5.87555 0
M  V30 2142 H 194.363 0.843705 -6.04743 0
M  V30 2143 H 195.777 -1.376 -5.56542 0
M  V30 2144 H 194.174 -2.16659 -5.59624 0
M  V30 2145 H 195.244 -2.41518 -4.20473 0
M  V30 2146 N 196.587 1.43421 -0.653314 0
M  V30 2147 C 197.833 2.02111 -0.166992 0
M  V30 2148 C 198.166 1.51423 1.21592 0
M  V30 2149 O 197.441 0.707389 1.8118 0
M  V30 2150 C 197.724 3.5966 -0.177948 0
M  V30 2151 C 197.577 4.20579 -1.59478 0
M  V30 2152 C 198.896 4.37413 0.4856 0
M  V30 2153 H 196.015 0.734374 -0.0621557 0
M  V30 2154 H 198.657 1.70717 -0.834016 0
M  V30 2155 H 196.807 3.86537 0.390032 0
M  V30 2156 H 198.479 4.04732 -2.21336 0
M  V30 2157 H 196.722 3.77226 -2.14204 0
M  V30 2158 H 197.393 5.29665 -1.5543 0
M  V30 2159 H 199.869 4.161 0.00234528 0
M  V30 2160 H 198.745 5.47075 0.447207 0
M  V30 2161 H 199.006 4.13672 1.55974 0
M  V30 2162 N 198.065 0.39524 1.52563 0
M  V30 2163 C 199.295 -0.184675 2.05773 0
M  V30 2164 C 199.703 -1.40571 1.26635 0
M  V30 2165 O 199.046 -1.81105 0.30769 0
M  V30 2166 C 199.108 -0.613551 3.54226 0
M  V30 2167 C 198.772 0.49484 4.54313 0
M  V30 2168 C 199.769 1.3541 5.01956 0
M  V30 2169 C 197.454 0.663565 4.97898 0
M  V30 2170 C 199.448 2.36716 5.91814 0
M  V30 2171 C 197.135 1.67996 5.87555 0
M  V30 2172 C 198.133 2.53017 6.34406 0
M  V30 2173 O 197.821 3.52917 7.22291 0
M  V30 2174 H 197.553 -0.030077 0.675331 0
M  V30 2175 H 200.107 0.560708 1.97599 0
M  V30 2176 H 198.337 -1.411 3.60038 0
M  V30 2177 H 200.026 -1.11981 3.90148 0
M  V30 2178 H 200.792 1.23509 4.6901 0
M  V30 2179 H 196.671 0.0114913 4.60999 0
M  V30 2180 H 200.215 3.03113 6.28306 0
M  V30 2181 H 196.112 1.79933 6.19915 0
M  V30 2182 H 196.88 3.48996 7.40367 0
M  V30 2183 N 199.544 -1.57102 0.125237 0
M  V30 2184 C 200.476 -2.12726 -0.853237 0
M  V30 2185 C 201.489 -1.07145 -1.22571 0
M  V30 2186 O 202.678 -1.34497 -1.17358 0
M  V30 2187 C 199.778 -2.61709 -2.15317 0
M  V30 2188 C 198.951 -3.91456 -1.95143 0
M  V30 2189 C 198.01 -4.25973 -3.08923 0
M  V30 2190 O 197.036 -4.94682 -2.81564 0
M  V30 2191 N 198.238 -3.83795 -4.35524 0
M  V30 2192 H 201.003 -2.97307 -0.377964 0
M  V30 2193 H 198.564 -1.61792 -0.0590011 0
M  V30 2194 H 200.556 -2.81826 -2.90441 0
M  V30 2195 H 199.126 -1.81974 -2.54174 0
M  V30 2196 H 198.346 -3.80185 -1.04177 0
M  V30 2197 H 199.634 -4.76283 -1.78976 0
M  V30 2198 H 199.032 -3.2839 -4.60626 0
M  V30 2199 H 197.589 -4.09008 -5.07499 0
M  V30 2200 N 201.022 0.148545 -1.56898 0
M  V30 2201 C 201.955 1.21293 -1.93296 0
M  V30 2202 C 202.933 1.41637 -0.798599 0
M  V30 2203 O 204.117 1.56275 -1.05406 0
M  V30 2204 C 201.244 2.5721 -2.20365 0
M  V30 2205 C 200.29 2.53469 -3.4301 0
M  V30 2206 S 201.123 2.00315 -4.96623 0
M  V30 2207 C 202.279 3.37964 -5.26812 0
M  V30 2208 H 202.512 0.902393 -2.83274 0
M  V30 2209 H 200.045 0.354094 -1.50285 0
M  V30 2210 H 202.003 3.35427 -2.36641 0
M  V30 2211 H 200.664 2.85454 -1.31054 0
M  V30 2212 H 199.857 3.53518 -3.59223 0
M  V30 2213 H 199.459 1.83359 -3.25968 0
M  V30 2214 H 201.751 4.34066 -5.20185 0
M  V30 2215 H 202.694 3.26606 -6.28279 0
M  V30 2216 H 203.102 3.35028 -4.54331 0
M  V30 2217 N 202.5 1.5196 0.417844 0
M  V30 2218 C 203.43 1.77634 1.51554 0
M  V30 2219 C 204.411 0.626918 1.58126 0
M  V30 2220 O 205.596 0.871632 1.7354 0
M  V30 2221 C 202.726 1.91911 2.8946 0
M  V30 2222 C 201.68 3.07463 2.97743 0
M  V30 2223 C 201.006 3.06951 4.37819 0
M  V30 2224 C 202.306 4.47082 2.70027 0
M  V30 2225 H 204 2.6955 1.3032 0
M  V30 2226 H 201.546 1.29706 0.625492 0
M  V30 2227 H 203.499 2.08455 3.6623 0
M  V30 2228 H 202.223 0.966598 3.11969 0
M  V30 2229 H 200.882 2.90656 2.23416 0
M  V30 2230 H 200.53 2.09438 4.57323 0
M  V30 2231 H 200.23 3.84556 4.44286 0
M  V30 2232 H 201.754 3.25613 5.16535 0
M  V30 2233 H 203.168 4.6414 3.36522 0
M  V30 2234 H 201.565 5.2654 2.87881 0
M  V30 2235 H 202.635 4.55777 1.65514 0
M  V30 2236 N 203.978 -0.674533 1.42435 0
M  V30 2237 C 204.925 -1.78807 1.45934 0
M  V30 2238 C 205.895 -1.63157 0.311271 0
M  V30 2239 O 207.08 -1.83707 0.515383 0
M  V30 2240 C 204.22 -3.16839 1.36773 0
M  V30 2241 C 203.333 -3.43774 2.61617 0
M  V30 2242 C 202.468 -4.71536 2.44597 0
M  V30 2243 C 201.507 -4.91505 3.64814 0
M  V30 2244 N 200.644 -6.10508 3.46734 0
M  V30 2245 H 205.484 -1.75151 2.41093 0
M  V30 2246 H 203.021 -0.85504 1.19697 0
M  V30 2247 H 204.979 -3.96606 1.29459 0
M  V30 2248 H 203.609 -3.19619 0.452089 0
M  V30 2249 H 202.661 -2.58259 2.79297 0
M  V30 2250 H 203.973 -3.54423 3.50978 0
M  V30 2251 H 203.127 -5.59393 2.3487 0
M  V30 2252 H 201.866 -4.6317 1.52726 0
M  V30 2253 H 200.871 -4.0209 3.74972 0
M  V30 2254 H 202.096 -5.01716 4.57665 0
M  V30 2255 H 200.042 -6.03315 2.5758 0
M  V30 2256 H 199.959 -6.2202 4.29682 0
M  V30 2257 H 201.227 -7.01044 3.40819 0
M  V30 2258 N 205.456 -1.28612 -0.910864 0
M  V30 2259 C 206.704 -1.15705 -1.65701 0
M  V30 2260 C 207.025 0.29416 -1.92769 0
M  V30 2261 O 206.295 1.20331 -1.54588 0
M  V30 2262 H 204.875 -0.425216 -0.614167 0
M  V30 2263 H 207.537 -1.61381 -1.0928 0
M  V30 2264 H 206.633 -1.6988 -2.61815 0
M  V30 2265 N 206.934 1.1197 -1.10907 0
M  V30 2266 C 207.864 2.19928 -0.784473 0
M  V30 2267 C 208.845 1.6833 0.244726 0
M  V30 2268 O 210.03 1.93892 0.109418 0
M  V30 2269 C 207.16 3.46597 -0.220827 0
M  V30 2270 C 206.114 4.11376 -1.18127 0
M  V30 2271 C 205.44 5.32554 -0.478594 0
M  V30 2272 C 206.74 4.56945 -2.52979 0
M  V30 2273 H 208.434 2.47337 -1.68715 0
M  V30 2274 H 205.98 1.18879 -0.812642 0
M  V30 2275 H 207.933 4.21396 0.0184278 0
M  V30 2276 H 206.657 3.1863 0.717113 0
M  V30 2277 H 205.316 3.38564 -1.40606 0
M  V30 2278 H 204.964 5.00856 0.463976 0
M  V30 2279 H 204.664 5.76844 -1.11912 0
M  V30 2280 H 206.188 6.10096 -0.248 0
M  V30 2281 H 207.602 5.23093 -2.3462 0
M  V30 2282 H 205.999 5.1203 -3.12962 0
M  V30 2283 H 207.069 3.70676 -3.12614 0
M  V30 2284 N 208.412 0.89855 1.29475 0
M  V30 2285 C 209.828 0.594483 1.48115 0
M  V30 2286 C 210.028 -0.86431 1.82022 0
M  V30 2287 O 209.084 -1.64457 1.91599 0
M  V30 2288 C 210.397 1.51932 2.59494 0
M  V30 2289 C 211.945 1.5244 2.7337 0
M  V30 2290 C 212.42 2.43548 3.87877 0
M  V30 2291 N 213.911 2.41589 3.95208 0
M  V30 2292 C 214.646 3.08789 4.83153 0
M  V30 2293 N 214.142 3.85265 5.75798 0
M  V30 2294 N 215.935 2.97952 4.76635 0
M  V30 2295 H 208.086 1.84207 1.05742 0
M  V30 2296 H 210.349 0.789251 0.525154 0
M  V30 2297 H 210.055 2.55865 2.41301 0
M  V30 2298 H 209.929 1.23899 3.56271 0
M  V30 2299 H 212.316 0.492518 2.90961 0
M  V30 2300 H 212.397 1.8451 1.77172 0
M  V30 2301 H 212.041 3.46829 3.71041 0
M  V30 2302 H 211.971 2.08788 4.83441 0
M  V30 2303 H 214.462 1.86025 3.28943 0
M  V30 2304 H 214.775 4.33598 6.39697 0
M  V30 2305 H 213.12 3.89371 5.75687 0
M  V30 2306 H 216.311 2.37723 4.03244 0
M  V30 2307 H 216.484 3.50599 5.44962 0
M  V30 2308 N 209.89 -1.43072 0.660911 0
M  V30 2309 C 211.12 -2.05769 0.185153 0
M  V30 2310 C 211.528 -1.49668 -1.15742 0
M  V30 2311 O 210.871 -0.625649 -1.72717 0
M  V30 2312 C 210.933 -3.59489 0.0278237 0
M  V30 2313 C 210.597 -4.38212 1.2969 0
M  V30 2314 C 211.594 -4.69772 2.22734 0
M  V30 2315 C 209.279 -4.7809 1.54063 0
M  V30 2316 C 211.273 -5.40129 3.38437 0
M  V30 2317 C 208.96 -5.4819 2.70058 0
M  V30 2318 C 209.958 -5.79132 3.62071 0
M  V30 2319 O 209.646 -6.47798 4.76039 0
M  V30 2320 H 209.378 -0.669873 0.0908086 0
M  V30 2321 H 211.932 -1.84436 0.90402 0
M  V30 2322 H 210.162 -3.79426 -0.746489 0
M  V30 2323 H 211.851 -4.03862 -0.406275 0
M  V30 2324 H 212.617 -4.39476 2.05149 0
M  V30 2325 H 208.496 -4.53408 0.833215 0
M  V30 2326 H 212.04 -5.64198 4.10277 0
M  V30 2327 H 207.937 -5.77902 2.87574 0
M  V30 2328 H 208.705 -6.66283 4.75404 0
M  V30 2329 N 211.368 -0.403325 -1.52352 0
M  V30 2330 C 212.617 0.175668 -2.00934 0
M  V30 2331 C 212.93 1.46718 -1.29356 0
M  V30 2332 O 214.136 2.12708 -1.68724 0
M  V30 2333 C 212.592 0.363612 -3.58058 0
M  V30 2334 C 212.2 -0.915472 -4.38547 0
M  V30 2335 C 213.944 0.89821 -4.14888 0
M  V30 2336 C 211.851 -0.695035 -5.87302 0
M  V30 2337 H 210.781 0.0694234 -0.750797 0
M  V30 2338 H 213.432 -0.527879 -1.75743 0
M  V30 2339 H 211.814 1.12935 -3.79555 0
M  V30 2340 H 212.988 -1.68691 -4.28812 0
M  V30 2341 H 211.303 -1.37606 -3.93006 0
M  V30 2342 H 213.9 1.07907 -5.23699 0
M  V30 2343 H 214.243 1.87126 -3.71873 0
M  V30 2344 H 214.776 0.191681 -3.97338 0
M  V30 2345 H 211.515 -1.63948 -6.34666 0
M  V30 2346 H 211.035 0.0372116 -5.99788 0
M  V30 2347 H 212.714 -0.33497 -6.46132 0
M  V30 2348 N 212.846 1.57033 -0.133567 0
M  V30 2349 C 213.796 2.12641 0.822671 0
M  V30 2350 C 214.78 1.05081 1.21847 0
M  V30 2351 O 215.972 1.31287 1.18713 0
M  V30 2352 C 213.101 2.74094 2.06706 0
M  V30 2353 C 212.187 3.88757 1.69497 0
M  V30 2354 N 212.578 4.95194 1.03037 0
M  V30 2355 C 210.876 3.99213 1.98859 0
M  V30 2356 C 211.577 5.75414 0.852873 0
M  V30 2357 N 210.553 5.25726 1.3825 0
M  V30 2358 H 214.355 2.92308 0.305537 0
M  V30 2359 H 211.869 1.62256 0.0684276 0
M  V30 2360 H 213.866 3.12285 2.76195 0
M  V30 2361 H 212.526 1.95896 2.5895 0
M  V30 2362 H 213.537 5.13247 0.692669 0
M  V30 2363 H 210.214 3.32075 2.53047 0
M  V30 2364 H 211.604 6.71089 0.330091 0
M  V30 2365 N 214.325 -0.140222 1.56975 0
M  V30 2366 C 215.288 -1.15689 1.97861 0
M  V30 2367 C 216.288 -1.3549 0.865974 0
M  V30 2368 O 217.478 -1.32367 1.13246 0
M  V30 2369 C 214.61 -2.51582 2.30042 0
M  V30 2370 H 215.803 -0.805971 2.88867 0
M  V30 2371 H 213.356 -0.383801 1.51515 0
M  V30 2372 H 214.091 -2.91632 1.41849 0
M  V30 2373 H 213.876 -2.38569 3.11171 0
M  V30 2374 H 215.366 -3.24792 2.62488 0
M  V30 2375 N 215.803 -1.52179 -0.40978 0
M  V30 2376 C 216.766 -1.74853 -1.48186 0
M  V30 2377 C 217.766 -0.618417 -1.48433 0
M  V30 2378 O 218.956 -0.886286 -1.49969 0
M  V30 2379 C 216.088 -1.8303 -2.87598 0
M  V30 2380 H 217.281 -2.70559 -1.29374 0
M  V30 2381 H 214.834 -1.42586 -0.640233 0
M  V30 2382 H 215.569 -0.89236 -3.11781 0
M  V30 2383 H 215.354 -2.65187 -2.88822 0
M  V30 2384 H 216.844 -2.02316 -3.65319 0
M  V30 2385 N 217.281 0.66697 -1.42791 0
M  V30 2386 C 218.529 1.42417 -1.43394 0
M  V30 2387 C 218.85 1.94925 -0.0542373 0
M  V30 2388 O 218.12 1.73564 0.908415 0
M  V30 2389 H 216.7 0.528515 -0.527902 0
M  V30 2390 H 219.362 0.787562 -1.78279 0
M  V30 2391 H 218.458 2.27333 -2.13837 0
M  V30 2392 N 218.759 1.29093 0.90403 0
M  V30 2393 C 220.008 1.16187 1.64874 0
M  V30 2394 C 220.321 -0.286742 1.93487 0
M  V30 2395 O 221.527 -0.537062 2.66135 0
M  V30 2396 C 219.983 2.03177 2.97064 0
M  V30 2397 C 219.591 3.52836 2.76062 0
M  V30 2398 C 221.335 1.98984 3.74974 0
M  V30 2399 C 219.242 4.31945 4.03952 0
M  V30 2400 H 218.172 0.431246 0.618501 0
M  V30 2401 H 220.823 1.53699 1.00243 0
M  V30 2402 H 219.205 1.5853 3.62883 0
M  V30 2403 H 220.379 4.05507 2.18863 0
M  V30 2404 H 218.694 3.58656 2.11553 0
M  V30 2405 H 221.291 2.55351 4.69787 0
M  V30 2406 H 221.634 0.968815 4.0487 0
M  V30 2407 H 222.167 2.41652 3.15989 0
M  V30 2408 H 218.906 5.34667 3.79225 0
M  V30 2409 H 218.426 3.84045 4.60727 0
M  V30 2410 H 220.105 4.42379 4.72133 0
M  V30 2411 N 220.237 -1.11381 1.11499 0
M  V30 2412 C 221.486 -1.82494 0.858993 0
M  V30 2413 C 221.799 -1.85605 -0.617278 0
M  V30 2414 O 223.005 -2.52824 -0.989552 0
M  V30 2415 C 221.461 -3.27745 1.48699 0
M  V30 2416 C 221.069 -3.32961 2.99735 0
M  V30 2417 C 222.813 -4.03754 1.31085 0
M  V30 2418 C 220.72 -4.72612 3.55516 0
M  V30 2419 H 219.65 -0.683802 0.317696 0
M  V30 2420 H 222.301 -1.25331 1.34031 0
M  V30 2421 H 220.683 -3.84844 0.933339 0
M  V30 2422 H 221.857 -2.85741 3.61509 0
M  V30 2423 H 220.172 -2.70433 3.16631 0
M  V30 2424 H 222.769 -5.06891 1.70192 0
M  V30 2425 H 223.112 -4.15527 0.253496 0
M  V30 2426 H 223.645 -3.53043 1.83318 0
M  V30 2427 H 220.384 -4.66036 4.60967 0
M  V30 2428 H 219.904 -5.2024 2.98513 0
M  V30 2429 H 221.583 -5.4157 3.53992 0
M  V30 2430 N 221.715 -0.905404 -1.28997 0
M  V30 2431 C 222.665 -0.358713 -2.25161 0
M  V30 2432 C 223.649 0.524449 -1.52113 0
M  V30 2433 O 224.841 0.365534 -1.73184 0
M  V30 2434 C 221.97 0.407609 -3.40872 0
M  V30 2435 C 221.056 -0.490797 -4.21251 0
M  V30 2436 N 221.447 -1.60061 -4.79806 0
M  V30 2437 C 219.745 -0.289636 -4.45059 0
M  V30 2438 C 220.446 -2.15757 -5.40207 0
M  V30 2439 N 219.422 -1.44988 -5.23908 0
M  V30 2440 H 223.224 -1.20642 -2.67998 0
M  V30 2441 H 220.738 -0.757103 -1.43672 0
M  V30 2442 H 222.735 0.816046 -4.08835 0
M  V30 2443 H 221.395 1.25251 -2.9957 0
M  V30 2444 H 222.406 -1.98329 -4.7842 0
M  V30 2445 H 219.083 0.51643 -4.14294 0
M  V30 2446 H 220.473 -3.09069 -5.96595 0
M  V30 2447 N 223.193 1.4272 -0.668489 0
M  V30 2448 C 224.609 1.55992 -0.33745 0
M  V30 2449 C 224.809 1.64933 1.15756 0
M  V30 2450 O 223.865 1.61278 1.94282 0
M  V30 2451 C 225.178 2.81314 -1.06222 0
M  V30 2452 C 226.726 2.95078 -1.04394 0
M  V30 2453 C 227.201 4.23252 -1.74991 0
M  V30 2454 N 228.692 4.3015 -1.71829 0
M  V30 2455 C 229.427 5.28127 -2.23315 0
M  V30 2456 N 228.923 6.32293 -2.83156 0
M  V30 2457 N 230.716 5.19882 -2.13726 0
M  V30 2458 H 222.867 1.3516 -1.63846 0
M  V30 2459 H 225.13 0.650174 -0.689912 0
M  V30 2460 H 224.836 2.80823 -2.11734 0
M  V30 2461 H 224.71 3.72012 -0.62344 0
M  V30 2462 H 227.097 2.951 0.0028244 0
M  V30 2463 H 227.178 2.05627 -1.52155 0
M  V30 2464 H 226.822 4.2399 -2.79633 0
M  V30 2465 H 226.752 5.11626 -1.24685 0
M  V30 2466 H 229.243 3.55499 -1.28175 0
M  V30 2467 H 229.556 7.03398 -3.20079 0
M  V30 2468 H 227.901 6.32873 -2.87223 0
M  V30 2469 H 231.092 4.37423 -1.66669 0
M  V30 2470 H 231.265 5.96077 -2.54158 0
M  V30 2471 N 224.671 0.411399 1.52136 0
M  V30 2472 C 225.948 -0.222308 1.94333 0
M  V30 2473 C 226.328 -1.6242 1.34844 0
M  V30 2474 O 225.676 -2.22384 0.525145 0
M  V30 2475 C 225.886 -0.226345 3.48265 0
M  V30 2476 C 227.234 -0.444592 4.22266 0
M  V30 2477 O 228.258 -0.305602 3.54887 0
M  V30 2478 O 227.117 -0.718749 5.41753 0
M  V30 2479 H 224.211 -0.143907 0.814383 0
M  V30 2480 H 226.757 0.467506 1.63133 0
M  V30 2481 H 225.529 0.75475 3.83952 0
M  V30 2482 H 225.152 -0.960163 3.85832 0
M  V30 2483 N 226.149 -1.5696 0.141893 0
M  V30 2484 C 227.079 -2.19516 -0.795936 0
M  V30 2485 C 228.06 -1.14187 -1.26077 0
M  V30 2486 O 229.245 -1.42511 -1.31925 0
M  V30 2487 C 226.375 -2.81272 -2.03723 0
M  V30 2488 C 225.329 -3.92384 -1.70936 0
M  V30 2489 C 224.655 -4.41052 -3.02287 0
M  V30 2490 C 225.955 -5.13403 -0.959954 0
M  V30 2491 H 227.649 -2.98138 -0.274596 0
M  V30 2492 H 225.195 -1.43406 -0.130636 0
M  V30 2493 H 227.148 -3.237 -2.69808 0
M  V30 2494 H 225.872 -1.99973 -2.58221 0
M  V30 2495 H 224.531 -3.50566 -1.07232 0
M  V30 2496 H 224.179 -3.56582 -3.54765 0
M  V30 2497 H 223.879 -5.15993 -2.81114 0
M  V30 2498 H 225.403 -4.86146 -3.69451 0
M  V30 2499 H 226.817 -5.52706 -1.52279 0
M  V30 2500 H 225.214 -5.94073 -0.848357 0
M  V30 2501 H 226.284 -4.84875 0.0492434 0
M  V30 2502 N 227.627 0.131896 -1.57047 0
M  V30 2503 C 228.574 1.16236 -1.99393 0
M  V30 2504 C 229.544 1.41863 -0.863943 0
M  V30 2505 O 230.729 1.53946 -1.12718 0
M  V30 2506 C 227.869 2.48708 -2.39245 0
M  V30 2507 C 226.982 2.30127 -3.65603 0
M  V30 2508 C 226.117 3.55738 -3.94492 0
M  V30 2509 C 225.156 3.32259 -5.14073 0
M  V30 2510 N 224.293 4.50039 -5.38896 0
M  V30 2511 H 229.133 0.794251 -2.87221 0
M  V30 2512 H 226.67 0.380707 -1.42088 0
M  V30 2513 H 228.628 3.25969 -2.60384 0
M  V30 2514 H 227.258 2.83437 -1.54478 0
M  V30 2515 H 226.31 1.43845 -3.52154 0
M  V30 2516 H 227.622 2.08746 -4.5302 0
M  V30 2517 H 226.776 4.41423 -4.1621 0
M  V30 2518 H 225.515 3.80138 -3.05526 0
M  V30 2519 H 224.52 2.44963 -4.92212 0
M  V30 2520 H 225.745 3.09242 -6.04604 0
M  V30 2521 H 223.691 4.74584 -4.52886 0
M  V30 2522 H 223.608 4.31716 -6.2061 0
M  V30 2523 H 224.876 5.36895 -5.65123 0
M  V30 2524 N 229.106 1.52395 0.401703 0
M  V30 2525 C 230.517 1.58899 0.980202 0
M  V30 2526 C 230.868 0.434032 1.91339 0
M  V30 2527 O 229.993 -0.444619 2.11783 0
M  V30 2528 C 230.588 2.87994 1.78451 0
M  V30 2529 C 229.147 2.96953 2.31292 0
M  V30 2530 C 228.294 2.53903 1.11483 0
M  V30 2531 H 231.245 1.57657 0.18168 0
M  V30 2532 H 231.266 2.73765 2.64259 0
M  V30 2533 H 230.778 3.72035 1.10506 0
M  V30 2534 H 228.879 2.17422 3.02586 0
M  V30 2535 H 228.992 4.01344 2.61649 0
M  V30 2536 H 227.356 2.07925 1.47104 0
M  V30 2537 H 228.139 3.40326 0.450928 0
M  V30 2538 N 230.584 -0.659388 1.43143 0
M  V30 2539 C 231.832 -1.41654 1.44147 0
M  V30 2540 C 232.153 -1.94893 0.0645739 0
M  V30 2541 O 231.423 -1.74044 -0.899198 0
M  V30 2542 H 230.003 -0.525708 0.530697 0
M  V30 2543 H 232.665 -0.778097 1.78694 0
M  V30 2544 H 231.761 -2.26195 2.1504 0
M  V30 2545 N 232.062 -1.29571 -0.897171 0
M  V30 2546 C 233.01 -1.14802 -2.02295 0
M  V30 2547 C 234.004 -0.0629637 -1.69283 0
M  V30 2548 O 235.21 -0.222945 -1.78614 0
M  V30 2549 H 231.585 -0.354692 -0.663097 0
M  V30 2550 H 233.556 -2.10108 -2.11889 0
M  V30 2551 C 232.305 -0.843966 -3.37302 0
M  V30 2552 H 231.628 -1.67093 -3.63208 0
M  V30 2553 H 233.068 -0.780672 -4.16751 0
M  V30 2554 C 231.527 0.452843 -3.33843 0
M  V30 2555 O 232.057 1.47813 -3.73516 0
M  V30 2556 N 230.263 0.459601 -2.86943 0
M  V30 2557 H 229.81 -0.375213 -2.54853 0
M  V30 2558 H 229.768 1.32726 -2.85011 0
M  V30 2559 N 233.54 1.10788 -1.12088 0
M  V30 2560 C 234.47 2.19083 -0.807755 0
M  V30 2561 C 235.451 1.6858 0.226859 0
M  V30 2562 O 236.636 1.93997 0.0888475 0
M  V30 2563 C 233.766 3.46344 -0.257576 0
M  V30 2564 C 232.72 4.101 -1.22483 0
M  V30 2565 C 232.046 5.32016 -0.535052 0
M  V30 2566 C 233.346 4.54236 -2.57811 0
M  V30 2567 H 235.04 2.45534 -1.71328 0
M  V30 2568 H 232.586 1.1801 -0.825205 0
M  V30 2569 H 234.539 4.21392 -0.0262679 0
M  V30 2570 H 233.263 3.19373 0.683278 0
M  V30 2571 H 231.922 3.37054 -1.44189 0
M  V30 2572 H 231.57 5.01319 0.410827 0
M  V30 2573 H 231.27 5.75625 -1.18024 0
M  V30 2574 H 232.794 6.09799 -0.312695 0
M  V30 2575 H 234.208 5.20575 -2.40155 0
M  V30 2576 H 232.605 5.08682 -3.18375 0
M  V30 2577 H 233.675 3.6734 -3.16528 0
M  V30 2578 N 235.018 0.912232 1.28515 0
M  V30 2579 C 235.981 0.404223 2.25607 0
M  V30 2580 C 236.981 -0.468602 1.53821 0
M  V30 2581 O 238.171 -0.271873 1.72065 0
M  V30 2582 C 235.303 -0.420653 3.38295 0
M  V30 2583 H 236.496 1.26188 2.7206 0
M  V30 2584 H 234.049 0.691495 1.40171 0
M  V30 2585 H 234.784 -1.29777 2.97201 0
M  V30 2586 H 234.569 0.204935 3.91564 0
M  V30 2587 H 236.059 -0.766971 4.10496 0
M  V30 2588 N 236.496 -1.42363 0.676048 0
M  V30 2589 C 237.742 -2.0182 0.199125 0
M  V30 2590 C 238.075 -1.53339 -1.19168 0
M  V30 2591 O 237.35 -0.736124 -1.80032 0
M  V30 2592 C 237.633 -3.59331 0.235144 0
M  V30 2593 C 237.486 -4.17989 1.66149 0
M  V30 2594 C 238.805 -4.3813 -0.41595 0
M  V30 2595 H 235.924 -0.733293 0.0738311 0
M  V30 2596 H 238.566 -1.69368 0.86107 0
M  V30 2597 H 236.716 -3.87109 -0.328487 0
M  V30 2598 H 238.388 -4.0116 2.27747 0
M  V30 2599 H 236.631 -3.7377 2.20178 0
M  V30 2600 H 237.302 -5.27126 1.63837 0
M  V30 2601 H 239.778 -4.16051 0.0638529 0
M  V30 2602 H 238.654 -5.47717 -0.360115 0
M  V30 2603 H 238.915 -4.16101 -1.49373 0
M  V30 2604 N 237.974 -0.419461 -1.51915 0
M  V30 2605 C 238.922 0.415502 -2.28859 0
M  V30 2606 C 239.916 1.03674 -1.3397 0
M  V30 2607 O 241.122 0.973757 -1.51387 0
M  V30 2608 H 237.497 0.152786 -0.736315 0
M  V30 2609 H 239.468 -0.254531 -2.97312 0
M  V30 2610 C 238.217 1.51425 -3.12995 0
M  V30 2611 H 237.54 1.04556 -3.85886 0
M  V30 2612 H 238.98 2.07208 -3.6992 0
M  V30 2613 C 237.439 2.48745 -2.27217 0
M  V30 2614 O 237.969 3.52871 -1.9195 0
M  V30 2615 N 236.175 2.19202 -1.90785 0
M  V30 2616 H 235.722 1.34556 -2.19664 0
M  V30 2617 H 235.68 2.84561 -1.33687 0
M  V30 2618 N 239.452 1.56882 -0.150215 0
M  V30 2619 C 240.362 2.20494 0.801222 0
M  V30 2620 C 241.378 1.19019 1.26927 0
M  V30 2621 O 242.554 1.51607 1.32579 0
M  V30 2622 C 239.619 2.81659 2.02161 0
M  V30 2623 C 238.68 3.9827 1.60249 0
M  V30 2624 C 237.913 4.56508 2.7647 0
M  V30 2625 O 238.136 4.13627 3.92771 0
M  V30 2626 O 237.07 5.46719 2.51757 0
M  V30 2627 H 240.896 3.02315 0.289717 0
M  V30 2628 H 238.481 1.49202 0.0769684 0
M  V30 2629 H 240.363 3.20522 2.73576 0
M  V30 2630 H 239.038 2.02849 2.52258 0
M  V30 2631 H 237.945 3.64117 0.858477 0
M  V30 2632 H 239.278 4.78609 1.14864 0
M  V30 2633 N 240.93 -0.123565 1.57115 0
M  V30 2634 C 242.207 -0.862196 1.75572 0
M  V30 2635 C 242.587 -1.98279 0.724475 0
M  V30 2636 O 241.935 -2.27102 -0.252407 0
M  V30 2637 C 242.145 -1.38309 3.20424 0
M  V30 2638 C 243.493 -1.83724 3.82793 0
M  V30 2639 O 244.517 -1.47999 3.23998 0
M  V30 2640 O 243.376 -2.49685 4.86127 0
M  V30 2641 H 240.47 -0.409113 0.718718 0
M  V30 2642 H 243.016 -0.107661 1.69358 0
M  V30 2643 H 241.788 -0.578889 3.86994 0
M  V30 2644 H 241.411 -2.20046 3.31158 0
M  V30 2645 N 242.408 -1.52605 -0.393616 0
M  V30 2646 C 243.648 -1.6911 -1.1481 0
M  V30 2647 C 244.012 -0.41969 -1.87357 0
M  V30 2648 O 245.213 -0.461034 -2.64817 0
M  V30 2649 C 243.484 -2.88909 -2.10395 0
M  V30 2650 S 245.043 -3.25977 -2.93742 0
M  V30 2651 H 241.861 -0.595337 -0.38871 0
M  V30 2652 H 244.463 -1.90641 -0.433178 0
M  V30 2653 H 243.167 -3.79672 -1.55812 0
M  V30 2654 H 242.698 -2.69698 -2.86403 0
M  V30 2655 H 244.713 -2.75806 -4.12487 0
M  V30 2656 N 243.887 0.651787 -1.4349 0
M  V30 2657 C 244.797 1.79368 -1.5121 0
M  V30 2658 C 245.813 1.69361 -0.399093 0
M  V30 2659 O 246.989 1.90505 -0.653431 0
M  V30 2660 C 244.054 3.15653 -1.43401 0
M  V30 2661 C 243.115 3.37446 -2.65384 0
M  V30 2662 C 242.348 4.67229 -2.57939 0
M  V30 2663 O 242.571 5.46676 -1.62792 0
M  V30 2664 O 241.505 4.90773 -3.48462 0
M  V30 2665 H 245.331 1.7581 -2.47638 0
M  V30 2666 H 242.916 0.810447 -1.25507 0
M  V30 2667 H 244.798 3.96935 -1.41494 0
M  V30 2668 H 243.473 3.19798 -0.501085 0
M  V30 2669 H 242.38 2.55923 -2.72863 0
M  V30 2670 H 243.713 3.38148 -3.57654 0
M  V30 2671 N 245.365 1.30045 0.890287 0
M  V30 2672 C 246.295 1.18541 2.01172 0
M  V30 2673 C 247.276 0.0773356 1.69924 0
M  V30 2674 O 248.461 0.25845 1.92473 0
M  V30 2675 C 245.591 0.870941 3.36202 0
M  V30 2676 C 244.545 1.93637 3.81692 0
M  V30 2677 C 243.871 1.475 5.13953 0
M  V30 2678 C 245.171 3.34666 4.00994 0
M  V30 2679 H 246.865 2.12359 2.11054 0
M  V30 2680 H 244.411 1.02238 1.01407 0
M  V30 2681 H 246.364 0.777141 4.14172 0
M  V30 2682 H 245.088 -0.102926 3.26438 0
M  V30 2683 H 243.747 2.01972 3.05946 0
M  V30 2684 H 243.395 0.489551 5.00612 0
M  V30 2685 H 243.095 2.1876 5.4536 0
M  V30 2686 H 244.619 1.39489 5.94454 0
M  V30 2687 H 246.033 3.2912 4.69417 0
M  V30 2688 H 244.43 4.03966 4.43769 0
M  V30 2689 H 245.5 3.76949 3.05021 0
M  V30 2690 N 246.843 -1.10192 1.12674 0
M  V30 2691 C 247.79 -2.16606 0.796906 0
M  V30 2692 C 248.76 -1.64394 -0.237476 0
M  V30 2693 O 249.945 -1.90474 -0.111484 0
M  V30 2694 C 247.085 -3.44116 0.26043 0
M  V30 2695 C 246.198 -4.10268 1.35293 0
M  V30 2696 C 245.333 -5.25507 0.775621 0
M  V30 2697 C 244.372 -5.83567 1.84706 0
M  V30 2698 N 243.509 -6.90179 1.28829 0
M  V30 2699 H 248.349 -2.44163 1.70846 0
M  V30 2700 H 245.886 -1.19846 0.85295 0
M  V30 2701 H 247.844 -4.17143 -0.0686814 0
M  V30 2702 H 246.474 -3.16901 -0.614274 0
M  V30 2703 H 245.526 -3.35184 1.79877 0
M  V30 2704 H 246.838 -4.4946 2.16303 0
M  V30 2705 H 245.992 -6.05398 0.397327 0
M  V30 2706 H 244.731 -4.87656 -0.0656581 0
M  V30 2707 H 243.736 -5.02344 2.23452 0
M  V30 2708 H 244.961 -6.23482 2.69161 0
M  V30 2709 H 242.907 -6.54322 0.468881 0
M  V30 2710 H 242.824 -7.28097 2.03497 0
M  V30 2711 H 244.092 -7.73844 0.937311 0
M  V30 2712 N 248.321 -0.919034 -1.28029 0
M  V30 2713 C 249.57 -0.550802 -1.94034 0
M  V30 2714 C 249.883 0.910877 -1.73096 0
M  V30 2715 O 251.089 1.3875 -2.33368 0
M  V30 2716 C 249.545 -0.934249 -3.47563 0
M  V30 2717 C 249.153 -2.41602 -3.7727 0
M  V30 2718 C 250.897 -0.636854 -4.19696 0
M  V30 2719 C 248.804 -2.73932 -5.24133 0
M  V30 2720 H 247.734 -0.202273 -0.726362 0
M  V30 2721 H 250.385 -1.11867 -1.45458 0
M  V30 2722 H 248.767 -0.295115 -3.94899 0
M  V30 2723 H 249.941 -3.10233 -3.40723 0
M  V30 2724 H 248.256 -2.68441 -3.18321 0
M  V30 2725 H 250.853 -0.855005 -5.2782 0
M  V30 2726 H 251.196 0.425575 -4.14119 0
M  V30 2727 H 251.729 -1.23469 -3.78154 0
M  V30 2728 H 248.468 -3.79049 -5.34792 0
M  V30 2729 H 247.988 -2.09942 -5.61858 0
M  V30 2730 H 249.667 -2.61215 -5.91925 0
M  V30 2731 N 249.799 1.42003 -0.683588 0
M  V30 2732 C 250.729 2.33487 -0.024866 0
M  V30 2733 C 251.71 1.51163 0.779975 0
M  V30 2734 O 252.895 1.79739 0.735362 0
M  V30 2735 C 250.025 3.3487 0.920836 0
M  V30 2736 C 248.979 4.27414 0.223958 0
M  V30 2737 C 248.305 5.19074 1.2832 0
M  V30 2738 C 249.605 5.14445 -0.90242 0
M  V30 2739 H 251.299 2.88819 -0.788921 0
M  V30 2740 H 248.845 1.38873 -0.38083 0
M  V30 2741 H 250.798 3.97787 1.39081 0
M  V30 2742 H 249.522 2.77861 1.71642 0
M  V30 2743 H 248.181 3.65904 -0.225864 0
M  V30 2744 H 247.829 4.58387 2.071 0
M  V30 2745 H 247.529 5.81822 0.821995 0
M  V30 2746 H 249.053 5.84867 1.75392 0
M  V30 2747 H 250.467 5.70998 -0.513272 0
M  V30 2748 H 248.864 5.86072 -1.28997 0
M  V30 2749 H 249.934 4.52322 -1.74737 0
M  V30 2750 N 251.277 0.427512 1.51691 0
M  V30 2751 C 252.554 -0.201684 1.94557 0
M  V30 2752 C 252.934 -1.60981 1.36559 0
M  V30 2753 O 252.282 -2.21814 0.548702 0
M  V30 2754 C 252.492 -0.189394 3.48486 0
M  V30 2755 C 253.84 -0.39978 4.22714 0
M  V30 2756 O 254.864 -0.267945 3.55191 0
M  V30 2757 O 253.723 -0.661249 5.42485 0
M  V30 2758 H 250.817 -0.135261 0.815864 0
M  V30 2759 H 253.363 0.484782 1.62628 0
M  V30 2760 H 252.135 0.795431 3.8313 0
M  V30 2761 H 251.758 -0.919187 3.86829 0
M  V30 2762 N 252.755 -1.56801 0.158532 0
M  V30 2763 C 254.002 -1.9649 -0.489679 0
M  V30 2764 C 254.33 -1.04394 -1.6411 0
M  V30 2765 O 253.585 -0.0754401 -1.95555 0
M  V30 2766 C 253.884 -3.4235 -1.02623 0
M  V30 2767 C 253.55 -4.50899 0.00794526 0
M  V30 2768 C 252.212 -4.80312 0.292207 0
M  V30 2769 C 254.564 -5.16333 0.710584 0
M  V30 2770 C 251.892 -5.72461 1.28472 0
M  V30 2771 C 254.244 -6.09553 1.69199 0
M  V30 2772 C 252.908 -6.37339 1.98383 0
M  V30 2773 H 252.178 -0.719009 -0.179186 0
M  V30 2774 H 254.825 -1.8989 0.247798 0
M  V30 2775 H 253.13 -3.45838 -1.84128 0
M  V30 2776 H 254.827 -3.70393 -1.53656 0
M  V30 2777 H 251.417 -4.28015 -0.22379 0
M  V30 2778 H 255.601 -4.93732 0.504174 0
M  V30 2779 H 250.857 -5.92278 1.51714 0
M  V30 2780 H 255.031 -6.59327 2.24189 0
M  V30 2781 H 252.658 -7.08546 2.7544 0
M  V30 2782 N 254.233 0.115231 -1.57178 0
M  V30 2783 C 255.481 0.820727 -1.84685 0
M  V30 2784 C 255.802 1.80237 -0.744279 0
M  V30 2785 O 255.072 1.94529 0.231375 0
M  V30 2786 H 253.652 0.306084 -0.681411 0
M  V30 2787 H 256.314 0.101656 -1.94635 0
M  V30 2788 H 255.41 1.36366 -2.80733 0
M  V30 2789 N 255.711 1.52812 0.385517 0
M  V30 2790 C 256.641 1.80808 1.47752 0
M  V30 2791 C 257.622 0.660318 1.5676 0
M  V30 2792 O 258.807 0.908246 1.71652 0
M  V30 2793 C 255.937 1.98008 2.85324 0
M  V30 2794 C 254.891 3.13709 2.91154 0
M  V30 2795 C 254.217 3.16169 4.31209 0
M  V30 2796 C 255.517 4.52709 2.60483 0
M  V30 2797 H 257.211 2.72253 1.24573 0
M  V30 2798 H 254.757 1.31003 0.597839 0
M  V30 2799 H 256.71 2.16176 3.61726 0
M  V30 2800 H 255.434 1.03255 3.09848 0
M  V30 2801 H 254.093 2.95329 2.17201 0
M  V30 2802 H 253.741 2.19092 4.52778 0
M  V30 2803 H 253.441 3.93894 4.36029 0
M  V30 2804 H 254.965 3.36496 5.09512 0
M  V30 2805 H 256.379 4.71173 3.26602 0
M  V30 2806 H 254.776 5.32528 2.76648 0
M  V30 2807 H 255.846 4.59186 1.55809 0
M  V30 2808 N 257.189 -0.644168 1.43834 0
M  V30 2809 C 258.152 -1.73857 1.49353 0
M  V30 2810 C 259.152 -1.56315 0.377112 0
M  V30 2811 O 260.342 -1.62048 0.639226 0
M  V30 2812 C 257.474 -3.12819 1.35488 0
M  V30 2813 H 258.667 -1.70342 2.46827 0
M  V30 2814 H 256.22 -0.856652 1.30733 0
M  V30 2815 H 256.955 -3.2194 0.390569 0
M  V30 2816 H 256.74 -3.26958 2.16428 0
M  V30 2817 H 258.23 -3.92606 1.42302 0
M  V30 2818 N 258.668 -1.30515 -0.883378 0
M  V30 2819 C 260.084 -1.08881 -1.16692 0
M  V30 2820 C 260.284 0.149409 -2.00945 0
M  V30 2821 O 259.34 0.84257 -2.38027 0
M  V30 2822 C 260.653 -2.35319 -1.87204 0
M  V30 2823 C 262.201 -2.40799 -1.99962 0
M  V30 2824 C 262.676 -3.67083 -2.73887 0
M  V30 2825 N 264.167 -3.679 -2.81432 0
M  V30 2826 C 264.902 -4.62303 -3.3921 0
M  V30 2827 N 264.398 -5.67052 -3.98025 0
M  V30 2828 N 266.191 -4.49845 -3.3704 0
M  V30 2829 H 258.342 -2.09951 -0.321633 0
M  V30 2830 H 260.605 -0.92556 -0.205043 0
M  V30 2831 H 260.311 -3.25689 -1.3274 0
M  V30 2832 H 260.185 -2.44089 -2.87577 0
M  V30 2833 H 262.572 -1.50907 -2.53597 0
M  V30 2834 H 262.653 -2.36003 -0.98673 0
M  V30 2835 H 262.297 -4.57334 -2.20925 0
M  V30 2836 H 262.227 -3.69141 -3.75556 0
M  V30 2837 H 264.718 -2.92171 -2.39676 0
M  V30 2838 H 265.031 -6.35184 -4.40183 0
M  V30 2839 H 263.376 -5.70842 -3.96439 0
M  V30 2840 H 266.567 -3.67194 -2.90321 0
M  V30 2841 H 266.74 -5.23597 -3.81772 0
M  V30 2842 N 260.146 1.09593 -1.13257 0
M  V30 2843 C 261.078 2.16015 -0.766167 0
M  V30 2844 C 262.091 1.61423 0.211303 0
M  V30 2845 O 263.28 1.78498 -0.00863946 0
M  V30 2846 C 260.38 3.38706 -0.114662 0
M  V30 2847 C 259.553 4.22717 -1.12379 0
M  V30 2848 C 258.612 5.23835 -0.498301 0
M  V30 2849 O 257.638 5.573 -1.15781 0
M  V30 2850 N 258.84 5.75886 0.730417 0
M  V30 2851 H 261.605 2.48055 -1.68193 0
M  V30 2852 H 259.166 1.25292 -1.02535 0
M  V30 2853 H 261.158 4.03464 0.315991 0
M  V30 2854 H 259.728 3.04569 0.704011 0
M  V30 2855 H 258.948 3.54122 -1.73179 0
M  V30 2856 H 260.236 4.75673 -1.80589 0
M  V30 2857 H 259.634 5.50911 1.28504 0
M  V30 2858 H 258.191 6.42387 1.10376 0
M  V30 2859 N 261.624 0.925811 1.2754 0
M  V30 2860 C 262.587 0.428129 2.25166 0
M  V30 2861 C 263.587 -0.452261 1.54309 0
M  V30 2862 O 264.777 -0.253608 1.72344 0
M  V30 2863 C 261.909 -0.384749 3.38722 0
M  V30 2864 H 263.102 1.29066 2.70706 0
M  V30 2865 H 260.655 0.706323 1.3943 0
M  V30 2866 H 261.39 -1.26618 2.98561 0
M  V30 2867 H 261.175 0.246454 3.91325 0
M  V30 2868 H 262.665 -0.723389 4.11287 0
M  V30 2869 N 263.102 -1.41638 0.69111 0
M  V30 2870 C 264.379 -1.95036 0.148421 0
M  V30 2871 C 264.759 -1.63072 -1.34055 0
M  V30 2872 O 264.107 -0.93538 -2.08478 0
M  V30 2873 C 264.317 -3.46279 0.434951 0
M  V30 2874 C 265.665 -4.23069 0.360275 0
M  V30 2875 O 266.689 -3.54277 0.369613 0
M  V30 2876 O 265.548 -5.45583 0.316534 0
M  V30 2877 H 262.642 -0.826908 0.0123654 0
M  V30 2878 H 265.188 -1.5138 0.766963 0
M  V30 2879 H 263.96 -3.6281 1.46576 0
M  V30 2880 H 263.583 -3.97019 -0.214787 0
M  V30 2881 N 264.58 -0.43555 -1.51462 0
M  V30 2882 C 265.805 0.132627 -2.06976 0
M  V30 2883 C 266.23 1.35848 -1.30104 0
M  V30 2884 O 265.588 1.78112 -0.338493 0
M  V30 2885 C 265.636 0.43523 -3.57964 0
M  V30 2886 O 264.74 1.52198 -3.83288 0
M  V30 2887 H 264.081 0.00265 -0.663995 0
M  V30 2888 H 266.611 -0.616369 -1.95095 0
M  V30 2889 H 266.621 0.686206 -4.02188 0
M  V30 2890 H 265.296 -0.460739 -4.1334 0
M  V30 2891 H 263.873 1.2611 -3.50928 0
M  V30 2892 N 266.058 1.56714 -0.166846 0
M  V30 2893 C 266.968 2.21331 0.777791 0
M  V30 2894 C 267.984 1.20358 1.25658 0
M  V30 2895 O 269.16 1.53005 1.30964 0
M  V30 2896 C 266.225 2.83787 1.99163 0
M  V30 2897 C 265.286 3.99947 1.56016 0
M  V30 2898 C 264.519 4.59415 2.71613 0
M  V30 2899 O 264.742 4.17769 3.88362 0
M  V30 2900 O 263.676 5.49359 2.45945 0
M  V30 2901 H 267.502 3.02605 0.257636 0
M  V30 2902 H 265.087 1.49275 0.0611393 0
M  V30 2903 H 266.969 3.23405 2.70161 0
M  V30 2904 H 265.644 2.05513 2.50092 0
M  V30 2905 H 264.551 3.65007 0.819809 0
M  V30 2906 H 265.884 4.79801 1.09782 0
M  V30 2907 N 267.536 -0.106894 1.57237 0
M  V30 2908 C 268.469 -1.16125 1.96444 0
M  V30 2909 C 269.447 -1.3947 0.835871 0
M  V30 2910 O 270.631 -1.53425 1.09513 0
M  V30 2911 C 267.758 -2.51277 2.27107 0
M  V30 2912 C 266.804 -2.44285 3.4961 0
M  V30 2913 S 267.637 -1.87077 5.01759 0
M  V30 2914 C 268.793 -3.23877 5.35588 0
M  V30 2915 H 269.026 -0.826971 2.85567 0
M  V30 2916 H 266.559 -0.314124 1.51171 0
M  V30 2917 H 268.517 -3.29035 2.45451 0
M  V30 2918 H 267.178 -2.81879 1.38576 0
M  V30 2919 H 266.371 -3.4387 3.68469 0
M  V30 2920 H 265.973 -1.74652 3.30715 0
M  V30 2921 H 268.265 -4.20122 5.31511 0
M  V30 2922 H 269.208 -3.09833 6.36717 0
M  V30 2923 H 269.616 -3.22864 4.63054 0
M  V30 2924 N 269.014 -1.53014 -0.377408 0
M  V30 2925 C 270.242 -1.72515 -1.14219 0
M  V30 2926 C 270.657 -0.448735 -1.8339 0
M  V30 2927 O 270.014 0.577592 -1.73119 0
M  V30 2928 C 270.065 -2.8826 -2.18148 0
M  V30 2929 O 269.786 -4.10962 -1.51795 0
M  V30 2930 C 271.287 -3.19536 -3.07264 0
M  V30 2931 H 268.507 -0.577301 -0.342001 0
M  V30 2932 H 271.051 -1.99712 -0.439935 0
M  V30 2933 H 269.206 -2.63492 -2.83991 0
M  V30 2934 H 269.62 -4.75693 -2.20945 0
M  V30 2935 H 271.094 -4.03959 -3.76193 0
M  V30 2936 H 271.571 -2.34403 -3.71419 0
M  V30 2937 H 272.177 -3.46186 -2.47053 0
M  V30 2938 N 270.492 0.636531 -1.44174 0
M  V30 2939 C 271.74 1.39343 -1.46383 0
M  V30 2940 C 272.061 1.94766 -0.0955715 0
M  V30 2941 O 271.331 1.75452 0.871395 0
M  V30 2942 H 269.911 0.517199 -0.538994 0
M  V30 2943 H 272.573 0.74957 -1.7991 0
M  V30 2944 H 271.669 2.22746 -2.18611 0
M  V30 2945 N 271.97 1.30982 0.876444 0
M  V30 2946 C 273.2 1.23063 1.65949 0
M  V30 2947 C 273.608 -0.207537 1.88058 0
M  V30 2948 O 272.951 -1.14781 1.43426 0
M  V30 2949 C 273.013 1.89768 3.05333 0
M  V30 2950 C 272.677 3.39106 3.0636 0
M  V30 2951 C 273.674 4.3496 2.84791 0
M  V30 2952 C 271.359 3.80693 3.27686 0
M  V30 2953 C 273.353 5.70375 2.84519 0
M  V30 2954 C 271.04 5.16223 3.27043 0
M  V30 2955 C 272.038 6.10875 3.05485 0
M  V30 2956 O 271.726 7.43928 3.04674 0
M  V30 2957 H 271.458 0.426685 0.524324 0
M  V30 2958 H 274.012 1.7329 1.10271 0
M  V30 2959 H 272.242 1.34082 3.6271 0
M  V30 2960 H 273.931 1.75853 3.65829 0
M  V30 2961 H 274.697 4.0416 2.68103 0
M  V30 2962 H 270.576 3.07457 3.43499 0
M  V30 2963 H 274.12 6.44228 2.67611 0
M  V30 2964 H 270.017 5.4666 3.43269 0
M  V30 2965 H 270.785 7.53022 3.2078 0
M  V30 2966 N 273.449 -1.08991 1.13837 0
M  V30 2967 C 274.695 -1.81526 0.90422 0
M  V30 2968 C 275.028 -1.85706 -0.568066 0
M  V30 2969 O 274.303 -1.32855 -1.42056 0
M  V30 2970 C 274.586 -3.27447 1.49835 0
M  V30 2971 C 274.439 -3.31512 3.04006 0
M  V30 2972 C 275.758 -4.24256 1.17025 0
M  V30 2973 H 272.877 -0.659029 0.329923 0
M  V30 2974 H 275.519 -1.27644 1.40737 0
M  V30 2975 H 273.669 -3.73462 1.07044 0
M  V30 2976 H 275.341 -2.93867 3.55584 0
M  V30 2977 H 273.584 -2.70963 3.38765 0
M  V30 2978 H 274.255 -4.34329 3.40679 0
M  V30 2979 H 276.731 -3.86549 1.54009 0
M  V30 2980 H 275.607 -5.24684 1.61237 0
M  V30 2981 H 275.868 -4.42019 0.0846274 0
M  V30 2982 N 274.927 -0.932562 -1.27047 0
M  V30 2983 C 276.173 -0.576412 -1.94436 0
M  V30 2984 C 276.506 0.880891 -1.73072 0
M  V30 2985 O 275.781 1.62905 -1.06264 0
M  V30 2986 C 276.064 -0.909031 -3.48437 0
M  V30 2987 C 275.917 -2.42044 -3.79123 0
M  V30 2988 C 277.236 -0.418341 -4.38107 0
M  V30 2989 H 274.355 -0.210888 -0.706184 0
M  V30 2990 H 276.997 -1.16522 -1.50075 0
M  V30 2991 H 275.147 -0.407947 -3.86352 0
M  V30 2992 H 276.819 -2.99359 -3.50973 0
M  V30 2993 H 275.062 -2.86758 -3.25503 0
M  V30 2994 H 275.733 -2.6037 -4.86736 0
M  V30 2995 H 278.209 -0.847856 -4.0737 0
M  V30 2996 H 277.085 -0.679981 -5.44672 0
M  V30 2997 H 277.346 0.681642 -4.36814 0
M  V30 2998 N 276.405 1.4127 -0.698611 0
M  V30 2999 C 277.633 2.05503 -0.239992 0
M  V30 3000 C 278.048 1.52584 1.11191 0
M  V30 3001 O 277.405 0.675323 1.69545 0
M  V30 3002 C 277.456 3.60987 -0.192429 0
M  V30 3003 O 277.177 4.1195 -1.49094 0
M  V30 3004 C 278.678 4.42371 0.28681 0
M  V30 3005 H 275.898 0.661748 -0.111045 0
M  V30 3006 H 278.442 1.80987 -0.95205 0
M  V30 3007 H 276.597 3.84533 0.470472 0
M  V30 3008 H 277.011 5.06018 -1.38007 0
M  V30 3009 H 278.485 5.51344 0.26896 0
M  V30 3010 H 278.962 4.18699 1.32619 0
M  V30 3011 H 279.568 4.23897 -0.345201 0
M  V30 3012 N 277.883 0.443576 1.51229 0
M  V30 3013 C 279.299 0.0962001 1.5931 0
M  V30 3014 C 279.499 -1.39501 1.45402 0
M  V30 3015 O 278.555 -2.16557 1.29843 0
M  V30 3016 C 279.868 0.621875 2.94199 0
M  V30 3017 C 281.416 0.582865 3.07525 0
M  V30 3018 C 281.891 1.08562 4.44948 0
M  V30 3019 N 283.382 1.04387 4.51284 0
M  V30 3020 C 284.117 1.40368 5.55954 0
M  V30 3021 N 283.613 1.83664 6.68011 0
M  V30 3022 N 285.406 1.32145 5.46346 0
M  V30 3023 H 277.557 1.41376 1.58514 0
M  V30 3024 H 279.82 0.582965 0.747567 0
M  V30 3025 H 279.526 1.66546 3.09767 0
M  V30 3026 H 279.4 0.0502125 3.77167 0
M  V30 3027 H 281.787 -0.451749 2.91622 0
M  V30 3028 H 281.868 1.191 2.26382 0
M  V30 3029 H 281.512 2.11873 4.61598 0
M  V30 3030 H 281.442 0.453956 5.2464 0
M  V30 3031 H 283.933 0.725986 3.70861 0
M  V30 3032 H 284.246 2.0934 7.43906 0
M  V30 3033 H 282.591 1.87596 6.69203 0
M  V30 3034 H 285.782 0.981808 4.57688 0
M  V30 3035 H 285.955 1.60514 6.27805 0
M  V30 3036 N 279.361 -1.56624 0.175154 0
M  V30 3037 C 280.607 -1.98061 -0.462976 0
M  V30 3038 C 280.962 -1.05949 -1.60601 0
M  V30 3039 O 280.255 -0.0999027 -1.91339 0
M  V30 3040 C 280.449 -3.43419 -0.989864 0
M  V30 3041 C 280.278 -4.49587 0.100583 0
M  V30 3042 C 279.048 -5.02281 0.551539 0
M  V30 3043 C 281.246 -5.06322 0.902369 0
M  V30 3044 N 279.228 -5.92088 1.62189 0
M  V30 3045 C 280.599 -5.92607 1.82256 0
M  V30 3046 C 282.654 -4.88811 0.947019 0
M  V30 3047 C 281.357 -6.63254 2.78364 0
M  V30 3048 C 283.383 -5.60182 1.89606 0
M  V30 3049 C 282.745 -6.46197 2.80372 0
M  V30 3050 H 278.844 -0.769833 -0.137409 0
M  V30 3051 H 281.428 -1.9273 0.276256 0
M  V30 3052 H 279.599 -3.49288 -1.6986 0
M  V30 3053 H 281.331 -3.7186 -1.59694 0
M  V30 3054 H 278.086 -4.73367 0.148537 0
M  V30 3055 H 278.51 -6.41696 2.15767 0
M  V30 3056 H 283.152 -4.22004 0.259304 0
M  V30 3057 H 280.87 -7.29271 3.48122 0
M  V30 3058 H 284.456 -5.48617 1.93676 0
M  V30 3059 H 283.336 -7.00453 3.52612 0
M  V30 3060 N 280.839 0.0985539 -1.57292 0
M  V30 3061 C 282.069 0.815135 -1.8984 0
M  V30 3062 C 282.477 1.7297 -0.766679 0
M  V30 3063 O 281.82 1.81698 0.270483 0
M  V30 3064 C 281.882 1.6842 -3.17608 0
M  V30 3065 C 281.546 0.94182 -4.4719 0
M  V30 3066 C 282.543 0.273212 -5.19182 0
M  V30 3067 C 280.228 0.916927 -4.9386 0
M  V30 3068 C 282.222 -0.410361 -6.36078 0
M  V30 3069 C 279.909 0.229567 -6.10669 0
M  V30 3070 C 280.907 -0.432902 -6.81627 0
M  V30 3071 O 280.595 -1.10925 -7.9621 0
M  V30 3072 H 280.327 0.238501 -0.632529 0
M  V30 3073 H 282.881 0.0812659 -2.05239 0
M  V30 3074 H 281.111 2.46022 -2.98345 0
M  V30 3075 H 282.8 2.27704 -3.36015 0
M  V30 3076 H 283.566 0.283927 -4.84168 0
M  V30 3077 H 279.445 1.42201 -4.3852 0
M  V30 3078 H 282.989 -0.928013 -6.914 0
M  V30 3079 H 278.886 0.216686 -6.45136 0
M  V30 3080 H 279.654 -1.01579 -8.12172 0
M  V30 3081 N 282.317 1.53212 0.369288 0
M  V30 3082 C 283.733 1.42902 0.710712 0
M  V30 3083 C 283.933 0.565135 1.93413 0
M  V30 3084 O 282.989 0.0461484 2.52458 0
M  V30 3085 C 284.302 2.86042 0.927382 0
M  V30 3086 C 285.85 2.9565 1.02762 0
M  V30 3087 C 286.325 4.39843 1.27679 0
M  V30 3088 N 287.816 4.43256 1.34457 0
M  V30 3089 C 288.551 5.51929 1.55439 0
M  V30 3090 N 288.047 6.70655 1.73762 0
M  V30 3091 N 289.84 5.39502 1.57779 0
M  V30 3092 H 281.991 2.07888 -0.435457 0
M  V30 3093 H 284.254 0.938661 -0.132739 0
M  V30 3094 H 283.96 3.51557 0.100287 0
M  V30 3095 H 283.834 3.29472 1.83653 0
M  V30 3096 H 286.221 2.30291 1.84527 0
M  V30 3097 H 286.302 2.5562 0.0959504 0
M  V30 3098 H 285.946 5.05774 0.464175 0
M  V30 3099 H 285.876 4.77443 2.22162 0
M  V30 3100 H 288.367 3.5769 1.21926 0
M  V30 3101 H 288.68 7.49248 1.89335 0
M  V30 3102 H 287.025 6.73648 1.70948 0
M  V30 3103 H 290.216 4.45713 1.43029 0
M  V30 3104 H 290.389 6.2426 1.7379 0
M  V30 3105 N 283.795 -0.628877 1.44509 0
M  V30 3106 C 284.758 -1.72263 1.51188 0
M  V30 3107 C 285.758 -1.55907 0.39367 0
M  V30 3108 O 286.948 -1.61361 0.656377 0
M  V30 3109 C 284.08 -3.11365 1.38798 0
M  V30 3110 H 285.273 -1.67714 2.4862 0
M  V30 3111 H 282.826 -0.842737 1.31634 0
M  V30 3112 H 283.561 -3.21507 0.424693 0
M  V30 3113 H 283.346 -3.24644 2.19884 0
M  V30 3114 H 284.836 -3.91075 1.46458 0
M  V30 3115 N 285.273 -1.31445 -0.869486 0
M  V30 3116 C 286.684 -1.19042 -1.43826 0
M  V30 3117 C 287.035 0.202919 -1.95148 0
M  V30 3118 O 286.16 1.10071 -1.86315 0
M  V30 3119 C 286.755 -2.15499 -2.6143 0
M  V30 3120 C 285.314 -2.07028 -3.14351 0
M  V30 3121 C 284.461 -2.04701 -1.87063 0
M  V30 3122 H 287.412 -1.43489 -0.677984 0
M  V30 3123 H 287.433 -1.74488 -3.38134 0
M  V30 3124 H 286.945 -3.16899 -2.24046 0
M  V30 3125 H 285.046 -1.08825 -3.56354 0
M  V30 3126 H 285.159 -2.96157 -3.766 0
M  V30 3127 H 283.523 -1.49724 -2.06046 0
M  V30 3128 H 284.306 -3.07857 -1.51917 0
M  V30 3129 N 286.751 1.08385 -1.14413 0
M  V30 3130 C 287.661 2.18856 -0.844951 0
M  V30 3131 C 288.677 1.73121 0.174668 0
M  V30 3132 O 289.853 2.014 0.00312857 0
M  V30 3133 C 286.918 3.45155 -0.32696 0
M  V30 3134 C 285.979 4.05513 -1.40916 0
M  V30 3135 C 285.212 5.25784 -0.915793 0
M  V30 3136 O 285.435 5.69884 0.242651 0
M  V30 3137 O 284.369 5.77545 -1.69487 0
M  V30 3138 H 288.195 2.46919 -1.76818 0
M  V30 3139 H 285.78 1.17524 -0.922411 0
M  V30 3140 H 287.662 4.21377 -0.0440211 0
M  V30 3141 H 286.337 3.18668 0.568539 0
M  V30 3142 H 285.244 3.30879 -1.74556 0
M  V30 3143 H 286.577 4.3625 -2.27919 0
M  V30 3144 N 288.23 0.939286 1.26551 0
M  V30 3145 C 289.476 0.586715 1.94128 0
M  V30 3146 C 289.809 -0.8717 1.73537 0
M  V30 3147 O 289.084 -1.62339 1.07127 0
M  V30 3148 C 289.367 0.927497 3.4795 0
M  V30 3149 C 289.22 2.44052 3.77834 0
M  V30 3150 C 290.539 0.441569 4.37879 0
M  V30 3151 H 287.658 0.21463 0.705055 0
M  V30 3152 H 290.3 1.17316 1.49455 0
M  V30 3153 H 288.45 0.428431 3.8613 0
M  V30 3154 H 290.122 3.01216 3.4938 0
M  V30 3155 H 288.365 2.8848 3.23978 0
M  V30 3156 H 289.036 2.62947 4.85348 0
M  V30 3157 H 291.512 0.869448 4.06915 0
M  V30 3158 H 290.388 0.708856 5.44304 0
M  V30 3159 H 290.649 -0.658467 4.37169 0
M  V30 3160 N 289.708 -1.40897 0.706093 0
M  V30 3161 C 290.957 -2.00284 0.238574 0
M  V30 3162 C 291.27 -1.56604 -1.17194 0
M  V30 3163 O 292.476 -2.08624 -1.73748 0
M  V30 3164 C 290.932 -3.57934 0.375623 0
M  V30 3165 C 290.54 -4.10591 1.79217 0
M  V30 3166 C 292.284 -4.24488 -0.0315857 0
M  V30 3167 C 290.191 -5.60712 1.88032 0
M  V30 3168 H 289.121 -0.749144 0.0854398 0
M  V30 3169 H 291.772 -1.61251 0.875813 0
M  V30 3170 H 290.154 -3.94622 -0.330042 0
M  V30 3171 H 291.328 -3.85301 2.52745 0
M  V30 3172 H 289.643 -3.56601 2.15 0
M  V30 3173 H 292.24 -5.34698 0.0136842 0
M  V30 3174 H 292.583 -4.02261 -1.072 0
M  V30 3175 H 293.116 -3.92873 0.624181 0
M  V30 3176 H 289.855 -5.87781 2.90161 0
M  V30 3177 H 289.375 -5.87896 1.18903 0
M  V30 3178 H 291.054 -6.25658 1.64805 0
M  V30 3179 N 291.186 -0.45159 -1.50991 0
M  V30 3180 C 292.116 0.342898 -2.30969 0
M  V30 3181 C 293.097 1.00815 -1.37005 0
M  V30 3182 O 294.282 1.00907 -1.65926 0
M  V30 3183 C 291.412 1.43637 -3.16205 0
M  V30 3184 C 290.366 0.893818 -4.18563 0
M  V30 3185 C 289.692 2.08411 -4.92411 0
M  V30 3186 C 290.992 -0.0815568 -5.22236 0
M  V30 3187 H 292.686 -0.324556 -2.97636 0
M  V30 3188 H 290.232 -0.157531 -1.43136 0
M  V30 3189 H 292.185 1.9995 -3.70942 0
M  V30 3190 H 290.909 2.13232 -2.47386 0
M  V30 3191 H 289.568 0.352798 -3.64898 0
M  V30 3192 H 289.216 2.76658 -4.20082 0
M  V30 3193 H 288.916 1.72741 -5.61636 0
M  V30 3194 H 290.44 2.65251 -5.49976 0
M  V30 3195 H 291.854 0.391742 -5.7196 0
M  V30 3196 H 290.251 -0.351551 -5.99069 0
M  V30 3197 H 291.321 -1.01374 -4.74185 0
M  V30 3198 N 292.664 1.56529 -0.183458 0
M  V30 3199 C 293.612 2.19873 0.758845 0
M  V30 3200 C 294.606 1.16638 1.22849 0
M  V30 3201 O 295.812 1.3481 1.19274 0
M  V30 3202 H 292.187 0.7045 0.263029 0
M  V30 3203 H 294.158 2.97724 0.200755 0
M  V30 3204 C 292.907 2.86314 1.9728 0
M  V30 3205 H 292.23 3.65487 1.62047 0
M  V30 3206 H 293.67 3.3409 2.61075 0
M  V30 3207 C 292.129 1.86729 2.80418 0
M  V30 3208 O 292.659 1.36031 3.77966 0
M  V30 3209 N 290.865 1.55216 2.45675 0
M  V30 3210 H 290.412 1.96636 1.66409 0
M  V30 3211 H 290.37 0.888388 3.01588 0
M  V30 3212 N 294.142 -0.090211 1.57342 0
M  V30 3213 C 295.388 -0.788838 1.8748 0
M  V30 3214 C 295.743 -1.76105 0.7749 0
M  V30 3215 O 295.036 -1.90302 -0.222663 0
M  V30 3216 C 295.23 -1.55222 3.21933 0
M  V30 3217 C 295.059 -0.655441 4.44898 0
M  V30 3218 C 293.829 -0.299325 5.04413 0
M  V30 3219 C 296.027 0.0397458 5.14285 0
M  V30 3220 N 294.009 0.605108 6.10911 0
M  V30 3221 C 295.38 0.802061 6.1479 0
M  V30 3222 C 297.435 0.113154 4.97771 0
M  V30 3223 C 296.138 1.63093 7.00566 0
M  V30 3224 C 298.164 0.928942 5.84059 0
M  V30 3225 C 297.526 1.67936 6.84088 0
M  V30 3226 H 293.625 -0.26467 0.735849 0
M  V30 3227 H 296.209 -0.0511453 1.94633 0
M  V30 3228 H 294.38 -2.26076 3.15823 0
M  V30 3229 H 296.112 -2.19843 3.39781 0
M  V30 3230 H 292.867 -0.648079 4.69145 0
M  V30 3231 H 293.291 1.05002 6.68808 0
M  V30 3232 H 297.933 -0.452676 4.2037 0
M  V30 3233 H 295.651 2.20781 7.77355 0
M  V30 3234 H 299.237 0.988478 5.73341 0
M  V30 3235 H 298.117 2.30044 7.49699 0
M  V30 3236 N 295.62 -1.53406 -0.361157 0
M  V30 3237 C 296.553 -1.74946 -1.46524 0
M  V30 3238 C 297.531 -0.59795 -1.51206 0
M  V30 3239 O 298.715 -0.831062 -1.69191 0
M  V30 3240 C 295.842 -1.83224 -2.84863 0
M  V30 3241 C 294.888 -3.05233 -2.97885 0
M  V30 3242 S 295.721 -4.6466 -2.66179 0
M  V30 3243 C 296.877 -4.75793 -4.06659 0
M  V30 3244 H 297.11 -2.68319 -1.28033 0
M  V30 3245 H 294.643 -1.44051 -0.555764 0
M  V30 3246 H 296.601 -1.88679 -3.64569 0
M  V30 3247 H 295.262 -0.908948 -3.00661 0
M  V30 3248 H 294.455 -3.07648 -3.9921 0
M  V30 3249 H 294.057 -2.97913 -2.26106 0
M  V30 3250 H 296.349 -4.5612 -5.0096 0
M  V30 3251 H 297.292 -5.7786 -4.09247 0
M  V30 3252 H 297.7 -4.04389 -3.93865 0
M  V30 3253 N 297.098 0.621204 -1.44841 0
M  V30 3254 C 298.514 0.94048 -1.28946 0
M  V30 3255 C 298.714 2.00154 -0.23249 0
M  V30 3256 O 297.77 2.49651 0.378237 0
M  V30 3257 C 299.083 1.39433 -2.66419 0
M  V30 3258 C 300.631 1.50927 -2.74208 0
M  V30 3259 C 301.106 1.99692 -4.12174 0
M  V30 3260 N 302.597 2.06947 -4.144 0
M  V30 3261 C 303.332 2.45871 -5.1801 0
M  V30 3262 N 302.828 2.83862 -6.31977 0
M  V30 3263 N 304.621 2.46092 -5.05366 0
M  V30 3264 H 296.772 -0.0803548 -2.12248 0
M  V30 3265 H 299.035 0.0266913 -0.947624 0
M  V30 3266 H 298.741 0.688925 -3.44887 0
M  V30 3267 H 298.615 2.36347 -2.93973 0
M  V30 3268 H 301.002 2.20561 -1.96053 0
M  V30 3269 H 301.083 0.523627 -2.50383 0
M  V30 3270 H 300.727 1.30649 -4.90809 0
M  V30 3271 H 300.657 2.99146 -4.33381 0
M  V30 3272 H 303.148 1.80232 -3.32152 0
M  V30 3273 H 303.461 3.12405 -7.0684 0
M  V30 3274 H 301.806 2.8159 -6.35399 0
M  V30 3275 H 304.997 2.1581 -4.15384 0
M  V30 3276 H 305.17 2.76102 -5.86235 0
M  V30 3277 N 298.576 1.31904 0.862503 0
M  V30 3278 C 299.806 1.24817 1.64634 0
M  V30 3279 C 300.214 -0.187579 1.88268 0
M  V30 3280 O 299.557 -1.13253 1.44635 0
M  V30 3281 C 299.619 1.92996 3.03303 0
M  V30 3282 C 299.283 3.42336 3.02746 0
M  V30 3283 C 300.28 4.37956 2.80162 0
M  V30 3284 C 297.965 3.84147 3.2363 0
M  V30 3285 C 299.959 5.73361 2.78453 0
M  V30 3286 C 297.646 5.19663 3.21549 0
M  V30 3287 C 298.644 6.14081 2.98988 0
M  V30 3288 O 298.332 7.47118 2.96766 0
M  V30 3289 H 298.064 0.432222 0.519769 0
M  V30 3290 H 300.618 1.7445 1.08427 0
M  V30 3291 H 298.848 1.37922 3.61268 0
M  V30 3292 H 300.537 1.79723 3.63943 0
M  V30 3293 H 301.303 4.06981 2.63802 0
M  V30 3294 H 297.182 3.11083 3.40218 0
M  V30 3295 H 300.726 6.4703 2.60763 0
M  V30 3296 H 296.623 5.5027 3.37451 0
M  V30 3297 H 297.391 7.56382 3.12775 0
M  V30 3298 N 300.054 -1.07777 1.14986 0
M  V30 3299 C 301.282 -1.84018 0.945773 0
M  V30 3300 C 301.697 -1.81897 -0.505863 0
M  V30 3301 O 301.054 -1.22726 -1.35072 0
M  V30 3302 C 301.105 -3.31287 1.44677 0
M  V30 3303 O 300.826 -3.33449 2.84154 0
M  V30 3304 C 302.327 -4.24311 1.28355 0
M  V30 3305 H 299.547 -0.580716 0.336169 0
M  V30 3306 H 302.091 -1.36077 1.52654 0
M  V30 3307 H 300.246 -3.76594 0.908625 0
M  V30 3308 H 300.66 -4.25427 3.06777 0
M  V30 3309 H 302.134 -5.2573 1.68261 0
M  V30 3310 H 302.611 -4.38612 0.227184 0
M  V30 3311 H 303.217 -3.84836 1.81056 0
M  V30 3312 N 301.532 -0.945985 -1.26051 0
M  V30 3313 C 302.464 -0.416662 -2.25381 0
M  V30 3314 C 303.477 0.462712 -1.56086 0
M  V30 3315 O 304.666 0.272383 -1.7641 0
M  V30 3316 C 301.766 0.419812 -3.3629 0
M  V30 3317 C 300.939 -0.444531 -4.35135 0
M  V30 3318 C 299.998 0.332305 -5.2515 0
M  V30 3319 O 299.024 -0.266324 -5.68577 0
M  V30 3320 N 300.226 1.62763 -5.57215 0
M  V30 3321 H 302.991 -1.27059 -2.71433 0
M  V30 3322 H 300.552 -0.815392 -1.39868 0
M  V30 3323 H 302.544 0.947013 -3.93464 0
M  V30 3324 H 301.114 1.17456 -2.89694 0
M  V30 3325 H 300.334 -1.15291 -3.76964 0
M  V30 3326 H 301.622 -1.03478 -4.98166 0
M  V30 3327 H 301.02 2.13603 -5.23823 0
M  V30 3328 H 299.577 2.10097 -6.17011 0
M  V30 3329 N 303.011 1.40521 -0.713556 0
M  V30 3330 C 304.239 2.05237 -0.261775 0
M  V30 3331 C 304.654 1.53755 1.09567 0
M  V30 3332 O 304.011 0.693268 1.6882 0
M  V30 3333 C 304.062 3.60763 -0.230706 0
M  V30 3334 O 303.783 4.10345 -1.53455 0
M  V30 3335 C 305.284 4.42651 0.239874 0
M  V30 3336 H 302.504 0.660533 -0.118057 0
M  V30 3337 H 305.048 1.79967 -0.971192 0
M  V30 3338 H 303.203 3.8501 0.429661 0
M  V30 3339 H 303.617 5.04526 -1.43366 0
M  V30 3340 H 305.091 5.51599 0.210468 0
M  V30 3341 H 305.568 4.20082 1.28171 0
M  V30 3342 H 306.174 4.23507 -0.390142 0
M  V30 3343 N 304.489 0.459591 1.5075 0
M  V30 3344 C 305.735 -0.0994966 2.02556 0
M  V30 3345 C 306.068 -1.40399 1.3417 0
M  V30 3346 O 305.343 -1.88892 0.463683 0
M  V30 3347 C 305.626 -0.295242 3.58888 0
M  V30 3348 C 305.479 1.02947 4.37861 0
M  V30 3349 C 306.798 -1.05502 4.27267 0
M  V30 3350 H 303.917 -0.034686 0.736183 0
M  V30 3351 H 306.559 0.602938 1.8018 0
M  V30 3352 H 304.709 -0.893563 3.78084 0
M  V30 3353 H 306.381 1.66348 4.30263 0
M  V30 3354 H 304.624 1.62885 4.02058 0
M  V30 3355 H 305.295 0.846281 5.45474 0
M  V30 3356 H 307.771 -0.547993 4.12476 0
M  V30 3357 H 306.647 -1.16077 5.36486 0
M  V30 3358 H 306.908 -2.08875 3.89645 0
M  V30 3359 N 305.967 -1.56429 0.191757 0
M  V30 3360 C 307.244 -1.89224 -0.495332 0
M  V30 3361 C 307.624 -1.10478 -1.79883 0
M  V30 3362 O 306.972 -0.204852 -2.2758 0
M  V30 3363 C 307.182 -3.41548 -0.717367 0
M  V30 3364 C 308.53 -4.11711 -1.03823 0
M  V30 3365 O 309.554 -3.4698 -0.805204 0
M  V30 3366 O 308.413 -5.2611 -1.47887 0
M  V30 3367 H 305.507 -0.785788 -0.25781 0
M  V30 3368 H 308.053 -1.68111 0.231721 0
M  V30 3369 H 306.825 -3.90772 0.203287 0
M  V30 3370 H 306.448 -3.68342 -1.497 0
M  V30 3371 N 307.445 0.0818655 -1.57387 0
M  V30 3372 C 308.694 0.781681 -1.85937 0
M  V30 3373 C 309.007 1.79246 -0.782957 0
M  V30 3374 O 310.213 2.54112 -0.955987 0
M  V30 3375 C 308.669 1.44109 -3.29789 0
M  V30 3376 C 308.277 0.469396 -4.45534 0
M  V30 3377 C 310.021 2.12386 -3.67549 0
M  V30 3378 C 307.928 1.13415 -5.80423 0
M  V30 3379 H 306.858 0.295682 -0.693605 0
M  V30 3380 H 309.509 0.0348051 -1.83467 0
M  V30 3381 H 307.891 2.23588 -3.2684 0
M  V30 3382 H 309.065 -0.294856 -4.59856 0
M  V30 3383 H 307.38 -0.108383 -4.16259 0
M  V30 3384 H 309.977 2.62878 -4.65617 0
M  V30 3385 H 310.32 2.91877 -2.96839 0
M  V30 3386 H 310.853 1.39751 -3.72444 0
M  V30 3387 H 307.592 0.379771 -6.54399 0
M  V30 3388 H 307.112 1.8695 -5.69921 0
M  V30 3389 H 308.791 1.65686 -6.25426 0
M  V30 3390 N 308.923 1.53595 0.353017 0
M  V30 3391 C 310.169 1.71581 1.09232 0
M  V30 3392 C 310.524 0.468328 1.86613 0
M  V30 3393 O 309.817 -0.538911 1.83865 0
M  V30 3394 C 310.011 2.91313 2.07054 0
M  V30 3395 C 309.84 4.27585 1.39287 0
M  V30 3396 C 308.61 4.92233 1.1417 0
M  V30 3397 C 310.808 5.07656 0.824005 0
M  V30 3398 N 308.79 6.124 0.428841 0
M  V30 3399 C 310.161 6.19531 0.241195 0
M  V30 3400 C 312.216 4.92609 0.723922 0
M  V30 3401 C 310.919 7.18002 -0.431952 0
M  V30 3402 C 312.945 5.91365 0.0645334 0
M  V30 3403 C 312.307 7.02571 -0.507347 0
M  V30 3404 H 308.406 0.680987 0.384422 0
M  V30 3405 H 310.99 1.91013 0.377096 0
M  V30 3406 H 309.161 2.73398 2.75877 0
M  V30 3407 H 310.893 2.98062 2.73753 0
M  V30 3408 H 307.648 4.51612 1.42631 0
M  V30 3409 H 308.072 6.76944 0.0874131 0
M  V30 3410 H 312.714 4.06808 1.15181 0
M  V30 3411 H 310.432 8.03384 -0.871758 0
M  V30 3412 H 314.018 5.81799 -0.0121469 0
M  V30 3413 H 312.898 7.77675 -1.0095 0
M  V30 3414 N 310.401 -0.613514 1.45168 0
M  V30 3415 C 311.626 -1.40437 1.52618 0
M  V30 3416 C 312.051 -1.87438 0.157707 0
M  V30 3417 O 311.409 -1.59791 -0.856537 0
M  V30 3418 C 311.457 -2.58894 2.51011 0
M  V30 3419 O 310.561 -3.59326 2.02382 0
M  V30 3420 H 309.902 -0.419506 0.514695 0
M  V30 3421 H 312.432 -0.747215 1.90467 0
M  V30 3422 H 312.442 -3.06214 2.69624 0
M  V30 3423 H 311.117 -2.24032 3.50403 0
M  V30 3424 H 309.694 -3.18695 1.93618 0
M  V30 3425 N 311.879 -1.3236 -0.855495 0
M  V30 3426 C 313.125 -1.23054 -1.612 0
M  V30 3427 C 313.458 0.207404 -1.93089 0
M  V30 3428 O 312.733 1.14432 -1.57275 0
M  V30 3429 C 313.016 -2.08937 -2.93287 0
M  V30 3430 C 312.869 -3.61105 -2.68185 0
M  V30 3431 C 314.188 -1.94986 -3.94549 0
M  V30 3432 H 311.307 -0.448364 -0.584926 0
M  V30 3433 H 313.949 -1.62297 -0.987917 0
M  V30 3434 H 312.099 -1.75599 -3.46551 0
M  V30 3435 H 313.771 -4.04652 -2.21483 0
M  V30 3436 H 312.014 -3.83813 -2.02164 0
M  V30 3437 H 312.685 -4.16522 -3.62234 0
M  V30 3438 H 315.161 -2.24189 -3.5054 0
M  V30 3439 H 314.037 -2.57356 -4.84829 0
M  V30 3440 H 314.298 -0.917263 -4.3248 0
M  V30 3441 N 313.357 1.07166 -1.15556 0
M  V30 3442 C 314.605 1.79443 -0.929764 0
M  V30 3443 C 314.926 1.87246 0.544414 0
M  V30 3444 O 314.196 1.37473 1.39564 0
M  V30 3445 H 312.776 0.664625 -0.341003 0
M  V30 3446 H 315.438 1.29499 -1.45657 0
M  V30 3447 H 314.534 2.81832 -1.34079 0
M  V30 3448 N 314.835 0.952656 1.25548 0
M  V30 3449 C 316.075 0.614013 1.9496 0
M  V30 3450 C 316.439 -0.833215 1.72978 0
M  V30 3451 O 317.64 -1.28135 2.36294 0
M  V30 3452 C 315.911 0.960562 3.4425 0
M  V30 3453 S 317.47 0.734195 4.32614 0
M  V30 3454 H 314.288 0.225754 0.674208 0
M  V30 3455 H 316.89 1.22641 1.52248 0
M  V30 3456 H 315.594 2.01103 3.57751 0
M  V30 3457 H 315.125 0.338336 3.91942 0
M  V30 3458 H 317.14 -0.395995 4.94617 0
M  V30 3459 N 316.313 -1.40141 0.720998 0
M  V30 3460 C 317.562 -2.0002 0.259804 0
M  V30 3461 C 317.875 -1.57839 -1.15526 0
M  V30 3462 O 319.081 -2.10455 -1.71525 0
M  V30 3463 C 317.537 -3.57516 0.413566 0
M  V30 3464 C 317.145 -4.08667 1.83562 0
M  V30 3465 C 318.889 -4.24498 0.0134387 0
M  V30 3466 C 316.796 -5.58686 1.93968 0
M  V30 3467 H 315.726 -0.748195 0.0933806 0
M  V30 3468 H 318.377 -1.60313 0.892866 0
M  V30 3469 H 316.759 -3.9495 -0.288169 0
M  V30 3470 H 317.933 -3.82598 2.56817 0
M  V30 3471 H 316.248 -3.543 2.1877 0
M  V30 3472 H 318.845 -5.34654 0.0703954 0
M  V30 3473 H 319.188 -4.03375 -1.02927 0
M  V30 3474 H 319.721 -3.92188 0.665815 0
M  V30 3475 H 316.46 -5.8467 2.96379 0
M  V30 3476 H 315.98 -5.86602 1.25131 0
M  V30 3477 H 317.659 -6.23875 1.71431 0
M  V30 3478 N 317.792 -0.46758 -1.50504 0
M  V30 3479 C 318.725 0.374324 -2.25109 0
M  V30 3480 C 319.703 0.99921 -1.28275 0
M  V30 3481 O 320.887 1.03583 -1.57489 0
M  V30 3482 C 318.014 1.52419 -3.02467 0
M  V30 3483 C 317.06 1.01702 -4.14197 0
M  V30 3484 S 317.893 -0.0654477 -5.3546 0
M  V30 3485 C 319.049 1.08837 -6.16365 0
M  V30 3486 H 319.282 -0.258983 -2.9617 0
M  V30 3487 H 316.815 -0.252421 -1.52323 0
M  V30 3488 H 318.773 2.18322 -3.47628 0
M  V30 3489 H 317.434 2.129 -2.30938 0
M  V30 3490 H 316.627 1.87776 -4.67714 0
M  V30 3491 H 316.229 0.435757 -3.71453 0
M  V30 3492 H 318.521 2.00071 -6.47285 0
M  V30 3493 H 319.464 0.592538 -7.05616 0
M  V30 3494 H 319.872 1.34061 -5.4835 0
M  V30 3495 N 319.27 1.56325 -0.20005 0
M  V30 3496 C 320.233 2.18084 0.705132 0
M  V30 3497 C 321.233 1.13666 1.1374 0
M  V30 3498 O 322.423 1.39023 1.04968 0
M  V30 3499 C 319.555 2.78689 1.96329 0
M  V30 3500 H 320.748 2.99435 0.167023 0
M  V30 3501 H 318.301 1.56221 0.0495725 0
M  V30 3502 H 319.036 2.0115 2.5438 0
M  V30 3503 H 318.821 3.55133 1.66202 0
M  V30 3504 H 320.311 3.26096 2.60866 0
M  V30 3505 N 320.748 -0.0735177 1.57428 0
M  V30 3506 C 321.658 -1.10547 2.06922 0
M  V30 3507 C 322.674 -1.42506 0.998402 0
M  V30 3508 O 323.85 -1.52717 1.31299 0
M  V30 3509 C 320.915 -2.40019 2.50184 0
M  V30 3510 C 319.976 -2.15046 3.71556 0
M  V30 3511 C 319.209 -3.38345 4.12745 0
M  V30 3512 O 319.432 -4.47399 3.53822 0
M  V30 3513 O 318.366 -3.2666 5.05546 0
M  V30 3514 H 322.192 -0.715013 2.95163 0
M  V30 3515 H 319.777 -0.287531 1.46607 0
M  V30 3516 H 321.659 -3.16218 2.78539 0
M  V30 3517 H 320.334 -2.78447 1.65072 0
M  V30 3518 H 319.241 -1.36558 3.48285 0
M  V30 3519 H 320.574 -1.81499 4.57514 0
M  V30 3520 N 322.226 -1.5378 -0.344866 0
M  V30 3521 C 323.159 -1.7649 -1.4466 0
M  V30 3522 C 324.137 -0.613954 -1.50563 0
M  V30 3523 O 325.321 -0.84896 -1.683 0
M  V30 3524 C 322.448 -1.86235 -2.82903 0
M  V30 3525 C 321.494 -3.08375 -2.94631 0
M  V30 3526 S 322.327 -4.67457 -2.61236 0
M  V30 3527 C 323.483 -4.80079 -4.0159 0
M  V30 3528 H 323.716 -2.69661 -1.2518 0
M  V30 3529 H 321.249 -1.44632 -0.540455 0
M  V30 3530 H 323.207 -1.92535 -3.62547 0
M  V30 3531 H 321.868 -0.940786 -2.9968 0
M  V30 3532 H 321.061 -3.11865 -3.95925 0
M  V30 3533 H 320.663 -3.00294 -2.22934 0
M  V30 3534 H 322.955 -4.61407 -4.96094 0
M  V30 3535 H 323.898 -5.82168 -4.03095 0
M  V30 3536 H 324.306 -4.08544 -3.89554 0
M  V30 3537 N 323.704 0.605807 -1.45491 0
M  V30 3538 C 324.953 1.36086 -1.48874 0
M  V30 3539 C 325.266 1.95131 -0.135333 0
M  V30 3540 O 326.472 2.7146 -0.0468144 0
M  V30 3541 C 324.928 2.46518 -2.62215 0
M  V30 3542 C 324.536 1.93877 -4.03876 0
M  V30 3543 C 326.28 3.23512 -2.74846 0
M  V30 3544 C 324.187 3.01801 -5.08596 0
M  V30 3545 H 323.117 0.511497 -0.553974 0
M  V30 3546 H 325.768 0.649089 -1.71636 0
M  V30 3547 H 324.15 3.20388 -2.32739 0
M  V30 3548 H 325.324 1.26704 -4.43038 0
M  V30 3549 H 323.639 1.29622 -3.95711 0
M  V30 3550 H 326.236 4.04013 -3.50253 0
M  V30 3551 H 326.579 3.74631 -1.81542 0
M  V30 3552 H 327.112 2.56742 -3.03856 0
M  V30 3553 H 323.851 2.55597 -6.03614 0
M  V30 3554 H 323.371 3.67535 -4.74002 0
M  V30 3555 H 325.05 3.66152 -5.33424 0
M  V30 3556 N 325.182 1.32811 0.848464 0
M  V30 3557 C 326.41 1.26739 1.63538 0
M  V30 3558 C 326.825 -0.163484 1.88091 0
M  V30 3559 O 326.182 -1.10258 1.45429 0
M  V30 3560 C 326.233 2.03013 2.99112 0
M  V30 3561 O 325.954 3.40518 2.75643 0
M  V30 3562 C 327.455 2.04038 3.93552 0
M  V30 3563 H 324.675 0.437024 0.509167 0
M  V30 3564 H 327.219 1.75033 1.05753 0
M  V30 3565 H 325.374 1.58426 3.53525 0
M  V30 3566 H 325.788 3.79635 3.61908 0
M  V30 3567 H 327.262 2.61877 4.85926 0
M  V30 3568 H 327.739 1.0282 4.26995 0
M  V30 3569 H 328.345 2.486 3.45077 0
M  V30 3570 N 326.66 -1.06551 1.16123 0
M  V30 3571 C 327.908 -1.78947 0.939267 0
M  V30 3572 C 328.229 -1.87532 -0.534476 0
M  V30 3573 O 327.499 -1.38211 -1.38833 0
M  V30 3574 H 326.079 -0.662807 0.344523 0
M  V30 3575 H 328.741 -1.28725 1.46342 0
M  V30 3576 H 327.837 -2.81117 1.35572 0
M  V30 3577 N 328.138 -0.959301 -1.25041 0
M  V30 3578 C 329.085 -0.482057 -2.2571 0
M  V30 3579 C 330.055 0.467939 -1.59372 0
M  V30 3580 O 331.24 0.380159 -1.86974 0
M  V30 3581 C 328.38 0.229623 -3.44335 0
M  V30 3582 C 327.493 -0.758156 -4.25295 0
M  V30 3583 C 326.628 -0.0234403 -5.31195 0
M  V30 3584 C 325.667 -1.00184 -6.03846 0
M  V30 3585 N 324.804 -0.29769 -7.01469 0
M  V30 3586 H 329.644 -1.34538 -2.65901 0
M  V30 3587 H 327.181 -0.674592 -1.3072 0
M  V30 3588 H 329.139 0.658856 -4.11965 0
M  V30 3589 H 327.769 1.05696 -3.05005 0
M  V30 3590 H 326.821 -1.30586 -3.57284 0
M  V30 3591 H 328.133 -1.50458 -4.75567 0
M  V30 3592 H 327.287 0.464201 -6.04922 0
M  V30 3593 H 326.026 0.755741 -4.81809 0
M  V30 3594 H 325.031 -1.50044 -5.2893 0
M  V30 3595 H 326.256 -1.78133 -6.55321 0
M  V30 3596 H 324.202 0.462668 -6.54366 0
M  V30 3597 H 324.119 -0.983128 -7.4958 0
M  V30 3598 H 325.387 0.16826 -7.79318 0
M  V30 3599 N 329.616 1.39756 -0.72842 0
M  V30 3600 C 330.844 2.04948 -0.283528 0
M  V30 3601 C 331.259 1.54908 1.0793 0
M  V30 3602 O 330.616 0.711135 1.68075 0
M  V30 3603 C 330.667 3.60498 -0.268957 0
M  V30 3604 O 330.388 4.08695 -1.57798 0
M  V30 3605 C 331.889 4.4288 0.192912 0
M  V30 3606 H 329.109 0.659243 -0.125056 0
M  V30 3607 H 331.653 1.78927 -0.990226 0
M  V30 3608 H 329.808 3.85444 0.388801 0
M  V30 3609 H 330.222 5.02977 -1.48709 0
M  V30 3610 H 331.696 5.51791 0.151952 0
M  V30 3611 H 332.173 4.21418 1.23708 0
M  V30 3612 H 332.779 4.23069 -0.435039 0
M  V30 3613 N 331.094 0.475555 1.50254 0
M  V30 3614 C 332.024 -0.30611 2.31485 0
M  V30 3615 C 333.005 -0.986228 1.38591 0
M  V30 3616 O 334.19 -0.982541 1.67511 0
M  V30 3617 C 331.32 -1.38588 3.1845 0
M  V30 3618 C 330.274 -0.827115 4.19932 0
M  V30 3619 C 329.6 -2.00551 4.95665 0
M  V30 3620 C 330.9 0.16463 5.2204 0
M  V30 3621 H 332.594 0.371866 2.97082 0
M  V30 3622 H 330.14 0.180282 1.42867 0
M  V30 3623 H 332.093 -1.94023 3.74076 0
M  V30 3624 H 330.817 -2.09269 2.50747 0
M  V30 3625 H 329.476 -0.294702 3.65414 0
M  V30 3626 H 329.124 -2.6994 4.2443 0
M  V30 3627 H 328.824 -1.63784 5.64313 0
M  V30 3628 H 330.348 -2.56468 5.54127 0
M  V30 3629 H 331.762 -0.300699 5.72511 0
M  V30 3630 H 330.159 0.446813 5.98434 0
M  V30 3631 H 331.229 1.08905 4.72512 0
M  V30 3632 N 332.573 -1.56217 0.208337 0
M  V30 3633 C 333.82 -1.97949 -0.42692 0
M  V30 3634 C 334.148 -1.09562 -1.60706 0
M  V30 3635 O 333.403 -0.137616 -1.95216 0
M  V30 3636 C 333.702 -3.45441 -0.916797 0
M  V30 3637 C 333.368 -4.50646 0.151391 0
M  V30 3638 C 332.03 -4.79139 0.444867 0
M  V30 3639 C 334.382 -5.13811 0.874492 0
M  V30 3640 C 331.71 -5.68084 1.46619 0
M  V30 3641 C 334.062 -6.03861 1.88506 0
M  V30 3642 C 332.726 -6.30704 2.18559 0
M  V30 3643 H 331.996 -0.724345 -0.156221 0
M  V30 3644 H 334.643 -1.89006 0.308084 0
M  V30 3645 H 332.948 -3.51521 -1.73032 0
M  V30 3646 H 334.645 -3.75094 -1.41794 0
M  V30 3647 H 331.235 -4.28511 -0.0875068 0
M  V30 3648 H 335.419 -4.91879 0.660996 0
M  V30 3649 H 330.675 -5.87151 1.7048 0
M  V30 3650 H 334.849 -6.51861 2.45051 0
M  V30 3651 H 332.476 -6.99424 2.97843 0
M  V30 3652 N 334.051 0.0651679 -1.57465 0
M  V30 3653 C 334.998 1.07675 -2.04144 0
M  V30 3654 C 335.968 1.38071 -0.923335 0
M  V30 3655 O 337.153 1.49026 -1.19146 0
M  V30 3656 C 334.293 2.38337 -2.49579 0
M  V30 3657 C 333.406 2.14413 -3.75035 0
M  V30 3658 C 332.541 3.38686 -4.09225 0
M  V30 3659 C 331.58 3.10156 -5.27702 0
M  V30 3660 N 330.717 4.26778 -5.57499 0
M  V30 3661 H 335.557 0.671716 -2.90331 0
M  V30 3662 H 333.094 0.3201 -1.43575 0
M  V30 3663 H 335.052 3.14632 -2.73975 0
M  V30 3664 H 333.682 2.7663 -1.6636 0
M  V30 3665 H 332.734 1.2878 -3.57939 0
M  V30 3666 H 334.046 1.89344 -4.61466 0
M  V30 3667 H 333.2 4.23373 -4.34558 0
M  V30 3668 H 331.939 3.66837 -3.21374 0
M  V30 3669 H 330.944 2.23866 -5.02159 0
M  V30 3670 H 332.169 2.8332 -6.17176 0
M  V30 3671 H 330.115 4.54948 -4.72608 0
M  V30 3672 H 330.032 4.05005 -6.38362 0
M  V30 3673 H 331.3 5.12443 -5.87386 0
M  V30 3674 N 335.529 1.53961 0.336706 0
M  V30 3675 C 336.777 1.71197 1.07405 0
M  V30 3676 C 337.098 0.481475 1.88962 0
M  V30 3677 O 336.368 -0.504585 1.8929 0
M  V30 3678 H 334.948 0.631185 0.399517 0
M  V30 3679 H 337.61 1.91232 0.376323 0
M  V30 3680 H 336.706 2.58587 1.74755 0
M  V30 3681 N 337.007 -0.598083 1.45811 0
M  V30 3682 C 338.232 -1.3881 1.54099 0
M  V30 3683 C 338.657 -1.8726 0.177578 0
M  V30 3684 O 338.015 -1.6069 -0.839541 0
M  V30 3685 C 338.063 -2.56217 2.53743 0
M  V30 3686 O 337.167 -3.5716 2.06182 0
M  V30 3687 H 336.508 -0.414024 0.519115 0
M  V30 3688 H 339.038 -0.726971 1.91249 0
M  V30 3689 H 339.048 -3.03337 2.72856 0
M  V30 3690 H 337.723 -2.20303 3.5276 0
M  V30 3691 H 336.3 -3.16624 1.96987 0
M  V30 3692 N 338.485 -1.33259 -0.841409 0
M  V30 3693 C 339.762 -1.15174 -1.58096 0
M  V30 3694 C 340.142 0.282858 -2.09196 0
M  V30 3695 O 339.49 1.28151 -1.89181 0
M  V30 3696 C 339.7 -2.1907 -2.71679 0
M  V30 3697 C 341.048 -2.53093 -3.40924 0
M  V30 3698 O 342.072 -2.17717 -2.81918 0
M  V30 3699 O 340.931 -3.1379 -4.47435 0
M  V30 3700 H 338.025 -0.445303 -0.696875 0
M  V30 3701 H 340.571 -1.44833 -0.884385 0
M  V30 3702 H 339.343 -3.15443 -2.31541 0
M  V30 3703 H 338.966 -1.90481 -3.49002 0
M  V30 3704 N 339.963 1.05934 -1.16686 0
M  V30 3705 C 340.913 2.11764 -0.844978 0
M  V30 3706 C 341.897 1.59922 0.177178 0
M  V30 3707 O 343.089 1.76983 -0.0241768 0
M  V30 3708 C 340.218 3.41493 -0.351812 0
M  V30 3709 C 339.304 4.00152 -1.40496 0
M  V30 3710 N 339.695 4.32874 -2.61636 0
M  V30 3711 C 337.993 4.278 -1.26106 0
M  V30 3712 C 338.694 4.79552 -3.29249 0
M  V30 3713 N 337.67 4.79211 -2.56628 0
M  V30 3714 H 341.472 2.34916 -1.76612 0
M  V30 3715 H 338.986 1.23511 -1.05446 0
M  V30 3716 H 340.983 4.16773 -0.102796 0
M  V30 3717 H 339.643 3.19778 0.56322 0
M  V30 3718 H 340.654 4.23109 -2.98663 0
M  V30 3719 H 337.331 4.15511 -0.407081 0
M  V30 3720 H 338.721 5.14045 -4.32675 0
M  V30 3721 N 341.441 0.965919 1.2453 0
M  V30 3722 C 342.371 0.513476 2.27784 0
M  V30 3723 C 343.352 -0.445974 1.6415 0
M  V30 3724 O 344.537 -0.342485 1.91156 0
M  V30 3725 C 341.667 -0.198839 3.4673 0
M  V30 3726 C 340.621 0.676456 4.2262 0
M  V30 3727 C 339.947 -0.167248 5.34438 0
M  V30 3728 C 341.247 1.96017 4.84123 0
M  V30 3729 H 342.941 1.3765 2.65881 0
M  V30 3730 H 340.487 0.663321 1.27813 0
M  V30 3731 H 342.44 -0.526567 4.18097 0
M  V30 3732 H 341.164 -1.0962 3.07654 0
M  V30 3733 H 339.823 0.98743 3.53052 0
M  V30 3734 H 339.471 -1.0647 4.91603 0
M  V30 3735 H 339.171 0.415181 5.86131 0
M  V30 3736 H 340.695 -0.489688 6.08633 0
M  V30 3737 H 342.109 1.69814 5.47573 0
M  V30 3738 H 340.506 2.48918 5.4604 0
M  V30 3739 H 341.576 2.65622 4.05676 0
M  V30 3740 N 342.919 -1.39368 0.735821 0
M  V30 3741 C 344.196 -1.94465 0.210395 0
M  V30 3742 C 344.576 -1.67254 -1.28799 0
M  V30 3743 O 343.924 -1.00123 -2.05396 0
M  V30 3744 C 344.134 -3.4472 0.544897 0
M  V30 3745 C 345.482 -4.21708 0.494689 0
M  V30 3746 O 346.506 -3.52922 0.482136 0
M  V30 3747 O 345.365 -5.44299 0.489947 0
M  V30 3748 H 342.459 -0.826096 0.0386666 0
M  V30 3749 H 345.005 -1.48863 0.814735 0
M  V30 3750 H 343.777 -3.57963 1.58045 0
M  V30 3751 H 343.4 -3.97502 -0.08837 0
M  V30 3752 N 344.397 -0.483516 -1.5 0
M  V30 3753 C 345.329 0.340634 -2.26655 0
M  V30 3754 C 346.342 0.946152 -1.32483 0
M  V30 3755 O 347.531 0.832453 -1.579 0
M  V30 3756 C 344.631 1.4929 -3.04246 0
M  V30 3757 C 343.804 0.997903 -4.25865 0
M  V30 3758 C 342.863 2.02569 -4.85646 0
M  V30 3759 O 341.889 1.60128 -5.46212 0
M  V30 3760 N 343.091 3.3548 -4.73744 0
M  V30 3761 H 345.856 -0.316577 -2.98023 0
M  V30 3762 H 343.417 -0.315024 -1.58806 0
M  V30 3763 H 345.409 2.17766 -3.41116 0
M  V30 3764 H 343.979 2.05458 -2.35597 0
M  V30 3765 H 343.199 0.138617 -3.93956 0
M  V30 3766 H 344.487 0.645305 -5.04691 0
M  V30 3767 H 343.885 3.72661 -4.25605 0
M  V30 3768 H 342.442 3.99718 -5.14848 0
M  V30 3769 N 345.875 1.56104 -0.216619 0
M  V30 3770 C 346.805 2.23063 0.690296 0
M  V30 3771 C 347.786 1.20072 1.20485 0
M  V30 3772 O 348.971 1.48643 1.24976 0
M  V30 3773 C 346.101 2.90672 1.90072 0
M  V30 3774 C 345.055 4.00092 1.5202 0
M  V30 3775 C 344.381 4.54972 2.80899 0
M  V30 3776 C 345.681 5.17398 0.71391 0
M  V30 3777 H 347.375 2.99109 0.132038 0
M  V30 3778 H 344.921 1.43866 0.0620664 0
M  V30 3779 H 346.874 3.36204 2.54057 0
M  V30 3780 H 345.598 2.12066 2.48386 0
M  V30 3781 H 344.257 3.55283 0.903839 0
M  V30 3782 H 343.905 3.73102 3.37348 0
M  V30 3783 H 343.605 5.28817 2.56176 0
M  V30 3784 H 345.129 5.0322 3.45836 0
M  V30 3785 H 346.543 5.59342 1.25735 0
M  V30 3786 H 344.94 5.97444 0.563951 0
M  V30 3787 H 346.01 4.84088 -0.280527 0
M  V30 3788 N 347.353 -0.0568162 1.57498 0
M  V30 3789 C 348.3 -1.06591 2.04712 0
M  V30 3790 C 349.27 -1.3758 0.930644 0
M  V30 3791 O 350.455 -1.48392 1.19935 0
M  V30 3792 C 347.595 -2.3701 2.50839 0
M  V30 3793 C 346.708 -2.12421 3.76167 0
M  V30 3794 C 345.843 -3.36511 4.11015 0
M  V30 3795 C 344.882 -3.07353 5.2934 0
M  V30 3796 N 344.019 -4.23816 5.59754 0
M  V30 3797 H 348.859 -0.65631 2.90683 0
M  V30 3798 H 346.396 -0.312481 1.43743 0
M  V30 3799 H 348.354 -3.13175 2.7564 0
M  V30 3800 H 346.984 -2.75744 1.67825 0
M  V30 3801 H 346.036 -1.2688 3.58616 0
M  V30 3802 H 347.348 -1.86894 4.62463 0
M  V30 3803 H 346.502 -4.21062 4.36797 0
M  V30 3804 H 345.241 -3.65128 3.23315 0
M  V30 3805 H 344.246 -2.212 5.03339 0
M  V30 3806 H 345.471 -2.80043 6.1867 0
M  V30 3807 H 343.417 -4.52436 4.75014 0
M  V30 3808 H 343.334 -4.01614 6.40501 0
M  V30 3809 H 344.602 -5.0932 5.90096 0
M  V30 3810 N 348.832 -1.54138 -0.328536 0
M  V30 3811 C 349.742 -1.86192 -1.42723 0
M  V30 3812 C 350.758 -0.753382 -1.56844 0
M  V30 3813 O 351.934 -1.04718 -1.72035 0
M  V30 3814 C 348.999 -2.07824 -2.77507 0
M  V30 3815 C 348.06 -3.31641 -2.72603 0
M  V30 3816 C 347.293 -3.52232 -4.00959 0
M  V30 3817 O 347.516 -2.7636 -4.9898 0
M  V30 3818 O 346.45 -4.45699 -4.0452 0
M  V30 3819 H 350.276 -2.79608 -1.18547 0
M  V30 3820 H 347.861 -1.3998 -0.522104 0
M  V30 3821 H 349.743 -2.23411 -3.57303 0
M  V30 3822 H 348.418 -1.17596 -3.01584 0
M  V30 3823 H 347.325 -3.21444 -1.91376 0
M  V30 3824 H 348.658 -4.2191 -2.53481 0
M  V30 3825 N 350.31 0.590341 -1.46126 0
M  V30 3826 C 351.559 1.34499 -1.50309 0
M  V30 3827 C 351.872 1.94977 -0.156021 0
M  V30 3828 O 353.078 2.71395 -0.0756037 0
M  V30 3829 C 351.534 2.43723 -2.64815 0
M  V30 3830 C 351.142 1.89582 -4.0591 0
M  V30 3831 C 352.886 3.20579 -2.78262 0
M  V30 3832 C 350.793 2.9639 -5.11769 0
M  V30 3833 H 349.723 0.505593 -0.559368 0
M  V30 3834 H 352.374 0.630848 -1.72315 0
M  V30 3835 H 350.756 3.17902 -2.36124 0
M  V30 3836 H 351.93 1.21997 -4.44357 0
M  V30 3837 H 350.245 1.25418 -3.97063 0
M  V30 3838 H 352.842 4.00276 -3.54519 0
M  V30 3839 H 353.185 3.72684 -1.85505 0
M  V30 3840 H 353.718 2.53505 -3.06562 0
M  V30 3841 H 350.457 2.49181 -6.06291 0
M  V30 3842 H 349.977 3.62487 -4.77873 0
M  V30 3843 H 351.656 3.60474 -5.37278 0
M  V30 3844 N 351.788 1.33704 0.83433 0
M  V30 3845 C 352.721 1.18675 1.94914 0
M  V30 3846 C 353.699 0.0811145 1.62398 0
M  V30 3847 O 354.883 0.244186 1.86912 0
M  V30 3848 C 352.01 0.821231 3.28593 0
M  V30 3849 C 351.056 1.93501 3.80079 0
M  V30 3850 S 351.889 3.54671 4.01209 0
M  V30 3851 C 353.045 3.20136 5.37833 0
M  V30 3852 H 353.278 2.13043 2.07364 0
M  V30 3853 H 350.811 1.18598 0.988624 0
M  V30 3854 H 352.769 0.617123 4.05835 0
M  V30 3855 H 351.43 -0.103927 3.13928 0
M  V30 3856 H 350.623 1.63273 4.76821 0
M  V30 3857 H 350.225 2.09601 3.09747 0
M  V30 3858 H 352.517 2.71242 6.20833 0
M  V30 3859 H 353.46 4.15975 5.73036 0
M  V30 3860 H 353.868 2.56613 5.02802 0
M  V30 3861 N 353.266 -1.05314 1.17247 0
M  V30 3862 C 354.213 -2.13031 0.888058 0
M  V30 3863 C 355.183 -1.65253 -0.167537 0
M  V30 3864 O 356.368 -1.90775 -0.0305974 0
M  V30 3865 C 353.508 -3.42702 0.406147 0
M  V30 3866 C 352.621 -4.04161 1.52572 0
M  V30 3867 C 351.756 -5.21744 0.997808 0
M  V30 3868 C 350.795 -5.75207 2.09291 0
M  V30 3869 N 349.932 -6.84094 1.57986 0
M  V30 3870 H 354.772 -2.36698 1.81048 0
M  V30 3871 H 352.309 -1.16121 0.903013 0
M  V30 3872 H 354.267 -4.17059 0.108305 0
M  V30 3873 H 352.897 -3.19222 -0.479313 0
M  V30 3874 H 351.949 -3.27253 1.93931 0
M  V30 3875 H 353.261 -4.39881 2.35172 0
M  V30 3876 H 352.415 -6.03168 0.653739 0
M  V30 3877 H 351.154 -4.87495 0.141232 0
M  V30 3878 H 350.159 -4.92414 2.44557 0
M  V30 3879 H 351.384 -6.11505 2.95362 0
M  V30 3880 H 349.33 -6.51745 0.74598 0
M  V30 3881 H 349.247 -7.18811 2.34195 0
M  V30 3882 H 350.515 -7.69172 1.26468 0
M  V30 3883 N 354.744 -0.972509 -1.24016 0
M  V30 3884 C 355.99 -0.637978 -1.92504 0
M  V30 3885 C 356.323 0.825383 -1.75787 0
M  V30 3886 O 355.598 1.59442 -1.11393 0
M  V30 3887 C 355.881 -1.01942 -3.45369 0
M  V30 3888 C 355.734 -2.53983 -3.71231 0
M  V30 3889 C 357.053 -0.55751 -4.36555 0
M  V30 3890 H 354.172 -0.233248 -0.699117 0
M  V30 3891 H 356.814 -1.21238 -1.46292 0
M  V30 3892 H 354.964 -0.530656 -3.84859 0
M  V30 3893 H 356.636 -3.10374 -3.41271 0
M  V30 3894 H 354.879 -2.96968 -3.16216 0
M  V30 3895 H 355.55 -2.75723 -4.78206 0
M  V30 3896 H 358.026 -0.977029 -4.04467 0
M  V30 3897 H 356.902 -0.85292 -5.42233 0
M  V30 3898 H 357.163 0.542328 -4.38761 0
M  V30 3899 N 356.222 1.38976 -0.743202 0
M  V30 3900 C 357.45 2.04636 -0.30525 0
M  V30 3901 C 357.865 1.56044 1.06281 0
M  V30 3902 O 357.222 0.728921 1.67311 0
M  V30 3903 C 357.273 3.60193 -0.307177 0
M  V30 3904 O 356.994 4.06998 -1.62124 0
M  V30 3905 C 358.495 4.4306 0.145928 0
M  V30 3906 H 355.715 0.65788 -0.132041 0
M  V30 3907 H 358.259 1.77866 -1.00915 0
M  V30 3908 H 356.414 3.85835 0.347898 0
M  V30 3909 H 356.828 5.01371 -1.54036 0
M  V30 3910 H 358.302 5.51921 0.0934183 0
M  V30 3911 H 358.779 4.22706 1.19231 0
M  V30 3912 H 359.385 4.22584 -0.479886 0
M  V30 3913 N 357.7 0.491464 1.49741 0
M  V30 3914 C 358.948 -0.0563141 2.02022 0
M  V30 3915 C 359.269 -1.38363 1.37407 0
M  V30 3916 O 358.539 -1.88702 0.526166 0
M  V30 3917 H 357.119 -0.0238014 0.746621 0
M  V30 3918 H 359.781 0.646533 1.83864 0
M  V30 3919 H 358.877 -0.192967 3.11503 0
M  V30 3920 N 359.178 -1.55987 0.224894 0
M  V30 3921 C 360.406 -2.02784 -0.410665 0
M  V30 3922 C 360.821 -1.10464 -1.53112 0
M  V30 3923 O 360.178 -0.114871 -1.82138 0
M  V30 3924 C 360.229 -3.49087 -0.939165 0
M  V30 3925 O 359.95 -4.37887 0.136614 0
M  V30 3926 C 361.451 -4.11543 -1.64763 0
M  V30 3927 H 358.671 -0.663484 -0.100148 0
M  V30 3928 H 361.215 -2.01614 0.342326 0
M  V30 3929 H 359.37 -3.50861 -1.64242 0
M  V30 3930 H 359.784 -5.23849 -0.261155 0
M  V30 3931 H 361.258 -5.15673 -1.96939 0
M  V30 3932 H 361.735 -3.56736 -2.56195 0
M  V30 3933 H 362.341 -4.13629 -0.989503 0
M  V30 3934 N 360.656 0.0484629 -1.57525 0
M  V30 3935 C 362.067 0.597486 -1.76881 0
M  V30 3936 C 362.418 1.76664 -0.853475 0
M  V30 3937 O 361.543 2.16357 -0.0433656 0
M  V30 3938 C 362.138 1.09066 -3.20765 0
M  V30 3939 C 360.697 1.58535 -3.41385 0
M  V30 3940 C 359.844 0.514868 -2.72478 0
M  V30 3941 H 362.795 -0.177758 -1.57701 0
M  V30 3942 H 362.816 1.95875 -3.2621 0
M  V30 3943 H 362.328 0.239521 -3.8736 0
M  V30 3944 H 360.429 2.45898 -2.79937 0
M  V30 3945 H 360.542 1.64622 -4.49929 0
M  V30 3946 H 358.906 0.965407 -2.35695 0
M  V30 3947 H 359.689 -0.32648 -3.41744 0
M  V30 3948 N 362.134 1.5431 0.320358 0
M  V30 3949 C 363.545 1.63872 0.894594 0
M  V30 3950 C 363.896 0.534847 1.88769 0
M  V30 3951 O 363.021 -0.331732 2.13842 0
M  V30 3952 C 363.616 2.97049 1.62934 0
M  V30 3953 C 362.175 3.08796 2.15226 0
M  V30 3954 C 361.322 2.59456 0.978671 0
M  V30 3955 H 364.273 1.58398 0.0978544 0
M  V30 3956 H 364.294 2.87388 2.49376 0
M  V30 3957 H 363.806 3.7737 0.906302 0
M  V30 3958 H 361.907 2.33156 2.90636 0
M  V30 3959 H 362.02 4.14649 2.40006 0
M  V30 3960 H 360.384 2.1543 1.35875 0
M  V30 3961 H 361.167 3.42237 0.269895 0
M  V30 3962 N 363.613 -0.582584 1.46437 0
M  V30 3963 C 364.576 -1.67366 1.56592 0
M  V30 3964 C 365.576 -1.54575 0.443072 0
M  V30 3965 O 366.766 -1.59191 0.707381 0
M  V30 3966 C 363.898 -3.06791 1.48634 0
M  V30 3967 H 365.091 -1.5972 2.5383 0
M  V30 3968 H 362.644 -0.800432 1.34249 0
M  V30 3969 H 363.379 -3.19993 0.526763 0
M  V30 3970 H 363.164 -3.17484 2.30101 0
M  V30 3971 H 364.654 -3.86218 1.58826 0
M  V30 3972 N 365.091 -1.34144 -0.827227 0
M  V30 3973 C 366.001 -1.27428 -1.96975 0
M  V30 3974 C 367.017 -0.182728 -1.73038 0
M  V30 3975 O 368.193 -0.408426 -1.97215 0
M  V30 3976 C 365.258 -1.02526 -3.31194 0
M  V30 3977 C 364.319 -2.20796 -3.68168 0
M  V30 3978 C 363.552 -1.97073 -4.95982 0
M  V30 3979 O 363.775 -0.926822 -5.6282 0
M  V30 3980 O 362.709 -2.83912 -5.30733 0
M  V30 3981 H 366.535 -2.23537 -2.05584 0
M  V30 3982 H 364.12 -1.14307 -0.961989 0
M  V30 3983 H 366.002 -0.904026 -4.11589 0
M  V30 3984 H 364.677 -0.0945389 -3.23562 0
M  V30 3985 H 363.584 -2.38477 -2.88235 0
M  V30 3986 H 364.917 -3.12243 -3.8048 0
M  V30 3987 N 366.569 1.04691 -1.17803 0
M  V30 3988 C 367.816 1.77782 -0.969532 0
M  V30 3989 C 368.144 1.87926 0.501401 0
M  V30 3990 O 367.399 1.37918 1.38842 0
M  V30 3991 C 367.698 3.21467 -1.56186 0
M  V30 3992 C 367.364 3.3137 -3.05786 0
M  V30 3993 C 366.026 3.3378 -3.46619 0
M  V30 3994 C 368.378 3.31976 -4.01797 0
M  V30 3995 C 365.706 3.34431 -4.82051 0
M  V30 3996 C 368.058 3.34167 -5.37136 0
M  V30 3997 C 366.722 3.34866 -5.77426 0
M  V30 3998 H 365.992 0.650549 -0.354777 0
M  V30 3999 H 368.639 1.23006 -1.46772 0
M  V30 4000 H 366.944 3.79203 -0.985515 0
M  V30 4001 H 368.641 3.76652 -1.37602 0
M  V30 4002 H 365.231 3.3021 -2.73238 0
M  V30 4003 H 369.415 3.29311 -3.71306 0
M  V30 4004 H 364.671 3.33285 -5.12573 0
M  V30 4005 H 368.845 3.33585 -6.11305 0
M  V30 4006 H 366.472 3.35124 -6.82346 0
M  V30 4007 N 368.047 0.979072 1.23499 0
M  V30 4008 C 369.293 0.648178 1.92163 0
M  V30 4009 C 369.626 -0.816049 1.76222 0
M  V30 4010 O 368.901 -1.58849 1.12237 0
M  V30 4011 C 369.184 1.03773 3.44824 0
M  V30 4012 C 369.037 2.55948 3.69879 0
M  V30 4013 C 370.356 0.580653 4.36253 0
M  V30 4014 H 367.475 0.236952 0.69787 0
M  V30 4015 H 370.117 1.22012 1.45647 0
M  V30 4016 H 368.267 0.551058 3.84572 0
M  V30 4017 H 369.939 3.12179 3.3962 0
M  V30 4018 H 368.182 2.98641 3.14636 0
M  V30 4019 H 368.853 2.78255 4.76737 0
M  V30 4020 H 371.329 0.998465 4.03943 0
M  V30 4021 H 370.205 0.881663 5.41773 0
M  V30 4022 H 370.466 -0.519052 4.39042 0
M  V30 4023 N 369.525 -1.3858 0.750561 0
M  V30 4024 C 370.457 -2.29057 0.0810714 0
M  V30 4025 C 371.47 -1.47596 -0.686973 0
M  V30 4026 O 372.659 -1.70495 -0.528563 0
M  V30 4027 C 369.759 -3.26475 -0.909247 0
M  V30 4028 C 368.932 -4.36945 -0.199478 0
M  V30 4029 C 367.991 -5.14572 -1.10011 0
M  V30 4030 O 367.017 -5.66321 -0.57177 0
M  V30 4031 N 368.219 -5.27262 -2.42849 0
M  V30 4032 H 370.984 -2.87153 0.858087 0
M  V30 4033 H 368.545 -1.50328 0.60109 0
M  V30 4034 H 370.537 -3.75285 -1.51471 0
M  V30 4035 H 369.107 -2.69298 -1.58736 0
M  V30 4036 H 368.327 -3.8981 0.586664 0
M  V30 4037 H 369.615 -5.07963 0.291783 0
M  V30 4038 H 369.013 -4.86763 -2.88233 0
M  V30 4039 H 367.57 -5.79456 -2.98453 0
M  V30 4040 N 371.003 -0.499398 -1.49478 0
M  V30 4041 C 372.419 -0.155261 -1.58843 0
M  V30 4042 C 372.619 1.34008 -1.50479 0
M  V30 4043 O 371.675 2.11589 -1.37791 0
M  V30 4044 C 372.988 -0.730636 -2.91689 0
M  V30 4045 C 374.536 -0.696599 -3.0515 0
M  V30 4046 C 375.011 -1.25001 -4.40612 0
M  V30 4047 N 376.502 -1.21064 -4.47099 0
M  V30 4048 C 377.237 -1.60905 -5.50361 0
M  V30 4049 N 376.733 -2.08331 -6.60735 0
M  V30 4050 N 378.526 -1.52331 -5.41065 0
M  V30 4051 H 370.677 -1.47162 -1.53158 0
M  V30 4052 H 372.94 -0.610309 -0.725415 0
M  V30 4053 H 372.646 -1.77928 -3.03372 0
M  V30 4054 H 372.52 -0.190161 -3.7672 0
M  V30 4055 H 374.907 0.343204 -2.93097 0
M  V30 4056 H 374.988 -1.2742 -2.21806 0
M  V30 4057 H 374.632 -2.28859 -4.53416 0
M  V30 4058 H 374.562 -0.64836 -5.22593 0
M  V30 4059 H 377.053 -0.863128 -3.67911 0
M  V30 4060 H 377.366 -2.36805 -7.35624 0
M  V30 4061 H 375.711 -2.12304 -6.6178 0
M  V30 4062 H 378.902 -1.151 -4.53729 0
M  V30 4063 H 379.075 -1.83704 -6.21415 0
M  V30 4064 N 372.481 1.55866 -0.233164 0
M  V30 4065 C 373.411 2.23783 0.666599 0
M  V30 4066 C 374.392 1.21343 1.19205 0
M  V30 4067 O 375.577 1.4996 1.23392 0
M  V30 4068 C 372.707 2.92671 1.86978 0
M  V30 4069 C 371.661 4.01682 1.47768 0
M  V30 4070 C 370.987 4.57926 2.76058 0
M  V30 4071 C 372.287 5.18126 0.658993 0
M  V30 4072 H 373.981 2.99232 0.100306 0
M  V30 4073 H 371.527 1.43924 0.046804 0
M  V30 4074 H 373.48 3.3888 2.50476 0
M  V30 4075 H 372.204 2.14688 2.46123 0
M  V30 4076 H 370.863 3.56222 0.866106 0
M  V30 4077 H 370.511 3.76659 3.33372 0
M  V30 4078 H 370.211 5.31505 2.50552 0
M  V30 4079 H 371.735 5.06859 3.40479 0
M  V30 4080 H 373.149 5.60644 1.19795 0
M  V30 4081 H 371.546 5.98009 0.500552 0
M  V30 4082 H 372.616 4.83763 -0.331856 0
M  V30 4083 N 373.959 -0.0401083 1.57549 0
M  V30 4084 C 374.891 -1.07149 2.02612 0
M  V30 4085 C 375.904 -1.33126 0.937085 0
M  V30 4086 O 377.093 -1.30808 1.21456 0
M  V30 4087 C 374.193 -2.41561 2.37701 0
M  V30 4088 C 373.366 -2.35096 3.68848 0
M  V30 4089 C 372.425 -3.51867 3.91249 0
M  V30 4090 O 371.451 -3.3186 4.62447 0
M  V30 4091 N 372.653 -4.73351 3.36035 0
M  V30 4092 H 375.418 -0.687485 2.91708 0
M  V30 4093 H 372.979 -0.228248 1.60283 0
M  V30 4094 H 374.971 -3.18379 2.49833 0
M  V30 4095 H 373.541 -2.71846 1.54332 0
M  V30 4096 H 372.761 -1.4345 3.67173 0
M  V30 4097 H 374.049 -2.27908 4.54901 0
M  V30 4098 H 373.447 -4.92507 2.78304 0
M  V30 4099 H 372.004 -5.47572 3.53565 0
M  V30 4100 N 375.437 -1.54477 -0.31217 0
M  V30 4101 C 376.662 -1.77526 -1.07235 0
M  V30 4102 C 377.087 -0.527775 -1.80544 0
M  V30 4103 O 376.445 0.52121 -1.73646 0
M  V30 4104 C 376.493 -2.97535 -2.03728 0
M  V30 4105 O 375.597 -2.69878 -3.11833 0
M  V30 4106 H 374.938 -0.58792 -0.30862 0
M  V30 4107 H 377.468 -2.01532 -0.352993 0
M  V30 4108 H 377.478 -3.25198 -2.46395 0
M  V30 4109 H 376.153 -3.87996 -1.49774 0
M  V30 4110 H 374.73 -2.53199 -2.7376 0
M  V30 4111 N 376.915 0.57481 -1.46744 0
M  V30 4112 C 378.192 1.3352 -1.4294 0
M  V30 4113 C 378.572 2.10775 -0.117009 0
M  V30 4114 O 377.92 2.09966 0.901474 0
M  V30 4115 C 378.13 2.25456 -2.66403 0
M  V30 4116 C 379.478 2.87035 -3.12883 0
M  V30 4117 O 380.502 2.35766 -2.67007 0
M  V30 4118 O 379.361 3.80179 -3.92589 0
M  V30 4119 H 376.455 0.600318 -0.568812 0
M  V30 4120 H 379.001 0.595171 -1.58921 0
M  V30 4121 H 377.773 1.67851 -3.53471 0
M  V30 4122 H 377.396 3.06785 -2.52921 0
M  V30 4123 N 378.394 1.34581 0.820102 0
M  V30 4124 C 379.304 1.28471 1.96297 0
M  V30 4125 C 380.32 0.191902 1.72939 0
M  V30 4126 O 381.496 0.418879 1.96996 0
M  V30 4127 C 378.561 1.04281 3.30645 0
M  V30 4128 C 377.622 2.22745 3.66992 0
M  V30 4129 C 376.855 1.997 4.9493 0
M  V30 4130 O 377.078 0.956656 5.6232 0
M  V30 4131 O 376.012 2.86723 5.2922 0
M  V30 4132 H 379.838 2.24624 2.04396 0
M  V30 4133 H 377.423 1.14816 0.955913 0
M  V30 4134 H 379.305 0.925841 4.11104 0
M  V30 4135 H 377.98 0.111697 3.23507 0
M  V30 4136 H 376.887 2.40003 2.86966 0
M  V30 4137 H 378.22 3.14257 3.78819 0
M  V30 4138 N 379.872 -1.04064 1.18357 0
M  V30 4139 C 380.835 -2.10243 0.912707 0
M  V30 4140 C 381.835 -1.60477 -0.101928 0
M  V30 4141 O 383.025 -1.73703 0.131517 0
M  V30 4142 C 380.157 -3.38893 0.369387 0
M  V30 4143 H 381.35 -2.35706 1.85426 0
M  V30 4144 H 378.903 -1.20489 0.995594 0
M  V30 4145 H 379.638 -3.19094 -0.578776 0
M  V30 4146 H 379.423 -3.76331 1.1008 0
M  V30 4147 H 380.913 -4.17128 0.198575 0
M  V30 4148 N 381.35 -0.985608 -1.22978 0
M  V30 4149 C 382.297 -0.529825 -2.24636 0
M  V30 4150 C 383.267 0.434028 -1.60329 0
M  V30 4151 O 384.452 0.340414 -1.87739 0
M  V30 4152 C 381.592 0.156533 -3.44745 0
M  V30 4153 C 380.705 -0.848197 -4.23591 0
M  V30 4154 C 379.84 -0.136109 -5.31026 0
M  V30 4155 C 378.879 -1.1297 -6.01585 0
M  V30 4156 N 378.016 -0.446415 -7.00679 0
M  V30 4157 H 382.856 -1.40148 -2.62988 0
M  V30 4158 H 380.393 -0.702168 -1.29259 0
M  V30 4159 H 382.351 0.571324 -4.1327 0
M  V30 4160 H 380.981 0.992025 -3.07179 0
M  V30 4161 H 380.033 -1.38135 -3.54433 0
M  V30 4162 H 381.345 -1.60512 -4.72268 0
M  V30 4163 H 380.499 0.335784 -6.0577 0
M  V30 4164 H 379.238 0.653373 -4.83304 0
M  V30 4165 H 378.243 -1.6123 -5.25628 0
M  V30 4166 H 379.468 -1.91993 -6.51395 0
M  V30 4167 H 377.414 0.323763 -6.55201 0
M  V30 4168 H 377.331 -1.1419 -7.47326 0
M  V30 4169 H 378.599 0.00291697 -7.795 0
M  V30 4170 N 382.828 1.3818 -0.7579 0
M  V30 4171 C 383.776 2.32277 -0.122482 0
M  V30 4172 C 384.77 1.54238 0.700505 0
M  V30 4173 O 385.976 1.69737 0.599119 0
M  V30 4174 H 382.351 0.751712 -0.0208143 0
M  V30 4175 H 384.322 2.83469 -0.932099 0
M  V30 4176 C 383.071 3.39447 0.753076 0
M  V30 4177 H 382.394 3.99591 0.129184 0
M  V30 4178 H 383.834 4.07684 1.16489 0
M  V30 4179 C 382.293 2.78375 1.8976 0
M  V30 4180 O 382.823 2.68025 2.99208 0
M  V30 4181 N 381.029 2.36121 1.69397 0
M  V30 4182 H 380.576 2.4474 0.803762 0
M  V30 4183 H 380.534 1.95602 2.46145 0
M  V30 4184 N 384.306 0.507319 1.49211 0
M  V30 4185 C 385.536 -0.0315292 2.06576 0
M  V30 4186 C 385.944 -1.30791 1.36713 0
M  V30 4187 O 385.287 -1.78324 0.441181 0
M  V30 4188 C 385.349 -0.349104 3.57801 0
M  V30 4189 C 385.013 0.830475 4.49391 0
M  V30 4190 C 386.01 1.72271 4.90529 0
M  V30 4191 C 383.695 1.03107 4.91604 0
M  V30 4192 C 385.689 2.79964 5.72625 0
M  V30 4193 C 383.376 2.11116 5.73475 0
M  V30 4194 C 384.374 2.99379 6.1389 0
M  V30 4195 O 384.062 4.05523 6.94123 0
M  V30 4196 H 383.794 0.0201002 0.675701 0
M  V30 4197 H 386.348 0.705737 1.92895 0
M  V30 4198 H 384.578 -1.14005 3.69513 0
M  V30 4199 H 386.267 -0.827319 3.97379 0
M  V30 4200 H 387.033 1.57958 4.58557 0
M  V30 4201 H 382.912 0.353417 4.59643 0
M  V30 4202 H 386.456 3.48884 6.04091 0
M  V30 4203 H 382.353 2.25421 6.0486 0
M  V30 4204 H 383.121 4.02953 7.1244 0
M  V30 4205 N 385.784 -1.5574 0.241426 0
M  V30 4206 C 386.717 -2.17168 -0.700935 0
M  V30 4207 C 387.695 -1.12206 -1.1768 0
M  V30 4208 O 388.879 -1.40565 -1.25593 0
M  V30 4209 C 386.006 -2.76796 -1.95196 0
M  V30 4210 C 385.052 -3.94764 -1.61442 0
M  V30 4211 S 385.885 -5.30613 -0.72182 0
M  V30 4212 C 387.041 -5.93691 -1.98197 0
M  V30 4213 H 387.274 -2.96761 -0.178882 0
M  V30 4214 H 384.807 -1.54378 0.0259299 0
M  V30 4215 H 386.765 -3.11787 -2.67019 0
M  V30 4216 H 385.426 -1.9716 -2.44514 0
M  V30 4217 H 384.619 -4.35057 -2.54443 0
M  V30 4218 H 384.221 -3.61022 -0.976672 0
M  V30 4219 H 386.513 -6.10874 -2.92983 0
M  V30 4220 H 387.456 -6.89258 -1.62262 0
M  V30 4221 H 387.864 -5.22709 -2.13156 0
M  V30 4222 N 387.262 0.0317525 -1.57568 0
M  V30 4223 C 388.209 1.0332 -2.06382 0
M  V30 4224 C 389.179 1.36082 -0.952414 0
M  V30 4225 O 390.364 1.46466 -1.2228 0
M  V30 4226 C 387.504 2.32989 -2.54578 0
M  V30 4227 C 386.617 2.0641 -3.79498 0
M  V30 4228 C 385.752 3.2993 -4.16317 0
M  V30 4229 C 384.791 2.98893 -5.34162 0
M  V30 4230 N 383.928 4.14857 -5.66426 0
M  V30 4231 H 388.768 0.609982 -2.9169 0
M  V30 4232 H 386.305 0.289573 -1.44222 0
M  V30 4233 H 388.263 3.0875 -2.80587 0
M  V30 4234 H 386.893 2.73039 -1.7219 0
M  V30 4235 H 385.945 1.21158 -3.6059 0
M  V30 4236 H 387.257 1.79513 -4.65378 0
M  V30 4237 H 386.411 4.1406 -4.4344 0
M  V30 4238 H 385.15 3.59938 -3.29083 0
M  V30 4239 H 384.155 2.13164 -5.06795 0
M  V30 4240 H 385.38 2.70165 -6.23047 0
M  V30 4241 H 383.326 4.44821 -4.82151 0
M  V30 4242 H 383.243 3.91374 -6.4681 0
M  V30 4243 H 384.511 4.99868 -5.98124 0
M  V30 4244 N 388.74 1.54641 0.303973 0
M  V30 4245 C 389.988 1.73437 1.0375 0
M  V30 4246 C 390.309 0.521449 1.87899 0
M  V30 4247 O 389.579 -0.46432 1.90318 0
M  V30 4248 H 388.159 0.639518 0.386039 0
M  V30 4249 H 390.821 1.91988 0.335675 0
M  V30 4250 H 389.917 2.62235 1.69231 0
M  V30 4251 N 390.218 -0.567019 1.47046 0
M  V30 4252 C 391.148 -1.68482 1.61667 0
M  V30 4253 C 392.129 -1.6358 0.466418 0
M  V30 4254 O 393.314 -1.81354 0.694574 0
M  V30 4255 C 390.444 -3.07124 1.62148 0
M  V30 4256 C 389.398 -3.26867 2.76301 0
M  V30 4257 C 388.724 -4.66196 2.61849 0
M  V30 4258 C 390.024 -3.13186 4.17986 0
M  V30 4259 H 391.718 -1.56502 2.5524 0
M  V30 4260 H 389.264 -0.751486 1.22836 0
M  V30 4261 H 391.217 -3.8516 1.70968 0
M  V30 4262 H 389.941 -3.2004 0.651287 0
M  V30 4263 H 388.6 -2.51237 2.66975 0
M  V30 4264 H 388.248 -4.75898 1.62879 0
M  V30 4265 H 387.948 -4.80356 3.38425 0
M  V30 4266 H 389.472 -5.46379 2.72584 0
M  V30 4267 H 390.886 -3.81049 4.2834 0
M  V30 4268 H 389.283 -3.3886 4.95272 0
M  V30 4269 H 390.353 -2.10057 4.3704 0
M  V30 4270 N 391.696 -1.35014 -0.812953 0
M  V30 4271 C 393.107 -1.25035 -1.38648 0
M  V30 4272 C 393.458 0.119967 -1.95833 0
M  V30 4273 O 392.583 1.02069 -1.90816 0
M  V30 4274 C 393.178 -2.26394 -2.52054 0
M  V30 4275 C 391.737 -2.20175 -3.05287 0
M  V30 4276 C 390.884 -2.12451 -1.78213 0
M  V30 4277 H 393.835 -1.46235 -0.616516 0
M  V30 4278 H 393.856 -1.88672 -3.30429 0
M  V30 4279 H 393.368 -3.26116 -2.10404 0
M  V30 4280 H 391.469 -1.23841 -3.51417 0
M  V30 4281 H 391.582 -3.11863 -3.63701 0
M  V30 4282 H 389.946 -1.58328 -1.9951 0
M  V30 4283 H 390.729 -3.14024 -1.38723 0
M  V30 4284 N 393.175 1.03435 -1.18907 0
M  V30 4285 C 394.085 2.15075 -0.937015 0
M  V30 4286 C 395.101 1.73706 0.101085 0
M  V30 4287 O 396.277 2.01232 -0.0822948 0
M  V30 4288 C 393.342 3.43458 -0.473057 0
M  V30 4289 C 392.403 3.99172 -1.57989 0
M  V30 4290 C 391.636 5.21427 -1.13797 0
M  V30 4291 O 391.859 5.704 0.000725941 0
M  V30 4292 O 390.793 5.69837 -1.9383 0
M  V30 4293 H 394.619 2.39198 -1.87131 0
M  V30 4294 H 392.204 1.13506 -0.971427 0
M  V30 4295 H 394.086 4.20811 -0.222702 0
M  V30 4296 H 392.761 3.20793 0.432869 0
M  V30 4297 H 391.668 3.23178 -1.88433 0
M  V30 4298 H 393.001 4.2619 -2.46217 0
M  V30 4299 N 394.653 0.992116 1.22453 0
M  V30 4300 C 395.583 0.561677 2.26644 0
M  V30 4301 C 396.564 -0.411055 1.65059 0
M  V30 4302 O 397.749 -0.301861 1.9184 0
M  V30 4303 C 394.879 -0.125247 3.47074 0
M  V30 4304 C 393.833 0.765948 4.21091 0
M  V30 4305 C 393.159 -0.0538484 5.34673 0
M  V30 4306 C 394.459 2.06242 4.79856 0
M  V30 4307 H 396.153 1.43259 2.62902 0
M  V30 4308 H 393.699 0.690283 1.26377 0
M  V30 4309 H 395.652 -0.437764 4.1912 0
M  V30 4310 H 394.376 -1.03069 3.0991 0
M  V30 4311 H 393.035 1.0621 3.50878 0
M  V30 4312 H 392.683 -0.960188 4.9375 0
M  V30 4313 H 392.383 0.539415 5.85119 0
M  V30 4314 H 393.907 -0.360477 6.09535 0
M  V30 4315 H 395.321 1.8139 5.43848 0
M  V30 4316 H 393.718 2.60444 5.40638 0
M  V30 4317 H 394.788 2.74167 3.99951 0
M  V30 4318 N 396.131 -1.37776 0.765217 0
M  V30 4319 C 397.041 -2.34135 0.147666 0
M  V30 4320 C 398.057 -1.59854 -0.687215 0
M  V30 4321 O 399.233 -1.91983 -0.608659 0
M  V30 4322 C 396.298 -3.3901 -0.72617 0
M  V30 4323 C 395.359 -4.2912 0.124417 0
M  V30 4324 C 394.592 -5.28986 -0.707807 0
M  V30 4325 O 394.815 -5.36205 -1.94525 0
M  V30 4326 O 393.749 -6.01779 -0.12046 0
M  V30 4327 H 397.575 -2.88664 0.943758 0
M  V30 4328 H 395.16 -1.39824 0.526277 0
M  V30 4329 H 397.042 -4.03195 -1.22524 0
M  V30 4330 H 395.717 -2.86819 -1.50056 0
M  V30 4331 H 394.624 -3.68057 0.669696 0
M  V30 4332 H 395.957 -4.84598 0.861736 0
M  V30 4333 N 397.609 -0.515225 -1.4894 0
M  V30 4334 C 398.556 0.255567 -2.29381 0
M  V30 4335 C 399.526 0.947387 -1.36432 0
M  V30 4336 O 400.711 0.951288 -1.65394 0
M  V30 4337 C 397.851 1.30551 -3.19453 0
M  V30 4338 C 396.964 0.624029 -4.27469 0
M  V30 4339 C 396.099 1.65563 -5.0474 0
M  V30 4340 C 395.138 0.956802 -6.04576 0
M  V30 4341 N 394.275 1.93326 -6.74959 0
M  V30 4342 H 399.115 -0.436607 -2.94784 0
M  V30 4343 H 396.652 -0.227154 -1.45336 0
M  V30 4344 H 398.61 1.92639 -3.70062 0
M  V30 4345 H 397.24 1.96626 -2.56004 0
M  V30 4346 H 396.292 -0.110459 -3.8024 0
M  V30 4347 H 397.604 0.0746092 -4.98744 0
M  V30 4348 H 396.758 2.35119 -5.59289 0
M  V30 4349 H 395.497 2.23893 -4.3327 0
M  V30 4350 H 394.502 0.247097 -5.49244 0
M  V30 4351 H 395.727 0.379814 -6.78037 0
M  V30 4352 H 393.673 2.50591 -6.06251 0
M  V30 4353 H 393.59 1.43489 -7.42258 0
M  V30 4354 H 394.858 2.62126 -7.34105 0
M  V30 4355 N 399.087 1.5561 -0.249682 0
M  V30 4356 C 400.034 2.21496 0.648694 0
M  V30 4357 C 401.004 1.17977 1.16921 0
M  V30 4358 O 402.189 1.46434 1.22318 0
M  V30 4359 C 399.329 2.92039 1.83868 0
M  V30 4360 C 398.442 4.10219 1.35442 0
M  V30 4361 C 397.577 4.6847 2.50419 0
M  V30 4362 C 396.616 5.78893 1.98869 0
M  V30 4363 N 395.753 6.31315 3.07223 0
M  V30 4364 H 400.593 2.97892 0.0801582 0
M  V30 4365 H 398.13 1.47074 0.0278031 0
M  V30 4366 H 400.088 3.31138 2.53778 0
M  V30 4367 H 398.718 2.18111 2.37965 0
M  V30 4368 H 397.77 3.76413 0.54928 0
M  V30 4369 H 399.082 4.89927 0.936649 0
M  V30 4370 H 398.236 5.10158 3.28366 0
M  V30 4371 H 396.975 3.87984 2.95499 0
M  V30 4372 H 395.98 5.3668 1.19393 0
M  V30 4373 H 397.205 6.61232 1.54755 0
M  V30 4374 H 395.151 5.53733 3.51732 0
M  V30 4375 H 395.068 7.06224 2.69784 0
M  V30 4376 H 396.336 6.77662 3.8522 0
M  V30 4377 N 400.565 -0.0233959 1.57583 0
M  V30 4378 C 401.842 -0.748794 1.807 0
M  V30 4379 C 402.222 -1.9327 0.849106 0
M  V30 4380 O 401.57 -2.28247 -0.107468 0
M  V30 4381 C 401.78 -1.17651 3.28571 0
M  V30 4382 C 403.128 -1.59008 3.93702 0
M  V30 4383 O 404.152 -1.27094 3.32755 0
M  V30 4384 O 403.011 -2.18264 5.01022 0
M  V30 4385 H 400.105 -0.362578 0.743281 0
M  V30 4386 H 402.651 0.000261958 1.697 0
M  V30 4387 H 401.423 -0.331603 3.89892 0
M  V30 4388 H 401.046 -1.98541 3.44481 0
M  V30 4389 N 402.043 -1.548 -0.295768 0
M  V30 4390 C 403.29 -1.74329 -1.03032 0
M  V30 4391 C 403.618 -0.531915 -1.87085 0
M  V30 4392 O 402.873 0.486052 -1.89568 0
M  V30 4393 C 403.172 -2.98797 -1.961 0
M  V30 4394 C 402.838 -4.32356 -1.2798 0
M  V30 4395 C 401.5 -4.68661 -1.09135 0
M  V30 4396 C 403.852 -5.15128 -0.793243 0
M  V30 4397 C 401.18 -5.85312 -0.403269 0
M  V30 4398 C 403.532 -6.32488 -0.118854 0
M  V30 4399 C 402.196 -6.6745 0.0815043 0
M  V30 4400 H 401.466 -0.637916 -0.37702 0
M  V30 4401 H 404.113 -1.8906 -0.304696 0
M  V30 4402 H 402.418 -2.78869 -2.75207 0
M  V30 4403 H 404.115 -3.11102 -2.53015 0
M  V30 4404 H 400.705 -4.03808 -1.43655 0
M  V30 4405 H 404.889 -4.87575 -0.92653 0
M  V30 4406 H 400.145 -6.1094 -0.237098 0
M  V30 4407 H 404.319 -6.95892 0.266035 0
M  V30 4408 H 401.946 -7.57695 0.616685 0
M  V30 4409 N 403.521 0.559213 -1.47345 0
M  V30 4410 C 404.484 1.64854 -1.59235 0
M  V30 4411 C 405.484 1.53851 -0.467607 0
M  V30 4412 O 406.674 1.58045 -0.732617 0
M  V30 4413 C 403.806 3.04388 -1.53496 0
M  V30 4414 H 404.999 1.55662 -2.56339 0
M  V30 4415 H 402.552 0.778973 -1.35505 0
M  V30 4416 H 403.287 3.19115 -0.577604 0
M  V30 4417 H 403.072 3.13783 -2.35123 0
M  V30 4418 H 404.562 3.83642 -1.6495 0
M  V30 4419 N 404.999 1.35443 0.805782 0
M  V30 4420 C 406.224 1.32037 1.59941 0
M  V30 4421 C 406.649 -0.0994215 1.87837 0
M  V30 4422 O 406.007 -1.06648 1.46615 0
M  V30 4423 C 406.055 2.13354 2.90711 0
M  V30 4424 O 405.159 1.5148 3.83572 0
M  V30 4425 H 404.5 0.452666 0.485787 0
M  V30 4426 H 407.03 1.78496 1.00002 0
M  V30 4427 H 407.04 2.25338 3.40128 0
M  V30 4428 H 405.715 3.16572 2.69732 0
M  V30 4429 H 404.292 1.4834 3.42125 0
M  V30 4430 N 406.477 -1.02803 1.19454 0
M  V30 4431 C 407.726 -1.7562 0.991996 0
M  V30 4432 C 408.039 -1.89672 -0.477901 0
M  V30 4433 O 409.245 -2.59468 -0.799287 0
M  V30 4434 C 407.701 -3.15812 1.72601 0
M  V30 4435 C 407.309 -3.0981 3.23607 0
M  V30 4436 C 409.053 -3.92918 1.60674 0
M  V30 4437 C 406.96 -4.44939 3.89594 0
M  V30 4438 H 405.89 -0.658352 0.367543 0
M  V30 4439 H 408.541 -1.15044 1.42959 0
M  V30 4440 H 406.923 -3.7686 1.21624 0
M  V30 4441 H 408.097 -2.58138 3.81709 0
M  V30 4442 H 406.412 -2.46201 3.35819 0
M  V30 4443 H 409.009 -4.9287 2.07323 0
M  V30 4444 H 409.352 -4.12502 0.561025 0
M  V30 4445 H 409.885 -3.38472 2.09001 0
M  V30 4446 H 406.624 -4.30559 4.94267 0
M  V30 4447 H 406.144 -4.96664 3.36281 0
M  V30 4448 H 407.823 -5.1382 3.93189 0
M  V30 4449 N 407.956 -0.998596 -1.21925 0
M  V30 4450 C 408.886 -0.573688 -2.26343 0
M  V30 4451 C 409.867 0.402296 -1.65274 0
M  V30 4452 O 411.052 0.291683 -1.91997 0
M  V30 4453 C 408.182 0.106839 -3.47136 0
M  V30 4454 C 407.136 -0.788269 -4.20678 0
M  V30 4455 C 406.462 0.0254927 -5.34694 0
M  V30 4456 C 407.762 -2.08784 -4.78755 0
M  V30 4457 H 409.456 -1.44651 -2.62138 0
M  V30 4458 H 407.002 -0.696975 -1.26009 0
M  V30 4459 H 408.955 0.415531 -4.19346 0
M  V30 4460 H 407.679 1.01424 -3.10452 0
M  V30 4461 H 406.338 -1.08069 -3.50309 0
M  V30 4462 H 405.986 0.933989 -4.94253 0
M  V30 4463 H 405.686 -0.570437 -5.84825 0
M  V30 4464 H 407.21 0.328147 -6.09718 0
M  V30 4465 H 408.624 -1.84272 -5.42878 0
M  V30 4466 H 407.021 -2.63307 -5.39249 0
M  V30 4467 H 408.091 -2.76284 -3.98491 0
M  V30 4468 N 409.434 1.37368 -0.772513 0
M  V30 4469 C 410.662 2.03942 -0.348588 0
M  V30 4470 C 411.077 1.58264 1.02947 0
M  V30 4471 O 410.434 0.764246 1.65727 0
M  V30 4472 C 410.485 3.5946 -0.38351 0
M  V30 4473 O 410.206 4.03468 -1.70721 0
M  V30 4474 C 411.707 4.4327 0.0519152 0
M  V30 4475 H 408.927 0.654931 -0.145966 0
M  V30 4476 H 411.471 1.75686 -1.04665 0
M  V30 4477 H 409.626 3.86486 0.265978 0
M  V30 4478 H 410.04 4.97991 -1.64636 0
M  V30 4479 H 411.514 5.51995 -0.0236733 0
M  V30 4480 H 411.991 4.2514 1.10238 0
M  V30 4481 H 412.597 4.21471 -0.569415 0
M  V30 4482 N 410.912 0.523116 1.48665 0
M  V30 4483 C 411.86 -0.256859 2.31177 0
M  V30 4484 C 412.854 -0.94199 1.40794 0
M  V30 4485 O 414.06 -0.867157 1.57735 0
M  V30 4486 H 410.435 -0.1017 0.745091 0
M  V30 4487 H 412.406 0.458739 2.94853 0
M  V30 4488 C 411.155 -1.29503 3.22683 0
M  V30 4489 H 410.478 -0.777248 3.92172 0
M  V30 4490 H 411.918 -1.81233 3.83315 0
M  V30 4491 C 410.377 -2.32501 2.43813 0
M  V30 4492 O 410.907 -3.3881 2.15803 0
M  V30 4493 N 409.113 -2.05538 2.05432 0
M  V30 4494 H 408.66 -1.19104 2.28412 0
M  V30 4495 H 408.618 -2.74676 1.52973 0
M  V30 4496 N 412.39 -1.55475 0.257931 0
M  V30 4497 C 413.353 -2.20551 -0.623706 0
M  V30 4498 C 414.353 -1.17809 -1.09443 0
M  V30 4499 O 415.543 -1.42823 -0.997362 0
M  V30 4500 C 412.675 -2.85784 -1.8585 0
M  V30 4501 H 413.868 -2.99848 -0.0557743 0
M  V30 4502 H 411.421 -1.56298 0.0084422 0
M  V30 4503 H 412.156 -2.10453 -2.46739 0
M  V30 4504 H 411.941 -3.61057 -1.52907 0
M  V30 4505 H 413.431 -3.35553 -2.48584 0
M  V30 4506 N 413.868 0.0150385 -1.57593 0
M  V30 4507 C 415.093 0.718067 -1.94573 0
M  V30 4508 C 415.518 1.6734 -0.859005 0
M  V30 4509 O 414.876 1.80362 0.184147 0
M  V30 4510 C 414.924 1.43918 -3.30636 0
M  V30 4511 O 414.028 2.55299 -3.23876 0
M  V30 4512 H 413.369 0.192125 -0.635597 0
M  V30 4513 H 415.899 -0.0336708 -2.04572 0
M  V30 4514 H 415.909 1.80598 -3.65853 0
M  V30 4515 H 414.584 0.738619 -4.09289 0
M  V30 4516 H 413.161 2.21058 -3.00312 0
M  V30 4517 N 415.346 1.54954 0.287554 0
M  V30 4518 C 416.757 1.65732 0.859634 0
M  V30 4519 C 417.108 0.574767 1.87592 0
M  V30 4520 O 416.233 -0.286299 2.14498 0
M  V30 4521 C 416.828 3.00438 1.56597 0
M  V30 4522 C 415.387 3.13292 2.08627 0
M  V30 4523 C 414.534 2.61473 0.923416 0
M  V30 4524 H 417.485 1.5857 0.0642338 0
M  V30 4525 H 417.506 2.92613 2.43224 0
M  V30 4526 H 417.018 3.79207 0.826053 0
M  V30 4527 H 415.119 2.39268 2.85625 0
M  V30 4528 H 415.232 4.19647 2.31157 0
M  V30 4529 H 413.596 2.18264 1.31275 0
M  V30 4530 H 414.379 3.42733 0.197241 0
M  V30 4531 N 416.824 -0.551391 1.4764 0
M  V30 4532 C 417.754 -1.66757 1.63445 0
M  V30 4533 C 418.735 -1.63077 0.483742 0
M  V30 4534 O 419.92 -1.80607 0.71377 0
M  V30 4535 C 417.05 -3.05387 1.65396 0
M  V30 4536 C 416.004 -3.23918 2.79752 0
M  V30 4537 C 415.33 -4.63393 2.66779 0
M  V30 4538 C 416.63 -3.08735 4.21284 0
M  V30 4539 H 418.324 -1.53786 2.56886 0
M  V30 4540 H 415.87 -0.738415 1.23626 0
M  V30 4541 H 417.823 -3.83325 1.75043 0
M  V30 4542 H 416.547 -3.19332 0.685195 0
M  V30 4543 H 415.206 -2.48391 2.69625 0
M  V30 4544 H 414.854 -4.74144 1.67918 0
M  V30 4545 H 414.554 -4.7674 3.43501 0
M  V30 4546 H 416.078 -5.43458 2.78364 0
M  V30 4547 H 417.492 -3.76484 4.32357 0
M  V30 4548 H 415.889 -3.33588 4.98838 0
M  V30 4549 H 416.959 -2.0541 4.39243 0
M  V30 4550 N 418.302 -1.35869 -0.798587 0
M  V30 4551 C 419.265 -1.29307 -1.89242 0
M  V30 4552 C 420.265 -0.202747 -1.59517 0
M  V30 4553 O 421.455 -0.456957 -1.681 0
M  V30 4554 C 418.587 -1.00229 -3.25833 0
M  V30 4555 H 419.78 -2.26576 -1.96478 0
M  V30 4556 H 417.333 -1.20509 -0.995358 0
M  V30 4557 H 418.068 -0.033801 -3.24282 0
M  V30 4558 H 417.853 -1.79121 -3.48795 0
M  V30 4559 H 419.343 -0.98219 -4.05885 0
M  V30 4560 N 419.78 1.02168 -1.19998 0
M  V30 4561 C 421.026 1.75945 -1.00852 0
M  V30 4562 C 421.359 1.88702 0.458828 0
M  V30 4563 O 420.634 1.40911 1.34069 0
M  V30 4564 C 420.917 3.18154 -1.68671 0
M  V30 4565 C 420.77 3.13224 -3.22817 0
M  V30 4566 C 422.089 4.16711 -1.41561 0
M  V30 4567 H 419.208 0.638673 -0.367785 0
M  V30 4568 H 421.85 1.19222 -1.4794 0
M  V30 4569 H 420 3.66586 -1.28636 0
M  V30 4570 H 421.672 2.72635 -3.72112 0
M  V30 4571 H 419.915 2.50751 -3.53986 0
M  V30 4572 H 420.586 4.13728 -3.65422 0
M  V30 4573 H 423.062 3.76913 -1.76284 0
M  V30 4574 H 421.938 5.14391 -1.91553 0
M  V30 4575 H 422.199 4.40774 -0.342193 0
M  V30 4576 N 421.258 1.00505 1.21394 0
M  V30 4577 C 422.206 0.558623 2.25792 0
M  V30 4578 C 423.2 -0.396848 1.64686 0
M  V30 4579 O 424.406 -0.268035 1.77993 0
M  V30 4580 H 420.781 0.1623 0.734277 0
M  V30 4581 H 422.752 1.4503 2.60785 0
M  V30 4582 C 421.501 -0.0989574 3.47559 0
M  V30 4583 H 420.824 0.627225 3.94849 0
M  V30 4584 H 422.264 -0.3746 4.22342 0
M  V30 4585 C 420.723 -1.33817 3.09184 0
M  V30 4586 O 421.253 -2.43252 3.19674 0
M  V30 4587 N 419.459 -1.21793 2.63846 0
M  V30 4588 H 419.006 -0.32746 2.5551 0
M  V30 4589 H 418.964 -2.04809 2.38539 0
M  V30 4590 N 422.737 -1.36956 0.779787 0
M  V30 4591 C 423.667 -2.32761 0.185651 0
M  V30 4592 C 424.648 -1.56177 -0.673989 0
M  V30 4593 O 425.833 -1.84378 -0.609797 0
M  V30 4594 C 422.963 -3.40418 -0.687964 0
M  V30 4595 C 421.917 -4.27941 0.0710102 0
M  V30 4596 C 421.243 -5.26681 -0.922573 0
M  V30 4597 C 422.543 -5.07006 1.25467 0
M  V30 4598 H 424.237 -2.82698 0.986008 0
M  V30 4599 H 421.783 -1.3592 0.475592 0
M  V30 4600 H 423.736 -4.06423 -1.11348 0
M  V30 4601 H 422.46 -2.89025 -1.52093 0
M  V30 4602 H 421.119 -3.63478 0.47739 0
M  V30 4603 H 420.767 -4.71565 -1.7503 0
M  V30 4604 H 420.467 -5.86103 -0.419237 0
M  V30 4605 H 421.991 -5.9556 -1.34686 0
M  V30 4606 H 423.405 -5.66105 0.905401 0
M  V30 4607 H 421.802 -5.75793 1.69063 0
M  V30 4608 H 422.872 -4.3921 2.05481 0
M  V30 4609 N 424.215 -0.530993 -1.48385 0
M  V30 4610 C 425.145 0.219985 -2.32461 0
M  V30 4611 C 426.126 0.934111 -1.42156 0
M  V30 4612 O 427.311 0.919694 -1.71042 0
M  V30 4613 C 424.441 1.26674 -3.23375 0
M  V30 4614 C 423.395 0.67069 -4.22712 0
M  V30 4615 C 422.721 1.82017 -5.02766 0
M  V30 4616 C 424.021 -0.358268 -5.2107 0
M  V30 4617 H 425.715 -0.48187 -2.95497 0
M  V30 4618 H 423.261 -0.233182 -1.42099 0
M  V30 4619 H 425.214 1.80006 -3.81019 0
M  V30 4620 H 423.938 1.99818 -2.58341 0
M  V30 4621 H 422.597 0.158878 -3.66256 0
M  V30 4622 H 422.245 2.54002 -4.34157 0
M  V30 4623 H 421.945 1.42727 -5.70003 0
M  V30 4624 H 423.469 2.35725 -5.63264 0
M  V30 4625 H 424.883 0.0880081 -5.73232 0
M  V30 4626 H 423.28 -0.66861 -5.96364 0
M  V30 4627 H 424.35 -1.26367 -4.68145 0
M  V30 4628 N 425.693 1.55336 -0.266172 0
M  V30 4629 C 426.603 2.2583 0.635458 0
M  V30 4630 C 427.619 1.28106 1.17749 0
M  V30 4631 O 428.795 1.61024 1.20968 0
M  V30 4632 C 425.86 2.95879 1.80712 0
M  V30 4633 C 424.921 4.09059 1.30265 0
M  V30 4634 C 424.154 4.75759 2.41846 0
M  V30 4635 O 424.377 4.41622 3.61007 0
M  V30 4636 O 423.311 5.63888 2.1051 0
M  V30 4637 H 427.137 3.03631 0.0646693 0
M  V30 4638 H 424.722 1.49361 -0.0339177 0
M  V30 4639 H 426.604 3.39932 2.49047 0
M  V30 4640 H 425.279 2.21002 2.36516 0
M  V30 4641 H 424.186 3.69482 0.586019 0
M  V30 4642 H 425.519 4.85811 0.790458 0
M  V30 4643 N 427.171 -0.0066808 1.57599 0
M  V30 4644 C 428.118 -1.00024 2.08 0
M  V30 4645 C 429.088 -1.34549 0.973943 0
M  V30 4646 O 430.273 -1.44502 1.24595 0
M  V30 4647 C 427.413 -2.2891 2.58252 0
M  V30 4648 C 426.526 -2.00346 3.82734 0
M  V30 4649 C 425.661 -3.23265 4.21513 0
M  V30 4650 C 424.7 -2.90357 5.3885 0
M  V30 4651 N 423.837 -4.05793 5.72954 0
M  V30 4652 H 428.677 -0.563499 2.92624 0
M  V30 4653 H 426.214 -0.266592 1.44664 0
M  V30 4654 H 428.172 -3.04247 2.85464 0
M  V30 4655 H 426.802 -2.70265 1.76512 0
M  V30 4656 H 425.854 -1.15406 3.62471 0
M  V30 4657 H 427.166 -1.72086 4.68175 0
M  V30 4658 H 426.32 -4.06953 4.49971 0
M  V30 4659 H 425.059 -3.54657 3.34768 0
M  V30 4660 H 424.064 -2.05075 5.10122 0
M  V30 4661 H 425.289 -2.60219 6.27266 0
M  V30 4662 H 423.235 -4.37094 4.89167 0
M  V30 4663 H 423.152 -3.81034 6.52954 0
M  V30 4664 H 424.42 -4.90289 6.06001 0
M  V30 4665 N 428.649 -1.55105 -0.279332 0
M  V30 4666 C 429.582 -1.82467 -1.37044 0
M  V30 4667 C 430.56 -0.677261 -1.47824 0
M  V30 4668 O 431.744 -0.919578 -1.64548 0
M  V30 4669 C 428.871 -1.98066 -2.7475 0
M  V30 4670 C 427.917 -3.20594 -2.81286 0
M  V30 4671 S 428.75 -4.78116 -2.41175 0
M  V30 4672 C 429.906 -4.9668 -3.80867 0
M  V30 4673 H 430.139 -2.74728 -1.1363 0
M  V30 4674 H 427.672 -1.46794 -0.478625 0
M  V30 4675 H 429.63 -2.07739 -3.54055 0
M  V30 4676 H 428.291 -1.06704 -2.9542 0
M  V30 4677 H 427.484 -3.28376 -3.82341 0
M  V30 4678 H 427.086 -3.09479 -2.09996 0
M  V30 4679 H 429.378 -4.82033 -4.76078 0
M  V30 4680 H 430.321 -5.98741 -3.78041 0
M  V30 4681 H 430.729 -4.24698 -3.71876 0
M  V30 4682 N 430.127 0.543554 -1.4793 0
M  V30 4683 C 431.057 1.65888 -1.64327 0
M  V30 4684 C 432.038 1.62818 -0.492383 0
M  V30 4685 O 433.223 1.80226 -0.723338 0
M  V30 4686 C 430.353 3.04506 -1.67013 0
M  V30 4687 C 429.307 3.2243 -2.81466 0
M  V30 4688 C 428.633 4.61972 -2.69233 0
M  V30 4689 C 429.933 3.06496 -4.22915 0
M  V30 4690 H 431.627 1.52421 -2.57698 0
M  V30 4691 H 429.173 0.731849 -1.24016 0
M  V30 4692 H 431.126 3.82391 -1.77074 0
M  V30 4693 H 429.85 3.18964 -0.70212 0
M  V30 4694 H 428.509 2.46957 -2.70938 0
M  V30 4695 H 428.157 4.73247 -1.7043 0
M  V30 4696 H 427.857 4.74911 -3.46025 0
M  V30 4697 H 429.381 5.41974 -2.81242 0
M  V30 4698 H 430.795 3.74186 -4.34348 0
M  V30 4699 H 429.192 3.30938 -5.006 0
M  V30 4700 H 430.262 2.03077 -4.40327 0
M  V30 4701 N 431.605 1.3629 0.791371 0
M  V30 4702 C 432.851 1.30605 1.55146 0
M  V30 4703 C 433.184 -0.115042 1.93859 0
M  V30 4704 O 432.459 -1.06798 1.62556 0
M  V30 4705 C 432.742 2.22692 2.82985 0
M  V30 4706 C 432.595 3.73489 2.50651 0
M  V30 4707 C 433.914 2.13588 3.84796 0
M  V30 4708 H 431.033 0.475761 0.562868 0
M  V30 4709 H 433.675 1.66825 0.909358 0
M  V30 4710 H 431.825 1.91933 3.37778 0
M  V30 4711 H 433.497 4.14758 2.01924 0
M  V30 4712 H 431.74 3.93021 1.83622 0
M  V30 4713 H 432.411 4.3333 3.41949 0
M  V30 4714 H 434.887 2.40659 3.39445 0
M  V30 4715 H 433.763 2.80195 4.71998 0
M  V30 4716 H 434.024 1.12256 4.27611 0
M  V30 4717 N 433.083 -1.0153 1.20538 0
M  V30 4718 C 434.013 -2.11972 0.979295 0
M  V30 4719 C 434.994 -1.6985 -0.0921787 0
M  V30 4720 O 436.179 -1.94089 0.0655932 0
M  V30 4721 C 433.309 -3.43201 0.531984 0
M  V30 4722 C 432.263 -3.9907 1.54685 0
M  V30 4723 C 431.589 -5.26082 0.956127 0
M  V30 4724 C 432.889 -4.32313 2.93092 0
M  V30 4725 H 434.583 -2.31143 1.90298 0
M  V30 4726 H 432.129 -1.11079 0.916372 0
M  V30 4727 H 434.082 -4.1985 0.361044 0
M  V30 4728 H 432.806 -3.23792 -0.427327 0
M  V30 4729 H 431.465 -3.2453 1.70517 0
M  V30 4730 H 431.113 -5.02999 -0.0111538 0
M  V30 4731 H 430.813 -5.64426 1.63393 0
M  V30 4732 H 432.337 -6.05386 0.796284 0
M  V30 4733 H 433.751 -4.99845 2.80763 0
M  V30 4734 H 432.148 -4.81774 3.57791 0
M  V30 4735 H 433.218 -3.41025 3.44717 0
M  V30 4736 N 434.561 -1.01147 -1.20859 0
M  V30 4737 C 435.838 -0.613136 -1.85742 0
M  V30 4738 C 436.218 0.909004 -1.90526 0
M  V30 4739 O 435.566 1.79862 -1.40932 0
M  V30 4740 C 435.776 -1.255 -3.25654 0
M  V30 4741 C 437.124 -1.3672 -4.01986 0
M  V30 4742 O 438.148 -1.21082 -3.34989 0
M  V30 4743 O 437.007 -1.6194 -5.21956 0
M  V30 4744 H 434.101 -0.210878 -0.799662 0
M  V30 4745 H 436.647 -1.10853 -1.2849 0
M  V30 4746 H 435.419 -2.29532 -3.16908 0
M  V30 4747 H 435.042 -0.746369 -3.90532 0
M  V30 4748 N 436.039 1.36541 -0.78704 0
M  V30 4749 C 437.002 2.28413 -0.189778 0
M  V30 4750 C 438.002 1.48719 0.611499 0
M  V30 4751 O 439.192 1.68737 0.432842 0
M  V30 4752 C 436.324 3.32824 0.737638 0
M  V30 4753 H 437.517 2.82743 -0.999831 0
M  V30 4754 H 435.07 1.46065 -0.556298 0
M  V30 4755 H 435.805 2.83646 1.57212 0
M  V30 4756 H 435.59 3.91752 0.165044 0
M  V30 4757 H 437.08 4.0144 1.15047 0
M  V30 4758 N 437.518 0.538854 1.48102 0
M  V30 4759 C 438.428 -0.222648 2.33541 0
M  V30 4760 C 439.444 -0.930225 1.47047 0
M  V30 4761 O 440.62 -0.903211 1.80011 0
M  V30 4762 C 437.685 -1.25064 3.23357 0
M  V30 4763 C 436.746 -0.552469 4.2573 0
M  V30 4764 C 435.979 -1.53149 5.11254 0
M  V30 4765 O 436.202 -2.76487 4.9891 0
M  V30 4766 O 435.136 -1.06602 5.92385 0
M  V30 4767 H 438.962 0.477707 2.99919 0
M  V30 4768 H 436.547 0.299669 1.46364 0
M  V30 4769 H 438.429 -1.8445 3.78888 0
M  V30 4770 H 437.104 -1.93325 2.59629 0
M  V30 4771 H 436.011 0.082114 3.7401 0
M  V30 4772 H 437.344 0.0883526 4.92121 0
M  V30 4773 N 438.996 -1.55193 0.274407 0
M  V30 4774 C 439.928 -2.1989 -0.646595 0
M  V30 4775 C 440.941 -1.1834 -1.11801 0
M  V30 4776 O 442.13 -1.4507 -1.04004 0
M  V30 4777 C 439.23 -2.8104 -1.89393 0
M  V30 4778 C 438.403 -4.08274 -1.56943 0
M  V30 4779 C 437.462 -4.53478 -2.66916 0
M  V30 4780 O 436.488 -5.19267 -2.33132 0
M  V30 4781 N 437.69 -4.2356 -3.9696 0
M  V30 4782 H 440.455 -2.99556 -0.0928686 0
M  V30 4783 H 438.016 -1.61618 0.0954783 0
M  V30 4784 H 440.008 -3.08226 -2.62257 0
M  V30 4785 H 438.578 -2.05372 -2.35672 0
M  V30 4786 H 437.798 -3.88384 -0.674655 0
M  V30 4787 H 439.086 -4.91173 -1.32764 0
M  V30 4788 H 438.484 -3.70799 -4.27229 0
M  V30 4789 H 437.041 -4.55518 -4.66205 0
M  V30 4790 N 440.474 -0.00167713 -1.576 0
M  V30 4791 C 441.89 0.354422 -1.55615 0
M  V30 4792 C 442.09 1.74679 -1.00447 0
M  V30 4793 O 441.146 2.4428 -0.639022 0
M  V30 4794 C 442.459 0.22812 -2.99833 0
M  V30 4795 C 444.007 0.302934 -3.11531 0
M  V30 4796 C 444.482 0.205737 -4.57538 0
M  V30 4797 N 445.973 0.263584 -4.62449 0
M  V30 4798 C 446.708 0.211742 -5.73009 0
M  V30 4799 N 446.204 0.110399 -6.92712 0
M  V30 4800 N 447.997 0.263729 -5.61481 0
M  V30 4801 H 440.148 -0.912498 -1.918 0
M  V30 4802 H 442.411 -0.349928 -0.881053 0
M  V30 4803 H 442.117 -0.729934 -3.44042 0
M  V30 4804 H 441.991 1.00951 -3.6344 0
M  V30 4805 H 444.378 1.25143 -2.67251 0
M  V30 4806 H 444.459 -0.508357 -2.50698 0
M  V30 4807 H 444.103 -0.739225 -5.02492 0
M  V30 4808 H 444.033 1.03554 -5.16318 0
M  V30 4809 H 446.524 0.343173 -3.76339 0
M  V30 4810 H 446.837 0.0767828 -7.72762 0
M  V30 4811 H 445.182 0.0760025 -6.94958 0
M  V30 4812 H 448.373 0.34111 -4.66855 0
M  V30 4813 H 448.546 0.219862 -6.47627 0
M  V30 4814 N 441.952 1.55251 0.271103 0
M  V30 4815 C 443.198 1.76207 1.00394 0
M  V30 4816 C 443.531 0.562604 1.85872 0
M  V30 4817 O 442.806 -0.439785 1.89463 0
M  V30 4818 C 443.089 3.06828 1.8849 0
M  V30 4819 C 442.942 4.37134 1.05992 0
M  V30 4820 C 444.261 3.33503 2.87165 0
M  V30 4821 H 441.38 0.641086 0.363562 0
M  V30 4822 H 444.022 1.87982 0.276189 0
M  V30 4823 H 442.172 2.96921 2.5054 0
M  V30 4824 H 443.844 4.59001 0.459978 0
M  V30 4825 H 442.087 4.32275 0.363443 0
M  V30 4826 H 442.758 5.2486 1.70955 0
M  V30 4827 H 445.234 3.43215 2.3525 0
M  V30 4828 H 444.11 4.2616 3.45946 0
M  V30 4829 H 444.371 2.53235 3.62387 0
M  V30 4830 N 443.43 -0.535701 1.48216 0
M  V30 4831 C 444.658 -1.31671 1.59594 0
M  V30 4832 C 445.073 -1.87083 0.254056 0
M  V30 4833 O 444.43 -1.66112 -0.755854 0
M  V30 4834 C 444.481 -2.47158 2.63809 0
M  V30 4835 O 444.202 -1.94032 3.92789 0
M  V30 4836 C 445.703 -3.39062 2.85573 0
M  V30 4837 H 442.923 -0.400623 0.538277 0
M  V30 4838 H 445.467 -0.646827 1.94001 0
M  V30 4839 H 443.622 -3.10043 2.32276 0
M  V30 4840 H 444.036 -2.69585 4.49916 0
M  V30 4841 H 445.51 -4.16459 3.62306 0
M  V30 4842 H 445.987 -3.93941 1.94184 0
M  V30 4843 H 446.593 -2.81975 3.18387 0
M  V30 4844 N 444.908 -1.36708 -0.784132 0
M  V30 4845 C 445.871 -1.31307 -1.87859 0
M  V30 4846 C 446.871 -0.219654 -1.59293 0
M  V30 4847 O 448.061 -0.47476 -1.67606 0
M  V30 4848 C 445.193 -1.03679 -3.24751 0
M  V30 4849 H 446.386 -2.28647 -1.94064 0
M  V30 4850 H 443.939 -1.21558 -0.98252 0
M  V30 4851 H 444.674 -0.0681936 -3.24228 0
M  V30 4852 H 444.459 -1.82811 -3.46876 0
M  V30 4853 H 445.949 -1.02518 -4.04821 0
M  V30 4854 N 446.386 1.0089 -1.21074 0
M  V30 4855 C 447.634 1.74262 -1.02358 0
M  V30 4856 C 447.955 1.89869 0.444393 0
M  V30 4857 O 447.225 1.44677 1.32081 0
M  V30 4858 H 445.805 0.645615 -0.375754 0
M  V30 4859 H 448.467 1.21596 -1.52317 0
M  V30 4860 H 447.563 2.74328 -1.4883 0
M  V30 4861 N 447.864 1.01787 1.20321 0
M  V30 4862 C 448.774 0.598898 2.26827 0
M  V30 4863 C 449.79 -0.36418 1.70146 0
M  V30 4864 O 450.966 -0.224812 2.00141 0
M  V30 4865 C 448.031 -0.0549769 3.46656 0
M  V30 4866 C 447.092 0.954205 4.18561 0
M  V30 4867 C 446.325 0.331439 5.3267 0
M  V30 4868 O 446.548 -0.86851 5.63749 0
M  V30 4869 O 445.482 1.0488 5.92692 0
M  V30 4870 H 449.308 1.48562 2.64883 0
M  V30 4871 H 446.893 0.787434 1.26964 0
M  V30 4872 H 448.775 -0.420102 4.19301 0
M  V30 4873 H 447.45 -0.915876 3.10473 0
M  V30 4874 H 446.357 1.37072 3.48083 0
M  V30 4875 H 447.69 1.78511 4.58688 0
M  V30 4876 N 449.342 -1.36122 0.79427 0
M  V30 4877 C 450.305 -2.28309 0.201889 0
M  V30 4878 C 451.305 -1.49041 -0.603603 0
M  V30 4879 O 452.495 -1.68964 -0.423888 0
M  V30 4880 C 449.627 -3.3321 -0.719978 0
M  V30 4881 H 450.82 -2.82208 1.01481 0
M  V30 4882 H 448.373 -1.45768 0.564037 0
M  V30 4883 H 449.108 -2.84475 -1.55706 0
M  V30 4884 H 448.893 -3.91835 -0.144266 0
M  V30 4885 H 450.383 -4.02044 -1.12916 0
M  V30 4886 N 450.82 -0.546701 -1.47814 0
M  V30 4887 C 451.75 0.195317 -2.32682 0
M  V30 4888 C 452.731 0.918981 -1.43139 0
M  V30 4889 O 453.916 0.901501 -1.72008 0
M  V30 4890 C 451.046 1.23237 -3.247 0
M  V30 4891 C 450 0.625818 -4.234 0
M  V30 4892 C 449.326 1.76674 -5.04669 0
M  V30 4893 C 450.626 -0.413515 -5.2066 0
M  V30 4894 H 452.32 -0.513184 -2.94969 0
M  V30 4895 H 449.866 -0.248241 -1.41844 0
M  V30 4896 H 451.819 1.75955 -3.82907 0
M  V30 4897 H 450.543 1.97067 -2.60446 0
M  V30 4898 H 449.202 0.120023 -3.66403 0
M  V30 4899 H 448.85 2.49383 -4.36826 0
M  V30 4900 H 448.55 1.36673 -5.71484 0
M  V30 4901 H 450.074 2.29738 -5.65732 0
M  V30 4902 H 451.488 0.0272042 -5.73294 0
M  V30 4903 H 449.885 -0.731825 -5.95621 0
M  V30 4904 H 450.955 -1.31325 -4.66778 0
M  V30 4905 N 452.299 1.55045 -0.282633 0
M  V30 4906 C 453.262 2.21515 0.588539 0
M  V30 4907 C 454.262 1.19535 1.07554 0
M  V30 4908 O 455.452 1.44391 0.974514 0
M  V30 4909 C 452.584 2.88704 1.8128 0
M  V30 4910 H 453.777 2.99899 0.00806397 0
M  V30 4911 H 451.33 1.56265 -0.0333067 0
M  V30 4912 H 452.065 2.14352 2.43359 0
M  V30 4913 H 451.85 3.63443 1.47144 0
M  V30 4914 H 453.34 3.39465 2.43214 0
M  V30 4915 N 453.777 0.010035 1.57597 0
M  V30 4916 C 454.727 -0.986858 2.05536 0
M  V30 4917 C 455.711 -1.29711 0.952042 0
M  V30 4918 O 456.903 -1.28641 1.21575 0
M  V30 4919 C 454.032 -2.2756 2.57043 0
M  V30 4920 C 453.118 -1.99455 3.74271 0
M  V30 4921 N 453.509 -1.41546 4.85591 0
M  V30 4922 C 451.807 -2.29547 3.82393 0
M  V30 4923 C 452.508 -1.3014 5.66956 0
M  V30 4924 N 451.484 -1.79044 5.13268 0
M  V30 4925 H 455.286 -0.533778 2.89012 0
M  V30 4926 H 452.8 -0.195432 1.6122 0
M  V30 4927 H 454.797 -2.99829 2.89669 0
M  V30 4928 H 453.457 -2.73512 1.7499 0
M  V30 4929 H 454.468 -1.09294 5.06236 0
M  V30 4930 H 451.145 -2.78304 3.11213 0
M  V30 4931 H 452.535 -0.855237 6.66435 0
M  V30 4932 N 455.255 -1.55392 -0.262866 0
M  V30 4933 C 456.666 -1.67079 -0.833158 0
M  V30 4934 C 457.017 -0.604539 -1.86654 0
M  V30 4935 O 456.142 0.252138 -2.14926 0
M  V30 4936 C 456.737 -3.02891 -1.51797 0
M  V30 4937 C 455.296 -3.16571 -2.03617 0
M  V30 4938 C 454.443 -2.62909 -0.881701 0
M  V30 4939 H 457.394 -1.58652 -0.0389986 0
M  V30 4940 H 457.415 -2.96445 -2.38538 0
M  V30 4941 H 456.927 -3.80473 -0.765619 0
M  V30 4942 H 455.028 -2.43782 -2.81782 0
M  V30 4943 H 455.141 -4.23271 -2.24452 0
M  V30 4944 H 453.505 -2.20324 -1.27786 0
M  V30 4945 H 454.288 -3.43003 -0.14269 0
M  V30 4946 N 456.733 0.527833 -1.48498 0
M  V30 4947 C 457.963 1.30633 -1.60058 0
M  V30 4948 C 458.371 1.87394 -0.260786 0
M  V30 4949 O 457.714 1.67227 0.760317 0
M  V30 4950 C 457.776 2.49361 -2.58958 0
M  V30 4951 C 457.44 2.13671 -4.03972 0
M  V30 4952 C 458.437 1.69217 -4.91591 0
M  V30 4953 C 456.122 2.24129 -4.49524 0
M  V30 4954 C 458.116 1.35689 -6.2279 0
M  V30 4955 C 455.803 1.90212 -5.80743 0
M  V30 4956 C 456.801 1.46063 -6.67199 0
M  V30 4957 O 456.489 1.12593 -7.95976 0
M  V30 4958 H 456.221 0.403444 -0.54241 0
M  V30 4959 H 458.775 0.643233 -1.95068 0
M  V30 4960 H 457.005 3.18659 -2.19073 0
M  V30 4961 H 458.694 3.11421 -2.6033 0
M  V30 4962 H 459.46 1.60607 -4.57636 0
M  V30 4963 H 455.339 2.57447 -3.82416 0
M  V30 4964 H 458.883 1.01157 -6.90227 0
M  V30 4965 H 454.78 1.98464 -6.14233 0
M  V30 4966 H 455.548 1.25972 -8.08748 0
M  V30 4967 N 458.211 1.37122 0.776871 0
M  V30 4968 C 459.458 1.32047 1.53524 0
M  V30 4969 C 459.786 -0.0965631 1.9426 0
M  V30 4970 O 459.041 -1.06866 1.63945 0
M  V30 4971 C 459.34 2.20068 2.81611 0
M  V30 4972 C 459.006 3.68423 2.59953 0
M  V30 4973 C 457.668 4.08854 2.53755 0
M  V30 4974 C 460.02 4.62431 2.40431 0
M  V30 4975 C 457.348 5.41417 2.26018 0
M  V30 4976 C 459.7 5.95225 2.14219 0
M  V30 4977 C 458.364 6.34767 2.06462 0
M  V30 4978 H 457.634 0.483196 0.561785 0
M  V30 4979 H 460.281 1.69284 0.895268 0
M  V30 4980 H 458.586 1.75809 3.50141 0
M  V30 4981 H 460.283 2.13458 3.39465 0
M  V30 4982 H 456.873 3.36354 2.65638 0
M  V30 4983 H 461.057 4.32057 2.44213 0
M  V30 4984 H 456.313 5.71022 2.18504 0
M  V30 4985 H 460.487 6.67626 1.98112 0
M  V30 4986 H 458.114 7.37413 1.84733 0
M  V30 4987 N 459.689 -1.00246 1.21608 0
M  V30 4988 C 460.599 -2.12515 0.993709 0
M  V30 4989 C 461.615 -1.73913 -0.0549939 0
M  V30 4990 O 462.791 -2.00943 0.135619 0
M  V30 4991 C 459.856 -3.42083 0.563953 0
M  V30 4992 C 458.917 -3.94843 1.68516 0
M  V30 4993 C 458.15 -5.18226 1.27582 0
M  V30 4994 O 458.373 -5.70201 0.150506 0
M  V30 4995 O 457.307 -5.64497 2.0887 0
M  V30 4996 H 461.133 -2.34152 1.93407 0
M  V30 4997 H 458.718 -1.10891 1.00118 0
M  V30 4998 H 460.6 -4.20073 0.334194 0
M  V30 4999 H 459.275 -3.21828 -0.347665 0
M  V30 5000 H 458.182 -3.18068 1.96935 0
M  V30 5001 H 459.515 -4.19512 2.5743 0
M  V30 5002 N 461.167 -1.02423 -1.1978 0
M  V30 5003 C 462.392 -0.7373 -1.93852 0
M  V30 5004 C 462.817 0.696923 -1.74713 0
M  V30 5005 O 462.175 1.48056 -1.04638 0
M  V30 5006 C 462.223 -1.08783 -3.438 0
M  V30 5007 O 461.327 -0.20383 -4.11896 0
M  V30 5008 H 460.668 -0.27284 -0.605355 0
M  V30 5009 H 463.198 -1.36966 -1.51992 0
M  V30 5010 H 463.208 -1.04276 -3.9445 0
M  V30 5011 H 461.883 -2.13274 -3.57053 0
M  V30 5012 H 460.46 -0.307091 -3.71633 0
M  V30 5013 N 462.645 1.35699 -0.801477 0
M  V30 5014 C 463.575 2.32436 -0.222658 0
M  V30 5015 C 464.556 1.5723 0.649057 0
M  V30 5016 O 465.741 1.85324 0.580387 0
M  V30 5017 C 462.871 3.41469 0.633719 0
M  V30 5018 C 461.825 4.27774 -0.139083 0
M  V30 5019 C 461.151 5.28082 0.838666 0
M  V30 5020 C 462.451 5.04946 -1.33517 0
M  V30 5021 H 464.145 2.81094 -1.03086 0
M  V30 5022 H 461.691 1.35146 -0.497155 0
M  V30 5023 H 463.644 4.08143 1.04868 0
M  V30 5024 H 462.368 2.91408 1.47475 0
M  V30 5025 H 461.027 3.62673 -0.535156 0
M  V30 5026 H 460.675 4.7429 1.67506 0
M  V30 5027 H 460.375 5.86695 0.32594 0
M  V30 5028 H 461.899 5.97628 1.25194 0
M  V30 5029 H 463.313 5.64593 -0.995349 0
M  V30 5030 H 461.71 5.7303 -1.78202 0
M  V30 5031 H 462.78 4.35886 -2.12442 0
M  V30 5032 N 464.123 0.554532 1.47522 0
M  V30 5033 C 465.073 -0.215008 2.26984 0
M  V30 5034 C 466.057 -0.88774 1.34194 0
M  V30 5035 O 467.249 -0.786489 1.58567 0
M  V30 5036 C 464.378 -1.24604 3.19889 0
M  V30 5037 C 463.464 -0.576857 4.20159 0
M  V30 5038 N 463.855 0.351541 5.04577 0
M  V30 5039 C 462.153 -0.831104 4.38188 0
M  V30 5040 C 462.854 0.739995 5.76974 0
M  V30 5041 N 461.83 0.0954407 5.43516 0
M  V30 5042 H 465.632 0.498843 2.89636 0
M  V30 5043 H 463.146 0.374279 1.58028 0
M  V30 5044 H 465.143 -1.81128 3.75498 0
M  V30 5045 H 463.803 -1.96101 2.58794 0
M  V30 5046 H 464.814 0.725556 5.12792 0
M  V30 5047 H 461.491 -1.53479 3.88266 0
M  V30 5048 H 462.881 1.50271 6.5488 0
M  V30 5049 N 465.601 -1.54893 0.290851 0
M  V30 5050 C 466.878 -1.91991 -0.373989 0
M  V30 5051 C 467.258 -1.21694 -1.72493 0
M  V30 5052 O 466.606 -0.34917 -2.25816 0
M  V30 5053 C 466.816 -3.45419 -0.498703 0
M  V30 5054 C 468.164 -4.1748 -0.774298 0
M  V30 5055 O 469.188 -3.51398 -0.582908 0
M  V30 5056 O 468.047 -5.3445 -1.14129 0
M  V30 5057 H 465.141 -0.800593 -0.207315 0
M  V30 5058 H 467.687 -1.66297 0.338164 0
M  V30 5059 H 466.459 -3.88688 0.451392 0
M  V30 5060 H 466.082 -3.77117 -1.25972 0
M  V30 5061 N 467.08 -0.0183926 -1.57589 0
M  V30 5062 C 468.308 0.673046 -1.95647 0
M  V30 5063 C 468.723 1.66275 -0.894312 0
M  V30 5064 O 468.08 1.82072 0.124975 0
M  V30 5065 C 468.131 1.38884 -3.33756 0
M  V30 5066 O 467.852 0.438806 -4.35897 0
M  V30 5067 C 469.353 2.1731 -3.86383 0
M  V30 5068 H 466.573 0.186292 -0.644621 0
M  V30 5069 H 469.117 -0.0749748 -2.04363 0
M  V30 5070 H 467.272 2.08835 -3.26293 0
M  V30 5071 H 467.686 0.945869 -5.15901 0
M  V30 5072 H 469.16 2.62863 -4.85394 0
M  V30 5073 H 469.637 3.00764 -3.20059 0
M  V30 5074 H 470.243 1.52339 -3.97081 0
M  V30 5075 N 468.558 1.5553 0.254621 0
M  V30 5076 C 469.468 1.92789 1.33677 0
M  V30 5077 C 470.484 0.827356 1.53071 0
M  V30 5078 O 471.66 1.12807 1.66843 0
M  V30 5079 C 468.725 2.20827 2.67275 0
M  V30 5080 C 467.786 3.4427 2.5647 0
M  V30 5081 C 467.019 3.70961 3.83697 0
M  V30 5082 O 467.242 2.99852 4.85227 0
M  V30 5083 O 466.176 4.64491 3.82794 0
M  V30 5084 H 470.002 2.84945 1.05071 0
M  V30 5085 H 467.587 1.42312 0.454723 0
M  V30 5086 H 469.469 2.40204 3.46237 0
M  V30 5087 H 468.144 1.31851 2.9563 0
M  V30 5088 H 467.051 3.30209 1.75821 0
M  V30 5089 H 468.384 4.33524 2.33062 0
M  V30 5090 N 470.036 -0.519951 1.48776 0
M  V30 5091 C 471.313 -1.28123 1.47797 0
M  V30 5092 C 471.693 -2.10196 0.195157 0
M  V30 5093 O 471.041 -2.13167 -0.822925 0
M  V30 5094 C 471.251 -2.15413 2.74587 0
M  V30 5095 C 472.599 -2.75225 3.23321 0
M  V30 5096 O 473.623 -2.25694 2.75574 0
M  V30 5097 O 472.482 -3.65346 4.06429 0
M  V30 5098 H 469.576 -0.578793 0.590701 0
M  V30 5099 H 472.122 -0.535779 1.6102 0
M  V30 5100 H 470.894 -1.54617 3.59457 0
M  V30 5101 H 470.517 -2.97186 2.64132 0
M  V30 5102 N 471.514 -1.37532 -0.769588 0
M  V30 5103 C 472.424 -1.35668 -1.91393 0
M  V30 5104 C 473.44 -0.255954 -1.72107 0
M  V30 5105 O 474.616 -0.491704 -1.95305 0
M  V30 5106 C 471.681 -1.16481 -3.26547 0
M  V30 5107 C 470.742 -2.36212 -3.58472 0
M  V30 5108 C 469.975 -2.17932 -4.87177 0
M  V30 5109 O 470.198 -1.1647 -5.58382 0
M  V30 5110 O 469.132 -3.06167 -5.18214 0
M  V30 5111 H 472.958 -2.32055 -1.95918 0
M  V30 5112 H 470.543 -1.18284 -0.912641 0
M  V30 5113 H 472.425 -1.07778 -4.07384 0
M  V30 5114 H 471.1 -0.231687 -3.2287 0
M  V30 5115 H 470.007 -2.50488 -2.77861 0
M  V30 5116 H 471.34 -3.281 -3.66894 0
M  V30 5117 N 472.992 0.995999 -1.22138 0
M  V30 5118 C 474.403 1.54961 -1.04135 0
M  V30 5119 C 474.754 1.92159 0.396147 0
M  V30 5120 O 473.879 1.74435 1.28069 0
M  V30 5121 C 474.474 2.81581 -1.88408 0
M  V30 5122 C 473.033 3.33396 -1.74712 0
M  V30 5123 C 472.18 2.06509 -1.85066 0
M  V30 5124 H 475.131 0.817436 -1.36028 0
M  V30 5125 H 475.152 3.53822 -1.39966 0
M  V30 5126 H 474.664 2.54476 -2.93025 0
M  V30 5127 H 472.765 3.65416 -0.728159 0
M  V30 5128 H 472.878 4.04208 -2.57202 0
M  V30 5129 H 471.242 2.19925 -1.28472 0
M  V30 5130 H 472.025 1.81804 -2.91208 0
M  V30 5131 N 474.47 1.03057 1.19235 0
M  V30 5132 C 475.402 0.570932 2.21975 0
M  V30 5133 C 476.415 -0.354088 1.58903 0
M  V30 5134 O 477.604 -0.150211 1.77867 0
M  V30 5135 C 474.704 -0.187152 3.38383 0
M  V30 5136 C 473.877 0.743231 4.31039 0
M  V30 5137 C 472.936 0.0302493 5.26191 0
M  V30 5138 O 471.962 0.657371 5.65391 0
M  V30 5139 N 473.164 -1.23991 5.67104 0
M  V30 5140 H 475.929 1.45456 2.62036 0
M  V30 5141 H 473.49 0.909807 1.33918 0
M  V30 5142 H 475.482 -0.673715 3.99053 0
M  V30 5143 H 474.052 -0.972205 2.97098 0
M  V30 5144 H 473.272 1.40985 3.68126 0
M  V30 5145 H 474.56 1.3755 4.89854 0
M  V30 5146 H 473.958 -1.77011 5.37293 0
M  V30 5147 H 472.515 -1.67093 6.30018 0
M  V30 5148 N 475.948 -1.35272 0.808662 0
M  V30 5149 C 477.194 -1.99003 0.390581 0
M  V30 5150 C 477.527 -1.63999 -1.0401 0
M  V30 5151 O 476.802 -0.904368 -1.72196 0
M  V30 5152 C 477.085 -3.55454 0.576566 0
M  V30 5153 C 476.938 -4.00249 2.05233 0
M  V30 5154 C 478.257 -4.401 0.00354277 0
M  V30 5155 H 475.376 -0.722917 0.143388 0
M  V30 5156 H 478.018 -1.6039 1.01858 0
M  V30 5157 H 476.168 -3.88477 0.0419766 0
M  V30 5158 H 477.84 -3.77626 2.64946 0
M  V30 5159 H 476.083 -3.51082 2.54801 0
M  V30 5160 H 476.754 -5.0911 2.13333 0
M  V30 5161 H 479.23 -4.13548 0.460117 0
M  V30 5162 H 478.106 -5.48656 0.163575 0
M  V30 5163 H 478.367 -4.28444 -1.09032 0
M  V30 5164 N 477.426 -0.562348 -1.47226 0
M  V30 5165 C 478.358 0.220011 -2.28142 0
M  V30 5166 C 479.371 0.874596 -1.37312 0
M  V30 5167 O 480.56 0.747583 -1.62091 0
M  V30 5168 C 477.66 1.32953 -3.11732 0
M  V30 5169 C 476.833 0.770759 -4.30556 0
M  V30 5170 C 475.892 1.76541 -4.95701 0
M  V30 5171 O 474.918 1.3095 -5.53932 0
M  V30 5172 N 476.12 3.09896 -4.90861 0
M  V30 5173 H 478.885 -0.474107 -2.95926 0
M  V30 5174 H 476.446 -0.398761 -1.56912 0
M  V30 5175 H 478.438 1.99378 -3.5218 0
M  V30 5176 H 477.008 1.92681 -2.46156 0
M  V30 5177 H 476.228 -0.0704056 -3.94137 0
M  V30 5178 H 477.516 0.376872 -5.07402 0
M  V30 5179 H 476.914 3.49577 -4.44761 0
M  V30 5180 H 475.471 3.71865 -5.35313 0
M  V30 5181 N 478.904 1.54736 -0.299062 0
M  V30 5182 C 479.851 2.23448 0.577899 0
M  V30 5183 C 480.821 1.21637 1.13109 0
M  V30 5184 O 482.006 1.50252 1.17597 0
M  V30 5185 C 479.146 2.9774 1.74484 0
M  V30 5186 C 478.259 4.1432 1.22323 0
M  V30 5187 C 477.394 4.76199 2.35388 0
M  V30 5188 C 476.433 5.84927 1.80351 0
M  V30 5189 N 475.57 6.4077 2.86982 0
M  V30 5190 H 480.41 2.97996 -0.0146545 0
M  V30 5191 H 477.947 1.47088 -0.0190013 0
M  V30 5192 H 479.905 3.39045 2.43114 0
M  V30 5193 H 478.535 2.25572 2.30905 0
M  V30 5194 H 477.587 3.7797 0.429249 0
M  V30 5195 H 478.899 4.92659 0.780309 0
M  V30 5196 H 478.053 5.20346 3.11969 0
M  V30 5197 H 476.792 3.97188 2.83006 0
M  V30 5198 H 475.797 5.40207 1.02259 0
M  V30 5199 H 477.022 6.65821 1.3364 0
M  V30 5200 H 474.968 5.64643 3.33938 0
M  V30 5201 H 474.885 7.1445 2.4718 0
M  V30 5202 H 476.153 6.89574 3.63466 0
M  V30 5203 N 480.382 0.0267497 1.57577 0
M  V30 5204 C 481.612 -0.6617 1.95717 0
M  V30 5205 C 482.02 -1.66331 0.901706 0
M  V30 5206 O 481.363 -1.83273 -0.125241 0
M  V30 5207 C 481.425 -1.42649 3.29987 0
M  V30 5208 C 481.089 -0.583482 4.5326 0
M  V30 5209 C 482.086 0.140221 5.19711 0
M  V30 5210 C 479.771 -0.521581 4.99585 0
M  V30 5211 C 481.765 0.914523 6.30805 0
M  V30 5212 C 479.452 0.256428 6.10562 0
M  V30 5213 C 480.45 0.973189 6.76031 0
M  V30 5214 O 480.138 1.73845 7.84878 0
M  V30 5215 H 479.87 -0.187483 0.649481 0
M  V30 5216 H 482.424 0.0820847 2.05236 0
M  V30 5217 H 480.654 -2.21536 3.16952 0
M  V30 5218 H 482.343 -2.00282 3.53047 0
M  V30 5219 H 483.109 0.101716 4.84893 0
M  V30 5220 H 478.988 -1.06904 4.48433 0
M  V30 5221 H 482.532 1.4745 6.81839 0
M  V30 5222 H 478.429 0.296657 6.44818 0
M  V30 5223 H 479.197 1.65797 8.01532 0
M  V30 5224 N 481.861 -1.55662 -0.24637 0
M  V30 5225 C 483.138 -1.68272 -0.997198 0
M  V30 5226 C 483.518 -0.566785 -2.03349 0
M  V30 5227 O 482.866 0.429688 -2.24424 0
M  V30 5228 C 483.076 -3.08594 -1.63006 0
M  V30 5229 C 484.424 -3.6721 -2.13171 0
M  V30 5230 O 485.448 -3.11397 -1.72946 0
M  V30 5231 O 484.307 -4.65054 -2.87031 0
M  V30 5232 H 481.401 -0.684429 -0.464205 0
M  V30 5233 H 483.947 -1.67993 -0.240114 0
M  V30 5234 H 482.719 -3.81264 -0.880527 0
M  V30 5235 H 482.342 -3.12886 -2.45333 0
M  V30 5236 N 483.339 0.512053 -1.4905 0
M  V30 5237 C 484.616 1.27337 -1.48474 0
M  V30 5238 C 484.996 2.1009 -0.206301 0
M  V30 5239 O 484.344 2.136 0.811609 0
M  V30 5240 C 484.554 2.13954 -2.75726 0
M  V30 5241 C 485.902 2.73507 -3.24776 0
M  V30 5242 O 486.926 2.24229 -2.76767 0
M  V30 5243 O 485.785 3.63186 -4.08361 0
M  V30 5244 H 482.879 0.575652 -0.593762 0
M  V30 5245 H 485.425 0.527232 -1.61302 0
M  V30 5246 H 484.197 1.52709 -3.60272 0
M  V30 5247 H 483.82 2.95782 -2.65705 0
M  V30 5248 N 484.817 1.37938 0.762283 0
M  V30 5249 C 486.042 1.37059 1.55659 0
M  V30 5250 C 486.467 -0.0396123 1.88058 0
M  V30 5251 O 485.825 -1.01929 1.49934 0
M  V30 5252 C 485.873 2.22494 2.83776 0
M  V30 5253 O 484.977 1.63607 3.78559 0
M  V30 5254 H 484.318 0.467892 0.47114 0
M  V30 5255 H 486.848 1.81587 0.942725 0
M  V30 5256 H 486.858 2.36045 3.32786 0
M  V30 5257 H 485.533 3.24993 2.59524 0
M  V30 5258 H 484.11 1.5915 3.37233 0
M  V30 5259 N 486.295 -0.989507 1.22664 0
M  V30 5260 C 487.542 -1.72953 1.05325 0
M  V30 5261 C 487.87 -1.90104 -0.411168 0
M  V30 5262 O 487.125 -1.44386 -1.32103 0
M  V30 5263 C 487.424 -3.13649 1.71345 0
M  V30 5264 C 487.09 -3.16403 3.21248 0
M  V30 5265 C 485.752 -3.16862 3.62149 0
M  V30 5266 C 488.104 -3.12428 4.17179 0
M  V30 5267 C 485.432 -3.11051 4.97458 0
M  V30 5268 C 487.784 -3.08159 5.52468 0
M  V30 5269 C 486.448 -3.06935 5.92746 0
M  V30 5270 H 485.718 -0.632881 0.385412 0
M  V30 5271 H 488.365 -1.15863 1.52473 0
M  V30 5272 H 486.67 -3.74069 1.16532 0
M  V30 5273 H 488.367 -3.69658 1.55416 0
M  V30 5274 H 484.957 -3.16798 2.88682 0
M  V30 5275 H 489.141 -3.11221 3.86595 0
M  V30 5276 H 484.397 -3.0845 5.27891 0
M  V30 5277 H 488.571 -3.04039 6.26525 0
M  V30 5278 H 486.198 -3.02186 6.97558 0
M  V30 5279 N 487.773 -1.03688 -1.18687 0
M  V30 5280 C 489.05 -0.652397 -1.84399 0
M  V30 5281 C 489.43 0.868386 -1.92412 0
M  V30 5282 O 488.778 1.76832 -1.44716 0
M  V30 5283 C 488.988 -1.3238 -3.22919 0
M  V30 5284 C 490.336 -1.45216 -3.98996 0
M  V30 5285 O 491.36 -1.2816 -3.32345 0
M  V30 5286 O 490.219 -1.72975 -5.18403 0
M  V30 5287 H 487.313 -0.227793 -0.795009 0
M  V30 5288 H 489.859 -1.13553 -1.2611 0
M  V30 5289 H 488.631 -2.36202 -3.11968 0
M  V30 5290 H 488.254 -0.829039 -3.88861 0
M  V30 5291 N 489.251 1.34841 -0.815825 0
M  V30 5292 C 490.528 1.92908 -0.323416 0
M  V30 5293 C 490.908 1.74479 1.18828 0
M  V30 5294 O 490.256 1.11928 1.99209 0
M  V30 5295 C 490.466 3.40957 -0.744952 0
M  V30 5296 C 491.814 4.18107 -0.739716 0
M  V30 5297 O 492.838 3.49511 -0.68708 0
M  V30 5298 O 491.697 5.40517 -0.806456 0
M  V30 5299 H 488.791 0.822436 -0.0867646 0
M  V30 5300 H 491.337 1.4386 -0.90014 0
M  V30 5301 H 490.109 3.4814 -1.78646 0
M  V30 5302 H 489.732 3.97341 -0.143535 0
M  V30 5303 N 490.729 0.570148 1.46925 0
M  V30 5304 C 491.975 0.0510284 2.02736 0
M  V30 5305 C 492.308 -1.3006 1.44215 0
M  V30 5306 O 491.583 -1.84932 0.602521 0
M  V30 5307 C 491.866 -0.028215 3.60089 0
M  V30 5308 C 491.719 1.35142 4.29018 0
M  V30 5309 C 493.038 -0.735181 4.33916 0
M  V30 5310 H 490.157 0.0200178 0.736728 0
M  V30 5311 H 492.799 0.73493 1.75211 0
M  V30 5312 H 490.949 -0.610648 3.83671 0
M  V30 5313 H 492.621 1.97806 4.16738 0
M  V30 5314 H 490.864 1.9226 3.88868 0
M  V30 5315 H 491.535 1.24857 5.37694 0
M  V30 5316 H 494.011 -0.240519 4.15404 0
M  V30 5317 H 492.887 -0.759622 5.43618 0
M  V30 5318 H 493.148 -1.79397 4.04066 0
M  V30 5319 N 492.207 -1.54576 0.307264 0
M  V30 5320 C 493.484 -1.92377 -0.353605 0
M  V30 5321 C 493.864 -1.23517 -1.71192 0
M  V30 5322 O 493.212 -0.373101 -2.25433 0
M  V30 5323 C 493.422 -3.45928 -0.462039 0
M  V30 5324 C 494.77 -4.18278 -0.729975 0
M  V30 5325 O 495.794 -3.51997 -0.545605 0
M  V30 5326 O 494.653 -5.3563 -1.08454 0
M  V30 5327 H 491.747 -0.802747 -0.198812 0
M  V30 5328 H 494.293 -1.65929 0.355783 0
M  V30 5329 H 493.065 -3.88187 0.492592 0
M  V30 5330 H 492.688 -3.78431 -1.21965 0
M  V30 5331 N 493.685 -0.035106 -1.57561 0
M  V30 5332 C 495.101 0.321334 -1.56332 0
M  V30 5333 C 495.301 1.72509 -1.04129 0
M  V30 5334 O 494.357 2.4287 -0.690694 0
M  V30 5335 C 495.67 0.164469 -3.0025 0
M  V30 5336 C 497.218 0.236786 -3.12103 0
M  V30 5337 C 497.693 0.10864 -4.57871 0
M  V30 5338 N 499.184 0.165433 -4.62904 0
M  V30 5339 C 499.919 0.0901506 -5.73329 0
M  V30 5340 N 499.415 -0.0365606 -6.9279 0
M  V30 5341 N 501.208 0.144572 -5.61914 0
M  V30 5342 H 493.359 -0.952976 -1.89821 0
M  V30 5343 H 495.622 -0.368537 -0.873432 0
M  V30 5344 H 495.328 -0.802746 -3.42416 0
M  V30 5345 H 495.202 0.932194 -3.655 0
M  V30 5346 H 497.589 1.19446 -2.69845 0
M  V30 5347 H 497.67 -0.561419 -2.49563 0
M  V30 5348 H 497.314 -0.845644 -5.00811 0
M  V30 5349 H 497.244 0.925786 -5.18398 0
M  V30 5350 H 499.735 0.263269 -3.76982 0
M  V30 5351 H 500.048 -0.0871487 -7.72751 0
M  V30 5352 H 498.393 -0.0714256 -6.94963 0
M  V30 5353 H 501.584 0.242006 -4.67474 0
M  V30 5354 H 501.757 0.0824413 -6.47948 0
M  V30 5355 N 495.163 1.55791 0.238111 0
M  V30 5356 C 496.391 1.82098 0.982233 0
M  V30 5357 C 496.806 0.612025 1.78605 0
M  V30 5358 O 496.163 -0.419381 1.77616 0
M  V30 5359 C 496.214 3.0673 1.91309 0
M  V30 5360 O 495.935 4.2296 1.14179 0
M  V30 5361 C 497.436 3.45903 2.77248 0
M  V30 5362 H 494.656 0.605748 0.288635 0
M  V30 5363 H 497.2 2.02862 0.258341 0
M  V30 5364 H 495.355 2.87991 2.59114 0
M  V30 5365 H 495.769 4.93653 1.7722 0
M  V30 5366 H 497.243 4.36189 3.38295 0
M  V30 5367 H 497.72 2.66891 3.48806 0
M  V30 5368 H 498.326 3.67024 2.14881 0
M  V30 5369 N 496.642 -0.504142 1.49319 0
M  V30 5370 C 497.572 -1.61473 1.68667 0
M  V30 5371 C 498.553 -1.61455 0.535378 0
M  V30 5372 O 499.738 -1.78245 0.770868 0
M  V30 5373 C 496.868 -2.99971 1.75028 0
M  V30 5374 C 495.822 -3.14854 2.89916 0
M  V30 5375 C 495.148 -4.54671 2.81387 0
M  V30 5376 C 496.448 -2.95176 4.30893 0
M  V30 5377 H 498.142 -1.45535 2.61648 0
M  V30 5378 H 495.688 -0.698711 1.25913 0
M  V30 5379 H 497.641 -3.77562 1.8715 0
M  V30 5380 H 496.365 -3.1699 0.786441 0
M  V30 5381 H 495.024 -2.39687 2.77391 0
M  V30 5382 H 494.672 -4.68562 1.82917 0
M  V30 5383 H 494.372 -4.6557 3.58494 0
M  V30 5384 H 495.896 -5.34327 2.95512 0
M  V30 5385 H 497.31 -3.62538 4.44116 0
M  V30 5386 H 495.707 -3.17549 5.09198 0
M  V30 5387 H 496.777 -1.91332 4.45556 0
M  V30 5388 N 498.12 -1.38341 -0.754957 0
M  V30 5389 C 499.397 -1.24995 -1.50451 0
M  V30 5390 C 499.777 0.149244 -2.10572 0
M  V30 5391 O 499.125 1.15861 -1.96948 0
M  V30 5392 C 499.335 -2.35904 -2.57197 0
M  V30 5393 C 500.683 -2.74262 -3.24138 0
M  V30 5394 O 501.707 -2.35205 -2.67501 0
M  V30 5395 O 500.566 -3.4161 -4.26574 0
M  V30 5396 H 497.66 -0.48872 -0.667144 0
M  V30 5397 H 500.206 -1.50165 -0.790486 0
M  V30 5398 H 498.978 -3.2953 -2.11011 0
M  V30 5399 H 498.601 -2.12291 -3.36182 0
M  V30 5400 N 499.598 0.982988 -1.23187 0
M  V30 5401 C 500.508 2.10907 -1.02739 0
M  V30 5402 C 501.524 1.73979 0.0273188 0
M  V30 5403 O 502.7 2.00702 -0.16757 0
M  V30 5404 C 499.765 3.41142 -0.618304 0
M  V30 5405 C 498.826 3.92112 -1.74777 0
M  V30 5406 C 498.059 5.16131 -1.3581 0
M  V30 5407 O 498.282 5.6989 -0.241201 0
M  V30 5408 O 497.216 5.61103 -2.17824 0
M  V30 5409 H 501.042 2.31046 -1.97108 0
M  V30 5410 H 498.627 1.09284 -1.01869 0
M  V30 5411 H 500.509 4.19488 -0.400982 0
M  V30 5412 H 499.184 3.2234 0.296421 0
M  V30 5413 H 498.091 3.14895 -2.0197 0
M  V30 5414 H 499.424 4.15364 -2.64071 0
M  V30 5415 N 501.076 1.04316 1.18135 0
M  V30 5416 C 502.322 0.758899 1.88712 0
M  V30 5417 C 502.677 -0.705863 1.78984 0
M  V30 5418 O 501.97 -1.50874 1.18101 0
M  V30 5419 C 502.164 1.16271 3.37958 0
M  V30 5420 C 501.993 2.66518 3.62213 0
M  V30 5421 C 500.763 3.33702 3.79436 0
M  V30 5422 C 502.961 3.64739 3.62588 0
M  V30 5423 N 500.943 4.72904 3.91452 0
M  V30 5424 C 502.314 4.89627 3.80348 0
M  V30 5425 C 504.369 3.58333 3.4569 0
M  V30 5426 C 503.072 6.08879 3.8296 0
M  V30 5427 C 505.098 4.77016 3.49586 0
M  V30 5428 C 504.46 6.00724 3.67845 0
M  V30 5429 H 500.559 0.329795 0.709055 0
M  V30 5430 H 503.143 1.33334 1.4188 0
M  V30 5431 H 501.314 0.616319 3.83479 0
M  V30 5432 H 503.046 0.829205 3.96114 0
M  V30 5433 H 499.801 2.84105 3.78921 0
M  V30 5434 H 500.225 5.45258 4.01277 0
M  V30 5435 H 504.867 2.63663 3.30517 0
M  V30 5436 H 502.585 7.03903 3.96921 0
M  V30 5437 H 506.171 4.73703 3.37782 0
M  V30 5438 H 505.051 6.91022 3.70753 0
M  V30 5439 N 502.554 -1.34406 0.822964 0
M  V30 5440 C 503.501 -2.29519 0.24284 0
M  V30 5441 C 504.471 -1.5359 -0.632397 0
M  V30 5442 O 505.656 -1.8196 -0.57403 0
M  V30 5443 C 502.796 -3.40032 -0.58925 0
M  V30 5444 C 501.909 -4.30899 0.308236 0
M  V30 5445 C 501.044 -5.28515 -0.533425 0
M  V30 5446 C 500.083 -6.1102 0.363444 0
M  V30 5447 N 499.22 -7.00725 -0.439147 0
M  V30 5448 H 504.06 -2.78537 1.05929 0
M  V30 5449 H 501.597 -1.3707 0.533872 0
M  V30 5450 H 503.555 -4.0279 -1.087 0
M  V30 5451 H 502.185 -2.92248 -1.37081 0
M  V30 5452 H 501.237 -3.69002 0.924203 0
M  V30 5453 H 502.549 -4.88717 0.997862 0
M  V30 5454 H 501.703 -5.96725 -1.09565 0
M  V30 5455 H 500.442 -4.71235 -1.25656 0
M  V30 5456 H 499.447 -5.41743 0.937812 0
M  V30 5457 H 500.672 -6.70381 1.08469 0
M  V30 5458 H 498.618 -6.45913 -1.14595 0
M  V30 5459 H 498.535 -7.55756 0.19209 0
M  V30 5460 H 499.803 -7.73263 -0.984124 0
M  V30 5461 N 504.032 -0.577932 -1.46621 0
M  V30 5462 C 505.448 -0.239242 -1.57797 0
M  V30 5463 C 505.648 1.25843 -1.57371 0
M  V30 5464 O 504.704 2.03988 -1.48813 0
M  V30 5465 C 506.017 -0.884227 -2.87405 0
M  V30 5466 C 507.565 -0.857373 -3.01028 0
M  V30 5467 C 508.04 -1.48181 -4.33366 0
M  V30 5468 N 509.531 -1.44593 -4.40053 0
M  V30 5469 C 510.266 -1.89852 -5.41058 0
M  V30 5470 N 509.762 -2.43062 -6.48762 0
M  V30 5471 N 511.555 -1.80797 -5.3223 0
M  V30 5472 H 503.706 -1.55073 -1.45142 0
M  V30 5473 H 505.969 -0.647903 -0.692044 0
M  V30 5474 H 505.675 -1.93759 -2.93514 0
M  V30 5475 H 505.549 -0.389585 -3.75183 0
M  V30 5476 H 507.936 0.187357 -2.94505 0
M  V30 5477 H 508.017 -1.38999 -2.14739 0
M  V30 5478 H 507.661 -2.52572 -4.40647 0
M  V30 5479 H 507.591 -0.924464 -5.18422 0
M  V30 5480 H 510.082 -1.05694 -3.62819 0
M  V30 5481 H 510.395 -2.75466 -7.22038 0
M  V30 5482 H 508.74 -2.47085 -6.49595 0
M  V30 5483 H 511.931 -1.38989 -4.46989 0
M  V30 5484 H 512.104 -2.16385 -6.10804 0
M  V30 5485 N 505.51 1.54411 -0.315457 0
M  V30 5486 C 506.756 2.00716 0.289972 0
M  V30 5487 C 507.089 1.2034 1.5242 0
M  V30 5488 O 506.364 0.283579 1.92422 0
M  V30 5489 C 506.647 3.54507 0.632196 0
M  V30 5490 C 506.5 4.45615 -0.61218 0
M  V30 5491 C 507.819 4.15421 1.45305 0
M  V30 5492 H 504.938 0.729637 0.10392 0
M  V30 5493 H 507.58 1.8506 -0.430427 0
M  V30 5494 H 505.73 3.67979 1.24595 0
M  V30 5495 H 507.402 4.44026 -1.25053 0
M  V30 5496 H 505.645 4.15621 -1.24264 0
M  V30 5497 H 506.316 5.51022 -0.328379 0
M  V30 5498 H 508.792 4.05474 0.934331 0
M  V30 5499 H 507.668 5.23157 1.66127 0
M  V30 5500 H 507.929 3.68223 2.44671 0
M  V30 5501 N 506.988 0.0434614 1.5754 0
M  V30 5502 C 508.216 -0.641835 1.96693 0
M  V30 5503 C 508.631 -1.64832 0.920652 0
M  V30 5504 O 507.988 -1.82247 -0.095993 0
M  V30 5505 C 508.039 -1.33557 3.35924 0
M  V30 5506 O 507.76 -0.369403 4.3654 0
M  V30 5507 C 509.261 -2.11135 3.89791 0
M  V30 5508 H 506.481 -0.176013 0.647503 0
M  V30 5509 H 509.025 0.107478 2.04217 0
M  V30 5510 H 507.18 -2.03617 3.29574 0
M  V30 5511 H 507.594 -0.863674 5.1734 0
M  V30 5512 H 509.068 -2.55107 4.89514 0
M  V30 5513 H 509.545 -2.95634 3.24803 0
M  V30 5514 H 510.151 -1.46002 3.99454 0
M  V30 5515 N 508.466 -1.55915 -0.229846 0
M  V30 5516 C 509.696 -1.82352 -0.971152 0
M  V30 5517 C 510.104 -0.619231 -1.7878 0
M  V30 5518 O 509.447 0.421597 -1.78797 0
M  V30 5519 C 509.509 -3.02399 -1.9441 0
M  V30 5520 C 509.173 -4.37739 -1.31277 0
M  V30 5521 C 510.17 -5.15074 -0.706757 0
M  V30 5522 C 507.855 -4.84454 -1.32702 0
M  V30 5523 C 509.849 -6.37281 -0.123413 0
M  V30 5524 C 507.536 -6.06605 -0.739831 0
M  V30 5525 C 508.534 -6.82858 -0.139071 0
M  V30 5526 O 508.222 -8.027 0.439007 0
M  V30 5527 H 507.954 -0.61035 -0.290601 0
M  V30 5528 H 510.508 -2.03839 -0.252746 0
M  V30 5529 H 508.738 -2.76709 -2.70128 0
M  V30 5530 H 510.427 -3.15779 -2.55026 0
M  V30 5531 H 511.193 -4.80093 -0.688131 0
M  V30 5532 H 507.072 -4.25081 -1.78402 0
M  V30 5533 H 510.616 -6.96741 0.346124 0
M  V30 5534 H 506.513 -6.4106 -0.755841 0
M  V30 5535 H 507.281 -8.17824 0.332521 0
M  V30 5536 N 509.944 0.496216 -1.49584 0
M  V30 5537 C 510.891 1.59722 -1.66606 0
M  V30 5538 C 511.861 1.58158 -0.507477 0
M  V30 5539 O 513.046 1.76072 -0.735076 0
M  V30 5540 C 510.186 2.97844 -1.74308 0
M  V30 5541 C 509.299 3.09388 -3.01502 0
M  V30 5542 C 508.434 4.38271 -3.00153 0
M  V30 5543 C 507.473 4.43466 -4.21906 0
M  V30 5544 N 506.61 5.63784 -4.1844 0
M  V30 5545 H 511.45 1.44515 -2.60613 0
M  V30 5546 H 508.987 0.703048 -1.29212 0
M  V30 5547 H 510.945 3.77907 -1.76754 0
M  V30 5548 H 509.575 3.11743 -0.837619 0
M  V30 5549 H 508.627 2.22357 -3.08645 0
M  V30 5550 H 509.939 3.09085 -3.91494 0
M  V30 5551 H 509.093 5.2666 -3.01188 0
M  V30 5552 H 507.832 4.41146 -2.07947 0
M  V30 5553 H 506.837 3.53478 -4.21109 0
M  V30 5554 H 508.062 4.42303 -5.1531 0
M  V30 5555 H 506.008 5.67491 -3.29074 0
M  V30 5556 H 505.925 5.65118 -5.02173 0
M  V30 5557 H 507.193 6.54367 -4.23585 0
M  V30 5558 N 511.423 1.38739 0.74761 0
M  V30 5559 C 512.333 1.38696 1.89211 0
M  V30 5560 C 513.349 0.283303 1.71678 0
M  V30 5561 O 514.525 0.522713 1.94498 0
M  V30 5562 C 511.59 1.21662 3.24653 0
M  V30 5563 C 510.651 2.41886 3.54669 0
M  V30 5564 C 509.884 2.25655 4.83648 0
M  V30 5565 O 510.107 1.25339 5.56459 0
M  V30 5566 O 509.041 3.14372 5.13277 0
M  V30 5567 H 512.867 2.35143 1.92202 0
M  V30 5568 H 510.452 1.19721 0.893708 0
M  V30 5569 H 512.334 1.14246 4.05618 0
M  V30 5570 H 511.009 0.283024 3.2246 0
M  V30 5571 H 509.916 2.54877 2.73841 0
M  V30 5572 H 511.249 3.33895 3.61628 0
M  V30 5573 N 512.901 -0.976442 1.23707 0
M  V30 5574 C 514.147 -1.72081 1.07312 0
M  V30 5575 C 514.48 -1.90275 -0.388476 0
M  V30 5576 O 513.755 -1.4579 -1.28746 0
M  V30 5577 C 514.038 -3.11675 1.80363 0
M  V30 5578 C 513.891 -3.01027 3.3422 0
M  V30 5579 C 515.21 -4.1117 1.5693 0
M  V30 5580 H 512.329 -0.624583 0.391236 0
M  V30 5581 H 514.971 -1.13649 1.52263 0
M  V30 5582 H 513.121 -3.61559 1.42153 0
M  V30 5583 H 514.793 -2.58637 3.81975 0
M  V30 5584 H 513.036 -2.3744 3.63049 0
M  V30 5585 H 513.707 -3.9988 3.80525 0
M  V30 5586 H 516.183 -3.7011 1.90151 0
M  V30 5587 H 515.059 -5.06928 2.10513 0
M  V30 5588 H 515.32 -4.392 0.505548 0
M  V30 5589 N 514.379 -1.04941 -1.1758 0
M  V30 5590 C 515.309 -0.669172 -2.23706 0
M  V30 5591 C 516.29 0.331835 -1.66832 0
M  V30 5592 O 517.475 0.209988 -1.93061 0
M  V30 5593 C 514.605 -0.0404889 -3.47276 0
M  V30 5594 C 513.559 -0.965983 -4.16957 0
M  V30 5595 C 512.885 -0.201312 -5.34321 0
M  V30 5596 C 514.185 -2.28902 -4.69469 0
M  V30 5597 H 515.879 -1.55639 -2.55767 0
M  V30 5598 H 513.425 -0.749793 -1.22939 0
M  V30 5599 H 515.378 0.237298 -4.20731 0
M  V30 5600 H 514.102 0.881658 -3.14475 0
M  V30 5601 H 512.761 -1.22829 -3.45411 0
M  V30 5602 H 512.409 0.723519 -4.97769 0
M  V30 5603 H 512.109 -0.817968 -5.81879 0
M  V30 5604 H 513.633 0.0692499 -6.10561 0
M  V30 5605 H 515.047 -2.07132 -5.34574 0
M  V30 5606 H 513.444 -2.85942 -5.27596 0
M  V30 5607 H 514.514 -2.92937 -3.86414 0
M  V30 5608 N 515.857 1.33968 -0.830081 0
M  V30 5609 C 517.082 2.02813 -0.433796 0
M  V30 5610 C 517.507 1.62076 0.954614 0
M  V30 5611 O 516.865 0.808955 1.62252 0
M  V30 5612 C 516.913 3.56348 -0.552115 0
M  V30 5613 O 516.017 4.10202 0.425191 0
M  V30 5614 H 515.358 0.639817 -0.177567 0
M  V30 5615 H 517.888 1.7106 -1.12248 0
M  V30 5616 H 517.898 4.05722 -0.430513 0
M  V30 5617 H 516.573 3.85344 -1.56471 0
M  V30 5618 H 515.15 3.71979 0.261878 0
M  V30 5619 N 517.335 0.585699 1.46312 0
M  V30 5620 C 518.582 0.0724211 2.0237 0
M  V30 5621 C 518.91 -1.28868 1.45683 0
M  V30 5622 O 518.165 -1.85853 0.612945 0
M  V30 5623 C 518.464 -0.0401312 3.57377 0
M  V30 5624 C 518.13 1.25376 4.33119 0
M  V30 5625 C 516.792 1.60824 4.5353 0
M  V30 5626 C 519.144 2.10987 4.76586 0
M  V30 5627 C 516.472 2.81676 5.14661 0
M  V30 5628 C 518.824 3.31068 5.39052 0
M  V30 5629 C 517.488 3.66794 5.5769 0
M  V30 5630 H 516.758 0.0265007 0.740526 0
M  V30 5631 H 519.405 0.762935 1.75646 0
M  V30 5632 H 517.71 -0.813791 3.83255 0
M  V30 5633 H 519.407 -0.453078 3.98432 0
M  V30 5634 H 515.997 0.967808 4.1753 0
M  V30 5635 H 520.181 1.84904 4.60569 0
M  V30 5636 H 515.437 3.0949 5.27282 0
M  V30 5637 H 519.611 3.97672 5.71691 0
M  V30 5638 H 517.238 4.60529 6.04828 0
M  V30 5639 N 518.813 -1.54241 0.323641 0
M  V30 5640 C 519.76 -2.24339 -0.542277 0
M  V30 5641 C 520.73 -1.23421 -1.11159 0
M  V30 5642 O 521.915 -1.52104 -1.15192 0
M  V30 5643 C 519.055 -3.00479 -1.69725 0
M  V30 5644 C 518.168 -4.16214 -1.15716 0
M  V30 5645 C 517.303 -4.79884 -2.27783 0
M  V30 5646 C 516.342 -5.87722 -1.71023 0
M  V30 5647 N 515.479 -6.45254 -2.76752 0
M  V30 5648 H 520.319 -2.97935 0.0620613 0
M  V30 5649 H 517.856 -1.47039 0.0423993 0
M  V30 5650 H 519.814 -3.42869 -2.3769 0
M  V30 5651 H 518.444 -2.29217 -2.27288 0
M  V30 5652 H 517.496 -3.78605 -0.369063 0
M  V30 5653 H 518.808 -4.93838 -0.701832 0
M  V30 5654 H 517.962 -5.25243 -3.03651 0
M  V30 5655 H 516.701 -4.01641 -2.76652 0
M  V30 5656 H 515.706 -5.41765 -0.936518 0
M  V30 5657 H 516.931 -6.67863 -1.2303 0
M  V30 5658 H 514.877 -5.69884 -3.24912 0
M  V30 5659 H 514.794 -7.18292 -2.35782 0
M  V30 5660 H 516.062 -6.95269 -3.5245 0
M  V30 5661 N 520.291 -0.0518155 -1.57515 0
M  V30 5662 C 521.702 0.483787 -1.80323 0
M  V30 5663 C 522.053 1.70879 -0.964099 0
M  V30 5664 O 521.178 2.15643 -0.180872 0
M  V30 5665 C 521.773 0.884459 -3.27052 0
M  V30 5666 C 520.332 1.36504 -3.50776 0
M  V30 5667 C 519.479 0.340539 -2.75201 0
M  V30 5668 H 522.43 -0.277691 -1.56252 0
M  V30 5669 H 522.451 1.74733 -3.38007 0
M  V30 5670 H 521.963 -0.00731093 -3.88099 0
M  V30 5671 H 520.064 2.27598 -2.95009 0
M  V30 5672 H 520.177 1.35675 -4.59488 0
M  V30 5673 H 518.541 0.81356 -2.41357 0
M  V30 5674 H 519.324 -0.543156 -3.38976 0
M  V30 5675 N 521.769 1.56035 0.221574 0
M  V30 5676 C 523.18 1.69229 0.788567 0
M  V30 5677 C 523.531 0.653814 1.84986 0
M  V30 5678 O 522.656 -0.195065 2.15519 0
M  V30 5679 C 523.251 3.06809 1.43713 0
M  V30 5680 C 521.81 3.21858 1.95152 0
M  V30 5681 C 520.957 2.65155 0.811685 0
M  V30 5682 H 523.908 1.587 -0.00307894 0
M  V30 5683 H 523.929 3.02666 2.30594 0
M  V30 5684 H 523.441 3.82369 0.664475 0
M  V30 5685 H 521.542 2.51167 2.7522 0
M  V30 5686 H 521.655 4.29073 2.1315 0
M  V30 5687 H 520.019 2.23635 1.21899 0
M  V30 5688 H 520.802 3.43261 0.0516987 0
M  V30 5689 N 523.247 -0.488276 1.49845 0
M  V30 5690 C 524.663 -0.820566 1.3689 0
M  V30 5691 C 524.863 -1.97248 0.411752 0
M  V30 5692 O 523.919 -2.52042 -0.151931 0
M  V30 5693 C 525.232 -1.1488 2.77891 0
M  V30 5694 C 526.78 -1.25626 2.86683 0
M  V30 5695 C 527.255 -1.61772 4.28479 0
M  V30 5696 N 528.746 -1.68797 4.31349 0
M  V30 5697 C 529.481 -1.98235 5.38043 0
M  V30 5698 N 528.977 -2.2581 6.54967 0
M  V30 5699 N 530.77 -1.99593 5.2547 0
M  V30 5700 H 522.921 0.271123 2.10662 0
M  V30 5701 H 525.184 0.058735 0.946179 0
M  V30 5702 H 524.89 -0.375614 3.49688 0
M  V30 5703 H 524.764 -2.08919 3.14058 0
M  V30 5704 H 527.151 -2.02014 2.15114 0
M  V30 5705 H 527.232 -0.296072 2.54081 0
M  V30 5706 H 526.876 -0.859295 5.00578 0
M  V30 5707 H 526.806 -2.58912 4.58554 0
M  V30 5708 H 529.297 -1.49595 3.4703 0
M  V30 5709 H 529.61 -2.47497 7.32096 0
M  V30 5710 H 527.955 -2.23239 6.58171 0
M  V30 5711 H 531.146 -1.77535 4.33127 0
M  V30 5712 H 531.319 -2.222 6.08713 0
M  V30 5713 N 524.725 -1.39134 -0.740242 0
M  V30 5714 C 525.657 -1.33332 -1.86428 0
M  V30 5715 C 526.67 -0.243042 -1.60976 0
M  V30 5716 O 527.859 -0.501608 -1.71307 0
M  V30 5717 C 524.959 -1.04626 -3.22346 0
M  V30 5718 C 524.132 -2.24826 -3.75196 0
M  V30 5719 C 523.191 -1.92659 -4.89662 0
M  V30 5720 O 522.217 -2.6529 -5.03597 0
M  V30 5721 N 523.419 -0.889575 -5.73643 0
M  V30 5722 H 526.184 -2.30196 -1.91911 0
M  V30 5723 H 523.745 -1.33168 -0.920756 0
M  V30 5724 H 525.737 -0.811347 -3.96484 0
M  V30 5725 H 524.307 -0.165129 -3.12164 0
M  V30 5726 H 523.527 -2.64301 -2.9247 0
M  V30 5727 H 524.815 -3.05015 -4.07239 0
M  V30 5728 H 524.213 -0.287529 -5.64969 0
M  V30 5729 H 522.77 -0.714557 -6.47871 0
M  V30 5730 N 526.204 0.969867 -1.24223 0
M  V30 5731 C 527.134 2.08191 -1.05729 0
M  V30 5732 C 528.115 1.70075 0.0290765 0
M  V30 5733 O 529.3 1.93712 -0.137583 0
M  V30 5734 C 526.43 3.40991 -0.658995 0
M  V30 5735 C 525.384 3.93054 -1.69389 0
M  V30 5736 C 524.71 5.22171 -1.15072 0
M  V30 5737 C 526.01 4.21137 -3.08935 0
M  V30 5738 H 527.704 2.23921 -1.98746 0
M  V30 5739 H 525.25 1.07602 -0.956967 0
M  V30 5740 H 527.203 4.18221 -0.51662 0
M  V30 5741 H 525.927 3.25155 0.30686 0
M  V30 5742 H 524.586 3.17977 -1.82444 0
M  V30 5743 H 524.234 5.02694 -0.175539 0
M  V30 5744 H 523.934 5.57973 -1.84229 0
M  V30 5745 H 525.458 6.02013 -1.02042 0
M  V30 5746 H 526.872 4.8908 -2.99121 0
M  V30 5747 H 525.269 4.68163 -3.75425 0
M  V30 5748 H 526.339 3.27996 -3.57137 0
M  V30 5749 N 527.682 1.05563 1.17022 0
M  V30 5750 C 528.93 0.76642 1.87004 0
M  V30 5751 C 529.251 -0.708854 1.8166 0
M  V30 5752 O 528.521 -1.51242 1.2451 0
M  V30 5753 H 527.101 0.280516 0.692329 0
M  V30 5754 H 529.763 1.33557 1.41945 0
M  V30 5755 H 528.859 1.08472 2.92644 0
M  V30 5756 N 529.16 -1.33526 0.837174 0
M  V30 5757 C 530.123 -2.27551 0.274421 0
M  V30 5758 C 531.123 -1.50886 -0.555881 0
M  V30 5759 O 532.313 -1.70227 -0.369918 0
M  V30 5760 C 529.445 -3.35332 -0.613605 0
M  V30 5761 H 530.638 -2.78837 1.10408 0
M  V30 5762 H 528.191 -1.439 0.610126 0
M  V30 5763 H 528.926 -2.89285 -1.46577 0
M  V30 5764 H 528.711 -3.92095 -0.0195341 0
M  V30 5765 H 530.201 -4.05433 -1.00068 0
M  V30 5766 N 530.638 -0.59345 -1.46 0
M  V30 5767 C 532.054 -0.255965 -1.57534 0
M  V30 5768 C 532.254 1.24167 -1.58697 0
M  V30 5769 O 531.31 2.02398 -1.50968 0
M  V30 5770 C 532.623 -0.91466 -2.86451 0
M  V30 5771 C 534.171 -0.889253 -3.00102 0
M  V30 5772 C 534.646 -1.52769 -4.3177 0
M  V30 5773 N 536.137 -1.49253 -4.38495 0
M  V30 5774 C 536.872 -1.9558 -5.39014 0
M  V30 5775 N 536.368 -2.49929 -6.46148 0
M  V30 5776 N 538.161 -1.86432 -5.30282 0
M  V30 5777 H 530.312 -1.56604 -1.43489 0
M  V30 5778 H 532.575 -0.655207 -0.685133 0
M  V30 5779 H 532.281 -1.96861 -2.91442 0
M  V30 5780 H 532.155 -0.429356 -3.74748 0
M  V30 5781 H 534.542 0.156111 -2.94687 0
M  V30 5782 H 534.623 -1.41268 -2.13253 0
M  V30 5783 H 534.267 -2.57231 -4.37944 0
M  V30 5784 H 534.197 -0.979398 -5.17412 0
M  V30 5785 H 536.688 -1.09536 -3.61677 0
M  V30 5786 H 537.001 -2.83109 -7.19075 0
M  V30 5787 H 535.346 -2.53961 -6.46938 0
M  V30 5788 H 538.537 -1.43722 -4.4549 0
M  V30 5789 H 538.71 -2.22852 -6.08474 0
M  V30 5790 N 532.116 1.54067 -0.331816 0
M  V30 5791 C 533.362 2.01012 0.268667 0
M  V30 5792 C 533.695 1.2195 1.51136 0
M  V30 5793 O 532.97 0.303972 1.9211 0
M  V30 5794 C 533.253 3.55158 0.59456 0
M  V30 5795 C 533.106 4.4494 -0.659409 0
M  V30 5796 C 534.425 4.16939 1.4089 0
M  V30 5797 H 531.544 0.730698 0.0961756 0
M  V30 5798 H 534.186 1.84593 -0.450031 0
M  V30 5799 H 532.336 3.6928 1.20685 0
M  V30 5800 H 534.008 4.42675 -1.29756 0
M  V30 5801 H 532.251 4.1428 -1.28665 0
M  V30 5802 H 532.922 5.50643 -0.386804 0
M  V30 5803 H 535.398 4.06443 0.891272 0
M  V30 5804 H 534.274 5.24889 1.60569 0
M  V30 5805 H 534.535 3.70798 2.40752 0
M  V30 5806 N 533.594 0.0601682 1.57485 0
M  V30 5807 C 534.819 -0.624416 1.97777 0
M  V30 5808 C 535.244 -1.63051 0.937867 0
M  V30 5809 O 534.602 -1.81036 -0.0978845 0
M  V30 5810 C 534.65 -1.27979 3.37126 0
M  V30 5811 O 533.754 -2.39556 3.35688 0
M  V30 5812 H 533.095 -0.161581 0.64404 0
M  V30 5813 H 535.625 0.131237 2.04179 0
M  V30 5814 H 535.635 -1.62937 3.74053 0
M  V30 5815 H 534.31 -0.542501 4.12347 0
M  V30 5816 H 532.887 -2.06478 3.10517 0
M  V30 5817 N 535.072 -1.5615 -0.213296 0
M  V30 5818 C 536.019 -1.93086 -1.26437 0
M  V30 5819 C 536.989 -0.789086 -1.4616 0
M  V30 5820 O 538.174 -1.04569 -1.59593 0
M  V30 5821 C 535.314 -2.26003 -2.608 0
M  V30 5822 C 534.427 -3.53156 -2.48807 0
M  V30 5823 C 533.562 -3.7548 -3.7575 0
M  V30 5824 C 532.601 -4.96119 -3.58514 0
M  V30 5825 N 531.738 -5.14791 -4.77425 0
M  V30 5826 H 536.578 -2.82707 -0.942376 0
M  V30 5827 H 534.115 -1.39919 -0.454001 0
M  V30 5828 H 536.073 -2.431 -3.39055 0
M  V30 5829 H 534.703 -1.39546 -2.91079 0
M  V30 5830 H 533.755 -3.44207 -1.61944 0
M  V30 5831 H 535.067 -4.41565 -2.31996 0
M  V30 5832 H 534.221 -3.92718 -4.62447 0
M  V30 5833 H 532.96 -2.85368 -3.95495 0
M  V30 5834 H 531.965 -4.78823 -2.70201 0
M  V30 5835 H 533.19 -5.87724 -3.40231 0
M  V30 5836 H 531.136 -4.27623 -4.97468 0
M  V30 5837 H 531.053 -5.97347 -4.63371 0
M  V30 5838 H 532.321 -5.36471 -5.65525 0
M  V30 5839 N 536.55 0.480323 -1.50102 0
M  V30 5840 C 537.46 1.60547 -1.71061 0
M  V30 5841 C 538.476 1.63564 -0.593529 0
M  V30 5842 O 539.652 1.81604 -0.870751 0
M  V30 5843 C 536.717 2.96814 -1.79171 0
M  V30 5844 C 535.778 3.04259 -3.02861 0
M  V30 5845 C 535.011 4.34027 -3.10574 0
M  V30 5846 O 535.234 5.24009 -2.25323 0
M  V30 5847 O 534.168 4.46873 -4.03223 0
M  V30 5848 H 537.994 1.45788 -2.6642 0
M  V30 5849 H 535.579 0.658838 -1.34088 0
M  V30 5850 H 537.461 3.77765 -1.86738 0
M  V30 5851 H 536.136 3.11791 -0.869947 0
M  V30 5852 H 535.043 2.22419 -3.008 0
M  V30 5853 H 536.376 2.94216 -3.94586 0
M  V30 5854 N 538.028 1.39524 0.732853 0
M  V30 5855 C 539.256 1.40143 1.52209 0
M  V30 5856 C 539.671 -0.00348836 1.888 0
M  V30 5857 O 539.028 -0.975357 1.5425 0
M  V30 5858 C 539.079 2.27632 2.8083 0
M  V30 5859 O 538.8 3.62654 2.45792 0
M  V30 5860 C 540.301 2.36658 3.74844 0
M  V30 5861 H 537.521 0.478604 0.470297 0
M  V30 5862 H 540.065 1.83366 0.905388 0
M  V30 5863 H 538.22 1.87818 3.38826 0
M  V30 5864 H 538.634 4.08941 3.28431 0
M  V30 5865 H 540.108 3.02118 4.61984 0
M  V30 5866 H 540.585 1.38638 4.16745 0
M  V30 5867 H 541.191 2.76951 3.22766 0
M  V30 5868 N 539.506 -0.963266 1.24736 0
M  V30 5869 C 540.917 -1.52145 1.08207 0
M  V30 5870 C 541.268 -1.93142 -0.345061 0
M  V30 5871 O 540.393 -1.77769 -1.23399 0
M  V30 5872 C 540.988 -2.76486 1.95808 0
M  V30 5873 C 539.547 -3.28646 1.8349 0
M  V30 5874 C 538.694 -2.01529 1.90476 0
M  V30 5875 H 541.645 -0.781083 1.38148 0
M  V30 5876 H 541.666 -3.49986 1.49297 0
M  V30 5877 H 541.178 -2.46617 2.99669 0
M  V30 5878 H 539.279 -3.63357 0.824787 0
M  V30 5879 H 539.392 -3.97246 2.67829 0
M  V30 5880 H 537.756 -2.16442 1.34258 0
M  V30 5881 H 538.539 -1.7402 2.95926 0
M  V30 5882 N 540.985 -1.06182 -1.16461 0
M  V30 5883 C 541.915 -0.692861 -2.22984 0
M  V30 5884 C 542.896 0.314122 -1.67174 0
M  V30 5885 O 544.081 0.189499 -1.93273 0
M  V30 5886 C 541.211 -0.07732 -3.47214 0
M  V30 5887 C 540.165 -1.01015 -4.15909 0
M  V30 5888 C 539.491 -0.257973 -5.34077 0
M  V30 5889 C 540.791 -2.33868 -4.67015 0
M  V30 5890 H 542.485 -1.58343 -2.54102 0
M  V30 5891 H 540.031 -0.76279 -1.22137 0
M  V30 5892 H 541.984 0.19266 -4.20959 0
M  V30 5893 H 540.708 0.848254 -3.15392 0
M  V30 5894 H 539.367 -1.26486 -3.44088 0
M  V30 5895 H 539.015 0.670684 -4.98509 0
M  V30 5896 H 538.715 -0.879638 -5.80979 0
M  V30 5897 H 540.239 0.00448788 -6.106 0
M  V30 5898 H 541.653 -2.1279 -5.32347 0
M  V30 5899 H 540.05 -2.91522 -5.24533 0
M  V30 5900 H 541.12 -2.97019 -3.83286 0
M  V30 5901 O 542.502 1.28464 -0.97874 0
M  V30 5902 H 543.193 1.83432 -0.622284 0
M  V30 END ATOM
M  V30 BEGIN BOND
M  V30 END BOND
M  V30 END CTAB
M  END
$$$$
