drugbank_target|P53848 Folic acid synthesis protein FOL1 (DB00634)
 OpenBabel12092120573D

  0  0  0     0  0            999 V3000
M  V30 BEGIN CTAB
M  V30 COUNTS 13159 13287 0 0 0
M  V30 BEGIN ATOM
M  V30 1 H -0.908 1.98254 -0.117106 0
M  V30 2 N 0 1.576 0 0
M  V30 3 C 0.933 2.03868 1.02534 0
M  V30 4 C 1.911 0.928543 1.3348 0
M  V30 5 O 3.095 1.19667 1.45644 0
M  V30 6 C 0.222 2.43627 2.35294 0
M  V30 7 C -0.732 3.65373 2.2001 0
M  V30 8 S 0.101 5.13292 1.52614 0
M  V30 9 C 1.257 5.56322 2.86805 0
M  V30 10 H 1.49 2.90518 0.631377 0
M  V30 11 H -0.977 1.52953 0.210867 0
M  V30 12 H 0.981 2.67203 3.11629 0
M  V30 13 H -0.358 1.57376 2.7183 0
M  V30 14 H -1.165 3.90944 3.18086 0
M  V30 15 H -1.563 3.418 1.51819 0
M  V30 16 H 0.729 5.58782 3.83104 0
M  V30 17 H 1.672 6.56266 2.65933 0
M  V30 18 H 2.08 4.83886 2.90714 0
M  V30 19 N 1.4781 -0.272755 1.55222 0
M  V30 20 C 2.7031 -1.02683 1.80197 0
M  V30 21 C 3.1281 -1.79142 0.573551 0
M  V30 22 O 2.4861 -1.74917 -0.476849 0
M  V30 23 C 2.5341 -1.9609 3.02624 0
M  V30 24 O 1.6381 -3.04863 2.77727 0
M  V30 25 H 0.9791 -0.293557 0.595584 0
M  V30 26 H 3.5091 -0.30159 2.02365 0
M  V30 27 H 3.5191 -2.38039 3.31363 0
M  V30 28 H 2.1941 -1.39851 3.91682 0
M  V30 29 H 0.7711 -2.67228 2.60084 0
M  V30 30 N 2.9562 -1.48159 -0.537278 0
M  V30 31 C 3.9032 -1.62138 -1.64256 0
M  V30 32 C 4.8732 -0.463668 -1.59497 0
M  V30 33 O 6.0582 -0.686241 -1.78032 0
M  V30 34 C 3.1982 -1.66028 -3.02537 0
M  V30 35 C 2.3112 -2.92855 -3.17585 0
M  V30 36 C 1.4462 -2.87952 -4.46382 0
M  V30 37 C 0.4852 -4.09516 -4.54932 0
M  V30 38 N -0.3778 -4.02733 -5.75109 0
M  V30 39 H 4.4622 -2.56529 -1.51647 0
M  V30 40 H 1.9992 -1.27224 -0.738414 0
M  V30 41 H 3.9572 -1.66265 -3.82638 0
M  V30 42 H 2.5872 -0.751331 -3.13934 0
M  V30 43 H 1.6392 -3.02395 -2.30784 0
M  V30 44 H 2.9512 -3.82822 -3.19764 0
M  V30 45 H 2.1052 -2.8655 -5.34765 0
M  V30 46 H 0.8442 -1.95702 -4.46712 0
M  V30 47 H -0.1508 -4.11201 -3.64957 0
M  V30 48 H 1.0742 -5.02917 -4.56346 0
M  V30 49 H -0.9798 -3.13299 -5.76351 0
M  V30 50 H -1.0628 -4.86397 -5.78752 0
M  V30 51 H 0.2052 -4.05379 -6.65799 0
M  V30 52 N 4.4343 0.785586 -1.36625 0
M  V30 53 C 5.3643 1.91259 -1.33949 0
M  V30 54 C 6.3453 1.68795 -0.210325 0
M  V30 55 O 7.5303 1.89854 -0.408561 0
M  V30 56 C 4.6603 3.28339 -1.13186 0
M  V30 57 C 3.6143 3.65335 -2.22967 0
M  V30 58 C 2.9403 5.00806 -1.87342 0
M  V30 59 C 4.2403 3.7352 -3.65075 0
M  V30 60 H 5.9343 1.93755 -2.28253 0
M  V30 61 H 3.4803 0.930788 -1.09874 0
M  V30 62 H 5.4333 4.06804 -1.09948 0
M  V30 63 H 4.1573 3.2624 -0.153332 0
M  V30 64 H 2.8163 2.89169 -2.25337 0
M  V30 65 H 2.4643 4.95233 -0.880545 0
M  V30 66 H 2.1643 5.26529 -2.60846 0
M  V30 67 H 3.6883 5.81687 -1.85667 0
M  V30 68 H 5.1023 4.42168 -3.64911 0
M  V30 69 H 3.4993 4.10731 -4.37516 0
M  V30 70 H 4.5693 2.74527 -3.99703 0
M  V30 71 N 5.9124 1.20967 1.01018 0
M  V30 72 C 7.1594 1.02374 1.74716 0
M  V30 73 C 7.4874 -0.443375 1.89379 0
M  V30 74 O 6.7424 -1.34535 1.42123 0
M  V30 75 C 7.0414 1.65997 3.16512 0
M  V30 76 C 6.7074 3.15831 3.2181 0
M  V30 77 C 5.3694 3.56719 3.22963 0
M  V30 78 C 7.7214 4.11816 3.19464 0
M  V30 79 C 5.0494 4.92107 3.19449 0
M  V30 80 C 7.4014 5.47158 3.17491 0
M  V30 81 C 6.0654 5.87451 3.16951 0
M  V30 82 H 5.3354 0.374614 0.639332 0
M  V30 83 H 7.9824 1.50485 1.18434 0
M  V30 84 H 6.2874 1.10166 3.75993 0
M  V30 85 H 7.9844 1.49119 3.72242 0
M  V30 86 H 4.5744 2.83263 3.21652 0
M  V30 87 H 8.7584 3.81257 3.17737 0
M  V30 88 H 4.0144 5.22579 3.17366 0
M  V30 89 H 8.1884 6.21274 3.14629 0
M  V30 90 H 5.8154 6.92329 3.13983 0
M  V30 91 N 7.3905 -1.2043 1.01659 0
M  V30 92 C 8.6155 -1.94318 0.724942 0
M  V30 93 C 9.0405 -1.74266 -0.708034 0
M  V30 94 O 8.3985 -1.03694 -1.48719 0
M  V30 95 C 8.4465 -3.44486 1.06591 0
M  V30 96 O 7.5505 -4.12017 0.177599 0
M  V30 97 H 6.8915 -0.60708 0.26898 0
M  V30 98 H 9.4215 -1.52861 1.35995 0
M  V30 99 H 9.4315 -3.95106 1.01762 0
M  V30 100 H 8.1065 -3.58404 2.10997 0
M  V30 101 H 6.6835 -3.71821 0.283421 0
M  V30 102 N 8.8686 -0.792821 -1.36206 0
M  V30 103 C 10.0966 -0.378825 -2.03402 0
M  V30 104 C 10.5116 1.00586 -1.59774 0
M  V30 105 O 9.8686 1.64574 -0.788764 0
M  V30 106 C 9.9196 -0.43683 -3.58851 0
M  V30 107 O 9.6406 -1.76691 -4.00889 0
M  V30 108 C 11.1416 -0.0138943 -4.43298 0
M  V30 109 H 8.3616 -0.155673 -0.652692 0
M  V30 110 H 10.9056 -1.07261 -1.74113 0
M  V30 111 H 9.0606 0.208575 -3.86838 0
M  V30 112 H 9.4746 -1.72011 -4.95492 0
M  V30 113 H 10.9486 -0.105615 -5.51899 0
M  V30 114 H 11.4256 1.03915 -4.2673 0
M  V30 115 H 12.0316 -0.63192 -4.20579 0
M  V30 116 N 10.3467 1.47872 -0.545128 0
M  V30 117 C 11.5927 2.02793 -0.0166104 0
M  V30 118 C 11.9257 1.41987 1.32489 0
M  V30 119 O 11.2007 0.571045 1.85928 0
M  V30 120 C 11.4837 3.59989 0.0893294 0
M  V30 121 C 11.3367 4.3125 -1.27841 0
M  V30 122 C 12.6557 4.32606 0.808724 0
M  V30 123 H 9.7747 0.736962 -0.00751035 0
M  V30 124 H 12.4167 1.76433 -0.705085 0
M  V30 125 H 10.5667 3.82579 0.675681 0
M  V30 126 H 12.2387 4.20035 -1.90704 0
M  V30 127 H 10.4817 3.92076 -1.85632 0
M  V30 128 H 11.1527 5.39736 -1.15713 0
M  V30 129 H 13.6287 4.14936 0.310992 0
M  V30 130 H 12.5047 5.42251 0.851782 0
M  V30 131 H 12.7657 4.00963 1.86229 0
M  V30 132 N 11.8248 0.280983 1.55075 0
M  V30 133 C 12.7728 -0.619864 2.24188 0
M  V30 134 C 13.7668 -1.15315 1.24092 0
M  V30 135 O 14.9728 -1.1061 1.42005 0
M  V30 136 H 11.3478 -0.218459 0.719569 0
M  V30 137 H 13.3188 -0.0141831 2.98397 0
M  V30 138 C 12.0678 -1.7899 2.98091 0
M  V30 139 H 11.3908 -1.38874 3.74905 0
M  V30 140 H 12.8308 -2.39672 3.49762 0
M  V30 141 C 11.2898 -2.68192 2.03899 0
M  V30 142 O 11.8198 -3.6872 1.594 0
M  V30 143 N 10.0258 -2.35488 1.70275 0
M  V30 144 H 9.5728 -1.53787 2.06658 0
M  V30 145 H 9.5308 -2.95442 1.07524 0
M  V30 146 N 13.3029 -1.57598 0.00835791 0
M  V30 147 C 14.5279 -1.95617 -0.689103 0
M  V30 148 C 14.9529 -0.883753 -1.66046 0
M  V30 149 O 14.3109 0.157352 -1.80616 0
M  V30 150 C 14.3589 -3.32736 -1.38994 0
M  V30 151 O 13.4629 -3.27631 -2.50463 0
M  V30 152 H 12.8039 -0.638379 -0.182668 0
M  V30 153 H 15.3339 -2.045 0.064036 0
M  V30 154 H 15.3439 -3.68494 -1.75147 0
M  V30 155 H 14.0189 -4.1034 -0.677778 0
M  V30 156 H 12.5959 -3.03561 -2.16576 0
M  V30 157 N 14.781 0.264519 -1.55364 0
M  V30 158 C 15.744 1.31046 -1.88042 0
M  V30 159 C 16.744 1.41943 -0.755569 0
M  V30 160 O 17.934 1.40947 -1.02369 0
M  V30 161 C 15.066 2.69067 -2.09323 0
M  V30 162 H 16.259 1.03297 -2.81549 0
M  V30 163 H 13.812 0.502989 -1.47986 0
M  V30 164 H 14.547 3.01982 -1.18226 0
M  V30 165 H 14.332 2.62542 -2.91229 0
M  V30 166 H 15.822 3.44623 -2.35848 0
M  V30 167 N 16.2591 1.48442 0.529413 0
M  V30 168 C 17.6751 1.34575 0.858004 0
M  V30 169 C 17.8751 0.3572 1.98309 0
M  V30 170 O 16.9311 -0.221379 2.51528 0
M  V30 171 C 18.2441 2.74617 1.22499 0
M  V30 172 C 19.7921 2.83109 1.33484 0
M  V30 173 C 20.2671 4.23854 1.73526 0
M  V30 174 N 21.7581 4.2653 1.80628 0
M  V30 175 C 22.4931 5.32372 2.12997 0
M  V30 176 N 21.9891 6.48491 2.43786 0
M  V30 177 N 23.7821 5.19766 2.14008 0
M  V30 178 H 15.9331 2.1133 -0.212925 0
M  V30 179 H 18.1961 0.947439 -0.0326199 0
M  V30 180 H 17.9021 3.4852 0.471905 0
M  V30 181 H 17.7761 3.08177 2.17501 0
M  V30 182 H 20.1631 2.09462 2.0787 0
M  V30 183 H 20.2441 2.53168 0.366027 0
M  V30 184 H 19.8881 4.98018 0.997013 0
M  V30 185 H 19.8181 4.5124 2.71459 0
M  V30 186 H 22.3091 3.42772 1.59108 0
M  V30 187 H 22.6221 7.24993 2.67592 0
M  V30 188 H 20.9671 6.51765 2.41304 0
M  V30 189 H 24.1581 4.28066 1.89412 0
M  V30 190 H 24.3311 6.02354 2.38902 0
M  V30 191 N 17.7372 -0.778329 1.37039 0
M  V30 192 C 18.6872 -1.88142 1.28789 0
M  V30 193 C 19.6712 -1.59923 0.177063 0
M  V30 194 O 20.8632 -1.72165 0.410873 0
M  V30 195 C 17.9922 -3.25518 1.09055 0
M  V30 196 C 17.0782 -3.5971 2.24654 0
M  V30 197 N 17.4692 -3.65131 3.50018 0
M  V30 198 C 15.7672 -3.89837 2.16663 0
M  V30 199 C 16.4682 -3.95882 4.26207 0
M  V30 200 N 15.4442 -4.11441 3.55271 0
M  V30 201 H 19.2462 -1.90575 2.23737 0
M  V30 202 H 16.7602 -0.974435 1.29917 0
M  V30 203 H 18.7572 -4.04423 1.0123 0
M  V30 204 H 17.4172 -3.24353 0.15018 0
M  V30 205 H 18.4282 -3.475 3.84011 0
M  V30 206 H 15.1052 -3.96533 1.30645 0
M  V30 207 H 16.4952 -4.06907 5.34674 0
M  V30 208 N 19.2153 -1.21501 -1.00376 0
M  V30 209 C 20.4403 -1.05977 -1.78279 0
M  V30 210 C 20.8653 0.385994 -1.84097 0
M  V30 211 O 20.2233 1.27849 -1.28547 0
M  V30 212 C 20.2713 -1.66302 -3.19963 0
M  V30 213 O 19.3753 -0.909333 -4.0225 0
M  V30 214 H 18.7163 -0.372906 -0.549397 0
M  V30 215 H 21.2463 -1.6107 -1.26165 0
M  V30 216 H 21.2563 -1.70574 -3.70632 0
M  V30 217 H 19.9313 -2.71515 -3.15043 0
M  V30 218 H 18.5083 -0.941795 -3.60811 0
M  V30 219 N 20.6934 1.19889 -1.02296 0
M  V30 220 C 21.9394 1.89701 -0.717033 0
M  V30 221 C 22.2724 1.7905 0.751989 0
M  V30 222 O 21.5474 1.17891 1.547 0
M  V30 223 C 21.8304 3.40858 -1.16136 0
M  V30 224 C 21.6834 3.60411 -2.69117 0
M  V30 225 C 23.0024 4.33876 -0.737549 0
M  V30 226 H 20.1214 0.688874 -0.261957 0
M  V30 227 H 22.7634 1.41154 -1.27183 0
M  V30 228 H 20.9134 3.82335 -0.689342 0
M  V30 229 H 22.5854 3.28145 -3.2422 0
M  V30 230 H 20.8284 3.03665 -3.0979 0
M  V30 231 H 21.4994 4.66396 -2.95261 0
M  V30 232 H 23.9754 4.00081 -1.14344 0
M  V30 233 H 22.8514 5.38242 -1.0764 0
M  V30 234 H 23.1124 4.40628 0.360436 0
M  V30 235 N 22.1715 0.800033 1.35784 0
M  V30 236 C 23.5825 0.439142 1.81462 0
M  V30 237 C 23.9335 -1.03813 1.66485 0
M  V30 238 O 23.0585 -1.80626 1.19177 0
M  V30 239 C 23.6535 0.790314 3.29453 0
M  V30 240 C 22.2125 0.482111 3.733 0
M  V30 241 C 21.3595 1.01938 2.57883 0
M  V30 242 H 24.3105 0.992254 1.23855 0
M  V30 243 H 24.3315 0.0853677 3.80404 0
M  V30 244 H 23.8435 1.86554 3.40322 0
M  V30 245 H 21.9445 -0.584652 3.67984 0
M  V30 246 H 22.0575 1.01015 4.6833 0
M  V30 247 H 20.4215 0.442043 2.50835 0
M  V30 248 H 21.2045 2.10059 2.71533 0
M  V30 249 N 23.6496 -1.47581 0.552962 0
M  V30 250 C 24.5796 -2.32762 -0.185451 0
M  V30 251 C 25.5606 -1.43527 -0.912905 0
M  V30 252 O 26.7456 -1.72388 -0.894201 0
M  V30 253 C 23.8756 -3.25219 -1.21859 0
M  V30 254 C 22.8296 -4.23661 -0.607864 0
M  V30 255 C 22.1556 -5.05413 -1.74533 0
M  V30 256 C 23.4556 -5.20481 0.435582 0
M  V30 257 H 25.1496 -2.94749 0.525684 0
M  V30 258 H 22.6956 -1.41738 0.254251 0
M  V30 259 H 24.6486 -3.8365 -1.7433 0
M  V30 260 H 23.3726 -2.61279 -1.95961 0
M  V30 261 H 22.0316 -3.66451 -0.104489 0
M  V30 262 H 21.6796 -4.3788 -2.47529 0
M  V30 263 H 21.3796 -5.72059 -1.34249 0
M  V30 264 H 22.9036 -5.66701 -2.27338 0
M  V30 265 H 24.3176 -5.733 -0.00290157 0
M  V30 266 H 22.7146 -5.95305 0.757067 0
M  V30 267 H 23.7846 -4.66217 1.33303 0
M  V30 268 N 25.1277 -0.289203 -1.54924 0
M  V30 269 C 26.3757 0.322879 -1.99504 0
M  V30 270 C 26.6967 1.55313 -1.1791 0
M  V30 271 O 25.9667 1.94001 -0.272097 0
M  V30 272 H 24.5467 0.122291 -0.736922 0
M  V30 273 H 27.2087 -0.397802 -1.90797 0
M  V30 274 H 26.3047 0.603061 -3.06218 0
M  V30 275 N 26.6058 1.57591 -0.0167156 0
M  V30 276 C 27.8538 1.90906 0.663285 0
M  V30 277 C 28.1748 0.892509 1.73376 0
M  V30 278 O 27.4448 -0.0677623 1.95783 0
M  V30 279 H 26.0248 0.704637 0.247983 0
M  V30 280 H 28.6868 1.94803 -0.0615909 0
M  V30 281 H 27.7828 2.9116 1.12393 0
M  V30 282 N 28.0839 -0.256276 1.55502 0
M  V30 283 C 29.0169 -1.34321 1.84481 0
M  V30 284 C 29.9949 -1.46802 0.699131 0
M  V30 285 O 31.1789 -1.63165 0.943904 0
M  V30 286 C 28.3059 -2.71779 2.02123 0
M  V30 287 C 27.3519 -2.76496 3.24734 0
M  V30 288 S 28.1849 -2.3405 4.81644 0
M  V30 289 C 29.3409 -3.73452 5.02279 0
M  V30 290 H 29.5739 -1.09539 2.76385 0
M  V30 291 H 27.1069 -0.45678 1.47489 0
M  V30 292 H 29.0649 -3.50932 2.12972 0
M  V30 293 H 27.7259 -2.93803 1.11078 0
M  V30 294 H 26.9189 -3.77424 3.34016 0
M  V30 295 H 26.5209 -2.05379 3.12563 0
M  V30 296 H 28.8129 -4.6887 4.89047 0
M  V30 297 H 29.7559 -3.6911 6.04287 0
M  V30 298 H 30.1639 -3.6553 4.30172 0
M  V30 299 N 29.562 -1.4872 -0.521534 0
M  V30 300 C 30.978 -1.35028 -0.850855 0
M  V30 301 C 31.178 -0.367712 -1.98116 0
M  V30 302 O 30.234 0.208037 -2.51642 0
M  V30 303 C 31.547 -2.75263 -1.21041 0
M  V30 304 C 33.095 -2.83813 -1.31981 0
M  V30 305 C 33.57 -4.24769 -1.71276 0
M  V30 306 N 35.061 -4.27482 -1.78363 0
M  V30 307 C 35.796 -5.33494 -2.1017 0
M  V30 308 N 35.292 -6.49775 -2.40343 0
M  V30 309 N 37.085 -5.20894 -2.11248 0
M  V30 310 H 29.236 -2.11214 0.22413 0
M  V30 311 H 31.499 -0.947252 0.0376439 0
M  V30 312 H 31.205 -3.48765 -0.453415 0
M  V30 313 H 31.079 -3.09327 -2.15863 0
M  V30 314 H 33.466 -2.10561 -2.06756 0
M  V30 315 H 33.547 -2.53358 -0.352596 0
M  V30 316 H 33.191 -4.9854 -0.970588 0
M  V30 317 H 33.121 -4.52673 -2.69062 0
M  V30 318 H 35.612 -3.43611 -1.57288 0
M  V30 319 H 35.925 -7.26402 -2.63743 0
M  V30 320 H 34.27 -6.53035 -2.37844 0
M  V30 321 H 37.461 -4.29065 -1.87139 0
M  V30 322 H 37.634 -6.03612 -2.35704 0
M  V30 323 N 31.0401 0.771051 -1.3745 0
M  V30 324 C 32.3171 1.519 -1.23231 0
M  V30 325 C 32.6971 2.10383 0.173809 0
M  V30 326 O 32.0451 1.95583 1.18151 0
M  V30 327 C 32.2551 2.59933 -2.32886 0
M  V30 328 C 33.6031 3.27316 -2.70461 0
M  V30 329 O 34.6271 2.70228 -2.32068 0
M  V30 330 O 33.4861 4.30531 -3.36608 0
M  V30 331 H 30.5801 0.672803 -0.480901 0
M  V30 332 H 33.1261 0.807957 -1.49232 0
M  V30 333 H 31.8981 2.14842 -3.27045 0
M  V30 334 H 31.5211 3.38637 -2.08353 0
M  V30 335 N 32.5182 1.22032 0.997298 0
M  V30 336 C 33.7482 1.06686 1.76923 0
M  V30 337 C 34.1562 -0.385838 1.85224 0
M  V30 338 O 33.4992 -1.27929 1.31833 0
M  V30 339 C 33.5612 1.59802 3.22031 0
M  V30 340 C 33.2252 3.08362 3.37286 0
M  V30 341 C 34.2222 4.05835 3.24952 0
M  V30 342 C 31.9072 3.47727 3.6248 0
M  V30 343 C 33.9012 5.4066 3.37588 0
M  V30 344 C 31.5882 4.82701 3.74757 0
M  V30 345 C 32.5862 5.78977 3.62319 0
M  V30 346 O 32.2742 7.11502 3.74193 0
M  V30 347 H 32.0062 0.374767 0.562606 0
M  V30 348 H 34.5602 1.61991 1.26286 0
M  V30 349 H 32.7902 0.989003 3.73839 0
M  V30 350 H 34.4792 1.40184 3.80924 0
M  V30 351 H 35.2452 3.76766 3.05405 0
M  V30 352 H 31.1242 2.73317 3.7124 0
M  V30 353 H 34.6682 6.15788 3.27796 0
M  V30 354 H 30.5652 5.11453 3.9381 0
M  V30 355 H 31.3332 7.19019 3.91093 0
M  V30 356 N 33.9963 -1.19345 1.0293 0
M  V30 357 C 35.2423 -1.89318 0.727083 0
M  V30 358 C 35.5753 -1.79446 -0.742483 0
M  V30 359 O 34.8503 -1.1871 -1.54072 0
M  V30 360 C 35.1333 -3.40238 1.17942 0
M  V30 361 C 34.9863 -3.58979 2.71024 0
M  V30 362 C 36.3053 -4.33479 0.760548 0
M  V30 363 H 33.4243 -0.687475 0.265606 0
M  V30 364 H 36.0663 -1.40477 1.2793 0
M  V30 365 H 34.2163 -3.81964 0.709608 0
M  V30 366 H 35.8883 -3.26421 3.25955 0
M  V30 367 H 34.1313 -3.02018 3.11396 0
M  V30 368 H 34.8023 -4.64823 2.9773 0
M  V30 369 H 37.2783 -3.99469 1.16464 0
M  V30 370 H 36.1543 -5.37664 1.10493 0
M  V30 371 H 36.4153 -4.40813 -0.337063 0
M  V30 372 N 35.4744 -0.807222 -1.35358 0
M  V30 373 C 36.4244 -0.190706 -2.27201 0
M  V30 374 C 37.4084 0.635838 -1.47804 0
M  V30 375 O 38.6004 0.492991 -1.69996 0
M  V30 376 C 35.7294 0.659337 -3.36909 0
M  V30 377 C 34.8154 -0.176971 -4.23731 0
M  V30 378 N 35.2064 -1.24029 -4.90357 0
M  V30 379 C 33.5044 0.0412953 -4.45981 0
M  V30 380 C 34.2054 -1.75092 -5.54723 0
M  V30 381 N 33.1814 -1.05727 -5.33219 0
M  V30 382 H 36.9834 -1.0043 -2.76208 0
M  V30 383 H 34.4974 -0.648445 -1.48892 0
M  V30 384 H 36.4944 1.11706 -4.01656 0
M  V30 385 H 35.1544 1.47127 -2.89454 0
M  V30 386 H 36.1654 -1.62295 -4.91814 0
M  V30 387 H 32.8424 0.82232 -4.09322 0
M  V30 388 H 34.2324 -2.63963 -6.17878 0
M  V30 389 N 36.9525 1.47285 -0.560781 0
M  V30 390 C 38.2015 2.01668 -0.035895 0
M  V30 391 C 38.5145 1.44021 1.32353 0
M  V30 392 O 39.7205 1.90088 1.93853 0
M  V30 393 C 38.1765 3.59897 -0.0136659 0
M  V30 394 C 37.7845 4.26536 -1.37006 0
M  V30 395 C 39.5285 4.22017 0.458425 0
M  V30 396 C 37.4355 5.76782 -1.30675 0
M  V30 397 H 36.3655 0.753938 -0.00964879 0
M  V30 398 H 39.0165 1.69243 -0.709166 0
M  V30 399 H 37.3985 3.89301 0.725325 0
M  V30 400 H 38.5725 4.0877 -2.12705 0
M  V30 401 H 36.8875 3.76419 -1.78038 0
M  V30 402 H 39.4845 5.32124 0.524247 0
M  V30 403 H 39.8275 3.89437 1.4712 0
M  V30 404 H 40.3605 3.97159 -0.225818 0
M  V30 405 H 37.0995 6.13988 -2.29564 0
M  V30 406 H 36.6195 5.96875 -0.591622 0
M  V30 407 H 38.2985 6.39063 -1.01033 0
M  V30 408 N 38.4306 0.297415 1.54768 0
M  V30 409 C 39.3776 -0.580276 2.23386 0
M  V30 410 C 40.3476 -1.13238 1.21517 0
M  V30 411 O 41.5326 -1.17757 1.50126 0
M  V30 412 C 38.6726 -1.74801 2.97555 0
M  V30 413 C 37.7856 -1.22764 4.1419 0
M  V30 414 C 36.9206 -2.35895 4.75949 0
M  V30 415 C 35.9596 -1.80974 5.84735 0
M  V30 416 N 35.0966 -2.87664 6.40464 0
M  V30 417 H 39.9366 0.0114833 2.97998 0
M  V30 418 H 37.4736 0.0174361 1.4709 0
M  V30 419 H 39.4316 -2.43475 3.38786 0
M  V30 420 H 38.0616 -2.31145 2.25326 0
M  V30 421 H 37.1136 -0.433271 3.77924 0
M  V30 422 H 38.4256 -0.785551 4.92575 0
M  V30 423 H 37.5796 -3.12523 5.20014 0
M  V30 424 H 36.3186 -2.83429 3.96887 0
M  V30 425 H 35.3236 -1.02834 5.40097 0
M  V30 426 H 36.5486 -1.34348 6.65678 0
M  V30 427 H 34.4946 -3.34538 5.64287 0
M  V30 428 H 34.4116 -2.4794 7.14186 0
M  V30 429 H 35.6796 -3.642 6.89187 0
M  V30 430 N 39.9087 -1.5758 0.0250728 0
M  V30 431 C 40.8557 -2.09973 -0.958129 0
M  V30 432 C 41.8257 -1.00085 -1.3256 0
M  V30 433 O 43.0107 -1.27481 -1.41962 0
M  V30 434 C 40.1507 -2.62812 -2.2366 0
M  V30 435 C 39.2637 -3.86693 -1.92594 0
M  V30 436 C 38.3987 -4.27941 -3.14707 0
M  V30 437 C 37.4377 -5.44591 -2.79442 0
M  V30 438 N 36.5747 -5.81014 -3.94167 0
M  V30 439 H 41.4147 -2.937 -0.504428 0
M  V30 440 H 38.9517 -1.45172 -0.237392 0
M  V30 441 H 40.9097 -2.91536 -2.98434 0
M  V30 442 H 39.5397 -1.81922 -2.66654 0
M  V30 443 H 38.5917 -3.64723 -1.0808 0
M  V30 444 H 39.9037 -4.71547 -1.62619 0
M  V30 445 H 39.0577 -4.58079 -3.97804 0
M  V30 446 H 37.7967 -3.41845 -3.4784 0
M  V30 447 H 36.8017 -5.1415 -1.94755 0
M  V30 448 H 38.0267 -6.32382 -2.47528 0
M  V30 449 H 35.9727 -4.97874 -4.2715 0
M  V30 450 H 35.8897 -6.60498 -3.67801 0
M  V30 451 H 37.1577 -6.15756 -4.7798 0
M  V30 452 N 41.3868 0.248026 -1.55636 0
M  V30 453 C 42.3168 1.31079 -1.93237 0
M  V30 454 C 43.2978 1.50264 -0.797174 0
M  V30 455 O 44.4828 1.62891 -1.05737 0
M  V30 456 C 41.6128 2.66575 -2.22609 0
M  V30 457 C 40.5668 2.62087 -3.3837 0
M  V30 458 C 39.8928 4.01369 -3.53281 0
M  V30 459 C 41.1928 2.19171 -4.7409 0
M  V30 460 H 42.8868 0.998556 -2.82257 0
M  V30 461 H 40.4328 0.47891 -1.35803 0
M  V30 462 H 42.3858 3.41057 -2.47503 0
M  V30 463 H 41.1098 2.99432 -1.30414 0
M  V30 464 H 39.7688 1.90063 -3.13483 0
M  V30 465 H 39.4168 4.31489 -2.58508 0
M  V30 466 H 39.1168 3.99254 -4.31127 0
M  V30 467 H 40.6408 4.77552 -3.80495 0
M  V30 468 H 42.0548 2.83384 -4.98363 0
M  V30 469 H 40.4518 2.2817 -5.5503 0
M  V30 470 H 41.5218 1.14336 -4.71227 0
M  V30 471 N 42.8649 1.48995 0.513639 0
M  V30 472 C 43.7749 1.67443 1.64317 0
M  V30 473 C 44.7909 0.556947 1.64846 0
M  V30 474 O 45.9669 0.830082 1.83498 0
M  V30 475 C 43.0319 1.72515 3.00732 0
M  V30 476 C 42.0929 2.96009 3.1093 0
M  V30 477 C 41.3259 3.00829 4.40837 0
M  V30 478 O 41.5489 2.13594 5.28898 0
M  V30 479 O 40.4829 3.93168 4.55744 0
M  V30 480 H 44.3089 2.63106 1.51687 0
M  V30 481 H 41.8939 1.32588 0.688543 0
M  V30 482 H 43.7759 1.78277 3.81831 0
M  V30 483 H 42.4509 0.800278 3.13651 0
M  V30 484 H 41.3579 2.9577 2.29065 0
M  V30 485 H 42.6909 3.87934 3.02933 0
M  V30 486 N 44.343 -0.763751 1.37857 0
M  V30 487 C 45.276 -1.88486 1.28639 0
M  V30 488 C 46.254 -1.61757 0.165363 0
M  V30 489 O 47.438 -1.85391 0.340948 0
M  V30 490 C 44.565 -3.23884 0.990811 0
M  V30 491 C 43.611 -3.69514 2.12983 0
M  V30 492 S 44.444 -3.82244 3.75033 0
M  V30 493 C 45.6 -5.20477 3.47641 0
M  V30 494 H 45.833 -1.96017 2.23527 0
M  V30 495 H 43.366 -0.925684 1.23574 0
M  V30 496 H 45.324 -4.02081 0.827101 0
M  V30 497 H 43.985 -3.14044 0.0592832 0
M  V30 498 H 43.178 -4.67696 1.87821 0
M  V30 499 H 42.78 -2.98441 2.25408 0
M  V30 500 H 45.072 -6.05905 3.03125 0
M  V30 501 H 46.015 -5.50655 4.4518 0
M  V30 502 H 46.423 -4.88793 2.82385 0
M  V30 503 N 45.8211 -1.22559 -0.990812 0
M  V30 504 C 46.7691 -0.994798 -2.10253 0
M  V30 505 C 47.7631 0.0627798 -1.69284 0
M  V30 506 O 48.9691 -0.0898392 -1.79776 0
M  V30 507 H 45.3441 -0.304527 -0.687581 0
M  V30 508 H 47.3151 -1.93812 -2.26891 0
M  V30 509 C 46.0641 -0.591439 -3.42633 0
M  V30 510 H 45.3871 -1.3969 -3.74602 0
M  V30 511 H 46.8271 -0.469385 -4.21394 0
M  V30 512 C 45.2861 0.699232 -3.29564 0
M  V30 513 O 45.8161 1.75112 -3.61523 0
M  V30 514 N 44.0221 0.671182 -2.82743 0
M  V30 515 H 43.5691 -0.185136 -2.56934 0
M  V30 516 H 43.5271 1.53502 -2.7438 0
M  V30 517 N 47.2992 1.18797 -1.03562 0
M  V30 518 C 48.5272 1.92599 -0.755869 0
M  V30 519 C 48.9422 1.75886 0.686271 0
M  V30 520 O 48.2992 1.08517 1.46732 0
M  V30 521 C 48.3502 3.44159 -1.10619 0
M  V30 522 O 48.0712 3.60341 -2.4917 0
M  V30 523 C 49.5722 4.3507 -0.850214 0
M  V30 524 H 46.7922 0.611587 -0.276048 0
M  V30 525 H 49.3362 1.50742 -1.38192 0
M  V30 526 H 47.4912 3.83823 -0.525194 0
M  V30 527 H 47.9052 4.54128 -2.62427 0
M  V30 528 H 49.3792 5.39989 -1.14523 0
M  V30 529 H 49.8562 4.38673 0.215176 0
M  V30 530 H 50.4622 4.01097 -1.41426 0
M  V30 531 N 48.7773 0.814389 1.34928 0
M  V30 532 C 50.0233 0.399013 1.98836 0
M  V30 533 C 50.3563 -1.03314 1.64438 0
M  V30 534 O 49.6313 -1.71811 0.911659 0
M  V30 535 C 49.9143 0.591629 3.55207 0
M  V30 536 C 49.7673 2.06928 3.99376 0
M  V30 537 C 51.0863 0.022199 4.40094 0
M  V30 538 H 48.2053 0.146451 0.722303 0
M  V30 539 H 50.8473 1.02537 1.59957 0
M  V30 540 H 48.9973 0.0584441 3.88456 0
M  V30 541 H 50.6693 2.66544 3.76499 0
M  V30 542 H 48.9123 2.56287 3.49999 0
M  V30 543 H 49.5833 2.1549 5.08201 0
M  V30 544 H 52.0593 0.477643 4.13349 0
M  V30 545 H 50.9353 0.186832 5.48582 0
M  V30 546 H 51.1963 -1.07215 4.28902 0
M  V30 547 N 50.2554 -1.46986 0.568584 0
M  V30 548 C 51.1854 -2.32946 -0.160753 0
M  V30 549 C 52.1664 -1.44487 -0.897631 0
M  V30 550 O 53.3514 -1.73327 -0.875867 0
M  V30 551 C 50.4814 -3.26494 -1.18403 0
M  V30 552 C 49.4354 -4.24282 -0.562895 0
M  V30 553 C 48.7614 -5.07236 -1.69163 0
M  V30 554 C 50.0614 -5.19989 0.490761 0
M  V30 555 H 51.7554 -2.94175 0.556916 0
M  V30 556 H 49.3014 -1.4146 0.26927 0
M  V30 557 H 51.2544 -3.85477 -1.70251 0
M  V30 558 H 49.9784 -2.63343 -1.93179 0
M  V30 559 H 48.6374 -3.66541 -0.0656164 0
M  V30 560 H 48.2854 -4.4048 -2.42871 0
M  V30 561 H 47.9854 -5.7345 -1.28174 0
M  V30 562 H 49.5094 -5.6908 -2.21314 0
M  V30 563 H 50.9234 -5.73271 0.0579047 0
M  V30 564 H 49.3204 -5.94469 0.820165 0
M  V30 565 H 50.3904 -4.64777 1.3824 0
M  V30 566 N 51.7335 -0.305618 -1.54608 0
M  V30 567 C 52.9815 0.301701 -1.99835 0
M  V30 568 C 53.3025 1.54054 -1.19551 0
M  V30 569 O 52.5725 1.93702 -0.292658 0
M  V30 570 H 51.1525 0.114468 -0.738178 0
M  V30 571 H 53.8145 -0.418016 -1.90364 0
M  V30 572 H 52.9105 0.570548 -3.06841 0
M  V30 573 N 53.2116 1.57565 -0.0334293 0
M  V30 574 C 54.6226 1.79746 0.504798 0
M  V30 575 C 54.9736 0.944091 1.71992 0
M  V30 576 O 54.0986 0.155694 2.15839 0
M  V30 577 C 54.6936 3.25997 0.922567 0
M  V30 578 C 53.2526 3.49159 1.40588 0
M  V30 579 C 52.3996 2.74785 0.372633 0
M  V30 580 H 55.3506 1.56565 -0.259436 0
M  V30 581 H 55.3716 3.35945 1.78666 0
M  V30 582 H 54.8836 3.88081 0.0379825 0
M  V30 583 H 52.9846 2.92332 2.31025 0
M  V30 584 H 53.0976 4.57873 1.41028 0
M  V30 585 H 51.4616 2.40391 0.841672 0
M  V30 586 H 52.2446 3.39587 -0.503559 0
M  V30 587 N 54.6897 -0.239769 1.55765 0
M  V30 588 C 55.9667 -0.990056 1.68693 0
M  V30 589 C 56.3467 -2.03107 0.5754 0
M  V30 590 O 55.6947 -2.24604 -0.42017 0
M  V30 591 C 55.9047 -1.61696 3.09282 0
M  V30 592 C 57.2527 -2.11613 3.6811 0
M  V30 593 O 58.2767 -1.71624 3.12127 0
M  V30 594 O 57.1357 -2.85057 4.66267 0
M  V30 595 H 54.2297 -0.461299 0.686391 0
M  V30 596 H 56.7757 -0.232991 1.68093 0
M  V30 597 H 55.5477 -0.864357 3.81634 0
M  V30 598 H 55.1707 -2.44005 3.13923 0
M  V30 599 N 56.1678 -1.49265 -0.50573 0
M  V30 600 C 57.3928 -1.62478 -1.28902 0
M  V30 601 C 57.8178 -0.294332 -1.85783 0
M  V30 602 O 57.1758 0.737412 -1.65626 0
M  V30 603 C 57.2238 -2.69268 -2.39848 0
M  V30 604 O 56.3278 -2.28113 -3.43567 0
M  V30 605 H 55.6688 -0.54399 -0.380751 0
M  V30 606 H 58.1988 -1.95421 -0.605952 0
M  V30 607 H 58.2088 -2.91291 -2.85681 0
M  V30 608 H 56.8838 -3.65846 -1.97812 0
M  V30 609 H 55.4608 -2.16401 -3.03685 0
M  V30 610 N 57.6459 0.756429 -1.3826 0
M  V30 611 C 58.8919 1.5168 -1.35517 0
M  V30 612 C 59.2469 1.9232 0.0554451 0
M  V30 613 O 58.5399 1.62352 1.01746 0
M  V30 614 C 58.7339 2.78313 -2.24224 0
M  V30 615 C 58.5629 2.50053 -3.7377 0
M  V30 616 C 57.3329 2.43414 -4.42807 0
M  V30 617 C 59.5309 2.1702 -4.66269 0
M  V30 618 N 57.5129 2.07398 -5.77805 0
M  V30 619 C 58.8839 1.91271 -5.89759 0
M  V30 620 C 60.9389 2.03305 -4.54501 0
M  V30 621 C 59.6419 1.53192 -7.02798 0
M  V30 622 C 61.6679 1.66627 -5.67441 0
M  V30 623 C 61.0299 1.4175 -6.8999 0
M  V30 624 H 57.1289 0.554735 -0.551174 0
M  V30 625 H 59.7129 0.881106 -1.73622 0
M  V30 626 H 57.8839 3.39696 -1.88311 0
M  V30 627 H 59.6159 3.44343 -2.12627 0
M  V30 628 H 56.3709 2.59789 -3.95988 0
M  V30 629 H 56.7949 1.92044 -6.4919 0
M  V30 630 H 61.4369 2.21215 -3.60311 0
M  V30 631 H 59.1549 1.34022 -7.96909 0
M  V30 632 H 62.7409 1.56652 -5.60314 0
M  V30 633 H 61.6209 1.1379 -7.759 0
M  V30 634 N 59.124 1.23083 0.984299 0
M  V30 635 C 60.072 1.00593 2.09723 0
M  V30 636 C 61.066 -0.0538014 1.69315 0
M  V30 637 O 62.272 0.0993719 1.79725 0
M  V30 638 H 58.647 0.30817 0.685956 0
M  V30 639 H 60.618 1.95012 2.2586 0
M  V30 640 C 59.367 0.609601 3.42314 0
M  V30 641 H 58.69 1.41675 3.73856 0
M  V30 642 H 60.13 0.491726 4.21139 0
M  V30 643 C 58.589 -0.681745 3.2993 0
M  V30 644 O 59.119 -1.73192 3.62446 0
M  V30 645 N 57.325 -0.656178 2.83095 0
M  V30 646 H 56.872 0.198759 2.56832 0
M  V30 647 H 56.83 -1.52044 2.75191 0
M  V30 648 N 60.6021 -1.18246 1.0419 0
M  V30 649 C 61.5341 -2.2142 0.592088 0
M  V30 650 C 62.5471 -1.59233 -0.338909 0
M  V30 651 O 63.7361 -1.78002 -0.133231 0
M  V30 652 C 60.8361 -3.38546 -0.154854 0
M  V30 653 C 60.0091 -4.3031 0.784328 0
M  V30 654 C 59.0681 -5.26138 0.0804583 0
M  V30 655 O 58.0941 -5.64738 0.711292 0
M  V30 656 N 59.2961 -5.68261 -1.18574 0
M  V30 657 H 62.0611 -2.60636 1.47949 0
M  V30 658 H 59.6221 -1.33044 0.922544 0
M  V30 659 H 61.6141 -3.99678 -0.635606 0
M  V30 660 H 60.1841 -2.98012 -0.943811 0
M  V30 661 H 59.4041 -3.66764 1.44491 0
M  V30 662 H 60.6921 -4.8852 1.42218 0
M  V30 663 H 60.0901 -5.38957 -1.71876 0
M  V30 664 H 58.6471 -6.31584 -1.61074 0
M  V30 665 N 62.0802 -0.821533 -1.34494 0
M  V30 666 C 63.0102 -0.257138 -2.3208 0
M  V30 667 C 63.9912 0.625645 -1.58176 0
M  V30 668 O 65.1762 0.552811 -1.86166 0
M  V30 669 C 62.3062 0.582958 -3.42372 0
M  V30 670 C 61.2602 -0.202571 -4.2752 0
M  V30 671 C 60.5862 0.760179 -5.29269 0
M  V30 672 C 61.8862 -1.40998 -5.02908 0
M  V30 673 H 63.5802 -1.07247 -2.79532 0
M  V30 674 H 61.1262 -0.517163 -1.34393 0
M  V30 675 H 63.0792 0.987972 -4.09655 0
M  V30 676 H 61.8032 1.43133 -2.93565 0
M  V30 677 H 60.4622 -0.588936 -3.61838 0
M  V30 678 H 60.1102 1.60447 -4.76724 0
M  V30 679 H 59.8102 0.238809 -5.87115 0
M  V30 680 H 61.3342 1.16308 -5.9942 0
M  V30 681 H 62.7482 -1.07905 -5.63054 0
M  V30 682 H 61.1452 -1.86689 -5.70322 0
M  V30 683 H 62.2152 -2.1889 -4.32684 0
M  V30 684 N 63.5583 1.46682 -0.576371 0
M  V30 685 C 64.4913 2.27243 0.208731 0
M  V30 686 C 65.4693 1.35238 0.902746 0
M  V30 687 O 66.6533 1.64641 0.917904 0
M  V30 688 C 63.7803 3.12802 1.29896 0
M  V30 689 C 62.8263 4.20524 0.711457 0
M  V30 690 S 63.6593 5.33548 -0.456781 0
M  V30 691 C 64.8153 6.22673 0.634798 0
M  V30 692 H 65.0483 2.93484 -0.474838 0
M  V30 693 H 62.5813 1.50069 -0.363118 0
M  V30 694 H 64.5393 3.62661 1.92321 0
M  V30 695 H 63.2003 2.45887 1.95444 0
M  V30 696 H 62.3933 4.80191 1.53076 0
M  V30 697 H 61.9953 3.73645 0.162999 0
M  V30 698 H 64.2873 6.60181 1.52209 0
M  V30 699 H 65.2303 7.0806 0.0750311 0
M  V30 700 H 65.6383 5.56684 0.936092 0
M  V30 701 N 65.0364 0.313813 1.54444 0
M  V30 702 C 66.4474 -0.176243 1.85866 0
M  V30 703 C 66.7984 -1.52405 1.23561 0
M  V30 704 O 65.9234 -2.09605 0.538016 0
M  V30 705 C 66.5184 -0.32657 3.37222 0
M  V30 706 C 65.0774 -0.760846 3.6863 0
M  V30 707 C 64.2244 0.123247 2.77026 0
M  V30 708 H 67.1754 0.534418 1.49431 0
M  V30 709 H 67.1964 -1.15908 3.62416 0
M  V30 710 H 66.7084 0.654531 3.82541 0
M  V30 711 H 64.8094 -1.75204 3.28838 0
M  V30 712 H 64.9224 -0.571353 4.75681 0
M  V30 713 H 63.2864 -0.399597 2.51546 0
M  V30 714 H 64.0694 1.10094 3.25168 0
M  V30 715 N 66.5145 -1.57545 0.0417849 0
M  V30 716 C 67.4465 -2.07904 -0.964799 0
M  V30 717 C 68.4595 -1.00497 -1.28079 0
M  V30 718 O 69.6485 -1.28087 -1.24322 0
M  V30 719 C 66.7485 -2.49928 -2.28887 0
M  V30 720 C 65.9215 -3.80562 -2.15619 0
M  V30 721 C 64.9805 -4.08999 -3.31069 0
M  V30 722 O 64.0065 -4.79061 -3.0739 0
M  V30 723 N 65.2085 -3.6017 -4.55256 0
M  V30 724 H 67.9735 -2.94886 -0.535029 0
M  V30 725 H 65.5345 -1.61252 -0.144681 0
M  V30 726 H 67.5265 -2.66034 -3.04972 0
M  V30 727 H 66.0965 -1.68245 -2.63463 0
M  V30 728 H 65.3165 -3.74129 -1.24183 0
M  V30 729 H 66.6045 -4.66126 -2.03971 0
M  V30 730 H 66.0025 -3.03512 -4.77386 0
M  V30 731 H 64.5595 -3.81532 -5.28466 0
M  V30 732 N 67.9926 0.231505 -1.5589 0
M  V30 733 C 68.9396 1.28682 -1.91598 0
M  V30 734 C 69.9096 1.47071 -0.771974 0
M  V30 735 O 71.0946 1.60802 -1.027 0
M  V30 736 C 68.2346 2.6342 -2.22944 0
M  V30 737 C 67.3476 2.52912 -3.50228 0
M  V30 738 C 66.4826 3.80106 -3.7107 0
M  V30 739 C 65.5216 3.64279 -4.91902 0
M  V30 740 N 64.6586 4.834 -5.09184 0
M  V30 741 H 69.4986 0.975305 -2.81588 0
M  V30 742 H 67.0356 0.470299 -1.39379 0
M  V30 743 H 68.9936 3.41869 -2.39126 0
M  V30 744 H 67.6236 2.92687 -1.36139 0
M  V30 745 H 66.6756 1.6595 -3.42294 0
M  V30 746 H 67.9876 2.37133 -4.38827 0
M  V30 747 H 67.1416 4.66999 -3.87295 0
M  V30 748 H 65.8806 3.98799 -2.80733 0
M  V30 749 H 64.8856 2.7577 -4.75637 0
M  V30 750 H 66.1106 3.47067 -5.83714 0
M  V30 751 H 64.0566 5.02425 -4.21788 0
M  V30 752 H 63.9736 4.70311 -5.91898 0
M  V30 753 H 65.2416 5.71747 -5.29835 0
M  V30 754 N 69.4707 1.49531 0.497807 0
M  V30 755 C 70.7107 1.60799 1.26187 0
M  V30 756 C 71.0747 0.289627 1.89803 0
M  V30 757 O 72.2757 0.277512 2.67364 0
M  V30 758 C 70.5467 2.73729 2.29798 0
M  V30 759 S 72.1057 3.04968 3.155 0
M  V30 760 H 68.9237 0.567145 0.428798 0
M  V30 761 H 71.5257 1.87204 0.563477 0
M  V30 762 H 70.2297 3.68036 1.81597 0
M  V30 763 H 69.7607 2.49328 3.04301 0
M  V30 764 H 71.7757 2.46735 4.30507 0
M  V30 765 N 70.9488 -0.749086 1.3866 0
M  V30 766 C 71.8788 -1.8764 1.38973 0
M  V30 767 C 72.8598 -1.68178 0.255004 0
M  V30 768 O 74.0448 -1.88704 0.458754 0
M  V30 769 C 71.1748 -3.25222 1.21851 0
M  V30 770 C 70.1288 -3.59295 2.32575 0
M  V30 771 C 69.4548 -4.95663 2.00555 0
M  V30 772 C 70.7548 -3.63709 3.7485 0
M  V30 773 H 72.4488 -1.87635 2.3331 0
M  V30 774 H 69.9948 -0.901329 1.12303 0
M  V30 775 H 71.9478 -4.03746 1.20695 0
M  V30 776 H 70.6718 -3.25719 0.239775 0
M  V30 777 H 69.3308 -2.83093 2.32925 0
M  V30 778 H 68.9788 -4.92724 1.01154 0
M  V30 779 H 68.6788 -5.19429 2.74714 0
M  V30 780 H 70.2028 -5.7656 2.01024 0
M  V30 781 H 71.6168 -4.32338 3.76506 0
M  V30 782 H 70.0138 -3.98986 4.48252 0
M  V30 783 H 71.0838 -2.63834 4.06841 0
M  V30 784 N 72.4269 -1.23603 -0.977757 0
M  V30 785 C 73.3569 -1.04401 -2.0886 0
M  V30 786 C 74.3379 0.0399052 -1.70053 0
M  V30 787 O 75.5229 -0.125246 -1.93796 0
M  V30 788 C 72.6529 -0.637269 -3.41403 0
M  V30 789 C 71.6069 -1.66883 -3.94124 0
M  V30 790 C 70.9329 -1.11745 -5.22893 0
M  V30 791 C 72.2329 -3.06247 -4.23096 0
M  V30 792 H 73.9269 -1.97316 -2.25182 0
M  V30 793 H 71.4729 -0.950096 -1.08209 0
M  V30 794 H 73.4259 -0.48998 -4.18542 0
M  V30 795 H 72.1499 0.327557 -3.24953 0
M  V30 796 H 70.8089 -1.80416 -3.19133 0
M  V30 797 H 70.4569 -0.143527 -5.02795 0
M  V30 798 H 70.1569 -1.80672 -5.59134 0
M  V30 799 H 71.6809 -0.982067 -6.02651 0
M  V30 800 H 73.0949 -2.96001 -4.90975 0
M  V30 801 H 71.4919 -3.72436 -4.70544 0
M  V30 802 H 72.5619 -3.55041 -3.30263 0
M  V30 803 N 73.905 1.17692 -1.04816 0
M  V30 804 C 75.13 1.92327 -0.776207 0
M  V30 805 C 75.555 1.76082 0.661581 0
M  V30 806 O 74.913 1.076 1.45917 0
M  V30 807 C 74.961 3.41539 -1.15687 0
M  V30 808 O 74.065 4.11402 -0.286775 0
M  V30 809 H 73.406 0.599735 -0.284981 0
M  V30 810 H 75.936 1.49201 -1.4 0
M  V30 811 H 75.946 3.92269 -1.12202 0
M  V30 812 H 74.621 3.52684 -2.20425 0
M  V30 813 H 73.198 3.70939 -0.381903 0
M  V30 814 N 75.3831 0.828654 1.34056 0
M  V30 815 C 76.3131 0.269443 2.3194 0
M  V30 816 C 77.2941 -0.617247 1.58506 0
M  V30 817 O 78.4791 -0.542931 1.86456 0
M  V30 818 C 75.6091 -0.564793 3.42677 0
M  V30 819 C 74.5631 0.225241 4.27407 0
M  V30 820 C 73.8891 -0.7321 5.29664 0
M  V30 821 C 75.1891 1.43663 5.02154 0
M  V30 822 H 76.8831 1.08728 2.7896 0
M  V30 823 H 74.4291 0.524283 1.34117 0
M  V30 824 H 76.3821 -0.966233 4.10173 0
M  V30 825 H 75.1061 -1.41574 2.9432 0
M  V30 826 H 73.7651 0.608117 3.61521 0
M  V30 827 H 73.4131 -1.57916 4.77568 0
M  V30 828 H 73.1131 -0.20767 5.87233 0
M  V30 829 H 74.6371 -1.13128 6.00029 0
M  V30 830 H 76.0511 1.1089 5.62473 0
M  V30 831 H 74.4481 1.89711 5.69324 0
M  V30 832 H 75.5181 2.21181 4.31517 0
M  V30 833 N 76.8612 -1.46375 0.584142 0
M  V30 834 C 78.1382 -1.956 0.0033388 0
M  V30 835 C 78.5182 -1.52679 -1.45782 0
M  V30 836 O 77.8662 -0.77816 -2.14842 0
M  V30 837 C 78.0762 -3.48551 0.176891 0
M  V30 838 C 79.4242 -4.24576 0.0454609 0
M  V30 839 O 80.4482 -3.56043 0.105801 0
M  V30 840 O 79.3072 -5.46427 -0.0890376 0
M  V30 841 H 76.4012 -0.825547 -0.0490066 0
M  V30 842 H 78.9472 -1.56652 0.65256 0
M  V30 843 H 77.7192 -3.72683 1.1926 0
M  V30 844 H 77.3422 -3.94332 -0.508695 0
M  V30 845 N 78.3393 -0.321999 -1.54275 0
M  V30 846 C 79.2723 0.58718 -2.20516 0
M  V30 847 C 80.2503 1.11693 -1.18167 0
M  V30 848 O 81.4343 1.18122 -1.46899 0
M  V30 849 C 78.5613 1.80554 -2.86562 0
M  V30 850 C 77.6073 1.40718 -4.02617 0
M  V30 851 S 78.4403 0.445218 -5.33646 0
M  V30 852 C 79.5963 1.6709 -6.03185 0
M  V30 853 H 79.8293 0.0244875 -2.9729 0
M  V30 854 H 77.3623 -0.106087 -1.54035 0
M  V30 855 H 79.3203 2.50462 -3.25237 0
M  V30 856 H 77.9813 2.33942 -2.09595 0
M  V30 857 H 77.1743 2.31501 -4.47687 0
M  V30 858 H 76.7763 0.78782 -3.65608 0
M  V30 859 H 79.0683 2.60856 -6.25268 0
M  V30 860 H 80.0113 1.26239 -6.96756 0
M  V30 861 H 80.4193 1.85716 -5.33076 0
M  V30 862 N 79.8174 1.5752 -0.0501392 0
M  V30 863 C 81.0654 1.9227 0.622642 0
M  V30 864 C 81.3864 0.929083 1.71444 0
M  V30 865 O 80.6564 -0.0262186 1.95882 0
M  V30 866 H 79.2364 0.709739 0.232981 0
M  V30 867 H 81.8984 1.94628 -0.102898 0
M  V30 868 H 80.9944 2.93479 1.06191 0
M  V30 869 N 81.2955 -0.223234 1.56011 0
M  V30 870 C 82.5235 -0.964812 1.83027 0
M  V30 871 C 82.9385 -1.78013 0.62904 0
M  V30 872 O 82.2955 -1.78008 -0.402414 0
M  V30 873 C 82.3465 -1.88373 3.08542 0
M  V30 874 O 82.0675 -1.10137 4.2403 0
M  V30 875 C 83.5685 -2.73934 3.48533 0
M  V30 876 H 80.7885 -0.282842 0.608475 0
M  V30 877 H 83.3325 -0.238971 2.03099 0
M  V30 878 H 81.4875 -2.56354 2.9045 0
M  V30 879 H 81.9015 -1.72501 4.95322 0
M  V30 880 H 83.3755 -3.34117 4.39397 0
M  V30 881 H 83.8525 -3.46244 2.70207 0
M  V30 882 H 84.4585 -2.11369 3.69057 0
M  V30 883 N 82.7736 -1.49793 -0.48987 0
M  V30 884 C 84.0506 -1.50348 -1.25119 0
M  V30 885 C 84.4306 -0.237466 -2.0976 0
M  V30 886 O 83.7786 0.77981 -2.14782 0
M  V30 887 C 83.9886 -2.78872 -2.09837 0
M  V30 888 C 85.3366 -3.288 -2.68655 0
M  V30 889 O 86.3606 -2.80065 -2.20096 0
M  V30 890 O 85.2196 -4.13707 -3.57083 0
M  V30 891 H 82.3136 -0.602242 -0.566775 0
M  V30 892 H 84.8596 -1.62067 -0.503229 0
M  V30 893 H 83.6316 -3.62499 -1.47343 0
M  V30 894 H 83.2546 -2.70066 -2.91805 0
M  V30 895 N 84.2517 0.741722 -1.39055 0
M  V30 896 C 85.4987 1.50114 -1.35912 0
M  V30 897 C 85.8267 1.94443 0.0470937 0
M  V30 898 O 85.0817 1.66612 1.02659 0
M  V30 899 C 85.3807 2.7592 -2.27163 0
M  V30 900 C 85.0467 2.50493 -3.74919 0
M  V30 901 C 83.7087 2.43267 -4.1518 0
M  V30 902 C 86.0607 2.28585 -4.684 0
M  V30 903 C 83.3887 2.12166 -5.46994 0
M  V30 904 C 85.7407 1.99002 -6.00484 0
M  V30 905 C 84.4047 1.90241 -6.39816 0
M  V30 906 H 83.6747 0.549306 -0.497336 0
M  V30 907 H 86.3217 0.851896 -1.71508 0
M  V30 908 H 84.6267 3.45553 -1.84663 0
M  V30 909 H 86.3237 3.33923 -2.22028 0
M  V30 910 H 82.9137 2.56992 -3.43006 0
M  V30 911 H 87.0977 2.33139 -4.38132 0
M  V30 912 H 82.3537 2.03901 -5.76398 0
M  V30 913 H 86.5277 1.81057 -6.72452 0
M  V30 914 H 84.1547 1.65907 -7.41875 0
M  V30 915 N 85.7298 1.2412 0.971189 0
M  V30 916 C 86.9548 1.10667 1.75407 0
M  V30 917 C 87.3798 -0.337048 1.85056 0
M  V30 918 O 86.7378 -1.24396 1.31892 0
M  V30 919 C 86.7858 1.74726 3.15441 0
M  V30 920 O 85.8898 1.01566 3.99697 0
M  V30 921 H 85.2308 0.387341 0.539317 0
M  V30 922 H 87.7608 1.64358 1.2185 0
M  V30 923 H 87.7708 1.80341 3.6598 0
M  V30 924 H 86.4458 2.79773 3.07734 0
M  V30 925 H 85.0228 1.03713 3.58187 0
M  V30 926 N 87.2079 -1.17134 1.05439 0
M  V30 927 C 88.1549 -2.21235 0.657539 0
M  V30 928 C 89.1249 -1.62551 -0.341543 0
M  V30 929 O 90.3099 -1.89379 -0.232393 0
M  V30 930 C 87.4499 -3.45076 0.0410575 0
M  V30 931 C 86.5629 -4.18042 1.08927 0
M  V30 932 C 85.6979 -5.29376 0.439848 0
M  V30 933 C 84.7369 -5.94132 1.4722 0
M  V30 934 N 83.8739 -6.96975 0.846756 0
M  V30 935 H 88.7139 -2.54534 1.54972 0
M  V30 936 H 86.2509 -1.25028 0.775006 0
M  V30 937 H 88.2089 -4.15862 -0.33383 0
M  V30 938 H 86.8389 -3.12353 -0.814568 0
M  V30 939 H 85.8909 -3.45945 1.58196 0
M  V30 940 H 87.2029 -4.62306 1.87282 0
M  V30 941 H 86.3569 -6.06699 0.0115125 0
M  V30 942 H 85.0959 -4.86251 -0.375656 0
M  V30 943 H 84.1009 -5.15538 1.91052 0
M  V30 944 H 85.3259 -6.39337 2.28965 0
M  V30 945 H 83.2719 -6.5598 0.0518075 0
M  V30 946 H 83.1889 -7.39565 1.5678 0
M  V30 947 H 84.4569 -7.78239 0.443277 0
M  V30 948 N 88.686 -0.835752 -1.33615 0
M  V30 949 C 89.911 -0.442389 -2.02627 0
M  V30 950 C 90.336 0.947735 -1.62479 0
M  V30 951 O 89.694 1.61907 -0.815826 0
M  V30 952 C 89.742 -0.567216 -3.56111 0
M  V30 953 O 88.846 0.407799 -4.10379 0
M  V30 954 H 88.187 -0.180278 -0.639059 0
M  V30 955 H 90.717 -1.12972 -1.70583 0
M  V30 956 H 90.727 -0.447708 -4.05536 0
M  V30 957 H 89.402 -1.58103 -3.84677 0
M  V30 958 H 87.979 0.246107 -3.72087 0
M  V30 959 N 90.1641 1.46063 -0.591896 0
M  V30 960 C 91.1271 2.28854 0.125973 0
M  V30 961 C 92.1271 1.38903 0.810107 0
M  V30 962 O 93.3171 1.61186 0.66066 0
M  V30 963 C 90.4491 3.19526 1.1881 0
M  V30 964 H 91.6421 2.93802 -0.601717 0
M  V30 965 H 89.1951 1.52325 -0.350254 0
M  V30 966 H 89.9301 2.59345 1.94707 0
M  V30 967 H 89.7151 3.85766 0.701936 0
M  V30 968 H 91.2051 3.81817 1.69132 0
M  V30 969 N 91.6422 0.330177 1.54103 0
M  V30 970 C 92.6052 -0.520144 2.2322 0
M  V30 971 C 93.6052 -1.03828 1.22786 0
M  V30 972 O 94.7952 -0.929652 1.4732 0
M  V30 973 C 91.9272 -1.72317 2.94142 0
M  V30 974 H 93.1202 0.0841605 2.99782 0
M  V30 975 H 90.6732 0.0813433 1.56088 0
M  V30 976 H 91.4082 -2.36653 2.21734 0
M  V30 977 H 91.1932 -1.35898 3.67796 0
M  V30 978 H 92.6832 -2.3266 3.46784 0
M  V30 979 N 93.1203 -1.57491 0.0584922 0
M  V30 980 C 94.3483 -1.97296 -0.623037 0
M  V30 981 C 94.7633 -0.936338 -1.63946 0
M  V30 982 O 94.1203 0.0785981 -1.82331 0
M  V30 983 C 94.1713 -3.37183 -1.30345 0
M  V30 984 O 93.8923 -4.36872 -0.32773 0
M  V30 985 C 95.3933 -3.91788 -2.07406 0
M  V30 986 H 92.6133 -0.649153 -0.169826 0
M  V30 987 H 95.1573 -2.04106 0.12696 0
M  V30 988 H 93.3123 -3.31502 -2.00463 0
M  V30 989 H 93.7263 -5.18141 -0.814269 0
M  V30 990 H 95.2003 -4.91926 -2.50425 0
M  V30 991 H 95.6773 -3.27609 -2.92521 0
M  V30 992 H 96.2833 -4.00829 -1.42184 0
M  V30 993 N 94.5984 0.214957 -1.56127 0
M  V30 994 C 95.8754 0.963093 -1.70247 0
M  V30 995 C 96.2554 2.02166 -0.60764 0
M  V30 996 O 95.6034 2.25244 0.384385 0
M  V30 997 C 95.8134 1.56756 -3.11815 0
M  V30 998 C 97.1614 2.0573 -3.7143 0
M  V30 999 O 98.1854 1.66637 -3.14818 0
M  V30 1000 O 97.0444 2.77603 -4.70743 0
M  V30 1001 H 94.1384 0.450321 -0.693643 0
M  V30 1002 H 96.6844 0.206219 -1.68442 0
M  V30 1003 H 95.4564 0.803533 -3.82961 0
M  V30 1004 H 95.0794 2.3898 -3.17765 0
M  V30 1005 N 96.0765 1.50051 0.48192 0
M  V30 1006 C 97.3535 1.51009 1.2432 0
M  V30 1007 C 97.7335 0.248587 2.09631 0
M  V30 1008 O 97.0815 -0.768409 2.15192 0
M  V30 1009 C 97.2915 2.79981 2.08355 0
M  V30 1010 C 98.6395 3.3022 2.66908 0
M  V30 1011 O 99.6635 2.81228 2.18607 0
M  V30 1012 O 98.5225 4.15595 3.54884 0
M  V30 1013 H 95.6165 0.605239 0.563573 0
M  V30 1014 H 98.1625 1.62332 0.494627 0
M  V30 1015 H 96.9345 3.63275 1.45419 0
M  V30 1016 H 96.5575 2.7161 2.90368 0
M  V30 1017 N 97.5546 -0.734337 1.39446 0
M  V30 1018 C 98.4846 -1.86155 1.40955 0
M  V30 1019 C 99.4656 -1.67898 0.272827 0
M  V30 1020 O 100.651 -1.88207 0.478743 0
M  V30 1021 C 97.7806 -3.23912 1.25294 0
M  V30 1022 C 96.7346 -3.56808 2.36373 0
M  V30 1023 C 96.0606 -4.93508 2.058 0
M  V30 1024 C 97.3606 -3.59713 3.78687 0
M  V30 1025 H 99.0546 -1.8515 2.35287 0
M  V30 1026 H 96.6006 -0.889367 1.13253 0
M  V30 1027 H 98.5536 -4.02443 1.2497 0
M  V30 1028 H 97.2776 -3.25446 0.274308 0
M  V30 1029 H 95.9366 -2.80606 2.35914 0
M  V30 1030 H 95.5846 -4.91623 1.06374 0
M  V30 1031 H 95.2846 -5.16486 2.80208 0
M  V30 1032 H 96.8086 -5.74396 2.07128 0
M  V30 1033 H 98.2226 -4.2832 3.81071 0
M  V30 1034 H 96.6196 -3.94209 4.52459 0
M  V30 1035 H 97.6896 -2.59504 4.09617 0
M  V30 1036 N 99.0327 -1.24633 -0.964593 0
M  V30 1037 C 99.9797 -1.04144 -2.05968 0
M  V30 1038 C 100.95 0.046262 -1.66036 0
M  V30 1039 O 102.135 -0.108972 -1.90489 0
M  V30 1040 C 99.2747 -0.65563 -3.38815 0
M  V30 1041 C 98.3877 -1.81714 -3.91923 0
M  V30 1042 C 97.5227 -1.37662 -5.13052 0
M  V30 1043 C 96.5617 -2.50788 -5.58365 0
M  V30 1044 N 95.6987 -2.07582 -6.70712 0
M  V30 1045 H 100.539 -1.9787 -2.22827 0
M  V30 1046 H 98.0757 -0.9855 -1.09208 0
M  V30 1047 H 100.034 -0.412954 -4.15151 0
M  V30 1048 H 98.6637 0.244627 -3.21872 0
M  V30 1049 H 97.7157 -2.1734 -3.12198 0
M  V30 1050 H 99.0277 -2.66705 -4.21509 0
M  V30 1051 H 98.1817 -1.093 -5.96773 0
M  V30 1052 H 96.9207 -0.497293 -4.85158 0
M  V30 1053 H 95.9257 -2.79906 -4.73215 0
M  V30 1054 H 97.1507 -3.39283 -5.88272 0
M  V30 1055 H 95.0967 -1.22051 -6.44546 0
M  V30 1056 H 95.0137 -2.86125 -6.99763 0
M  V30 1057 H 96.2817 -1.82369 -7.57867 0
M  V30 1058 N 100.511 1.16574 -1.06058 0
M  V30 1059 C 101.741 1.90675 -0.795397 0
M  V30 1060 C 102.149 1.77547 0.653735 0
M  V30 1061 O 101.492 1.11611 1.45907 0
M  V30 1062 C 101.554 3.42011 -1.10764 0
M  V30 1063 C 101.218 3.78924 -2.55471 0
M  V30 1064 C 102.215 3.81042 -3.53699 0
M  V30 1065 C 99.8998 4.09626 -2.90708 0
M  V30 1066 C 101.894 4.13346 -4.85205 0
M  V30 1067 C 99.5808 4.41597 -4.22416 0
M  V30 1068 C 100.579 4.43436 -5.19474 0
M  V30 1069 O 100.267 4.74649 -6.48817 0
M  V30 1070 H 99.9988 0.611554 -0.288058 0
M  V30 1071 H 102.553 1.48711 -1.41683 0
M  V30 1072 H 100.783 3.84312 -0.429128 0
M  V30 1073 H 102.472 3.97384 -0.827077 0
M  V30 1074 H 103.238 3.57437 -3.27817 0
M  V30 1075 H 99.1168 4.07361 -2.15819 0
M  V30 1076 H 102.661 4.14696 -5.60957 0
M  V30 1077 H 98.5578 4.64667 -4.48056 0
M  V30 1078 H 99.3258 4.9247 -6.5377 0
M  V30 1079 N 101.989 0.842826 1.3317 0
M  V30 1080 C 103.214 0.453129 2.02389 0
M  V30 1081 C 103.639 -0.939105 1.6298 0
M  V30 1082 O 102.997 -1.61472 0.8244 0
M  V30 1083 C 103.045 0.586094 3.55805 0
M  V30 1084 O 102.149 -0.386029 4.10589 0
M  V30 1085 H 101.49 0.183664 0.638094 0
M  V30 1086 H 104.02 1.13875 1.69981 0
M  V30 1087 H 104.03 0.469209 4.05293 0
M  V30 1088 H 102.705 1.6014 3.83833 0
M  V30 1089 H 101.282 -0.226371 3.72212 0
M  V30 1090 N 103.467 -1.45747 0.599634 0
M  V30 1091 C 104.397 -2.33235 -0.111306 0
M  V30 1092 C 105.378 -1.46359 -0.866781 0
M  V30 1093 O 106.563 -1.75146 -0.838904 0
M  V30 1094 C 103.693 -3.28932 -1.11451 0
M  V30 1095 C 102.647 -4.25381 -0.472772 0
M  V30 1096 C 101.973 -5.1071 -1.58365 0
M  V30 1097 C 103.273 -5.18831 0.600948 0
M  V30 1098 H 104.967 -2.92927 0.61919 0
M  V30 1099 H 102.513 -1.40857 0.299215 0
M  V30 1100 H 104.466 -3.89002 -1.62036 0
M  V30 1101 H 103.19 -2.67381 -1.8755 0
M  V30 1102 H 101.849 -3.66598 0.0121472 0
M  V30 1103 H 101.497 -4.45533 -2.33473 0
M  V30 1104 H 101.197 -5.7604 -1.15982 0
M  V30 1105 H 102.721 -5.73647 -2.09194 0
M  V30 1106 H 104.135 -5.73019 0.179491 0
M  V30 1107 H 102.532 -5.92595 0.946076 0
M  V30 1108 H 103.602 -4.6174 1.48068 0
M  V30 1109 N 104.945 -0.338344 -1.53925 0
M  V30 1110 C 105.893 0.536231 -2.26335 0
M  V30 1111 C 106.887 1.1063 -1.28286 0
M  V30 1112 O 108.093 1.05264 -1.46012 0
M  V30 1113 H 104.468 0.191602 -0.727181 0
M  V30 1114 H 106.439 -0.0965747 -2.98244 0
M  V30 1115 C 105.188 1.67803 -3.04528 0
M  V30 1116 H 104.511 1.24864 -3.79801 0
M  V30 1117 H 105.951 2.26526 -3.58416 0
M  V30 1118 C 104.41 2.60439 -2.13712 0
M  V30 1119 O 104.94 3.6255 -1.72975 0
M  V30 1120 N 103.146 2.29006 -1.78898 0
M  V30 1121 H 102.693 1.46011 -2.12223 0
M  V30 1122 H 102.651 2.91248 -1.18416 0
M  V30 1123 N 106.423 1.57458 -0.0668435 0
M  V30 1124 C 107.653 1.97337 0.611677 0
M  V30 1125 C 108.061 0.943744 1.63982 0
M  V30 1126 O 107.404 -0.0785584 1.83532 0
M  V30 1127 C 107.466 3.33511 1.34205 0
M  V30 1128 C 107.13 4.54598 0.467941 0
M  V30 1129 C 108.127 5.19186 -0.272439 0
M  V30 1130 C 105.812 5.0075 0.39427 0
M  V30 1131 C 107.806 6.28274 -1.07476 0
M  V30 1132 C 105.493 6.09711 -0.411729 0
M  V30 1133 C 106.491 6.73335 -1.14492 0
M  V30 1134 O 106.179 7.80199 -1.93763 0
M  V30 1135 H 105.911 0.654042 0.170893 0
M  V30 1136 H 108.465 2.04961 -0.134289 0
M  V30 1137 H 106.695 3.22487 2.13398 0
M  V30 1138 H 108.384 3.58029 1.91233 0
M  V30 1139 H 109.15 4.84477 -0.225086 0
M  V30 1140 H 105.029 4.51009 0.954569 0
M  V30 1141 H 108.573 6.77866 -1.64755 0
M  V30 1142 H 104.47 6.43854 -0.460664 0
M  V30 1143 H 105.238 7.97053 -1.86142 0
M  V30 1144 N 107.901 -0.206675 1.56239 0
M  V30 1145 C 108.864 -1.23976 1.92776 0
M  V30 1146 C 109.864 -1.39041 0.807729 0
M  V30 1147 O 111.054 -1.37051 1.0753 0
M  V30 1148 C 108.186 -2.61112 2.19165 0
M  V30 1149 H 109.379 -0.927764 2.85189 0
M  V30 1150 H 106.932 -0.447718 1.4975 0
M  V30 1151 H 107.667 -2.97386 1.29352 0
M  V30 1152 H 107.452 -2.51552 3.00772 0
M  V30 1153 H 108.942 -3.35633 2.48476 0
M  V30 1154 N 109.379 -1.50304 -0.473955 0
M  V30 1155 C 110.625 -1.61389 -1.22806 0
M  V30 1156 C 110.958 -0.311955 -1.91678 0
M  V30 1157 O 110.233 0.686384 -1.81986 0
M  V30 1158 C 110.516 -2.79219 -2.27396 0
M  V30 1159 C 110.369 -4.19286 -1.62848 0
M  V30 1160 C 111.688 -2.92614 -3.28732 0
M  V30 1161 H 108.807 -0.587399 -0.445119 0
M  V30 1162 H 111.449 -1.82681 -0.522265 0
M  V30 1163 H 109.599 -2.61195 -2.87592 0
M  V30 1164 H 111.271 -4.48892 -1.06271 0
M  V30 1165 H 109.514 -4.23677 -0.931693 0
M  V30 1166 H 110.185 -4.97655 -2.38838 0
M  V30 1167 H 112.661 -3.09105 -2.78556 0
M  V30 1168 H 111.537 -3.76688 -3.99246 0
M  V30 1169 H 111.798 -2.03107 -3.92683 0
M  V30 1170 N 110.857 0.726932 -1.39834 0
M  V30 1171 C 112.106 1.48214 -1.36805 0
M  V30 1172 C 112.419 1.95576 0.0305291 0
M  V30 1173 O 113.625 2.7088 0.183417 0
M  V30 1174 C 112.081 2.67854 -2.40379 0
M  V30 1175 C 111.689 2.27408 -3.85992 0
M  V30 1176 C 113.433 3.45641 -2.46439 0
M  V30 1177 C 111.34 3.43819 -4.81189 0
M  V30 1178 H 110.27 0.556606 -0.508631 0
M  V30 1179 H 112.921 0.792216 -1.65518 0
M  V30 1180 H 111.303 3.3896 -2.04749 0
M  V30 1181 H 112.477 1.63795 -4.30706 0
M  V30 1182 H 110.792 1.62692 -3.83302 0
M  V30 1183 H 113.389 4.32244 -3.14753 0
M  V30 1184 H 113.732 3.88669 -1.49139 0
M  V30 1185 H 114.265 2.8157 -2.81004 0
M  V30 1186 H 111.004 3.05834 -5.79781 0
M  V30 1187 H 110.524 4.06385 -4.41148 0
M  V30 1188 H 112.203 4.10043 -5.00474 0
M  V30 1189 N 112.336 1.25143 0.95797 0
M  V30 1190 C 113.561 1.12521 1.74223 0
M  V30 1191 C 113.986 -0.317402 1.85403 0
M  V30 1192 O 113.344 -1.2299 1.33204 0
M  V30 1193 C 113.392 1.78062 3.1357 0
M  V30 1194 O 112.496 1.058 3.98598 0
M  V30 1195 H 111.837 0.39304 0.535178 0
M  V30 1196 H 114.367 1.65641 1.201 0
M  V30 1197 H 114.377 1.84213 3.64046 0
M  V30 1198 H 113.052 2.83021 3.04749 0
M  V30 1199 H 111.629 1.07506 3.57067 0
M  V30 1200 N 113.814 -1.1601 1.06675 0
M  V30 1201 C 115.23 -1.38622 0.790948 0
M  V30 1202 C 115.43 -1.92109 -0.607965 0
M  V30 1203 O 114.486 -2.12239 -1.36787 0
M  V30 1204 C 115.799 -2.36347 1.85905 0
M  V30 1205 C 117.347 -2.50023 1.88301 0
M  V30 1206 C 117.822 -3.51033 2.94176 0
M  V30 1207 N 119.313 -3.58563 2.93235 0
M  V30 1208 C 120.048 -4.36521 3.71803 0
M  V30 1209 N 119.544 -5.17869 4.602 0
M  V30 1210 N 121.337 -4.31541 3.60178 0
M  V30 1211 H 113.488 -0.796294 1.96908 0
M  V30 1212 H 115.751 -0.412597 0.853503 0
M  V30 1213 H 115.457 -2.04147 2.86386 0
M  V30 1214 H 115.331 -3.36042 1.71334 0
M  V30 1215 H 117.718 -2.81524 0.884769 0
M  V30 1216 H 117.799 -1.5035 2.06951 0
M  V30 1217 H 117.443 -3.20268 3.94196 0
M  V30 1218 H 117.373 -4.50445 2.72776 0
M  V30 1219 H 119.864 -3.00496 2.29152 0
M  V30 1220 H 120.177 -5.74578 5.16797 0
M  V30 1221 H 118.522 -5.17199 4.64253 0
M  V30 1222 H 121.713 -3.67051 2.90502 0
M  V30 1223 H 121.886 -4.9205 4.21653 0
M  V30 1224 N 115.292 -0.849877 -1.32721 0
M  V30 1225 C 116.569 -0.372405 -1.92022 0
M  V30 1226 C 116.949 1.1435 -1.77447 0
M  V30 1227 O 116.297 1.96296 -1.16962 0
M  V30 1228 C 116.507 -0.831482 -3.3895 0
M  V30 1229 C 117.855 -0.845882 -4.16089 0
M  V30 1230 O 118.879 -0.775806 -3.47649 0
M  V30 1231 O 117.738 -0.943753 -5.38289 0
M  V30 1232 H 114.832 -0.107667 -0.819961 0
M  V30 1233 H 117.378 -0.93646 -1.41522 0
M  V30 1234 H 116.15 -1.87448 -3.4348 0
M  V30 1235 H 115.773 -0.24461 -3.96847 0
M  V30 1236 N 116.77 1.45427 -0.607355 0
M  V30 1237 C 117.7 2.3329 0.0989352 0
M  V30 1238 C 118.681 1.46816 0.859007 0
M  V30 1239 O 119.866 1.75588 0.829604 0
M  V30 1240 C 116.996 3.29518 1.09705 0
M  V30 1241 C 115.95 4.25626 0.450206 0
M  V30 1242 C 115.276 5.11542 1.55655 0
M  V30 1243 C 116.576 5.18505 -0.628455 0
M  V30 1244 H 118.27 2.92595 -0.634716 0
M  V30 1245 H 115.816 1.40696 -0.306681 0
M  V30 1246 H 117.769 3.89855 1.59971 0
M  V30 1247 H 116.493 2.68372 1.86129 0
M  V30 1248 H 115.152 3.66586 -0.0315886 0
M  V30 1249 H 114.8 4.46765 2.31107 0
M  V30 1250 H 114.5 5.76647 1.12925 0
M  V30 1251 H 116.024 5.74748 2.06148 0
M  V30 1252 H 117.438 5.72916 -0.209877 0
M  V30 1253 H 115.835 5.92085 -0.977489 0
M  V30 1254 H 116.905 4.60948 -1.50514 0
M  V30 1255 N 118.248 0.346503 1.53744 0
M  V30 1256 C 119.476 -0.25041 2.05379 0
M  V30 1257 C 119.891 -1.43979 1.22129 0
M  V30 1258 O 119.248 -1.80677 0.257321 0
M  V30 1259 C 119.299 -0.662575 3.55376 0
M  V30 1260 O 119.02 0.479515 4.35468 0
M  V30 1261 C 120.521 -1.31989 4.23195 0
M  V30 1262 H 117.741 -0.0478198 0.669294 0
M  V30 1263 H 120.285 0.499346 1.9831 0
M  V30 1264 H 118.44 -1.36227 3.62658 0
M  V30 1265 H 118.854 0.15037 5.24284 0
M  V30 1266 H 120.328 -1.55902 5.29527 0
M  V30 1267 H 120.805 -2.27436 3.75725 0
M  V30 1268 H 121.411 -0.662154 4.20114 0
M  V30 1269 N 119.726 -1.57421 0.075193 0
M  V30 1270 C 120.674 -2.14124 -0.908508 0
M  V30 1271 C 121.668 -1.07898 -1.30592 0
M  V30 1272 O 122.874 -1.26273 -1.28277 0
M  V30 1273 H 119.249 -0.684707 -0.310935 0
M  V30 1274 H 121.22 -2.95634 -0.405374 0
M  V30 1275 C 119.969 -2.72044 -2.16535 0
M  V30 1276 H 119.292 -3.53456 -1.86839 0
M  V30 1277 H 120.732 -3.15311 -2.83469 0
M  V30 1278 C 119.191 -1.66968 -2.92615 0
M  V30 1279 O 119.721 -1.0967 -3.86439 0
M  V30 1280 N 117.927 -1.37923 -2.55784 0
M  V30 1281 H 117.474 -1.84706 -1.79559 0
M  V30 1282 H 117.432 -0.67852 -3.06991 0
M  V30 1283 N 121.204 0.198386 -1.56346 0
M  V30 1284 C 122.451 0.919286 -1.80431 0
M  V30 1285 C 122.779 1.83393 -0.647866 0
M  V30 1286 O 122.034 1.92236 0.366556 0
M  V30 1287 C 122.333 1.77031 -3.10475 0
M  V30 1288 C 121.999 1.00693 -4.39513 0
M  V30 1289 C 120.661 0.796145 -4.74568 0
M  V30 1290 C 123.013 0.469559 -5.19081 0
M  V30 1291 C 120.341 0.0364588 -5.86689 0
M  V30 1292 C 122.693 -0.2769 -6.31994 0
M  V30 1293 C 121.357 -0.49873 -6.65634 0
M  V30 1294 H 120.627 0.336391 -0.660244 0
M  V30 1295 H 123.274 0.185872 -1.90596 0
M  V30 1296 H 121.579 2.5723 -2.95533 0
M  V30 1297 H 123.276 2.33065 -3.26315 0
M  V30 1298 H 119.866 1.18122 -4.12001 0
M  V30 1299 H 124.05 0.619816 -4.92414 0
M  V30 1300 H 119.306 -0.145412 -6.11227 0
M  V30 1301 H 123.48 -0.700684 -6.92866 0
M  V30 1302 H 121.107 -1.0893 -7.52355 0
M  V30 1303 N 122.682 1.50554 0.465978 0
M  V30 1304 C 123.928 1.62038 1.21949 0
M  V30 1305 C 124.261 0.322116 1.9151 0
M  V30 1306 O 123.536 -0.676723 1.82348 0
M  V30 1307 C 123.819 2.80421 2.25912 0
M  V30 1308 C 123.672 4.20144 1.60622 0
M  V30 1309 C 124.991 2.94354 3.27176 0
M  V30 1310 H 122.11 0.589752 0.441998 0
M  V30 1311 H 124.752 1.82956 0.51257 0
M  V30 1312 H 122.902 2.62717 2.86203 0
M  V30 1313 H 124.574 4.49449 1.03889 0
M  V30 1314 H 122.817 4.24165 0.909211 0
M  V30 1315 H 123.488 4.98914 2.36196 0
M  V30 1316 H 125.964 3.10578 2.76913 0
M  V30 1317 H 124.84 3.788 3.97242 0
M  V30 1318 H 125.101 2.05186 3.916 0
M  V30 1319 N 124.16 -0.719506 1.40217 0
M  V30 1320 C 125.385 -1.51371 1.4178 0
M  V30 1321 C 125.81 -1.88091 0.0182355 0
M  V30 1322 O 125.168 -1.52997 -0.972707 0
M  V30 1323 C 125.216 -2.768 2.31115 0
M  V30 1324 O 124.32 -3.73349 1.7517 0
M  V30 1325 H 123.661 -0.456529 0.482159 0
M  V30 1326 H 126.191 -0.88644 1.844 0
M  V30 1327 H 126.201 -3.25371 2.46167 0
M  V30 1328 H 124.876 -2.49407 3.3282 0
M  V30 1329 H 123.453 -3.32179 1.69444 0
M  V30 1330 N 125.638 -1.25649 -0.95132 0
M  V30 1331 C 126.585 -1.06323 -2.04851 0
M  V30 1332 C 127.555 0.0286491 -1.66075 0
M  V30 1333 O 128.74 -0.12917 -1.90362 0
M  V30 1334 C 125.88 -0.691529 -3.381 0
M  V30 1335 C 124.993 -1.85861 -3.89974 0
M  V30 1336 C 124.128 -1.43096 -5.11563 0
M  V30 1337 C 123.167 -2.56696 -5.55674 0
M  V30 1338 N 122.304 -2.14684 -6.68472 0
M  V30 1339 H 127.144 -2.00222 -2.20715 0
M  V30 1340 H 124.681 -0.997027 -1.08156 0
M  V30 1341 H 126.639 -0.456963 -4.1469 0
M  V30 1342 H 125.269 0.210474 -3.22113 0
M  V30 1343 H 124.321 -2.20639 -3.09875 0
M  V30 1344 H 125.633 -2.71161 -4.18657 0
M  V30 1345 H 124.787 -1.15624 -5.9558 0
M  V30 1346 H 123.526 -0.548722 -4.84603 0
M  V30 1347 H 122.531 -2.84909 -4.7022 0
M  V30 1348 H 123.756 -3.45503 -5.8464 0
M  V30 1349 H 121.702 -1.28881 -6.43215 0
M  V30 1350 H 121.619 -2.9353 -6.96689 0
M  V30 1351 H 122.887 -1.90397 -7.5589 0
M  V30 1352 N 127.117 1.15442 -1.07289 0
M  V30 1353 C 128.064 2.20161 -0.692653 0
M  V30 1354 C 129.034 1.63073 0.31564 0
M  V30 1355 O 130.219 1.89725 0.202235 0
M  V30 1356 C 127.359 3.44967 -0.0959509 0
M  V30 1357 C 126.472 4.16256 -1.15564 0
M  V30 1358 C 125.607 5.28609 -0.524011 0
M  V30 1359 C 124.646 5.91715 -1.56653 0
M  V30 1360 N 123.783 6.9554 -0.957531 0
M  V30 1361 H 128.623 2.52037 -1.59002 0
M  V30 1362 H 126.16 1.2378 -0.794798 0
M  V30 1363 H 128.118 4.16341 0.267628 0
M  V30 1364 H 126.748 3.1361 0.764772 0
M  V30 1365 H 125.8 3.43385 -1.6368 0
M  V30 1366 H 127.112 4.59268 -1.94613 0
M  V30 1367 H 126.266 6.06604 -0.108032 0
M  V30 1368 H 125.005 4.86787 0.29825 0
M  V30 1369 H 124.01 5.12433 -1.9923 0
M  V30 1370 H 125.235 6.35614 -2.39107 0
M  V30 1371 H 123.181 6.55814 -0.156162 0
M  V30 1372 H 123.098 7.36977 -1.68526 0
M  V30 1373 H 124.366 7.77435 -0.567032 0
M  V30 1374 N 128.595 0.856903 1.32268 0
M  V30 1375 C 129.542 0.301172 2.28827 0
M  V30 1376 C 130.512 -0.593104 1.5515 0
M  V30 1377 O 131.697 -0.527537 1.83362 0
M  V30 1378 C 128.837 -0.502523 3.41422 0
M  V30 1379 C 127.95 0.417797 4.29975 0
M  V30 1380 C 127.085 -0.398749 5.29701 0
M  V30 1381 C 126.124 0.518827 6.09897 0
M  V30 1382 N 125.261 -0.260674 7.01616 0
M  V30 1383 H 130.101 1.12983 2.75751 0
M  V30 1384 H 127.638 0.568582 1.35667 0
M  V30 1385 H 129.596 -0.984141 4.05426 0
M  V30 1386 H 128.226 -1.29599 2.95642 0
M  V30 1387 H 127.278 1.01781 3.66531 0
M  V30 1388 H 128.59 1.12191 4.86019 0
M  V30 1389 H 127.744 -0.943435 5.9932 0
M  V30 1390 H 126.483 -1.13622 4.7428 0
M  V30 1391 H 125.488 1.07538 5.39181 0
M  V30 1392 H 126.713 1.25495 6.67404 0
M  V30 1393 H 124.659 -0.981198 6.4862 0
M  V30 1394 H 124.576 0.384364 7.55022 0
M  V30 1395 H 125.844 -0.787014 7.75517 0
M  V30 1396 N 130.073 -1.45103 0.615059 0
M  V30 1397 C 131.021 -2.32331 -0.111791 0
M  V30 1398 C 132.015 -1.46409 -0.852102 0
M  V30 1399 O 133.221 -1.62849 -0.766821 0
M  V30 1400 H 129.596 -0.749993 -0.0549072 0
M  V30 1401 H 131.567 -2.91407 0.642225 0
M  V30 1402 C 130.316 -3.3015 -1.09071 0
M  V30 1403 H 129.639 -3.96265 -0.530485 0
M  V30 1404 H 131.079 -3.93898 -1.56908 0
M  V30 1405 C 129.538 -2.57875 -2.168 0
M  V30 1406 O 130.068 -2.36567 -3.24652 0
M  V30 1407 N 128.274 -2.17884 -1.92289 0
M  V30 1408 H 127.821 -2.35413 -1.04587 0
M  V30 1409 H 127.779 -1.6985 -2.64572 0
M  V30 1410 N 131.551 -0.354651 -1.53558 0
M  V30 1411 C 132.797 0.231422 -2.02079 0
M  V30 1412 C 133.152 1.47308 -1.23767 0
M  V30 1413 O 132.445 1.8891 -0.319947 0
M  V30 1414 C 132.639 0.587121 -3.52545 0
M  V30 1415 C 132.468 -0.618513 -4.45426 0
M  V30 1416 C 131.238 -1.12724 -4.92566 0
M  V30 1417 C 133.436 -1.48039 -4.92533 0
M  V30 1418 N 131.418 -2.29404 -5.69427 0
M  V30 1419 C 132.789 -2.49397 -5.67628 0
M  V30 1420 C 134.844 -1.50454 -4.74624 0
M  V30 1421 C 133.547 -3.53013 -6.26717 0
M  V30 1422 C 135.573 -2.52958 -5.34571 0
M  V30 1423 C 134.935 -3.5304 -6.09543 0
M  V30 1424 H 131.034 0.0476909 -0.780544 0
M  V30 1425 H 133.618 -0.496727 -1.88257 0
M  V30 1426 H 131.789 1.28436 -3.6655 0
M  V30 1427 H 133.521 1.15734 -3.87799 0
M  V30 1428 H 130.276 -0.693577 -4.68494 0
M  V30 1429 H 130.7 -2.88347 -6.12524 0
M  V30 1430 H 135.342 -0.744356 -4.16196 0
M  V30 1431 H 133.06 -4.2992 -6.84247 0
M  V30 1432 H 136.646 -2.55667 -5.22614 0
M  V30 1433 H 135.526 -4.31056 -6.55103 0
M  V30 1434 N 133.029 1.57378 -0.0835403 0
M  V30 1435 C 134.277 1.93547 0.581718 0
M  V30 1436 C 134.598 0.96524 1.69435 0
M  V30 1437 O 133.868 0.0153369 1.95894 0
M  V30 1438 H 132.448 0.714521 0.217874 0
M  V30 1439 H 135.11 1.94366 -0.144158 0
M  V30 1440 H 134.206 2.95665 0.999423 0
M  V30 1441 N 134.507 -0.190092 1.56449 0
M  V30 1442 C 135.732 -0.929864 1.85387 0
M  V30 1443 C 136.157 -1.7585 0.667704 0
M  V30 1444 O 135.515 -1.77198 -0.383459 0
M  V30 1445 C 135.563 -1.79773 3.12593 0
M  V30 1446 O 134.667 -2.89713 2.93496 0
M  V30 1447 H 134.008 -0.261574 0.610307 0
M  V30 1448 H 136.538 -0.193896 2.03679 0
M  V30 1449 H 136.548 -2.20139 3.43515 0
M  V30 1450 H 135.223 -1.18892 3.98544 0
M  V30 1451 H 133.8 -2.53065 2.73884 0
M  V30 1452 N 135.985 -1.50799 -0.457987 0
M  V30 1453 C 137.231 -1.62683 -1.21088 0
M  V30 1454 C 137.564 -0.332268 -1.91336 0
M  V30 1455 O 136.839 0.667043 -1.82704 0
M  V30 1456 C 137.122 -2.81615 -2.24422 0
M  V30 1457 C 136.975 -4.20989 -1.58392 0
M  V30 1458 C 138.294 -2.96085 -3.2561 0
M  V30 1459 H 135.413 -0.592087 -0.438864 0
M  V30 1460 H 138.055 -1.83225 -0.50286 0
M  V30 1461 H 136.205 -2.64231 -2.84806 0
M  V30 1462 H 137.877 -4.49994 -1.01504 0
M  V30 1463 H 136.12 -4.24641 -0.886704 0
M  V30 1464 H 136.791 -5.0016 -2.33547 0
M  V30 1465 H 139.267 -3.12042 -2.75262 0
M  V30 1466 H 138.143 -3.80902 -3.95228 0
M  V30 1467 H 138.404 -2.0726 -3.90507 0
M  V30 1468 N 137.463 0.71206 -1.40597 0
M  V30 1469 C 138.688 1.50617 -1.42581 0
M  V30 1470 C 139.113 1.88079 -0.0282102 0
M  V30 1471 O 138.471 1.53511 0.964579 0
M  V30 1472 C 138.519 2.7557 -2.3258 0
M  V30 1473 O 137.623 3.72414 -1.77148 0
M  V30 1474 H 136.964 0.453966 -0.484573 0
M  V30 1475 H 139.494 0.876649 -1.84868 0
M  V30 1476 H 139.504 3.2406 -2.47889 0
M  V30 1477 H 138.179 2.47639 -3.34138 0
M  V30 1478 H 136.756 3.31276 -1.71204 0
M  V30 1479 N 138.941 1.26152 0.944643 0
M  V30 1480 C 139.889 1.07215 2.06417 0
M  V30 1481 C 140.883 9.2007e-05 1.694 0
M  V30 1482 O 142.089 0.1565 1.79318 0
M  V30 1483 H 138.464 0.329837 0.675805 0
M  V30 1484 H 140.435 2.02099 2.19541 0
M  V30 1485 C 139.184 0.718197 3.40202 0
M  V30 1486 H 138.507 1.53497 3.69159 0
M  V30 1487 H 139.947 0.625459 4.19361 0
M  V30 1488 C 138.406 -0.576435 3.31932 0
M  V30 1489 O 138.936 -1.61574 3.67773 0
M  V30 1490 N 137.142 -0.565781 2.85039 0
M  V30 1491 H 136.689 0.280367 2.5607 0
M  V30 1492 H 136.647 -1.43213 2.79888 0
M  V30 1493 N 140.419 -1.14872 1.07899 0
M  V30 1494 C 141.349 -2.2193 0.725887 0
M  V30 1495 C 142.33 -1.67622 -0.28927 0
M  V30 1496 O 143.515 -1.93533 -0.160787 0
M  V30 1497 C 140.645 -3.47061 0.128856 0
M  V30 1498 C 139.599 -4.14363 1.07178 0
M  V30 1499 C 138.925 -5.33636 0.337229 0
M  V30 1500 C 140.225 -4.63492 2.40775 0
M  V30 1501 H 141.919 -2.51724 1.62097 0
M  V30 1502 H 139.465 -1.20991 0.780838 0
M  V30 1503 H 141.418 -4.21199 -0.130147 0
M  V30 1504 H 140.142 -3.16617 -0.80134 0
M  V30 1505 H 138.801 -3.42173 1.3158 0
M  V30 1506 H 138.449 -4.99449 -0.596606 0
M  V30 1507 H 138.149 -5.79609 0.965788 0
M  V30 1508 H 139.673 -6.10539 0.0861567 0
M  V30 1509 H 141.087 -5.2913 2.20669 0
M  V30 1510 H 139.484 -5.20148 2.99276 0
M  V30 1511 H 140.554 -3.78834 3.02676 0
M  V30 1512 N 141.898 -0.863906 -1.31812 0
M  V30 1513 C 142.861 -0.320212 -2.26952 0
M  V30 1514 C 143.861 0.525369 -1.51975 0
M  V30 1515 O 145.051 0.335547 -1.70938 0
M  V30 1516 C 142.183 0.545919 -3.365 0
M  V30 1517 H 143.376 -1.16004 -2.76556 0
M  V30 1518 H 140.929 -0.638995 -1.42641 0
M  V30 1519 H 141.664 1.40718 -2.92179 0
M  V30 1520 H 141.449 -0.0594674 -3.92055 0
M  V30 1521 H 142.939 0.918796 -4.07367 0
M  V30 1522 N 143.376 1.44774 -0.622745 0
M  V30 1523 C 144.323 2.30635 0.0871679 0
M  V30 1524 C 145.293 1.42994 0.845097 0
M  V30 1525 O 146.478 1.71907 0.827812 0
M  V30 1526 C 143.618 3.28144 1.06844 0
M  V30 1527 C 142.731 4.30888 0.309809 0
M  V30 1528 C 141.866 5.15494 1.28215 0
M  V30 1529 C 140.905 6.09953 0.512198 0
M  V30 1530 N 140.042 6.87287 1.43458 0
M  V30 1531 H 144.882 2.90803 -0.650974 0
M  V30 1532 H 142.419 1.43286 -0.33281 0
M  V30 1533 H 144.377 3.83157 1.65066 0
M  V30 1534 H 143.007 2.69695 1.77382 0
M  V30 1535 H 142.059 3.78414 -0.388181 0
M  V30 1536 H 143.371 4.97955 -0.290254 0
M  V30 1537 H 142.525 5.74983 1.93596 0
M  V30 1538 H 141.264 4.48481 1.91614 0
M  V30 1539 H 140.269 5.49581 -0.155151 0
M  V30 1540 H 141.494 6.78999 -0.116958 0
M  V30 1541 H 139.44 6.2295 2.05594 0
M  V30 1542 H 139.357 7.50763 0.888335 0
M  V30 1543 H 140.625 7.51306 2.07749 0
M  V30 1544 N 144.854 0.36279 1.53368 0
M  V30 1545 C 146.079 -0.231226 2.06107 0
M  V30 1546 C 146.504 -1.419 1.23474 0
M  V30 1547 O 145.862 -1.79524 0.253128 0
M  V30 1548 C 145.91 -0.605523 3.5548 0
M  V30 1549 O 145.014 -1.70312 3.7559 0
M  V30 1550 H 144.355 -0.034327 0.663112 0
M  V30 1551 H 146.885 0.522584 1.97814 0
M  V30 1552 H 146.895 -0.877314 3.98456 0
M  V30 1553 H 145.57 0.263004 4.15068 0
M  V30 1554 H 144.147 -1.4271 3.44512 0
M  V30 1555 N 146.332 -1.57332 0.0918853 0
M  V30 1556 C 147.578 -1.94524 -0.573425 0
M  V30 1557 C 147.911 -0.973578 -1.68033 0
M  V30 1558 O 147.186 -0.00609226 -1.94499 0
M  V30 1559 C 147.469 -3.41858 -1.13161 0
M  V30 1560 C 147.322 -4.4979 -0.0299747 0
M  V30 1561 C 148.641 -3.90435 -2.03098 0
M  V30 1562 H 145.76 -0.70734 -0.206975 0
M  V30 1563 H 148.402 -1.89309 0.161942 0
M  V30 1564 H 146.552 -3.46433 -1.7583 0
M  V30 1565 H 148.224 -4.57327 0.604112 0
M  V30 1566 H 146.467 -4.291 0.636833 0
M  V30 1567 H 147.138 -5.50069 -0.461287 0
M  V30 1568 H 149.614 -3.87992 -1.50338 0
M  V30 1569 H 148.49 -4.94097 -2.39081 0
M  V30 1570 H 148.751 -3.29541 -2.94712 0
M  V30 1571 N 147.81 0.181792 -1.56548 0
M  V30 1572 C 149.035 0.920019 -1.85877 0
M  V30 1573 C 149.46 1.75494 -0.677021 0
M  V30 1574 O 148.818 1.77399 0.374056 0
M  V30 1575 C 148.866 1.78112 -3.13542 0
M  V30 1576 O 147.97 2.88152 -2.95029 0
M  V30 1577 H 147.311 0.258334 -0.611686 0
M  V30 1578 H 149.841 0.183092 -2.03779 0
M  V30 1579 H 149.851 2.18314 -3.44678 0
M  V30 1580 H 148.526 1.16777 -3.99169 0
M  V30 1581 H 147.103 2.51609 -2.75222 0
M  V30 1582 N 149.288 1.51039 0.449983 0
M  V30 1583 C 150.22 1.67617 1.56324 0
M  V30 1584 C 151.233 0.557083 1.52972 0
M  V30 1585 O 152.422 0.830989 1.57977 0
M  V30 1586 C 149.522 1.66402 2.95235 0
M  V30 1587 C 148.695 2.9469 3.23229 0
M  V30 1588 C 147.754 2.85832 4.41799 0
M  V30 1589 O 146.78 3.59785 4.41071 0
M  V30 1590 N 147.982 2.00821 5.44657 0
M  V30 1591 H 150.747 2.63648 1.42512 0
M  V30 1592 H 148.308 1.48767 0.638737 0
M  V30 1593 H 150.3 1.58062 3.72557 0
M  V30 1594 H 148.87 0.780182 3.02708 0
M  V30 1595 H 148.09 3.16996 2.34323 0
M  V30 1596 H 149.378 3.79636 3.38754 0
M  V30 1597 H 148.776 1.40091 5.48079 0
M  V30 1598 H 147.333 1.98368 6.20881 0
M  V30 1599 N 150.766 -0.704594 1.40972 0
M  V30 1600 C 152.013 -1.46458 1.39844 0
M  V30 1601 C 152.341 -1.94499 0.00447594 0
M  V30 1602 O 151.596 -1.69275 -0.982057 0
M  V30 1603 C 151.895 -2.698 2.34399 0
M  V30 1604 C 151.561 -2.40464 3.81429 0
M  V30 1605 C 150.223 -2.32174 4.21484 0
M  V30 1606 C 152.575 -2.16086 4.74296 0
M  V30 1607 C 149.903 -1.97589 5.52427 0
M  V30 1608 C 152.255 -1.83011 6.05549 0
M  V30 1609 C 150.919 -1.7321 6.44635 0
M  V30 1610 H 150.189 -0.535927 0.511725 0
M  V30 1611 H 152.836 -0.806124 1.73706 0
M  V30 1612 H 151.141 -3.40536 1.93759 0
M  V30 1613 H 152.838 -3.27919 2.30804 0
M  V30 1614 H 149.428 -2.47808 3.49699 0
M  V30 1615 H 153.612 -2.2144 4.4416 0
M  V30 1616 H 148.868 -1.88547 5.81601 0
M  V30 1617 H 153.042 -1.63164 6.77016 0
M  V30 1618 H 150.669 -1.46179 7.46013 0
M  V30 1619 N 152.244 -1.26651 -0.937939 0
M  V30 1620 C 153.49 -1.12553 -1.687 0
M  V30 1621 C 153.823 0.329782 -1.91379 0
M  V30 1622 O 153.098 1.24202 -1.4968 0
M  V30 1623 C 153.381 -1.89862 -3.05981 0
M  V30 1624 C 153.234 -3.43318 -2.90607 0
M  V30 1625 C 154.553 -1.69499 -4.0615 0
M  V30 1626 H 151.672 -0.410257 -0.612257 0
M  V30 1627 H 154.314 -1.55685 -1.08913 0
M  V30 1628 H 152.464 -1.53204 -3.57017 0
M  V30 1629 H 154.136 -3.89747 -2.46769 0
M  V30 1630 H 152.379 -3.70179 -2.26164 0
M  V30 1631 H 153.05 -3.92642 -3.8799 0
M  V30 1632 H 155.526 -2.01442 -3.64088 0
M  V30 1633 H 154.402 -2.26002 -5.00214 0
M  V30 1634 H 154.663 -0.640365 -4.37438 0
M  V30 1635 N 153.722 1.14298 -1.08507 0
M  V30 1636 C 154.655 2.18447 -0.660004 0
M  V30 1637 C 155.633 1.59242 0.328749 0
M  V30 1638 O 156.817 1.87062 0.232367 0
M  V30 1639 C 153.944 3.38688 0.0290807 0
M  V30 1640 C 152.99 4.1646 -0.919982 0
M  V30 1641 S 153.823 4.77334 -2.42718 0
M  V30 1642 C 154.979 6.00931 -1.75024 0
M  V30 1643 H 155.212 2.54166 -1.54231 0
M  V30 1644 H 152.745 1.25446 -0.900149 0
M  V30 1645 H 154.703 4.08342 0.420378 0
M  V30 1646 H 153.364 3.01289 0.887895 0
M  V30 1647 H 152.557 5.02529 -0.384751 0
M  V30 1648 H 152.159 3.52414 -1.25223 0
M  V30 1649 H 154.451 6.69017 -1.06877 0
M  V30 1650 H 155.394 6.59044 -2.58971 0
M  V30 1651 H 155.802 5.51089 -1.22317 0
M  V30 1652 N 155.201 0.870884 1.31352 0
M  V30 1653 C 156.478 0.402907 1.91405 0
M  V30 1654 C 156.858 -1.11512 1.79244 0
M  V30 1655 O 156.206 -1.94411 1.2007 0
M  V30 1656 C 156.416 0.885301 3.37585 0
M  V30 1657 C 157.764 0.911971 4.14691 0
M  V30 1658 O 158.788 0.831016 3.46371 0
M  V30 1659 O 157.647 1.02927 5.3672 0
M  V30 1660 H 154.741 0.120698 0.818145 0
M  V30 1661 H 157.287 0.958857 1.40014 0
M  V30 1662 H 156.059 1.92889 3.40455 0
M  V30 1663 H 155.682 0.307714 3.96407 0
M  V30 1664 N 156.679 -1.44442 0.630414 0
M  V30 1665 C 157.626 -2.30678 -0.0749355 0
M  V30 1666 C 158.596 -1.4344 -0.837502 0
M  V30 1667 O 159.781 -1.72343 -0.818684 0
M  V30 1668 C 156.921 -3.28706 -1.05103 0
M  V30 1669 C 156.034 -4.31046 -0.286954 0
M  V30 1670 C 155.169 -5.16167 -1.2548 0
M  V30 1671 C 154.208 -6.10216 -0.479843 0
M  V30 1672 N 153.345 -6.88039 -1.39811 0
M  V30 1673 H 158.185 -2.90454 0.666386 0
M  V30 1674 H 155.722 -1.43107 0.340404 0
M  V30 1675 H 157.68 -3.84027 -1.63031 0
M  V30 1676 H 156.31 -2.70632 -1.75949 0
M  V30 1677 H 155.362 -3.78203 0.408243 0
M  V30 1678 H 156.674 -4.97794 0.316657 0
M  V30 1679 H 155.828 -5.76002 -1.90544 0
M  V30 1680 H 154.567 -4.49491 -1.89233 0
M  V30 1681 H 153.572 -5.49491 0.184295 0
M  V30 1682 H 154.797 -6.78928 0.152965 0
M  V30 1683 H 152.743 -6.24032 -2.02287 0
M  V30 1684 H 152.66 -7.51223 -0.848508 0
M  V30 1685 H 153.928 -7.52397 -2.03762 0
M  V30 1686 N 158.157 -0.370918 -1.53173 0
M  V30 1687 C 159.387 0.217389 -2.05453 0
M  V30 1688 C 159.795 1.42568 -1.24382 0
M  V30 1689 O 159.138 1.81571 -0.278839 0
M  V30 1690 C 159.2 0.669827 -3.53205 0
M  V30 1691 C 158.864 -0.4225 -4.55043 0
M  V30 1692 C 159.861 -1.27407 -5.04047 0
M  V30 1693 C 157.546 -0.58427 -4.9889 0
M  V30 1694 C 159.54 -2.27271 -5.95505 0
M  V30 1695 C 157.227 -1.58627 -5.90153 0
M  V30 1696 C 158.225 -2.42892 -6.38351 0
M  V30 1697 O 157.913 -3.41382 -7.27814 0
M  V30 1698 H 157.645 0.0408171 -0.674767 0
M  V30 1699 H 160.199 -0.5292 -1.98466 0
M  V30 1700 H 158.429 1.4681 -3.57748 0
M  V30 1701 H 160.118 1.18173 -3.88317 0
M  V30 1702 H 160.884 -1.16031 -4.70916 0
M  V30 1703 H 156.763 0.061851 -4.60959 0
M  V30 1704 H 160.307 -2.93079 -6.33049 0
M  V30 1705 H 156.204 -1.70048 -6.22699 0
M  V30 1706 H 156.972 -3.37173 -7.45826 0
M  V30 1707 N 159.635 1.57281 -0.100228 0
M  V30 1708 C 160.86 1.99302 0.573881 0
M  V30 1709 C 161.285 0.979059 1.60611 0
M  V30 1710 O 160.643 -0.0517803 1.81226 0
M  V30 1711 C 160.691 3.40274 1.19358 0
M  V30 1712 O 159.795 3.41676 2.30935 0
M  V30 1713 H 159.136 0.647944 0.145138 0
M  V30 1714 H 161.666 2.03779 -0.183156 0
M  V30 1715 H 161.676 3.78078 1.53365 0
M  V30 1716 H 160.351 4.13594 0.437385 0
M  V30 1717 H 158.928 3.15672 1.98509 0
M  V30 1718 N 161.113 -0.173488 1.56642 0
M  V30 1719 C 162.361 -0.888706 1.81512 0
M  V30 1720 C 162.682 -1.82875 0.676872 0
M  V30 1721 O 161.952 -1.93536 -0.303414 0
M  V30 1722 H 160.532 -0.331164 0.669582 0
M  V30 1723 H 163.194 -0.173823 1.94123 0
M  V30 1724 H 162.29 -1.46691 2.75478 0
M  V30 1725 N 162.591 -1.51276 -0.441967 0
M  V30 1726 C 163.837 -1.63958 -1.19355 0
M  V30 1727 C 164.17 -0.352543 -1.90973 0
M  V30 1728 O 163.445 0.647627 -1.83401 0
M  V30 1729 C 163.728 -2.83979 -2.21422 0
M  V30 1730 C 163.581 -4.22646 -1.53918 0
M  V30 1731 C 164.9 -2.99521 -3.22451 0
M  V30 1732 H 162.019 -0.596709 -0.432559 0
M  V30 1733 H 164.661 -1.83748 -0.483398 0
M  V30 1734 H 162.811 -2.67237 -2.81987 0
M  V30 1735 H 164.483 -4.51045 -0.967256 0
M  V30 1736 H 162.726 -4.25558 -0.841615 0
M  V30 1737 H 163.397 -5.02609 -2.28229 0
M  V30 1738 H 165.873 -3.14944 -2.71937 0
M  V30 1739 H 164.749 -3.85072 -3.91166 0
M  V30 1740 H 165.01 -2.11391 -3.88287 0
M  V30 1741 N 164.069 0.697108 -1.41344 0
M  V30 1742 C 164.979 1.84088 -1.45427 0
M  V30 1743 C 165.995 1.70545 -0.34501 0
M  V30 1744 O 167.171 1.92488 -0.592492 0
M  V30 1745 C 164.236 3.20056 -1.33286 0
M  V30 1746 C 163.297 3.45718 -2.54514 0
M  V30 1747 C 162.53 4.75199 -2.42944 0
M  V30 1748 O 162.753 5.51579 -1.45318 0
M  V30 1749 O 161.687 5.0161 -3.32672 0
M  V30 1750 H 165.513 1.836 -2.41919 0
M  V30 1751 H 163.098 0.849966 -1.22866 0
M  V30 1752 H 164.98 4.01236 -1.28794 0
M  V30 1753 H 163.655 3.2123 -0.39909 0
M  V30 1754 H 162.562 2.64474 -2.64583 0
M  V30 1755 H 163.895 3.49356 -3.46715 0
M  V30 1756 N 165.547 1.27147 0.931209 0
M  V30 1757 C 166.787 1.14511 1.69312 0
M  V30 1758 C 167.151 -0.304638 1.89568 0
M  V30 1759 O 168.352 -0.553343 2.63043 0
M  V30 1760 C 166.623 1.90349 3.02493 0
M  V30 1761 S 168.182 1.93884 3.93642 0
M  V30 1762 H 165 0.408858 0.581684 0
M  V30 1763 H 167.602 1.61006 1.10893 0
M  V30 1764 H 166.306 2.94877 2.85439 0
M  V30 1765 H 165.837 1.44333 3.65966 0
M  V30 1766 H 167.852 1.03273 4.85334 0
M  V30 1767 N 167.025 -1.13721 1.09112 0
M  V30 1768 C 167.955 -2.21148 0.749385 0
M  V30 1769 C 168.936 -1.6792 -0.271475 0
M  V30 1770 O 170.121 -1.93693 -0.140251 0
M  V30 1771 C 167.251 -3.46905 0.165659 0
M  V30 1772 C 166.205 -4.13203 1.11567 0
M  V30 1773 C 165.531 -5.33248 0.393809 0
M  V30 1774 C 166.831 -4.60912 2.45678 0
M  V30 1775 H 168.525 -2.4999 1.64758 0
M  V30 1776 H 166.071 -1.20156 0.793626 0
M  V30 1777 H 168.024 -4.21313 -0.085466 0
M  V30 1778 H 166.748 -3.17449 -0.767714 0
M  V30 1779 H 165.407 -3.40758 1.35202 0
M  V30 1780 H 165.055 -5.00054 -0.543599 0
M  V30 1781 H 164.755 -5.78552 1.02721 0
M  V30 1782 H 166.279 -6.10413 0.150908 0
M  V30 1783 H 167.693 -5.26759 2.26269 0
M  V30 1784 H 166.09 -5.16944 3.04776 0
M  V30 1785 H 167.16 -3.75603 3.06677 0
M  V30 1786 N 168.503 -0.877838 -1.30888 0
M  V30 1787 C 169.451 -0.328662 -2.30266 0
M  V30 1788 C 170.445 0.560496 -1.59859 0
M  V30 1789 O 171.651 0.445722 -1.74394 0
M  V30 1790 H 168.026 -0.0876142 -0.746879 0
M  V30 1791 H 169.997 -1.18061 -2.74051 0
M  V30 1792 C 168.746 0.448071 -3.44801 0
M  V30 1793 H 168.069 -0.226859 -3.99156 0
M  V30 1794 H 169.509 0.797541 -4.16432 0
M  V30 1795 C 167.968 1.64239 -2.94155 0
M  V30 1796 O 168.498 2.74175 -2.93583 0
M  V30 1797 N 166.704 1.47716 -2.50256 0
M  V30 1798 H 166.251 0.582821 -2.5092 0
M  V30 1799 H 166.209 2.27765 -2.16727 0
M  V30 1800 N 169.982 1.44106 -0.638065 0
M  V30 1801 C 170.912 2.33448 0.0494287 0
M  V30 1802 C 171.893 1.48606 0.827672 0
M  V30 1803 O 173.078 1.77308 0.792173 0
M  V30 1804 C 170.208 3.31771 1.02691 0
M  V30 1805 C 169.162 4.26485 0.359823 0
M  V30 1806 C 168.488 5.14729 1.44769 0
M  V30 1807 C 169.788 5.17056 -0.738296 0
M  V30 1808 H 171.482 2.91183 -0.696636 0
M  V30 1809 H 169.028 1.40014 -0.336456 0
M  V30 1810 H 170.981 3.93161 1.51666 0
M  V30 1811 H 169.705 2.7226 1.80395 0
M  V30 1812 H 168.364 3.66437 -0.10934 0
M  V30 1813 H 168.012 4.51566 2.21578 0
M  V30 1814 H 167.712 5.78913 1.00668 0
M  V30 1815 H 169.236 5.78991 1.93911 0
M  V30 1816 H 170.65 5.72342 -0.331354 0
M  V30 1817 H 169.047 5.89879 -1.10286 0
M  V30 1818 H 170.117 4.57652 -1.60258 0
M  V30 1819 N 171.46 0.379036 1.52974 0
M  V30 1820 C 172.37 -0.468639 2.29872 0
M  V30 1821 C 173.386 -1.08067 1.36373 0
M  V30 1822 O 174.562 -1.08871 1.69438 0
M  V30 1823 C 171.627 -1.58594 3.083 0
M  V30 1824 C 170.688 -1.00007 4.17489 0
M  V30 1825 C 169.921 -2.06413 4.92168 0
M  V30 1826 O 170.144 -3.27751 4.66835 0
M  V30 1827 O 169.078 -1.68717 5.7777 0
M  V30 1828 H 172.904 0.157508 3.03291 0
M  V30 1829 H 170.489 0.143035 1.48714 0
M  V30 1830 H 172.371 -2.23525 3.57232 0
M  V30 1831 H 171.046 -2.19724 2.37703 0
M  V30 1832 H 169.953 -0.314299 3.72777 0
M  V30 1833 H 171.286 -0.433135 4.90291 0
M  V30 1834 N 172.938 -1.57226 0.108567 0
M  V30 1835 C 174.184 -1.95121 -0.552761 0
M  V30 1836 C 174.517 -0.991345 -1.66991 0
M  V30 1837 O 173.792 -0.0267211 -1.94482 0
M  V30 1838 C 174.075 -3.43039 -1.09528 0
M  V30 1839 C 173.928 -4.49797 0.0177332 0
M  V30 1840 C 175.247 -3.92567 -1.98945 0
M  V30 1841 H 172.366 -0.709496 -0.199461 0
M  V30 1842 H 175.008 -1.89126 0.182011 0
M  V30 1843 H 173.158 -3.48279 -1.72146 0
M  V30 1844 H 174.83 -4.56661 0.652584 0
M  V30 1845 H 173.073 -4.284 0.682309 0
M  V30 1846 H 173.744 -5.50528 -0.402919 0
M  V30 1847 H 176.22 -3.89565 -1.46214 0
M  V30 1848 H 175.096 -4.96605 -2.33827 0
M  V30 1849 H 175.357 -3.32648 -2.91201 0
M  V30 1850 N 174.416 0.165178 -1.56732 0
M  V30 1851 C 175.348 1.22911 -1.93457 0
M  V30 1852 C 176.361 1.40152 -0.828333 0
M  V30 1853 O 177.55 1.40046 -1.10677 0
M  V30 1854 C 174.65 2.59686 -2.17753 0
M  V30 1855 C 173.823 2.63663 -3.48999 0
M  V30 1856 C 172.882 3.81845 -3.62051 0
M  V30 1857 O 171.908 3.67559 -4.34613 0
M  V30 1858 N 173.11 4.98557 -2.97357 0
M  V30 1859 H 175.875 0.917118 -2.85323 0
M  V30 1860 H 173.436 0.354895 -1.57962 0
M  V30 1861 H 175.428 3.37225 -2.23743 0
M  V30 1862 H 173.998 2.83251 -1.32242 0
M  V30 1863 H 173.218 1.72173 -3.54612 0
M  V30 1864 H 174.506 2.63336 -4.35352 0
M  V30 1865 H 173.904 5.13065 -2.38287 0
M  V30 1866 H 172.461 5.73936 -3.08934 0
M  V30 1867 N 175.894 1.51508 0.433938 0
M  V30 1868 C 176.857 1.72473 1.50949 0
M  V30 1869 C 177.857 0.594725 1.49398 0
M  V30 1870 O 179.047 0.862315 1.5136 0
M  V30 1871 C 176.179 1.78431 2.90474 0
M  V30 1872 H 177.372 2.68467 1.33662 0
M  V30 1873 H 174.925 1.41549 0.662836 0
M  V30 1874 H 175.66 0.842645 3.13161 0
M  V30 1875 H 175.445 2.60558 2.93005 0
M  V30 1876 H 176.935 1.96479 3.68491 0
M  V30 1877 N 177.372 -0.689602 1.41712 0
M  V30 1878 C 178.649 -1.44457 1.31877 0
M  V30 1879 C 179.029 -2.11039 -0.0508537 0
M  V30 1880 O 178.377 -2.02138 -1.06547 0
M  V30 1881 C 178.587 -2.45913 2.47645 0
M  V30 1882 C 179.935 -3.10991 2.89084 0
M  V30 1883 O 180.959 -2.56238 2.47428 0
M  V30 1884 O 179.818 -4.10174 3.61137 0
M  V30 1885 H 176.912 -0.64362 0.519309 0
M  V30 1886 H 179.458 -0.719576 1.53689 0
M  V30 1887 H 178.23 -1.95409 3.39015 0
M  V30 1888 H 177.853 -3.25913 2.27742 0
M  V30 1889 N 178.85 -1.27639 -0.924453 0
M  V30 1890 C 180.078 -1.16989 -1.70649 0
M  V30 1891 C 180.493 0.272869 -1.86818 0
M  V30 1892 O 179.85 1.18549 -1.38753 0
M  V30 1893 C 179.901 -1.85229 -3.10439 0
M  V30 1894 O 179.622 -3.23868 -2.95028 0
M  V30 1895 C 181.123 -1.80746 -4.04779 0
M  V30 1896 H 178.343 -0.406595 -0.53378 0
M  V30 1897 H 180.887 -1.68569 -1.15778 0
M  V30 1898 H 179.042 -1.37545 -3.6216 0
M  V30 1899 H 179.456 -3.57889 -3.83426 0
M  V30 1900 H 180.93 -2.33101 -5.00368 0
M  V30 1901 H 181.407 -0.777499 -4.32263 0
M  V30 1902 H 182.013 -2.28059 -3.58984 0
M  V30 1903 N 180.328 1.1314 -1.09713 0
M  V30 1904 C 181.556 1.88321 -0.856898 0
M  V30 1905 C 181.971 1.79276 0.592073 0
M  V30 1906 O 181.328 1.16142 1.40774 0
M  V30 1907 C 181.379 3.37812 -1.28706 0
M  V30 1908 O 181.1 3.46627 -2.67921 0
M  V30 1909 C 182.601 4.29952 -1.07964 0
M  V30 1910 H 179.821 0.596094 -0.308079 0
M  V30 1911 H 182.365 1.43205 -1.45988 0
M  V30 1912 H 180.52 3.805 -0.727912 0
M  V30 1913 H 180.934 4.39579 -2.8613 0
M  V30 1914 H 182.408 5.33159 -1.42986 0
M  V30 1915 H 182.885 4.39196 -0.0176577 0
M  V30 1916 H 183.491 3.93036 -1.62489 0
M  V30 1917 N 181.806 0.884767 1.30421 0
M  V30 1918 C 182.756 0.322846 2.25703 0
M  V30 1919 C 183.74 -0.548582 1.51259 0
M  V30 1920 O 184.932 -0.39304 1.72581 0
M  V30 1921 C 182.061 -0.461787 3.4018 0
M  V30 1922 C 181.147 0.423717 4.21978 0
M  V30 1923 N 181.538 1.52408 4.82292 0
M  V30 1924 C 179.836 0.218795 4.45463 0
M  V30 1925 C 180.537 2.07136 5.43571 0
M  V30 1926 N 179.513 1.36635 5.26148 0
M  V30 1927 H 183.315 1.16363 2.69883 0
M  V30 1928 H 180.829 0.73415 1.44859 0
M  V30 1929 H 182.826 -0.880985 4.07485 0
M  V30 1930 H 181.486 -1.30001 2.9754 0
M  V30 1931 H 182.497 1.90693 4.81515 0
M  V30 1932 H 179.174 -0.582275 4.1342 0
M  V30 1933 H 180.564 2.99538 6.01437 0
M  V30 1934 N 183.284 -1.43765 0.645699 0
M  V30 1935 C 184.533 -2.01116 0.153412 0
M  V30 1936 C 184.846 -1.51493 -1.23731 0
M  V30 1937 O 186.052 -2.01067 -1.8244 0
M  V30 1938 C 184.508 -3.59206 0.223473 0
M  V30 1939 C 184.116 -4.17823 1.61642 0
M  V30 1940 C 185.86 -4.23972 -0.211597 0
M  V30 1941 C 183.767 -5.68183 1.64081 0
M  V30 1942 H 182.697 -0.752093 0.0535891 0
M  V30 1943 H 185.348 -1.6482 0.806633 0
M  V30 1944 H 183.73 -3.92867 -0.497118 0
M  V30 1945 H 184.904 -3.95674 2.36176 0
M  V30 1946 H 183.219 -3.65399 1.99681 0
M  V30 1947 H 185.816 -5.34275 -0.213112 0
M  V30 1948 H 186.159 -3.97352 -1.24165 0
M  V30 1949 H 186.692 -3.95166 0.456988 0
M  V30 1950 H 183.431 -5.99559 2.64971 0
M  V30 1951 H 182.951 -5.9241 0.938611 0
M  V30 1952 H 184.63 -6.32085 1.3812 0
M  V30 1953 N 184.763 -0.387143 -1.52771 0
M  V30 1954 C 186.179 -0.037007 -1.59557 0
M  V30 1955 C 186.379 1.44801 -1.40124 0
M  V30 1956 O 185.435 2.21227 -1.21716 0
M  V30 1957 C 186.748 -0.512256 -2.96305 0
M  V30 1958 C 188.296 -0.468328 -3.09476 0
M  V30 1959 C 188.771 -0.919731 -4.4867 0
M  V30 1960 N 190.262 -0.875656 -4.54848 0
M  V30 1961 C 190.997 -1.19637 -5.6078 0
M  V30 1962 N 190.493 -1.58745 -6.74368 0
M  V30 1963 N 192.286 -1.11776 -5.50874 0
M  V30 1964 H 184.437 -1.35395 -1.63652 0
M  V30 1965 H 186.7 -0.554818 -0.768688 0
M  V30 1966 H 186.406 -1.54935 -3.15734 0
M  V30 1967 H 186.28 0.089805 -3.77093 0
M  V30 1968 H 188.667 0.559671 -2.89744 0
M  V30 1969 H 188.748 -1.10616 -2.30646 0
M  V30 1970 H 188.392 -1.94595 -4.69143 0
M  V30 1971 H 188.322 -0.258927 -5.25963 0
M  V30 1972 H 190.813 -0.587843 -3.733 0
M  V30 1973 H 191.126 -1.81586 -7.51163 0
M  V30 1974 H 189.471 -1.6263 -6.75705 0
M  V30 1975 H 192.662 -0.811264 -4.61016 0
M  V30 1976 H 192.835 -1.37103 -6.3333 0
M  V30 1977 N 186.241 1.57166 -0.116904 0
M  V30 1978 C 187.466 1.999 0.55271 0
M  V30 1979 C 187.891 0.996039 1.59564 0
M  V30 1980 O 187.249 -0.032556 1.81271 0
M  V30 1981 C 187.297 3.4152 1.15742 0
M  V30 1982 O 186.401 3.44106 2.27299 0
M  V30 1983 H 185.742 0.649447 0.138258 0
M  V30 1984 H 188.272 2.03573 -0.204759 0
M  V30 1985 H 188.282 3.79684 1.49346 0
M  V30 1986 H 186.957 4.14034 0.393493 0
M  V30 1987 H 185.534 3.17759 1.9515 0
M  V30 1988 N 187.719 -0.156864 1.56817 0
M  V30 1989 C 188.996 -0.899244 1.73704 0
M  V30 1990 C 189.376 -1.99771 0.682254 0
M  V30 1991 O 188.724 -2.26515 -0.300522 0
M  V30 1992 C 188.934 -1.45075 3.17418 0
M  V30 1993 C 190.282 -1.91802 3.7881 0
M  V30 1994 O 191.306 -1.54838 3.20786 0
M  V30 1995 O 190.165 -2.5994 4.80722 0
M  V30 1996 H 187.259 -0.424267 0.709878 0
M  V30 1997 H 189.805 -0.143561 1.69092 0
M  V30 1998 H 188.577 -0.660846 3.85679 0
M  V30 1999 H 188.2 -2.27021 3.26416 0
M  V30 2000 N 189.197 -1.51736 -0.425897 0
M  V30 2001 C 190.147 -1.70258 -1.51645 0
M  V30 2002 C 191.131 -0.556488 -1.5097 0
M  V30 2003 O 192.323 -0.812879 -1.5723 0
M  V30 2004 C 189.452 -1.84143 -2.89735 0
M  V30 2005 C 188.538 -3.04572 -2.95122 0
M  V30 2006 N 188.929 -4.2756 -2.70233 0
M  V30 2007 C 187.227 -3.04061 -3.26286 0
M  V30 2008 C 187.928 -5.08908 -2.81757 0
M  V30 2009 N 186.904 -4.43797 -3.13919 0
M  V30 2010 H 190.706 -2.63004 -1.31172 0
M  V30 2011 H 188.22 -1.4954 -0.633375 0
M  V30 2012 H 190.217 -1.95525 -3.68206 0
M  V30 2013 H 188.877 -0.925857 -3.1122 0
M  V30 2014 H 189.888 -4.56315 -2.44943 0
M  V30 2015 H 186.565 -2.22179 -3.53473 0
M  V30 2016 H 187.955 -6.16843 -2.66372 0
M  V30 2017 N 190.675 0.682077 -1.42076 0
M  V30 2018 C 191.924 1.43786 -1.41451 0
M  V30 2019 C 192.237 1.95574 -0.0317074 0
M  V30 2020 O 193.443 2.71326 0.0971462 0
M  V30 2021 C 191.899 2.60071 -2.48779 0
M  V30 2022 C 191.507 2.15013 -3.93031 0
M  V30 2023 C 193.251 3.37626 -2.57311 0
M  V30 2024 C 191.158 3.28336 -4.91883 0
M  V30 2025 H 190.088 0.540143 -0.526082 0
M  V30 2026 H 192.739 0.739157 -1.67955 0
M  V30 2027 H 191.121 3.32275 -2.15429 0
M  V30 2028 H 192.295 1.5001 -4.35699 0
M  V30 2029 H 190.61 1.50416 -3.88284 0
M  V30 2030 H 193.207 4.22012 -3.28345 0
M  V30 2031 H 193.55 3.83727 -1.61429 0
M  V30 2032 H 194.083 2.72488 -2.89819 0
M  V30 2033 H 190.822 2.87234 -5.89217 0
M  V30 2034 H 190.342 3.92145 -4.53853 0
M  V30 2035 H 192.021 3.93913 -5.13265 0
M  V30 2036 N 192.153 1.28127 0.917671 0
M  V30 2037 C 193.378 1.18007 1.70555 0
M  V30 2038 C 193.803 -0.258257 1.86319 0
M  V30 2039 O 193.161 -1.1869 1.37049 0
M  V30 2040 C 193.209 1.87948 3.07746 0
M  V30 2041 O 192.313 1.18427 3.9503 0
M  V30 2042 H 191.654 0.409867 0.522403 0
M  V30 2043 H 194.184 1.69379 1.1477 0
M  V30 2044 H 194.194 1.95701 3.58001 0
M  V30 2045 H 192.869 2.92573 2.95591 0
M  V30 2046 H 191.446 1.18811 3.53466 0
M  V30 2047 N 193.631 -1.12557 1.10312 0
M  V30 2048 C 194.871 -1.8568 0.854543 0
M  V30 2049 C 195.235 -1.82091 -0.608843 0
M  V30 2050 O 196.436 -2.50544 -0.973717 0
M  V30 2051 C 194.707 -3.2942 1.38626 0
M  V30 2052 S 196.266 -4.19931 1.27293 0
M  V30 2053 H 193.084 -0.640427 0.308827 0
M  V30 2054 H 195.686 -1.35599 1.40831 0
M  V30 2055 H 194.39 -3.2959 2.44537 0
M  V30 2056 H 193.921 -3.84566 0.82902 0
M  V30 2057 H 195.936 -4.95668 0.229776 0
M  V30 2058 N 195.109 -0.891671 -1.2995 0
M  V30 2059 C 196.358 -0.509521 -1.95158 0
M  V30 2060 C 196.671 0.947388 -1.71125 0
M  V30 2061 O 197.877 1.43669 -2.30372 0
M  V30 2062 C 196.333 -0.860315 -3.49466 0
M  V30 2063 C 195.941 -2.33545 -3.8231 0
M  V30 2064 C 197.685 -0.547687 -4.20952 0
M  V30 2065 C 195.592 -2.62752 -5.29826 0
M  V30 2066 H 194.522 -0.18682 -0.730489 0
M  V30 2067 H 197.173 -1.08756 -1.47798 0
M  V30 2068 H 195.555 -0.211285 -3.95436 0
M  V30 2069 H 196.729 -3.02936 -3.47227 0
M  V30 2070 H 195.044 -2.61629 -3.23944 0
M  V30 2071 H 197.641 -0.742854 -5.29515 0
M  V30 2072 H 197.984 0.51332 -4.13123 0
M  V30 2073 H 198.517 -1.1542 -3.80688 0
M  V30 2074 H 195.256 -3.6762 -5.42712 0
M  V30 2075 H 194.776 -1.97977 -5.66185 0
M  V30 2076 H 196.455 -2.48601 -5.97333 0
M  V30 2077 N 196.587 1.43421 -0.653314 0
M  V30 2078 C 197.836 2.01032 -0.164076 0
M  V30 2079 C 198.149 1.52147 1.22926 0
M  V30 2080 O 199.355 2.02031 1.81371 0
M  V30 2081 C 197.811 3.59082 -0.24252 0
M  V30 2082 C 197.419 4.1696 -1.63855 0
M  V30 2083 C 199.163 4.24079 0.18911 0
M  V30 2084 C 197.07 5.67304 -1.67092 0
M  V30 2085 H 196 0.751798 -0.0575769 0
M  V30 2086 H 198.651 1.6439 -0.815362 0
M  V30 2087 H 197.033 3.93125 0.476276 0
M  V30 2088 H 198.207 3.94416 -2.38271 0
M  V30 2089 H 196.522 3.64335 -2.01616 0
M  V30 2090 H 199.119 5.34381 0.184775 0
M  V30 2091 H 199.462 3.98005 1.22056 0
M  V30 2092 H 199.995 3.94918 -0.477938 0
M  V30 2093 H 196.734 5.98145 -2.68146 0
M  V30 2094 H 196.254 5.91904 -0.970014 0
M  V30 2095 H 197.933 6.31344 -1.4147 0
M  V30 2096 N 198.065 0.39524 1.52563 0
M  V30 2097 C 198.997 -0.472201 2.24283 0
M  V30 2098 C 200.01 -1.02178 1.26742 0
M  V30 2099 O 201.199 -0.923097 1.52778 0
M  V30 2100 C 198.299 -1.66775 2.95024 0
M  V30 2101 C 197.472 -1.2445 4.19322 0
M  V30 2102 C 196.531 -2.30539 4.7301 0
M  V30 2103 O 195.557 -1.91702 5.35947 0
M  V30 2104 N 196.759 -3.6253 4.53379 0
M  V30 2105 H 199.524 0.142282 2.99362 0
M  V30 2106 H 197.085 0.2219 1.60372 0
M  V30 2107 H 199.077 -2.37283 3.27839 0
M  V30 2108 H 197.647 -2.18845 2.23217 0
M  V30 2109 H 196.867 -0.368069 3.92478 0
M  V30 2110 H 198.155 -0.938457 5.0007 0
M  V30 2111 H 197.553 -3.96841 4.03154 0
M  V30 2112 H 196.11 -4.29055 4.90668 0
M  V30 2113 N 199.544 -1.57102 0.125237 0
M  V30 2114 C 200.476 -2.12726 -0.853237 0
M  V30 2115 C 201.489 -1.07145 -1.22571 0
M  V30 2116 O 202.678 -1.34497 -1.17358 0
M  V30 2117 C 199.778 -2.61709 -2.15317 0
M  V30 2118 C 198.951 -3.91456 -1.95143 0
M  V30 2119 C 198.01 -4.25973 -3.08923 0
M  V30 2120 O 197.036 -4.94682 -2.81564 0
M  V30 2121 N 198.238 -3.83795 -4.35524 0
M  V30 2122 H 201.003 -2.97307 -0.377964 0
M  V30 2123 H 198.564 -1.61792 -0.0590011 0
M  V30 2124 H 200.556 -2.81826 -2.90441 0
M  V30 2125 H 199.126 -1.81974 -2.54174 0
M  V30 2126 H 198.346 -3.80185 -1.04177 0
M  V30 2127 H 199.634 -4.76283 -1.78976 0
M  V30 2128 H 199.032 -3.2839 -4.60626 0
M  V30 2129 H 197.589 -4.09008 -5.07499 0
M  V30 2130 N 201.022 0.148545 -1.56898 0
M  V30 2131 C 201.932 1.20293 -2.01412 0
M  V30 2132 C 202.948 1.47107 -0.929273 0
M  V30 2133 O 204.124 1.58807 -1.23863 0
M  V30 2134 C 201.189 2.51682 -2.38447 0
M  V30 2135 C 200.25 2.32529 -3.60872 0
M  V30 2136 C 199.483 3.57653 -3.96132 0
M  V30 2137 O 199.706 4.63771 -3.32073 0
M  V30 2138 O 198.64 3.50408 -4.89385 0
M  V30 2139 H 202.466 0.855025 -2.91416 0
M  V30 2140 H 200.051 0.357151 -1.45068 0
M  V30 2141 H 201.933 3.29147 -2.63135 0
M  V30 2142 H 200.608 2.86006 -1.51599 0
M  V30 2143 H 199.515 1.53019 -3.41373 0
M  V30 2144 H 200.848 2.03121 -4.48333 0
M  V30 2145 N 202.5 1.5196 0.417844 0
M  V30 2146 C 203.916 1.40569 0.755816 0
M  V30 2147 C 204.116 0.503316 1.95113 0
M  V30 2148 O 203.172 -0.0341925 2.52477 0
M  V30 2149 C 204.485 2.82947 1.01791 0
M  V30 2150 C 206.033 2.92231 1.12116 0
M  V30 2151 C 206.508 4.35559 1.41608 0
M  V30 2152 N 207.999 4.38753 1.48491 0
M  V30 2153 C 208.734 5.46705 1.7292 0
M  V30 2154 N 208.23 6.64788 1.95011 0
M  V30 2155 N 210.023 5.34209 1.74863 0
M  V30 2156 H 202.174 2.09168 -0.369098 0
M  V30 2157 H 204.437 0.942409 -0.102809 0
M  V30 2158 H 204.143 3.5106 0.212081 0
M  V30 2159 H 204.017 3.23462 1.94042 0
M  V30 2160 H 206.404 2.24304 1.9176 0
M  V30 2161 H 206.485 2.55185 0.177225 0
M  V30 2162 H 206.129 5.04042 0.624848 0
M  V30 2163 H 206.059 4.70133 2.37239 0
M  V30 2164 H 208.55 3.5363 1.33244 0
M  V30 2165 H 208.863 7.42845 2.13076 0
M  V30 2166 H 207.208 6.67869 1.92293 0
M  V30 2167 H 210.399 4.40937 1.57137 0
M  V30 2168 H 210.572 6.18415 1.93563 0
M  V30 2169 N 203.978 -0.674533 1.42435 0
M  V30 2170 C 205.226 -1.43175 1.42637 0
M  V30 2171 C 205.547 -1.94951 0.0438992 0
M  V30 2172 O 204.817 -1.7308 -0.917607 0
M  V30 2173 H 203.397 -0.531307 0.525092 0
M  V30 2174 H 206.059 -0.797006 1.77859 0
M  V30 2175 H 205.155 -2.28463 2.12629 0
M  V30 2176 N 205.456 -1.28612 -0.910864 0
M  V30 2177 C 206.404 -1.1265 -2.03501 0
M  V30 2178 C 207.398 -0.0450054 -1.6934 0
M  V30 2179 O 208.604 -0.203988 -1.7884 0
M  V30 2180 H 204.979 -0.347639 -0.666822 0
M  V30 2181 H 206.95 -2.07849 -2.14106 0
M  V30 2182 C 205.699 -0.808143 -3.38178 0
M  V30 2183 H 205.022 -1.63231 -3.6496 0
M  V30 2184 H 206.462 -0.736426 -4.17556 0
M  V30 2185 C 204.921 0.488226 -3.33344 0
M  V30 2186 O 205.451 1.51766 -3.71927 0
M  V30 2187 N 203.657 0.490009 -2.86439 0
M  V30 2188 H 203.204 -0.348161 -2.55236 0
M  V30 2189 H 203.162 1.35741 -2.83587 0
M  V30 2190 N 206.934 1.1197 -1.10907 0
M  V30 2191 C 208.345 1.65114 -0.871446 0
M  V30 2192 C 208.696 1.86885 0.597353 0
M  V30 2193 O 207.821 1.59896 1.45816 0
M  V30 2194 C 208.416 2.99944 -1.5754 0
M  V30 2195 C 206.975 3.50018 -1.38435 0
M  V30 2196 C 206.122 2.24941 -1.62164 0
M  V30 2197 H 209.073 0.956851 -1.2661 0
M  V30 2198 H 209.094 3.66651 -1.01721 0
M  V30 2199 H 208.606 2.84067 -2.64438 0
M  V30 2200 H 206.707 3.71071 -0.337214 0
M  V30 2201 H 206.82 4.29165 -2.12965 0
M  V30 2202 H 205.184 2.3229 -1.04467 0
M  V30 2203 H 205.967 2.11612 -2.70324 0
M  V30 2204 N 208.412 0.89855 1.29475 0
M  V30 2205 C 209.322 0.379974 2.31502 0
M  V30 2206 C 210.338 -0.524695 1.659 0
M  V30 2207 O 211.514 -0.414551 1.97087 0
M  V30 2208 C 208.579 -0.385138 3.44554 0
M  V30 2209 C 207.64 0.550914 4.2575 0
M  V30 2210 C 206.873 -0.177778 5.33404 0
M  V30 2211 O 207.096 -1.40189 5.52904 0
M  V30 2212 O 206.03 0.479106 5.9999 0
M  V30 2213 H 209.856 1.22639 2.77837 0
M  V30 2214 H 207.441 0.662834 1.33891 0
M  V30 2215 H 209.323 -0.817841 4.13388 0
M  V30 2216 H 207.998 -1.20763 3.0033 0
M  V30 2217 H 206.905 1.03271 3.59564 0
M  V30 2218 H 208.238 1.33979 4.73614 0
M  V30 2219 N 209.89 -1.43072 0.660911 0
M  V30 2220 C 211.115 -2.06584 0.183805 0
M  V30 2221 C 211.54 -1.49257 -1.14472 0
M  V30 2222 O 210.898 -0.605528 -1.70889 0
M  V30 2223 C 210.946 -3.60418 0.114434 0
M  V30 2224 O 210.05 -4.01981 -0.921137 0
M  V30 2225 H 209.391 -0.656669 0.0983994 0
M  V30 2226 H 211.921 -1.83447 0.906006 0
M  V30 2227 H 211.931 -4.07946 -0.0663394 0
M  V30 2228 H 210.606 -4.01519 1.08422 0
M  V30 2229 H 209.183 -3.66029 -0.71253 0
M  V30 2230 N 211.368 -0.403325 -1.52352 0
M  V30 2231 C 212.3 0.4603 -2.2453 0
M  V30 2232 C 213.313 1.01505 -1.27282 0
M  V30 2233 O 214.502 0.914982 -1.53266 0
M  V30 2234 C 211.602 1.65208 -2.95905 0
M  V30 2235 C 210.775 1.22224 -4.19976 0
M  V30 2236 C 209.834 2.28028 -4.74226 0
M  V30 2237 O 208.86 1.88857 -5.36956 0
M  V30 2238 N 210.062 3.6012 -4.55295 0
M  V30 2239 H 212.827 -0.158156 -2.99282 0
M  V30 2240 H 210.388 -0.230402 -1.60252 0
M  V30 2241 H 212.38 2.35541 -3.29093 0
M  V30 2242 H 210.95 2.17658 -2.24374 0
M  V30 2243 H 210.17 0.34725 -3.92668 0
M  V30 2244 H 211.458 0.911924 -5.00561 0
M  V30 2245 H 210.856 3.94698 -4.05253 0
M  V30 2246 H 209.413 4.26447 -4.92936 0
M  V30 2247 N 212.846 1.57033 -0.133567 0
M  V30 2248 C 213.756 2.19632 0.824564 0
M  V30 2249 C 214.772 1.17666 1.28182 0
M  V30 2250 O 215.948 1.50193 1.3418 0
M  V30 2251 C 213.013 2.79499 2.05137 0
M  V30 2252 C 212.074 3.96548 1.64464 0
M  V30 2253 C 211.307 4.5355 2.81297 0
M  V30 2254 O 211.53 4.09438 3.97136 0
M  V30 2255 O 210.464 5.44018 2.57542 0
M  V30 2256 H 214.29 3.01991 0.321766 0
M  V30 2257 H 211.875 1.49112 0.0927889 0
M  V30 2258 H 213.757 3.17602 2.7696 0
M  V30 2259 H 212.432 2.00162 2.54395 0
M  V30 2260 H 211.339 3.63186 0.897048 0
M  V30 2261 H 212.672 4.77364 1.19934 0
M  V30 2262 N 214.325 -0.140222 1.56975 0
M  V30 2263 C 215.572 -0.851687 1.83719 0
M  V30 2264 C 215.9 -1.80862 0.715485 0
M  V30 2265 O 215.155 -1.93464 -0.294956 0
M  V30 2266 C 215.454 -1.65386 3.16832 0
M  V30 2267 C 215.12 -0.843112 4.42947 0
M  V30 2268 C 213.782 -0.619464 4.77196 0
M  V30 2269 C 216.134 -0.276582 5.20466 0
M  V30 2270 C 213.462 0.181312 5.8642 0
M  V30 2271 C 215.814 0.51127 6.30531 0
M  V30 2272 C 214.478 0.745432 6.63325 0
M  V30 2273 H 213.748 -0.311654 0.672274 0
M  V30 2274 H 216.395 -0.115006 1.91154 0
M  V30 2275 H 214.7 -2.46084 3.04877 0
M  V30 2276 H 216.397 -2.20793 3.34741 0
M  V30 2277 H 212.987 -1.0275 4.16101 0
M  V30 2278 H 217.171 -0.436632 4.94376 0
M  V30 2279 H 212.427 0.372165 6.10266 0
M  V30 2280 H 216.601 0.957354 6.89788 0
M  V30 2281 H 214.228 1.36778 7.47794 0
M  V30 2282 N 215.803 -1.52179 -0.40978 0
M  V30 2283 C 217.08 -1.56769 -1.16974 0
M  V30 2284 C 217.46 -0.348322 -2.08206 0
M  V30 2285 O 216.808 0.664862 -2.18613 0
M  V30 2286 C 217.018 -2.89603 -1.9476 0
M  V30 2287 C 218.366 -3.42579 -2.50849 0
M  V30 2288 O 219.39 -2.91338 -2.04941 0
M  V30 2289 O 218.249 -4.32054 -3.34652 0
M  V30 2290 H 215.343 -0.631439 -0.534054 0
M  V30 2291 H 217.889 -1.64507 -0.416613 0
M  V30 2292 H 216.661 -3.698 -1.27921 0
M  V30 2293 H 216.284 -2.85155 -2.77079 0
M  V30 2294 N 217.281 0.66697 -1.42791 0
M  V30 2295 C 218.527 1.4291 -1.43891 0
M  V30 2296 C 218.86 1.94114 -0.0578972 0
M  V30 2297 O 218.135 1.71414 0.91911 0
M  V30 2298 C 218.418 2.62049 -2.46987 0
M  V30 2299 C 218.271 2.16426 -3.94309 0
M  V30 2300 C 219.59 3.64266 -2.46978 0
M  V30 2301 H 216.709 0.518306 -0.523954 0
M  V30 2302 H 219.351 0.757321 -1.74255 0
M  V30 2303 H 217.501 3.19361 -2.21225 0
M  V30 2304 H 219.173 1.64221 -4.31079 0
M  V30 2305 H 217.416 1.47925 -4.078 0
M  V30 2306 H 218.087 3.02038 -4.62036 0
M  V30 2307 H 220.563 3.16686 -2.69906 0
M  V30 2308 H 219.439 4.45196 -3.21079 0
M  V30 2309 H 219.7 4.15927 -1.49857 0
M  V30 2310 N 218.759 1.29093 0.90403 0
M  V30 2311 C 220.005 1.16986 1.65656 0
M  V30 2312 C 220.338 -0.278925 1.92186 0
M  V30 2313 O 219.613 -1.2019 1.5292 0
M  V30 2314 C 219.896 1.97908 3.0084 0
M  V30 2315 C 219.749 3.50903 2.81403 0
M  V30 2316 C 221.068 1.80208 4.01513 0
M  V30 2317 H 218.187 0.426346 0.601164 0
M  V30 2318 H 220.829 1.58518 1.04747 0
M  V30 2319 H 218.979 1.62616 3.52829 0
M  V30 2320 H 220.651 3.96153 2.36348 0
M  V30 2321 H 218.894 3.76045 2.1627 0
M  V30 2322 H 219.565 4.02791 3.77443 0
M  V30 2323 H 222.041 2.11025 3.58619 0
M  V30 2324 H 220.917 2.39184 4.94047 0
M  V30 2325 H 221.178 0.756119 4.35586 0
M  V30 2326 N 220.237 -1.11381 1.11499 0
M  V30 2327 C 221.653 -1.35143 0.849031 0
M  V30 2328 C 221.853 -1.94515 -0.525938 0
M  V30 2329 O 220.909 -2.1785 -1.27662 0
M  V30 2330 C 222.222 -2.28249 1.95762 0
M  V30 2331 C 223.77 -2.41812 1.98736 0
M  V30 2332 C 224.245 -3.3824 3.088 0
M  V30 2333 N 225.736 -3.45803 3.08179 0
M  V30 2334 C 226.471 -4.20358 3.89982 0
M  V30 2335 N 225.967 -4.97884 4.8175 0
M  V30 2336 N 227.76 -4.15877 3.78157 0
M  V30 2337 H 219.911 -0.712062 2.00109 0
M  V30 2338 H 222.174 -0.376025 0.870235 0
M  V30 2339 H 221.88 -1.91817 2.94787 0
M  V30 2340 H 221.754 -3.28473 1.85433 0
M  V30 2341 H 224.141 -2.77518 1.00338 0
M  V30 2342 H 224.222 -1.41437 2.13141 0
M  V30 2343 H 223.866 -3.03261 4.07425 0
M  V30 2344 H 223.796 -4.38471 2.91635 0
M  V30 2345 H 226.287 -2.90506 2.41691 0
M  V30 2346 H 226.6 -5.52142 5.40702 0
M  V30 2347 H 224.945 -4.97043 4.85771 0
M  V30 2348 H 228.136 -3.544 3.05808 0
M  V30 2349 H 228.309 -4.73723 4.42143 0
M  V30 2350 N 221.715 -0.905404 -1.28997 0
M  V30 2351 C 222.964 -0.530191 -1.94607 0
M  V30 2352 C 223.277 0.929185 -1.72121 0
M  V30 2353 O 224.483 1.41218 -2.31883 0
M  V30 2354 C 222.939 -0.897333 -3.48534 0
M  V30 2355 C 222.547 -2.37587 -3.79811 0
M  V30 2356 C 224.291 -0.592304 -4.20347 0
M  V30 2357 C 222.198 -2.68357 -5.27009 0
M  V30 2358 H 221.128 -0.194558 -0.728466 0
M  V30 2359 H 223.779 -1.10318 -1.46636 0
M  V30 2360 H 222.161 -0.253214 -3.9519 0
M  V30 2361 H 223.335 -3.06602 -3.43994 0
M  V30 2362 H 221.65 -2.6505 -3.2115 0
M  V30 2363 H 224.247 -0.798975 -5.28697 0
M  V30 2364 H 224.59 0.469474 -4.13644 0
M  V30 2365 H 225.123 -1.19452 -3.79442 0
M  V30 2366 H 221.862 -3.73355 -5.38782 0
M  V30 2367 H 221.382 -2.03971 -5.64053 0
M  V30 2368 H 223.061 -2.54922 -5.94663 0
M  V30 2369 N 223.193 1.4272 -0.668489 0
M  V30 2370 C 224.418 2.06484 -0.194758 0
M  V30 2371 C 224.843 1.49862 1.13679 0
M  V30 2372 O 224.201 0.614582 1.70565 0
M  V30 2373 C 224.249 3.60353 -0.133546 0
M  V30 2374 O 223.353 4.02464 0.899806 0
M  V30 2375 H 222.694 0.656137 -0.10188 0
M  V30 2376 H 225.224 1.82964 -0.915722 0
M  V30 2377 H 225.234 4.07976 0.0447041 0
M  V30 2378 H 223.909 4.00938 -1.1055 0
M  V30 2379 H 222.486 3.66402 0.693109 0
M  V30 2380 N 224.671 0.411399 1.52136 0
M  V30 2381 C 225.581 -0.419774 2.30814 0
M  V30 2382 C 226.597 -1.0515 1.38634 0
M  V30 2383 O 227.773 -1.05252 1.71709 0
M  V30 2384 C 224.838 -1.52019 3.11594 0
M  V30 2385 C 223.899 -0.91129 4.19516 0
M  V30 2386 C 223.132 -1.95927 4.96436 0
M  V30 2387 O 223.355 -3.17775 4.73683 0
M  V30 2388 O 222.289 -1.56423 5.81219 0
M  V30 2389 H 226.115 0.221805 3.02889 0
M  V30 2390 H 223.7 0.174547 1.48377 0
M  V30 2391 H 225.582 -2.15898 3.61892 0
M  V30 2392 H 224.257 -2.14633 2.42311 0
M  V30 2393 H 223.164 -0.235157 3.7336 0
M  V30 2394 H 224.497 -0.32904 4.91099 0
M  V30 2395 N 226.149 -1.5696 0.141893 0
M  V30 2396 C 227.079 -2.19516 -0.795936 0
M  V30 2397 C 228.06 -1.14187 -1.26077 0
M  V30 2398 O 229.245 -1.42511 -1.31925 0
M  V30 2399 C 226.375 -2.81272 -2.03723 0
M  V30 2400 C 225.329 -3.92384 -1.70936 0
M  V30 2401 C 224.655 -4.41052 -3.02287 0
M  V30 2402 C 225.955 -5.13403 -0.959954 0
M  V30 2403 H 227.649 -2.98138 -0.274596 0
M  V30 2404 H 225.195 -1.43406 -0.130636 0
M  V30 2405 H 227.148 -3.237 -2.69808 0
M  V30 2406 H 225.872 -1.99973 -2.58221 0
M  V30 2407 H 224.531 -3.50566 -1.07232 0
M  V30 2408 H 224.179 -3.56582 -3.54765 0
M  V30 2409 H 223.879 -5.15993 -2.81114 0
M  V30 2410 H 225.403 -4.86146 -3.69451 0
M  V30 2411 H 226.817 -5.52706 -1.52279 0
M  V30 2412 H 225.214 -5.94073 -0.848357 0
M  V30 2413 H 226.284 -4.84875 0.0492434 0
M  V30 2414 N 227.627 0.131896 -1.57047 0
M  V30 2415 C 228.574 1.16236 -1.99393 0
M  V30 2416 C 229.544 1.41863 -0.863943 0
M  V30 2417 O 230.729 1.53946 -1.12718 0
M  V30 2418 C 227.869 2.48708 -2.39245 0
M  V30 2419 C 226.982 2.30127 -3.65603 0
M  V30 2420 C 226.117 3.55738 -3.94492 0
M  V30 2421 C 225.156 3.32259 -5.14073 0
M  V30 2422 N 224.293 4.50039 -5.38896 0
M  V30 2423 H 229.133 0.794251 -2.87221 0
M  V30 2424 H 226.67 0.380707 -1.42088 0
M  V30 2425 H 228.628 3.25969 -2.60384 0
M  V30 2426 H 227.258 2.83437 -1.54478 0
M  V30 2427 H 226.31 1.43845 -3.52154 0
M  V30 2428 H 227.622 2.08746 -4.5302 0
M  V30 2429 H 226.776 4.41423 -4.1621 0
M  V30 2430 H 225.515 3.80138 -3.05526 0
M  V30 2431 H 224.52 2.44963 -4.92212 0
M  V30 2432 H 225.745 3.09242 -6.04604 0
M  V30 2433 H 223.691 4.74584 -4.52886 0
M  V30 2434 H 223.608 4.31716 -6.2061 0
M  V30 2435 H 224.876 5.36895 -5.65123 0
M  V30 2436 N 229.106 1.52395 0.401703 0
M  V30 2437 C 230.039 1.70999 1.51111 0
M  V30 2438 C 231.017 0.55765 1.52738 0
M  V30 2439 O 232.201 0.785912 1.71335 0
M  V30 2440 C 229.328 1.75607 2.8962 0
M  V30 2441 C 228.374 2.97227 3.05873 0
M  V30 2442 S 229.207 4.57439 2.78405 0
M  V30 2443 C 230.363 4.64844 4.19131 0
M  V30 2444 H 230.596 2.6483 1.35102 0
M  V30 2445 H 228.129 1.42527 0.593762 0
M  V30 2446 H 230.087 1.78947 3.69443 0
M  V30 2447 H 228.748 0.828914 3.02965 0
M  V30 2448 H 227.941 2.96955 4.07227 0
M  V30 2449 H 227.543 2.91813 2.33925 0
M  V30 2450 H 229.835 4.42677 5.12877 0
M  V30 2451 H 230.778 5.66807 4.24424 0
M  V30 2452 H 231.186 3.93804 4.04448 0
M  V30 2453 N 230.584 -0.659388 1.43143 0
M  V30 2454 C 231.514 -1.78422 1.50625 0
M  V30 2455 C 232.495 -1.66216 0.361443 0
M  V30 2456 O 233.68 -1.85404 0.577834 0
M  V30 2457 C 230.81 -3.16815 1.42287 0
M  V30 2458 C 229.764 -3.43777 2.54954 0
M  V30 2459 C 229.09 -4.81905 2.31671 0
M  V30 2460 C 230.39 -3.39134 3.97222 0
M  V30 2461 H 232.084 -1.72417 2.44771 0
M  V30 2462 H 229.63 -0.828084 1.17808 0
M  V30 2463 H 231.583 -3.95253 1.46127 0
M  V30 2464 H 230.307 -3.23534 0.446435 0
M  V30 2465 H 228.966 -2.67707 2.50457 0
M  V30 2466 H 228.614 -4.85294 1.32284 0
M  V30 2467 H 228.314 -5.00906 3.07192 0
M  V30 2468 H 229.838 -5.62609 2.37284 0
M  V30 2469 H 231.252 -4.07518 4.03239 0
M  V30 2470 H 229.649 -3.69671 4.72719 0
M  V30 2471 H 230.719 -2.37426 4.22797 0
M  V30 2472 N 232.062 -1.29571 -0.897171 0
M  V30 2473 C 233.29 -1.20583 -1.68129 0
M  V30 2474 C 233.705 0.233181 -1.87354 0
M  V30 2475 O 233.062 1.15579 -1.41236 0
M  V30 2476 C 233.113 -1.91772 -3.06441 0
M  V30 2477 O 232.834 -3.30053 -2.88091 0
M  V30 2478 C 234.335 -1.89291 -4.00854 0
M  V30 2479 H 231.555 -0.417826 -0.525036 0
M  V30 2480 H 234.099 -1.70987 -1.12177 0
M  V30 2481 H 232.254 -1.45196 -3.59161 0
M  V30 2482 H 232.668 -3.65942 -3.75748 0
M  V30 2483 H 234.142 -2.43662 -4.95311 0
M  V30 2484 H 234.619 -0.869014 -4.30517 0
M  V30 2485 H 235.225 -2.35622 -3.54066 0
M  V30 2486 N 233.54 1.10788 -1.12088 0
M  V30 2487 C 234.47 2.19083 -0.807755 0
M  V30 2488 C 235.451 1.6858 0.226859 0
M  V30 2489 O 236.636 1.93997 0.0888475 0
M  V30 2490 C 233.766 3.46344 -0.257576 0
M  V30 2491 C 232.72 4.101 -1.22483 0
M  V30 2492 C 232.046 5.32016 -0.535052 0
M  V30 2493 C 233.346 4.54236 -2.57811 0
M  V30 2494 H 235.04 2.45534 -1.71328 0
M  V30 2495 H 232.586 1.1801 -0.825205 0
M  V30 2496 H 234.539 4.21392 -0.0262679 0
M  V30 2497 H 233.263 3.19373 0.683278 0
M  V30 2498 H 231.922 3.37054 -1.44189 0
M  V30 2499 H 231.57 5.01319 0.410827 0
M  V30 2500 H 231.27 5.75625 -1.18024 0
M  V30 2501 H 232.794 6.09799 -0.312695 0
M  V30 2502 H 234.208 5.20575 -2.40155 0
M  V30 2503 H 232.605 5.08682 -3.18375 0
M  V30 2504 H 233.675 3.6734 -3.16528 0
M  V30 2505 N 235.018 0.912232 1.28515 0
M  V30 2506 C 236.267 0.540504 1.94323 0
M  V30 2507 C 236.58 -0.920044 1.72611 0
M  V30 2508 O 237.786 -1.39986 2.32629 0
M  V30 2509 C 236.242 0.915803 3.48053 0
M  V30 2510 C 235.85 2.39598 3.78546 0
M  V30 2511 C 237.594 0.614588 4.20027 0
M  V30 2512 C 235.501 2.71148 5.25578 0
M  V30 2513 H 234.431 0.198418 0.727424 0
M  V30 2514 H 237.082 1.11094 1.46049 0
M  V30 2515 H 235.464 0.274168 3.9505 0
M  V30 2516 H 236.638 3.08422 3.42364 0
M  V30 2517 H 234.953 2.66749 3.1974 0
M  V30 2518 H 237.55 0.827002 5.28266 0
M  V30 2519 H 237.893 -0.447531 4.13887 0
M  V30 2520 H 238.426 1.21462 3.78803 0
M  V30 2521 H 235.165 3.76207 5.36794 0
M  V30 2522 H 234.685 2.0696 5.62963 0
M  V30 2523 H 236.364 2.58072 5.93302 0
M  V30 2524 N 236.496 -1.42363 0.676048 0
M  V30 2525 C 237.744 -2.01123 0.198437 0
M  V30 2526 C 238.065 -1.53731 -1.19966 0
M  V30 2527 O 237.335 -0.759518 -1.80577 0
M  V30 2528 H 235.915 -0.743678 0.0703721 0
M  V30 2529 H 238.577 -1.74263 0.872837 0
M  V30 2530 H 237.673 -3.11454 0.200686 0
M  V30 2531 N 237.974 -0.419461 -1.51915 0
M  V30 2532 C 239.22 0.153166 -2.02221 0
M  V30 2533 C 239.553 1.43907 -1.30401 0
M  V30 2534 O 238.828 1.90055 -0.413438 0
M  V30 2535 C 239.111 0.390291 -3.57979 0
M  V30 2536 C 238.964 -0.913014 -4.40436 0
M  V30 2537 C 240.283 1.16794 -4.2432 0
M  V30 2538 H 237.402 0.0541924 -0.735005 0
M  V30 2539 H 240.044 -0.554955 -1.81715 0
M  V30 2540 H 238.194 0.993491 -3.75582 0
M  V30 2541 H 239.866 -1.54882 -4.34522 0
M  V30 2542 H 238.109 -1.52168 -4.06236 0
M  V30 2543 H 238.78 -0.701361 -5.47526 0
M  V30 2544 H 241.256 0.657161 -4.10878 0
M  V30 2545 H 240.132 1.3026 -5.3322 0
M  V30 2546 H 240.393 2.19132 -3.83971 0
M  V30 2547 N 239.452 1.56882 -0.150215 0
M  V30 2548 C 240.699 1.96228 0.500093 0
M  V30 2549 C 241.027 1.03522 1.64661 0
M  V30 2550 O 240.282 0.0650683 1.95592 0
M  V30 2551 C 240.581 3.41801 1.04437 0
M  V30 2552 C 240.247 4.50897 0.0159671 0
M  V30 2553 C 238.909 4.8046 -0.266731 0
M  V30 2554 C 241.261 5.16703 -0.683192 0
M  V30 2555 C 238.589 5.73135 -1.25434 0
M  V30 2556 C 240.941 6.10441 -1.65964 0
M  V30 2557 C 239.605 6.38382 -1.95 0
M  V30 2558 H 238.875 0.718048 0.182997 0
M  V30 2559 H 241.522 1.90019 -0.237724 0
M  V30 2560 H 239.827 3.44857 1.85959 0
M  V30 2561 H 241.524 3.69573 1.55618 0
M  V30 2562 H 238.114 4.27891 0.246485 0
M  V30 2563 H 242.298 4.93993 -0.477983 0
M  V30 2564 H 237.554 5.93074 -1.48571 0
M  V30 2565 H 241.728 6.60507 -2.20689 0
M  V30 2566 H 239.355 7.09996 -2.71679 0
M  V30 2567 N 240.93 -0.123565 1.57115 0
M  V30 2568 C 242.158 -0.846461 1.88793 0
M  V30 2569 C 242.573 -1.73652 0.740976 0
M  V30 2570 O 241.93 -1.80207 -0.288393 0
M  V30 2571 C 241.981 -1.6837 3.19897 0
M  V30 2572 O 241.702 -0.829477 4.30176 0
M  V30 2573 C 243.203 -2.51214 3.65248 0
M  V30 2574 H 240.423 -0.243573 0.625231 0
M  V30 2575 H 242.967 -0.109324 2.04208 0
M  V30 2576 H 241.122 -2.37364 3.06165 0
M  V30 2577 H 241.536 -1.40651 5.0529 0
M  V30 2578 H 243.01 -3.05497 4.59756 0
M  V30 2579 H 243.487 -3.28359 2.9168 0
M  V30 2580 H 244.093 -1.8747 3.81752 0
M  V30 2581 N 242.408 -1.52605 -0.393616 0
M  V30 2582 C 243.655 -1.67424 -1.1391 0
M  V30 2583 C 243.983 -0.411859 -1.90089 0
M  V30 2584 O 243.238 0.605626 -1.86093 0
M  V30 2585 C 243.537 -2.85721 -2.14705 0
M  V30 2586 C 243.203 -4.23342 -1.55218 0
M  V30 2587 C 241.865 -4.60771 -1.3872 0
M  V30 2588 C 244.217 -5.09041 -1.11924 0
M  V30 2589 C 241.545 -5.81563 -0.774689 0
M  V30 2590 C 243.897 -6.30452 -0.520853 0
M  V30 2591 C 242.561 -6.66617 -0.343134 0
M  V30 2592 H 241.831 -0.612648 -0.416826 0
M  V30 2593 H 244.478 -1.8674 -0.424315 0
M  V30 2594 H 242.783 -2.60803 -2.92385 0
M  V30 2595 H 244.48 -2.94382 -2.72288 0
M  V30 2596 H 241.07 -3.93855 -1.69045 0
M  V30 2597 H 245.254 -4.80695 -1.23473 0
M  V30 2598 H 240.51 -6.08196 -0.625154 0
M  V30 2599 H 244.684 -6.96175 -0.177065 0
M  V30 2600 H 242.311 -7.60083 0.133571 0
M  V30 2601 N 243.887 0.651787 -1.4349 0
M  V30 2602 C 244.797 1.79368 -1.5121 0
M  V30 2603 C 245.813 1.69361 -0.399093 0
M  V30 2604 O 246.989 1.90505 -0.653431 0
M  V30 2605 C 244.054 3.15653 -1.43401 0
M  V30 2606 C 243.115 3.37446 -2.65384 0
M  V30 2607 C 242.348 4.67229 -2.57939 0
M  V30 2608 O 242.571 5.46676 -1.62792 0
M  V30 2609 O 241.505 4.90773 -3.48462 0
M  V30 2610 H 245.331 1.7581 -2.47638 0
M  V30 2611 H 242.916 0.810447 -1.25507 0
M  V30 2612 H 244.798 3.96935 -1.41494 0
M  V30 2613 H 243.473 3.19798 -0.501085 0
M  V30 2614 H 242.38 2.55923 -2.72863 0
M  V30 2615 H 243.713 3.38148 -3.57654 0
M  V30 2616 N 245.365 1.30045 0.890287 0
M  V30 2617 C 246.781 1.08261 1.17268 0
M  V30 2618 C 246.981 -0.160063 2.00863 0
M  V30 2619 O 246.037 -0.855181 2.37577 0
M  V30 2620 C 247.35 2.34323 1.8845 0
M  V30 2621 C 248.898 2.39735 2.01237 0
M  V30 2622 C 249.373 3.65625 2.7583 0
M  V30 2623 N 250.864 3.66402 2.83379 0
M  V30 2624 C 251.599 4.60498 3.41657 0
M  V30 2625 N 251.095 5.64933 4.01026 0
M  V30 2626 N 252.888 4.48051 3.39421 0
M  V30 2627 H 245.039 2.09777 0.332762 0
M  V30 2628 H 247.302 0.92446 0.209948 0
M  V30 2629 H 247.008 3.2498 1.34465 0
M  V30 2630 H 246.882 2.4256 2.88867 0
M  V30 2631 H 249.269 1.4956 2.54393 0
M  V30 2632 H 249.35 2.35476 0.999232 0
M  V30 2633 H 248.994 4.56156 2.23347 0
M  V30 2634 H 248.924 3.67144 3.77509 0
M  V30 2635 H 251.415 2.90896 2.41222 0
M  V30 2636 H 251.728 6.32841 4.43545 0
M  V30 2637 H 250.073 5.68732 3.99461 0
M  V30 2638 H 253.264 3.65649 2.92264 0
M  V30 2639 H 253.437 5.21565 3.84544 0
M  V30 2640 N 246.843 -1.10192 1.12674 0
M  V30 2641 C 247.773 -2.18652 0.819362 0
M  V30 2642 C 248.754 -1.68698 -0.217915 0
M  V30 2643 O 249.939 -1.94041 -0.0785581 0
M  V30 2644 C 247.069 -3.46202 0.27594 0
M  V30 2645 C 246.023 -4.09444 1.24656 0
M  V30 2646 C 245.349 -5.31725 0.563258 0
M  V30 2647 C 246.649 -4.52863 2.60217 0
M  V30 2648 H 248.343 -2.44622 1.72628 0
M  V30 2649 H 245.889 -1.17571 0.831451 0
M  V30 2650 H 247.842 -4.21372 0.0486149 0
M  V30 2651 H 246.566 -3.1973 -0.666331 0
M  V30 2652 H 245.225 -3.36284 1.45974 0
M  V30 2653 H 244.873 -5.0153 -0.384235 0
M  V30 2654 H 244.573 -5.74991 1.21075 0
M  V30 2655 H 246.097 -6.09624 0.34503 0
M  V30 2656 H 247.511 -5.19294 2.42913 0
M  V30 2657 H 245.908 -5.06986 3.21068 0
M  V30 2658 H 246.978 -3.65656 3.18471 0
M  V30 2659 N 248.321 -0.919034 -1.28029 0
M  V30 2660 C 249.268 -0.410005 -2.27129 0
M  V30 2661 C 250.238 0.518405 -1.57803 0
M  V30 2662 O 251.423 0.439451 -1.8567 0
M  V30 2663 C 248.563 0.339054 -3.4343 0
M  V30 2664 C 247.676 -0.622468 -4.27492 0
M  V30 2665 C 246.811 0.145567 -5.31001 0
M  V30 2666 C 245.85 -0.809226 -6.06727 0
M  V30 2667 N 244.987 -0.0743728 -7.02061 0
M  V30 2668 H 249.827 -1.26011 -2.70047 0
M  V30 2669 H 247.364 -0.632663 -1.328 0
M  V30 2670 H 249.322 0.789586 -4.0966 0
M  V30 2671 H 247.952 1.15346 -3.01488 0
M  V30 2672 H 247.004 -1.19153 -3.61257 0
M  V30 2673 H 248.316 -1.35252 -4.80113 0
M  V30 2674 H 247.47 0.656417 -6.03139 0
M  V30 2675 H 246.209 0.908643 -4.79161 0
M  V30 2676 H 245.214 -1.3314 -5.33436 0
M  V30 2677 H 246.439 -1.57194 -6.60656 0
M  V30 2678 H 244.385 0.670616 -6.52563 0
M  V30 2679 H 244.302 -0.744157 -7.52329 0
M  V30 2680 H 245.57 0.416109 -7.78389 0
M  V30 2681 N 249.799 1.42003 -0.683588 0
M  V30 2682 C 250.746 2.30798 -0.0107309 0
M  V30 2683 C 251.716 1.4645 0.783688 0
M  V30 2684 O 252.901 1.75263 0.754156 0
M  V30 2685 C 250.041 3.3238 0.928306 0
M  V30 2686 C 249.154 4.31814 0.126776 0
M  V30 2687 C 248.289 5.20468 1.06236 0
M  V30 2688 C 247.328 6.11577 0.253035 0
M  V30 2689 N 246.465 6.92754 1.14179 0
M  V30 2690 H 251.305 2.8778 -0.773727 0
M  V30 2691 H 248.842 1.41745 -0.393283 0
M  V30 2692 H 250.8 3.89813 1.48666 0
M  V30 2693 H 249.43 2.76976 1.65783 0
M  V30 2694 H 248.482 3.76427 -0.54833 0
M  V30 2695 H 249.794 4.96276 -0.501192 0
M  V30 2696 H 248.948 5.82677 1.69035 0
M  V30 2697 H 247.687 4.56204 1.7242 0
M  V30 2698 H 246.692 5.48428 -0.388108 0
M  V30 2699 H 247.917 6.77892 -0.404839 0
M  V30 2700 H 245.863 6.3111 1.78987 0
M  V30 2701 H 245.78 7.53855 0.569111 0
M  V30 2702 H 247.048 7.59441 1.75697 0
M  V30 2703 N 251.277 0.427512 1.51691 0
M  V30 2704 C 252.209 -0.424521 2.25234 0
M  V30 2705 C 253.222 -0.994671 1.2888 0
M  V30 2706 O 254.411 -0.890483 1.54702 0
M  V30 2707 C 251.511 -1.60479 2.98496 0
M  V30 2708 C 250.684 -1.15527 4.21868 0
M  V30 2709 C 249.743 -2.20454 4.77793 0
M  V30 2710 O 248.769 -1.8029 5.39893 0
M  V30 2711 N 249.971 -3.52831 4.60967 0
M  V30 2712 H 252.736 0.205749 2.98993 0
M  V30 2713 H 250.297 0.255867 1.59865 0
M  V30 2714 H 252.289 -2.30276 3.32799 0
M  V30 2715 H 250.859 -2.14061 2.27809 0
M  V30 2716 H 250.079 -0.284736 3.9317 0
M  V30 2717 H 251.367 -0.832173 5.01949 0
M  V30 2718 H 250.765 -3.88201 4.11481 0
M  V30 2719 H 249.322 -4.18551 4.99658 0
M  V30 2720 N 252.755 -1.56801 0.158532 0
M  V30 2721 C 253.985 -2.00568 -0.495583 0
M  V30 2722 C 254.393 -1.03774 -1.58201 0
M  V30 2723 O 253.736 -0.0285797 -1.83678 0
M  V30 2724 C 253.798 -3.40768 -1.14532 0
M  V30 2725 C 253.462 -4.56553 -0.202101 0
M  V30 2726 C 254.459 -5.16714 0.574675 0
M  V30 2727 C 252.144 -5.02197 -0.101648 0
M  V30 2728 C 254.138 -6.20939 1.43924 0
M  V30 2729 C 251.825 -6.06274 0.766508 0
M  V30 2730 C 252.823 -6.65515 1.53555 0
M  V30 2731 O 252.511 -7.67575 2.38922 0
M  V30 2732 H 252.243 -0.662893 -0.13247 0
M  V30 2733 H 254.797 -2.03829 0.253559 0
M  V30 2734 H 253.027 -3.34381 -1.94233 0
M  V30 2735 H 254.716 -3.6857 -1.70033 0
M  V30 2736 H 255.482 -4.82341 0.507167 0
M  V30 2737 H 251.361 -4.55807 -0.689994 0
M  V30 2738 H 254.905 -6.67107 2.03996 0
M  V30 2739 H 250.802 -6.40073 0.835266 0
M  V30 2740 H 251.57 -7.84844 2.32296 0
M  V30 2741 N 254.233 0.115231 -1.57178 0
M  V30 2742 C 255.479 0.82357 -1.85325 0
M  V30 2743 C 255.812 1.79349 -0.744814 0
M  V30 2744 O 255.087 1.92899 0.249024 0
M  V30 2745 C 255.37 1.57014 -3.24066 0
M  V30 2746 C 255.223 0.619565 -4.45513 0
M  V30 2747 C 256.542 2.52545 -3.60429 0
M  V30 2748 H 253.661 0.297948 -0.674089 0
M  V30 2749 H 256.303 0.0877138 -1.89797 0
M  V30 2750 H 254.453 2.19742 -3.20383 0
M  V30 2751 H 256.125 0.000837639 -4.613 0
M  V30 2752 H 254.368 -0.0686174 -4.33746 0
M  V30 2753 H 255.039 1.17866 -5.3927 0
M  V30 2754 H 257.515 1.9992 -3.64926 0
M  V30 2755 H 256.391 3.01811 -4.58477 0
M  V30 2756 H 256.652 3.35383 -2.88047 0
M  V30 2757 N 255.711 1.52812 0.385517 0
M  V30 2758 C 256.939 1.71907 1.15133 0
M  V30 2759 C 257.354 0.439004 1.83625 0
M  V30 2760 O 256.711 -0.586765 1.7281 0
M  V30 2761 C 256.762 2.87099 2.19673 0
M  V30 2762 O 256.483 4.10151 1.53973 0
M  V30 2763 C 257.984 3.17902 3.08955 0
M  V30 2764 H 255.204 0.575479 0.345057 0
M  V30 2765 H 257.748 1.99476 0.45052 0
M  V30 2766 H 255.903 2.61982 2.85384 0
M  V30 2767 H 256.317 4.74514 2.23465 0
M  V30 2768 H 257.791 4.01959 3.7833 0
M  V30 2769 H 258.268 2.3243 3.72657 0
M  V30 2770 H 258.874 3.44871 2.48885 0
M  V30 2771 N 257.189 -0.644168 1.43834 0
M  V30 2772 C 258.119 -1.76814 1.52509 0
M  V30 2773 C 259.1 -1.65823 0.379052 0
M  V30 2774 O 260.285 -1.84781 0.597466 0
M  V30 2775 C 257.415 -3.15288 1.4564 0
M  V30 2776 C 256.369 -3.41053 2.58586 0
M  V30 2777 C 255.695 -4.79421 2.36769 0
M  V30 2778 C 256.995 -3.34902 4.00797 0
M  V30 2779 H 258.689 -1.69812 2.46586 0
M  V30 2780 H 256.235 -0.815542 1.1868 0
M  V30 2781 H 258.188 -3.93681 1.50311 0
M  V30 2782 H 256.912 -3.23043 0.480725 0
M  V30 2783 H 255.571 -2.65035 2.53282 0
M  V30 2784 H 255.219 -4.83863 1.37424 0
M  V30 2785 H 254.919 -4.9762 3.12487 0
M  V30 2786 H 256.443 -5.6006 2.43238 0
M  V30 2787 H 257.857 -4.03218 4.07539 0
M  V30 2788 H 256.254 -3.64637 4.76613 0
M  V30 2789 H 257.324 -2.32928 4.25291 0
M  V30 2790 N 258.668 -1.30515 -0.883378 0
M  V30 2791 C 259.945 -1.10086 -1.6168 0
M  V30 2792 C 260.325 0.349269 -2.08191 0
M  V30 2793 O 259.673 1.34105 -1.85008 0
M  V30 2794 C 259.883 -2.10315 -2.78511 0
M  V30 2795 C 261.231 -2.42119 -3.48803 0
M  V30 2796 O 262.255 -2.08638 -2.88702 0
M  V30 2797 O 261.114 -2.99396 -4.57192 0
M  V30 2798 H 258.208 -0.422907 -0.710689 0
M  V30 2799 H 260.754 -1.41947 -0.930015 0
M  V30 2800 H 259.526 -3.07917 -2.41459 0
M  V30 2801 H 259.149 -1.79282 -3.54886 0
M  V30 2802 N 260.146 1.09593 -1.13257 0
M  V30 2803 C 261.395 1.81105 -0.887917 0
M  V30 2804 C 261.708 1.86563 0.587672 0
M  V30 2805 O 262.914 2.54367 0.949204 0
M  V30 2806 C 261.37 3.25338 -1.53895 0
M  V30 2807 C 260.978 3.28151 -3.04994 0
M  V30 2808 C 262.722 4.01617 -1.37492 0
M  V30 2809 C 260.629 4.66897 -3.6299 0
M  V30 2810 H 259.559 0.678661 -0.328534 0
M  V30 2811 H 262.21 1.23183 -1.36008 0
M  V30 2812 H 260.592 3.8331 -0.994446 0
M  V30 2813 H 261.766 2.79953 -3.66009 0
M  V30 2814 H 260.081 2.65361 -3.20893 0
M  V30 2815 H 262.678 5.04119 -1.78235 0
M  V30 2816 H 263.021 4.15072 -0.31957 0
M  V30 2817 H 263.554 3.50082 -1.88912 0
M  V30 2818 H 260.293 4.58643 -4.68323 0
M  V30 2819 H 259.813 5.15426 -3.06752 0
M  V30 2820 H 261.492 5.3587 -3.62563 0
M  V30 2821 N 261.624 0.925811 1.2754 0
M  V30 2822 C 262.571 0.422045 2.26908 0
M  V30 2823 C 263.541 -0.510029 1.58076 0
M  V30 2824 O 264.726 -0.429599 1.85901 0
M  V30 2825 C 261.866 -0.320837 3.43605 0
M  V30 2826 C 260.979 0.64513 4.27156 0
M  V30 2827 C 260.114 -0.117405 5.3107 0
M  V30 2828 C 259.153 0.841391 6.0629 0
M  V30 2829 N 258.29 0.111604 7.02011 0
M  V30 2830 H 263.13 1.27441 2.69375 0
M  V30 2831 H 260.667 0.639697 1.32462 0
M  V30 2832 H 262.625 -0.76785 4.10073 0
M  V30 2833 H 261.255 -1.13745 3.02096 0
M  V30 2834 H 260.307 1.21067 3.6062 0
M  V30 2835 H 261.619 1.37797 4.79389 0
M  V30 2836 H 260.773 -0.624422 6.03478 0
M  V30 2837 H 259.512 -0.883219 4.79636 0
M  V30 2838 H 258.517 1.35967 5.32722 0
M  V30 2839 H 259.742 1.60696 6.59813 0
M  V30 2840 H 257.688 -0.635999 6.5291 0
M  V30 2841 H 257.605 0.784044 7.51923 0
M  V30 2842 H 258.873 -0.374823 7.78598 0
M  V30 2843 N 263.102 -1.41638 0.69111 0
M  V30 2844 C 264.032 -2.3347 0.037248 0
M  V30 2845 C 265.013 -1.51575 -0.771947 0
M  V30 2846 O 266.198 -1.80126 -0.72582 0
M  V30 2847 C 263.328 -3.35354 -0.903064 0
M  V30 2848 C 262.282 -4.27526 -0.201288 0
M  V30 2849 C 261.608 -5.19747 -1.25565 0
M  V30 2850 C 262.908 -5.13959 0.929689 0
M  V30 2851 H 264.602 -2.88397 0.804227 0
M  V30 2852 H 262.148 -1.38669 0.388189 0
M  V30 2853 H 264.101 -3.98519 -1.36969 0
M  V30 2854 H 262.825 -2.78767 -1.70166 0
M  V30 2855 H 261.484 -3.65779 0.245265 0
M  V30 2856 H 261.132 -4.59479 -2.04666 0
M  V30 2857 H 260.832 -5.8225 -0.791128 0
M  V30 2858 H 262.356 -5.85789 -1.72288 0
M  V30 2859 H 263.77 -5.70718 0.543546 0
M  V30 2860 H 262.167 -5.85379 1.32103 0
M  V30 2861 H 263.237 -4.51389 1.77133 0
M  V30 2862 N 264.58 -0.43555 -1.51462 0
M  V30 2863 C 265.991 0.0279871 -1.86679 0
M  V30 2864 C 266.342 1.42104 -1.35281 0
M  V30 2865 O 265.467 2.04667 -0.702878 0
M  V30 2866 C 266.062 0.0575626 -3.38751 0
M  V30 2867 C 264.621 0.465507 -3.7351 0
M  V30 2868 C 263.768 -0.342996 -2.75171 0
M  V30 2869 H 266.719 -0.651473 -1.44712 0
M  V30 2870 H 266.74 0.867421 -3.70481 0
M  V30 2871 H 266.252 -0.956448 -3.7613 0
M  V30 2872 H 264.353 1.48519 -3.41721 0
M  V30 2873 H 264.466 0.191546 -4.78717 0
M  V30 2874 H 262.83 0.198442 -2.53926 0
M  V30 2875 H 263.613 -1.35585 -3.15391 0
M  V30 2876 N 266.058 1.56714 -0.166846 0
M  V30 2877 C 267.304 1.97813 0.473473 0
M  V30 2878 C 267.659 1.05095 1.61161 0
M  V30 2879 O 266.952 0.0897541 1.9139 0
M  V30 2880 C 267.146 3.42889 1.00806 0
M  V30 2881 C 266.975 4.49635 -0.0767392 0
M  V30 2882 C 265.745 5.02566 -0.524894 0
M  V30 2883 C 267.943 5.06793 -0.875504 0
M  V30 2884 N 265.925 5.9294 -1.59047 0
M  V30 2885 C 267.296 5.93565 -1.79111 0
M  V30 2886 C 269.351 4.89306 -0.921083 0
M  V30 2887 C 268.054 6.64721 -2.74843 0
M  V30 2888 C 270.08 5.61179 -1.86633 0
M  V30 2889 C 269.442 6.47675 -2.76942 0
M  V30 2890 H 265.541 0.769093 0.141489 0
M  V30 2891 H 268.125 1.92874 -0.266031 0
M  V30 2892 H 266.296 3.48382 1.7171 0
M  V30 2893 H 268.028 3.71008 1.61664 0
M  V30 2894 H 264.783 4.73439 -0.123432 0
M  V30 2895 H 265.207 6.42831 -2.12361 0
M  V30 2896 H 269.849 4.22136 -0.23692 0
M  V30 2897 H 267.567 7.31107 -3.44249 0
M  V30 2898 H 271.153 5.49636 -1.90764 0
M  V30 2899 H 270.033 7.02313 -3.48893 0
M  V30 2900 N 267.536 -0.106894 1.57237 0
M  V30 2901 C 268.947 -0.662723 1.74542 0
M  V30 2902 C 269.298 -1.7971 0.787319 0
M  V30 2903 O 268.423 -2.16368 -0.0369636 0
M  V30 2904 C 269.018 -1.20896 3.16496 0
M  V30 2905 C 267.577 -1.71096 3.35266 0
M  V30 2906 C 266.724 -0.615642 2.7038 0
M  V30 2907 H 269.675 0.119106 1.58252 0
M  V30 2908 H 269.696 -2.07847 3.18716 0
M  V30 2909 H 269.208 -0.383122 3.86204 0
M  V30 2910 H 267.309 -2.56119 2.70618 0
M  V30 2911 H 267.422 -1.81208 4.43509 0
M  V30 2912 H 265.786 -1.05222 2.31949 0
M  V30 2913 H 266.569 0.199419 3.4272 0
M  V30 2914 N 269.014 -1.53014 -0.377408 0
M  V30 2915 C 269.961 -1.78616 -1.46168 0
M  V30 2916 C 270.931 -0.629917 -1.53692 0
M  V30 2917 O 272.116 -0.870861 -1.69766 0
M  V30 2918 C 269.256 -1.97123 -2.8326 0
M  V30 2919 C 268.369 -3.24831 -2.84796 0
M  V30 2920 C 267.504 -3.33591 -4.13389 0
M  V30 2921 C 266.543 -4.55377 -4.09021 0
M  V30 2922 N 265.68 -4.61355 -5.29241 0
M  V30 2923 H 270.52 -2.71142 -1.23637 0
M  V30 2924 H 268.057 -1.34326 -0.599577 0
M  V30 2925 H 270.015 -2.05839 -3.62886 0
M  V30 2926 H 268.645 -1.07946 -3.04216 0
M  V30 2927 H 267.697 -3.25128 -1.97474 0
M  V30 2928 H 269.009 -4.14523 -2.77439 0
M  V30 2929 H 268.163 -3.41554 -5.01424 0
M  V30 2930 H 266.902 -2.41894 -4.23484 0
M  V30 2931 H 265.907 -4.47527 -3.19373 0
M  V30 2932 H 267.132 -5.48402 -4.00539 0
M  V30 2933 H 265.078 -3.72554 -5.39944 0
M  V30 2934 H 264.995 -5.44935 -5.24006 0
M  V30 2935 H 266.263 -4.73586 -6.19141 0
M  V30 2936 N 270.492 0.636531 -1.44174 0
M  V30 2937 C 271.439 1.74875 -1.50624 0
M  V30 2938 C 272.409 1.62275 -0.35442 0
M  V30 2939 O 273.594 1.82276 -0.563908 0
M  V30 2940 C 270.734 3.13102 -1.45125 0
M  V30 2941 C 269.847 3.36717 -2.7064 0
M  V30 2942 C 268.982 4.64885 -2.57013 0
M  V30 2943 C 268.021 4.8166 -3.77717 0
M  V30 2944 N 267.158 6.01101 -3.62798 0
M  V30 2945 H 271.998 1.68697 -2.45653 0
M  V30 2946 H 269.535 0.823004 -1.21922 0
M  V30 2947 H 271.493 3.93034 -1.39929 0
M  V30 2948 H 270.123 3.18308 -0.536671 0
M  V30 2949 H 269.175 2.50763 -2.86046 0
M  V30 2950 H 270.487 3.44993 -3.60252 0
M  V30 2951 H 269.641 5.52969 -2.49619 0
M  V30 2952 H 268.38 4.58957 -1.64953 0
M  V30 2953 H 267.385 3.92007 -3.85501 0
M  V30 2954 H 268.61 4.89406 -4.70807 0
M  V30 2955 H 266.556 5.96273 -2.73486 0
M  V30 2956 H 266.473 6.10409 -4.46023 0
M  V30 2957 H 267.741 6.91761 -3.59286 0
M  V30 2958 N 271.97 1.30982 0.876444 0
M  V30 2959 C 272.933 1.18054 1.96459 0
M  V30 2960 C 273.933 0.109399 1.60427 0
M  V30 2961 O 275.123 0.358173 1.70478 0
M  V30 2962 C 272.255 0.810616 3.31122 0
M  V30 2963 H 273.448 2.14735 2.09354 0
M  V30 2964 H 271.001 1.145 1.06392 0
M  V30 2965 H 271.736 -0.155322 3.23928 0
M  V30 2966 H 271.521 1.58481 3.58645 0
M  V30 2967 H 273.011 0.743876 4.10921 0
M  V30 2968 N 273.449 -1.08991 1.13837 0
M  V30 2969 C 274.359 -2.19301 0.833333 0
M  V30 2970 C 275.375 -1.73026 -0.183847 0
M  V30 2971 O 276.551 -2.01395 -0.0138092 0
M  V30 2972 C 273.616 -3.45323 0.308651 0
M  V30 2973 C 272.677 -4.06255 1.38764 0
M  V30 2974 C 271.91 -5.26262 0.887896 0
M  V30 2975 O 272.133 -5.69747 -0.27287 0
M  V30 2976 O 271.067 -5.78435 1.66421 0
M  V30 2977 H 274.893 -2.47854 1.75506 0
M  V30 2978 H 272.478 -1.18012 0.916166 0
M  V30 2979 H 274.36 -4.21394 0.0216739 0
M  V30 2980 H 273.035 -3.18362 -0.585431 0
M  V30 2981 H 271.942 -3.318 1.72799 0
M  V30 2982 H 273.275 -4.37452 2.25602 0
M  V30 2983 N 274.927 -0.932562 -1.27047 0
M  V30 2984 C 275.857 -0.452902 -2.29066 0
M  V30 2985 C 276.838 0.489338 -1.62909 0
M  V30 2986 O 278.023 0.393046 -1.90181 0
M  V30 2987 C 275.153 0.290698 -3.46081 0
M  V30 2988 C 274.107 -0.564168 -4.24265 0
M  V30 2989 C 273.433 0.308886 -5.33807 0
M  V30 2990 C 274.733 -1.83112 -4.89149 0
M  V30 2991 H 276.427 -1.30552 -2.69437 0
M  V30 2992 H 273.973 -0.629201 -1.29526 0
M  V30 2993 H 275.926 0.637233 -4.16554 0
M  V30 2994 H 274.65 1.17738 -3.0464 0
M  V30 2995 H 273.309 -0.893477 -3.55545 0
M  V30 2996 H 272.957 1.19467 -4.88607 0
M  V30 2997 H 272.657 -0.259633 -5.87026 0
M  V30 2998 H 274.181 0.650884 -6.07121 0
M  V30 2999 H 275.595 -1.55236 -5.51883 0
M  V30 3000 H 273.992 -2.34353 -5.52448 0
M  V30 3001 H 275.062 -2.54772 -4.12576 0
M  V30 3002 N 276.405 1.4127 -0.698611 0
M  V30 3003 C 277.816 1.84187 -0.305289 0
M  V30 3004 C 278.167 1.58449 1.15708 0
M  V30 3005 O 277.292 1.05651 1.88856 0
M  V30 3006 C 277.887 3.3435 -0.547314 0
M  V30 3007 C 276.446 3.75826 -0.207878 0
M  V30 3008 C 275.593 2.64647 -0.828099 0
M  V30 3009 H 278.544 1.30778 -0.89904 0
M  V30 3010 H 278.565 3.8001 0.192998 0
M  V30 3011 H 278.077 3.53051 -1.61172 0
M  V30 3012 H 276.178 3.62725 0.852143 0
M  V30 3013 H 276.291 4.74462 -0.665021 0
M  V30 3014 H 274.655 2.53395 -0.257458 0
M  V30 3015 H 275.438 2.86165 -1.89643 0
M  V30 3016 N 277.883 0.443576 1.51229 0
M  V30 3017 C 279.294 -0.0180867 1.86691 0
M  V30 3018 C 279.645 -1.41384 1.36033 0
M  V30 3019 O 278.77 -2.04291 0.713722 0
M  V30 3020 C 279.365 -0.039597 3.38777 0
M  V30 3021 C 277.924 -0.445692 3.73752 0
M  V30 3022 C 277.071 0.357584 2.74985 0
M  V30 3023 H 280.022 0.659138 1.44364 0
M  V30 3024 H 280.043 -0.847761 3.70936 0
M  V30 3025 H 279.555 0.976382 3.75617 0
M  V30 3026 H 277.656 -1.46704 3.42503 0
M  V30 3027 H 277.769 -0.166155 4.78812 0
M  V30 3028 H 276.133 -0.184973 2.54027 0
M  V30 3029 H 276.916 1.37256 3.14668 0
M  V30 3030 N 279.361 -1.56624 0.175154 0
M  V30 3031 C 280.772 -1.83561 -0.340916 0
M  V30 3032 C 281.123 -1.09511 -1.62794 0
M  V30 3033 O 280.248 -0.349389 -2.13561 0
M  V30 3034 C 280.843 -3.32979 -0.625313 0
M  V30 3035 C 279.402 -3.60399 -1.08581 0
M  V30 3036 C 278.549 -2.77024 -0.123722 0
M  V30 3037 H 281.5 -1.53593 0.399344 0
M  V30 3038 H 281.521 -3.50666 -1.47694 0
M  V30 3039 H 281.033 -3.86847 0.311575 0
M  V30 3040 H 279.134 -3.11945 -2.03767 0
M  V30 3041 H 279.247 -4.68711 -0.992317 0
M  V30 3042 H 277.611 -2.46993 -0.621821 0
M  V30 3043 H 278.394 -3.33674 0.807256 0
M  V30 3044 N 280.839 0.0985539 -1.57292 0
M  V30 3045 C 282.085 0.803867 -1.86188 0
M  V30 3046 C 282.418 1.78549 -0.763794 0
M  V30 3047 O 281.693 1.93153 0.22855 0
M  V30 3048 C 281.976 1.53568 -3.25713 0
M  V30 3049 C 281.829 0.572277 -4.46145 0
M  V30 3050 C 283.148 2.48708 -3.63087 0
M  V30 3051 H 280.267 0.290781 -0.677211 0
M  V30 3052 H 282.909 0.0675783 -1.8988 0
M  V30 3053 H 281.059 2.16332 -3.22696 0
M  V30 3054 H 282.731 -0.0480894 -4.61275 0
M  V30 3055 H 280.974 -0.114618 -4.33649 0
M  V30 3056 H 281.645 1.12139 -5.40489 0
M  V30 3057 H 284.121 1.96039 -3.67026 0
M  V30 3058 H 282.997 2.96932 -4.61652 0
M  V30 3059 H 283.258 3.32309 -2.91588 0
M  V30 3060 N 282.317 1.53212 0.369288 0
M  V30 3061 C 283.249 1.75668 1.47219 0
M  V30 3062 C 284.262 0.637387 1.49804 0
M  V30 3063 O 285.451 0.913561 1.5335 0
M  V30 3064 C 282.551 1.81818 2.85999 0
M  V30 3065 C 281.724 3.11409 3.07153 0
M  V30 3066 C 280.783 3.08849 4.26026 0
M  V30 3067 O 279.809 3.82659 4.2138 0
M  V30 3068 N 281.011 2.29409 5.33246 0
M  V30 3069 H 283.776 2.70832 1.28337 0
M  V30 3070 H 281.337 1.51944 0.55898 0
M  V30 3071 H 283.329 1.77588 3.63655 0
M  V30 3072 H 281.899 0.939544 2.98146 0
M  V30 3073 H 281.119 3.28971 2.1719 0
M  V30 3074 H 282.407 3.97059 3.18154 0
M  V30 3075 H 281.805 1.68946 5.39883 0
M  V30 3076 H 280.362 2.31001 6.09493 0
M  V30 3077 N 283.795 -0.628877 1.44509 0
M  V30 3078 C 285.02 -1.42048 1.5112 0
M  V30 3079 C 285.445 -1.87594 0.137818 0
M  V30 3080 O 284.803 -1.58873 -0.873437 0
M  V30 3081 C 284.851 -2.61541 2.48251 0
M  V30 3082 O 283.955 -3.61453 1.98559 0
M  V30 3083 H 283.296 -0.424942 0.510216 0
M  V30 3084 H 285.826 -0.767374 1.89664 0
M  V30 3085 H 285.836 -3.09057 2.66361 0
M  V30 3086 H 284.511 -2.27736 3.48007 0
M  V30 3087 H 283.088 -3.20731 1.90227 0
M  V30 3088 N 285.273 -1.31445 -0.869486 0
M  V30 3089 C 286.522 -1.20517 -1.61736 0
M  V30 3090 C 286.835 0.235341 -1.94179 0
M  V30 3091 O 288.041 0.466312 -2.67465 0
M  V30 3092 C 286.497 -2.10982 -2.91573 0
M  V30 3093 C 286.105 -3.60032 -2.66611 0
M  V30 3094 C 287.849 -2.08856 -3.69567 0
M  V30 3095 C 285.756 -4.42503 -3.92358 0
M  V30 3096 H 284.686 -0.447493 -0.606849 0
M  V30 3097 H 287.337 -1.56303 -0.96133 0
M  V30 3098 H 285.719 -1.68095 -3.58553 0
M  V30 3099 H 286.893 -4.11167 -2.08035 0
M  V30 3100 H 285.208 -3.64139 -2.0197 0
M  V30 3101 H 287.805 -2.67716 -4.62852 0
M  V30 3102 H 288.148 -1.07582 -4.02159 0
M  V30 3103 H 288.681 -2.49945 -3.09471 0
M  V30 3104 H 285.42 -5.44533 -3.64916 0
M  V30 3105 H 284.94 -3.96125 -4.50383 0
M  V30 3106 H 286.619 -4.54741 -4.60238 0
M  V30 3107 N 286.751 1.08385 -1.14413 0
M  V30 3108 C 288 1.80153 -0.907076 0
M  V30 3109 C 288.313 1.87176 0.567851 0
M  V30 3110 O 289.519 2.55359 0.922172 0
M  V30 3111 C 287.975 3.23687 -1.57336 0
M  V30 3112 C 287.583 3.24897 -3.08457 0
M  V30 3113 C 289.327 4.00136 -1.41744 0
M  V30 3114 C 287.234 4.6302 -3.67921 0
M  V30 3115 H 286.164 0.675139 -0.335714 0
M  V30 3116 H 288.815 1.21733 -1.37307 0
M  V30 3117 H 287.197 3.82234 -1.03505 0
M  V30 3118 H 288.371 2.76055 -3.68958 0
M  V30 3119 H 286.686 2.61943 -3.2369 0
M  V30 3120 H 289.283 5.02201 -1.83572 0
M  V30 3121 H 289.626 4.14709 -0.363576 0
M  V30 3122 H 290.159 3.48058 -1.92614 0
M  V30 3123 H 286.898 4.5365 -4.73161 0
M  V30 3124 H 286.418 5.12143 -3.12201 0
M  V30 3125 H 288.097 5.31994 -3.68227 0
M  V30 3126 N 288.23 0.939286 1.26551 0
M  V30 3127 C 289.507 0.5038 1.89001 0
M  V30 3128 C 289.887 -1.01854 1.84903 0
M  V30 3129 O 289.235 -1.87773 1.30206 0
M  V30 3130 C 289.445 1.063 3.32417 0
M  V30 3131 C 290.793 1.13051 4.09273 0
M  V30 3132 O 291.817 1.01345 3.41479 0
M  V30 3133 O 290.676 1.31233 5.30509 0
M  V30 3134 H 287.77 0.163897 0.810597 0
M  V30 3135 H 290.316 1.03173 1.34735 0
M  V30 3136 H 289.088 2.10665 3.29752 0
M  V30 3137 H 288.711 0.517408 3.94219 0
M  V30 3138 N 289.708 -1.40897 0.706093 0
M  V30 3139 C 290.656 -2.32572 0.0361893 0
M  V30 3140 C 291.65 -1.51532 -0.757266 0
M  V30 3141 O 292.856 -1.67396 -0.661703 0
M  V30 3142 H 289.231 -0.751966 -0.00709935 0
M  V30 3143 H 291.202 -2.86733 0.826249 0
M  V30 3144 C 289.951 -3.36418 -0.87854 0
M  V30 3145 H 289.274 -3.98836 -0.277401 0
M  V30 3146 H 290.714 -4.0308 -1.3154 0
M  V30 3147 C 289.173 -2.71141 -1.99961 0
M  V30 3148 O 289.703 -2.56735 -3.0895 0
M  V30 3149 N 287.909 -2.29671 -1.78043 0
M  V30 3150 H 287.456 -2.41588 -0.894042 0
M  V30 3151 H 287.414 -1.86332 -2.53235 0
M  V30 3152 N 291.186 -0.45159 -1.50991 0
M  V30 3153 C 292.432 0.110237 -2.025 0
M  V30 3154 C 292.765 1.41109 -1.33424 0
M  V30 3155 O 292.04 1.89135 -0.453659 0
M  V30 3156 C 292.323 0.314271 -3.58726 0
M  V30 3157 C 292.176 -1.00623 -4.38401 0
M  V30 3158 C 293.495 1.07767 -4.26702 0
M  V30 3159 H 290.614 0.0385897 -0.735989 0
M  V30 3160 H 293.256 -0.593374 -1.80497 0
M  V30 3161 H 291.406 0.913601 -3.77605 0
M  V30 3162 H 293.078 -1.64064 -4.31139 0
M  V30 3163 H 291.321 -1.6075 -4.02917 0
M  V30 3164 H 291.992 -0.817341 -5.45915 0
M  V30 3165 H 294.468 0.56986 -4.12179 0
M  V30 3166 H 293.344 1.18921 -5.35863 0
M  V30 3167 H 293.605 2.10939 -3.88532 0
M  V30 3168 N 292.664 1.56529 -0.183458 0
M  V30 3169 C 293.91 1.97537 0.459036 0
M  V30 3170 C 294.243 1.06989 1.62071 0
M  V30 3171 O 293.518 0.11948 1.94133 0
M  V30 3172 C 293.801 3.47874 0.930368 0
M  V30 3173 C 293.654 4.492 -0.232317 0
M  V30 3174 C 294.973 4.01612 1.79989 0
M  V30 3175 H 292.092 0.718204 0.165383 0
M  V30 3176 H 294.734 1.88042 -0.272038 0
M  V30 3177 H 292.884 3.56095 1.55333 0
M  V30 3178 H 294.556 4.53027 -0.86972 0
M  V30 3179 H 292.799 4.24657 -0.885928 0
M  V30 3180 H 293.47 5.51823 0.139796 0
M  V30 3181 H 295.946 3.96097 1.27461 0
M  V30 3182 H 294.822 5.07195 2.09867 0
M  V30 3183 H 295.083 3.46163 2.74998 0
M  V30 3184 N 294.142 -0.090211 1.57342 0
M  V30 3185 C 295.089 -1.10909 2.02405 0
M  V30 3186 C 296.059 -1.39523 0.901252 0
M  V30 3187 O 297.244 -1.50903 1.1676 0
M  V30 3188 C 294.384 -2.42277 2.45755 0
M  V30 3189 C 293.497 -2.20352 3.71576 0
M  V30 3190 C 292.632 -3.45154 4.03785 0
M  V30 3191 C 291.671 -3.18512 5.22701 0
M  V30 3192 N 290.808 -4.35593 5.50639 0
M  V30 3193 H 295.648 -0.71782 2.89225 0
M  V30 3194 H 293.185 -0.342901 1.43048 0
M  V30 3195 H 295.143 -3.18951 2.68935 0
M  V30 3196 H 293.773 -2.79242 1.61938 0
M  V30 3197 H 292.825 -1.34458 3.55844 0
M  V30 3198 H 294.137 -1.96661 4.58395 0
M  V30 3199 H 293.291 -4.30233 4.27767 0
M  V30 3200 H 292.03 -3.71904 3.15498 0
M  V30 3201 H 291.035 -2.31827 4.98534 0
M  V30 3202 H 292.26 -2.93103 6.12591 0
M  V30 3203 H 290.206 -4.6241 4.6531 0
M  V30 3204 H 290.123 -4.1511 6.31838 0
M  V30 3205 H 291.391 -5.21723 5.7916 0
M  V30 3206 N 295.62 -1.53406 -0.361157 0
M  V30 3207 C 296.867 -1.69802 -1.10333 0
M  V30 3208 C 297.195 -0.452087 -1.89173 0
M  V30 3209 O 296.45 0.566017 -1.87336 0
M  V30 3210 C 296.749 -2.90211 -2.08596 0
M  V30 3211 C 296.415 -4.26539 -1.46203 0
M  V30 3212 C 295.077 -4.6361 -1.28915 0
M  V30 3213 C 297.429 -5.113 -1.01101 0
M  V30 3214 C 294.757 -5.83075 -0.651157 0
M  V30 3215 C 297.109 -6.31415 -0.387007 0
M  V30 3216 C 295.773 -6.67195 -0.201657 0
M  V30 3217 H 295.043 -0.621351 -0.403737 0
M  V30 3218 H 297.69 -1.87598 -0.384609 0
M  V30 3219 H 295.995 -2.66946 -2.86788 0
M  V30 3220 H 297.692 -3.00091 -2.65982 0
M  V30 3221 H 294.282 -3.97352 -1.60653 0
M  V30 3222 H 298.466 -4.83206 -1.13249 0
M  V30 3223 H 293.722 -6.09385 -0.496006 0
M  V30 3224 H 297.896 -6.96394 -0.0293563 0
M  V30 3225 H 295.523 -7.59628 0.294766 0
M  V30 3226 N 297.098 0.621204 -1.44841 0
M  V30 3227 C 298.344 1.3826 -1.48365 0
M  V30 3228 C 298.677 1.93831 -0.119624 0
M  V30 3229 O 297.952 1.74251 0.864111 0
M  V30 3230 C 298.235 2.54058 -2.55199 0
M  V30 3231 C 298.088 2.03772 -4.00995 0
M  V30 3232 C 299.407 3.56225 -2.58442 0
M  V30 3233 H 296.526 0.501374 -0.540179 0
M  V30 3234 H 299.168 0.7015 -1.76576 0
M  V30 3235 H 297.318 3.12162 -2.31274 0
M  V30 3236 H 298.99 1.50423 -4.36086 0
M  V30 3237 H 297.233 1.34876 -4.12299 0
M  V30 3238 H 297.904 2.87185 -4.71411 0
M  V30 3239 H 300.38 3.07939 -2.79844 0
M  V30 3240 H 299.256 4.34756 -3.3508 0
M  V30 3241 H 299.517 4.10949 -1.63013 0
M  V30 3242 N 298.576 1.31904 0.862503 0
M  V30 3243 C 299.486 1.22161 2.00285 0
M  V30 3244 C 300.502 0.136785 1.73462 0
M  V30 3245 O 301.678 0.355994 1.98229 0
M  V30 3246 C 298.743 0.937093 3.33796 0
M  V30 3247 C 297.804 2.10957 3.73893 0
M  V30 3248 C 297.037 1.83853 5.01033 0
M  V30 3249 O 297.26 0.777274 5.65079 0
M  V30 3250 O 296.194 2.69741 5.38074 0
M  V30 3251 H 300.02 2.18008 2.11439 0
M  V30 3252 H 297.605 1.11716 0.991957 0
M  V30 3253 H 299.487 0.794583 4.13841 0
M  V30 3254 H 298.162 0.00871894 3.23699 0
M  V30 3255 H 297.069 2.30752 2.94456 0
M  V30 3256 H 298.402 3.02046 3.88625 0
M  V30 3257 N 300.054 -1.07777 1.14986 0
M  V30 3258 C 300.964 -2.18404 0.856546 0
M  V30 3259 C 301.98 -1.73211 -0.165485 0
M  V30 3260 O 303.156 -2.01399 0.00755219 0
M  V30 3261 C 300.221 -3.44977 0.34526 0
M  V30 3262 C 299.282 -4.0476 1.43065 0
M  V30 3263 C 298.515 -5.25291 0.943663 0
M  V30 3264 O 298.738 -5.70004 -0.212426 0
M  V30 3265 O 297.672 -5.76638 1.72547 0
M  V30 3266 H 301.498 -2.45978 1.78125 0
M  V30 3267 H 299.083 -1.17033 0.928631 0
M  V30 3268 H 300.965 -4.21348 0.0663671 0
M  V30 3269 H 299.64 -3.18965 -0.551631 0
M  V30 3270 H 298.547 -3.29949 1.76309 0
M  V30 3271 H 299.88 -4.35035 2.30229 0
M  V30 3272 N 301.532 -0.945985 -1.26051 0
M  V30 3273 C 302.757 -0.612525 -1.98149 0
M  V30 3274 C 303.182 0.806623 -1.69927 0
M  V30 3275 O 302.54 1.54411 -0.950108 0
M  V30 3276 C 302.588 -0.866981 -3.50023 0
M  V30 3277 O 301.692 0.0585333 -4.12358 0
M  V30 3278 H 301.033 -0.23379 -0.621481 0
M  V30 3279 H 303.563 -1.27023 -1.60395 0
M  V30 3280 H 303.573 -0.789792 -4.00283 0
M  V30 3281 H 302.248 -1.90135 -3.69894 0
M  V30 3282 H 300.825 -0.0701241 -3.72834 0
M  V30 3283 N 303.011 1.40521 -0.713556 0
M  V30 3284 C 303.959 2.32549 -0.0485227 0
M  V30 3285 C 304.953 1.51931 0.74922 0
M  V30 3286 O 306.159 1.67745 0.652816 0
M  V30 3287 H 302.534 0.751994 0.00311138 0
M  V30 3288 H 304.505 2.86291 -0.841443 0
M  V30 3289 C 303.254 3.36879 0.860687 0
M  V30 3290 H 302.577 3.98978 0.256246 0
M  V30 3291 H 304.017 4.03772 1.294 0
M  V30 3292 C 302.476 2.72197 1.9852 0
M  V30 3293 O 303.006 2.5837 3.07584 0
M  V30 3294 N 301.212 2.30612 1.76823 0
M  V30 3295 H 300.759 2.42059 0.881217 0
M  V30 3296 H 300.717 1.87672 2.52243 0
M  V30 3297 N 304.489 0.459591 1.5075 0
M  V30 3298 C 305.736 -0.0993495 2.02256 0
M  V30 3299 C 306.064 -1.40751 1.34237 0
M  V30 3300 O 305.319 -1.90379 0.453228 0
M  V30 3301 C 305.618 -0.342866 3.55752 0
M  V30 3302 C 305.284 0.88218 4.42186 0
M  V30 3303 C 303.946 1.21808 4.65528 0
M  V30 3304 C 306.298 1.69837 4.92752 0
M  V30 3305 C 303.626 2.37045 5.36681 0
M  V30 3306 C 305.978 2.84192 5.65171 0
M  V30 3307 C 304.642 3.1821 5.8677 0
M  V30 3308 H 303.912 -0.0363545 0.740108 0
M  V30 3309 H 306.559 0.611329 1.8148 0
M  V30 3310 H 304.864 -1.13567 3.7498 0
M  V30 3311 H 306.561 -0.789121 3.93159 0
M  V30 3312 H 303.151 0.610467 4.2423 0
M  V30 3313 H 307.335 1.45205 4.74583 0
M  V30 3314 H 302.591 2.63689 5.51614 0
M  V30 3315 H 306.765 3.4779 6.03337 0
M  V30 3316 H 304.392 4.07613 6.41682 0
M  V30 3317 N 305.967 -1.56429 0.191757 0
M  V30 3318 C 306.914 -2.18936 -0.730454 0
M  V30 3319 C 307.884 -1.13557 -1.21219 0
M  V30 3320 O 309.069 -1.41794 -1.27668 0
M  V30 3321 C 306.209 -2.85013 -1.9458 0
M  V30 3322 C 305.322 -4.04909 -1.50574 0
M  V30 3323 C 304.457 -4.58853 -2.67634 0
M  V30 3324 C 303.496 -5.71114 -2.20217 0
M  V30 3325 N 302.633 -6.19478 -3.30442 0
M  V30 3326 H 307.473 -2.97389 -0.190664 0
M  V30 3327 H 305.01 -1.46869 -0.0823694 0
M  V30 3328 H 306.968 -3.21492 -2.65893 0
M  V30 3329 H 305.598 -2.09129 -2.45896 0
M  V30 3330 H 304.65 -3.74115 -0.688605 0
M  V30 3331 H 305.962 -4.86113 -1.11784 0
M  V30 3332 H 305.116 -4.97619 -3.47074 0
M  V30 3333 H 303.855 -3.76749 -3.09696 0
M  V30 3334 H 302.86 -5.31879 -1.3923 0
M  V30 3335 H 304.085 -6.55033 -1.79189 0
M  V30 3336 H 302.031 -5.40297 -3.72041 0
M  V30 3337 H 301.948 -6.95725 -2.9581 0
M  V30 3338 H 303.216 -6.62898 -4.10106 0
M  V30 3339 N 307.445 0.0818655 -1.57387 0
M  V30 3340 C 308.673 0.796108 -1.9097 0
M  V30 3341 C 309.088 1.71626 -0.786757 0
M  V30 3342 O 308.445 1.80908 0.240513 0
M  V30 3343 C 308.496 1.59829 -3.24248 0
M  V30 3344 O 308.217 0.715131 -4.32224 0
M  V30 3345 C 309.718 2.41442 -3.7178 0
M  V30 3346 H 306.938 0.22691 -0.631469 0
M  V30 3347 H 309.482 0.0551439 -2.04426 0
M  V30 3348 H 307.637 2.29163 -3.12351 0
M  V30 3349 H 308.051 1.27205 -5.08841 0
M  V30 3350 H 309.525 2.932 -4.67694 0
M  V30 3351 H 310.002 3.2051 -3.00283 0
M  V30 3352 H 310.608 1.77283 -3.86589 0
M  V30 3353 N 308.923 1.53595 0.353017 0
M  V30 3354 C 310.169 1.70638 1.09593 0
M  V30 3355 C 310.502 0.463286 1.88593 0
M  V30 3356 O 309.777 -0.539597 1.86865 0
M  V30 3357 C 310.06 2.96406 2.04489 0
M  V30 3358 C 309.913 4.30901 1.29014 0
M  V30 3359 C 311.232 3.17812 3.0444 0
M  V30 3360 H 308.351 0.620913 0.397034 0
M  V30 3361 H 310.993 1.86254 0.375446 0
M  V30 3362 H 309.143 2.83223 2.65927 0
M  V30 3363 H 310.815 4.55917 0.702638 0
M  V30 3364 H 309.058 4.29741 0.592071 0
M  V30 3365 H 309.729 5.1506 1.98537 0
M  V30 3366 H 312.205 3.30263 2.53112 0
M  V30 3367 H 311.081 4.07223 3.6805 0
M  V30 3368 H 311.342 2.33669 3.75301 0
M  V30 3369 N 310.401 -0.613514 1.45168 0
M  V30 3370 C 311.311 -1.75296 1.55912 0
M  V30 3371 C 312.327 -1.68244 0.443856 0
M  V30 3372 O 313.503 -1.88706 0.70371 0
M  V30 3373 C 310.568 -3.1174 1.5172 0
M  V30 3374 C 309.629 -3.30291 2.74238 0
M  V30 3375 C 308.862 -4.60226 2.70236 0
M  V30 3376 O 309.085 -5.42168 1.77229 0
M  V30 3377 O 308.019 -4.81361 3.61352 0
M  V30 3378 H 311.845 -1.69183 2.52212 0
M  V30 3379 H 309.43 -0.776886 1.27612 0
M  V30 3380 H 311.312 -3.93044 1.51968 0
M  V30 3381 H 309.987 -3.18357 0.585697 0
M  V30 3382 H 308.894 -2.48598 2.79553 0
M  V30 3383 H 310.227 -3.28547 3.66494 0
M  V30 3384 N 311.879 -1.3236 -0.855495 0
M  V30 3385 C 312.842 -1.21164 -1.94556 0
M  V30 3386 C 313.842 -0.134908 -1.60233 0
M  V30 3387 O 315.032 -0.385249 -1.69887 0
M  V30 3388 C 312.164 -0.863192 -3.29791 0
M  V30 3389 H 313.357 -2.18038 -2.05911 0
M  V30 3390 H 310.91 -1.16179 -1.04557 0
M  V30 3391 H 311.645 0.103769 -3.24134 0
M  V30 3392 H 311.43 -1.64166 -3.56078 0
M  V30 3393 H 312.92 -0.809156 -4.09686 0
M  V30 3394 N 313.357 1.07166 -1.15556 0
M  V30 3395 C 314.287 2.16403 -0.877046 0
M  V30 3396 C 315.268 1.69217 0.173111 0
M  V30 3397 O 316.453 1.94181 0.027084 0
M  V30 3398 C 313.583 3.45349 -0.367632 0
M  V30 3399 C 312.537 4.05995 -1.35468 0
M  V30 3400 C 311.863 5.30045 -0.704038 0
M  V30 3401 C 313.163 4.45804 -2.72132 0
M  V30 3402 H 314.857 2.39959 -1.79053 0
M  V30 3403 H 312.403 1.15325 -0.862331 0
M  V30 3404 H 314.356 4.21095 -0.160317 0
M  V30 3405 H 313.08 3.21385 0.581326 0
M  V30 3406 H 311.739 3.32296 -1.54839 0
M  V30 3407 H 311.387 5.02373 0.251128 0
M  V30 3408 H 311.087 5.71579 -1.36277 0
M  V30 3409 H 312.611 6.08495 -0.50654 0
M  V30 3410 H 314.025 5.12671 -2.56595 0
M  V30 3411 H 312.422 4.98296 -3.34397 0
M  V30 3412 H 313.492 3.57083 -3.28054 0
M  V30 3413 N 314.835 0.952656 1.25548 0
M  V30 3414 C 316.081 0.607272 1.93494 0
M  V30 3415 C 316.414 -0.853245 1.74452 0
M  V30 3416 O 315.689 -1.61194 1.08843 0
M  V30 3417 C 315.972 0.96435 3.46947 0
M  V30 3418 C 315.825 2.48045 3.75225 0
M  V30 3419 C 317.144 0.487987 4.37386 0
M  V30 3420 H 314.263 0.222096 0.702739 0
M  V30 3421 H 316.905 1.18895 1.48203 0
M  V30 3422 H 315.055 0.469361 3.85654 0
M  V30 3423 H 316.727 3.04905 3.46166 0
M  V30 3424 H 314.97 2.919 3.209 0
M  V30 3425 H 315.641 2.6808 4.82532 0
M  V30 3426 H 318.117 0.912558 4.0597 0
M  V30 3427 H 316.993 0.766547 5.43521 0
M  V30 3428 H 317.254 -0.612063 4.37843 0
M  V30 3429 N 316.313 -1.40141 0.720998 0
M  V30 3430 C 317.223 -2.34486 0.0731031 0
M  V30 3431 C 318.239 -1.57587 -0.737723 0
M  V30 3432 O 319.415 -1.89949 -0.669429 0
M  V30 3433 C 316.48 -3.36528 -0.833656 0
M  V30 3434 C 315.541 -4.29298 -0.0121673 0
M  V30 3435 C 314.774 -5.26466 -0.875742 0
M  V30 3436 O 314.997 -5.29745 -2.11485 0
M  V30 3437 O 313.931 -6.01092 -0.31185 0
M  V30 3438 H 317.757 -2.9152 0.851444 0
M  V30 3439 H 315.342 -1.41427 0.481527 0
M  V30 3440 H 317.224 -3.99093 -1.35289 0
M  V30 3441 H 315.899 -2.81899 -1.59105 0
M  V30 3442 H 314.806 -3.70001 0.552262 0
M  V30 3443 H 316.139 -4.87094 0.707129 0
M  V30 3444 N 317.792 -0.46758 -1.50504 0
M  V30 3445 C 319.017 0.0886943 -2.0721 0
M  V30 3446 C 319.442 1.33057 -1.32956 0
M  V30 3447 O 318.8 1.77354 -0.376197 0
M  V30 3448 C 318.848 0.359202 -3.58806 0
M  V30 3449 O 317.952 1.44034 -3.8643 0
M  V30 3450 H 317.293 -0.0114349 -0.663902 0
M  V30 3451 H 319.823 -0.657613 -1.93744 0
M  V30 3452 H 319.833 0.600742 -4.03553 0
M  V30 3453 H 318.508 -0.548311 -4.1227 0
M  V30 3454 H 317.085 1.18638 -3.53524 0
M  V30 3455 N 319.27 1.56325 -0.20005 0
M  V30 3456 C 320.516 1.98012 0.438059 0
M  V30 3457 C 320.849 1.08702 1.60927 0
M  V30 3458 O 320.124 0.140064 1.93995 0
M  V30 3459 C 320.407 3.48841 0.893419 0
M  V30 3460 C 320.26 4.48928 -0.279947 0
M  V30 3461 C 321.579 4.03498 1.75719 0
M  V30 3462 H 318.698 0.719918 0.157757 0
M  V30 3463 H 321.34 1.87743 -0.291968 0
M  V30 3464 H 319.49 3.57723 1.51547 0
M  V30 3465 H 321.162 4.52079 -0.91772 0
M  V30 3466 H 319.405 4.23694 -0.930919 0
M  V30 3467 H 320.076 5.5194 0.0812601 0
M  V30 3468 H 322.552 3.97427 1.23253 0
M  V30 3469 H 321.428 5.09393 2.04476 0
M  V30 3470 H 321.689 3.4906 2.71311 0
M  V30 3471 N 320.748 -0.0735177 1.57428 0
M  V30 3472 C 321.973 -0.789787 1.91774 0
M  V30 3473 C 322.398 -1.70413 0.796306 0
M  V30 3474 O 321.756 -1.79555 -0.250961 0
M  V30 3475 C 321.804 -1.5609 3.25067 0
M  V30 3476 O 320.908 -2.67144 3.14178 0
M  V30 3477 H 320.249 -0.215582 0.628029 0
M  V30 3478 H 322.779 -0.0422781 2.04556 0
M  V30 3479 H 322.789 -1.94052 3.58898 0
M  V30 3480 H 321.464 -0.890015 4.06265 0
M  V30 3481 H 320.041 -2.32052 2.91901 0
M  V30 3482 N 322.226 -1.5378 -0.344866 0
M  V30 3483 C 323.189 -1.80981 -1.40637 0
M  V30 3484 C 324.189 -0.680816 -1.45676 0
M  V30 3485 O 325.379 -0.949095 -1.46075 0
M  V30 3486 C 322.511 -1.95063 -2.79577 0
M  V30 3487 H 323.704 -2.75803 -1.17783 0
M  V30 3488 H 321.257 -1.45173 -0.579181 0
M  V30 3489 H 321.992 -1.02379 -3.07716 0
M  V30 3490 H 321.777 -2.77198 -2.77315 0
M  V30 3491 H 323.267 -2.17629 -3.56409 0
M  V30 3492 N 323.704 0.605807 -1.45491 0
M  V30 3493 C 324.95 1.36679 -1.49823 0
M  V30 3494 C 325.283 1.93693 -0.140175 0
M  V30 3495 O 324.558 1.75158 0.845581 0
M  V30 3496 C 324.841 2.51337 -2.57879 0
M  V30 3497 C 324.694 1.99508 -4.03134 0
M  V30 3498 C 326.013 3.53463 -2.62205 0
M  V30 3499 H 323.132 0.495617 -0.545466 0
M  V30 3500 H 325.774 0.682732 -1.7731 0
M  V30 3501 H 323.924 3.09691 -2.34571 0
M  V30 3502 H 325.596 1.45789 -4.37656 0
M  V30 3503 H 323.839 1.30496 -4.13707 0
M  V30 3504 H 324.51 2.82169 -4.74431 0
M  V30 3505 H 326.986 3.04953 -2.83095 0
M  V30 3506 H 325.862 4.31178 -3.39672 0
M  V30 3507 H 326.123 4.09197 -1.67363 0
M  V30 3508 N 325.182 1.32811 0.848464 0
M  V30 3509 C 326.431 1.23075 1.59798 0
M  V30 3510 C 326.744 -0.204419 1.94529 0
M  V30 3511 O 327.95 -0.423701 2.68173 0
M  V30 3512 C 326.406 2.15594 2.88179 0
M  V30 3513 C 326.014 3.64228 2.60849 0
M  V30 3514 C 327.758 2.14709 3.66197 0
M  V30 3515 C 325.665 4.48689 3.85269 0
M  V30 3516 H 324.595 0.457091 0.599653 0
M  V30 3517 H 327.246 1.57813 0.936342 0
M  V30 3518 H 325.628 1.73778 3.55833 0
M  V30 3519 H 326.802 4.14424 2.01467 0
M  V30 3520 H 325.117 3.67306 1.96151 0
M  V30 3521 H 327.714 2.75046 4.58534 0
M  V30 3522 H 328.057 1.13966 4.00397 0
M  V30 3523 H 328.59 2.54837 3.05455 0
M  V30 3524 H 325.329 5.5027 3.56207 0
M  V30 3525 H 324.849 4.03241 4.44024 0
M  V30 3526 H 326.528 4.62006 4.52946 0
M  V30 3527 N 326.66 -1.06551 1.16123 0
M  V30 3528 C 327.623 -2.12132 0.867906 0
M  V30 3529 C 328.623 -1.60224 -0.135944 0
M  V30 3530 O 329.813 -1.73943 0.0946422 0
M  V30 3531 C 326.945 -3.396 0.297419 0
M  V30 3532 H 328.138 -2.39586 1.80385 0
M  V30 3533 H 325.691 -1.22574 0.969812 0
M  V30 3534 H 326.426 -3.17794 -0.64633 0
M  V30 3535 H 326.211 -3.78581 1.02073 0
M  V30 3536 H 327.701 -4.17455 0.110052 0
M  V30 3537 N 328.138 -0.959301 -1.25041 0
M  V30 3538 C 329.088 -0.453888 -2.23436 0
M  V30 3539 C 330.072 0.459461 -1.542 0
M  V30 3540 O 331.264 0.291752 -1.74579 0
M  V30 3541 C 328.393 0.262667 -3.42294 0
M  V30 3542 C 327.479 -0.669022 -4.1879 0
M  V30 3543 N 327.87 -1.80267 -4.72586 0
M  V30 3544 C 326.168 -0.47814 -4.4343 0
M  V30 3545 C 326.869 -2.38475 -5.3057 0
M  V30 3546 N 325.845 -1.67078 -5.17287 0
M  V30 3547 H 329.647 -1.319 -2.6264 0
M  V30 3548 H 327.161 -0.817358 -1.40332 0
M  V30 3549 H 329.158 0.641911 -4.11929 0
M  V30 3550 H 327.818 1.12432 -3.04613 0
M  V30 3551 H 328.829 -2.18442 -4.69578 0
M  V30 3552 H 325.506 0.340249 -4.16111 0
M  V30 3553 H 326.896 -3.34094 -5.8295 0
M  V30 3554 N 329.616 1.39756 -0.72842 0
M  V30 3555 C 330.564 2.32485 -0.0731849 0
M  V30 3556 C 331.558 1.52717 0.733063 0
M  V30 3557 O 332.764 1.68428 0.634988 0
M  V30 3558 H 329.139 0.751984 -0.00486469 0
M  V30 3559 H 331.11 2.85382 -0.871761 0
M  V30 3560 C 329.859 3.37773 0.824908 0
M  V30 3561 H 329.182 3.99227 0.213915 0
M  V30 3562 H 330.622 4.05121 1.25111 0
M  V30 3563 C 329.081 2.74287 1.95622 0
M  V30 3564 O 329.611 2.61618 3.04826 0
M  V30 3565 N 327.817 2.32475 1.74367 0
M  V30 3566 H 327.364 2.4298 0.855494 0
M  V30 3567 H 327.322 1.90337 2.50238 0
M  V30 3568 N 331.094 0.475555 1.50254 0
M  V30 3569 C 332.004 -0.321501 2.32387 0
M  V30 3570 C 333.02 -0.991755 1.42969 0
M  V30 3571 O 334.196 -0.978747 1.76018 0
M  V30 3572 C 331.261 -1.38667 3.17762 0
M  V30 3573 C 330.322 -0.732538 4.23004 0
M  V30 3574 C 329.555 -1.74695 5.04299 0
M  V30 3575 O 329.778 -2.97399 4.86734 0
M  V30 3576 O 328.712 -1.31631 5.8733 0
M  V30 3577 H 332.538 0.350071 3.01676 0
M  V30 3578 H 330.123 0.237321 1.47503 0
M  V30 3579 H 332.005 -2.00354 3.70724 0
M  V30 3580 H 330.68 -2.04163 2.51196 0
M  V30 3581 H 329.587 -0.0765902 3.74022 0
M  V30 3582 H 330.92 -0.120452 4.92053 0
M  V30 3583 N 332.573 -1.56217 0.208337 0
M  V30 3584 C 333.803 -2.02043 -0.431523 0
M  V30 3585 C 334.211 -1.08755 -1.54819 0
M  V30 3586 O 333.554 -0.0870009 -1.83494 0
M  V30 3587 C 333.616 -3.44239 -1.03633 0
M  V30 3588 C 333.28 -4.56965 -0.0567502 0
M  V30 3589 C 334.277 -5.14624 0.738773 0
M  V30 3590 C 331.962 -5.02266 0.0581736 0
M  V30 3591 C 333.956 -6.16045 1.63605 0
M  V30 3592 C 331.643 -6.03528 0.959001 0
M  V30 3593 C 332.641 -6.60293 1.7465 0
M  V30 3594 O 332.329 -7.59586 2.6322 0
M  V30 3595 H 332.061 -0.666772 -0.111313 0
M  V30 3596 H 334.615 -2.02919 0.318277 0
M  V30 3597 H 332.845 -3.40391 -1.83497 0
M  V30 3598 H 334.534 -3.73793 -1.58221 0
M  V30 3599 H 335.3 -4.80483 0.660364 0
M  V30 3600 H 331.179 -4.57771 -0.544633 0
M  V30 3601 H 334.723 -6.60279 2.25116 0
M  V30 3602 H 330.62 -6.37092 1.03848 0
M  V30 3603 H 331.388 -7.77057 2.57148 0
M  V30 3604 N 334.051 0.0651679 -1.57465 0
M  V30 3605 C 335.298 0.763063 -1.87573 0
M  V30 3606 C 335.626 1.77242 -0.800961 0
M  V30 3607 O 334.881 1.94651 0.202316 0
M  V30 3608 C 335.18 1.50081 -3.24362 0
M  V30 3609 C 334.846 0.630816 -4.46466 0
M  V30 3610 C 333.508 0.391082 -4.79608 0
M  V30 3611 C 335.86 0.0279465 -5.21193 0
M  V30 3612 C 333.188 -0.460894 -5.84887 0
M  V30 3613 C 335.54 -0.811522 -6.27373 0
M  V30 3614 C 334.204 -1.06106 -6.59013 0
M  V30 3615 H 333.474 0.279224 -0.686378 0
M  V30 3616 H 336.121 0.0236726 -1.91485 0
M  V30 3617 H 334.426 2.31258 -3.16271 0
M  V30 3618 H 336.123 2.04571 -3.44894 0
M  V30 3619 H 332.713 0.8278 -4.2053 0
M  V30 3620 H 336.897 0.200262 -4.95896 0
M  V30 3621 H 332.153 -0.662907 -6.07796 0
M  V30 3622 H 336.327 -1.28537 -6.84435 0
M  V30 3623 H 333.954 -1.723 -7.40417 0
M  V30 3624 N 335.529 1.53961 0.336706 0
M  V30 3625 C 336.461 1.78751 1.4346 0
M  V30 3626 C 337.474 0.669019 1.48418 0
M  V30 3627 O 338.663 0.945884 1.51378 0
M  V30 3628 C 335.763 1.87844 2.82078 0
M  V30 3629 C 334.936 3.17854 3.00479 0
M  V30 3630 C 333.995 3.17816 4.19379 0
M  V30 3631 O 333.021 3.91511 4.13168 0
M  V30 3632 N 334.223 2.40669 5.2826 0
M  V30 3633 H 336.988 2.73493 1.22563 0
M  V30 3634 H 334.549 1.53096 0.526625 0
M  V30 3635 H 336.541 1.85261 3.59806 0
M  V30 3636 H 335.111 1.00257 2.96086 0
M  V30 3637 H 334.331 3.33504 2.10163 0
M  V30 3638 H 335.619 4.03718 3.0966 0
M  V30 3639 H 335.017 1.8036 5.36178 0
M  V30 3640 H 333.574 2.43877 6.04456 0
M  V30 3641 N 337.007 -0.598083 1.45811 0
M  V30 3642 C 337.954 -1.7082 1.55207 0
M  V30 3643 C 338.924 -1.61278 0.39732 0
M  V30 3644 O 340.109 -1.80717 0.612038 0
M  V30 3645 C 337.249 -3.09144 1.53376 0
M  V30 3646 C 336.362 -3.29423 2.79472 0
M  V30 3647 C 335.497 -4.57907 2.69248 0
M  V30 3648 C 334.536 -4.71476 3.90354 0
M  V30 3649 N 333.673 -5.9127 3.78608 0
M  V30 3650 H 338.513 -1.62125 2.50039 0
M  V30 3651 H 336.05 -0.790389 1.24062 0
M  V30 3652 H 338.008 -3.89186 1.50301 0
M  V30 3653 H 336.638 -3.16773 0.620876 0
M  V30 3654 H 335.69 -2.43091 2.92594 0
M  V30 3655 H 337.002 -3.3532 3.69272 0
M  V30 3656 H 336.156 -5.46157 2.64192 0
M  V30 3657 H 334.895 -4.54423 1.77063 0
M  V30 3658 H 333.9 -3.81648 3.95759 0
M  V30 3659 H 335.125 -4.76751 4.83617 0
M  V30 3660 H 333.071 -5.88813 2.89199 0
M  V30 3661 H 332.988 -5.98369 4.6205 0
M  V30 3662 H 334.256 -6.81992 3.77501 0
M  V30 3663 N 338.485 -1.33259 -0.841409 0
M  V30 3664 C 339.732 -1.24572 -1.5965 0
M  V30 3665 C 340.06 0.189137 -1.93578 0
M  V30 3666 O 339.315 1.14566 -1.5866 0
M  V30 3667 C 339.614 -2.06381 -2.9179 0
M  V30 3668 C 339.28 -3.556 -2.77235 0
M  V30 3669 C 337.942 -3.96282 -2.72973 0
M  V30 3670 C 340.294 -4.50433 -2.62221 0
M  V30 3671 C 337.622 -5.30017 -2.51592 0
M  V30 3672 C 339.974 -5.84327 -2.42374 0
M  V30 3673 C 338.638 -6.24194 -2.36512 0
M  V30 3674 H 337.908 -0.455842 -0.5842 0
M  V30 3675 H 340.555 -1.6482 -0.975016 0
M  V30 3676 H 338.86 -1.58903 -3.5813 0
M  V30 3677 H 340.557 -1.97019 -3.49263 0
M  V30 3678 H 337.147 -3.23298 -2.81384 0
M  V30 3679 H 341.331 -4.19914 -2.64549 0
M  V30 3680 H 336.587 -5.59947 -2.45499 0
M  V30 3681 H 340.761 -6.57414 -2.29739 0
M  V30 3682 H 338.388 -7.27759 -2.19706 0
M  V30 3683 N 339.963 1.05934 -1.16686 0
M  V30 3684 C 341.374 1.60263 -0.957745 0
M  V30 3685 C 341.725 1.89789 0.49745 0
M  V30 3686 O 340.85 1.67401 1.37135 0
M  V30 3687 C 341.445 2.91172 -1.73218 0
M  V30 3688 C 340.004 3.42188 -1.56794 0
M  V30 3689 C 339.151 2.16028 -1.73859 0
M  V30 3690 H 342.102 0.888392 -1.31504 0
M  V30 3691 H 342.123 3.60744 -1.21014 0
M  V30 3692 H 341.635 2.6965 -2.79124 0
M  V30 3693 H 339.736 3.68762 -0.533437 0
M  V30 3694 H 339.849 4.17273 -2.35414 0
M  V30 3695 H 338.213 2.26426 -1.16633 0
M  V30 3696 H 338.996 1.96985 -2.81161 0
M  V30 3697 N 341.441 0.965919 1.2453 0
M  V30 3698 C 342.718 0.543777 1.87889 0
M  V30 3699 C 343.098 -0.97909 1.87021 0
M  V30 3700 O 342.446 -1.84969 1.3416 0
M  V30 3701 C 342.656 1.13327 3.30088 0
M  V30 3702 C 344.004 1.21707 4.06783 0
M  V30 3703 O 345.028 1.08566 3.39252 0
M  V30 3704 O 343.887 1.42456 5.27606 0
M  V30 3705 H 340.981 0.181054 0.806938 0
M  V30 3706 H 343.527 1.06007 1.32516 0
M  V30 3707 H 342.299 2.17612 3.25209 0
M  V30 3708 H 341.922 0.600911 3.93033 0
M  V30 3709 N 342.919 -1.39368 0.735821 0
M  V30 3710 C 344.144 -2.05319 0.293052 0
M  V30 3711 C 344.569 -1.55115 -1.064 0
M  V30 3712 O 343.927 -0.695261 -1.67439 0
M  V30 3713 C 343.975 -3.59305 0.305323 0
M  V30 3714 O 343.079 -4.06299 -0.706761 0
M  V30 3715 H 342.42 -0.650529 0.13307 0
M  V30 3716 H 344.95 -1.78386 1.00197 0
M  V30 3717 H 344.96 -4.07724 0.149997 0
M  V30 3718 H 343.635 -3.95207 1.29553 0
M  V30 3719 H 342.212 -3.69292 -0.517504 0
M  V30 3720 N 344.397 -0.483516 -1.5 0
M  V30 3721 C 345.808 -0.0314176 -1.86674 0
M  V30 3722 C 346.159 1.37728 -1.39733 0
M  V30 3723 O 345.284 2.02327 -0.767635 0
M  V30 3724 C 345.879 -0.0502376 -3.38763 0
M  V30 3725 C 344.438 0.346442 -3.74802 0
M  V30 3726 C 343.585 -0.430366 -2.7394 0
M  V30 3727 H 346.536 -0.697182 -1.42566 0
M  V30 3728 H 346.557 0.749116 -3.73053 0
M  V30 3729 H 346.069 -1.07563 -3.72897 0
M  V30 3730 H 344.17 1.37572 -3.46273 0
M  V30 3731 H 344.283 0.0391486 -4.79084 0
M  V30 3732 H 342.647 0.117557 -2.54429 0
M  V30 3733 H 343.43 -1.4555 -3.10918 0
M  V30 3734 N 345.875 1.56104 -0.216619 0
M  V30 3735 C 346.805 2.23063 0.690296 0
M  V30 3736 C 347.786 1.20072 1.20485 0
M  V30 3737 O 348.971 1.48643 1.24976 0
M  V30 3738 C 346.101 2.90672 1.90072 0
M  V30 3739 C 345.055 4.00092 1.5202 0
M  V30 3740 C 344.381 4.54972 2.80899 0
M  V30 3741 C 345.681 5.17398 0.71391 0
M  V30 3742 H 347.375 2.99109 0.132038 0
M  V30 3743 H 344.921 1.43866 0.0620664 0
M  V30 3744 H 346.874 3.36204 2.54057 0
M  V30 3745 H 345.598 2.12066 2.48386 0
M  V30 3746 H 344.257 3.55283 0.903839 0
M  V30 3747 H 343.905 3.73102 3.37348 0
M  V30 3748 H 343.605 5.28817 2.56176 0
M  V30 3749 H 345.129 5.0322 3.45836 0
M  V30 3750 H 346.543 5.59342 1.25735 0
M  V30 3751 H 344.94 5.97444 0.563951 0
M  V30 3752 H 346.01 4.84088 -0.280527 0
M  V30 3753 N 347.353 -0.0568162 1.57498 0
M  V30 3754 C 348.599 -0.75422 1.88253 0
M  V30 3755 C 348.932 -1.76461 0.810865 0
M  V30 3756 O 348.207 -1.93691 -0.177259 0
M  V30 3757 C 348.49 -1.44878 3.2967 0
M  V30 3758 C 348.343 -0.453789 4.47505 0
M  V30 3759 C 349.662 -2.38994 3.69554 0
M  V30 3760 H 346.781 -0.272724 0.684683 0
M  V30 3761 H 349.423 -0.0172113 1.89992 0
M  V30 3762 H 347.573 -2.077 3.28318 0
M  V30 3763 H 349.245 0.170371 4.60985 0
M  V30 3764 H 347.488 0.229552 4.33192 0
M  V30 3765 H 348.159 -0.977699 5.43273 0
M  V30 3766 H 350.635 -1.86239 3.72095 0
M  V30 3767 H 349.511 -2.84587 4.69363 0
M  V30 3768 H 349.772 -3.24461 3.00296 0
M  V30 3769 N 348.832 -1.54138 -0.328536 0
M  V30 3770 C 350.078 -1.7236 -1.06865 0
M  V30 3771 C 350.411 -0.493231 -1.87832 0
M  V30 3772 O 349.686 0.5098 -1.877 0
M  V30 3773 C 349.969 -2.99621 -1.99747 0
M  V30 3774 C 349.822 -4.32899 -1.22143 0
M  V30 3775 C 351.141 -3.22615 -2.99345 0
M  V30 3776 H 348.26 -0.627151 -0.387105 0
M  V30 3777 H 350.902 -1.86827 -0.345767 0
M  V30 3778 H 349.052 -2.87418 -2.61387 0
M  V30 3779 H 350.724 -4.56978 -0.630017 0
M  V30 3780 H 348.967 -4.30628 -0.523628 0
M  V30 3781 H 349.638 -5.18154 -1.90318 0
M  V30 3782 H 352.114 -3.34248 -2.47826 0
M  V30 3783 H 350.99 -4.13027 -3.61524 0
M  V30 3784 H 351.251 -2.3961 -3.71536 0
M  V30 3785 N 350.31 0.590341 -1.46126 0
M  V30 3786 C 351.257 1.69994 -1.56111 0
M  V30 3787 C 352.227 1.61065 -0.405867 0
M  V30 3788 O 353.412 1.8039 -0.621613 0
M  V30 3789 C 350.552 3.08326 -1.55013 0
M  V30 3790 C 349.665 3.27936 -2.81215 0
M  V30 3791 C 348.8 4.56473 -2.71673 0
M  V30 3792 C 347.839 4.694 -3.92849 0
M  V30 3793 N 346.976 5.89254 -3.81738 0
M  V30 3794 H 351.816 1.60797 -2.50895 0
M  V30 3795 H 349.353 0.783799 -1.24479 0
M  V30 3796 H 351.311 3.88383 -1.52362 0
M  V30 3797 H 349.941 3.16439 -0.637667 0
M  V30 3798 H 348.993 2.41536 -2.93879 0
M  V30 3799 H 350.305 3.33357 -3.71045 0
M  V30 3800 H 349.459 5.44748 -2.67085 0
M  V30 3801 H 348.198 4.53477 -1.7947 0
M  V30 3802 H 347.203 3.79544 -3.97777 0
M  V30 3803 H 348.428 4.7418 -4.86138 0
M  V30 3804 H 346.374 5.87271 -2.92317 0
M  V30 3805 H 346.291 5.95911 -4.65217 0
M  V30 3806 H 347.559 6.79981 -3.81112 0
M  V30 3807 N 351.788 1.33704 0.83433 0
M  V30 3808 C 353.034 1.25603 1.59222 0
M  V30 3809 C 353.367 -0.176659 1.93395 0
M  V30 3810 O 352.642 -1.11915 1.59076 0
M  V30 3811 C 352.925 2.13576 2.89926 0
M  V30 3812 C 352.778 3.65326 2.62406 0
M  V30 3813 C 354.097 2.01238 3.91397 0
M  V30 3814 H 351.216 0.457613 0.577719 0
M  V30 3815 H 353.858 1.63848 0.961972 0
M  V30 3816 H 352.008 1.8109 3.43713 0
M  V30 3817 H 353.68 4.08124 2.15017 0
M  V30 3818 H 351.923 3.8698 1.96033 0
M  V30 3819 H 352.594 4.22232 3.55562 0
M  V30 3820 H 355.07 2.29738 3.46929 0
M  V30 3821 H 353.946 2.65036 4.80673 0
M  V30 3822 H 354.207 0.985951 4.30966 0
M  V30 3823 N 353.266 -1.05314 1.17247 0
M  V30 3824 C 354.196 -2.1498 0.911362 0
M  V30 3825 C 355.177 -1.69471 -0.146169 0
M  V30 3826 O 356.362 -1.942 0.003812 0
M  V30 3827 C 353.492 -3.4472 0.422528 0
M  V30 3828 C 352.446 -4.03789 1.4191 0
M  V30 3829 C 351.772 -5.28858 0.788274 0
M  V30 3830 C 353.072 -4.41418 2.7919 0
M  V30 3831 H 354.766 -2.3708 1.82848 0
M  V30 3832 H 352.312 -1.13938 0.880569 0
M  V30 3833 H 354.265 -4.20787 0.227289 0
M  V30 3834 H 352.989 -3.22269 -0.530123 0
M  V30 3835 H 351.648 -3.2979 1.60106 0
M  V30 3836 H 351.296 -5.02709 -0.171173 0
M  V30 3837 H 350.996 -5.69338 1.45353 0
M  V30 3838 H 352.52 -6.07612 0.603282 0
M  V30 3839 H 353.934 -5.08524 2.64719 0
M  V30 3840 H 352.331 -4.92913 3.42282 0
M  V30 3841 H 353.401 -3.51819 3.33693 0
M  V30 3842 N 354.744 -0.972509 -1.24016 0
M  V30 3843 C 355.691 -0.505969 -2.25186 0
M  V30 3844 C 356.661 0.451009 -1.5986 0
M  V30 3845 O 357.846 0.360307 -1.87367 0
M  V30 3846 C 354.986 0.193089 -3.44559 0
M  V30 3847 C 354.099 -0.803222 -4.24467 0
M  V30 3848 C 353.234 -0.0797793 -5.3114 0
M  V30 3849 C 352.273 -1.06583 -6.02749 0
M  V30 3850 N 351.41 -0.372074 -7.01113 0
M  V30 3851 H 356.25 -1.37351 -2.64459 0
M  V30 3852 H 353.787 -0.688419 -1.29997 0
M  V30 3853 H 355.745 0.615125 -4.1264 0
M  V30 3854 H 354.375 1.02455 -3.06109 0
M  V30 3855 H 353.427 -1.34368 -3.55878 0
M  V30 3856 H 354.739 -1.55494 -4.73944 0
M  V30 3857 H 353.893 0.400015 -6.0538 0
M  V30 3858 H 352.632 0.704597 -4.82583 0
M  V30 3859 H 351.637 -1.55645 -5.27309 0
M  V30 3860 H 352.862 -1.85074 -6.53395 0
M  V30 3861 H 350.808 0.393238 -6.5482 0
M  V30 3862 H 350.725 -1.06258 -7.48495 0
M  V30 3863 H 351.993 0.0855932 -7.79453 0
M  V30 3864 N 356.222 1.38976 -0.743202 0
M  V30 3865 C 357.152 2.33171 -0.123873 0
M  V30 3866 C 358.133 1.54336 0.71516 0
M  V30 3867 O 359.318 1.82696 0.658467 0
M  V30 3868 C 356.448 3.38474 0.777978 0
M  V30 3869 C 355.402 4.27979 0.0424758 0
M  V30 3870 C 354.728 5.2405 1.06189 0
M  V30 3871 C 356.028 5.10155 -1.1198 0
M  V30 3872 H 357.722 2.85213 -0.910709 0
M  V30 3873 H 355.268 1.37133 -0.439388 0
M  V30 3874 H 357.221 4.03328 1.22084 0
M  V30 3875 H 355.945 2.84891 1.59702 0
M  V30 3876 H 354.604 3.64616 -0.380853 0
M  V30 3877 H 354.252 4.66758 1.87472 0
M  V30 3878 H 353.952 5.84785 0.574485 0
M  V30 3879 H 355.476 5.9178 1.50428 0
M  V30 3880 H 356.89 5.68307 -0.75499 0
M  V30 3881 H 355.287 5.80073 -1.53738 0
M  V30 3882 H 356.357 4.44504 -1.93764 0
M  V30 3883 N 357.7 0.491464 1.49741 0
M  V30 3884 C 358.648 -0.305837 2.30581 0
M  V30 3885 C 359.642 -0.971642 1.38764 0
M  V30 3886 O 360.848 -0.90042 1.5586 0
M  V30 3887 H 357.223 -0.117482 0.742767 0
M  V30 3888 H 359.194 0.396093 2.95759 0
M  V30 3889 C 357.943 -1.36319 3.19863 0
M  V30 3890 H 357.266 -0.860258 3.90435 0
M  V30 3891 H 358.706 -1.89323 3.79385 0
M  V30 3892 C 357.165 -2.37621 2.38826 0
M  V30 3893 O 357.695 -3.43311 2.08567 0
M  V30 3894 N 355.901 -2.09849 2.01026 0
M  V30 3895 H 355.448 -1.23922 2.25834 0
M  V30 3896 H 355.406 -2.77859 1.47112 0
M  V30 3897 N 359.178 -1.55987 0.224894 0
M  V30 3898 C 360.141 -2.19178 -0.670348 0
M  V30 3899 C 361.141 -1.15461 -1.11917 0
M  V30 3900 O 362.331 -1.40675 -1.02743 0
M  V30 3901 C 359.463 -2.81777 -1.9187 0
M  V30 3902 H 360.656 -2.99662 -0.119364 0
M  V30 3903 H 358.209 -1.5628 -0.0247128 0
M  V30 3904 H 358.944 -2.05172 -2.51147 0
M  V30 3905 H 358.729 -3.57732 -1.60531 0
M  V30 3906 H 360.219 -3.30205 -2.55645 0
M  V30 3907 N 360.656 0.0484629 -1.57525 0
M  V30 3908 C 361.905 0.742065 -1.87553 0
M  V30 3909 C 362.218 1.77545 -0.820802 0
M  V30 3910 O 363.424 2.52027 -1.00967 0
M  V30 3911 C 361.88 1.37081 -3.32771 0
M  V30 3912 C 361.488 0.374786 -4.4643 0
M  V30 3913 C 363.232 2.04542 -3.71972 0
M  V30 3914 C 361.139 1.01077 -5.82698 0
M  V30 3915 H 360.069 0.280903 -0.699721 0
M  V30 3916 H 362.72 -0.00411877 -1.835 0
M  V30 3917 H 361.102 2.16605 -3.31509 0
M  V30 3918 H 362.276 -0.392331 -4.59127 0
M  V30 3919 H 360.591 -0.196653 -4.15935 0
M  V30 3920 H 363.188 2.52943 -4.71088 0
M  V30 3921 H 363.531 2.85515 -3.02964 0
M  V30 3922 H 364.064 1.31819 -3.75325 0
M  V30 3923 H 360.803 0.240878 -6.55057 0
M  V30 3924 H 360.323 1.74819 -5.73758 0
M  V30 3925 H 362.002 1.52383 -6.28799 0
M  V30 3926 N 362.134 1.5431 0.320358 0
M  V30 3927 C 363.362 1.76636 1.07738 0
M  V30 3928 C 363.777 0.51649 1.81598 0
M  V30 3929 O 363.134 -0.512942 1.75143 0
M  V30 3930 C 363.185 2.96158 2.07299 0
M  V30 3931 O 362.906 4.16313 1.36438 0
M  V30 3932 C 364.407 3.3072 2.95193 0
M  V30 3933 H 361.627 0.589597 0.320339 0
M  V30 3934 H 364.171 2.01207 0.36551 0
M  V30 3935 H 362.326 2.73851 2.74016 0
M  V30 3936 H 362.74 4.83565 2.03138 0
M  V30 3937 H 364.214 4.17643 3.60941 0
M  V30 3938 H 364.691 2.48026 3.62463 0
M  V30 3939 H 365.297 3.55117 2.34034 0
M  V30 3940 N 363.613 -0.582584 1.46437 0
M  V30 3941 C 364.576 -1.67366 1.56592 0
M  V30 3942 C 365.576 -1.54575 0.443072 0
M  V30 3943 O 366.766 -1.59191 0.707381 0
M  V30 3944 C 363.898 -3.06791 1.48634 0
M  V30 3945 H 365.091 -1.5972 2.5383 0
M  V30 3946 H 362.644 -0.800432 1.34249 0
M  V30 3947 H 363.379 -3.19993 0.526763 0
M  V30 3948 H 363.164 -3.17484 2.30101 0
M  V30 3949 H 364.654 -3.86218 1.58826 0
M  V30 3950 N 365.091 -1.34144 -0.827227 0
M  V30 3951 C 366.319 -1.29325 -1.61501 0
M  V30 3952 C 366.734 0.13354 -1.88327 0
M  V30 3953 O 366.091 1.0793 -1.47164 0
M  V30 3954 C 366.142 -2.07746 -2.95844 0
M  V30 3955 O 365.863 -3.4486 -2.70191 0
M  V30 3956 C 367.364 -2.10273 -3.90256 0
M  V30 3957 H 364.584 -0.445069 -0.50215 0
M  V30 3958 H 367.128 -1.76693 -1.02955 0
M  V30 3959 H 365.283 -1.6403 -3.5096 0
M  V30 3960 H 365.697 -3.85345 -3.55822 0
M  V30 3961 H 367.171 -2.69575 -4.81698 0
M  V30 3962 H 367.648 -1.096 -4.25305 0
M  V30 3963 H 368.254 -2.54059 -3.41078 0
M  V30 3964 N 366.569 1.04691 -1.17803 0
M  V30 3965 C 367.479 2.16057 -0.914151 0
M  V30 3966 C 368.495 1.73589 0.119503 0
M  V30 3967 O 369.671 2.01308 -0.0609468 0
M  V30 3968 C 366.736 3.4394 -0.436603 0
M  V30 3969 C 365.797 4.00825 -1.53746 0
M  V30 3970 C 365.03 5.22604 -1.0826 0
M  V30 3971 O 365.253 5.70367 0.0612244 0
M  V30 3972 O 364.187 5.7186 -1.87775 0
M  V30 3973 H 368.013 2.41169 -1.84584 0
M  V30 3974 H 365.598 1.1453 -0.959334 0
M  V30 3975 H 367.48 4.21024 -0.178057 0
M  V30 3976 H 366.155 3.20316 0.466869 0
M  V30 3977 H 365.062 3.25158 -1.84995 0
M  V30 3978 H 366.395 4.28778 -2.41683 0
M  V30 3979 N 368.047 0.979072 1.23499 0
M  V30 3980 C 369.295 0.645941 1.91499 0
M  V30 3981 C 369.616 -0.822948 1.76784 0
M  V30 3982 O 368.886 -1.58854 1.14639 0
M  V30 3983 H 367.466 0.235919 0.708767 0
M  V30 3984 H 370.128 1.2426 1.50152 0
M  V30 3985 H 369.224 0.896411 2.9895 0
M  V30 3986 N 369.525 -1.3858 0.750561 0
M  V30 3987 C 370.771 -2.00481 0.305825 0
M  V30 3988 C 371.104 -1.5944 -1.10872 0
M  V30 3989 O 370.379 -0.83052 -1.75877 0
M  V30 3990 C 370.662 -3.5758 0.425287 0
M  V30 3991 C 370.515 -4.08594 1.88072 0
M  V30 3992 C 371.834 -4.39719 -0.183122 0
M  V30 3993 H 368.953 -0.728348 0.112598 0
M  V30 3994 H 371.595 -1.64566 0.949638 0
M  V30 3995 H 369.745 -3.88306 -0.122828 0
M  V30 3996 H 371.417 -3.88523 2.48691 0
M  V30 3997 H 369.66 -3.61574 2.39681 0
M  V30 3998 H 370.331 -5.177 1.91548 0
M  V30 3999 H 372.807 -4.15128 0.284303 0
M  V30 4000 H 371.683 -5.48856 -0.0692757 0
M  V30 4001 H 371.944 -4.23434 -1.27106 0
M  V30 4002 N 371.003 -0.499398 -1.49478 0
M  V30 4003 C 372.251 0.0455996 -2.02049 0
M  V30 4004 C 372.572 1.37633 -1.38138 0
M  V30 4005 O 371.842 1.8842 -0.536166 0
M  V30 4006 H 370.422 0.0198416 -0.746736 0
M  V30 4007 H 373.084 -0.656274 -1.83519 0
M  V30 4008 H 372.18 0.176445 -3.11601 0
M  V30 4009 N 372.481 1.55866 -0.233164 0
M  V30 4010 C 373.727 1.98897 0.395959 0
M  V30 4011 C 374.06 1.12091 1.58585 0
M  V30 4012 O 373.335 0.181182 1.93654 0
M  V30 4013 C 373.618 3.50658 0.819224 0
M  V30 4014 C 373.471 4.48233 -0.375109 0
M  V30 4015 C 374.79 4.07135 1.67121 0
M  V30 4016 H 371.909 0.723102 0.142451 0
M  V30 4017 H 374.551 1.87082 -0.331725 0
M  V30 4018 H 372.701 3.60857 1.43925 0
M  V30 4019 H 374.373 4.50031 -1.01341 0
M  V30 4020 H 372.616 4.21624 -1.02058 0
M  V30 4021 H 373.287 5.51988 -0.0358328 0
M  V30 4022 H 375.763 3.99952 1.14795 0
M  V30 4023 H 374.639 5.13615 1.93625 0
M  V30 4024 H 374.9 3.54736 2.63846 0
M  V30 4025 N 373.959 -0.0401083 1.57549 0
M  V30 4026 C 375.184 -0.748931 1.93406 0
M  V30 4027 C 375.609 -1.68686 0.832274 0
M  V30 4028 O 374.967 -1.80047 -0.212818 0
M  V30 4029 C 375.015 -1.4916 3.28304 0
M  V30 4030 O 374.119 -2.6042 3.19774 0
M  V30 4031 H 373.46 -0.202212 0.63246 0
M  V30 4032 H 375.99 0.00112086 2.046 0
M  V30 4033 H 376 -1.86395 3.62934 0
M  V30 4034 H 374.675 -0.80364 4.08062 0
M  V30 4035 H 373.252 -2.25808 2.96758 0
M  V30 4036 N 375.437 -1.54477 -0.31217 0
M  V30 4037 C 376.677 -1.74958 -1.05684 0
M  V30 4038 C 377.041 -0.518414 -1.84869 0
M  V30 4039 O 378.242 -0.600759 -2.62001 0
M  V30 4040 C 376.513 -2.99656 -1.94785 0
M  V30 4041 S 378.072 -3.4109 -2.76049 0
M  V30 4042 H 374.89 -0.615104 -0.356606 0
M  V30 4043 H 377.492 -1.92669 -0.331514 0
M  V30 4044 H 376.196 -3.87397 -1.35468 0
M  V30 4045 H 375.727 -2.845 -2.71704 0
M  V30 4046 H 377.742 -2.97283 -3.97287 0
M  V30 4047 N 376.915 0.57481 -1.46744 0
M  V30 4048 C 378.164 1.32898 -1.51727 0
M  V30 4049 C 378.477 1.948 -0.176692 0
M  V30 4050 O 379.683 2.71299 -0.104385 0
M  V30 4051 C 378.139 2.40901 -2.67385 0
M  V30 4052 C 377.747 1.85266 -4.07898 0
M  V30 4053 C 379.491 3.17609 -2.81646 0
M  V30 4054 C 377.398 2.90945 -5.14883 0
M  V30 4055 H 376.328 0.499631 -0.564699 0
M  V30 4056 H 378.979 0.612536 -1.72975 0
M  V30 4057 H 377.361 3.15379 -2.39483 0
M  V30 4058 H 378.535 1.17278 -4.45626 0
M  V30 4059 H 376.85 1.21199 -3.98371 0
M  V30 4060 H 379.447 3.96493 -3.58744 0
M  V30 4061 H 379.79 3.70696 -1.89448 0
M  V30 4062 H 380.323 2.50239 -3.09233 0
M  V30 4063 H 377.062 2.42736 -6.089 0
M  V30 4064 H 376.582 3.57398 -4.81691 0
M  V30 4065 H 378.261 3.54755 -5.41071 0
M  V30 4066 N 378.394 1.34581 0.820102 0
M  V30 4067 C 379.81 1.14325 1.11364 0
M  V30 4068 C 380.01 -0.0533648 2.01429 0
M  V30 4069 O 379.066 -0.728044 2.41776 0
M  V30 4070 C 380.379 2.43983 1.75764 0
M  V30 4071 C 381.927 2.50065 1.88246 0
M  V30 4072 C 382.402 3.79732 2.56061 0
M  V30 4073 N 383.893 3.80908 2.63558 0
M  V30 4074 C 384.628 4.77961 3.16766 0
M  V30 4075 N 384.124 5.85397 3.70517 0
M  V30 4076 N 385.917 4.65413 3.15194 0
M  V30 4077 H 378.068 2.11246 0.221096 0
M  V30 4078 H 380.331 0.934289 0.160649 0
M  V30 4079 H 380.037 3.31651 1.1705 0
M  V30 4080 H 379.911 2.57531 2.75604 0
M  V30 4081 H 382.298 1.62834 2.46108 0
M  V30 4082 H 382.379 2.40442 0.873006 0
M  V30 4083 H 382.023 4.67354 1.98853 0
M  V30 4084 H 381.953 3.86639 3.57516 0
M  V30 4085 H 384.444 3.03274 2.25463 0
M  V30 4086 H 384.757 6.55463 4.09376 0
M  V30 4087 H 383.102 5.89107 3.68752 0
M  V30 4088 H 386.293 3.80627 2.72471 0
M  V30 4089 H 386.466 5.41216 3.56356 0
M  V30 4090 N 379.872 -1.04064 1.18357 0
M  V30 4091 C 380.782 -2.15569 0.925596 0
M  V30 4092 C 381.798 -1.7365 -0.110295 0
M  V30 4093 O 382.974 -2.01273 0.0716218 0
M  V30 4094 C 380.039 -3.43704 0.454836 0
M  V30 4095 C 379.1 -4.00004 1.55869 0
M  V30 4096 C 378.333 -5.22023 1.1103 0
M  V30 4097 O 378.556 -5.70392 -0.0309756 0
M  V30 4098 O 377.49 -5.70856 1.90805 0
M  V30 4099 H 381.316 -2.40187 1.8586 0
M  V30 4100 H 378.901 -1.1402 0.965394 0
M  V30 4101 H 380.783 -4.20923 0.200382 0
M  V30 4102 H 379.458 -3.20559 -0.449876 0
M  V30 4103 H 378.365 -3.24172 1.86716 0
M  V30 4104 H 379.698 -4.2749 2.43953 0
M  V30 4105 N 381.35 -0.985608 -1.22978 0
M  V30 4106 C 382.761 -0.693593 -1.73338 0
M  V30 4107 C 383.112 0.789935 -1.79595 0
M  V30 4108 O 382.237 1.61771 -1.43733 0
M  V30 4109 C 382.832 -1.25235 -3.14804 0
M  V30 4110 C 381.391 -1.00987 -3.626 0
M  V30 4111 C 380.538 -1.37695 -2.40698 0
M  V30 4112 H 383.489 -1.15884 -1.08428 0
M  V30 4113 H 383.51 -0.627329 -3.75293 0
M  V30 4114 H 383.022 -2.33209 -3.10218 0
M  V30 4115 H 381.123 0.0535565 -3.72562 0
M  V30 4116 H 381.236 -1.66812 -4.49122 0
M  V30 4117 H 379.6 -0.795459 -2.4196 0
M  V30 4118 H 380.383 -2.46657 -2.38779 0
M  V30 4119 N 382.828 1.3818 -0.7579 0
M  V30 4120 C 384.244 1.5353 -0.435972 0
M  V30 4121 C 384.444 1.71961 1.05032 0
M  V30 4122 O 383.5 1.73307 1.83633 0
M  V30 4123 C 384.813 2.73989 -1.23898 0
M  V30 4124 C 386.361 2.87841 -1.22949 0
M  V30 4125 C 386.836 4.11266 -2.01554 0
M  V30 4126 N 388.327 4.18352 -1.98837 0
M  V30 4127 C 389.062 5.12856 -2.5645 0
M  V30 4128 N 388.558 6.13005 -3.22794 0
M  V30 4129 N 390.351 5.05238 -2.46356 0
M  V30 4130 H 382.502 1.24467 -1.7211 0
M  V30 4131 H 384.765 0.604982 -0.729864 0
M  V30 4132 H 384.471 2.66789 -2.29165 0
M  V30 4133 H 384.345 3.67294 -0.858764 0
M  V30 4134 H 386.732 2.9452 -0.184854 0
M  V30 4135 H 386.813 1.95534 -1.64924 0
M  V30 4136 H 386.457 4.05349 -3.06031 0
M  V30 4137 H 386.387 5.02661 -1.5697 0
M  V30 4138 H 388.878 3.46628 -1.50524 0
M  V30 4139 H 389.191 6.81619 -3.64165 0
M  V30 4140 H 387.536 6.13325 -3.2689 0
M  V30 4141 H 390.727 4.25938 -1.9415 0
M  V30 4142 H 390.9 5.78707 -2.91552 0
M  V30 4143 N 384.306 0.507319 1.49211 0
M  V30 4144 C 385.216 -0.272136 2.33016 0
M  V30 4145 C 386.232 -0.961206 1.45041 0
M  V30 4146 O 387.408 -0.941191 1.78055 0
M  V30 4147 C 384.473 -1.31895 3.20631 0
M  V30 4148 C 383.534 -0.642648 4.24463 0
M  V30 4149 C 382.767 -1.63959 5.07891 0
M  V30 4150 O 382.99 -2.87007 4.92933 0
M  V30 4151 O 381.924 -1.19143 5.8999 0
M  V30 4152 H 385.75 0.413982 3.00865 0
M  V30 4153 H 383.335 0.268556 1.46966 0
M  V30 4154 H 385.217 -1.92446 3.7489 0
M  V30 4155 H 383.892 -1.98788 2.5547 0
M  V30 4156 H 382.799 0.00276252 3.741 0
M  V30 4157 H 384.132 -0.0160534 4.92197 0
M  V30 4158 N 385.784 -1.5574 0.241426 0
M  V30 4159 C 387.033 -1.97986 -0.385295 0
M  V30 4160 C 387.346 -1.13267 -1.59468 0
M  V30 4161 O 388.552 -1.45501 -2.2922 0
M  V30 4162 C 387.008 -3.52275 -0.736884 0
M  V30 4163 C 386.616 -4.45726 0.450796 0
M  V30 4164 C 388.36 -4.03189 -1.3281 0
M  V30 4165 C 386.267 -5.91352 0.0756662 0
M  V30 4166 H 385.197 -0.739386 -0.147731 0
M  V30 4167 H 387.848 -1.80308 0.340779 0
M  V30 4168 H 386.23 -3.65628 -1.52094 0
M  V30 4169 H 387.404 -4.44131 1.22819 0
M  V30 4170 H 385.719 -4.05264 0.956573 0
M  V30 4171 H 388.316 -5.09505 -1.62201 0
M  V30 4172 H 388.659 -3.50212 -2.25071 0
M  V30 4173 H 389.192 -3.93141 -0.607069 0
M  V30 4174 H 385.931 -6.48354 0.965272 0
M  V30 4175 H 385.451 -5.96095 -0.665635 0
M  V30 4176 H 387.13 -6.46084 -0.344075 0
M  V30 4177 N 387.262 0.0317525 -1.57568 0
M  V30 4178 C 388.225 1.01783 -2.0536 0
M  V30 4179 C 389.225 1.29203 -0.957253 0
M  V30 4180 O 390.415 1.24251 -1.22095 0
M  V30 4181 C 387.547 2.35137 -2.46827 0
M  V30 4182 H 388.74 0.605062 -2.93733 0
M  V30 4183 H 386.293 0.278514 -1.53799 0
M  V30 4184 H 387.028 2.81168 -1.61602 0
M  V30 4185 H 386.813 2.16566 -3.26866 0
M  V30 4186 H 388.303 3.05938 -2.84239 0
M  V30 4187 N 388.74 1.54641 0.303973 0
M  V30 4188 C 389.673 1.80263 1.3993 0
M  V30 4189 C 390.651 0.653657 1.48883 0
M  V30 4190 O 391.835 0.893284 1.6599 0
M  V30 4191 C 388.962 1.9367 2.77866 0
M  V30 4192 C 388.008 3.16078 2.86351 0
M  V30 4193 S 388.841 4.74219 2.4875 0
M  V30 4194 C 389.997 4.90558 3.88721 0
M  V30 4195 H 390.23 2.72886 1.17986 0
M  V30 4196 H 387.763 1.46014 0.501918 0
M  V30 4197 H 389.721 2.0208 3.57315 0
M  V30 4198 H 388.382 1.01991 2.9708 0
M  V30 4199 H 387.575 3.22252 3.87517 0
M  V30 4200 H 387.177 3.06099 2.14893 0
M  V30 4201 H 389.469 4.74398 4.83687 0
M  V30 4202 H 390.412 5.92651 3.87518 0
M  V30 4203 H 390.82 4.18728 3.78585 0
M  V30 4204 N 390.218 -0.567019 1.47046 0
M  V30 4205 C 391.464 -1.32658 1.53394 0
M  V30 4206 C 391.797 -1.93254 0.19148 0
M  V30 4207 O 391.072 -1.77338 -0.798844 0
M  V30 4208 C 391.355 -2.44412 2.64452 0
M  V30 4209 C 391.208 -1.88749 4.08282 0
M  V30 4210 C 392.527 -3.46387 2.71485 0
M  V30 4211 H 389.646 -0.48098 0.558415 0
M  V30 4212 H 392.288 -0.635481 1.79058 0
M  V30 4213 H 390.438 -3.03363 2.427 0
M  V30 4214 H 392.11 -1.34134 4.41368 0
M  V30 4215 H 390.353 -1.19481 4.17021 0
M  V30 4216 H 391.024 -2.69491 4.81745 0
M  V30 4217 H 393.5 -2.9734 2.91081 0
M  V30 4218 H 392.376 -4.2202 3.50985 0
M  V30 4219 H 392.637 -4.04616 1.78153 0
M  V30 4220 N 391.696 -1.35014 -0.812953 0
M  V30 4221 C 392.644 -1.27435 -1.94585 0
M  V30 4222 C 393.638 -0.170494 -1.6854 0
M  V30 4223 O 394.844 -0.336085 -1.76835 0
M  V30 4224 H 391.219 -0.396144 -0.639198 0
M  V30 4225 H 393.19 -2.23158 -1.98098 0
M  V30 4226 C 391.939 -1.05677 -3.31252 0
M  V30 4227 H 391.262 -1.89853 -3.51846 0
M  V30 4228 H 392.702 -1.04413 -4.10943 0
M  V30 4229 C 391.161 0.239615 -3.36047 0
M  V30 4230 O 391.691 1.23759 -3.8216 0
M  V30 4231 N 389.897 0.276186 -2.89285 0
M  V30 4232 H 389.444 -0.53653 -2.51951 0
M  V30 4233 H 389.402 1.14332 -2.92875 0
M  V30 4234 N 393.175 1.03435 -1.18907 0
M  V30 4235 C 394.424 1.76143 -0.982669 0
M  V30 4236 C 394.737 1.89416 0.487953 0
M  V30 4237 O 395.943 2.59041 0.813036 0
M  V30 4238 C 394.399 3.16722 -1.70924 0
M  V30 4239 C 394.007 3.11522 -3.21959 0
M  V30 4240 C 395.751 3.93764 -1.58588 0
M  V30 4241 C 393.658 4.46999 -3.87228 0
M  V30 4242 H 392.588 0.660292 -0.364047 0
M  V30 4243 H 395.239 1.158 -1.42347 0
M  V30 4244 H 393.621 3.775 -1.19623 0
M  V30 4245 H 394.795 2.60158 -3.80335 0
M  V30 4246 H 393.11 2.47978 -3.34508 0
M  V30 4247 H 395.707 4.93963 -2.04707 0
M  V30 4248 H 396.05 4.12794 -0.539142 0
M  V30 4249 H 396.583 3.39576 -2.07203 0
M  V30 4250 H 393.322 4.33174 -4.91976 0
M  V30 4251 H 392.842 4.98441 -3.33642 0
M  V30 4252 H 394.521 5.15898 -3.90459 0
M  V30 4253 N 394.653 0.992116 1.22453 0
M  V30 4254 C 396.064 0.702776 1.72968 0
M  V30 4255 C 396.415 -0.780399 1.80012 0
M  V30 4256 O 395.54 -1.61007 1.44589 0
M  V30 4257 C 396.135 1.26903 3.14135 0
M  V30 4258 C 394.694 1.02909 3.62059 0
M  V30 4259 C 393.841 1.38969 2.39964 0
M  V30 4260 H 396.792 1.16457 1.07812 0
M  V30 4261 H 396.813 0.647223 3.74955 0
M  V30 4262 H 396.325 2.34851 3.08977 0
M  V30 4263 H 394.426 -0.0337979 3.72585 0
M  V30 4264 H 394.539 1.69191 4.48231 0
M  V30 4265 H 392.903 0.808279 2.41535 0
M  V30 4266 H 393.686 2.4792 2.37467 0
M  V30 4267 N 396.131 -1.37776 0.765217 0
M  V30 4268 C 397.361 -2.03828 0.337277 0
M  V30 4269 C 397.769 -1.57841 -1.04321 0
M  V30 4270 O 397.112 -0.752043 -1.67601 0
M  V30 4271 C 397.174 -3.58292 0.294407 0
M  V30 4272 C 396.838 -4.27384 1.61838 0
M  V30 4273 C 397.835 -4.51956 2.56967 0
M  V30 4274 C 395.52 -4.65345 1.89102 0
M  V30 4275 C 397.514 -5.13536 3.77571 0
M  V30 4276 C 395.201 -5.26647 3.09978 0
M  V30 4277 C 396.199 -5.50679 4.04032 0
M  V30 4278 O 395.887 -6.10702 5.2278 0
M  V30 4279 H 395.619 -0.661292 0.140248 0
M  V30 4280 H 398.173 -1.77222 1.03834 0
M  V30 4281 H 396.403 -3.83918 -0.462983 0
M  V30 4282 H 398.092 -4.05763 -0.105581 0
M  V30 4283 H 398.858 -4.23048 2.37183 0
M  V30 4284 H 394.737 -4.45978 1.16725 0
M  V30 4285 H 398.281 -5.3221 4.50997 0
M  V30 4286 H 394.178 -5.54979 3.29649 0
M  V30 4287 H 394.946 -6.29183 5.23517 0
M  V30 4288 N 397.609 -0.515225 -1.4894 0
M  V30 4289 C 398.539 0.244628 -2.32215 0
M  V30 4290 C 399.52 0.949136 -1.41157 0
M  V30 4291 O 400.705 0.937783 -1.70057 0
M  V30 4292 C 397.835 1.30096 -3.22013 0
M  V30 4293 C 396.789 0.715486 -4.21977 0
M  V30 4294 C 396.115 1.87339 -5.00808 0
M  V30 4295 C 397.415 -0.302982 -5.2142 0
M  V30 4296 H 399.109 -0.450501 -2.95991 0
M  V30 4297 H 396.655 -0.218098 -1.42339 0
M  V30 4298 H 398.608 1.84037 -3.79089 0
M  V30 4299 H 397.332 2.02547 -2.56207 0
M  V30 4300 H 395.991 0.197715 -3.66066 0
M  V30 4301 H 395.639 2.58592 -4.31438 0
M  V30 4302 H 395.339 1.48764 -5.68457 0
M  V30 4303 H 396.863 2.41686 -5.60732 0
M  V30 4304 H 398.277 0.148802 -5.73107 0
M  V30 4305 H 396.674 -0.60532 -5.97039 0
M  V30 4306 H 397.744 -1.21395 -4.69459 0
M  V30 4307 N 399.087 1.5561 -0.249682 0
M  V30 4308 C 400.312 2.03865 0.381305 0
M  V30 4309 C 400.737 1.12769 1.50548 0
M  V30 4310 O 400.095 0.121189 1.80895 0
M  V30 4311 C 400.143 3.50101 0.863816 0
M  V30 4312 O 399.247 3.62132 1.97318 0
M  V30 4313 H 398.588 0.658827 0.0827194 0
M  V30 4314 H 401.118 2.01105 -0.376552 0
M  V30 4315 H 401.128 3.90975 1.1663 0
M  V30 4316 H 399.803 4.1588 0.0411816 0
M  V30 4317 H 398.38 3.33155 1.67517 0
M  V30 4318 N 400.565 -0.0233959 1.57583 0
M  V30 4319 C 401.79 -0.728376 1.94189 0
M  V30 4320 C 402.215 -1.67793 0.850119 0
M  V30 4321 O 401.573 -1.80262 -0.19371 0
M  V30 4322 C 401.621 -1.45669 3.29868 0
M  V30 4323 O 400.725 -2.57013 3.22518 0
M  V30 4324 H 400.066 -0.195493 0.63457 0
M  V30 4325 H 402.596 0.0228214 2.04587 0
M  V30 4326 H 402.606 -1.82535 3.6489 0
M  V30 4327 H 401.281 -0.760314 4.08891 0
M  V30 4328 H 399.858 -2.22648 2.99136 0
M  V30 4329 N 402.043 -1.548 -0.295768 0
M  V30 4330 C 403.292 -1.73538 -1.02798 0
M  V30 4331 C 403.605 -0.531159 -1.8825 0
M  V30 4332 O 404.811 -0.600458 -2.64777 0
M  V30 4333 C 403.267 -3.07051 -1.87744 0
M  V30 4334 C 402.875 -4.34968 -1.07269 0
M  V30 4335 C 404.619 -3.35146 -2.60533 0
M  V30 4336 C 402.526 -5.5953 -1.91521 0
M  V30 4337 H 401.456 -0.646794 -0.387522 0
M  V30 4338 H 404.107 -1.81278 -0.284718 0
M  V30 4339 H 402.489 -2.93289 -2.66078 0
M  V30 4340 H 403.663 -4.5958 -0.335117 0
M  V30 4341 H 401.978 -4.13847 -0.460384 0
M  V30 4342 H 404.575 -4.2541 -3.23929 0
M  V30 4343 H 404.918 -2.54255 -3.29636 0
M  V30 4344 H 405.451 -3.49902 -1.89244 0
M  V30 4345 H 402.19 -6.43103 -1.26878 0
M  V30 4346 H 401.71 -5.39096 -2.62937 0
M  V30 4347 H 403.389 -5.96982 -2.49442 0
M  V30 4348 N 403.521 0.559213 -1.47345 0
M  V30 4349 C 404.471 1.66192 -1.5609 0
M  V30 4350 C 405.455 1.55323 -0.419957 0
M  V30 4351 O 406.647 1.63839 -0.669762 0
M  V30 4352 C 403.776 3.0497 -1.57634 0
M  V30 4353 C 402.862 3.2105 -2.77106 0
M  V30 4354 N 403.253 3.07203 -4.01821 0
M  V30 4355 C 401.551 3.52046 -2.73825 0
M  V30 4356 C 402.252 3.25919 -4.81821 0
M  V30 4357 N 401.228 3.52161 -4.14106 0
M  V30 4358 H 405.03 1.54052 -2.5029 0
M  V30 4359 H 402.544 0.763914 -1.43311 0
M  V30 4360 H 404.541 3.84142 -1.61989 0
M  V30 4361 H 403.201 3.18224 -0.645281 0
M  V30 4362 H 404.212 2.84572 -4.32711 0
M  V30 4363 H 400.889 3.71839 -1.89848 0
M  V30 4364 H 402.279 3.20198 -5.90697 0
M  V30 4365 N 404.999 1.35443 0.805782 0
M  V30 4366 C 405.909 1.30546 1.94923 0
M  V30 4367 C 406.925 0.210233 1.72725 0
M  V30 4368 O 408.101 0.43975 1.9654 0
M  V30 4369 C 405.166 1.07782 3.29521 0
M  V30 4370 C 404.227 2.26625 3.64609 0
M  V30 4371 C 403.46 2.04938 4.92784 0
M  V30 4372 O 403.683 1.01624 5.61274 0
M  V30 4373 O 402.617 2.9232 5.26149 0
M  V30 4374 H 406.443 2.26779 2.02002 0
M  V30 4375 H 404.028 1.15823 0.943682 0
M  V30 4376 H 405.91 0.969392 4.10098 0
M  V30 4377 H 404.585 0.146003 3.23371 0
M  V30 4378 H 403.492 2.43033 2.84404 0
M  V30 4379 H 404.825 3.18257 3.75464 0
M  V30 4380 N 406.477 -1.02803 1.19454 0
M  V30 4381 C 407.702 -1.80378 1.02364 0
M  V30 4382 C 408.127 -1.83282 -0.423007 0
M  V30 4383 O 407.485 -1.25945 -1.30413 0
M  V30 4384 C 407.533 -3.23248 1.59821 0
M  V30 4385 O 406.637 -4.04 0.828105 0
M  V30 4386 H 405.978 -0.556799 0.361761 0
M  V30 4387 H 408.508 -1.29385 1.58495 0
M  V30 4388 H 408.518 -3.73994 1.63073 0
M  V30 4389 H 407.193 -3.2045 2.65113 0
M  V30 4390 H 405.77 -3.62635 0.86891 0
M  V30 4391 N 407.956 -0.998596 -1.21925 0
M  V30 4392 C 409.181 -0.696015 -1.95372 0
M  V30 4393 C 409.606 0.733826 -1.73195 0
M  V30 4394 O 408.964 1.50242 -1.01474 0
M  V30 4395 C 409.012 -1.01466 -3.4603 0
M  V30 4396 O 408.116 -0.116415 -4.12236 0
M  V30 4397 H 407.457 -0.259938 -0.611006 0
M  V30 4398 H 409.987 -1.33711 -1.54863 0
M  V30 4399 H 409.997 -0.958855 -3.96573 0
M  V30 4400 H 408.672 -2.05653 -3.61497 0
M  V30 4401 H 407.249 -0.228193 -3.72201 0
M  V30 4402 N 409.434 1.37368 -0.772513 0
M  V30 4403 C 410.711 1.93839 -0.26188 0
M  V30 4404 C 411.091 1.7061 1.24319 0
M  V30 4405 O 410.439 1.05534 2.02669 0
M  V30 4406 C 410.649 3.43154 -0.636102 0
M  V30 4407 C 411.997 4.20249 -0.606324 0
M  V30 4408 O 413.021 3.5152 -0.575538 0
M  V30 4409 O 411.88 5.42809 -0.634086 0
M  V30 4410 H 408.974 0.82478 -0.0605555 0
M  V30 4411 H 411.52 1.4665 -0.853917 0
M  V30 4412 H 410.292 3.53647 -1.6748 0
M  V30 4413 H 409.915 3.97596 -0.0170516 0
M  V30 4414 N 410.912 0.523116 1.48665 0
M  V30 4415 C 412.161 -0.01544 2.01694 0
M  V30 4416 C 412.474 -1.35975 1.40606 0
M  V30 4417 O 413.68 -1.98627 1.85093 0
M  V30 4418 C 412.136 -0.0779303 3.59816 0
M  V30 4419 C 411.744 1.26107 4.29885 0
M  V30 4420 C 413.488 -0.565678 4.20714 0
M  V30 4421 C 411.395 1.15954 5.79921 0
M  V30 4422 H 410.325 -0.00954163 0.75394 0
M  V30 4423 H 412.976 0.665865 1.70993 0
M  V30 4424 H 411.358 -0.824165 3.87329 0
M  V30 4425 H 412.532 2.02233 4.14051 0
M  V30 4426 H 410.847 1.68401 3.80828 0
M  V30 4427 H 413.444 -0.6595 5.30617 0
M  V30 4428 H 413.787 -1.56984 3.85567 0
M  V30 4429 H 414.32 0.12467 3.97605 0
M  V30 4430 H 411.059 2.13864 6.19631 0
M  V30 4431 H 410.579 0.439529 5.98187 0
M  V30 4432 H 412.258 0.847361 6.41427 0
M  V30 4433 N 412.39 -1.55475 0.257931 0
M  V30 4434 C 413.337 -2.21837 -0.636939 0
M  V30 4435 C 414.307 -1.18596 -1.16294 0
M  V30 4436 O 415.492 -1.47081 -1.21539 0
M  V30 4437 C 412.632 -2.9301 -1.82317 0
M  V30 4438 C 411.745 -4.10931 -1.33265 0
M  V30 4439 C 410.88 -4.69791 -2.47931 0
M  V30 4440 C 409.919 -5.7994 -1.95796 0
M  V30 4441 N 409.056 -6.32935 -3.0387 0
M  V30 4442 H 413.896 -2.9793 -0.0643591 0
M  V30 4443 H 411.433 -1.47086 -0.0200031 0
M  V30 4444 H 413.391 -3.3248 -2.52018 0
M  V30 4445 H 412.021 -2.1937 -2.36805 0
M  V30 4446 H 411.073 -3.76699 -0.52931 0
M  V30 4447 H 412.385 -4.90417 -0.910654 0
M  V30 4448 H 411.539 -5.11892 -3.25656 0
M  V30 4449 H 410.278 -3.89545 -2.93438 0
M  V30 4450 H 409.283 -5.37305 -1.16546 0
M  V30 4451 H 410.508 -6.62043 -1.51246 0
M  V30 4452 H 408.454 -5.55591 -3.48791 0
M  V30 4453 H 408.371 -7.07645 -2.66035 0
M  V30 4454 H 409.639 -6.79695 -3.81621 0
M  V30 4455 N 413.868 0.0150385 -1.57593 0
M  V30 4456 C 415.115 0.703001 -1.89906 0
M  V30 4457 C 415.443 1.74604 -0.856944 0
M  V30 4458 O 414.698 1.95197 0.140287 0
M  V30 4459 C 414.997 1.39686 -3.28972 0
M  V30 4460 C 414.663 0.488457 -4.48246 0
M  V30 4461 C 413.325 0.2383 -4.8061 0
M  V30 4462 C 415.677 -0.137881 -5.21018 0
M  V30 4463 C 413.005 -0.646738 -5.83125 0
M  V30 4464 C 415.357 -1.0107 -6.24474 0
M  V30 4465 C 414.021 -1.27019 -6.55303 0
M  V30 4466 H 413.291 0.257246 -0.694914 0
M  V30 4467 H 415.938 -0.037259 -1.91464 0
M  V30 4468 H 414.243 2.21079 -3.23468 0
M  V30 4469 H 415.94 1.93495 -3.51227 0
M  V30 4470 H 412.53 0.693593 -4.22951 0
M  V30 4471 H 416.714 0.0423953 -4.96282 0
M  V30 4472 H 411.97 -0.855937 -6.05379 0
M  V30 4473 H 416.144 -1.50247 -6.79999 0
M  V30 4474 H 413.771 -1.95769 -7.3456 0
M  V30 4475 N 415.346 1.54954 0.287554 0
M  V30 4476 C 416.278 1.83224 1.37701 0
M  V30 4477 C 417.291 0.715898 1.46215 0
M  V30 4478 O 418.48 0.993565 1.48292 0
M  V30 4479 C 415.58 1.96723 2.75959 0
M  V30 4480 C 414.753 3.27253 2.90215 0
M  V30 4481 C 413.812 3.30998 4.09056 0
M  V30 4482 O 412.838 4.04457 4.00503 0
M  V30 4483 N 414.04 2.57353 5.20336 0
M  V30 4484 H 416.805 2.77254 1.138 0
M  V30 4485 H 414.366 1.54694 0.477652 0
M  V30 4486 H 416.358 1.96615 3.5373 0
M  V30 4487 H 414.928 1.09626 2.92747 0
M  V30 4488 H 414.148 3.40022 1.99447 0
M  V30 4489 H 415.436 4.13365 2.96659 0
M  V30 4490 H 414.834 1.97327 5.30169 0
M  V30 4491 H 413.391 2.62984 5.96391 0
M  V30 4492 N 416.824 -0.551391 1.4764 0
M  V30 4493 C 417.754 -1.66757 1.63445 0
M  V30 4494 C 418.735 -1.63077 0.483742 0
M  V30 4495 O 419.92 -1.80607 0.71377 0
M  V30 4496 C 417.05 -3.05387 1.65396 0
M  V30 4497 C 416.004 -3.23918 2.79752 0
M  V30 4498 C 415.33 -4.63393 2.66779 0
M  V30 4499 C 416.63 -3.08735 4.21284 0
M  V30 4500 H 418.324 -1.53786 2.56886 0
M  V30 4501 H 415.87 -0.738415 1.23626 0
M  V30 4502 H 417.823 -3.83325 1.75043 0
M  V30 4503 H 416.547 -3.19332 0.685195 0
M  V30 4504 H 415.206 -2.48391 2.69625 0
M  V30 4505 H 414.854 -4.74144 1.67918 0
M  V30 4506 H 414.554 -4.7674 3.43501 0
M  V30 4507 H 416.078 -5.43458 2.78364 0
M  V30 4508 H 417.492 -3.76484 4.32357 0
M  V30 4509 H 415.889 -3.33588 4.98838 0
M  V30 4510 H 416.959 -2.0541 4.39243 0
M  V30 4511 N 418.302 -1.35869 -0.798587 0
M  V30 4512 C 419.527 -1.32883 -1.59238 0
M  V30 4513 C 419.952 0.0894587 -1.87887 0
M  V30 4514 O 419.31 1.05869 -1.47178 0
M  V30 4515 C 419.358 -2.14892 -2.89575 0
M  V30 4516 O 418.462 -1.53512 -3.82763 0
M  V30 4517 H 417.803 -0.455236 -0.48338 0
M  V30 4518 H 420.333 -1.79024 -0.990539 0
M  V30 4519 H 420.343 -2.27139 -3.38928 0
M  V30 4520 H 419.018 -3.17998 -2.68049 0
M  V30 4521 H 417.595 -1.50153 -3.41334 0
M  V30 4522 N 419.78 1.02168 -1.19998 0
M  V30 4523 C 421.005 1.79833 -1.03319 0
M  V30 4524 C 421.43 1.83504 0.413281 0
M  V30 4525 O 420.788 1.26635 1.29743 0
M  V30 4526 C 420.836 3.22396 -1.61533 0
M  V30 4527 O 419.94 4.03555 -0.849519 0
M  V30 4528 H 419.281 0.554872 -0.364709 0
M  V30 4529 H 421.811 1.28542 -1.59179 0
M  V30 4530 H 421.821 3.73124 -1.65054 0
M  V30 4531 H 420.496 3.19039 -2.66809 0
M  V30 4532 H 419.073 3.62169 -0.888129 0
M  V30 4533 N 421.258 1.00505 1.21394 0
M  V30 4534 C 422.483 0.706367 1.95001 0
M  V30 4535 C 422.908 -0.72463 1.73582 0
M  V30 4536 O 422.266 -1.49702 1.0227 0
M  V30 4537 C 422.314 1.03299 3.45487 0
M  V30 4538 O 421.418 0.138275 4.12168 0
M  V30 4539 H 420.759 0.263175 0.609619 0
M  V30 4540 H 423.289 1.34531 1.54151 0
M  V30 4541 H 423.299 0.979872 3.96059 0
M  V30 4542 H 421.974 2.07567 3.60401 0
M  V30 4543 H 420.551 0.247928 3.72075 0
M  V30 4544 N 422.737 -1.36956 0.779787 0
M  V30 4545 C 423.669 -2.28833 0.129639 0
M  V30 4546 C 424.682 -1.4902 -0.655511 0
M  V30 4547 O 425.871 -1.71578 -0.492279 0
M  V30 4548 C 422.971 -3.2833 -0.839792 0
M  V30 4549 C 422.144 -4.3727 -0.10675 0
M  V30 4550 C 421.203 -5.16789 -0.990717 0
M  V30 4551 O 420.229 -5.67406 -0.451516 0
M  V30 4552 N 421.431 -5.32294 -2.3161 0
M  V30 4553 H 424.196 -2.85268 0.918803 0
M  V30 4554 H 421.757 -1.49019 0.632841 0
M  V30 4555 H 423.749 -3.78413 -1.43477 0
M  V30 4556 H 422.319 -2.72605 -1.52988 0
M  V30 4557 H 421.539 -3.88478 0.669216 0
M  V30 4558 H 422.827 -5.07229 0.399464 0
M  V30 4559 H 422.225 -4.92768 -2.77843 0
M  V30 4560 H 420.782 -5.85656 -2.86095 0
M  V30 4561 N 424.215 -0.530993 -1.48385 0
M  V30 4562 C 425.163 0.244595 -2.3131 0
M  V30 4563 C 426.157 0.93451 -1.41291 0
M  V30 4564 O 427.363 0.85878 -1.58193 0
M  V30 4565 H 423.738 0.0977472 -0.74562 0
M  V30 4566 H 425.709 -0.474369 -2.94605 0
M  V30 4567 C 424.458 1.2779 -3.23365 0
M  V30 4568 H 423.781 0.756439 -3.92579 0
M  V30 4569 H 425.221 1.79198 -3.84271 0
M  V30 4570 C 423.68 2.31205 -2.45042 0
M  V30 4571 O 424.21 3.37661 -2.17596 0
M  V30 4572 N 422.416 2.04446 -2.0652 0
M  V30 4573 H 421.963 1.17891 -2.2904 0
M  V30 4574 H 421.921 2.73861 -1.54427 0
M  V30 4575 N 425.693 1.55336 -0.266172 0
M  V30 4576 C 426.921 2.03801 0.356756 0
M  V30 4577 C 427.336 1.14485 1.50129 0
M  V30 4578 O 426.693 0.163121 1.8177 0
M  V30 4579 C 426.744 3.51455 0.846281 0
M  V30 4580 O 426.465 4.37371 -0.252663 0
M  V30 4581 C 427.966 4.15767 1.53794 0
M  V30 4582 H 425.186 0.665906 0.0825218 0
M  V30 4583 H 427.73 2.00636 -0.39566 0
M  V30 4584 H 425.885 3.55092 1.54881 0
M  V30 4585 H 426.299 5.24358 0.122173 0
M  V30 4586 H 427.773 5.20714 1.83198 0
M  V30 4587 H 428.25 3.63404 2.46646 0
M  V30 4588 H 428.856 4.16107 0.879488 0
M  V30 4589 N 427.171 -0.0066808 1.57599 0
M  V30 4590 C 428.582 -0.550379 1.78403 0
M  V30 4591 C 428.933 -1.74339 0.900014 0
M  V30 4592 O 428.058 -2.16166 0.100713 0
M  V30 4593 C 428.653 -1.00523 3.23544 0
M  V30 4594 C 427.212 -1.49428 3.45468 0
M  V30 4595 C 426.359 -0.442444 2.73748 0
M  V30 4596 H 429.31 0.219508 1.57175 0
M  V30 4597 H 429.331 -1.87157 3.31289 0
M  V30 4598 H 428.843 -0.136735 3.87859 0
M  V30 4599 H 426.944 -2.3839 2.86358 0
M  V30 4600 H 427.057 -1.52635 4.54136 0
M  V30 4601 H 425.421 -0.902578 2.38171 0
M  V30 4602 H 426.204 0.416973 3.40758 0
M  V30 4603 N 428.649 -1.55105 -0.279332 0
M  V30 4604 C 429.898 -1.74618 -1.00952 0
M  V30 4605 C 430.211 -0.551096 -1.87676 0
M  V30 4606 O 431.417 -0.628507 -2.64125 0
M  V30 4607 C 429.873 -3.09025 -1.84476 0
M  V30 4608 C 429.481 -4.36081 -1.0265 0
M  V30 4609 C 431.225 -3.37891 -2.56963 0
M  V30 4610 C 429.132 -5.6153 -1.85576 0
M  V30 4611 H 428.062 -0.650868 -0.38064 0
M  V30 4612 H 430.713 -1.81569 -0.265475 0
M  V30 4613 H 429.095 -2.96095 -2.62952 0
M  V30 4614 H 430.269 -4.59909 -0.286354 0
M  V30 4615 H 428.584 -4.14312 -0.416464 0
M  V30 4616 H 431.181 -4.28822 -3.19399 0
M  V30 4617 H 431.524 -2.57737 -3.26921 0
M  V30 4618 H 432.057 -3.5189 -1.85522 0
M  V30 4619 H 428.796 -6.44413 -1.2005 0
M  V30 4620 H 428.316 -5.41854 -2.57204 0
M  V30 4621 H 429.995 -5.99594 -2.43096 0
M  V30 4622 N 430.127 0.543554 -1.4793 0
M  V30 4623 C 431.037 1.67657 -1.64098 0
M  V30 4624 C 432.053 1.65934 -0.523622 0
M  V30 4625 O 433.229 1.85133 -0.792943 0
M  V30 4626 C 430.294 3.04146 -1.66421 0
M  V30 4627 C 429.355 3.16831 -2.89684 0
M  V30 4628 C 428.588 4.46809 -2.91886 0
M  V30 4629 O 428.811 5.33095 -2.02895 0
M  V30 4630 O 427.745 4.63573 -3.83906 0
M  V30 4631 H 431.571 1.56957 -2.59997 0
M  V30 4632 H 429.156 0.715116 -1.31173 0
M  V30 4633 H 431.038 3.85346 -1.70548 0
M  V30 4634 H 429.713 3.152 -0.736923 0
M  V30 4635 H 428.62 2.34977 -2.91095 0
M  V30 4636 H 429.953 3.10687 -3.81752 0
M  V30 4637 N 431.605 1.3629 0.791371 0
M  V30 4638 C 432.853 1.30154 1.5461 0
M  V30 4639 C 433.174 -0.119409 1.94634 0
M  V30 4640 O 432.444 -1.05924 1.64794 0
M  V30 4641 H 431.024 0.478784 0.573389 0
M  V30 4642 H 433.686 1.70565 0.94306 0
M  V30 4643 H 432.782 1.92762 2.45457 0
M  V30 4644 N 433.083 -1.0153 1.20538 0
M  V30 4645 C 434.03 -2.10098 0.955383 0
M  V30 4646 C 435 -1.65702 -0.114878 0
M  V30 4647 O 436.185 -1.90776 0.0301118 0
M  V30 4648 C 433.325 -3.41236 0.514969 0
M  V30 4649 C 432.438 -3.99102 1.65353 0
M  V30 4650 C 431.573 -5.18306 1.16329 0
M  V30 4651 C 430.612 -5.68258 2.27485 0
M  V30 4652 N 429.749 -6.78722 1.7967 0
M  V30 4653 H 434.589 -2.30818 1.88486 0
M  V30 4654 H 432.126 -1.13189 0.939499 0
M  V30 4655 H 434.084 -4.16504 0.240935 0
M  V30 4656 H 432.714 -3.20585 -0.377512 0
M  V30 4657 H 431.766 -3.20918 2.04245 0
M  V30 4658 H 433.078 -4.32177 2.49047 0
M  V30 4659 H 432.232 -6.00782 0.845302 0
M  V30 4660 H 430.971 -4.86799 0.296254 0
M  V30 4661 H 429.976 -4.84385 2.60099 0
M  V30 4662 H 431.201 -6.01798 3.14667 0
M  V30 4663 H 429.147 -6.49042 0.95295 0
M  V30 4664 H 429.064 -7.10996 2.56944 0
M  V30 4665 H 430.332 -7.64759 1.50875 0
M  V30 4666 N 434.561 -1.01147 -1.20859 0
M  V30 4667 C 435.509 -0.57059 -2.25493 0
M  V30 4668 C 436.503 0.388109 -1.64894 0
M  V30 4669 O 437.709 0.258592 -1.78133 0
M  V30 4670 H 434.084 -0.166191 -0.733406 0
M  V30 4671 H 436.055 -1.46411 -2.60012 0
M  V30 4672 C 434.804 0.0805241 -3.47607 0
M  V30 4673 H 434.127 -0.648156 -3.94511 0
M  V30 4674 H 435.567 0.352197 -4.22535 0
M  V30 4675 C 434.026 1.32175 -3.09889 0
M  V30 4676 O 434.556 2.41553 -3.20959 0
M  V30 4677 N 432.762 1.20392 -2.64488 0
M  V30 4678 H 432.309 0.313905 -2.5568 0
M  V30 4679 H 432.267 2.03541 -2.39621 0
M  V30 4680 N 436.039 1.36541 -0.78704 0
M  V30 4681 C 437.267 2.03561 -0.370199 0
M  V30 4682 C 437.682 1.59347 1.01263 0
M  V30 4683 O 437.039 0.781781 1.64907 0
M  V30 4684 C 437.09 3.59033 -0.421614 0
M  V30 4685 O 436.811 4.01634 -1.7499 0
M  V30 4686 C 438.312 4.433 0.00489763 0
M  V30 4687 H 435.532 0.653346 -0.152904 0
M  V30 4688 H 438.076 1.74566 -1.06522 0
M  V30 4689 H 436.231 3.86746 0.224971 0
M  V30 4690 H 436.645 4.96217 -1.69909 0
M  V30 4691 H 438.119 5.51939 -0.0822184 0
M  V30 4692 H 438.596 4.26285 1.05723 0
M  V30 4693 H 439.202 4.20843 -0.614085 0
M  V30 4694 N 437.518 0.538854 1.48102 0
M  V30 4695 C 438.764 0.0161732 2.03394 0
M  V30 4696 C 439.119 -1.31154 1.40771 0
M  V30 4697 O 438.412 -1.83613 0.547421 0
M  V30 4698 C 438.606 -0.153808 3.57069 0
M  V30 4699 C 438.435 1.15588 4.34591 0
M  V30 4700 C 437.205 1.71818 4.75191 0
M  V30 4701 C 439.403 2.06867 4.70861 0
M  V30 4702 N 437.385 2.96983 5.37284 0
M  V30 4703 C 438.756 3.16609 5.33066 0
M  V30 4704 C 440.811 2.07085 4.52791 0
M  V30 4705 C 439.514 4.26645 5.79109 0
M  V30 4706 C 441.54 3.16121 4.99821 0
M  V30 4707 C 440.902 4.24582 5.62058 0
M  V30 4708 H 437.001 0.0476346 0.780548 0
M  V30 4709 H 439.585 0.722094 1.80815 0
M  V30 4710 H 437.756 -0.828825 3.79454 0
M  V30 4711 H 439.488 -0.676896 3.98999 0
M  V30 4712 H 436.243 1.25845 4.56574 0
M  V30 4713 H 436.667 3.60732 5.72889 0
M  V30 4714 H 441.309 1.24522 4.04047 0
M  V30 4715 H 439.027 5.0998 6.26854 0
M  V30 4716 H 442.613 3.17355 4.87624 0
M  V30 4717 H 441.493 5.07562 5.97788 0
M  V30 4718 N 438.996 -1.55193 0.274407 0
M  V30 4719 C 439.943 -2.225 -0.613374 0
M  V30 4720 C 440.913 -1.19823 -1.15029 0
M  V30 4721 O 442.098 -1.48362 -1.19973 0
M  V30 4722 C 439.238 -2.94927 -1.79199 0
M  V30 4723 C 438.351 -4.12322 -1.28899 0
M  V30 4724 C 437.486 -4.72394 -2.42934 0
M  V30 4725 C 436.525 -5.81984 -1.89634 0
M  V30 4726 N 435.662 -6.36123 -2.9714 0
M  V30 4727 H 440.502 -2.97982 -0.032756 0
M  V30 4728 H 438.039 -1.47099 -0.00440146 0
M  V30 4729 H 439.997 -3.35134 -2.48478 0
M  V30 4730 H 438.627 -2.2187 -2.34465 0
M  V30 4731 H 437.679 -3.7724 -0.489327 0
M  V30 4732 H 438.991 -4.91355 -0.858587 0
M  V30 4733 H 438.145 -5.15317 -3.20208 0
M  V30 4734 H 436.884 -3.92636 -2.8929 0
M  V30 4735 H 435.889 -5.38511 -1.1084 0
M  V30 4736 H 437.114 -6.6361 -1.44215 0
M  V30 4737 H 435.06 -5.59259 -3.42878 0
M  V30 4738 H 434.977 -7.10427 -2.58515 0
M  V30 4739 H 436.245 -6.83704 -3.74391 0
M  V30 4740 N 440.474 -0.00167713 -1.576 0
M  V30 4741 C 441.89 0.354422 -1.55615 0
M  V30 4742 C 442.09 1.74679 -1.00447 0
M  V30 4743 O 441.146 2.4428 -0.639022 0
M  V30 4744 C 442.459 0.22812 -2.99833 0
M  V30 4745 C 444.007 0.302934 -3.11531 0
M  V30 4746 C 444.482 0.205737 -4.57538 0
M  V30 4747 N 445.973 0.263584 -4.62449 0
M  V30 4748 C 446.708 0.211742 -5.73009 0
M  V30 4749 N 446.204 0.110399 -6.92712 0
M  V30 4750 N 447.997 0.263729 -5.61481 0
M  V30 4751 H 440.148 -0.912498 -1.918 0
M  V30 4752 H 442.411 -0.349928 -0.881053 0
M  V30 4753 H 442.117 -0.729934 -3.44042 0
M  V30 4754 H 441.991 1.00951 -3.6344 0
M  V30 4755 H 444.378 1.25143 -2.67251 0
M  V30 4756 H 444.459 -0.508357 -2.50698 0
M  V30 4757 H 444.103 -0.739225 -5.02492 0
M  V30 4758 H 444.033 1.03554 -5.16318 0
M  V30 4759 H 446.524 0.343173 -3.76339 0
M  V30 4760 H 446.837 0.0767828 -7.72762 0
M  V30 4761 H 445.182 0.0760025 -6.94958 0
M  V30 4762 H 448.373 0.34111 -4.66855 0
M  V30 4763 H 448.546 0.219862 -6.47627 0
M  V30 4764 N 441.952 1.55251 0.271103 0
M  V30 4765 C 442.915 1.87484 1.31842 0
M  V30 4766 C 443.915 0.749545 1.42262 0
M  V30 4767 O 445.105 1.01771 1.4138 0
M  V30 4768 C 442.237 2.0818 2.69951 0
M  V30 4769 H 443.43 2.81108 1.0449 0
M  V30 4770 H 440.983 1.47771 0.509258 0
M  V30 4771 H 441.718 1.16944 3.02481 0
M  V30 4772 H 441.503 2.90114 2.63774 0
M  V30 4773 H 442.993 2.34385 3.4562 0
M  V30 4774 N 443.43 -0.535701 1.48216 0
M  V30 4775 C 444.677 -1.29183 1.55942 0
M  V30 4776 C 445.005 -1.93125 0.230857 0
M  V30 4777 O 444.26 -1.79556 -0.778331 0
M  V30 4778 C 444.559 -2.4068 2.64212 0
M  V30 4779 C 444.225 -1.94428 4.06827 0
M  V30 4780 C 442.887 -1.81532 4.45645 0
M  V30 4781 C 445.239 -1.59405 4.96225 0
M  V30 4782 C 442.567 -1.31939 5.71672 0
M  V30 4783 C 444.919 -1.11276 6.22736 0
M  V30 4784 C 443.583 -0.969924 6.60416 0
M  V30 4785 H 442.853 -0.472715 0.570632 0
M  V30 4786 H 445.5 -0.598437 1.81909 0
M  V30 4787 H 443.805 -3.15666 2.32083 0
M  V30 4788 H 445.502 -2.98822 2.67407 0
M  V30 4789 H 442.092 -2.05415 3.76168 0
M  V30 4790 H 446.276 -1.68231 4.66917 0
M  V30 4791 H 441.532 -1.19562 5.99596 0
M  V30 4792 H 445.706 -0.832453 6.91407 0
M  V30 4793 H 443.333 -0.583436 7.57958 0
M  V30 4794 N 444.908 -1.36708 -0.784132 0
M  V30 4795 C 445.838 -1.34153 -1.91116 0
M  V30 4796 C 446.819 -0.212121 -1.68772 0
M  V30 4797 O 448.004 -0.410581 -1.8981 0
M  V30 4798 C 445.134 -1.13535 -3.28218 0
M  V30 4799 C 444.088 -2.23356 -3.65097 0
M  V30 4800 C 443.414 -1.87875 -5.00607 0
M  V30 4801 C 444.714 -3.65473 -3.73131 0
M  V30 4802 H 446.408 -2.28459 -1.93512 0
M  V30 4803 H 443.954 -1.09973 -0.929618 0
M  V30 4804 H 445.907 -1.10381 -4.06687 0
M  V30 4805 H 444.631 -0.156804 -3.26223 0
M  V30 4806 H 443.29 -2.25645 -2.88929 0
M  V30 4807 H 442.938 -0.885814 -4.95139 0
M  V30 4808 H 442.638 -2.61406 -5.26252 0
M  V30 4809 H 444.162 -1.86286 -5.81489 0
M  V30 4810 H 445.576 -3.65382 -4.41779 0
M  V30 4811 H 443.973 -4.37953 -4.10265 0
M  V30 4812 H 445.043 -3.99995 -2.74102 0
M  V30 4813 N 446.386 1.0089 -1.21074 0
M  V30 4814 C 447.349 2.0775 -0.968129 0
M  V30 4815 C 448.349 1.6069 0.0593445 0
M  V30 4816 O 449.539 1.73293 -0.177525 0
M  V30 4817 C 446.671 3.37794 -0.459108 0
M  V30 4818 H 447.864 2.30707 -1.9161 0
M  V30 4819 H 445.417 1.17807 -1.02719 0
M  V30 4820 H 446.152 3.20516 0.49397 0
M  V30 4821 H 445.937 3.7328 -1.20019 0
M  V30 4822 H 447.427 4.16454 -0.309099 0
M  V30 4823 N 447.864 1.01787 1.20321 0
M  V30 4824 C 449.111 0.707936 1.89722 0
M  V30 4825 C 449.439 -0.762535 1.78929 0
M  V30 4826 O 448.694 -1.56977 1.16861 0
M  V30 4827 C 448.993 1.09076 3.40349 0
M  V30 4828 C 448.659 2.55765 3.71342 0
M  V30 4829 C 447.321 2.95845 3.79511 0
M  V30 4830 C 449.673 3.50723 3.85542 0
M  V30 4831 C 447.001 4.2982 3.99339 0
M  V30 4832 C 449.353 4.84387 4.06881 0
M  V30 4833 C 448.017 5.24172 4.1328 0
M  V30 4834 H 447.287 0.259052 0.694243 0
M  V30 4835 H 449.934 1.27868 1.42555 0
M  V30 4836 H 448.239 0.438453 3.89339 0
M  V30 4837 H 449.936 0.828636 3.92345 0
M  V30 4838 H 446.526 2.2371 3.65584 0
M  V30 4839 H 450.71 3.20916 3.78585 0
M  V30 4840 H 445.966 4.60196 4.02529 0
M  V30 4841 H 450.14 5.57891 4.1681 0
M  V30 4842 H 447.767 6.27997 4.28396 0
M  V30 4843 N 449.342 -1.36122 0.79427 0
M  V30 4844 C 450.59 -1.98718 0.368177 0
M  V30 4845 C 450.911 -1.63345 -1.06506 0
M  V30 4846 O 450.181 -0.909825 -1.73491 0
M  V30 4847 H 448.761 -0.735038 0.133146 0
M  V30 4848 H 451.423 -1.66239 1.01739 0
M  V30 4849 H 450.519 -3.08633 0.463923 0
M  V30 4850 N 450.82 -0.546701 -1.47814 0
M  V30 4851 C 452.045 -0.021268 -2.07389 0
M  V30 4852 C 452.47 1.25822 -1.39822 0
M  V30 4853 O 451.828 1.75111 -0.46968 0
M  V30 4854 C 451.876 0.168502 -3.60206 0
M  V30 4855 O 450.98 1.23347 -3.93522 0
M  V30 4856 H 450.321 -0.0466108 -0.662362 0
M  V30 4857 H 452.851 -0.759387 -1.89985 0
M  V30 4858 H 452.861 0.385982 -4.0617 0
M  V30 4859 H 451.536 -0.766075 -4.08784 0
M  V30 4860 H 450.113 0.997319 -3.59316 0
M  V30 4861 N 452.299 1.55045 -0.282633 0
M  V30 4862 C 453.247 2.24254 0.617478 0
M  V30 4863 C 454.241 1.24215 1.15183 0
M  V30 4864 O 455.447 1.42123 1.10459 0
M  V30 4865 H 451.822 0.719801 0.217693 0
M  V30 4866 H 453.793 2.98398 0.0110076 0
M  V30 4867 C 452.542 2.98281 1.78672 0
M  V30 4868 H 451.865 3.75053 1.38475 0
M  V30 4869 H 453.305 3.50017 2.393 0
M  V30 4870 C 451.764 2.04184 2.67975 0
M  V30 4871 O 452.294 1.59792 3.6855 0
M  V30 4872 N 450.5 1.70526 2.35307 0
M  V30 4873 H 450.047 2.06821 1.53567 0
M  V30 4874 H 450.005 1.07839 2.95327 0
M  V30 4875 N 453.777 0.010035 1.57597 0
M  V30 4876 C 455.026 -0.671945 1.90178 0
M  V30 4877 C 455.339 -1.74376 0.886131 0
M  V30 4878 O 456.545 -2.48107 1.10252 0
M  V30 4879 C 455.001 -1.24636 3.3763 0
M  V30 4880 C 454.609 -0.208838 4.47513 0
M  V30 4881 C 456.353 -1.90595 3.79307 0
M  V30 4882 C 454.26 -0.793814 5.86048 0
M  V30 4883 H 453.19 -0.25474 0.709665 0
M  V30 4884 H 455.841 0.0722206 1.83358 0
M  V30 4885 H 454.223 -2.04152 3.3932 0
M  V30 4886 H 455.397 0.562463 4.57354 0
M  V30 4887 H 453.712 0.350889 4.14919 0
M  V30 4888 H 456.309 -2.35284 4.80151 0
M  V30 4889 H 456.652 -2.74074 3.13352 0
M  V30 4890 H 457.185 -1.17798 3.79958 0
M  V30 4891 H 453.924 0.00240855 6.555 0
M  V30 4892 H 453.444 -1.53404 5.79851 0
M  V30 4893 H 455.123 -1.2894 6.34022 0
M  V30 4894 N 455.255 -1.55392 -0.262866 0
M  V30 4895 C 456.503 -1.76127 -0.991147 0
M  V30 4896 C 456.824 -0.571083 -1.8645 0
M  V30 4897 O 456.094 0.413698 -1.91482 0
M  V30 4898 H 454.674 -0.649528 -0.368948 0
M  V30 4899 H 457.336 -1.9281 -0.284655 0
M  V30 4900 H 456.432 -2.6663 -1.62219 0
M  V30 4901 N 456.733 0.527833 -1.48498 0
M  V30 4902 C 458.01 1.28905 -1.47115 0
M  V30 4903 C 458.39 2.10297 -0.184007 0
M  V30 4904 O 457.738 2.12728 0.834218 0
M  V30 4905 C 457.948 2.16866 -2.73441 0
M  V30 4906 C 459.296 2.76936 -3.21857 0
M  V30 4907 O 460.32 2.27152 -2.74373 0
M  V30 4908 O 459.179 3.67496 -4.04486 0
M  V30 4909 H 456.273 0.581918 -0.587623 0
M  V30 4910 H 458.819 0.544311 -1.60734 0
M  V30 4911 H 457.591 1.56521 -3.58632 0
M  V30 4912 H 457.214 2.98583 -2.62553 0
M  V30 4913 N 458.211 1.37122 0.776871 0
M  V30 4914 C 459.627 1.1781 1.07671 0
M  V30 4915 C 459.827 0.0107454 2.01497 0
M  V30 4916 O 458.883 -0.650756 2.4397 0
M  V30 4917 C 460.196 2.49451 1.67913 0
M  V30 4918 C 461.744 2.55927 1.80195 0
M  V30 4919 C 462.219 3.87686 2.43851 0
M  V30 4920 N 463.71 3.891 2.51307 0
M  V30 4921 C 464.445 4.87797 3.014 0
M  V30 4922 N 463.941 5.96888 3.51705 0
M  V30 4923 N 465.734 4.75205 3.00227 0
M  V30 4924 H 457.885 2.11843 0.153778 0
M  V30 4925 H 460.148 0.938927 0.130844 0
M  V30 4926 H 459.854 3.35207 1.06439 0
M  V30 4927 H 459.728 2.66169 2.67271 0
M  V30 4928 H 462.115 1.70582 2.40803 0
M  V30 4929 H 462.196 2.43097 0.796069 0
M  V30 4930 H 461.84 4.73444 1.83884 0
M  V30 4931 H 461.77 3.97817 3.45035 0
M  V30 4932 H 464.261 3.10293 2.157 0
M  V30 4933 H 464.574 6.68155 3.88316 0
M  V30 4934 H 462.919 6.0054 3.49824 0
M  V30 4935 H 466.11 3.89103 2.60224 0
M  V30 4936 H 466.283 5.52279 3.38957 0
M  V30 4937 N 459.689 -1.00246 1.21608 0
M  V30 4938 C 460.936 -1.74061 1.03485 0
M  V30 4939 C 461.264 -1.89658 -0.431308 0
M  V30 4940 O 460.519 -1.42976 -1.33627 0
M  V30 4941 C 460.818 -3.15448 1.68009 0
M  V30 4942 C 460.484 -3.19792 3.17874 0
M  V30 4943 C 459.146 -3.20685 3.58768 0
M  V30 4944 C 461.498 -3.16835 4.13842 0
M  V30 4945 C 458.826 -3.16309 4.94131 0
M  V30 4946 C 461.178 -3.14001 5.49169 0
M  V30 4947 C 459.842 -3.13204 5.89457 0
M  V30 4948 H 459.112 -0.636934 0.378677 0
M  V30 4949 H 461.759 -1.17473 1.51236 0
M  V30 4950 H 460.064 -3.75284 1.12557 0
M  V30 4951 H 461.761 -3.71285 1.51487 0
M  V30 4952 H 458.351 -3.19842 2.85305 0
M  V30 4953 H 462.535 -3.15303 3.83272 0
M  V30 4954 H 457.791 -3.14032 5.24589 0
M  V30 4955 H 461.965 -3.10667 6.23265 0
M  V30 4956 H 459.592 -3.09568 6.94314 0
M  V30 4957 N 461.167 -1.02423 -1.1978 0
M  V30 4958 C 462.114 -0.601023 -2.22837 0
M  V30 4959 C 463.084 0.382801 -1.61629 0
M  V30 4960 O 464.269 0.280514 -1.88727 0
M  V30 4961 C 461.409 0.0467755 -3.45068 0
M  V30 4962 C 460.522 -0.98253 -4.20678 0
M  V30 4963 C 459.657 -0.304982 -5.30324 0
M  V30 4964 C 458.696 -1.32052 -5.97686 0
M  V30 4965 N 457.833 -0.669105 -6.98904 0
M  V30 4966 H 462.673 -1.48444 -2.58396 0
M  V30 4967 H 460.21 -0.742936 -1.2696 0
M  V30 4968 H 462.168 0.439556 -4.14878 0
M  V30 4969 H 460.798 0.893796 -3.10179 0
M  V30 4970 H 459.85 -1.49341 -3.49859 0
M  V30 4971 H 461.162 -1.75455 -4.66923 0
M  V30 4972 H 460.316 0.142893 -6.06532 0
M  V30 4973 H 459.055 0.499283 -4.85138 0
M  V30 4974 H 458.06 -1.7787 -5.20233 0
M  V30 4975 H 459.285 -2.1262 -6.44957 0
M  V30 4976 H 457.231 0.115152 -6.55899 0
M  V30 4977 H 457.148 -1.37908 -7.43315 0
M  V30 4978 H 458.416 -0.245076 -7.79115 0
M  V30 4979 N 462.645 1.35699 -0.801477 0
M  V30 4980 C 463.595 2.2728 -0.181073 0
M  V30 4981 C 464.579 1.47533 0.642098 0
M  V30 4982 O 465.771 1.69785 0.500193 0
M  V30 4983 C 462.9 3.36626 0.673612 0
M  V30 4984 C 461.986 4.23802 -0.159008 0
M  V30 4985 N 462.377 4.90879 -1.2195 0
M  V30 4986 C 460.675 4.45959 0.0602005 0
M  V30 4987 C 461.376 5.5546 -1.72738 0
M  V30 4988 N 460.352 5.33663 -1.03465 0
M  V30 4989 H 464.154 2.76632 -0.992582 0
M  V30 4990 H 461.668 1.49166 -0.642127 0
M  V30 4991 H 463.665 4.01179 1.13408 0
M  V30 4992 H 462.325 2.88828 1.48353 0
M  V30 4993 H 463.336 4.92497 -1.60209 0
M  V30 4994 H 460.013 4.08969 0.839664 0
M  V30 4995 H 461.403 6.18991 -2.61342 0
M  V30 4996 N 464.123 0.554532 1.47522 0
M  V30 4997 C 465.372 0.0273458 2.01681 0
M  V30 4998 C 465.685 -1.32962 1.43459 0
M  V30 4999 O 466.891 -1.94657 1.89265 0
M  V30 5000 C 465.347 -0.00159057 3.599 0
M  V30 5001 C 464.955 1.35197 4.27113 0
M  V30 5002 C 466.699 -0.476311 4.21819 0
M  V30 5003 C 464.606 1.28229 5.77331 0
M  V30 5004 H 463.536 0.00645269 0.753972 0
M  V30 5005 H 466.187 0.701985 1.69542 0
M  V30 5006 H 464.569 -0.741821 3.8899 0
M  V30 5007 H 465.743 2.1097 4.09668 0
M  V30 5008 H 464.058 1.76441 3.77171 0
M  V30 5009 H 466.655 -0.5468 5.31897 0
M  V30 5010 H 466.998 -1.4877 3.8881 0
M  V30 5011 H 467.531 0.20898 3.97251 0
M  V30 5012 H 464.27 2.26959 6.14955 0
M  V30 5013 H 463.79 0.566314 5.97121 0
M  V30 5014 H 465.469 0.983226 6.39485 0
M  V30 5015 N 465.601 -1.54893 0.290851 0
M  V30 5016 C 466.533 -2.20564 -0.623236 0
M  V30 5017 C 467.546 -1.19519 -1.1054 0
M  V30 5018 O 468.735 -1.46165 -1.02459 0
M  V30 5019 C 465.835 -2.83033 -1.86401 0
M  V30 5020 C 465.008 -4.09916 -1.52604 0
M  V30 5021 C 464.067 -4.56284 -2.62091 0
M  V30 5022 O 463.093 -5.2171 -2.27612 0
M  V30 5023 N 464.295 -4.27746 -3.92446 0
M  V30 5024 H 467.06 -2.99638 -0.0610915 0
M  V30 5025 H 464.621 -1.61508 0.112615 0
M  V30 5026 H 466.613 -3.1099 -2.58973 0
M  V30 5027 H 465.183 -2.0786 -2.33481 0
M  V30 5028 H 464.403 -3.89078 -0.633424 0
M  V30 5029 H 465.691 -4.92554 -1.27547 0
M  V30 5030 H 465.089 -3.7531 -4.23272 0
M  V30 5031 H 463.646 -4.60437 -4.61347 0
M  V30 5032 N 467.08 -0.0183926 -1.57589 0
M  V30 5033 C 468.013 1.00148 -2.0505 0
M  V30 5034 C 468.991 1.32387 -0.944058 0
M  V30 5035 O 470.175 1.44237 -1.21358 0
M  V30 5036 C 467.302 2.32435 -2.46357 0
M  V30 5037 C 466.348 2.15731 -3.67916 0
M  V30 5038 S 467.181 1.46613 -5.15039 0
M  V30 5039 C 468.337 2.80293 -5.59631 0
M  V30 5040 H 468.57 0.597429 -2.91235 0
M  V30 5041 H 466.103 0.193002 -1.53189 0
M  V30 5042 H 468.061 3.0849 -2.70822 0
M  V30 5043 H 466.722 2.69975 -1.60537 0
M  V30 5044 H 465.915 3.13502 -3.9463 0
M  V30 5045 H 465.517 1.4782 -3.43548 0
M  V30 5046 H 467.809 3.76557 -5.63215 0
M  V30 5047 H 468.752 2.58256 -6.59325 0
M  V30 5048 H 469.16 2.85047 -4.87246 0
M  V30 5049 N 468.558 1.5553 0.254621 0
M  V30 5050 C 469.521 1.88872 1.29846 0
M  V30 5051 C 470.521 0.764591 1.41459 0
M  V30 5052 O 471.711 1.03265 1.40293 0
M  V30 5053 C 468.843 2.11032 2.67728 0
M  V30 5054 H 470.036 2.82201 1.01502 0
M  V30 5055 H 467.589 1.48303 0.493556 0
M  V30 5056 H 468.324 1.20146 3.01223 0
M  V30 5057 H 468.109 2.92895 2.60682 0
M  V30 5058 H 469.599 2.38038 3.43115 0
M  V30 5059 N 470.036 -0.519951 1.48776 0
M  V30 5060 C 470.966 -1.63253 1.66945 0
M  V30 5061 C 471.947 -1.62014 0.518224 0
M  V30 5062 O 473.132 -1.79053 0.751919 0
M  V30 5063 C 470.262 -3.0181 1.71836 0
M  V30 5064 C 469.216 -3.17911 2.8656 0
M  V30 5065 C 468.542 -4.5763 2.76548 0
M  V30 5066 C 469.842 -2.99729 4.27738 0
M  V30 5067 H 471.536 -1.48302 2.6009 0
M  V30 5068 H 469.082 -0.712026 1.25165 0
M  V30 5069 H 471.035 -3.79525 1.83135 0
M  V30 5070 H 469.759 -3.17806 0.752775 0
M  V30 5071 H 468.418 -2.42616 2.74833 0
M  V30 5072 H 468.066 -4.70476 1.77937 0
M  V30 5073 H 467.766 -4.69346 3.53536 0
M  V30 5074 H 469.29 -5.37431 2.89828 0
M  V30 5075 H 470.704 -3.67228 4.40246 0
M  V30 5076 H 469.101 -3.22932 5.05801 0
M  V30 5077 H 470.171 -1.96047 4.43502 0
M  V30 5078 N 471.514 -1.37532 -0.769588 0
M  V30 5079 C 472.446 -1.29347 -1.89214 0
M  V30 5080 C 473.459 -0.208842 -1.61455 0
M  V30 5081 O 474.648 -0.465158 -1.72333 0
M  V30 5082 C 471.748 -0.977649 -3.24492 0
M  V30 5083 C 470.921 -2.16817 -3.7988 0
M  V30 5084 C 469.98 -1.82229 -4.93639 0
M  V30 5085 O 469.006 -2.54548 -5.09111 0
M  V30 5086 N 470.208 -0.767696 -5.75401 0
M  V30 5087 H 472.973 -2.26073 -1.96751 0
M  V30 5088 H 470.534 -1.31185 -0.948795 0
M  V30 5089 H 472.526 -0.727065 -3.98115 0
M  V30 5090 H 471.096 -0.0988777 -3.12444 0
M  V30 5091 H 470.316 -2.58038 -2.9801 0
M  V30 5092 H 471.604 -2.96308 -4.13617 0
M  V30 5093 H 471.002 -0.167626 -5.65452 0
M  V30 5094 H 469.559 -0.576973 -6.49241 0
M  V30 5095 N 472.992 0.995999 -1.22138 0
M  V30 5096 C 473.922 2.10387 -1.01289 0
M  V30 5097 C 474.903 1.69975 0.0651454 0
M  V30 5098 O 476.088 1.9396 -0.0964628 0
M  V30 5099 C 473.218 3.42312 -0.586517 0
M  V30 5100 C 472.172 3.96558 -1.61014 0
M  V30 5101 C 471.498 5.24494 -1.0397 0
M  V30 5102 C 472.798 4.27595 -2.99933 0
M  V30 5103 H 474.492 2.28086 -1.93951 0
M  V30 5104 H 472.038 1.09607 -0.933928 0
M  V30 5105 H 473.991 4.19223 -0.427793 0
M  V30 5106 H 472.715 3.24431 0.375761 0
M  V30 5107 H 471.374 3.21776 -1.75658 0
M  V30 5108 H 471.022 5.02953 -0.0688703 0
M  V30 5109 H 470.722 5.61755 -1.72352 0
M  V30 5110 H 472.246 6.04042 -0.892494 0
M  V30 5111 H 473.66 4.95315 -2.8868 0
M  V30 5112 H 472.057 4.76021 -3.6541 0
M  V30 5113 H 473.127 3.35498 -3.50099 0
M  V30 5114 N 474.47 1.03057 1.19235 0
M  V30 5115 C 475.4 0.633497 2.24742 0
M  V30 5116 C 476.381 -0.358335 1.66283 0
M  V30 5117 O 477.566 -0.240676 1.92703 0
M  V30 5118 C 474.696 -0.0147648 3.47297 0
M  V30 5119 C 473.65 0.899527 4.18441 0
M  V30 5120 C 472.976 0.116281 5.34574 0
M  V30 5121 C 474.276 2.21404 4.73051 0
M  V30 5122 H 475.97 1.5155 2.58211 0
M  V30 5123 H 473.516 0.73014 1.24117 0
M  V30 5124 H 475.469 -0.304202 4.20301 0
M  V30 5125 H 474.193 -0.931577 3.13032 0
M  V30 5126 H 472.852 1.17319 3.47321 0
M  V30 5127 H 472.5 -0.802619 4.96555 0
M  V30 5128 H 472.2 0.725293 5.83107 0
M  V30 5129 H 473.724 -0.166376 6.10373 0
M  V30 5130 H 475.138 1.98601 5.37802 0
M  V30 5131 H 473.535 2.77512 5.32078 0
M  V30 5132 H 474.605 2.86752 3.91026 0
M  V30 5133 N 475.948 -1.35272 0.808662 0
M  V30 5134 C 477.173 -2.03477 0.401475 0
M  V30 5135 C 477.598 -1.60537 -0.980279 0
M  V30 5136 O 476.956 -0.78304 -1.63518 0
M  V30 5137 C 477.004 -3.57181 0.495354 0
M  V30 5138 O 476.108 -4.09474 -0.490397 0
M  V30 5139 H 475.449 -0.642561 0.167366 0
M  V30 5140 H 477.979 -1.72824 1.09512 0
M  V30 5141 H 477.989 -4.06356 0.365912 0
M  V30 5142 H 476.664 -3.87784 1.5032 0
M  V30 5143 H 475.241 -3.71516 -0.321023 0
M  V30 5144 N 477.426 -0.562348 -1.47226 0
M  V30 5145 C 478.842 -0.222492 -1.58042 0
M  V30 5146 C 479.042 1.27505 -1.56028 0
M  V30 5147 O 478.098 2.05555 -1.46641 0
M  V30 5148 C 479.411 -0.853694 -2.88327 0
M  V30 5149 C 480.959 -0.825397 -3.01921 0
M  V30 5150 C 481.434 -1.43576 -4.34914 0
M  V30 5151 N 482.925 -1.39918 -4.41562 0
M  V30 5152 C 483.66 -1.84103 -5.43041 0
M  V30 5153 N 483.156 -2.36167 -6.51304 0
M  V30 5154 N 484.949 -1.75142 -5.34118 0
M  V30 5155 H 477.1 -1.53525 -1.46778 0
M  V30 5156 H 479.363 -0.640527 -0.698877 0
M  V30 5157 H 479.069 -1.90635 -2.95552 0
M  V30 5158 H 478.943 -0.34977 -3.75575 0
M  V30 5159 H 481.33 0.218583 -2.94289 0
M  V30 5160 H 481.411 -1.36713 -2.16202 0
M  V30 5161 H 481.055 -2.47884 -4.43301 0
M  V30 5162 H 480.985 -0.869427 -5.19373 0
M  V30 5163 H 483.476 -1.0184 -3.63919 0
M  V30 5164 H 483.789 -2.67793 -7.24919 0
M  V30 5165 H 482.134 -2.40181 -6.52179 0
M  V30 5166 H 485.325 -1.34241 -4.48439 0
M  V30 5167 H 485.498 -2.09895 -6.13065 0
M  V30 5168 N 478.904 1.54736 -0.299062 0
M  V30 5169 C 479.814 2.27127 0.587413 0
M  V30 5170 C 480.83 1.30575 1.15005 0
M  V30 5171 O 482.006 1.63554 1.17525 0
M  V30 5172 C 479.071 2.99645 1.74395 0
M  V30 5173 C 478.132 4.11731 1.21559 0
M  V30 5174 C 477.365 4.80781 2.317 0
M  V30 5175 O 477.588 4.4918 3.51558 0
M  V30 5176 O 476.522 5.68226 1.98501 0
M  V30 5177 H 480.348 3.037 0.000250109 0
M  V30 5178 H 477.933 1.49256 -0.0655919 0
M  V30 5179 H 479.815 3.45138 2.4178 0
M  V30 5180 H 478.49 2.25969 2.31775 0
M  V30 5181 H 477.397 3.70641 0.507514 0
M  V30 5182 H 478.73 4.87379 0.687233 0
M  V30 5183 N 480.382 0.0267497 1.57577 0
M  V30 5184 C 481.329 -0.955894 2.10075 0
M  V30 5185 C 482.299 -1.32453 1.00226 0
M  V30 5186 O 483.484 -1.41826 1.27632 0
M  V30 5187 C 480.624 -2.2338 2.6305 0
M  V30 5188 C 479.737 -1.92183 3.86898 0
M  V30 5189 C 478.872 -3.14251 4.28275 0
M  V30 5190 C 477.911 -2.78862 5.44888 0
M  V30 5191 N 477.048 -3.93548 5.81433 0
M  V30 5192 H 481.888 -0.501303 2.93753 0
M  V30 5193 H 479.425 -0.235847 1.45197 0
M  V30 5194 H 481.383 -2.98124 2.91853 0
M  V30 5195 H 480.013 -2.6646 1.82205 0
M  V30 5196 H 479.065 -1.07692 3.64838 0
M  V30 5197 H 480.377 -1.62117 4.7172 0
M  V30 5198 H 479.531 -3.97317 4.58502 0
M  V30 5199 H 478.27 -3.47476 3.42215 0
M  V30 5200 H 477.275 -1.94208 5.14357 0
M  V30 5201 H 478.5 -2.46855 6.32645 0
M  V30 5202 H 476.446 -4.2662 4.98328 0
M  V30 5203 H 476.363 -3.67098 6.6089 0
M  V30 5204 H 477.631 -4.77325 6.16264 0
M  V30 5205 N 481.861 -1.55662 -0.24637 0
M  V30 5206 C 483.089 -1.81575 -0.991876 0
M  V30 5207 C 483.504 -0.602545 -1.78927 0
M  V30 5208 O 482.861 0.428795 -1.77391 0
M  V30 5209 C 482.912 -3.05711 -1.92933 0
M  V30 5210 O 482.633 -4.22348 -1.1642 0
M  V30 5211 C 484.134 -3.44428 -2.79078 0
M  V30 5212 H 481.354 -0.604209 -0.291844 0
M  V30 5213 H 483.898 -2.02722 -0.269095 0
M  V30 5214 H 482.053 -2.86612 -2.60638 0
M  V30 5215 H 482.467 -4.92706 -1.79835 0
M  V30 5216 H 483.941 -4.34388 -3.40603 0
M  V30 5217 H 484.418 -2.65037 -3.50217 0
M  V30 5218 H 485.024 -3.65879 -2.16824 0
M  V30 5219 N 483.339 0.512053 -1.4905 0
M  V30 5220 C 484.585 1.26874 -1.58212 0
M  V30 5221 C 484.918 1.9241 -0.263073 0
M  V30 5222 O 484.193 1.80181 0.732476 0
M  V30 5223 C 484.476 2.34428 -2.73341 0
M  V30 5224 C 484.329 1.73466 -4.15006 0
M  V30 5225 C 485.648 3.36073 -2.84154 0
M  V30 5226 H 482.767 0.459924 -0.575881 0
M  V30 5227 H 485.409 0.568587 -1.81293 0
M  V30 5228 H 483.559 2.94146 -2.53792 0
M  V30 5229 H 485.231 1.17661 -4.46042 0
M  V30 5230 H 483.474 1.03921 -4.21168 0
M  V30 5231 H 484.145 2.51426 -4.91415 0
M  V30 5232 H 486.621 2.86332 -3.01916 0
M  V30 5233 H 485.497 4.08703 -3.66406 0
M  V30 5234 H 485.758 3.97725 -1.93048 0
M  V30 5235 N 484.817 1.37938 0.762283 0
M  V30 5236 C 485.764 1.34467 1.87583 0
M  V30 5237 C 486.734 0.208633 1.64785 0
M  V30 5238 O 487.919 0.399494 1.86571 0
M  V30 5239 C 485.059 1.16692 3.24772 0
M  V30 5240 C 484.172 2.39608 3.59461 0
M  V30 5241 C 483.307 2.14631 4.85908 0
M  V30 5242 C 482.346 3.33364 5.13357 0
M  V30 5243 N 481.483 3.07877 6.30996 0
M  V30 5244 H 486.323 2.29669 1.89885 0
M  V30 5245 H 483.86 1.14116 0.928219 0
M  V30 5246 H 485.818 1.04405 4.03925 0
M  V30 5247 H 484.448 0.251333 3.2182 0
M  V30 5248 H 483.5 2.626 2.75219 0
M  V30 5249 H 484.812 3.28128 3.75678 0
M  V30 5250 H 483.966 1.99429 5.72986 0
M  V30 5251 H 482.705 1.23463 4.71814 0
M  V30 5252 H 481.71 3.49094 4.24751 0
M  V30 5253 H 482.935 4.25395 5.29354 0
M  V30 5254 H 480.881 2.19348 6.18241 0
M  V30 5255 H 480.798 3.89944 6.47673 0
M  V30 5256 H 482.066 2.96313 7.20985 0
M  V30 5257 N 486.295 -0.989507 1.22664 0
M  V30 5258 C 487.225 -2.09847 1.02404 0
M  V30 5259 C 488.206 -1.70007 -0.0561303 0
M  V30 5260 O 489.391 -1.93906 0.106748 0
M  V30 5261 C 486.521 -3.41996 0.604663 0
M  V30 5262 C 485.475 -3.95699 1.63115 0
M  V30 5263 C 484.801 -5.23936 1.0675 0
M  V30 5264 C 486.101 -4.25999 3.02196 0
M  V30 5265 H 487.795 -2.27054 1.95158 0
M  V30 5266 H 485.341 -1.09111 0.939727 0
M  V30 5267 H 487.294 -4.1899 0.45002 0
M  V30 5268 H 486.018 -3.24626 -0.35855 0
M  V30 5269 H 484.677 -3.2084 1.77362 0
M  V30 5270 H 484.325 -5.02909 0.0955422 0
M  V30 5271 H 484.025 -5.60833 1.75328 0
M  V30 5272 H 485.549 -6.0356 0.924516 0
M  V30 5273 H 486.963 -4.93777 2.91303 0
M  V30 5274 H 485.36 -4.74076 3.67929 0
M  V30 5275 H 486.43 -3.33636 3.51873 0
M  V30 5276 N 487.773 -1.03688 -1.18687 0
M  V30 5277 C 489.189 -0.755413 -1.4059 0
M  V30 5278 C 489.389 0.656659 -1.905 0
M  V30 5279 O 488.445 1.42144 -2.08689 0
M  V30 5280 C 489.758 -1.7983 -2.41001 0
M  V30 5281 C 491.306 -1.81877 -2.54735 0
M  V30 5282 C 491.781 -2.85148 -3.58406 0
M  V30 5283 N 493.272 -2.84015 -3.6591 0
M  V30 5284 C 494.007 -3.60573 -4.45841 0
M  V30 5285 N 493.503 -4.46871 -5.29413 0
M  V30 5286 N 495.296 -3.49079 -4.40568 0
M  V30 5287 H 487.447 -1.94818 -0.846148 0
M  V30 5288 H 489.71 -0.842727 -0.434184 0
M  V30 5289 H 489.416 -2.81097 -2.1137 0
M  V30 5290 H 489.29 -1.62727 -3.40294 0
M  V30 5291 H 491.677 -0.812836 -2.83685 0
M  V30 5292 H 491.758 -2.03057 -1.55568 0
M  V30 5293 H 491.402 -3.85918 -3.30197 0
M  V30 5294 H 491.332 -2.61224 -4.57241 0
M  V30 5295 H 493.823 -2.21431 -3.0623 0
M  V30 5296 H 494.136 -5.02007 -5.87545 0
M  V30 5297 H 492.481 -4.5094 -5.28846 0
M  V30 5298 H 495.672 -2.81066 -3.74325 0
M  V30 5299 H 495.845 -4.08994 -5.02621 0
M  V30 5300 N 489.251 1.34841 -0.815825 0
M  V30 5301 C 490.199 2.31549 -0.220888 0
M  V30 5302 C 491.193 1.5707 0.634457 0
M  V30 5303 O 492.399 1.72125 0.526589 0
M  V30 5304 H 488.774 0.750153 -0.0526782 0
M  V30 5305 H 490.745 2.7926 -1.05149 0
M  V30 5306 C 489.494 3.42335 0.608427 0
M  V30 5307 H 488.817 3.9978 -0.0404121 0
M  V30 5308 H 490.257 4.12258 0.990931 0
M  V30 5309 C 488.716 2.86173 1.77782 0
M  V30 5310 O 489.246 2.80474 2.87571 0
M  V30 5311 N 487.452 2.43093 1.59229 0
M  V30 5312 H 486.999 2.47928 0.699237 0
M  V30 5313 H 486.957 2.05866 2.37627 0
M  V30 5314 N 490.729 0.570148 1.46925 0
M  V30 5315 C 491.978 0.0487352 2.01641 0
M  V30 5316 C 492.291 -1.31433 1.44861 0
M  V30 5317 O 493.497 -1.92638 1.91318 0
M  V30 5318 C 491.953 0.0365817 3.59881 0
M  V30 5319 C 491.561 1.39719 4.25655 0
M  V30 5320 C 493.305 -0.431545 4.22301 0
M  V30 5321 C 491.212 1.34345 5.75939 0
M  V30 5322 H 490.142 0.0144492 0.753862 0
M  V30 5323 H 492.793 0.719928 1.68788 0
M  V30 5324 H 491.175 -0.700522 3.89755 0
M  V30 5325 H 492.349 2.15303 4.07408 0
M  V30 5326 H 490.664 1.80431 3.75278 0
M  V30 5327 H 493.261 -0.490354 5.32447 0
M  V30 5328 H 493.604 -1.44638 3.90366 0
M  V30 5329 H 494.137 0.251102 3.97007 0
M  V30 5330 H 490.876 2.33469 6.12513 0
M  V30 5331 H 490.396 0.629615 5.96486 0
M  V30 5332 H 492.075 1.051 6.38407 0
M  V30 5333 N 492.207 -1.54576 0.307264 0
M  V30 5334 C 493.432 -2.05139 -0.305379 0
M  V30 5335 C 493.857 -1.18278 -1.46259 0
M  V30 5336 O 493.215 -0.188243 -1.8032 0
M  V30 5337 C 493.263 -3.53066 -0.733283 0
M  V30 5338 O 492.367 -3.69206 -1.83741 0
M  V30 5339 H 491.708 -0.661444 -0.0582105 0
M  V30 5340 H 494.238 -1.99569 0.450931 0
M  V30 5341 H 494.248 -3.95034 -1.02039 0
M  V30 5342 H 492.923 -4.15746 0.113198 0
M  V30 5343 H 491.5 -3.39143 -1.55037 0
M  V30 5344 N 493.685 -0.035106 -1.57561 0
M  V30 5345 C 494.91 0.655802 -1.96759 0
M  V30 5346 C 495.335 1.64523 -0.911809 0
M  V30 5347 O 494.693 1.80857 0.126673 0
M  V30 5348 C 494.741 1.33326 -3.35047 0
M  V30 5349 O 493.845 2.44866 -3.31835 0
M  V30 5350 H 493.186 0.171807 -0.641388 0
M  V30 5351 H 495.716 -0.0987369 -2.04362 0
M  V30 5352 H 495.726 1.68867 -3.71413 0
M  V30 5353 H 494.401 0.608033 -4.11431 0
M  V30 5354 H 492.978 2.11392 -3.07193 0
M  V30 5355 N 495.163 1.55791 0.238111 0
M  V30 5356 C 496.412 1.77234 0.962868 0
M  V30 5357 C 496.725 0.600661 1.86149 0
M  V30 5358 O 497.931 0.698315 2.62366 0
M  V30 5359 C 496.387 3.13808 1.76218 0
M  V30 5360 C 495.995 4.3865 0.910518 0
M  V30 5361 C 497.739 3.44585 2.47914 0
M  V30 5362 C 495.646 5.66252 1.70623 0
M  V30 5363 H 494.576 0.660731 0.36325 0
M  V30 5364 H 497.227 1.8221 0.217242 0
M  V30 5365 H 495.609 3.02963 2.55009 0
M  V30 5366 H 496.783 4.60507 0.164316 0
M  V30 5367 H 495.098 4.15271 0.30647 0
M  V30 5368 H 497.695 4.3714 3.07917 0
M  V30 5369 H 498.038 2.66314 3.19973 0
M  V30 5370 H 498.571 3.56685 1.76127 0
M  V30 5371 H 495.31 6.47369 1.02923 0
M  V30 5372 H 494.83 5.48483 2.42748 0
M  V30 5373 H 496.509 6.05829 2.27114 0
M  V30 5374 N 496.642 -0.504142 1.49319 0
M  V30 5375 C 497.889 -1.25846 1.58647 0
M  V30 5376 C 498.217 -1.92592 0.27177 0
M  V30 5377 O 497.472 -1.81167 -0.74007 0
M  V30 5378 C 497.771 -2.35021 2.69258 0
M  V30 5379 C 497.437 -1.85755 4.1086 0
M  V30 5380 C 496.099 -1.72038 4.49395 0
M  V30 5381 C 498.451 -1.48844 4.99495 0
M  V30 5382 C 495.779 -1.19783 5.74342 0
M  V30 5383 C 498.131 -0.980422 6.24956 0
M  V30 5384 C 496.795 -0.829622 6.62324 0
M  V30 5385 H 496.065 -0.460505 0.580531 0
M  V30 5386 H 498.712 -0.559716 1.83138 0
M  V30 5387 H 497.017 -3.10672 2.38726 0
M  V30 5388 H 498.714 -2.93083 2.73685 0
M  V30 5389 H 495.304 -1.9739 3.80441 0
M  V30 5390 H 499.488 -1.5829 4.70381 0
M  V30 5391 H 494.744 -1.06817 6.01997 0
M  V30 5392 H 498.918 -0.685608 6.93017 0
M  V30 5393 H 496.545 -0.42253 7.59025 0
M  V30 5394 N 498.12 -1.38341 -0.754957 0
M  V30 5395 C 499.03 -1.3769 -1.89944 0
M  V30 5396 C 500.046 -0.274194 -1.71826 0
M  V30 5397 O 501.222 -0.512391 -1.94773 0
M  V30 5398 C 498.287 -1.19938 -3.25293 0
M  V30 5399 C 497.348 -2.40001 -3.55946 0
M  V30 5400 C 496.581 -2.23087 -4.84838 0
M  V30 5401 O 496.804 -1.22386 -5.57116 0
M  V30 5402 O 495.738 -3.11646 -5.14937 0
M  V30 5403 H 499.564 -2.3412 -1.93446 0
M  V30 5404 H 497.149 -1.19246 -0.900044 0
M  V30 5405 H 499.031 -1.12093 -4.06218 0
M  V30 5406 H 497.706 -0.265919 -3.22606 0
M  V30 5407 H 496.613 -2.53421 -2.75188 0
M  V30 5408 H 497.946 -3.31973 -3.63394 0
M  V30 5409 N 499.598 0.982988 -1.23187 0
M  V30 5410 C 500.823 1.76455 -1.08988 0
M  V30 5411 C 501.248 1.84726 0.354691 0
M  V30 5412 O 500.606 1.30699 1.25649 0
M  V30 5413 C 500.654 3.17094 -1.71708 0
M  V30 5414 O 499.758 4.00648 -0.977477 0
M  V30 5415 H 499.099 0.542988 -0.382177 0
M  V30 5416 H 501.629 1.23413 -1.63188 0
M  V30 5417 H 501.639 3.67684 -1.76841 0
M  V30 5418 H 500.314 3.10389 -2.76823 0
M  V30 5419 H 498.891 3.59161 -1.0029 0
M  V30 5420 N 501.076 1.04316 1.18135 0
M  V30 5421 C 501.986 0.646876 2.25505 0
M  V30 5422 C 503.002 -0.328008 1.7088 0
M  V30 5423 O 504.178 -0.182309 2.00573 0
M  V30 5424 C 501.243 0.0185664 3.46695 0
M  V30 5425 C 500.304 1.04277 4.16443 0
M  V30 5426 C 499.537 0.444352 5.31847 0
M  V30 5427 O 499.76 -0.748735 5.65465 0
M  V30 5428 O 498.694 1.17428 5.90334 0
M  V30 5429 H 502.52 1.54147 2.61672 0
M  V30 5430 H 500.105 0.814188 1.25265 0
M  V30 5431 H 501.987 -0.331068 4.20097 0
M  V30 5432 H 500.662 -0.849814 3.12346 0
M  V30 5433 H 499.569 1.44425 3.45098 0
M  V30 5434 H 500.902 1.882 4.54798 0
M  V30 5435 N 502.554 -1.34406 0.822964 0
M  V30 5436 C 503.965 -1.8069 0.469879 0
M  V30 5437 C 504.316 -1.68223 -1.00972 0
M  V30 5438 O 503.441 -1.22226 -1.78577 0
M  V30 5439 C 504.036 -3.28064 0.846118 0
M  V30 5440 C 502.595 -3.72428 0.545402 0
M  V30 5441 C 501.742 -2.56116 1.06301 0
M  V30 5442 H 504.693 -1.22153 1.01313 0
M  V30 5443 H 504.714 -3.80205 0.149922 0
M  V30 5444 H 504.226 -3.37107 1.92304 0
M  V30 5445 H 502.327 -3.68924 -0.522109 0
M  V30 5446 H 502.44 -4.66548 1.0895 0
M  V30 5447 H 500.804 -2.50048 0.484554 0
M  V30 5448 H 501.587 -2.67928 2.14638 0
M  V30 5449 N 504.032 -0.577932 -1.46621 0
M  V30 5450 C 504.965 0.206312 -2.27265 0
M  V30 5451 C 505.943 0.901306 -1.35334 0
M  V30 5452 O 507.127 0.916151 -1.64739 0
M  V30 5453 C 504.254 1.29563 -3.1294 0
M  V30 5454 C 503.3 0.706981 -4.206 0
M  V30 5455 S 504.133 -0.462459 -5.33499 0
M  V30 5456 C 505.289 0.628171 -6.2274 0
M  V30 5457 H 505.522 -0.477961 -2.93433 0
M  V30 5458 H 503.055 -0.364715 -1.50031 0
M  V30 5459 H 505.013 1.91935 -3.62865 0
M  V30 5460 H 503.674 1.95183 -2.46095 0
M  V30 5461 H 502.867 1.52565 -4.80354 0
M  V30 5462 H 502.469 0.159022 -3.73662 0
M  V30 5463 H 504.761 1.51506 -6.60342 0
M  V30 5464 H 505.704 0.0674961 -7.08068 0
M  V30 5465 H 506.112 0.930167 -5.56784 0
M  V30 5466 N 505.51 1.54411 -0.315457 0
M  V30 5467 C 506.74 2.04536 0.291315 0
M  V30 5468 C 507.148 1.19162 1.4696 0
M  V30 5469 O 506.491 0.213199 1.82459 0
M  V30 5470 C 506.553 3.5056 0.796725 0
M  V30 5471 C 506.217 4.5627 -0.258178 0
M  V30 5472 C 507.214 5.08312 -1.09153 0
M  V30 5473 C 504.899 5.00672 -0.404036 0
M  V30 5474 C 506.893 6.03312 -2.05655 0
M  V30 5475 C 504.58 5.95488 -1.37248 0
M  V30 5476 C 505.578 6.46693 -2.19721 0
M  V30 5477 O 505.266 7.39648 -3.14921 0
M  V30 5478 H 504.998 0.672856 0.0651165 0
M  V30 5479 H 507.552 2.00244 -0.457308 0
M  V30 5480 H 505.782 3.52223 1.59612 0
M  V30 5481 H 507.471 3.83804 1.32096 0
M  V30 5482 H 508.237 4.74793 -0.98979 0
M  V30 5483 H 504.116 4.60436 0.22799 0
M  V30 5484 H 507.66 6.43203 -2.70067 0
M  V30 5485 H 503.557 6.28424 -1.47489 0
M  V30 5486 H 504.325 7.57496 -3.10067 0
M  V30 5487 N 506.988 0.0434614 1.5754 0
M  V30 5488 C 508.235 -0.632035 1.92384 0
M  V30 5489 C 508.563 -1.71304 0.921157 0
M  V30 5490 O 507.818 -1.95583 -0.067744 0
M  V30 5491 C 508.117 -1.2738 3.3393 0
M  V30 5492 C 507.783 -0.321757 4.49751 0
M  V30 5493 C 506.445 -0.0597611 4.81163 0
M  V30 5494 C 508.797 0.331158 5.20147 0
M  V30 5495 C 506.125 0.862715 5.80322 0
M  V30 5496 C 508.477 1.24178 6.20292 0
M  V30 5497 C 507.141 1.51252 6.50138 0
M  V30 5498 H 506.411 -0.231278 0.703983 0
M  V30 5499 H 509.058 0.108294 1.91194 0
M  V30 5500 H 507.363 -2.08921 3.3145 0
M  V30 5501 H 509.06 -1.80326 3.58167 0
M  V30 5502 H 505.65 -0.53614 4.25233 0
M  V30 5503 H 509.834 0.141826 4.96097 0
M  V30 5504 H 505.09 1.08003 6.01785 0
M  V30 5505 H 509.264 1.75381 6.73954 0
M  V30 5506 H 506.891 2.22897 7.26788 0
M  V30 5507 N 508.466 -1.55915 -0.229846 0
M  V30 5508 C 509.413 -1.91734 -1.28478 0
M  V30 5509 C 510.383 -0.773539 -1.46988 0
M  V30 5510 O 511.568 -1.02871 -1.60693 0
M  V30 5511 C 508.708 -2.23224 -2.63182 0
M  V30 5512 C 507.821 -3.50497 -2.52539 0
M  V30 5513 C 506.956 -3.71474 -3.79711 0
M  V30 5514 C 505.995 -4.92289 -3.63755 0
M  V30 5515 N 505.132 -5.09698 -4.82858 0
M  V30 5516 H 509.972 -2.81692 -0.972308 0
M  V30 5517 H 507.509 -1.39429 -0.468815 0
M  V30 5518 H 509.467 -2.3949 -3.41614 0
M  V30 5519 H 508.097 -1.36451 -2.92542 0
M  V30 5520 H 507.149 -3.4247 -1.65585 0
M  V30 5521 H 508.461 -4.39079 -2.36666 0
M  V30 5522 H 507.615 -3.87791 -4.66586 0
M  V30 5523 H 506.354 -2.81157 -3.985 0
M  V30 5524 H 505.359 -4.7593 -2.75264 0
M  V30 5525 H 506.584 -5.84083 -3.46445 0
M  V30 5526 H 504.53 -4.22322 -5.01976 0
M  V30 5527 H 504.447 -5.92399 -4.69681 0
M  V30 5528 H 505.715 -5.30443 -5.71183 0
M  V30 5529 N 509.944 0.496216 -1.49584 0
M  V30 5530 C 511.221 1.25755 -1.49816 0
M  V30 5531 C 511.601 2.09859 -0.228572 0
M  V30 5532 O 510.949 2.14449 0.788908 0
M  V30 5533 C 511.159 2.11017 -2.7798 0
M  V30 5534 C 512.507 2.70047 -3.27658 0
M  V30 5535 O 513.531 2.21281 -2.79129 0
M  V30 5536 O 512.39 3.58834 -4.1219 0
M  V30 5537 H 509.484 0.569322 -0.599834 0
M  V30 5538 H 512.03 0.510094 -1.61852 0
M  V30 5539 H 510.802 1.48879 -3.61871 0
M  V30 5540 H 510.425 2.92947 -2.68827 0
M  V30 5541 N 511.423 1.38739 0.74761 0
M  V30 5542 C 512.355 1.32341 1.87132 0
M  V30 5543 C 513.368 0.234502 1.61102 0
M  V30 5544 O 514.557 0.492516 1.71571 0
M  V30 5545 C 511.657 1.02915 3.22896 0
M  V30 5546 C 510.83 2.22834 3.76383 0
M  V30 5547 C 509.889 1.90059 4.90677 0
M  V30 5548 O 508.915 2.62615 5.04997 0
M  V30 5549 N 510.117 0.859141 5.74107 0
M  V30 5550 H 512.882 2.29175 1.93129 0
M  V30 5551 H 510.443 1.32678 0.927805 0
M  V30 5552 H 512.435 0.79031 3.96908 0
M  V30 5553 H 511.005 0.148572 3.12247 0
M  V30 5554 H 510.225 2.62747 2.93867 0
M  V30 5555 H 511.513 3.02851 4.08851 0
M  V30 5556 H 510.911 0.257564 5.65113 0
M  V30 5557 H 509.468 0.680189 6.48241 0
M  V30 5558 N 512.901 -0.976442 1.23707 0
M  V30 5559 C 514.129 -1.75341 1.09833 0
M  V30 5560 C 514.544 -1.8553 -0.349885 0
M  V30 5561 O 513.901 -1.33732 -1.24185 0
M  V30 5562 C 513.952 -3.17833 1.72233 0
M  V30 5563 O 513.673 -3.08167 3.11391 0
M  V30 5564 C 515.174 -4.11906 1.63853 0
M  V30 5565 H 512.394 -0.550137 0.384175 0
M  V30 5566 H 514.938 -1.2265 1.63638 0
M  V30 5567 H 513.093 -3.67538 1.22452 0
M  V30 5568 H 513.507 -3.97897 3.41729 0
M  V30 5569 H 514.981 -5.09579 2.12211 0
M  V30 5570 H 515.458 -4.35109 0.598092 0
M  V30 5571 H 516.064 -3.68107 2.13019 0
M  V30 5572 N 514.379 -1.04941 -1.1758 0
M  V30 5573 C 515.79 -0.784501 -1.69418 0
M  V30 5574 C 516.141 0.693625 -1.8353 0
M  V30 5575 O 515.266 1.53925 -1.52106 0
M  V30 5576 C 515.861 -1.41746 -3.07723 0
M  V30 5577 C 514.42 -1.20066 -3.56737 0
M  V30 5578 C 513.567 -1.5026 -2.33061 0
M  V30 5579 H 516.518 -1.21469 -1.02133 0
M  V30 5580 H 516.539 -0.825381 -3.7144 0
M  V30 5581 H 516.051 -2.49325 -2.9742 0
M  V30 5582 H 514.152 -0.144006 -3.72322 0
M  V30 5583 H 514.265 -1.90384 -4.39648 0
M  V30 5584 H 512.629 -0.922598 -2.37403 0
M  V30 5585 H 513.412 -2.58967 -2.25368 0
M  V30 5586 N 515.857 1.33968 -0.830081 0
M  V30 5587 C 517.104 1.98063 -0.421566 0
M  V30 5588 C 517.432 1.65787 1.0171 0
M  V30 5589 O 516.687 0.925348 1.72441 0
M  V30 5590 C 516.986 3.52679 -0.57898 0
M  V30 5591 C 516.652 4.04884 -1.98443 0
M  V30 5592 C 515.314 4.18852 -2.36888 0
M  V30 5593 C 517.666 4.32879 -2.90285 0
M  V30 5594 C 514.994 4.58145 -3.66497 0
M  V30 5595 C 517.346 4.7362 -4.19364 0
M  V30 5596 C 516.01 4.85794 -4.57778 0
M  V30 5597 H 515.28 0.724765 -0.154262 0
M  V30 5598 H 517.927 1.59792 -1.05541 0
M  V30 5599 H 516.232 3.91556 0.138219 0
M  V30 5600 H 517.929 4.00261 -0.243317 0
M  V30 5601 H 514.519 3.9448 -1.67581 0
M  V30 5602 H 518.703 4.21619 -2.61823 0
M  V30 5603 H 513.959 4.65762 -3.96075 0
M  V30 5604 H 518.133 4.9424 -4.90612 0
M  V30 5605 H 515.76 5.15998 -5.58256 0
M  V30 5606 N 517.335 0.585699 1.46312 0
M  V30 5607 C 518.268 -0.194257 2.27372 0
M  V30 5608 C 519.246 -0.894116 1.3581 0
M  V30 5609 O 520.43 -0.907402 1.65222 0
M  V30 5610 C 517.557 -1.27901 3.13622 0
M  V30 5611 C 516.603 -0.684666 4.20969 0
M  V30 5612 S 517.436 0.490745 5.33247 0
M  V30 5613 C 518.592 -0.595137 6.23064 0
M  V30 5614 H 518.825 0.493515 2.93175 0
M  V30 5615 H 516.358 0.372666 1.49835 0
M  V30 5616 H 518.316 -1.90008 3.63878 0
M  V30 5617 H 516.977 -1.93875 2.47126 0
M  V30 5618 H 516.17 -1.50015 4.81156 0
M  V30 5619 H 515.772 -0.139204 3.73741 0
M  V30 5620 H 518.064 -1.48002 6.61137 0
M  V30 5621 H 519.007 -0.0299446 7.08094 0
M  V30 5622 H 519.415 -0.900627 5.57269 0
M  V30 5623 N 518.813 -1.54241 0.323641 0
M  V30 5624 C 519.761 -2.25813 -0.557804 0
M  V30 5625 C 520.755 -1.27225 -1.11849 0
M  V30 5626 O 521.961 -1.45001 -1.06652 0
M  V30 5627 H 518.336 -0.72532 -0.198532 0
M  V30 5628 H 520.307 -2.98322 0.0681112 0
M  V30 5629 C 519.056 -3.02913 -1.70701 0
M  V30 5630 H 518.379 -3.78593 -1.28482 0
M  V30 5631 H 519.819 -3.56238 -2.29935 0
M  V30 5632 C 518.278 -2.11217 -2.62467 0
M  V30 5633 O 518.808 -1.69508 -3.64184 0
M  V30 5634 N 517.014 -1.76704 -2.30703 0
M  V30 5635 H 516.561 -2.1082 -1.48029 0
M  V30 5636 H 516.519 -1.15631 -2.92364 0
M  V30 5637 N 520.291 -0.0518155 -1.57515 0
M  V30 5638 C 521.539 0.620595 -1.92336 0
M  V30 5639 C 521.86 1.71345 -0.930907 0
M  V30 5640 O 521.13 1.95885 0.0241341 0
M  V30 5641 H 519.71 0.232226 -0.709986 0
M  V30 5642 H 522.372 -0.104969 -1.94617 0
M  V30 5643 H 521.468 1.05879 -2.93592 0
M  V30 5644 N 521.769 1.56035 0.221574 0
M  V30 5645 C 523.009 1.80822 0.953038 0
M  V30 5646 C 523.373 0.625316 1.81532 0
M  V30 5647 O 524.574 0.752491 2.58052 0
M  V30 5648 C 522.845 3.10503 1.76983 0
M  V30 5649 S 524.404 3.56604 2.55693 0
M  V30 5650 H 521.222 0.634849 0.320137 0
M  V30 5651 H 523.824 1.94274 0.218619 0
M  V30 5652 H 522.528 3.94636 1.12651 0
M  V30 5653 H 522.059 2.99858 2.54655 0
M  V30 5654 H 524.074 3.1994 3.79279 0
M  V30 5655 N 523.247 -0.488276 1.49845 0
M  V30 5656 C 524.493 -1.24341 1.6021 0
M  V30 5657 C 524.826 -1.91967 0.293651 0
M  V30 5658 O 524.101 -1.81323 -0.703718 0
M  V30 5659 C 524.384 -2.3005 2.77036 0
M  V30 5660 C 524.237 -1.66842 4.17713 0
M  V30 5661 C 525.556 -3.31509 2.89464 0
M  V30 5662 H 522.675 -0.450704 0.583125 0
M  V30 5663 H 525.317 -0.539673 1.82174 0
M  V30 5664 H 523.467 -2.90071 2.58439 0
M  V30 5665 H 525.139 -1.1055 4.47858 0
M  V30 5666 H 523.382 -0.972079 4.22768 0
M  V30 5667 H 524.053 -2.43576 4.95353 0
M  V30 5668 H 526.529 -2.81493 3.06433 0
M  V30 5669 H 525.405 -4.02822 3.72861 0
M  V30 5670 H 525.666 -3.94603 1.99351 0
M  V30 5671 N 524.725 -1.39134 -0.740242 0
M  V30 5672 C 525.635 -1.39697 -1.88473 0
M  V30 5673 C 526.651 -0.292403 -1.71526 0
M  V30 5674 O 527.827 -0.533021 -1.94219 0
M  V30 5675 C 524.892 -1.23382 -3.24003 0
M  V30 5676 C 523.953 -2.43763 -3.53381 0
M  V30 5677 C 523.186 -2.28216 -4.82445 0
M  V30 5678 O 523.409 -1.28288 -5.55786 0
M  V30 5679 O 522.343 -3.1709 -5.11603 0
M  V30 5680 H 526.169 -2.36159 -1.90952 0
M  V30 5681 H 523.754 -1.20194 -0.887346 0
M  V30 5682 H 525.636 -1.16395 -4.05006 0
M  V30 5683 H 524.311 -0.300121 -3.22306 0
M  V30 5684 H 523.218 -2.56325 -2.72485 0
M  V30 5685 H 524.551 -3.35808 -3.59852 0
M  V30 5686 N 526.204 0.969867 -1.24223 0
M  V30 5687 C 527.45 1.7151 -1.08223 0
M  V30 5688 C 527.783 1.90478 0.37838 0
M  V30 5689 O 527.058 1.4647 1.27971 0
M  V30 5690 C 527.341 3.10714 -1.82013 0
M  V30 5691 C 527.194 2.9925 -3.35811 0
M  V30 5692 C 528.513 4.10332 -1.59108 0
M  V30 5693 H 525.632 0.622499 -0.394543 0
M  V30 5694 H 528.274 1.1284 -1.52863 0
M  V30 5695 H 526.424 3.608 -1.44068 0
M  V30 5696 H 528.096 2.56608 -3.83341 0
M  V30 5697 H 526.339 2.35512 -3.64303 0
M  V30 5698 H 527.01 3.97857 -3.82641 0
M  V30 5699 H 529.486 3.69097 -1.92111 0
M  V30 5700 H 528.362 5.05804 -2.13198 0
M  V30 5701 H 528.623 4.38926 -0.528832 0
M  V30 5702 N 527.682 1.05563 1.17022 0
M  V30 5703 C 528.592 0.670758 2.24807 0
M  V30 5704 C 529.608 -0.309865 1.71219 0
M  V30 5705 O 530.784 -0.161025 2.00755 0
M  V30 5706 C 527.849 0.055337 3.46656 0
M  V30 5707 C 526.91 1.08688 4.15314 0
M  V30 5708 C 526.143 0.500736 5.31346 0
M  V30 5709 O 526.366 -0.688718 5.66227 0
M  V30 5710 O 525.3 1.23683 5.89055 0
M  V30 5711 H 529.126 1.56914 2.60023 0
M  V30 5712 H 526.711 0.827428 1.24395 0
M  V30 5713 H 528.593 -0.286492 4.20425 0
M  V30 5714 H 527.268 -0.816638 3.13229 0
M  V30 5715 H 526.175 1.48077 3.43546 0
M  V30 5716 H 527.508 1.93014 4.52777 0
M  V30 5717 N 529.16 -1.33526 0.837174 0
M  V30 5718 C 530.388 -2.02047 0.445494 0
M  V30 5719 C 530.803 -1.62995 -0.952788 0
M  V30 5720 O 530.16 -0.842447 -1.61892 0
M  V30 5721 C 530.211 -3.57221 0.554577 0
M  V30 5722 O 529.932 -3.94863 1.89776 0
M  V30 5723 C 531.433 -4.43012 0.159634 0
M  V30 5724 H 528.653 -0.647221 0.177048 0
M  V30 5725 H 531.197 -1.70492 1.12928 0
M  V30 5726 H 529.352 -3.87315 -0.0812781 0
M  V30 5727 H 529.766 -4.89569 1.88208 0
M  V30 5728 H 531.24 -5.51253 0.28701 0
M  V30 5729 H 531.717 -4.29916 -0.898289 0
M  V30 5730 H 532.323 -4.18274 0.769855 0
M  V30 5731 N 530.638 -0.59345 -1.46 0
M  V30 5732 C 531.568 0.121192 -2.33185 0
M  V30 5733 C 532.549 0.872977 -1.4599 0
M  V30 5734 O 533.734 0.846321 -1.74789 0
M  V30 5735 C 530.864 1.12844 -3.28456 0
M  V30 5736 C 529.818 0.4908 -4.25177 0
M  V30 5737 C 529.144 1.60529 -5.10034 0
M  V30 5738 C 530.444 -0.578949 -5.19081 0
M  V30 5739 H 532.138 -0.606767 -2.93187 0
M  V30 5740 H 529.684 -0.293242 -1.40983 0
M  V30 5741 H 531.637 1.63684 -3.88311 0
M  V30 5742 H 530.361 1.88681 -2.66584 0
M  V30 5743 H 529.02 0.00339328 -3.666 0
M  V30 5744 H 528.668 2.35359 -4.44539 0
M  V30 5745 H 528.368 1.18422 -5.75543 0
M  V30 5746 H 529.892 2.11623 -5.72755 0
M  V30 5747 H 531.306 -0.155199 -5.7309 0
M  V30 5748 H 529.703 -0.920947 -5.92991 0
M  V30 5749 H 530.773 -1.46109 -4.62364 0
M  V30 5750 N 532.116 1.54067 -0.331816 0
M  V30 5751 C 533.046 2.27569 0.522932 0
M  V30 5752 C 534.027 1.28679 1.11247 0
M  V30 5753 O 535.212 1.57504 1.13605 0
M  V30 5754 C 532.342 3.0397 1.67987 0
M  V30 5755 C 531.296 4.10267 1.21924 0
M  V30 5756 C 530.622 4.74555 2.46377 0
M  V30 5757 C 531.922 5.21268 0.32815 0
M  V30 5758 H 533.616 2.99264 -0.0901977 0
M  V30 5759 H 531.162 1.4393 -0.044821 0
M  V30 5760 H 533.115 3.54123 2.28418 0
M  V30 5761 H 531.839 2.29906 2.31971 0
M  V30 5762 H 530.498 3.61009 0.637809 0
M  V30 5763 H 530.146 3.97098 3.08743 0
M  V30 5764 H 529.846 5.46363 2.16243 0
M  V30 5765 H 531.37 5.27487 3.07555 0
M  V30 5766 H 532.784 5.67128 0.838978 0
M  V30 5767 H 531.181 5.99982 0.119228 0
M  V30 5768 H 532.251 4.80673 -0.638839 0
M  V30 5769 N 533.594 0.0601682 1.57485 0
M  V30 5770 C 534.822 -0.620937 1.97363 0
M  V30 5771 C 535.237 -1.63846 0.938082 0
M  V30 5772 O 534.594 -1.82339 -0.0766578 0
M  V30 5773 C 534.645 -1.29987 3.37321 0
M  V30 5774 O 534.366 -0.323081 4.36907 0
M  V30 5775 C 535.867 -2.06989 3.92008 0
M  V30 5776 H 533.087 -0.169135 0.649334 0
M  V30 5777 H 535.631 0.129132 2.04092 0
M  V30 5778 H 533.786 -2.0011 3.31715 0
M  V30 5779 H 534.2 -0.808754 5.18227 0
M  V30 5780 H 535.674 -2.49901 4.92192 0
M  V30 5781 H 536.151 -2.92173 3.2792 0
M  V30 5782 H 536.757 -1.41757 4.0098 0
M  V30 5783 N 535.072 -1.5615 -0.213296 0
M  V30 5784 C 536.483 -1.69645 -0.779582 0
M  V30 5785 C 536.834 -0.663615 -1.84636 0
M  V30 5786 O 535.959 0.183633 -2.15619 0
M  V30 5787 C 536.554 -3.07567 -1.42084 0
M  V30 5788 C 535.113 -3.22889 -1.93442 0
M  V30 5789 C 534.26 -2.65581 -0.797612 0
M  V30 5790 H 537.211 -1.58696 0.0114951 0
M  V30 5791 H 537.232 -3.03884 -2.28986 0
M  V30 5792 H 536.744 -3.82716 -0.644187 0
M  V30 5793 H 534.845 -2.52623 -2.73884 0
M  V30 5794 H 534.958 -4.30197 -2.10872 0
M  V30 5795 H 533.322 -2.24278 -1.20712 0
M  V30 5796 H 534.105 -3.43284 -0.033494 0
M  V30 5797 N 536.55 0.480323 -1.50102 0
M  V30 5798 C 537.775 1.26126 -1.64642 0
M  V30 5799 C 538.2 1.85257 -0.325823 0
M  V30 5800 O 537.558 1.66854 0.709194 0
M  V30 5801 C 537.606 2.35243 -2.73301 0
M  V30 5802 O 536.71 3.39646 -2.33911 0
M  V30 5803 H 536.051 0.371463 -0.550374 0
M  V30 5804 H 538.581 0.572696 -1.96421 0
M  V30 5805 H 538.591 2.80695 -2.96098 0
M  V30 5806 H 537.266 1.91574 -3.6915 0
M  V30 5807 H 535.843 2.99969 -2.21525 0
M  V30 5808 N 538.028 1.39524 0.732853 0
M  V30 5809 C 538.938 1.40695 1.87729 0
M  V30 5810 C 539.954 0.301496 1.71368 0
M  V30 5811 O 541.13 0.543313 1.93933 0
M  V30 5812 C 538.195 1.25098 3.23344 0
M  V30 5813 C 537.256 2.45634 3.52083 0
M  V30 5814 C 536.489 2.30772 4.81228 0
M  V30 5815 O 536.712 1.31233 5.55098 0
M  V30 5816 O 535.646 3.19799 5.09914 0
M  V30 5817 H 539.472 2.37168 1.89697 0
M  V30 5818 H 537.057 1.20663 0.880959 0
M  V30 5819 H 538.939 1.18541 4.04383 0
M  V30 5820 H 537.614 0.317209 3.22142 0
M  V30 5821 H 536.521 2.57767 2.71122 0
M  V30 5822 H 537.854 3.37712 3.58066 0
M  V30 5823 N 539.506 -0.963266 1.24736 0
M  V30 5824 C 540.436 -2.07628 1.06832 0
M  V30 5825 C 541.417 -1.70088 -0.0200566 0
M  V30 5826 O 542.602 -1.93636 0.147854 0
M  V30 5827 C 539.732 -3.40636 0.677069 0
M  V30 5828 C 538.686 -3.9215 1.71471 0
M  V30 5829 C 538.012 -5.21553 1.1784 0
M  V30 5830 C 539.312 -4.19493 3.11164 0
M  V30 5831 H 541.006 -2.22864 1.9993 0
M  V30 5832 H 538.552 -1.07093 0.96266 0
M  V30 5833 H 540.505 -4.17941 0.538792 0
M  V30 5834 H 539.229 -3.25313 -0.289612 0
M  V30 5835 H 537.888 -3.17005 1.84128 0
M  V30 5836 H 537.536 -5.02593 0.202195 0
M  V30 5837 H 537.236 -5.56988 1.87185 0
M  V30 5838 H 538.76 -6.01463 1.05233 0
M  V30 5839 H 540.174 -4.87487 3.01711 0
M  V30 5840 H 538.571 -4.66165 3.77902 0
M  V30 5841 H 539.641 -3.26097 3.58871 0
M  V30 5842 N 540.985 -1.06182 -1.16461 0
M  V30 5843 C 541.915 -0.692861 -2.22984 0
M  V30 5844 C 542.896 0.314122 -1.67174 0
M  V30 5845 O 544.081 0.189499 -1.93273 0
M  V30 5846 C 541.211 -0.07732 -3.47214 0
M  V30 5847 C 540.165 -1.01015 -4.15909 0
M  V30 5848 C 539.491 -0.257973 -5.34077 0
M  V30 5849 C 540.791 -2.33868 -4.67015 0
M  V30 5850 H 542.485 -1.58343 -2.54102 0
M  V30 5851 H 540.031 -0.76279 -1.22137 0
M  V30 5852 H 541.984 0.19266 -4.20959 0
M  V30 5853 H 540.708 0.848254 -3.15392 0
M  V30 5854 H 539.367 -1.26486 -3.44088 0
M  V30 5855 H 539.015 0.670684 -4.98509 0
M  V30 5856 H 538.715 -0.879638 -5.80979 0
M  V30 5857 H 540.239 0.00448788 -6.106 0
M  V30 5858 H 541.653 -2.1279 -5.32347 0
M  V30 5859 H 540.05 -2.91522 -5.24533 0
M  V30 5860 H 541.12 -2.97019 -3.83286 0
M  V30 5861 N 542.463 1.3308 -0.844243 0
M  V30 5862 C 543.41 2.29104 -0.279323 0
M  V30 5863 C 544.38 1.54577 0.607882 0
M  V30 5864 O 545.565 1.8285 0.545009 0
M  V30 5865 C 542.705 3.40927 0.53508 0
M  V30 5866 C 541.818 4.30354 -0.376749 0
M  V30 5867 C 540.953 5.29297 0.449276 0
M  V30 5868 C 539.992 6.10365 -0.460606 0
M  V30 5869 N 539.129 7.01335 0.327612 0
M  V30 5870 H 543.969 2.76817 -1.10346 0
M  V30 5871 H 541.506 1.36203 -0.555611 0
M  V30 5872 H 543.464 4.04469 1.02278 0
M  V30 5873 H 542.094 2.94391 1.32414 0
M  V30 5874 H 541.146 3.67485 -0.982791 0
M  V30 5875 H 542.458 4.87067 -1.07549 0
M  V30 5876 H 541.612 5.98392 1.00058 0
M  V30 5877 H 540.351 4.73174 1.18143 0
M  V30 5878 H 539.356 5.40182 -1.02388 0
M  V30 5879 H 540.581 6.68571 -1.1912 0
M  V30 5880 H 538.527 6.47655 1.04305 0
M  V30 5881 H 538.444 7.55355 -0.3123 0
M  V30 5882 H 539.712 7.74731 0.86098 0
M  V30 5883 N 543.941 0.601185 1.45683 0
M  V30 5884 C 544.871 -0.108824 2.33246 0
M  V30 5885 C 545.852 -0.865223 1.46451 0
M  V30 5886 O 547.037 -0.83704 1.75235 0
M  V30 5887 C 544.167 -1.11101 3.2905 0
M  V30 5888 C 543.121 -0.468244 4.25431 0
M  V30 5889 C 542.447 -1.57822 5.10878 0
M  V30 5890 C 543.747 0.606469 5.18767 0
M  V30 5891 H 545.441 0.622306 2.92861 0
M  V30 5892 H 542.987 0.300714 1.40825 0
M  V30 5893 H 544.94 -1.61622 3.89174 0
M  V30 5894 H 543.664 -1.87265 2.67581 0
M  V30 5895 H 542.323 0.0160484 3.66596 0
M  V30 5896 H 541.971 -2.32998 4.45781 0
M  V30 5897 H 541.671 -1.15369 5.76163 0
M  V30 5898 H 543.195 -2.08583 5.73869 0
M  V30 5899 H 544.609 0.185589 5.73 0
M  V30 5900 H 543.006 0.952381 5.92494 0
M  V30 5901 H 544.076 1.48559 4.61582 0
M  V30 5902 N 545.419 -1.53889 0.339982 0
M  V30 5903 C 546.659 -2.02765 -0.258011 0
M  V30 5904 C 547.023 -1.22249 -1.48051 0
M  V30 5905 O 548.224 -1.61007 -2.15245 0
M  V30 5906 C 546.495 -3.5286 -0.567872 0
M  V30 5907 S 548.054 -4.23647 -1.14318 0
M  V30 5908 H 544.872 -0.706814 -0.0770389 0
M  V30 5909 H 547.474 -1.89594 0.476917 0
M  V30 5910 H 546.178 -4.09073 0.329745 0
M  V30 5911 H 545.709 -3.70144 -1.33256 0
M  V30 5912 H 547.724 -4.32676 -2.42911 0
M  V30 5913 N 546.897 -0.0685191 -1.57451 0
M  V30 5914 C 547.844 0.899861 -2.12535 0
M  V30 5915 C 548.814 1.29749 -1.03703 0
M  V30 5916 O 549.999 1.38392 -1.31348 0
M  V30 5917 C 547.139 2.16328 -2.6888 0
M  V30 5918 C 546.252 1.81857 -3.91857 0
M  V30 5919 C 545.387 3.02786 -4.36457 0
M  V30 5920 C 544.426 2.64317 -5.5209 0
M  V30 5921 N 543.563 3.77994 -5.91663 0
M  V30 5922 H 548.403 0.423243 -2.94979 0
M  V30 5923 H 545.94 0.197268 -1.45771 0
M  V30 5924 H 547.898 2.90281 -2.99655 0
M  V30 5925 H 546.528 2.61536 -1.89206 0
M  V30 5926 H 545.58 0.979808 -3.67565 0
M  V30 5927 H 546.892 1.49553 -4.75852 0
M  V30 5928 H 546.046 3.85021 -4.68875 0
M  V30 5929 H 544.785 3.38281 -3.51308 0
M  V30 5930 H 543.79 1.80503 -5.19325 0
M  V30 5931 H 545.015 2.29995 -6.38967 0
M  V30 5932 H 542.961 4.13258 -5.09464 0
M  V30 5933 H 542.878 3.49447 -6.7039 0
M  V30 5934 H 544.146 4.60818 -6.28703 0
M  V30 5935 N 548.375 1.56261 0.205012 0
M  V30 5936 C 549.322 1.93754 1.25411 0
M  V30 5937 C 550.292 0.796826 1.45739 0
M  V30 5938 O 551.477 1.05414 1.59036 0
M  V30 5939 C 548.617 2.27383 2.59598 0
M  V30 5940 C 547.73 3.5447 2.46931 0
M  V30 5941 C 546.865 3.77468 3.73753 0
M  V30 5942 C 545.904 4.98014 3.55877 0
M  V30 5943 N 545.041 5.17316 4.74688 0
M  V30 5944 H 549.881 2.83203 0.92737 0
M  V30 5945 H 547.418 1.40158 0.446574 0
M  V30 5946 H 549.376 2.44895 3.37761 0
M  V30 5947 H 548.006 1.41088 2.90335 0
M  V30 5948 H 547.058 3.45061 1.60116 0
M  V30 5949 H 548.37 4.42789 2.29651 0
M  V30 5950 H 547.524 3.95165 4.60358 0
M  V30 5951 H 546.263 2.87461 3.93976 0
M  V30 5952 H 545.268 4.80249 2.67657 0
M  V30 5953 H 546.493 5.8952 3.37109 0
M  V30 5954 H 544.439 4.30255 4.95194 0
M  V30 5955 H 544.356 5.99796 4.60197 0
M  V30 5956 H 545.624 5.39463 5.62672 0
M  V30 5957 N 549.853 -0.472356 1.50355 0
M  V30 5958 C 551.102 -1.2213 1.60522 0
M  V30 5959 C 551.415 -1.9312 0.310466 0
M  V30 5960 O 552.621 -2.69936 0.291029 0
M  V30 5961 C 551.077 -2.21909 2.83345 0
M  V30 5962 C 550.685 -1.56727 4.19691 0
M  V30 5963 C 552.429 -2.97453 3.02856 0
M  V30 5964 C 550.336 -2.54785 5.33703 0
M  V30 5965 H 549.266 -0.459543 0.597776 0
M  V30 5966 H 551.917 -0.491922 1.76783 0
M  V30 5967 H 550.299 -2.98133 2.60639 0
M  V30 5968 H 551.473 -0.863007 4.52646 0
M  V30 5969 H 549.788 -0.934685 4.05774 0
M  V30 5970 H 552.385 -3.70838 3.85205 0
M  V30 5971 H 552.728 -3.56764 2.14534 0
M  V30 5972 H 553.261 -2.28342 3.25737 0
M  V30 5973 H 550 -2.00214 6.24175 0
M  V30 5974 H 549.52 -3.23367 5.05167 0
M  V30 5975 H 551.199 -3.16639 5.64224 0
M  V30 5976 N 551.331 -1.39911 -0.725443 0
M  V30 5977 C 552.241 -1.41688 -1.8698 0
M  V30 5978 C 553.257 -0.310579 -1.71206 0
M  V30 5979 O 554.433 -0.55359 -1.93642 0
M  V30 5980 C 551.498 -1.26811 -3.22676 0
M  V30 5981 C 550.559 -2.47497 -3.50776 0
M  V30 5982 C 549.792 -2.3332 -4.79997 0
M  V30 5983 O 550.015 -1.34175 -5.54394 0
M  V30 5984 O 548.949 -3.22498 -5.08211 0
M  V30 5985 H 552.775 -2.38171 -1.88436 0
M  V30 5986 H 550.36 -1.21128 -0.874548 0
M  V30 5987 H 552.242 -1.20684 -4.03749 0
M  V30 5988 H 550.917 -0.334289 -3.21969 0
M  V30 5989 H 549.824 -2.59201 -2.69751 0
M  V30 5990 H 551.157 -3.39606 -3.5627 0
M  V30 5991 N 552.809 0.956637 -1.25245 0
M  V30 5992 C 554.039 1.7332 -1.12445 0
M  V30 5993 C 554.447 1.86392 0.324732 0
M  V30 5994 O 553.79 1.35967 1.23526 0
M  V30 5995 C 553.852 3.16603 -1.70303 0
M  V30 5996 C 553.516 3.26966 -3.19284 0
M  V30 5997 C 554.513 3.11434 -4.16299 0
M  V30 5998 C 552.198 3.50851 -3.59456 0
M  V30 5999 C 554.192 3.1963 -5.51467 0
M  V30 6000 C 551.879 3.58684 -4.94761 0
M  V30 6001 C 552.877 3.43087 -5.90576 0
M  V30 6002 O 552.565 3.50598 -7.2342 0
M  V30 6003 H 552.297 0.549981 -0.393061 0
M  V30 6004 H 554.851 1.20892 -1.66055 0
M  V30 6005 H 553.081 3.70385 -1.11138 0
M  V30 6006 H 554.77 3.76109 -1.52632 0
M  V30 6007 H 555.536 2.92853 -3.86604 0
M  V30 6008 H 551.415 3.62053 -2.85375 0
M  V30 6009 H 554.959 3.07373 -6.26233 0
M  V30 6010 H 550.856 3.76782 -5.24124 0
M  V30 6011 H 551.624 3.67242 -7.31489 0
M  V30 6012 N 554.287 1.06798 1.15896 0
M  V30 6013 C 555.197 0.694564 2.24083 0
M  V30 6014 C 556.213 -0.291687 1.71538 0
M  V30 6015 O 557.389 -0.139723 2.00915 0
M  V30 6016 C 554.454 0.0921014 3.46578 0
M  V30 6017 C 553.515 1.13087 4.14137 0
M  V30 6018 C 552.748 0.557064 5.30785 0
M  V30 6019 O 552.971 -0.628623 5.66925 0
M  V30 6020 O 551.905 1.29924 5.8771 0
M  V30 6021 H 555.731 1.59663 2.58344 0
M  V30 6022 H 553.316 0.840575 1.2351 0
M  V30 6023 H 555.198 -0.241884 4.20705 0
M  V30 6024 H 553.873 -0.78337 3.14078 0
M  V30 6025 H 552.78 1.51712 3.41957 0
M  V30 6026 H 554.113 1.97805 4.50704 0
M  V30 6027 N 555.766 -1.3263 0.851289 0
M  V30 6028 C 556.676 -2.32722 0.296268 0
M  V30 6029 C 557.692 -1.63901 -0.584162 0
M  V30 6030 O 558.868 -1.95465 -0.485334 0
M  V30 6031 C 555.933 -3.42942 -0.509103 0
M  V30 6032 C 554.994 -4.2746 0.397069 0
M  V30 6033 C 554.227 -5.32416 -0.36996 0
M  V30 6034 O 554.45 -5.47491 -1.6003 0
M  V30 6035 O 553.384 -6.01327 0.262493 0
M  V30 6036 H 557.21 -2.82078 1.12543 0
M  V30 6037 H 554.795 -1.36194 0.614135 0
M  V30 6038 H 556.677 -4.1017 -0.96634 0
M  V30 6039 H 555.352 -2.95781 -1.31512 0
M  V30 6040 H 554.259 -3.63053 0.902411 0
M  V30 6041 H 555.592 -4.78136 1.16818 0
M  V30 6042 N 557.244 -0.608902 -1.45362 0
M  V30 6043 C 558.174 0.0964526 -2.33301 0
M  V30 6044 C 559.155 0.857444 -1.46908 0
M  V30 6045 O 560.34 0.827735 -1.75676 0
M  V30 6046 C 557.47 1.09354 -3.29635 0
M  V30 6047 C 556.424 0.445676 -4.25673 0
M  V30 6048 C 555.75 1.5511 -5.11708 0
M  V30 6049 C 557.05 -0.633972 -5.18438 0
M  V30 6050 H 558.744 -0.637829 -2.92527 0
M  V30 6051 H 556.29 -0.308178 -1.40664 0
M  V30 6052 H 558.243 1.59556 -3.90025 0
M  V30 6053 H 556.967 1.85843 -2.6857 0
M  V30 6054 H 555.626 -0.0354897 -3.66583 0
M  V30 6055 H 555.274 2.30631 -4.4701 0
M  V30 6056 H 554.974 1.12311 -5.76767 0
M  V30 6057 H 556.498 2.05537 -5.74967 0
M  V30 6058 H 557.912 -0.215974 -5.72893 0
M  V30 6059 H 556.309 -0.983789 -5.91981 0
M  V30 6060 H 557.379 -1.51005 -4.60788 0
M  V30 6061 N 558.722 1.53707 -0.348139 0
M  V30 6062 C 559.654 2.22725 0.540946 0
M  V30 6063 C 560.667 1.2354 1.06027 0
M  V30 6064 O 561.856 1.49867 0.96964 0
M  V30 6065 C 558.956 2.89756 1.75768 0
M  V30 6066 C 558.129 4.15297 1.37285 0
M  V30 6067 C 557.188 4.65697 2.44976 0
M  V30 6068 O 556.214 5.29798 2.08092 0
M  V30 6069 N 557.416 4.42017 3.763 0
M  V30 6070 H 560.181 2.99658 -0.0501592 0
M  V30 6071 H 557.742 1.60979 -0.17248 0
M  V30 6072 H 559.734 3.20388 2.47252 0
M  V30 6073 H 558.304 2.16382 2.25605 0
M  V30 6074 H 557.524 3.9116 0.488584 0
M  V30 6075 H 558.812 4.96948 1.09179 0
M  V30 6076 H 558.21 3.9076 4.09051 0
M  V30 6077 H 556.767 4.77242 4.4394 0
M  V30 6078 N 560.2 0.0768682 1.57412 0
M  V30 6079 C 561.616 -0.279772 1.57129 0
M  V30 6080 C 561.816 -1.69688 1.08666 0
M  V30 6081 O 560.872 -2.40953 0.754843 0
M  V30 6082 C 562.185 -0.0848055 3.0058 0
M  V30 6083 C 563.733 -0.153954 3.12621 0
M  V30 6084 C 564.208 0.0127946 4.57998 0
M  V30 6085 N 565.699 -0.0426435 4.6318 0
M  V30 6086 C 566.434 0.0618892 5.73367 0
M  V30 6087 N 565.93 0.220229 6.9245 0
M  V30 6088 N 567.723 0.00446072 5.621 0
M  V30 6089 H 559.874 1.00297 1.87228 0
M  V30 6090 H 562.137 0.391565 0.863354 0
M  V30 6091 H 561.843 0.89325 3.40168 0
M  V30 6092 H 561.717 -0.834961 3.67843 0
M  V30 6093 H 564.104 -1.1225 2.72917 0
M  V30 6094 H 564.185 0.627389 2.47987 0
M  V30 6095 H 563.829 0.978128 4.98392 0
M  V30 6096 H 563.759 -0.788016 5.20671 0
M  V30 6097 H 566.25 -0.163226 3.77547 0
M  V30 6098 H 566.563 0.291999 7.72248 0
M  V30 6099 H 564.908 0.255658 6.9453 0
M  V30 6100 H 568.099 -0.117979 4.67951 0
M  V30 6101 H 568.272 0.0893796 6.47938 0
M  V30 6102 N 561.678 -1.56367 -0.196722 0
M  V30 6103 C 562.924 -1.80796 -0.918725 0
M  V30 6104 C 563.257 -0.650645 -1.82976 0
M  V30 6105 O 562.532 0.348889 -1.91345 0
M  V30 6106 C 562.815 -3.15472 -1.73636 0
M  V30 6107 C 562.668 -4.41693 -0.85015 0
M  V30 6108 C 563.987 -3.46824 -2.70927 0
M  V30 6109 H 561.106 -0.657702 -0.332561 0
M  V30 6110 H 563.748 -1.89086 -0.186186 0
M  V30 6111 H 561.898 -3.08536 -2.36088 0
M  V30 6112 H 563.57 -4.60673 -0.240459 0
M  V30 6113 H 561.813 -4.33517 -0.156785 0
M  V30 6114 H 562.484 -5.32419 -1.45719 0
M  V30 6115 H 564.96 -3.54049 -2.18607 0
M  V30 6116 H 563.836 -4.4218 -3.25219 0
M  V30 6117 H 564.097 -2.70236 -3.49893 0
M  V30 6118 N 563.156 0.464375 -1.50603 0
M  V30 6119 C 564.103 1.56152 -1.69956 0
M  V30 6120 C 565.073 1.57046 -0.54091 0
M  V30 6121 O 566.258 1.74473 -0.772258 0
M  V30 6122 C 563.398 2.94079 -1.80586 0
M  V30 6123 C 562.511 3.02923 -3.07996 0
M  V30 6124 C 561.646 4.31806 -3.09382 0
M  V30 6125 C 560.685 4.34417 -4.31218 0
M  V30 6126 N 559.822 5.54782 -4.30304 0
M  V30 6127 H 564.662 1.38955 -2.6362 0
M  V30 6128 H 562.199 0.675482 -1.30674 0
M  V30 6129 H 564.157 3.74073 -1.8473 0
M  V30 6130 H 562.787 3.09896 -0.903556 0
M  V30 6131 H 561.839 2.1576 -3.13292 0
M  V30 6132 H 563.151 3.00712 -3.97962 0
M  V30 6133 H 562.305 5.20153 -3.12292 0
M  V30 6134 H 561.044 4.36636 -2.17257 0
M  V30 6135 H 560.049 3.44467 -4.28512 0
M  V30 6136 H 561.274 4.31273 -5.24576 0
M  V30 6137 H 559.22 5.60384 -3.41037 0
M  V30 6138 H 559.137 5.54339 -5.14047 0
M  V30 6139 H 560.405 6.45235 -4.3737 0
M  V30 6140 N 564.634 1.40294 0.718013 0
M  V30 6141 C 565.584 1.36847 1.82365 0
M  V30 6142 C 566.568 0.246424 1.59002 0
M  V30 6143 O 567.76 0.485336 1.70216 0
M  V30 6144 C 564.889 1.23105 3.20469 0
M  V30 6145 C 563.975 2.4008 3.49603 0
M  V30 6146 N 564.366 3.65562 3.49568 0
M  V30 6147 C 562.664 2.33407 3.80049 0
M  V30 6148 C 563.365 4.43015 3.76978 0
M  V30 6149 N 562.341 3.72823 3.95606 0
M  V30 6150 H 566.143 2.31811 1.80668 0
M  V30 6151 H 563.657 1.34031 0.91703 0
M  V30 6152 H 565.654 1.18718 3.9964 0
M  V30 6153 H 564.314 0.291056 3.23393 0
M  V30 6154 H 565.325 3.98756 3.30476 0
M  V30 6155 H 562.002 1.47762 3.90478 0
M  V30 6156 H 563.392 5.51859 3.83276 0
M  V30 6157 N 566.112 -0.949982 1.2575 0
M  V30 6158 C 567.359 -1.69515 1.10774 0
M  V30 6159 C 567.687 -1.91316 -0.350479 0
M  V30 6160 O 566.942 -1.48515 -1.27443 0
M  V30 6161 C 567.241 -3.08039 1.81237 0
M  V30 6162 C 566.907 -3.06023 3.31151 0
M  V30 6163 C 565.569 -3.0518 3.72047 0
M  V30 6164 C 567.921 -2.98998 4.26907 0
M  V30 6165 C 565.249 -2.95067 5.07102 0
M  V30 6166 C 567.601 -2.90426 5.61992 0
M  V30 6167 C 566.265 -2.87922 6.0221 0
M  V30 6168 H 565.535 -0.6203 0.405351 0
M  V30 6169 H 568.182 -1.10953 1.56082 0
M  V30 6170 H 566.487 -3.70172 1.28373 0
M  V30 6171 H 568.184 -3.64526 1.67098 0
M  V30 6172 H 564.774 -3.07453 2.98614 0
M  V30 6173 H 568.958 -2.98764 3.963 0
M  V30 6174 H 564.214 -2.915 5.37436 0
M  V30 6175 H 568.388 -2.83952 6.35881 0
M  V30 6176 H 566.015 -2.79841 7.06819 0
M  V30 6177 N 567.59 -1.07411 -1.15328 0
M  V30 6178 C 568.867 -0.710732 -1.82231 0
M  V30 6179 C 569.247 0.806732 -1.95077 0
M  V30 6180 O 568.595 1.72139 -1.50268 0
M  V30 6181 C 568.805 -1.42586 -3.18544 0
M  V30 6182 C 570.153 -1.57836 -3.94174 0
M  V30 6183 O 571.177 -1.38669 -3.281 0
M  V30 6184 O 570.036 -1.8938 -5.12638 0
M  V30 6185 H 567.13 -0.25297 -0.78736 0
M  V30 6186 H 569.676 -1.17508 -1.22434 0
M  V30 6187 H 568.448 -2.46008 -3.04296 0
M  V30 6188 H 568.071 -0.952332 -3.86026 0
M  V30 6189 N 569.068 1.32177 -0.85831 0
M  V30 6190 C 570.016 2.30729 -0.294442 0
M  V30 6191 C 571.01 1.59009 0.584165 0
M  V30 6192 O 572.216 1.73713 0.471562 0
M  V30 6193 H 568.591 0.748097 -0.0765171 0
M  V30 6194 H 570.562 2.75774 -1.1398 0
M  V30 6195 C 569.311 3.44098 0.499208 0
M  V30 6196 H 568.634 3.99449 -0.167579 0
M  V30 6197 H 570.074 4.15202 0.859273 0
M  V30 6198 C 568.533 2.91684 1.68588 0
M  V30 6199 O 569.063 2.89481 2.78503 0
M  V30 6200 N 567.269 2.48036 1.51415 0
M  V30 6201 H 566.816 2.50027 0.620006 0
M  V30 6202 H 566.774 2.13322 2.30957 0
M  V30 6203 N 570.547 0.616602 1.45037 0
M  V30 6204 C 571.795 0.115103 2.01772 0
M  V30 6205 C 572.116 -1.2622 1.48639 0
M  V30 6206 O 571.386 -1.83563 0.684199 0
M  V30 6207 H 569.966 0.0395607 0.745952 0
M  V30 6208 H 572.628 0.800032 1.77723 0
M  V30 6209 H 571.724 0.0717274 3.12018 0
M  V30 6210 N 572.025 -1.5352 0.356285 0
M  V30 6211 C 573.436 -1.86282 -0.12492 0
M  V30 6212 C 573.787 -1.27717 -1.48939 0
M  V30 6213 O 572.912 -0.595614 -2.08042 0
M  V30 6214 C 573.507 -3.37995 -0.23345 0
M  V30 6215 C 572.066 -3.70588 -0.658899 0
M  V30 6216 C 571.213 -2.76581 0.199596 0
M  V30 6217 H 574.164 -1.47901 0.575423 0
M  V30 6218 H 574.185 -3.65475 -1.0587 0
M  V30 6219 H 573.697 -3.8059 0.759776 0
M  V30 6220 H 571.798 -3.33544 -1.66069 0
M  V30 6221 H 571.911 -4.77076 -0.439957 0
M  V30 6222 H 570.275 -2.52552 -0.330076 0
M  V30 6223 H 571.058 -3.22008 1.19019 0
M  V30 6224 N 573.503 -0.0852151 -1.57369 0
M  V30 6225 C 574.919 0.271436 -1.57275 0
M  V30 6226 C 575.119 1.69109 -1.09565 0
M  V30 6227 O 574.175 2.40549 -0.767611 0
M  V30 6228 C 575.488 0.0688638 -3.00621 0
M  V30 6229 C 577.036 0.137373 -3.12698 0
M  V30 6230 C 577.511 -0.0370832 -4.57985 0
M  V30 6231 N 579.002 0.0180794 -4.63196 0
M  V30 6232 C 579.737 -0.0922953 -5.73326 0
M  V30 6233 N 579.233 -0.256948 -6.92323 0
M  V30 6234 N 581.026 -0.0342702 -5.6209 0
M  V30 6235 H 573.177 -1.01288 -1.86693 0
M  V30 6236 H 575.44 -0.396138 -0.861266 0
M  V30 6237 H 575.146 -0.911277 -3.39689 0
M  V30 6238 H 575.02 0.815442 -3.6828 0
M  V30 6239 H 577.407 1.10801 -2.73509 0
M  V30 6240 H 577.488 -0.640532 -2.47651 0
M  V30 6241 H 577.132 -1.00455 -4.97867 0
M  V30 6242 H 577.062 0.760392 -5.21081 0
M  V30 6243 H 579.553 0.143202 -3.77629 0
M  V30 6244 H 579.866 -0.332949 -7.72082 0
M  V30 6245 H 578.211 -0.292487 -6.94384 0
M  V30 6246 H 581.402 0.0931605 -4.68007 0
M  V30 6247 H 581.575 -0.12374 -6.47882 0
M  V30 6248 N 574.981 1.5647 0.188427 0
M  V30 6249 C 576.209 1.85131 0.923803 0
M  V30 6250 C 576.624 0.668537 1.76567 0
M  V30 6251 O 575.981 -0.362662 1.7886 0
M  V30 6252 C 576.032 3.12661 1.81453 0
M  V30 6253 O 575.753 4.26378 1.00665 0
M  V30 6254 C 577.254 3.54548 2.66103 0
M  V30 6255 H 574.474 0.614624 0.269218 0
M  V30 6256 H 577.018 2.03581 0.193671 0
M  V30 6257 H 575.173 2.96088 2.49821 0
M  V30 6258 H 575.587 4.99041 1.61425 0
M  V30 6259 H 577.061 4.4673 3.24247 0
M  V30 6260 H 577.538 2.77853 3.40139 0
M  V30 6261 H 578.144 3.73674 2.03096 0
M  V30 6262 N 576.459 -0.456382 1.50847 0
M  V30 6263 C 577.708 -1.2042 1.61808 0
M  V30 6264 C 578.021 -1.9278 0.330932 0
M  V30 6265 O 579.227 -2.69612 0.319643 0
M  V30 6266 C 577.683 -2.18891 2.85683 0
M  V30 6267 C 577.291 -1.52267 4.2133 0
M  V30 6268 C 579.035 -2.94224 3.05994 0
M  V30 6269 C 576.942 -2.4911 5.36375 0
M  V30 6270 H 575.872 -0.453177 0.602616 0
M  V30 6271 H 578.523 -0.473144 1.77295 0
M  V30 6272 H 576.905 -2.95351 2.63787 0
M  V30 6273 H 578.079 -0.814949 4.53536 0
M  V30 6274 H 576.394 -0.891594 4.06743 0
M  V30 6275 H 578.991 -3.66732 3.89117 0
M  V30 6276 H 579.334 -3.54469 2.18306 0
M  V30 6277 H 579.867 -2.24874 3.28141 0
M  V30 6278 H 576.606 -1.93582 6.26264 0
M  V30 6279 H 576.126 -3.17991 5.08569 0
M  V30 6280 H 577.805 -3.10637 5.67551 0
M  V30 6281 N 577.937 -1.40673 -0.710563 0
M  V30 6282 C 579.214 -1.29718 -1.46398 0
M  V30 6283 C 579.594 0.082177 -2.1094 0
M  V30 6284 O 578.942 1.09536 -2.00534 0
M  V30 6285 C 579.152 -2.43967 -2.49562 0
M  V30 6286 C 580.5 -2.84436 -3.15248 0
M  V30 6287 O 581.524 -2.43597 -2.59883 0
M  V30 6288 O 580.383 -3.55008 -4.1549 0
M  V30 6289 H 577.477 -0.509697 -0.651258 0
M  V30 6290 H 580.023 -1.52603 -0.742312 0
M  V30 6291 H 578.795 -3.36076 -2.0042 0
M  V30 6292 H 578.418 -2.22879 -3.29258 0
M  V30 6293 N 579.415 0.9433 -1.26252 0
M  V30 6294 C 580.345 2.05902 -1.10122 0
M  V30 6295 C 581.326 1.70099 -0.00700552 0
M  V30 6296 O 582.511 1.93377 -0.178641 0
M  V30 6297 C 579.641 3.39516 -0.731175 0
M  V30 6298 C 578.595 3.89372 -1.77688 0
M  V30 6299 C 577.921 5.19613 -1.26122 0
M  V30 6300 C 579.221 4.14489 -3.17799 0
M  V30 6301 H 580.915 2.19655 -2.03451 0
M  V30 6302 H 578.461 1.05548 -0.979576 0
M  V30 6303 H 580.414 4.17031 -0.605215 0
M  V30 6304 H 579.138 3.25733 0.23782 0
M  V30 6305 H 577.797 3.14036 -1.89148 0
M  V30 6306 H 577.445 5.02208 -0.282128 0
M  V30 6307 H 577.145 5.53939 -1.96023 0
M  V30 6308 H 578.669 5.99713 -1.14789 0
M  V30 6309 H 580.083 4.82625 -3.09428 0
M  V30 6310 H 578.48 4.60094 -3.85271 0
M  V30 6311 H 579.55 3.20347 -3.64014 0
M  V30 6312 N 580.893 1.08022 1.14757 0
M  V30 6313 C 582.17 0.720386 1.81851 0
M  V30 6314 C 582.55 -0.796375 1.95502 0
M  V30 6315 O 581.898 -1.71339 1.51179 0
M  V30 6316 C 582.108 1.44273 3.17783 0
M  V30 6317 C 583.456 1.59925 3.93331 0
M  V30 6318 O 584.48 1.40407 3.2736 0
M  V30 6319 O 583.339 1.92096 5.11626 0
M  V30 6320 H 580.433 0.257142 0.786007 0
M  V30 6321 H 582.979 1.18155 1.21809 0
M  V30 6322 H 581.751 2.47618 3.02987 0
M  V30 6323 H 581.374 0.97279 3.85516 0
M  V30 6324 N 582.371 -1.3172 0.865308 0
M  V30 6325 C 583.62 -1.96145 0.470098 0
M  V30 6326 C 583.933 -1.69182 -0.981674 0
M  V30 6327 O 585.139 -2.27431 -1.48281 0
M  V30 6328 C 583.595 -3.51129 0.789732 0
M  V30 6329 C 583.203 -3.86938 2.25795 0
M  V30 6330 C 584.947 -4.2197 0.462765 0
M  V30 6331 C 582.854 -5.35012 2.52024 0
M  V30 6332 H 581.784 -0.734105 0.172065 0
M  V30 6333 H 584.435 -1.49959 1.05757 0
M  V30 6334 H 582.817 -3.95781 0.131571 0
M  V30 6335 H 583.991 -3.5326 2.95879 0
M  V30 6336 H 582.306 -3.29149 2.55049 0
M  V30 6337 H 584.903 -5.30904 0.636019 0
M  V30 6338 H 585.246 -4.12005 -0.59645 0
M  V30 6339 H 585.779 -3.82936 1.07727 0
M  V30 6340 H 582.518 -5.50008 3.56611 0
M  V30 6341 H 582.038 -5.70058 1.8653 0
M  V30 6342 H 583.717 -6.0222 2.36515 0
M  V30 6343 N 583.85 -0.624285 -1.44708 0
M  V30 6344 C 585.096 -0.126237 -2.02407 0
M  V30 6345 C 585.428 1.24618 -1.48943 0
M  V30 6346 O 584.704 1.82569 -0.670742 0
M  V30 6347 C 584.986 -0.105449 -3.59946 0
M  V30 6348 C 584.84 -1.50972 -4.23707 0
M  V30 6349 C 586.159 0.573629 -4.36346 0
M  V30 6350 H 583.278 -0.0473472 -0.735478 0
M  V30 6351 H 585.92 -0.799452 -1.72362 0
M  V30 6352 H 584.07 0.46783 -3.85673 0
M  V30 6353 H 585.742 -2.13136 -4.0911 0
M  V30 6354 H 583.985 -2.0656 -3.81465 0
M  V30 6355 H 584.656 -1.44727 -5.32689 0
M  V30 6356 H 587.132 0.0861787 -4.16011 0
M  V30 6357 H 586.008 0.557338 -5.46063 0
M  V30 6358 H 586.269 1.64276 -4.10446 0
M  V30 6359 N 585.328 1.53329 -0.364422 0
M  V30 6360 C 586.261 2.22052 0.526145 0
M  V30 6361 C 587.239 1.21203 1.08391 0
M  V30 6362 O 588.423 1.50101 1.14026 0
M  V30 6363 C 585.55 2.91432 1.72583 0
M  V30 6364 C 584.596 4.06345 1.29562 0
M  V30 6365 S 585.429 5.34671 0.297885 0
M  V30 6366 C 586.585 6.07563 1.50392 0
M  V30 6367 H 586.818 2.97244 -0.0575055 0
M  V30 6368 H 584.351 1.53684 -0.148525 0
M  V30 6369 H 586.309 3.3202 2.41398 0
M  V30 6370 H 584.97 2.15966 2.28073 0
M  V30 6371 H 584.163 4.53901 2.19067 0
M  V30 6372 H 583.765 3.67642 0.686696 0
M  V30 6373 H 586.057 6.32224 2.43513 0
M  V30 6374 H 587 6.99973 1.06977 0
M  V30 6375 H 587.408 5.37994 1.70945 0
M  V30 6376 N 586.806 0.0935595 1.57322 0
M  V30 6377 C 588.053 -0.570509 1.94297 0
M  V30 6378 C 588.381 -1.68286 0.97519 0
M  V30 6379 O 587.636 -1.95699 -0.00548655 0
M  V30 6380 C 587.935 -1.16692 3.37813 0
M  V30 6381 C 587.601 -0.178509 4.50547 0
M  V30 6382 C 586.263 0.0933475 4.81109 0
M  V30 6383 C 588.615 0.496472 5.1883 0
M  V30 6384 C 585.943 1.0469 5.77284 0
M  V30 6385 C 588.295 1.43849 6.16028 0
M  V30 6386 C 586.959 1.71859 6.44997 0
M  V30 6387 H 586.229 -0.208764 0.710984 0
M  V30 6388 H 588.876 0.169066 1.90752 0
M  V30 6389 H 587.181 -1.98271 3.37929 0
M  V30 6390 H 588.878 -1.6884 3.63722 0
M  V30 6391 H 585.468 -0.400584 4.26724 0
M  V30 6392 H 589.652 0.299584 4.95395 0
M  V30 6393 H 584.908 1.27094 5.98044 0
M  V30 6394 H 589.082 1.96734 6.68034 0
M  V30 6395 H 586.709 2.45906 7.19329 0
M  V30 6396 N 588.284 -1.56567 -0.180126 0
M  V30 6397 C 589.214 -1.98753 -1.22553 0
M  V30 6398 C 590.195 -0.86175 -1.46656 0
M  V30 6399 O 591.38 -1.12719 -1.58139 0
M  V30 6400 C 588.51 -2.33988 -2.56645 0
M  V30 6401 C 587.464 -3.49445 -2.47128 0
M  V30 6402 C 586.79 -3.70397 -3.8563 0
M  V30 6403 C 588.09 -4.83171 -1.98352 0
M  V30 6404 H 589.784 -2.86332 -0.874896 0
M  V30 6405 H 587.33 -1.37757 -0.419414 0
M  V30 6406 H 589.283 -2.62097 -3.29974 0
M  V30 6407 H 588.007 -1.43309 -2.93479 0
M  V30 6408 H 586.666 -3.2145 -1.76254 0
M  V30 6409 H 586.314 -2.77023 -4.19842 0
M  V30 6410 H 586.014 -4.48077 -3.80132 0
M  V30 6411 H 587.538 -4.00897 -4.60558 0
M  V30 6412 H 588.952 -5.10213 -2.61449 0
M  V30 6413 H 587.349 -5.64425 -2.03823 0
M  V30 6414 H 588.419 -4.75753 -0.937402 0
M  V30 6415 N 589.762 0.448376 -1.51087 0
M  V30 6416 C 590.71 1.56407 -1.72161 0
M  V30 6417 C 591.704 1.58878 -0.587721 0
M  V30 6418 O 592.91 1.62755 -0.768822 0
M  V30 6419 H 589.285 0.519423 -0.543786 0
M  V30 6420 H 591.256 1.35803 -2.65707 0
M  V30 6421 C 590.005 2.94163 -1.85373 0
M  V30 6422 H 589.328 2.9299 -2.72024 0
M  V30 6423 H 590.768 3.71625 -2.04135 0
M  V30 6424 C 589.227 3.31317 -0.610803 0
M  V30 6425 O 589.757 4.00985 0.239636 0
M  V30 6426 N 587.963 2.86966 -0.458127 0
M  V30 6427 H 587.51 2.30443 -1.15124 0
M  V30 6428 H 587.468 3.12188 0.372289 0
M  V30 6429 N 591.24 1.41047 0.703093 0
M  V30 6430 C 592.465 1.43537 1.49706 0
M  V30 6431 C 592.89 0.0401853 1.88057 0
M  V30 6432 O 592.248 -0.954785 1.54122 0
M  V30 6433 C 592.296 2.3433 2.74084 0
M  V30 6434 O 591.4 1.79515 3.71279 0
M  V30 6435 H 590.741 0.487454 0.450871 0
M  V30 6436 H 593.271 1.85422 0.86486 0
M  V30 6437 H 593.281 2.49947 3.22476 0
M  V30 6438 H 591.956 3.35708 2.45506 0
M  V30 6439 H 590.533 1.7331 3.30179 0
M  V30 6440 N 592.718 -0.936591 1.26751 0
M  V30 6441 C 593.681 -2.01752 1.08761 0
M  V30 6442 C 594.681 -1.60763 0.0344435 0
M  V30 6443 O 595.871 -1.71963 0.278258 0
M  V30 6444 C 593.003 -3.34543 0.655271 0
M  V30 6445 H 594.196 -2.19143 2.04735 0
M  V30 6446 H 591.749 -1.11618 1.09413 0
M  V30 6447 H 592.484 -3.22851 -0.30626 0
M  V30 6448 H 592.269 -3.65647 1.41578 0
M  V30 6449 H 593.759 -4.13944 0.551378 0
M  V30 6450 N 594.196 -1.08629 -1.14182 0
M  V30 6451 C 595.444 -0.815731 -1.84906 0
M  V30 6452 C 595.765 0.660441 -1.83475 0
M  V30 6453 O 595.035 1.47888 -1.28476 0
M  V30 6454 H 593.615 -0.298773 -0.684648 0
M  V30 6455 H 596.277 -1.37274 -1.38354 0
M  V30 6456 H 595.373 -1.16193 -2.89665 0
M  V30 6457 N 595.674 1.31259 -0.872281 0
M  V30 6458 C 596.584 2.32221 -0.333255 0
M  V30 6459 C 597.6 1.6481 0.558013 0
M  V30 6460 O 598.776 1.96212 0.454175 0
M  V30 6461 C 595.841 3.43708 0.454479 0
M  V30 6462 C 594.902 4.26774 -0.465024 0
M  V30 6463 C 594.135 5.32937 0.28521 0
M  V30 6464 O 594.358 5.49968 1.513 0
M  V30 6465 O 593.292 6.00834 -0.358126 0
M  V30 6466 H 597.118 2.80252 -1.17016 0
M  V30 6467 H 594.703 1.352 -0.635724 0
M  V30 6468 H 596.585 4.11656 0.900963 0
M  V30 6469 H 595.26 2.97836 1.26789 0
M  V30 6470 H 594.167 3.61571 -0.960055 0
M  V30 6471 H 595.5 4.76217 -1.2441 0
M  V30 6472 N 597.152 0.631951 1.44375 0
M  V30 6473 C 598.429 0.067646 1.95483 0
M  V30 6474 C 598.809 -1.40683 1.57389 0
M  V30 6475 O 598.157 -2.12167 0.848375 0
M  V30 6476 C 598.367 0.291392 3.47781 0
M  V30 6477 C 599.715 0.185028 4.24197 0
M  V30 6478 O 600.739 0.222803 3.55503 0
M  V30 6479 O 599.598 0.0906642 5.46425 0
M  V30 6480 H 596.692 -0.0218379 0.826712 0
M  V30 6481 H 599.238 0.703711 1.54421 0
M  V30 6482 H 598.01 1.31449 3.68561 0
M  V30 6483 H 597.633 -0.378772 3.95792 0
M  V30 6484 N 598.631 -1.53133 0.372548 0
M  V30 6485 C 599.88 -2.00539 -0.216115 0
M  V30 6486 C 600.193 -1.26374 -1.49295 0
M  V30 6487 O 601.399 -1.64404 -2.16064 0
M  V30 6488 C 599.855 -3.57253 -0.435678 0
M  V30 6489 C 599.463 -4.40302 0.82693 0
M  V30 6490 C 601.207 -4.12995 -0.981618 0
M  V30 6491 C 599.114 -5.88583 0.576567 0
M  V30 6492 H 598.044 -0.749246 -0.084536 0
M  V30 6493 H 600.695 -1.76771 0.492364 0
M  V30 6494 H 599.077 -3.77202 -1.20559 0
M  V30 6495 H 600.251 -4.32124 1.60017 0
M  V30 6496 H 598.566 -3.95699 1.29659 0
M  V30 6497 H 601.163 -5.21418 -1.18436 0
M  V30 6498 H 601.506 -3.68027 -1.94581 0
M  V30 6499 H 602.039 -3.96871 -0.271696 0
M  V30 6500 H 598.778 -6.37841 1.51128 0
M  V30 6501 H 598.298 -5.99592 -0.158047 0
M  V30 6502 H 599.977 -6.46676 0.204722 0
M  V30 6503 N 600.109 -0.101901 -1.5727 0
M  V30 6504 C 601.358 0.559922 -1.93772 0
M  V30 6505 C 601.671 1.68913 -0.98629 0
M  V30 6506 O 602.877 2.41256 -1.24529 0
M  V30 6507 C 601.333 1.04739 -3.44322 0
M  V30 6508 C 600.941 -0.05243 -4.47969 0
M  V30 6509 C 602.685 1.68157 -3.89774 0
M  V30 6510 C 600.592 0.450781 -5.8968 0
M  V30 6511 H 599.522 0.212931 -0.723309 0
M  V30 6512 H 602.173 -0.179001 -1.82625 0
M  V30 6513 H 600.555 1.84021 -3.50645 0
M  V30 6514 H 601.729 -0.828157 -4.53297 0
M  V30 6515 H 600.044 -0.592202 -4.12167 0
M  V30 6516 H 602.641 2.0689 -4.93052 0
M  V30 6517 H 602.984 2.55338 -3.28798 0
M  V30 6518 H 603.517 0.954453 -3.8618 0
M  V30 6519 H 600.256 -0.38458 -6.54371 0
M  V30 6520 H 599.776 1.19336 -5.87809 0
M  V30 6521 H 601.455 0.917555 -6.40461 0
M  V30 6522 N 601.587 1.56661 0.17182 0
M  V30 6523 C 602.833 1.82235 0.889845 0
M  V30 6524 C 603.166 0.679673 1.81918 0
M  V30 6525 O 602.441 -0.318404 1.91876 0
M  V30 6526 C 602.724 3.18195 1.68595 0
M  V30 6527 C 602.577 4.42989 0.779773 0
M  V30 6528 C 603.896 3.5109 2.65375 0
M  V30 6529 H 601.015 0.66291 0.322056 0
M  V30 6530 H 603.657 1.89358 0.15608 0
M  V30 6531 H 601.807 3.12253 2.3115 0
M  V30 6532 H 603.479 4.60997 0.16714 0
M  V30 6533 H 601.722 4.33711 0.0877964 0
M  V30 6534 H 602.393 5.3467 1.3723 0
M  V30 6535 H 604.869 3.57482 2.12946 0
M  V30 6536 H 603.745 4.47298 3.18144 0
M  V30 6537 H 604.006 2.75768 3.45549 0
M  V30 6538 N 603.065 -0.440357 1.51323 0
M  V30 6539 C 604.013 -1.55492 1.72988 0
M  V30 6540 C 605.007 -1.58564 0.596138 0
M  V30 6541 O 606.213 -1.62345 0.777443 0
M  V30 6542 H 602.588 -0.516532 0.546533 0
M  V30 6543 H 604.559 -1.34392 2.66423 0
M  V30 6544 C 603.308 -2.93176 1.86931 0
M  V30 6545 H 602.631 -2.91543 2.73574 0
M  V30 6546 H 604.071 -3.70537 2.06103 0
M  V30 6547 C 602.53 -3.30988 0.628365 0
M  V30 6548 O 603.06 -4.01106 -0.218367 0
M  V30 6549 N 601.266 -2.86719 0.473339 0
M  V30 6550 H 600.813 -2.2983 1.16345 0
M  V30 6551 H 600.771 -3.12381 -0.355727 0
M  V30 6552 N 604.543 -1.41418 -0.695603 0
M  V30 6553 C 605.453 -1.45622 -1.83933 0
M  V30 6554 C 606.469 -0.346825 -1.70508 0
M  V30 6555 O 607.645 -0.59454 -1.92424 0
M  V30 6556 C 604.71 -1.33627 -3.19914 0
M  V30 6557 C 603.771 -2.54882 -3.45447 0
M  V30 6558 C 603.004 -2.43449 -4.7494 0
M  V30 6559 O 603.227 -1.45905 -5.51424 0
M  V30 6560 O 602.161 -3.33206 -5.01256 0
M  V30 6561 H 605.987 -2.42114 -1.83342 0
M  V30 6562 H 603.572 -1.22956 -0.848658 0
M  V30 6563 H 605.454 -1.29221 -4.01098 0
M  V30 6564 H 604.129 -0.402508 -3.21188 0
M  V30 6565 H 603.036 -2.64865 -2.64192 0
M  V30 6566 H 604.369 -3.47087 -3.48987 0
M  V30 6567 N 606.021 0.929856 -1.27246 0
M  V30 6568 C 607.432 1.49223 -1.12203 0
M  V30 6569 C 607.783 1.93989 0.293731 0
M  V30 6570 O 606.908 1.80978 1.18642 0
M  V30 6571 C 607.503 2.71198 -2.0307 0
M  V30 6572 C 606.062 3.23666 -1.92139 0
M  V30 6573 C 605.209 1.96409 -1.95752 0
M  V30 6574 H 608.16 0.744181 -1.4017 0
M  V30 6575 H 608.181 3.45905 -1.58524 0
M  V30 6576 H 607.693 2.38585 -3.06102 0
M  V30 6577 H 605.794 3.61042 -0.920834 0
M  V30 6578 H 605.907 3.90006 -2.78267 0
M  V30 6579 H 604.271 2.12806 -1.39949 0
M  V30 6580 H 605.054 1.66113 -3.00436 0
M  V30 6581 N 607.499 1.09233 1.13605 0
M  V30 6582 C 608.776 0.739633 1.81077 0
M  V30 6583 C 609.156 -0.775595 1.96336 0
M  V30 6584 O 608.504 -1.69726 1.52988 0
M  V30 6585 C 608.714 1.47636 3.16235 0
M  V30 6586 C 610.062 1.64087 3.91613 0
M  V30 6587 O 611.086 1.43871 3.25852 0
M  V30 6588 O 609.945 1.97511 5.0956 0
M  V30 6589 H 607.039 0.265464 0.783236 0
M  V30 6590 H 609.585 1.19441 1.20549 0
M  V30 6591 H 608.357 2.50818 3.00344 0
M  V30 6592 H 607.98 1.01362 3.84462 0
M  V30 6593 N 608.977 -1.30795 0.87923 0
M  V30 6594 C 609.907 -2.30742 0.357796 0
M  V30 6595 C 610.888 -1.60747 -0.556283 0
M  V30 6596 O 612.073 -1.88393 -0.47135 0
M  V30 6597 C 609.203 -3.44583 -0.433555 0
M  V30 6598 C 608.157 -4.26235 0.388251 0
M  V30 6599 C 607.483 -5.32073 -0.529352 0
M  V30 6600 C 608.783 -4.96303 1.62729 0
M  V30 6601 H 610.477 -2.74605 1.19299 0
M  V30 6602 H 608.023 -1.32017 0.575104 0
M  V30 6603 H 609.976 -4.13563 -0.808934 0
M  V30 6604 H 608.7 -2.99511 -1.30234 0
M  V30 6605 H 607.359 -3.58936 0.745695 0
M  V30 6606 H 607.007 -4.83249 -1.39569 0
M  V30 6607 H 606.707 -5.87598 0.0166741 0
M  V30 6608 H 608.231 -6.0391 -0.901373 0
M  V30 6609 H 609.645 -5.5783 1.32283 0
M  V30 6610 H 608.042 -5.61666 2.11309 0
M  V30 6611 H 609.112 -4.22758 2.37494 0
M  V30 6612 N 610.455 -0.639598 -1.44038 0
M  V30 6613 C 611.403 0.0723409 -2.32487 0
M  V30 6614 C 612.397 0.827129 -1.47834 0
M  V30 6615 O 613.603 0.73907 -1.64127 0
M  V30 6616 H 609.978 0.0421696 -0.750817 0
M  V30 6617 H 611.949 -0.691593 -2.90275 0
M  V30 6618 C 610.698 1.03452 -3.31953 0
M  V30 6619 H 610.021 0.46315 -3.97108 0
M  V30 6620 H 611.461 1.502 -3.96505 0
M  V30 6621 C 609.92 2.12392 -2.61518 0
M  V30 6622 O 610.45 3.2059 -2.42044 0
M  V30 6623 N 608.656 1.88563 -2.21116 0
M  V30 6624 H 608.203 1.00577 -2.37154 0
M  V30 6625 H 608.161 2.61651 -1.74316 0
M  V30 6626 N 611.933 1.52934 -0.380664 0
M  V30 6627 C 613.182 2.00651 0.205477 0
M  V30 6628 C 613.495 1.27164 1.48623 0
M  V30 6629 O 614.701 1.65547 2.15189 0
M  V30 6630 C 613.157 3.57479 0.416726 0
M  V30 6631 C 612.765 4.39857 -0.850268 0
M  V30 6632 C 614.509 4.13509 0.959702 0
M  V30 6633 C 612.416 5.88269 -0.607773 0
M  V30 6634 H 611.346 0.749684 0.0805614 0
M  V30 6635 H 613.997 1.76508 -0.501732 0
M  V30 6636 H 612.379 3.77836 1.18557 0
M  V30 6637 H 613.553 4.31269 -1.62307 0
M  V30 6638 H 611.868 3.95005 -1.31756 0
M  V30 6639 H 614.465 5.22039 1.15669 0
M  V30 6640 H 614.808 3.69054 1.92626 0
M  V30 6641 H 615.341 3.9701 0.250645 0
M  V30 6642 H 612.08 6.3703 -1.54509 0
M  V30 6643 H 611.6 5.99667 0.126247 0
M  V30 6644 H 613.279 6.46558 -0.239014 0
M  V30 6645 N 613.412 0.11024 1.57214 0
M  V30 6646 C 614.823 -0.416527 1.81994 0
M  V30 6647 C 615.174 -1.67183 1.02686 0
M  V30 6648 O 614.299 -2.14823 0.260782 0
M  V30 6649 C 614.894 -0.762466 3.30109 0
M  V30 6650 C 613.453 -1.23391 3.556 0
M  V30 6651 C 612.6 -0.238166 2.76275 0
M  V30 6652 H 615.551 0.335491 1.55113 0
M  V30 6653 H 615.572 -1.62068 3.44259 0
M  V30 6654 H 615.084 0.151346 3.87805 0
M  V30 6655 H 613.185 -2.16492 3.03253 0
M  V30 6656 H 613.298 -1.18528 4.64207 0
M  V30 6657 H 611.662 -0.723421 2.4421 0
M  V30 6658 H 612.445 0.668591 3.36727 0
M  V30 6659 N 614.89 -1.56749 -0.16351 0
M  V30 6660 C 615.84 -1.93424 -1.20712 0
M  V30 6661 C 616.824 -0.803469 -1.39403 0
M  V30 6662 O 618.016 -1.06675 -1.41243 0
M  V30 6663 C 615.145 -2.30431 -2.54473 0
M  V30 6664 C 614.231 -3.5004 -2.39443 0
M  V30 6665 N 614.622 -4.67058 -1.9414 0
M  V30 6666 C 612.92 -3.548 -2.70246 0
M  V30 6667 C 613.621 -5.49184 -1.9176 0
M  V30 6668 N 612.597 -4.9044 -2.34457 0
M  V30 6669 H 616.399 -2.8138 -0.848681 0
M  V30 6670 H 613.913 -1.58089 -0.371717 0
M  V30 6671 H 615.91 -2.54903 -3.29894 0
M  V30 6672 H 614.57 -1.43818 -2.91112 0
M  V30 6673 H 615.581 -4.91128 -1.64357 0
M  V30 6674 H 612.258 -2.78685 -3.10871 0
M  V30 6675 H 613.648 -6.5297 -1.58366 0
M  V30 6676 N 616.368 0.432326 -1.51554 0
M  V30 6677 C 617.779 1.01202 -1.56892 0
M  V30 6678 C 618.13 1.92175 -0.395394 0
M  V30 6679 O 617.255 2.10844 0.487198 0
M  V30 6680 C 617.85 1.84217 -2.8434 0
M  V30 6681 C 616.409 2.37228 -2.92233 0
M  V30 6682 C 615.556 1.16576 -2.51606 0
M  V30 6683 H 618.507 0.213407 -1.57259 0
M  V30 6684 H 618.528 2.69721 -2.68385 0
M  V30 6685 H 618.04 1.17979 -3.69733 0
M  V30 6686 H 616.141 3.06905 -2.11282 0
M  V30 6687 H 616.254 2.69682 -3.95991 0
M  V30 6688 H 614.618 1.51263 -2.04919 0
M  V30 6689 H 615.401 0.519404 -3.39348 0
M  V30 6690 N 617.846 1.41785 0.688094 0
M  V30 6691 C 619.262 1.24419 0.999608 0
M  V30 6692 C 619.462 0.138868 2.01021 0
M  V30 6693 O 618.518 -0.494283 2.47615 0
M  V30 6694 C 619.831 2.59625 1.51709 0
M  V30 6695 C 621.379 2.66869 1.63554 0
M  V30 6696 C 621.854 4.0241 2.18702 0
M  V30 6697 N 623.345 4.04295 2.26053 0
M  V30 6698 C 624.08 5.05977 2.69768 0
M  V30 6699 N 623.576 6.18047 3.13033 0
M  V30 6700 N 625.369 4.93336 2.69398 0
M  V30 6701 H 617.52 2.12392 0.0187427 0
M  V30 6702 H 619.783 0.945347 0.0708673 0
M  V30 6703 H 619.489 3.41297 0.849059 0
M  V30 6704 H 619.363 2.82628 2.49803 0
M  V30 6705 H 621.75 1.8555 2.29467 0
M  V30 6706 H 621.831 2.47668 0.639857 0
M  V30 6707 H 621.475 4.8418 1.53402 0
M  V30 6708 H 621.405 4.18955 3.19037 0
M  V30 6709 H 623.896 3.23383 1.9553 0
M  V30 6710 H 624.209 6.91498 3.45038 0
M  V30 6711 H 622.554 6.21572 3.10923 0
M  V30 6712 H 625.745 4.04865 2.34952 0
M  V30 6713 H 625.918 5.72717 3.03148 0
M  V30 6714 N 619.324 -0.923095 1.27737 0
M  V30 6715 C 620.257 -2.02515 1.05181 0
M  V30 6716 C 621.235 -1.62574 -0.0292204 0
M  V30 6717 O 622.419 -1.88137 0.116848 0
M  V30 6718 C 619.546 -3.33407 0.596468 0
M  V30 6719 C 618.592 -3.92328 1.67276 0
M  V30 6720 S 619.425 -4.24342 3.26641 0
M  V30 6721 C 620.581 -5.58308 2.82919 0
M  V30 6722 H 620.814 -2.21336 1.98488 0
M  V30 6723 H 618.347 -1.06679 1.1162 0
M  V30 6724 H 620.305 -4.09086 0.34044 0
M  V30 6725 H 618.966 -3.125 -0.316614 0
M  V30 6726 H 618.159 -4.86797 1.30556 0
M  V30 6727 H 617.761 -3.2325 1.8811 0
M  V30 6728 H 620.053 -6.37801 2.28509 0
M  V30 6729 H 620.996 -5.99931 3.7615 0
M  V30 6730 H 621.404 -5.19049 2.21919 0
M  V30 6731 N 620.802 -1.09834 -1.13024 0
M  V30 6732 C 621.732 -0.763451 -2.20666 0
M  V30 6733 C 622.713 0.260778 -1.68089 0
M  V30 6734 O 623.898 0.127915 -1.93778 0
M  V30 6735 C 621.028 -0.187744 -3.46792 0
M  V30 6736 C 619.982 -1.14196 -4.12484 0
M  V30 6737 C 619.308 -0.427755 -5.32986 0
M  V30 6738 C 620.608 -2.48607 -4.59338 0
M  V30 6739 H 622.302 -1.66347 -2.48936 0
M  V30 6740 H 619.848 -0.801261 -1.19649 0
M  V30 6741 H 621.801 0.0586375 -4.21359 0
M  V30 6742 H 620.525 0.747485 -3.17931 0
M  V30 6743 H 619.184 -1.37369 -3.3989 0
M  V30 6744 H 618.832 0.511747 -5.0039 0
M  V30 6745 H 618.532 -1.06403 -5.77886 0
M  V30 6746 H 620.056 -0.189772 -6.10305 0
M  V30 6747 H 621.47 -2.29618 -5.25308 0
M  V30 6748 H 619.867 -3.08062 -5.14993 0
M  V30 6749 H 620.937 -3.09062 -3.73642 0
M  V30 6750 N 622.28 1.30327 -0.886154 0
M  V30 6751 C 623.19 2.31854 -0.357866 0
M  V30 6752 C 624.206 1.65392 0.540502 0
M  V30 6753 O 625.382 1.96683 0.433339 0
M  V30 6754 C 622.447 3.44171 0.417999 0
M  V30 6755 C 621.508 4.26257 -0.510263 0
M  V30 6756 C 620.741 5.3321 0.228669 0
M  V30 6757 O 620.964 5.51542 1.45458 0
M  V30 6758 O 619.898 6.0042 -0.421832 0
M  V30 6759 H 623.724 2.78995 -1.19982 0
M  V30 6760 H 621.309 1.34518 -0.650028 0
M  V30 6761 H 623.191 4.12588 0.857251 0
M  V30 6762 H 621.866 2.99164 1.23623 0
M  V30 6763 H 620.773 3.60533 -0.99835 0
M  V30 6764 H 622.106 4.74871 -1.29454 0
M  V30 6765 N 623.758 0.647228 1.43697 0
M  V30 6766 C 625.174 0.314256 1.56476 0
M  V30 6767 C 625.374 -1.18191 1.63196 0
M  V30 6768 O 624.43 -1.96655 1.58376 0
M  V30 6769 C 625.743 1.02034 2.82859 0
M  V30 6770 C 627.291 1.00002 2.96595 0
M  V30 6771 C 627.766 1.68689 4.25803 0
M  V30 6772 N 629.257 1.65424 4.32654 0
M  V30 6773 C 629.992 2.1545 5.31384 0
M  V30 6774 N 629.488 2.73738 6.36427 0
M  V30 6775 N 631.281 2.05985 5.22998 0
M  V30 6776 H 623.432 1.61821 1.37578 0
M  V30 6777 H 625.695 0.680184 0.660344 0
M  V30 6778 H 625.401 2.07542 2.83935 0
M  V30 6779 H 625.275 0.568146 3.72897 0
M  V30 6780 H 627.662 -0.0466319 2.95063 0
M  V30 6781 H 627.743 1.49086 2.07863 0
M  V30 6782 H 627.387 2.73308 4.28095 0
M  V30 6783 H 627.317 1.17076 5.13421 0
M  V30 6784 H 629.808 1.22884 3.57363 0
M  V30 6785 H 630.121 3.09602 7.08072 0
M  V30 6786 H 628.466 2.77796 6.37067 0
M  V30 6787 H 631.657 1.60157 4.39849 0
M  V30 6788 H 631.83 2.45281 5.99784 0
M  V30 6789 N 625.236 -1.5273 0.388769 0
M  V30 6790 C 626.464 -2.05992 -0.193677 0
M  V30 6791 C 626.879 -1.26053 -1.40557 0
M  V30 6792 O 626.236 -0.307049 -1.79898 0
M  V30 6793 C 626.287 -3.57068 -0.564321 0
M  V30 6794 O 626.008 -4.3398 0.599422 0
M  V30 6795 C 627.509 -4.26674 -1.20269 0
M  V30 6796 H 624.729 -0.670358 -0.0293445 0
M  V30 6797 H 627.273 -1.96857 0.553844 0
M  V30 6798 H 625.428 -3.66277 -1.26174 0
M  V30 6799 H 625.842 -5.2367 0.294895 0
M  V30 6800 H 627.316 -5.33625 -1.4124 0
M  V30 6801 H 627.793 -3.81854 -2.16989 0
M  V30 6802 H 628.399 -4.2178 -0.546047 0
M  V30 6803 N 626.714 -0.118576 -1.57153 0
M  V30 6804 C 627.961 0.539526 -1.9518 0
M  V30 6805 C 628.289 1.66714 -1.00184 0
M  V30 6806 O 627.544 1.95683 -0.0256482 0
M  V30 6807 C 627.843 1.11303 -3.39627 0
M  V30 6808 C 627.509 0.106809 -4.50773 0
M  V30 6809 C 626.171 -0.169876 -4.809 0
M  V30 6810 C 628.523 -0.57895 -5.17975 0
M  V30 6811 C 625.851 -1.13861 -5.75545 0
M  V30 6812 C 628.203 -1.53631 -6.13661 0
M  V30 6813 C 626.867 -1.82099 -6.42181 0
M  V30 6814 H 626.137 0.197427 -0.714215 0
M  V30 6815 H 628.784 -0.199391 -1.90459 0
M  V30 6816 H 627.089 1.92869 -3.4104 0
M  V30 6817 H 628.786 1.63032 -3.66363 0
M  V30 6818 H 625.376 0.332645 -4.27307 0
M  V30 6819 H 629.56 -0.378359 -4.94856 0
M  V30 6820 H 624.816 -1.36592 -5.95947 0
M  V30 6821 H 628.99 -2.07337 -6.64819 0
M  V30 6822 H 626.617 -2.57319 -7.15326 0
M  V30 6823 N 628.193 1.56834 0.155195 0
M  V30 6824 C 629.439 1.83169 0.870467 0
M  V30 6825 C 629.772 0.698929 1.81187 0
M  V30 6826 O 629.047 -0.298035 1.92203 0
M  V30 6827 C 629.33 3.19965 1.65211 0
M  V30 6828 C 629.183 4.43792 0.732744 0
M  V30 6829 C 630.502 3.53885 2.61636 0
M  V30 6830 H 627.621 0.666288 0.315006 0
M  V30 6831 H 630.263 1.89513 0.135988 0
M  V30 6832 H 628.413 3.14687 2.27825 0
M  V30 6833 H 630.085 4.61148 0.118236 0
M  V30 6834 H 628.328 4.3378 0.0417906 0
M  V30 6835 H 628.999 5.36095 1.31552 0
M  V30 6836 H 631.475 3.5972 2.09143 0
M  V30 6837 H 630.351 4.50648 3.13381 0
M  V30 6838 H 630.612 2.79418 3.42605 0
M  V30 6839 N 629.671 -0.424282 1.51781 0
M  V30 6840 C 630.601 -1.52305 1.7699 0
M  V30 6841 C 631.582 -1.5839 0.620209 0
M  V30 6842 O 632.767 -1.73908 0.864268 0
M  V30 6843 C 629.897 -2.90271 1.90683 0
M  V30 6844 C 628.851 -2.99043 3.06198 0
M  V30 6845 C 628.177 -4.39116 3.05092 0
M  V30 6846 C 629.477 -2.7192 4.45934 0
M  V30 6847 H 631.171 -1.31461 2.68995 0
M  V30 6848 H 628.717 -0.630985 1.29439 0
M  V30 6849 H 630.67 -3.6711 2.06901 0
M  V30 6850 H 629.394 -3.12376 0.953365 0
M  V30 6851 H 628.053 -2.24646 2.89706 0
M  V30 6852 H 627.701 -4.58207 2.07498 0
M  V30 6853 H 627.401 -4.45912 3.82669 0
M  V30 6854 H 628.925 -5.17911 3.2342 0
M  V30 6855 H 630.339 -3.38487 4.62709 0
M  V30 6856 H 628.736 -2.90111 5.25315 0
M  V30 6857 H 629.806 -1.67445 4.55072 0
M  V30 6858 N 631.149 -1.42148 -0.680565 0
M  V30 6859 C 632.059 -1.47565 -1.82378 0
M  V30 6860 C 633.075 -0.36489 -1.70131 0
M  V30 6861 O 634.251 -0.614916 -1.91783 0
M  V30 6862 C 631.316 -1.37013 -3.18478 0
M  V30 6863 C 630.377 -2.58532 -3.42724 0
M  V30 6864 C 629.61 -2.48473 -4.72331 0
M  V30 6865 O 629.833 -1.51745 -5.49845 0
M  V30 6866 O 628.767 -3.38503 -4.97694 0
M  V30 6867 H 632.593 -2.44045 -1.80764 0
M  V30 6868 H 630.178 -1.23849 -0.835569 0
M  V30 6869 H 632.06 -1.33468 -3.99705 0
M  V30 6870 H 630.735 -0.436552 -3.20743 0
M  V30 6871 H 629.642 -2.67652 -2.61368 0
M  V30 6872 H 630.975 -3.50769 -3.45286 0
M  V30 6873 N 632.627 0.916307 -1.28225 0
M  V30 6874 C 634.038 1.48024 -1.13779 0
M  V30 6875 C 634.389 1.94289 0.273139 0
M  V30 6876 O 633.514 1.82226 1.16716 0
M  V30 6877 C 634.109 2.69029 -2.05935 0
M  V30 6878 C 632.668 3.2161 -1.95561 0
M  V30 6879 C 631.815 1.94321 -1.97825 0
M  V30 6880 H 634.766 0.729272 -1.40951 0
M  V30 6881 H 634.787 3.44204 -1.62184 0
M  V30 6882 H 634.299 2.35325 -3.08616 0
M  V30 6883 H 632.4 3.60045 -0.959076 0
M  V30 6884 H 632.513 3.87032 -2.82388 0
M  V30 6885 H 630.877 2.1131 -1.42198 0
M  V30 6886 H 631.66 1.62917 -3.0218 0
M  V30 6887 N 634.105 1.10431 1.1244 0
M  V30 6888 C 635.035 0.775143 2.20258 0
M  V30 6889 C 636.016 -0.25186 1.68225 0
M  V30 6890 O 637.201 -0.117637 1.93843 0
M  V30 6891 C 634.331 0.206133 3.46688 0
M  V30 6892 C 633.285 1.16382 4.11873 0
M  V30 6893 C 632.611 0.456014 5.32752 0
M  V30 6894 C 633.911 2.5104 4.58013 0
M  V30 6895 H 635.605 1.67665 2.4805 0
M  V30 6896 H 633.151 0.807595 1.19222 0
M  V30 6897 H 635.104 -0.036291 4.21384 0
M  V30 6898 H 633.828 -0.730614 3.18323 0
M  V30 6899 H 632.487 1.39169 3.39157 0
M  V30 6900 H 632.135 -0.485203 5.00654 0
M  V30 6901 H 631.835 1.09466 5.77314 0
M  V30 6902 H 633.359 0.222135 6.10196 0
M  V30 6903 H 634.773 2.32401 5.24083 0
M  V30 6904 H 633.17 3.10789 5.13352 0
M  V30 6905 H 634.24 3.11039 3.71998 0
M  V30 6906 N 635.583 -1.29855 0.893053 0
M  V30 6907 C 636.823 -1.97612 0.522399 0
M  V30 6908 C 637.187 -1.68903 -0.913 0
M  V30 6909 O 638.388 -2.30059 -1.39019 0
M  V30 6910 C 636.659 -3.48356 0.79893 0
M  V30 6911 S 638.218 -4.35568 0.531588 0
M  V30 6912 H 635.036 -0.684005 0.194058 0
M  V30 6913 H 637.638 -1.57803 1.15406 0
M  V30 6914 H 636.342 -3.66743 1.84196 0
M  V30 6915 H 635.873 -3.93094 0.155133 0
M  V30 6916 H 637.888 -4.92232 -0.626295 0
M  V30 6917 N 637.061 -0.65484 -1.43351 0
M  V30 6918 C 637.971 0.0363603 -2.34572 0
M  V30 6919 C 638.987 0.810432 -1.53974 0
M  V30 6920 O 640.163 0.757308 -1.86619 0
M  V30 6921 C 637.228 0.989733 -3.32273 0
M  V30 6922 C 636.289 0.212414 -4.28774 0
M  V30 6923 C 635.522 1.12038 -5.21808 0
M  V30 6924 O 635.745 2.35967 -5.19303 0
M  V30 6925 O 634.679 0.59191 -5.98982 0
M  V30 6926 H 638.505 -0.714527 -2.95175 0
M  V30 6927 H 636.09 -0.415029 -1.4352 0
M  V30 6928 H 637.972 1.53759 -3.92347 0
M  V30 6929 H 636.647 1.72082 -2.74171 0
M  V30 6930 H 635.554 -0.379062 -3.72175 0
M  V30 6931 H 636.887 -0.479138 -4.89862 0
M  V30 6932 N 638.539 1.52521 -0.396863 0
M  V30 6933 C 639.469 2.29582 0.425941 0
M  V30 6934 C 640.45 1.33281 1.05689 0
M  V30 6935 O 641.635 1.62181 1.06823 0
M  V30 6936 C 638.765 3.10821 1.54943 0
M  V30 6937 C 637.719 4.15069 1.04413 0
M  V30 6938 C 637.045 4.84578 2.26028 0
M  V30 6939 C 638.345 5.22191 0.106767 0
M  V30 6940 H 640.039 2.98612 -0.217045 0
M  V30 6941 H 637.585 1.43611 -0.105826 0
M  V30 6942 H 639.538 3.63492 2.13193 0
M  V30 6943 H 638.262 2.39538 2.22011 0
M  V30 6944 H 636.921 3.63389 0.484118 0
M  V30 6945 H 636.569 4.09835 2.91623 0
M  V30 6946 H 636.269 5.55043 1.92876 0
M  V30 6947 H 637.793 5.40056 2.84906 0
M  V30 6948 H 639.207 5.70176 0.597685 0
M  V30 6949 H 637.604 5.99947 -0.135352 0
M  V30 6950 H 638.674 4.77531 -0.842134 0
M  V30 6951 N 640.017 0.126909 1.57088 0
M  V30 6952 C 641.266 -0.529024 1.94639 0
M  V30 6953 C 641.579 -1.67323 1.01304 0
M  V30 6954 O 642.785 -2.39245 1.28352 0
M  V30 6955 C 641.241 -0.992483 3.45945 0
M  V30 6956 C 640.849 0.123691 4.47829 0
M  V30 6957 C 642.593 -1.61934 3.924 0
M  V30 6958 C 640.5 -0.356911 5.90322 0
M  V30 6959 H 639.43 -0.201397 0.726605 0
M  V30 6960 H 642.081 0.208032 1.82317 0
M  V30 6961 H 640.463 -1.7842 3.53528 0
M  V30 6962 H 641.637 0.900168 4.51922 0
M  V30 6963 H 639.952 0.657699 4.11173 0
M  V30 6964 H 642.549 -1.9902 4.96281 0
M  V30 6965 H 642.892 -2.50075 3.32819 0
M  V30 6966 H 643.425 -0.892894 3.8765 0
M  V30 6967 H 640.164 0.488636 6.53676 0
M  V30 6968 H 639.684 -1.0997 5.89633 0
M  V30 6969 H 641.363 -0.815547 6.41839 0
M  V30 6970 N 641.495 -1.56914 -0.146875 0
M  V30 6971 C 642.72 -1.87881 -0.878386 0
M  V30 6972 C 643.145 -0.715945 -1.73942 0
M  V30 6973 O 642.503 0.334447 -1.78189 0
M  V30 6974 C 642.551 -3.17431 -1.71084 0
M  V30 6975 O 641.655 -3.01374 -2.81509 0
M  V30 6976 H 640.996 -0.617289 -0.244644 0
M  V30 6977 H 643.526 -2.04136 -0.137654 0
M  V30 6978 H 643.536 -3.49455 -2.10582 0
M  V30 6979 H 642.211 -4.01671 -1.07856 0
M  V30 6980 H 640.788 -2.80758 -2.45416 0
M  V30 6981 N 642.974 0.416227 -1.52004 0
M  V30 6982 C 644.385 0.995319 -1.57957 0
M  V30 6983 C 644.736 1.91744 -0.415754 0
M  V30 6984 O 643.861 2.11349 0.464808 0
M  V30 6985 C 644.456 1.81191 -2.86278 0
M  V30 6986 C 643.015 2.34115 -2.94732 0
M  V30 6987 C 642.162 1.139 -2.52828 0
M  V30 6988 H 645.113 0.196716 -1.57476 0
M  V30 6989 H 645.134 2.66859 -2.71231 0
M  V30 6990 H 644.646 1.14051 -3.70963 0
M  V30 6991 H 642.747 3.04647 -2.14525 0
M  V30 6992 H 642.86 2.65466 -3.98829 0
M  V30 6993 H 641.224 1.49081 -2.06511 0
M  V30 6994 H 642.007 0.483383 -3.3988 0
M  V30 6995 N 644.452 1.42507 0.673017 0
M  V30 6996 C 645.698 1.43284 1.43519 0
M  V30 6997 C 646.031 0.049668 1.94136 0
M  V30 6998 O 645.306 -0.926369 1.71022 0
M  V30 6999 C 645.589 2.45874 2.63093 0
M  V30 7000 C 645.442 3.93388 2.18096 0
M  V30 7001 C 646.761 2.45431 3.6531 0
M  V30 7002 H 643.88 0.521752 0.520522 0
M  V30 7003 H 646.522 1.73932 0.764701 0
M  V30 7004 H 644.672 2.19869 3.20296 0
M  V30 7005 H 646.344 4.30379 1.66046 0
M  V30 7006 H 644.587 4.07169 1.49652 0
M  V30 7007 H 645.258 4.60752 3.03993 0
M  V30 7008 H 647.734 2.68561 3.17827 0
M  V30 7009 H 646.61 3.19189 4.46553 0
M  V30 7010 H 646.871 1.48092 4.16559 0
M  V30 7011 N 645.93 -0.909495 1.28709 0
M  V30 7012 C 646.88 -1.9991 1.09636 0
M  V30 7013 C 647.864 -1.60889 0.01872 0
M  V30 7014 O 649.056 -1.75374 0.239338 0
M  V30 7015 C 646.185 -3.34675 0.764702 0
M  V30 7016 C 645.271 -3.80085 1.8814 0
M  V30 7017 N 645.662 -3.97824 3.12361 0
M  V30 7018 C 643.96 -4.09278 1.77221 0
M  V30 7019 C 644.661 -4.35928 3.85151 0
M  V30 7020 N 643.637 -4.44426 3.13028 0
M  V30 7021 H 647.439 -2.11681 2.03883 0
M  V30 7022 H 644.953 -1.09763 1.1969 0
M  V30 7023 H 646.95 -4.12426 0.609132 0
M  V30 7024 H 645.61 -3.24255 -0.169952 0
M  V30 7025 H 646.621 -3.83626 3.47925 0
M  V30 7026 H 643.298 -4.0747 0.909621 0
M  V30 7027 H 644.688 -4.57581 4.92006 0
M  V30 7028 N 647.408 -1.11026 -1.11852 0
M  V30 7029 C 648.338 -0.786812 -2.19844 0
M  V30 7030 C 649.319 0.242935 -1.68356 0
M  V30 7031 O 650.504 0.107355 -1.93903 0
M  V30 7032 C 647.634 -0.224516 -3.46574 0
M  V30 7033 C 646.588 -1.18564 -4.1125 0
M  V30 7034 C 645.914 -0.484261 -5.32503 0
M  V30 7035 C 647.214 -2.53465 -4.56676 0
M  V30 7036 H 648.908 -1.68978 -2.47158 0
M  V30 7037 H 646.454 -0.813906 -1.18792 0
M  V30 7038 H 648.407 0.0139435 -4.21398 0
M  V30 7039 H 647.131 0.713722 -3.18706 0
M  V30 7040 H 645.79 -1.40966 -3.38414 0
M  V30 7041 H 645.438 0.458646 -5.00905 0
M  V30 7042 H 645.138 -1.12526 -5.76725 0
M  V30 7043 H 646.662 -0.254492 -6.10069 0
M  V30 7044 H 648.076 -2.35177 -5.22843 0
M  V30 7045 H 646.473 -3.13507 -5.11697 0
M  V30 7046 H 647.543 -3.13008 -3.70343 0
M  V30 7047 N 648.886 1.2938 -0.899927 0
M  V30 7048 C 649.836 2.25311 -0.349165 0
M  V30 7049 C 650.82 1.51889 0.530892 0
M  V30 7050 O 652.012 1.73028 0.372872 0
M  V30 7051 C 649.141 3.40696 0.422055 0
M  V30 7052 C 648.227 4.21455 -0.472935 0
M  V30 7053 N 648.618 4.8048 -1.58026 0
M  V30 7054 C 646.916 4.45177 -0.270767 0
M  V30 7055 C 647.617 5.41117 -2.13465 0
M  V30 7056 N 646.593 5.24518 -1.42766 0
M  V30 7057 H 650.395 2.68507 -1.19505 0
M  V30 7058 H 647.909 1.43992 -0.751006 0
M  V30 7059 H 649.906 4.08486 0.833369 0
M  V30 7060 H 648.566 2.99037 1.2652 0
M  V30 7061 H 649.577 4.79257 -1.96299 0
M  V30 7062 H 646.254 4.14071 0.533988 0
M  V30 7063 H 647.644 5.979 -3.06537 0
M  V30 7064 N 650.364 0.662433 1.43002 0
M  V30 7065 C 651.775 0.258315 1.84904 0
M  V30 7066 C 652.126 -1.19703 1.55453 0
M  V30 7067 O 651.251 -1.91484 1.00811 0
M  V30 7068 C 651.846 0.462047 3.35635 0
M  V30 7069 C 650.405 0.112165 3.76233 0
M  V30 7070 C 649.552 0.760479 2.66668 0
M  V30 7071 H 652.503 0.865467 1.33024 0
M  V30 7072 H 652.524 -0.289646 3.79396 0
M  V30 7073 H 652.036 1.52135 3.57039 0
M  V30 7074 H 650.137 -0.944179 3.60439 0
M  V30 7075 H 650.25 0.544058 4.76001 0
M  V30 7076 H 648.614 0.192887 2.53969 0
M  V30 7077 H 649.397 1.82299 2.90898 0
M  V30 7078 N 651.842 -1.52309 0.404946 0
M  V30 7079 C 653.088 -2.02065 -0.172455 0
M  V30 7080 C 653.421 -1.29022 -1.45145 0
M  V30 7081 O 652.696 -0.395284 -1.90441 0
M  V30 7082 C 652.979 -3.5759 -0.424433 0
M  V30 7083 C 652.832 -4.41287 0.870945 0
M  V30 7084 C 654.151 -4.23186 -1.20837 0
M  V30 7085 H 651.27 -0.734454 -0.0612035 0
M  V30 7086 H 653.912 -1.82236 0.53759 0
M  V30 7087 H 652.062 -3.74617 -1.02929 0
M  V30 7088 H 653.734 -4.3598 1.50729 0
M  V30 7089 H 651.977 -4.07669 1.48284 0
M  V30 7090 H 652.648 -5.48171 0.649083 0
M  V30 7091 H 655.124 -4.10232 -0.696338 0
M  V30 7092 H 654 -5.31953 -1.35343 0
M  V30 7093 H 654.261 -3.81862 -2.22786 0
M  V30 7094 N 653.32 -0.135238 -1.57019 0
M  V30 7095 C 654.548 0.526066 -2.001 0
M  V30 7096 C 654.963 1.59184 -1.01519 0
M  V30 7097 O 654.32 1.82497 -0.0104258 0
M  V30 7098 C 654.371 1.13744 -3.43139 0
M  V30 7099 O 654.092 0.114259 -4.37951 0
M  V30 7100 C 655.593 1.8805 -4.01438 0
M  V30 7101 H 652.813 0.137962 -0.656664 0
M  V30 7102 H 655.357 -0.226359 -2.03243 0
M  V30 7103 H 653.512 1.84056 -3.40885 0
M  V30 7104 H 653.926 0.56058 -5.21496 0
M  V30 7105 H 655.4 2.26133 -5.03555 0
M  V30 7106 H 655.877 2.76194 -3.41487 0
M  V30 7107 H 656.483 1.22464 -4.07287 0
M  V30 7108 N 654.798 1.5699 0.138552 0
M  V30 7109 C 655.761 1.97984 1.15478 0
M  V30 7110 C 656.761 0.867416 1.35398 0
M  V30 7111 O 657.951 1.13387 1.32246 0
M  V30 7112 C 655.083 2.3031 2.51337 0
M  V30 7113 H 656.276 2.88953 0.802896 0
M  V30 7114 H 653.829 1.51555 0.382189 0
M  V30 7115 H 654.564 1.42159 2.91481 0
M  V30 7116 H 654.349 3.11425 2.38237 0
M  V30 7117 H 655.839 2.62834 3.24512 0
M  V30 7118 N 656.276 -0.40816 1.52223 0
M  V30 7119 C 657.186 -1.52202 1.78526 0
M  V30 7120 C 658.202 -1.60546 0.670892 0
M  V30 7121 O 659.378 -1.77242 0.956404 0
M  V30 7122 C 656.443 -2.87928 1.93128 0
M  V30 7123 C 655.504 -2.89463 3.17033 0
M  V30 7124 C 654.737 -4.18715 3.30929 0
M  V30 7125 O 654.96 -5.12662 2.50067 0
M  V30 7126 O 653.894 -4.27125 4.24084 0
M  V30 7127 H 657.72 -1.32911 2.73072 0
M  V30 7128 H 655.305 -0.594112 1.37079 0
M  V30 7129 H 657.187 -3.68426 2.04549 0
M  V30 7130 H 655.862 -3.07285 1.01772 0
M  V30 7131 H 654.769 -2.07815 3.11069 0
M  V30 7132 H 656.102 -2.75055 4.08174 0
M  V30 7133 N 657.755 -1.42862 -0.66545 0
M  V30 7134 C 659.166 -1.3901 -1.24632 0
M  V30 7135 C 659.517 -0.0880285 -1.96002 0
M  V30 7136 O 658.642 0.812947 -2.0055 0
M  V30 7137 C 659.237 -2.51806 -2.2667 0
M  V30 7138 C 657.796 -2.51257 -2.80262 0
M  V30 7139 C 656.943 -2.30124 -1.5472 0
M  V30 7140 H 659.894 -1.5194 -0.458237 0
M  V30 7141 H 659.915 -2.22593 -3.08598 0
M  V30 7142 H 659.427 -3.46558 -1.74697 0
M  V30 7143 H 657.528 -1.60349 -3.36332 0
M  V30 7144 H 657.641 -3.48614 -3.28641 0
M  V30 7145 H 656.005 -1.7856 -1.81627 0
M  V30 7146 H 656.788 -3.26945 -1.04699 0
M  V30 7147 N 659.233 0.902656 -1.29189 0
M  V30 7148 C 660.482 1.6475 -1.16362 0
M  V30 7149 C 660.795 1.93517 0.284682 0
M  V30 7150 O 662.001 2.66192 0.534229 0
M  V30 7151 C 660.457 2.96848 -2.03493 0
M  V30 7152 C 660.065 2.75687 -3.5313 0
M  V30 7153 C 661.809 3.74762 -1.99383 0
M  V30 7154 C 659.716 4.03492 -4.32375 0
M  V30 7155 H 658.646 0.618041 -0.431904 0
M  V30 7156 H 661.297 1.0008 -1.53806 0
M  V30 7157 H 659.679 3.62715 -1.58916 0
M  V30 7158 H 660.853 2.18431 -4.05739 0
M  V30 7159 H 659.168 2.11171 -3.58881 0
M  V30 7160 H 661.765 4.69515 -2.5585 0
M  V30 7161 H 662.108 4.04767 -0.973123 0
M  V30 7162 H 662.641 3.15732 -2.41988 0
M  V30 7163 H 659.38 3.78656 -5.3507 0
M  V30 7164 H 658.9 4.60318 -3.84535 0
M  V30 7165 H 660.579 4.71662 -4.42881 0
M  V30 7166 N 660.711 1.11618 1.11262 0
M  V30 7167 C 661.957 0.867463 1.83311 0
M  V30 7168 C 662.29 -0.605366 1.84524 0
M  V30 7169 O 661.565 -1.44704 1.29965 0
M  V30 7170 C 661.848 1.43207 3.30399 0
M  V30 7171 C 661.701 2.97265 3.3757 0
M  V30 7172 C 663.02 1.08454 4.26528 0
M  V30 7173 H 660.139 0.316578 0.665543 0
M  V30 7174 H 662.781 1.38137 1.30454 0
M  V30 7175 H 660.931 0.994982 3.75543 0
M  V30 7176 H 662.603 3.49591 3.00971 0
M  V30 7177 H 660.846 3.33237 2.77733 0
M  V30 7178 H 661.517 3.31859 4.41105 0
M  V30 7179 H 663.993 1.4619 3.89574 0
M  V30 7180 H 662.869 1.50633 5.27826 0
M  V30 7181 H 663.13 -0.00444568 4.421 0
M  V30 7182 N 662.189 -1.289 0.906776 0
M  V30 7183 C 663.466 -1.90221 0.455537 0
M  V30 7184 C 663.846 -1.82251 -1.06527 0
M  V30 7185 O 663.194 -1.25385 -1.91026 0
M  V30 7186 C 663.404 -3.35015 0.97806 0
M  V30 7187 C 664.752 -4.12018 1.02598 0
M  V30 7188 O 665.776 -3.43947 0.926218 0
M  V30 7189 O 664.635 -5.33677 1.17689 0
M  V30 7190 H 661.729 -0.814505 0.143214 0
M  V30 7191 H 664.275 -1.37317 0.997104 0
M  V30 7192 H 663.047 -3.35006 2.02204 0
M  V30 7193 H 662.67 -3.95408 0.416914 0
M  V30 7194 N 663.667 -0.670007 -1.42649 0
M  V30 7195 C 664.617 0.0339546 -2.27975 0
M  V30 7196 C 665.601 0.778295 -1.40824 0
M  V30 7197 O 666.793 0.657997 -1.64315 0
M  V30 7198 C 663.922 0.987899 -3.28779 0
M  V30 7199 C 663.008 0.241153 -4.23414 0
M  V30 7200 N 663.399 -0.751392 -5.00188 0
M  V30 7201 C 661.697 0.480269 -4.43407 0
M  V30 7202 C 662.398 -1.19615 -5.69269 0
M  V30 7203 N 661.374 -0.527045 -5.41039 0
M  V30 7204 H 665.176 -0.727425 -2.84756 0
M  V30 7205 H 662.69 -0.498673 -1.54554 0
M  V30 7206 H 664.687 1.50716 -3.88703 0
M  V30 7207 H 663.347 1.74916 -2.73559 0
M  V30 7208 H 664.358 -1.13075 -5.05405 0
M  V30 7209 H 661.035 1.2214 -3.99234 0
M  V30 7210 H 662.425 -2.01836 -6.40868 0
M  V30 7211 N 665.145 1.52092 -0.413018 0
M  V30 7212 C 666.075 2.30021 0.401567 0
M  V30 7213 C 667.056 1.34395 1.04269 0
M  V30 7214 O 668.241 1.63304 1.05097 0
M  V30 7215 C 665.371 3.12447 1.51638 0
M  V30 7216 C 664.325 4.16153 1.00005 0
M  V30 7217 C 663.651 4.86948 2.20875 0
M  V30 7218 C 664.951 5.22275 0.0513757 0
M  V30 7219 H 666.645 2.98365 -0.248704 0
M  V30 7220 H 664.191 1.4349 -0.121052 0
M  V30 7221 H 666.144 3.65733 2.09326 0
M  V30 7222 H 664.868 2.41879 2.19458 0
M  V30 7223 H 663.527 3.63882 0.445549 0
M  V30 7224 H 663.175 4.12905 2.8726 0
M  V30 7225 H 662.875 5.57057 1.86978 0
M  V30 7226 H 664.399 5.43048 2.79162 0
M  V30 7227 H 665.813 5.70778 0.537176 0
M  V30 7228 H 664.21 5.9977 -0.198977 0
M  V30 7229 H 665.28 4.76611 -0.892736 0
M  V30 7230 N 666.623 0.143563 1.56945 0
M  V30 7231 C 667.57 -0.797433 2.16586 0
M  V30 7232 C 668.54 -1.24654 1.09775 0
M  V30 7233 O 669.725 -1.31968 1.37801 0
M  V30 7234 C 666.865 -2.03253 2.78895 0
M  V30 7235 C 665.978 -1.62954 4.00087 0
M  V30 7236 C 665.113 -2.81617 4.50406 0
M  V30 7237 C 664.152 -2.37675 5.64072 0
M  V30 7238 N 663.289 -3.49335 6.09023 0
M  V30 7239 H 668.129 -0.282023 2.96662 0
M  V30 7240 H 665.666 -0.127494 1.46546 0
M  V30 7241 H 667.624 -2.75653 3.13163 0
M  V30 7242 H 666.254 -2.52211 2.01469 0
M  V30 7243 H 665.306 -0.803322 3.71821 0
M  V30 7244 H 666.618 -1.26679 4.82446 0
M  V30 7245 H 665.772 -3.62212 4.86711 0
M  V30 7246 H 664.511 -3.21134 3.67048 0
M  V30 7247 H 663.516 -1.55519 5.27346 0
M  V30 7248 H 664.741 -1.99247 6.49213 0
M  V30 7249 H 662.687 -3.8848 5.28601 0
M  V30 7250 H 662.604 -3.17064 6.86299 0
M  V30 7251 H 663.872 -4.30297 6.49973 0
M  V30 7252 N 668.101 -1.57061 -0.130224 0
M  V30 7253 C 669.033 -1.96147 -1.18571 0
M  V30 7254 C 670.046 -0.859347 -1.38272 0
M  V30 7255 O 671.235 -1.13769 -1.37545 0
M  V30 7256 C 668.335 -2.23484 -2.54771 0
M  V30 7257 C 667.508 -3.54786 -2.55824 0
M  V30 7258 C 666.567 -3.70467 -3.73686 0
M  V30 7259 O 665.593 -4.42693 -3.57787 0
M  V30 7260 N 666.795 -3.08389 -4.91809 0
M  V30 7261 H 669.56 -2.87295 -0.853333 0
M  V30 7262 H 667.121 -1.58714 -0.319621 0
M  V30 7263 H 669.113 -2.312 -3.32158 0
M  V30 7264 H 667.683 -1.38518 -2.80235 0
M  V30 7265 H 666.903 -3.5836 -1.64232 0
M  V30 7266 H 668.191 -4.4111 -2.53573 0
M  V30 7267 H 667.589 -2.49656 -5.0763 0
M  V30 7268 H 666.146 -3.21642 -5.66912 0
M  V30 7269 N 669.579 0.400081 -1.52437 0
M  V30 7270 C 670.509 1.4947 -1.7939 0
M  V30 7271 C 671.49 1.57383 -0.645329 0
M  V30 7272 O 672.675 1.72511 -0.891826 0
M  V30 7273 C 669.805 2.87201 -1.95276 0
M  V30 7274 C 668.759 2.94134 -3.10917 0
M  V30 7275 C 668.085 4.34207 -3.1204 0
M  V30 7276 C 669.385 2.64791 -4.50203 0
M  V30 7277 H 671.079 1.27165 -2.71052 0
M  V30 7278 H 668.625 0.610312 -1.30427 0
M  V30 7279 H 670.578 3.63772 -2.12715 0
M  V30 7280 H 669.302 3.10819 -1.00294 0
M  V30 7281 H 667.961 2.20009 -2.93243 0
M  V30 7282 H 667.609 4.54848 -2.14761 0
M  V30 7283 H 667.309 4.39768 -3.89715 0
M  V30 7284 H 668.833 5.127 -3.31619 0
M  V30 7285 H 670.247 3.31083 -4.68035 0
M  V30 7286 H 668.644 2.81717 -5.29864 0
M  V30 7287 H 669.714 1.60184 -4.57678 0
M  V30 7288 N 671.057 1.43213 0.657864 0
M  V30 7289 C 672.287 1.478 1.44356 0
M  V30 7290 C 672.695 0.0930206 1.88971 0
M  V30 7291 O 672.038 -0.906089 1.59799 0
M  V30 7292 C 672.1 2.35745 2.71412 0
M  V30 7293 C 671.764 3.83359 2.48767 0
M  V30 7294 C 672.761 4.74585 2.12285 0
M  V30 7295 C 670.446 4.27799 2.63235 0
M  V30 7296 C 672.44 6.08247 1.90562 0
M  V30 7297 C 670.127 5.61516 2.41128 0
M  V30 7298 C 671.125 6.51557 2.04847 0
M  V30 7299 O 670.813 7.82802 1.82967 0
M  V30 7300 H 670.545 0.504363 0.450104 0
M  V30 7301 H 673.099 1.88572 0.814241 0
M  V30 7302 H 671.329 1.89852 3.36887 0
M  V30 7303 H 673.018 2.31589 3.33348 0
M  V30 7304 H 673.784 4.41531 2.00687 0
M  V30 7305 H 669.663 3.57993 2.90451 0
M  V30 7306 H 673.207 6.78489 1.62168 0
M  V30 7307 H 669.104 5.94139 2.52327 0
M  V30 7308 H 669.872 7.94332 1.97429 0
M  V30 7309 N 672.536 -0.895792 1.29666 0
M  V30 7310 C 673.813 -1.62723 1.08538 0
M  V30 7311 C 674.193 -2.07848 -0.369119 0
M  V30 7312 O 673.541 -1.8372 -1.35864 0
M  V30 7313 C 673.751 -2.80505 2.07648 0
M  V30 7314 C 675.099 -3.51098 2.3878 0
M  V30 7315 O 676.123 -2.90679 2.05874 0
M  V30 7316 O 674.982 -4.60028 2.9502 0
M  V30 7317 H 672.076 -0.714692 0.416106 0
M  V30 7318 H 674.622 -0.943517 1.41053 0
M  V30 7319 H 673.394 -2.44386 3.05599 0
M  V30 7320 H 673.017 -3.5658 1.75887 0
M  V30 7321 N 674.014 -1.12206 -1.10668 0
M  V30 7322 C 674.961 -0.787716 -2.16942 0
M  V30 7323 C 675.931 0.244442 -1.64291 0
M  V30 7324 O 677.116 0.119558 -1.90425 0
M  V30 7325 C 674.256 -0.24584 -3.44223 0
M  V30 7326 C 673.369 -1.33552 -4.10838 0
M  V30 7327 C 672.504 -0.753337 -5.25831 0
M  V30 7328 C 671.543 -1.82231 -5.84344 0
M  V30 7329 N 670.68 -1.25902 -6.90719 0
M  V30 7330 H 675.52 -1.69809 -2.44885 0
M  V30 7331 H 673.057 -0.847862 -1.20207 0
M  V30 7332 H 675.015 0.0863639 -4.17111 0
M  V30 7333 H 673.645 0.627702 -3.16638 0
M  V30 7334 H 672.697 -1.78454 -3.35944 0
M  V30 7335 H 674.009 -2.14396 -4.50373 0
M  V30 7336 H 673.163 -0.37166 -6.05561 0
M  V30 7337 H 671.902 0.0863297 -4.87624 0
M  V30 7338 H 670.907 -2.2132 -5.03287 0
M  V30 7339 H 672.132 -2.66515 -6.24617 0
M  V30 7340 H 670.078 -0.44114 -6.54515 0
M  V30 7341 H 669.995 -2.00408 -7.28953 0
M  V30 7342 H 671.263 -0.904498 -7.74235 0
M  V30 7343 N 675.492 1.28418 -0.913599 0
M  V30 7344 C 676.424 2.26368 -0.359169 0
M  V30 7345 C 677.437 1.54858 0.502285 0
M  V30 7346 O 678.626 1.75659 0.31719 0
M  V30 7347 C 675.726 3.35112 0.50526 0
M  V30 7348 C 674.899 4.36126 -0.333648 0
M  V30 7349 C 673.958 5.24134 0.465845 0
M  V30 7350 O 672.984 5.6907 -0.121538 0
M  V30 7351 N 674.186 5.52892 1.76891 0
M  V30 7352 H 676.951 2.74579 -1.2011 0
M  V30 7353 H 674.512 1.41898 -0.779532 0
M  V30 7354 H 676.504 3.90926 1.04684 0
M  V30 7355 H 675.074 2.86611 1.2479 0
M  V30 7356 H 674.294 3.79776 -1.0566 0
M  V30 7357 H 675.582 5.00638 -0.907669 0
M  V30 7358 H 674.98 5.18217 2.26865 0
M  V30 7359 H 673.537 6.11464 2.25732 0
M  V30 7360 N 676.97 0.677563 1.42291 0
M  V30 7361 C 677.92 -0.0218641 2.2799 0
M  V30 7362 C 678.904 -0.770816 1.41235 0
M  V30 7363 O 680.096 -0.649273 1.64662 0
M  V30 7364 C 677.225 -0.970449 3.29298 0
M  V30 7365 C 676.311 -0.218695 4.23536 0
M  V30 7366 N 676.702 0.777908 4.99782 0
M  V30 7367 C 675 -0.456748 4.43655 0
M  V30 7368 C 675.701 1.22632 5.68627 0
M  V30 7369 N 674.677 0.55573 5.40752 0
M  V30 7370 H 678.479 0.742516 2.84366 0
M  V30 7371 H 675.993 0.506862 1.54288 0
M  V30 7372 H 677.99 -1.48652 3.89497 0
M  V30 7373 H 676.65 -1.73463 2.74483 0
M  V30 7374 H 677.661 1.15754 5.04798 0
M  V30 7375 H 674.338 -1.20021 3.99877 0
M  V30 7376 H 675.728 2.05231 6.39789 0
M  V30 7377 N 678.448 -1.51871 0.421078 0
M  V30 7378 C 679.725 -1.9447 -0.20993 0
M  V30 7379 C 680.105 -1.35875 -1.61558 0
M  V30 7380 O 679.453 -0.539294 -2.22045 0
M  V30 7381 C 679.663 -3.48402 -0.204165 0
M  V30 7382 C 681.011 -4.2254 -0.417696 0
M  V30 7383 O 682.035 -3.55074 -0.282999 0
M  V30 7384 O 680.894 -5.422 -0.684239 0
M  V30 7385 H 677.988 -0.815283 -0.138718 0
M  V30 7386 H 680.534 -1.62832 0.477884 0
M  V30 7387 H 679.306 -3.83464 0.779183 0
M  V30 7388 H 678.929 -3.86436 -0.935576 0
M  V30 7389 N 679.926 -0.151884 -1.56866 0
M  V30 7390 C 680.836 0.798876 -2.20579 0
M  V30 7391 C 681.852 1.268 -1.19154 0
M  V30 7392 O 683.028 1.32418 -1.51748 0
M  V30 7393 C 680.093 2.01861 -2.81874 0
M  V30 7394 C 679.154 1.59825 -3.9844 0
M  V30 7395 C 678.387 2.75984 -4.56802 0
M  V30 7396 O 678.61 3.92331 -4.14044 0
M  V30 7397 O 677.544 2.51175 -5.46987 0
M  V30 7398 H 681.37 0.2865 -3.02346 0
M  V30 7399 H 678.955 0.0753806 -1.4921 0
M  V30 7400 H 680.837 2.73235 -3.20813 0
M  V30 7401 H 679.512 2.52042 -2.03117 0
M  V30 7402 H 678.419 0.854601 -3.64208 0
M  V30 7403 H 679.752 1.14355 -4.78731 0
M  V30 7404 N 681.404 1.57128 0.121893 0
M  V30 7405 C 682.681 1.75664 0.860327 0
M  V30 7406 C 683.061 0.726585 1.98202 0
M  V30 7407 O 682.409 -0.24999 2.27128 0
M  V30 7408 C 682.619 3.20571 1.37968 0
M  V30 7409 C 683.967 3.82988 1.83317 0
M  V30 7410 O 684.991 3.24156 1.47654 0
M  V30 7411 O 683.85 4.86393 2.49168 0
M  V30 7412 H 680.944 0.719153 0.408348 0
M  V30 7413 H 683.49 1.6937 0.105859 0
M  V30 7414 H 682.262 3.87056 0.57477 0
M  V30 7415 H 681.885 3.31392 2.19694 0
M  V30 7416 N 682.882 -0.391992 1.52647 0
M  V30 7417 C 684.11 -1.1586 1.71418 0
M  V30 7418 C 684.525 -1.8381 0.431216 0
M  V30 7419 O 683.882 -1.7256 -0.594085 0
M  V30 7420 C 683.933 -2.20888 2.86165 0
M  V30 7421 O 683.654 -1.5571 4.09495 0
M  V30 7422 C 685.155 -3.103 3.1659 0
M  V30 7423 H 682.375 -0.347494 0.574011 0
M  V30 7424 H 684.919 -0.458972 1.99283 0
M  V30 7425 H 683.074 -2.86492 2.6077 0
M  V30 7426 H 683.488 -2.25474 4.73563 0
M  V30 7427 H 684.962 -3.8003 4.00351 0
M  V30 7428 H 685.439 -3.73639 2.30848 0
M  V30 7429 H 686.045 -2.50345 3.43813 0
M  V30 7430 N 684.36 -1.4356 -0.65026 0
M  V30 7431 C 685.29 -1.51758 -1.77459 0
M  V30 7432 C 686.271 -0.372019 -1.65982 0
M  V30 7433 O 687.456 -0.589627 -1.85033 0
M  V30 7434 C 684.586 -1.44302 -3.15902 0
M  V30 7435 C 683.54 -2.57138 -3.42146 0
M  V30 7436 C 682.866 -2.34735 -4.8042 0
M  V30 7437 C 684.166 -3.99373 -3.36598 0
M  V30 7438 H 685.86 -2.45863 -1.70855 0
M  V30 7439 H 683.406 -1.18333 -0.820566 0
M  V30 7440 H 685.359 -1.48641 -3.94314 0
M  V30 7441 H 684.083 -0.467026 -3.23244 0
M  V30 7442 H 682.742 -2.52157 -2.66106 0
M  V30 7443 H 682.39 -1.35372 -4.84441 0
M  V30 7444 H 682.09 -3.10375 -4.9894 0
M  V30 7445 H 683.614 -2.40862 -5.61086 0
M  V30 7446 H 685.028 -4.05826 -4.04942 0
M  V30 7447 H 683.425 -4.75063 -3.66654 0
M  V30 7448 H 684.495 -4.243 -2.34729 0
M  V30 7449 N 685.838 0.888903 -1.30139 0
M  V30 7450 C 687.084 1.64288 -1.19922 0
M  V30 7451 C 687.439 1.90839 0.244561 0
M  V30 7452 O 686.732 1.51544 1.17239 0
M  V30 7453 C 686.926 2.99041 -1.95728 0
M  V30 7454 C 686.755 2.85644 -3.47329 0
M  V30 7455 C 685.525 2.85836 -4.16685 0
M  V30 7456 C 687.723 2.6188 -4.42632 0
M  V30 7457 N 685.705 2.63289 -5.54574 0
M  V30 7458 C 687.076 2.48418 -5.68057 0
M  V30 7459 C 689.131 2.47073 -4.32272 0
M  V30 7460 C 687.834 2.21655 -6.84296 0
M  V30 7461 C 689.86 2.21695 -5.48275 0
M  V30 7462 C 689.222 2.09007 -6.72678 0
M  V30 7463 H 685.321 0.606315 -0.493868 0
M  V30 7464 H 687.905 1.0478 -1.64102 0
M  V30 7465 H 686.076 3.56589 -1.53945 0
M  V30 7466 H 687.808 3.63607 -1.77685 0
M  V30 7467 H 684.563 2.97521 -3.68481 0
M  V30 7468 H 684.987 2.55039 -6.27124 0
M  V30 7469 H 689.629 2.55621 -3.36776 0
M  V30 7470 H 687.347 2.11845 -7.79838 0
M  V30 7471 H 690.933 2.11067 -5.42164 0
M  V30 7472 H 689.813 1.89643 -7.60924 0
M  V30 7473 N 687.317 1.12792 1.10072 0
M  V30 7474 C 688.264 0.79921 2.16521 0
M  V30 7475 C 689.234 -0.235726 1.64419 0
M  V30 7476 O 690.419 -0.109457 1.90486 0
M  V30 7477 C 687.559 0.264091 3.44088 0
M  V30 7478 C 686.672 1.35729 4.10124 0
M  V30 7479 C 685.807 0.781212 5.25424 0
M  V30 7480 C 684.846 1.85327 5.8337 0
M  V30 7481 N 683.983 1.29564 6.90042 0
M  V30 7482 H 688.823 1.71105 2.43981 0
M  V30 7483 H 686.36 0.854225 1.19756 0
M  V30 7484 H 688.318 -0.0642423 4.17151 0
M  V30 7485 H 686.948 -0.610901 3.16967 0
M  V30 7486 H 686 1.80234 3.34993 0
M  V30 7487 H 687.312 2.16782 4.4923 0
M  V30 7488 H 686.466 0.403769 6.05355 0
M  V30 7489 H 685.205 -0.0604686 4.87663 0
M  V30 7490 H 684.21 2.23986 5.02106 0
M  V30 7491 H 685.435 2.69824 6.23195 0
M  V30 7492 H 683.381 0.475844 6.54272 0
M  V30 7493 H 683.298 2.04271 7.2788 0
M  V30 7494 H 684.566 0.945545 7.73744 0
M  V30 7495 N 688.795 -1.27931 0.920396 0
M  V30 7496 C 689.725 -2.29487 0.431024 0
M  V30 7497 C 690.706 -1.62435 -0.504861 0
M  V30 7498 O 691.891 -1.89797 -0.411176 0
M  V30 7499 C 689.021 -3.45788 -0.323709 0
M  V30 7500 C 687.975 -4.24784 0.523658 0
M  V30 7501 C 687.301 -5.33488 -0.359809 0
M  V30 7502 C 688.601 -4.90874 1.78437 0
M  V30 7503 H 690.295 -2.70671 1.27975 0
M  V30 7504 H 687.841 -1.30121 0.616813 0
M  V30 7505 H 689.794 -4.15927 -0.676952 0
M  V30 7506 H 688.518 -3.03502 -1.2064 0
M  V30 7507 H 687.177 -3.56382 0.85951 0
M  V30 7508 H 686.825 -4.87445 -1.24124 0
M  V30 7509 H 686.525 -5.87247 0.203605 0
M  V30 7510 H 688.049 -6.06472 -0.708787 0
M  V30 7511 H 689.463 -5.53339 1.49963 0
M  V30 7512 H 687.86 -5.54659 2.29071 0
M  V30 7513 H 688.93 -4.14988 2.50824 0
M  V30 7514 N 690.273 -0.685099 -1.4193 0
M  V30 7515 C 691.519 -0.211971 -2.01689 0
M  V30 7516 C 691.852 1.18189 -1.54094 0
M  V30 7517 O 691.127 1.79559 -0.747572 0
M  V30 7518 C 691.41 -0.258019 -3.59174 0
M  V30 7519 C 691.263 -1.68807 -4.16922 0
M  V30 7520 C 692.582 0.388044 -4.38386 0
M  V30 7521 H 689.701 -0.0784987 -0.732808 0
M  V30 7522 H 692.343 -0.871837 -1.68816 0
M  V30 7523 H 690.493 0.303832 -3.8731 0
M  V30 7524 H 692.165 -2.30296 -3.99702 0
M  V30 7525 H 690.408 -2.22553 -3.72361 0
M  V30 7526 H 691.079 -1.6719 -5.26072 0
M  V30 7527 H 693.555 -0.0903432 -4.16002 0
M  V30 7528 H 692.431 0.325232 -5.47936 0
M  V30 7529 H 692.692 1.4672 -4.17044 0
M  V30 7530 N 691.751 1.51645 -0.429126 0
M  V30 7531 C 693.162 1.86665 0.0359003 0
M  V30 7532 C 693.513 1.34677 1.42676 0
M  V30 7533 O 692.638 0.694195 2.04963 0
M  V30 7534 C 693.233 3.38724 0.0719221 0
M  V30 7535 C 691.792 3.7331 0.481336 0
M  V30 7536 C 690.939 2.75313 -0.331329 0
M  V30 7537 H 693.89 1.44987 -0.645333 0
M  V30 7538 H 693.911 3.7011 0.883118 0
M  V30 7539 H 693.423 3.76532 -0.940495 0
M  V30 7540 H 691.524 3.41088 1.49966 0
M  V30 7541 H 691.637 4.78631 0.211837 0
M  V30 7542 H 690.001 2.53839 0.209204 0
M  V30 7543 H 690.784 3.15963 -1.34247 0
M  V30 7544 N 693.229 0.160201 1.56784 0
M  V30 7545 C 694.159 -0.770264 2.2043 0
M  V30 7546 C 695.14 -1.24736 1.15651 0
M  V30 7547 O 696.325 -1.30253 1.44041 0
M  V30 7548 C 693.455 -2.00427 2.83631 0
M  V30 7549 C 692.409 -1.66345 3.94352 0
M  V30 7550 C 691.735 -2.97119 4.4455 0
M  V30 7551 C 693.035 -0.899972 5.14488 0
M  V30 7552 H 694.729 -0.239783 2.98438 0
M  V30 7553 H 692.275 -0.113891 1.43549 0
M  V30 7554 H 694.228 -2.66012 3.26827 0
M  V30 7555 H 692.952 -2.5587 2.02973 0
M  V30 7556 H 691.611 -1.03133 3.51794 0
M  V30 7557 H 691.259 -3.5058 3.60698 0
M  V30 7558 H 690.959 -2.75073 5.19238 0
M  V30 7559 H 692.483 -3.63753 4.90425 0
M  V30 7560 H 693.897 -1.45818 5.54446 0
M  V30 7561 H 692.294 -0.778968 5.95023 0
M  V30 7562 H 693.364 0.105827 4.84785 0
M  V30 7563 N 694.707 -1.5719 -0.113559 0
M  V30 7564 C 696.118 -1.74259 -0.670116 0
M  V30 7565 C 696.469 -0.779694 -1.80042 0
M  V30 7566 O 695.594 0.0461353 -2.16351 0
M  V30 7567 C 696.189 -3.15981 -1.22236 0
M  V30 7568 C 694.748 -3.34537 -1.72516 0
M  V30 7569 C 693.895 -2.70116 -0.627098 0
M  V30 7570 H 696.846 -1.58301 0.112396 0
M  V30 7571 H 696.867 -3.17832 -2.09197 0
M  V30 7572 H 696.379 -3.86038 -0.39949 0
M  V30 7573 H 694.48 -2.6953 -2.57263 0
M  V30 7574 H 694.593 -4.42737 -1.83086 0
M  V30 7575 H 692.957 -2.31501 -1.06204 0
M  V30 7576 H 693.74 -3.42802 0.184889 0
M  V30 7577 N 696.185 0.383891 -1.52853 0
M  V30 7578 C 697.415 1.14783 -1.7178 0
M  V30 7579 C 697.823 1.84055 -0.438211 0
M  V30 7580 O 697.166 1.73713 0.597465 0
M  V30 7581 C 697.228 2.23543 -2.81547 0
M  V30 7582 C 696.892 1.74195 -4.22499 0
M  V30 7583 C 697.889 1.21591 -5.05481 0
M  V30 7584 C 695.574 1.80262 -4.6884 0
M  V30 7585 C 697.568 0.757104 -6.32888 0
M  V30 7586 C 695.255 1.33993 -5.96229 0
M  V30 7587 C 696.253 0.818049 -6.78083 0
M  V30 7588 O 695.941 0.362123 -8.03084 0
M  V30 7589 H 695.673 0.349908 -0.578395 0
M  V30 7590 H 698.227 0.454377 -2.00311 0
M  V30 7591 H 696.457 2.96328 -2.48449 0
M  V30 7592 H 698.146 2.8519 -2.88828 0
M  V30 7593 H 698.912 1.16257 -4.7086 0
M  V30 7594 H 694.791 2.19825 -4.05213 0
M  V30 7595 H 698.335 0.34908 -6.96726 0
M  V30 7596 H 694.232 1.39015 -6.30353 0
M  V30 7597 H 695 0.483134 -8.17073 0
M  V30 7598 N 697.663 1.43903 0.642637 0
M  V30 7599 C 699.079 1.27536 0.959519 0
M  V30 7600 C 699.279 0.202751 2.00477 0
M  V30 7601 O 698.335 -0.415256 2.49062 0
M  V30 7602 C 699.648 2.6432 1.43372 0
M  V30 7603 C 701.196 2.71937 1.54981 0
M  V30 7604 C 701.671 4.09164 2.05789 0
M  V30 7605 N 703.162 4.11282 2.13076 0
M  V30 7606 C 703.897 5.14303 2.53534 0
M  V30 7607 N 703.393 6.27693 2.93212 0
M  V30 7608 N 705.186 5.01657 2.53567 0
M  V30 7609 H 697.337 2.12344 -0.0488376 0
M  V30 7610 H 699.6 0.947124 0.0407559 0
M  V30 7611 H 699.306 3.43826 0.740048 0
M  V30 7612 H 699.18 2.90432 2.40685 0
M  V30 7613 H 701.567 1.92757 2.23448 0
M  V30 7614 H 701.648 2.49578 0.560739 0
M  V30 7615 H 701.292 4.88815 1.37921 0
M  V30 7616 H 701.222 4.28893 3.05546 0
M  V30 7617 H 703.713 3.2944 1.85143 0
M  V30 7618 H 704.026 7.02125 3.22863 0
M  V30 7619 H 702.371 6.31149 2.90991 0
M  V30 7620 H 705.562 4.12134 2.21952 0
M  V30 7621 H 705.735 5.82072 2.84774 0
M  V30 7622 N 699.141 -0.881989 1.30609 0
M  V30 7623 C 700.366 -1.67236 1.22665 0
M  V30 7624 C 700.791 -1.8696 -0.206777 0
M  V30 7625 O 700.149 -1.4027 -1.14865 0
M  V30 7626 C 700.197 -3.02446 1.96363 0
M  V30 7627 O 699.301 -3.91614 1.29276 0
M  V30 7628 H 698.642 -0.510902 0.424117 0
M  V30 7629 H 701.172 -1.10055 1.72479 0
M  V30 7630 H 701.182 -3.52468 2.055 0
M  V30 7631 H 699.857 -2.8741 3.00613 0
M  V30 7632 H 698.434 -3.50055 1.28514 0
M  V30 7633 N 700.619 -1.13374 -1.09472 0
M  V30 7634 C 701.867 -0.893422 -1.8128 0
M  V30 7635 C 702.188 0.582029 -1.86111 0
M  V30 7636 O 701.458 1.42305 -1.34633 0
M  V30 7637 H 700.038 -0.327543 -0.67136 0
M  V30 7638 H 702.7 -1.43018 -1.32408 0
M  V30 7639 H 701.796 -1.28374 -2.84476 0
M  V30 7640 N 702.098 1.27442 -0.927168 0
M  V30 7641 C 703.344 1.94679 -0.568164 0
M  V30 7642 C 703.677 1.72697 0.888219 0
M  V30 7643 O 702.952 1.05573 1.63354 0
M  V30 7644 C 703.235 3.4882 -0.894253 0
M  V30 7645 C 703.088 3.80146 -2.40435 0
M  V30 7646 C 704.407 4.38281 -0.399766 0
M  V30 7647 H 701.526 0.707071 -0.207892 0
M  V30 7648 H 704.168 1.50568 -1.15885 0
M  V30 7649 H 702.318 3.86522 -0.391566 0
M  V30 7650 H 703.99 3.52238 -2.97869 0
M  V30 7651 H 702.233 3.26716 -2.85375 0
M  V30 7652 H 702.904 4.87835 -2.58304 0
M  V30 7653 H 705.38 4.07726 -0.83058 0
M  V30 7654 H 704.256 5.44955 -0.656885 0
M  V30 7655 H 704.517 4.36521 0.700153 0
M  V30 7656 N 703.576 0.692616 1.41565 0
M  V30 7657 C 704.486 0.0258451 2.34586 0
M  V30 7658 C 705.502 -0.769324 1.56069 0
M  V30 7659 O 706.678 -0.707563 1.88562 0
M  V30 7660 C 703.743 -0.901289 3.3478 0
M  V30 7661 C 702.804 -0.0986579 4.29187 0
M  V30 7662 C 702.037 -0.981634 5.24595 0
M  V30 7663 O 702.26 -2.22115 5.25377 0
M  V30 7664 O 701.194 -0.432892 6.00341 0
M  V30 7665 H 705.02 0.792537 2.93177 0
M  V30 7666 H 702.605 0.452935 1.42369 0
M  V30 7667 H 704.487 -1.43302 3.96286 0
M  V30 7668 H 703.162 -1.64752 2.78637 0
M  V30 7669 H 702.069 0.477604 3.71039 0
M  V30 7670 H 703.402 0.608848 4.8842 0
M  V30 7671 N 705.054 -1.51416 0.437162 0
M  V30 7672 C 706.465 -1.86682 -0.0260005 0
M  V30 7673 C 706.816 -1.35432 -1.4196 0
M  V30 7674 O 705.941 -0.705055 -2.04592 0
M  V30 7675 C 706.536 -3.38757 -0.0539577 0
M  V30 7676 C 705.095 -3.7356 -0.461532 0
M  V30 7677 C 704.242 -2.75134 0.345924 0
M  V30 7678 H 707.193 -1.44642 0.653013 0
M  V30 7679 H 707.214 -3.70573 -0.863478 0
M  V30 7680 H 706.726 -3.76028 0.96045 0
M  V30 7681 H 704.827 -3.41878 -1.48155 0
M  V30 7682 H 704.94 -4.78737 -0.186451 0
M  V30 7683 H 703.304 -2.53947 -0.195739 0
M  V30 7684 H 704.087 -3.15247 1.35921 0
M  V30 7685 N 706.532 -0.168513 -1.56696 0
M  V30 7686 C 707.948 0.187686 -1.58493 0
M  V30 7687 C 708.148 1.63063 -1.18375 0
M  V30 7688 O 707.204 2.36142 -0.894042 0
M  V30 7689 C 708.517 -0.0905858 -3.00564 0
M  V30 7690 C 710.065 -0.028575 -3.12987 0
M  V30 7691 C 710.54 -0.279799 -4.57145 0
M  V30 7692 N 712.031 -0.227476 -4.62641 0
M  V30 7693 C 712.766 -0.396073 -5.7203 0
M  V30 7694 N 712.262 -0.623572 -6.89988 0
M  V30 7695 N 714.055 -0.332173 -5.61118 0
M  V30 7696 H 706.206 -1.11042 -1.81062 0
M  V30 7697 H 708.469 -0.441235 -0.839056 0
M  V30 7698 H 708.175 -1.09006 -3.34381 0
M  V30 7699 H 708.049 0.619078 -3.72085 0
M  V30 7700 H 710.436 0.961471 -2.78998 0
M  V30 7701 H 710.517 -0.770905 -2.43907 0
M  V30 7702 H 710.161 -1.26704 -4.91842 0
M  V30 7703 H 710.091 0.48311 -5.24379 0
M  V30 7704 H 712.582 -0.0571723 -3.77857 0
M  V30 7705 H 712.895 -0.741745 -7.69232 0
M  V30 7706 H 711.24 -0.660153 -6.91858 0
M  V30 7707 H 714.431 -0.155051 -4.67843 0
M  V30 7708 H 714.604 -0.466994 -6.46315 0
M  V30 7709 N 708.01 1.57248 0.105221 0
M  V30 7710 C 709.257 1.8557 0.810552 0
M  V30 7711 C 709.585 0.755595 1.79223 0
M  V30 7712 O 708.84 -0.251788 1.94073 0
M  V30 7713 C 709.139 3.20437 1.58287 0
M  V30 7714 C 708.805 4.44716 0.744235 0
M  V30 7715 C 707.467 4.78458 0.513013 0
M  V30 7716 C 709.819 5.20953 0.160578 0
M  V30 7717 C 707.147 5.8587 -0.311894 0
M  V30 7718 C 709.499 6.29235 -0.651596 0
M  V30 7719 C 708.163 6.615 -0.893005 0
M  V30 7720 H 707.433 0.67905 0.296602 0
M  V30 7721 H 710.08 1.91363 0.0723968 0
M  V30 7722 H 708.385 3.10283 2.39232 0
M  V30 7723 H 710.082 3.39576 2.13282 0
M  V30 7724 H 706.672 4.18287 0.934555 0
M  V30 7725 H 710.856 4.95226 0.3264 0
M  V30 7726 H 706.112 6.09286 -0.508012 0
M  V30 7727 H 710.286 6.87484 -1.11077 0
M  V30 7728 H 707.913 7.44562 -1.53401 0
M  V30 7729 N 709.488 -0.375779 1.53054 0
M  V30 7730 C 710.418 -1.46598 1.81745 0
M  V30 7731 C 711.399 -1.56337 0.670286 0
M  V30 7732 O 712.584 -1.71071 0.919158 0
M  V30 7733 C 709.714 -2.84058 1.99821 0
M  V30 7734 C 708.668 -2.8915 3.15557 0
M  V30 7735 C 707.994 -4.29187 3.18908 0
M  V30 7736 C 709.294 -2.57595 4.54359 0
M  V30 7737 H 710.988 -1.22837 2.73041 0
M  V30 7738 H 708.534 -0.589485 1.31381 0
M  V30 7739 H 710.487 -3.60342 2.18475 0
M  V30 7740 H 709.211 -3.09184 1.05226 0
M  V30 7741 H 707.87 -2.15316 2.96706 0
M  V30 7742 H 707.518 -4.51374 2.2197 0
M  V30 7743 H 707.218 -4.33512 3.96662 0
M  V30 7744 H 708.742 -5.07359 3.39734 0
M  V30 7745 H 710.156 -3.23595 4.73243 0
M  V30 7746 H 708.553 -2.73252 5.34279 0
M  V30 7747 H 709.623 -1.52882 4.60169 0
M  V30 7748 N 710.966 -1.44241 -0.634997 0
M  V30 7749 C 711.913 -1.5081 -1.74714 0
M  V30 7750 C 712.883 -0.356147 -1.62237 0
M  V30 7751 O 714.068 -0.565848 -1.82216 0
M  V30 7752 C 711.208 -1.45458 -3.12947 0
M  V30 7753 C 710.321 -2.70998 -3.36428 0
M  V30 7754 C 709.456 -2.57507 -4.64611 0
M  V30 7755 C 708.495 -3.78229 -4.81258 0
M  V30 7756 N 707.632 -3.63438 -6.00714 0
M  V30 7757 H 712.472 -2.45832 -1.68436 0
M  V30 7758 H 710.009 -1.2201 -0.821706 0
M  V30 7759 H 711.967 -1.40347 -3.92885 0
M  V30 7760 H 710.597 -0.540058 -3.1825 0
M  V30 7761 H 709.649 -2.86312 -2.50458 0
M  V30 7762 H 710.961 -3.60619 -3.44609 0
M  V30 7763 H 710.115 -2.50207 -5.52703 0
M  V30 7764 H 708.854 -1.65441 -4.58782 0
M  V30 7765 H 707.859 -3.85918 -3.91596 0
M  V30 7766 H 709.084 -4.71327 -4.88904 0
M  V30 7767 H 707.03 -2.7412 -5.95982 0
M  V30 7768 H 706.947 -4.46672 -6.09934 0
M  V30 7769 H 708.215 -3.60022 -6.91378 0
M  V30 7770 N 712.444 0.87505 -1.31075 0
M  V30 7771 C 713.691 1.62768 -1.20469 0
M  V30 7772 C 714.019 1.93034 0.23834 0
M  V30 7773 O 713.274 1.55693 1.18567 0
M  V30 7774 C 713.573 2.96948 -1.98888 0
M  V30 7775 C 713.239 2.86195 -3.4843 0
M  V30 7776 C 711.901 2.82969 -3.89207 0
M  V30 7777 C 714.253 2.73599 -4.43614 0
M  V30 7778 C 711.581 2.64999 -5.23443 0
M  V30 7779 C 713.933 2.57166 -5.77969 0
M  V30 7780 C 712.597 2.52321 -6.17973 0
M  V30 7781 H 711.867 0.595611 -0.440827 0
M  V30 7782 H 714.514 1.01665 -1.62285 0
M  V30 7783 H 712.819 3.62058 -1.49737 0
M  V30 7784 H 714.516 3.54164 -1.88067 0
M  V30 7785 H 711.106 2.8952 -3.16032 0
M  V30 7786 H 715.29 2.7515 -4.13045 0
M  V30 7787 H 710.546 2.5967 -5.53517 0
M  V30 7788 H 714.72 2.46396 -6.51354 0
M  V30 7789 H 712.347 2.38156 -7.21932 0
M  V30 7790 N 713.922 1.13953 1.08869 0
M  V30 7791 C 714.869 0.82213 2.15661 0
M  V30 7792 C 715.839 -0.218274 1.6466 0
M  V30 7793 O 717.024 -0.0892475 1.90591 0
M  V30 7794 C 714.164 0.300572 3.43789 0
M  V30 7795 C 713.277 1.40071 4.08661 0
M  V30 7796 C 712.412 0.836897 5.24566 0
M  V30 7797 C 711.451 1.91504 5.81371 0
M  V30 7798 N 710.588 1.36875 6.88629 0
M  V30 7799 H 715.428 1.73683 2.42153 0
M  V30 7800 H 712.965 0.866879 1.18843 0
M  V30 7801 H 714.923 -0.0199943 4.17195 0
M  V30 7802 H 713.553 -0.577248 3.17597 0
M  V30 7803 H 712.605 1.83776 3.33062 0
M  V30 7804 H 713.917 2.21534 4.46905 0
M  V30 7805 H 713.071 0.467953 6.04893 0
M  V30 7806 H 711.81 -0.00874207 4.87699 0
M  V30 7807 H 710.815 2.29299 4.99702 0
M  V30 7808 H 712.04 2.76419 6.20298 0
M  V30 7809 H 709.986 0.545211 6.5373 0
M  V30 7810 H 709.903 2.1198 7.25672 0
M  V30 7811 H 711.171 1.02756 7.72698 0
M  V30 7812 N 715.4 -1.26948 0.933913 0
M  V30 7813 C 716.628 -1.98186 0.59414 0
M  V30 7814 C 717.043 -1.69614 -0.829257 0
M  V30 7815 O 716.4 -0.960213 -1.55197 0
M  V30 7816 C 716.451 -3.52123 0.818026 0
M  V30 7817 O 716.172 -3.79698 2.18543 0
M  V30 7818 C 717.673 -4.40608 0.48781 0
M  V30 7819 H 714.893 -0.632305 0.224569 0
M  V30 7820 H 717.437 -1.61646 1.25263 0
M  V30 7821 H 715.592 -3.86851 0.206246 0
M  V30 7822 H 716.006 -4.7426 2.24005 0
M  V30 7823 H 717.48 -5.47606 0.695126 0
M  V30 7824 H 717.957 -4.35394 -0.576913 0
M  V30 7825 H 718.563 -4.11411 1.078 0
M  V30 7826 N 716.879 -0.700114 -1.41195 0
M  V30 7827 C 717.842 -0.0465706 -2.29153 0
M  V30 7828 C 718.842 0.703302 -1.44604 0
M  V30 7829 O 720.032 0.537513 -1.657 0
M  V30 7830 C 717.164 0.944324 -3.2756 0
M  V30 7831 H 718.357 -0.821064 -2.88442 0
M  V30 7832 H 715.91 -0.463869 -1.49258 0
M  V30 7833 H 716.645 1.74642 -2.73259 0
M  V30 7834 H 716.43 0.409701 -3.89954 0
M  V30 7835 H 717.92 1.39925 -3.9346 0
M  V30 7836 N 718.357 1.51182 -0.445186 0
M  V30 7837 C 719.585 2.06568 0.117091 0
M  V30 7838 C 720 1.31182 1.35781 0
M  V30 7839 O 719.357 0.373605 1.78635 0
M  V30 7840 C 719.408 3.58917 0.431408 0
M  V30 7841 O 719.129 4.31456 -0.760078 0
M  V30 7842 C 720.63 4.30843 1.0435 0
M  V30 7843 H 717.85 0.670985 0.00444436 0
M  V30 7844 H 720.394 1.94666 -0.626525 0
M  V30 7845 H 718.549 3.70708 1.12493 0
M  V30 7846 H 718.963 5.22215 -0.489048 0
M  V30 7847 H 720.437 5.38499 1.21337 0
M  V30 7848 H 720.914 3.89644 2.02667 0
M  V30 7849 H 721.52 4.23516 0.38913 0
M  V30 7850 N 719.835 0.176821 1.56605 0
M  V30 7851 C 720.782 -0.751312 2.18229 0
M  V30 7852 C 721.752 -1.22297 1.12395 0
M  V30 7853 O 722.937 -1.29015 1.40569 0
M  V30 7854 C 720.077 -1.97291 2.83143 0
M  V30 7855 C 719.19 -1.54431 4.03454 0
M  V30 7856 C 718.325 -2.72 4.56278 0
M  V30 7857 C 717.364 -2.25657 5.68986 0
M  V30 7858 N 716.501 -3.36338 6.16296 0
M  V30 7859 H 721.341 -0.219033 2.97194 0
M  V30 7860 H 718.878 -0.0963803 1.46784 0
M  V30 7861 H 720.836 -2.68949 3.1894 0
M  V30 7862 H 719.466 -2.4788 2.06773 0
M  V30 7863 H 718.518 -0.724273 3.73441 0
M  V30 7864 H 719.83 -1.16417 4.85024 0
M  V30 7865 H 718.984 -3.51806 4.94285 0
M  V30 7866 H 717.723 -3.13277 3.73777 0
M  V30 7867 H 716.728 -1.44299 5.30526 0
M  V30 7868 H 717.953 -1.85432 6.53293 0
M  V30 7869 H 715.899 -3.7718 5.36723 0
M  V30 7870 H 715.816 -3.02435 6.9287 0
M  V30 7871 H 717.084 -4.16413 6.58954 0
M  V30 7872 N 721.313 -1.57302 -0.09688 0
M  V30 7873 C 722.243 -2.0497 -1.11846 0
M  V30 7874 C 723.224 -0.938278 -1.41882 0
M  V30 7875 O 724.409 -1.20943 -1.51942 0
M  V30 7876 C 721.539 -2.47264 -2.43881 0
M  V30 7877 C 720.493 -3.62053 -2.28257 0
M  V30 7878 C 719.819 -3.90318 -3.65453 0
M  V30 7879 C 721.119 -4.93005 -1.72461 0
M  V30 7880 H 722.813 -2.90567 -0.721888 0
M  V30 7881 H 720.359 -1.39786 -0.345803 0
M  V30 7882 H 722.312 -2.7922 -3.15617 0
M  V30 7883 H 721.036 -1.58664 -2.8547 0
M  V30 7884 H 719.695 -3.30341 -1.58967 0
M  V30 7885 H 719.343 -2.98889 -4.04567 0
M  V30 7886 H 719.043 -4.67597 -3.55846 0
M  V30 7887 H 720.567 -4.24747 -4.3866 0
M  V30 7888 H 721.981 -5.23354 -2.34036 0
M  V30 7889 H 720.378 -5.74436 -1.73618 0
M  V30 7890 H 721.448 -4.80053 -0.683898 0
M  V30 7891 N 722.791 0.367657 -1.53252 0
M  V30 7892 C 724.068 1.12606 -1.59935 0
M  V30 7893 C 724.448 2.07167 -0.405606 0
M  V30 7894 O 723.796 2.20364 0.604323 0
M  V30 7895 C 724.006 1.86699 -2.94863 0
M  V30 7896 C 725.354 2.41306 -3.49366 0
M  V30 7897 O 726.378 1.96828 -2.96879 0
M  V30 7898 O 725.237 3.2261 -4.41118 0
M  V30 7899 H 722.331 0.516438 -0.645926 0
M  V30 7900 H 724.877 0.371088 -1.65593 0
M  V30 7901 H 723.649 1.17674 -3.73187 0
M  V30 7902 H 723.272 2.6911 -2.92687 0
M  V30 7903 N 724.269 1.44576 0.627338 0
M  V30 7904 C 725.179 1.54232 1.76776 0
M  V30 7905 C 726.195 0.427782 1.6866 0
M  V30 7906 O 727.371 0.685671 1.89369 0
M  V30 7907 C 724.436 1.48738 3.13174 0
M  V30 7908 C 723.497 2.71074 3.32893 0
M  V30 7909 C 722.73 2.65832 4.62784 0
M  V30 7910 O 722.953 1.72048 5.43834 0
M  V30 7911 O 721.887 3.56742 4.84787 0
M  V30 7912 H 725.713 2.50586 1.71582 0
M  V30 7913 H 723.298 1.26865 0.789028 0
M  V30 7914 H 725.18 1.48211 3.94476 0
M  V30 7915 H 723.855 0.555292 3.18902 0
M  V30 7916 H 722.762 2.77168 2.51254 0
M  V30 7917 H 724.095 3.63342 3.32029 0
M  V30 7918 N 725.747 -0.868086 1.31537 0
M  V30 7919 C 726.994 -1.62127 1.2133 0
M  V30 7920 C 727.322 -1.93158 -0.2281 0
M  V30 7921 O 726.577 -1.5632 -1.1774 0
M  V30 7922 C 726.876 -2.95889 2.0046 0
M  V30 7923 C 726.542 -2.84343 3.49943 0
M  V30 7924 C 725.204 -2.80901 3.90702 0
M  V30 7925 C 727.556 -2.71243 4.45058 0
M  V30 7926 C 724.884 -2.6222 5.24841 0
M  V30 7927 C 727.236 -2.54098 5.79325 0
M  V30 7928 C 725.9 -2.4904 6.19302 0
M  V30 7929 H 725.17 -0.593265 0.443979 0
M  V30 7930 H 727.817 -1.00803 1.62822 0
M  V30 7931 H 726.122 -3.61259 1.51655 0
M  V30 7932 H 727.819 -3.53161 1.89942 0
M  V30 7933 H 724.409 -2.8784 3.17563 0
M  V30 7934 H 728.593 -2.72956 4.14498 0
M  V30 7935 H 723.849 -2.56731 5.54887 0
M  V30 7936 H 728.023 -2.42938 6.52652 0
M  V30 7937 H 725.65 -2.34324 7.23185 0
M  V30 7938 N 727.225 -1.14528 -1.08264 0
M  V30 7939 C 728.453 -0.937964 -1.84418 0
M  V30 7940 C 728.868 0.51357 -1.81681 0
M  V30 7941 O 728.225 1.35591 -1.22153 0
M  V30 7942 C 728.276 -1.43272 -3.31897 0
M  V30 7943 O 727.997 -2.82738 -3.34651 0
M  V30 7944 C 729.498 -1.26555 -4.24851 0
M  V30 7945 H 726.718 -0.333704 -0.582136 0
M  V30 7946 H 729.262 -1.52076 -1.36723 0
M  V30 7947 H 727.417 -0.892653 -3.76975 0
M  V30 7948 H 727.831 -3.04971 -4.26724 0
M  V30 7949 H 729.305 -1.66031 -5.26439 0
M  V30 7950 H 729.782 -0.208589 -4.38704 0
M  V30 7951 H 730.388 -1.79423 -3.856 0
M  V30 7952 N 728.703 1.26451 -0.940633 0
M  V30 7953 C 729.951 1.93395 -0.586748 0
M  V30 7954 C 730.272 1.7417 0.876921 0
M  V30 7955 O 729.542 1.097 1.62304 0
M  V30 7956 H 728.122 0.715687 -0.214012 0
M  V30 7957 H 730.784 1.53902 -1.19584 0
M  V30 7958 H 729.88 3.01565 -0.804059 0
M  V30 7959 N 730.181 0.707592 1.40822 0
M  V30 7960 C 731.091 0.0507246 2.34545 0
M  V30 7961 C 732.107 -0.752727 1.56876 0
M  V30 7962 O 733.283 -0.687524 1.89302 0
M  V30 7963 C 730.348 -0.865731 3.35717 0
M  V30 7964 C 729.409 -0.0531313 4.29267 0
M  V30 7965 C 728.642 -0.925939 5.25606 0
M  V30 7966 O 728.865 -2.16531 5.27703 0
M  V30 7967 O 727.799 -0.369194 6.00767 0
M  V30 7968 H 731.625 0.823587 2.9232 0
M  V30 7969 H 729.21 0.46801 1.4188 0
M  V30 7970 H 731.092 -1.39091 3.97783 0
M  V30 7971 H 729.767 -1.61788 2.80368 0
M  V30 7972 H 728.674 0.516931 3.70511 0
M  V30 7973 H 730.007 0.660617 4.87747 0
M  V30 7974 N 731.66 -1.50943 0.453197 0
M  V30 7975 C 732.888 -2.06628 -0.106135 0
M  V30 7976 C 733.303 -1.31901 -1.35084 0
M  V30 7977 O 732.66 -0.383074 -1.78434 0
M  V30 7978 C 732.711 -3.5914 -0.412368 0
M  V30 7979 O 732.432 -4.31047 0.782948 0
M  V30 7980 C 733.933 -4.31391 -1.02064 0
M  V30 7981 H 731.153 -0.670999 -0.000885896 0
M  V30 7982 H 733.697 -1.94331 0.63684 0
M  V30 7983 H 731.852 -3.71299 -1.10526 0
M  V30 7984 H 732.266 -5.21948 0.516736 0
M  V30 7985 H 733.74 -5.39135 -1.1848 0
M  V30 7986 H 734.217 -3.90714 -2.00598 0
M  V30 7987 H 734.823 -4.23716 -0.366664 0
M  V30 7988 N 733.138 -0.185124 -1.56509 0
M  V30 7989 C 734.086 0.756505 -2.19954 0
M  V30 7990 C 735.08 1.22725 -1.16769 0
M  V30 7991 O 736.286 1.1913 -1.34937 0
M  V30 7992 H 732.661 0.262279 -0.704779 0
M  V30 7993 H 734.632 0.197587 -2.97745 0
M  V30 7994 C 733.381 1.96975 -2.86524 0
M  V30 7995 H 732.704 1.61658 -3.65659 0
M  V30 7996 H 734.144 2.60719 -3.34367 0
M  V30 7997 C 732.603 2.80219 -1.87027 0
M  V30 7998 O 733.133 3.77821 -1.36433 0
M  V30 7999 N 731.339 2.4551 -1.55477 0
M  V30 8000 H 730.886 1.66199 -1.96813 0
M  V30 8001 H 730.844 3.01493 -0.891597 0
M  V30 8002 N 734.616 1.57351 0.0885366 0
M  V30 8003 C 736.032 1.53331 0.442916 0
M  V30 8004 C 736.232 0.902831 1.80142 0
M  V30 8005 O 735.288 0.498147 2.47537 0
M  V30 8006 C 736.601 2.98036 0.399372 0
M  V30 8007 C 738.149 3.09286 0.480759 0
M  V30 8008 C 738.624 4.5561 0.467296 0
M  V30 8009 N 740.115 4.60182 0.52786 0
M  V30 8010 C 740.85 5.70857 0.539388 0
M  V30 8011 N 740.346 6.90944 0.506729 0
M  V30 8012 N 742.139 5.59051 0.584691 0
M  V30 8013 H 734.29 1.96709 -0.801215 0
M  V30 8014 H 736.553 0.899639 -0.298922 0
M  V30 8015 H 736.259 3.47656 -0.531806 0
M  V30 8016 H 736.133 3.57066 1.21589 0
M  V30 8017 H 738.52 2.5965 1.40236 0
M  V30 8018 H 738.601 2.53197 -0.364023 0
M  V30 8019 H 738.245 5.05899 -0.450384 0
M  V30 8020 H 738.175 5.09544 1.32938 0
M  V30 8021 H 740.666 3.73757 0.558028 0
M  V30 8022 H 740.979 7.71055 0.518989 0
M  V30 8023 H 739.324 6.93384 0.473675 0
M  V30 8024 H 742.515 4.64138 0.607781 0
M  V30 8025 H 742.688 6.45307 0.590206 0
M  V30 8026 N 736.094 -0.359525 1.53444 0
M  V30 8027 C 737.343 -1.09886 1.69139 0
M  V30 8028 C 737.656 -1.90285 0.452863 0
M  V30 8029 O 738.862 -2.67033 0.490459 0
M  V30 8030 C 737.318 -2.0028 2.99025 0
M  V30 8031 C 736.926 -1.25164 4.30161 0
M  V30 8032 C 738.67 -2.74168 3.24086 0
M  V30 8033 C 736.577 -2.14494 5.51132 0
M  V30 8034 H 735.507 -0.413936 0.630217 0
M  V30 8035 H 738.158 -0.359434 1.79945 0
M  V30 8036 H 736.54 -2.77978 2.82036 0
M  V30 8037 H 737.714 -0.524867 4.57801 0
M  V30 8038 H 736.029 -0.631116 4.11589 0
M  V30 8039 H 738.626 -3.41243 4.11652 0
M  V30 8040 H 738.969 -3.39868 2.40407 0
M  V30 8041 H 739.502 -2.0355 3.41778 0
M  V30 8042 H 736.241 -1.53362 6.37307 0
M  V30 8043 H 735.761 -2.85004 5.27762 0
M  V30 8044 H 737.44 -2.73914 5.86157 0
M  V30 8045 N 737.572 -1.44907 -0.619662 0
M  V30 8046 C 738.8 -1.51795 -1.40591 0
M  V30 8047 C 739.215 -0.146553 -1.8823 0
M  V30 8048 O 738.572 0.849698 -1.61513 0
M  V30 8049 C 738.623 -2.49229 -2.61853 0
M  V30 8050 O 738.344 -3.81039 -2.16197 0
M  V30 8051 C 739.845 -2.65696 -3.54853 0
M  V30 8052 H 737.065 -0.514463 -0.430777 0
M  V30 8053 H 739.609 -1.8998 -0.756813 0
M  V30 8054 H 737.764 -2.14149 -3.2283 0
M  V30 8055 H 738.178 -4.33747 -2.94896 0
M  V30 8056 H 739.652 -3.37874 -4.36515 0
M  V30 8057 H 740.129 -1.71316 -4.0441 0
M  V30 8058 H 740.735 -3.01724 -2.99737 0
M  V30 8059 N 739.05 0.861098 -1.31996 0
M  V30 8060 C 740.296 1.61721 -1.22369 0
M  V30 8061 C 740.629 1.93 0.215587 0
M  V30 8062 O 739.904 1.56789 1.15098 0
M  V30 8063 C 740.187 2.9417 -2.07691 0
M  V30 8064 C 740.04 2.69714 -3.59965 0
M  V30 8065 C 741.359 3.95372 -1.93312 0
M  V30 8066 H 738.478 0.586822 -0.44588 0
M  V30 8067 H 741.12 0.994788 -1.61876 0
M  V30 8068 H 739.27 3.47292 -1.74128 0
M  V30 8069 H 740.942 2.23196 -4.03709 0
M  V30 8070 H 739.185 2.03789 -3.82952 0
M  V30 8071 H 739.856 3.63996 -4.14983 0
M  V30 8072 H 742.332 3.51487 -2.22701 0
M  V30 8073 H 741.208 4.85916 -2.55298 0
M  V30 8074 H 741.469 4.32865 -0.898922 0
M  V30 8075 N 740.528 1.15101 1.07655 0
M  V30 8076 C 741.753 0.948177 1.84457 0
M  V30 8077 C 742.178 -0.498432 1.81376 0
M  V30 8078 O 741.536 -1.35509 1.20445 0
M  V30 8079 C 741.584 1.46318 3.29581 0
M  V30 8080 O 740.688 0.660342 4.07079 0
M  V30 8081 H 740.029 0.338428 0.571281 0
M  V30 8082 H 742.559 1.5301 1.35828 0
M  V30 8083 H 742.569 1.47468 3.80417 0
M  V30 8084 H 741.244 2.51635 3.31138 0
M  V30 8085 H 739.821 0.718216 3.65918 0
M  V30 8086 N 742.006 -1.2595 0.947325 0
M  V30 8087 C 743.417 -1.75389 0.639963 0
M  V30 8088 C 743.768 -1.77081 -0.844788 0
M  V30 8089 O 742.893 -1.3869 -1.66114 0
M  V30 8090 C 743.488 -3.18506 1.15496 0
M  V30 8091 C 742.047 -3.65534 0.897894 0
M  V30 8092 C 741.194 -2.44818 1.30228 0
M  V30 8093 H 744.145 -1.1194 1.12495 0
M  V30 8094 H 744.166 -3.77045 0.511627 0
M  V30 8095 H 743.678 -3.17243 2.23559 0
M  V30 8096 H 741.779 -3.72221 -0.168096 0
M  V30 8097 H 741.892 -4.54039 1.52922 0
M  V30 8098 H 740.256 -2.44291 0.720678 0
M  V30 8099 H 741.039 -2.46251 2.39198 0
M  V30 8100 N 743.484 -0.715051 -1.40445 0
M  V30 8101 C 744.712 -0.263959 -2.05209 0
M  V30 8102 C 745.127 1.09403 -1.53871 0
M  V30 8103 O 744.484 1.68746 -0.695064 0
M  V30 8104 C 744.535 -0.234545 -3.60738 0
M  V30 8105 O 744.256 -1.53891 -4.10182 0
M  V30 8106 C 745.757 0.235164 -4.42676 0
M  V30 8107 H 742.977 -0.11876 -0.660407 0
M  V30 8108 H 745.521 -0.973107 -1.79864 0
M  V30 8109 H 743.676 0.425563 -3.85055 0
M  V30 8110 H 744.09 -1.43903 -5.04373 0
M  V30 8111 H 745.564 0.204598 -5.51621 0
M  V30 8112 H 746.041 1.27724 -4.20218 0
M  V30 8113 H 746.647 -0.394649 -4.23465 0
M  V30 8114 N 744.962 1.50701 -0.461195 0
M  V30 8115 C 746.192 2.06381 0.0950376 0
M  V30 8116 C 746.6 1.32627 1.34933 0
M  V30 8117 O 745.943 0.386137 1.79596 0
M  V30 8118 C 746.005 3.56558 0.458965 0
M  V30 8119 C 745.669 4.51732 -0.691891 0
M  V30 8120 C 746.666 4.95594 -1.57105 0
M  V30 8121 C 744.351 4.94542 -0.879407 0
M  V30 8122 C 746.345 5.80963 -2.62223 0
M  V30 8123 C 744.032 5.79695 -1.93382 0
M  V30 8124 C 745.03 6.22806 -2.80359 0
M  V30 8125 O 744.718 7.06265 -3.83986 0
M  V30 8126 H 744.45 0.676 0.000687488 0
M  V30 8127 H 747.004 1.94974 -0.646087 0
M  V30 8128 H 745.234 3.65832 1.25314 0
M  V30 8129 H 746.923 3.94647 0.949124 0
M  V30 8130 H 747.689 4.63197 -1.43783 0
M  V30 8131 H 743.568 4.60513 -0.211907 0
M  V30 8132 H 747.112 6.14533 -3.30143 0
M  V30 8133 H 743.009 6.11506 -2.06715 0
M  V30 8134 H 743.777 7.24494 -3.80855 0
M  V30 8135 N 746.441 0.193421 1.56409 0
M  V30 8136 C 747.69 -0.445995 1.96707 0
M  V30 8137 C 748.003 -1.62876 1.08309 0
M  V30 8138 O 749.209 -2.33586 1.38383 0
M  V30 8139 C 747.665 -0.844863 3.49843 0
M  V30 8140 C 747.273 0.31352 4.46902 0
M  V30 8141 C 749.017 -1.45146 3.98915 0
M  V30 8142 C 746.924 -0.106214 5.91305 0
M  V30 8143 H 745.854 -0.170398 0.734493 0
M  V30 8144 H 748.505 0.285172 1.81271 0
M  V30 8145 H 746.887 -1.63265 3.60778 0
M  V30 8146 H 748.061 1.09103 4.47698 0
M  V30 8147 H 746.376 0.8315 4.08014 0
M  V30 8148 H 748.973 -1.77792 5.04276 0
M  V30 8149 H 749.316 -2.35734 3.43126 0
M  V30 8150 H 749.849 -0.727675 3.91088 0
M  V30 8151 H 746.588 0.765442 6.51016 0
M  V30 8152 H 746.108 -0.848623 5.93766 0
M  V30 8153 H 747.787 -0.542588 6.44721 0
M  V30 8154 N 747.919 -1.57396 -0.0801906 0
M  V30 8155 C 748.852 -1.98386 -1.12774 0
M  V30 8156 C 749.83 -0.859423 -1.38031 0
M  V30 8157 O 751.014 -1.12101 -1.51544 0
M  V30 8158 C 748.141 -2.3134 -2.47386 0
M  V30 8159 C 747.187 -3.53706 -2.38316 0
M  V30 8160 S 748.02 -5.04862 -1.78534 0
M  V30 8161 C 749.176 -5.41008 -3.1474 0
M  V30 8162 H 749.409 -2.86929 -0.778382 0
M  V30 8163 H 746.942 -1.51682 -0.28842 0
M  V30 8164 H 748.9 -2.51 -3.24822 0
M  V30 8165 H 747.561 -1.4334 -2.79486 0
M  V30 8166 H 746.754 -3.74253 -3.37566 0
M  V30 8167 H 746.356 -3.33632 -1.69014 0
M  V30 8168 H 748.648 -5.38565 -4.1104 0
M  V30 8169 H 749.591 -6.41885 -2.98981 0
M  V30 8170 H 749.999 -4.68467 -3.14958 0
M  V30 8171 N 749.397 0.351382 -1.53633 0
M  V30 8172 C 750.36 1.41403 -1.80383 0
M  V30 8173 C 751.36 1.45963 -0.674635 0
M  V30 8174 O 752.55 1.46476 -0.942895 0
M  V30 8175 C 749.682 2.80401 -1.93876 0
M  V30 8176 H 750.875 1.18951 -2.75301 0
M  V30 8177 H 748.428 0.58533 -1.44926 0
M  V30 8178 H 749.163 3.08147 -1.01074 0
M  V30 8179 H 748.948 2.78488 -2.7602 0
M  V30 8180 H 750.438 3.57329 -2.16116 0
M  V30 8181 N 750.875 1.45233 0.611969 0
M  V30 8182 C 752.124 1.48296 1.36716 0
M  V30 8183 C 752.437 0.12706 1.95187 0
M  V30 8184 O 753.643 0.0353066 2.71477 0
M  V30 8185 C 752.099 2.61168 2.47627 0
M  V30 8186 C 751.707 4.03051 1.95587 0
M  V30 8187 C 753.451 2.73472 3.24674 0
M  V30 8188 C 751.358 5.07312 3.03954 0
M  V30 8189 H 750.288 0.5518 0.513841 0
M  V30 8190 H 752.939 1.7136 0.656359 0
M  V30 8191 H 751.321 2.31379 3.21372 0
M  V30 8192 H 752.495 4.42497 1.2858 0
M  V30 8193 H 750.81 3.95158 1.31298 0
M  V30 8194 H 753.407 3.48537 4.05494 0
M  V30 8195 H 753.75 1.79953 3.75397 0
M  V30 8196 H 754.283 3.02765 2.58028 0
M  V30 8197 H 751.022 6.02525 2.58154 0
M  V30 8198 H 750.542 4.7244 3.69541 0
M  V30 8199 H 752.221 5.31867 3.6841 0
M  V30 8200 N 752.353 -0.854086 1.3245 0
M  V30 8201 C 753.6 -1.60831 1.23043 0
M  V30 8202 C 753.928 -1.93389 -0.2076 0
M  V30 8203 O 753.183 -1.5756 -1.16075 0
M  V30 8204 C 753.482 -2.93746 2.03587 0
M  V30 8205 C 753.148 -2.80615 3.52939 0
M  V30 8206 C 751.81 -2.76742 3.93659 0
M  V30 8207 C 754.162 -2.66507 4.4791 0
M  V30 8208 C 751.49 -2.56638 5.27592 0
M  V30 8209 C 753.842 -2.47939 5.81987 0
M  V30 8210 C 752.506 -2.42458 6.21909 0
M  V30 8211 H 751.776 -0.588523 0.450247 0
M  V30 8212 H 754.423 -0.990699 1.63882 0
M  V30 8213 H 752.728 -3.5963 1.55478 0
M  V30 8214 H 754.425 -3.51127 1.93677 0
M  V30 8215 H 751.015 -2.84456 3.20598 0
M  V30 8216 H 755.199 -2.68544 4.1737 0
M  V30 8217 H 750.455 -2.50831 5.57579 0
M  V30 8218 H 754.629 -2.36002 6.55192 0
M  V30 8219 H 752.256 -2.2664 7.2563 0
M  V30 8220 N 753.831 -1.1567 -1.07043 0
M  V30 8221 C 754.779 -0.852204 -2.16426 0
M  V30 8222 C 755.773 0.175661 -1.68487 0
M  V30 8223 O 756.979 0.0303874 -1.79974 0
M  V30 8224 H 753.354 -0.257942 -0.706378 0
M  V30 8225 H 755.325 -1.78231 -2.39324 0
M  V30 8226 C 754.074 -0.361362 -3.45817 0
M  V30 8227 H 753.397 -1.14369 -3.83092 0
M  V30 8228 H 754.837 -0.186997 -4.23587 0
M  V30 8229 C 753.296 0.917703 -3.2416 0
M  V30 8230 O 753.826 1.98858 -3.49025 0
M  V30 8231 N 752.032 0.858456 -2.77631 0
M  V30 8232 H 751.579 -0.0131821 -2.57597 0
M  V30 8233 H 751.537 1.71478 -2.6352 0
M  V30 8234 N 755.309 1.25446 -0.953992 0
M  V30 8235 C 756.272 2.24156 -0.478179 0
M  V30 8236 C 757.272 1.55278 0.417776 0
M  V30 8237 O 758.462 1.72866 0.215155 0
M  V30 8238 C 755.594 3.39495 0.309202 0
M  V30 8239 H 756.787 2.67764 -1.35064 0
M  V30 8240 H 754.34 1.37822 -0.737206 0
M  V30 8241 H 755.075 3.01307 1.19936 0
M  V30 8242 H 754.86 3.90679 -0.333562 0
M  V30 8243 H 756.35 4.12796 0.631594 0
M  V30 8244 N 756.787 0.722489 1.40064 0
M  V30 8245 C 758.015 0.274838 2.05066 0
M  V30 8246 C 758.43 -1.08586 1.54449 0
M  V30 8247 O 757.787 -1.68375 0.704003 0
M  V30 8248 C 757.838 0.253673 3.60609 0
M  V30 8249 O 757.559 1.56064 4.0936 0
M  V30 8250 C 759.06 -0.211684 4.42794 0
M  V30 8251 H 756.28 0.12226 0.659768 0
M  V30 8252 H 758.824 0.982632 1.79345 0
M  V30 8253 H 756.979 -0.405137 3.85276 0
M  V30 8254 H 757.393 1.46576 5.03603 0
M  V30 8255 H 758.867 -0.175341 5.51721 0
M  V30 8256 H 759.344 -1.25493 4.2089 0
M  V30 8257 H 759.95 0.4171 4.2325 0
M  V30 8258 N 758.265 -1.50454 0.469181 0
M  V30 8259 C 759.676 -1.86695 0.0136034 0
M  V30 8260 C 760.027 -1.38413 -1.39055 0
M  V30 8261 O 759.152 -0.748294 -2.03051 0
M  V30 8262 C 759.747 -3.38795 0.0179098 0
M  V30 8263 C 758.306 -3.74455 -0.382191 0
M  V30 8264 C 757.453 -2.74338 0.404207 0
M  V30 8265 H 760.404 -1.43225 0.683547 0
M  V30 8266 H 760.425 -3.72321 -0.78468 0
M  V30 8267 H 759.937 -3.73906 1.04 0
M  V30 8268 H 758.038 -3.44944 -1.4087 0
M  V30 8269 H 758.151 -4.79025 -0.084862 0
M  V30 8270 H 756.515 -2.54305 -0.141829 0
M  V30 8271 H 757.298 -3.12293 1.42577 0
M  V30 8272 N 759.743 -0.201713 -1.56304 0
M  V30 8273 C 761.02 0.483273 -1.89536 0
M  V30 8274 C 761.4 1.79176 -1.11621 0
M  V30 8275 O 760.748 2.27445 -0.219339 0
M  V30 8276 C 760.958 0.695604 -3.41998 0
M  V30 8277 C 762.306 1.012 -4.12364 0
M  V30 8278 O 763.33 0.783094 -3.47485 0
M  V30 8279 O 762.189 1.44534 -5.27041 0
M  V30 8280 H 759.283 0.252801 -0.787414 0
M  V30 8281 H 761.829 -0.24242 -1.6796 0
M  V30 8282 H 760.601 -0.228165 -3.90634 0
M  V30 8283 H 760.224 1.47351 -3.69288 0
M  V30 8284 N 761.222 1.57436 0.0718424 0
M  V30 8285 C 762.447 1.91858 0.787745 0
M  V30 8286 C 762.872 0.798119 1.70328 0
M  V30 8287 O 762.23 -0.24905 1.79581 0
M  V30 8288 C 762.278 3.25232 1.55744 0
M  V30 8289 O 761.382 3.14462 2.6681 0
M  V30 8290 H 760.723 0.628258 0.214914 0
M  V30 8291 H 763.253 2.04561 0.0401012 0
M  V30 8292 H 763.263 3.59105 1.9367 0
M  V30 8293 H 761.938 4.0636 0.885691 0
M  V30 8294 H 760.515 2.92148 2.31741 0
M  V30 8295 N 762.7 -0.34323 1.53817 0
M  V30 8296 C 763.947 -1.08344 1.71079 0
M  V30 8297 C 764.275 -1.88633 0.474133 0
M  V30 8298 O 763.53 -1.87984 -0.544116 0
M  V30 8299 C 763.829 -2.05195 2.92626 0
M  V30 8300 C 763.495 -1.41215 4.28216 0
M  V30 8301 C 762.157 -1.23495 4.65083 0
M  V30 8302 C 764.509 -0.951273 5.12445 0
M  V30 8303 C 761.837 -0.583065 5.83796 0
M  V30 8304 C 764.189 -0.313292 6.31824 0
M  V30 8305 C 762.853 -0.123779 6.67385 0
M  V30 8306 H 762.123 -0.396458 0.626021 0
M  V30 8307 H 764.77 -0.362689 1.88034 0
M  V30 8308 H 763.075 -2.83653 2.70275 0
M  V30 8309 H 764.772 -2.62462 3.03175 0
M  V30 8310 H 761.362 -1.56005 3.992 0
M  V30 8311 H 765.546 -1.07602 4.84495 0
M  V30 8312 H 760.802 -0.424854 6.09922 0
M  V30 8313 H 764.976 0.0519179 6.96381 0
M  V30 8314 H 762.603 0.383398 7.59233 0
M  V30 8315 N 764.178 -1.45556 -0.604258 0
M  V30 8316 C 765.403 -1.53509 -1.39462 0
M  V30 8317 C 765.828 -0.169638 -1.87333 0
M  V30 8318 O 765.186 0.846346 -1.60333 0
M  V30 8319 C 765.234 -2.52654 -2.5729 0
M  V30 8320 O 764.338 -2.04666 -3.5803 0
M  V30 8321 H 763.679 -0.517355 -0.416221 0
M  V30 8322 H 766.209 -1.90939 -0.735072 0
M  V30 8323 H 766.219 -2.71568 -3.04491 0
M  V30 8324 H 764.894 -3.51823 -2.21797 0
M  V30 8325 H 763.471 -1.95643 -3.17456 0
M  V30 8326 N 765.656 0.84705 -1.32902 0
M  V30 8327 C 766.933 1.58583 -1.14503 0
M  V30 8328 C 767.313 2.09075 0.291724 0
M  V30 8329 O 766.661 1.88636 1.28952 0
M  V30 8330 C 766.871 2.72605 -2.17916 0
M  V30 8331 C 768.219 3.41993 -2.51646 0
M  V30 8332 O 769.243 2.82838 -2.1652 0
M  V30 8333 O 768.102 4.48761 -3.1189 0
M  V30 8334 H 765.196 0.698756 -0.442345 0
M  V30 8335 H 767.742 0.890516 -1.44457 0
M  V30 8336 H 766.514 2.32876 -3.14459 0
M  V30 8337 H 766.137 3.49807 -1.89 0
M  V30 8338 N 767.134 1.16236 1.06428 0
M  V30 8339 C 768.382 0.941171 1.78847 0
M  V30 8340 C 768.703 -0.53248 1.87589 0
M  V30 8341 O 767.973 -1.38686 1.38358 0
M  V30 8342 H 766.553 0.345228 0.66244 0
M  V30 8343 H 769.215 1.46479 1.28569 0
M  V30 8344 H 768.311 1.35871 2.80972 0
M  V30 8345 N 768.612 -1.24939 0.960631 0
M  V30 8346 C 769.86 -1.92437 0.617441 0
M  V30 8347 C 770.181 -1.75543 -0.849101 0
M  V30 8348 O 769.451 -1.12269 -1.60538 0
M  V30 8349 H 768.031 -0.712192 0.225371 0
M  V30 8350 H 770.693 -1.5198 1.22017 0
M  V30 8351 H 769.789 -3.00247 0.851933 0
M  V30 8352 N 770.09 -0.729906 -1.39679 0
M  V30 8353 C 771 -0.0880322 -2.34435 0
M  V30 8354 C 772.016 0.727674 -1.58053 0
M  V30 8355 O 773.192 0.657321 -1.90371 0
M  V30 8356 C 770.257 0.812211 -3.37052 0
M  V30 8357 C 769.318 -0.0151681 -4.29297 0
M  V30 8358 C 768.551 0.842202 -5.27013 0
M  V30 8359 O 768.774 2.08108 -5.31081 0
M  V30 8360 O 767.708 0.27357 -6.01278 0
M  V30 8361 H 771.534 -0.869989 -2.90972 0
M  V30 8362 H 769.119 -0.490522 -1.41118 0
M  V30 8363 H 771.001 1.32745 -3.99946 0
M  V30 8364 H 769.676 1.57307 -2.82907 0
M  V30 8365 H 768.583 -0.575811 -3.69642 0
M  V30 8366 H 769.916 -0.738129 -4.86634 0
M  V30 8367 N 771.568 1.50203 -0.477153 0
M  V30 8368 C 772.518 2.25561 0.332625 0
M  V30 8369 C 773.502 1.29401 0.956249 0
M  V30 8370 O 774.694 1.54267 0.867795 0
M  V30 8371 C 771.823 3.12984 1.41052 0
M  V30 8372 C 770.909 4.16595 0.79433 0
M  V30 8373 N 771.3 5.05722 -0.0889633 0
M  V30 8374 C 769.598 4.33279 1.0576 0
M  V30 8375 C 770.299 5.80039 -0.439286 0
M  V30 8376 N 769.275 5.43278 0.187018 0
M  V30 8377 H 773.077 2.91836 -0.347718 0
M  V30 8378 H 770.591 1.59759 -0.291686 0
M  V30 8379 H 772.588 3.65582 2.00388 0
M  V30 8380 H 771.248 2.48258 2.09279 0
M  V30 8381 H 772.259 5.15869 -0.458205 0
M  V30 8382 H 768.936 3.79769 1.7344 0
M  V30 8383 H 770.326 6.61802 -1.1605 0
M  V30 8384 N 773.046 0.209999 1.56195 0
M  V30 8385 C 774.293 -0.424813 1.97994 0
M  V30 8386 C 774.621 -1.60589 1.09733 0
M  V30 8387 O 773.876 -1.95201 0.139693 0
M  V30 8388 C 774.175 -0.91312 3.45539 0
M  V30 8389 C 773.841 0.156187 4.50629 0
M  V30 8390 C 772.503 0.449966 4.79092 0
M  V30 8391 C 774.855 0.879959 5.13718 0
M  V30 8392 C 772.183 1.47223 5.67928 0
M  V30 8393 C 774.535 1.89148 6.0366 0
M  V30 8394 C 773.199 2.1923 6.30472 0
M  V30 8395 H 772.469 -0.15545 0.724511 0
M  V30 8396 H 775.116 0.310095 1.88973 0
M  V30 8397 H 773.421 -1.72658 3.51705 0
M  V30 8398 H 775.118 -1.41395 3.75245 0
M  V30 8399 H 771.708 -0.0829466 4.2852 0
M  V30 8400 H 775.892 0.66623 4.91808 0
M  V30 8401 H 771.148 1.71105 5.86969 0
M  V30 8402 H 775.322 2.45745 6.516 0
M  V30 8403 H 772.949 2.98587 6.99107 0
M  V30 8404 N 774.524 -1.57472 -0.0634922 0
M  V30 8405 C 775.487 -2.03268 -1.059 0
M  V30 8406 C 776.487 -0.931028 -1.31105 0
M  V30 8407 O 777.677 -1.19567 -1.26686 0
M  V30 8408 C 774.809 -2.42039 -2.40062 0
M  V30 8409 H 776.002 -2.92454 -0.664119 0
M  V30 8410 H 773.555 -1.53206 -0.309444 0
M  V30 8411 H 774.29 -1.55904 -2.84367 0
M  V30 8412 H 774.075 -3.22437 -2.23108 0
M  V30 8413 H 775.565 -2.78017 -3.11603 0
M  V30 8414 N 776.003 0.335068 -1.53997 0
M  V30 8415 C 777.28 1.09188 -1.62288 0
M  V30 8416 C 777.66 2.0626 -0.449458 0
M  V30 8417 O 777.008 2.21596 0.557444 0
M  V30 8418 C 777.218 1.80403 -2.98757 0
M  V30 8419 C 778.566 2.33841 -3.54406 0
M  V30 8420 O 779.59 1.90487 -3.00987 0
M  V30 8421 O 778.449 3.1318 -4.47862 0
M  V30 8422 H 775.543 0.502621 -0.656736 0
M  V30 8423 H 778.089 0.33588 -1.66343 0
M  V30 8424 H 776.861 1.09732 -3.75599 0
M  V30 8425 H 776.484 2.62841 -2.9833 0
M  V30 8426 N 777.481 1.45874 0.596531 0
M  V30 8427 C 778.73 1.49737 1.35135 0
M  V30 8428 C 779.043 0.147755 1.95041 0
M  V30 8429 O 780.249 0.0640984 2.71424 0
M  V30 8430 C 778.705 2.6378 2.44843 0
M  V30 8431 C 778.313 4.05102 1.91301 0
M  V30 8432 C 780.057 2.769 3.21755 0
M  V30 8433 C 777.964 5.10508 2.98557 0
M  V30 8434 H 776.894 0.557219 0.507959 0
M  V30 8435 H 779.545 1.72046 0.638147 0
M  V30 8436 H 777.927 2.34774 3.189 0
M  V30 8437 H 779.101 4.43836 1.2388 0
M  V30 8438 H 777.416 3.96528 1.271 0
M  V30 8439 H 780.013 3.52819 4.01775 0
M  V30 8440 H 780.356 1.83924 3.73467 0
M  V30 8441 H 780.889 3.05485 2.54802 0
M  V30 8442 H 777.628 6.0523 2.51749 0
M  V30 8443 H 777.148 4.76332 3.6451 0
M  V30 8444 H 778.827 5.35745 3.62748 0
M  V30 8445 N 778.959 -0.83999 1.33349 0
M  V30 8446 C 779.869 -1.98182 1.25543 0
M  V30 8447 C 780.885 -1.73204 0.166208 0
M  V30 8448 O 782.061 -1.97596 0.389589 0
M  V30 8449 C 779.126 -3.32157 0.993614 0
M  V30 8450 C 778.187 -3.70258 2.17273 0
M  V30 8451 C 777.42 -4.9784 1.92331 0
M  V30 8452 O 777.643 -5.63679 0.873074 0
M  V30 8453 O 776.577 -5.33418 2.78835 0
M  V30 8454 H 780.403 -2.07708 2.21565 0
M  V30 8455 H 777.988 -0.972852 1.13384 0
M  V30 8456 H 779.87 -4.12433 0.864711 0
M  V30 8457 H 778.545 -3.23637 0.0636596 0
M  V30 8458 H 777.452 -2.90497 2.35716 0
M  V30 8459 H 778.785 -3.83442 3.08598 0
M  V30 8460 N 780.437 -1.16799 -1.0581 0
M  V30 8461 C 781.662 -0.977402 -1.82925 0
M  V30 8462 C 782.087 0.469514 -1.82146 0
M  V30 8463 O 781.445 1.33576 -1.22585 0
M  V30 8464 C 781.493 -1.51543 -3.27211 0
M  V30 8465 O 780.597 -0.725021 -4.05977 0
M  V30 8466 H 779.938 -0.347474 -0.565825 0
M  V30 8467 H 782.468 -1.55151 -1.33376 0
M  V30 8468 H 782.478 -1.53502 -3.78023 0
M  V30 8469 H 781.153 -2.56872 -3.27093 0
M  V30 8470 H 779.73 -0.77634 -3.64729 0
M  V30 8471 N 781.915 1.24427 -0.967243 0
M  V30 8472 C 782.847 2.24641 -0.454856 0
M  V30 8473 C 783.86 1.56849 0.436152 0
M  V30 8474 O 785.049 1.76846 0.242401 0
M  V30 8475 C 782.149 3.36954 0.362672 0
M  V30 8476 C 781.322 4.34318 -0.518324 0
M  V30 8477 C 780.381 5.25638 0.243122 0
M  V30 8478 O 779.407 5.68043 -0.362791 0
M  V30 8479 N 780.609 5.59897 1.53282 0
M  V30 8480 H 783.374 2.69238 -1.31648 0
M  V30 8481 H 780.935 1.38464 -0.839015 0
M  V30 8482 H 782.927 3.95014 0.880094 0
M  V30 8483 H 781.497 2.91646 1.12522 0
M  V30 8484 H 780.717 3.74953 -1.21672 0
M  V30 8485 H 782.005 4.96338 -1.11919 0
M  V30 8486 H 781.403 5.27373 2.04682 0
M  V30 8487 H 779.96 6.20488 1.99594 0
M  V30 8488 N 783.393 0.737304 1.3929 0
M  V30 8489 C 784.323 0.113988 2.33222 0
M  V30 8490 C 785.304 -0.721695 1.54031 0
M  V30 8491 O 786.489 -0.666206 1.82415 0
M  V30 8492 C 783.619 -0.792319 3.38141 0
M  V30 8493 C 782.573 -0.0606178 4.27957 0
M  V30 8494 C 781.899 -1.08409 5.23595 0
M  V30 8495 C 783.199 1.09817 5.10625 0
M  V30 8496 H 784.893 0.898611 2.85596 0
M  V30 8497 H 782.439 0.433571 1.37318 0
M  V30 8498 H 784.392 -1.23793 4.02807 0
M  V30 8499 H 783.116 -1.60908 2.84211 0
M  V30 8500 H 781.775 0.365393 3.64775 0
M  V30 8501 H 781.423 -1.89449 4.6596 0
M  V30 8502 H 781.123 -0.599269 5.84536 0
M  V30 8503 H 782.647 -1.52936 5.91137 0
M  V30 8504 H 784.061 0.730892 5.68622 0
M  V30 8505 H 782.458 1.51278 5.80719 0
M  V30 8506 H 783.528 1.91878 4.45321 0
M  V30 8507 N 784.871 -1.49948 0.485112 0
M  V30 8508 C 785.819 -2.30449 -0.315609 0
M  V30 8509 C 786.813 -1.38351 -0.977516 0
M  V30 8510 O 788.019 -1.55477 -0.907019 0
M  V30 8511 H 784.394 -0.742262 -0.120629 0
M  V30 8512 H 786.365 -2.95925 0.383552 0
M  V30 8513 C 785.114 -3.19283 -1.37673 0
M  V30 8514 H 784.437 -3.90067 -0.876801 0
M  V30 8515 H 785.877 -3.78579 -1.90929 0
M  V30 8516 C 784.336 -2.37817 -2.38631 0
M  V30 8517 O 784.866 -2.0711 -3.44192 0
M  V30 8518 N 783.072 -2.00135 -2.107 0
M  V30 8519 H 782.619 -2.25307 -1.24878 0
M  V30 8520 H 782.577 -1.45933 -2.7848 0
M  V30 8521 N 786.349 -0.21828 -1.56081 0
M  V30 8522 C 787.626 0.463143 -1.90038 0
M  V30 8523 C 788.006 1.77982 -1.13515 0
M  V30 8524 O 787.354 2.27199 -0.24345 0
M  V30 8525 C 787.564 0.659292 -3.42716 0
M  V30 8526 C 788.912 0.968203 -4.13414 0
M  V30 8527 O 789.936 0.746195 -3.48296 0
M  V30 8528 O 788.795 1.38936 -5.28544 0
M  V30 8529 H 785.889 0.244435 -0.790051 0
M  V30 8530 H 788.435 -0.260221 -1.67693 0
M  V30 8531 H 787.207 -0.269584 -3.9037 0
M  V30 8532 H 786.83 1.43426 -3.7083 0
M  V30 8533 N 787.827 1.57504 0.0551401 0
M  V30 8534 C 789.076 1.87237 0.750009 0
M  V30 8535 C 789.389 0.813268 1.77891 0
M  V30 8536 O 790.595 0.99898 2.52453 0
M  V30 8537 C 789.051 3.32187 1.38491 0
M  V30 8538 C 788.659 4.46267 0.393707 0
M  V30 8539 C 790.403 3.71101 2.06117 0
M  V30 8540 C 788.31 5.82265 1.03547 0
M  V30 8541 H 787.24 0.698524 0.283866 0
M  V30 8542 H 789.891 1.835 0.00365997 0
M  V30 8543 H 788.273 3.30588 2.18008 0
M  V30 8544 H 789.447 4.59289 -0.372865 0
M  V30 8545 H 787.762 4.16015 -0.17902 0
M  V30 8546 H 790.359 4.70012 2.54937 0
M  V30 8547 H 790.702 3.01751 2.86796 0
M  V30 8548 H 791.235 3.74762 1.33409 0
M  V30 8549 H 787.974 6.54949 0.268644 0
M  V30 8550 H 787.494 5.73012 1.7725 0
M  V30 8551 H 789.173 6.28148 1.55047 0
M  V30 8552 N 789.305 -0.326896 1.54172 0
M  V30 8553 C 790.554 -1.06274 1.71431 0
M  V30 8554 C 790.867 -1.89282 0.493123 0
M  V30 8555 O 792.073 -2.65933 0.54699 0
M  V30 8556 C 790.529 -1.93892 3.03206 0
M  V30 8557 C 790.137 -1.16011 4.32719 0
M  V30 8558 C 791.881 -2.67232 3.29829 0
M  V30 8559 C 789.788 -2.02755 5.55558 0
M  V30 8560 H 788.718 -0.400475 0.638855 0
M  V30 8561 H 791.369 -0.321184 1.80667 0
M  V30 8562 H 789.751 -2.71933 2.87869 0
M  V30 8563 H 790.925 -0.427643 4.58811 0
M  V30 8564 H 789.24 -0.54367 4.12836 0
M  V30 8565 H 791.837 -3.32434 4.18798 0
M  V30 8566 H 792.18 -3.34692 2.47562 0
M  V30 8567 H 792.713 -1.96255 3.46018 0
M  V30 8568 H 789.452 -1.3981 6.40417 0
M  V30 8569 H 788.972 -2.73745 5.33689 0
M  V30 8570 H 790.651 -2.61419 5.91835 0
M  V30 8571 N 790.784 -1.46188 -0.588786 0
M  V30 8572 C 791.731 -1.56292 -1.69828 0
M  V30 8573 C 792.701 -0.407581 -1.61022 0
M  V30 8574 O 793.886 -0.623532 -1.80324 0
M  V30 8575 C 791.026 -1.55341 -3.08161 0
M  V30 8576 C 790.139 -2.81564 -3.27636 0
M  V30 8577 C 789.274 -2.72158 -4.56183 0
M  V30 8578 C 788.313 -3.93348 -4.68981 0
M  V30 8579 N 787.45 -3.82365 -5.88848 0
M  V30 8580 H 792.29 -2.51066 -1.6053 0
M  V30 8581 H 789.827 -1.24562 -0.782474 0
M  V30 8582 H 791.785 -1.52776 -3.88221 0
M  V30 8583 H 790.415 -0.641034 -3.16371 0
M  V30 8584 H 789.467 -2.94136 -2.41223 0
M  V30 8585 H 790.779 -3.714 -3.32962 0
M  V30 8586 H 789.933 -2.67665 -5.44464 0
M  V30 8587 H 788.672 -1.79953 -4.53286 0
M  V30 8588 H 787.677 -3.98181 -3.7912 0
M  V30 8589 H 788.902 -4.86643 -4.73662 0
M  V30 8590 H 786.848 -2.92942 -5.86959 0
M  V30 8591 H 786.765 -4.65851 -5.95415 0
M  V30 8592 H 788.033 -3.81836 -6.79575 0
M  V30 8593 N 792.262 0.832906 -1.33792 0
M  V30 8594 C 793.192 1.95828 -1.27176 0
M  V30 8595 C 794.173 1.69427 -0.15114 0
M  V30 8596 O 795.358 1.91167 -0.341886 0
M  V30 8597 C 792.488 3.32098 -1.01629 0
M  V30 8598 C 791.442 3.72912 -2.10049 0
M  V30 8599 C 790.768 5.07054 -1.69706 0
M  V30 8600 C 792.068 3.86064 -3.51783 0
M  V30 8601 H 793.762 2.01622 -2.21334 0
M  V30 8602 H 791.308 0.96866 -1.0655 0
M  V30 8603 H 793.261 4.10402 -0.956474 0
M  V30 8604 H 791.985 3.26577 -0.0390956 0
M  V30 8605 H 790.644 2.96876 -2.15082 0
M  V30 8606 H 790.292 4.9801 -0.706737 0
M  V30 8607 H 789.992 5.35333 -2.42264 0
M  V30 8608 H 791.516 5.87827 -1.65202 0
M  V30 8609 H 792.93 4.54665 -3.49218 0
M  V30 8610 H 791.327 4.25787 -4.22878 0
M  V30 8611 H 792.397 2.88344 -3.89854 0
M  V30 8612 N 793.74 1.17359 1.05189 0
M  V30 8613 C 794.98 0.972812 1.79766 0
M  V30 8614 C 795.344 -0.489832 1.85647 0
M  V30 8615 O 796.545 -0.809682 2.56315 0
M  V30 8616 C 794.816 1.59636 3.19767 0
M  V30 8617 S 796.375 1.54178 4.10822 0
M  V30 8618 H 793.193 0.34959 0.619119 0
M  V30 8619 H 795.795 1.49304 1.26209 0
M  V30 8620 H 794.499 2.65336 3.13089 0
M  V30 8621 H 794.03 1.07594 3.78401 0
M  V30 8622 H 796.045 0.549785 4.93145 0
M  V30 8623 N 795.218 -1.23913 0.973828 0
M  V30 8624 C 796.165 -2.25132 0.508366 0
M  V30 8625 C 797.135 -1.59908 -0.449307 0
M  V30 8626 O 798.32 -1.87405 -0.358313 0
M  V30 8627 C 795.46 -3.4458 -0.189422 0
M  V30 8628 C 794.573 -4.24381 0.807738 0
M  V30 8629 C 793.708 -5.31131 0.0854315 0
M  V30 8630 C 792.747 -6.02635 1.07225 0
M  V30 8631 N 791.884 -7.01073 0.379535 0
M  V30 8632 H 796.724 -2.64313 1.37632 0
M  V30 8633 H 794.261 -1.29924 0.689802 0
M  V30 8634 H 796.219 -4.12706 -0.610733 0
M  V30 8635 H 794.849 -3.06218 -1.02129 0
M  V30 8636 H 793.901 -3.55735 1.34747 0
M  V30 8637 H 795.213 -4.73778 1.55998 0
M  V30 8638 H 794.367 -6.05422 -0.393572 0
M  V30 8639 H 793.106 -4.82658 -0.699461 0
M  V30 8640 H 792.111 -5.27143 1.56207 0
M  V30 8641 H 793.336 -6.53197 1.85769 0
M  V30 8642 H 791.282 -6.54862 -0.386269 0
M  V30 8643 H 791.199 -7.48382 1.07054 0
M  V30 8644 H 792.467 -7.79462 -0.0772984 0
M  V30 8645 N 796.696 -0.74468 -1.38897 0
M  V30 8646 C 797.973 -0.222773 -1.94327 0
M  V30 8647 C 798.353 1.27731 -1.68071 0
M  V30 8648 O 797.701 2.04754 -1.01429 0
M  V30 8649 C 797.911 -0.566836 -3.44366 0
M  V30 8650 C 799.259 -0.521531 -4.21385 0
M  V30 8651 O 800.283 -0.504599 -3.52608 0
M  V30 8652 O 799.142 -0.524595 -5.43976 0
M  V30 8653 H 796.236 -0.0439259 -0.825833 0
M  V30 8654 H 798.782 -0.824197 -1.48341 0
M  V30 8655 H 797.554 -1.60321 -3.56949 0
M  V30 8656 H 797.177 0.0630577 -3.9755 0
M  V30 8657 N 798.174 1.49689 -0.493057 0
M  V30 8658 C 799.137 2.27502 0.278485 0
M  V30 8659 C 800.137 1.33184 0.901037 0
M  V30 8660 O 801.327 1.56415 0.766801 0
M  V30 8661 C 798.459 3.10881 1.39878 0
M  V30 8662 H 799.652 2.97163 -0.404219 0
M  V30 8663 H 797.205 1.54324 -0.247774 0
M  V30 8664 H 797.94 2.45767 2.11587 0
M  V30 8665 H 797.725 3.80219 0.957924 0
M  V30 8666 H 799.215 3.69673 1.94247 0
M  V30 8667 N 799.652 0.226554 1.55963 0
M  V30 8668 C 800.582 -0.676079 2.23498 0
M  V30 8669 C 801.563 -1.19718 1.20837 0
M  V30 8670 O 802.748 -1.24027 1.49436 0
M  V30 8671 C 799.878 -1.88217 2.91876 0
M  V30 8672 C 798.832 -1.4947 4.01052 0
M  V30 8673 C 798.158 -2.77997 4.56751 0
M  V30 8674 C 799.458 -0.680951 5.17842 0
M  V30 8675 H 801.152 -0.112989 2.99187 0
M  V30 8676 H 798.698 -0.0529046 1.43903 0
M  V30 8677 H 800.651 -2.51911 3.37815 0
M  V30 8678 H 799.375 -2.47031 2.13643 0
M  V30 8679 H 798.034 -0.881199 3.55852 0
M  V30 8680 H 797.682 -3.34966 3.75243 0
M  V30 8681 H 797.382 -2.52803 5.30438 0
M  V30 8682 H 798.906 -3.42625 5.05411 0
M  V30 8683 H 800.32 -1.22171 5.60131 0
M  V30 8684 H 798.717 -0.525898 5.97791 0
M  V30 8685 H 799.787 0.311346 4.83899 0
M  V30 8686 N 801.13 -1.57531 -0.0467866 0
M  V30 8687 C 802.36 -1.92417 -0.752279 0
M  V30 8688 C 802.768 -0.823134 -1.70356 0
M  V30 8689 O 802.111 0.210598 -1.82489 0
M  V30 8690 C 802.173 -3.22974 -1.57887 0
M  V30 8691 C 801.837 -4.50045 -0.794285 0
M  V30 8692 C 802.834 -5.19799 -0.102368 0
M  V30 8693 C 800.519 -4.96608 -0.754061 0
M  V30 8694 C 802.513 -6.34385 0.619267 0
M  V30 8695 C 800.2 -6.11093 -0.0286682 0
M  V30 8696 C 801.198 -6.79835 0.656772 0
M  V30 8697 O 800.886 -7.92133 1.37042 0
M  V30 8698 H 800.618 -0.640029 -0.217576 0
M  V30 8699 H 803.172 -2.05395 -0.0137438 0
M  V30 8700 H 801.402 -3.06273 -2.3608 0
M  V30 8701 H 803.091 -3.43319 -2.16533 0
M  V30 8702 H 803.857 -4.8484 -0.124589 0
M  V30 8703 H 799.736 -4.42958 -1.27706 0
M  V30 8704 H 803.28 -6.87975 1.15483 0
M  V30 8705 H 799.177 -6.455 -0.00446214 0
M  V30 8706 H 799.945 -8.08394 1.28227 0
M  V30 8707 N 802.608 0.318715 -1.54344 0
M  V30 8708 C 803.538 1.39751 -1.87061 0
M  V30 8709 C 804.519 1.53741 -0.727848 0
M  V30 8710 O 805.704 1.67541 -0.982016 0
M  V30 8711 C 802.834 2.76446 -2.10226 0
M  V30 8712 C 801.788 2.77239 -3.26071 0
M  V30 8713 C 801.114 4.17056 -3.34617 0
M  V30 8714 C 802.414 2.40555 -4.63606 0
M  V30 8715 H 804.108 1.12619 -2.77412 0
M  V30 8716 H 801.654 0.540318 -1.33479 0
M  V30 8717 H 803.607 3.51985 -2.31699 0
M  V30 8718 H 802.331 3.05066 -1.16629 0
M  V30 8719 H 800.99 2.04155 -3.04493 0
M  V30 8720 H 800.638 4.42824 -2.3857 0
M  V30 8721 H 800.338 4.18492 -4.12478 0
M  V30 8722 H 801.862 4.94401 -3.5833 0
M  V30 8723 H 803.276 3.05808 -4.84927 0
M  V30 8724 H 801.673 2.53234 -5.44052 0
M  V30 8725 H 802.743 1.35698 -4.65526 0
M  V30 8726 N 804.086 1.46499 0.581025 0
M  V30 8727 C 805.036 1.53606 1.68491 0
M  V30 8728 C 806.02 0.396853 1.55929 0
M  V30 8729 O 807.212 0.645366 1.64815 0
M  V30 8730 C 804.341 1.53089 3.07276 0
M  V30 8731 C 803.427 2.72309 3.25128 0
M  V30 8732 N 803.818 3.97216 3.13134 0
M  V30 8733 C 802.116 2.68568 3.56072 0
M  V30 8734 C 802.817 4.7693 3.33036 0
M  V30 8735 N 801.793 4.08833 3.58269 0
M  V30 8736 H 805.595 2.47976 1.5775 0
M  V30 8737 H 803.109 1.42161 0.785104 0
M  V30 8738 H 805.106 1.56268 3.86505 0
M  V30 8739 H 803.766 0.597969 3.19146 0
M  V30 8740 H 804.777 4.28439 2.90964 0
M  V30 8741 H 801.454 1.84307 3.74616 0
M  V30 8742 H 802.844 5.85879 3.28932 0
M  V30 8743 N 805.565 -0.825799 1.34232 0
M  V30 8744 C 806.475 -1.9684 1.27638 0
M  V30 8745 C 807.491 -1.73018 0.184569 0
M  V30 8746 O 808.667 -1.97172 0.410525 0
M  V30 8747 C 805.732 -3.31084 1.02879 0
M  V30 8748 C 804.793 -3.67933 2.21188 0
M  V30 8749 C 804.026 -4.95772 1.976 0
M  V30 8750 O 804.249 -5.62721 0.93281 0
M  V30 8751 O 803.183 -5.30431 2.84477 0
M  V30 8752 H 807.009 -2.05346 2.23756 0
M  V30 8753 H 804.594 -0.960772 1.1441 0
M  V30 8754 H 806.476 -4.11492 0.908406 0
M  V30 8755 H 805.151 -3.23552 0.0979821 0
M  V30 8756 H 804.058 -2.87981 2.38784 0
M  V30 8757 H 805.391 -3.80147 3.12648 0
M  V30 8758 N 807.043 -1.17915 -1.04565 0
M  V30 8759 C 808.268 -0.996749 -1.81878 0
M  V30 8760 C 808.693 0.450169 -1.82634 0
M  V30 8761 O 808.051 1.32268 -1.23995 0
M  V30 8762 C 808.099 -1.55005 -3.25585 0
M  V30 8763 O 807.203 -0.76804 -4.05185 0
M  V30 8764 H 806.544 -0.353456 -0.562108 0
M  V30 8765 H 809.074 -1.56557 -1.31723 0
M  V30 8766 H 809.084 -1.57503 -3.76373 0
M  V30 8767 H 807.759 -2.60327 -3.2435 0
M  V30 8768 H 806.336 -0.81498 -3.63885 0
M  V30 8769 N 808.521 1.23394 -0.980386 0
M  V30 8770 C 809.767 1.92094 -0.650223 0
M  V30 8771 C 810.1 1.76309 0.814173 0
M  V30 8772 O 809.375 1.12406 1.5873 0
M  V30 8773 C 809.658 3.44713 -1.04139 0
M  V30 8774 C 809.511 3.69606 -2.56342 0
M  V30 8775 C 810.83 4.36191 -0.585296 0
M  V30 8776 H 807.949 0.697618 -0.237695 0
M  V30 8777 H 810.591 1.45517 -1.22167 0
M  V30 8778 H 808.741 3.84513 -0.55515 0
M  V30 8779 H 810.413 3.39288 -3.1254 0
M  V30 8780 H 808.656 3.14318 -2.98976 0
M  V30 8781 H 809.327 4.76441 -2.78762 0
M  V30 8782 H 811.803 4.03836 -1.00276 0
M  V30 8783 H 810.679 5.41679 -0.887428 0
M  V30 8784 H 810.94 4.39097 0.51438 0
M  V30 8785 N 809.999 0.752036 1.385 0
M  V30 8786 C 811.248 0.304294 1.99391 0
M  V30 8787 C 811.561 -1.11982 1.60373 0
M  V30 8788 O 812.767 -1.66795 2.14223 0
M  V30 8789 C 811.223 0.493101 3.56506 0
M  V30 8790 C 810.831 1.9262 4.04477 0
M  V30 8791 C 812.575 0.107994 4.24363 0
M  V30 8792 C 810.482 2.06365 5.54227 0
M  V30 8793 H 809.412 0.110024 0.745929 0
M  V30 8794 H 812.063 0.928355 1.58284 0
M  V30 8795 H 810.445 -0.20012 3.95494 0
M  V30 8796 H 811.619 2.65276 3.76783 0
M  V30 8797 H 809.934 2.26608 3.49339 0
M  V30 8798 H 812.531 0.189474 5.34364 0
M  V30 8799 H 812.874 -0.939165 4.05568 0
M  V30 8800 H 813.407 0.753011 3.90608 0
M  V30 8801 H 810.146 3.0933 5.77923 0
M  V30 8802 H 809.666 1.38167 5.83669 0
M  V30 8803 H 811.345 1.85286 6.19902 0
M  V30 8804 N 811.477 -1.49425 0.500989 0
M  V30 8805 C 812.726 -2.01649 -0.04538 0
M  V30 8806 C 813.039 -1.38572 -1.38047 0
M  V30 8807 O 814.245 -1.82124 -2.01353 0
M  V30 8808 C 812.701 -3.5966 -0.131337 0
M  V30 8809 C 812.309 -4.3171 1.19711 0
M  V30 8810 C 814.053 -4.19828 -0.628071 0
M  V30 8811 C 811.96 -5.81579 1.07332 0
M  V30 8812 H 810.89 -0.753715 -0.0207329 0
M  V30 8813 H 813.541 -1.71962 0.640407 0
M  V30 8814 H 811.923 -3.86063 -0.881574 0
M  V30 8815 H 813.097 -4.17008 1.96064 0
M  V30 8816 H 811.412 -3.83286 1.62729 0
M  V30 8817 H 814.009 -5.2958 -0.738198 0
M  V30 8818 H 814.352 -3.83194 -1.6269 0
M  V30 8819 H 814.885 -3.97746 0.0656314 0
M  V30 8820 H 811.624 -6.22738 2.04642 0
M  V30 8821 H 811.144 -5.98774 0.350679 0
M  V30 8822 H 812.823 -6.42614 0.752047 0
M  V30 8823 N 812.955 -0.234822 -1.55841 0
M  V30 8824 C 814.232 0.442961 -1.90518 0
M  V30 8825 C 814.612 1.76768 -1.15397 0
M  V30 8826 O 813.96 2.26928 -0.267534 0
M  V30 8827 C 814.17 0.622905 -3.43396 0
M  V30 8828 C 815.518 0.9243 -4.14417 0
M  V30 8829 O 816.542 0.709211 -3.49068 0
M  V30 8830 O 815.401 1.33323 -5.29988 0
M  V30 8831 H 812.495 0.236042 -0.792599 0
M  V30 8832 H 815.041 -0.277992 -1.67408 0
M  V30 8833 H 813.813 -0.310973 -3.90062 0
M  V30 8834 H 813.436 1.39485 -3.7233 0
M  V30 8835 N 814.433 1.57553 0.0384317 0
M  V30 8836 C 815.679 1.89121 0.732199 0
M  V30 8837 C 816.012 0.831404 1.75503 0
M  V30 8838 O 815.287 -0.154642 1.93884 0
M  V30 8839 C 815.57 3.31338 1.41021 0
M  V30 8840 C 815.423 4.48004 0.401532 0
M  V30 8841 C 816.742 3.72318 2.34665 0
M  V30 8842 H 813.861 0.687819 0.264715 0
M  V30 8843 H 816.503 1.89999 -0.00496279 0
M  V30 8844 H 814.653 3.3072 2.03854 0
M  V30 8845 H 816.325 4.60755 -0.224159 0
M  V30 8846 H 814.568 4.32895 -0.280092 0
M  V30 8847 H 815.239 5.44377 0.91423 0
M  V30 8848 H 817.715 3.74243 1.81883 0
M  V30 8849 H 816.591 4.72652 2.7909 0
M  V30 8850 H 816.852 3.04062 3.20934 0
M  V30 8851 N 815.911 -0.310526 1.54511 0
M  V30 8852 C 817.159 -1.04484 1.72996 0
M  V30 8853 C 817.48 -1.88118 0.513479 0
M  V30 8854 O 816.75 -1.90119 -0.472384 0
M  V30 8855 H 815.33 -0.388747 0.637875 0
M  V30 8856 H 817.992 -0.343811 1.91844 0
M  V30 8857 H 817.088 -1.70341 2.61515 0
M  V30 8858 N 817.389 -1.46805 -0.573248 0
M  V30 8859 C 818.637 -1.52302 -1.32847 0
M  V30 8860 C 818.958 -0.180159 -1.94166 0
M  V30 8861 O 818.228 0.794291 -1.79075 0
M  V30 8862 H 816.808 -0.56097 -0.493276 0
M  V30 8863 H 819.47 -1.82998 -0.670642 0
M  V30 8864 H 818.566 -2.28089 -2.13031 0
M  V30 8865 N 818.867 0.818669 -1.34668 0
M  V30 8866 C 820.107 1.58862 -1.28617 0
M  V30 8867 C 820.471 1.91483 0.140845 0
M  V30 8868 O 821.672 2.66821 0.325583 0
M  V30 8869 C 819.943 2.85044 -2.15604 0
M  V30 8870 S 821.502 3.75553 -2.26948 0
M  V30 8871 H 818.32 0.544454 -0.457265 0
M  V30 8872 H 820.922 0.966679 -1.69928 0
M  V30 8873 H 819.626 2.59083 -3.18284 0
M  V30 8874 H 819.157 3.52231 -1.75205 0
M  V30 8875 H 821.172 4.74682 -1.44539 0
M  V30 8876 N 820.346 1.18468 1.03938 0
M  V30 8877 C 821.571 1.00638 1.81347 0
M  V30 8878 C 821.996 -0.440477 1.8287 0
M  V30 8879 O 821.354 -1.31609 1.24695 0
M  V30 8880 C 821.402 1.5673 3.24759 0
M  V30 8881 O 820.506 0.789517 4.04772 0
M  V30 8882 H 819.847 0.356432 0.560225 0
M  V30 8883 H 822.377 1.57253 1.30891 0
M  V30 8884 H 822.387 1.59496 3.75533 0
M  V30 8885 H 821.062 2.62043 3.22965 0
M  V30 8886 H 819.639 0.834267 3.63448 0
M  V30 8887 N 821.824 -1.22873 0.986916 0
M  V30 8888 C 823.052 -1.95487 0.677663 0
M  V30 8889 C 823.467 -1.72978 -0.756572 0
M  V30 8890 O 822.824 -1.02517 -1.50985 0
M  V30 8891 C 822.875 -3.48337 0.966638 0
M  V30 8892 O 822.596 -3.70087 2.34451 0
M  V30 8893 C 824.097 -4.38142 0.674248 0
M  V30 8894 H 821.317 -0.622211 0.251185 0
M  V30 8895 H 823.861 -1.56187 1.32007 0
M  V30 8896 H 822.016 -3.85628 0.370137 0
M  V30 8897 H 822.43 -4.64332 2.43918 0
M  V30 8898 H 823.904 -5.44165 0.926759 0
M  V30 8899 H 824.381 -4.3745 -0.391728 0
M  V30 8900 H 824.987 -4.06469 1.25152 0
M  V30 8901 N 823.302 -0.75937 -1.38099 0
M  V30 8902 C 824.718 -0.437606 -1.53483 0
M  V30 8903 C 824.918 1.04849 -1.72072 0
M  V30 8904 O 823.974 1.83448 -1.73502 0
M  V30 8905 C 825.287 -1.24189 -2.73857 0
M  V30 8906 C 826.835 -1.23255 -2.8771 0
M  V30 8907 C 827.31 -2.01992 -4.11051 0
M  V30 8908 N 828.801 -1.99282 -4.1814 0
M  V30 8909 C 829.536 -2.56996 -5.12583 0
M  V30 8910 N 829.032 -3.23446 -6.12662 0
M  V30 8911 N 830.825 -2.46894 -5.04975 0
M  V30 8912 H 822.976 -1.72242 -1.24283 0
M  V30 8913 H 825.239 -0.730507 -0.604205 0
M  V30 8914 H 824.945 -2.29449 -2.66545 0
M  V30 8915 H 824.819 -0.862672 -3.67203 0
M  V30 8916 H 827.206 -0.187988 -2.94501 0
M  V30 8917 H 827.287 -1.65132 -1.95359 0
M  V30 8918 H 826.931 -3.06462 -4.05023 0
M  V30 8919 H 826.861 -1.57505 -5.02494 0
M  V30 8920 H 829.352 -1.50893 -3.46467 0
M  V30 8921 H 829.665 -3.6489 -6.81231 0
M  V30 8922 H 828.01 -3.27543 -6.12977 0
M  V30 8923 H 831.201 -1.94604 -4.25731 0
M  V30 8924 H 831.374 -2.92168 -5.78396 0
M  V30 8925 N 824.78 1.49157 -0.508906 0
M  V30 8926 C 826.191 1.86593 -0.0630975 0
M  V30 8927 C 826.542 1.42051 1.35337 0
M  V30 8928 O 825.667 0.801866 2.00995 0
M  V30 8929 C 826.262 3.38629 -0.107729 0
M  V30 8930 C 824.821 3.75336 0.282776 0
M  V30 8931 C 823.968 2.7317 -0.4768 0
M  V30 8932 H 826.919 1.41362 -0.72128 0
M  V30 8933 H 826.94 3.74271 0.685689 0
M  V30 8934 H 826.452 3.71017 -1.13876 0
M  V30 8935 H 824.553 3.48558 1.31675 0
M  V30 8936 H 824.666 4.79081 -0.0421728 0
M  V30 8937 H 823.03 2.54591 0.0743552 0
M  V30 8938 H 823.813 3.08403 -1.50807 0
M  V30 8939 N 826.258 0.243083 1.55714 0
M  V30 8940 C 827.206 -0.674349 2.2261 0
M  V30 8941 C 828.2 -1.18307 1.21243 0
M  V30 8942 O 829.406 -1.1404 1.39265 0
M  V30 8943 H 825.781 -0.235941 0.714028 0
M  V30 8944 H 827.752 -0.0869446 2.98273 0
M  V30 8945 C 826.501 -1.86206 2.93637 0
M  V30 8946 H 825.824 -1.47975 3.71407 0
M  V30 8947 H 827.264 -2.4813 3.43813 0
M  V30 8948 C 825.723 -2.73084 1.97298 0
M  V30 8949 O 826.253 -3.72497 1.50361 0
M  V30 8950 N 824.459 -2.39571 1.64482 0
M  V30 8951 H 824.006 -1.5878 2.02846 0
M  V30 8952 H 823.964 -2.97976 1.00288 0
M  V30 8953 N 827.736 -1.57571 -0.0300757 0
M  V30 8954 C 828.961 -1.93879 -0.736601 0
M  V30 8955 C 829.386 -0.842998 -1.68152 0
M  V30 8956 O 828.744 0.20135 -1.80178 0
M  V30 8957 C 828.792 -3.29247 -1.47066 0
M  V30 8958 O 827.896 -3.21426 -2.58378 0
M  V30 8959 H 827.237 -0.633735 -0.198181 0
M  V30 8960 H 829.767 -2.04595 0.0141485 0
M  V30 8961 H 829.777 -3.64113 -1.84081 0
M  V30 8962 H 828.452 -4.08565 -0.77764 0
M  V30 8963 H 827.029 -2.98189 -2.23914 0
M  V30 8964 N 829.214 0.302327 -1.54673 0
M  V30 8965 C 830.463 1.03533 -1.73101 0
M  V30 8966 C 830.776 1.88473 -0.523174 0
M  V30 8967 O 831.982 2.65029 -0.589229 0
M  V30 8968 C 830.438 1.89043 -3.06252 0
M  V30 8969 C 830.046 1.09112 -4.3451 0
M  V30 8970 C 831.79 2.61951 -3.34039 0
M  V30 8971 C 829.697 1.93891 -5.58713 0
M  V30 8972 H 828.627 0.390261 -0.645145 0
M  V30 8973 H 831.278 0.2924 -1.81155 0
M  V30 8974 H 829.66 2.67319 -2.92159 0
M  V30 8975 H 830.834 0.354596 -4.59434 0
M  V30 8976 H 829.149 0.477923 -4.13648 0
M  V30 8977 H 831.746 3.25729 -4.24033 0
M  V30 8978 H 832.089 3.30711 -2.52855 0
M  V30 8979 H 832.622 1.90725 -3.49097 0
M  V30 8980 H 829.361 1.29604 -6.4256 0
M  V30 8981 H 828.881 2.6522 -5.37976 0
M  V30 8982 H 830.56 2.51971 -5.95919 0
M  V30 8983 N 830.692 1.47107 0.565454 0
M  V30 8984 C 831.624 1.55024 1.6882 0
M  V30 8985 C 832.637 0.4371 1.56822 0
M  V30 8986 O 833.826 0.706315 1.63931 0
M  V30 8987 C 830.926 1.43069 3.0722 0
M  V30 8988 C 830.099 2.68807 3.45053 0
M  V30 8989 C 829.158 2.50806 4.62583 0
M  V30 8990 O 828.184 3.24593 4.67577 0
M  V30 8991 N 829.386 1.58093 5.58558 0
M  V30 8992 H 832.151 2.51836 1.62477 0
M  V30 8993 H 829.712 1.43382 0.751885 0
M  V30 8994 H 831.704 1.28773 3.83666 0
M  V30 8995 H 830.274 0.543721 3.07835 0
M  V30 8996 H 829.494 2.97923 2.58138 0
M  V30 8997 H 830.782 3.52298 3.67101 0
M  V30 8998 H 830.18 0.972807 5.57273 0
M  V30 8999 H 828.737 1.49753 6.34364 0
M  V30 9000 N 832.17 -0.811516 1.35101 0
M  V30 9001 C 833.133 -1.90467 1.27495 0
M  V30 9002 C 834.133 -1.59703 0.187516 0
M  V30 9003 O 835.323 -1.68528 0.440896 0
M  V30 9004 C 832.455 -3.26774 0.971154 0
M  V30 9005 H 833.648 -1.98631 2.2469 0
M  V30 9006 H 831.201 -1.00681 1.19553 0
M  V30 9007 H 831.936 -3.243 0.0028557 0
M  V30 9008 H 831.721 -3.50488 1.75785 0
M  V30 9009 H 833.211 -4.06804 0.943414 0
M  V30 9010 N 833.648 -1.19017 -1.03309 0
M  V30 9011 C 834.873 -1.01598 -1.80811 0
M  V30 9012 C 835.298 0.430773 -1.83101 0
M  V30 9013 O 834.656 1.30946 -1.25391 0
M  V30 9014 C 834.704 -1.5845 -3.23923 0
M  V30 9015 O 833.808 -0.810972 -4.04348 0
M  V30 9016 H 833.149 -0.359398 -0.558327 0
M  V30 9017 H 835.679 -1.57945 -1.30055 0
M  V30 9018 H 835.689 -1.61486 -3.74682 0
M  V30 9019 H 834.364 -2.63752 -3.21571 0
M  V30 9020 H 832.941 -0.85353 -3.63 0
M  V30 9021 N 835.127 1.22348 -0.993418 0
M  V30 9022 C 836.037 2.27987 -0.553076 0
M  V30 9023 C 837.053 1.69378 0.398386 0
M  V30 9024 O 838.229 1.99648 0.26509 0
M  V30 9025 C 835.294 3.46475 0.124809 0
M  V30 9026 C 834.355 4.20399 -0.869682 0
M  V30 9027 C 833.588 5.33229 -0.224052 0
M  V30 9028 O 833.811 5.61885 0.981915 0
M  V30 9029 O 832.745 5.94685 -0.929174 0
M  V30 9030 H 836.571 2.67822 -1.43195 0
M  V30 9031 H 834.156 1.28525 -0.761694 0
M  V30 9032 H 836.038 4.18369 0.504496 0
M  V30 9033 H 834.713 3.08565 0.978243 0
M  V30 9034 H 833.62 3.50774 -1.30031 0
M  V30 9035 H 834.953 4.62191 -1.69233 0
M  V30 9036 N 836.605 0.766683 1.37694 0
M  V30 9037 C 837.515 0.150158 2.34119 0
M  V30 9038 C 838.531 -0.685513 1.59927 0
M  V30 9039 O 839.707 -0.606616 1.92047 0
M  V30 9040 C 836.772 -0.722562 3.39087 0
M  V30 9041 C 835.833 0.128983 4.29106 0
M  V30 9042 C 835.066 -0.702178 5.29061 0
M  V30 9043 O 835.289 -1.93954 5.36412 0
M  V30 9044 O 834.223 -0.114056 6.01792 0
M  V30 9045 H 838.049 0.946829 2.88563 0
M  V30 9046 H 835.634 0.527765 1.39768 0
M  V30 9047 H 837.516 -1.22095 4.03325 0
M  V30 9048 H 836.191 -1.49751 2.86978 0
M  V30 9049 H 835.098 0.673612 3.67985 0
M  V30 9050 H 836.431 0.866892 4.84506 0
M  V30 9051 N 838.083 -1.48885 0.516809 0
M  V30 9052 C 838.993 -2.33185 -0.257293 0
M  V30 9053 C 840.009 -1.4565 -0.951952 0
M  V30 9054 O 841.185 -1.78651 -0.929834 0
M  V30 9055 C 838.25 -3.21465 -1.29851 0
M  V30 9056 C 837.311 -4.24863 -0.615608 0
M  V30 9057 C 836.544 -5.08925 -1.60722 0
M  V30 9058 O 836.767 -4.9475 -2.83863 0
M  V30 9059 O 835.701 -5.90737 -1.15384 0
M  V30 9060 H 839.527 -3.00596 0.433131 0
M  V30 9061 H 837.112 -1.46792 0.277908 0
M  V30 9062 H 838.994 -3.76108 -1.90055 0
M  V30 9063 H 837.669 -2.5673 -1.97158 0
M  V30 9064 H 836.576 -3.74091 0.0265829 0
M  V30 9065 H 837.909 -4.92198 0.0152871 0
M  V30 9066 N 839.561 -0.251338 -1.55583 0
M  V30 9067 C 840.471 0.656978 -2.25213 0
M  V30 9068 C 841.487 1.18966 -1.26977 0
M  V30 9069 O 842.663 1.22499 -1.59862 0
M  V30 9070 C 839.728 1.83527 -2.94141 0
M  V30 9071 C 838.789 1.34162 -4.07798 0
M  V30 9072 C 838.022 2.46375 -4.73429 0
M  V30 9073 O 838.245 3.65205 -4.38157 0
M  V30 9074 O 837.179 2.15881 -5.61853 0
M  V30 9075 H 841.005 0.0936395 -3.03556 0
M  V30 9076 H 838.59 -0.0196638 -1.49387 0
M  V30 9077 H 840.472 2.52279 -3.3754 0
M  V30 9078 H 839.147 2.38614 -2.18735 0
M  V30 9079 H 838.054 0.621249 -3.68906 0
M  V30 9080 H 839.387 0.836779 -4.85035 0
M  V30 9081 N 841.039 1.57585 0.0217189 0
M  V30 9082 C 842.288 1.88786 0.710125 0
M  V30 9083 C 842.601 0.850819 1.76126 0
M  V30 9084 O 843.807 1.0523 2.50277 0
M  V30 9085 C 842.263 3.3505 1.31413 0
M  V30 9086 C 841.871 4.47001 0.298959 0
M  V30 9087 C 843.615 3.7539 1.98199 0
M  V30 9088 C 841.522 5.8433 0.911727 0
M  V30 9089 H 840.452 0.704388 0.268986 0
M  V30 9090 H 843.103 1.83466 -0.0352638 0
M  V30 9091 H 841.485 3.35138 2.10947 0
M  V30 9092 H 842.659 4.58395 -0.470203 0
M  V30 9093 H 840.974 4.15542 -0.267222 0
M  V30 9094 H 843.571 4.75314 2.4491 0
M  V30 9095 H 843.914 3.07766 2.80331 0
M  V30 9096 H 844.447 3.77508 1.2543 0
M  V30 9097 H 841.186 6.55372 0.129659 0
M  V30 9098 H 840.706 5.76643 1.65056 0
M  V30 9099 H 842.385 6.31295 1.41688 0
M  V30 9100 N 842.517 -0.29412 1.54831 0
M  V30 9101 C 843.933 -0.640167 1.46199 0
M  V30 9102 C 844.133 -1.90426 0.658798 0
M  V30 9103 O 843.189 -2.51932 0.169228 0
M  V30 9104 C 844.502 -0.786763 2.90225 0
M  V30 9105 C 846.05 -0.882201 3.0031 0
M  V30 9106 C 846.525 -1.06074 4.45547 0
M  V30 9107 N 848.016 -1.12678 4.49286 0
M  V30 9108 C 848.751 -1.28334 5.58854 0
M  V30 9109 N 848.247 -1.40845 6.78332 0
M  V30 9110 N 850.04 -1.31277 5.46555 0
M  V30 9111 H 842.191 0.536334 2.05517 0
M  V30 9112 H 844.454 0.178363 0.93107 0
M  V30 9113 H 844.16 0.0713018 3.51628 0
M  V30 9114 H 844.034 -1.67364 3.38037 0
M  V30 9115 H 846.421 -1.73075 2.39017 0
M  V30 9116 H 846.502 0.0288405 2.55784 0
M  V30 9117 H 846.146 -0.216935 5.07437 0
M  V30 9118 H 846.076 -1.98611 4.8771 0
M  V30 9119 H 848.567 -1.04335 3.63212 0
M  V30 9120 H 848.88 -1.52566 7.57591 0
M  V30 9121 H 847.225 -1.37888 6.81184 0
M  V30 9122 H 850.416 -1.2112 4.52159 0
M  V30 9123 H 850.589 -1.43136 6.31994 0
M  V30 9124 N 843.995 -1.47404 -0.557645 0
M  V30 9125 C 845.411 -1.32913 -0.88353 0
M  V30 9126 C 845.611 -0.31929 -1.98954 0
M  V30 9127 O 844.667 0.26934 -2.51059 0
M  V30 9128 C 845.98 -2.72229 -1.27718 0
M  V30 9129 C 847.528 -2.8051 -1.38863 0
M  V30 9130 C 848.003 -4.20466 -1.81583 0
M  V30 9131 N 849.494 -4.23005 -1.88735 0
M  V30 9132 C 850.229 -5.2821 -2.23118 0
M  V30 9133 N 849.725 -6.4372 -2.56117 0
M  V30 9134 N 851.518 -5.15588 -2.23888 0
M  V30 9135 H 843.669 -2.11698 0.172557 0
M  V30 9136 H 845.932 -0.947889 0.0145334 0
M  V30 9137 H 845.638 -3.47556 -0.538329 0
M  V30 9138 H 845.512 -3.03971 -2.23342 0
M  V30 9139 H 847.899 -2.05457 -2.11829 0
M  V30 9140 H 847.98 -2.52423 -0.414274 0
M  V30 9141 H 847.624 -4.96025 -1.09187 0
M  V30 9142 H 847.554 -4.45977 -2.80021 0
M  V30 9143 H 850.045 -3.39674 -1.65621 0
M  V30 9144 H 850.358 -7.19754 -2.81378 0
M  V30 9145 H 848.703 -6.47041 -2.53698 0
M  V30 9146 H 851.894 -4.24374 -1.97546 0
M  V30 9147 H 852.067 -5.97685 -2.50353 0
M  V30 9148 N 845.473 0.80434 -1.35529 0
M  V30 9149 C 846.698 1.598 -1.32207 0
M  V30 9150 C 847.123 1.87848 0.0974226 0
M  V30 9151 O 846.481 1.46728 1.06492 0
M  V30 9152 C 846.529 2.90483 -2.13663 0
M  V30 9153 O 845.633 3.83411 -1.51888 0
M  V30 9154 H 844.974 0.485305 -0.453183 0
M  V30 9155 H 847.504 0.998119 -1.78602 0
M  V30 9156 H 847.514 3.39888 -2.257 0
M  V30 9157 H 846.189 2.69395 -3.16859 0
M  V30 9158 H 844.766 3.41967 -1.48704 0
M  V30 9159 N 846.951 1.19563 1.02676 0
M  V30 9160 C 848.2 0.993864 1.75514 0
M  V30 9161 C 848.513 -0.475882 1.89723 0
M  V30 9162 O 849.719 -0.796525 2.59553 0
M  V30 9163 C 848.175 1.72937 3.15628 0
M  V30 9164 C 847.783 3.23937 3.09466 0
M  V30 9165 C 849.527 1.61092 3.92746 0
M  V30 9166 C 847.434 3.90067 4.44524 0
M  V30 9167 H 846.364 0.368244 0.657961 0
M  V30 9168 H 849.015 1.43081 1.14891 0
M  V30 9169 H 847.397 1.22025 3.76731 0
M  V30 9170 H 848.571 3.81983 2.57731 0
M  V30 9171 H 846.886 3.3608 2.45843 0
M  V30 9172 H 849.483 2.07848 4.92649 0
M  V30 9173 H 849.826 0.565415 4.12442 0
M  V30 9174 H 850.359 2.09361 3.3825 0
M  V30 9175 H 847.098 4.94725 4.30032 0
M  V30 9176 H 846.618 3.36809 4.96306 0
M  V30 9177 H 848.297 3.93736 5.13401 0
M  V30 9178 N 848.429 -1.21819 0.999893 0
M  V30 9179 C 849.84 -1.72517 0.713775 0
M  V30 9180 C 850.191 -1.80505 -0.768922 0
M  V30 9181 O 849.316 -1.45611 -1.60083 0
M  V30 9182 C 849.911 -3.13321 1.28901 0
M  V30 9183 C 848.47 -3.61396 1.05212 0
M  V30 9184 C 847.617 -2.39074 1.40494 0
M  V30 9185 H 850.568 -1.07068 1.17141 0
M  V30 9186 H 850.589 -3.74535 0.671084 0
M  V30 9187 H 850.101 -3.07475 2.36814 0
M  V30 9188 H 848.202 -3.72599 -0.0100732 0
M  V30 9189 H 848.315 -4.47145 1.72042 0
M  V30 9190 H 846.679 -2.41015 0.823642 0
M  V30 9191 H 847.462 -2.35884 2.49427 0
M  V30 9192 N 849.908 -0.773975 -1.37286 0
M  V30 9193 C 850.838 -0.175782 -2.32837 0
M  V30 9194 C 851.819 0.680603 -1.5589 0
M  V30 9195 O 853.004 0.617607 -1.84117 0
M  V30 9196 C 850.134 0.702388 -3.40123 0
M  V30 9197 C 849.088 -0.0528687 -4.27967 0
M  V30 9198 C 848.414 0.944891 -5.26285 0
M  V30 9199 C 849.714 -1.23316 -5.07534 0
M  V30 9200 H 851.408 -0.974016 -2.83114 0
M  V30 9201 H 848.954 -0.469826 -1.3612 0
M  V30 9202 H 850.907 1.13069 -4.05947 0
M  V30 9203 H 849.631 1.53316 -2.88378 0
M  V30 9204 H 848.29 -0.461978 -3.63678 0
M  V30 9205 H 847.938 1.77028 -4.70819 0
M  V30 9206 H 847.638 0.444079 -5.8592 0
M  V30 9207 H 849.162 1.37209 -5.94984 0
M  V30 9208 H 850.576 -0.881395 -5.66484 0
M  V30 9209 H 848.973 -1.66621 -5.76504 0
M  V30 9210 H 850.043 -2.03617 -4.40077 0
M  V30 9211 N 851.386 1.48609 -0.524698 0
M  V30 9212 C 852.635 2.01696 0.0132937 0
M  V30 9213 C 852.948 1.40751 1.35825 0
M  V30 9214 O 854.154 1.85304 1.9843 0
M  V30 9215 C 852.61 3.59824 0.0741012 0
M  V30 9216 C 852.218 4.2975 -1.26564 0
M  V30 9217 C 853.962 4.20774 0.5612 0
M  V30 9218 C 851.869 5.79798 -1.16571 0
M  V30 9219 H 850.799 0.753949 0.00873931 0
M  V30 9220 H 853.45 1.70922 -0.667684 0
M  V30 9221 H 851.832 3.87416 0.820043 0
M  V30 9222 H 853.006 4.13836 -2.02674 0
M  V30 9223 H 851.321 3.80649 -1.68806 0
M  V30 9224 H 853.918 5.30687 0.653853 0
M  V30 9225 H 854.261 3.85734 1.56573 0
M  V30 9226 H 854.794 3.97591 -0.128901 0
M  V30 9227 H 851.533 6.19403 -2.14523 0
M  V30 9228 H 851.053 5.9814 -0.445894 0
M  V30 9229 H 852.732 6.41337 -0.854186 0
M  V30 9230 N 852.864 0.259585 1.55447 0
M  V30 9231 C 853.811 -0.634578 2.21905 0
M  V30 9232 C 854.781 -1.16168 1.18719 0
M  V30 9233 O 855.966 -1.21383 1.4721 0
M  V30 9234 C 853.106 -1.82005 2.93203 0
M  V30 9235 C 852.219 -1.32828 4.11073 0
M  V30 9236 C 851.354 -2.47431 4.70055 0
M  V30 9237 C 850.393 -1.95179 5.80148 0
M  V30 9238 N 849.53 -3.03197 6.33258 0
M  V30 9239 H 854.37 -0.0611886 2.97937 0
M  V30 9240 H 851.907 -0.0184378 1.47088 0
M  V30 9241 H 853.865 -2.51664 3.32748 0
M  V30 9242 H 852.495 -2.36571 2.19622 0
M  V30 9243 H 851.547 -0.525301 3.76756 0
M  V30 9244 H 852.859 -0.905435 4.90513 0
M  V30 9245 H 852.013 -3.25111 5.12238 0
M  V30 9246 H 850.752 -2.93023 3.89857 0
M  V30 9247 H 849.757 -1.15974 5.37429 0
M  V30 9248 H 850.982 -1.50541 6.62204 0
M  V30 9249 H 848.928 -3.48199 5.55961 0
M  V30 9250 H 848.845 -2.65282 7.07928 0
M  V30 9251 H 850.113 -3.80898 6.80101 0
M  V30 9252 N 854.342 -1.57594 -0.0133615 0
M  V30 9253 C 855.305 -2.06534 -0.993799 0
M  V30 9254 C 856.305 -0.972267 -1.28077 0
M  V30 9255 O 857.495 -1.23537 -1.22818 0
M  V30 9256 C 854.627 -2.49554 -2.3224 0
M  V30 9257 H 855.82 -2.94419 -0.570741 0
M  V30 9258 H 853.373 -1.54113 -0.260546 0
M  V30 9259 H 854.108 -1.64872 -2.79263 0
M  V30 9260 H 853.893 -3.29371 -2.12737 0
M  V30 9261 H 855.383 -2.8779 -3.026 0
M  V30 9262 N 855.82 0.285905 -1.54985 0
M  V30 9263 C 857.069 1.01691 -1.74189 0
M  V30 9264 C 857.382 1.87908 -0.543135 0
M  V30 9265 O 858.588 2.64389 -0.617305 0
M  V30 9266 C 857.044 1.85785 -3.0824 0
M  V30 9267 C 856.652 1.04497 -4.35642 0
M  V30 9268 C 858.396 2.58393 -3.36798 0
M  V30 9269 C 856.303 1.87955 -5.60738 0
M  V30 9270 H 855.233 0.383396 -0.649248 0
M  V30 9271 H 857.884 0.27317 -1.81455 0
M  V30 9272 H 856.266 2.64205 -2.94978 0
M  V30 9273 H 857.44 0.305847 -4.59784 0
M  V30 9274 H 855.755 0.434023 -4.14132 0
M  V30 9275 H 858.352 3.21214 -4.27464 0
M  V30 9276 H 858.695 3.28011 -2.56349 0
M  V30 9277 H 859.228 1.87012 -3.511 0
M  V30 9278 H 855.967 1.22781 -6.43898 0
M  V30 9279 H 855.487 2.59499 -5.40759 0
M  V30 9280 H 857.166 2.45636 -5.98558 0
M  V30 9281 N 857.298 1.47698 0.54982 0
M  V30 9282 C 858.714 1.3338 0.876468 0
M  V30 9283 C 858.914 0.329837 1.98782 0
M  V30 9284 O 857.97 -0.256022 2.51199 0
M  V30 9285 C 859.283 2.72903 1.26272 0
M  V30 9286 C 860.831 2.81243 1.37373 0
M  V30 9287 C 861.306 4.21423 1.79351 0
M  V30 9288 N 862.797 4.24 1.86489 0
M  V30 9289 C 863.532 5.29386 2.20313 0
M  V30 9290 N 863.028 6.4507 2.527 0
M  V30 9291 N 864.821 5.16768 2.2115 0
M  V30 9292 H 856.972 2.11603 -0.183781 0
M  V30 9293 H 859.235 0.947798 -0.0195601 0
M  V30 9294 H 858.941 3.47836 0.519889 0
M  V30 9295 H 858.815 3.05151 2.21727 0
M  V30 9296 H 861.202 2.06577 2.10737 0
M  V30 9297 H 861.283 2.52639 0.400882 0
M  V30 9298 H 860.927 4.96597 1.06555 0
M  V30 9299 H 860.857 4.47456 2.77652 0
M  V30 9300 H 863.348 3.40547 1.63817 0
M  V30 9301 H 863.661 7.21236 2.77557 0
M  V30 9302 H 862.006 6.48377 2.50263 0
M  V30 9303 H 865.197 4.25416 1.95293 0
M  V30 9304 H 865.37 5.99004 2.4718 0
M  V30 9305 N 858.776 -0.797141 1.35954 0
M  V30 9306 C 859.686 -1.94088 1.31784 0
M  V30 9307 C 860.702 -1.72588 0.221227 0
M  V30 9308 O 861.878 -1.96256 0.452255 0
M  V30 9309 C 858.943 -3.28828 1.09878 0
M  V30 9310 C 858.004 -3.63158 2.28942 0
M  V30 9311 C 857.237 -4.91469 2.08072 0
M  V30 9312 O 857.46 -5.60616 1.05196 0
M  V30 9313 O 856.394 -5.24277 2.95664 0
M  V30 9314 H 860.22 -2.00554 2.28061 0
M  V30 9315 H 857.805 -0.936288 1.16422 0
M  V30 9316 H 859.687 -4.09473 0.995485 0
M  V30 9317 H 858.362 -3.23271 0.16659 0
M  V30 9318 H 857.269 -2.82851 2.44839 0
M  V30 9319 H 858.602 -3.7343 3.20641 0
M  V30 9320 N 860.254 -1.20106 -1.0204 0
M  V30 9321 C 861.479 -1.0351 -1.79723 0
M  V30 9322 C 861.904 0.411328 -1.83548 0
M  V30 9323 O 861.262 1.29608 -1.26773 0
M  V30 9324 C 861.31 -1.61876 -3.22224 0
M  V30 9325 O 860.414 -0.853813 -4.03465 0
M  V30 9326 H 859.755 -0.365299 -0.554484 0
M  V30 9327 H 862.285 -1.59316 -1.28373 0
M  V30 9328 H 862.295 -1.65451 -3.72948 0
M  V30 9329 H 860.97 -2.67148 -3.18755 0
M  V30 9330 H 859.547 -0.891983 -3.62075 0
M  V30 9331 N 861.732 1.21287 -1.00634 0
M  V30 9332 C 862.96 1.94385 -0.708678 0
M  V30 9333 C 863.375 1.7416 0.728957 0
M  V30 9334 O 862.732 1.04906 1.49335 0
M  V30 9335 C 862.783 3.46755 -1.02193 0
M  V30 9336 O 862.504 3.6631 -2.40309 0
M  V30 9337 C 864.005 4.37014 -0.743867 0
M  V30 9338 H 861.225 0.618136 -0.261052 0
M  V30 9339 H 863.769 1.54067 -1.34475 0
M  V30 9340 H 861.924 3.8499 -0.431441 0
M  V30 9341 H 862.338 4.60393 -2.51274 0
M  V30 9342 H 863.812 5.42621 -1.01321 0
M  V30 9343 H 864.289 4.38017 0.322084 0
M  V30 9344 H 864.895 4.04426 -1.31603 0
M  V30 9345 N 863.21 0.781244 1.36873 0
M  V30 9346 C 864.12 0.174981 2.33947 0
M  V30 9347 C 865.136 -0.668512 1.60645 0
M  V30 9348 O 866.312 -0.586213 1.9268 0
M  V30 9349 C 863.377 -0.686557 3.39834 0
M  V30 9350 C 862.438 0.174489 4.28945 0
M  V30 9351 C 861.671 -0.646024 5.29776 0
M  V30 9352 O 861.894 -1.88254 5.38439 0
M  V30 9353 O 860.828 -0.0502214 6.01879 0
M  V30 9354 H 864.654 0.977382 2.87543 0
M  V30 9355 H 862.239 0.542559 1.392 0
M  V30 9356 H 864.121 -1.1781 4.04597 0
M  V30 9357 H 862.796 -1.46699 2.8855 0
M  V30 9358 H 861.703 0.712604 3.6725 0
M  V30 9359 H 863.036 0.918232 4.83559 0
M  V30 9360 N 864.689 -1.48329 0.532571 0
M  V30 9361 C 865.619 -2.32485 -0.217511 0
M  V30 9362 C 866.6 -1.42255 -0.932598 0
M  V30 9363 O 867.785 -1.7114 -0.917873 0
M  V30 9364 C 864.915 -3.23509 -1.26329 0
M  V30 9365 C 863.869 -4.22784 -0.666191 0
M  V30 9366 C 863.195 -5.0296 -1.81482 0
M  V30 9367 C 864.495 -5.21031 0.363813 0
M  V30 9368 H 866.189 -2.95445 0.485014 0
M  V30 9369 H 863.735 -1.42075 0.234694 0
M  V30 9370 H 865.688 -3.81211 -1.79601 0
M  V30 9371 H 864.412 -2.58554 -1.99543 0
M  V30 9372 H 863.071 -3.66272 -0.15498 0
M  V30 9373 H 862.719 -4.34427 -2.5354 0
M  V30 9374 H 862.419 -5.70154 -1.4212 0
M  V30 9375 H 863.943 -5.63514 -2.35126 0
M  V30 9376 H 865.357 -5.73241 -0.0819079 0
M  V30 9377 H 863.754 -5.96292 0.674956 0
M  V30 9378 H 864.824 -4.6801 1.26865 0
M  V30 9379 N 866.167 -0.267825 -1.55308 0
M  V30 9380 C 867.578 0.231344 -1.85261 0
M  V30 9381 C 867.929 1.56006 -1.18982 0
M  V30 9382 O 867.054 2.1111 -0.475554 0
M  V30 9383 C 867.649 0.426537 -3.36104 0
M  V30 9384 C 866.208 0.869945 -3.66209 0
M  V30 9385 C 865.355 -0.0409522 -2.7727 0
M  V30 9386 H 868.306 -0.489821 -1.50952 0
M  V30 9387 H 868.327 1.26616 -3.58816 0
M  V30 9388 H 867.839 -0.540678 -3.84315 0
M  V30 9389 H 865.94 1.84889 -3.23492 0
M  V30 9390 H 866.053 0.712316 -4.73775 0
M  V30 9391 H 864.417 0.474097 -2.50249 0
M  V30 9392 H 865.2 -1.00392 -3.28293 0
M  V30 9393 N 867.645 1.57599 0.00500368 0
M  V30 9394 C 868.577 2.04949 1.02609 0
M  V30 9395 C 869.59 0.966507 1.31006 0
M  V30 9396 O 870.779 1.2434 1.2807 0
M  V30 9397 C 867.879 2.43023 2.36206 0
M  V30 9398 C 867.052 3.73993 2.26821 0
M  V30 9399 C 866.111 3.9899 3.43065 0
M  V30 9400 O 865.137 4.69725 3.21477 0
M  V30 9401 N 866.339 3.46496 4.65748 0
M  V30 9402 H 869.104 2.93167 0.622336 0
M  V30 9403 H 866.665 1.60752 0.192488 0
M  V30 9404 H 868.657 2.56863 3.12735 0
M  V30 9405 H 867.227 1.60349 2.68341 0
M  V30 9406 H 866.447 3.70277 1.35235 0
M  V30 9407 H 867.735 4.59865 2.17719 0
M  V30 9408 H 867.133 2.89206 4.86186 0
M  V30 9409 H 865.69 3.65675 5.3956 0
M  V30 9410 N 869.123 -0.277682 1.55134 0
M  V30 9411 C 870.4 -1.0309 1.66228 0
M  V30 9412 C 870.78 -2.0445 0.525701 0
M  V30 9413 O 870.128 -2.23512 -0.474816 0
M  V30 9414 C 870.338 -1.6919 3.05247 0
M  V30 9415 C 871.686 -2.20526 3.62841 0
M  V30 9416 O 872.71 -1.79185 3.07849 0
M  V30 9417 O 871.569 -2.96342 4.59177 0
M  V30 9418 H 868.663 -0.4779 0.674937 0
M  V30 9419 H 871.209 -0.273912 1.67475 0
M  V30 9420 H 869.981 -0.957163 3.79413 0
M  V30 9421 H 869.604 -2.51587 3.07879 0
M  V30 9422 N 870.601 -1.47988 -0.541979 0
M  V30 9423 C 871.548 -1.61615 -1.6477 0
M  V30 9424 C 872.518 -0.458602 -1.59644 0
M  V30 9425 O 873.703 -0.680585 -1.78249 0
M  V30 9426 C 870.843 -1.65066 -3.03063 0
M  V30 9427 C 869.956 -2.91845 -3.18513 0
M  V30 9428 C 869.091 -2.86534 -4.47294 0
M  V30 9429 C 868.13 -4.0807 -4.5623 0
M  V30 9430 N 867.267 -4.00905 -5.76385 0
M  V30 9431 H 872.107 -2.56046 -1.52461 0
M  V30 9432 H 869.644 -1.26989 -0.742449 0
M  V30 9433 H 871.602 -1.65049 -3.83164 0
M  V30 9434 H 870.232 -0.74136 -3.14171 0
M  V30 9435 H 869.284 -3.01661 -2.31743 0
M  V30 9436 H 870.596 -3.81804 -3.20978 0
M  V30 9437 H 869.75 -2.84851 -5.35672 0
M  V30 9438 H 868.489 -1.94283 -4.47332 0
M  V30 9439 H 867.494 -4.10041 -3.66261 0
M  V30 9440 H 868.719 -5.01465 -4.5794 0
M  V30 9441 H 866.665 -3.11467 -5.77342 0
M  V30 9442 H 866.582 -4.84557 -5.80293 0
M  V30 9443 H 867.85 -4.03263 -6.67083 0
M  V30 9444 N 872.079 0.78992 -1.36375 0
M  V30 9445 C 873.325 1.55007 -1.3077 0
M  V30 9446 C 873.658 1.93871 0.112979 0
M  V30 9447 O 872.933 1.6267 1.06625 0
M  V30 9448 C 873.216 2.82748 -2.22993 0
M  V30 9449 C 873.069 2.50253 -3.73756 0
M  V30 9450 C 874.388 3.84569 -2.13998 0
M  V30 9451 H 871.507 0.562362 -0.476359 0
M  V30 9452 H 874.149 0.907582 -1.66922 0
M  V30 9453 H 872.299 3.37573 -1.92292 0
M  V30 9454 H 873.971 2.01482 -4.14973 0
M  V30 9455 H 872.214 1.83203 -3.93216 0
M  V30 9456 H 872.885 3.41487 -4.33694 0
M  V30 9457 H 875.361 3.39188 -2.4102 0
M  V30 9458 H 874.237 4.717 -2.80697 0
M  V30 9459 H 874.498 4.27491 -1.12711 0
M  V30 9460 N 873.557 1.20646 1.01402 0
M  V30 9461 C 874.806 1.01242 1.7445 0
M  V30 9462 C 875.119 -0.455732 1.90217 0
M  V30 9463 O 876.325 -0.768951 2.60383 0
M  V30 9464 C 874.781 1.76275 3.13776 0
M  V30 9465 C 874.389 3.27201 3.06013 0
M  V30 9466 C 876.133 1.65248 3.91016 0
M  V30 9467 C 874.04 3.9476 4.40362 0
M  V30 9468 H 872.97 0.375202 0.654018 0
M  V30 9469 H 875.621 1.44292 1.13367 0
M  V30 9470 H 874.003 1.26013 3.75415 0
M  V30 9471 H 875.177 3.84695 2.53665 0
M  V30 9472 H 873.492 3.38669 2.42265 0
M  V30 9473 H 876.089 2.13061 4.90417 0
M  V30 9474 H 876.432 0.609128 4.1182 0
M  V30 9475 H 876.965 2.12937 3.3601 0
M  V30 9476 H 873.704 4.99258 4.24761 0
M  V30 9477 H 873.224 3.42054 4.92706 0
M  V30 9478 H 874.903 3.99159 5.09196 0
M  V30 9479 N 875.035 -1.20752 1.01276 0
M  V30 9480 C 875.965 -2.25658 0.600064 0
M  V30 9481 C 876.946 -1.65733 -0.38298 0
M  V30 9482 O 878.131 -1.92324 -0.269256 0
M  V30 9483 C 875.261 -3.47237 -0.0663197 0
M  V30 9484 C 874.215 -4.1973 0.83731 0
M  V30 9485 C 873.541 -5.34687 0.0369102 0
M  V30 9486 C 874.841 -4.76286 2.14357 0
M  V30 9487 H 876.535 -2.60432 1.477 0
M  V30 9488 H 874.081 -1.25187 0.711634 0
M  V30 9489 H 876.034 -4.19803 -0.366563 0
M  V30 9490 H 874.758 -3.11615 -0.977944 0
M  V30 9491 H 873.417 -3.49024 1.1215 0
M  V30 9492 H 873.065 -4.95309 -0.876244 0
M  V30 9493 H 872.765 -5.84119 0.63865 0
M  V30 9494 H 874.289 -6.10059 -0.256968 0
M  V30 9495 H 875.703 -5.40691 1.90595 0
M  V30 9496 H 874.1 -5.36139 2.69583 0
M  V30 9497 H 875.17 -3.9524 2.80916 0
M  V30 9498 N 876.513 -0.788492 -1.36457 0
M  V30 9499 C 877.738 -0.371224 -2.04051 0
M  V30 9500 C 878.163 1.004 -1.59064 0
M  V30 9501 O 877.521 1.64663 -0.758679 0
M  V30 9502 C 877.569 -0.442275 -3.57877 0
M  V30 9503 O 876.673 0.55113 -4.08701 0
M  V30 9504 H 876.014 -0.157808 -0.644975 0
M  V30 9505 H 878.544 -1.06935 -1.74431 0
M  V30 9506 H 878.554 -0.305548 -4.06854 0
M  V30 9507 H 877.229 -1.44547 -3.89973 0
M  V30 9508 H 875.806 0.37614 -3.70998 0
M  V30 9509 N 877.991 1.48044 -0.54043 0
M  V30 9510 C 879.24 2.01698 -0.00809961 0
M  V30 9511 C 879.553 1.42184 1.34325 0
M  V30 9512 O 880.759 1.87398 1.96454 0
M  V30 9513 C 879.215 3.59882 0.035933 0
M  V30 9514 C 878.823 4.28384 -1.31115 0
M  V30 9515 C 880.567 4.21346 0.51654 0
M  V30 9516 C 878.474 5.78529 -1.22714 0
M  V30 9517 H 877.404 0.754 0.000742174 0
M  V30 9518 H 880.055 1.70204 -0.685775 0
M  V30 9519 H 878.437 3.88264 0.778906 0
M  V30 9520 H 879.611 4.11663 -2.07051 0
M  V30 9521 H 877.926 3.78837 -1.72834 0
M  V30 9522 H 880.523 5.31351 0.597529 0
M  V30 9523 H 880.866 3.87373 1.52473 0
M  V30 9524 H 881.399 3.97432 -0.171064 0
M  V30 9525 H 878.138 6.17093 -2.21081 0
M  V30 9526 H 877.658 5.97634 -0.50931 0
M  V30 9527 H 879.337 6.40395 -0.92216 0
M  V30 9528 N 879.47 0.276058 1.55163 0
M  V30 9529 C 880.747 -0.392292 1.91626 0
M  V30 9530 C 881.127 -1.73646 1.20043 0
M  V30 9531 O 880.475 -2.26139 0.327606 0
M  V30 9532 C 880.685 -0.531641 3.44927 0
M  V30 9533 C 882.033 -0.8141 4.16722 0
M  V30 9534 O 883.057 -0.616413 3.50826 0
M  V30 9535 O 881.916 -1.19224 5.33337 0
M  V30 9536 H 879.01 -0.214945 0.798579 0
M  V30 9537 H 881.556 0.32228 1.66612 0
M  V30 9538 H 880.328 0.414282 3.89101 0
M  V30 9539 H 879.951 -1.29564 3.75897 0
M  V30 9540 N 880.948 -1.576 0.00335426 0
M  V30 9541 C 882.176 -1.94996 -0.691685 0
M  V30 9542 C 882.591 -0.878405 -1.67121 0
M  V30 9543 O 881.948 0.142343 -1.81944 0
M  V30 9544 C 881.999 -3.32416 -1.42063 0
M  V30 9545 O 881.72 -4.35458 -0.48038 0
M  V30 9546 C 883.221 -3.84291 -2.20987 0
M  V30 9547 H 880.441 -0.642814 -0.192434 0
M  V30 9548 H 882.985 -2.04425 0.0554706 0
M  V30 9549 H 881.14 -3.24285 -2.11939 0
M  V30 9550 H 881.554 -5.14975 -0.995054 0
M  V30 9551 H 883.028 -4.82863 -2.67483 0
M  V30 9552 H 883.505 -3.17174 -3.03805 0
M  V30 9553 H 884.111 -3.95609 -1.56121 0
M  V30 9554 N 882.426 0.269451 -1.5528 0
M  V30 9555 C 883.656 1.01724 -1.79821 0
M  V30 9556 C 884.064 1.80298 -0.573532 0
M  V30 9557 O 883.407 1.77666 0.466963 0
M  V30 9558 C 883.469 2.02043 -2.97353 0
M  V30 9559 C 883.133 1.42375 -4.34256 0
M  V30 9560 C 884.13 0.837611 -5.13108 0
M  V30 9561 C 881.815 1.44988 -4.8092 0
M  V30 9562 C 883.809 0.285557 -6.3676 0
M  V30 9563 C 881.496 0.893969 -6.04526 0
M  V30 9564 C 882.494 0.312809 -6.82283 0
M  V30 9565 O 882.182 -0.234582 -8.03558 0
M  V30 9566 H 881.914 0.30604 -0.602757 0
M  V30 9567 H 884.468 0.30454 -2.0313 0
M  V30 9568 H 882.698 2.77082 -2.69745 0
M  V30 9569 H 884.387 2.6298 -3.09187 0
M  V30 9570 H 885.153 0.81009 -4.78187 0
M  V30 9571 H 881.032 1.89162 -4.20403 0
M  V30 9572 H 884.576 -0.168696 -6.97396 0
M  V30 9573 H 880.473 0.918742 -6.38928 0
M  V30 9574 H 881.241 -0.124282 -8.18406 0
M  V30 9575 N 883.904 1.48273 0.534124 0
M  V30 9576 C 885.32 1.34302 0.862272 0
M  V30 9577 C 885.52 0.350902 1.98421 0
M  V30 9578 O 884.576 -0.229364 2.51456 0
M  V30 9579 C 885.889 2.74227 1.23371 0
M  V30 9580 C 887.437 2.82684 1.34383 0
M  V30 9581 C 887.912 4.23301 1.74871 0
M  V30 9582 N 889.403 4.25954 1.81981 0
M  V30 9583 C 890.138 5.31693 2.14686 0
M  V30 9584 N 889.634 6.47714 2.45844 0
M  V30 9585 N 891.427 5.19084 2.15657 0
M  V30 9586 H 883.578 2.11397 -0.206215 0
M  V30 9587 H 885.841 0.947537 -0.0296116 0
M  V30 9588 H 885.547 3.48368 0.482967 0
M  V30 9589 H 885.421 3.07485 2.18478 0
M  V30 9590 H 887.808 2.08801 2.08534 0
M  V30 9591 H 887.889 2.5305 0.374063 0
M  V30 9592 H 887.533 4.97699 1.01282 0
M  V30 9593 H 887.463 4.50376 2.7289 0
M  V30 9594 H 889.954 3.42266 1.60196 0
M  V30 9595 H 890.267 7.2414 2.69892 0
M  V30 9596 H 888.612 6.50995 2.43372 0
M  V30 9597 H 891.803 4.27463 1.9077 0
M  V30 9598 H 891.976 6.01592 2.40813 0
M  V30 9599 N 885.382 -0.782676 1.36792 0
M  V30 9600 C 886.607 -1.57676 1.34733 0
M  V30 9601 C 887.032 -1.87979 -0.0675253 0
M  V30 9602 O 886.39 -1.48404 -1.04144 0
M  V30 9603 C 886.438 -2.87047 2.18257 0
M  V30 9604 O 885.542 -3.80946 1.57969 0
M  V30 9605 H 884.883 -0.478034 0.460846 0
M  V30 9606 H 887.413 -0.969578 1.80168 0
M  V30 9607 H 887.423 -3.36254 2.31079 0
M  V30 9608 H 886.098 -2.64319 3.21104 0
M  V30 9609 H 884.675 -3.39558 1.54126 0
M  V30 9610 N 886.86 -1.21182 -1.00761 0
M  V30 9611 C 887.808 -0.965728 -2.11604 0
M  V30 9612 C 888.802 0.0861028 -1.69181 0
M  V30 9613 O 890.008 -0.0650558 -1.79882 0
M  V30 9614 H 886.383 -0.295023 -0.691712 0
M  V30 9615 H 888.354 -1.90667 -2.2954 0
M  V30 9616 C 887.103 -0.544164 -3.43415 0
M  V30 9617 H 886.426 -1.34515 -3.76491 0
M  V30 9618 H 887.866 -0.411268 -4.22001 0
M  V30 9619 C 886.325 0.744583 -3.28569 0
M  V30 9620 O 886.855 1.80078 -3.59075 0
M  V30 9621 N 885.061 0.710083 -2.81791 0
M  V30 9622 H 884.608 -0.14971 -2.57165 0
M  V30 9623 H 884.566 1.57268 -2.72239 0
M  V30 9624 N 888.338 1.20213 -1.01915 0
M  V30 9625 C 889.584 1.89928 -0.711007 0
M  V30 9626 C 889.917 1.7881 0.75767 0
M  V30 9627 O 889.192 1.17399 1.55073 0
M  V30 9628 C 889.475 3.41225 -1.15053 0
M  V30 9629 C 889.328 3.61264 -2.67971 0
M  V30 9630 C 890.647 4.34108 -0.72377 0
M  V30 9631 H 887.766 0.689702 -0.259768 0
M  V30 9632 H 890.408 1.41557 -1.26734 0
M  V30 9633 H 888.558 3.82552 -0.677199 0
M  V30 9634 H 890.23 3.29173 -3.23176 0
M  V30 9635 H 888.473 3.04647 -3.08824 0
M  V30 9636 H 889.144 4.67331 -2.93779 0
M  V30 9637 H 891.62 4.00442 -1.13073 0
M  V30 9638 H 890.496 5.38581 -1.05931 0
M  V30 9639 H 890.757 4.40512 0.374424 0
M  V30 9640 N 889.816 0.795718 1.36037 0
M  V30 9641 C 890.779 0.204318 2.28287 0
M  V30 9642 C 891.779 -0.602017 1.49105 0
M  V30 9643 O 892.969 -0.422089 1.69009 0
M  V30 9644 C 890.101 -0.716431 3.33287 0
M  V30 9645 H 891.294 1.01781 2.821 0
M  V30 9646 H 888.847 0.565588 1.45708 0
M  V30 9647 H 889.582 -1.55403 2.84641 0
M  V30 9648 H 889.367 -0.140096 3.9185 0
M  V30 9649 H 890.857 -1.12488 4.02164 0
M  V30 9650 N 891.294 -1.47756 0.548274 0
M  V30 9651 C 892.241 -2.29893 -0.204408 0
M  V30 9652 C 893.211 -1.38509 -0.916761 0
M  V30 9653 O 894.396 -1.67472 -0.91421 0
M  V30 9654 C 891.536 -3.22282 -1.23403 0
M  V30 9655 C 890.649 -4.28753 -0.528654 0
M  V30 9656 C 889.784 -5.08303 -1.54279 0
M  V30 9657 C 888.823 -6.06557 -0.821893 0
M  V30 9658 N 887.96 -6.79098 -1.78243 0
M  V30 9659 H 892.8 -2.93739 0.502163 0
M  V30 9660 H 890.337 -1.44793 0.259471 0
M  V30 9661 H 892.295 -3.74262 -1.84348 0
M  V30 9662 H 890.925 -2.6032 -1.90875 0
M  V30 9663 H 889.977 -3.79899 0.195132 0
M  V30 9664 H 891.289 -4.98787 0.0365066 0
M  V30 9665 H 890.443 -5.64388 -2.22602 0
M  V30 9666 H 889.182 -4.3815 -2.14186 0
M  V30 9667 H 888.187 -5.49659 -0.12469 0
M  V30 9668 H 889.412 -6.78715 -0.228685 0
M  V30 9669 H 887.358 -6.11682 -2.37025 0
M  V30 9670 H 887.275 -7.4527 -1.26919 0
M  V30 9671 H 888.543 -7.39762 -2.45709 0
M  V30 9672 N 892.772 -0.284283 -1.55015 0
M  V30 9673 C 893.682 0.60906 -2.26556 0
M  V30 9674 C 894.698 1.16246 -1.29472 0
M  V30 9675 O 895.874 1.1908 -1.62425 0
M  V30 9676 C 892.939 1.77246 -2.97968 0
M  V30 9677 C 892 1.25482 -4.10552 0
M  V30 9678 C 891.233 2.36277 -4.78549 0
M  V30 9679 O 891.456 3.55829 -4.45805 0
M  V30 9680 O 890.39 2.03914 -5.66306 0
M  V30 9681 H 894.216 0.0292298 -3.03686 0
M  V30 9682 H 891.801 -0.0513466 -1.49312 0
M  V30 9683 H 893.683 2.45062 -3.42815 0
M  V30 9684 H 892.358 2.33921 -2.23747 0
M  V30 9685 H 891.265 0.542859 -3.7014 0
M  V30 9686 H 892.598 0.733708 -4.86701 0
M  V30 9687 N 894.251 1.57596 -0.0117121 0
M  V30 9688 C 895.214 2.08089 0.960816 0
M  V30 9689 C 896.214 0.992519 1.26514 0
M  V30 9690 O 897.404 1.25475 1.20837 0
M  V30 9691 C 894.536 2.53217 2.28241 0
M  V30 9692 H 895.729 2.9529 0.523829 0
M  V30 9693 H 893.282 1.54508 0.235995 0
M  V30 9694 H 894.017 1.69294 2.76604 0
M  V30 9695 H 893.802 3.32714 2.0747 0
M  V30 9696 H 895.292 2.92568 2.97983 0
M  V30 9697 N 895.729 -0.261212 1.5542 0
M  V30 9698 C 896.978 -0.989072 1.75785 0
M  V30 9699 C 897.291 -1.8702 0.572961 0
M  V30 9700 O 898.497 -2.63374 0.659289 0
M  V30 9701 C 896.953 -1.80857 3.11157 0
M  V30 9702 C 896.561 -0.975535 4.3725 0
M  V30 9703 C 898.305 -2.53003 3.40866 0
M  V30 9704 C 896.212 -1.7901 5.63657 0
M  V30 9705 H 895.142 -0.373019 0.655266 0
M  V30 9706 H 897.793 -0.244267 1.81867 0
M  V30 9707 H 896.175 -2.59479 2.99144 0
M  V30 9708 H 897.349 -0.232661 4.60212 0
M  V30 9709 H 895.664 -0.368083 4.1477 0
M  V30 9710 H 898.261 -3.14372 4.32521 0
M  V30 9711 H 898.604 -3.23891 2.61535 0
M  V30 9712 H 899.137 -1.81403 3.54031 0
M  V30 9713 H 895.876 -1.12522 6.4577 0
M  V30 9714 H 895.396 -2.50863 5.44819 0
M  V30 9715 H 897.075 -2.36082 6.0239 0
M  V30 9716 N 897.207 -1.48554 -0.526253 0
M  V30 9717 C 898.154 -1.63354 -1.63046 0
M  V30 9718 C 899.124 -0.475509 -1.59148 0
M  V30 9719 O 900.309 -0.699453 -1.77517 0
M  V30 9720 C 897.449 -1.68271 -3.01295 0
M  V30 9721 C 896.562 -2.95207 -3.15399 0
M  V30 9722 C 895.697 -2.91262 -4.4423 0
M  V30 9723 C 894.736 -4.12886 -4.51876 0
M  V30 9724 N 893.873 -4.06996 -5.721 0
M  V30 9725 H 898.713 -2.57649 -1.49737 0
M  V30 9726 H 896.25 -1.27769 -0.728938 0
M  V30 9727 H 898.208 -1.69104 -3.81392 0
M  V30 9728 H 896.838 -0.774641 -3.13367 0
M  V30 9729 H 895.89 -3.04102 -2.2853 0
M  V30 9730 H 897.202 -3.85187 -3.1691 0
M  V30 9731 H 896.356 -2.90516 -5.32621 0
M  V30 9732 H 895.095 -1.99016 -4.45246 0
M  V30 9733 H 894.1 -4.13902 -3.61891 0
M  V30 9734 H 895.325 -5.06294 -4.52596 0
M  V30 9735 H 893.271 -3.17573 -5.74006 0
M  V30 9736 H 893.188 -4.90685 -5.75121 0
M  V30 9737 H 894.456 -4.10315 -6.62768 0
M  V30 9738 N 898.685 0.775411 -1.37205 0
M  V30 9739 C 899.931 1.53611 -1.32407 0
M  V30 9740 C 900.264 1.9398 0.0924103 0
M  V30 9741 O 899.539 1.63791 1.04893 0
M  V30 9742 C 899.822 2.80367 -2.25979 0
M  V30 9743 C 899.675 2.46275 -3.76389 0
M  V30 9744 C 900.994 3.82277 -2.18064 0
M  V30 9745 H 898.113 0.557278 -0.482297 0
M  V30 9746 H 900.755 0.889826 -1.67875 0
M  V30 9747 H 898.905 3.35515 -1.95862 0
M  V30 9748 H 900.577 1.9707 -4.17087 0
M  V30 9749 H 898.82 1.79023 -3.95137 0
M  V30 9750 H 899.491 3.36868 -4.37291 0
M  V30 9751 H 901.967 3.36613 -2.44604 0
M  V30 9752 H 900.843 4.68696 -2.85684 0
M  V30 9753 H 901.104 4.26272 -1.17239 0
M  V30 9754 N 900.163 1.21714 1.00117 0
M  V30 9755 C 901.411 1.03465 1.73607 0
M  V30 9756 C 901.732 -0.432295 1.90148 0
M  V30 9757 O 901.002 -1.31157 1.45515 0
M  V30 9758 H 899.582 0.379857 0.643209 0
M  V30 9759 H 902.244 1.53088 1.20624 0
M  V30 9760 H 901.34 1.50574 2.73375 0
M  V30 9761 N 901.641 -1.19671 1.02551 0
M  V30 9762 C 902.887 -1.89548 0.721069 0
M  V30 9763 C 903.22 -1.79209 -0.748176 0
M  V30 9764 O 902.495 -1.1822 -1.54448 0
M  V30 9765 C 902.778 -3.4061 1.16861 0
M  V30 9766 C 902.631 -3.59838 2.69883 0
M  V30 9767 C 903.95 -4.33718 0.746782 0
M  V30 9768 H 901.069 -0.688315 0.263422 0
M  V30 9769 H 903.711 -1.40883 1.27483 0
M  V30 9770 H 901.861 -3.82188 0.697477 0
M  V30 9771 H 903.533 -3.27454 3.24917 0
M  V30 9772 H 901.776 -3.03005 3.10435 0
M  V30 9773 H 902.447 -4.65766 2.96253 0
M  V30 9774 H 904.923 -3.99837 1.15195 0
M  V30 9775 H 903.799 -5.38012 1.08786 0
M  V30 9776 H 904.06 -4.40704 -0.351057 0
M  V30 9777 N 903.119 -0.802921 -1.35613 0
M  V30 9778 C 904.396 -0.304993 -1.93208 0
M  V30 9779 C 904.776 1.20488 -1.73337 0
M  V30 9780 O 904.124 2.00268 -1.10022 0
M  V30 9781 C 904.334 -0.712383 -3.41652 0
M  V30 9782 C 905.682 -0.699785 -4.18794 0
M  V30 9783 O 906.706 -0.653698 -3.5015 0
M  V30 9784 O 905.565 -0.754842 -5.41262 0
M  V30 9785 H 902.659 -0.0789127 -0.823226 0
M  V30 9786 H 905.205 -0.886372 -1.44712 0
M  V30 9787 H 903.977 -1.75316 -3.49829 0
M  V30 9788 H 903.6 -0.105614 -3.9746 0
M  V30 9789 N 904.597 1.47463 -0.556102 0
M  V30 9790 C 905.846 2.01678 -0.029492 0
M  V30 9791 C 906.159 1.436 1.32809 0
M  V30 9792 O 907.365 1.89472 1.94455 0
M  V30 9793 C 905.821 3.599 -0.00223937 0
M  V30 9794 C 905.429 4.26969 -1.35651 0
M  V30 9795 C 907.173 4.2187 0.471822 0
M  V30 9796 C 905.08 5.77194 -1.28843 0
M  V30 9797 H 904.01 0.753965 -0.00725504 0
M  V30 9798 H 906.661 1.69467 -0.703789 0
M  V30 9799 H 905.043 3.89068 0.737682 0
M  V30 9800 H 906.217 4.09444 -2.11406 0
M  V30 9801 H 904.532 3.76983 -1.76842 0
M  V30 9802 H 907.129 5.31955 0.541139 0
M  V30 9803 H 907.472 3.88968 1.48356 0
M  V30 9804 H 908.005 3.97228 -0.213207 0
M  V30 9805 H 904.744 6.14713 -2.27613 0
M  V30 9806 H 904.264 5.9706 -0.572668 0
M  V30 9807 H 905.943 6.3938 -0.990031 0
M  V30 9808 N 906.075 0.2925 1.54862 0
M  V30 9809 C 907.324 -0.319994 1.99146 0
M  V30 9810 C 907.637 -1.55658 1.18448 0
M  V30 9811 O 908.843 -2.24312 1.52959 0
M  V30 9812 C 907.299 -0.620665 3.54508 0
M  V30 9813 C 906.907 0.597098 4.44003 0
M  V30 9814 C 908.651 -1.19482 4.07338 0
M  V30 9815 C 906.558 0.270049 5.90783 0
M  V30 9816 H 905.488 -0.123342 0.743843 0
M  V30 9817 H 908.139 0.399876 1.7909 0
M  V30 9818 H 906.521 -1.3999 3.7043 0
M  V30 9819 H 907.695 1.37354 4.39853 0
M  V30 9820 H 906.01 1.0893 4.019 0
M  V30 9821 H 908.607 -1.45362 5.14562 0
M  V30 9822 H 908.95 -2.13435 3.57423 0
M  V30 9823 H 909.483 -0.477485 3.94924 0
M  V30 9824 H 906.222 1.17791 6.4483 0
M  V30 9825 H 905.742 -0.469292 5.97961 0
M  V30 9826 H 907.421 -0.131471 6.46866 0
M  V30 9827 N 907.553 -1.57587 0.0200696 0
M  V30 9828 C 908.501 -2.10814 -0.982868 0
M  V30 9829 C 909.495 -1.03263 -1.34287 0
M  V30 9830 O 910.701 -1.21708 -1.32617 0
M  V30 9831 H 907.076 -0.673409 -0.334701 0
M  V30 9832 H 909.047 -2.94034 -0.50856 0
M  V30 9833 C 907.796 -2.64301 -2.25921 0
M  V30 9834 H 907.119 -3.46703 -1.99091 0
M  V30 9835 H 908.559 -3.052 -2.94328 0
M  V30 9836 C 907.018 -1.56628 -2.98277 0
M  V30 9837 O 907.548 -0.960825 -3.9004 0
M  V30 9838 N 905.754 -1.28889 -2.60453 0
M  V30 9839 H 905.301 -1.7831 -1.85912 0
M  V30 9840 H 905.259 -0.570697 -3.09177 0
M  V30 9841 N 909.032 0.252966 -1.55557 0
M  V30 9842 C 910.309 1.00432 -1.67847 0
M  V30 9843 C 910.689 2.03587 -0.55816 0
M  V30 9844 O 910.037 2.24239 0.439197 0
M  V30 9845 C 910.247 1.64313 -3.079 0
M  V30 9846 C 911.595 2.14726 -3.66303 0
M  V30 9847 O 912.619 1.74264 -3.10661 0
M  V30 9848 O 911.478 2.89 -4.63833 0
M  V30 9849 H 908.572 0.467102 -0.682455 0
M  V30 9850 H 911.118 0.247233 -1.67889 0
M  V30 9851 H 909.89 0.896681 -3.80888 0
M  V30 9852 H 909.513 2.46657 -3.11843 0
M  V30 9853 N 910.51 1.48831 0.518367 0
M  V30 9854 C 911.759 1.5669 1.27008 0
M  V30 9855 C 912.072 0.250934 1.93984 0
M  V30 9856 O 913.278 0.207884 2.70703 0
M  V30 9857 C 911.734 2.76387 2.30517 0
M  V30 9858 C 911.342 4.14673 1.69559 0
M  V30 9859 C 913.086 2.93566 3.06625 0
M  V30 9860 C 910.993 5.25616 2.71076 0
M  V30 9861 H 909.923 0.583362 0.477708 0
M  V30 9862 H 912.574 1.75187 0.546052 0
M  V30 9863 H 910.956 2.51348 3.06006 0
M  V30 9864 H 912.13 4.49779 1.00179 0
M  V30 9865 H 910.445 4.02708 1.05902 0
M  V30 9866 H 913.042 3.7362 3.82508 0
M  V30 9867 H 913.385 2.03462 3.63193 0
M  V30 9868 H 913.918 3.18562 2.38251 0
M  V30 9869 H 910.657 6.17723 2.19313 0
M  V30 9870 H 910.177 4.94985 3.38748 0
M  V30 9871 H 911.856 5.5422 3.3384 0
M  V30 9872 N 911.988 -0.768124 1.37614 0
M  V30 9873 C 913.213 -1.56239 1.36397 0
M  V30 9874 C 913.638 -1.8804 -0.0475839 0
M  V30 9875 O 912.996 -1.495 -1.02564 0
M  V30 9876 C 913.044 -2.84716 2.21289 0
M  V30 9877 O 912.148 -3.79249 1.62001 0
M  V30 9878 H 911.489 -0.473119 0.465891 0
M  V30 9879 H 914.019 -0.950415 1.81186 0
M  V30 9880 H 914.029 -3.33784 2.34632 0
M  V30 9881 H 912.704 -2.60899 3.2389 0
M  V30 9882 H 911.281 -3.37904 1.57719 0
M  V30 9883 N 913.466 -1.22244 -0.994698 0
M  V30 9884 C 914.714 -1.04384 -1.73056 0
M  V30 9885 C 915.035 0.422204 -1.90374 0
M  V30 9886 O 914.305 1.30383 -1.46209 0
M  V30 9887 H 912.885 -0.383263 -0.641185 0
M  V30 9888 H 915.547 -1.53725 -1.1981 0
M  V30 9889 H 914.643 -1.52021 -2.72573 0
M  V30 9890 N 914.944 1.19125 -1.03184 0
M  V30 9891 C 916.192 1.8851 -0.728587 0
M  V30 9892 C 916.513 1.80195 0.74531 0
M  V30 9893 O 915.783 1.21437 1.5372 0
M  V30 9894 H 914.363 0.69784 -0.266511 0
M  V30 9895 H 917.025 1.44607 -1.3067 0
M  V30 9896 H 916.121 2.9477 -1.02554 0
M  V30 9897 N 916.422 0.810101 1.35185 0
M  V30 9898 C 917.352 0.237453 2.32289 0
M  V30 9899 C 918.333 -0.639032 1.5764 0
M  V30 9900 O 919.518 -0.568575 1.8569 0
M  V30 9901 C 916.648 -0.611964 3.41866 0
M  V30 9902 C 915.602 0.166318 4.27677 0
M  V30 9903 C 914.928 -0.805024 5.28605 0
M  V30 9904 C 916.228 1.36729 5.04086 0
M  V30 9905 H 917.922 1.04874 2.80432 0
M  V30 9906 H 915.468 0.505751 1.34826 0
M  V30 9907 H 917.421 -1.02267 4.08802 0
M  V30 9908 H 916.145 -1.45617 2.92341 0
M  V30 9909 H 914.804 0.558238 3.62325 0
M  V30 9910 H 914.452 -1.64483 4.75347 0
M  V30 9911 H 914.152 -0.288577 5.86891 0
M  V30 9912 H 915.676 -1.21386 5.98413 0
M  V30 9913 H 917.09 1.03128 5.63948 0
M  V30 9914 H 915.487 1.81848 5.71884 0
M  V30 9915 H 916.557 2.15214 4.34524 0
M  V30 9916 N 917.9 -1.47166 0.563914 0
M  V30 9917 C 919.147 -2.02456 0.042371 0
M  V30 9918 C 919.475 -1.43753 -1.31016 0
M  V30 9919 O 918.73 -0.585287 -1.86743 0
M  V30 9920 C 919.029 -3.57279 -0.0931797 0
M  V30 9921 C 918.695 -4.34932 1.18933 0
M  V30 9922 C 917.357 -4.55867 1.54073 0
M  V30 9923 C 919.709 -4.79665 2.03889 0
M  V30 9924 C 917.037 -5.18785 2.74005 0
M  V30 9925 C 919.389 -5.43907 3.23029 0
M  V30 9926 C 918.053 -5.63074 3.58475 0
M  V30 9927 H 917.323 -0.740838 0.0155047 0
M  V30 9928 H 919.97 -1.76759 0.736776 0
M  V30 9929 H 918.275 -3.82005 -0.870596 0
M  V30 9930 H 919.972 -3.97716 -0.512176 0
M  V30 9931 H 916.562 -4.18921 0.905718 0
M  V30 9932 H 920.746 -4.63264 1.78046 0
M  V30 9933 H 916.002 -5.31818 3.01628 0
M  V30 9934 H 920.176 -5.77531 3.89141 0
M  V30 9935 H 917.803 -6.11598 4.515 0
M  V30 9936 N 919.378 -0.300708 -1.54705 0
M  V30 9937 C 920.655 0.361757 -1.92226 0
M  V30 9938 C 921.035 1.71714 -1.2279 0
M  V30 9939 O 920.383 2.2559 -0.363542 0
M  V30 9940 C 920.593 0.476699 -3.45729 0
M  V30 9941 C 921.941 0.7477 -4.17965 0
M  V30 9942 O 922.965 0.560521 -3.51762 0
M  V30 9943 O 921.824 1.10724 -5.35166 0
M  V30 9944 H 918.918 0.202213 -0.801897 0
M  V30 9945 H 921.464 -0.348746 -1.66078 0
M  V30 9946 H 920.236 -0.476132 -3.88392 0
M  V30 9947 H 919.859 1.23568 -3.77911 0
M  V30 9948 N 920.856 1.57574 -0.0284266 0
M  V30 9949 C 922.081 1.96479 0.664137 0
M  V30 9950 C 922.506 0.904826 1.64908 0
M  V30 9951 O 921.864 -0.134339 1.80802 0
M  V30 9952 C 921.912 3.34479 1.34745 0
M  V30 9953 O 921.016 3.30794 2.46271 0
M  V30 9954 H 920.357 0.640654 0.174524 0
M  V30 9955 H 922.887 2.04402 -0.0900729 0
M  V30 9956 H 922.897 3.70694 1.7044 0
M  V30 9957 H 921.572 4.1117 0.625468 0
M  V30 9958 H 920.149 3.06294 2.12693 0
M  V30 9959 N 922.334 -0.244713 1.55689 0
M  V30 9960 C 923.282 -1.32276 1.91326 0
M  V30 9961 C 924.276 -1.49714 0.792589 0
M  V30 9962 O 925.482 -1.51163 0.977227 0
M  V30 9963 H 921.857 -0.442979 0.607679 0
M  V30 9964 H 923.828 -0.99486 2.81327 0
M  V30 9965 C 922.577 -2.67077 2.22633 0
M  V30 9966 H 921.9 -2.54458 3.08368 0
M  V30 9967 H 923.34 -3.41378 2.5147 0
M  V30 9968 C 921.799 -3.20335 1.04342 0
M  V30 9969 O 922.329 -4.00633 0.292543 0
M  V30 9970 N 920.535 -2.78392 0.833457 0
M  V30 9971 H 920.082 -2.13202 1.44577 0
M  V30 9972 H 920.04 -3.1437 0.0436713 0
M  V30 9973 N 923.813 -1.49104 -0.510467 0
M  V30 9974 C 924.746 -1.59667 -1.63039 0
M  V30 9975 C 925.724 -0.446145 -1.5636 0
M  V30 9976 O 926.908 -0.660414 -1.76552 0
M  V30 9977 C 924.035 -1.54282 -3.01521 0
M  V30 9978 C 923.081 -2.74415 -3.26494 0
M  V30 9979 S 923.914 -4.3619 -3.10643 0
M  V30 9980 C 925.07 -4.33435 -4.51536 0
M  V30 9981 H 925.303 -2.54407 -1.53833 0
M  V30 9982 H 922.836 -1.37878 -0.694916 0
M  V30 9983 H 924.794 -1.51861 -3.81377 0
M  V30 9984 H 923.455 -0.608458 -3.0815 0
M  V30 9985 H 922.648 -2.66841 -4.27565 0
M  V30 9986 H 922.25 -2.74199 -2.54344 0
M  V30 9987 H 924.542 -4.04571 -5.43441 0
M  V30 9988 H 925.485 -5.34752 -4.64162 0
M  V30 9989 H 925.893 -3.63638 -4.31773 0
M  V30 9990 N 925.291 0.760815 -1.38019 0
M  V30 9991 C 926.538 1.51973 -1.3383 0
M  V30 9992 C 926.866 1.9436 0.0738855 0
M  V30 9993 O 926.121 1.65181 1.04946 0
M  V30 9994 C 926.42 2.79024 -2.23339 0
M  V30 9995 C 926.086 2.55636 -3.71431 0
M  V30 9996 C 924.748 2.48966 -4.11788 0
M  V30 9997 C 927.1 2.35018 -4.65205 0
M  V30 9998 C 924.428 2.19684 -5.44018 0
M  V30 9999 C 926.78 2.07258 -5.97685 0
M  V30 10000 C 925.444 1.9904 -6.37134 0
M  V30 10001 H 924.714 0.556108 -0.489719 0
M  V30 10002 H 927.361 0.87545 -1.70318 0
M  V30 10003 H 925.666 3.48065 -1.79883 0
M  V30 10004 H 927.363 3.36951 -2.17405 0
M  V30 10005 H 923.953 2.61695 -3.39432 0
M  V30 10006 H 928.137 2.39154 -4.34878 0
M  V30 10007 H 923.393 2.11825 -5.73533 0
M  V30 10008 H 927.567 1.90307 -6.69893 0
M  V30 10009 H 925.194 1.76115 -7.39519 0
M  V30 10010 N 926.769 1.22769 0.988202 0
M  V30 10011 C 927.732 1.00325 2.06076 0
M  V30 10012 C 928.732 -0.0320618 1.60768 0
M  V30 10013 O 929.922 0.206912 1.72967 0
M  V30 10014 C 927.054 0.516376 3.36966 0
M  V30 10015 H 928.247 1.95499 2.27421 0
M  V30 10016 H 925.8 1.04704 1.16047 0
M  V30 10017 H 926.535 -0.439498 3.21308 0
M  V30 10018 H 926.32 1.26337 3.71189 0
M  V30 10019 H 927.81 0.37974 4.1587 0
M  V30 10020 N 928.247 -1.18576 1.03814 0
M  V30 10021 C 929.493 -1.88773 0.741132 0
M  V30 10022 C 929.826 -1.79993 -0.729127 0
M  V30 10023 O 929.101 -1.19851 -1.53186 0
M  V30 10024 C 929.384 -3.39352 1.20468 0
M  V30 10025 C 929.237 -3.56955 2.73684 0
M  V30 10026 C 930.556 -4.32901 0.792741 0
M  V30 10027 H 927.675 -0.685482 0.270708 0
M  V30 10028 H 930.317 -1.39523 1.2897 0
M  V30 10029 H 928.467 -3.81427 0.737974 0
M  V30 10030 H 930.139 -3.2399 3.28372 0
M  V30 10031 H 928.382 -2.99696 3.13632 0
M  V30 10032 H 929.053 -4.62598 3.01176 0
M  V30 10033 H 931.529 -3.98592 1.1943 0
M  V30 10034 H 930.405 -5.36828 1.14486 0
M  V30 10035 H 930.666 -4.41052 -0.304295 0
M  V30 10036 N 929.725 -0.817259 -1.34754 0
M  V30 10037 C 930.974 -0.39908 -1.97713 0
M  V30 10038 C 931.287 1.04203 -1.65533 0
M  V30 10039 O 932.493 1.56384 -2.21937 0
M  V30 10040 C 930.949 -0.662634 -3.53747 0
M  V30 10041 C 930.557 -2.11699 -3.94826 0
M  V30 10042 C 932.301 -0.31034 -4.23364 0
M  V30 10043 C 930.208 -2.32573 -5.4375 0
M  V30 10044 H 929.138 -0.145488 -0.739831 0
M  V30 10045 H 931.789 -1.00282 -1.53674 0
M  V30 10046 H 930.171 0.0111972 -3.95998 0
M  V30 10047 H 931.345 -2.82951 -3.63697 0
M  V30 10048 H 929.66 -2.43017 -3.3813 0
M  V30 10049 H 932.257 -0.44421 -5.32852 0
M  V30 10050 H 932.6 0.744594 -4.09587 0
M  V30 10051 H 933.133 -0.938518 -3.8657 0
M  V30 10052 H 929.872 -3.36551 -5.62507 0
M  V30 10053 H 929.392 -1.65858 -5.76412 0
M  V30 10054 H 931.071 -2.14651 -6.10356 0
M  V30 10055 N 931.203 1.46865 -0.571711 0
M  V30 10056 C 932.166 2.28658 0.157499 0
M  V30 10057 C 933.166 1.37773 0.829172 0
M  V30 10058 O 934.356 1.6026 0.682811 0
M  V30 10059 C 931.488 3.17859 1.23202 0
M  V30 10060 H 932.681 2.94603 -0.561171 0
M  V30 10061 H 930.234 1.52793 -0.329229 0
M  V30 10062 H 930.969 2.56637 1.98262 0
M  V30 10063 H 930.754 3.84762 0.755031 0
M  V30 10064 H 932.244 3.7945 1.74378 0
M  V30 10065 N 932.681 0.308908 1.54543 0
M  V30 10066 C 933.591 -0.572939 2.27496 0
M  V30 10067 C 934.607 -1.14171 1.31305 0
M  V30 10068 O 935.783 -1.16481 1.64299 0
M  V30 10069 C 932.848 -1.72483 3.0075 0
M  V30 10070 C 931.909 -1.18934 4.12496 0
M  V30 10071 C 931.142 -2.28634 4.82247 0
M  V30 10072 O 931.365 -3.48691 4.5141 0
M  V30 10073 O 930.299 -1.94879 5.69478 0
M  V30 10074 H 934.125 0.0190877 3.03694 0
M  V30 10075 H 931.71 0.0750943 1.49211 0
M  V30 10076 H 933.592 -2.39578 3.46671 0
M  V30 10077 H 932.267 -2.30332 2.2744 0
M  V30 10078 H 931.174 -0.483904 3.70957 0
M  V30 10079 H 932.507 -0.656185 4.87806 0
M  V30 10080 N 934.159 -1.57557 0.0367827 0
M  V30 10081 C 935.107 -2.11844 -0.960454 0
M  V30 10082 C 936.101 -1.04681 -1.33185 0
M  V30 10083 O 937.307 -1.23108 -1.31318 0
M  V30 10084 H 933.682 -0.676921 -0.32754 0
M  V30 10085 H 935.653 -2.94557 -0.477346 0
M  V30 10086 C 934.402 -2.66683 -2.23105 0
M  V30 10087 H 933.725 -3.48795 -1.95403 0
M  V30 10088 H 935.165 -3.08305 -2.91074 0
M  V30 10089 C 933.624 -1.59782 -2.96599 0
M  V30 10090 O 934.154 -1.00214 -3.88999 0
M  V30 10091 N 932.36 -1.31644 -2.59072 0
M  V30 10092 H 931.907 -1.80272 -1.8401 0
M  V30 10093 H 931.865 -0.603457 -3.08554 0
M  V30 10094 N 935.637 0.236453 -1.55816 0
M  V30 10095 C 937.048 0.80468 -1.68469 0
M  V30 10096 C 937.399 1.85601 -0.636133 0
M  V30 10097 O 936.524 2.15323 0.215622 0
M  V30 10098 C 937.119 1.46634 -3.05424 0
M  V30 10099 C 935.678 1.98214 -3.19981 0
M  V30 10100 C 934.825 0.83695 -2.64368 0
M  V30 10101 H 937.776 0.0120647 -1.58695 0
M  V30 10102 H 937.797 2.33472 -3.00451 0
M  V30 10103 H 937.309 0.700931 -3.81718 0
M  V30 10104 H 935.41 2.77604 -2.4853 0
M  V30 10105 H 935.523 2.17235 -4.2702 0
M  V30 10106 H 933.887 1.24028 -2.22462 0
M  V30 10107 H 934.67 0.084451 -3.43196 0
M  V30 10108 N 937.115 1.49373 0.502552 0
M  V30 10109 C 938.025 1.68659 1.63068 0
M  V30 10110 C 939.041 0.569182 1.64427 0
M  V30 10111 O 940.217 0.843695 1.82876 0
M  V30 10112 C 937.282 1.74745 2.99441 0
M  V30 10113 C 936.343 2.98311 3.08721 0
M  V30 10114 C 935.576 3.04097 4.38589 0
M  V30 10115 O 935.799 2.17519 5.27297 0
M  V30 10116 O 934.733 3.96544 4.52809 0
M  V30 10117 H 938.559 2.64226 1.49727 0
M  V30 10118 H 936.144 1.33096 0.67867 0
M  V30 10119 H 938.026 1.8111 3.80496 0
M  V30 10120 H 936.701 0.823565 3.13048 0
M  V30 10121 H 935.608 2.97465 2.2686 0
M  V30 10122 H 936.941 3.90174 3.00041 0
M  V30 10123 N 938.594 -0.753485 1.38421 0
M  V30 10124 C 939.843 -1.50797 1.33952 0
M  V30 10125 C 940.156 -1.95482 -0.0678464 0
M  V30 10126 O 941.362 -2.7048 -0.235078 0
M  V30 10127 C 939.818 -2.72393 2.35224 0
M  V30 10128 C 939.426 -2.34733 3.81582 0
M  V30 10129 C 941.17 -3.50281 2.39798 0
M  V30 10130 C 939.077 -3.52939 4.7454 0
M  V30 10131 H 938.007 -0.566211 0.497916 0
M  V30 10132 H 940.658 -0.823659 1.63976 0
M  V30 10133 H 939.04 -3.42806 1.98243 0
M  V30 10134 H 940.214 -1.71985 4.27502 0
M  V30 10135 H 938.529 -1.69978 3.80127 0
M  V30 10136 H 941.126 -4.38172 3.06447 0
M  V30 10137 H 941.469 -3.91444 1.41695 0
M  V30 10138 H 942.002 -2.86881 2.75579 0
M  V30 10139 H 938.741 -3.16843 5.73839 0
M  V30 10140 H 938.261 -4.1473 4.33312 0
M  V30 10141 H 939.94 -4.19519 4.92557 0
M  V30 10142 N 940.072 -1.23292 -0.981677 0
M  V30 10143 C 941.312 -1.07597 -1.73788 0
M  V30 10144 C 941.676 0.380762 -1.88187 0
M  V30 10145 O 942.877 0.658866 -2.606 0
M  V30 10146 C 941.148 -1.78008 -3.09916 0
M  V30 10147 S 942.707 -1.77868 -4.01134 0
M  V30 10148 H 939.525 -0.385092 -0.597683 0
M  V30 10149 H 942.127 -1.56408 -1.17289 0
M  V30 10150 H 940.831 -2.83139 -2.97087 0
M  V30 10151 H 940.362 -1.29473 -3.71484 0
M  V30 10152 H 942.377 -0.836368 -4.89101 0
M  V30 10153 N 941.55 1.18024 -1.04442 0
M  V30 10154 C 942.78 1.91753 -0.769044 0
M  V30 10155 C 943.188 1.76629 0.678141 0
M  V30 10156 O 942.531 1.09589 1.47431 0
M  V30 10157 C 942.593 3.43505 -1.0604 0
M  V30 10158 C 942.257 3.82409 -2.50225 0
M  V30 10159 C 943.254 3.8588 -3.48414 0
M  V30 10160 C 940.939 4.13594 -2.85036 0
M  V30 10161 C 942.933 4.19993 -4.79463 0
M  V30 10162 C 940.62 4.47377 -4.1629 0
M  V30 10163 C 941.618 4.50553 -5.13314 0
M  V30 10164 O 941.306 4.83546 -6.42214 0
M  V30 10165 H 941.038 0.615466 -0.279603 0
M  V30 10166 H 943.592 1.5065 -1.3962 0
M  V30 10167 H 941.822 3.84866 -0.376125 0
M  V30 10168 H 943.511 3.98486 -0.772235 0
M  V30 10169 H 944.277 3.6192 -3.2286 0
M  V30 10170 H 940.156 4.10297 -2.10185 0
M  V30 10171 H 943.7 4.22387 -5.55189 0
M  V30 10172 H 939.597 4.70798 -4.4161 0
M  V30 10173 H 940.365 5.01433 -6.46921 0
M  V30 10174 N 943.028 0.824394 1.34319 0
M  V30 10175 C 944.277 0.40956 1.97498 0
M  V30 10176 C 944.59 -1.03323 1.66083 0
M  V30 10177 O 945.796 -1.55205 2.22764 0
M  V30 10178 C 944.252 0.681384 3.53391 0
M  V30 10179 C 943.86 2.1379 3.93698 0
M  V30 10180 C 945.604 0.332788 4.23194 0
M  V30 10181 C 943.511 2.35453 5.42509 0
M  V30 10182 H 942.441 0.149409 0.739049 0
M  V30 10183 H 945.092 1.01095 1.5314 0
M  V30 10184 H 943.474 0.00980375 3.95999 0
M  V30 10185 H 944.648 2.84876 3.62191 0
M  V30 10186 H 942.963 2.44807 3.36836 0
M  V30 10187 H 945.56 0.472463 5.32609 0
M  V30 10188 H 945.903 -0.722862 4.09976 0
M  V30 10189 H 946.436 0.959005 3.86067 0
M  V30 10190 H 943.175 3.39529 5.60714 0
M  V30 10191 H 942.695 1.68912 5.75525 0
M  V30 10192 H 944.374 2.17885 6.09209 0
M  V30 10193 N 944.506 -1.46559 0.579492 0
M  V30 10194 C 945.436 -2.33059 -0.143437 0
M  V30 10195 C 946.417 -1.4515 -0.886868 0
M  V30 10196 O 947.602 -1.73973 -0.862961 0
M  V30 10197 C 944.732 -3.27364 -1.15973 0
M  V30 10198 C 943.686 -4.24689 -0.531348 0
M  V30 10199 C 943.012 -5.08479 -1.65388 0
M  V30 10200 C 944.312 -5.1961 0.529391 0
M  V30 10201 H 946.006 -2.93753 0.578762 0
M  V30 10202 H 943.552 -1.41256 0.279775 0
M  V30 10203 H 945.505 -3.86732 -1.67382 0
M  V30 10204 H 944.229 -2.64771 -1.91217 0
M  V30 10205 H 942.888 -3.6658 -0.0383749 0
M  V30 10206 H 942.536 -4.42273 -2.3959 0
M  V30 10207 H 942.236 -5.74387 -1.23909 0
M  V30 10208 H 943.76 -5.70709 -2.17079 0
M  V30 10209 H 945.174 -5.73212 0.100506 0
M  V30 10210 H 943.571 -5.93843 0.86432 0
M  V30 10211 H 944.641 -4.63737 1.4169 0
M  V30 10212 N 945.984 -0.3171 -1.54377 0
M  V30 10213 C 947.209 0.292311 -2.0533 0
M  V30 10214 C 947.634 1.45503 -1.19207 0
M  V30 10215 O 946.992 1.80197 -0.199721 0
M  V30 10216 C 947.04 0.710787 -3.53525 0
M  V30 10217 O 946.144 1.81387 -3.70368 0
M  V30 10218 H 945.485 0.0539976 -0.661801 0
M  V30 10219 H 948.015 -0.463629 -1.99278 0
M  V30 10220 H 948.025 0.995216 -3.95676 0
M  V30 10221 H 946.7 -0.139668 -4.15665 0
M  V30 10222 H 945.277 1.52875 -3.40123 0
M  V30 10223 N 947.462 1.57535 -0.0451378 0
M  V30 10224 C 948.412 2.07683 0.940829 0
M  V30 10225 C 949.396 0.9807 1.27558 0
M  V30 10226 O 950.588 1.2441 1.25901 0
M  V30 10227 C 947.717 2.62049 2.21778 0
M  V30 10228 C 946.803 3.78621 1.91068 0
M  V30 10229 N 947.194 4.88623 1.30694 0
M  V30 10230 C 945.492 3.87411 2.20972 0
M  V30 10231 C 946.193 5.69714 1.17478 0
M  V30 10232 N 945.169 5.17129 1.67566 0
M  V30 10233 H 948.971 2.90129 0.469267 0
M  V30 10234 H 946.485 1.61615 0.159472 0
M  V30 10235 H 948.482 2.96276 2.93302 0
M  V30 10236 H 947.142 1.81039 2.69546 0
M  V30 10237 H 948.153 5.08545 0.979907 0
M  V30 10238 H 944.83 3.17335 2.71302 0
M  V30 10239 H 946.22 6.68174 0.706574 0
M  V30 10240 N 948.94 -0.228186 1.55939 0
M  V30 10241 C 950.168 -0.970618 1.8272 0
M  V30 10242 C 950.583 -1.78212 0.623385 0
M  V30 10243 O 949.94 -1.77879 -0.408063 0
M  V30 10244 C 949.991 -1.89352 3.07942 0
M  V30 10245 O 949.712 -1.11483 4.23678 0
M  V30 10246 C 951.213 -2.75039 3.47661 0
M  V30 10247 H 948.433 -0.284772 0.607574 0
M  V30 10248 H 950.977 -0.245419 2.03022 0
M  V30 10249 H 949.132 -2.57275 2.89635 0
M  V30 10250 H 949.546 -1.74073 4.94772 0
M  V30 10251 H 951.02 -3.35511 4.38334 0
M  V30 10252 H 951.497 -3.471 2.69106 0
M  V30 10253 H 952.103 -2.1254 3.68384 0
M  V30 10254 N 950.418 -1.49637 -0.494624 0
M  V30 10255 C 951.834 -1.36541 -0.826361 0
M  V30 10256 C 952.034 -0.403386 -1.97421 0
M  V30 10257 O 951.09 0.162614 -2.51976 0
M  V30 10258 C 952.403 -2.77401 -1.16057 0
M  V30 10259 C 953.951 -2.86148 -1.26841 0
M  V30 10260 C 954.426 -4.27789 -1.63587 0
M  V30 10261 N 955.917 -4.3063 -1.70624 0
M  V30 10262 C 956.652 -5.37198 -2.00514 0
M  V30 10263 N 956.148 -6.54004 -2.28584 0
M  V30 10264 N 957.941 -5.2462 -2.01818 0
M  V30 10265 H 950.092 -2.10776 0.26219 0
M  V30 10266 H 952.355 -0.946419 0.0547235 0
M  V30 10267 H 952.061 -3.49526 -0.390434 0
M  V30 10268 H 951.935 -3.1317 -2.10249 0
M  V30 10269 H 954.322 -2.14256 -2.02925 0
M  V30 10270 H 954.403 -2.53953 -0.30684 0
M  V30 10271 H 954.047 -5.00209 -0.880507 0
M  V30 10272 H 953.977 -4.57453 -2.60854 0
M  V30 10273 H 956.468 -3.46393 -1.51065 0
M  V30 10274 H 956.781 -7.31041 -2.50598 0
M  V30 10275 H 955.126 -6.57219 -2.26027 0
M  V30 10276 H 958.317 -4.32371 -1.79369 0
M  V30 10277 H 958.49 -6.07765 -2.24778 0
M  V30 10278 N 951.896 0.746133 -1.38819 0
M  V30 10279 C 953.144 1.50247 -1.35167 0
M  V30 10280 C 953.465 1.94921 0.0553531 0
M  V30 10281 O 952.735 1.68187 1.00449 0
M  V30 10282 H 951.315 0.557337 -0.497377 0
M  V30 10283 H 953.977 0.886472 -1.73573 0
M  V30 10284 H 953.073 2.38986 -2.00728 0
M  V30 10285 N 953.375 1.23811 0.975125 0
M  V30 10286 C 954.652 0.9815 1.69192 0
M  V30 10287 C 955.032 -0.498373 2.05133 0
M  V30 10288 O 954.38 -1.47087 1.74864 0
M  V30 10289 C 954.59 1.89701 2.92941 0
M  V30 10290 C 955.938 2.16357 3.65342 0
M  V30 10291 O 956.962 1.87293 3.02985 0
M  V30 10292 O 955.821 2.65675 4.77576 0
M  V30 10293 H 952.915 0.370599 0.739314 0
M  V30 10294 H 955.461 1.34876 1.02988 0
M  V30 10295 H 954.233 2.89719 2.63018 0
M  V30 10296 H 953.856 1.53244 3.66881 0
M  V30 10297 N 954.853 -1.17469 1.05066 0
M  V30 10298 C 956.102 -1.87032 0.755114 0
M  V30 10299 C 956.415 -1.81844 -0.720572 0
M  V30 10300 O 957.621 -2.46866 -1.13002 0
M  V30 10301 C 956.077 -3.35581 1.30052 0
M  V30 10302 C 955.685 -3.49274 2.80556 0
M  V30 10303 C 957.429 -4.1048 1.08196 0
M  V30 10304 C 955.336 -4.91838 3.28404 0
M  V30 10305 H 954.266 -0.70057 0.278779 0
M  V30 10306 H 956.917 -1.32663 1.26779 0
M  V30 10307 H 955.299 -3.89479 0.715667 0
M  V30 10308 H 956.473 -3.05598 3.44886 0
M  V30 10309 H 954.788 -2.87793 3.00939 0
M  V30 10310 H 957.385 -5.15652 1.41447 0
M  V30 10311 H 957.728 -4.16295 0.0196603 0
M  V30 10312 H 958.261 -3.62784 1.63195 0
M  V30 10313 H 955 -4.91196 4.34058 0
M  V30 10314 H 954.52 -5.36189 2.68815 0
M  V30 10315 H 956.199 -5.60602 3.23009 0
M  V30 10316 N 956.331 -0.831506 -1.3388 0
M  V30 10317 C 957.556 -0.435954 -2.02766 0
M  V30 10318 C 957.981 0.952889 -1.62178 0
M  V30 10319 O 957.339 1.62166 -0.810681 0
M  V30 10320 C 957.387 -0.555907 -3.56289 0
M  V30 10321 O 956.491 0.420826 -4.10247 0
M  V30 10322 H 955.832 -0.178248 -0.639628 0
M  V30 10323 H 958.362 -1.1243 -1.70941 0
M  V30 10324 H 958.372 -0.434831 -4.05676 0
M  V30 10325 H 957.047 -1.56881 -3.85177 0
M  V30 10326 H 955.624 0.257919 -3.72007 0
M  V30 10327 N 957.809 1.4625 -0.587256 0
M  V30 10328 C 959.037 2.06744 -0.08033 0
M  V30 10329 C 959.452 1.43527 1.2266 0
M  V30 10330 O 958.809 0.542168 1.74261 0
M  V30 10331 C 958.86 3.61394 0.0873469 0
M  V30 10332 O 958.581 4.22247 -1.16785 0
M  V30 10333 C 960.082 4.38828 0.628095 0
M  V30 10334 H 957.302 0.668354 -0.0595301 0
M  V30 10335 H 959.846 1.87808 -0.809217 0
M  V30 10336 H 958.001 3.79742 0.766473 0
M  V30 10337 H 958.415 5.15176 -0.984565 0
M  V30 10338 H 959.889 5.47613 0.694583 0
M  V30 10339 H 960.366 4.07188 1.64606 0
M  V30 10340 H 960.972 4.25297 -0.0163115 0
M  V30 10341 N 959.287 0.325282 1.54207 0
M  V30 10342 C 960.22 -0.582485 2.20641 0
M  V30 10343 C 961.198 -1.11441 1.18405 0
M  V30 10344 O 962.382 -1.17809 1.4715 0
M  V30 10345 C 959.509 -1.79944 2.86946 0
M  V30 10346 C 958.555 -1.39861 4.02916 0
M  V30 10347 S 959.388 -0.433859 5.3374 0
M  V30 10348 C 960.544 -1.65806 6.03539 0
M  V30 10349 H 960.777 -0.0181601 2.97294 0
M  V30 10350 H 958.31 0.109365 1.54012 0
M  V30 10351 H 960.268 -2.4977 3.25769 0
M  V30 10352 H 958.929 -2.33495 2.10092 0
M  V30 10353 H 958.122 -2.30547 4.48179 0
M  V30 10354 H 957.724 -0.780036 3.65775 0
M  V30 10355 H 960.016 -2.59524 6.25822 0
M  V30 10356 H 960.959 -1.24756 6.97023 0
M  V30 10357 H 961.367 -1.84581 5.3347 0
M  V30 10358 N 960.765 -1.57509 0.0534917 0
M  V30 10359 C 961.713 -2.12851 -0.937931 0
M  V30 10360 C 962.707 -1.06088 -1.32067 0
M  V30 10361 O 963.913 -1.24494 -1.30005 0
M  V30 10362 H 960.288 -0.680357 -0.320342 0
M  V30 10363 H 962.259 -2.95047 -0.446077 0
M  V30 10364 C 961.008 -2.69034 -2.20264 0
M  V30 10365 H 960.331 -3.50848 -1.91693 0
M  V30 10366 H 961.771 -3.11375 -2.87788 0
M  V30 10367 C 960.23 -1.62919 -2.94888 0
M  V30 10368 O 960.76 -1.04334 -3.87914 0
M  V30 10369 N 958.966 -1.34385 -2.57661 0
M  V30 10370 H 958.513 -1.82214 -1.82088 0
M  V30 10371 H 958.471 -0.636149 -3.07897 0
M  V30 10372 N 962.243 0.219913 -1.56058 0
M  V30 10373 C 963.659 0.569685 -1.49086 0
M  V30 10374 C 963.859 1.87066 -0.748903 0
M  V30 10375 O 962.915 2.50838 -0.289235 0
M  V30 10376 C 964.228 0.647397 -2.93648 0
M  V30 10377 C 965.776 0.737914 -3.04177 0
M  V30 10378 C 966.251 0.846957 -4.50101 0
M  V30 10379 N 967.742 0.911136 -4.5415 0
M  V30 10380 C 968.477 1.01525 -5.64341 0
M  V30 10381 N 967.973 1.0832 -6.8428 0
M  V30 10382 N 969.766 1.05051 -5.52196 0
M  V30 10383 H 961.917 -0.633778 -2.02724 0
M  V30 10384 H 964.18 -0.222583 -0.921499 0
M  V30 10385 H 963.886 -0.238987 -3.50887 0
M  V30 10386 H 963.76 1.51046 -3.45637 0
M  V30 10387 H 966.147 1.61474 -2.47002 0
M  V30 10388 H 966.228 -0.150845 -2.55355 0
M  V30 10389 H 965.872 -0.0254166 -5.07894 0
M  V30 10390 H 965.802 1.75116 -4.96631 0
M  V30 10391 H 968.293 0.868869 -3.67776 0
M  V30 10392 H 968.606 1.16247 -7.64007 0
M  V30 10393 H 966.951 1.05231 -6.86987 0
M  V30 10394 H 970.142 0.994086 -4.57423 0
M  V30 10395 H 970.315 1.12819 -6.38103 0
M  V30 10396 N 963.721 1.49897 0.486681 0
M  V30 10397 C 964.651 1.7054 1.59494 0
M  V30 10398 C 965.632 0.554184 1.60819 0
M  V30 10399 O 966.817 0.791617 1.77333 0
M  V30 10400 C 963.947 1.78517 2.97908 0
M  V30 10401 C 962.901 2.93571 3.11449 0
M  V30 10402 C 962.227 2.86674 4.51356 0
M  V30 10403 C 963.527 4.34308 2.90127 0
M  V30 10404 H 965.221 2.63329 1.42472 0
M  V30 10405 H 962.767 1.2672 0.683969 0
M  V30 10406 H 964.72 1.91544 3.75352 0
M  V30 10407 H 963.444 0.823381 3.16051 0
M  V30 10408 H 962.103 2.80169 2.36433 0
M  V30 10409 H 961.751 1.88373 4.66395 0
M  V30 10410 H 961.451 3.63903 4.61355 0
M  V30 10411 H 962.975 3.01728 5.30841 0
M  V30 10412 H 964.389 4.48317 3.57331 0
M  V30 10413 H 962.786 5.12869 3.11585 0
M  V30 10414 H 963.856 4.47759 1.86119 0
M  V30 10415 N 965.199 -0.738761 1.39212 0
M  V30 10416 C 966.162 -1.83441 1.37412 0
M  V30 10417 C 967.162 -1.58484 0.271908 0
M  V30 10418 O 968.352 -1.65954 0.529609 0
M  V30 10419 C 965.484 -3.21167 1.143 0
M  V30 10420 H 966.677 -1.86441 2.34904 0
M  V30 10421 H 964.23 -0.942023 1.24722 0
M  V30 10422 H 964.965 -3.23829 0.174756 0
M  V30 10423 H 964.75 -3.40678 1.94116 0
M  V30 10424 H 966.24 -4.01231 1.15773 0
M  V30 10425 N 966.677 -1.24326 -0.968545 0
M  V30 10426 C 967.627 -1.00191 -2.04807 0
M  V30 10427 C 968.611 0.0563524 -1.60801 0
M  V30 10428 O 969.803 -0.157268 -1.763 0
M  V30 10429 C 966.932 -0.607749 -3.37878 0
M  V30 10430 C 966.018 -1.70204 -3.88447 0
M  V30 10431 N 966.409 -2.93463 -4.11962 0
M  V30 10432 C 964.707 -1.57936 -4.171 0
M  V30 10433 C 965.408 -3.64397 -4.5342 0
M  V30 10434 N 964.384 -2.91956 -4.58544 0
M  V30 10435 H 968.186 -1.93786 -2.20962 0
M  V30 10436 H 965.7 -1.1444 -1.15227 0
M  V30 10437 H 967.697 -0.416079 -4.14819 0
M  V30 10438 H 966.357 0.321026 -3.23109 0
M  V30 10439 H 967.368 -3.2965 -3.99438 0
M  V30 10440 H 964.045 -0.718552 -4.1127 0
M  V30 10441 H 965.435 -4.70125 -4.80034 0
M  V30 10442 N 968.156 1.1691 -1.05688 0
M  V30 10443 C 969.386 1.90927 -0.789339 0
M  V30 10444 C 969.794 1.77339 0.659369 0
M  V30 10445 O 969.137 1.11147 1.4626 0
M  V30 10446 C 969.199 3.42361 -1.09677 0
M  V30 10447 C 968.863 3.79733 -2.54267 0
M  V30 10448 C 969.86 3.82163 -3.52487 0
M  V30 10449 C 967.545 4.10547 -2.89406 0
M  V30 10450 C 969.539 4.14884 -4.8389 0
M  V30 10451 C 967.226 4.42936 -4.21011 0
M  V30 10452 C 968.224 4.45084 -5.18063 0
M  V30 10453 O 967.912 4.76707 -6.47307 0
M  V30 10454 H 967.644 0.612466 -0.286115 0
M  V30 10455 H 970.198 1.4916 -1.4121 0
M  V30 10456 H 968.428 3.84446 -0.416924 0
M  V30 10457 H 970.117 3.97645 -0.814456 0
M  V30 10458 H 970.883 3.58476 -3.26681 0
M  V30 10459 H 966.762 4.08044 -2.14525 0
M  V30 10460 H 970.306 4.16475 -5.59638 0
M  V30 10461 H 966.203 4.66088 -4.46579 0
M  V30 10462 H 966.971 4.94544 -6.52203 0
M  V30 10463 N 969.634 0.838594 1.33437 0
M  V30 10464 C 970.544 0.274048 2.32994 0
M  V30 10465 C 971.56 -0.599776 1.63336 0
M  V30 10466 O 972.736 -0.503963 1.94993 0
M  V30 10467 C 969.801 -0.541804 3.4244 0
M  V30 10468 C 968.862 0.356262 4.27819 0
M  V30 10469 C 968.095 -0.420747 5.32039 0
M  V30 10470 O 968.318 -1.65247 5.45939 0
M  V30 10471 O 967.252 0.205101 6.0155 0
M  V30 10472 H 971.078 1.09846 2.83139 0
M  V30 10473 H 968.663 0.601111 1.36774 0
M  V30 10474 H 970.545 -1.00544 4.0923 0
M  V30 10475 H 969.22 -1.34328 2.94513 0
M  V30 10476 H 968.127 0.867726 3.63897 0
M  V30 10477 H 969.46 1.1225 4.79229 0
M  V30 10478 N 971.112 -1.45937 0.595003 0
M  V30 10479 C 972.06 -2.32155 -0.143798 0
M  V30 10480 C 973.054 -1.45221 -0.872198 0
M  V30 10481 O 974.26 -1.61777 -0.789191 0
M  V30 10482 H 970.635 -0.749165 -0.0652377 0
M  V30 10483 H 972.606 -2.92264 0.602005 0
M  V30 10484 C 971.355 -3.28615 -1.13611 0
M  V30 10485 H 970.678 -3.95496 -0.585044 0
M  V30 10486 H 972.118 -3.91699 -1.62321 0
M  V30 10487 C 970.577 -2.54863 -2.20333 0
M  V30 10488 O 971.107 -2.32071 -3.27881 0
M  V30 10489 N 969.313 -2.15213 -1.95274 0
M  V30 10490 H 968.86 -2.33949 -1.07822 0
M  V30 10491 H 968.818 -1.66188 -2.66888 0
M  V30 10492 N 972.59 -0.333456 -1.54032 0
M  V30 10493 C 973.837 0.266133 -2.00744 0
M  V30 10494 C 974.165 1.51361 -1.22148 0
M  V30 10495 O 973.42 1.93473 -0.294368 0
M  V30 10496 C 973.719 0.63565 -3.51702 0
M  V30 10497 C 973.385 -0.513786 -4.47963 0
M  V30 10498 C 972.047 -0.829253 -4.74001 0
M  V30 10499 C 974.399 -1.2854 -5.05101 0
M  V30 10500 C 971.727 -1.91888 -5.54433 0
M  V30 10501 C 974.079 -2.3652 -5.86721 0
M  V30 10502 C 972.743 -2.68637 -6.11057 0
M  V30 10503 H 972.013 0.097385 -0.734573 0
M  V30 10504 H 974.66 -0.459282 -1.85911 0
M  V30 10505 H 972.965 1.44163 -3.64313 0
M  V30 10506 H 974.662 1.11129 -3.85294 0
M  V30 10507 H 971.252 -0.25784 -4.27824 0
M  V30 10508 H 975.436 -1.05494 -4.84958 0
M  V30 10509 H 970.692 -2.17208 -5.71516 0
M  V30 10510 H 974.866 -2.96747 -6.30011 0
M  V30 10511 H 972.493 -3.53197 -6.73169 0
M  V30 10512 N 974.068 1.57479 -0.061844 0
M  V30 10513 C 975.031 2.1104 0.894127 0
M  V30 10514 C 976.031 1.03227 1.23292 0
M  V30 10515 O 977.221 1.29256 1.16784 0
M  V30 10516 C 974.353 2.6035 2.20069 0
M  V30 10517 H 975.546 2.96807 0.429619 0
M  V30 10518 H 973.099 1.55181 0.18672 0
M  V30 10519 H 973.834 1.78008 2.71079 0
M  V30 10520 H 973.619 3.39146 1.9678 0
M  V30 10521 H 975.109 3.019 2.88525 0
M  V30 10522 N 975.546 -0.211634 1.56173 0
M  V30 10523 C 976.476 -1.26533 1.96244 0
M  V30 10524 C 977.457 -1.48362 0.832028 0
M  V30 10525 O 978.642 -1.60378 1.0951 0
M  V30 10526 C 975.772 -2.61307 2.2877 0
M  V30 10527 C 974.726 -2.54119 3.44395 0
M  V30 10528 C 974.052 -3.93014 3.62552 0
M  V30 10529 C 975.352 -2.08046 4.79076 0
M  V30 10530 H 977.046 -0.932407 2.84511 0
M  V30 10531 H 974.592 -0.447084 1.36884 0
M  V30 10532 H 976.545 -3.35188 2.55396 0
M  V30 10533 H 975.269 -2.96307 1.37367 0
M  V30 10534 H 973.928 -1.82694 3.17834 0
M  V30 10535 H 973.576 -4.25338 2.68508 0
M  V30 10536 H 973.276 -3.89083 4.40327 0
M  V30 10537 H 974.8 -4.68542 3.91537 0
M  V30 10538 H 976.214 -2.71676 5.04842 0
M  V30 10539 H 974.611 -2.15154 5.60204 0
M  V30 10540 H 975.681 -1.03306 4.73768 0
M  V30 10541 N 977.024 -1.50153 -0.478725 0
M  V30 10542 C 978.272 -1.60443 -1.22892 0
M  V30 10543 C 978.593 -0.303276 -1.92627 0
M  V30 10544 O 977.863 0.678798 -1.83764 0
M  V30 10545 H 976.443 -0.591205 -0.456602 0
M  V30 10546 H 979.105 -1.86893 -0.552905 0
M  V30 10547 H 978.201 -2.41175 -1.98094 0
M  V30 10548 N 978.502 0.731368 -1.39602 0
M  V30 10549 C 979.779 1.48308 -1.27531 0
M  V30 10550 C 980.159 2.10795 0.113482 0
M  V30 10551 O 979.507 1.98886 1.12501 0
M  V30 10552 C 979.717 2.53156 -2.40235 0
M  V30 10553 C 981.065 3.19436 -2.79725 0
M  V30 10554 O 982.089 2.6347 -2.39712 0
M  V30 10555 O 980.948 4.20714 -3.48801 0
M  V30 10556 H 978.042 0.658753 -0.499973 0
M  V30 10557 H 980.588 0.764884 -1.51485 0
M  V30 10558 H 979.36 2.05387 -3.33064 0
M  V30 10559 H 978.983 3.3253 -2.17966 0
M  V30 10560 N 979.98 1.24838 0.961938 0
M  V30 10561 C 981.205 1.11967 1.7458 0
M  V30 10562 C 981.63 -0.323287 1.85301 0
M  V30 10563 O 980.988 -1.23412 1.32812 0
M  V30 10564 C 981.036 1.77066 3.14134 0
M  V30 10565 O 980.14 1.04534 3.98932 0
M  V30 10566 H 979.481 0.391338 0.536424 0
M  V30 10567 H 982.011 1.65259 1.20626 0
M  V30 10568 H 982.021 1.83056 3.64629 0
M  V30 10569 H 980.696 2.82052 3.05646 0
M  V30 10570 H 979.273 1.06372 3.57407 0
M  V30 10571 N 981.458 -1.16348 1.06306 0
M  V30 10572 C 982.707 -1.8622 0.774909 0
M  V30 10573 C 983.02 -1.82598 -0.701245 0
M  V30 10574 O 984.226 -2.48051 -1.10377 0
M  V30 10575 C 982.682 -3.34182 1.33604 0
M  V30 10576 C 982.29 -3.46279 2.84245 0
M  V30 10577 C 984.034 -4.09309 1.12544 0
M  V30 10578 C 981.941 -4.88327 3.33602 0
M  V30 10579 H 980.871 -0.697574 0.286194 0
M  V30 10580 H 983.522 -1.31311 1.28179 0
M  V30 10581 H 981.904 -3.88698 0.756937 0
M  V30 10582 H 983.078 -3.01923 3.48108 0
M  V30 10583 H 981.393 -2.84585 3.03974 0
M  V30 10584 H 983.99 -5.14123 1.46909 0
M  V30 10585 H 984.333 -4.16251 0.0638129 0
M  V30 10586 H 984.866 -3.61032 1.67034 0
M  V30 10587 H 981.605 -4.86565 4.39244 0
M  V30 10588 H 981.125 -5.33307 2.74487 0
M  V30 10589 H 982.804 -5.57144 3.28937 0
M  V30 10590 N 982.937 -0.845659 -1.3299 0
M  V30 10591 C 983.869 -0.241097 -2.27928 0
M  V30 10592 C 984.882 0.582048 -1.5204 0
M  V30 10593 O 986.071 0.408008 -1.73774 0
M  V30 10594 C 983.171 0.678652 -3.32035 0
M  V30 10595 C 982.344 -0.106652 -4.3727 0
M  V30 10596 C 981.403 0.737478 -5.21006 0
M  V30 10597 O 980.429 0.174231 -5.68933 0
M  V30 10598 N 981.631 2.05372 -5.42957 0
M  V30 10599 H 984.396 -1.05685 -2.80448 0
M  V30 10600 H 981.957 -0.704771 -1.45755 0
M  V30 10601 H 983.949 1.24849 -3.84961 0
M  V30 10602 H 982.519 1.3951 -2.79742 0
M  V30 10603 H 981.739 -0.857897 -3.84752 0
M  V30 10604 H 983.027 -0.646386 -5.04677 0
M  V30 10605 H 982.425 2.53478 -5.05733 0
M  V30 10606 H 980.982 2.5719 -5.98913 0
M  V30 10607 N 984.415 1.45619 -0.602734 0
M  V30 10608 C 985.347 2.28662 0.157012 0
M  V30 10609 C 986.36 1.39672 0.836396 0
M  V30 10610 O 987.549 1.64091 0.702599 0
M  V30 10611 C 984.649 3.1528 1.24306 0
M  V30 10612 C 983.822 4.32517 0.651731 0
M  V30 10613 C 982.881 5.00381 1.62804 0
M  V30 10614 O 981.907 5.57333 1.15624 0
M  V30 10615 N 983.109 4.99221 2.96241 0
M  V30 10616 H 985.874 2.94506 -0.555535 0
M  V30 10617 H 983.435 1.55753 -0.441881 0
M  V30 10618 H 985.427 3.57544 1.8959 0
M  V30 10619 H 983.997 2.51376 1.85819 0
M  V30 10620 H 983.217 3.93793 -0.17907 0
M  V30 10621 H 984.505 5.08249 0.236802 0
M  V30 10622 H 983.903 4.54232 3.37179 0
M  V30 10623 H 982.46 5.45364 3.56961 0
M  V30 10624 N 985.893 0.34162 1.53853 0
M  V30 10625 C 986.803 -0.524555 2.2866 0
M  V30 10626 C 987.819 -1.1136 1.33697 0
M  V30 10627 O 988.995 -1.1297 1.66732 0
M  V30 10628 C 986.06 -1.66065 3.04341 0
M  V30 10629 C 985.121 -1.10158 4.14926 0
M  V30 10630 C 984.354 -2.18353 4.86988 0
M  V30 10631 O 984.577 -3.39038 4.58704 0
M  V30 10632 O 983.511 -1.82756 5.73484 0
M  V30 10633 H 987.337 0.0835014 3.03585 0
M  V30 10634 H 984.922 0.106727 1.49018 0
M  V30 10635 H 986.804 -2.3217 3.51674 0
M  V30 10636 H 985.479 -2.25456 2.32275 0
M  V30 10637 H 984.386 -0.405109 3.719 0
M  V30 10638 H 985.719 -0.552567 4.89088 0
M  V30 10639 N 987.371 -1.57444 0.0701946 0
M  V30 10640 C 988.618 -1.93429 -0.59929 0
M  V30 10641 C 988.946 -0.9501 -1.69715 0
M  V30 10642 O 988.201 0.0345377 -1.9567 0
M  V30 10643 C 988.5 -3.36044 -1.21694 0
M  V30 10644 C 988.166 -4.50232 -0.245374 0
M  V30 10645 C 986.828 -4.81195 0.0219161 0
M  V30 10646 C 989.18 -5.1951 0.419396 0
M  V30 10647 C 986.508 -5.78775 0.96109 0
M  V30 10648 C 988.86 -6.18095 1.34688 0
M  V30 10649 C 987.524 -6.47477 1.62265 0
M  V30 10650 H 986.794 -0.707807 -0.219296 0
M  V30 10651 H 989.441 -1.90982 0.14073 0
M  V30 10652 H 987.746 -3.34948 -2.03265 0
M  V30 10653 H 989.443 -3.61176 -1.74221 0
M  V30 10654 H 986.033 -4.26082 -0.463887 0
M  V30 10655 H 990.217 -4.95785 0.226009 0
M  V30 10656 H 985.473 -5.99865 1.18202 0
M  V30 10657 H 989.647 -6.7088 1.86795 0
M  V30 10658 H 987.274 -7.229 2.352 0
M  V30 10659 N 988.849 0.203349 -1.56283 0
M  V30 10660 C 990.095 0.926381 -1.80405 0
M  V30 10661 C 990.428 1.8325 -0.642883 0
M  V30 10662 O 989.703 1.91196 0.356998 0
M  V30 10663 C 989.986 1.74972 -3.14733 0
M  V30 10664 C 989.839 0.868866 -4.41328 0
M  V30 10665 C 991.158 2.72394 -3.45672 0
M  V30 10666 H 988.277 0.335346 -0.656286 0
M  V30 10667 H 990.919 0.1942 -1.89005 0
M  V30 10668 H 989.069 2.37394 -3.07533 0
M  V30 10669 H 990.741 0.259986 -4.60567 0
M  V30 10670 H 988.984 0.175161 -4.33446 0
M  V30 10671 H 989.655 1.47975 -5.31796 0
M  V30 10672 H 992.131 2.20105 -3.53119 0
M  V30 10673 H 991.007 3.27091 -4.40798 0
M  V30 10674 H 991.268 3.51035 -2.6875 0
M  V30 10675 N 990.327 1.50405 0.470755 0
M  V30 10676 C 991.277 1.65681 1.56633 0
M  V30 10677 C 992.261 0.511424 1.52556 0
M  V30 10678 O 993.453 0.765844 1.59574 0
M  V30 10679 C 990.582 1.7546 2.95074 0
M  V30 10680 C 989.668 2.95676 3.04034 0
M  V30 10681 N 990.059 4.1935 2.82807 0
M  V30 10682 C 988.357 2.94241 3.35169 0
M  V30 10683 C 989.058 5.0032 2.96741 0
M  V30 10684 N 988.034 4.34282 3.26956 0
M  V30 10685 H 991.836 2.58994 1.38922 0
M  V30 10686 H 989.35 1.47593 0.67749 0
M  V30 10687 H 991.347 1.84508 3.73848 0
M  V30 10688 H 990.007 0.833057 3.13832 0
M  V30 10689 H 991.018 4.48842 2.58382 0
M  V30 10690 H 987.695 2.11587 3.59913 0
M  V30 10691 H 989.085 6.08664 2.84566 0
M  V30 10692 N 991.805 -0.723954 1.39988 0
M  V30 10693 C 992.753 -1.85938 1.39749 0
M  V30 10694 C 993.747 -1.67085 0.279112 0
M  V30 10695 O 994.953 -1.74291 0.44972 0
M  V30 10696 H 991.328 -0.612246 0.436644 0
M  V30 10697 H 993.299 -1.83255 2.355 0
M  V30 10698 C 992.048 -3.23726 1.26874 0
M  V30 10699 H 991.371 -3.38835 2.12206 0
M  V30 10700 H 992.811 -4.03332 1.30765 0
M  V30 10701 C 991.27 -3.36893 -0.0218317 0
M  V30 10702 O 991.8 -3.89363 -0.987905 0
M  V30 10703 N 990.006 -2.90465 -0.0885618 0
M  V30 10704 H 989.553 -2.47954 0.698314 0
M  V30 10705 H 989.511 -2.99654 -0.951557 0
M  V30 10706 N 993.283 -1.25346 -0.955304 0
M  V30 10707 C 994.511 -1.12793 -1.73451 0
M  V30 10708 C 994.926 0.318344 -1.86097 0
M  V30 10709 O 994.283 1.21897 -1.35821 0
M  V30 10710 C 994.334 -1.77603 -3.14864 0
M  V30 10711 O 994.055 -3.16577 -3.02837 0
M  V30 10712 C 995.556 -1.70821 -4.09066 0
M  V30 10713 H 992.776 -0.393457 -0.543537 0
M  V30 10714 H 995.32 -1.65696 -1.19855 0
M  V30 10715 H 993.475 -1.28673 -3.65407 0
M  V30 10716 H 993.889 -3.48433 -3.92039 0
M  V30 10717 H 995.363 -2.2083 -5.05903 0
M  V30 10718 H 995.84 -0.671858 -4.34031 0
M  V30 10719 H 996.446 -2.19237 -3.64438 0
M  V30 10720 N 994.761 1.15782 -1.06922 0
M  V30 10721 C 996.038 1.8253 -0.703 0
M  V30 10722 C 996.418 1.94733 0.814994 0
M  V30 10723 O 995.766 1.49537 1.72774 0
M  V30 10724 C 995.976 3.19145 -1.41234 0
M  V30 10725 C 997.324 3.94839 -1.56164 0
M  V30 10726 O 998.348 3.28685 -1.37277 0
M  V30 10727 O 997.207 5.13436 -1.87205 0
M  V30 10728 H 994.301 0.788425 -0.24963 0
M  V30 10729 H 996.847 1.22931 -1.16988 0
M  V30 10730 H 995.619 3.05336 -2.44715 0
M  V30 10731 H 995.242 3.86427 -0.935959 0
M  V30 10732 N 996.239 0.8527 1.3254 0
M  V30 10733 C 997.488 0.45136 1.96585 0
M  V30 10734 C 997.801 -0.997773 1.68237 0
M  V30 10735 O 999.007 -1.50445 2.26006 0
M  V30 10736 C 997.463 0.75619 3.51866 0
M  V30 10737 C 997.071 2.22092 3.89075 0
M  V30 10738 C 998.815 0.422478 4.22392 0
M  V30 10739 C 996.722 2.46908 5.37392 0
M  V30 10740 H 995.652 0.165052 0.735713 0
M  V30 10741 H 998.303 1.04321 1.50962 0
M  V30 10742 H 996.685 0.0937988 3.95889 0
M  V30 10743 H 997.859 2.92494 3.56067 0
M  V30 10744 H 996.174 2.51896 3.31568 0
M  V30 10745 H 998.771 0.58533 5.31487 0
M  V30 10746 H 999.114 -0.635737 4.11417 0
M  V30 10747 H 999.647 1.04068 3.83946 0
M  V30 10748 H 996.386 3.51346 5.53386 0
M  V30 10749 H 995.906 1.81082 5.71812 0
M  V30 10750 H 997.585 2.30758 6.0445 0
M  V30 10751 N 997.718 -1.45297 0.610449 0
M  V30 10752 C 998.65 -2.28742 -0.144884 0
M  V30 10753 C 999.663 -1.40114 -0.828977 0
M  V30 10754 O 1000.85 -1.64461 -0.693887 0
M  V30 10755 C 997.952 -3.15934 -1.22632 0
M  V30 10756 C 997.125 -4.32857 -0.628785 0
M  V30 10757 C 996.184 -5.01237 -1.60148 0
M  V30 10758 O 995.21 -5.57938 -1.12667 0
M  V30 10759 N 996.412 -5.00785 -2.9359 0
M  V30 10760 H 999.177 -2.94207 0.571145 0
M  V30 10761 H 996.738 -1.55517 0.450134 0
M  V30 10762 H 998.73 -3.58545 -1.87691 0
M  V30 10763 H 997.3 -2.52358 -1.84483 0
M  V30 10764 H 996.52 -3.93693 0.199951 0
M  V30 10765 H 997.808 -5.08367 -0.209845 0
M  V30 10766 H 997.206 -4.56014 -3.34765 0
M  V30 10767 H 995.763 -5.4725 -3.54064 0
M  V30 10768 N 999.196 -0.349774 -1.5367 0
M  V30 10769 C 1000.13 0.538575 -2.22782 0
M  V30 10770 C 1001.14 1.05896 -1.23652 0
M  V30 10771 O 1002.33 0.968045 -1.4997 0
M  V30 10772 C 999.43 1.7546 -2.89943 0
M  V30 10773 C 998.603 1.36843 -4.15443 0
M  V30 10774 C 997.662 2.4448 -4.65957 0
M  V30 10775 O 996.688 2.07528 -5.3002 0
M  V30 10776 N 997.89 3.75829 -4.42417 0
M  V30 10777 H 1000.65 -0.053348 -2.99653 0
M  V30 10778 H 998.216 -0.174193 -1.6096 0
M  V30 10779 H 1000.21 2.46911 -3.20651 0
M  V30 10780 H 998.778 2.25375 -2.16622 0
M  V30 10781 H 997.998 0.484421 -3.91212 0
M  V30 10782 H 999.286 1.0865 -4.97064 0
M  V30 10783 H 998.684 4.08635 -3.91196 0
M  V30 10784 H 997.241 4.43432 -4.77714 0
M  V30 10785 N 1000.67 1.57404 -0.0785433 0
M  V30 10786 C 1001.6 2.16131 0.883726 0
M  V30 10787 C 1002.58 1.09015 1.30575 0
M  V30 10788 O 1003.77 1.3708 1.37559 0
M  V30 10789 C 1000.9 2.72836 2.1489 0
M  V30 10790 C 999.854 3.85178 1.86605 0
M  V30 10791 C 999.18 4.28516 3.1981 0
M  V30 10792 C 1000.48 5.09118 1.16601 0
M  V30 10793 H 1002.17 2.9679 0.394484 0
M  V30 10794 H 999.72 1.42763 0.188304 0
M  V30 10795 H 1001.67 3.12567 2.8263 0
M  V30 10796 H 1000.4 1.89408 2.66068 0
M  V30 10797 H 999.056 3.45962 1.21268 0
M  V30 10798 H 998.704 3.42 3.68843 0
M  V30 10799 H 998.404 5.04249 3.01674 0
M  V30 10800 H 999.928 4.70868 3.88737 0
M  V30 10801 H 1001.34 5.46123 1.74422 0
M  V30 10802 H 999.739 5.90173 1.087 0
M  V30 10803 H 1000.81 4.8468 0.146138 0
M  V30 10804 N 1002.15 -0.195058 1.56388 0
M  V30 10805 C 1003.43 -0.941335 1.71459 0
M  V30 10806 C 1003.81 -2.01375 0.633336 0
M  V30 10807 O 1003.16 -2.25715 -0.35567 0
M  V30 10808 C 1003.37 -1.52772 3.13786 0
M  V30 10809 C 1004.71 -2.00983 3.7402 0
M  V30 10810 O 1005.74 -1.62614 3.16915 0
M  V30 10811 O 1004.6 -2.71586 4.7424 0
M  V30 10812 H 1001.69 -0.441451 0.699321 0
M  V30 10813 H 1004.24 -0.184752 1.68691 0
M  V30 10814 H 1003.01 -0.754699 3.83953 0
M  V30 10815 H 1002.63 -2.34914 3.20782 0
M  V30 10816 N 1003.63 -1.50653 -0.462772 0
M  V30 10817 C 1004.91 -1.5258 -1.22387 0
M  V30 10818 C 1005.29 -0.275263 -2.09298 0
M  V30 10819 O 1004.63 0.740943 -2.16153 0
M  V30 10820 C 1004.84 -2.82611 -2.04773 0
M  V30 10821 C 1006.19 -3.33592 -2.62681 0
M  V30 10822 O 1007.22 -2.83989 -2.15008 0
M  V30 10823 O 1006.08 -4.20081 -3.49563 0
M  V30 10824 H 1003.17 -0.612367 -0.55582 0
M  V30 10825 H 1005.72 -1.62948 -0.473914 0
M  V30 10826 H 1004.49 -3.65098 -1.40781 0
M  V30 10827 H 1004.11 -2.75286 -2.86886 0
M  V30 10828 N 1005.11 0.71652 -1.4037 0
M  V30 10829 C 1006.04 1.84345 -1.43315 0
M  V30 10830 C 1007.02 1.67537 -0.294186 0
M  V30 10831 O 1008.2 1.87582 -0.502671 0
M  V30 10832 C 1005.33 3.2229 -1.29408 0
M  V30 10833 C 1004.29 3.53769 -2.40897 0
M  V30 10834 C 1003.61 4.90847 -2.12068 0
M  V30 10835 C 1004.91 3.54862 -3.83237 0
M  V30 10836 H 1006.61 1.82138 -2.37626 0
M  V30 10837 H 1004.15 0.874873 -1.14376 0
M  V30 10838 H 1006.11 4.00819 -1.30085 0
M  V30 10839 H 1004.83 3.2507 -0.31573 0
M  V30 10840 H 1003.49 2.77579 -2.39469 0
M  V30 10841 H 1003.14 4.90229 -1.12626 0
M  V30 10842 H 1002.84 5.12875 -2.86762 0
M  V30 10843 H 1004.36 5.71711 -2.14426 0
M  V30 10844 H 1005.78 4.23432 -3.86494 0
M  V30 10845 H 1004.17 3.88416 -4.57442 0
M  V30 10846 H 1005.24 2.54266 -4.12888 0
M  V30 10847 N 1006.59 1.25851 0.948643 0
M  V30 10848 C 1007.53 1.06759 2.04625 0
M  V30 10849 C 1008.5 -0.0251144 1.66081 0
M  V30 10850 O 1009.69 0.133221 1.90334 0
M  V30 10851 C 1006.83 0.698724 3.37952 0
M  V30 10852 C 1005.94 1.8669 3.89578 0
M  V30 10853 C 1005.08 1.44184 5.11258 0
M  V30 10854 C 1004.12 2.57878 5.55126 0
M  V30 10855 N 1003.25 2.16106 6.68014 0
M  V30 10856 H 1008.09 2.00691 2.20289 0
M  V30 10857 H 1005.63 0.999327 1.07944 0
M  V30 10858 H 1007.59 0.465788 4.14592 0
M  V30 10859 H 1006.22 -0.203618 3.22157 0
M  V30 10860 H 1005.27 2.21298 3.09405 0
M  V30 10861 H 1006.58 2.72051 4.18079 0
M  V30 10862 H 1005.74 1.16891 5.95333 0
M  V30 10863 H 1004.47 0.559035 4.84485 0
M  V30 10864 H 1003.48 2.85909 4.69612 0
M  V30 10865 H 1004.7 3.46747 5.83904 0
M  V30 10866 H 1002.65 1.3025 6.42939 0
M  V30 10867 H 1002.57 2.95012 6.96063 0
M  V30 10868 H 1003.84 1.92005 7.55483 0
M  V30 10869 N 1008.06 -1.15214 1.07534 0
M  V30 10870 C 1009.34 -1.82155 0.71267 0
M  V30 10871 C 1009.72 -1.95163 -0.804655 0
M  V30 10872 O 1009.07 -1.50451 -1.71979 0
M  V30 10873 C 1009.28 -3.18392 1.42925 0
M  V30 10874 C 1010.63 -3.94005 1.58256 0
M  V30 10875 O 1011.65 -3.27952 1.39018 0
M  V30 10876 O 1010.51 -5.12436 1.89925 0
M  V30 10877 H 1007.6 -0.78709 0.253808 0
M  V30 10878 H 1010.15 -1.22309 1.17638 0
M  V30 10879 H 1008.92 -3.04034 2.46331 0
M  V30 10880 H 1008.55 -3.85925 0.956439 0
M  V30 10881 N 1009.54 -0.859717 -1.32086 0
M  V30 10882 C 1010.49 -0.306042 -2.28762 0
M  V30 10883 C 1011.46 0.589801 -1.55276 0
M  V30 10884 O 1012.64 0.523633 -1.83474 0
M  V30 10885 C 1009.78 0.495256 -3.41528 0
M  V30 10886 C 1008.9 -0.426947 -4.29885 0
M  V30 10887 C 1008.03 0.387474 -5.29785 0
M  V30 10888 C 1007.07 -0.531807 -6.09785 0
M  V30 10889 N 1006.21 0.245741 -7.0167 0
M  V30 10890 H 1011.05 -1.1357 -2.7551 0
M  V30 10891 H 1008.59 -0.571468 -1.35546 0
M  V30 10892 H 1010.54 0.97551 -4.05635 0
M  V30 10893 H 1009.17 1.28969 -2.95917 0
M  V30 10894 H 1008.23 -1.02561 -3.66313 0
M  V30 10895 H 1009.54 -1.13226 -4.85779 0
M  V30 10896 H 1008.69 0.930677 -5.99519 0
M  V30 10897 H 1007.43 1.12612 -4.74521 0
M  V30 10898 H 1006.44 -1.08685 -5.3895 0
M  V30 10899 H 1007.66 -1.26915 -6.67135 0
M  V30 10900 H 1005.61 0.967391 -6.48828 0
M  V30 10901 H 1005.52 -0.400432 -7.54939 0
M  V30 10902 H 1006.79 0.770507 -7.75683 0
M  V30 10903 N 1011.02 1.44971 -0.618145 0
M  V30 10904 C 1012.25 2.06527 -0.124165 0
M  V30 10905 C 1012.66 1.46097 1.19588 0
M  V30 10906 O 1012.02 0.57901 1.73071 0
M  V30 10907 C 1012.07 3.61498 0.0106701 0
M  V30 10908 O 1011.79 4.19675 -1.25716 0
M  V30 10909 C 1013.29 4.40061 0.534872 0
M  V30 10910 H 1010.51 0.666941 -0.0736935 0
M  V30 10911 H 1013.06 1.8605 -0.848871 0
M  V30 10912 H 1011.21 3.81282 0.685752 0
M  V30 10913 H 1011.63 5.12972 -1.09362 0
M  V30 10914 H 1013.1 5.48963 0.57827 0
M  V30 10915 H 1013.58 4.10587 1.55931 0
M  V30 10916 H 1014.18 4.25167 -0.10652 0
M  V30 10917 N 1012.5 0.357919 1.53482 0
M  V30 10918 C 1013.74 -0.23451 2.0144 0
M  V30 10919 C 1014.08 -1.49044 1.24497 0
M  V30 10920 O 1013.35 -1.91566 0.336535 0
M  V30 10921 C 1013.64 -0.534193 3.56116 0
M  V30 10922 C 1013.49 0.734834 4.43757 0
M  V30 10923 C 1014.81 -1.33793 4.1927 0
M  V30 10924 H 1011.93 -0.0837595 0.732225 0
M  V30 10925 H 1014.57 0.481297 1.83803 0
M  V30 10926 H 1012.72 -1.144 3.71275 0
M  V30 10927 H 1014.39 1.37251 4.40409 0
M  V30 10928 H 1012.63 1.35678 4.12036 0
M  V30 10929 H 1013.3 0.48021 5.49907 0
M  V30 10930 H 1015.78 -0.822158 4.07897 0
M  V30 10931 H 1014.66 -1.51636 5.27539 0
M  V30 10932 H 1014.92 -2.34423 3.74831 0
M  V30 10933 N 1013.98 -1.5736 0.0868897 0
M  V30 10934 C 1014.91 -2.16596 -0.872252 0
M  V30 10935 C 1015.89 -1.09706 -1.29995 0
M  V30 10936 O 1017.07 -1.37808 -1.36831 0
M  V30 10937 C 1014.2 -2.73972 -2.1344 0
M  V30 10938 C 1013.16 -3.86163 -1.8456 0
M  V30 10939 C 1012.48 -4.30206 -3.17533 0
M  V30 10940 C 1013.78 -5.0973 -1.13899 0
M  V30 10941 H 1015.48 -2.96995 -0.378738 0
M  V30 10942 H 1013.02 -1.42861 -0.18073 0
M  V30 10943 H 1014.98 -3.14062 -2.80968 0
M  V30 10944 H 1013.7 -1.90817 -2.6506 0
M  V30 10945 H 1012.36 -3.466 -1.19432 0
M  V30 10946 H 1012.01 -3.43951 -3.67024 0
M  V30 10947 H 1011.71 -5.05841 -2.98996 0
M  V30 10948 H 1013.23 -4.72922 -3.86234 0
M  V30 10949 H 1014.64 -5.4704 -1.71523 0
M  V30 10950 H 1013.04 -5.90741 -1.05569 0
M  V30 10951 H 1014.11 -4.8475 -0.120432 0
M  V30 10952 N 1015.45 0.186762 -1.56489 0
M  V30 10953 C 1016.7 0.904077 -1.80303 0
M  V30 10954 C 1017.02 1.84073 -0.661538 0
M  V30 10955 O 1018.22 2.59928 -0.784197 0
M  V30 10956 C 1016.68 1.65806 -3.19432 0
M  V30 10957 C 1016.29 0.765807 -4.41406 0
M  V30 10958 C 1018.03 2.36451 -3.52549 0
M  V30 10959 C 1015.94 1.51913 -5.71556 0
M  V30 10960 H 1014.87 0.34133 -0.672317 0
M  V30 10961 H 1017.52 0.157218 -1.82825 0
M  V30 10962 H 1015.9 2.44911 -3.11183 0
M  V30 10963 H 1017.07 0.0128225 -4.60798 0
M  V30 10964 H 1015.39 0.169772 -4.16054 0
M  V30 10965 H 1017.99 2.93378 -4.47027 0
M  V30 10966 H 1018.33 3.11044 -2.7669 0
M  V30 10967 H 1018.86 1.64305 -3.62283 0
M  V30 10968 H 1015.6 0.815829 -6.50403 0
M  V30 10969 H 1015.12 2.24583 -5.56168 0
M  V30 10970 H 1016.8 2.07073 -6.12968 0
M  V30 10971 N 1016.93 1.50896 0.454776 0
M  V30 10972 C 1018.35 1.38684 0.78987 0
M  V30 10973 C 1018.55 0.455587 1.96282 0
M  V30 10974 O 1017.6 -0.0957503 2.52318 0
M  V30 10975 C 1018.92 2.80381 1.08661 0
M  V30 10976 C 1020.47 2.8941 1.19209 0
M  V30 10977 C 1020.94 4.31976 1.52187 0
M  V30 10978 N 1022.43 4.35002 1.59146 0
M  V30 10979 C 1023.17 5.42326 1.862 0
M  V30 10980 N 1022.66 6.59835 2.11164 0
M  V30 10981 N 1024.46 5.29786 1.87838 0
M  V30 10982 H 1016.61 2.10006 -0.317981 0
M  V30 10983 H 1018.87 0.944636 -0.0797969 0
M  V30 10984 H 1018.58 3.50438 0.297626 0
M  V30 10985 H 1018.45 3.18634 2.01872 0
M  V30 10986 H 1020.84 2.19561 1.97173 0
M  V30 10987 H 1020.92 2.54677 0.239401 0
M  V30 10988 H 1020.56 5.02368 0.747576 0
M  V30 10989 H 1020.49 4.64208 2.48633 0
M  V30 10990 H 1022.98 3.50276 1.41828 0
M  V30 10991 H 1023.3 7.37428 2.31128 0
M  V30 10992 H 1021.64 6.62981 2.08522 0
M  V30 10993 H 1024.83 4.36974 1.67843 0
M  V30 10994 H 1025 6.13511 2.08585 0
M  V30 10995 N 1018.41 -0.709066 1.40748 0
M  V30 10996 C 1019.36 -1.84445 1.41714 0
M  V30 10997 C 1020.35 -1.66779 0.296818 0
M  V30 10998 O 1021.56 -1.73805 0.468181 0
M  V30 10999 H 1017.93 -0.607581 0.443114 0
M  V30 11000 H 1019.9 -1.80747 2.3743 0
M  V30 11001 C 1018.65 -3.22362 1.303 0
M  V30 11002 H 1017.98 -3.36565 2.15787 0
M  V30 11003 H 1019.42 -4.01922 1.35036 0
M  V30 11004 C 1017.88 -3.36897 0.0139015 0
M  V30 11005 O 1018.41 -3.90389 -0.946553 0
M  V30 11006 N 1016.61 -2.90543 -0.0577491 0
M  V30 11007 H 1016.16 -2.472 0.724574 0
M  V30 11008 H 1016.12 -3.00647 -0.919721 0
M  V30 11009 N 1019.89 -1.26353 -0.941956 0
M  V30 11010 C 1021.14 -1.12017 -1.69056 0
M  V30 11011 C 1021.47 0.335856 -1.91274 0
M  V30 11012 O 1020.74 1.24677 -1.49285 0
M  V30 11013 C 1021.03 -1.88889 -3.06583 0
M  V30 11014 C 1020.88 -3.42394 -2.91696 0
M  V30 11015 C 1022.2 -1.68209 -4.06686 0
M  V30 11016 H 1019.32 -0.408311 -0.613556 0
M  V30 11017 H 1021.96 -1.55339 -1.09407 0
M  V30 11018 H 1020.11 -1.5207 -3.57501 0
M  V30 11019 H 1021.78 -3.88962 -2.48005 0
M  V30 11020 H 1020.02 -3.69459 -2.27338 0
M  V30 11021 H 1020.7 -3.91408 -3.89235 0
M  V30 11022 H 1023.17 -2.00286 -3.64726 0
M  V30 11023 H 1022.05 -2.24412 -5.00929 0
M  V30 11024 H 1022.31 -0.626474 -4.37639 0
M  V30 11025 N 1021.37 1.14642 -1.08144 0
M  V30 11026 C 1022.62 1.8525 -0.807885 0
M  V30 11027 C 1022.94 1.83194 0.668213 0
M  V30 11028 O 1022.21 1.27848 1.48431 0
M  V30 11029 H 1020.79 0.685909 -0.295868 0
M  V30 11030 H 1023.45 1.38935 -1.36686 0
M  V30 11031 H 1022.54 2.90155 -1.14964 0
M  V30 11032 N 1022.85 0.866709 1.31628 0
M  V30 11033 C 1023.78 0.277328 2.27516 0
M  V30 11034 C 1024.79 -0.557786 1.52946 0
M  V30 11035 O 1025.98 -0.38031 1.74402 0
M  V30 11036 C 1023.08 -0.625742 3.33073 0
M  V30 11037 C 1022.25 0.176204 4.37045 0
M  V30 11038 C 1021.31 -0.654497 5.22114 0
M  V30 11039 O 1020.34 -0.0836961 5.69138 0
M  V30 11040 N 1021.54 -1.96708 5.46156 0
M  V30 11041 H 1024.3 1.10133 2.78731 0
M  V30 11042 H 1021.87 0.72787 1.44616 0
M  V30 11043 H 1023.86 -1.18709 3.86898 0
M  V30 11044 H 1022.43 -1.35042 2.81926 0
M  V30 11045 H 1021.65 0.918999 3.83338 0
M  V30 11046 H 1022.94 0.726594 5.03585 0
M  V30 11047 H 1022.33 -2.454 5.09701 0
M  V30 11048 H 1020.89 -2.47629 6.02929 0
M  V30 11049 N 1024.32 -1.44642 0.625825 0
M  V30 11050 C 1025.23 -2.34451 -0.0836134 0
M  V30 11051 C 1026.25 -1.5231 -0.841289 0
M  V30 11052 O 1027.43 -1.85056 -0.794754 0
M  V30 11053 C 1024.49 -3.30211 -1.05648 0
M  V30 11054 C 1023.55 -4.28259 -0.298759 0
M  V30 11055 C 1022.78 -5.19444 -1.22528 0
M  V30 11056 O 1023.01 -5.14444 -2.46382 0
M  V30 11057 O 1021.94 -5.97668 -0.71247 0
M  V30 11058 H 1025.77 -2.96555 0.654912 0
M  V30 11059 H 1023.35 -1.44327 0.386029 0
M  V30 11060 H 1025.23 -3.8917 -1.61632 0
M  V30 11061 H 1023.91 -2.70648 -1.77571 0
M  V30 11062 H 1022.82 -3.72863 0.304001 0
M  V30 11063 H 1024.15 -4.90728 0.380345 0
M  V30 11064 N 1025.8 -0.366053 -1.5329 0
M  V30 11065 C 1027.05 0.224614 -2.00445 0
M  V30 11066 C 1027.36 1.49829 -1.2574 0
M  V30 11067 O 1028.57 2.16759 -1.63487 0
M  V30 11068 C 1027.03 0.450818 -3.57065 0
M  V30 11069 C 1026.63 -0.808257 -4.40649 0
M  V30 11070 C 1028.38 0.999116 -4.12575 0
M  V30 11071 C 1026.28 -0.551612 -5.88822 0
M  V30 11072 H 1025.21 0.0877114 -0.748881 0
M  V30 11073 H 1027.87 -0.484866 -1.76978 0
M  V30 11074 H 1026.25 1.22157 -3.76688 0
M  V30 11075 H 1027.42 -1.58184 -4.32798 0
M  V30 11076 H 1025.74 -1.27981 -3.96245 0
M  V30 11077 H 1028.33 1.20646 -5.20911 0
M  V30 11078 H 1028.68 1.96139 -3.67199 0
M  V30 11079 H 1029.21 0.288518 -3.96752 0
M  V30 11080 H 1025.95 -1.48423 -6.38475 0
M  V30 11081 H 1025.47 0.183462 -5.99519 0
M  V30 11082 H 1027.15 -0.177307 -6.46757 0
M  V30 11083 N 1027.28 1.57312 -0.0952337 0
M  V30 11084 C 1028.53 1.93974 0.567319 0
M  V30 11085 C 1028.85 0.977805 1.68713 0
M  V30 11086 O 1028.12 0.0298944 1.95877 0
M  V30 11087 H 1026.7 0.71612 0.212558 0
M  V30 11088 H 1029.36 1.94254 -0.158598 0
M  V30 11089 H 1028.46 2.964 0.977423 0
M  V30 11090 N 1028.76 -0.17846 1.56586 0
M  V30 11091 C 1029.67 -1.24115 1.9908 0
M  V30 11092 C 1030.68 -1.48854 0.901031 0
M  V30 11093 O 1031.86 -1.61142 1.2081 0
M  V30 11094 C 1028.92 -2.56187 2.33601 0
M  V30 11095 C 1027.99 -2.39373 3.56369 0
M  V30 11096 C 1027.22 -3.65147 3.89234 0
M  V30 11097 O 1027.44 -4.70024 3.23162 0
M  V30 11098 O 1026.38 -3.59683 4.82609 0
M  V30 11099 H 1030.2 -0.910482 2.89731 0
M  V30 11100 H 1027.79 -0.38477 1.4436 0
M  V30 11101 H 1029.67 -3.34109 2.56806 0
M  V30 11102 H 1028.34 -2.88847 1.46113 0
M  V30 11103 H 1027.25 -1.59506 3.38391 0
M  V30 11104 H 1028.58 -2.1164 4.44375 0
M  V30 11105 N 1030.24 -1.51135 -0.446768 0
M  V30 11106 C 1031.65 -1.39101 -0.782504 0
M  V30 11107 C 1031.85 -0.46599 -1.96038 0
M  V30 11108 O 1030.91 0.0823679 -2.52366 0
M  V30 11109 C 1032.22 -2.80953 -1.07173 0
M  V30 11110 C 1033.77 -2.90038 -1.17673 0
M  V30 11111 C 1034.24 -4.32777 -1.49894 0
M  V30 11112 N 1035.73 -4.3584 -1.56837 0
M  V30 11113 C 1036.47 -5.43305 -1.83322 0
M  V30 11114 N 1035.97 -6.60945 -2.07662 0
M  V30 11115 N 1037.76 -5.30775 -1.85026 0
M  V30 11116 H 1029.91 -2.09835 0.329114 0
M  V30 11117 H 1032.17 -0.944199 0.0848054 0
M  V30 11118 H 1031.88 -3.50591 -0.279037 0
M  V30 11119 H 1031.75 -3.197 -2.00179 0
M  V30 11120 H 1034.14 -2.20603 -1.96005 0
M  V30 11121 H 1034.22 -2.54801 -0.225892 0
M  V30 11122 H 1033.86 -5.02757 -0.720924 0
M  V30 11123 H 1033.79 -4.6552 -2.46168 0
M  V30 11124 H 1036.29 -3.51023 -1.39968 0
M  V30 11125 H 1036.6 -7.38643 -2.27214 0
M  V30 11126 H 1034.94 -6.64077 -2.05003 0
M  V30 11127 H 1038.13 -4.37858 -1.65523 0
M  V30 11128 H 1038.31 -6.14609 -2.05329 0
M  V30 11129 N 1031.71 0.701592 -1.41122 0
M  V30 11130 C 1032.94 1.48833 -1.43291 0
M  V30 11131 C 1033.35 1.89168 -0.0348668 0
M  V30 11132 O 1032.69 1.56937 0.9548 0
M  V30 11133 C 1032.76 2.78533 -2.27287 0
M  V30 11134 C 1032.42 2.60438 -3.75528 0
M  V30 11135 C 1033.42 2.26778 -4.67833 0
M  V30 11136 C 1031.1 2.76266 -4.19503 0
M  V30 11137 C 1033.1 2.09176 -6.021 0
M  V30 11138 C 1030.78 2.58281 -5.53836 0
M  V30 11139 C 1031.78 2.24786 -6.4495 0
M  V30 11140 O 1031.47 2.06952 -7.76805 0
M  V30 11141 H 1031.2 0.465401 -0.490284 0
M  V30 11142 H 1033.76 0.871843 -1.85979 0
M  V30 11143 H 1031.99 3.42566 -1.79403 0
M  V30 11144 H 1033.67 3.40312 -2.21229 0
M  V30 11145 H 1034.44 2.1417 -4.35151 0
M  V30 11146 H 1030.32 3.01322 -3.48893 0
M  V30 11147 H 1033.86 1.82955 -6.73181 0
M  V30 11148 H 1029.76 2.70478 -5.86099 0
M  V30 11149 H 1030.53 2.21762 -7.87886 0
M  V30 11150 N 1033.19 1.2685 0.935242 0
M  V30 11151 C 1034.44 1.12132 1.67658 0
M  V30 11152 C 1034.75 -0.333839 1.9273 0
M  V30 11153 O 1035.96 -0.601801 2.64746 0
M  V30 11154 C 1034.42 1.95873 3.0193 0
M  V30 11155 C 1034.02 3.46 2.84584 0
M  V30 11156 C 1035.77 1.89781 3.79715 0
M  V30 11157 C 1033.67 4.21966 4.14365 0
M  V30 11158 H 1032.6 0.416035 0.628833 0
M  V30 11159 H 1035.26 1.51209 1.03962 0
M  V30 11160 H 1033.64 1.49633 3.66641 0
M  V30 11161 H 1034.81 4.00049 2.28687 0
M  V30 11162 H 1033.13 3.53391 2.20236 0
M  V30 11163 H 1035.72 2.43819 4.75875 0
M  V30 11164 H 1036.07 0.869797 4.07112 0
M  V30 11165 H 1036.6 2.33875 3.21788 0
M  V30 11166 H 1033.34 5.2526 3.9215 0
M  V30 11167 H 1032.86 3.72696 4.69955 0
M  V30 11168 H 1034.54 4.30734 4.82781 0
M  V30 11169 N 1034.67 -1.14067 1.0875 0
M  V30 11170 C 1035.62 -2.19261 0.720633 0
M  V30 11171 C 1036.59 -1.63462 -0.294847 0
M  V30 11172 O 1037.77 -1.89967 -0.178058 0
M  V30 11173 C 1034.91 -3.44816 0.139873 0
M  V30 11174 C 1034.03 -4.1475 1.20856 0
M  V30 11175 C 1033.16 -5.27899 0.591285 0
M  V30 11176 C 1032.2 -5.89672 1.64176 0
M  V30 11177 N 1031.34 -6.94264 1.04603 0
M  V30 11178 H 1036.18 -2.49991 1.62198 0
M  V30 11179 H 1033.71 -1.22757 0.810497 0
M  V30 11180 H 1035.67 -4.16648 -0.214587 0
M  V30 11181 H 1034.3 -3.14558 -0.724774 0
M  V30 11182 H 1033.35 -3.41272 1.6804 0
M  V30 11183 H 1034.67 -4.56753 2.00446 0
M  V30 11184 H 1033.82 -6.06417 0.185271 0
M  V30 11185 H 1032.56 -4.87128 -0.236236 0
M  V30 11186 H 1031.56 -5.09854 2.05739 0
M  V30 11187 H 1032.79 -6.32517 2.47182 0
M  V30 11188 H 1030.73 -6.55562 0.239664 0
M  V30 11189 H 1030.65 -7.34771 1.77898 0
M  V30 11190 H 1031.92 -7.7665 0.665989 0
M  V30 11191 N 1036.15 -0.873678 -1.31166 0
M  V30 11192 C 1037.11 -0.337069 -2.26708 0
M  V30 11193 C 1038.11 0.51406 -1.52362 0
M  V30 11194 O 1039.3 0.322834 -1.71182 0
M  V30 11195 C 1036.43 0.520897 -3.36897 0
M  V30 11196 H 1037.63 -1.18056 -2.75686 0
M  V30 11197 H 1035.18 -0.649577 -1.42163 0
M  V30 11198 H 1035.91 1.38543 -2.93217 0
M  V30 11199 H 1035.7 -0.0886015 -3.92 0
M  V30 11200 H 1037.19 0.888497 -4.08039 0
M  V30 11201 N 1037.63 1.44308 -0.633487 0
M  V30 11202 C 1038.88 2.01239 -0.136356 0
M  V30 11203 C 1039.19 1.50438 1.25011 0
M  V30 11204 O 1040.39 1.99513 1.84138 0
M  V30 11205 C 1038.85 3.59382 -0.193011 0
M  V30 11206 C 1038.46 4.19178 -1.58093 0
M  V30 11207 C 1040.2 4.23778 0.247534 0
M  V30 11208 C 1038.11 5.69553 -1.59258 0
M  V30 11209 H 1037.04 0.752521 -0.0472109 0
M  V30 11210 H 1039.69 1.65498 -0.79263 0
M  V30 11211 H 1038.07 3.92432 0.530408 0
M  V30 11212 H 1039.25 3.97662 -2.32813 0
M  V30 11213 H 1037.56 3.67079 -1.96576 0
M  V30 11214 H 1040.16 5.34075 0.258401 0
M  V30 11215 H 1040.5 3.96285 1.27529 0
M  V30 11216 H 1041.03 3.9554 -0.423469 0
M  V30 11217 H 1037.77 6.01784 -2.59878 0
M  V30 11218 H 1037.29 5.93185 -0.888352 0
M  V30 11219 H 1038.97 6.33234 -1.32756 0
M  V30 11220 N 1039.1 0.374177 1.53094 0
M  V30 11221 C 1040.38 -0.269632 1.93733 0
M  V30 11222 C 1040.76 -1.6566 1.30843 0
M  V30 11223 O 1040.11 -2.23598 0.470759 0
M  V30 11224 C 1040.32 -0.311204 3.4761 0
M  V30 11225 C 1041.67 -0.547432 4.21056 0
M  V30 11226 O 1042.69 -0.392053 3.54036 0
M  V30 11227 O 1041.55 -0.850645 5.39839 0
M  V30 11228 H 1038.64 -0.163723 0.810632 0
M  V30 11229 H 1041.19 0.427586 1.64225 0
M  V30 11230 H 1039.96 0.660897 3.85678 0
M  V30 11231 H 1039.59 -1.05397 3.83376 0
M  V30 11232 N 1040.58 -1.57259 0.103575 0
M  V30 11233 C 1041.53 -2.15727 -0.869739 0
M  V30 11234 C 1042.52 -1.10236 -1.28625 0
M  V30 11235 O 1043.73 -1.28567 -1.25979 0
M  V30 11236 H 1040.11 -0.690204 -0.298535 0
M  V30 11237 H 1042.08 -2.96317 -0.351984 0
M  V30 11238 C 1040.83 -2.75905 -2.11593 0
M  V30 11239 H 1040.15 -3.56768 -1.80434 0
M  V30 11240 H 1041.59 -3.20373 -2.77736 0
M  V30 11241 C 1040.05 -1.72218 -2.89556 0
M  V30 11242 O 1040.58 -1.16623 -3.84398 0
M  V30 11243 N 1038.78 -1.42514 -2.53255 0
M  V30 11244 H 1038.33 -1.87914 -1.76198 0
M  V30 11245 H 1038.29 -0.733782 -3.05717 0
M  V30 11246 N 1042.06 0.170153 -1.56679 0
M  V30 11247 C 1043.31 0.884841 -1.817 0
M  V30 11248 C 1043.63 1.82731 -0.680763 0
M  V30 11249 O 1042.9 1.936 0.299294 0
M  V30 11250 H 1041.48 0.329738 -0.670285 0
M  V30 11251 H 1044.14 0.169691 -1.9416 0
M  V30 11252 H 1043.24 1.46104 -2.7579 0
M  V30 11253 N 1043.54 1.5137 0.438746 0
M  V30 11254 C 1044.78 1.64211 1.19006 0
M  V30 11255 C 1045.12 0.356607 1.90898 0
M  V30 11256 O 1044.39 -0.643722 1.83539 0
M  V30 11257 C 1044.68 2.8445 2.20817 0
M  V30 11258 C 1044.53 4.22972 1.53018 0
M  V30 11259 C 1045.85 3.00207 3.21813 0
M  V30 11260 H 1042.97 0.597628 0.431288 0
M  V30 11261 H 1045.61 1.8385 0.479487 0
M  V30 11262 H 1043.76 2.67836 2.81418 0
M  V30 11263 H 1045.43 4.5125 0.957654 0
M  V30 11264 H 1043.67 4.25736 0.832556 0
M  V30 11265 H 1044.34 5.03094 2.27158 0
M  V30 11266 H 1046.82 3.15522 2.71266 0
M  V30 11267 H 1045.7 3.85904 3.90345 0
M  V30 11268 H 1045.96 2.12216 3.87836 0
M  V30 11269 N 1045.02 -0.694098 1.41492 0
M  V30 11270 C 1045.96 -1.80801 1.43456 0
M  V30 11271 C 1046.93 -1.63571 0.288757 0
M  V30 11272 O 1048.12 -1.844 0.490017 0
M  V30 11273 C 1045.26 -3.18694 1.32394 0
M  V30 11274 C 1044.37 -3.47346 2.56855 0
M  V30 11275 C 1043.51 -4.74862 2.38075 0
M  V30 11276 C 1042.55 -4.96486 3.58005 0
M  V30 11277 N 1041.68 -6.15229 3.38287 0
M  V30 11278 H 1046.52 -1.78457 2.38657 0
M  V30 11279 H 1044.06 -0.871455 1.18508 0
M  V30 11280 H 1046.02 -3.98352 1.23982 0
M  V30 11281 H 1044.65 -3.20211 0.407999 0
M  V30 11282 H 1043.7 -2.62083 2.75711 0
M  V30 11283 H 1045.01 -3.59226 3.4606 0
M  V30 11284 H 1044.17 -5.62577 2.27139 0
M  V30 11285 H 1042.9 -4.6523 1.46329 0
M  V30 11286 H 1041.91 -4.07219 3.69395 0
M  V30 11287 H 1043.13 -5.07976 4.50708 0
M  V30 11288 H 1041.08 -6.06807 2.49242 0
M  V30 11289 H 1041 -6.27883 4.21069 0
M  V30 11290 H 1042.27 -7.05674 3.31126 0
M  V30 11291 N 1046.49 -1.27344 -0.928501 0
M  V30 11292 C 1047.91 -1.04732 -1.2043 0
M  V30 11293 C 1048.11 0.219623 -2.003 0
M  V30 11294 O 1047.17 0.925333 -2.34934 0
M  V30 11295 C 1048.48 -2.28625 -1.95323 0
M  V30 11296 C 1050.03 -2.33655 -2.08265 0
M  V30 11297 C 1050.5 -3.57275 -2.86563 0
M  V30 11298 N 1051.99 -3.57828 -2.94132 0
M  V30 11299 C 1052.73 -4.50152 -3.55177 0
M  V30 11300 N 1052.22 -5.52779 -4.17621 0
M  V30 11301 N 1054.02 -4.37777 -3.52573 0
M  V30 11302 H 1046.17 -2.08697 -0.394892 0
M  V30 11303 H 1048.43 -0.91782 -0.2373 0
M  V30 11304 H 1048.14 -3.20845 -1.44054 0
M  V30 11305 H 1048.01 -2.33878 -2.95941 0
M  V30 11306 H 1050.4 -1.41942 -2.58721 0
M  V30 11307 H 1050.48 -2.32406 -1.0687 0
M  V30 11308 H 1050.12 -4.49325 -2.3679 0
M  V30 11309 H 1050.05 -3.55775 -3.88242 0
M  V30 11310 H 1052.54 -2.83607 -2.49751 0
M  V30 11311 H 1052.86 -6.19394 -4.62137 0
M  V30 11312 H 1051.2 -5.56622 -4.16169 0
M  V30 11313 H 1054.39 -3.56811 -3.02991 0
M  V30 11314 H 1054.57 -5.09919 -3.99858 0
M  V30 11315 N 1047.97 1.13488 -1.09353 0
M  V30 11316 C 1049.22 1.85234 -0.840227 0
M  V30 11317 C 1049.57 1.81884 0.627379 0
M  V30 11318 O 1048.87 1.24548 1.45596 0
M  V30 11319 C 1049.06 3.32584 -1.30854 0
M  V30 11320 C 1048.89 3.50283 -2.82014 0
M  V30 11321 C 1047.66 3.64569 -3.49883 0
M  V30 11322 C 1049.86 3.46388 -3.80158 0
M  V30 11323 N 1047.84 3.70522 -4.89476 0
M  V30 11324 C 1049.21 3.58701 -5.05701 0
M  V30 11325 C 1051.27 3.29784 -3.73024 0
M  V30 11326 C 1049.97 3.56126 -6.24953 0
M  V30 11327 C 1051.99 3.28516 -4.91763 0
M  V30 11328 C 1051.36 3.4138 -6.16149 0
M  V30 11329 H 1047.46 0.694046 -0.36031 0
M  V30 11330 H 1050.04 1.35949 -1.39377 0
M  V30 11331 H 1048.21 3.80437 -0.78246 0
M  V30 11332 H 1049.94 3.92134 -1.00064 0
M  V30 11333 H 1046.7 3.66211 -3.0031 0
M  V30 11334 H 1047.12 3.77191 -5.62188 0
M  V30 11335 H 1051.76 3.18741 -2.77784 0
M  V30 11336 H 1049.48 3.65942 -7.20494 0
M  V30 11337 H 1053.07 3.16867 -4.87941 0
M  V30 11338 H 1051.95 3.40359 -7.06488 0
M  V30 11339 N 1049.45 0.880621 1.30701 0
M  V30 11340 C 1050.38 0.301443 2.27209 0
M  V30 11341 C 1051.4 -0.541533 1.53529 0
M  V30 11342 O 1052.59 -0.361791 1.74795 0
M  V30 11343 C 1049.69 -0.59038 3.33718 0
M  V30 11344 C 1048.86 0.222549 4.36833 0
M  V30 11345 C 1047.92 -0.599083 5.22779 0
M  V30 11346 O 1046.94 -0.0233267 5.69195 0
M  V30 11347 N 1048.15 -1.90904 5.48211 0
M  V30 11348 H 1050.91 1.13083 2.77547 0
M  V30 11349 H 1048.47 0.743168 1.43835 0
M  V30 11350 H 1050.46 -1.14599 3.88135 0
M  V30 11351 H 1049.03 -1.32044 2.83343 0
M  V30 11352 H 1048.25 0.959606 3.82342 0
M  V30 11353 H 1049.54 0.779965 5.02786 0
M  V30 11354 H 1048.94 -2.3998 5.12275 0
M  V30 11355 H 1047.5 -2.4122 6.05521 0
M  V30 11356 N 1050.93 -1.4397 0.641131 0
M  V30 11357 C 1052.18 -2.01163 0.147026 0
M  V30 11358 C 1052.49 -1.51099 -1.24211 0
M  V30 11359 O 1053.7 -2.00487 -1.83078 0
M  V30 11360 C 1052.15 -3.59275 0.212068 0
M  V30 11361 C 1051.76 -4.18334 1.60314 0
M  V30 11362 C 1053.51 -4.23903 -0.225057 0
M  V30 11363 C 1051.41 -5.68701 1.62276 0
M  V30 11364 H 1050.34 -0.75226 0.051201 0
M  V30 11365 H 1052.99 -1.65075 0.801396 0
M  V30 11366 H 1051.38 -3.92708 -0.509589 0
M  V30 11367 H 1052.55 -3.96422 2.34918 0
M  V30 11368 H 1050.86 -3.66031 1.9852 0
M  V30 11369 H 1053.46 -5.34205 -0.230074 0
M  V30 11370 H 1053.8 -3.96956 -1.25426 0
M  V30 11371 H 1054.34 -3.95309 0.44444 0
M  V30 11372 H 1051.08 -6.00397 2.63066 0
M  V30 11373 H 1050.6 -5.92705 0.919797 0
M  V30 11374 H 1052.28 -6.32521 1.36112 0
M  V30 11375 N 1052.41 -0.382291 -1.52893 0
M  V30 11376 C 1053.34 0.447829 -2.29165 0
M  V30 11377 C 1054.32 1.06956 -1.32267 0
M  V30 11378 O 1055.5 1.08365 -1.61154 0
M  V30 11379 C 1052.63 1.57902 -3.09329 0
M  V30 11380 C 1051.59 1.08369 -4.14053 0
M  V30 11381 C 1050.91 2.30641 -4.82399 0
M  V30 11382 C 1052.21 0.156591 -5.22065 0
M  V30 11383 H 1053.91 -0.188541 -2.98806 0
M  V30 11384 H 1051.45 -0.0921179 -1.43705 0
M  V30 11385 H 1053.41 2.16652 -3.61442 0
M  V30 11386 H 1052.13 2.24287 -2.37409 0
M  V30 11387 H 1050.79 0.518772 -3.62911 0
M  V30 11388 H 1050.44 2.9552 -4.07034 0
M  V30 11389 H 1050.14 1.98163 -5.53177 0
M  V30 11390 H 1051.66 2.90047 -5.37313 0
M  V30 11391 H 1053.08 0.652065 -5.6958 0
M  V30 11392 H 1051.47 -0.0780978 -6.00049 0
M  V30 11393 H 1052.54 -0.796529 -4.78313 0
M  V30 11394 N 1053.89 1.57202 -0.111913 0
M  V30 11395 C 1055.13 1.94125 0.547573 0
M  V30 11396 C 1055.45 0.997026 1.68282 0
M  V30 11397 O 1056.65 1.26063 2.40459 0
M  V30 11398 C 1055.11 3.44982 1.02545 0
M  V30 11399 C 1054.72 4.47927 -0.0809529 0
M  V30 11400 C 1056.46 3.90837 1.65671 0
M  V30 11401 C 1054.37 5.89955 0.413224 0
M  V30 11402 H 1053.3 0.724651 0.208321 0
M  V30 11403 H 1055.95 1.82507 -0.190625 0
M  V30 11404 H 1054.33 3.5181 1.81785 0
M  V30 11405 H 1055.51 4.52761 -0.857003 0
M  V30 11406 H 1053.82 4.11782 -0.618434 0
M  V30 11407 H 1056.42 4.9436 2.03746 0
M  V30 11408 H 1056.76 3.30417 2.53239 0
M  V30 11409 H 1057.29 3.8678 0.929844 0
M  V30 11410 H 1054.03 6.54113 -0.426238 0
M  V30 11411 H 1053.55 5.88557 1.15591 0
M  V30 11412 H 1055.23 6.41032 0.876756 0
M  V30 11413 N 1055.36 -0.161842 1.56767 0
M  V30 11414 C 1056.64 -0.904754 1.73417 0
M  V30 11415 C 1057.02 -1.99987 0.675908 0
M  V30 11416 O 1056.37 -2.26419 -0.307712 0
M  V30 11417 C 1056.58 -1.46082 3.16956 0
M  V30 11418 C 1057.93 -1.93004 3.78199 0
M  V30 11419 O 1058.95 -1.55856 3.20293 0
M  V30 11420 O 1057.81 -2.61465 4.79894 0
M  V30 11421 H 1054.9 -0.426518 0.708528 0
M  V30 11422 H 1057.45 -0.148928 1.69045 0
M  V30 11423 H 1056.22 -0.673087 3.85468 0
M  V30 11424 H 1055.84 -2.28056 3.25693 0
M  V30 11425 N 1056.84 -1.516 -0.430713 0
M  V30 11426 C 1058.25 -1.57 -1.01035 0
M  V30 11427 C 1058.6 -0.397439 -1.92132 0
M  V30 11428 O 1057.73 0.484954 -2.10896 0
M  V30 11429 C 1058.32 -2.84536 -1.83915 0
M  V30 11430 C 1056.88 -2.92485 -2.36917 0
M  V30 11431 C 1056.03 -2.5173 -1.16308 0
M  V30 11432 H 1058.98 -1.57281 -0.211734 0
M  V30 11433 H 1059 -2.68672 -2.69435 0
M  V30 11434 H 1058.51 -3.69858 -1.17586 0
M  V30 11435 H 1056.61 -2.11608 -3.0668 0
M  V30 11436 H 1056.73 -3.96277 -2.6926 0
M  V30 11437 H 1055.09 -2.05079 -1.51045 0
M  V30 11438 H 1055.87 -3.39403 -0.515793 0
M  V30 11439 N 1058.32 0.686584 -1.41858 0
M  V30 11440 C 1059.57 1.44379 -1.41418 0
M  V30 11441 C 1059.89 1.94981 -0.0273696 0
M  V30 11442 O 1059.16 1.72296 0.932248 0
M  V30 11443 H 1057.74 0.53574 -0.520568 0
M  V30 11444 H 1060.4 0.812056 -1.77177 0
M  V30 11445 H 1059.5 2.30258 -2.10684 0
M  V30 11446 N 1059.8 1.27835 0.921735 0
M  V30 11447 C 1060.73 1.136 2.04003 0
M  V30 11448 C 1061.71 0.0358756 1.70062 0
M  V30 11449 O 1062.89 0.211438 1.93046 0
M  V30 11450 C 1060.02 0.788697 3.38226 0
M  V30 11451 C 1058.98 1.84272 3.863 0
M  V30 11452 C 1058.3 1.34923 5.17397 0
M  V30 11453 C 1059.6 3.24788 4.09035 0
M  V30 11454 H 1061.3 2.07149 2.1617 0
M  V30 11455 H 1058.84 0.997349 1.0387 0
M  V30 11456 H 1060.8 0.675911 4.15944 0
M  V30 11457 H 1059.52 -0.182499 3.2609 0
M  V30 11458 H 1058.18 1.94451 3.1078 0
M  V30 11459 H 1057.83 0.367328 5.01657 0
M  V30 11460 H 1057.53 2.05397 5.50532 0
M  V30 11461 H 1059.05 1.24951 5.97678 0
M  V30 11462 H 1060.47 3.17575 4.77304 0
M  V30 11463 H 1058.86 3.93025 4.53488 0
M  V30 11464 H 1059.93 3.69398 3.14122 0
M  V30 11465 N 1061.28 -1.12907 1.09954 0
M  V30 11466 C 1062.52 -1.83941 0.837255 0
M  V30 11467 C 1062.84 -1.84234 -0.638984 0
M  V30 11468 O 1062.11 -1.30193 -1.46378 0
M  V30 11469 H 1060.69 -0.681115 0.306743 0
M  V30 11470 H 1063.36 -1.36743 1.38879 0
M  V30 11471 H 1062.45 -2.88289 1.19565 0
M  V30 11472 N 1062.75 -0.88754 -1.30232 0
M  V30 11473 C 1064 -0.507279 -1.96043 0
M  V30 11474 C 1064.33 0.944059 -1.70052 0
M  V30 11475 O 1063.58 1.68255 -0.999444 0
M  V30 11476 C 1063.88 -0.731765 -3.49828 0
M  V30 11477 C 1063.55 -2.15858 -3.95874 0
M  V30 11478 C 1062.21 -2.54875 -4.08157 0
M  V30 11479 C 1064.56 -3.0883 -4.19849 0
M  V30 11480 C 1061.89 -3.86069 -4.41778 0
M  V30 11481 C 1064.24 -4.39559 -4.5494 0
M  V30 11482 C 1062.91 -4.78465 -4.65432 0
M  V30 11483 H 1062.18 -0.185627 -0.717373 0
M  V30 11484 H 1064.82 -1.12388 -1.55052 0
M  V30 11485 H 1063.13 -0.0321473 -3.91787 0
M  V30 11486 H 1064.83 -0.417107 -3.98825 0
M  V30 11487 H 1061.42 -1.84574 -3.86821 0
M  V30 11488 H 1065.6 -2.79906 -4.09837 0
M  V30 11489 H 1060.86 -4.1595 -4.48102 0
M  V30 11490 H 1065.03 -5.11636 -4.72442 0
M  V30 11491 H 1062.66 -5.80162 -4.91239 0
M  V30 11492 N 1064.23 1.43628 -0.648757 0
M  V30 11493 C 1065.2 2.29172 0.0360713 0
M  V30 11494 C 1066.2 1.41974 0.754976 0
M  V30 11495 O 1067.39 1.63654 0.5969 0
M  V30 11496 C 1064.52 3.23942 1.0618 0
M  V30 11497 H 1065.71 2.91214 -0.716544 0
M  V30 11498 H 1063.26 1.50833 -0.409759 0
M  V30 11499 H 1064 2.66786 1.8438 0
M  V30 11500 H 1063.78 3.88223 0.550016 0
M  V30 11501 H 1065.27 3.8816 1.54019 0
M  V30 11502 N 1065.71 0.390394 1.52688 0
M  V30 11503 C 1066.66 -0.444229 2.26485 0
M  V30 11504 C 1067.63 -1.05688 1.28138 0
M  V30 11505 O 1068.81 -1.0847 1.56968 0
M  V30 11506 C 1065.95 -1.56501 3.07574 0
M  V30 11507 C 1065.07 -0.975111 4.20851 0
M  V30 11508 C 1064.2 -2.06704 4.89333 0
M  V30 11509 C 1063.24 -1.45309 5.94602 0
M  V30 11510 N 1062.38 -2.48437 6.56676 0
M  V30 11511 H 1067.22 0.191535 2.97384 0
M  V30 11512 H 1064.75 0.106287 1.46716 0
M  V30 11513 H 1066.71 -2.22558 3.52879 0
M  V30 11514 H 1065.34 -2.17107 2.38881 0
M  V30 11515 H 1064.39 -0.204109 3.79852 0
M  V30 11516 H 1065.71 -0.486465 4.96422 0
M  V30 11517 H 1064.86 -2.80528 5.37949 0
M  V30 11518 H 1063.6 -2.58928 4.13289 0
M  V30 11519 H 1062.6 -0.700091 5.45324 0
M  V30 11520 H 1063.83 -0.938775 6.7258 0
M  V30 11521 H 1061.77 -2.99829 5.83471 0
M  V30 11522 H 1061.69 -2.04331 7.27863 0
M  V30 11523 H 1062.96 -3.21888 7.09935 0
M  V30 11524 N 1067.19 -1.57141 0.120249 0
M  V30 11525 C 1068.42 -1.99589 -0.545136 0
M  V30 11526 C 1068.83 -0.999951 -1.60145 0
M  V30 11527 O 1068.19 0.00698897 -1.82499 0
M  V30 11528 C 1068.24 -3.42038 -1.17014 0
M  V30 11529 O 1067.96 -4.37822 -0.156044 0
M  V30 11530 C 1069.46 -3.99625 -1.91872 0
M  V30 11531 H 1066.68 -0.655318 -0.144222 0
M  V30 11532 H 1069.23 -2.0345 0.206955 0
M  V30 11533 H 1067.38 -3.39113 -1.873 0
M  V30 11534 H 1067.79 -5.20937 -0.610317 0
M  V30 11535 H 1069.27 -5.01374 -2.30928 0
M  V30 11536 H 1069.75 -3.38836 -2.7944 0
M  V30 11537 H 1070.35 -4.061 -1.26345 0
M  V30 11538 N 1068.67 0.153526 -1.5685 0
M  V30 11539 C 1069.91 0.863728 -1.8415 0
M  V30 11540 C 1070.27 1.79084 -0.703324 0
M  V30 11541 O 1069.56 1.8925 0.299149 0
M  V30 11542 C 1069.75 1.68066 -3.15418 0
M  V30 11543 C 1069.58 0.834145 -4.41896 0
M  V30 11544 C 1068.35 0.502294 -5.02797 0
M  V30 11545 C 1070.55 0.167476 -5.14027 0
M  V30 11546 N 1068.53 -0.3585 -6.12852 0
M  V30 11547 C 1069.9 -0.55373 -6.17522 0
M  V30 11548 C 1071.96 0.0874745 -4.97823 0
M  V30 11549 C 1070.66 -1.34737 -7.06568 0
M  V30 11550 C 1072.69 -0.692888 -5.87327 0
M  V30 11551 C 1072.05 -1.4024 -6.90299 0
M  V30 11552 H 1068.15 0.2941 -0.724589 0
M  V30 11553 H 1070.73 0.129515 -1.94269 0
M  V30 11554 H 1068.9 2.38616 -3.06459 0
M  V30 11555 H 1070.64 2.33353 -3.30649 0
M  V30 11556 H 1067.39 0.836557 -4.66153 0
M  V30 11557 H 1067.82 -0.77973 -6.72495 0
M  V30 11558 H 1072.46 0.621662 -4.18205 0
M  V30 11559 H 1070.18 -1.89284 -7.85619 0
M  V30 11560 H 1073.76 -0.756694 -5.76858 0
M  V30 11561 H 1072.64 -1.99655 -7.58359 0
M  V30 11562 N 1070.14 1.51827 0.422667 0
M  V30 11563 C 1071.09 1.74198 1.51406 0
M  V30 11564 C 1072.06 0.584013 1.55494 0
M  V30 11565 O 1073.25 0.820079 1.72277 0
M  V30 11566 C 1070.39 1.88627 2.88988 0
M  V30 11567 C 1069.5 3.16233 2.94314 0
M  V30 11568 C 1068.63 3.21172 4.2311 0
M  V30 11569 C 1067.67 4.43033 4.2236 0
M  V30 11570 N 1066.81 4.4544 5.42704 0
M  V30 11571 H 1071.65 2.67352 1.31632 0
M  V30 11572 H 1069.19 1.32487 0.63919 0
M  V30 11573 H 1071.15 1.94976 3.68837 0
M  V30 11574 H 1069.78 0.988673 3.07287 0
M  V30 11575 H 1068.83 3.19123 2.07039 0
M  V30 11576 H 1070.14 4.06104 2.89623 0
M  V30 11577 H 1069.29 3.26517 5.11343 0
M  V30 11578 H 1068.03 2.29216 4.30478 0
M  V30 11579 H 1067.04 4.37849 3.32518 0
M  V30 11580 H 1068.26 5.3627 4.16643 0
M  V30 11581 H 1066.21 3.56361 5.50766 0
M  V30 11582 H 1066.13 5.29138 5.39953 0
M  V30 11583 H 1067.39 4.54997 6.32928 0
M  V30 11584 N 1071.62 -0.679052 1.4222 0
M  V30 11585 C 1072.55 -1.80455 1.41311 0
M  V30 11586 C 1073.57 -1.59767 0.312799 0
M  V30 11587 O 1074.76 -1.68964 0.575612 0
M  V30 11588 C 1071.86 -3.17492 1.18541 0
M  V30 11589 C 1071.03 -3.65066 2.40926 0
M  V30 11590 C 1070.09 -4.80823 2.13765 0
M  V30 11591 O 1069.11 -4.91587 2.86934 0
M  V30 11592 N 1070.32 -5.69233 1.13813 0
M  V30 11593 H 1073.08 -1.81722 2.38322 0
M  V30 11594 H 1070.64 -0.861988 1.37045 0
M  V30 11595 H 1072.63 -3.92581 0.982958 0
M  V30 11596 H 1071.2 -3.1115 0.300691 0
M  V30 11597 H 1070.42 -2.80702 2.76767 0
M  V30 11598 H 1071.71 -3.93593 3.22431 0
M  V30 11599 H 1071.11 -5.63185 0.532887 0
M  V30 11600 H 1069.67 -6.44152 0.995554 0
M  V30 11601 N 1073.1 -1.28322 -0.914942 0
M  V30 11602 C 1074.05 -1.12003 -2.03858 0
M  V30 11603 C 1075.04 -0.0396287 -1.69354 0
M  V30 11604 O 1076.25 -0.198309 -1.78904 0
M  V30 11605 H 1072.62 -0.34552 -0.667922 0
M  V30 11606 H 1074.59 -2.07168 -2.14765 0
M  V30 11607 C 1073.34 -0.797402 -3.38433 0
M  V30 11608 H 1072.67 -1.62071 -3.65476 0
M  V30 11609 H 1074.11 -0.723165 -4.17787 0
M  V30 11610 C 1072.57 0.498807 -3.33187 0
M  V30 11611 O 1073.1 1.52946 -3.71444 0
M  V30 11612 N 1071.3 0.499101 -2.86282 0
M  V30 11613 H 1070.85 -0.340056 -2.55346 0
M  V30 11614 H 1070.81 1.36641 -2.83155 0
M  V30 11615 N 1074.58 1.12322 -1.10551 0
M  V30 11616 C 1075.51 2.20176 -0.777486 0
M  V30 11617 C 1076.49 1.68252 0.250069 0
M  V30 11618 O 1077.67 1.93856 0.115574 0
M  V30 11619 C 1074.8 3.46666 -0.209822 0
M  V30 11620 C 1073.76 4.11749 -1.1682 0
M  V30 11621 C 1073.08 5.32703 -0.461684 0
M  V30 11622 C 1074.38 4.57746 -2.51527 0
M  V30 11623 H 1076.08 2.47872 -1.67928 0
M  V30 11624 H 1073.62 1.19136 -0.808863 0
M  V30 11625 H 1075.58 4.21388 0.0318068 0
M  V30 11626 H 1074.3 3.18401 0.727226 0
M  V30 11627 H 1072.96 3.39009 -1.3953 0
M  V30 11628 H 1072.61 5.00706 0.479875 0
M  V30 11629 H 1072.31 5.77197 -1.1008 0
M  V30 11630 H 1073.83 6.10172 -0.228629 0
M  V30 11631 H 1075.25 5.23835 -2.32958 0
M  V30 11632 H 1073.64 5.13021 -3.11335 0
M  V30 11633 H 1074.71 3.71667 -3.11435 0
M  V30 11634 N 1076.06 0.894434 1.2976 0
M  V30 11635 C 1076.99 0.325525 2.26877 0
M  V30 11636 C 1078 -0.525218 1.54095 0
M  V30 11637 O 1079.19 -0.343231 1.75169 0
M  V30 11638 C 1076.29 -0.554952 3.34325 0
M  V30 11639 C 1075.46 0.268868 4.36573 0
M  V30 11640 C 1074.52 -0.543601 5.23385 0
M  V30 11641 O 1073.55 0.0370454 5.69188 0
M  V30 11642 N 1074.75 -1.85079 5.50205 0
M  V30 11643 H 1077.52 1.16021 2.76332 0
M  V30 11644 H 1075.08 0.758382 1.43039 0
M  V30 11645 H 1077.07 -1.10476 3.89329 0
M  V30 11646 H 1075.64 -1.29031 2.84727 0
M  V30 11647 H 1074.86 1.0001 3.81302 0
M  V30 11648 H 1076.15 0.833248 5.01931 0
M  V30 11649 H 1075.54 -2.34533 5.14792 0
M  V30 11650 H 1074.1 -2.34784 6.08046 0
M  V30 11651 N 1077.53 -1.43282 0.656365 0
M  V30 11652 C 1078.78 -2.00996 0.168354 0
M  V30 11653 C 1079.1 -1.52408 -1.22601 0
M  V30 11654 O 1080.3 -2.02417 -1.80941 0
M  V30 11655 C 1078.76 -3.5903 0.250161 0
M  V30 11656 C 1078.37 -4.1661 1.64742 0
M  V30 11657 C 1080.11 -4.24118 -0.180084 0
M  V30 11658 C 1078.02 -5.66948 1.68299 0
M  V30 11659 H 1076.95 -0.751674 0.0591769 0
M  V30 11660 H 1079.6 -1.64216 0.818859 0
M  V30 11661 H 1077.98 -3.93226 -0.467908 0
M  V30 11662 H 1079.15 -3.93908 2.3911 0
M  V30 11663 H 1077.47 -3.63905 2.02391 0
M  V30 11664 H 1080.07 -5.34419 -0.173401 0
M  V30 11665 H 1080.41 -3.98264 -1.21208 0
M  V30 11666 H 1080.94 -3.94816 0.486343 0
M  V30 11667 H 1077.68 -5.97573 2.69419 0
M  V30 11668 H 1077.2 -5.91697 0.98261 0
M  V30 11669 H 1078.88 -6.31041 1.42813 0
M  V30 11670 N 1079.01 -0.398486 -1.52479 0
M  V30 11671 C 1080.26 0.182046 -2.00877 0
M  V30 11672 C 1080.58 1.47128 -1.2889 0
M  V30 11673 O 1081.78 2.13242 -1.68048 0
M  V30 11674 C 1080.24 0.374978 -3.57941 0
M  V30 11675 C 1079.85 -0.901544 -4.38835 0
M  V30 11676 C 1081.59 0.911378 -4.14601 0
M  V30 11677 C 1079.5 -0.676385 -5.87519 0
M  V30 11678 H 1078.43 0.0718068 -0.750573 0
M  V30 11679 H 1081.08 -0.522297 -1.7591 0
M  V30 11680 H 1079.46 1.14139 -3.79194 0
M  V30 11681 H 1080.63 -1.67329 -4.29346 0
M  V30 11682 H 1078.95 -1.36357 -3.93441 0
M  V30 11683 H 1081.55 1.09569 -5.23353 0
M  V30 11684 H 1081.89 1.88306 -3.71277 0
M  V30 11685 H 1082.42 0.204296 -3.97275 0
M  V30 11686 H 1079.16 -1.61933 -6.35184 0
M  V30 11687 H 1078.68 0.0562542 -5.99774 0
M  V30 11688 H 1080.36 -0.314454 -6.46235 0
M  V30 11689 N 1080.49 1.57075 -0.12858 0
M  V30 11690 C 1081.91 1.57964 0.227961 0
M  V30 11691 C 1082.11 1.14186 1.66023 0
M  V30 11692 O 1081.16 0.833655 2.38341 0
M  V30 11693 C 1082.48 3.00697 -0.0140648 0
M  V30 11694 C 1084.02 3.12958 0.0510876 0
M  V30 11695 C 1084.5 4.57709 -0.163368 0
M  V30 11696 N 1085.99 4.6307 -0.109663 0
M  V30 11697 C 1086.73 5.72853 -0.250366 0
M  V30 11698 N 1086.22 6.91351 -0.447772 0
M  V30 11699 N 1088.01 5.61781 -0.189265 0
M  V30 11700 H 1080.17 1.83829 -1.06398 0
M  V30 11701 H 1082.43 0.850014 -0.419739 0
M  V30 11702 H 1082.13 3.37047 -1.00461 0
M  V30 11703 H 1082.01 3.70389 0.713571 0
M  V30 11704 H 1084.4 2.7646 1.03216 0
M  V30 11705 H 1084.48 2.4579 -0.708583 0
M  V30 11706 H 1084.12 4.94907 -1.14146 0
M  V30 11707 H 1084.05 5.2298 0.616405 0
M  V30 11708 H 1086.54 3.7788 0.0390086 0
M  V30 11709 H 1086.85 7.70871 -0.54574 0
M  V30 11710 H 1085.2 6.93314 -0.483866 0
M  V30 11711 H 1088.39 4.68086 -0.0359374 0
M  V30 11712 H 1088.56 6.47294 -0.302359 0
M  V30 11713 N 1081.97 -0.145205 1.5693 0
M  V30 11714 C 1082.92 -1.18446 1.94819 0
M  V30 11715 C 1083.9 -1.38456 0.819684 0
M  V30 11716 O 1085.1 -1.39988 1.08316 0
M  V30 11717 C 1082.22 -2.51766 2.33385 0
M  V30 11718 C 1081.31 -2.35341 3.5281 0
M  V30 11719 N 1081.7 -1.88676 4.69292 0
M  V30 11720 C 1080 -2.66087 3.5793 0
M  V30 11721 C 1080.7 -1.85337 5.51385 0
M  V30 11722 N 1079.68 -2.28717 4.93142 0
M  V30 11723 H 1083.48 -0.815785 2.82351 0
M  V30 11724 H 1080.99 -0.353242 1.58512 0
M  V30 11725 H 1082.99 -3.26897 2.58735 0
M  V30 11726 H 1081.65 -2.89414 1.47206 0
M  V30 11727 H 1082.66 -1.58614 4.93013 0
M  V30 11728 H 1079.34 -3.07597 2.82294 0
M  V30 11729 H 1080.73 -1.50734 6.54774 0
M  V30 11730 N 1083.45 -1.52049 -0.414609 0
M  V30 11731 C 1084.7 -1.65067 -1.15912 0
M  V30 11732 C 1085.01 -0.383969 -1.91794 0
M  V30 11733 O 1086.22 -0.393872 -2.68628 0
M  V30 11734 C 1084.67 -2.91611 -2.1093 0
M  V30 11735 C 1084.28 -4.25369 -1.4059 0
M  V30 11736 C 1086.02 -3.13992 -2.85674 0
M  V30 11737 C 1083.93 -5.43041 -2.34223 0
M  V30 11738 H 1082.86 -0.614884 -0.436387 0
M  V30 11739 H 1085.51 -1.78533 -0.424072 0
M  V30 11740 H 1083.89 -2.71831 -2.87965 0
M  V30 11741 H 1085.07 -4.55611 -0.689568 0
M  V30 11742 H 1083.38 -4.09047 -0.779088 0
M  V30 11743 H 1085.98 -3.99082 -3.55861 0
M  V30 11744 H 1086.32 -2.27998 -3.48314 0
M  V30 11745 H 1086.86 -3.34217 -2.1574 0
M  V30 11746 H 1083.59 -6.31364 -1.76238 0
M  V30 11747 H 1083.11 -5.17144 -3.03845 0
M  V30 11748 H 1084.79 -5.75901 -2.94868 0
M  V30 11749 N 1084.93 0.6715 -1.42579 0
M  V30 11750 C 1086.34 1.2522 -1.38481 0
M  V30 11751 C 1086.69 1.96038 -0.079719 0
M  V30 11752 O 1085.81 2.00203 0.821441 0
M  V30 11753 C 1086.41 2.27736 -2.50842 0
M  V30 11754 C 1084.97 2.81325 -2.50067 0
M  V30 11755 C 1084.11 1.55694 -2.29466 0
M  V30 11756 H 1087.06 0.464673 -1.51745 0
M  V30 11757 H 1087.09 3.09539 -2.21283 0
M  V30 11758 H 1086.6 1.76164 -3.45815 0
M  V30 11759 H 1084.7 3.37008 -1.58922 0
M  V30 11760 H 1084.81 3.30116 -3.47218 0
M  V30 11761 H 1083.18 1.82383 -1.77788 0
M  V30 11762 H 1083.96 1.06084 -3.26498 0
M  V30 11763 N 1086.4 1.28806 0.908124 0
M  V30 11764 C 1087.65 1.15663 1.65242 0
M  V30 11765 C 1087.97 -0.292883 1.93395 0
M  V30 11766 O 1089.17 -0.545509 2.65963 0
M  V30 11767 C 1087.63 2.02233 2.97707 0
M  V30 11768 C 1087.24 3.51958 2.77181 0
M  V30 11769 C 1088.98 1.97792 3.75604 0
M  V30 11770 C 1086.89 4.3066 4.05322 0
M  V30 11771 H 1085.82 0.42928 0.619867 0
M  V30 11772 H 1088.47 1.5338 1.00731 0
M  V30 11773 H 1086.85 1.57377 3.63385 0
M  V30 11774 H 1088.02 4.0481 2.20149 0
M  V30 11775 H 1086.34 3.57983 2.12691 0
M  V30 11776 H 1088.94 2.53858 4.70596 0
M  V30 11777 H 1089.28 0.955956 4.05175 0
M  V30 11778 H 1089.81 2.40648 3.16755 0
M  V30 11779 H 1086.55 5.3346 3.8092 0
M  V30 11780 H 1086.07 3.8258 4.61944 0
M  V30 11781 H 1087.75 4.40878 4.73535 0
M  V30 11782 N 1087.88 -1.11734 1.11145 0
M  V30 11783 C 1088.81 -2.1976 0.789152 0
M  V30 11784 C 1089.79 -1.68382 -0.241143 0
M  V30 11785 O 1090.98 -1.93914 -0.105292 0
M  V30 11786 C 1088.11 -3.46549 0.228204 0
M  V30 11787 C 1087.06 -4.11123 1.19002 0
M  V30 11788 C 1086.39 -5.32451 0.489928 0
M  V30 11789 C 1087.69 -4.56406 2.53951 0
M  V30 11790 H 1089.38 -2.46978 1.69241 0
M  V30 11791 H 1086.93 -1.18705 0.81517 0
M  V30 11792 H 1088.88 -4.21399 -0.00945908 0
M  V30 11793 H 1087.6 -3.18782 -0.71033 0
M  V30 11794 H 1086.26 -3.38264 1.41326 0
M  V30 11795 H 1085.91 -5.00953 -0.453315 0
M  V30 11796 H 1085.61 -5.76605 1.1314 0
M  V30 11797 H 1087.14 -6.10042 0.260984 0
M  V30 11798 H 1088.55 -5.22592 2.35733 0
M  V30 11799 H 1086.95 -5.11363 3.14051 0
M  V30 11800 H 1088.02 -3.7001 3.13402 0
M  V30 11801 N 1089.36 -0.901303 -1.29284 0
M  V30 11802 C 1090.31 -0.378666 -2.27672 0
M  V30 11803 C 1091.28 0.540102 -1.57074 0
M  V30 11804 O 1092.46 0.464997 -1.85047 0
M  V30 11805 C 1089.6 0.38635 -3.42931 0
M  V30 11806 C 1088.71 -0.563496 -4.28309 0
M  V30 11807 C 1087.85 0.218731 -5.30749 0
M  V30 11808 C 1086.89 -0.725536 -6.07785 0
M  V30 11809 N 1086.03 0.0223854 -7.02096 0
M  V30 11810 H 1090.87 -1.22277 -2.71758 0
M  V30 11811 H 1088.4 -0.614302 -1.33659 0
M  V30 11812 H 1090.36 0.845967 -4.08533 0
M  V30 11813 H 1088.99 1.1949 -2.9987 0
M  V30 11814 H 1088.04 -1.14163 -3.62865 0
M  V30 11815 H 1089.35 -1.28623 -4.81931 0
M  V30 11816 H 1088.51 0.739473 -6.02177 0
M  V30 11817 H 1087.25 0.97459 -4.77863 0
M  V30 11818 H 1086.25 -1.25776 -5.3522 0
M  V30 11819 H 1087.48 -1.48075 -6.6276 0
M  V30 11820 H 1085.42 0.760482 -6.51577 0
M  V30 11821 H 1085.34 -0.640408 -7.53283 0
M  V30 11822 H 1086.61 0.523339 -7.77741 0
M  V30 11823 N 1090.84 1.42931 -0.663954 0
M  V30 11824 C 1091.79 2.32577 0.03287 0
M  V30 11825 C 1092.78 1.49217 0.801918 0
M  V30 11826 O 1093.99 1.65358 0.711106 0
M  V30 11827 H 1090.36 0.751424 0.0294198 0
M  V30 11828 H 1092.33 2.89059 -0.740763 0
M  V30 11829 C 1091.08 3.33661 0.978025 0
M  V30 11830 H 1090.4 3.97837 0.395681 0
M  V30 11831 H 1091.84 3.98997 1.43448 0
M  V30 11832 C 1090.3 2.65085 2.07922 0
M  V30 11833 O 1090.83 2.4745 3.16435 0
M  V30 11834 N 1089.04 2.24285 1.84783 0
M  V30 11835 H 1088.59 2.38827 0.965368 0
M  V30 11836 H 1088.54 1.78732 2.58655 0
M  V30 11837 N 1092.32 0.406567 1.52266 0
M  V30 11838 C 1093.55 -0.169378 2.05905 0
M  V30 11839 C 1093.95 -1.39626 1.27676 0
M  V30 11840 O 1093.3 -1.80871 0.32114 0
M  V30 11841 C 1093.36 -0.587209 3.54672 0
M  V30 11842 C 1093.02 0.528588 4.53933 0
M  V30 11843 C 1094.02 1.39137 5.00936 0
M  V30 11844 C 1091.7 0.700549 4.97391 0
M  V30 11845 C 1093.7 2.41108 5.90039 0
M  V30 11846 C 1091.39 1.72357 5.8629 0
M  V30 11847 C 1092.38 2.57725 6.32509 0
M  V30 11848 O 1092.07 3.58275 7.19649 0
M  V30 11849 H 1091.8 -0.0250574 0.675535 0
M  V30 11850 H 1094.36 0.575377 1.97177 0
M  V30 11851 H 1092.59 -1.38421 3.61077 0
M  V30 11852 H 1094.28 -1.09078 3.90969 0
M  V30 11853 H 1095.04 1.26991 4.68079 0
M  V30 11854 H 1090.92 0.0457503 4.60977 0
M  V30 11855 H 1094.47 3.07774 6.26036 0
M  V30 11856 H 1090.36 1.84535 6.1856 0
M  V30 11857 H 1091.13 3.54489 7.37753 0
M  V30 11858 N 1093.79 -1.57004 0.136909 0
M  V30 11859 C 1095.02 -2.00587 -0.527209 0
M  V30 11860 C 1095.44 -1.01628 -1.58283 0
M  V30 11861 O 1094.8 0.00946934 -1.81298 0
M  V30 11862 C 1094.85 -3.42967 -1.11384 0
M  V30 11863 O 1093.95 -3.46973 -2.22898 0
M  V30 11864 H 1093.3 -0.651155 -0.129976 0
M  V30 11865 H 1095.83 -2.03296 0.230667 0
M  V30 11866 H 1095.84 -3.81555 -1.44499 0
M  V30 11867 H 1094.51 -4.14502 -0.340736 0
M  V30 11868 H 1093.09 -3.20219 -1.91087 0
M  V30 11869 N 1095.27 0.136881 -1.57004 0
M  V30 11870 C 1096.52 0.847775 -1.83899 0
M  V30 11871 C 1096.85 1.80709 -0.719332 0
M  V30 11872 O 1096.1 1.93527 0.290838 0
M  V30 11873 C 1096.4 1.64711 -3.17183 0
M  V30 11874 C 1096.07 0.833683 -4.43126 0
M  V30 11875 C 1094.73 0.609306 -4.77327 0
M  V30 11876 C 1097.08 0.265504 -5.20523 0
M  V30 11877 C 1094.41 -0.193793 -5.8638 0
M  V30 11878 C 1096.76 -0.524688 -6.3042 0
M  V30 11879 C 1095.43 -0.759548 -6.63164 0
M  V30 11880 H 1094.7 0.310223 -0.672936 0
M  V30 11881 H 1097.34 0.110937 -1.91178 0
M  V30 11882 H 1095.65 2.45435 -3.054 0
M  V30 11883 H 1097.34 2.20081 -3.3521 0
M  V30 11884 H 1093.93 1.01864 -4.16319 0
M  V30 11885 H 1098.12 0.426109 -4.94467 0
M  V30 11886 H 1093.37 -0.385153 -6.10186 0
M  V30 11887 H 1097.55 -0.972033 -6.89583 0
M  V30 11888 H 1095.18 -1.38369 -7.47501 0
M  V30 11889 N 1096.75 1.52266 0.40654 0
M  V30 11890 C 1097.98 1.70304 1.17491 0
M  V30 11891 C 1098.39 0.413656 1.84213 0
M  V30 11892 O 1097.75 -0.610524 1.71985 0
M  V30 11893 C 1097.8 2.84045 2.23609 0
M  V30 11894 O 1097.52 4.0799 1.5961 0
M  V30 11895 C 1099.02 3.13614 3.13306 0
M  V30 11896 H 1096.24 0.570669 0.352955 0
M  V30 11897 H 1098.79 1.98836 0.477967 0
M  V30 11898 H 1096.94 2.58025 2.88967 0
M  V30 11899 H 1097.36 4.7139 2.29983 0
M  V30 11900 H 1098.83 3.96707 3.83833 0
M  V30 11901 H 1099.31 2.27272 3.75824 0
M  V30 11902 H 1099.91 3.41409 2.53614 0
M  V30 11903 N 1098.23 -0.663929 1.42933 0
M  V30 11904 C 1099.16 -1.78876 1.41699 0
M  V30 11905 C 1100.14 -1.60174 0.27981 0
M  V30 11906 O 1101.32 -1.82502 0.471735 0
M  V30 11907 C 1098.45 -3.1603 1.2183 0
M  V30 11908 C 1097.5 -3.53457 2.38685 0
M  V30 11909 S 1098.33 -3.54648 4.01229 0
M  V30 11910 C 1099.49 -4.94477 3.83723 0
M  V30 11911 H 1099.72 -1.7965 2.36882 0
M  V30 11912 H 1097.25 -0.835596 1.29835 0
M  V30 11913 H 1099.21 -3.95193 1.11054 0
M  V30 11914 H 1097.87 -3.1283 0.282139 0
M  V30 11915 H 1097.06 -4.53178 2.20559 0
M  V30 11916 H 1096.67 -2.81681 2.46032 0
M  V30 11917 H 1098.96 -5.82851 3.45386 0
M  V30 11918 H 1099.9 -5.17652 4.83158 0
M  V30 11919 H 1100.31 -4.67507 3.16382 0
M  V30 11920 N 1099.71 -1.29285 -0.901281 0
M  V30 11921 C 1100.65 -1.14159 -2.02659 0
M  V30 11922 C 1101.65 -0.0575887 -1.69302 0
M  V30 11923 O 1102.85 -0.217273 -1.78684 0
M  V30 11924 H 1099.23 -0.352584 -0.66422 0
M  V30 11925 H 1101.2 -2.09434 -2.12555 0
M  V30 11926 C 1099.95 -0.833253 -3.37568 0
M  V30 11927 H 1099.27 -1.65939 -3.63737 0
M  V30 11928 H 1100.71 -0.767436 -4.16997 0
M  V30 11929 C 1099.17 0.46344 -3.33697 0
M  V30 11930 O 1099.7 1.48998 -3.73045 0
M  V30 11931 N 1097.91 0.468709 -2.86795 0
M  V30 11932 H 1097.45 -0.36712 -2.54971 0
M  V30 11933 H 1097.41 1.3363 -2.84588 0
M  V30 11934 N 1101.18 1.11143 -1.11736 0
M  V30 11935 C 1102.41 1.87285 -0.891007 0
M  V30 11936 C 1102.83 1.79758 0.553971 0
M  V30 11937 O 1102.19 1.16221 1.39149 0
M  V30 11938 C 1102.24 3.33924 -1.36114 0
M  V30 11939 O 1101.34 4.08917 -0.534851 0
M  V30 11940 H 1100.69 0.581418 -0.320701 0
M  V30 11941 H 1103.22 1.40469 -1.4876 0
M  V30 11942 H 1103.23 3.84772 -1.35701 0
M  V30 11943 H 1101.9 3.38719 -2.41334 0
M  V30 11944 H 1100.48 3.67954 -0.605355 0
M  V30 11945 N 1102.66 0.908147 1.28804 0
M  V30 11946 C 1103.61 0.382315 2.29437 0
M  V30 11947 C 1104.6 -0.523033 1.61123 0
M  V30 11948 O 1105.81 -0.404898 1.75387 0
M  V30 11949 H 1102.19 0.105022 0.74463 0
M  V30 11950 H 1104.16 1.24425 2.71221 0
M  V30 11951 C 1102.91 -0.367475 3.45753 0
M  V30 11952 H 1102.23 0.319957 3.98518 0
M  V30 11953 H 1103.67 -0.700131 4.1818 0
M  V30 11954 C 1102.13 -1.57329 2.97908 0
M  V30 11955 O 1102.66 -2.67248 2.99902 0
M  V30 11956 N 1100.86 -1.41835 2.53636 0
M  V30 11957 H 1100.41 -0.524099 2.52212 0
M  V30 11958 H 1100.37 -2.22645 2.21984 0
M  V30 11959 N 1104.14 -1.42577 0.671525 0
M  V30 11960 C 1105.09 -2.32591 -0.0205354 0
M  V30 11961 C 1106.08 -1.4964 -0.793993 0
M  V30 11962 O 1107.29 -1.65733 -0.702327 0
M  V30 11963 H 1103.66 -0.75157 -0.0254344 0
M  V30 11964 H 1105.63 -2.88662 0.756082 0
M  V30 11965 C 1104.38 -3.34175 -0.960316 0
M  V30 11966 H 1103.71 -3.98041 -0.374577 0
M  V30 11967 H 1105.15 -3.99752 -1.4133 0
M  V30 11968 C 1103.61 -2.66184 -2.06513 0
M  V30 11969 O 1104.14 -2.49125 -3.15119 0
M  V30 11970 N 1102.34 -2.25261 -1.83591 0
M  V30 11971 H 1101.89 -2.39336 -0.952689 0
M  V30 11972 H 1101.85 -1.80101 -2.57703 0
M  V30 11973 N 1105.62 -0.414636 -1.52048 0
M  V30 11974 C 1106.84 0.161137 -2.06773 0
M  V30 11975 C 1107.27 1.37628 -1.2822 0
M  V30 11976 O 1106.63 1.78562 -0.313915 0
M  V30 11977 C 1106.67 0.48452 -3.5733 0
M  V30 11978 O 1105.78 1.57466 -3.81154 0
M  V30 11979 H 1105.12 0.0118003 -0.663895 0
M  V30 11980 H 1107.65 -0.589424 -1.95926 0
M  V30 11981 H 1107.66 0.741567 -4.01204 0
M  V30 11982 H 1106.33 -0.403733 -4.13936 0
M  V30 11983 H 1104.91 1.30935 -3.49157 0
M  V30 11984 N 1107.1 1.56929 -0.145233 0
M  V30 11985 C 1108.03 2.13796 0.826078 0
M  V30 11986 C 1109.04 1.08697 1.21197 0
M  V30 11987 O 1110.23 1.3598 1.15635 0
M  V30 11988 C 1107.33 2.6443 2.11967 0
M  V30 11989 C 1106.5 3.9391 1.90142 0
M  V30 11990 C 1105.56 4.29872 3.03474 0
M  V30 11991 O 1104.59 4.98227 2.75242 0
M  V30 11992 N 1105.79 3.8931 4.30602 0
M  V30 11993 H 1108.56 2.97764 0.340073 0
M  V30 11994 H 1106.12 1.61854 0.0383928 0
M  V30 11995 H 1108.11 2.85502 2.86829 0
M  V30 11996 H 1106.68 1.85196 2.51836 0
M  V30 11997 H 1105.9 3.81481 0.993268 0
M  V30 11998 H 1107.19 4.78523 1.72896 0
M  V30 11999 H 1106.58 3.34229 4.56407 0
M  V30 12000 H 1105.14 4.15438 5.0225 0
M  V30 12001 N 1108.58 -0.128553 1.57075 0
M  V30 12002 C 1109.82 -0.839252 1.8462 0
M  V30 12003 C 1110.15 -1.79974 0.729582 0
M  V30 12004 O 1109.43 -1.92681 -0.265369 0
M  V30 12005 C 1109.71 -1.59756 3.22723 0
M  V30 12006 C 1109.57 -0.657313 4.44971 0
M  V30 12007 C 1110.88 -2.55592 3.58275 0
M  V30 12008 H 1108 -0.303652 0.671539 0
M  V30 12009 H 1110.65 -0.103802 1.89716 0
M  V30 12010 H 1108.8 -2.22451 3.18509 0
M  V30 12011 H 1110.47 -0.0399471 4.61283 0
M  V30 12012 H 1108.71 0.0318416 4.33788 0
M  V30 12013 H 1109.38 -1.22433 5.38251 0
M  V30 12014 H 1111.86 -2.03007 3.63218 0
M  V30 12015 H 1110.73 -3.05687 4.55902 0
M  V30 12016 H 1110.99 -3.37813 2.85193 0
M  V30 12017 N 1110.05 -1.5248 -0.398459 0
M  V30 12018 C 1111.28 -1.70677 -1.16417 0
M  V30 12019 C 1111.69 -0.420629 -1.84465 0
M  V30 12020 O 1111.03 0.614013 -1.73135 0
M  V30 12021 C 1111.1 -2.79401 -2.2622 0
M  V30 12022 C 1110.76 -4.20817 -1.78218 0
M  V30 12023 C 1111.76 -5.04298 -1.26409 0
M  V30 12024 C 1109.44 -4.67098 -1.84728 0
M  V30 12025 C 1111.44 -6.32136 -0.817461 0
M  V30 12026 C 1109.12 -5.94923 -1.39676 0
M  V30 12027 C 1110.12 -6.77272 -0.882716 0
M  V30 12028 O 1109.81 -8.02702 -0.438739 0
M  V30 12029 H 1109.54 -0.57503 -0.355411 0
M  V30 12030 H 1112.1 -1.99868 -0.473471 0
M  V30 12031 H 1110.33 -2.4561 -2.98685 0
M  V30 12032 H 1112.01 -2.86093 -2.87933 0
M  V30 12033 H 1112.78 -4.6973 -1.20744 0
M  V30 12034 H 1108.66 -4.03097 -2.23682 0
M  V30 12035 H 1112.2 -6.96361 -0.415548 0
M  V30 12036 H 1108.1 -6.28998 -1.45024 0
M  V30 12037 H 1108.87 -8.16575 -0.561079 0
M  V30 12038 N 1111.53 0.65634 -1.43283 0
M  V30 12039 C 1112.78 1.41837 -1.44949 0
M  V30 12040 C 1113.11 1.94065 -0.0723212 0
M  V30 12041 O 1112.39 1.72092 0.906346 0
M  V30 12042 C 1112.67 2.60206 -2.48927 0
M  V30 12043 C 1112.52 2.1349 -3.95907 0
M  V30 12044 C 1113.84 3.62421 -2.49678 0
M  V30 12045 H 1110.96 0.514398 -0.527792 0
M  V30 12046 H 1113.6 0.74435 -1.74813 0
M  V30 12047 H 1111.75 3.17708 -2.23592 0
M  V30 12048 H 1113.42 1.61012 -4.32288 0
M  V30 12049 H 1111.67 1.4489 -4.08888 0
M  V30 12050 H 1112.34 2.98596 -4.64268 0
M  V30 12051 H 1114.81 3.14671 -2.72252 0
M  V30 12052 H 1113.69 4.42798 -3.24378 0
M  V30 12053 H 1113.95 4.14802 -1.52944 0
M  V30 12054 N 1113.01 1.29761 0.894412 0
M  V30 12055 C 1113.96 1.15232 2.0205 0
M  V30 12056 C 1114.95 0.0665664 1.69269 0
M  V30 12057 O 1116.16 0.226746 1.78566 0
M  V30 12058 H 1112.53 0.356102 0.662341 0
M  V30 12059 H 1114.5 2.10559 2.11442 0
M  V30 12060 C 1113.25 0.851143 3.37121 0
M  V30 12061 H 1112.58 1.67865 3.62852 0
M  V30 12062 H 1114.02 0.78954 4.16584 0
M  V30 12063 C 1112.47 -0.445737 3.33938 0
M  V30 12064 O 1113 -1.47017 3.7383 0
M  V30 12065 N 1111.21 -0.453493 2.8704 0
M  V30 12066 H 1110.76 0.380636 2.54772 0
M  V30 12067 H 1110.72 -1.32119 2.85293 0
M  V30 12068 N 1114.49 -1.10549 1.12324 0
M  V30 12069 C 1115.42 -2.18911 0.812416 0
M  V30 12070 C 1116.4 -1.68628 -0.22327 0
M  V30 12071 O 1117.58 -1.94015 -0.0847184 0
M  V30 12072 C 1114.71 -3.46288 0.264947 0
M  V30 12073 C 1113.67 -4.09838 1.23356 0
M  V30 12074 C 1112.99 -5.31901 0.546374 0
M  V30 12075 C 1114.29 -4.53686 2.58778 0
M  V30 12076 H 1115.99 -2.45169 1.71851 0
M  V30 12077 H 1113.53 -1.17834 0.827715 0
M  V30 12078 H 1115.49 -4.21385 0.0352364 0
M  V30 12079 H 1114.21 -3.19517 -0.676479 0
M  V30 12080 H 1112.87 -3.36746 1.44906 0
M  V30 12081 H 1112.52 -5.01406 -0.400157 0
M  V30 12082 H 1112.22 -5.75372 1.19249 0
M  V30 12083 H 1113.74 -6.09731 0.325673 0
M  V30 12084 H 1115.16 -5.20063 2.41263 0
M  V30 12085 H 1113.55 -5.08003 3.19457 0
M  V30 12086 H 1114.62 -3.66665 3.17309 0
M  V30 12087 N 1115.97 -0.914965 -1.28321 0
M  V30 12088 C 1117.38 -0.613297 -1.47346 0
M  V30 12089 C 1117.58 0.84106 -1.83108 0
M  V30 12090 O 1116.64 1.62004 -1.93678 0
M  V30 12091 C 1117.95 -1.55224 -2.57538 0
M  V30 12092 C 1119.5 -1.55909 -2.71407 0
M  V30 12093 C 1119.97 -2.48468 -3.84744 0
M  V30 12094 N 1121.46 -2.46602 -3.92099 0
M  V30 12095 C 1122.2 -3.14917 -4.79182 0
M  V30 12096 N 1121.7 -3.92566 -5.70845 0
M  V30 12097 N 1123.49 -3.03998 -4.72802 0
M  V30 12098 H 1115.64 -1.85539 -1.03388 0
M  V30 12099 H 1117.9 -0.795875 -0.515061 0
M  V30 12100 H 1117.61 -2.58917 -2.38023 0
M  V30 12101 H 1117.48 -1.28426 -3.54664 0
M  V30 12102 H 1119.87 -0.52953 -2.9031 0
M  V30 12103 H 1119.95 -1.86751 -1.74808 0
M  V30 12104 H 1119.59 -3.51526 -3.66595 0
M  V30 12105 H 1119.52 -2.14928 -4.80743 0
M  V30 12106 H 1122.02 -1.90199 -3.26547 0
M  V30 12107 H 1122.33 -4.41709 -6.34123 0
M  V30 12108 H 1120.67 -3.96671 -5.70681 0
M  V30 12109 H 1123.86 -2.42839 -4.00184 0
M  V30 12110 H 1124.04 -3.57511 -5.40454 0
M  V30 12111 N 1117.44 1.42219 -0.679077 0
M  V30 12112 C 1118.39 2.32599 0.00820028 0
M  V30 12113 C 1119.39 1.50059 0.786046 0
M  V30 12114 O 1120.59 1.66103 0.693528 0
M  V30 12115 H 1116.97 0.751694 0.0214483 0
M  V30 12116 H 1118.94 2.88257 -0.77138 0
M  V30 12117 C 1117.69 3.3468 0.942581 0
M  V30 12118 H 1117.01 3.98234 0.353463 0
M  V30 12119 H 1118.45 4.00496 1.39208 0
M  V30 12120 C 1116.91 2.67275 2.05099 0
M  V30 12121 O 1117.44 2.50793 3.13793 0
M  V30 12122 N 1115.64 2.26232 1.82394 0
M  V30 12123 H 1115.19 2.39838 0.939983 0
M  V30 12124 H 1115.15 1.81465 2.56744 0
M  V30 12125 N 1118.92 0.422693 1.51826 0
M  V30 12126 C 1119.85 -0.440987 2.23899 0
M  V30 12127 C 1120.83 -1.03685 1.25252 0
M  V30 12128 O 1122.02 -1.08212 1.54345 0
M  V30 12129 C 1119.14 -1.61331 2.97809 0
M  V30 12130 C 1118.19 -1.13954 4.10995 0
M  V30 12131 S 1119.02 -0.0935426 5.35418 0
M  V30 12132 C 1120.18 -1.27087 6.12862 0
M  V30 12133 H 1120.41 0.170945 2.96808 0
M  V30 12134 H 1117.94 0.20709 1.53005 0
M  V30 12135 H 1119.9 -2.28546 3.40994 0
M  V30 12136 H 1118.56 -2.19662 2.24516 0
M  V30 12137 H 1117.76 -2.01578 4.61933 0
M  V30 12138 H 1117.36 -0.545838 3.69995 0
M  V30 12139 H 1119.65 -2.19199 6.4106 0
M  V30 12140 H 1120.59 -0.801752 7.03546 0
M  V30 12141 H 1121 -1.50281 5.44129 0
M  V30 12142 N 1120.4 -1.5685 0.153553 0
M  V30 12143 C 1121.81 -1.83074 -0.36618 0
M  V30 12144 C 1122.16 -1.07257 -1.64288 0
M  V30 12145 O 1121.29 -0.319925 -2.14022 0
M  V30 12146 C 1121.88 -3.32086 -0.671142 0
M  V30 12147 C 1120.44 -3.58868 -1.13537 0
M  V30 12148 C 1119.59 -2.76827 -0.161887 0
M  V30 12149 H 1122.54 -1.54129 0.378139 0
M  V30 12150 H 1122.56 -3.48598 -1.52512 0
M  V30 12151 H 1122.07 -3.8724 0.258234 0
M  V30 12152 H 1120.17 -3.09107 -2.08047 0
M  V30 12153 H 1120.29 -4.67299 -1.05682 0
M  V30 12154 H 1118.65 -2.46112 -0.6558 0
M  V30 12155 H 1119.43 -3.34755 0.761195 0
M  V30 12156 N 1121.88 0.120221 -1.57141 0
M  V30 12157 C 1123.12 0.829449 -1.85062 0
M  V30 12158 C 1123.46 1.79585 -0.739116 0
M  V30 12159 O 1122.73 1.92819 0.255147 0
M  V30 12160 C 1123.01 1.58042 -3.23566 0
M  V30 12161 C 1122.87 0.633706 -4.45314 0
M  V30 12162 C 1124.19 2.53688 -3.59625 0
M  V30 12163 H 1121.31 0.300086 -0.67314 0
M  V30 12164 H 1123.95 0.0937393 -1.89769 0
M  V30 12165 H 1122.1 2.20758 -3.19684 0
M  V30 12166 H 1123.77 0.0154836 -4.61297 0
M  V30 12167 H 1122.01 -0.054846 -4.33765 0
M  V30 12168 H 1122.68 1.19577 -5.38893 0
M  V30 12169 H 1125.16 2.01078 -3.6429 0
M  V30 12170 H 1124.04 3.03265 -4.57516 0
M  V30 12171 H 1124.3 3.36296 -2.8698 0
M  V30 12172 N 1123.36 1.52689 0.390367 0
M  V30 12173 C 1124.29 1.80338 1.48325 0
M  V30 12174 C 1125.27 0.655338 1.56969 0
M  V30 12175 O 1126.45 0.902792 1.7194 0
M  V30 12176 C 1123.58 1.97101 2.85952 0
M  V30 12177 C 1122.54 3.12783 2.92148 0
M  V30 12178 C 1121.86 3.14798 4.32211 0
M  V30 12179 C 1123.16 4.5188 2.61919 0
M  V30 12180 H 1124.86 2.71857 1.25437 0
M  V30 12181 H 1122.4 1.30813 0.601995 0
M  V30 12182 H 1124.36 2.15027 3.62411 0
M  V30 12183 H 1123.08 1.02271 3.10174 0
M  V30 12184 H 1121.74 2.94638 2.18137 0
M  V30 12185 H 1121.39 2.17653 4.53471 0
M  V30 12186 H 1121.09 3.92507 4.37278 0
M  V30 12187 H 1122.61 3.34877 5.10578 0
M  V30 12188 H 1124.02 4.70134 3.28096 0
M  V30 12189 H 1122.42 5.31647 2.78337 0
M  V30 12190 H 1123.49 4.58689 1.57266 0
M  V30 12191 N 1124.83 -0.648732 1.43629 0
M  V30 12192 C 1125.76 -1.77298 1.51947 0
M  V30 12193 C 1126.75 -1.65942 0.373785 0
M  V30 12194 O 1127.93 -1.8497 0.591596 0
M  V30 12195 C 1125.06 -3.15749 1.44638 0
M  V30 12196 C 1124.01 -3.41872 2.57502 0
M  V30 12197 C 1123.34 -4.8017 2.35246 0
M  V30 12198 C 1124.64 -3.36173 3.99731 0
M  V30 12199 H 1126.33 -1.70594 2.46045 0
M  V30 12200 H 1123.88 -0.819306 1.1842 0
M  V30 12201 H 1125.83 -3.94156 1.4906 0
M  V30 12202 H 1124.56 -3.23194 0.470466 0
M  V30 12203 H 1123.22 -2.65838 2.5244 0
M  V30 12204 H 1122.86 -4.84297 1.35887 0
M  V30 12205 H 1122.56 -4.9861 3.10906 0
M  V30 12206 H 1124.09 -5.6083 2.41459 0
M  V30 12207 H 1125.5 -4.0451 4.06257 0
M  V30 12208 H 1123.9 -3.66148 4.75453 0
M  V30 12209 H 1124.97 -2.34277 4.24549 0
M  V30 12210 N 1126.31 -1.30234 -0.887518 0
M  V30 12211 C 1127.56 -1.18675 -1.63587 0
M  V30 12212 C 1127.88 0.259342 -1.93268 0
M  V30 12213 O 1127.15 1.17523 -1.56733 0
M  V30 12214 H 1125.73 -0.436224 -0.606397 0
M  V30 12215 H 1128.39 -1.63326 -1.06351 0
M  V30 12216 H 1127.49 -1.74575 -2.58708 0
M  V30 12217 N 1127.79 1.09952 -1.12909 0
M  V30 12218 C 1129.2 1.63516 -0.901087 0
M  V30 12219 C 1129.55 1.87932 0.563547 0
M  V30 12220 O 1128.68 1.625 1.42908 0
M  V30 12221 C 1129.27 2.97054 -1.62924 0
M  V30 12222 C 1127.83 3.47464 -1.44725 0
M  V30 12223 C 1126.98 2.21979 -1.66194 0
M  V30 12224 H 1129.93 0.933858 -1.28315 0
M  V30 12225 H 1129.95 3.64757 -1.08318 0
M  V30 12226 H 1129.46 2.79251 -2.69519 0
M  V30 12227 H 1127.56 3.70402 -0.40409 0
M  V30 12228 H 1127.68 4.25254 -2.20671 0
M  V30 12229 H 1126.04 2.30368 -1.0864 0
M  V30 12230 H 1126.82 2.06702 -2.74097 0
M  V30 12231 N 1129.27 0.921757 1.27833 0
M  V30 12232 C 1130.49 0.574599 1.99281 0
M  V30 12233 C 1130.92 -0.838905 1.68357 0
M  V30 12234 O 1130.28 -1.56196 0.920468 0
M  V30 12235 C 1130.32 0.800027 3.51613 0
M  V30 12236 O 1129.43 -0.137215 4.12172 0
M  V30 12237 H 1128.77 0.221887 0.625829 0
M  V30 12238 H 1131.3 1.23939 1.62789 0
M  V30 12239 H 1131.31 0.71326 4.01717 0
M  V30 12240 H 1129.98 1.83042 3.73455 0
M  V30 12241 H 1128.56 -0.00103872 3.729 0
M  V30 12242 N 1130.75 -1.41857 0.686609 0
M  V30 12243 C 1132.16 -1.55549 0.357288 0
M  V30 12244 C 1132.36 -1.66394 -1.13646 0
M  V30 12245 O 1131.42 -1.63739 -1.92213 0
M  V30 12246 C 1132.73 -2.79938 1.09796 0
M  V30 12247 C 1134.28 -2.93724 1.08143 0
M  V30 12248 C 1134.75 -4.20989 1.80367 0
M  V30 12249 N 1136.25 -4.27927 1.77293 0
M  V30 12250 C 1136.98 -5.2524 2.30022 0
M  V30 12251 N 1136.48 -6.28636 2.91185 0
M  V30 12252 N 1138.27 -5.17118 2.20329 0
M  V30 12253 H 1130.42 -1.33063 1.65554 0
M  V30 12254 H 1132.68 -0.641335 0.698135 0
M  V30 12255 H 1132.39 -2.78104 2.15293 0
M  V30 12256 H 1132.26 -3.71188 0.670763 0
M  V30 12257 H 1134.65 -2.9508 0.0347554 0
M  V30 12258 H 1134.73 -2.03673 1.54761 0
M  V30 12259 H 1134.38 -4.20395 2.85009 0
M  V30 12260 H 1134.31 -5.09997 1.3119 0
M  V30 12261 H 1136.8 -3.53838 1.32692 0
M  V30 12262 H 1137.11 -6.99265 3.29011 0
M  V30 12263 H 1135.45 -6.29164 2.95259 0
M  V30 12264 H 1138.65 -4.35265 1.72226 0
M  V30 12265 H 1138.82 -5.92792 2.61728 0
M  V30 12266 N 1132.22 -0.430739 -1.51599 0
M  V30 12267 C 1133.17 0.384024 -2.27583 0
M  V30 12268 C 1134.14 1.02254 -1.30895 0
M  V30 12269 O 1135.33 1.0427 -1.59789 0
M  V30 12270 C 1132.47 1.48291 -3.11615 0
M  V30 12271 C 1131.58 0.863187 -4.23288 0
M  V30 12272 C 1130.71 1.93657 -4.94642 0
M  V30 12273 C 1129.75 1.29493 -5.98246 0
M  V30 12274 N 1128.89 2.30939 -6.63032 0
M  V30 12275 H 1133.73 -0.270314 -2.96771 0
M  V30 12276 H 1131.27 -0.145148 -1.46382 0
M  V30 12277 H 1133.23 2.13124 -3.58656 0
M  V30 12278 H 1131.86 2.10697 -2.44554 0
M  V30 12279 H 1130.91 0.103326 -3.8026 0
M  V30 12280 H 1132.22 0.354676 -4.97537 0
M  V30 12281 H 1131.37 2.66167 -5.45197 0
M  V30 12282 H 1130.11 2.4788 -4.20008 0
M  V30 12283 H 1129.12 0.555262 -5.46989 0
M  V30 12284 H 1130.34 0.760122 -6.74833 0
M  V30 12285 H 1128.29 2.84254 -5.91216 0
M  V30 12286 H 1128.21 1.84961 -7.33025 0
M  V30 12287 H 1129.47 3.02953 -7.1822 0
M  V30 12288 N 1133.7 1.56767 -0.161869 0
M  V30 12289 C 1134.65 2.17502 0.772102 0
M  V30 12290 C 1135.62 1.11223 1.23364 0
M  V30 12291 O 1136.8 1.39332 1.30351 0
M  V30 12292 C 1133.94 2.81248 1.99984 0
M  V30 12293 C 1133.06 4.01962 1.58274 0
M  V30 12294 C 1132.19 4.53662 2.76341 0
M  V30 12295 C 1131.23 5.66807 2.31076 0
M  V30 12296 N 1130.37 6.13059 3.42203 0
M  V30 12297 H 1135.21 2.96971 0.247382 0
M  V30 12298 H 1132.75 1.46685 0.110382 0
M  V30 12299 H 1134.7 3.16359 2.7198 0
M  V30 12300 H 1133.33 2.04398 2.49842 0
M  V30 12301 H 1132.39 3.72733 0.759874 0
M  V30 12302 H 1133.7 4.83891 1.2104 0
M  V30 12303 H 1132.85 4.90905 3.56507 0
M  V30 12304 H 1131.59 3.7077 3.16829 0
M  V30 12305 H 1130.6 5.29125 1.49354 0
M  V30 12306 H 1131.82 6.51494 1.91657 0
M  V30 12307 H 1129.77 5.33099 3.82285 0
M  V30 12308 H 1129.68 6.89953 3.09033 0
M  V30 12309 H 1130.95 6.54951 4.22682 0
M  V30 12310 N 1135.18 -0.111886 1.57202 0
M  V30 12311 C 1136.43 -0.818411 1.85225 0
M  V30 12312 C 1136.76 -1.79542 0.747991 0
M  V30 12313 O 1136.01 -1.93965 -0.260013 0
M  V30 12314 C 1136.31 -1.59644 3.19763 0
M  V30 12315 C 1135.98 -0.76308 4.44396 0
M  V30 12316 C 1134.64 -0.53329 4.78236 0
M  V30 12317 C 1136.99 -0.18266 5.2088 0
M  V30 12318 C 1134.32 0.287056 5.85997 0
M  V30 12319 C 1136.67 0.624916 6.29506 0
M  V30 12320 C 1135.33 0.864955 6.61872 0
M  V30 12321 H 1134.6 -0.299478 0.677786 0
M  V30 12322 H 1137.25 -0.0805082 1.91331 0
M  V30 12323 H 1135.56 -2.40545 3.09266 0
M  V30 12324 H 1137.25 -2.1472 3.38669 0
M  V30 12325 H 1133.84 -0.952278 4.17887 0
M  V30 12326 H 1138.03 -0.34739 4.95083 0
M  V30 12327 H 1133.28 0.482179 6.09496 0
M  V30 12328 H 1137.46 1.08162 6.87949 0
M  V30 12329 H 1135.08 1.50244 7.45205 0
M  V30 12330 N 1136.66 -1.52894 -0.382264 0
M  V30 12331 C 1137.91 -1.67489 -1.12385 0
M  V30 12332 C 1138.22 -0.424565 -1.90937 0
M  V30 12333 O 1139.43 -0.450763 -2.67732 0
M  V30 12334 C 1137.88 -2.96019 -2.04697 0
M  V30 12335 C 1137.49 -4.28255 -1.31535 0
M  V30 12336 C 1139.23 -3.19981 -2.78949 0
M  V30 12337 C 1137.14 -5.47887 -2.22652 0
M  V30 12338 H 1136.07 -0.624002 -0.423246 0
M  V30 12339 H 1138.72 -1.79392 -0.386107 0
M  V30 12340 H 1137.1 -2.77878 -2.82134 0
M  V30 12341 H 1138.28 -4.56971 -0.592771 0
M  V30 12342 H 1136.59 -4.10607 -0.692148 0
M  V30 12343 H 1139.19 -4.06541 -3.47316 0
M  V30 12344 H 1139.53 -2.35335 -3.43399 0
M  V30 12345 H 1140.07 -3.38718 -2.08602 0
M  V30 12346 H 1136.81 -6.3496 -1.62806 0
M  V30 12347 H 1136.33 -5.23473 -2.92807 0
M  V30 12348 H 1138 -5.82026 -2.82586 0
M  V30 12349 N 1138.14 0.641106 -1.43971 0
M  V30 12350 C 1139.39 1.39807 -1.4594 0
M  V30 12351 C 1139.71 1.94795 -0.0893874 0
M  V30 12352 O 1138.98 1.75175 0.876962 0
M  V30 12353 H 1137.56 0.518908 -0.537349 0
M  V30 12354 H 1140.22 0.755278 -1.79671 0
M  V30 12355 H 1139.31 2.23439 -2.17903 0
M  V30 12356 N 1139.62 1.30703 0.880598 0
M  V30 12357 C 1140.57 1.14062 1.97418 0
M  V30 12358 C 1141.55 0.0545541 1.60807 0
M  V30 12359 O 1142.74 0.278344 1.74798 0
M  V30 12360 C 1139.87 0.839062 3.32888 0
M  V30 12361 C 1138.96 1.96559 3.75799 0
M  V30 12362 N 1139.35 3.21145 3.90768 0
M  V30 12363 C 1137.65 1.86294 4.05229 0
M  V30 12364 C 1138.35 3.94766 4.27241 0
M  V30 12365 N 1137.32 3.2285 4.37343 0
M  V30 12366 H 1141.12 2.08548 2.07087 0
M  V30 12367 H 1138.64 1.22106 1.0707 0
M  V30 12368 H 1140.64 0.700851 4.10967 0
M  V30 12369 H 1139.3 -0.0976808 3.24553 0
M  V30 12370 H 1140.31 3.56384 3.75781 0
M  V30 12371 H 1136.98 1.00016 4.05343 0
M  V30 12372 H 1138.37 5.02076 4.46508 0
M  V30 12373 N 1141.09 -1.09351 1.1349 0
M  V30 12374 C 1142.34 -1.80915 0.89177 0
M  V30 12375 C 1142.66 -1.86688 -0.5837 0
M  V30 12376 O 1143.86 -2.54568 -0.943788 0
M  V30 12377 C 1142.32 -3.25009 1.54587 0
M  V30 12378 C 1141.93 -3.27501 3.05691 0
M  V30 12379 C 1143.67 -4.01323 1.38346 0
M  V30 12380 C 1141.58 -4.66123 3.63983 0
M  V30 12381 H 1140.51 -0.677961 0.329978 0
M  V30 12382 H 1143.16 -1.22893 1.3627 0
M  V30 12383 H 1141.54 -3.83098 1.0026 0
M  V30 12384 H 1142.71 -2.79174 3.66604 0
M  V30 12385 H 1141.03 -2.64677 3.21457 0
M  V30 12386 H 1143.63 -5.03739 1.79307 0
M  V30 12387 H 1143.97 -4.15003 0.328404 0
M  V30 12388 H 1144.5 -3.49679 1.89656 0
M  V30 12389 H 1141.24 -4.57646 4.69298 0
M  V30 12390 H 1140.76 -5.14772 3.07848 0
M  V30 12391 H 1142.44 -5.35097 3.63703 0
M  V30 12392 N 1142.57 -0.928524 -1.27343 0
M  V30 12393 C 1143.8 -0.585734 -1.98436 0
M  V30 12394 C 1144.21 0.83644 -1.69261 0
M  V30 12395 O 1143.57 1.55603 -0.953626 0
M  V30 12396 C 1143.62 -0.803092 -3.52467 0
M  V30 12397 O 1143.34 -2.16932 -3.80621 0
M  V30 12398 C 1144.84 -0.469127 -4.40811 0
M  V30 12399 H 1142.06 -0.221887 -0.633251 0
M  V30 12400 H 1144.61 -1.24577 -1.62175 0
M  V30 12401 H 1142.76 -0.189846 -3.86935 0
M  V30 12402 H 1143.18 -2.21992 -4.75205 0
M  V30 12403 H 1144.65 -0.671906 -5.47895 0
M  V30 12404 H 1145.13 0.595365 -4.35146 0
M  V30 12405 H 1145.73 -1.06055 -4.11865 0
M  V30 12406 N 1144.05 1.41491 -0.694123 0
M  V30 12407 C 1145 2.30783 -0.0278824 0
M  V30 12408 C 1145.97 1.47028 0.772783 0
M  V30 12409 O 1147.15 1.75819 0.74111 0
M  V30 12410 C 1144.29 3.33061 0.903579 0
M  V30 12411 C 1143.4 4.31896 0.0946823 0
M  V30 12412 C 1142.54 5.21243 1.02365 0
M  V30 12413 C 1141.58 6.11748 0.207578 0
M  V30 12414 N 1140.72 6.93583 1.09028 0
M  V30 12415 H 1145.56 2.87197 -0.795092 0
M  V30 12416 H 1143.09 1.41449 -0.403806 0
M  V30 12417 H 1145.05 3.90907 1.45765 0
M  V30 12418 H 1143.68 2.782 1.6372 0
M  V30 12419 H 1142.73 3.76009 -0.576289 0
M  V30 12420 H 1144.04 4.95889 -0.538059 0
M  V30 12421 H 1143.2 5.83917 1.647 0
M  V30 12422 H 1141.94 4.57473 1.69025 0
M  V30 12423 H 1140.94 5.48125 -0.428854 0
M  V30 12424 H 1142.17 6.77573 -0.455206 0
M  V30 12425 H 1140.11 6.32422 1.74292 0
M  V30 12426 H 1140.03 7.54257 0.513073 0
M  V30 12427 H 1141.3 7.60726 1.70048 0
M  V30 12428 N 1145.53 0.438773 1.51369 0
M  V30 12429 C 1146.8 -0.18722 1.94702 0
M  V30 12430 C 1147.18 -1.59962 1.37752 0
M  V30 12431 O 1146.53 -2.214 0.565171 0
M  V30 12432 C 1146.74 -0.163491 3.48617 0
M  V30 12433 C 1148.09 -0.368355 4.22999 0
M  V30 12434 O 1149.11 -0.241541 3.5538 0
M  V30 12435 O 1147.97 -0.620916 5.42961 0
M  V30 12436 H 1145.07 -0.129194 0.816846 0
M  V30 12437 H 1147.61 0.496855 1.62263 0
M  V30 12438 H 1146.39 0.823882 3.82528 0
M  V30 12439 H 1146.01 -0.890414 3.87501 0
M  V30 12440 N 1147.01 -1.56678 0.170181 0
M  V30 12441 C 1148.25 -1.9714 -0.475767 0
M  V30 12442 C 1148.58 -1.05611 -1.62972 0
M  V30 12443 O 1147.86 -0.103017 -1.94227 0
M  V30 12444 C 1148.14 -3.47072 -0.959828 0
M  V30 12445 C 1148 -4.4938 0.194225 0
M  V30 12446 C 1149.31 -4.00071 -1.83387 0
M  V30 12447 H 1146.43 -0.716776 -0.171466 0
M  V30 12448 H 1149.08 -1.88266 0.256086 0
M  V30 12449 H 1147.23 -3.54766 -1.58346 0
M  V30 12450 H 1148.9 -4.53748 0.83128 0
M  V30 12451 H 1147.14 -4.25393 0.849893 0
M  V30 12452 H 1147.81 -5.51685 -0.186575 0
M  V30 12453 H 1150.29 -3.95002 -1.30815 0
M  V30 12454 H 1149.16 -5.05398 -2.14159 0
M  V30 12455 H 1149.42 -3.43819 -2.77923 0
M  V30 12456 N 1148.48 0.103547 -1.57259 0
M  V30 12457 C 1149.76 0.839768 -1.76656 0
M  V30 12458 C 1150.14 1.9734 -0.749666 0
M  V30 12459 O 1149.49 2.27405 0.223466 0
M  V30 12460 C 1149.7 1.34218 -3.22159 0
M  V30 12461 C 1151.05 1.78835 -3.85102 0
M  V30 12462 O 1152.07 1.43861 -3.25857 0
M  V30 12463 O 1150.93 2.43474 -4.89267 0
M  V30 12464 H 1148.02 0.399928 -0.723869 0
M  V30 12465 H 1150.57 0.0860857 -1.69482 0
M  V30 12466 H 1149.34 0.52956 -3.877 0
M  V30 12467 H 1148.96 2.15811 -3.33933 0
M  V30 12468 N 1149.96 1.53094 0.37415 0
M  V30 12469 C 1150.92 1.78264 1.44065 0
M  V30 12470 C 1151.92 0.652892 1.46949 0
M  V30 12471 O 1153.11 0.921046 1.47859 0
M  V30 12472 C 1150.25 1.89693 2.83248 0
M  V30 12473 H 1151.44 2.73505 1.23025 0
M  V30 12474 H 1148.99 1.44041 0.60678 0
M  V30 12475 H 1149.73 0.964884 3.09613 0
M  V30 12476 H 1149.51 2.71855 2.82554 0
M  V30 12477 H 1151 2.10787 3.60498 0
M  V30 12478 N 1151.44 -0.633461 1.44309 0
M  V30 12479 C 1152.39 -1.74554 1.50995 0
M  V30 12480 C 1153.36 -1.62199 0.357873 0
M  V30 12481 O 1154.54 -1.82156 0.567787 0
M  V30 12482 C 1151.68 -3.12792 1.45791 0
M  V30 12483 C 1150.79 -3.3614 2.71356 0
M  V30 12484 C 1149.93 -4.64337 2.58002 0
M  V30 12485 C 1148.97 -4.80855 3.78741 0
M  V30 12486 N 1148.11 -6.00327 3.64077 0
M  V30 12487 H 1152.95 -1.68174 2.46011 0
M  V30 12488 H 1150.48 -0.820407 1.22097 0
M  V30 12489 H 1152.44 -3.92735 1.40765 0
M  V30 12490 H 1151.07 -3.18193 0.543445 0
M  V30 12491 H 1150.12 -2.50154 2.86579 0
M  V30 12492 H 1151.43 -3.44226 3.60985 0
M  V30 12493 H 1150.59 -5.52437 2.50795 0
M  V30 12494 H 1149.33 -4.58605 1.65929 0
M  V30 12495 H 1148.33 -3.91185 3.86334 0
M  V30 12496 H 1149.56 -4.88403 4.71847 0
M  V30 12497 H 1147.5 -5.9569 2.74754 0
M  V30 12498 H 1147.42 -6.09459 4.47321 0
M  V30 12499 H 1148.69 -6.90995 3.60758 0
M  V30 12500 N 1152.92 -1.31168 -0.873655 0
M  V30 12501 C 1153.85 -1.14325 -1.98651 0
M  V30 12502 C 1154.86 -0.0833421 -1.62587 0
M  V30 12503 O 1156.05 -0.330477 -1.75414 0
M  V30 12504 C 1153.15 -0.723747 -3.31082 0
M  V30 12505 C 1152.33 -1.86787 -3.95512 0
M  V30 12506 C 1151.38 -1.43503 -5.06254 0
M  V30 12507 O 1150.41 -2.14409 -5.27273 0
M  V30 12508 N 1151.61 -0.320362 -5.79615 0
M  V30 12509 H 1154.38 -2.10179 -2.13647 0
M  V30 12510 H 1151.94 -1.23454 -1.04742 0
M  V30 12511 H 1153.93 -0.416971 -4.02546 0
M  V30 12512 H 1152.5 0.143073 -3.12272 0
M  V30 12513 H 1151.72 -2.34216 -3.17075 0
M  V30 12514 H 1153.01 -2.6343 -4.35296 0
M  V30 12515 H 1152.41 0.270215 -5.65054 0
M  V30 12516 H 1150.96 -0.0731 -6.51759 0
M  V30 12517 N 1154.4 1.08748 -1.14068 0
M  V30 12518 C 1155.81 1.33125 -0.880341 0
M  V30 12519 C 1156.01 1.9569 0.480396 0
M  V30 12520 O 1155.07 2.2077 1.22543 0
M  V30 12521 C 1156.38 2.23618 -2.01036 0
M  V30 12522 C 1157.93 2.37108 -2.04326 0
M  V30 12523 C 1158.4 3.30941 -3.1661 0
M  V30 12524 N 1159.9 3.38517 -3.16166 0
M  V30 12525 C 1160.63 4.11142 -3.99687 0
M  V30 12526 N 1160.13 4.86505 -4.93239 0
M  V30 12527 N 1161.92 4.06938 -3.87761 0
M  V30 12528 H 1154.07 0.665164 -2.01716 0
M  V30 12529 H 1156.33 0.355612 -0.878774 0
M  V30 12530 H 1156.04 1.84885 -2.99183 0
M  V30 12531 H 1155.91 3.24056 -1.93049 0
M  V30 12532 H 1158.3 2.75101 -1.06787 0
M  V30 12533 H 1158.38 1.36424 -2.16384 0
M  V30 12534 H 1158.03 2.93669 -4.14392 0
M  V30 12535 H 1157.96 4.31545 -3.01789 0
M  V30 12536 H 1160.45 2.84786 -2.48405 0
M  V30 12537 H 1160.76 5.39372 -5.53441 0
M  V30 12538 H 1159.1 4.8557 -4.9724 0
M  V30 12539 H 1162.3 3.47166 -3.13996 0
M  V30 12540 H 1162.47 4.63275 -4.53079 0
M  V30 12541 N 1155.87 0.935264 1.26849 0
M  V30 12542 C 1157.15 0.497797 1.8916 0
M  V30 12543 C 1157.53 -1.02441 1.84578 0
M  V30 12544 O 1156.88 -1.88185 1.29609 0
M  V30 12545 C 1157.09 1.05244 3.32753 0
M  V30 12546 C 1158.44 1.11751 4.0963 0
M  V30 12547 O 1159.46 1.0026 3.41799 0
M  V30 12548 O 1158.32 1.29548 5.30923 0
M  V30 12549 H 1155.41 0.161322 0.811113 0
M  V30 12550 H 1157.96 1.02744 1.35062 0
M  V30 12551 H 1156.73 2.09617 3.30419 0
M  V30 12552 H 1156.36 0.504889 3.94381 0
M  V30 12553 N 1157.35 -1.41121 0.701616 0
M  V30 12554 C 1158.6 -2.0113 0.235147 0
M  V30 12555 C 1158.93 -1.55587 -1.16718 0
M  V30 12556 O 1158.18 -0.760615 -1.80314 0
M  V30 12557 C 1158.48 -3.5654 0.247781 0
M  V30 12558 C 1158.15 -4.21616 1.59846 0
M  V30 12559 C 1156.81 -4.39106 1.96822 0
M  V30 12560 C 1159.16 -4.58048 2.48679 0
M  V30 12561 C 1156.49 -4.90307 3.22205 0
M  V30 12562 C 1158.84 -5.10642 3.734 0
M  V30 12563 C 1157.51 -5.26343 4.10512 0
M  V30 12564 H 1156.78 -0.735987 0.0860462 0
M  V30 12565 H 1159.42 -1.68932 0.901898 0
M  V30 12566 H 1157.73 -3.88564 -0.502528 0
M  V30 12567 H 1159.42 -4.00787 -0.130766 0
M  V30 12568 H 1156.01 -4.08381 1.30088 0
M  V30 12569 H 1160.2 -4.44184 2.21391 0
M  V30 12570 H 1155.45 -5.00647 3.50945 0
M  V30 12571 H 1159.63 -5.37811 4.42416 0
M  V30 12572 H 1157.26 -5.65779 5.07738 0
M  V30 12573 N 1158.83 -0.446794 -1.51134 0
M  V30 12574 C 1159.79 0.348311 -2.26538 0
M  V30 12575 C 1160.79 0.941566 -1.3035 0
M  V30 12576 O 1161.98 0.814537 -1.53984 0
M  V30 12577 C 1159.12 1.49371 -3.06433 0
M  V30 12578 H 1160.31 -0.312648 -2.98266 0
M  V30 12579 H 1157.86 -0.200201 -1.55013 0
M  V30 12580 H 1158.6 2.19045 -2.39144 0
M  V30 12581 H 1158.38 1.07439 -3.77093 0
M  V30 12582 H 1159.87 2.05522 -3.63525 0
M  V30 12583 N 1160.31 1.56586 -0.178487 0
M  V30 12584 C 1161.54 2.01475 0.470684 0
M  V30 12585 C 1161.95 1.0587 1.56323 0
M  V30 12586 O 1161.31 0.060749 1.82399 0
M  V30 12587 C 1161.36 3.46145 1.04238 0
M  V30 12588 O 1161.08 4.381 -0.0065582 0
M  V30 12589 C 1162.58 4.06471 1.76908 0
M  V30 12590 H 1159.8 0.660219 0.119801 0
M  V30 12591 H 1162.35 2.02542 -0.282322 0
M  V30 12592 H 1160.5 3.45831 1.74585 0
M  V30 12593 H 1160.91 5.22843 0.416554 0
M  V30 12594 H 1162.39 5.096 2.12161 0
M  V30 12595 H 1162.87 3.48974 2.66672 0
M  V30 12596 H 1163.47 4.10509 1.11186 0
M  V30 12597 N 1161.79 -0.095206 1.57312 0
M  V30 12598 C 1163.03 -0.797142 1.85715 0
M  V30 12599 C 1163.36 -1.79275 0.767171 0
M  V30 12600 O 1162.63 -1.94808 -0.206584 0
M  V30 12601 H 1161.21 -0.297382 0.685254 0
M  V30 12602 H 1163.87 -0.0768617 1.94748 0
M  V30 12603 H 1162.96 -1.32779 2.82447 0
M  V30 12604 N 1163.26 -1.53291 -0.366026 0
M  V30 12605 C 1164.23 -1.79025 -1.43117 0
M  V30 12606 C 1165.23 -0.660676 -1.46601 0
M  V30 12607 O 1166.42 -0.928875 -1.47369 0
M  V30 12608 C 1163.55 -1.91192 -2.82238 0
M  V30 12609 H 1164.74 -2.74154 -1.21572 0
M  V30 12610 H 1162.3 -1.44361 -0.599132 0
M  V30 12611 H 1163.03 -0.98129 -3.09097 0
M  V30 12612 H 1162.82 -2.7335 -2.81109 0
M  V30 12613 H 1164.31 -2.12696 -3.59375 0
M  V30 12614 N 1164.74 0.6258 -1.44643 0
M  V30 12615 C 1165.99 1.3873 -1.47925 0
M  V30 12616 C 1166.32 1.93868 -0.113469 0
M  V30 12617 O 1165.6 1.73976 0.869639 0
M  V30 12618 C 1165.88 2.54867 -2.54391 0
M  V30 12619 C 1165.73 2.05044 -4.00346 0
M  V30 12620 C 1167.05 3.57043 -2.57309 0
M  V30 12621 H 1164.17 0.503087 -0.538584 0
M  V30 12622 H 1166.81 0.707102 -1.76352 0
M  V30 12623 H 1164.96 3.12894 -2.30281 0
M  V30 12624 H 1166.63 1.51807 -4.35606 0
M  V30 12625 H 1164.88 1.36185 -4.11869 0
M  V30 12626 H 1165.55 2.88681 -4.70497 0
M  V30 12627 H 1168.02 3.08826 -2.78865 0
M  V30 12628 H 1166.9 4.35818 -3.33698 0
M  V30 12629 H 1167.16 4.11464 -1.61708 0
M  V30 12630 N 1166.22 1.31629 0.866686 0
M  V30 12631 C 1167.47 1.21683 1.62238 0
M  V30 12632 C 1167.8 -0.223767 1.92907 0
M  V30 12633 O 1167.07 -1.15761 1.563 0
M  V30 12634 C 1167.36 2.06443 2.95048 0
M  V30 12635 C 1167.21 3.58818 2.71237 0
M  V30 12636 C 1168.53 1.91634 3.96187 0
M  V30 12637 H 1165.65 0.443389 0.588707 0
M  V30 12638 H 1168.29 1.61453 1.00164 0
M  V30 12639 H 1166.44 1.72654 3.48027 0
M  V30 12640 H 1168.11 4.0276 2.24905 0
M  V30 12641 H 1166.36 3.82085 2.05411 0
M  V30 12642 H 1167.03 4.13436 3.65752 0
M  V30 12643 H 1169.5 2.21209 3.52428 0
M  V30 12644 H 1168.38 2.53236 4.86993 0
M  V30 12645 H 1168.64 0.880564 4.33242 0
M  V30 12646 N 1167.7 -1.08142 1.14644 0
M  V30 12647 C 1168.66 -2.13308 0.83859 0
M  V30 12648 C 1169.66 -1.60022 -0.158012 0
M  V30 12649 O 1170.85 -1.74057 0.0706621 0
M  V30 12650 C 1167.98 -3.39978 0.250591 0
M  V30 12651 H 1169.18 -2.42049 1.77066 0
M  V30 12652 H 1166.73 -1.23899 0.952828 0
M  V30 12653 H 1167.47 -3.16873 -0.690064 0
M  V30 12654 H 1167.25 -3.79952 0.968456 0
M  V30 12655 H 1168.74 -4.17567 0.0525115 0
M  V30 12656 N 1169.18 -0.941978 -1.26351 0
M  V30 12657 C 1170.4 -0.606231 -1.98342 0
M  V30 12658 C 1170.83 0.812014 -1.6967 0
M  V30 12659 O 1170.19 1.54712 -0.9452 0
M  V30 12660 C 1170.23 -0.855864 -3.50296 0
M  V30 12661 O 1169.34 0.0716251 -4.12338 0
M  V30 12662 H 1168.68 -0.231815 -0.62222 0
M  V30 12663 H 1171.21 -1.26513 -1.60797 0
M  V30 12664 H 1171.22 -0.777079 -4.00531 0
M  V30 12665 H 1169.89 -1.8896 -3.70496 0
M  V30 12666 H 1168.47 -0.0582866 -3.72854 0
M  V30 12667 N 1170.66 1.40747 -0.709091 0
M  V30 12668 C 1171.9 2.02864 -0.250145 0
M  V30 12669 C 1172.26 1.54993 1.13319 0
M  V30 12670 O 1173.46 2.09128 1.68876 0
M  V30 12671 C 1171.73 3.55964 -0.320114 0
M  V30 12672 S 1173.29 4.38755 0.0628008 0
M  V30 12673 H 1170.11 0.703975 -0.0996992 0
M  V30 12674 H 1172.71 1.7197 -0.92987 0
M  V30 12675 H 1171.41 3.88297 -1.32866 0
M  V30 12676 H 1170.95 3.91577 0.378308 0
M  V30 12677 H 1172.96 4.79226 1.28672 0
M  V30 12678 N 1172.13 0.454803 1.50895 0
M  V30 12679 C 1173.38 -0.107367 2.01414 0
M  V30 12680 C 1173.7 -1.42243 1.34262 0
M  V30 12681 O 1174.9 -2.06858 1.75846 0
M  V30 12682 C 1173.36 -0.241872 3.59086 0
M  V30 12683 C 1172.97 1.06379 4.35187 0
M  V30 12684 C 1174.71 -0.756873 4.17698 0
M  V30 12685 C 1172.62 0.893973 5.84604 0
M  V30 12686 H 1171.55 -0.0439003 0.752721 0
M  V30 12687 H 1174.2 0.587225 1.7385 0
M  V30 12688 H 1172.58 -0.999873 3.83169 0
M  V30 12689 H 1173.75 1.83148 4.2284 0
M  V30 12690 H 1172.07 1.50865 3.88109 0
M  V30 12691 H 1174.67 -0.900697 5.27059 0
M  V30 12692 H 1175.01 -1.74397 3.7801 0
M  V30 12693 H 1175.54 -0.0567088 3.9776 0
M  V30 12694 H 1172.28 1.85395 6.28736 0
M  V30 12695 H 1171.8 0.166387 5.99569 0
M  V30 12696 H 1173.48 0.554084 6.44623 0
M  V30 12697 N 1173.61 -1.56489 0.186789 0
M  V30 12698 C 1174.86 -1.96952 -0.453261 0
M  V30 12699 C 1175.18 -1.07451 -1.62725 0
M  V30 12700 O 1174.45 -0.144046 -1.9537 0
M  V30 12701 H 1173.03 -0.727295 -0.170445 0
M  V30 12702 H 1175.69 -1.92999 0.271584 0
M  V30 12703 H 1174.79 -3.01594 -0.802951 0
M  V30 12704 N 1175.09 0.086862 -1.5736 0
M  V30 12705 C 1176.34 0.78884 -1.86504 0
M  V30 12706 C 1176.66 1.78329 -0.77646 0
M  V30 12707 O 1175.92 1.94354 0.229122 0
M  V30 12708 C 1176.22 1.54537 -3.22263 0
M  V30 12709 C 1175.88 0.692284 -4.45554 0
M  V30 12710 C 1174.55 0.45714 -4.79024 0
M  V30 12711 C 1176.9 0.0997695 -5.21105 0
M  V30 12712 C 1174.23 -0.380247 -5.85466 0
M  V30 12713 C 1176.58 -0.724986 -6.28432 0
M  V30 12714 C 1175.24 -0.970144 -6.60412 0
M  V30 12715 H 1174.51 0.288657 -0.682465 0
M  V30 12716 H 1177.16 0.050059 -1.91435 0
M  V30 12717 H 1175.46 2.35594 -3.13053 0
M  V30 12718 H 1177.16 2.09305 -3.42042 0
M  V30 12719 H 1173.75 0.885675 -4.19349 0
M  V30 12720 H 1177.94 0.268583 -4.95573 0
M  V30 12721 H 1173.19 -0.579084 -6.08651 0
M  V30 12722 H 1177.37 -1.19093 -6.86141 0
M  V30 12723 H 1174.99 -1.6208 -7.42721 0
M  V30 12724 N 1176.57 1.53483 0.357892 0
M  V30 12725 C 1177.82 1.69701 1.09754 0
M  V30 12726 C 1178.14 0.455389 1.89608 0
M  V30 12727 O 1177.41 -0.530623 1.88577 0
M  V30 12728 H 1175.99 0.62562 0.408178 0
M  V30 12729 H 1178.65 1.90696 0.402641 0
M  V30 12730 H 1177.74 2.56154 1.78302 0
M  V30 12731 N 1178.05 -0.61812 1.44973 0
M  V30 12732 C 1179.27 -1.40921 1.52171 0
M  V30 12733 C 1179.7 -1.87487 0.151755 0
M  V30 12734 O 1179.05 -1.59518 -0.861606 0
M  V30 12735 C 1179.1 -2.59689 2.50188 0
M  V30 12736 O 1178.21 -3.59967 2.0124 0
M  V30 12737 H 1177.55 -0.421138 0.51336 0
M  V30 12738 H 1180.08 -0.753258 1.90229 0
M  V30 12739 H 1180.09 -3.07069 2.6865 0
M  V30 12740 H 1178.76 -2.25144 3.4969 0
M  V30 12741 H 1177.34 -3.19308 1.92605 0
M  V30 12742 N 1179.52 -1.32087 -0.859693 0
M  V30 12743 C 1180.8 -1.12984 -1.59668 0
M  V30 12744 C 1181.18 0.311661 -2.08787 0
M  V30 12745 O 1180.53 1.30746 -1.87397 0
M  V30 12746 C 1180.74 -2.15305 -2.74672 0
M  V30 12747 C 1182.09 -2.48371 -3.44379 0
M  V30 12748 O 1183.11 -2.13811 -2.84891 0
M  V30 12749 O 1181.97 -3.07594 -4.51717 0
M  V30 12750 H 1179.06 -0.435657 -0.702945 0
M  V30 12751 H 1181.61 -1.43601 -0.90426 0
M  V30 12752 H 1180.38 -3.12223 -2.35866 0
M  V30 12753 H 1180 -1.85653 -3.51594 0
M  V30 12754 N 1181 1.07532 -1.15215 0
M  V30 12755 C 1181.93 2.1406 -0.7908 0
M  V30 12756 C 1182.91 1.60938 0.231922 0
M  V30 12757 O 1184.1 1.88125 0.118906 0
M  V30 12758 C 1181.22 3.38244 -0.175633 0
M  V30 12759 C 1180.27 4.10139 -1.16996 0
M  V30 12760 S 1181.1 4.61795 -2.71119 0
M  V30 12761 C 1182.26 5.89256 -2.11016 0
M  V30 12762 H 1182.49 2.44381 -1.69308 0
M  V30 12763 H 1180.02 1.19777 -0.974308 0
M  V30 12764 H 1181.98 4.10136 0.172859 0
M  V30 12765 H 1180.64 3.06104 0.704211 0
M  V30 12766 H 1179.84 4.99286 -0.687714 0
M  V30 12767 H 1179.44 3.44203 -1.46289 0
M  V30 12768 H 1181.73 6.61336 -1.47109 0
M  V30 12769 H 1182.67 6.42191 -2.98322 0
M  V30 12770 H 1183.08 5.4269 -1.55394 0
M  V30 12771 N 1182.48 0.948665 1.2585 0
M  V30 12772 C 1183.73 0.601125 1.93686 0
M  V30 12773 C 1184.06 -0.858779 1.7418 0
M  V30 12774 O 1183.33 -1.61539 1.0833 0
M  V30 12775 C 1183.62 0.95333 3.47252 0
M  V30 12776 C 1183.47 2.46853 3.7601 0
M  V30 12777 C 1184.79 0.474098 4.37539 0
M  V30 12778 H 1181.91 0.219864 0.703441 0
M  V30 12779 H 1184.55 1.18424 1.48579 0
M  V30 12780 H 1182.7 0.457114 3.85801 0
M  V30 12781 H 1184.37 3.03804 3.47132 0
M  V30 12782 H 1182.62 2.9088 3.21825 0
M  V30 12783 H 1183.29 2.66547 4.83381 0
M  V30 12784 H 1185.76 0.899664 4.06258 0
M  V30 12785 H 1184.64 0.749287 5.43762 0
M  V30 12786 H 1184.9 -0.625961 4.37646 0
M  V30 12787 N 1183.96 -1.40369 0.716545 0
M  V30 12788 C 1185.37 -1.54757 0.390202 0
M  V30 12789 C 1185.57 -1.68767 -1.10091 0
M  V30 12790 O 1184.63 -1.67779 -1.88697 0
M  V30 12791 C 1185.94 -2.77546 1.15709 0
M  V30 12792 C 1187.49 -2.91364 1.14349 0
M  V30 12793 C 1187.97 -4.17068 1.89256 0
M  V30 12794 N 1189.46 -4.2407 1.8633 0
M  V30 12795 C 1190.19 -5.20243 2.41112 0
M  V30 12796 N 1189.69 -6.22318 3.04454 0
M  V30 12797 N 1191.48 -5.12328 2.31249 0
M  V30 12798 H 1183.63 -1.29521 1.68339 0
M  V30 12799 H 1185.9 -0.626382 0.711582 0
M  V30 12800 H 1185.6 -2.73474 2.21144 0
M  V30 12801 H 1185.48 -3.69682 0.749347 0
M  V30 12802 H 1187.86 -2.94939 0.0973383 0
M  V30 12803 H 1187.94 -2.00344 1.59047 0
M  V30 12804 H 1187.59 -4.14255 2.93863 0
M  V30 12805 H 1187.52 -5.07099 1.41978 0
M  V30 12806 H 1190.01 -3.50944 1.40168 0
M  V30 12807 H 1190.32 -6.92129 3.43769 0
M  V30 12808 H 1188.67 -6.22759 3.08538 0
M  V30 12809 H 1191.86 -4.31514 1.8142 0
M  V30 12810 H 1192.03 -5.87107 2.74243 0
M  V30 12811 N 1185.44 -0.462799 -1.50652 0
M  V30 12812 C 1186.68 0.0951853 -2.02576 0
M  V30 12813 C 1187.02 1.40113 -1.34469 0
M  V30 12814 O 1186.29 1.88793 -0.467702 0
M  V30 12815 C 1186.57 0.287603 -3.5895 0
M  V30 12816 C 1186.43 -1.03878 -4.37641 0
M  V30 12817 C 1187.75 1.04593 -4.27491 0
M  V30 12818 H 1184.86 0.0331191 -0.736255 0
M  V30 12819 H 1187.51 -0.606772 -1.80051 0
M  V30 12820 H 1185.66 0.885514 -3.78274 0
M  V30 12821 H 1187.33 -1.67263 -4.29908 0
M  V30 12822 H 1185.57 -1.6374 -4.01711 0
M  V30 12823 H 1186.24 -0.857889 -5.45293 0
M  V30 12824 H 1188.72 0.539213 -4.12591 0
M  V30 12825 H 1187.59 1.14935 -5.36732 0
M  V30 12826 H 1187.86 2.08045 -3.90089 0
M  V30 12827 N 1186.91 1.56388 -0.195085 0
M  V30 12828 C 1187.86 2.15705 0.738595 0
M  V30 12829 C 1188.85 1.09782 1.1763 0
M  V30 12830 O 1190.04 1.35844 1.1347 0
M  V30 12831 C 1187.17 2.81994 1.95791 0
M  V30 12832 C 1186.26 3.95108 1.54111 0
M  V30 12833 N 1186.65 4.98856 0.835261 0
M  V30 12834 C 1184.94 4.06709 1.8304 0
M  V30 12835 C 1185.65 5.78317 0.626417 0
M  V30 12836 N 1184.62 5.30746 1.17513 0
M  V30 12837 H 1188.42 2.93281 0.190597 0
M  V30 12838 H 1185.94 1.62399 0.00470391 0
M  V30 12839 H 1187.93 3.22883 2.63728 0
M  V30 12840 H 1186.59 2.05906 2.51063 0
M  V30 12841 H 1187.61 5.1557 0.490732 0
M  V30 12842 H 1184.28 3.41749 2.39821 0
M  V30 12843 H 1185.67 6.71867 0.0664935 0
M  V30 12844 N 1188.39 -0.0785156 1.57404 0
M  V30 12845 C 1189.67 -0.811557 1.77969 0
M  V30 12846 C 1190.05 -1.96123 0.780966 0
M  V30 12847 O 1189.4 -2.27731 -0.18726 0
M  V30 12848 C 1189.61 -1.29075 3.24254 0
M  V30 12849 C 1190.96 -1.72685 3.87898 0
M  V30 12850 O 1191.98 -1.38658 3.28104 0
M  V30 12851 O 1190.84 -2.3566 4.93079 0
M  V30 12852 H 1187.93 -0.388361 0.73014 0
M  V30 12853 H 1190.48 -0.0591118 1.69597 0
M  V30 12854 H 1189.25 -0.467813 3.88494 0
M  V30 12855 H 1188.87 -2.10472 3.37324 0
M  V30 12856 N 1189.87 -1.5367 -0.349747 0
M  V30 12857 C 1191.12 -1.7087 -1.0923 0
M  V30 12858 C 1191.45 -0.467299 -1.88494 0
M  V30 12859 O 1190.72 0.535619 -1.8698 0
M  V30 12860 C 1191.01 -2.9684 -2.03858 0
M  V30 12861 C 1190.86 -4.31174 -1.28097 0
M  V30 12862 C 1192.18 -3.18459 -3.03763 0
M  V30 12863 H 1189.3 -0.621757 -0.395711 0
M  V30 12864 H 1191.94 -1.86333 -0.371481 0
M  V30 12865 H 1190.09 -2.83788 -2.65323 0
M  V30 12866 H 1191.76 -4.56066 -0.692933 0
M  V30 12867 H 1190.01 -4.29866 -0.582924 0
M  V30 12868 H 1190.68 -5.15482 -1.9744 0
M  V30 12869 H 1193.15 -3.30801 -2.52409 0
M  V30 12870 H 1192.03 -4.08006 -3.67182 0
M  V30 12871 H 1192.29 -2.34467 -3.74803 0
M  V30 12872 N 1191.35 0.610423 -1.45298 0
M  V30 12873 C 1192.3 1.7213 -1.53753 0
M  V30 12874 C 1193.27 1.61609 -0.383632 0
M  V30 12875 O 1194.45 1.8123 -0.596694 0
M  V30 12876 C 1191.59 3.10433 -1.50749 0
M  V30 12877 C 1190.7 3.3178 -2.76669 0
M  V30 12878 C 1189.84 4.60173 -2.65356 0
M  V30 12879 C 1188.88 4.74769 -3.86343 0
M  V30 12880 N 1188.01 5.94459 -3.73581 0
M  V30 12881 H 1192.85 1.64239 -2.48655 0
M  V30 12882 H 1190.39 0.800879 -1.23387 0
M  V30 12883 H 1192.35 3.90446 -1.46996 0
M  V30 12884 H 1190.98 3.17288 -0.593998 0
M  V30 12885 H 1190.03 2.45563 -2.90522 0
M  V30 12886 H 1191.34 3.38439 -3.66416 0
M  V30 12887 H 1190.5 5.48377 -2.59553 0
M  V30 12888 H 1189.24 4.55907 -1.73204 0
M  V30 12889 H 1188.24 3.8499 -3.92509 0
M  V30 12890 H 1189.47 4.80834 -4.79557 0
M  V30 12891 H 1187.41 5.91243 -2.84196 0
M  V30 12892 H 1187.33 6.02265 -4.5696 0
M  V30 12893 H 1188.6 6.85168 -3.71705 0
M  V30 12894 N 1192.83 1.32541 0.852676 0
M  V30 12895 C 1193.77 1.21602 1.98282 0
M  V30 12896 C 1194.77 0.120384 1.68972 0
M  V30 12897 O 1195.97 0.283441 1.77754 0
M  V30 12898 H 1192.35 0.376994 0.650676 0
M  V30 12899 H 1194.32 2.17179 2.04636 0
M  V30 12900 C 1193.07 0.957965 3.34243 0
M  V30 12901 H 1192.39 1.79324 3.57327 0
M  V30 12902 H 1193.83 0.921673 4.13861 0
M  V30 12903 C 1192.29 -0.339271 3.35187 0
M  V30 12904 O 1192.82 -1.3505 3.78318 0
M  V30 12905 N 1191.03 -0.361944 2.88337 0
M  V30 12906 H 1190.57 0.461497 2.53432 0
M  V30 12907 H 1190.53 -1.22976 2.89352 0
M  V30 12908 N 1194.3 -1.0692 1.15784 0
M  V30 12909 C 1195.54 -1.8119 0.946018 0
M  V30 12910 C 1195.91 -1.84899 -0.517338 0
M  V30 12911 O 1197.11 -2.55085 -0.847643 0
M  V30 12912 C 1195.38 -3.22102 1.54871 0
M  V30 12913 S 1196.94 -4.13065 1.48063 0
M  V30 12914 H 1193.76 -0.62424 0.340361 0
M  V30 12915 H 1196.36 -1.28411 1.47414 0
M  V30 12916 H 1195.06 -3.16994 2.60659 0
M  V30 12917 H 1194.59 -3.79956 1.01965 0
M  V30 12918 H 1196.61 -4.93907 0.476517 0
M  V30 12919 N 1195.78 -0.955326 -1.25345 0
M  V30 12920 C 1197.01 -0.627233 -1.97688 0
M  V30 12921 C 1197.43 0.793973 -1.70522 0
M  V30 12922 O 1196.79 1.537 -0.961556 0
M  V30 12923 C 1196.84 -0.892969 -3.49369 0
M  V30 12924 O 1195.94 0.0278871 -4.12391 0
M  V30 12925 H 1195.28 -0.238402 -0.619726 0
M  V30 12926 H 1197.81 -1.28211 -1.59446 0
M  V30 12927 H 1197.82 -0.819517 -3.99685 0
M  V30 12928 H 1196.5 -1.92879 -3.6847 0
M  V30 12929 H 1195.08 -0.0978295 -3.72772 0
M  V30 12930 N 1197.26 1.39987 -0.723979 0
M  V30 12931 C 1198.21 2.30672 -0.0768286 0
M  V30 12932 C 1199.18 1.48634 0.741422 0
M  V30 12933 O 1200.36 1.77351 0.703649 0
M  V30 12934 C 1197.5 3.34902 0.832729 0
M  V30 12935 C 1196.62 4.32 0.00304942 0
M  V30 12936 C 1195.75 5.23298 0.91286 0
M  V30 12937 C 1194.79 6.12051 0.0777706 0
M  V30 12938 N 1193.93 6.9574 0.942912 0
M  V30 12939 H 1198.77 2.85446 -0.855832 0
M  V30 12940 H 1196.3 1.40561 -0.433718 0
M  V30 12941 H 1198.26 3.93911 1.37441 0
M  V30 12942 H 1196.89 2.81611 1.57782 0
M  V30 12943 H 1195.94 3.74702 -0.655916 0
M  V30 12944 H 1197.26 4.94637 -0.643124 0
M  V30 12945 H 1196.41 5.87279 1.52277 0
M  V30 12946 H 1195.15 4.60956 1.59284 0
M  V30 12947 H 1194.15 5.47092 -0.545022 0
M  V30 12948 H 1195.38 6.76455 -0.598827 0
M  V30 12949 H 1193.33 6.35977 1.60838 0
M  V30 12950 H 1193.24 7.55176 0.352968 0
M  V30 12951 H 1194.51 7.64162 1.53874 0
M  V30 12952 N 1198.74 0.470782 1.50404 0
M  V30 12953 C 1199.96 -0.084284 2.07229 0
M  V30 12954 C 1200.39 -1.32774 1.33239 0
M  V30 12955 O 1199.75 -1.77274 0.379971 0
M  V30 12956 C 1199.8 -0.351565 3.58882 0
M  V30 12957 O 1198.9 -1.43211 3.86736 0
M  V30 12958 H 1198.24 0.0128479 0.663876 0
M  V30 12959 H 1200.77 0.661735 1.93603 0
M  V30 12960 H 1200.78 -0.592151 4.0368 0
M  V30 12961 H 1199.46 0.557084 4.12152 0
M  V30 12962 H 1198.03 -1.17886 3.53776 0
M  V30 12963 N 1200.22 -1.56282 0.203376 0
M  V30 12964 C 1201.47 -1.96987 -0.433461 0
M  V30 12965 C 1201.78 -1.09344 -1.62183 0
M  V30 12966 O 1202.99 -1.39868 -2.327 0
M  V30 12967 C 1201.44 -3.50374 -0.82257 0
M  V30 12968 C 1201.05 -4.46693 0.341969 0
M  V30 12969 C 1202.79 -3.99831 -1.42603 0
M  V30 12970 C 1200.7 -5.9136 -0.0685608 0
M  V30 12971 H 1199.63 -0.735564 -0.165717 0
M  V30 12972 H 1202.28 -1.81085 0.296708 0
M  V30 12973 H 1200.66 -3.6181 -1.60964 0
M  V30 12974 H 1201.84 -4.46994 1.11952 0
M  V30 12975 H 1200.15 -4.07476 0.857463 0
M  V30 12976 H 1202.75 -5.05398 -1.74577 0
M  V30 12977 H 1203.09 -3.4462 -2.33544 0
M  V30 12978 H 1203.63 -3.91543 -0.702758 0
M  V30 12979 H 1200.36 -6.50515 0.80688 0
M  V30 12980 H 1199.88 -5.94295 -0.810798 0
M  V30 12981 H 1201.56 -6.45053 -0.501525 0
M  V30 12982 N 1201.7 0.070167 -1.57444 0
M  V30 12983 C 1202.64 1.08322 -2.03801 0
M  V30 12984 C 1203.61 1.38364 -0.918946 0
M  V30 12985 O 1204.8 1.49404 -1.18672 0
M  V30 12986 C 1201.94 2.39128 -2.48821 0
M  V30 12987 C 1201.05 2.15603 -3.74352 0
M  V30 12988 C 1200.19 3.39984 -4.08148 0
M  V30 12989 C 1199.22 3.1183 -5.26715 0
M  V30 12990 N 1198.36 4.28546 -5.56141 0
M  V30 12991 H 1203.2 0.680931 -2.90116 0
M  V30 12992 H 1200.74 0.324657 -1.43473 0
M  V30 12993 H 1202.7 3.15501 -2.72975 0
M  V30 12994 H 1201.33 2.77157 -1.65481 0
M  V30 12995 H 1200.38 1.29915 -3.57528 0
M  V30 12996 H 1201.69 1.90808 -4.60862 0
M  V30 12997 H 1200.84 4.2475 -4.33211 0
M  V30 12998 H 1199.58 3.67856 -3.20208 0
M  V30 12999 H 1198.59 2.2546 -5.01446 0
M  V30 13000 H 1199.81 2.85278 -6.16273 0
M  V30 13001 H 1197.76 4.56447 -4.71161 0
M  V30 13002 H 1197.68 4.0703 -6.37073 0
M  V30 13003 H 1198.94 5.14305 -5.85757 0
M  V30 13004 N 1203.17 1.53854 0.341593 0
M  V30 13005 C 1204.1 1.84966 1.42513 0
M  V30 13006 C 1205.08 0.704944 1.54805 0
M  V30 13007 O 1206.27 0.957036 1.68981 0
M  V30 13008 C 1203.4 2.06099 2.79536 0
M  V30 13009 C 1202.35 3.21919 2.82049 0
M  V30 13010 C 1201.68 3.28389 4.21977 0
M  V30 13011 C 1202.98 4.59984 2.4741 0
M  V30 13012 H 1204.67 2.7571 1.16724 0
M  V30 13013 H 1202.22 1.32662 0.560073 0
M  V30 13014 H 1204.17 2.26448 3.55386 0
M  V30 13015 H 1202.9 1.12087 3.06764 0
M  V30 13016 H 1201.56 3.01429 2.08653 0
M  V30 13017 H 1201.2 2.3197 4.46317 0
M  V30 13018 H 1200.9 4.0622 4.24569 0
M  V30 13019 H 1202.43 3.50951 4.99666 0
M  V30 13020 H 1203.84 4.80334 3.12973 0
M  V30 13021 H 1202.24 5.40233 2.61282 0
M  V30 13022 H 1203.31 4.6346 1.42594 0
M  V30 13023 N 1204.65 -0.602709 1.4562 0
M  V30 13024 C 1205.61 -1.69508 1.54271 0
M  V30 13025 C 1206.61 -1.55171 0.421727 0
M  V30 13026 O 1207.8 -1.60151 0.685375 0
M  V30 13027 C 1204.94 -3.0881 1.44392 0
M  V30 13028 H 1206.13 -1.63203 2.51605 0
M  V30 13029 H 1203.68 -0.818857 1.33133 0
M  V30 13030 H 1204.42 -3.20689 0.482614 0
M  V30 13031 H 1204.2 -3.20625 2.25704 0
M  V30 13032 H 1205.69 -3.8837 1.53488 0
M  V30 13033 N 1206.13 -1.32992 -0.845635 0
M  V30 13034 C 1207.41 -1.14671 -1.58461 0
M  V30 13035 C 1207.79 0.289498 -2.09106 0
M  V30 13036 O 1207.13 1.28751 -1.88773 0
M  V30 13037 C 1207.34 -2.18206 -2.72373 0
M  V30 13038 C 1208.69 -2.5201 -3.41726 0
M  V30 13039 O 1209.72 -2.16821 -2.82608 0
M  V30 13040 O 1208.58 -3.12368 -4.48429 0
M  V30 13041 H 1205.67 -0.443088 -0.698285 0
M  V30 13042 H 1208.22 -1.44552 -0.888978 0
M  V30 13043 H 1206.99 -3.14707 -2.32541 0
M  V30 13044 H 1206.61 -1.89372 -3.49605 0
M  V30 13045 N 1207.61 1.06304 -1.1635 0
M  V30 13046 C 1208.57 2.11947 -0.872419 0
M  V30 13047 C 1209.57 1.60253 0.132534 0
M  V30 13048 O 1210.76 1.73922 -0.0983441 0
M  V30 13049 C 1207.89 3.39536 -0.304646 0
M  V30 13050 H 1209.09 2.39201 -1.80894 0
M  V30 13051 H 1206.64 1.22367 -0.972419 0
M  V30 13052 H 1207.37 3.17931 0.639565 0
M  V30 13053 H 1207.16 3.78363 -1.02878 0
M  V30 13054 H 1208.65 4.17431 -0.118936 0
M  V30 13055 N 1209.09 0.96196 1.24836 0
M  V30 13056 C 1210.33 0.616342 1.92052 0
M  V30 13057 C 1210.65 -0.851601 1.76088 0
M  V30 13058 O 1211.85 -1.3075 2.37943 0
M  V30 13059 C 1210.31 1.05168 3.44191 0
M  V30 13060 C 1209.92 2.54268 3.68852 0
M  V30 13061 C 1211.66 0.778938 4.17292 0
M  V30 13062 C 1209.57 2.91564 5.14533 0
M  V30 13063 H 1208.5 0.22681 0.719078 0
M  V30 13064 H 1211.15 1.1674 1.41577 0
M  V30 13065 H 1209.53 0.428979 3.9367 0
M  V30 13066 H 1210.71 3.21619 3.29997 0
M  V30 13067 H 1209.02 2.79091 3.09026 0
M  V30 13068 H 1211.62 1.03366 5.24614 0
M  V30 13069 H 1211.96 -0.284772 4.15325 0
M  V30 13070 H 1212.49 1.36233 3.73745 0
M  V30 13071 H 1209.23 3.96982 5.21618 0
M  V30 13072 H 1208.75 2.28892 5.54408 0
M  V30 13073 H 1210.43 2.81155 5.82718 0
M  V30 13074 N 1210.56 -1.39601 0.731392 0
M  V30 13075 C 1211.79 -2.0459 0.287472 0
M  V30 13076 C 1212.2 -1.5525 -1.08139 0
M  V30 13077 O 1211.54 -0.710949 -1.69385 0
M  V30 13078 C 1211.61 -3.58904 0.206948 0
M  V30 13079 C 1211.27 -4.31204 1.51368 0
M  V30 13080 C 1212.27 -4.58088 2.45869 0
M  V30 13081 C 1209.95 -4.69818 1.77698 0
M  V30 13082 C 1211.95 -5.22591 3.64935 0
M  V30 13083 C 1209.63 -5.34049 2.97043 0
M  V30 13084 C 1210.63 -5.60368 3.90483 0
M  V30 13085 O 1210.32 -6.23268 5.07732 0
M  V30 13086 H 1210.05 -0.664515 0.12408 0
M  V30 13087 H 1212.61 -1.79701 0.994814 0
M  V30 13088 H 1210.84 -3.82675 -0.556466 0
M  V30 13089 H 1212.52 -4.05385 -0.204498 0
M  V30 13090 H 1213.29 -4.28706 2.26796 0
M  V30 13091 H 1209.17 -4.48692 1.05815 0
M  V30 13092 H 1212.71 -5.43049 4.37885 0
M  V30 13093 H 1208.61 -5.62852 3.16018 0
M  V30 13094 H 1209.38 -6.41763 5.08019 0
M  V30 13095 N 1212.04 -0.478751 -1.50152 0
M  V30 13096 C 1212.99 0.311426 -2.28689 0
M  V30 13097 C 1213.96 0.980375 -1.34082 0
M  V30 13098 O 1215.14 0.991337 -1.63025 0
M  V30 13099 C 1212.28 1.38302 -3.16175 0
M  V30 13100 C 1211.4 0.728084 -4.2582 0
M  V30 13101 C 1210.53 1.77822 -5.00552 0
M  V30 13102 C 1209.57 1.10395 -6.02063 0
M  V30 13103 N 1208.71 2.09728 -6.70044 0
M  V30 13104 H 1213.55 -0.364592 -2.95761 0
M  V30 13105 H 1211.09 -0.191645 -1.45846 0
M  V30 13106 H 1213.04 2.01606 -3.65255 0
M  V30 13107 H 1211.67 2.0281 -2.51133 0
M  V30 13108 H 1210.73 -0.0177026 -3.80396 0
M  V30 13109 H 1212.04 0.196209 -4.98414 0
M  V30 13110 H 1211.19 2.48687 -5.53389 0
M  V30 13111 H 1209.93 2.34392 -4.27682 0
M  V30 13112 H 1208.94 0.38096 -5.48479 0
M  V30 13113 H 1210.16 0.545045 -6.76909 0
M  V30 13114 H 1208.11 2.65301 -5.9996 0
M  V30 13115 H 1208.02 1.61546 -7.38538 0
M  V30 13116 H 1209.29 2.7995 -7.27495 0
M  V30 13117 N 1213.52 1.56172 -0.211661 0
M  V30 13118 C 1214.77 1.97648 0.421871 0
M  V30 13119 C 1215.09 1.10026 1.60995 0
M  V30 13120 O 1214.36 0.175109 1.95116 0
M  V30 13121 H 1212.94 0.729914 0.158852 0
M  V30 13122 H 1215.6 1.92542 -0.302254 0
M  V30 13123 H 1214.7 3.02834 0.754868 0
M  V30 13124 N 1215 -0.0618163 1.57479 0
M  V30 13125 C 1215.93 -1.07252 2.07411 0
M  V30 13126 C 1216.91 -1.39756 0.969649 0
M  V30 13127 O 1218.09 -1.4921 1.24298 0
M  V30 13128 C 1215.22 -2.38313 2.52635 0
M  V30 13129 C 1214.18 -2.20136 3.67048 0
M  V30 13130 C 1213.5 -3.56668 3.98361 0
M  V30 13131 C 1214.8 -1.61437 4.96725 0
M  V30 13132 H 1216.5 -0.656983 2.92103 0
M  V30 13133 H 1214.04 -0.314579 1.40522 0
M  V30 13134 H 1216 -3.09319 2.86181 0
M  V30 13135 H 1214.72 -2.81865 1.64984 0
M  V30 13136 H 1213.38 -1.51569 3.338 0
M  V30 13137 H 1213.03 -3.97809 3.07826 0
M  V30 13138 H 1212.73 -3.45342 4.75408 0
M  V30 13139 H 1214.25 -4.2909 4.34413 0
M  V30 13140 H 1215.67 -2.2232 5.28438 0
M  V30 13141 H 1214.06 -1.60779 5.78161 0
M  V30 13142 H 1215.13 -0.576795 4.81457 0
M  V30 13143 N 1216.48 -1.54033 -0.333429 0
M  V30 13144 C 1217.39 -1.85737 -1.43314 0
M  V30 13145 C 1218.4 -0.748398 -1.57083 0
M  V30 13146 O 1219.58 -1.04171 -1.72367 0
M  V30 13147 C 1216.64 -2.06942 -2.78165 0
M  V30 13148 C 1215.7 -3.30774 -2.73655 0
M  V30 13149 C 1214.94 -3.50957 -4.02075 0
M  V30 13150 O 1215.16 -2.74774 -4.99855 0
M  V30 13151 O 1214.09 -4.44412 -4.05933 0
M  V30 13152 H 1217.92 -2.7923 -1.19434 0
M  V30 13153 H 1215.51 -1.39814 -0.526546 0
M  V30 13154 H 1217.39 -2.22276 -3.58011 0
M  V30 13155 H 1216.06 -1.16638 -3.01956 0
M  V30 13156 H 1214.97 -3.20835 -1.92395 0
M  V30 13157 H 1216.3 -4.21103 -2.54819 0
M  V30 13158 O 1217.99 0.479395 -1.54221 0
M  V30 13159 H 1218.68 1.13393 -1.5704 0
M  V30 END ATOM
M  V30 BEGIN BOND
M  V30 END BOND
M  V30 END CTAB
M  END
$$$$
