drugbank_target|P54289 Voltage-dependent calcium channel subunit alpha-2/delta-1 (DB00230; DB00270; DB00308; DB00401; DB00622; DB00996; DB01023; DB01054; DB04838; DB06712; DB08872)
 OpenBabel12092119373D

  0  0  0     0  0            999 V3000
M  V30 BEGIN CTAB
M  V30 COUNTS 17392 17586 0 0 0
M  V30 BEGIN ATOM
M  V30 1 H -0.908 1.98254 -0.117106 0
M  V30 2 N 0 1.576 0 0
M  V30 3 C 0.933 2.03868 1.02534 0
M  V30 4 C 1.911 0.928543 1.3348 0
M  V30 5 O 3.095 1.19667 1.45644 0
M  V30 6 C 0.222 2.43627 2.35294 0
M  V30 7 C -0.732 3.65373 2.2001 0
M  V30 8 S 0.101 5.13292 1.52614 0
M  V30 9 C 1.257 5.56322 2.86805 0
M  V30 10 H 1.49 2.90518 0.631377 0
M  V30 11 H -0.977 1.52953 0.210867 0
M  V30 12 H 0.981 2.67203 3.11629 0
M  V30 13 H -0.358 1.57376 2.7183 0
M  V30 14 H -1.165 3.90944 3.18086 0
M  V30 15 H -1.563 3.418 1.51819 0
M  V30 16 H 0.729 5.58782 3.83104 0
M  V30 17 H 1.672 6.56266 2.65933 0
M  V30 18 H 2.08 4.83886 2.90714 0
M  V30 19 N 1.4781 -0.272755 1.55222 0
M  V30 20 C 2.4411 -1.32041 1.87344 0
M  V30 21 C 3.4411 -1.42342 0.74803 0
M  V30 22 O 4.6311 -1.41488 1.0162 0
M  V30 23 C 1.7631 -2.70173 2.07893 0
M  V30 24 H 2.9561 -1.04789 2.80997 0
M  V30 25 H 0.5091 -0.51083 1.47717 0
M  V30 26 H 1.2441 -3.02605 1.16622 0
M  V30 27 H 1.0291 -2.64082 2.89833 0
M  V30 28 H 2.5191 -3.45869 2.34017 0
M  V30 29 N 2.9562 -1.48159 -0.537278 0
M  V30 30 C 3.9192 -1.61665 -1.62472 0
M  V30 31 C 4.9192 -0.490395 -1.5314 0
M  V30 32 O 6.1092 -0.755998 -1.5694 0
M  V30 33 C 3.2412 -1.57997 -3.02076 0
M  V30 34 H 4.4342 -2.58621 -1.51839 0
M  V30 35 H 1.9872 -1.36647 -0.758771 0
M  V30 36 H 2.7222 -0.624913 -3.18222 0
M  V30 37 H 2.5072 -2.39755 -3.10258 0
M  V30 38 H 3.9972 -1.70627 -3.81151 0
M  V30 39 N 4.4343 0.785586 -1.36625 0
M  V30 40 C 5.6823 1.54057 -1.30808 0
M  V30 41 C 6.0033 1.94683 0.111157 0
M  V30 42 O 5.2733 1.65241 1.05224 0
M  V30 43 H 3.8533 0.571354 -0.481211 0
M  V30 44 H 6.5153 0.935821 -1.70963 0
M  V30 45 H 5.6113 2.44637 -1.93801 0
M  V30 46 N 5.9124 1.20967 1.01018 0
M  V30 47 C 7.1524 1.03511 1.76252 0
M  V30 48 C 7.5164 -0.42458 1.87247 0
M  V30 49 O 8.7174 -0.719508 2.58991 0
M  V30 50 C 6.9884 1.70726 3.13986 0
M  V30 51 S 8.5474 1.68458 4.05176 0
M  V30 52 H 5.3654 0.371037 0.606508 0
M  V30 53 H 7.9674 1.53628 1.20908 0
M  V30 54 H 6.6714 2.76128 3.03614 0
M  V30 55 H 6.2024 1.20767 3.74405 0
M  V30 56 H 8.2174 0.721987 4.90919 0
M  V30 57 N 7.3905 -1.2043 1.01659 0
M  V30 58 C 8.3205 -2.25466 0.607226 0
M  V30 59 C 9.3015 -1.65853 -0.377716 0
M  V30 60 O 10.4865 -1.92409 -0.263149 0
M  V30 61 C 7.6165 -3.47256 -0.0552949 0
M  V30 62 C 6.5705 -4.19462 0.850632 0
M  V30 63 C 5.8965 -5.34673 0.0538859 0
M  V30 64 C 7.1965 -4.75603 2.15868 0
M  V30 65 H 8.8905 -2.59962 1.48526 0
M  V30 66 H 6.4365 -1.2496 0.715605 0
M  V30 67 H 8.3895 -4.19917 -0.353233 0
M  V30 68 H 7.1135 -3.11924 -0.968045 0
M  V30 69 H 5.7725 -3.48667 1.13257 0
M  V30 70 H 5.4205 -4.95585 -0.860514 0
M  V30 71 H 5.1205 -5.83913 0.657192 0
M  V30 72 H 6.6445 -6.10138 -0.237598 0
M  V30 73 H 8.0585 -5.40083 1.92311 0
M  V30 74 H 6.4555 -5.3528 2.71284 0
M  V30 75 H 7.5255 -3.94346 2.82169 0
M  V30 76 N 8.8686 -0.792821 -1.36206 0
M  V30 77 C 9.7986 -0.207853 -2.32573 0
M  V30 78 C 10.7796 0.659055 -1.56813 0
M  V30 79 O 11.9646 0.592176 -1.84951 0
M  V30 80 C 9.0946 0.655449 -3.41059 0
M  V30 81 C 8.0486 -0.111842 -4.27854 0
M  V30 82 C 7.3746 0.872274 -5.27537 0
M  V30 83 C 8.6746 -1.30299 -5.05786 0
M  V30 84 H 10.3686 -1.01294 -2.81744 0
M  V30 85 H 7.9146 -0.48854 -1.3546 0
M  V30 86 H 9.8676 1.07464 -4.07467 0
M  V30 87 H 8.5916 1.49328 -2.90463 0
M  V30 88 H 7.2506 -0.512053 -3.63006 0
M  V30 89 H 6.8986 1.70523 -4.73214 0
M  V30 90 H 6.5986 0.363291 -5.86476 0
M  V30 91 H 8.1226 1.28996 -5.96818 0
M  V30 92 H 9.5366 -0.959379 -5.65216 0
M  V30 93 H 7.9336 -1.7455 -5.74154 0
M  V30 94 H 9.0036 -2.09663 -4.37229 0
M  V30 95 N 10.3467 1.47872 -0.545128 0
M  V30 96 C 11.3097 2.28337 0.198717 0
M  V30 97 C 12.3097 1.36255 0.853888 0
M  V30 98 O 13.4997 1.59003 0.711606 0
M  V30 99 C 10.6317 3.15585 1.28915 0
M  V30 100 H 11.8247 2.95567 -0.507941 0
M  V30 101 H 9.3777 1.53362 -0.301616 0
M  V30 102 H 10.1127 2.53019 2.02859 0
M  V30 103 H 9.8977 3.83337 0.824309 0
M  V30 104 H 11.3877 3.76243 1.81194 0
M  V30 105 N 11.8248 0.280983 1.55075 0
M  V30 106 C 12.7548 -0.597469 2.25727 0
M  V30 107 C 13.7358 -1.15417 1.24952 0
M  V30 108 O 14.9208 -1.18722 1.53684 0
M  V30 109 C 12.0508 -1.7789 2.98283 0
M  V30 110 C 11.0048 -1.35347 4.06036 0
M  V30 111 C 10.3308 -2.61846 4.66198 0
M  V30 112 C 11.6308 -0.499354 5.19907 0
M  V30 113 H 13.3248 -0.00824265 2.99399 0
M  V30 114 H 10.8708 -0.0025244 1.44 0
M  V30 115 H 12.8238 -2.39937 3.46422 0
M  V30 116 H 11.5478 -2.39405 2.22155 0
M  V30 117 H 10.2068 -0.756156 3.58717 0
M  V30 118 H 9.8548 -3.21632 3.86732 0
M  V30 119 H 9.5548 -2.3409 5.38958 0
M  V30 120 H 11.0788 -3.24732 5.1709 0
M  V30 121 H 12.4928 -1.02498 5.64063 0
M  V30 122 H 10.8898 -0.316424 5.99265 0
M  V30 123 H 11.9598 0.480459 4.82514 0
M  V30 124 N 13.3029 -1.57598 0.00835791 0
M  V30 125 C 14.5309 -1.95214 -0.68549 0
M  V30 126 C 14.9459 -0.883706 -1.66841 0
M  V30 127 O 14.3029 0.136565 -1.81988 0
M  V30 128 C 14.3539 -3.32865 -1.41007 0
M  V30 129 O 14.0749 -4.35609 -0.466552 0
M  V30 130 C 15.5759 -3.84991 -2.19765 0
M  V30 131 H 12.7959 -0.643422 -0.190392 0
M  V30 132 H 15.3399 -2.04406 0.0619607 0
M  V30 133 H 13.4949 -3.24956 -2.10908 0
M  V30 134 H 13.9089 -5.15288 -0.978699 0
M  V30 135 H 15.3829 -4.8371 -2.65948 0
M  V30 136 H 15.8599 -3.18137 -3.02796 0
M  V30 137 H 16.4659 -3.96103 -1.54864 0
M  V30 138 N 14.781 0.264519 -1.55364 0
M  V30 139 C 15.711 1.33121 -1.91836 0
M  V30 140 C 16.692 1.51101 -0.781192 0
M  V30 141 O 17.877 1.64003 -1.04003 0
M  V30 142 C 15.007 2.68921 -2.19769 0
M  V30 143 C 13.961 2.65661 -3.35571 0
M  V30 144 C 13.287 4.05093 -3.49004 0
M  V30 145 C 14.587 2.24187 -4.71739 0
M  V30 146 H 16.281 1.02844 -2.81182 0
M  V30 147 H 13.827 0.493286 -1.35287 0
M  V30 148 H 15.78 3.43663 -2.43872 0
M  V30 149 H 14.504 3.00799 -1.27231 0
M  V30 150 H 13.163 1.93377 -3.1145 0
M  V30 151 H 12.811 4.34206 -2.53917 0
M  V30 152 H 12.511 4.03804 -4.26868 0
M  V30 153 H 14.035 4.81561 -3.75408 0
M  V30 154 H 15.449 2.88654 -4.9533 0
M  V30 155 H 13.846 2.34044 -5.52579 0
M  V30 156 H 14.916 1.19327 -4.69988 0
M  V30 157 N 16.2591 1.48442 0.529413 0
M  V30 158 C 17.4871 1.60151 1.30994 0
M  V30 159 C 17.9021 0.261985 1.86973 0
M  V30 160 O 17.2591 -0.748805 1.66431 0
M  V30 161 C 17.3101 2.64854 2.46038 0
M  V30 162 O 17.0311 3.93608 1.92365 0
M  V30 163 C 18.5321 2.87007 3.37849 0
M  V30 164 H 15.7521 0.539971 0.398338 0
M  V30 165 H 18.2961 1.94273 0.638597 0
M  V30 166 H 16.4511 2.33589 3.09055 0
M  V30 167 H 16.8651 4.51055 2.67675 0
M  V30 168 H 18.3391 3.64068 4.14919 0
M  V30 169 H 18.8161 1.95852 3.93114 0
M  V30 170 H 19.4221 3.19579 2.80623 0
M  V30 171 N 17.7372 -0.778329 1.37039 0
M  V30 172 C 18.6672 -1.90546 1.34962 0
M  V30 173 C 19.6482 -1.68681 0.219274 0
M  V30 174 O 20.8332 -1.89634 0.418624 0
M  V30 175 C 17.9632 -3.27734 1.14925 0
M  V30 176 C 16.9172 -3.64147 2.24902 0
M  V30 177 C 16.2432 -4.99806 1.89996 0
M  V30 178 C 17.5432 -3.71579 3.67051 0
M  V30 179 H 19.2372 -1.92541 2.29277 0
M  V30 180 H 16.7832 -0.924948 1.10366 0
M  V30 181 H 18.7362 -4.06215 1.12104 0
M  V30 182 H 17.4602 -3.26154 0.170631 0
M  V30 183 H 16.1192 -2.8797 2.26868 0
M  V30 184 H 15.7672 -4.94759 0.906796 0
M  V30 185 H 15.4672 -5.25139 2.63634 0
M  V30 186 H 16.9912 -5.80694 1.88749 0
M  V30 187 H 18.4052 -4.40227 3.67251 0
M  V30 188 H 16.8022 -4.08405 4.39688 0
M  V30 189 H 17.8722 -2.72404 4.01154 0
M  V30 190 N 19.2153 -1.21501 -1.00376 0
M  V30 191 C 20.4623 -1.03299 -1.74171 0
M  V30 192 C 20.7903 0.433326 -1.89612 0
M  V30 193 O 20.0453 1.33779 -1.42834 0
M  V30 194 C 20.3443 -1.67673 -3.15627 0
M  V30 195 C 20.0103 -3.17533 -3.2013 0
M  V30 196 C 18.6723 -3.58427 -3.21067 0
M  V30 197 C 21.0243 -4.13504 -3.17275 0
M  V30 198 C 18.3523 -4.93794 -3.16835 0
M  V30 199 C 20.7043 -5.48834 -3.14585 0
M  V30 200 C 19.3683 -5.89123 -3.13831 0
M  V30 201 H 18.6383 -0.377999 -0.637336 0
M  V30 202 H 21.2853 -1.51111 -1.17634 0
M  V30 203 H 19.5903 -1.12158 -3.75404 0
M  V30 204 H 21.2873 -1.51091 -3.71446 0
M  V30 205 H 17.8773 -2.84965 -3.20145 0
M  V30 206 H 22.0613 -3.82936 -3.15711 0
M  V30 207 H 17.3173 -5.24255 -3.1459 0
M  V30 208 H 21.4913 -6.22934 -3.1133 0
M  V30 209 H 19.1183 -6.93984 -3.10307 0
M  V30 210 N 20.6934 1.19889 -1.02296 0
M  V30 211 C 21.6254 2.22334 -0.556787 0
M  V30 212 C 22.6384 1.58674 0.364199 0
M  V30 213 O 23.8274 1.77768 0.161533 0
M  V30 214 C 20.9274 3.38257 0.208694 0
M  V30 215 C 20.1004 4.31504 -0.71577 0
M  V30 216 C 19.1594 5.262 0.00325597 0
M  V30 217 O 18.1854 5.65798 -0.621357 0
M  V30 218 N 19.3874 5.66303 1.27599 0
M  V30 219 H 22.1524 2.62957 -1.43784 0
M  V30 220 H 19.7134 1.34495 -0.901261 0
M  V30 221 H 21.7054 3.98616 0.699111 0
M  V30 222 H 20.2754 2.96472 0.991102 0
M  V30 223 H 19.4954 3.69016 -1.38638 0
M  V30 224 H 20.7834 4.9072 -1.34428 0
M  V30 225 H 20.1814 5.36155 1.80429 0
M  V30 226 H 18.7384 6.28942 1.71102 0
M  V30 227 N 22.1715 0.800033 1.35784 0
M  V30 228 C 23.3965 0.388511 2.03729 0
M  V30 229 C 23.8215 -0.990481 1.5991 0
M  V30 230 O 23.1795 -1.64013 0.772612 0
M  V30 231 C 23.2275 0.4726 3.5749 0
M  V30 232 O 22.3315 -0.51646 4.09153 0
M  V30 233 H 21.6725 0.163271 0.643614 0
M  V30 234 H 24.2025 1.0841 1.73518 0
M  V30 235 H 24.2125 0.34003 4.06581 0
M  V30 236 H 22.8875 1.47848 3.88734 0
M  V30 237 H 21.4645 -0.344673 3.71304 0
M  V30 238 N 23.6496 -1.47581 0.552962 0
M  V30 239 C 24.5796 -2.32762 -0.185451 0
M  V30 240 C 25.5606 -1.43527 -0.912905 0
M  V30 241 O 26.7456 -1.72388 -0.894201 0
M  V30 242 C 23.8756 -3.25219 -1.21859 0
M  V30 243 C 22.8296 -4.23661 -0.607864 0
M  V30 244 C 22.1556 -5.05413 -1.74533 0
M  V30 245 C 23.4556 -5.20481 0.435582 0
M  V30 246 H 25.1496 -2.94749 0.525684 0
M  V30 247 H 22.6956 -1.41738 0.254251 0
M  V30 248 H 24.6486 -3.8365 -1.7433 0
M  V30 249 H 23.3726 -2.61279 -1.95961 0
M  V30 250 H 22.0316 -3.66451 -0.104489 0
M  V30 251 H 21.6796 -4.3788 -2.47529 0
M  V30 252 H 21.3796 -5.72059 -1.34249 0
M  V30 253 H 22.9036 -5.66701 -2.27338 0
M  V30 254 H 24.3176 -5.733 -0.00290157 0
M  V30 255 H 22.7146 -5.95305 0.757067 0
M  V30 256 H 23.7846 -4.66217 1.33303 0
M  V30 257 N 25.1277 -0.289203 -1.54924 0
M  V30 258 C 26.0577 0.58549 -2.2604 0
M  V30 259 C 27.0387 1.14753 -1.25562 0
M  V30 260 O 28.2237 1.17906 -1.54311 0
M  V30 261 C 25.3537 1.76305 -2.99222 0
M  V30 262 C 24.3077 1.33191 -4.06748 0
M  V30 263 C 23.6337 2.5937 -4.6758 0
M  V30 264 C 24.9337 0.471775 -5.20165 0
M  V30 265 H 26.6277 -0.00763532 -2.99399 0
M  V30 266 H 24.1737 -0.00511229 -1.43999 0
M  V30 267 H 26.1267 2.38097 -3.47689 0
M  V30 268 H 24.8507 2.38223 -2.23422 0
M  V30 269 H 23.5097 0.737121 -3.59113 0
M  V30 270 H 23.1577 3.19576 -3.88433 0
M  V30 271 H 22.8577 2.31228 -5.40192 0
M  V30 272 H 24.3817 3.21985 -5.18804 0
M  V30 273 H 25.7957 0.995056 -5.64599 0
M  V30 274 H 24.1927 0.284639 -5.99425 0
M  V30 275 H 25.2627 -0.506041 -4.82252 0
M  V30 276 N 26.6058 1.57591 -0.0167156 0
M  V30 277 C 27.8548 1.90461 0.663877 0
M  V30 278 C 28.1678 0.893515 1.73999 0
M  V30 279 O 29.3738 1.11302 2.47637 0
M  V30 280 C 27.8298 3.38155 1.23204 0
M  V30 281 C 27.4378 4.47597 0.189866 0
M  V30 282 C 29.1818 3.80111 1.88986 0
M  V30 283 C 27.0888 5.86379 0.768964 0
M  V30 284 H 26.0188 0.710738 0.251729 0
M  V30 285 H 28.6698 1.83326 -0.0799926 0
M  V30 286 H 27.0518 3.40182 2.02712 0
M  V30 287 H 28.2258 4.57112 -0.581846 0
M  V30 288 H 26.5408 4.14766 -0.368475 0
M  V30 289 H 29.1378 4.81145 2.33247 0
M  V30 290 H 29.4808 3.14511 2.72743 0
M  V30 291 H 30.0138 3.80454 1.16187 0
M  V30 292 H 26.7528 6.55493 -0.0301957 0
M  V30 293 H 26.2728 5.80496 1.50945 0
M  V30 294 H 27.9518 6.34563 1.26251 0
M  V30 295 N 28.0839 -0.256276 1.55502 0
M  V30 296 C 29.3319 -0.983672 1.76545 0
M  V30 297 C 29.6529 -1.86206 0.578982 0
M  V30 298 O 28.9229 -1.91656 -0.405577 0
M  V30 299 H 27.5029 -0.366191 0.651086 0
M  V30 300 H 30.1649 -0.276479 1.92929 0
M  V30 301 H 29.2609 -1.61087 2.67315 0
M  V30 302 N 29.562 -1.4872 -0.521534 0
M  V30 303 C 30.973 -1.50607 -1.10337 0
M  V30 304 C 31.324 -0.280612 -1.94183 0
M  V30 305 O 30.449 0.611507 -2.0758 0
M  V30 306 C 31.044 -2.72903 -2.00772 0
M  V30 307 C 29.603 -2.77634 -2.54158 0
M  V30 308 C 28.75 -2.44241 -1.31307 0
M  V30 309 H 31.701 -1.55714 -0.306388 0
M  V30 310 H 31.722 -2.519 -2.85178 0
M  V30 311 H 31.234 -3.62077 -1.39721 0
M  V30 312 H 29.335 -1.92689 -3.18907 0
M  V30 313 H 29.448 -3.79283 -2.92714 0
M  V30 314 H 27.812 -1.95577 -1.63161 0
M  V30 315 H 28.595 -3.35666 -0.719943 0
M  V30 316 N 31.0401 0.771051 -1.3745 0
M  V30 317 C 32.2651 1.56529 -1.36065 0
M  V30 318 C 32.6901 1.88029 0.0515859 0
M  V30 319 O 32.0481 1.49282 1.02882 0
M  V30 320 C 32.0961 2.85187 -2.20683 0
M  V30 321 O 31.2001 3.79593 -1.61193 0
M  V30 322 H 30.5411 0.47411 -0.464883 0
M  V30 323 H 33.0711 0.954269 -1.80983 0
M  V30 324 H 33.0811 3.34283 -2.33921 0
M  V30 325 H 31.7561 2.61588 -3.23334 0
M  V30 326 H 30.3331 3.38239 -1.56999 0
M  V30 327 N 32.5182 1.22032 0.997298 0
M  V30 328 C 33.7432 1.06921 1.77715 0
M  V30 329 C 34.1682 -0.376226 1.84299 0
M  V30 330 O 33.5262 -1.27165 1.29223 0
M  V30 331 C 33.5742 1.67996 3.19076 0
M  V30 332 O 32.6782 0.930653 4.01762 0
M  V30 333 H 32.0192 0.375814 0.547412 0
M  V30 334 H 34.5492 1.61737 1.25309 0
M  V30 335 H 34.5592 1.72538 3.69723 0
M  V30 336 H 33.2342 2.73182 3.13599 0
M  V30 337 H 31.8112 0.960917 3.60307 0
M  V30 338 N 33.9963 -1.19345 1.0293 0
M  V30 339 C 34.9063 -2.26245 0.620515 0
M  V30 340 C 35.9223 -1.70486 -0.347928 0
M  V30 341 O 37.0983 -2.00347 -0.205704 0
M  V30 342 C 34.1633 -3.46693 -0.0218957 0
M  V30 343 C 33.2243 -4.17632 0.994102 0
M  V30 344 C 32.4573 -5.32329 0.382253 0
M  V30 345 O 32.6803 -5.64552 -0.814676 0
M  V30 346 O 31.6143 -5.91664 1.10531 0
M  V30 347 H 35.4403 -2.63453 1.51083 0
M  V30 348 H 33.0253 -1.26207 0.799513 0
M  V30 349 H 34.9073 -4.19683 -0.380072 0
M  V30 350 H 33.5823 -3.11333 -0.886209 0
M  V30 351 H 32.4893 -3.4676 1.40387 0
M  V30 352 H 33.8223 -4.56964 1.8288 0
M  V30 353 N 35.4744 -0.807222 -1.35358 0
M  V30 354 C 36.3844 -0.219594 -2.3357 0
M  V30 355 C 37.4004 0.637734 -1.61892 0
M  V30 356 O 38.5764 0.549336 -1.93763 0
M  V30 357 C 35.6414 0.62158 -3.41083 0
M  V30 358 C 34.7024 -0.256315 -4.28534 0
M  V30 359 C 33.9354 0.544807 -5.30912 0
M  V30 360 O 34.1584 1.77944 -5.41934 0
M  V30 361 O 33.0924 -0.0646478 -6.01865 0
M  V30 362 H 36.9184 -1.03208 -2.85625 0
M  V30 363 H 34.5034 -0.569025 -1.38139 0
M  V30 364 H 36.3854 1.10067 -4.06772 0
M  V30 365 H 35.0604 1.41165 -2.91297 0
M  V30 366 H 33.9674 -0.782559 -3.65823 0
M  V30 367 H 35.3004 -1.01034 -4.81719 0
M  V30 368 N 36.9525 1.47285 -0.560781 0
M  V30 369 C 38.3635 1.86258 -0.128343 0
M  V30 370 C 38.7145 1.46699 1.30284 0
M  V30 371 O 37.8395 0.871698 1.98067 0
M  V30 372 C 38.4345 3.38044 -0.22614 0
M  V30 373 C 36.9935 3.76096 0.151283 0
M  V30 374 C 36.1405 2.71335 -0.572084 0
M  V30 375 H 39.0915 1.38752 -0.770297 0
M  V30 376 H 39.1125 3.76441 0.554322 0
M  V30 377 H 38.6245 3.66806 -1.26788 0
M  V30 378 H 36.7255 3.52951 1.19399 0
M  V30 379 H 36.8385 4.78641 -0.209765 0
M  V30 380 H 35.2025 2.54696 -0.0147653 0
M  V30 381 H 35.9855 3.02938 -1.61504 0
M  V30 382 N 38.4306 0.297415 1.54768 0
M  V30 383 C 39.6776 -0.312913 2.00068 0
M  V30 384 C 40.0056 -1.54171 1.18582 0
M  V30 385 O 39.2606 -1.94108 0.249133 0
M  V30 386 C 39.5596 -0.717561 3.50123 0
M  V30 387 C 39.2256 0.409095 4.4904 0
M  V30 388 C 37.8876 0.718399 4.75807 0
M  V30 389 C 40.2396 1.16717 5.07963 0
M  V30 390 C 37.5676 1.78896 5.5876 0
M  V30 391 C 39.9196 2.22762 5.92081 0
M  V30 392 C 38.5836 2.54303 6.1716 0
M  V30 393 H 37.8536 -0.114503 0.7321 0
M  V30 394 H 40.5006 0.415767 1.86932 0
M  V30 395 H 38.8056 -1.52627 3.60849 0
M  V30 396 H 40.5026 -1.20091 3.82595 0
M  V30 397 H 37.0926 0.157918 4.28309 0
M  V30 398 H 41.2766 0.941466 4.87289 0
M  V30 399 H 36.5326 2.0381 5.7643 0
M  V30 400 H 40.7066 2.81962 6.36765 0
M  V30 401 H 38.3336 3.3739 6.81229 0
M  V30 402 N 39.9087 -1.5758 0.0250728 0
M  V30 403 C 41.3197 -1.79476 -0.514323 0
M  V30 404 C 41.6707 -0.934956 -1.72491 0
M  V30 405 O 40.7957 -0.144245 -2.15919 0
M  V30 406 C 41.3907 -3.25503 -0.939842 0
M  V30 407 C 39.9497 -3.48408 -1.42438 0
M  V30 408 C 39.0967 -2.74583 -0.387201 0
M  V30 409 H 42.0477 -1.567 0.25113 0
M  V30 410 H 42.0687 -3.34992 -1.80445 0
M  V30 411 H 41.5807 -3.88056 -0.0585628 0
M  V30 412 H 39.6817 -2.91103 -2.32572 0
M  V30 413 H 39.7947 -4.57119 -1.43455 0
M  V30 414 H 38.1587 -2.39942 -0.854409 0
M  V30 415 H 38.9417 -3.39849 0.485543 0
M  V30 416 N 41.3868 0.248026 -1.55636 0
M  V30 417 C 42.6118 0.998028 -1.81808 0
M  V30 418 C 43.0368 1.78207 -0.601979 0
M  V30 419 O 42.3948 1.75653 0.448961 0
M  V30 420 C 42.4428 1.9125 -3.05705 0
M  V30 421 O 41.5468 3.00406 -2.82542 0
M  V30 422 H 40.8878 0.284045 -0.600179 0
M  V30 423 H 43.4178 0.269357 -2.02819 0
M  V30 424 H 43.4278 2.32737 -3.35108 0
M  V30 425 H 42.1028 1.33602 -3.93857 0
M  V30 426 H 40.6798 2.63056 -2.64303 0
M  V30 427 N 42.8649 1.48995 0.513639 0
M  V30 428 C 43.8279 1.64229 1.59879 0
M  V30 429 C 44.8279 0.514696 1.5234 0
M  V30 430 O 46.0179 0.78087 1.55718 0
M  V30 431 C 43.1499 1.62783 2.99524 0
M  V30 432 H 44.3429 2.61004 1.47705 0
M  V30 433 H 41.8959 1.37837 0.736936 0
M  V30 434 H 42.6309 0.675461 3.17188 0
M  V30 435 H 42.4159 2.4466 3.06404 0
M  V30 436 H 43.9059 1.76669 3.78388 0
M  V30 437 N 44.343 -0.763751 1.37857 0
M  V30 438 C 45.589 -1.52483 1.33704 0
M  V30 439 C 45.922 -1.94051 -0.0759612 0
M  V30 440 O 45.197 -1.64675 -1.03501 0
M  V30 441 C 45.48 -2.78441 2.28348 0
M  V30 442 C 45.333 -2.43075 3.78463 0
M  V30 443 C 46.652 -3.80415 2.21298 0
M  V30 444 H 43.771 -0.553169 0.487005 0
M  V30 445 H 46.413 -0.875562 1.68624 0
M  V30 446 H 44.563 -3.33842 1.987 0
M  V30 447 H 46.235 -1.93527 4.18742 0
M  V30 448 H 44.478 -1.75666 3.96641 0
M  V30 449 H 45.149 -3.33149 4.40132 0
M  V30 450 H 47.625 -3.34527 2.47449 0
M  V30 451 H 46.501 -4.66257 2.89647 0
M  V30 452 H 46.762 -4.25262 1.20849 0
M  V30 453 N 45.8211 -1.22559 -0.990812 0
M  V30 454 C 47.0491 -1.07779 -1.76611 0
M  V30 455 C 47.4641 0.371513 -1.85109 0
M  V30 456 O 46.8211 1.25737 -1.32274 0
M  V30 457 C 46.8721 -1.68512 -3.19822 0
M  V30 458 O 46.5931 -3.07774 -3.1178 0
M  V30 459 C 48.0941 -1.59035 -4.13791 0
M  V30 460 H 45.3141 -0.377729 -0.554583 0
M  V30 461 H 47.8581 -1.62195 -1.24551 0
M  V30 462 H 46.0131 -1.18154 -3.68942 0
M  V30 463 H 46.4271 -3.37062 -4.01858 0
M  V30 464 H 47.9011 -2.0625 -5.1202 0
M  V30 465 H 48.3781 -0.547273 -4.35777 0
M  V30 466 H 48.9841 -2.08709 -3.70568 0
M  V30 467 N 47.2992 1.18797 -1.03562 0
M  V30 468 C 48.5482 1.87978 -0.731235 0
M  V30 469 C 48.8612 1.80911 0.743671 0
M  V30 470 O 50.0672 2.45407 1.16137 0
M  V30 471 C 48.5232 3.3721 -1.25768 0
M  V30 472 C 48.1312 3.52818 -2.76085 0
M  V30 473 C 49.8752 4.11825 -1.0296 0
M  V30 474 C 47.7822 4.9598 -3.22114 0
M  V30 475 H 46.7122 0.704063 -0.269835 0
M  V30 476 H 49.3632 1.34266 -1.25079 0
M  V30 477 H 47.7452 3.90359 -0.666011 0
M  V30 478 H 48.9192 3.09965 -3.40966 0
M  V30 479 H 47.2342 2.91602 -2.97249 0
M  V30 480 H 49.8312 5.17411 -1.34869 0
M  V30 481 H 50.1742 4.16287 0.0333546 0
M  V30 482 H 50.7072 3.64833 -1.58562 0
M  V30 483 H 47.4462 4.96684 -4.27768 0
M  V30 484 H 46.9662 5.39569 -2.61965 0
M  V30 485 H 48.6452 5.6467 -3.15844 0
M  V30 486 N 48.7773 0.814389 1.34928 0
M  V30 487 C 49.7243 0.22822 2.29669 0
M  V30 488 C 50.6943 -0.642164 1.53184 0
M  V30 489 O 51.8793 -0.585605 1.81591 0
M  V30 490 C 49.0193 -0.61089 3.3965 0
M  V30 491 C 48.1323 0.280792 4.31086 0
M  V30 492 C 47.2673 -0.567067 5.28165 0
M  V30 493 C 46.3063 0.324531 6.11239 0
M  V30 494 N 45.4433 -0.483756 7.00431 0
M  V30 495 H 50.2833 1.04153 2.79206 0
M  V30 496 H 47.8203 0.525133 1.37407 0
M  V30 497 H 49.7783 -1.11263 4.0209 0
M  V30 498 H 48.4083 -1.38939 2.91369 0
M  V30 499 H 47.4603 0.900688 3.69583 0
M  V30 500 H 48.7723 0.966723 4.89342 0
M  V30 501 H 47.9263 -1.13363 5.96015 0
M  V30 502 H 46.6653 -1.28654 4.70425 0
M  V30 503 H 45.6703 0.903298 5.42329 0
M  V30 504 H 46.8953 1.04198 6.71059 0
M  V30 505 H 44.8413 -1.18706 6.45171 0
M  V30 506 H 44.7583 0.143965 7.55863 0
M  V30 507 H 46.0263 -1.03334 7.7262 0
M  V30 508 N 50.2554 -1.46986 0.568584 0
M  V30 509 C 51.4804 -2.07335 0.0520528 0
M  V30 510 C 51.9054 -1.41675 -1.23733 0
M  V30 511 O 51.2634 -0.495623 -1.74394 0
M  V30 512 C 51.3114 -3.60417 -0.11501 0
M  V30 513 O 50.4154 -3.95309 -1.17492 0
M  V30 514 H 49.7564 -0.661597 0.0564385 0
M  V30 515 H 52.2864 -1.88837 0.787507 0
M  V30 516 H 52.2964 -4.06698 -0.325644 0
M  V30 517 H 50.9714 -4.07601 0.826675 0
M  V30 518 H 49.5484 -3.60757 -0.943869 0
M  V30 519 N 51.7335 -0.305618 -1.54608 0
M  V30 520 C 52.9795 0.295595 -2.01241 0
M  V30 521 C 53.3345 1.51171 -1.19018 0
M  V30 522 O 52.6275 1.89832 -0.259684 0
M  V30 523 C 52.8215 0.698983 -3.50498 0
M  V30 524 C 52.6505 -0.476491 -4.47168 0
M  V30 525 C 51.4205 -0.969963 -4.95903 0
M  V30 526 C 53.6185 -1.32294 -4.96994 0
M  V30 527 N 51.6005 -2.11172 -5.76437 0
M  V30 528 C 52.9715 -2.31212 -5.75275 0
M  V30 529 C 55.0265 -1.35278 -4.7917 0
M  V30 530 C 53.7295 -3.32896 -6.37631 0
M  V30 531 C 55.7555 -2.35823 -5.42348 0
M  V30 532 C 55.1175 -3.33469 -6.20466 0
M  V30 533 H 51.2165 0.0724992 -0.778632 0
M  V30 534 H 53.8005 -0.436583 -1.89742 0
M  V30 535 H 51.9715 1.40032 -3.62278 0
M  V30 536 H 53.7035 1.28013 -3.8392 0
M  V30 537 H 50.4585 -0.544178 -4.70463 0
M  V30 538 H 50.8825 -2.68714 -6.21387 0
M  V30 539 H 55.5245 -0.61157 -4.18354 0
M  V30 540 H 53.2425 -4.07933 -6.97579 0
M  V30 541 H 56.8285 -2.38911 -5.30484 0
M  V30 542 H 55.7085 -4.09996 -6.68485 0
M  V30 543 N 53.2116 1.57565 -0.0334293 0
M  V30 544 C 54.4576 1.92262 0.645226 0
M  V30 545 C 54.7906 0.910543 1.71531 0
M  V30 546 O 54.0656 -0.066099 1.94388 0
M  V30 547 C 54.3486 3.37422 1.2577 0
M  V30 548 C 54.2016 4.49369 0.196891 0
M  V30 549 C 55.5206 3.82628 2.17449 0
M  V30 550 H 52.6396 0.699171 0.233085 0
M  V30 551 H 55.2816 1.89779 -0.0915694 0
M  V30 552 H 53.4316 3.39669 1.88566 0
M  V30 553 H 55.1036 4.59254 -0.433962 0
M  V30 554 H 53.3466 4.31168 -0.477137 0
M  V30 555 H 54.0176 5.47978 0.665124 0
M  V30 556 H 56.4936 3.82145 1.64634 0
M  V30 557 H 55.3696 4.84883 2.57254 0
M  V30 558 H 55.6306 3.18376 3.0674 0
M  V30 559 N 54.6897 -0.239769 1.55765 0
M  V30 560 C 55.9667 -0.990056 1.68693 0
M  V30 561 C 56.3467 -2.03107 0.5754 0
M  V30 562 O 55.6947 -2.24604 -0.42017 0
M  V30 563 C 55.9047 -1.61696 3.09282 0
M  V30 564 C 57.2527 -2.11613 3.6811 0
M  V30 565 O 58.2767 -1.71624 3.12127 0
M  V30 566 O 57.1357 -2.85057 4.66267 0
M  V30 567 H 54.2297 -0.461299 0.686391 0
M  V30 568 H 56.7757 -0.232991 1.68093 0
M  V30 569 H 55.5477 -0.864357 3.81634 0
M  V30 570 H 55.1707 -2.44005 3.13923 0
M  V30 571 N 56.1678 -1.49265 -0.50573 0
M  V30 572 C 57.1148 -1.65585 -1.6078 0
M  V30 573 C 58.0848 -0.497396 -1.58478 0
M  V30 574 O 59.2698 -0.72385 -1.76536 0
M  V30 575 C 56.4098 -1.72408 -2.98948 0
M  V30 576 C 55.5228 -2.99525 -3.11301 0
M  V30 577 C 54.6578 -2.97356 -4.40174 0
M  V30 578 C 53.6968 -4.19074 -4.46143 0
M  V30 579 N 52.8338 -4.14841 -5.66437 0
M  V30 580 H 57.6738 -2.59688 -1.46172 0
M  V30 581 H 55.2108 -1.28761 -0.711261 0
M  V30 582 H 57.1688 -1.74344 -3.79025 0
M  V30 583 H 55.7988 -0.817753 -3.1227 0
M  V30 584 H 54.8508 -3.07222 -2.24318 0
M  V30 585 H 56.1628 -3.89518 -3.11572 0
M  V30 586 H 55.3168 -2.97829 -5.28567 0
M  V30 587 H 54.0558 -2.05133 -4.42461 0
M  V30 588 H 53.0608 -4.1885 -3.56153 0
M  V30 589 H 54.2858 -5.12483 -4.45575 0
M  V30 590 H 52.2318 -3.25453 -5.69575 0
M  V30 591 H 52.1488 -4.98564 -5.68304 0
M  V30 592 H 53.4168 -4.1941 -6.57051 0
M  V30 593 N 57.6459 0.756429 -1.3826 0
M  V30 594 C 58.5789 1.87802 -1.29637 0
M  V30 595 C 59.5569 1.61667 -0.173939 0
M  V30 596 O 60.7409 1.85208 -0.350775 0
M  V30 597 C 57.8679 3.23354 -1.00797 0
M  V30 598 C 56.9139 3.68379 -2.14939 0
M  V30 599 S 57.7469 3.8025 -3.77054 0
M  V30 600 C 58.9029 5.18626 -3.50396 0
M  V30 601 H 59.1359 1.94829 -2.24564 0
M  V30 602 H 56.6689 0.919117 -1.24063 0
M  V30 603 H 58.6269 4.01637 -0.848413 0
M  V30 604 H 57.2879 3.14008 -0.0759369 0
M  V30 605 H 56.4809 4.66693 -1.90299 0
M  V30 606 H 56.0829 2.97242 -2.26988 0
M  V30 607 H 58.3749 6.04289 -3.06334 0
M  V30 608 H 59.3179 5.48286 -4.48094 0
M  V30 609 H 59.7259 4.87289 -2.84973 0
M  V30 610 N 59.124 1.23083 0.984299 0
M  V30 611 C 60.056 0.96636 2.07832 0
M  V30 612 C 61.069 -0.0582135 1.62696 0
M  V30 613 O 62.258 0.176843 1.77622 0
M  V30 614 C 59.358 0.433397 3.36117 0
M  V30 615 C 58.531 1.51722 4.10243 0
M  V30 616 C 57.59 0.989821 5.16807 0
M  V30 617 O 56.616 1.67794 5.43906 0
M  V30 618 N 57.818 -0.184367 5.80207 0
M  V30 619 H 60.583 1.90824 2.31098 0
M  V30 620 H 58.144 1.13888 1.1507 0
M  V30 621 H 60.136 0.065699 4.04647 0
M  V30 622 H 58.706 -0.413806 3.09849 0
M  V30 623 H 57.926 2.05786 3.36223 0
M  V30 624 H 59.214 2.24619 4.56534 0
M  V30 625 H 58.612 -0.760062 5.60571 0
M  V30 626 H 57.169 -0.493366 6.4993 0
M  V30 627 N 60.6021 -1.18246 1.0419 0
M  V30 628 C 61.5121 -2.25574 0.644476 0
M  V30 629 C 62.5281 -1.70845 -0.329826 0
M  V30 630 O 63.7041 -2.00554 -0.184443 0
M  V30 631 C 60.7691 -3.46697 0.014877 0
M  V30 632 C 59.8301 -4.16554 1.03834 0
M  V30 633 C 59.0631 -5.31894 0.438692 0
M  V30 634 O 59.2861 -5.65385 -0.754752 0
M  V30 635 O 58.2201 -5.90459 1.168 0
M  V30 636 H 62.0461 -2.61836 1.53869 0
M  V30 637 H 59.6311 -1.25352 0.812854 0
M  V30 638 H 61.5131 -4.20062 -0.335538 0
M  V30 639 H 60.1881 -3.12255 -0.853138 0
M  V30 640 H 59.0951 -3.45251 1.44057 0
M  V30 641 H 60.4281 -4.54998 1.87716 0
M  V30 642 N 62.0802 -0.821533 -1.34494 0
M  V30 643 C 63.3572 -0.33159 -1.92769 0
M  V30 644 C 63.7372 1.18088 -1.74981 0
M  V30 645 O 63.0852 1.98733 -1.12772 0
M  V30 646 C 63.2952 -0.759398 -3.40638 0
M  V30 647 C 64.6432 -0.757433 -4.1779 0
M  V30 648 O 65.6672 -0.70189 -3.49216 0
M  V30 649 O 64.5262 -0.829361 -5.4017 0
M  V30 650 H 61.6202 -0.0902502 -0.822061 0
M  V30 651 H 64.1662 -0.906231 -1.43477 0
M  V30 652 H 62.9382 -1.8012 -3.47379 0
M  V30 653 H 62.5612 -0.160378 -3.97276 0
M  V30 654 N 63.5583 1.46682 -0.576371 0
M  V30 655 C 64.4883 2.33028 0.148397 0
M  V30 656 C 65.4693 1.44961 0.889956 0
M  V30 657 O 66.6543 1.73789 0.866662 0
M  V30 658 C 63.7843 3.27117 1.1667 0
M  V30 659 C 62.7383 4.24575 0.540386 0
M  V30 660 C 62.0643 5.08126 1.6647 0
M  V30 661 C 63.3643 5.19722 -0.518331 0
M  V30 662 H 65.0583 2.93875 -0.572509 0
M  V30 663 H 62.6043 1.41315 -0.276768 0
M  V30 664 H 64.5573 3.86374 1.68204 0
M  V30 665 H 63.2813 2.64364 1.9178 0
M  V30 666 H 61.9403 3.66571 0.0461769 0
M  V30 667 H 61.5883 4.41762 2.40531 0
M  V30 668 H 61.2883 5.74122 1.25131 0
M  V30 669 H 62.8123 5.70246 2.18293 0
M  V30 670 H 64.2263 5.73232 -0.0883058 0
M  V30 671 H 62.6233 5.94026 -0.851679 0
M  V30 672 H 63.6933 4.64037 -1.40703 0
M  V30 673 N 65.0364 0.313813 1.54444 0
M  V30 674 C 66.2824 -0.292108 2.00685 0
M  V30 675 C 66.6154 -1.52548 1.20177 0
M  V30 676 O 65.8904 -1.92452 0.281531 0
M  V30 677 C 66.1734 -0.635968 3.5444 0
M  V30 678 C 66.0264 0.607437 4.4568 0
M  V30 679 C 67.3454 -1.45747 4.15266 0
M  V30 680 H 64.4644 -0.104697 0.729526 0
M  V30 681 H 67.1064 0.428457 1.85106 0
M  V30 682 H 65.2564 -1.24986 3.67846 0
M  V30 683 H 66.9284 1.24581 4.44159 0
M  V30 684 H 65.1714 1.23822 4.15753 0
M  V30 685 H 65.8424 0.322515 5.51057 0
M  V30 686 H 68.3184 -0.938645 4.05375 0
M  V30 687 H 67.1944 -1.66683 5.2298 0
M  V30 688 H 67.4554 -2.45063 3.67963 0
M  V30 689 N 66.5145 -1.57545 0.0417849 0
M  V30 690 C 67.7425 -1.96624 -0.643928 0
M  V30 691 C 68.1575 -0.918897 -1.64929 0
M  V30 692 O 67.5145 0.0979323 -1.82237 0
M  V30 693 C 67.5655 -3.35781 -1.33914 0
M  V30 694 O 67.2865 -4.365 -0.374048 0
M  V30 695 C 68.7875 -3.89566 -2.1155 0
M  V30 696 H 66.0075 -0.647316 -0.176702 0
M  V30 697 H 68.5515 -2.04229 0.105304 0
M  V30 698 H 66.7065 -3.29357 -2.03968 0
M  V30 699 H 67.1205 -5.17248 -0.869179 0
M  V30 700 H 68.5945 -4.89242 -2.55628 0
M  V30 701 H 69.0715 -3.24488 -2.9598 0
M  V30 702 H 69.6775 -3.99298 -1.46427 0
M  V30 703 N 67.9926 0.231505 -1.5589 0
M  V30 704 C 68.9226 1.29022 -1.94617 0
M  V30 705 C 69.9036 1.4941 -0.813067 0
M  V30 706 O 71.0886 1.6176 -1.07459 0
M  V30 707 C 68.2186 2.64199 -2.25424 0
M  V30 708 C 67.1726 2.58484 -3.41131 0
M  V30 709 C 66.4986 3.97599 -3.57518 0
M  V30 710 C 67.7986 2.1413 -4.76388 0
M  V30 711 H 69.4926 0.968563 -2.83301 0
M  V30 712 H 67.0386 0.464479 -1.36303 0
M  V30 713 H 68.9916 3.38413 -2.51107 0
M  V30 714 H 67.7156 2.98032 -1.33583 0
M  V30 715 H 66.3746 1.86727 -3.15481 0
M  V30 716 H 66.0226 4.28723 -2.6307 0
M  V30 717 H 65.7226 3.94659 -4.35337 0
M  V30 718 H 67.2466 4.7349 -3.85538 0
M  V30 719 H 68.6606 2.78083 -5.01341 0
M  V30 720 H 67.0576 2.2227 -5.57419 0
M  V30 721 H 68.1276 1.09331 -4.72414 0
M  V30 722 N 69.4707 1.49531 0.497807 0
M  V30 723 C 70.4337 1.65916 1.58128 0
M  V30 724 C 71.4337 0.530825 1.51786 0
M  V30 725 O 72.6237 0.797342 1.54881 0
M  V30 726 C 69.7557 1.65951 2.9778 0
M  V30 727 H 70.9487 2.62556 1.44929 0
M  V30 728 H 68.5017 1.38611 0.722275 0
M  V30 729 H 69.2367 0.709065 3.16453 0
M  V30 730 H 69.0217 2.47897 3.03792 0
M  V30 731 H 70.5117 1.80673 3.76493 0
M  V30 732 N 70.9488 -0.749086 1.3866 0
M  V30 733 C 71.8958 -1.86291 1.36251 0
M  V30 734 C 72.8658 -1.64578 0.224347 0
M  V30 735 O 74.0508 -1.86181 0.417279 0
M  V30 736 C 71.1908 -3.23644 1.19786 0
M  V30 737 C 70.3038 -3.57158 2.43027 0
M  V30 738 C 69.4388 -4.83838 2.19258 0
M  V30 739 C 68.4778 -5.10152 3.38247 0
M  V30 740 N 67.6148 -6.28029 3.13884 0
M  V30 741 H 72.4548 -1.87685 2.3147 0
M  V30 742 H 69.9918 -0.917287 1.14997 0
M  V30 743 H 71.9498 -4.0291 1.08254 0
M  V30 744 H 70.5798 -3.21566 0.282031 0
M  V30 745 H 69.6318 -2.72701 2.65214 0
M  V30 746 H 70.9438 -3.7253 3.31697 0
M  V30 747 H 70.0978 -5.71057 2.04888 0
M  V30 748 H 68.8368 -4.70614 1.2796 0
M  V30 749 H 67.8418 -4.21401 3.53131 0
M  V30 750 H 69.0668 -5.25271 4.30427 0
M  V30 751 H 67.0128 -6.1612 2.25238 0
M  V30 752 H 66.9298 -6.43922 3.96106 0
M  V30 753 H 68.1978 -7.18124 3.03179 0
M  V30 754 N 72.4269 -1.23603 -0.977757 0
M  V30 755 C 73.6549 -1.09646 -1.75458 0
M  V30 756 C 74.0699 0.351859 -1.85492 0
M  V30 757 O 73.4269 1.24327 -1.336 0
M  V30 758 C 73.4779 -1.71895 -3.18016 0
M  V30 759 O 73.1989 -3.11063 -3.08498 0
M  V30 760 C 74.6999 -1.63415 -4.12081 0
M  V30 761 H 71.9199 -0.38359 -0.550545 0
M  V30 762 H 74.4639 -1.63507 -1.22824 0
M  V30 763 H 72.6189 -1.22061 -3.67668 0
M  V30 764 H 73.0329 -3.41305 -3.9826 0
M  V30 765 H 74.5069 -2.11669 -5.09804 0
M  V30 766 H 74.9839 -0.593462 -4.35172 0
M  V30 767 H 75.5899 -2.12628 -3.68334 0
M  V30 768 N 73.905 1.17692 -1.04816 0
M  V30 769 C 74.868 2.19787 -0.650117 0
M  V30 770 C 75.868 1.58044 0.296427 0
M  V30 771 O 77.058 1.74012 0.0808097 0
M  V30 772 C 74.19 3.40869 0.0456987 0
M  V30 773 H 75.383 2.56516 -1.5537 0
M  V30 774 H 72.936 1.31708 -0.841594 0
M  V30 775 H 73.671 3.09681 0.962726 0
M  V30 776 H 73.456 3.86928 -0.634727 0
M  V30 777 H 74.946 4.16445 0.310432 0
M  V30 778 N 75.3831 0.828654 1.34056 0
M  V30 779 C 76.6081 0.431637 2.02859 0
M  V30 780 C 77.0331 -0.956339 1.61975 0
M  V30 781 O 76.3911 -1.62338 0.807228 0
M  V30 782 C 76.4391 0.548323 3.56407 0
M  V30 783 O 75.5431 -0.429556 4.10157 0
M  V30 784 H 74.8841 0.176886 0.640006 0
M  V30 785 H 77.4141 1.12066 1.71179 0
M  V30 786 H 77.4241 0.426196 4.05768 0
M  V30 787 H 76.0991 1.5606 3.8551 0
M  V30 788 H 74.6761 -0.265836 3.71951 0
M  V30 789 N 76.8612 -1.46375 0.584142 0
M  V30 790 C 78.1092 -2.01978 0.0701287 0
M  V30 791 C 78.4302 -1.4579 -1.295 0
M  V30 792 O 77.7002 -0.64314 -1.85042 0
M  V30 793 H 76.2802 -0.746648 0.0229345 0
M  V30 794 H 78.9422 -1.79461 0.760245 0
M  V30 795 H 78.0382 -3.121 0.0022064 0
M  V30 796 N 78.3393 -0.321999 -1.54275 0
M  V30 797 C 79.5853 0.281461 -2.00837 0
M  V30 798 C 79.9183 1.51909 -1.20985 0
M  V30 799 O 79.1933 1.923 -0.291733 0
M  V30 800 C 79.4763 0.617162 -3.54772 0
M  V30 801 C 79.3293 -0.631064 -4.45351 0
M  V30 802 C 80.6483 1.43542 -4.16033 0
M  V30 803 H 77.7673 0.100826 -0.730071 0
M  V30 804 H 80.4093 -0.438268 -1.84876 0
M  V30 805 H 78.5593 1.23034 -3.68504 0
M  V30 806 H 80.2313 -1.26934 -4.43492 0
M  V30 807 H 78.4743 -1.26025 -4.15091 0
M  V30 808 H 79.1453 -0.351735 -5.50878 0
M  V30 809 H 81.6213 0.917134 -4.05867 0
M  V30 810 H 80.4973 1.63907 -5.23856 0
M  V30 811 H 80.7583 2.43108 -3.69257 0
M  V30 812 N 79.8174 1.5752 -0.0501392 0
M  V30 813 C 80.7654 2.12651 0.942459 0
M  V30 814 C 81.7594 1.05807 1.32292 0
M  V30 815 O 82.9654 1.24217 1.3027 0
M  V30 816 H 79.3404 0.679673 0.321789 0
M  V30 817 H 81.3114 2.94951 0.452356 0
M  V30 818 C 80.0604 2.68565 2.20836 0
M  V30 819 H 79.3834 3.50439 1.92439 0
M  V30 820 H 80.8234 3.10761 2.8845 0
M  V30 821 C 79.2824 1.62291 2.95234 0
M  V30 822 O 79.8124 1.03508 3.88135 0
M  V30 823 N 78.0184 1.33836 2.57946 0
M  V30 824 H 77.5654 1.81826 1.82475 0
M  V30 825 H 77.5234 0.629595 3.08032 0
M  V30 826 N 81.2955 -0.223234 1.56011 0
M  V30 827 C 82.2275 -1.30006 1.88762 0
M  V30 828 C 83.2405 -1.43129 0.775746 0
M  V30 829 O 84.4295 -1.44057 1.05403 0
M  V30 830 C 81.5295 -2.67589 2.07965 0
M  V30 831 C 80.7025 -2.76434 3.38973 0
M  V30 832 C 79.7615 -3.95019 3.47629 0
M  V30 833 O 78.7875 -3.83436 4.20672 0
M  V30 834 N 79.9895 -5.09249 2.78649 0
M  V30 835 H 82.7545 -1.02238 2.81722 0
M  V30 836 H 80.3155 -0.413278 1.56536 0
M  V30 837 H 82.3075 -3.45297 2.11073 0
M  V30 838 H 80.8775 -2.87964 1.21638 0
M  V30 839 H 80.0975 -1.85216 3.47978 0
M  V30 840 H 81.3855 -2.79313 4.25278 0
M  V30 841 H 80.7835 -5.21556 2.19081 0
M  V30 842 H 79.3405 -5.85007 2.8742 0
M  V30 843 N 82.7736 -1.49793 -0.48987 0
M  V30 844 C 83.7036 -1.70201 -1.59856 0
M  V30 845 C 84.6846 -0.55076 -1.60937 0
M  V30 846 O 85.8696 -0.787841 -1.77501 0
M  V30 847 C 82.9996 -1.77882 -2.98287 0
M  V30 848 C 81.9536 -2.92907 -3.12073 0
M  V30 849 C 81.2796 -2.85712 -4.51965 0
M  V30 850 C 82.5796 -4.3369 -2.91051 0
M  V30 851 H 84.2736 -2.63025 -1.43032 0
M  V30 852 H 81.8196 -1.26574 -0.686664 0
M  V30 853 H 83.7726 -1.90744 -3.75759 0
M  V30 854 H 82.4966 -0.816653 -3.16225 0
M  V30 855 H 81.1556 -2.79665 -2.37029 0
M  V30 856 H 80.8036 -1.8738 -4.66795 0
M  V30 857 H 80.5036 -3.62921 -4.62128 0
M  V30 858 H 82.0276 -3.00598 -5.31482 0
M  V30 859 H 83.4416 -4.47555 -3.58284 0
M  V30 860 H 81.8386 -5.12205 -3.12675 0
M  V30 861 H 82.9086 -4.47362 -1.87071 0
M  V30 862 N 84.2517 0.741722 -1.39055 0
M  V30 863 C 85.4977 1.50336 -1.36113 0
M  V30 864 C 85.8307 1.94148 0.0450796 0
M  V30 865 O 85.1057 1.66301 1.00868 0
M  V30 866 C 85.3887 2.74773 -2.32749 0
M  V30 867 C 85.2417 2.37023 -3.82283 0
M  V30 868 C 86.5607 3.76846 -2.27322 0
M  V30 869 H 83.6797 0.545351 -0.495743 0
M  V30 870 H 86.3217 0.848624 -1.69995 0
M  V30 871 H 84.4717 3.30639 -2.03986 0
M  V30 872 H 86.1437 1.8684 -4.21768 0
M  V30 873 H 84.3867 1.69334 -3.99385 0
M  V30 874 H 85.0577 3.26104 -4.45376 0
M  V30 875 H 87.5337 3.30548 -2.5274 0
M  V30 876 H 86.4097 4.6159 -2.97028 0
M  V30 877 H 86.6707 4.23286 -1.27599 0
M  V30 878 N 85.7298 1.2412 0.971189 0
M  V30 879 C 87.0068 0.986867 1.6888 0
M  V30 880 C 87.3868 -0.491857 2.0529 0
M  V30 881 O 86.7348 -1.46531 1.75331 0
M  V30 882 C 86.9448 1.9063 2.92338 0
M  V30 883 C 88.2928 2.17515 3.64654 0
M  V30 884 O 89.3168 1.88254 3.02388 0
M  V30 885 O 88.1758 2.6719 4.7673 0
M  V30 886 H 85.2698 0.372944 0.738134 0
M  V30 887 H 87.8158 1.35203 1.02559 0
M  V30 888 H 86.5878 2.90552 2.62097 0
M  V30 889 H 86.2108 1.54408 3.66393 0
M  V30 890 N 87.2079 -1.17134 1.05439 0
M  V30 891 C 88.4569 -1.86791 0.761049 0
M  V30 892 C 88.7699 -1.82072 -0.714795 0
M  V30 893 O 89.9759 -2.47223 -1.12218 0
M  V30 894 C 88.4319 -3.35166 1.31117 0
M  V30 895 C 88.0399 -3.48381 2.81664 0
M  V30 896 C 89.7839 -4.10134 1.09499 0
M  V30 897 C 87.6909 -4.90793 3.29964 0
M  V30 898 H 86.6209 -0.699681 0.281002 0
M  V30 899 H 89.2719 -1.3226 1.27199 0
M  V30 900 H 87.6539 -3.8925 0.72803 0
M  V30 901 H 88.8279 -3.04502 3.45855 0
M  V30 902 H 87.1429 -2.86836 3.01851 0
M  V30 903 H 89.7399 -5.152 1.43084 0
M  V30 904 H 90.0829 -4.16287 0.0328772 0
M  V30 905 H 90.6159 -3.62264 1.64346 0
M  V30 906 H 87.3549 -4.89816 4.35616 0
M  V30 907 H 86.8749 -5.35333 2.70516 0
M  V30 908 H 88.5539 -5.59573 3.24787 0
M  V30 909 N 88.686 -0.835752 -1.33615 0
M  V30 910 C 89.916 -0.442701 -2.01801 0
M  V30 911 C 90.324 0.959807 -1.63047 0
M  V30 912 O 89.667 1.63468 -0.838088 0
M  V30 913 C 89.729 -0.480125 -3.56279 0
M  V30 914 C 89.393 -1.8382 -4.18401 0
M  V30 915 C 90.39 -2.80097 -4.37998 0
M  V30 916 C 88.075 -2.13019 -4.54894 0
M  V30 917 C 90.069 -4.03736 -4.9323 0
M  V30 918 C 87.756 -3.36916 -5.09834 0
M  V30 919 C 88.754 -4.32091 -5.28948 0
M  V30 920 O 88.442 -5.53797 -5.82721 0
M  V30 921 H 88.174 -0.17441 -0.653114 0
M  V30 922 H 90.728 -1.129 -1.71589 0
M  V30 923 H 88.958 0.262931 -3.85805 0
M  V30 924 H 90.647 -0.105335 -4.05763 0
M  V30 925 H 91.413 -2.58838 -4.10156 0
M  V30 926 H 87.292 -1.39733 -4.39313 0
M  V30 927 H 90.836 -4.78034 -5.08064 0
M  V30 928 H 86.733 -3.58033 -5.37106 0
M  V30 929 H 87.501 -5.55494 -6.0114 0
M  V30 930 N 90.1641 1.46063 -0.591896 0
M  V30 931 C 91.0741 2.34192 0.13831 0
M  V30 932 C 92.0901 1.50305 0.876608 0
M  V30 933 O 93.2661 1.8315 0.837728 0
M  V30 934 C 90.3311 3.27656 1.13326 0
M  V30 935 C 89.3921 4.27445 0.39863 0
M  V30 936 C 88.6251 5.16443 1.34618 0
M  V30 937 O 88.8481 5.08553 2.58321 0
M  V30 938 O 87.7821 5.95843 0.851768 0
M  V30 939 H 91.6081 2.98002 -0.58552 0
M  V30 940 H 89.1931 1.45188 -0.352239 0
M  V30 941 H 91.0751 3.85291 1.70671 0
M  V30 942 H 89.7501 2.6643 1.83839 0
M  V30 943 H 88.6571 3.73471 -0.216895 0
M  V30 944 H 89.9901 4.91482 -0.265709 0
M  V30 945 N 91.6422 0.330177 1.54103 0
M  V30 946 C 92.5892 -0.532762 2.24567 0
M  V30 947 C 93.5592 -1.10635 1.23892 0
M  V30 948 O 94.7442 -1.14546 1.5259 0
M  V30 949 C 91.8842 -1.6845 3.01195 0
M  V30 950 C 90.9972 -1.13951 4.167 0
M  V30 951 C 90.1322 -2.25746 4.80845 0
M  V30 952 C 89.1712 -1.6853 5.88442 0
M  V30 953 N 88.3082 -2.74014 6.46421 0
M  V30 954 H 93.1482 0.0746905 2.97906 0
M  V30 955 H 90.6852 0.048632 1.4702 0
M  V30 956 H 92.6432 -2.36234 3.43874 0
M  V30 957 H 91.2732 -2.26314 2.30178 0
M  V30 958 H 90.3252 -0.35301 3.78758 0
M  V30 959 H 91.6372 -0.680892 4.94131 0
M  V30 960 H 90.7912 -3.01422 5.26526 0
M  V30 961 H 89.5302 -2.74947 4.0281 0
M  V30 962 H 88.5352 -0.913543 5.42157 0
M  V30 963 H 89.7602 -1.20198 6.68378 0
M  V30 964 H 87.7062 -3.22494 5.71256 0
M  V30 965 H 87.6232 -2.32735 7.19285 0
M  V30 966 H 88.8912 -3.49499 6.96757 0
M  V30 967 N 93.1203 -1.57491 0.0584922 0
M  V30 968 C 94.3503 -1.9701 -0.622134 0
M  V30 969 C 94.7583 -0.935034 -1.6448 0
M  V30 970 O 94.1013 0.0882904 -1.83488 0
M  V30 971 C 94.1633 -3.32794 -1.35972 0
M  V30 972 C 93.8273 -4.54343 -0.492043 0
M  V30 973 C 94.8243 -5.19323 0.244901 0
M  V30 974 C 92.5093 -5.00534 -0.420821 0
M  V30 975 C 94.5033 -6.28835 1.04143 0
M  V30 976 C 92.1903 -6.09921 0.379389 0
M  V30 977 C 93.1883 -6.73933 1.10919 0
M  V30 978 O 92.8763 -7.81216 1.89623 0
M  V30 979 H 92.6083 -0.653127 -0.174359 0
M  V30 980 H 95.1623 -2.05029 0.123418 0
M  V30 981 H 93.3923 -3.21351 -2.15105 0
M  V30 982 H 95.0813 -3.5701 -1.93129 0
M  V30 983 H 95.8473 -4.8459 0.19939 0
M  V30 984 H 91.7263 -4.50496 -0.978474 0
M  V30 985 H 95.2703 -6.7873 1.61157 0
M  V30 986 H 91.1673 -6.44089 0.426512 0
M  V30 987 H 91.9353 -7.98029 1.81913 0
M  V30 988 N 94.5984 0.214957 -1.56127 0
M  V30 989 C 95.5304 1.29004 -1.89448 0
M  V30 990 C 96.5434 1.42716 -0.783326 0
M  V30 991 O 97.7324 1.43496 -1.06166 0
M  V30 992 C 94.8324 2.66482 -2.09381 0
M  V30 993 C 94.0054 2.74633 -3.40434 0
M  V30 994 C 93.0644 3.9317 -3.49719 0
M  V30 995 O 92.0904 3.812 -4.227 0
M  V30 996 N 93.2924 5.07765 -2.81346 0
M  V30 997 H 96.0574 1.00743 -2.82261 0
M  V30 998 H 93.6184 0.40497 -1.56753 0
M  V30 999 H 95.6104 3.44173 -2.12901 0
M  V30 1000 H 94.1804 2.87314 -1.23163 0
M  V30 1001 H 93.4004 1.83368 -3.48955 0
M  V30 1002 H 94.6884 2.77054 -4.26754 0
M  V30 1003 H 94.0864 5.20386 -2.21843 0
M  V30 1004 H 92.6434 5.83474 -2.90519 0
M  V30 1005 N 96.0765 1.50051 0.48192 0
M  V30 1006 C 97.3535 1.51009 1.2432 0
M  V30 1007 C 97.7335 0.248587 2.09631 0
M  V30 1008 O 97.0815 -0.768409 2.15192 0
M  V30 1009 C 97.2915 2.79981 2.08355 0
M  V30 1010 C 98.6395 3.3022 2.66908 0
M  V30 1011 O 99.6635 2.81228 2.18607 0
M  V30 1012 O 98.5225 4.15595 3.54884 0
M  V30 1013 H 95.6165 0.605239 0.563573 0
M  V30 1014 H 98.1625 1.62332 0.494627 0
M  V30 1015 H 96.9345 3.63275 1.45419 0
M  V30 1016 H 96.5575 2.7161 2.90368 0
M  V30 1017 N 97.5546 -0.734337 1.39446 0
M  V30 1018 C 98.4846 -1.86155 1.40955 0
M  V30 1019 C 99.4656 -1.67898 0.272827 0
M  V30 1020 O 100.651 -1.88207 0.478743 0
M  V30 1021 C 97.7806 -3.23912 1.25294 0
M  V30 1022 C 96.7346 -3.56808 2.36373 0
M  V30 1023 C 96.0606 -4.93508 2.058 0
M  V30 1024 C 97.3606 -3.59713 3.78687 0
M  V30 1025 H 99.0546 -1.8515 2.35287 0
M  V30 1026 H 96.6006 -0.889367 1.13253 0
M  V30 1027 H 98.5536 -4.02443 1.2497 0
M  V30 1028 H 97.2776 -3.25446 0.274308 0
M  V30 1029 H 95.9366 -2.80606 2.35914 0
M  V30 1030 H 95.5846 -4.91623 1.06374 0
M  V30 1031 H 95.2846 -5.16486 2.80208 0
M  V30 1032 H 96.8086 -5.74396 2.07128 0
M  V30 1033 H 98.2226 -4.2832 3.81071 0
M  V30 1034 H 96.6196 -3.94209 4.52459 0
M  V30 1035 H 97.6896 -2.59504 4.09617 0
M  V30 1036 N 99.0327 -1.24633 -0.964593 0
M  V30 1037 C 100.263 -1.11339 -1.74032 0
M  V30 1038 C 100.671 0.336593 -1.86182 0
M  V30 1039 O 100.014 1.24389 -1.35178 0
M  V30 1040 C 100.076 -1.68284 -3.1768 0
M  V30 1041 C 99.7397 -3.17196 -3.28992 0
M  V30 1042 C 100.737 -4.14308 -3.14078 0
M  V30 1043 C 98.4217 -3.57215 -3.53133 0
M  V30 1044 C 100.416 -5.4942 -3.23135 0
M  V30 1045 C 98.1027 -4.92468 -3.61827 0
M  V30 1046 C 99.1007 -5.8838 -3.46841 0
M  V30 1047 O 98.7887 -7.21173 -3.55197 0
M  V30 1048 H 98.5207 -0.389551 -0.552472 0
M  V30 1049 H 101.075 -1.65282 -1.21946 0
M  V30 1050 H 99.3047 -1.08777 -3.71085 0
M  V30 1051 H 100.994 -1.50234 -3.77074 0
M  V30 1052 H 101.76 -3.84731 -2.95308 0
M  V30 1053 H 97.6387 -2.83063 -3.63863 0
M  V30 1054 H 101.183 -6.24263 -3.11355 0
M  V30 1055 H 97.0797 -5.21714 -3.80111 0
M  V30 1056 H 97.8477 -7.29135 -3.71892 0
M  V30 1057 N 100.511 1.16574 -1.06058 0
M  V30 1058 C 101.739 1.90952 -0.796552 0
M  V30 1059 C 102.154 1.77302 0.648808 0
M  V30 1060 O 101.511 1.11605 1.44397 0
M  V30 1061 C 101.562 3.41736 -1.17894 0
M  V30 1062 O 101.283 3.54975 -2.56758 0
M  V30 1063 C 102.784 4.33169 -0.942308 0
M  V30 1064 H 100.004 0.605594 -0.288959 0
M  V30 1065 H 102.548 1.47777 -1.41358 0
M  V30 1066 H 100.703 3.82623 -0.606491 0
M  V30 1067 H 101.117 4.4846 -2.72 0
M  V30 1068 H 102.591 5.37439 -1.25952 0
M  V30 1069 H 103.068 4.3903 0.122078 0
M  V30 1070 H 103.674 3.98007 -1.49902 0
M  V30 1071 N 101.989 0.842826 1.3317 0
M  V30 1072 C 103.235 0.441099 1.97945 0
M  V30 1073 C 103.568 -0.998024 1.66593 0
M  V30 1074 O 102.843 -1.69839 0.947898 0
M  V30 1075 C 103.126 0.666841 3.53872 0
M  V30 1076 C 102.979 2.15352 3.94897 0
M  V30 1077 C 104.298 0.115544 4.39948 0
M  V30 1078 H 101.417 0.161739 0.719034 0
M  V30 1079 H 104.059 1.05907 1.57746 0
M  V30 1080 H 102.209 0.140828 3.88245 0
M  V30 1081 H 103.881 2.7447 3.70761 0
M  V30 1082 H 102.124 2.63653 3.44484 0
M  V30 1083 H 102.795 2.26221 5.03516 0
M  V30 1084 H 105.271 0.565213 4.12243 0
M  V30 1085 H 104.147 0.303152 5.48062 0
M  V30 1086 H 104.408 -0.980935 4.3108 0
M  V30 1087 N 103.467 -1.45747 0.599634 0
M  V30 1088 C 104.377 -2.34262 -0.125888 0
M  V30 1089 C 105.393 -1.50768 -0.868625 0
M  V30 1090 O 106.569 -1.83592 -0.828003 0
M  V30 1091 C 103.634 -3.28252 -1.11587 0
M  V30 1092 C 102.695 -4.27651 -0.375956 0
M  V30 1093 C 101.928 -5.1715 -1.31877 0
M  V30 1094 O 102.151 -5.09916 -2.55621 0
M  V30 1095 O 101.085 -5.96286 -0.820157 0
M  V30 1096 H 104.911 -2.97688 0.601315 0
M  V30 1097 H 102.496 -1.44999 0.359934 0
M  V30 1098 H 104.378 -3.86191 -1.68626 0
M  V30 1099 H 103.053 -2.67401 -1.82424 0
M  V30 1100 H 101.96 -3.7335 0.236698 0
M  V30 1101 H 103.293 -4.91334 0.29177 0
M  V30 1102 N 104.945 -0.338344 -1.53925 0
M  V30 1103 C 106.356 0.146651 -1.86123 0
M  V30 1104 C 106.707 1.5042 -1.2597 0
M  V30 1105 O 105.832 2.08723 -0.571294 0
M  V30 1106 C 106.427 0.272879 -3.37699 0
M  V30 1107 C 104.986 0.702103 -3.69794 0
M  V30 1108 C 104.133 -0.167304 -2.76795 0
M  V30 1109 H 107.084 -0.558123 -1.48562 0
M  V30 1110 H 107.105 1.10128 -3.64214 0
M  V30 1111 H 106.617 -0.715307 -3.81451 0
M  V30 1112 H 104.718 1.6995 -3.31584 0
M  V30 1113 H 104.831 0.495604 -4.7653 0
M  V30 1114 H 103.195 0.359527 -2.5215 0
M  V30 1115 H 103.978 -1.15253 -3.23375 0
M  V30 1116 N 106.423 1.57458 -0.0668435 0
M  V30 1117 C 107.371 2.13639 0.919851 0
M  V30 1118 C 108.365 1.07204 1.31163 0
M  V30 1119 O 109.571 1.25591 1.28945 0
M  V30 1120 H 105.946 0.683048 0.314562 0
M  V30 1121 H 107.917 2.95415 0.421047 0
M  V30 1122 C 106.666 2.70892 2.17975 0
M  V30 1123 H 105.989 3.5246 1.88711 0
M  V30 1124 H 107.429 3.13803 2.85138 0
M  V30 1125 C 105.888 1.65414 2.93496 0
M  V30 1126 O 106.418 1.07619 3.87015 0
M  V30 1127 N 104.624 1.36564 2.56512 0
M  V30 1128 H 104.171 1.83751 1.80536 0
M  V30 1129 H 104.129 0.66223 3.07347 0
M  V30 1130 N 107.901 -0.206675 1.56239 0
M  V30 1131 C 108.849 -1.27571 1.94495 0
M  V30 1132 C 109.843 -1.47737 0.828862 0
M  V30 1133 O 111.049 -1.48735 1.0138 0
M  V30 1134 H 107.424 -0.428029 0.6183 0
M  V30 1135 H 109.395 -0.925961 2.8367 0
M  V30 1136 C 108.144 -2.61568 2.29079 0
M  V30 1137 H 107.467 -2.46863 3.14482 0
M  V30 1138 H 108.907 -3.35144 2.5972 0
M  V30 1139 C 107.366 -3.17695 1.12123 0
M  V30 1140 O 107.896 -3.99801 0.390153 0
M  V30 1141 N 106.102 -2.76276 0.901097 0
M  V30 1142 H 105.649 -2.09613 1.49733 0
M  V30 1143 H 105.607 -3.1417 0.120319 0
M  V30 1144 N 109.379 -1.50304 -0.473955 0
M  V30 1145 C 110.342 -1.6841 -1.55469 0
M  V30 1146 C 111.342 -0.554905 -1.50922 0
M  V30 1147 O 112.532 -0.821882 -1.53593 0
M  V30 1148 C 109.664 -1.70667 -2.95102 0
M  V30 1149 H 110.857 -2.64828 -1.40733 0
M  V30 1150 H 108.41 -1.39742 -0.700132 0
M  V30 1151 H 109.145 -0.75932 -3.15285 0
M  V30 1152 H 108.93 -2.52698 -2.9981 0
M  V30 1153 H 110.42 -1.8664 -3.73571 0
M  V30 1154 N 110.857 0.726932 -1.39834 0
M  V30 1155 C 112.273 1.03354 -1.21615 0
M  V30 1156 C 112.473 2.01327 -0.08338 0
M  V30 1157 O 111.529 2.46158 0.56238 0
M  V30 1158 C 112.842 1.58811 -2.55342 0
M  V30 1159 C 114.39 1.70851 -2.62257 0
M  V30 1160 C 114.865 2.29716 -3.96225 0
M  V30 1161 N 116.356 2.37116 -3.97907 0
M  V30 1162 C 117.091 2.83619 -4.98345 0
M  V30 1163 N 116.587 3.29958 -6.09179 0
M  V30 1164 N 118.38 2.82901 -4.8572 0
M  V30 1165 H 110.531 0.0773069 -2.12259 0
M  V30 1166 H 112.794 0.0969102 -0.943034 0
M  V30 1167 H 112.5 0.942855 -3.38826 0
M  V30 1168 H 112.374 2.57502 -2.75632 0
M  V30 1169 H 114.761 2.34497 -1.79152 0
M  V30 1170 H 114.842 0.707913 -2.45809 0
M  V30 1171 H 114.486 1.66696 -4.79765 0
M  V30 1172 H 114.416 3.30469 -4.09997 0
M  V30 1173 H 116.907 2.04374 -3.17868 0
M  V30 1174 H 117.22 3.63976 -6.8172 0
M  V30 1175 H 115.565 3.27946 -6.12761 0
M  V30 1176 H 118.756 2.46027 -3.98231 0
M  V30 1177 H 118.929 3.18827 -5.6414 0
M  V30 1178 N 112.336 1.25143 0.95797 0
M  V30 1179 C 113.268 1.01023 2.05735 0
M  V30 1180 C 114.281 -0.0236902 1.62783 0
M  V30 1181 O 115.47 0.21448 1.77207 0
M  V30 1182 C 112.57 0.504595 3.35122 0
M  V30 1183 C 111.743 1.6039 4.06932 0
M  V30 1184 C 110.802 1.09922 5.14591 0
M  V30 1185 O 109.828 1.79293 5.40225 0
M  V30 1186 N 111.03 -0.0612545 5.80468 0
M  V30 1187 H 113.795 1.95683 2.26998 0
M  V30 1188 H 111.356 1.16303 1.12629 0
M  V30 1189 H 113.348 0.151516 4.04416 0
M  V30 1190 H 111.918 -0.347989 3.10657 0
M  V30 1191 H 111.138 2.12872 3.31782 0
M  V30 1192 H 112.426 2.34252 4.51667 0
M  V30 1193 H 111.824 -0.640985 5.62057 0
M  V30 1194 H 110.381 -0.355395 6.5083 0
M  V30 1195 N 113.814 -1.1601 1.06675 0
M  V30 1196 C 114.744 -2.22688 0.702307 0
M  V30 1197 C 115.725 -1.67306 -0.307032 0
M  V30 1198 O 116.91 -1.93352 -0.181305 0
M  V30 1199 C 114.04 -3.47178 0.092038 0
M  V30 1200 C 112.994 -4.15477 1.02777 0
M  V30 1201 C 112.32 -5.33963 0.28061 0
M  V30 1202 C 113.62 -4.66019 2.35846 0
M  V30 1203 H 115.314 -2.53429 1.59419 0
M  V30 1204 H 112.86 -1.21813 0.767961 0
M  V30 1205 H 114.813 -4.21037 -0.174814 0
M  V30 1206 H 113.537 -3.15749 -0.834877 0
M  V30 1207 H 112.196 -3.43549 1.27944 0
M  V30 1208 H 111.844 -4.98788 -0.649545 0
M  V30 1209 H 111.544 -5.806 0.904258 0
M  V30 1210 H 113.068 -6.10596 0.021396 0
M  V30 1211 H 114.482 -5.3144 2.15045 0
M  V30 1212 H 112.879 -5.23293 2.93743 0
M  V30 1213 H 113.949 -3.82023 2.98641 0
M  V30 1214 N 115.292 -0.849877 -1.32721 0
M  V30 1215 C 116.538 -0.451591 -1.97708 0
M  V30 1216 C 116.871 0.989175 -1.6712 0
M  V30 1217 O 116.146 1.69334 -0.956891 0
M  V30 1218 C 116.429 -0.685598 -3.53513 0
M  V30 1219 C 116.282 -2.17444 -3.93749 0
M  V30 1220 C 117.601 -0.138874 -4.39881 0
M  V30 1221 H 114.72 -0.16555 -0.718166 0
M  V30 1222 H 117.362 -1.06742 -1.57182 0
M  V30 1223 H 115.512 -0.161416 -3.88165 0
M  V30 1224 H 117.184 -2.76433 -3.693 0
M  V30 1225 H 115.427 -2.65476 -3.43081 0
M  V30 1226 H 116.098 -2.28888 -5.02309 0
M  V30 1227 H 118.574 -0.587068 -4.11938 0
M  V30 1228 H 117.45 -0.332213 -5.47894 0
M  V30 1229 H 117.711 0.95806 -4.31594 0
M  V30 1230 N 116.77 1.45427 -0.607355 0
M  V30 1231 C 117.68 2.34325 0.113463 0
M  V30 1232 C 118.696 1.51226 0.860617 0
M  V30 1233 O 119.872 1.84029 0.818255 0
M  V30 1234 C 116.937 3.28839 1.09844 0
M  V30 1235 C 115.998 4.27844 0.353271 0
M  V30 1236 C 115.231 5.17842 1.29133 0
M  V30 1237 O 115.454 5.11264 2.52913 0
M  V30 1238 O 114.388 5.96713 0.788523 0
M  V30 1239 H 118.214 2.97364 -0.617094 0
M  V30 1240 H 115.799 1.44807 -0.367619 0
M  V30 1241 H 117.681 3.8708 1.66575 0
M  V30 1242 H 116.356 2.68365 1.81003 0
M  V30 1243 H 115.263 3.7322 -0.256494 0
M  V30 1244 H 116.596 4.91173 -0.317822 0
M  V30 1245 N 118.248 0.346503 1.53744 0
M  V30 1246 C 119.497 -0.250122 2.00143 0
M  V30 1247 C 119.81 -1.51418 1.23822 0
M  V30 1248 O 121.016 -2.18823 1.60713 0
M  V30 1249 C 119.472 -0.496252 3.56462 0
M  V30 1250 C 119.08 0.752077 4.41642 0
M  V30 1251 C 120.824 -1.05157 4.11269 0
M  V30 1252 C 118.731 0.476583 5.89477 0
M  V30 1253 H 117.661 -0.0972409 0.747703 0
M  V30 1254 H 120.312 0.46229 1.77581 0
M  V30 1255 H 118.694 -1.26944 3.75102 0
M  V30 1256 H 119.868 1.5266 4.34778 0
M  V30 1257 H 118.183 1.22925 3.97842 0
M  V30 1258 H 120.78 -1.27269 5.19333 0
M  V30 1259 H 121.123 -2.00799 3.64672 0
M  V30 1260 H 121.656 -0.339019 3.96353 0
M  V30 1261 H 118.395 1.4028 6.40314 0
M  V30 1262 H 117.915 -0.259794 5.99237 0
M  V30 1263 H 119.594 0.0949315 6.4693 0
M  V30 1264 N 119.726 -1.57421 0.075193 0
M  V30 1265 C 120.689 -2.11791 -0.876203 0
M  V30 1266 C 121.689 -1.04268 -1.22412 0
M  V30 1267 O 122.879 -1.30242 -1.15684 0
M  V30 1268 C 120.011 -2.62207 -2.17854 0
M  V30 1269 H 121.204 -2.9716 -0.40444 0
M  V30 1270 H 118.757 -1.55333 -0.173557 0
M  V30 1271 H 119.492 -1.803 -2.6956 0
M  V30 1272 H 119.277 -3.40802 -1.93897 0
M  V30 1273 H 120.767 -3.04335 -2.85955 0
M  V30 1274 N 121.204 0.198386 -1.56346 0
M  V30 1275 C 122.167 1.22952 -1.93431 0
M  V30 1276 C 123.167 1.38611 -0.815092 0
M  V30 1277 O 124.357 1.36479 -1.08255 0
M  V30 1278 C 121.489 2.59946 -2.20546 0
M  V30 1279 H 122.682 0.912626 -2.85677 0
M  V30 1280 H 120.235 0.43977 -1.49986 0
M  V30 1281 H 120.97 2.96696 -1.30927 0
M  V30 1282 H 120.755 2.49953 -3.02102 0
M  V30 1283 H 122.245 3.3431 -2.50253 0
M  V30 1284 N 122.682 1.50554 0.465978 0
M  V30 1285 C 124.098 1.38093 0.800154 0
M  V30 1286 C 124.298 0.440988 1.96615 0
M  V30 1287 O 123.354 -0.114499 2.5224 0
M  V30 1288 C 124.667 2.79565 1.10742 0
M  V30 1289 C 126.215 2.88516 1.21357 0
M  V30 1290 C 126.69 4.30833 1.55393 0
M  V30 1291 N 128.181 4.33807 1.62375 0
M  V30 1292 C 128.916 5.40927 1.90225 0
M  V30 1293 N 128.412 6.58247 2.16062 0
M  V30 1294 N 130.205 5.28376 1.9177 0
M  V30 1295 H 122.356 2.10237 -0.302366 0
M  V30 1296 H 124.619 0.945203 -0.0727746 0
M  V30 1297 H 124.325 3.50208 0.323661 0
M  V30 1298 H 124.199 3.17125 2.04234 0
M  V30 1299 H 126.586 2.1809 1.98799 0
M  V30 1300 H 126.667 2.54492 0.258321 0
M  V30 1301 H 126.311 5.01799 0.784889 0
M  V30 1302 H 126.241 4.62347 2.52076 0
M  V30 1303 H 128.732 3.49212 1.44427 0
M  V30 1304 H 129.045 7.3569 2.36601 0
M  V30 1305 H 127.39 6.61413 2.13444 0
M  V30 1306 H 130.581 4.35715 1.71085 0
M  V30 1307 H 130.754 6.11944 2.13139 0
M  V30 1308 N 124.16 -0.719506 1.40217 0
M  V30 1309 C 125.437 -1.47221 1.28784 0
M  V30 1310 C 125.817 -2.10883 -0.0956067 0
M  V30 1311 O 125.165 -1.99833 -1.10811 0
M  V30 1312 C 125.375 -2.5111 2.42373 0
M  V30 1313 C 126.723 -3.17053 2.82423 0
M  V30 1314 O 127.747 -2.61429 2.41937 0
M  V30 1315 O 126.606 -4.17742 3.52355 0
M  V30 1316 H 123.7 -0.654491 0.50554 0
M  V30 1317 H 126.246 -0.752014 1.52128 0
M  V30 1318 H 125.018 -2.02556 3.34793 0
M  V30 1319 H 124.641 -3.3067 2.20778 0
M  V30 1320 N 125.638 -1.25649 -0.95132 0
M  V30 1321 C 126.887 -1.09988 -1.69073 0
M  V30 1322 C 127.2 0.358355 -1.92289 0
M  V30 1323 O 128.406 0.635466 -2.63958 0
M  V30 1324 C 126.862 -1.92012 -3.044 0
M  V30 1325 C 126.47 -3.42347 -2.88968 0
M  V30 1326 C 128.214 -1.8493 -3.82101 0
M  V30 1327 C 126.121 -4.16655 -4.19705 0
M  V30 1328 H 125.051 -0.407993 -0.63408 0
M  V30 1329 H 127.702 -1.49873 -1.05879 0
M  V30 1330 H 126.084 -1.44952 -3.68517 0
M  V30 1331 H 127.258 -3.97104 -2.33762 0
M  V30 1332 H 125.573 -3.50557 -2.24719 0
M  V30 1333 H 128.17 -2.37739 -4.78941 0
M  V30 1334 H 128.513 -0.817883 -4.08187 0
M  V30 1335 H 129.046 -2.29758 -3.2474 0
M  V30 1336 H 125.785 -5.20224 -3.98807 0
M  V30 1337 H 125.305 -3.66681 -4.74663 0
M  V30 1338 H 126.984 -4.24551 -4.88227 0
M  V30 1339 N 127.117 1.15442 -1.07289 0
M  V30 1340 C 128.027 2.23786 -0.704057 0
M  V30 1341 C 129.043 1.7166 0.284413 0
M  V30 1342 O 130.219 2.00972 0.131205 0
M  V30 1343 C 127.284 3.46535 -0.106792 0
M  V30 1344 C 126.345 4.13654 -1.14842 0
M  V30 1345 C 125.578 5.30544 -0.57956 0
M  V30 1346 O 125.801 5.67187 0.604585 0
M  V30 1347 O 124.735 5.87154 -1.32414 0
M  V30 1348 H 128.561 2.57664 -1.60757 0
M  V30 1349 H 126.146 1.23152 -0.845803 0
M  V30 1350 H 128.028 4.20804 0.224048 0
M  V30 1351 H 126.703 3.14407 0.770049 0
M  V30 1352 H 125.61 3.4131 -1.5316 0
M  V30 1353 H 126.943 4.49861 -1.99714 0
M  V30 1354 N 128.595 0.856903 1.32268 0
M  V30 1355 C 129.542 0.301172 2.28827 0
M  V30 1356 C 130.512 -0.593104 1.5515 0
M  V30 1357 O 131.697 -0.527537 1.83362 0
M  V30 1358 C 128.837 -0.502523 3.41422 0
M  V30 1359 C 127.95 0.417797 4.29975 0
M  V30 1360 C 127.085 -0.398749 5.29701 0
M  V30 1361 C 126.124 0.518827 6.09897 0
M  V30 1362 N 125.261 -0.260674 7.01616 0
M  V30 1363 H 130.101 1.12983 2.75751 0
M  V30 1364 H 127.638 0.568582 1.35667 0
M  V30 1365 H 129.596 -0.984141 4.05426 0
M  V30 1366 H 128.226 -1.29599 2.95642 0
M  V30 1367 H 127.278 1.01781 3.66531 0
M  V30 1368 H 128.59 1.12191 4.86019 0
M  V30 1369 H 127.744 -0.943435 5.9932 0
M  V30 1370 H 126.483 -1.13622 4.7428 0
M  V30 1371 H 125.488 1.07538 5.39181 0
M  V30 1372 H 126.713 1.25495 6.67404 0
M  V30 1373 H 124.659 -0.981198 6.4862 0
M  V30 1374 H 124.576 0.384364 7.55022 0
M  V30 1375 H 125.844 -0.787014 7.75517 0
M  V30 1376 N 130.073 -1.45103 0.615059 0
M  V30 1377 C 131.003 -2.33339 -0.0865619 0
M  V30 1378 C 131.984 -1.4727 -0.851209 0
M  V30 1379 O 133.169 -1.76026 -0.820281 0
M  V30 1380 C 130.299 -3.30095 -1.07956 0
M  V30 1381 C 129.253 -4.25858 -0.427628 0
M  V30 1382 C 128.579 -5.12361 -1.5294 0
M  V30 1383 C 129.879 -5.18165 0.655944 0
M  V30 1384 H 131.573 -2.92254 0.650224 0
M  V30 1385 H 129.119 -1.40532 0.314138 0
M  V30 1386 H 131.072 -3.90698 -1.57901 0
M  V30 1387 H 129.796 -2.69355 -1.84703 0
M  V30 1388 H 128.455 -3.66564 0.0510292 0
M  V30 1389 H 128.103 -4.47984 -2.28734 0
M  V30 1390 H 127.803 -5.77238 -1.09865 0
M  V30 1391 H 129.327 -5.75833 -2.03098 0
M  V30 1392 H 130.741 -5.72796 0.240257 0
M  V30 1393 H 129.138 -5.91559 1.00888 0
M  V30 1394 H 130.208 -4.60144 1.52957 0
M  V30 1395 N 131.551 -0.354651 -1.53558 0
M  V30 1396 C 132.481 0.489091 -2.2832 0
M  V30 1397 C 133.462 1.09324 -1.30316 0
M  V30 1398 O 134.647 1.11255 -1.59173 0
M  V30 1399 C 131.777 1.63456 -3.0643 0
M  V30 1400 C 130.731 1.1582 -4.12031 0
M  V30 1401 C 130.057 2.39305 -4.7816 0
M  V30 1402 C 131.357 0.250731 -5.21698 0
M  V30 1403 H 133.051 -0.134614 -2.99097 0
M  V30 1404 H 130.597 -0.0661826 -1.43848 0
M  V30 1405 H 132.55 2.23136 -3.57475 0
M  V30 1406 H 131.274 2.28533 -2.33325 0
M  V30 1407 H 129.933 0.584146 -3.61916 0
M  V30 1408 H 129.581 3.02814 -4.01637 0
M  V30 1409 H 129.281 2.08109 -5.49513 0
M  V30 1410 H 130.805 2.99691 -5.31994 0
M  V30 1411 H 132.219 0.754695 -5.68311 0
M  V30 1412 H 130.616 0.0301468 -6.00092 0
M  V30 1413 H 131.686 -0.710125 -4.79672 0
M  V30 1414 N 133.029 1.57378 -0.0835403 0
M  V30 1415 C 134.254 1.98682 0.594987 0
M  V30 1416 C 134.679 0.961969 1.61641 0
M  V30 1417 O 134.037 -0.0709989 1.81161 0
M  V30 1418 C 134.085 3.38988 1.2296 0
M  V30 1419 O 133.189 3.39208 2.34546 0
M  V30 1420 H 132.53 0.646368 0.152002 0
M  V30 1421 H 135.06 2.03961 -0.161533 0
M  V30 1422 H 135.07 3.76431 1.57366 0
M  V30 1423 H 133.745 4.13107 0.481228 0
M  V30 1424 H 132.322 3.13548 2.01846 0
M  V30 1425 N 134.507 -0.190092 1.56449 0
M  V30 1426 C 135.455 -1.25501 1.95837 0
M  V30 1427 C 136.449 -1.4685 0.844485 0
M  V30 1428 O 137.655 -1.47651 1.02952 0
M  V30 1429 H 134.03 -0.421447 0.622805 0
M  V30 1430 H 136.001 -0.895821 2.84636 0
M  V30 1431 C 134.75 -2.59124 2.31841 0
M  V30 1432 H 134.073 -2.43514 3.17082 0
M  V30 1433 H 135.513 -3.32371 2.6326 0
M  V30 1434 C 133.972 -3.16488 1.15486 0
M  V30 1435 O 134.502 -3.99365 0.432535 0
M  V30 1436 N 132.708 -2.75305 0.930349 0
M  V30 1437 H 132.255 -2.08013 1.51948 0
M  V30 1438 H 132.213 -3.14024 0.153634 0
M  V30 1439 N 135.985 -1.50799 -0.457987 0
M  V30 1440 C 137.401 -1.38515 -0.792819 0
M  V30 1441 C 137.601 -0.451409 -1.96379 0
M  V30 1442 O 136.657 0.10112 -2.52297 0
M  V30 1443 C 137.97 -2.80149 -1.09258 0
M  V30 1444 C 139.518 -2.89156 -1.19825 0
M  V30 1445 C 139.993 -4.31651 -1.53106 0
M  V30 1446 N 141.484 -4.34662 -1.60072 0
M  V30 1447 C 142.219 -5.41928 -1.87354 0
M  V30 1448 N 141.715 -6.59384 -2.12568 0
M  V30 1449 N 143.508 -5.29385 -1.88965 0
M  V30 1450 H 135.659 -2.10073 0.313511 0
M  V30 1451 H 137.922 -0.944803 0.0777862 0
M  V30 1452 H 137.628 -3.50374 -0.305084 0
M  V30 1453 H 137.502 -3.18204 -2.02549 0
M  V30 1454 H 139.889 -2.19141 -1.97639 0
M  V30 1455 H 139.97 -2.54626 -0.244821 0
M  V30 1456 H 139.614 -5.02208 -0.758266 0
M  V30 1457 H 139.544 -4.63678 -2.49621 0
M  V30 1458 H 142.035 -3.49973 -1.42573 0
M  V30 1459 H 142.348 -7.36934 -2.32696 0
M  V30 1460 H 140.693 -6.62535 -2.09933 0
M  V30 1461 H 143.884 -4.36616 -1.68772 0
M  V30 1462 H 144.057 -6.13066 -2.09891 0
M  V30 1463 N 137.463 0.71206 -1.40597 0
M  V30 1464 C 138.688 1.50617 -1.42581 0
M  V30 1465 C 139.113 1.88079 -0.0282102 0
M  V30 1466 O 138.471 1.53511 0.964579 0
M  V30 1467 C 138.519 2.7557 -2.3258 0
M  V30 1468 O 137.623 3.72414 -1.77148 0
M  V30 1469 H 136.964 0.453966 -0.484573 0
M  V30 1470 H 139.494 0.876649 -1.84868 0
M  V30 1471 H 139.504 3.2406 -2.47889 0
M  V30 1472 H 138.179 2.47639 -3.34138 0
M  V30 1473 H 136.756 3.31276 -1.71204 0
M  V30 1474 N 138.941 1.26152 0.944643 0
M  V30 1475 C 139.888 1.07408 2.04285 0
M  V30 1476 C 140.858 -0.0198413 1.66088 0
M  V30 1477 O 142.043 0.139264 1.90291 0
M  V30 1478 C 139.183 0.70945 3.37729 0
M  V30 1479 C 138.296 1.87926 3.88983 0
M  V30 1480 C 137.431 1.45807 5.10797 0
M  V30 1481 C 136.47 2.5964 5.54305 0
M  V30 1482 N 135.607 2.18226 6.67324 0
M  V30 1483 H 140.447 2.01389 2.1965 0
M  V30 1484 H 137.984 1.00275 1.07626 0
M  V30 1485 H 139.942 0.478948 4.14442 0
M  V30 1486 H 138.572 -0.193389 3.2222 0
M  V30 1487 H 137.624 2.22279 3.08701 0
M  V30 1488 H 138.936 2.73377 4.17213 0
M  V30 1489 H 138.09 1.18781 5.94959 0
M  V30 1490 H 136.829 0.574414 4.84305 0
M  V30 1491 H 135.834 2.87399 4.68702 0
M  V30 1492 H 137.059 3.48599 5.828 0
M  V30 1493 H 135.005 1.3229 6.42523 0
M  V30 1494 H 134.922 2.97221 6.95123 0
M  V30 1495 H 136.19 1.94403 7.54869 0
M  V30 1496 N 140.419 -1.14872 1.07899 0
M  V30 1497 C 141.382 -2.17986 0.708161 0
M  V30 1498 C 142.382 -1.58775 -0.25442 0
M  V30 1499 O 143.572 -1.74166 -0.034645 0
M  V30 1500 C 140.704 -3.40871 0.0446929 0
M  V30 1501 H 141.897 -2.52306 1.62116 0
M  V30 1502 H 139.45 -1.2943 0.876218 0
M  V30 1503 H 140.185 -3.12124 -0.880281 0
M  V30 1504 H 139.97 -3.8511 0.737091 0
M  V30 1505 H 141.46 -4.17121 -0.19991 0
M  V30 1506 N 141.898 -0.863906 -1.31812 0
M  V30 1507 C 142.828 -0.330843 -2.31144 0
M  V30 1508 C 143.809 0.575005 -1.60087 0
M  V30 1509 O 144.994 0.493304 -1.8783 0
M  V30 1510 C 142.124 0.47374 -3.44054 0
M  V30 1511 C 141.078 -0.338481 -4.26659 0
M  V30 1512 C 140.404 0.591412 -5.31419 0
M  V30 1513 C 141.704 -1.56926 -4.98168 0
M  V30 1514 H 143.398 -1.16086 -2.75979 0
M  V30 1515 H 140.944 -0.559657 -1.32679 0
M  V30 1516 H 142.897 0.857143 -4.12591 0
M  V30 1517 H 141.621 1.33721 -2.9797 0
M  V30 1518 H 140.28 -0.703754 -3.59782 0
M  V30 1519 H 139.928 1.45199 -4.81587 0
M  V30 1520 H 139.628 0.0519022 -5.87577 0
M  V30 1521 H 141.152 0.97179 -6.02817 0
M  V30 1522 H 142.566 -1.25764 -5.59336 0
M  V30 1523 H 140.963 -2.04739 -5.64094 0
M  V30 1524 H 142.033 -2.32544 -4.25501 0
M  V30 1525 N 143.376 1.44774 -0.622745 0
M  V30 1526 C 144.622 2.0242 -0.124083 0
M  V30 1527 C 144.955 1.4881 1.24777 0
M  V30 1528 O 144.23 0.668799 1.8264 0
M  V30 1529 C 144.513 3.59957 -0.101619 0
M  V30 1530 C 144.366 4.23867 -1.50521 0
M  V30 1531 C 145.685 4.36284 0.578272 0
M  V30 1532 H 142.804 0.735528 -0.0465645 0
M  V30 1533 H 145.446 1.72447 -0.797617 0
M  V30 1534 H 143.596 3.85623 0.471934 0
M  V30 1535 H 145.268 4.09336 -2.12701 0
M  V30 1536 H 143.511 3.81684 -2.06154 0
M  V30 1537 H 144.182 5.32843 -1.4416 0
M  V30 1538 H 146.658 4.16001 0.0906057 0
M  V30 1539 H 145.534 5.46004 0.563149 0
M  V30 1540 H 145.795 4.10271 1.64713 0
M  V30 1541 N 144.854 0.36279 1.53368 0
M  V30 1542 C 146.27 0.0116182 1.59596 0
M  V30 1543 C 146.47 -1.47012 1.37803 0
M  V30 1544 O 145.526 -2.23136 1.18181 0
M  V30 1545 C 146.839 0.465052 2.97082 0
M  V30 1546 C 148.387 0.419033 3.10182 0
M  V30 1547 C 148.862 0.848235 4.50077 0
M  V30 1548 N 150.353 0.803183 4.56183 0
M  V30 1549 C 151.088 1.107 5.62613 0
M  V30 1550 N 150.584 1.47996 6.76808 0
M  V30 1551 N 152.377 1.02998 5.52583 0
M  V30 1552 H 144.528 1.32775 1.65785 0
M  V30 1553 H 146.791 0.542518 0.777417 0
M  V30 1554 H 146.497 1.49892 3.18159 0
M  V30 1555 H 146.371 -0.149786 3.76902 0
M  V30 1556 H 148.758 -0.605696 2.88817 0
M  V30 1557 H 148.839 1.06933 2.32377 0
M  V30 1558 H 148.483 1.87107 4.7218 0
M  V30 1559 H 148.413 0.175218 5.26308 0
M  V30 1560 H 150.904 0.52838 3.74188 0
M  V30 1561 H 151.217 1.69613 7.53957 0
M  V30 1562 H 149.562 1.51859 6.78206 0
M  V30 1563 H 152.753 0.737817 4.62249 0
M  V30 1564 H 152.926 1.2701 6.35431 0
M  V30 1565 N 146.332 -1.57332 0.0918853 0
M  V30 1566 C 147.262 -2.16872 -0.865371 0
M  V30 1567 C 148.243 -1.10118 -1.29646 0
M  V30 1568 O 149.428 -1.38242 -1.36392 0
M  V30 1569 C 146.558 -2.74649 -2.12569 0
M  V30 1570 C 145.512 -3.86747 -1.83333 0
M  V30 1571 C 144.838 -4.31212 -3.16166 0
M  V30 1572 C 146.138 -5.10089 -1.1228 0
M  V30 1573 H 147.832 -2.97114 -0.369307 0
M  V30 1574 H 145.378 -1.42918 -0.176194 0
M  V30 1575 H 147.331 -3.14952 -2.7997 0
M  V30 1576 H 146.055 -1.91657 -2.64452 0
M  V30 1577 H 144.714 -3.46978 -1.18331 0
M  V30 1578 H 144.362 -3.45115 -3.6593 0
M  V30 1579 H 144.062 -5.06788 -2.97388 0
M  V30 1580 H 145.586 -4.74146 -3.84731 0
M  V30 1581 H 147 -5.47582 -1.69785 0
M  V30 1582 H 145.397 -5.91073 -1.03693 0
M  V30 1583 H 146.467 -4.84786 -0.105041 0
M  V30 1584 N 147.81 0.181792 -1.56548 0
M  V30 1585 C 148.773 1.20894 -1.94724 0
M  V30 1586 C 149.773 1.37738 -0.829747 0
M  V30 1587 O 150.963 1.35323 -1.09697 0
M  V30 1588 C 148.095 2.57593 -2.23291 0
M  V30 1589 H 149.288 0.882275 -2.86629 0
M  V30 1590 H 146.841 0.423838 -1.50444 0
M  V30 1591 H 147.576 2.95291 -1.34067 0
M  V30 1592 H 147.361 2.46735 -3.04736 0
M  V30 1593 H 148.851 3.31637 -2.53785 0
M  V30 1594 N 149.288 1.51039 0.449983 0
M  V30 1595 C 150.218 1.74379 1.55288 0
M  V30 1596 C 151.199 0.593236 1.5942 0
M  V30 1597 O 152.384 0.834625 1.7535 0
M  V30 1598 C 149.514 1.85728 2.93466 0
M  V30 1599 C 148.468 3.01078 3.04197 0
M  V30 1600 C 147.794 2.97595 4.44231 0
M  V30 1601 C 149.094 4.41254 2.7945 0
M  V30 1602 H 150.788 2.66725 1.36008 0
M  V30 1603 H 148.334 1.2835 0.652864 0
M  V30 1604 H 150.287 2.0064 3.70569 0
M  V30 1605 H 149.011 0.900207 3.13949 0
M  V30 1606 H 147.67 2.85851 2.29531 0
M  V30 1607 H 147.318 1.99691 4.61663 0
M  V30 1608 H 147.018 3.75046 4.52343 0
M  V30 1609 H 148.542 3.14583 5.23326 0
M  V30 1610 H 149.956 4.56897 3.46292 0
M  V30 1611 H 148.353 5.20315 2.98985 0
M  V30 1612 H 149.423 4.52164 1.75144 0
M  V30 1613 N 150.766 -0.704594 1.40972 0
M  V30 1614 C 151.676 -1.84856 1.44448 0
M  V30 1615 C 152.692 -1.70726 0.335961 0
M  V30 1616 O 153.868 -1.92799 0.582276 0
M  V30 1617 C 150.933 -3.20758 1.31587 0
M  V30 1618 C 149.994 -3.47063 2.52677 0
M  V30 1619 C 149.227 -4.76481 2.4042 0
M  V30 1620 O 149.45 -5.52341 1.42391 0
M  V30 1621 O 148.384 -5.03367 3.30007 0
M  V30 1622 H 152.21 -1.8488 2.40942 0
M  V30 1623 H 149.795 -0.85647 1.22413 0
M  V30 1624 H 151.677 -4.01913 1.26665 0
M  V30 1625 H 150.352 -3.21438 0.382049 0
M  V30 1626 H 149.259 -2.65873 2.63177 0
M  V30 1627 H 150.592 -3.5119 3.44858 0
M  V30 1628 N 152.244 -1.26651 -0.937939 0
M  V30 1629 C 153.207 -1.08546 -2.01867 0
M  V30 1630 C 154.207 -0.0327327 -1.60767 0
M  V30 1631 O 155.397 -0.276427 -1.71993 0
M  V30 1632 C 152.529 -0.651711 -3.34613 0
M  V30 1633 H 153.722 -2.04502 -2.1936 0
M  V30 1634 H 151.275 -1.09294 -1.11734 0
M  V30 1635 H 152.01 0.309696 -3.22818 0
M  V30 1636 H 151.795 -1.41189 -3.65798 0
M  V30 1637 H 153.285 -0.546973 -4.14002 0
M  V30 1638 N 153.722 1.14298 -1.08507 0
M  V30 1639 C 154.632 2.23027 -0.727753 0
M  V30 1640 C 155.648 1.71952 0.26619 0
M  V30 1641 O 156.824 2.011 0.109882 0
M  V30 1642 C 153.889 3.46403 -0.143541 0
M  V30 1643 C 152.95 4.12413 -1.19223 0
M  V30 1644 C 152.183 5.29899 -0.635798 0
M  V30 1645 O 152.406 5.67796 0.544393 0
M  V30 1646 O 151.34 5.85717 -1.38634 0
M  V30 1647 H 155.166 2.55945 -1.63481 0
M  V30 1648 H 152.751 1.22248 -0.858817 0
M  V30 1649 H 154.633 4.21018 0.179404 0
M  V30 1650 H 153.308 3.15206 0.736659 0
M  V30 1651 H 152.215 3.39667 -1.56772 0
M  V30 1652 H 153.548 4.47718 -2.04474 0
M  V30 1653 N 155.201 0.870884 1.31352 0
M  V30 1654 C 156.148 0.325425 2.28494 0
M  V30 1655 C 157.118 -0.576615 1.5577 0
M  V30 1656 O 158.303 -0.508059 1.83911 0
M  V30 1657 C 155.443 -0.466283 3.41935 0
M  V30 1658 C 154.556 0.463378 4.29508 0
M  V30 1659 C 153.691 -0.342544 5.30094 0
M  V30 1660 C 152.73 0.583486 6.09313 0
M  V30 1661 N 151.867 -0.186244 7.01853 0
M  V30 1662 H 156.707 1.15901 2.74538 0
M  V30 1663 H 154.244 0.58294 1.35056 0
M  V30 1664 H 156.202 -0.941085 4.06447 0
M  V30 1665 H 154.832 -1.26456 2.97 0
M  V30 1666 H 153.884 1.05663 3.65431 0
M  V30 1667 H 155.196 1.1734 4.84802 0
M  V30 1668 H 154.35 -0.879816 6.00287 0
M  V30 1669 H 153.089 -1.08585 4.75458 0
M  V30 1670 H 152.094 1.13251 5.3801 0
M  V30 1671 H 153.319 1.32566 6.66035 0
M  V30 1672 H 151.265 -0.912348 6.49625 0
M  V30 1673 H 151.182 0.464422 7.54572 0
M  V30 1674 H 152.45 -0.704716 7.76308 0
M  V30 1675 N 156.679 -1.44442 0.630414 0
M  V30 1676 C 157.925 -2.02351 0.134816 0
M  V30 1677 C 158.258 -1.4947 -1.23986 0
M  V30 1678 O 157.533 -0.678475 -1.82283 0
M  V30 1679 C 157.816 -3.59898 0.120707 0
M  V30 1680 C 157.669 -4.23063 1.52767 0
M  V30 1681 C 158.988 -4.36585 -0.555127 0
M  V30 1682 H 156.107 -0.73527 0.0504646 0
M  V30 1683 H 158.749 -1.72022 0.806751 0
M  V30 1684 H 156.899 -3.85868 -0.451477 0
M  V30 1685 H 158.571 -4.08202 2.14869 0
M  V30 1686 H 156.814 -3.80586 2.08175 0
M  V30 1687 H 157.485 -5.32071 1.46984 0
M  V30 1688 H 159.961 -4.16044 -0.0685429 0
M  V30 1689 H 158.837 -5.46294 -0.534185 0
M  V30 1690 H 159.098 -4.11138 -1.62535 0
M  V30 1691 N 158.157 -0.370918 -1.53173 0
M  V30 1692 C 159.089 0.507823 -2.23503 0
M  V30 1693 C 160.102 1.04182 -1.251 0
M  V30 1694 O 161.291 0.947286 -1.5129 0
M  V30 1695 C 158.391 1.71447 -2.92334 0
M  V30 1696 C 157.564 1.31105 -4.17289 0
M  V30 1697 C 156.623 2.38035 -4.69282 0
M  V30 1698 O 155.649 2.00204 -5.32829 0
M  V30 1699 N 156.851 3.69697 -4.47554 0
M  V30 1700 H 159.616 -0.0946382 -2.99551 0
M  V30 1701 H 157.177 -0.196358 -1.60705 0
M  V30 1702 H 159.169 2.42469 -3.24023 0
M  V30 1703 H 157.739 2.22368 -2.19707 0
M  V30 1704 H 156.959 0.430462 -3.91843 0
M  V30 1705 H 158.247 1.0179 -4.98514 0
M  V30 1706 H 157.645 4.03205 -3.9679 0
M  V30 1707 H 156.202 4.36807 -4.8378 0
M  V30 1708 N 159.635 1.57281 -0.100228 0
M  V30 1709 C 160.598 2.13158 0.842398 0
M  V30 1710 C 161.598 1.06202 1.20738 0
M  V30 1711 O 162.788 1.32066 1.13597 0
M  V30 1712 C 159.92 2.65639 2.13655 0
M  V30 1713 H 161.113 2.97766 0.357114 0
M  V30 1714 H 158.666 1.5559 0.148823 0
M  V30 1715 H 159.401 1.84566 2.66657 0
M  V30 1716 H 159.186 3.43844 1.88451 0
M  V30 1717 H 160.676 3.08846 2.81077 0
M  V30 1718 N 161.113 -0.173488 1.56642 0
M  V30 1719 C 162.076 -1.19859 1.95362 0
M  V30 1720 C 163.076 -1.37296 0.83704 0
M  V30 1721 O 164.266 -1.34739 1.10413 0
M  V30 1722 C 161.398 -2.56405 2.24654 0
M  V30 1723 H 162.591 -0.867062 2.87092 0
M  V30 1724 H 160.144 -0.415853 1.50666 0
M  V30 1725 H 160.879 -2.94576 1.35631 0
M  V30 1726 H 160.664 -2.45115 3.06041 0
M  V30 1727 H 162.154 -3.30287 2.5554 0
M  V30 1728 N 162.591 -1.51276 -0.441967 0
M  V30 1729 C 163.541 -1.6864 -1.53442 0
M  V30 1730 C 164.525 -0.540444 -1.51552 0
M  V30 1731 O 165.717 -0.796157 -1.58083 0
M  V30 1732 C 162.846 -1.8106 -2.91672 0
M  V30 1733 C 161.932 -3.01424 -2.98336 0
M  V30 1734 N 162.323 -4.2467 -2.74752 0
M  V30 1735 C 160.621 -3.00584 -3.29493 0
M  V30 1736 C 161.322 -5.05891 -2.87139 0
M  V30 1737 N 160.298 -4.40442 -3.18609 0
M  V30 1738 H 164.1 -2.61598 -1.33954 0
M  V30 1739 H 161.614 -1.4886 -0.6492 0
M  V30 1740 H 163.611 -1.91609 -3.70259 0
M  V30 1741 H 162.271 -0.892795 -3.12185 0
M  V30 1742 H 163.282 -4.53691 -2.49769 0
M  V30 1743 H 159.959 -2.18417 -3.55809 0
M  V30 1744 H 161.349 -6.13983 -2.72899 0
M  V30 1745 N 164.069 0.697108 -1.41344 0
M  V30 1746 C 165.001 1.8224 -1.39001 0
M  V30 1747 C 166.014 1.60152 -0.292428 0
M  V30 1748 O 167.203 1.69684 -0.554048 0
M  V30 1749 C 164.303 3.18976 -1.14489 0
M  V30 1750 C 163.476 3.68105 -2.36258 0
M  V30 1751 C 162.535 4.83506 -2.07625 0
M  V30 1752 O 161.561 4.95201 -2.8065 0
M  V30 1753 N 162.763 5.70637 -1.06555 0
M  V30 1754 H 165.528 1.84742 -2.35988 0
M  V30 1755 H 163.089 0.87937 -1.35936 0
M  V30 1756 H 165.081 3.93801 -0.932885 0
M  V30 1757 H 163.651 3.11508 -0.261043 0
M  V30 1758 H 162.871 2.84204 -2.7317 0
M  V30 1759 H 164.159 3.97667 -3.17393 0
M  V30 1760 H 163.557 5.63817 -0.461125 0
M  V30 1761 H 162.114 6.45368 -0.913444 0
M  V30 1762 N 165.547 1.27147 0.931209 0
M  V30 1763 C 166.793 1.14455 1.68141 0
M  V30 1764 C 167.148 -0.307172 1.89932 0
M  V30 1765 O 166.441 -1.22158 1.47607 0
M  V30 1766 C 166.635 1.8579 3.05314 0
M  V30 1767 C 166.464 3.3775 2.96909 0
M  V30 1768 C 165.234 4.07062 2.99381 0
M  V30 1769 C 167.432 4.33783 2.76291 0
M  V30 1770 N 165.414 5.45618 2.8138 0
M  V30 1771 C 166.785 5.59582 2.6696 0
M  V30 1772 C 168.84 4.23915 2.61152 0
M  V30 1773 C 167.543 6.76639 2.44033 0
M  V30 1774 C 169.569 5.40689 2.39602 0
M  V30 1775 C 168.931 6.65443 2.3101 0
M  V30 1776 H 165.03 0.473667 0.622225 0
M  V30 1777 H 167.614 1.60568 1.10118 0
M  V30 1778 H 165.785 1.42138 3.61457 0
M  V30 1779 H 167.517 1.65634 3.69253 0
M  V30 1780 H 164.272 3.585 3.09475 0
M  V30 1781 H 164.696 6.184 2.75519 0
M  V30 1782 H 169.338 3.28189 2.66555 0
M  V30 1783 H 167.056 7.72451 2.3737 0
M  V30 1784 H 170.642 5.34932 2.28778 0
M  V30 1785 H 169.522 7.54277 2.14558 0
M  V30 1786 N 167.025 -1.13721 1.09112 0
M  V30 1787 C 168.441 -1.36914 0.820174 0
M  V30 1788 C 168.641 -1.93356 -0.567079 0
M  V30 1789 O 167.697 -2.15093 -1.32255 0
M  V30 1790 C 169.01 -2.3235 1.90877 0
M  V30 1791 C 170.558 -2.45973 1.93562 0
M  V30 1792 C 171.033 -3.44714 3.01556 0
M  V30 1793 N 172.524 -3.52263 3.00775 0
M  V30 1794 C 173.259 -4.28536 3.80978 0
M  V30 1795 N 172.755 -5.07991 4.71081 0
M  V30 1796 N 174.548 -4.23804 3.69251 0
M  V30 1797 H 166.699 -0.754348 1.98553 0
M  V30 1798 H 168.962 -0.3944 0.862063 0
M  V30 1799 H 168.668 -1.98027 2.90651 0
M  V30 1800 H 168.542 -3.32332 1.78424 0
M  V30 1801 H 170.929 -2.79584 0.944286 0
M  V30 1802 H 171.01 -1.45926 2.10093 0
M  V30 1803 H 170.654 -3.11835 4.00901 0
M  V30 1804 H 170.584 -4.44558 2.82269 0
M  V30 1805 H 173.075 -2.95567 2.35475 0
M  V30 1806 H 173.388 -5.63487 5.28869 0
M  V30 1807 H 171.733 -5.07235 4.75119 0
M  V30 1808 H 174.924 -3.60806 2.98222 0
M  V30 1809 H 175.097 -4.82995 4.31995 0
M  V30 1810 N 168.503 -0.877838 -1.30888 0
M  V30 1811 C 169.413 -0.343096 -2.32078 0
M  V30 1812 C 170.429 0.551022 -1.65045 0
M  V30 1813 O 171.605 0.445854 -1.96403 0
M  V30 1814 C 168.67 0.439905 -3.43898 0
M  V30 1815 C 167.731 -0.483111 -4.26573 0
M  V30 1816 C 166.964 0.262616 -5.33053 0
M  V30 1817 O 167.187 1.48967 -5.50604 0
M  V30 1818 O 166.121 -0.383593 -6.00676 0
M  V30 1819 H 169.947 -1.18203 -2.79753 0
M  V30 1820 H 167.532 -0.64145 -1.34929 0
M  V30 1821 H 169.414 0.883504 -4.12034 0
M  V30 1822 H 168.089 1.25526 -2.98371 0
M  V30 1823 H 166.996 -0.975374 -3.61161 0
M  V30 1824 H 168.329 -1.26427 -4.75686 0
M  V30 1825 N 169.982 1.44106 -0.638065 0
M  V30 1826 C 171.259 1.95453 -0.0759321 0
M  V30 1827 C 171.639 1.57984 1.40015 0
M  V30 1828 O 170.987 0.857361 2.11806 0
M  V30 1829 C 171.197 3.47655 -0.306132 0
M  V30 1830 C 172.545 4.24114 -0.203008 0
M  V30 1831 O 173.569 3.55405 -0.237871 0
M  V30 1832 O 172.428 5.46381 -0.113827 0
M  V30 1833 H 169.522 0.826797 0.0183332 0
M  V30 1834 H 172.068 1.54122 -0.710251 0
M  V30 1835 H 170.84 3.68 -1.3301 0
M  V30 1836 H 170.463 3.95949 0.361991 0
M  V30 1837 N 171.46 0.379036 1.52974 0
M  V30 1838 C 172.707 -0.206421 2.01445 0
M  V30 1839 C 173.035 -1.47668 1.26587 0
M  V30 1840 O 172.29 -1.92514 0.351675 0
M  V30 1841 C 172.589 -0.53096 3.53434 0
M  V30 1842 C 172.255 0.646546 4.46241 0
M  V30 1843 C 170.917 0.969604 4.7133 0
M  V30 1844 C 173.269 1.43479 5.01062 0
M  V30 1845 C 170.597 2.08263 5.48492 0
M  V30 1846 C 172.949 2.53834 5.7944 0
M  V30 1847 C 171.613 2.86659 6.02812 0
M  V30 1848 H 170.883 -0.0755349 0.73714 0
M  V30 1849 H 173.53 0.514271 1.84465 0
M  V30 1850 H 171.835 -1.33285 3.68432 0
M  V30 1851 H 173.532 -0.996417 3.88423 0
M  V30 1852 H 170.122 0.384734 4.2687 0
M  V30 1853 H 174.306 1.19844 4.81613 0
M  V30 1854 H 169.562 2.34078 5.64816 0
M  V30 1855 H 173.736 3.15319 6.20924 0
M  V30 1856 H 171.363 3.73026 6.62387 0
M  V30 1857 N 172.938 -1.57226 0.108567 0
M  V30 1858 C 173.901 -2.13602 -0.831082 0
M  V30 1859 C 174.901 -1.06841 -1.20173 0
M  V30 1860 O 176.091 -1.32666 -1.12895 0
M  V30 1861 C 173.223 -2.66769 -2.12243 0
M  V30 1862 H 174.416 -2.97951 -0.341317 0
M  V30 1863 H 171.969 -1.55667 -0.14057 0
M  V30 1864 H 172.704 -1.85977 -2.65675 0
M  V30 1865 H 172.489 -3.44839 -1.86625 0
M  V30 1866 H 173.979 -3.10332 -2.79435 0
M  V30 1867 N 174.416 0.165178 -1.56732 0
M  V30 1868 C 175.641 0.900253 -1.86843 0
M  V30 1869 C 176.066 1.74766 -0.695596 0
M  V30 1870 O 175.424 1.77786 0.35522 0
M  V30 1871 C 175.472 1.74777 -3.15413 0
M  V30 1872 O 174.576 2.85007 -2.98068 0
M  V30 1873 H 173.917 0.251832 -0.614391 0
M  V30 1874 H 176.447 0.161468 -2.03962 0
M  V30 1875 H 176.457 2.14646 -3.46974 0
M  V30 1876 H 175.132 1.12537 -4.00385 0
M  V30 1877 H 173.709 2.48676 -2.77875 0
M  V30 1878 N 175.894 1.51508 0.433938 0
M  V30 1879 C 176.842 1.73646 1.54757 0
M  V30 1880 C 177.836 0.602854 1.5831 0
M  V30 1881 O 179.042 0.784318 1.62014 0
M  V30 1882 H 175.417 0.548718 0.51421 0
M  V30 1883 H 177.388 2.66991 1.33261 0
M  V30 1884 C 176.137 1.88172 2.92381 0
M  V30 1885 H 175.46 2.74808 2.90381 0
M  V30 1886 H 176.9 2.07672 3.6966 0
M  V30 1887 C 175.359 0.64239 3.30719 0
M  V30 1888 O 175.889 -0.201362 4.01195 0
M  V30 1889 N 174.095 0.485489 2.86516 0
M  V30 1890 H 173.642 1.17318 2.29334 0
M  V30 1891 H 173.6 -0.342482 3.12529 0
M  V30 1892 N 177.372 -0.689602 1.41712 0
M  V30 1893 C 178.282 -1.83314 1.46401 0
M  V30 1894 C 179.298 -1.7036 0.35405 0
M  V30 1895 O 180.474 -1.92171 0.602692 0
M  V30 1896 C 177.539 -3.19344 1.34982 0
M  V30 1897 C 176.6 -3.44363 2.56344 0
M  V30 1898 C 175.833 -4.73904 2.45461 0
M  V30 1899 O 176.056 -5.508 1.48241 0
M  V30 1900 O 174.99 -4.99839 3.35328 0
M  V30 1901 H 178.816 -1.82314 2.42889 0
M  V30 1902 H 176.401 -0.843438 1.23315 0
M  V30 1903 H 178.283 -4.00547 1.3092 0
M  V30 1904 H 176.958 -3.21014 0.41612 0
M  V30 1905 H 175.865 -2.63067 2.65982 0
M  V30 1906 H 177.198 -3.47512 3.48563 0
M  V30 1907 N 178.85 -1.27639 -0.924453 0
M  V30 1908 C 180.096 -1.14336 -1.67497 0
M  V30 1909 C 180.429 0.309465 -1.91718 0
M  V30 1910 O 179.704 1.22608 -1.50989 0
M  V30 1911 C 179.987 -1.93096 -3.0395 0
M  V30 1912 C 179.84 -3.46381 -2.8695 0
M  V30 1913 C 181.159 -1.73798 -4.0433 0
M  V30 1914 H 178.278 -0.416728 -0.607871 0
M  V30 1915 H 180.92 -1.56832 -1.07256 0
M  V30 1916 H 179.07 -1.56982 -3.55372 0
M  V30 1917 H 180.742 -3.92343 -2.42621 0
M  V30 1918 H 178.985 -3.72557 -2.22225 0
M  V30 1919 H 179.656 -3.96735 -3.83804 0
M  V30 1920 H 182.132 -2.05293 -3.61931 0
M  V30 1921 H 181.008 -2.31294 -4.97789 0
M  V30 1922 H 181.269 -0.686725 -4.36734 0
M  V30 1923 N 180.328 1.1314 -1.09713 0
M  V30 1924 C 181.574 1.84757 -0.836224 0
M  V30 1925 C 181.907 1.8347 0.636598 0
M  V30 1926 O 181.182 1.27491 1.46889 0
M  V30 1927 C 181.465 3.32782 -1.37578 0
M  V30 1928 C 181.318 3.42567 -2.91493 0
M  V30 1929 C 182.637 4.28307 -1.01198 0
M  V30 1930 H 179.756 0.67082 -0.305236 0
M  V30 1931 H 182.398 1.3278 -1.35903 0
M  V30 1932 H 180.548 3.77177 -0.931097 0
M  V30 1933 H 182.22 3.06862 -3.44432 0
M  V30 1934 H 180.463 2.83349 -3.28475 0
M  V30 1935 H 181.134 4.46674 -3.24324 0
M  V30 1936 H 183.61 3.91999 -1.39556 0
M  V30 1937 H 182.486 5.30307 -1.41653 0
M  V30 1938 H 182.747 4.42029 0.0794833 0
M  V30 1939 N 181.806 0.884767 1.30421 0
M  V30 1940 C 183.036 0.517293 2.00019 0
M  V30 1941 C 183.444 -0.898632 1.66497 0
M  V30 1942 O 182.787 -1.60245 0.898181 0
M  V30 1943 C 182.849 0.612025 3.54252 0
M  V30 1944 C 182.513 1.99222 4.1129 0
M  V30 1945 C 183.51 2.9616 4.273 0
M  V30 1946 C 181.195 2.29755 4.46674 0
M  V30 1947 C 183.189 4.21764 4.77906 0
M  V30 1948 C 180.876 3.55606 4.96979 0
M  V30 1949 C 181.874 4.51425 5.12547 0
M  V30 1950 O 181.562 5.75043 5.61766 0
M  V30 1951 H 181.294 0.198529 0.64619 0
M  V30 1952 H 183.848 1.1919 1.67281 0
M  V30 1953 H 182.078 -0.119561 3.86515 0
M  V30 1954 H 183.767 0.255859 4.05093 0
M  V30 1955 H 184.533 2.73882 4.00267 0
M  V30 1956 H 180.412 1.55942 4.33824 0
M  V30 1957 H 183.956 4.96561 4.89972 0
M  V30 1958 H 179.853 3.7772 5.23448 0
M  V30 1959 H 180.621 5.77422 5.80109 0
M  V30 1960 N 183.284 -1.43765 0.645699 0
M  V30 1961 C 184.514 -2.05953 0.163318 0
M  V30 1962 C 184.922 -1.48432 -1.17322 0
M  V30 1963 O 184.265 -0.607295 -1.73371 0
M  V30 1964 C 184.327 -3.59499 -0.0103065 0
M  V30 1965 C 183.991 -4.39563 1.25035 0
M  V30 1966 C 184.988 -4.72108 2.17739 0
M  V30 1967 C 182.673 -4.79697 1.48983 0
M  V30 1968 C 184.667 -5.43688 3.3269 0
M  V30 1969 C 182.354 -5.51023 2.64229 0
M  V30 1970 C 183.352 -5.8294 3.55908 0
M  V30 1971 O 183.04 -6.5281 4.69142 0
M  V30 1972 H 182.772 -0.670798 0.0836986 0
M  V30 1973 H 185.326 -1.85384 0.884407 0
M  V30 1974 H 183.556 -3.78613 -0.78669 0
M  V30 1975 H 185.245 -4.03408 -0.449087 0
M  V30 1976 H 186.011 -4.41627 2.00476 0
M  V30 1977 H 181.89 -4.54266 0.785078 0
M  V30 1978 H 185.434 -5.68517 4.04269 0
M  V30 1979 H 181.331 -5.8092 2.81429 0
M  V30 1980 H 182.099 -6.71288 4.6831 0
M  V30 1981 N 184.763 -0.387143 -1.52771 0
M  V30 1982 C 185.711 0.463953 -2.27926 0
M  V30 1983 C 186.705 1.06493 -1.31741 0
M  V30 1984 O 187.911 1.00565 -1.49287 0
M  V30 1985 H 184.286 0.16837 -0.732909 0
M  V30 1986 H 186.257 -0.19141 -2.97785 0
M  V30 1987 C 185.006 1.5803 -3.09713 0
M  V30 1988 H 184.329 1.12718 -3.83581 0
M  V30 1989 H 185.769 2.15008 -3.65442 0
M  V30 1990 C 184.228 2.53509 -2.2189 0
M  V30 1991 O 184.758 3.56863 -1.84422 0
M  V30 1992 N 182.964 2.23199 -1.86093 0
M  V30 1993 H 182.511 1.39185 -2.16761 0
M  V30 1994 H 182.469 2.87333 -1.27621 0
M  V30 1995 N 186.241 1.57166 -0.116904 0
M  V30 1996 C 187.204 2.14039 0.819742 0
M  V30 1997 C 188.204 1.07477 1.19605 0
M  V30 1998 O 189.394 1.33263 1.1219 0
M  V30 1999 C 186.526 2.67891 2.10826 0
M  V30 2000 H 187.719 2.98128 0.325511 0
M  V30 2001 H 185.272 1.55739 0.132312 0
M  V30 2002 H 186.007 1.87384 2.64685 0
M  V30 2003 H 185.792 3.45823 1.84793 0
M  V30 2004 H 187.282 3.11809 2.77785 0
M  V30 2005 N 187.719 -0.156864 1.56817 0
M  V30 2006 C 188.666 -1.19394 1.97519 0
M  V30 2007 C 189.636 -1.4322 0.841265 0
M  V30 2008 O 190.821 -1.55719 1.10255 0
M  V30 2009 C 187.961 -2.52483 2.35258 0
M  V30 2010 C 187.074 -2.35914 3.61896 0
M  V30 2011 C 186.209 -3.61969 3.88782 0
M  V30 2012 C 185.248 -3.40395 5.08722 0
M  V30 2013 N 184.385 -4.58556 5.31668 0
M  V30 2014 H 189.225 -0.839845 2.85921 0
M  V30 2015 H 186.762 -0.403264 1.41464 0
M  V30 2016 H 188.72 -3.30071 2.55165 0
M  V30 2017 H 187.35 -2.85859 1.49949 0
M  V30 2018 H 186.402 -1.49429 3.49821 0
M  V30 2019 H 187.714 -2.15926 4.49641 0
M  V30 2020 H 186.868 -4.47989 4.09135 0
M  V30 2021 H 185.607 -3.84951 2.9944 0
M  V30 2022 H 184.612 -2.52763 4.88253 0
M  V30 2023 H 185.837 -3.18822 5.99608 0
M  V30 2024 H 183.783 -4.81729 4.45279 0
M  V30 2025 H 183.7 -4.41535 6.13664 0
M  V30 2026 H 184.968 -5.45817 5.5651 0
M  V30 2027 N 189.197 -1.51736 -0.425897 0
M  V30 2028 C 190.474 -1.55519 -1.1863 0
M  V30 2029 C 190.854 -0.326219 -2.08564 0
M  V30 2030 O 190.202 0.688012 -2.17896 0
M  V30 2031 C 190.412 -2.87521 -1.9782 0
M  V30 2032 C 191.76 -3.39899 -2.54468 0
M  V30 2033 O 192.784 -2.89148 -2.08019 0
M  V30 2034 O 191.643 -4.2848 -3.39215 0
M  V30 2035 H 188.737 -0.625739 -0.540721 0
M  V30 2036 H 191.283 -1.64055 -0.434038 0
M  V30 2037 H 190.055 -3.68422 -1.31836 0
M  V30 2038 H 189.678 -2.822 -2.80088 0
M  V30 2039 N 190.675 0.682077 -1.42076 0
M  V30 2040 C 191.952 1.43755 -1.32642 0
M  V30 2041 C 192.332 2.11063 0.0396611 0
M  V30 2042 O 191.68 2.02701 1.05474 0
M  V30 2043 C 191.89 2.44596 -2.48946 0
M  V30 2044 C 193.238 3.09454 -2.9073 0
M  V30 2045 O 194.262 2.54922 -2.48783 0
M  V30 2046 O 193.121 4.08253 -3.63307 0
M  V30 2047 H 190.215 0.640857 -0.522715 0
M  V30 2048 H 192.761 0.711415 -1.54068 0
M  V30 2049 H 191.533 1.93609 -3.40046 0
M  V30 2050 H 191.156 3.24701 -2.29467 0
M  V30 2051 N 192.153 1.28127 0.917671 0
M  V30 2052 C 193.083 1.14248 2.03641 0
M  V30 2053 C 194.064 0.0412748 1.7005 0
M  V30 2054 O 195.249 0.217566 1.92977 0
M  V30 2055 C 192.379 0.799431 3.37974 0
M  V30 2056 C 191.333 1.85497 3.85713 0
M  V30 2057 C 190.659 1.36565 5.16966 0
M  V30 2058 C 191.959 3.26085 4.08002 0
M  V30 2059 H 193.653 2.07835 2.15511 0
M  V30 2060 H 191.199 1.00064 1.03553 0
M  V30 2061 H 193.152 0.689114 4.15727 0
M  V30 2062 H 191.876 -0.172145 3.26146 0
M  V30 2063 H 190.535 1.95437 3.10161 0
M  V30 2064 H 190.183 0.383253 5.01538 0
M  V30 2065 H 189.883 2.07143 5.49878 0
M  V30 2066 H 191.407 1.26848 5.97279 0
M  V30 2067 H 192.821 3.19089 4.76293 0
M  V30 2068 H 191.218 3.94462 4.52238 0
M  V30 2069 H 192.288 3.70394 3.12948 0
M  V30 2070 N 193.631 -1.12557 1.10312 0
M  V30 2071 C 194.908 -1.80363 0.756878 0
M  V30 2072 C 195.288 -1.97067 -0.756824 0
M  V30 2073 O 194.636 -1.54601 -1.68259 0
M  V30 2074 C 194.846 -3.14812 1.50647 0
M  V30 2075 C 196.194 -3.90029 1.67817 0
M  V30 2076 O 197.218 -3.24464 1.46974 0
M  V30 2077 O 196.077 -5.07652 2.02365 0
M  V30 2078 H 193.171 -0.780667 0.272926 0
M  V30 2079 H 195.717 -1.19404 1.20586 0
M  V30 2080 H 194.489 -2.97936 2.53672 0
M  V30 2081 H 194.112 -3.83478 1.05026 0
M  V30 2082 N 195.109 -0.891671 -1.2995 0
M  V30 2083 C 196.52 -0.563104 -1.78006 0
M  V30 2084 C 196.871 0.920978 -1.73241 0
M  V30 2085 O 195.996 1.71987 -1.31337 0
M  V30 2086 C 196.591 -1.01539 -3.23226 0
M  V30 2087 C 195.15 -0.738124 -3.69092 0
M  V30 2088 C 194.297 -1.19461 -2.50249 0
M  V30 2089 H 197.248 -1.07522 -1.16725 0
M  V30 2090 H 197.269 -0.347217 -3.78912 0
M  V30 2091 H 196.781 -2.09555 -3.26662 0
M  V30 2092 H 194.882 0.329766 -3.71138 0
M  V30 2093 H 194.995 -1.33037 -4.60259 0
M  V30 2094 H 193.359 -0.613787 -2.47194 0
M  V30 2095 H 194.142 -2.28265 -2.56417 0
M  V30 2096 N 196.587 1.43421 -0.653314 0
M  V30 2097 C 197.497 2.34568 0.0388565 0
M  V30 2098 C 198.513 1.53888 0.81207 0
M  V30 2099 O 199.689 1.86539 0.759294 0
M  V30 2100 C 196.754 3.32167 0.993269 0
M  V30 2101 C 195.815 4.28751 0.216977 0
M  V30 2102 C 195.048 5.21688 1.12593 0
M  V30 2103 O 195.271 5.19052 2.36519 0
M  V30 2104 O 194.205 5.98919 0.598284 0
M  V30 2105 H 198.031 2.95251 -0.711386 0
M  V30 2106 H 195.616 1.43564 -0.413502 0
M  V30 2107 H 197.498 3.92183 1.54176 0
M  V30 2108 H 196.173 2.73987 1.72374 0
M  V30 2109 H 195.08 3.72215 -0.375101 0
M  V30 2110 H 196.413 4.89913 -0.473924 0
M  V30 2111 N 198.065 0.39524 1.52563 0
M  V30 2112 C 199.012 -0.437036 2.26624 0
M  V30 2113 C 199.982 -1.05281 1.28472 0
M  V30 2114 O 201.167 -1.07971 1.57311 0
M  V30 2115 C 198.307 -1.55524 3.08069 0
M  V30 2116 C 197.42 -0.961745 4.21158 0
M  V30 2117 C 196.555 -2.05149 4.89987 0
M  V30 2118 C 195.594 -1.4342 5.95061 0
M  V30 2119 N 194.731 -2.46351 6.57462 0
M  V30 2120 H 199.571 0.200976 2.97322 0
M  V30 2121 H 197.108 0.110944 1.46681 0
M  V30 2122 H 199.066 -2.21437 3.53584 0
M  V30 2123 H 197.696 -2.16348 2.3957 0
M  V30 2124 H 196.748 -0.192048 3.79915 0
M  V30 2125 H 198.06 -0.470701 4.96574 0
M  V30 2126 H 197.214 -2.78819 5.38837 0
M  V30 2127 H 195.953 -2.57615 4.14109 0
M  V30 2128 H 194.958 -0.682774 5.45544 0
M  V30 2129 H 196.183 -0.917416 6.72875 0
M  V30 2130 H 194.129 -2.97975 5.8442 0
M  V30 2131 H 194.046 -2.02019 7.28508 0
M  V30 2132 H 195.314 -3.19633 7.10954 0
M  V30 2133 N 199.544 -1.57102 0.125237 0
M  V30 2134 C 200.492 -2.16905 -0.839927 0
M  V30 2135 C 201.486 -1.11998 -1.27094 0
M  V30 2136 O 202.692 -1.3029 -1.24195 0
M  V30 2137 H 199.067 -0.694252 -0.288995 0
M  V30 2138 H 201.038 -2.96774 -0.311115 0
M  V30 2139 C 199.787 -2.78795 -2.07771 0
M  V30 2140 H 199.11 -3.59221 -1.755 0
M  V30 2141 H 200.55 -3.2417 -2.73295 0
M  V30 2142 C 199.009 -1.76193 -2.87155 0
M  V30 2143 O 199.539 -1.21909 -3.82755 0
M  V30 2144 N 197.745 -1.45991 -2.51267 0
M  V30 2145 H 197.292 -1.90325 -1.73592 0
M  V30 2146 H 197.25 -0.775844 -3.04677 0
M  V30 2147 N 201.022 0.148545 -1.56898 0
M  V30 2148 C 202.299 0.890019 -1.74178 0
M  V30 2149 C 202.679 1.99407 -0.692839 0
M  V30 2150 O 202.027 2.26671 0.288505 0
M  V30 2151 C 202.237 1.43389 -3.18183 0
M  V30 2152 C 203.585 1.89791 -3.79822 0
M  V30 2153 O 204.609 1.53134 -3.21603 0
M  V30 2154 O 203.468 2.57387 -4.82093 0
M  V30 2155 H 200.562 0.420496 -0.712118 0
M  V30 2156 H 203.108 0.134591 -1.69165 0
M  V30 2157 H 201.88 0.640383 -3.86024 0
M  V30 2158 H 201.503 2.25287 -3.27615 0
M  V30 2159 N 202.5 1.5196 0.417844 0
M  V30 2160 C 203.725 1.69717 1.1921 0
M  V30 2161 C 204.15 0.402148 1.83751 0
M  V30 2162 O 203.508 -0.639593 1.69643 0
M  V30 2163 C 203.556 2.82794 2.2374 0
M  V30 2164 O 202.66 2.47756 3.29683 0
M  V30 2165 H 202.001 0.565263 0.348387 0
M  V30 2166 H 204.531 1.98621 0.490985 0
M  V30 2167 H 204.541 3.07452 2.68212 0
M  V30 2168 H 203.216 3.76756 1.76146 0
M  V30 2169 H 201.793 2.33739 2.90552 0
M  V30 2170 N 203.978 -0.674533 1.42435 0
M  V30 2171 C 204.888 -1.81751 1.48337 0
M  V30 2172 C 205.904 -1.69975 0.372099 0
M  V30 2173 O 207.08 -1.91521 0.62304 0
M  V30 2174 C 204.145 -3.17895 1.38361 0
M  V30 2175 C 203.206 -3.41625 2.59982 0
M  V30 2176 C 202.439 -4.71274 2.50473 0
M  V30 2177 O 202.662 -5.49197 1.54075 0
M  V30 2178 O 201.596 -4.96254 3.4061 0
M  V30 2179 H 205.422 -1.79728 2.44809 0
M  V30 2180 H 203.007 -0.830312 1.24202 0
M  V30 2181 H 204.889 -3.99136 1.35161 0
M  V30 2182 H 203.564 -3.20555 0.450144 0
M  V30 2183 H 202.471 -2.60231 2.68757 0
M  V30 2184 H 203.804 -3.43796 3.52229 0
M  V30 2185 N 205.456 -1.28612 -0.910864 0
M  V30 2186 C 206.867 -1.14406 -1.47541 0
M  V30 2187 C 207.218 0.264901 -1.94403 0
M  V30 2188 O 206.343 1.15942 -1.82719 0
M  V30 2189 C 206.938 -2.07073 -2.68153 0
M  V30 2190 C 205.497 -1.96923 -3.20778 0
M  V30 2191 C 204.644 -1.98646 -1.93481 0
M  V30 2192 H 207.595 -1.41259 -0.723291 0
M  V30 2193 H 207.616 -1.63642 -3.43514 0
M  V30 2194 H 207.128 -3.09611 -2.34015 0
M  V30 2195 H 205.229 -0.97433 -3.59635 0
M  V30 2196 H 205.342 -2.84026 -3.85832 0
M  V30 2197 H 203.706 -1.43093 -2.10705 0
M  V30 2198 H 204.489 -3.02868 -1.61634 0
M  V30 2199 N 206.934 1.1197 -1.10907 0
M  V30 2200 C 208.182 1.83225 -0.852819 0
M  V30 2201 C 208.503 1.84769 0.623341 0
M  V30 2202 O 207.773 1.3143 1.45269 0
M  V30 2203 H 206.353 0.67849 -0.312507 0
M  V30 2204 H 209.015 1.3556 -1.40033 0
M  V30 2205 H 208.111 2.87265 -1.22005 0
M  V30 2206 N 208.412 0.89855 1.29475 0
M  V30 2207 C 209.637 0.538561 2.00285 0
M  V30 2208 C 210.062 -0.869135 1.66816 0
M  V30 2209 O 209.42 -1.57831 0.892145 0
M  V30 2210 C 209.468 0.736475 3.52999 0
M  V30 2211 O 208.572 -0.211537 4.11857 0
M  V30 2212 H 207.913 0.210563 0.62973 0
M  V30 2213 H 210.443 1.20982 1.64998 0
M  V30 2214 H 210.453 0.640685 4.02938 0
M  V30 2215 H 209.128 1.76276 3.76696 0
M  V30 2216 H 207.705 -0.0682991 3.72837 0
M  V30 2217 N 209.89 -1.43072 0.660911 0
M  V30 2218 C 210.822 -2.29108 -0.0647641 0
M  V30 2219 C 211.835 -1.42928 -0.779448 0
M  V30 2220 O 213.024 -1.66788 -0.635921 0
M  V30 2221 C 210.124 -3.20032 -1.11503 0
M  V30 2222 C 209.297 -4.34792 -0.476955 0
M  V30 2223 C 208.356 -5.06534 -1.42513 0
M  V30 2224 O 207.382 -5.61538 -0.930771 0
M  V30 2225 N 208.584 -5.1075 -2.75889 0
M  V30 2226 H 211.349 -2.92029 0.673731 0
M  V30 2227 H 208.91 -1.53846 0.50427 0
M  V30 2228 H 210.902 -3.64892 -1.75032 0
M  V30 2229 H 209.472 -2.58658 -1.75541 0
M  V30 2230 H 208.692 -3.92752 0.337572 0
M  V30 2231 H 209.98 -5.0879 -0.0318525 0
M  V30 2232 H 209.378 -4.67447 -3.18606 0
M  V30 2233 H 207.935 -5.59302 -3.347 0
M  V30 2234 N 211.368 -0.403325 -1.52352 0
M  V30 2235 C 212.784 -0.0539281 -1.59509 0
M  V30 2236 C 212.984 1.43307 -1.41652 0
M  V30 2237 O 212.04 2.19924 -1.24056 0
M  V30 2238 C 213.353 -0.543654 -2.95745 0
M  V30 2239 C 214.901 -0.501125 -3.08962 0
M  V30 2240 C 215.376 -0.967267 -4.47669 0
M  V30 2241 N 216.867 -0.923849 -4.53893 0
M  V30 2242 C 217.602 -1.25578 -5.5948 0
M  V30 2243 N 217.098 -1.65889 -6.72646 0
M  V30 2244 N 218.891 -1.17613 -5.49658 0
M  V30 2245 H 211.042 -1.37123 -1.62206 0
M  V30 2246 H 213.305 -0.56294 -0.76276 0
M  V30 2247 H 213.011 -1.58275 -3.14073 0
M  V30 2248 H 212.885 0.0498042 -3.77167 0
M  V30 2249 H 215.272 0.528909 -2.90321 0
M  V30 2250 H 215.353 -1.13056 -2.2946 0
M  V30 2251 H 214.997 -1.9956 -4.67053 0
M  V30 2252 H 214.927 -0.314698 -5.25659 0
M  V30 2253 H 217.418 -0.627403 -3.72655 0
M  V30 2254 H 217.731 -1.89543 -7.49195 0
M  V30 2255 H 216.076 -1.69787 -6.73942 0
M  V30 2256 H 219.267 -0.860115 -4.6013 0
M  V30 2257 H 219.44 -1.43812 -6.3184 0
M  V30 2258 N 212.846 1.57033 -0.133567 0
M  V30 2259 C 214.095 1.94861 0.520768 0
M  V30 2260 C 214.408 1.02012 1.66892 0
M  V30 2261 O 215.614 1.29365 2.38699 0
M  V30 2262 C 214.07 3.46362 0.977809 0
M  V30 2263 C 213.678 4.47773 -0.142674 0
M  V30 2264 C 215.422 3.93083 1.60269 0
M  V30 2265 C 213.329 5.90468 0.331883 0
M  V30 2266 H 212.259 0.727453 0.198315 0
M  V30 2267 H 214.91 1.82227 -0.215759 0
M  V30 2268 H 213.292 3.54282 1.7692 0
M  V30 2269 H 214.466 4.51536 -0.919317 0
M  V30 2270 H 212.781 4.10891 -0.675124 0
M  V30 2271 H 215.378 4.97121 1.96914 0
M  V30 2272 H 215.721 3.33876 2.48662 0
M  V30 2273 H 216.254 3.88025 0.876453 0
M  V30 2274 H 212.993 6.53463 -0.516341 0
M  V30 2275 H 212.513 5.90094 1.07469 0
M  V30 2276 H 214.192 6.42179 0.788332 0
M  V30 2277 N 214.325 -0.140222 1.56975 0
M  V30 2278 C 215.272 -1.17292 1.98774 0
M  V30 2279 C 216.242 -1.4232 0.856408 0
M  V30 2280 O 217.427 -1.54541 1.119 0
M  V30 2281 C 214.567 -2.49973 2.37923 0
M  V30 2282 C 213.68 -2.32062 3.64378 0
M  V30 2283 C 212.815 -3.57825 3.926 0
M  V30 2284 C 211.854 -3.3498 5.12303 0
M  V30 2285 N 210.991 -4.52891 5.36502 0
M  V30 2286 H 215.831 -0.809472 2.86795 0
M  V30 2287 H 213.368 -0.388237 1.41884 0
M  V30 2288 H 215.326 -3.27346 2.58652 0
M  V30 2289 H 213.956 -2.84252 1.52972 0
M  V30 2290 H 213.008 -1.45711 3.51387 0
M  V30 2291 H 214.32 -2.11145 4.51906 0
M  V30 2292 H 213.474 -4.43624 4.13863 0
M  V30 2293 H 212.213 -3.81753 3.03506 0
M  V30 2294 H 211.218 -2.4757 4.90906 0
M  V30 2295 H 212.443 -3.12444 6.02956 0
M  V30 2296 H 210.389 -4.76979 4.50363 0
M  V30 2297 H 210.306 -4.35001 6.18312 0
M  V30 2298 H 211.574 -5.39884 5.62268 0
M  V30 2299 N 215.803 -1.52179 -0.40978 0
M  V30 2300 C 217.214 -1.58377 -0.988615 0
M  V30 2301 C 217.565 -0.423879 -1.91566 0
M  V30 2302 O 216.69 0.455844 -2.11544 0
M  V30 2303 C 217.285 -2.87044 -1.79976 0
M  V30 2304 C 215.844 -2.95722 -2.32863 0
M  V30 2305 C 214.991 -2.53309 -1.12828 0
M  V30 2306 H 217.942 -1.57558 -0.190039 0
M  V30 2307 H 217.963 -2.7236 -2.65707 0
M  V30 2308 H 217.475 -3.71444 -1.12478 0
M  V30 2309 H 215.576 -2.15814 -3.03735 0
M  V30 2310 H 215.689 -3.99951 -2.63773 0
M  V30 2311 H 214.053 -2.07142 -1.48204 0
M  V30 2312 H 214.836 -3.40082 -0.46897 0
M  V30 2313 N 217.281 0.66697 -1.42791 0
M  V30 2314 C 218.527 1.4291 -1.43891 0
M  V30 2315 C 218.86 1.94114 -0.0578972 0
M  V30 2316 O 218.135 1.71414 0.91911 0
M  V30 2317 C 218.418 2.62049 -2.46987 0
M  V30 2318 C 218.271 2.16426 -3.94309 0
M  V30 2319 C 219.59 3.64266 -2.46978 0
M  V30 2320 H 216.709 0.518306 -0.523954 0
M  V30 2321 H 219.351 0.757321 -1.74255 0
M  V30 2322 H 217.501 3.19361 -2.21225 0
M  V30 2323 H 219.173 1.64221 -4.31079 0
M  V30 2324 H 217.416 1.47925 -4.078 0
M  V30 2325 H 218.087 3.02038 -4.62036 0
M  V30 2326 H 220.563 3.16686 -2.69906 0
M  V30 2327 H 219.439 4.45196 -3.21079 0
M  V30 2328 H 219.7 4.15927 -1.49857 0
M  V30 2329 N 218.759 1.29093 0.90403 0
M  V30 2330 C 220.006 1.16813 1.65411 0
M  V30 2331 C 220.334 -0.28128 1.92455 0
M  V30 2332 O 219.589 -1.22006 1.53013 0
M  V30 2333 C 219.888 1.92224 3.01305 0
M  V30 2334 C 219.554 3.41968 2.93885 0
M  V30 2335 C 218.216 3.82807 2.91569 0
M  V30 2336 C 220.568 4.37409 2.83413 0
M  V30 2337 C 217.896 5.1741 2.76594 0
M  V30 2338 C 220.248 5.72097 2.69977 0
M  V30 2339 C 218.912 6.12199 2.66024 0
M  V30 2340 H 218.182 0.42745 0.605283 0
M  V30 2341 H 220.829 1.59981 1.05254 0
M  V30 2342 H 219.134 1.41635 3.65304 0
M  V30 2343 H 220.831 1.80131 3.58265 0
M  V30 2344 H 217.421 3.09504 2.96488 0
M  V30 2345 H 221.605 4.06813 2.84283 0
M  V30 2346 H 216.861 5.47596 2.71935 0
M  V30 2347 H 221.035 6.45704 2.60844 0
M  V30 2348 H 218.662 7.16448 2.54178 0
M  V30 2349 N 220.237 -1.11381 1.11499 0
M  V30 2350 C 221.486 -1.82494 0.858993 0
M  V30 2351 C 221.799 -1.85605 -0.617278 0
M  V30 2352 O 223.005 -2.52824 -0.989552 0
M  V30 2353 C 221.461 -3.27745 1.48699 0
M  V30 2354 C 221.069 -3.32961 2.99735 0
M  V30 2355 C 222.813 -4.03754 1.31085 0
M  V30 2356 C 220.72 -4.72612 3.55516 0
M  V30 2357 H 219.65 -0.683802 0.317696 0
M  V30 2358 H 222.301 -1.25331 1.34031 0
M  V30 2359 H 220.683 -3.84844 0.933339 0
M  V30 2360 H 221.857 -2.85741 3.61509 0
M  V30 2361 H 220.172 -2.70433 3.16631 0
M  V30 2362 H 222.769 -5.06891 1.70192 0
M  V30 2363 H 223.112 -4.15527 0.253496 0
M  V30 2364 H 223.645 -3.53043 1.83318 0
M  V30 2365 H 220.384 -4.66036 4.60967 0
M  V30 2366 H 219.904 -5.2024 2.98513 0
M  V30 2367 H 221.583 -5.4157 3.53992 0
M  V30 2368 N 221.715 -0.905404 -1.28997 0
M  V30 2369 C 222.625 -0.392246 -2.31298 0
M  V30 2370 C 223.641 0.515889 -1.66176 0
M  V30 2371 O 224.817 0.404093 -1.97304 0
M  V30 2372 C 221.882 0.36686 -3.44754 0
M  V30 2373 C 220.943 -0.573485 -4.25452 0
M  V30 2374 C 220.176 0.149488 -5.33491 0
M  V30 2375 O 220.399 1.37255 -5.5364 0
M  V30 2376 O 219.333 -0.510919 -5.99728 0
M  V30 2377 H 223.159 -1.2411 -2.77183 0
M  V30 2378 H 220.744 -0.669926 -1.33538 0
M  V30 2379 H 222.626 0.795907 -4.13816 0
M  V30 2380 H 221.301 1.19169 -3.00966 0
M  V30 2381 H 220.208 -1.05176 -3.59011 0
M  V30 2382 H 221.541 -1.36489 -4.72897 0
M  V30 2383 N 223.193 1.4272 -0.668489 0
M  V30 2384 C 224.47 1.95248 -0.117373 0
M  V30 2385 C 224.85 1.60919 1.36632 0
M  V30 2386 O 224.198 0.902095 2.09939 0
M  V30 2387 C 224.408 3.46927 -0.379806 0
M  V30 2388 C 225.756 4.23588 -0.292923 0
M  V30 2389 O 226.78 3.5482 -0.313204 0
M  V30 2390 O 225.639 5.46017 -0.229697 0
M  V30 2391 H 222.733 0.827 0.00079152 0
M  V30 2392 H 225.279 1.52581 -0.742783 0
M  V30 2393 H 224.051 3.65096 -1.40786 0
M  V30 2394 H 223.674 3.96627 0.277923 0
M  V30 2395 N 224.671 0.411399 1.52136 0
M  V30 2396 C 225.634 -0.401089 2.25663 0
M  V30 2397 C 226.634 -0.971732 1.28117 0
M  V30 2398 O 227.824 -0.850254 1.52041 0
M  V30 2399 C 224.956 -1.56483 3.02863 0
M  V30 2400 H 226.149 0.24295 2.98914 0
M  V30 2401 H 223.702 0.163968 1.55438 0
M  V30 2402 H 224.437 -2.24567 2.33967 0
M  V30 2403 H 224.222 -1.16211 3.74483 0
M  V30 2404 H 225.712 -2.13951 3.58629 0
M  V30 2405 N 226.149 -1.5696 0.141893 0
M  V30 2406 C 227.097 -2.17784 -0.816874 0
M  V30 2407 C 228.091 -1.1334 -1.25899 0
M  V30 2408 O 229.297 -1.316 -1.22806 0
M  V30 2409 H 225.672 -0.697278 -0.281615 0
M  V30 2410 H 227.643 -2.97087 -0.279621 0
M  V30 2411 C 226.392 -2.80983 -2.04802 0
M  V30 2412 H 225.715 -3.61062 -1.7168 0
M  V30 2413 H 227.155 -3.2705 -2.69841 0
M  V30 2414 C 225.614 -1.79228 -2.8527 0
M  V30 2415 O 226.144 -1.25962 -3.8144 0
M  V30 2416 N 224.35 -1.48647 -2.49704 0
M  V30 2417 H 223.897 -1.92155 -1.71564 0
M  V30 2418 H 223.855 -0.808115 -3.03837 0
M  V30 2419 N 227.627 0.131896 -1.57047 0
M  V30 2420 C 228.874 0.841932 -1.84168 0
M  V30 2421 C 229.202 1.8048 -0.725066 0
M  V30 2422 O 228.457 1.93618 0.284692 0
M  V30 2423 C 228.756 1.63703 -3.17704 0
M  V30 2424 C 228.422 0.81961 -4.43388 0
M  V30 2425 C 227.084 0.594148 -4.77518 0
M  V30 2426 C 229.436 0.248977 -5.20605 0
M  V30 2427 C 226.764 -0.212409 -5.86315 0
M  V30 2428 C 229.116 -0.544701 -6.30251 0
M  V30 2429 C 227.78 -0.780599 -6.6292 0
M  V30 2430 H 227.05 0.308085 -0.673917 0
M  V30 2431 H 229.697 0.104867 -1.91213 0
M  V30 2432 H 228.002 2.44464 -3.06177 0
M  V30 2433 H 229.699 2.19015 -3.35907 0
M  V30 2434 H 226.289 1.00542 -4.16641 0
M  V30 2435 H 230.473 0.410408 -4.946 0
M  V30 2436 H 225.729 -0.404524 -6.1006 0
M  V30 2437 H 229.903 -0.993922 -6.89271 0
M  V30 2438 H 227.53 -1.40742 -7.47058 0
M  V30 2439 N 229.106 1.52395 0.401703 0
M  V30 2440 C 230.354 1.66488 1.14569 0
M  V30 2441 C 230.675 0.400897 1.90835 0
M  V30 2442 O 229.945 -0.584415 1.8698 0
M  V30 2443 H 228.525 0.613672 0.425929 0
M  V30 2444 H 231.187 1.89464 0.457093 0
M  V30 2445 H 230.283 2.50942 1.85566 0
M  V30 2446 N 230.584 -0.659388 1.43143 0
M  V30 2447 C 232 -0.974337 1.26407 0
M  V30 2448 C 232.2 -2.007 0.179341 0
M  V30 2449 O 231.256 -2.4856 -0.444295 0
M  V30 2450 C 232.569 -1.46447 2.62628 0
M  V30 2451 C 234.117 -1.58144 2.7011 0
M  V30 2452 C 234.592 -2.1055 4.06734 0
M  V30 2453 N 236.083 -2.17861 4.08767 0
M  V30 2454 C 236.818 -2.59519 5.1131 0
M  V30 2455 N 236.314 -3.00518 6.24228 0
M  V30 2456 N 238.107 -2.59404 4.98664 0
M  V30 2457 H 230.258 0.0240528 2.12386 0
M  V30 2458 H 232.521 -0.0518065 0.946583 0
M  V30 2459 H 232.227 -0.780123 3.42939 0
M  V30 2460 H 232.101 -2.44058 2.87603 0
M  V30 2461 H 234.488 -2.25682 1.90136 0
M  V30 2462 H 234.569 -0.589828 2.48907 0
M  V30 2463 H 234.213 -1.43616 4.87172 0
M  V30 2464 H 234.143 -3.10531 4.25298 0
M  V30 2465 H 236.634 -1.88975 3.27257 0
M  V30 2466 H 236.947 -3.31036 6.98309 0
M  V30 2467 H 235.292 -2.98337 6.2771 0
M  V30 2468 H 238.483 -2.26747 4.09516 0
M  V30 2469 H 238.656 -2.91548 5.78709 0
M  V30 2470 N 232.062 -1.29571 -0.897171 0
M  V30 2471 C 232.994 -1.10724 -2.00681 0
M  V30 2472 C 234.007 -0.0540026 -1.6271 0
M  V30 2473 O 235.196 -0.298783 -1.75982 0
M  V30 2474 C 232.296 -0.663912 -3.32333 0
M  V30 2475 C 231.469 -1.79622 -3.98816 0
M  V30 2476 C 230.528 -1.34349 -5.0876 0
M  V30 2477 O 229.554 -2.04864 -5.31055 0
M  V30 2478 N 230.756 -0.215764 -5.80099 0
M  V30 2479 H 233.521 -2.06291 -2.17403 0
M  V30 2480 H 231.082 -1.21544 -1.06951 0
M  V30 2481 H 233.074 -0.344295 -4.03233 0
M  V30 2482 H 231.644 0.199375 -3.11964 0
M  V30 2483 H 230.864 -2.28459 -3.21248 0
M  V30 2484 H 232.152 -2.55535 -4.39976 0
M  V30 2485 H 231.55 0.372091 -5.64475 0
M  V30 2486 H 230.107 0.0444707 -6.51785 0
M  V30 2487 N 233.54 1.10788 -1.12088 0
M  V30 2488 C 234.789 1.82036 -0.868659 0
M  V30 2489 C 235.102 1.85929 0.607426 0
M  V30 2490 O 236.308 2.53346 0.97613 0
M  V30 2491 C 234.764 3.26951 -1.50435 0
M  V30 2492 C 234.372 3.31367 -3.01496 0
M  V30 2493 C 236.116 4.03053 -1.33225 0
M  V30 2494 C 234.023 4.7072 -3.58017 0
M  V30 2495 H 232.953 0.682108 -0.321318 0
M  V30 2496 H 235.604 1.24618 -1.34694 0
M  V30 2497 H 233.986 3.84343 -0.953735 0
M  V30 2498 H 235.16 2.83819 -3.6302 0
M  V30 2499 H 233.475 2.6875 -3.18061 0
M  V30 2500 H 236.072 5.05981 -1.72878 0
M  V30 2501 H 236.415 4.15387 -0.275529 0
M  V30 2502 H 236.948 3.52066 -1.85188 0
M  V30 2503 H 233.687 4.63585 -4.63432 0
M  V30 2504 H 233.207 5.1865 -3.01268 0
M  V30 2505 H 234.886 5.39685 -3.56859 0
M  V30 2506 N 235.018 0.912232 1.28515 0
M  V30 2507 C 236.243 0.559774 1.99703 0
M  V30 2508 C 236.668 -0.851393 1.67729 0
M  V30 2509 O 236.026 -1.56875 0.908834 0
M  V30 2510 C 236.074 0.773874 3.52198 0
M  V30 2511 O 235.178 -0.167842 4.12058 0
M  V30 2512 H 234.519 0.21723 0.627461 0
M  V30 2513 H 237.049 1.22725 1.63706 0
M  V30 2514 H 237.059 0.683386 4.02236 0
M  V30 2515 H 235.734 1.80261 3.74805 0
M  V30 2516 H 234.311 -0.0287509 3.72889 0
M  V30 2517 N 236.496 -1.42363 0.676048 0
M  V30 2518 C 237.726 -2.05561 0.206967 0
M  V30 2519 C 238.134 -1.50887 -1.14148 0
M  V30 2520 O 237.477 -0.643933 -1.72044 0
M  V30 2521 C 237.539 -3.5944 0.0659508 0
M  V30 2522 C 237.203 -4.36812 1.34331 0
M  V30 2523 C 238.2 -4.67383 2.27704 0
M  V30 2524 C 235.885 -4.76429 1.59125 0
M  V30 2525 C 237.879 -5.36509 3.44147 0
M  V30 2526 C 235.566 -5.45294 2.75857 0
M  V30 2527 C 236.564 -5.75259 3.68193 0
M  V30 2528 O 236.252 -6.42712 4.82883 0
M  V30 2529 H 235.984 -0.668872 0.0979084 0
M  V30 2530 H 238.538 -1.83467 0.923531 0
M  V30 2531 H 236.768 -3.80197 -0.706204 0
M  V30 2532 H 238.457 -4.0427 -0.363418 0
M  V30 2533 H 239.223 -4.37275 2.09799 0
M  V30 2534 H 235.102 -4.52498 0.881258 0
M  V30 2535 H 238.646 -5.59814 4.16238 0
M  V30 2536 H 234.543 -5.7482 2.93688 0
M  V30 2537 H 235.311 -6.61204 4.82444 0
M  V30 2538 N 237.974 -0.419461 -1.51915 0
M  V30 2539 C 238.906 0.43646 -2.25006 0
M  V30 2540 C 239.919 1.00149 -1.28351 0
M  V30 2541 O 241.108 0.898674 -1.54227 0
M  V30 2542 C 238.208 1.6206 -2.9764 0
M  V30 2543 C 237.381 1.17763 -4.21249 0
M  V30 2544 C 236.44 2.22985 -4.76617 0
M  V30 2545 O 235.466 1.83151 -5.38929 0
M  V30 2546 N 236.668 3.55271 -4.59089 0
M  V30 2547 H 239.433 -0.18989 -2.99098 0
M  V30 2548 H 236.994 -0.247386 -1.59999 0
M  V30 2549 H 238.986 2.32038 -3.31573 0
M  V30 2550 H 237.556 2.15266 -2.2667 0
M  V30 2551 H 236.776 0.305582 -3.93014 0
M  V30 2552 H 238.064 0.858781 -5.015 0
M  V30 2553 H 237.462 3.90377 -4.09417 0
M  V30 2554 H 236.019 4.21195 -4.97432 0
M  V30 2555 N 239.452 1.56882 -0.150215 0
M  V30 2556 C 240.402 2.13501 0.800071 0
M  V30 2557 C 241.386 1.06368 1.20726 0
M  V30 2558 O 242.578 1.32538 1.17314 0
M  V30 2559 C 239.707 2.76271 2.03787 0
M  V30 2560 C 238.793 3.90533 1.65364 0
M  V30 2561 N 239.184 4.96259 0.977794 0
M  V30 2562 C 237.482 4.013 1.94613 0
M  V30 2563 C 238.183 5.76286 0.791794 0
M  V30 2564 N 237.159 5.27163 1.32666 0
M  V30 2565 H 240.961 2.92615 0.274517 0
M  V30 2566 H 238.475 1.62319 0.0512144 0
M  V30 2567 H 240.472 3.15197 2.72867 0
M  V30 2568 H 239.132 1.98631 2.56857 0
M  V30 2569 H 240.143 5.13953 0.638193 0
M  V30 2570 H 236.82 3.3474 2.4951 0
M  V30 2571 H 238.21 6.71401 0.258894 0
M  V30 2572 N 240.93 -0.123565 1.57115 0
M  V30 2573 C 241.893 -1.13583 1.99076 0
M  V30 2574 C 242.893 -1.34564 0.880296 0
M  V30 2575 O 244.083 -1.31158 1.14644 0
M  V30 2576 C 241.215 -2.49128 2.32698 0
M  V30 2577 H 242.408 -0.775287 2.89706 0
M  V30 2578 H 239.961 -0.36771 1.51913 0
M  V30 2579 H 240.696 -2.90111 1.44934 0
M  V30 2580 H 240.481 -2.35255 3.13684 0
M  V30 2581 H 241.971 -3.2199 2.65918 0
M  V30 2582 N 242.408 -1.52605 -0.393616 0
M  V30 2583 C 243.371 -1.76415 -1.46323 0
M  V30 2584 C 244.371 -0.634126 -1.47768 0
M  V30 2585 O 245.561 -0.902142 -1.4902 0
M  V30 2586 C 242.693 -1.8607 -2.85641 0
M  V30 2587 H 243.886 -2.71916 -1.26498 0
M  V30 2588 H 241.439 -1.43257 -0.625073 0
M  V30 2589 H 242.174 -0.925378 -3.10817 0
M  V30 2590 H 241.959 -2.68235 -2.85993 0
M  V30 2591 H 243.449 -2.06179 -3.63153 0
M  V30 2592 N 243.887 0.651787 -1.4349 0
M  V30 2593 C 245.133 1.41376 -1.45398 0
M  V30 2594 C 245.466 1.94041 -0.0784823 0
M  V30 2595 O 244.741 1.72379 0.900878 0
M  V30 2596 C 245.024 2.59414 -2.49752 0
M  V30 2597 C 244.877 2.12232 -3.96582 0
M  V30 2598 C 246.196 3.61626 -2.50827 0
M  V30 2599 H 243.315 0.512719 -0.529422 0
M  V30 2600 H 245.957 0.738796 -1.75048 0
M  V30 2601 H 244.107 3.16997 -2.246 0
M  V30 2602 H 245.779 1.59639 -4.32797 0
M  V30 2603 H 244.022 1.43592 -4.09346 0
M  V30 2604 H 244.693 2.9712 -4.65214 0
M  V30 2605 H 247.169 3.13805 -2.7325 0
M  V30 2606 H 246.045 4.41766 -3.25783 0
M  V30 2607 H 246.306 4.14314 -1.5426 0
M  V30 2608 N 245.365 1.30045 0.890287 0
M  V30 2609 C 246.315 1.12592 1.9826 0
M  V30 2610 C 247.299 0.0426021 1.60844 0
M  V30 2611 O 248.491 0.265346 1.75 0
M  V30 2612 C 245.62 0.814301 3.33503 0
M  V30 2613 C 244.706 1.93761 3.7725 0
M  V30 2614 N 245.097 3.18232 3.93143 0
M  V30 2615 C 243.395 1.83277 4.06602 0
M  V30 2616 C 244.096 3.9158 4.30163 0
M  V30 2617 N 243.072 3.19591 4.3973 0
M  V30 2618 H 246.874 2.07003 2.08631 0
M  V30 2619 H 244.388 1.21307 1.07974 0
M  V30 2620 H 246.385 0.67029 4.11476 0
M  V30 2621 H 245.045 -0.121797 3.24471 0
M  V30 2622 H 246.056 3.53581 3.78419 0
M  V30 2623 H 242.733 0.97001 4.06075 0
M  V30 2624 H 244.123 4.98744 4.50226 0
M  V30 2625 N 246.843 -1.10192 1.12674 0
M  V30 2626 C 248.092 -1.81573 0.8783 0
M  V30 2627 C 248.405 -1.86249 -0.597557 0
M  V30 2628 O 249.611 -2.5386 -0.962681 0
M  V30 2629 C 248.067 -3.26149 1.52167 0
M  V30 2630 C 247.675 -3.29763 3.03249 0
M  V30 2631 C 249.419 -4.0234 1.3536 0
M  V30 2632 C 247.326 -4.68815 3.60508 0
M  V30 2633 H 246.256 -0.680394 0.324931 0
M  V30 2634 H 248.907 -1.23902 1.35353 0
M  V30 2635 H 247.289 -3.83832 0.974104 0
M  V30 2636 H 248.463 -2.8189 3.6452 0
M  V30 2637 H 246.778 -2.67059 3.19481 0
M  V30 2638 H 249.375 -5.05058 1.75559 0
M  V30 2639 H 249.718 -4.15235 0.297554 0
M  V30 2640 H 250.251 -3.51079 1.87052 0
M  V30 2641 H 246.99 -4.61121 4.65884 0
M  V30 2642 H 246.51 -5.17045 3.04014 0
M  V30 2643 H 248.189 -5.37785 3.59717 0
M  V30 2644 N 248.321 -0.919034 -1.28029 0
M  V30 2645 C 249.732 -0.600735 -1.76771 0
M  V30 2646 C 250.083 0.884024 -1.75156 0
M  V30 2647 O 249.208 1.69163 -1.34956 0
M  V30 2648 C 249.803 -1.08372 -3.21 0
M  V30 2649 C 248.362 -0.816248 -3.67443 0
M  V30 2650 C 247.509 -1.24742 -2.47658 0
M  V30 2651 H 250.46 -1.09974 -1.14418 0
M  V30 2652 H 250.481 -0.427512 -3.78091 0
M  V30 2653 H 249.993 -2.16437 -3.22144 0
M  V30 2654 H 248.094 0.250968 -3.71754 0
M  V30 2655 H 248.207 -1.4277 -4.57333 0
M  V30 2656 H 246.571 -0.666083 -2.45836 0
M  V30 2657 H 247.354 -2.33653 -2.51518 0
M  V30 2658 N 249.799 1.42003 -0.683588 0
M  V30 2659 C 251.027 2.05746 -0.218182 0
M  V30 2660 C 251.442 1.51396 1.12804 0
M  V30 2661 O 250.799 0.657303 1.70252 0
M  V30 2662 C 250.85 3.61171 -0.154131 0
M  V30 2663 O 250.571 4.13508 -1.44716 0
M  V30 2664 C 252.072 4.42042 0.333713 0
M  V30 2665 H 249.292 0.662888 -0.10402 0
M  V30 2666 H 251.836 1.81987 -0.9328 0
M  V30 2667 H 249.991 3.84012 0.511231 0
M  V30 2668 H 250.405 5.07453 -1.32632 0
M  V30 2669 H 251.879 5.51028 0.327423 0
M  V30 2670 H 252.356 4.17269 1.37053 0
M  V30 2671 H 252.962 4.24239 -0.300222 0
M  V30 2672 N 251.277 0.427512 1.51691 0
M  V30 2673 C 252.554 -0.201684 1.94557 0
M  V30 2674 C 252.934 -1.60981 1.36559 0
M  V30 2675 O 252.282 -2.21814 0.548702 0
M  V30 2676 C 252.492 -0.189394 3.48486 0
M  V30 2677 C 253.84 -0.39978 4.22714 0
M  V30 2678 O 254.864 -0.267945 3.55191 0
M  V30 2679 O 253.723 -0.661249 5.42485 0
M  V30 2680 H 250.817 -0.135261 0.815864 0
M  V30 2681 H 253.363 0.484782 1.62628 0
M  V30 2682 H 252.135 0.795431 3.8313 0
M  V30 2683 H 251.758 -0.919187 3.86829 0
M  V30 2684 N 252.755 -1.56801 0.158532 0
M  V30 2685 C 254.004 -1.95665 -0.489702 0
M  V30 2686 C 254.317 -1.04654 -1.65248 0
M  V30 2687 O 255.523 -1.33146 -2.3661 0
M  V30 2688 C 253.979 -3.47874 -0.922582 0
M  V30 2689 C 253.587 -4.47489 0.213893 0
M  V30 2690 C 255.331 -3.95583 -1.53996 0
M  V30 2691 C 253.238 -5.90921 -0.237903 0
M  V30 2692 H 252.168 -0.730516 -0.186716 0
M  V30 2693 H 254.819 -1.81861 0.244722 0
M  V30 2694 H 253.201 -3.57051 -1.71261 0
M  V30 2695 H 254.375 -4.50017 0.991036 0
M  V30 2696 H 252.69 -4.09764 0.740407 0
M  V30 2697 H 255.287 -5.0019 -1.8898 0
M  V30 2698 H 255.63 -3.37789 -2.43319 0
M  V30 2699 H 256.163 -3.8937 -0.814611 0
M  V30 2700 H 252.902 -6.52559 0.620236 0
M  V30 2701 H 252.422 -5.91729 -0.980676 0
M  V30 2702 H 254.101 -6.43352 -0.686067 0
M  V30 2703 N 254.233 0.115231 -1.57178 0
M  V30 2704 C 255.463 0.835224 -1.88964 0
M  V30 2705 C 255.871 1.73774 -0.74829 0
M  V30 2706 O 255.214 1.81401 0.289739 0
M  V30 2707 C 255.276 1.7178 -3.15804 0
M  V30 2708 C 254.94 0.989198 -4.46166 0
M  V30 2709 C 255.937 0.328263 -5.18863 0
M  V30 2710 C 253.622 0.969256 -4.9286 0
M  V30 2711 C 255.616 -0.342873 -6.36477 0
M  V30 2712 C 253.303 0.294324 -6.10391 0
M  V30 2713 C 254.301 -0.360582 -6.82048 0
M  V30 2714 O 253.989 -1.02474 -7.97342 0
M  V30 2715 H 253.721 0.245197 -0.629964 0
M  V30 2716 H 256.275 0.10303 -2.05141 0
M  V30 2717 H 254.505 2.49173 -2.95719 0
M  V30 2718 H 256.194 2.31255 -3.33581 0
M  V30 2719 H 256.96 0.335263 -4.8384 0
M  V30 2720 H 252.839 1.46844 -4.36987 0
M  V30 2721 H 256.383 -0.854629 -6.92345 0
M  V30 2722 H 252.28 0.285099 -6.4487 0
M  V30 2723 H 253.048 -0.929594 -8.13204 0
M  V30 2724 N 255.711 1.52812 0.385517 0
M  V30 2725 C 256.621 1.80766 1.49535 0
M  V30 2726 C 257.637 0.694651 1.59532 0
M  V30 2727 O 258.813 0.982611 1.75803 0
M  V30 2728 C 255.878 1.97381 2.85029 0
M  V30 2729 C 254.939 3.21295 2.84724 0
M  V30 2730 C 254.172 3.37108 4.13756 0
M  V30 2731 O 254.395 2.5765 5.08893 0
M  V30 2732 O 253.329 4.30378 4.20783 0
M  V30 2733 H 257.155 2.75015 1.28842 0
M  V30 2734 H 254.74 1.37946 0.573697 0
M  V30 2735 H 256.622 2.09996 3.65349 0
M  V30 2736 H 255.297 1.06322 3.05741 0
M  V30 2737 H 254.204 3.1412 2.03174 0
M  V30 2738 H 255.537 4.12212 2.68965 0
M  V30 2739 N 257.189 -0.644168 1.43834 0
M  V30 2740 C 258.437 -1.40117 1.45642 0
M  V30 2741 C 258.758 -1.94814 0.0852413 0
M  V30 2742 O 258.028 -1.74988 -0.880688 0
M  V30 2743 H 256.608 -0.52005 0.536243 0
M  V30 2744 H 259.27 -0.7591 1.7951 0
M  V30 2745 H 258.366 -2.23902 2.17427 0
M  V30 2746 N 258.668 -1.30515 -0.883378 0
M  V30 2747 C 259.893 -1.22487 -1.67367 0
M  V30 2748 C 260.318 0.208767 -1.86938 0
M  V30 2749 O 259.676 1.15015 -1.40148 0
M  V30 2750 C 259.724 -1.96041 -3.02655 0
M  V30 2751 O 258.828 -1.28859 -3.91751 0
M  V30 2752 H 258.169 -0.423573 -0.511353 0
M  V30 2753 H 260.699 -1.72362 -1.10239 0
M  V30 2754 H 260.709 -2.05124 -3.52687 0
M  V30 2755 H 259.384 -3.00307 -2.8773 0
M  V30 2756 H 257.961 -1.28141 -3.50192 0
M  V30 2757 N 260.146 1.09593 -1.13257 0
M  V30 2758 C 261.374 1.855 -0.916378 0
M  V30 2759 C 261.789 1.81069 0.534738 0
M  V30 2760 O 261.146 1.20562 1.37007 0
M  V30 2761 C 261.197 3.33546 -1.39388 0
M  V30 2762 O 260.918 3.37927 -2.78813 0
M  V30 2763 C 262.419 4.26299 -1.21588 0
M  V30 2764 H 259.639 0.585991 -0.326887 0
M  V30 2765 H 262.183 1.38488 -1.5047 0
M  V30 2766 H 260.338 3.77992 -0.848597 0
M  V30 2767 H 260.752 4.30254 -2.9997 0
M  V30 2768 H 262.226 5.28341 -1.59876 0
M  V30 2769 H 262.703 4.38918 -0.157376 0
M  V30 2770 H 263.309 3.87668 -1.7491 0
M  V30 2771 N 261.624 0.925811 1.2754 0
M  V30 2772 C 262.873 0.561084 1.93739 0
M  V30 2773 C 263.186 -0.901685 1.73577 0
M  V30 2774 O 264.392 -1.37511 2.34101 0
M  V30 2775 C 262.848 0.952668 3.47062 0
M  V30 2776 C 262.456 2.43599 3.75983 0
M  V30 2777 C 264.2 0.659103 4.19352 0
M  V30 2778 C 262.107 2.76707 5.22673 0
M  V30 2779 H 261.037 0.206122 0.725279 0
M  V30 2780 H 263.688 1.12637 1.44863 0
M  V30 2781 H 262.07 0.316053 3.94737 0
M  V30 2782 H 263.244 3.12035 3.39073 0
M  V30 2783 H 261.559 2.70125 3.16893 0
M  V30 2784 H 264.156 0.882985 5.27359 0
M  V30 2785 H 264.499 -0.403607 4.14339 0
M  V30 2786 H 265.032 1.25473 3.77494 0
M  V30 2787 H 261.771 3.8188 5.32774 0
M  V30 2788 H 261.291 2.12919 5.60737 0
M  V30 2789 H 262.97 2.6435 5.90532 0
M  V30 2790 N 263.102 -1.41638 0.69111 0
M  V30 2791 C 264.348 -2.01598 0.220519 0
M  V30 2792 C 264.681 -1.54594 -1.17535 0
M  V30 2793 O 263.956 -0.755177 -1.79241 0
M  V30 2794 C 264.239 -3.59062 0.273243 0
M  V30 2795 C 264.092 -4.16203 1.70573 0
M  V30 2796 C 265.411 -4.38546 -0.369457 0
M  V30 2797 H 262.53 -0.732468 0.0816045 0
M  V30 2798 H 265.172 -1.68445 0.878986 0
M  V30 2799 H 263.322 -3.87435 -0.287411 0
M  V30 2800 H 264.994 -3.98722 2.31989 0
M  V30 2801 H 263.237 -3.71414 2.2413 0
M  V30 2802 H 263.908 -5.25358 1.69419 0
M  V30 2803 H 266.384 -4.1596 0.107977 0
M  V30 2804 H 265.26 -5.48069 -0.302002 0
M  V30 2805 H 265.521 -4.17662 -1.44951 0
M  V30 2806 N 264.58 -0.43555 -1.51462 0
M  V30 2807 C 265.51 0.367376 -2.30592 0
M  V30 2808 C 266.491 1.02263 -1.35928 0
M  V30 2809 O 267.676 1.02661 -1.64847 0
M  V30 2810 C 264.806 1.46983 -3.14664 0
M  V30 2811 C 263.76 0.938161 -4.17591 0
M  V30 2812 C 263.086 2.13622 -4.90173 0
M  V30 2813 C 264.386 -0.0261621 -5.22293 0
M  V30 2814 H 266.08 -0.292969 -2.97963 0
M  V30 2815 H 263.626 -0.14234 -1.43295 0
M  V30 2816 H 265.579 2.03873 -3.688 0
M  V30 2817 H 264.303 2.15843 -2.4511 0
M  V30 2818 H 262.962 0.391481 -3.64504 0
M  V30 2819 H 262.61 2.81098 -4.17124 0
M  V30 2820 H 262.31 1.78688 -5.59772 0
M  V30 2821 H 263.834 2.7107 -5.47132 0
M  V30 2822 H 265.248 0.452384 -5.71512 0
M  V30 2823 H 263.645 -0.287992 -5.99409 0
M  V30 2824 H 264.715 -0.963391 -4.75233 0
M  V30 2825 N 266.058 1.56714 -0.166846 0
M  V30 2826 C 267.006 2.19056 0.782123 0
M  V30 2827 C 268 1.15328 1.24079 0
M  V30 2828 O 269.206 1.33537 1.20697 0
M  V30 2829 H 265.581 0.70167 0.270486 0
M  V30 2830 H 267.552 2.97494 0.232322 0
M  V30 2831 C 266.301 2.84206 2.00306 0
M  V30 2832 H 265.624 3.63748 1.65914 0
M  V30 2833 H 267.064 3.31302 2.64604 0
M  V30 2834 C 265.523 1.83744 2.82382 0
M  V30 2835 O 266.053 1.32014 3.79388 0
M  V30 2836 N 264.259 1.52601 2.47308 0
M  V30 2837 H 263.806 1.9486 1.68485 0
M  V30 2838 H 263.764 0.856351 3.02513 0
M  V30 2839 N 267.536 -0.106894 1.57237 0
M  V30 2840 C 268.446 -1.14911 2.0453 0
M  V30 2841 C 269.462 -1.44592 0.96795 0
M  V30 2842 O 270.638 -1.55468 1.2803 0
M  V30 2843 C 267.703 -2.45272 2.45036 0
M  V30 2844 C 266.764 -2.22879 3.66911 0
M  V30 2845 C 265.997 -3.47024 4.05475 0
M  V30 2846 O 266.22 -4.54804 3.44252 0
M  V30 2847 O 265.154 -3.3731 4.98504 0
M  V30 2848 H 268.98 -0.777461 2.9358 0
M  V30 2849 H 266.565 -0.318563 1.45964 0
M  V30 2850 H 268.447 -3.22055 2.71769 0
M  V30 2851 H 267.122 -2.81886 1.59129 0
M  V30 2852 H 266.029 -1.43915 3.45311 0
M  V30 2853 H 267.362 -1.91163 4.53561 0
M  V30 2854 N 269.014 -1.53014 -0.377408 0
M  V30 2855 C 269.944 -1.81589 -1.46791 0
M  V30 2856 C 270.925 -0.668622 -1.56408 0
M  V30 2857 O 272.11 -0.917337 -1.71168 0
M  V30 2858 C 269.24 -1.99519 -2.8427 0
M  V30 2859 C 268.194 -3.15249 -2.89486 0
M  V30 2860 C 267.52 -3.18451 -4.29527 0
M  V30 2861 C 268.82 -4.54084 -2.58079 0
M  V30 2862 H 270.514 -2.7291 -1.23127 0
M  V30 2863 H 268.06 -1.31319 -0.590883 0
M  V30 2864 H 270.013 -2.18092 -3.60575 0
M  V30 2865 H 268.737 -1.04897 -3.09296 0
M  V30 2866 H 267.396 -2.96477 -2.15631 0
M  V30 2867 H 267.044 -2.2149 -4.5161 0
M  V30 2868 H 266.744 -3.962 -4.33934 0
M  V30 2869 H 268.268 -3.39193 -5.07721 0
M  V30 2870 H 269.682 -4.72899 -3.24098 0
M  V30 2871 H 268.079 -5.33987 -2.7382 0
M  V30 2872 H 269.149 -4.60006 -1.53372 0
M  V30 2873 N 270.492 0.636531 -1.44174 0
M  V30 2874 C 271.44 1.76995 -1.50915 0
M  V30 2875 C 272.434 1.65053 -0.381295 0
M  V30 2876 O 273.64 1.71197 -0.55601 0
M  V30 2877 H 270.015 0.584247 -0.473455 0
M  V30 2878 H 271.986 1.68432 -2.4632 0
M  V30 2879 C 270.735 3.15314 -1.46534 0
M  V30 2880 H 270.058 3.25149 -2.32633 0
M  V30 2881 H 271.498 3.9453 -1.55312 0
M  V30 2882 C 269.957 3.3639 -0.185305 0
M  V30 2883 O 270.487 3.94699 0.746688 0
M  V30 2884 N 268.693 2.9046 -0.0901606 0
M  V30 2885 H 268.24 2.43193 -0.849416 0
M  V30 2886 H 268.198 3.04937 0.765553 0
M  V30 2887 N 271.97 1.30982 0.876444 0
M  V30 2888 C 273.216 1.21484 1.63136 0
M  V30 2889 C 273.571 -0.226339 1.91064 0
M  V30 2890 O 272.864 -1.15788 1.52656 0
M  V30 2891 C 273.058 1.98572 2.9716 0
M  V30 2892 C 272.887 3.50039 2.82317 0
M  V30 2893 C 271.657 4.19393 2.81847 0
M  V30 2894 C 273.855 4.45111 2.57644 0
M  V30 2895 N 271.837 5.57061 2.57985 0
M  V30 2896 C 273.208 5.70402 2.42986 0
M  V30 2897 C 275.263 4.3461 2.42937 0
M  V30 2898 C 273.966 6.8638 2.15115 0
M  V30 2899 C 275.992 5.50365 2.16454 0
M  V30 2900 C 275.354 6.74642 2.02578 0
M  V30 2901 H 271.453 0.499632 0.601575 0
M  V30 2902 H 274.037 1.65094 1.03209 0
M  V30 2903 H 272.208 1.5734 3.55104 0
M  V30 2904 H 273.94 1.81146 3.61895 0
M  V30 2905 H 270.695 3.71303 2.93991 0
M  V30 2906 H 271.119 6.29529 2.49043 0
M  V30 2907 H 275.761 3.39199 2.52396 0
M  V30 2908 H 273.479 7.81824 2.04394 0
M  V30 2909 H 277.065 5.44154 2.05884 0
M  V30 2910 H 275.945 7.62699 1.82374 0
M  V30 2911 N 273.449 -1.08991 1.13837 0
M  V30 2912 C 274.677 -1.85011 0.926202 0
M  V30 2913 C 275.092 -1.8135 -0.525127 0
M  V30 2914 O 274.449 -1.21287 -1.36366 0
M  V30 2915 C 274.5 -3.32802 1.41155 0
M  V30 2916 O 274.221 -3.36444 2.80601 0
M  V30 2917 C 275.722 -4.25649 1.23847 0
M  V30 2918 H 272.942 -0.584249 0.32999 0
M  V30 2919 H 275.486 -1.37688 1.51202 0
M  V30 2920 H 273.641 -3.77536 0.868631 0
M  V30 2921 H 274.055 -4.28657 3.02248 0
M  V30 2922 H 275.529 -5.27485 1.62675 0
M  V30 2923 H 276.006 -4.38828 0.18065 0
M  V30 2924 H 276.612 -3.86735 1.76964 0
M  V30 2925 N 274.927 -0.932562 -1.27047 0
M  V30 2926 C 276.152 -0.591474 -1.98787 0
M  V30 2927 C 276.577 0.824601 -1.69062 0
M  V30 2928 O 275.935 1.5541 -0.933677 0
M  V30 2929 C 275.983 -0.829808 -3.50922 0
M  V30 2930 O 275.087 0.102266 -4.12273 0
M  V30 2931 H 274.428 -0.227185 -0.623926 0
M  V30 2932 H 276.958 -1.25314 -1.61733 0
M  V30 2933 H 276.968 -0.747292 -4.01098 0
M  V30 2934 H 275.643 -1.86201 -3.7189 0
M  V30 2935 H 274.22 -0.0305761 -3.72887 0
M  V30 2936 N 276.405 1.4127 -0.698611 0
M  V30 2937 C 277.368 2.29158 -0.044132 0
M  V30 2938 C 278.368 1.44529 0.704841 0
M  V30 2939 O 279.558 1.65643 0.539276 0
M  V30 2940 C 276.69 3.27459 0.947809 0
M  V30 2941 H 277.883 2.88529 -0.817994 0
M  V30 2942 H 275.436 1.49307 -0.46228 0
M  V30 2943 H 276.171 2.73073 1.74933 0
M  V30 2944 H 275.956 3.8991 0.41385 0
M  V30 2945 H 277.446 3.93311 1.40344 0
M  V30 2946 N 277.883 0.443576 1.51229 0
M  V30 2947 C 278.813 -0.355142 2.30783 0
M  V30 2948 C 279.794 -1.0154 1.36468 0
M  V30 2949 O 280.979 -1.01785 1.65389 0
M  V30 2950 C 278.109 -1.45312 3.15439 0
M  V30 2951 C 277.063 -0.916002 4.18083 0
M  V30 2952 C 276.389 -2.1102 4.91299 0
M  V30 2953 C 277.689 0.0538602 5.22272 0
M  V30 2954 H 279.383 0.308767 2.97804 0
M  V30 2955 H 276.929 0.149937 1.43217 0
M  V30 2956 H 278.882 -2.01914 3.69876 0
M  V30 2957 H 277.606 -2.14541 2.46252 0
M  V30 2958 H 276.265 -0.372145 3.64706 0
M  V30 2959 H 275.913 -2.78882 4.18609 0
M  V30 2960 H 275.613 -1.75717 5.60712 0
M  V30 2961 H 277.137 -2.68164 5.48562 0
M  V30 2962 H 278.551 -0.422069 5.71744 0
M  V30 2963 H 276.948 0.319776 5.99247 0
M  V30 2964 H 278.018 0.98858 4.74716 0
M  V30 2965 N 279.361 -1.56624 0.175154 0
M  V30 2966 C 280.638 -1.88688 -0.515373 0
M  V30 2967 C 281.018 -1.08564 -1.81044 0
M  V30 2968 O 280.366 -0.180703 -2.27784 0
M  V30 2969 C 280.576 -3.40768 -0.753552 0
M  V30 2970 C 281.924 -4.10587 -1.08184 0
M  V30 2971 O 282.948 -3.46106 -0.841961 0
M  V30 2972 O 281.807 -5.24512 -1.53459 0
M  V30 2973 H 278.901 -0.78301 -0.26613 0
M  V30 2974 H 281.447 -1.68347 0.213877 0
M  V30 2975 H 280.219 -3.90965 0.161829 0
M  V30 2976 H 279.842 -3.66733 -1.53598 0
M  V30 2977 N 280.839 0.0985539 -1.57292 0
M  V30 2978 C 281.749 1.13824 -2.05137 0
M  V30 2979 C 282.765 1.44076 -0.975604 0
M  V30 2980 O 283.941 1.54786 -1.28853 0
M  V30 2981 C 281.006 2.43969 -2.46333 0
M  V30 2982 C 280.067 2.2093 -3.68087 0
M  V30 2983 C 279.3 3.44869 -4.0731 0
M  V30 2984 O 279.523 4.52972 -3.46659 0
M  V30 2985 O 278.457 3.34661 -5.00285 0
M  V30 2986 H 282.283 0.761881 -2.93988 0
M  V30 2987 H 279.868 0.310818 -1.46131 0
M  V30 2988 H 281.75 3.20609 -2.73473 0
M  V30 2989 H 280.425 2.81038 -1.60621 0
M  V30 2990 H 279.332 1.42081 -3.46069 0
M  V30 2991 H 280.665 1.88755 -4.54568 0
M  V30 2992 N 282.317 1.53212 0.369288 0
M  V30 2993 C 283.563 1.69466 1.11397 0
M  V30 2994 C 283.896 0.443257 1.89074 0
M  V30 2995 O 283.171 -0.559386 1.86282 0
M  V30 2996 C 283.454 2.9422 2.07621 0
M  V30 2997 C 283.307 4.29508 1.33577 0
M  V30 2998 C 284.626 3.14565 3.07794 0
M  V30 2999 H 281.745 0.616667 0.403597 0
M  V30 3000 H 284.387 1.85845 0.395179 0
M  V30 3001 H 282.537 2.80387 2.68916 0
M  V30 3002 H 284.209 4.55147 0.750955 0
M  V30 3003 H 282.452 4.29088 0.637618 0
M  V30 3004 H 283.123 5.12926 2.03989 0
M  V30 3005 H 285.599 3.2756 2.56601 0
M  V30 3006 H 284.475 4.03297 3.72348 0
M  V30 3007 H 284.736 2.29675 3.77759 0
M  V30 3008 N 283.795 -0.628877 1.44509 0
M  V30 3009 C 285.042 -1.38839 1.47411 0
M  V30 3010 C 285.37 -1.94202 0.10757 0
M  V30 3011 O 284.625 -1.74243 -0.890947 0
M  V30 3012 C 284.924 -2.56995 2.48371 0
M  V30 3013 C 284.59 -2.19908 3.93639 0
M  V30 3014 C 283.252 -2.09506 4.33198 0
M  V30 3015 C 285.604 -1.9064 4.85083 0
M  V30 3016 C 282.932 -1.68028 5.62124 0
M  V30 3017 C 285.284 -1.50655 6.14399 0
M  V30 3018 C 283.948 -1.38796 6.5291 0
M  V30 3019 H 283.218 -0.508048 0.539414 0
M  V30 3020 H 285.865 -0.712913 1.77735 0
M  V30 3021 H 284.17 -3.29786 2.11538 0
M  V30 3022 H 285.867 -3.15223 2.47861 0
M  V30 3023 H 282.457 -2.28922 3.62343 0
M  V30 3024 H 286.641 -1.97585 4.55273 0
M  V30 3025 H 281.897 -1.57452 5.90778 0
M  V30 3026 H 286.071 -1.27048 6.84713 0
M  V30 3027 H 283.698 -1.06429 7.52713 0
M  V30 3028 N 285.273 -1.31445 -0.869486 0
M  V30 3029 C 286.22 -1.19135 -1.97675 0
M  V30 3030 C 287.19 -0.0770266 -1.65921 0
M  V30 3031 O 288.375 -0.249972 -1.89155 0
M  V30 3032 C 285.515 -0.905149 -3.33018 0
M  V30 3033 C 284.628 -2.10285 -3.77365 0
M  V30 3034 C 283.763 -1.75339 -5.01427 0
M  V30 3035 C 282.802 -2.91515 -5.38224 0
M  V30 3036 N 281.939 -2.56762 -6.53466 0
M  V30 3037 H 286.779 -2.13853 -2.07535 0
M  V30 3038 H 284.316 -1.06379 -1.01597 0
M  V30 3039 H 286.274 -0.719765 -4.10944 0
M  V30 3040 H 284.904 0.00519624 -3.228 0
M  V30 3041 H 283.956 -2.39899 -2.95216 0
M  V30 3042 H 285.268 -2.97237 -4.00564 0
M  V30 3043 H 284.422 -1.53266 -5.87022 0
M  V30 3044 H 283.161 -0.855801 -4.80133 0
M  V30 3045 H 282.166 -3.14237 -4.51149 0
M  V30 3046 H 283.391 -3.81985 -5.61484 0
M  V30 3047 H 281.337 -1.69526 -6.33717 0
M  V30 3048 H 281.254 -3.37243 -6.76612 0
M  V30 3049 H 282.522 -2.38083 -7.42251 0
M  V30 3050 N 286.751 1.08385 -1.14413 0
M  V30 3051 C 287.698 2.15311 -0.831265 0
M  V30 3052 C 288.668 1.64751 0.211292 0
M  V30 3053 O 289.853 1.90627 0.0811674 0
M  V30 3054 C 286.993 3.43658 -0.315143 0
M  V30 3055 C 286.106 4.08064 -1.41802 0
M  V30 3056 C 285.241 5.24207 -0.859126 0
M  V30 3057 C 284.28 5.80554 -1.93967 0
M  V30 3058 N 283.417 6.88042 -1.39793 0
M  V30 3059 H 288.257 2.41415 -1.74708 0
M  V30 3060 H 285.794 1.18474 -0.871909 0
M  V30 3061 H 287.752 4.172 0.00230884 0
M  V30 3062 H 286.382 3.17839 0.56378 0
M  V30 3063 H 285.434 3.3228 -1.85187 0
M  V30 3064 H 286.746 4.45962 -2.23427 0
M  V30 3065 H 285.9 6.04689 -0.49359 0
M  V30 3066 H 284.639 4.87699 -0.011932 0
M  V30 3067 H 283.644 4.98725 -2.31415 0
M  V30 3068 H 284.869 6.19121 -2.79046 0
M  V30 3069 H 282.815 6.53493 -0.572919 0
M  V30 3070 H 282.732 7.24767 -2.15054 0
M  V30 3071 H 284 7.72255 -1.0603 0
M  V30 3072 N 288.23 0.939286 1.26551 0
M  V30 3073 C 289.178 0.43815 2.28436 0
M  V30 3074 C 290.172 -0.483587 1.62351 0
M  V30 3075 O 291.378 -0.362009 1.76322 0
M  V30 3076 H 287.753 0.123149 0.741848 0
M  V30 3077 H 289.724 1.31002 2.68106 0
M  V30 3078 C 288.473 -0.283052 3.46546 0
M  V30 3079 H 287.796 0.417043 3.97619 0
M  V30 3080 H 289.236 -0.597948 4.19763 0
M  V30 3081 C 287.695 -1.50018 3.01656 0
M  V30 3082 O 288.225 -2.59855 3.0633 0
M  V30 3083 N 286.431 -1.35608 2.57019 0
M  V30 3084 H 285.978 -0.46244 2.53415 0
M  V30 3085 H 285.936 -2.17165 2.27347 0
M  V30 3086 N 289.708 -1.40897 0.706093 0
M  V30 3087 C 291.124 -1.55042 0.37869 0
M  V30 3088 C 291.324 -1.67944 -1.11342 0
M  V30 3089 O 290.38 -1.66372 -1.89938 0
M  V30 3090 C 291.693 -2.78398 1.13643 0
M  V30 3091 C 293.241 -2.92206 1.12181 0
M  V30 3092 C 293.716 -4.18463 1.86152 0
M  V30 3093 N 295.207 -4.25443 1.83173 0
M  V30 3094 C 295.942 -5.2202 2.37239 0
M  V30 3095 N 295.438 -6.24563 2.99821 0
M  V30 3096 N 297.231 -5.14033 2.27435 0
M  V30 3097 H 289.382 -1.30769 1.67372 0
M  V30 3098 H 291.645 -0.631653 0.706907 0
M  V30 3099 H 291.351 -2.7511 2.19106 0
M  V30 3100 H 291.225 -3.70228 0.721853 0
M  V30 3101 H 293.612 -2.95004 0.0754171 0
M  V30 3102 H 293.693 -2.01521 1.57554 0
M  V30 3103 H 293.337 -4.16427 2.90776 0
M  V30 3104 H 293.267 -5.08141 1.38206 0
M  V30 3105 H 295.758 -3.51976 1.37556 0
M  V30 3106 H 296.071 -6.94665 3.38616 0
M  V30 3107 H 294.416 -6.25035 3.03902 0
M  V30 3108 H 297.607 -4.3285 1.78208 0
M  V30 3109 H 297.78 -5.89129 2.69873 0
M  V30 3110 N 291.186 -0.45159 -1.50991 0
M  V30 3111 C 292.096 0.358431 -2.31846 0
M  V30 3112 C 293.112 1.01438 -1.41373 0
M  V30 3113 O 294.288 1.00663 -1.74439 0
M  V30 3114 C 291.353 1.43704 -3.15515 0
M  V30 3115 C 290.414 0.799742 -4.21785 0
M  V30 3116 C 289.647 1.82696 -5.01456 0
M  V30 3117 O 289.87 3.05105 -4.81941 0
M  V30 3118 O 288.804 1.40958 -5.85162 0
M  V30 3119 H 292.63 -0.302032 -3.02194 0
M  V30 3120 H 290.215 -0.213825 -1.47862 0
M  V30 3121 H 292.097 2.06227 -3.67489 0
M  V30 3122 H 290.772 2.08133 -2.47916 0
M  V30 3123 H 289.679 0.136084 -3.73852 0
M  V30 3124 H 291.012 0.198718 -4.91799 0
M  V30 3125 N 292.664 1.56529 -0.183458 0
M  V30 3126 C 293.574 2.22144 0.754272 0
M  V30 3127 C 294.59 1.21684 1.24374 0
M  V30 3128 O 295.766 1.54385 1.29333 0
M  V30 3129 C 292.831 2.85884 1.96141 0
M  V30 3130 C 291.892 4.01579 1.51765 0
M  V30 3131 C 291.125 4.6227 2.66725 0
M  V30 3132 O 291.348 4.21865 3.83909 0
M  V30 3133 O 290.282 5.51936 2.40104 0
M  V30 3134 H 294.108 3.02861 0.225527 0
M  V30 3135 H 291.693 1.49331 0.0453032 0
M  V30 3136 H 293.575 3.26253 2.66715 0
M  V30 3137 H 292.25 2.08154 2.47899 0
M  V30 3138 H 291.157 3.65856 0.781049 0
M  V30 3139 H 292.49 4.80938 1.04686 0
M  V30 3140 N 294.142 -0.090211 1.57342 0
M  V30 3141 C 295.419 -0.824761 1.77361 0
M  V30 3142 C 295.799 -1.96698 0.76637 0
M  V30 3143 O 295.147 -2.27586 -0.204179 0
M  V30 3144 C 295.357 -1.31481 3.23286 0
M  V30 3145 C 296.705 -1.75563 3.86604 0
M  V30 3146 O 297.729 -1.41093 3.27065 0
M  V30 3147 O 296.588 -2.39317 4.91314 0
M  V30 3148 H 293.682 -0.393776 0.727234 0
M  V30 3149 H 296.228 -0.0717138 1.69548 0
M  V30 3150 H 295 -0.496671 3.88135 0
M  V30 3151 H 294.623 -2.12973 3.35751 0
M  V30 3152 N 295.62 -1.53406 -0.361157 0
M  V30 3153 C 297.031 -1.61442 -0.937728 0
M  V30 3154 C 297.382 -0.48461 -1.90121 0
M  V30 3155 O 296.507 0.388312 -2.12888 0
M  V30 3156 C 297.102 -2.92624 -1.70753 0
M  V30 3157 C 295.661 -3.02981 -2.23337 0
M  V30 3158 C 294.808 -2.5677 -1.04712 0
M  V30 3159 H 297.759 -1.58083 -0.139816 0
M  V30 3160 H 297.78 -2.80675 -2.56908 0
M  V30 3161 H 297.292 -3.74834 -1.00604 0
M  V30 3162 H 295.393 -2.25368 -2.96715 0
M  V30 3163 H 295.506 -4.0814 -2.50916 0
M  V30 3164 H 293.87 -2.11752 -1.41539 0
M  V30 3165 H 294.653 -3.41402 -0.360539 0
M  V30 3166 N 297.098 0.621204 -1.44841 0
M  V30 3167 C 298.323 1.41244 -1.51871 0
M  V30 3168 C 298.748 1.87519 -0.147764 0
M  V30 3169 O 298.106 1.59334 0.865 0
M  V30 3170 C 298.154 2.60221 -2.49634 0
M  V30 3171 O 297.258 3.60395 -2.00473 0
M  V30 3172 H 296.599 0.42223 -0.512463 0
M  V30 3173 H 299.129 0.757305 -1.90069 0
M  V30 3174 H 299.139 3.0764 -2.67996 0
M  V30 3175 H 297.814 2.25887 -3.4921 0
M  V30 3176 H 296.391 3.19717 -1.91925 0
M  V30 3177 N 298.576 1.31904 0.862503 0
M  V30 3178 C 299.506 1.22782 1.98612 0
M  V30 3179 C 300.487 0.113362 1.69722 0
M  V30 3180 O 301.672 0.299218 1.91881 0
M  V30 3181 C 298.802 0.942058 3.34279 0
M  V30 3182 C 297.756 2.0169 3.77499 0
M  V30 3183 C 297.082 1.58369 5.10709 0
M  V30 3184 C 298.382 3.43096 3.93805 0
M  V30 3185 H 300.076 2.16788 2.06502 0
M  V30 3186 H 297.622 1.04366 0.992154 0
M  V30 3187 H 299.575 0.864818 4.1243 0
M  V30 3188 H 298.299 -0.0336603 3.26583 0
M  V30 3189 H 296.958 2.08416 3.01593 0
M  V30 3190 H 296.606 0.595628 4.99461 0
M  V30 3191 H 296.306 2.30279 5.40597 0
M  V30 3192 H 297.83 1.52067 5.91361 0
M  V30 3193 H 299.244 3.39003 4.62331 0
M  V30 3194 H 297.641 4.13288 4.35101 0
M  V30 3195 H 298.711 3.83334 2.96957 0
M  V30 3196 N 300.054 -1.07777 1.14986 0
M  V30 3197 C 300.984 -2.16865 0.865557 0
M  V30 3198 C 301.965 -1.69123 -0.182083 0
M  V30 3199 O 303.15 -1.94164 -0.0373815 0
M  V30 3200 C 300.28 -3.45539 0.349313 0
M  V30 3201 C 299.234 -4.06708 1.33313 0
M  V30 3202 C 298.56 -5.30411 0.675918 0
M  V30 3203 C 299.86 -4.47241 2.69764 0
M  V30 3204 H 301.554 -2.40905 1.77778 0
M  V30 3205 H 299.1 -1.15781 0.856203 0
M  V30 3206 H 301.053 -4.21174 0.137983 0
M  V30 3207 H 299.777 -3.21072 -0.598362 0
M  V30 3208 H 298.436 -3.33112 1.53075 0
M  V30 3209 H 298.084 -5.02232 -0.277767 0
M  V30 3210 H 297.784 -5.72293 1.33244 0
M  V30 3211 H 299.308 -6.08755 0.474262 0
M  V30 3212 H 300.722 -5.14025 2.53873 0
M  V30 3213 H 299.119 -5.00062 3.3175 0
M  V30 3214 H 300.189 -3.58818 3.26156 0
M  V30 3215 N 301.532 -0.945985 -1.26051 0
M  V30 3216 C 302.778 -0.606539 -1.94146 0
M  V30 3217 C 303.133 0.84586 -1.72809 0
M  V30 3218 O 302.426 1.59781 -1.05738 0
M  V30 3219 C 302.62 -0.890475 -3.46129 0
M  V30 3220 C 302.449 -2.36892 -3.82246 0
M  V30 3221 C 301.219 -3.02494 -4.04753 0
M  V30 3222 C 303.417 -3.34772 -3.90425 0
M  V30 3223 N 301.399 -4.40302 -4.27794 0
M  V30 3224 C 302.77 -4.57855 -4.18054 0
M  V30 3225 C 304.825 -3.2973 -3.73072 0
M  V30 3226 C 303.528 -5.76522 -4.30134 0
M  V30 3227 C 305.554 -4.47727 -3.86386 0
M  V30 3228 C 304.916 -5.69593 -4.14419 0
M  V30 3229 H 301.015 -0.272407 -0.73302 0
M  V30 3230 H 303.599 -1.21638 -1.52027 0
M  V30 3231 H 301.77 -0.309638 -3.87164 0
M  V30 3232 H 303.502 -0.51181 -4.01451 0
M  V30 3233 H 300.257 -2.53095 -4.003 0
M  V30 3234 H 300.681 -5.11646 -4.43337 0
M  V30 3235 H 305.323 -2.36565 -3.50424 0
M  V30 3236 H 303.041 -6.70136 -4.51601 0
M  V30 3237 H 306.627 -4.45363 -3.74356 0
M  V30 3238 H 305.507 -6.59375 -4.24493 0
M  V30 3239 N 303.011 1.40521 -0.713556 0
M  V30 3240 C 303.943 2.29191 -0.0203126 0
M  V30 3241 C 304.956 1.45723 0.725864 0
M  V30 3242 O 306.145 1.69033 0.573581 0
M  V30 3243 C 303.245 3.2395 0.995486 0
M  V30 3244 C 302.418 4.36262 0.315256 0
M  V30 3245 C 301.477 5.11474 1.23616 0
M  V30 3246 O 300.503 5.64606 0.721719 0
M  V30 3247 N 301.705 5.20638 2.56743 0
M  V30 3248 H 304.47 2.89327 -0.781652 0
M  V30 3249 H 302.031 1.51869 -0.561022 0
M  V30 3250 H 304.023 3.71137 1.61368 0
M  V30 3251 H 302.593 2.64995 1.6582 0
M  V30 3252 H 301.813 3.91228 -0.483106 0
M  V30 3253 H 303.101 5.08558 -0.157004 0
M  V30 3254 H 302.499 4.7895 3.01037 0
M  V30 3255 H 301.056 5.71339 3.13712 0
M  V30 3256 N 304.489 0.459591 1.5075 0
M  V30 3257 C 305.735 -0.0994966 2.02556 0
M  V30 3258 C 306.068 -1.40399 1.3417 0
M  V30 3259 O 305.343 -1.88892 0.463683 0
M  V30 3260 C 305.626 -0.295242 3.58888 0
M  V30 3261 C 305.479 1.02947 4.37861 0
M  V30 3262 C 306.798 -1.05502 4.27267 0
M  V30 3263 H 303.917 -0.034686 0.736183 0
M  V30 3264 H 306.559 0.602938 1.8018 0
M  V30 3265 H 304.709 -0.893563 3.78084 0
M  V30 3266 H 306.381 1.66348 4.30263 0
M  V30 3267 H 304.624 1.62885 4.02058 0
M  V30 3268 H 305.295 0.846281 5.45474 0
M  V30 3269 H 307.771 -0.547993 4.12476 0
M  V30 3270 H 306.647 -1.16077 5.36486 0
M  V30 3271 H 306.908 -2.08875 3.89645 0
M  V30 3272 N 305.967 -1.56429 0.191757 0
M  V30 3273 C 307.214 -1.97485 -0.447891 0
M  V30 3274 C 307.542 -1.07852 -1.61859 0
M  V30 3275 O 306.797 -0.116903 -1.95351 0
M  V30 3276 C 307.096 -3.44449 -0.953384 0
M  V30 3277 C 306.762 -4.50781 0.103586 0
M  V30 3278 C 305.424 -4.79584 0.394023 0
M  V30 3279 C 307.776 -5.1471 0.819946 0
M  V30 3280 C 305.104 -5.69607 1.40585 0
M  V30 3281 C 307.456 -6.05827 1.8209 0
M  V30 3282 C 306.12 -6.32987 2.11857 0
M  V30 3283 H 305.39 -0.722648 -0.163895 0
M  V30 3284 H 308.037 -1.89322 0.28802 0
M  V30 3285 H 306.342 -3.49666 -1.76751 0
M  V30 3286 H 308.039 -3.73569 -1.45765 0
M  V30 3287 H 304.629 -4.28394 -0.132951 0
M  V30 3288 H 308.813 -4.92552 0.608789 0
M  V30 3289 H 304.069 -5.88926 1.64243 0
M  V30 3290 H 308.243 -6.54424 2.38123 0
M  V30 3291 H 305.87 -7.02544 2.90407 0
M  V30 3292 N 307.445 0.0818655 -1.57387 0
M  V30 3293 C 308.693 0.781368 -1.86384 0
M  V30 3294 C 309.014 1.78618 -0.782342 0
M  V30 3295 O 308.284 1.94976 0.190061 0
M  V30 3296 H 306.864 0.291562 -0.687751 0
M  V30 3297 H 309.526 0.060348 -1.94807 0
M  V30 3298 H 308.622 1.3038 -2.83562 0
M  V30 3299 N 308.923 1.53595 0.353017 0
M  V30 3300 C 310.148 1.7462 1.11904 0
M  V30 3301 C 310.573 0.479721 1.8188 0
M  V30 3302 O 309.931 -0.567066 1.72204 0
M  V30 3303 C 309.979 2.92029 2.11545 0
M  V30 3304 O 309.083 2.61516 3.18878 0
M  V30 3305 H 308.424 0.579531 0.324099 0
M  V30 3306 H 310.954 2.00525 0.406301 0
M  V30 3307 H 310.964 3.18551 2.5493 0
M  V30 3308 H 309.639 3.83888 1.60008 0
M  V30 3309 H 308.216 2.45852 2.80377 0
M  V30 3310 N 310.401 -0.613514 1.45168 0
M  V30 3311 C 311.364 -1.7065 1.53007 0
M  V30 3312 C 312.364 -1.5548 0.410184 0
M  V30 3313 O 313.554 -1.60656 0.673455 0
M  V30 3314 C 310.686 -3.09875 1.42093 0
M  V30 3315 H 311.879 -1.65068 2.50385 0
M  V30 3316 H 309.432 -0.828728 1.32521 0
M  V30 3317 H 310.167 -3.21039 0.458769 0
M  V30 3318 H 309.952 -3.22293 2.23315 0
M  V30 3319 H 311.442 -3.895 1.50598 0
M  V30 3320 N 311.879 -1.3236 -0.855495 0
M  V30 3321 C 313.107 -1.2587 -1.64208 0
M  V30 3322 C 313.522 0.173457 -1.88002 0
M  V30 3323 O 312.879 1.11027 -1.44842 0
M  V30 3324 C 312.93 -2.01424 -3.00184 0
M  V30 3325 O 312.651 -3.39051 -2.77445 0
M  V30 3326 C 314.152 -2.01948 -3.94629 0
M  V30 3327 H 311.372 -0.434318 -0.511477 0
M  V30 3328 H 313.916 -1.74469 -1.0668 0
M  V30 3329 H 312.071 -1.56549 -3.5436 0
M  V30 3330 H 312.485 -3.77711 -3.63916 0
M  V30 3331 H 313.959 -2.59297 -4.87308 0
M  V30 3332 H 314.436 -1.00554 -4.27534 0
M  V30 3333 H 315.042 -2.46767 -3.4639 0
M  V30 3334 N 313.357 1.07166 -1.15556 0
M  V30 3335 C 314.605 1.79443 -0.929764 0
M  V30 3336 C 314.926 1.87246 0.544414 0
M  V30 3337 O 314.196 1.37473 1.39564 0
M  V30 3338 H 312.776 0.664625 -0.341003 0
M  V30 3339 H 315.438 1.29499 -1.45657 0
M  V30 3340 H 314.534 2.81832 -1.34079 0
M  V30 3341 N 314.835 0.952656 1.25548 0
M  V30 3342 C 315.765 0.489287 2.28316 0
M  V30 3343 C 316.746 -0.463359 1.63667 0
M  V30 3344 O 317.931 -0.36274 1.90782 0
M  V30 3345 C 315.061 -0.235603 3.465 0
M  V30 3346 C 314.015 0.631593 4.23314 0
M  V30 3347 C 313.341 -0.223923 5.34231 0
M  V30 3348 C 314.641 1.90871 4.86174 0
M  V30 3349 H 316.335 1.34822 2.67326 0
M  V30 3350 H 313.881 0.649728 1.28509 0
M  V30 3351 H 315.834 -0.570882 4.17515 0
M  V30 3352 H 314.558 -1.12877 3.06474 0
M  V30 3353 H 313.217 0.949929 3.54079 0
M  V30 3354 H 312.865 -1.11678 4.90446 0
M  V30 3355 H 312.565 0.35299 5.86539 0
M  V30 3356 H 314.089 -0.554214 6.0808 0
M  V30 3357 H 315.503 1.63997 5.49343 0
M  V30 3358 H 313.9 2.43112 5.4865 0
M  V30 3359 H 314.97 2.61304 4.08471 0
M  V30 3360 N 316.313 -1.40141 0.720998 0
M  V30 3361 C 317.276 -2.29058 0.0805834 0
M  V30 3362 C 318.276 -1.45632 -0.681758 0
M  V30 3363 O 319.466 -1.6648 -0.512856 0
M  V30 3364 C 316.598 -3.28925 -0.895593 0
M  V30 3365 H 317.791 -2.87191 0.863793 0
M  V30 3366 H 315.344 -1.48553 0.485975 0
M  V30 3367 H 316.079 -2.75822 -1.70566 0
M  V30 3368 H 315.864 -3.90519 -0.351766 0
M  V30 3369 H 317.354 -3.95494 -1.34069 0
M  V30 3370 N 317.792 -0.46758 -1.50504 0
M  V30 3371 C 319.208 -0.121533 -1.59137 0
M  V30 3372 C 319.408 1.3717 -1.47603 0
M  V30 3373 O 318.464 2.14464 -1.33272 0
M  V30 3374 C 319.777 -0.6686 -2.93173 0
M  V30 3375 C 321.325 -0.631716 -3.06559 0
M  V30 3376 C 321.8 -1.15627 -4.43164 0
M  V30 3377 N 323.291 -1.11553 -4.49567 0
M  V30 3378 C 324.026 -1.49195 -5.5365 0
M  V30 3379 N 323.522 -1.94269 -6.65005 0
M  V30 3380 N 325.315 -1.4082 -5.44175 0
M  V30 3381 H 317.466 -1.4388 -1.56245 0
M  V30 3382 H 319.729 -0.594784 -0.738198 0
M  V30 3383 H 319.435 -1.71453 -3.07078 0
M  V30 3384 H 319.309 -0.11021 -3.77039 0
M  V30 3385 H 321.696 0.405297 -2.92304 0
M  V30 3386 H 321.777 -1.22687 -2.24458 0
M  V30 3387 H 321.421 -2.1919 -4.58168 0
M  V30 3388 H 321.351 -0.537365 -5.23851 0
M  V30 3389 H 323.842 -0.784895 -3.69659 0
M  V30 3390 H 324.155 -2.21148 -7.40482 0
M  V30 3391 H 322.5 -1.98219 -6.66134 0
M  V30 3392 H 325.691 -1.0545 -4.56068 0
M  V30 3393 H 325.864 -1.70481 -6.25172 0
M  V30 3394 N 319.27 1.56325 -0.20005 0
M  V30 3395 C 320.5 2.01811 0.442232 0
M  V30 3396 C 320.908 1.07932 1.55394 0
M  V30 3397 O 320.251 0.0772685 1.83537 0
M  V30 3398 C 320.313 3.43685 1.05457 0
M  V30 3399 C 319.977 4.56928 0.0809833 0
M  V30 3400 C 320.974 5.15009 -0.711471 0
M  V30 3401 C 318.659 5.0229 -0.0315364 0
M  V30 3402 C 320.653 6.16904 -1.60336 0
M  V30 3403 C 318.34 6.04028 -0.926981 0
M  V30 3404 C 319.338 6.6121 -1.71146 0
M  V30 3405 O 319.026 7.60971 -2.59189 0
M  V30 3406 H 318.758 0.666173 0.114848 0
M  V30 3407 H 321.312 2.03085 -0.307511 0
M  V30 3408 H 319.542 3.39413 1.85299 0
M  V30 3409 H 321.231 3.72948 1.60201 0
M  V30 3410 H 321.997 4.80827 -0.634873 0
M  V30 3411 H 317.876 4.57476 0.568902 0
M  V30 3412 H 321.42 6.61464 -2.21611 0
M  V30 3413 H 317.317 6.37634 -1.00468 0
M  V30 3414 H 318.085 7.7841 -2.53023 0
M  V30 3415 N 320.748 -0.0735177 1.57428 0
M  V30 3416 C 321.978 -0.78483 1.91112 0
M  V30 3417 C 322.386 -1.71729 0.7941 0
M  V30 3418 O 321.729 -1.82105 -0.241542 0
M  V30 3419 C 321.791 -1.63346 3.20247 0
M  V30 3420 C 321.455 -0.870557 4.48632 0
M  V30 3421 C 322.452 -0.19058 5.19551 0
M  V30 3422 C 320.137 -0.838242 4.95256 0
M  V30 3423 C 322.131 0.511503 6.35344 0
M  V30 3424 C 319.818 -0.132386 6.10957 0
M  V30 3425 C 320.816 0.541288 6.80852 0
M  V30 3426 O 320.504 1.23578 7.94345 0
M  V30 3427 H 320.236 -0.228408 0.636244 0
M  V30 3428 H 322.79 -0.0486039 2.05342 0
M  V30 3429 H 321.02 -2.41245 3.02222 0
M  V30 3430 H 322.709 -2.22329 3.39595 0
M  V30 3431 H 323.475 -0.206864 4.84559 0
M  V30 3432 H 319.354 -1.35206 4.40727 0
M  V30 3433 H 322.898 1.03789 6.89836 0
M  V30 3434 H 318.795 -0.114023 6.45399 0
M  V30 3435 H 319.563 1.14487 8.10454 0
M  V30 3436 N 322.226 -1.5378 -0.344866 0
M  V30 3437 C 323.637 -1.62428 -0.920552 0
M  V30 3438 C 323.988 -0.504747 -1.89596 0
M  V30 3439 O 323.113 0.365711 -2.13287 0
M  V30 3440 C 323.708 -2.94419 -1.67639 0
M  V30 3441 C 322.267 -3.05333 -2.20111 0
M  V30 3442 C 321.414 -2.57866 -1.01982 0
M  V30 3443 H 324.365 -1.58222 -0.123042 0
M  V30 3444 H 324.386 -2.83384 -2.53917 0
M  V30 3445 H 323.898 -3.7588 -0.966224 0
M  V30 3446 H 321.999 -2.28502 -2.94308 0
M  V30 3447 H 322.112 -4.10778 -2.46573 0
M  V30 3448 H 320.476 -2.13241 -1.39285 0
M  V30 3449 H 321.259 -3.41765 -0.324308 0
M  V30 3450 N 323.704 0.605807 -1.45491 0
M  V30 3451 C 324.667 1.69836 -1.5391 0
M  V30 3452 C 325.667 1.55261 -0.418424 0
M  V30 3453 O 326.857 1.60296 -0.681965 0
M  V30 3454 C 323.989 3.09117 -1.43734 0
M  V30 3455 H 325.182 1.63738 -2.51257 0
M  V30 3456 H 322.735 0.821689 -1.32959 0
M  V30 3457 H 323.47 3.20791 -0.475788 0
M  V30 3458 H 323.255 3.21104 -2.25021 0
M  V30 3459 H 324.745 3.88696 -1.52661 0
M  V30 3460 N 325.182 1.32811 0.848464 0
M  V30 3461 C 326.407 1.26882 1.6406 0
M  V30 3462 C 326.832 -0.15913 1.87426 0
M  V30 3463 O 326.19 -1.11258 1.43148 0
M  V30 3464 C 326.238 2.03997 2.97351 0
M  V30 3465 O 325.342 1.39201 3.88197 0
M  V30 3466 H 324.683 0.436982 0.499943 0
M  V30 3467 H 327.213 1.75224 1.0563 0
M  V30 3468 H 327.223 2.14403 3.47124 0
M  V30 3469 H 325.898 3.0783 2.79666 0
M  V30 3470 H 324.475 1.37381 3.46671 0
M  V30 3471 N 326.66 -1.06551 1.16123 0
M  V30 3472 C 328.071 -1.60768 0.949232 0
M  V30 3473 C 328.422 -1.89523 -0.507508 0
M  V30 3474 O 327.547 -1.66671 -1.38021 0
M  V30 3475 C 328.142 -2.92086 1.71671 0
M  V30 3476 C 326.701 -3.43015 1.54977 0
M  V30 3477 C 325.848 -2.16947 1.72711 0
M  V30 3478 H 328.799 -0.895354 1.31031 0
M  V30 3479 H 328.82 -3.6138 1.19099 0
M  V30 3480 H 328.332 -2.71127 2.7769 0
M  V30 3481 H 326.433 -3.69039 0.513873 0
M  V30 3482 H 326.546 -4.18516 2.33198 0
M  V30 3483 H 324.91 -2.27041 1.15431 0
M  V30 3484 H 325.693 -1.98473 2.80113 0
M  V30 3485 N 328.138 -0.959301 -1.25041 0
M  V30 3486 C 329.384 -0.627096 -1.93492 0
M  V30 3487 C 329.739 0.827484 -1.73696 0
M  V30 3488 O 329.032 1.58651 -1.07427 0
M  V30 3489 C 329.226 -0.927136 -3.45165 0
M  V30 3490 C 329.055 -2.40933 -3.79712 0
M  V30 3491 C 327.825 -3.0677 -4.01522 0
M  V30 3492 C 330.023 -3.38894 -3.86853 0
M  V30 3493 N 328.005 -4.44815 -4.231 0
M  V30 3494 C 329.376 -4.62263 -4.13174 0
M  V30 3495 C 331.431 -3.33668 -3.69554 0
M  V30 3496 C 330.134 -5.81052 -4.23995 0
M  V30 3497 C 332.16 -4.518 -3.81616 0
M  V30 3498 C 331.522 -5.73957 -4.08354 0
M  V30 3499 H 327.621 -0.280166 -0.73009 0
M  V30 3500 H 330.205 -1.23244 -1.50729 0
M  V30 3501 H 328.376 -0.350685 -3.86814 0
M  V30 3502 H 330.108 -0.554361 -4.00885 0
M  V30 3503 H 326.863 -2.57327 -3.97593 0
M  V30 3504 H 327.287 -5.16319 -4.37885 0
M  V30 3505 H 331.929 -2.40268 -3.47895 0
M  V30 3506 H 329.647 -6.74888 -4.44468 0
M  V30 3507 H 333.233 -4.49309 -3.69612 0
M  V30 3508 H 332.113 -6.6384 -4.17475 0
M  V30 3509 N 329.616 1.39756 -0.72842 0
M  V30 3510 C 330.862 2.00942 -0.273892 0
M  V30 3511 C 331.195 1.57656 1.13394 0
M  V30 3512 O 330.47 0.802434 1.77176 0
M  V30 3513 C 330.753 3.58211 -0.368346 0
M  V30 3514 C 330.606 4.11534 -1.81548 0
M  V30 3515 C 331.925 4.39372 0.253054 0
M  V30 3516 H 329.044 0.730047 -0.100996 0
M  V30 3517 H 331.686 1.66056 -0.923337 0
M  V30 3518 H 329.836 3.88061 0.184588 0
M  V30 3519 H 331.508 3.92431 -2.42478 0
M  V30 3520 H 329.751 3.65341 -2.33898 0
M  V30 3521 H 330.422 5.20682 -1.83288 0
M  V30 3522 H 332.898 4.15527 -0.218224 0
M  V30 3523 H 331.774 5.48677 0.156585 0
M  V30 3524 H 332.035 4.21358 1.33826 0
M  V30 3525 N 331.094 0.475555 1.50254 0
M  V30 3526 C 332.371 -0.139685 1.95101 0
M  V30 3527 C 332.751 -1.56555 1.41611 0
M  V30 3528 O 332.099 -2.19956 0.618993 0
M  V30 3529 C 332.309 -0.0784298 3.48912 0
M  V30 3530 C 333.657 -0.265095 4.23772 0
M  V30 3531 O 334.681 -0.154808 3.55863 0
M  V30 3532 O 333.54 -0.488327 5.44314 0
M  V30 3533 H 330.634 -0.109236 0.819754 0
M  V30 3534 H 333.18 0.536276 1.61004 0
M  V30 3535 H 331.952 0.916918 3.80405 0
M  V30 3536 H 331.575 -0.795655 3.89558 0
M  V30 3537 N 332.573 -1.56217 0.208337 0
M  V30 3538 C 333.521 -2.21053 -0.723769 0
M  V30 3539 C 334.515 -1.18578 -1.20978 0
M  V30 3540 O 335.721 -1.36691 -1.17114 0
M  V30 3541 H 332.096 -0.708595 -0.251788 0
M  V30 3542 H 334.067 -2.98006 -0.153365 0
M  V30 3543 C 332.816 -2.89417 -1.927 0
M  V30 3544 H 332.139 -3.68019 -1.56212 0
M  V30 3545 H 333.579 -3.38201 -2.55727 0
M  V30 3546 C 332.038 -1.91166 -2.77411 0
M  V30 3547 O 332.568 -1.42026 -3.75754 0
M  V30 3548 N 330.774 -1.59105 -2.43175 0
M  V30 3549 H 330.321 -1.99259 -1.63259 0
M  V30 3550 H 330.279 -0.936255 -3.00136 0
M  V30 3551 N 334.051 0.0651679 -1.57465 0
M  V30 3552 C 335.276 0.779605 -1.9219 0
M  V30 3553 C 335.701 1.69988 -0.805333 0
M  V30 3554 O 335.059 1.79685 0.241435 0
M  V30 3555 C 335.107 1.54364 -3.2589 0
M  V30 3556 O 334.211 2.65474 -3.1559 0
M  V30 3557 H 333.552 0.212249 -0.629163 0
M  V30 3558 H 336.082 0.0314294 -2.04576 0
M  V30 3559 H 336.092 1.92146 -3.59922 0
M  V30 3560 H 334.767 0.868457 -4.06732 0
M  V30 3561 H 333.344 2.30501 -2.93128 0
M  V30 3562 N 335.529 1.53961 0.336706 0
M  V30 3563 C 336.945 1.44378 0.680241 0
M  V30 3564 C 337.145 0.606034 1.9217 0
M  V30 3565 O 336.201 0.099688 2.52303 0
M  V30 3566 C 337.514 2.87945 0.8665 0
M  V30 3567 C 339.062 2.97763 0.964682 0
M  V30 3568 C 339.537 4.42453 1.18321 0
M  V30 3569 N 341.028 4.46008 1.25025 0
M  V30 3570 C 341.763 5.55102 1.43697 0
M  V30 3571 N 341.259 6.7419 1.59498 0
M  V30 3572 N 343.052 5.42727 1.463 0
M  V30 3573 H 335.203 2.06918 -0.479455 0
M  V30 3574 H 337.466 0.935634 -0.152619 0
M  V30 3575 H 337.172 3.51691 0.0256937 0
M  V30 3576 H 337.046 3.33293 1.76623 0
M  V30 3577 H 339.433 2.34153 1.796 0
M  V30 3578 H 339.514 2.55766 0.041708 0
M  V30 3579 H 339.158 5.06645 0.356788 0
M  V30 3580 H 339.088 4.82048 2.11985 0
M  V30 3581 H 341.579 3.60196 1.14312 0
M  V30 3582 H 341.892 7.53095 1.734 0
M  V30 3583 H 340.237 6.77123 1.56621 0
M  V30 3584 H 343.428 4.48647 1.33543 0
M  V30 3585 H 343.601 6.27806 1.6051 0
M  V30 3586 N 337.007 -0.598083 1.45811 0
M  V30 3587 C 338.235 -1.38322 1.53866 0
M  V30 3588 C 338.65 -1.87992 0.174479 0
M  V30 3589 O 338.007 -1.62756 -0.825627 0
M  V30 3590 C 338.058 -2.58125 2.53089 0
M  V30 3591 O 337.779 -2.10516 3.84206 0
M  V30 3592 C 339.28 -3.50869 2.70935 0
M  V30 3593 H 336.5 -0.423093 0.520801 0
M  V30 3594 H 339.044 -0.728527 1.91083 0
M  V30 3595 H 337.199 -3.19615 2.18917 0
M  V30 3596 H 337.613 -2.88425 4.38077 0
M  V30 3597 H 339.087 -4.31451 3.44317 0
M  V30 3598 H 339.564 -4.01822 1.77301 0
M  V30 3599 H 340.17 -2.95225 3.06141 0
M  V30 3600 N 338.485 -1.33259 -0.841409 0
M  V30 3601 C 339.896 -1.22066 -1.41269 0
M  V30 3602 C 340.247 0.161479 -1.95534 0
M  V30 3603 O 339.372 1.06094 -1.88608 0
M  V30 3604 C 339.967 -2.20996 -2.568 0
M  V30 3605 C 338.526 -2.13649 -3.09888 0
M  V30 3606 C 337.673 -2.08623 -1.82679 0
M  V30 3607 H 340.624 -1.44895 -0.647395 0
M  V30 3608 H 340.645 -1.81621 -3.34356 0
M  V30 3609 H 340.157 -3.2158 -2.17274 0
M  V30 3610 H 338.258 -1.16359 -3.53965 0
M  V30 3611 H 338.371 -3.04079 -3.70234 0
M  V30 3612 H 336.735 -1.54061 -2.02824 0
M  V30 3613 H 337.518 -3.1101 -1.45353 0
M  V30 3614 N 339.963 1.05934 -1.16686 0
M  V30 3615 C 340.911 2.15603 -0.872817 0
M  V30 3616 C 341.905 1.68647 0.159576 0
M  V30 3617 O 343.111 1.79995 0.0132125 0
M  V30 3618 H 339.486 0.703885 -0.264671 0
M  V30 3619 H 341.457 2.37613 -1.80507 0
M  V30 3620 C 340.206 3.45457 -0.394344 0
M  V30 3621 H 339.529 3.81984 -1.18019 0
M  V30 3622 H 340.969 4.2339 -0.227408 0
M  V30 3623 C 339.428 3.25021 0.88673 0
M  V30 3624 O 339.958 3.50906 1.95519 0
M  V30 3625 N 338.164 2.78437 0.831925 0
M  V30 3626 H 337.711 2.57572 -0.0377619 0
M  V30 3627 H 337.669 2.65144 1.68956 0
M  V30 3628 N 341.441 0.965919 1.2453 0
M  V30 3629 C 342.388 0.49402 2.25451 0
M  V30 3630 C 343.358 -0.45948 1.59618 0
M  V30 3631 O 344.543 -0.370238 1.87173 0
M  V30 3632 C 341.683 -0.211359 3.44452 0
M  V30 3633 C 340.796 0.7807 4.24887 0
M  V30 3634 C 339.931 0.0516105 5.31175 0
M  V30 3635 C 338.97 1.03385 6.03306 0
M  V30 3636 N 338.107 0.334887 7.01301 0
M  V30 3637 H 342.947 1.35946 2.65184 0
M  V30 3638 H 340.484 0.681515 1.3036 0
M  V30 3639 H 342.442 -0.637 4.12308 0
M  V30 3640 H 341.072 -1.04077 3.05562 0
M  V30 3641 H 340.124 1.32479 3.56586 0
M  V30 3642 H 341.436 1.52978 4.74762 0
M  V30 3643 H 340.59 -0.432114 6.05159 0
M  V30 3644 H 339.329 -0.730179 4.82203 0
M  V30 3645 H 338.334 1.52847 5.28127 0
M  V30 3646 H 339.559 1.81606 6.54367 0
M  V30 3647 H 337.505 -0.427959 6.54603 0
M  V30 3648 H 337.422 1.02287 7.49048 0
M  V30 3649 H 338.69 -0.126928 7.79397 0
M  V30 3650 N 342.919 -1.39368 0.735821 0
M  V30 3651 C 344.168 -1.99733 0.281004 0
M  V30 3652 C 344.481 -1.59055 -1.13846 0
M  V30 3653 O 345.687 -2.12262 -1.69284 0
M  V30 3654 C 344.143 -3.57057 0.451462 0
M  V30 3655 C 343.751 -4.06697 1.87886 0
M  V30 3656 C 345.495 -4.2446 0.0584616 0
M  V30 3657 C 343.402 -5.56598 1.99883 0
M  V30 3658 H 342.332 -0.747163 0.101311 0
M  V30 3659 H 344.983 -1.59357 0.909819 0
M  V30 3660 H 343.365 -3.95234 -0.246263 0
M  V30 3661 H 344.539 -3.79853 2.60861 0
M  V30 3662 H 342.854 -3.5196 2.22515 0
M  V30 3663 H 345.451 -5.34549 0.127099 0
M  V30 3664 H 345.794 -4.04444 -0.986433 0
M  V30 3665 H 346.327 -3.9146 0.707374 0
M  V30 3666 H 343.066 -5.81494 3.02564 0
M  V30 3667 H 342.586 -5.85242 1.31346 0
M  V30 3668 H 344.265 -6.22022 1.78039 0
M  V30 3669 N 344.397 -0.483516 -1.5 0
M  V30 3670 C 345.674 0.129337 -1.95172 0
M  V30 3671 C 346.054 1.55802 -1.4244 0
M  V30 3672 O 345.402 2.19625 -0.630649 0
M  V30 3673 C 345.612 0.0599251 -3.48949 0
M  V30 3674 C 346.96 0.242617 -4.23906 0
M  V30 3675 O 347.984 0.135933 -3.55941 0
M  V30 3676 O 346.843 0.459454 -5.44565 0
M  V30 3677 H 343.937 0.104887 -0.820322 0
M  V30 3678 H 346.483 -0.544807 -1.60717 0
M  V30 3679 H 345.255 -0.937079 -3.79914 0
M  V30 3680 H 344.878 0.774984 -3.89974 0
M  V30 3681 N 345.875 1.56104 -0.216619 0
M  V30 3682 C 346.805 2.23063 0.690296 0
M  V30 3683 C 347.786 1.20072 1.20485 0
M  V30 3684 O 348.971 1.48643 1.24976 0
M  V30 3685 C 346.101 2.90672 1.90072 0
M  V30 3686 C 345.055 4.00092 1.5202 0
M  V30 3687 C 344.381 4.54972 2.80899 0
M  V30 3688 C 345.681 5.17398 0.71391 0
M  V30 3689 H 347.375 2.99109 0.132038 0
M  V30 3690 H 344.921 1.43866 0.0620664 0
M  V30 3691 H 346.874 3.36204 2.54057 0
M  V30 3692 H 345.598 2.12066 2.48386 0
M  V30 3693 H 344.257 3.55283 0.903839 0
M  V30 3694 H 343.905 3.73102 3.37348 0
M  V30 3695 H 343.605 5.28817 2.56176 0
M  V30 3696 H 345.129 5.0322 3.45836 0
M  V30 3697 H 346.543 5.59342 1.25735 0
M  V30 3698 H 344.94 5.97444 0.563951 0
M  V30 3699 H 346.01 4.84088 -0.280527 0
M  V30 3700 N 347.353 -0.0568162 1.57498 0
M  V30 3701 C 348.583 -0.764515 1.91934 0
M  V30 3702 C 348.991 -1.70877 0.81227 0
M  V30 3703 O 348.334 -1.82351 -0.222213 0
M  V30 3704 C 348.396 -1.5994 3.21962 0
M  V30 3705 C 348.06 -0.822925 4.4953 0
M  V30 3706 C 349.057 -0.135464 5.19723 0
M  V30 3707 C 346.742 -0.785666 4.96117 0
M  V30 3708 C 348.736 0.578861 6.34766 0
M  V30 3709 C 346.423 -0.0675784 6.11063 0
M  V30 3710 C 347.421 0.613471 6.80239 0
M  V30 3711 O 347.109 1.31996 7.92989 0
M  V30 3712 H 346.841 -0.221647 0.63863 0
M  V30 3713 H 349.395 -0.0268218 2.05382 0
M  V30 3714 H 347.625 -2.38026 3.04763 0
M  V30 3715 H 349.314 -2.18715 3.41934 0
M  V30 3716 H 350.08 -0.155458 4.84751 0
M  V30 3717 H 345.959 -1.30524 4.42136 0
M  V30 3718 H 349.503 1.111 6.88696 0
M  V30 3719 H 345.4 -0.0455636 6.45484 0
M  V30 3720 H 346.168 1.23077 8.09194 0
M  V30 3721 N 348.832 -1.54138 -0.328536 0
M  V30 3722 C 350.109 -1.62749 -1.08499 0
M  V30 3723 C 350.489 -0.458198 -2.06067 0
M  V30 3724 O 349.837 0.548046 -2.2183 0
M  V30 3725 C 350.047 -2.99519 -1.79135 0
M  V30 3726 C 351.395 -3.55394 -2.32337 0
M  V30 3727 O 352.419 -3.01792 -1.89209 0
M  V30 3728 O 351.278 -4.49186 -3.11279 0
M  V30 3729 H 348.372 -0.65886 -0.499832 0
M  V30 3730 H 350.918 -1.66484 -0.328826 0
M  V30 3731 H 349.69 -3.76061 -1.08139 0
M  V30 3732 H 349.313 -2.99441 -2.61574 0
M  V30 3733 N 350.31 0.590341 -1.46126 0
M  V30 3734 C 351.556 1.35082 -1.51264 0
M  V30 3735 C 351.889 1.93534 -0.160711 0
M  V30 3736 O 351.164 1.76045 0.826956 0
M  V30 3737 C 351.447 2.48588 -2.6053 0
M  V30 3738 C 351.3 1.95221 -4.05227 0
M  V30 3739 C 352.619 3.50662 -2.6594 0
M  V30 3740 H 349.738 0.489803 -0.550692 0
M  V30 3741 H 352.38 0.663887 -1.78024 0
M  V30 3742 H 350.53 3.07186 -2.37843 0
M  V30 3743 H 352.202 1.41139 -4.39178 0
M  V30 3744 H 350.445 1.26101 -4.15068 0
M  V30 3745 H 351.116 2.77121 -4.77397 0
M  V30 3746 H 353.592 3.01934 -2.86313 0
M  V30 3747 H 352.468 4.27551 -3.44226 0
M  V30 3748 H 352.729 4.07399 -1.71694 0
M  V30 3749 N 351.788 1.33704 0.83433 0
M  V30 3750 C 353.204 1.13137 1.12571 0
M  V30 3751 C 353.404 -0.0747261 2.01361 0
M  V30 3752 O 352.46 -0.753647 2.4099 0
M  V30 3753 C 353.773 2.42105 1.78342 0
M  V30 3754 C 355.321 2.48054 1.90888 0
M  V30 3755 C 355.796 3.76995 2.60075 0
M  V30 3756 N 357.287 3.78092 2.67584 0
M  V30 3757 C 358.022 4.74574 3.21818 0
M  V30 3758 N 357.518 5.81434 3.76705 0
M  V30 3759 N 359.311 4.62044 3.20112 0
M  V30 3760 H 351.462 2.11 0.243489 0
M  V30 3761 H 353.725 0.932532 0.17055 0
M  V30 3762 H 353.431 3.30391 1.20561 0
M  V30 3763 H 353.305 2.54594 2.7832 0
M  V30 3764 H 355.692 1.60215 2.47821 0
M  V30 3765 H 355.773 2.39502 0.898459 0
M  V30 3766 H 355.417 4.65219 2.03799 0
M  V30 3767 H 355.347 3.82825 3.61597 0
M  V30 3768 H 357.838 3.00865 2.28667 0
M  V30 3769 H 358.151 6.51084 4.16305 0
M  V30 3770 H 356.496 5.85163 3.7498 0
M  V30 3771 H 359.687 3.77716 2.76493 0
M  V30 3772 H 359.86 5.37406 3.62076 0
M  V30 3773 N 353.266 -1.05314 1.17247 0
M  V30 3774 C 354.682 -1.30452 0.919473 0
M  V30 3775 C 354.882 -1.9703 -0.42209 0
M  V30 3776 O 353.938 -2.24311 -1.15935 0
M  V30 3777 C 355.251 -2.17551 2.07586 0
M  V30 3778 C 356.799 -2.30937 2.11275 0
M  V30 3779 C 357.274 -3.21396 3.26296 0
M  V30 3780 N 358.765 -3.28981 3.26076 0
M  V30 3781 C 359.5 -3.99095 4.11716 0
M  V30 3782 N 358.996 -4.71648 5.07465 0
M  V30 3783 N 360.789 -3.95247 3.9967 0
M  V30 3784 H 352.94 -0.604988 2.03602 0
M  V30 3785 H 355.203 -0.329368 0.888944 0
M  V30 3786 H 354.909 -1.75921 3.0454 0
M  V30 3787 H 354.783 -3.18182 2.02584 0
M  V30 3788 H 357.17 -2.71809 1.14907 0
M  V30 3789 H 357.251 -1.2994 2.20339 0
M  V30 3790 H 356.895 -2.81238 4.22927 0
M  V30 3791 H 356.825 -4.22395 3.14467 0
M  V30 3792 H 359.316 -2.77286 2.5675 0
M  V30 3793 H 359.629 -5.22705 5.6921 0
M  V30 3794 H 357.974 -4.70594 5.11435 0
M  V30 3795 H 361.165 -3.37691 3.24164 0
M  V30 3796 H 361.338 -4.4962 4.66632 0
M  V30 3797 N 354.744 -0.972509 -1.24016 0
M  V30 3798 C 356.16 -0.679827 -1.44397 0
M  V30 3799 C 356.36 0.756716 -1.86751 0
M  V30 3800 O 355.416 1.53007 -2.00861 0
M  V30 3801 C 356.729 -1.66803 -2.50195 0
M  V30 3802 C 358.277 -1.68119 -2.64017 0
M  V30 3803 C 358.752 -2.65748 -3.73017 0
M  V30 3804 N 360.243 -2.64219 -3.8045 0
M  V30 3805 C 360.978 -3.36433 -4.64328 0
M  V30 3806 N 360.474 -4.1818 -5.52356 0
M  V30 3807 N 362.267 -3.25235 -4.58453 0
M  V30 3808 H 354.418 -1.90059 -0.948228 0
M  V30 3809 H 356.681 -0.818527 -0.478245 0
M  V30 3810 H 356.387 -2.69498 -2.25973 0
M  V30 3811 H 356.261 -1.4446 -3.48441 0
M  V30 3812 H 358.648 -0.661319 -2.87594 0
M  V30 3813 H 358.729 -1.94525 -1.66113 0
M  V30 3814 H 358.373 -3.67872 -3.50189 0
M  V30 3815 H 358.303 -2.36619 -4.70446 0
M  V30 3816 H 360.794 -2.04887 -3.17537 0
M  V30 3817 H 361.107 -4.70157 -6.13329 0
M  V30 3818 H 359.452 -4.22273 -5.52006 0
M  V30 3819 H 362.643 -2.60829 -3.88698 0
M  V30 3820 H 362.816 -3.81776 -5.23594 0
M  V30 3821 N 356.222 1.38976 -0.743202 0
M  V30 3822 C 357.633 1.83123 -0.363732 0
M  V30 3823 C 357.984 1.6205 1.10609 0
M  V30 3824 O 357.109 1.11606 1.854 0
M  V30 3825 C 357.704 3.32439 -0.653408 0
M  V30 3826 C 356.263 3.74974 -0.327338 0
M  V30 3827 C 355.41 2.61878 -0.911875 0
M  V30 3828 H 358.361 1.27852 -0.940191 0
M  V30 3829 H 358.382 3.80432 0.0720031 0
M  V30 3830 H 357.894 3.47745 -1.72323 0
M  V30 3831 H 355.995 3.65252 0.736314 0
M  V30 3832 H 356.108 4.72106 -0.815631 0
M  V30 3833 H 354.472 2.52448 -0.337944 0
M  V30 3834 H 355.255 2.79987 -1.98651 0
M  V30 3835 N 357.7 0.491464 1.49741 0
M  V30 3836 C 358.946 -0.0485431 2.03342 0
M  V30 3837 C 359.301 -1.35566 1.36527 0
M  V30 3838 O 358.594 -1.85262 0.488729 0
M  V30 3839 C 358.788 -0.267329 3.56399 0
M  V30 3840 C 358.617 1.01703 4.38049 0
M  V30 3841 C 357.387 1.56614 4.80417 0
M  V30 3842 C 359.585 1.91782 4.77204 0
M  V30 3843 N 357.567 2.7974 5.4646 0
M  V30 3844 C 358.938 2.99489 5.42868 0
M  V30 3845 C 360.993 1.92575 4.5915 0
M  V30 3846 C 359.696 4.08005 5.92389 0
M  V30 3847 C 361.722 3.0006 5.09626 0
M  V30 3848 C 361.084 4.06485 5.75282 0
M  V30 3849 H 357.183 0.0227779 0.781668 0
M  V30 3850 H 359.767 0.664204 1.8302 0
M  V30 3851 H 357.938 -0.949126 3.76625 0
M  V30 3852 H 359.67 -0.803492 3.96644 0
M  V30 3853 H 356.425 1.11256 4.60347 0
M  V30 3854 H 356.849 3.42323 5.84075 0
M  V30 3855 H 361.491 1.11605 4.07804 0
M  V30 3856 H 359.209 4.89779 6.42761 0
M  V30 3857 H 362.795 3.01681 4.97473 0
M  V30 3858 H 361.675 4.88287 6.13633 0
M  V30 3859 N 359.178 -1.55987 0.224894 0
M  V30 3860 C 360.408 -2.02489 -0.41007 0
M  V30 3861 C 360.816 -1.10391 -1.53657 0
M  V30 3862 O 360.159 -0.106458 -1.83391 0
M  V30 3863 C 360.221 -3.45319 -0.999757 0
M  V30 3864 C 359.885 -4.56999 -0.00827976 0
M  V30 3865 C 360.882 -5.13812 0.793314 0
M  V30 3866 C 358.567 -5.02176 0.111442 0
M  V30 3867 C 360.561 -6.14276 1.7013 0
M  V30 3868 C 358.248 -6.02477 1.02296 0
M  V30 3869 C 359.246 -6.58403 1.81643 0
M  V30 3870 O 358.934 -7.56751 2.71262 0
M  V30 3871 H 358.666 -0.667915 -0.104235 0
M  V30 3872 H 361.22 -2.0257 0.339782 0
M  V30 3873 H 359.45 -3.42318 -1.79876 0
M  V30 3874 H 361.139 -3.7545 -1.54248 0
M  V30 3875 H 361.905 -4.79756 0.711288 0
M  V30 3876 H 357.784 -4.58323 -0.49605 0
M  V30 3877 H 361.328 -6.57854 2.32107 0
M  V30 3878 H 357.225 -6.35954 1.10599 0
M  V30 3879 H 357.993 -7.74286 2.65375 0
M  V30 3880 N 360.656 0.0484629 -1.57525 0
M  V30 3881 C 361.905 0.742065 -1.87553 0
M  V30 3882 C 362.218 1.77545 -0.820802 0
M  V30 3883 O 363.424 2.52027 -1.00967 0
M  V30 3884 C 361.88 1.37081 -3.32771 0
M  V30 3885 C 361.488 0.374786 -4.4643 0
M  V30 3886 C 363.232 2.04542 -3.71972 0
M  V30 3887 C 361.139 1.01077 -5.82698 0
M  V30 3888 H 360.069 0.280903 -0.699721 0
M  V30 3889 H 362.72 -0.00411877 -1.835 0
M  V30 3890 H 361.102 2.16605 -3.31509 0
M  V30 3891 H 362.276 -0.392331 -4.59127 0
M  V30 3892 H 360.591 -0.196653 -4.15935 0
M  V30 3893 H 363.188 2.52943 -4.71088 0
M  V30 3894 H 363.531 2.85515 -3.02964 0
M  V30 3895 H 364.064 1.31819 -3.75325 0
M  V30 3896 H 360.803 0.240878 -6.55057 0
M  V30 3897 H 360.323 1.74819 -5.73758 0
M  V30 3898 H 362.002 1.52383 -6.28799 0
M  V30 3899 N 362.134 1.5431 0.320358 0
M  V30 3900 C 363.066 1.80262 1.41556 0
M  V30 3901 C 364.079 0.684723 1.477 0
M  V30 3902 O 365.268 0.961886 1.50366 0
M  V30 3903 C 362.368 1.90825 2.8007 0
M  V30 3904 C 361.541 3.21023 2.97091 0
M  V30 3905 C 360.6 3.22247 4.15985 0
M  V30 3906 O 359.626 3.95871 4.08992 0
M  V30 3907 N 360.828 2.46258 5.25678 0
M  V30 3908 H 363.593 2.74778 1.19655 0
M  V30 3909 H 361.154 1.53646 0.510358 0
M  V30 3910 H 363.146 1.89067 3.57821 0
M  V30 3911 H 361.716 1.03392 2.95006 0
M  V30 3912 H 360.936 3.35715 2.06614 0
M  V30 3913 H 362.224 4.0698 3.05361 0
M  V30 3914 H 361.622 1.86037 5.34235 0
M  V30 3915 H 360.179 2.50275 6.01835 0
M  V30 3916 N 363.613 -0.582584 1.46437 0
M  V30 3917 C 364.861 -1.33814 1.51453 0
M  V30 3918 C 365.182 -1.94277 0.167792 0
M  V30 3919 O 364.452 -1.78566 -0.805677 0
M  V30 3920 H 363.032 -0.496838 0.557818 0
M  V30 3921 H 365.694 -0.682281 1.82568 0
M  V30 3922 H 364.79 -2.14479 2.26728 0
M  V30 3923 N 365.091 -1.34144 -0.827227 0
M  V30 3924 C 366.054 -1.25264 -1.91942 0
M  V30 3925 C 367.054 -0.168866 -1.59911 0
M  V30 3926 O 368.244 -0.421198 -1.69031 0
M  V30 3927 C 365.376 -0.932952 -3.27885 0
M  V30 3928 H 366.569 -2.22357 -2.0124 0
M  V30 3929 H 364.122 -1.1837 -1.0207 0
M  V30 3930 H 364.857 0.0349917 -3.24281 0
M  V30 3931 H 364.642 -1.71682 -3.52516 0
M  V30 3932 H 366.132 -0.895874 -4.07877 0
M  V30 3933 N 366.569 1.04691 -1.17803 0
M  V30 3934 C 367.532 2.10724 -0.901545 0
M  V30 3935 C 368.532 1.6042 0.110437 0
M  V30 3936 O 369.722 1.7377 -0.122303 0
M  V30 3937 C 366.854 3.39084 -0.351409 0
M  V30 3938 H 368.047 2.36686 -1.84174 0
M  V30 3939 H 365.6 1.21015 -0.98919 0
M  V30 3940 H 366.335 3.18782 0.59569 0
M  V30 3941 H 366.12 3.76909 -1.08083 0
M  V30 3942 H 367.61 4.17227 -0.176451 0
M  V30 3943 N 368.047 0.979072 1.23499 0
M  V30 3944 C 369.272 0.664845 1.96455 0
M  V30 3945 C 369.697 -0.761287 1.72006 0
M  V30 3946 O 369.055 -1.51837 0.990713 0
M  V30 3947 C 369.103 0.959479 3.47601 0
M  V30 3948 O 368.207 0.0508168 4.12369 0
M  V30 3949 H 367.548 0.250185 0.615064 0
M  V30 3950 H 370.078 1.31231 1.5697 0
M  V30 3951 H 370.088 0.895642 3.98048 0
M  V30 3952 H 368.763 1.99876 3.64723 0
M  V30 3953 H 367.34 0.16895 3.72517 0
M  V30 3954 N 369.525 -1.3858 0.750561 0
M  V30 3955 C 370.936 -1.82927 0.373438 0
M  V30 3956 C 371.287 -1.62634 -1.09748 0
M  V30 3957 O 370.412 -1.12588 -1.84805 0
M  V30 3958 C 371.007 -3.32088 0.671029 0
M  V30 3959 C 369.566 -3.74795 0.34722 0
M  V30 3960 C 368.713 -2.61391 0.92575 0
M  V30 3961 H 371.664 -1.27351 0.946958 0
M  V30 3962 H 371.685 -3.80465 -0.0518269 0
M  V30 3963 H 371.197 -3.46826 1.74164 0
M  V30 3964 H 369.298 -3.65638 -0.716933 0
M  V30 3965 H 369.411 -4.71667 0.840656 0
M  V30 3966 H 367.775 -2.52265 0.351327 0
M  V30 3967 H 368.558 -2.78929 2.00133 0
M  V30 3968 N 371.003 -0.499398 -1.49478 0
M  V30 3969 C 371.95 0.279881 -2.29097 0
M  V30 3970 C 372.92 0.961805 -1.3542 0
M  V30 3971 O 374.105 0.968777 -1.64376 0
M  V30 3972 C 371.245 1.33932 -3.18051 0
M  V30 3973 C 370.358 0.669333 -4.26783 0
M  V30 3974 C 369.493 1.70907 -5.02955 0
M  V30 3975 C 368.532 1.02087 -6.03527 0
M  V30 3976 N 367.669 2.00474 -6.7287 0
M  V30 3977 H 372.509 -0.405317 -2.95231 0
M  V30 3978 H 370.046 -0.211726 -1.45568 0
M  V30 3979 H 372.004 1.96553 -3.67998 0
M  V30 3980 H 370.634 1.9933 -2.53904 0
M  V30 3981 H 369.686 -0.0701234 -3.80335 0
M  V30 3982 H 370.998 0.127503 -4.98637 0
M  V30 3983 H 370.152 2.41037 -5.56764 0
M  V30 3984 H 368.891 2.28476 -4.30871 0
M  V30 3985 H 367.896 0.305338 -5.48951 0
M  V30 3986 H 369.121 0.451708 -6.77596 0
M  V30 3987 H 367.067 2.57007 -6.03559 0
M  V30 3988 H 366.984 1.51353 -7.40694 0
M  V30 3989 H 368.252 2.69897 -7.31284 0
M  V30 3990 N 372.481 1.55866 -0.233164 0
M  V30 3991 C 373.758 1.90471 0.444988 0
M  V30 3992 C 374.138 1.15209 1.7689 0
M  V30 3993 O 373.486 0.265119 2.26957 0
M  V30 3994 C 373.696 3.4333 0.626559 0
M  V30 3995 C 375.044 4.14319 0.92871 0
M  V30 3996 O 376.068 3.48993 0.712926 0
M  V30 3997 O 374.927 5.29846 1.33887 0
M  V30 3998 H 372.021 0.792347 0.236885 0
M  V30 3999 H 374.567 1.67437 -0.276211 0
M  V30 4000 H 373.339 3.90095 -0.306822 0
M  V30 4001 H 372.962 3.72181 1.39881 0
M  V30 4002 N 373.959 -0.0401083 1.57549 0
M  V30 4003 C 374.892 -1.07689 2.01192 0
M  V30 4004 C 375.87 -1.358 0.894273 0
M  V30 4005 O 377.054 -1.48642 1.15921 0
M  V30 4006 C 374.181 -2.41418 2.3756 0
M  V30 4007 C 373.227 -2.29237 3.59656 0
M  V30 4008 S 374.06 -1.65628 5.09242 0
M  V30 4009 C 375.216 -3.0087 5.48843 0
M  V30 4010 H 375.449 -0.705108 2.88817 0
M  V30 4011 H 372.982 -0.249724 1.52367 0
M  V30 4012 H 374.94 -3.18329 2.59186 0
M  V30 4013 H 373.601 -2.75747 1.50407 0
M  V30 4014 H 372.794 -3.27932 3.82722 0
M  V30 4015 H 372.396 -1.60469 3.37825 0
M  V30 4016 H 374.688 -3.97201 5.48851 0
M  V30 4017 H 375.631 -2.82549 6.49286 0
M  V30 4018 H 376.039 -3.02934 4.76331 0
M  V30 4019 N 375.437 -1.54477 -0.31217 0
M  V30 4020 C 376.367 -1.87652 -1.38957 0
M  V30 4021 C 377.348 -0.734358 -1.53431 0
M  V30 4022 O 378.533 -0.98911 -1.67123 0
M  V30 4023 C 375.663 -2.11396 -2.75552 0
M  V30 4024 C 374.617 -3.27243 -2.75855 0
M  V30 4025 C 373.943 -3.36382 -4.15633 0
M  V30 4026 C 375.243 -4.64622 -2.38587 0
M  V30 4027 H 376.937 -2.77887 -1.11442 0
M  V30 4028 H 374.483 -1.33707 -0.534655 0
M  V30 4029 H 376.436 -2.33189 -3.51 0
M  V30 4030 H 375.16 -1.17921 -3.04569 0
M  V30 4031 H 373.819 -3.05356 -2.02863 0
M  V30 4032 H 373.467 -2.40445 -4.41809 0
M  V30 4033 H 373.167 -4.14249 -4.1674 0
M  V30 4034 H 374.691 -3.60422 -4.92877 0
M  V30 4035 H 376.105 -4.86219 -3.03749 0
M  V30 4036 H 374.502 -5.45121 -2.50925 0
M  V30 4037 H 375.572 -4.66097 -1.33723 0
M  V30 4038 N 376.915 0.57481 -1.46744 0
M  V30 4039 C 378.164 1.32898 -1.51727 0
M  V30 4040 C 378.477 1.948 -0.176692 0
M  V30 4041 O 379.683 2.71299 -0.104385 0
M  V30 4042 C 378.139 2.40901 -2.67385 0
M  V30 4043 C 377.747 1.85266 -4.07898 0
M  V30 4044 C 379.491 3.17609 -2.81646 0
M  V30 4045 C 377.398 2.90945 -5.14883 0
M  V30 4046 H 376.328 0.499631 -0.564699 0
M  V30 4047 H 378.979 0.612536 -1.72975 0
M  V30 4048 H 377.361 3.15379 -2.39483 0
M  V30 4049 H 378.535 1.17278 -4.45626 0
M  V30 4050 H 376.85 1.21199 -3.98371 0
M  V30 4051 H 379.447 3.96493 -3.58744 0
M  V30 4052 H 379.79 3.70696 -1.89448 0
M  V30 4053 H 380.323 2.50239 -3.09233 0
M  V30 4054 H 377.062 2.42736 -6.089 0
M  V30 4055 H 376.582 3.57398 -4.81691 0
M  V30 4056 H 378.261 3.54755 -5.41071 0
M  V30 4057 N 378.394 1.34581 0.820102 0
M  V30 4058 C 379.324 1.29038 1.94606 0
M  V30 4059 C 380.305 0.1673 1.69275 0
M  V30 4060 O 381.49 0.360112 1.90832 0
M  V30 4061 C 378.62 1.04793 3.31113 0
M  V30 4062 C 377.574 2.13597 3.70891 0
M  V30 4063 C 376.9 1.74537 5.05412 0
M  V30 4064 C 378.2 3.55451 3.8269 0
M  V30 4065 H 379.894 2.23248 1.99501 0
M  V30 4066 H 377.44 1.0747 0.958449 0
M  V30 4067 H 379.393 0.995592 4.0947 0
M  V30 4068 H 378.117 0.0702565 3.26524 0
M  V30 4069 H 376.776 2.17905 2.9481 0
M  V30 4070 H 376.424 0.754226 4.97313 0
M  V30 4071 H 376.124 2.47361 5.32997 0
M  V30 4072 H 377.648 1.70803 5.86224 0
M  V30 4073 H 379.062 3.5354 4.51312 0
M  V30 4074 H 377.459 4.26922 4.21732 0
M  V30 4075 H 378.529 3.92587 2.84611 0
M  V30 4076 N 379.872 -1.04064 1.18357 0
M  V30 4077 C 381.118 -1.77528 0.980397 0
M  V30 4078 C 381.451 -1.87948 -0.48879 0
M  V30 4079 O 380.726 -1.3876 -1.36293 0
M  V30 4080 C 381.009 -3.20797 1.63588 0
M  V30 4081 C 380.862 -3.1832 3.17793 0
M  V30 4082 C 382.181 -4.18911 1.34914 0
M  V30 4083 H 379.3 -0.644443 0.357578 0
M  V30 4084 H 381.942 -1.2156 1.46024 0
M  V30 4085 H 380.092 -3.68586 1.22788 0
M  V30 4086 H 381.764 -2.78521 3.67728 0
M  V30 4087 H 380.007 -2.56351 3.49952 0
M  V30 4088 H 380.678 -4.19489 3.58794 0
M  V30 4089 H 383.154 -3.7967 1.70265 0
M  V30 4090 H 382.03 -5.17374 1.83346 0
M  V30 4091 H 382.291 -4.41262 0.272027 0
M  V30 4092 N 381.35 -0.985608 -1.22978 0
M  V30 4093 C 382.627 -0.573599 -1.87001 0
M  V30 4094 C 383.007 0.949213 -1.88555 0
M  V30 4095 O 382.355 1.82811 -1.37086 0
M  V30 4096 C 382.565 -1.18564 -3.28243 0
M  V30 4097 C 383.913 -1.28163 -4.04796 0
M  V30 4098 O 384.937 -1.13949 -3.37482 0
M  V30 4099 O 383.796 -1.50832 -5.25273 0
M  V30 4100 H 380.89 -0.193868 -0.803955 0
M  V30 4101 H 383.436 -1.08102 -1.30813 0
M  V30 4102 H 382.208 -2.22758 -3.21706 0
M  V30 4103 H 381.831 -0.663363 -3.92027 0
M  V30 4104 N 382.828 1.3818 -0.7579 0
M  V30 4105 C 384.074 2.00316 -0.316453 0
M  V30 4106 C 384.407 1.60026 1.10025 0
M  V30 4107 O 383.682 0.839835 1.75434 0
M  V30 4108 C 383.965 3.57349 -0.444245 0
M  V30 4109 C 383.818 4.07591 -1.90236 0
M  V30 4110 C 385.137 4.3981 0.1598 0
M  V30 4111 H 382.256 0.727741 -0.116459 0
M  V30 4112 H 384.898 1.6406 -0.958352 0
M  V30 4113 H 383.048 3.88365 0.102233 0
M  V30 4114 H 384.72 3.87199 -2.50748 0
M  V30 4115 H 382.963 3.60297 -2.41595 0
M  V30 4116 H 383.634 5.16677 -1.94291 0
M  V30 4117 H 386.11 4.14971 -0.306314 0
M  V30 4118 H 384.986 5.48885 0.0401675 0
M  V30 4119 H 385.247 4.24102 1.24859 0
M  V30 4120 N 384.306 0.507319 1.49211 0
M  V30 4121 C 385.531 -0.033725 2.07373 0
M  V30 4122 C 385.956 -1.29485 1.36437 0
M  V30 4123 O 385.314 -1.76294 0.423087 0
M  V30 4124 C 385.362 -0.263945 3.59633 0
M  V30 4125 O 384.466 -1.33737 3.90113 0
M  V30 4126 H 383.807 0.0290331 0.663365 0
M  V30 4127 H 386.337 0.708749 1.91932 0
M  V30 4128 H 386.347 -0.493536 4.05004 0
M  V30 4129 H 385.022 0.657424 4.10671 0
M  V30 4130 H 383.599 -1.09224 3.56545 0
M  V30 4131 N 385.784 -1.5574 0.241426 0
M  V30 4132 C 387.032 -1.98417 -0.384075 0
M  V30 4133 C 387.353 -1.13078 -1.58866 0
M  V30 4134 O 386.623 -0.212312 -1.94746 0
M  V30 4135 H 385.203 -0.732813 -0.144894 0
M  V30 4136 H 387.865 -1.9193 0.338943 0
M  V30 4137 H 386.961 -3.04219 -0.696939 0
M  V30 4138 N 387.262 0.0317525 -1.57568 0
M  V30 4139 C 388.487 0.738664 -1.938 0
M  V30 4140 C 388.912 1.68242 -0.841208 0
M  V30 4141 O 388.27 1.80157 0.203267 0
M  V30 4142 C 388.318 1.47417 -3.29091 0
M  V30 4143 O 387.422 2.5872 -3.2115 0
M  V30 4144 H 386.763 0.198856 -0.633524 0
M  V30 4145 H 389.293 -0.0119713 -2.04596 0
M  V30 4146 H 389.303 1.84468 -3.63917 0
M  V30 4147 H 387.978 0.781988 -4.08482 0
M  V30 4148 H 386.555 2.24231 -2.97951 0
M  V30 4149 N 388.74 1.54641 0.303973 0
M  V30 4150 C 389.986 1.74038 1.04109 0
M  V30 4151 C 390.319 0.523051 1.87024 0
M  V30 4152 O 389.594 -0.479874 1.88487 0
M  V30 4153 C 389.877 3.02761 1.94955 0
M  V30 4154 C 389.73 4.34787 1.1524 0
M  V30 4155 C 391.049 3.27336 2.94175 0
M  V30 4156 H 388.168 0.63323 0.377079 0
M  V30 4157 H 390.81 1.87354 0.316001 0
M  V30 4158 H 388.96 2.9154 2.56782 0
M  V30 4159 H 390.632 4.57922 0.557236 0
M  V30 4160 H 388.875 4.31407 0.455053 0
M  V30 4161 H 389.546 5.21116 1.8205 0
M  V30 4162 H 392.022 3.38148 2.42477 0
M  V30 4163 H 390.898 4.18726 3.54908 0
M  V30 4164 H 391.159 2.45491 3.67677 0
M  V30 4165 N 390.218 -0.567019 1.47046 0
M  V30 4166 C 391.443 -1.3551 1.57009 0
M  V30 4167 C 391.868 -1.86841 0.217259 0
M  V30 4168 O 391.226 -1.62435 -0.805268 0
M  V30 4169 C 391.274 -2.50777 2.5912 0
M  V30 4170 O 390.378 -3.52706 2.13711 0
M  V30 4171 H 389.719 -0.402919 0.52778 0
M  V30 4172 H 392.249 -0.686241 1.92748 0
M  V30 4173 H 392.259 -2.97481 2.79229 0
M  V30 4174 H 390.934 -2.12771 3.57353 0
M  V30 4175 H 389.511 -3.12374 2.03659 0
M  V30 4176 N 391.696 -1.35014 -0.812953 0
M  V30 4177 C 392.944 -1.27678 -1.56661 0
M  V30 4178 C 393.265 0.150359 -1.94419 0
M  V30 4179 O 392.535 1.08532 -1.63088 0
M  V30 4180 H 391.115 -0.469602 -0.580933 0
M  V30 4181 H 393.777 -1.69043 -0.970076 0
M  V30 4182 H 392.873 -1.88833 -2.48492 0
M  V30 4183 N 393.175 1.03435 -1.18907 0
M  V30 4184 C 394.105 2.13503 -0.945448 0
M  V30 4185 C 395.086 1.69682 0.119189 0
M  V30 4186 O 396.271 1.94169 -0.034707 0
M  V30 4187 C 393.401 3.44004 -0.477316 0
M  V30 4188 C 392.355 4.0148 -1.48316 0
M  V30 4189 C 391.681 5.27537 -0.872311 0
M  V30 4190 C 392.981 4.36921 -2.86177 0
M  V30 4191 H 394.675 2.34141 -1.86597 0
M  V30 4192 H 392.221 1.12523 -0.898584 0
M  V30 4193 H 394.174 4.20372 -0.294204 0
M  V30 4194 H 392.898 3.23072 0.478786 0
M  V30 4195 H 391.557 3.27201 -1.65332 0
M  V30 4196 H 391.205 5.02917 0.0911752 0
M  V30 4197 H 390.905 5.66954 -1.54393 0
M  V30 4198 H 392.429 6.06576 -0.699871 0
M  V30 4199 H 393.843 5.04248 -2.72776 0
M  V30 4200 H 392.24 4.87405 -3.50081 0
M  V30 4201 H 393.31 3.46466 -3.39248 0
M  V30 4202 N 394.653 0.992116 1.22453 0
M  V30 4203 C 395.881 0.685944 1.95198 0
M  V30 4204 C 396.296 -0.749233 1.73297 0
M  V30 4205 O 395.653 -1.50549 1.03156 0
M  V30 4206 C 395.704 0.981395 3.47924 0
M  V30 4207 O 395.425 2.36018 3.6909 0
M  V30 4208 C 396.926 0.692815 4.37853 0
M  V30 4209 H 394.146 0.253821 0.621141 0
M  V30 4210 H 396.69 1.32668 1.55626 0
M  V30 4211 H 394.845 0.386481 3.85467 0
M  V30 4212 H 395.259 2.45884 4.63294 0
M  V30 4213 H 396.733 0.949818 5.43767 0
M  V30 4214 H 397.21 -0.373181 4.37612 0
M  V30 4215 H 397.816 1.26874 4.05935 0
M  V30 4216 N 396.131 -1.37776 0.765217 0
M  V30 4217 C 397.061 -2.32945 0.160953 0
M  V30 4218 C 398.042 -1.55454 -0.690516 0
M  V30 4219 O 399.227 -1.83721 -0.629318 0
M  V30 4220 C 396.357 -3.39669 -0.724031 0
M  V30 4221 C 395.311 -4.27992 0.0256173 0
M  V30 4222 C 394.637 -5.25673 -0.978383 0
M  V30 4223 C 395.937 -5.08309 1.20082 0
M  V30 4224 H 397.631 -2.83728 0.955969 0
M  V30 4225 H 395.177 -1.36416 0.461149 0
M  V30 4226 H 397.13 -4.05219 -1.15652 0
M  V30 4227 H 395.854 -2.87396 -1.5515 0
M  V30 4228 H 394.513 -3.63964 0.438812 0
M  V30 4229 H 394.161 -4.69682 -1.80022 0
M  V30 4230 H 393.861 -5.85625 -0.481378 0
M  V30 4231 H 395.385 -5.94098 -1.40995 0
M  V30 4232 H 396.799 -5.67034 0.845307 0
M  V30 4233 H 395.196 -5.77554 1.62947 0
M  V30 4234 H 396.266 -4.41365 2.00811 0
M  V30 4235 N 397.609 -0.515225 -1.4894 0
M  V30 4236 C 398.556 0.255567 -2.29381 0
M  V30 4237 C 399.526 0.947387 -1.36432 0
M  V30 4238 O 400.711 0.951288 -1.65394 0
M  V30 4239 C 397.851 1.30551 -3.19453 0
M  V30 4240 C 396.964 0.624029 -4.27469 0
M  V30 4241 C 396.099 1.65563 -5.0474 0
M  V30 4242 C 395.138 0.956802 -6.04576 0
M  V30 4243 N 394.275 1.93326 -6.74959 0
M  V30 4244 H 399.115 -0.436607 -2.94784 0
M  V30 4245 H 396.652 -0.227154 -1.45336 0
M  V30 4246 H 398.61 1.92639 -3.70062 0
M  V30 4247 H 397.24 1.96626 -2.56004 0
M  V30 4248 H 396.292 -0.110459 -3.8024 0
M  V30 4249 H 397.604 0.0746092 -4.98744 0
M  V30 4250 H 396.758 2.35119 -5.59289 0
M  V30 4251 H 395.497 2.23893 -4.3327 0
M  V30 4252 H 394.502 0.247097 -5.49244 0
M  V30 4253 H 395.727 0.379814 -6.78037 0
M  V30 4254 H 393.673 2.50591 -6.06251 0
M  V30 4255 H 393.59 1.43489 -7.42258 0
M  V30 4256 H 394.858 2.62126 -7.34105 0
M  V30 4257 N 399.087 1.5561 -0.249682 0
M  V30 4258 C 400.017 2.24477 0.642826 0
M  V30 4259 C 400.998 1.22601 1.17911 0
M  V30 4260 O 402.183 1.5126 1.21795 0
M  V30 4261 C 399.313 2.94638 1.83863 0
M  V30 4262 C 398.267 4.03227 1.435 0
M  V30 4263 C 397.593 4.60828 2.71186 0
M  V30 4264 C 398.893 5.18796 0.604002 0
M  V30 4265 H 400.587 2.99321 0.0685625 0
M  V30 4266 H 398.133 1.43965 0.0315363 0
M  V30 4267 H 400.086 3.41517 2.46868 0
M  V30 4268 H 398.81 2.17287 2.43832 0
M  V30 4269 H 397.469 3.57121 0.828275 0
M  V30 4270 H 397.117 3.80174 3.29358 0
M  V30 4271 H 396.817 5.34132 2.44901 0
M  V30 4272 H 398.341 5.10442 3.35084 0
M  V30 4273 H 399.755 5.61883 1.13842 0
M  V30 4274 H 398.152 5.98506 0.437097 0
M  V30 4275 H 399.222 4.83384 -0.383147 0
M  V30 4276 N 400.565 -0.0233959 1.57583 0
M  V30 4277 C 401.814 -0.712133 1.8871 0
M  V30 4278 C 402.127 -1.76217 0.848944 0
M  V30 4279 O 403.333 -2.50389 1.04964 0
M  V30 4280 C 401.789 -1.3177 3.3491 0
M  V30 4281 C 401.397 -0.303715 4.46969 0
M  V30 4282 C 403.141 -1.98598 3.75179 0
M  V30 4283 C 401.048 -0.917945 5.84233 0
M  V30 4284 H 399.978 -0.269735 0.704101 0
M  V30 4285 H 402.629 0.0333114 1.8347 0
M  V30 4286 H 401.011 -2.11304 3.34913 0
M  V30 4287 H 402.185 0.465325 4.58445 0
M  V30 4288 H 400.5 0.2628 4.1557 0
M  V30 4289 H 403.097 -2.45416 4.75053 0
M  V30 4290 H 403.44 -2.80659 3.07468 0
M  V30 4291 H 403.973 -1.25831 3.77374 0
M  V30 4292 H 400.712 -0.136633 6.55358 0
M  V30 4293 H 400.232 -1.65669 5.76467 0
M  V30 4294 H 401.911 -1.4236 6.31144 0
M  V30 4295 N 402.043 -1.548 -0.295768 0
M  V30 4296 C 403.459 -1.4613 -0.641722 0
M  V30 4297 C 403.659 -0.656771 -1.90496 0
M  V30 4298 O 402.715 -0.166547 -2.5195 0
M  V30 4299 C 404.028 -2.90141 -0.789852 0
M  V30 4300 C 405.576 -3.00216 -0.885396 0
M  V30 4301 C 406.051 -4.45434 -1.06548 0
M  V30 4302 N 407.542 -4.49166 -1.13156 0
M  V30 4303 C 408.277 -5.58717 -1.28929 0
M  V30 4304 N 407.773 -6.78182 -1.41567 0
M  V30 4305 N 409.566 -5.46415 -1.31859 0
M  V30 4306 H 401.717 -2.05574 0.534147 0
M  V30 4307 H 403.98 -0.931259 0.177372 0
M  V30 4308 H 403.686 -3.51635 0.0675598 0
M  V30 4309 H 403.56 -3.37859 -1.67724 0
M  V30 4310 H 405.947 -2.38833 -1.73329 0
M  V30 4311 H 406.028 -2.55787 0.0261185 0
M  V30 4312 H 405.672 -5.07413 -0.222335 0
M  V30 4313 H 405.602 -4.87499 -1.9913 0
M  V30 4314 H 408.093 -3.631 -1.04721 0
M  V30 4315 H 408.406 -7.57428 -1.53372 0
M  V30 4316 H 406.751 -6.81037 -1.38613 0
M  V30 4317 H 409.942 -4.5203 -1.21601 0
M  V30 4318 H 410.115 -6.31841 -1.43808 0
M  V30 4319 N 403.521 0.559213 -1.47345 0
M  V30 4320 C 404.749 1.34194 -1.57479 0
M  V30 4321 C 405.164 1.87463 -0.224261 0
M  V30 4322 O 404.521 1.64888 0.782185 0
M  V30 4323 C 404.572 2.51324 -2.59843 0
M  V30 4324 O 404.293 2.00256 -3.89653 0
M  V30 4325 C 405.794 3.43563 -2.80142 0
M  V30 4326 H 403.014 0.409136 -0.531835 0
M  V30 4327 H 405.558 0.677609 -1.92947 0
M  V30 4328 H 403.713 3.13699 -2.27314 0
M  V30 4329 H 404.127 2.76708 -4.4557 0
M  V30 4330 H 405.601 4.2217 -3.55635 0
M  V30 4331 H 406.078 3.9698 -1.87892 0
M  V30 4332 H 406.684 2.87005 -3.1386 0
M  V30 4333 N 404.999 1.35443 0.805782 0
M  V30 4334 C 406.224 1.32037 1.59941 0
M  V30 4335 C 406.649 -0.0994215 1.87837 0
M  V30 4336 O 406.007 -1.06648 1.46615 0
M  V30 4337 C 406.055 2.13354 2.90711 0
M  V30 4338 O 405.159 1.5148 3.83572 0
M  V30 4339 H 404.5 0.452666 0.485787 0
M  V30 4340 H 407.03 1.78496 1.00002 0
M  V30 4341 H 407.04 2.25338 3.40128 0
M  V30 4342 H 405.715 3.16572 2.69732 0
M  V30 4343 H 404.292 1.4834 3.42125 0
M  V30 4344 N 406.477 -1.02803 1.19454 0
M  V30 4345 C 407.723 -1.76478 0.999171 0
M  V30 4346 C 408.056 -1.88456 -0.468828 0
M  V30 4347 O 407.331 -1.40198 -1.34814 0
M  V30 4348 C 407.614 -3.19044 1.66981 0
M  V30 4349 C 407.467 -3.14932 3.21151 0
M  V30 4350 C 408.786 -4.17456 1.39349 0
M  V30 4351 H 405.905 -0.640614 0.364393 0
M  V30 4352 H 408.547 -1.20005 1.47305 0
M  V30 4353 H 406.697 -3.67263 1.2669 0
M  V30 4354 H 408.369 -2.74605 3.70661 0
M  V30 4355 H 406.612 -2.52625 3.52652 0
M  V30 4356 H 407.283 -4.1566 3.63223 0
M  V30 4357 H 409.759 -3.77842 1.74283 0
M  V30 4358 H 408.635 -5.154 1.88823 0
M  V30 4359 H 408.896 -4.40949 0.318813 0
M  V30 4360 N 407.956 -0.998596 -1.21925 0
M  V30 4361 C 409.181 -0.696015 -1.95372 0
M  V30 4362 C 409.606 0.733826 -1.73195 0
M  V30 4363 O 408.964 1.50242 -1.01474 0
M  V30 4364 C 409.012 -1.01466 -3.4603 0
M  V30 4365 O 408.116 -0.116415 -4.12236 0
M  V30 4366 H 407.457 -0.259938 -0.611006 0
M  V30 4367 H 409.987 -1.33711 -1.54863 0
M  V30 4368 H 409.997 -0.958855 -3.96573 0
M  V30 4369 H 408.672 -2.05653 -3.61497 0
M  V30 4370 H 407.249 -0.228193 -3.72201 0
M  V30 4371 N 409.434 1.37368 -0.772513 0
M  V30 4372 C 410.344 2.34053 -0.160081 0
M  V30 4373 C 411.36 1.60216 0.678728 0
M  V30 4374 O 412.536 1.92303 0.59847 0
M  V30 4375 C 409.601 3.3939 0.708182 0
M  V30 4376 C 408.662 4.29048 -0.147172 0
M  V30 4377 C 407.895 5.29354 0.679744 0
M  V30 4378 O 408.118 5.3723 1.91678 0
M  V30 4379 O 407.052 6.01835 0.0885444 0
M  V30 4380 H 410.878 2.88159 -0.959053 0
M  V30 4381 H 408.463 1.39543 -0.533685 0
M  V30 4382 H 410.345 4.03839 1.20384 0
M  V30 4383 H 409.02 2.8761 1.48533 0
M  V30 4384 H 407.927 3.67697 -0.689205 0
M  V30 4385 H 409.26 4.84134 -0.887423 0
M  V30 4386 N 410.912 0.523116 1.48665 0
M  V30 4387 C 411.845 -0.290518 2.26343 0
M  V30 4388 C 412.823 -0.950913 1.31895 0
M  V30 4389 O 414.007 -0.976662 1.61225 0
M  V30 4390 C 411.134 -1.41088 3.07915 0
M  V30 4391 C 410.18 -0.862597 4.17686 0
M  V30 4392 S 411.013 0.264135 5.34848 0
M  V30 4393 C 412.169 -0.858864 6.19979 0
M  V30 4394 H 412.402 0.368726 2.95005 0
M  V30 4395 H 409.935 0.30878 1.51281 0
M  V30 4396 H 411.893 -2.0527 3.55492 0
M  V30 4397 H 410.554 -2.04182 2.38681 0
M  V30 4398 H 409.747 -1.70287 4.74361 0
M  V30 4399 H 409.349 -0.297595 3.72814 0
M  V30 4400 H 411.641 -1.7591 6.54264 0
M  V30 4401 H 412.584 -0.330244 7.07329 0
M  V30 4402 H 412.992 -1.13617 5.52948 0
M  V30 4403 N 412.39 -1.55475 0.257931 0
M  V30 4404 C 413.32 -2.24815 -0.630912 0
M  V30 4405 C 414.301 -1.23224 -1.17259 0
M  V30 4406 O 415.486 -1.51904 -1.20991 0
M  V30 4407 C 412.616 -2.95609 -1.82298 0
M  V30 4408 C 411.57 -4.03982 -1.41359 0
M  V30 4409 C 410.896 -4.6226 -2.68738 0
M  V30 4410 C 412.196 -5.19109 -0.57648 0
M  V30 4411 H 413.89 -2.99354 -0.0526878 0
M  V30 4412 H 411.436 -1.4398 -0.023901 0
M  V30 4413 H 413.389 -3.42822 -2.45054 0
M  V30 4414 H 412.113 -2.18577 -2.42676 0
M  V30 4415 H 410.772 -3.57555 -0.809324 0
M  V30 4416 H 410.42 -3.81915 -3.27338 0
M  V30 4417 H 410.12 -5.35424 -2.42065 0
M  V30 4418 H 411.644 -5.12212 -3.32372 0
M  V30 4419 H 413.058 -5.62479 -1.10861 0
M  V30 4420 H 411.455 -5.98729 -0.405351 0
M  V30 4421 H 412.525 -4.83174 0.408776 0
M  V30 4422 N 413.868 0.0150385 -1.57593 0
M  V30 4423 C 414.778 1.02791 -2.10882 0
M  V30 4424 C 415.794 1.38702 -1.0506 0
M  V30 4425 O 416.97 1.47739 -1.36877 0
M  V30 4426 C 414.035 2.30568 -2.58919 0
M  V30 4427 C 413.096 2.01108 -3.79281 0
M  V30 4428 C 412.329 3.22794 -4.25018 0
M  V30 4429 O 412.552 4.33959 -3.70183 0
M  V30 4430 O 411.486 3.07672 -5.17322 0
M  V30 4431 H 415.312 0.604973 -2.97613 0
M  V30 4432 H 412.897 0.23292 -1.47573 0
M  V30 4433 H 414.779 3.05662 -2.90084 0
M  V30 4434 H 413.454 2.72129 -1.75293 0
M  V30 4435 H 412.361 1.23537 -3.53114 0
M  V30 4436 H 413.694 1.64394 -4.63935 0
M  V30 4437 N 415.346 1.54954 0.287554 0
M  V30 4438 C 416.574 1.78881 1.03967 0
M  V30 4439 C 416.989 0.554894 1.80462 0
M  V30 4440 O 416.346 -0.475676 1.76192 0
M  V30 4441 C 416.397 3.00488 2.0097 0
M  V30 4442 O 416.118 4.19113 1.27577 0
M  V30 4443 C 417.619 3.36907 2.88112 0
M  V30 4444 H 414.839 0.596259 0.307761 0
M  V30 4445 H 417.383 2.01937 0.322749 0
M  V30 4446 H 415.538 2.79601 2.68145 0
M  V30 4447 H 415.952 4.87765 1.92835 0
M  V30 4448 H 417.426 4.25205 3.52001 0
M  V30 4449 H 417.903 2.55659 3.57121 0
M  V30 4450 H 418.509 3.60001 2.26449 0
M  V30 4451 N 416.824 -0.551391 1.4764 0
M  V30 4452 C 417.754 -1.66757 1.63445 0
M  V30 4453 C 418.735 -1.63077 0.483742 0
M  V30 4454 O 419.92 -1.80607 0.71377 0
M  V30 4455 C 417.05 -3.05387 1.65396 0
M  V30 4456 C 416.004 -3.23918 2.79752 0
M  V30 4457 C 415.33 -4.63393 2.66779 0
M  V30 4458 C 416.63 -3.08735 4.21284 0
M  V30 4459 H 418.324 -1.53786 2.56886 0
M  V30 4460 H 415.87 -0.738415 1.23626 0
M  V30 4461 H 417.823 -3.83325 1.75043 0
M  V30 4462 H 416.547 -3.19332 0.685195 0
M  V30 4463 H 415.206 -2.48391 2.69625 0
M  V30 4464 H 414.854 -4.74144 1.67918 0
M  V30 4465 H 414.554 -4.7674 3.43501 0
M  V30 4466 H 416.078 -5.43458 2.78364 0
M  V30 4467 H 417.492 -3.76484 4.32357 0
M  V30 4468 H 415.889 -3.33588 4.98838 0
M  V30 4469 H 416.959 -2.0541 4.39243 0
M  V30 4470 N 418.302 -1.35869 -0.798587 0
M  V30 4471 C 419.527 -1.32883 -1.59238 0
M  V30 4472 C 419.952 0.0894587 -1.87887 0
M  V30 4473 O 419.31 1.05869 -1.47178 0
M  V30 4474 C 419.358 -2.14892 -2.89575 0
M  V30 4475 O 418.462 -1.53512 -3.82763 0
M  V30 4476 H 417.803 -0.455236 -0.48338 0
M  V30 4477 H 420.333 -1.79024 -0.990539 0
M  V30 4478 H 420.343 -2.27139 -3.38928 0
M  V30 4479 H 419.018 -3.17998 -2.68049 0
M  V30 4480 H 417.595 -1.50153 -3.41334 0
M  V30 4481 N 419.78 1.02168 -1.19998 0
M  V30 4482 C 421.057 1.72816 -0.916191 0
M  V30 4483 C 421.437 2.03081 0.576325 0
M  V30 4484 O 420.785 1.69122 1.53656 0
M  V30 4485 C 420.995 2.9997 -1.78378 0
M  V30 4486 C 422.343 3.73336 -2.02251 0
M  V30 4487 O 423.367 3.09914 -1.75589 0
M  V30 4488 O 422.226 4.87371 -2.47249 0
M  V30 4489 H 419.32 0.752924 -0.342103 0
M  V30 4490 H 421.866 1.08062 -1.30846 0
M  V30 4491 H 420.638 2.73888 -2.79466 0
M  V30 4492 H 420.261 3.72464 -1.39126 0
M  V30 4493 N 421.258 1.00505 1.21394 0
M  V30 4494 C 422.535 0.603277 1.86064 0
M  V30 4495 C 422.915 -0.919095 1.90042 0
M  V30 4496 O 422.263 -1.80607 1.39977 0
M  V30 4497 C 422.473 1.23772 3.26315 0
M  V30 4498 C 423.821 1.34586 4.02705 0
M  V30 4499 O 424.845 1.19304 3.35626 0
M  V30 4500 O 423.704 1.59169 5.22807 0
M  V30 4501 H 420.798 0.206634 0.800769 0
M  V30 4502 H 423.344 1.1017 1.29076 0
M  V30 4503 H 422.116 2.27848 3.18121 0
M  V30 4504 H 421.739 0.725648 3.90922 0
M  V30 4505 N 422.737 -1.36956 0.779787 0
M  V30 4506 C 424.014 -1.93697 0.272156 0
M  V30 4507 C 424.394 -1.71267 -1.23413 0
M  V30 4508 O 423.742 -1.06607 -2.02107 0
M  V30 4509 C 423.952 -3.42812 0.654291 0
M  V30 4510 C 425.3 -4.19921 0.628602 0
M  V30 4511 O 426.324 -3.51209 0.594172 0
M  V30 4512 O 425.183 -5.42465 0.662864 0
M  V30 4513 H 422.277 -0.824447 0.0649286 0
M  V30 4514 H 424.823 -1.46196 0.861682 0
M  V30 4515 H 423.595 -3.52754 1.69353 0
M  V30 4516 H 423.218 -3.97582 0.0381369 0
M  V30 4517 N 424.215 -0.530993 -1.48385 0
M  V30 4518 C 425.462 0.0027373 -2.025 0
M  V30 4519 C 425.79 1.34186 -1.40799 0
M  V30 4520 O 425.045 1.88 -0.543544 0
M  V30 4521 C 425.344 0.172742 -3.56982 0
M  V30 4522 C 425.01 -1.09215 -4.37473 0
M  V30 4523 C 423.672 -1.43881 -4.59186 0
M  V30 4524 C 426.024 -1.93153 -4.84088 0
M  V30 4525 C 423.352 -2.62381 -5.2476 0
M  V30 4526 C 425.704 -3.10833 -5.50968 0
M  V30 4527 C 424.368 -3.45843 -5.70919 0
M  V30 4528 H 423.638 0.00100165 -0.740999 0
M  V30 4529 H 426.285 -0.697219 -1.78357 0
M  V30 4530 H 424.59 0.955473 -3.79971 0
M  V30 4531 H 426.287 0.600642 -3.96476 0
M  V30 4532 H 422.877 -0.812177 -4.20834 0
M  V30 4533 H 427.061 -1.67683 -4.67115 0
M  V30 4534 H 422.317 -2.89707 -5.38405 0
M  V30 4535 H 426.491 -3.7618 -5.86056 0
M  V30 4536 H 424.118 -4.37764 -6.21503 0
M  V30 4537 N 425.693 1.55336 -0.266172 0
M  V30 4538 C 426.939 1.99692 0.353681 0
M  V30 4539 C 427.272 1.1543 1.56172 0
M  V30 4540 O 426.547 0.222218 1.93226 0
M  V30 4541 C 426.83 3.52316 0.74466 0
M  V30 4542 C 426.683 4.47337 -0.470101 0
M  V30 4543 C 428.002 4.10588 1.58447 0
M  V30 4544 H 425.121 0.725961 0.12708 0
M  V30 4545 H 427.763 1.86336 -0.371333 0
M  V30 4546 H 425.913 3.63829 1.36239 0
M  V30 4547 H 427.585 4.4778 -1.10864 0
M  V30 4548 H 425.828 4.19364 -1.10978 0
M  V30 4549 H 426.499 5.51788 -0.15291 0
M  V30 4550 H 428.975 4.02297 1.06286 0
M  V30 4551 H 427.851 5.17607 1.82686 0
M  V30 4552 H 428.112 3.60253 2.56262 0
M  V30 4553 N 427.171 -0.0066808 1.57599 0
M  V30 4554 C 428.119 -1.01851 2.09115 0
M  V30 4555 C 429.113 -1.36021 1.00969 0
M  V30 4556 O 430.319 -1.34663 1.19439 0
M  V30 4557 H 426.694 -0.346083 0.667631 0
M  V30 4558 H 428.665 -0.558394 2.93129 0
M  V30 4559 C 427.414 -2.30374 2.60429 0
M  V30 4560 H 426.737 -2.04947 3.43273 0
M  V30 4561 H 428.177 -2.99466 3.00161 0
M  V30 4562 C 426.636 -3.00893 1.51542 0
M  V30 4563 O 427.166 -3.91614 0.894484 0
M  V30 4564 N 425.372 -2.62603 1.2445 0
M  V30 4565 H 424.919 -1.88911 1.75129 0
M  V30 4566 H 424.877 -3.10101 0.518137 0
M  V30 4567 N 428.649 -1.55105 -0.279332 0
M  V30 4568 C 429.895 -1.75672 -1.01327 0
M  V30 4569 C 430.228 -0.552739 -1.86168 0
M  V30 4570 O 429.503 0.449827 -1.89227 0
M  V30 4571 C 429.786 -3.05825 -1.90114 0
M  V30 4572 C 429.639 -4.36565 -1.08309 0
M  V30 4573 C 430.958 -3.31975 -2.8893 0
M  V30 4574 H 428.077 -0.639149 -0.366957 0
M  V30 4575 H 430.719 -1.87833 -0.286154 0
M  V30 4576 H 428.869 -2.95588 -2.52111 0
M  V30 4577 H 430.541 -4.58751 -0.484314 0
M  V30 4578 H 428.784 -4.32076 -0.386362 0
M  V30 4579 H 429.455 -5.23946 -1.73737 0
M  V30 4580 H 431.931 -3.41963 -2.37067 0
M  V30 4581 H 430.807 -4.2432 -3.48201 0
M  V30 4582 H 431.068 -2.51309 -3.63725 0
M  V30 4583 N 430.127 0.543554 -1.4793 0
M  V30 4584 C 431.09 1.63156 -1.60975 0
M  V30 4585 C 432.09 1.53346 -0.483899 0
M  V30 4586 O 433.28 1.5726 -0.749339 0
M  V30 4587 C 430.412 3.02743 -1.56716 0
M  V30 4588 H 431.605 1.52934 -2.57975 0
M  V30 4589 H 429.158 0.764557 -1.36324 0
M  V30 4590 H 429.893 3.18484 -0.611418 0
M  V30 4591 H 429.678 3.11272 -2.38438 0
M  V30 4592 H 431.168 3.81871 -1.6901 0
M  V30 4593 N 431.605 1.3629 0.791371 0
M  V30 4594 C 432.83 1.33726 1.58531 0
M  V30 4595 C 433.255 -0.0794933 1.87932 0
M  V30 4596 O 432.613 -1.05087 1.47738 0
M  V30 4597 C 432.661 2.16425 2.88431 0
M  V30 4598 O 431.765 1.5554 3.81944 0
M  V30 4599 H 431.106 0.457793 0.480959 0
M  V30 4600 H 433.636 1.79547 0.981031 0
M  V30 4601 H 433.646 2.28933 3.37718 0
M  V30 4602 H 432.321 3.19415 2.66359 0
M  V30 4603 H 430.898 1.51961 3.40532 0
M  V30 4604 N 433.083 -1.0153 1.20538 0
M  V30 4605 C 434.33 -1.75149 1.01633 0
M  V30 4606 C 434.658 -1.89189 -0.451399 0
M  V30 4607 O 433.913 -1.41551 -1.35136 0
M  V30 4608 C 434.212 -3.17213 1.64654 0
M  V30 4609 C 433.878 -3.23146 3.14464 0
M  V30 4610 C 432.54 -3.24472 3.55347 0
M  V30 4611 C 434.892 -3.21207 4.10458 0
M  V30 4612 C 432.22 -3.21532 4.90748 0
M  V30 4613 C 434.572 -3.19808 5.45807 0
M  V30 4614 C 433.236 -3.19439 5.86102 0
M  V30 4615 H 432.506 -0.640914 0.3719 0
M  V30 4616 H 435.153 -1.19071 1.49981 0
M  V30 4617 H 433.458 -3.76457 1.08571 0
M  V30 4618 H 435.155 -3.72871 1.4754 0
M  V30 4619 H 431.745 -3.2285 2.81897 0
M  V30 4620 H 435.929 -3.19351 3.79906 0
M  V30 4621 H 431.185 -3.19578 5.21229 0
M  V30 4622 H 435.359 -3.1726 6.19935 0
M  V30 4623 H 432.986 -3.16915 6.90991 0
M  V30 4624 N 434.561 -1.01147 -1.20859 0
M  V30 4625 C 435.509 -0.57059 -2.25493 0
M  V30 4626 C 436.503 0.388109 -1.64894 0
M  V30 4627 O 437.709 0.258592 -1.78133 0
M  V30 4628 H 434.084 -0.166191 -0.733406 0
M  V30 4629 H 436.055 -1.46411 -2.60012 0
M  V30 4630 C 434.804 0.0805241 -3.47607 0
M  V30 4631 H 434.127 -0.648156 -3.94511 0
M  V30 4632 H 435.567 0.352197 -4.22535 0
M  V30 4633 C 434.026 1.32175 -3.09889 0
M  V30 4634 O 434.556 2.41553 -3.20959 0
M  V30 4635 N 432.762 1.20392 -2.64488 0
M  V30 4636 H 432.309 0.313905 -2.5568 0
M  V30 4637 H 432.267 2.03541 -2.39621 0
M  V30 4638 N 436.039 1.36541 -0.78704 0
M  V30 4639 C 437.264 2.0409 -0.369053 0
M  V30 4640 C 437.689 1.58957 1.00569 0
M  V30 4641 O 437.047 0.756926 1.64743 0
M  V30 4642 C 437.095 3.57924 -0.438466 0
M  V30 4643 O 436.199 4.08642 0.555479 0
M  V30 4644 H 435.54 0.645142 -0.157122 0
M  V30 4645 H 438.07 1.74545 -1.06749 0
M  V30 4646 H 438.08 4.06887 -0.301218 0
M  V30 4647 H 436.755 3.90127 -1.44132 0
M  V30 4648 H 435.332 3.70958 0.380088 0
M  V30 4649 N 437.518 0.538854 1.48102 0
M  V30 4650 C 438.466 -0.232325 2.31437 0
M  V30 4651 C 439.46 -0.927004 1.41785 0
M  V30 4652 O 440.666 -0.850378 1.58646 0
M  V30 4653 H 437.041 -0.0937916 0.746128 0
M  V30 4654 H 439.012 0.489986 2.9435 0
M  V30 4655 C 437.761 -1.26074 3.24038 0
M  V30 4656 H 437.084 -0.735609 3.92974 0
M  V30 4657 H 438.524 -1.77157 3.85216 0
M  V30 4658 C 436.983 -2.29902 2.46265 0
M  V30 4659 O 437.513 -3.36502 2.19384 0
M  V30 4660 N 435.719 -2.03348 2.07601 0
M  V30 4661 H 435.266 -1.16675 2.29662 0
M  V30 4662 H 435.224 -2.73038 1.55877 0
M  V30 4663 N 438.996 -1.55193 0.274407 0
M  V30 4664 C 439.959 -2.212 -0.600279 0
M  V30 4665 C 440.959 -1.18963 -1.08187 0
M  V30 4666 O 442.149 -1.43873 -0.982158 0
M  V30 4667 C 439.281 -2.87739 -1.82809 0
M  V30 4668 H 440.474 -2.9989 -0.0239682 0
M  V30 4669 H 438.027 -1.5628 0.0250192 0
M  V30 4670 H 438.762 -2.13058 -2.44493 0
M  V30 4671 H 438.547 -3.62658 -1.49069 0
M  V30 4672 H 440.037 -3.38171 -2.45011 0
M  V30 4673 N 440.474 -0.00167713 -1.576 0
M  V30 4674 C 441.406 1.0174 -2.05382 0
M  V30 4675 C 442.419 1.30595 -0.972052 0
M  V30 4676 O 443.608 1.27542 -1.24882 0
M  V30 4677 C 440.708 2.35174 -2.44022 0
M  V30 4678 C 439.881 2.25234 -3.74951 0
M  V30 4679 C 438.94 3.4137 -4.00441 0
M  V30 4680 O 437.966 3.19483 -4.71083 0
M  V30 4681 N 439.168 4.64275 -3.48467 0
M  V30 4682 H 441.933 0.609902 -2.93428 0
M  V30 4683 H 439.494 0.185672 -1.60832 0
M  V30 4684 H 441.486 3.11643 -2.58187 0
M  V30 4685 H 440.056 2.67659 -1.61485 0
M  V30 4686 H 439.276 1.33664 -3.70847 0
M  V30 4687 H 440.564 2.15767 -4.60784 0
M  V30 4688 H 439.962 4.84955 -2.91264 0
M  V30 4689 H 438.519 5.38005 -3.67959 0
M  V30 4690 N 441.952 1.55251 0.271103 0
M  V30 4691 C 443.229 1.66664 1.02384 0
M  V30 4692 C 443.609 0.534363 2.04225 0
M  V30 4693 O 442.957 -0.465337 2.23712 0
M  V30 4694 C 443.167 3.05961 1.67895 0
M  V30 4695 C 444.515 3.63772 2.18986 0
M  V30 4696 O 445.539 3.08606 1.77878 0
M  V30 4697 O 444.398 4.60429 2.94393 0
M  V30 4698 H 441.492 0.676957 0.475035 0
M  V30 4699 H 444.038 1.67589 0.26681 0
M  V30 4700 H 442.81 3.79815 0.941071 0
M  V30 4701 H 442.433 3.08943 2.5028 0
M  V30 4702 N 443.43 -0.535701 1.48216 0
M  V30 4703 C 444.676 -1.29375 1.56173 0
M  V30 4704 C 445.009 -1.92804 0.232429 0
M  V30 4705 O 444.284 -1.78992 -0.761048 0
M  V30 4706 C 444.567 -2.38747 2.69577 0
M  V30 4707 C 444.42 -1.80046 4.12193 0
M  V30 4708 C 445.739 -3.40551 2.78771 0
M  V30 4709 H 442.858 -0.469027 0.568491 0
M  V30 4710 H 445.5 -0.597358 1.80365 0
M  V30 4711 H 443.65 -2.98147 2.4908 0
M  V30 4712 H 445.322 -1.24742 4.44114 0
M  V30 4713 H 443.565 -1.10609 4.19462 0
M  V30 4714 H 444.236 -2.59212 4.87353 0
M  V30 4715 H 446.712 -2.91099 2.97322 0
M  V30 4716 H 445.588 -4.1448 3.59857 0
M  V30 4717 H 445.849 -4.00746 1.86696 0
M  V30 4718 N 444.908 -1.36708 -0.784132 0
M  V30 4719 C 446.133 -1.34565 -1.5782 0
M  V30 4720 C 446.558 0.0695257 -1.87971 0
M  V30 4721 O 445.916 1.04302 -1.48293 0
M  V30 4722 C 445.964 -2.17952 -2.87279 0
M  V30 4723 O 445.068 -1.57563 -3.81114 0
M  V30 4724 H 444.409 -0.460337 -0.478524 0
M  V30 4725 H 446.939 -1.80064 -0.971495 0
M  V30 4726 H 446.949 -2.30721 -3.365 0
M  V30 4727 H 445.624 -3.20823 -2.64661 0
M  V30 4728 H 444.201 -1.53764 -3.39722 0
M  V30 4729 N 446.386 1.0089 -1.21074 0
M  V30 4730 C 447.626 1.76142 -1.03699 0
M  V30 4731 C 447.99 1.87292 0.422587 0
M  V30 4732 O 449.191 2.59068 0.716752 0
M  V30 4733 C 447.462 3.13805 -1.7106 0
M  V30 4734 S 449.021 4.04996 -1.68889 0
M  V30 4735 H 445.839 0.606113 -0.371683 0
M  V30 4736 H 448.441 1.20744 -1.53756 0
M  V30 4737 H 447.145 3.0332 -2.76451 0
M  V30 4738 H 446.676 3.74276 -1.21166 0
M  V30 4739 H 448.691 4.90842 -0.727211 0
M  V30 4740 N 447.864 1.01787 1.20321 0
M  V30 4741 C 449.111 0.707936 1.89722 0
M  V30 4742 C 449.439 -0.762535 1.78929 0
M  V30 4743 O 448.694 -1.56977 1.16861 0
M  V30 4744 C 448.993 1.09076 3.40349 0
M  V30 4745 C 448.659 2.55765 3.71342 0
M  V30 4746 C 447.321 2.95845 3.79511 0
M  V30 4747 C 449.673 3.50723 3.85542 0
M  V30 4748 C 447.001 4.2982 3.99339 0
M  V30 4749 C 449.353 4.84387 4.06881 0
M  V30 4750 C 448.017 5.24172 4.1328 0
M  V30 4751 H 447.287 0.259052 0.694243 0
M  V30 4752 H 449.934 1.27868 1.42555 0
M  V30 4753 H 448.239 0.438453 3.89339 0
M  V30 4754 H 449.936 0.828636 3.92345 0
M  V30 4755 H 446.526 2.2371 3.65584 0
M  V30 4756 H 450.71 3.20916 3.78585 0
M  V30 4757 H 445.966 4.60196 4.02529 0
M  V30 4758 H 450.14 5.57891 4.1681 0
M  V30 4759 H 447.767 6.27997 4.28396 0
M  V30 4760 N 449.342 -1.36122 0.79427 0
M  V30 4761 C 450.274 -2.28683 0.153903 0
M  V30 4762 C 451.287 -1.49707 -0.639669 0
M  V30 4763 O 452.476 -1.7209 -0.474054 0
M  V30 4764 C 449.576 -3.29202 -0.804921 0
M  V30 4765 C 448.749 -4.37358 -0.060366 0
M  V30 4766 C 447.808 -5.17811 -0.935849 0
M  V30 4767 O 446.834 -5.67853 -0.391309 0
M  V30 4768 N 448.036 -5.34721 -2.25951 0
M  V30 4769 H 450.801 -2.84278 0.949008 0
M  V30 4770 H 448.362 -1.4834 0.648611 0
M  V30 4771 H 450.354 -3.79914 -1.39455 0
M  V30 4772 H 448.924 -2.74212 -1.50088 0
M  V30 4773 H 448.144 -3.87746 0.710382 0
M  V30 4774 H 449.432 -5.06777 0.45324 0
M  V30 4775 H 448.83 -4.95687 -2.72601 0
M  V30 4776 H 447.387 -5.88657 -2.79867 0
M  V30 4777 N 450.82 -0.546701 -1.47814 0
M  V30 4778 C 451.77 0.227042 -2.26867 0
M  V30 4779 C 452.754 0.894844 -1.33721 0
M  V30 4780 O 453.946 0.794887 -1.58147 0
M  V30 4781 C 451.075 1.26299 -3.19223 0
M  V30 4782 C 450.161 0.59913 -4.19847 0
M  V30 4783 N 450.552 -0.324777 -5.04756 0
M  V30 4784 C 448.85 0.854331 -4.37741 0
M  V30 4785 C 449.551 -0.709386 -5.77358 0
M  V30 4786 N 448.527 -0.0666153 -5.43559 0
M  V30 4787 H 452.329 -0.483476 -2.89896 0
M  V30 4788 H 449.843 -0.365893 -1.58224 0
M  V30 4789 H 451.84 1.83116 -3.74532 0
M  V30 4790 H 450.5 1.97471 -2.57751 0
M  V30 4791 H 451.511 -0.698351 -5.1317 0
M  V30 4792 H 448.188 1.55536 -3.87447 0
M  V30 4793 H 449.578 -1.46796 -6.55668 0
M  V30 4794 N 452.299 1.55045 -0.282633 0
M  V30 4795 C 453.229 2.2579 0.595066 0
M  V30 4796 C 454.21 1.25074 1.15284 0
M  V30 4797 O 455.395 1.5381 1.18559 0
M  V30 4798 C 452.525 2.98472 1.77572 0
M  V30 4799 C 451.479 4.0618 1.34914 0
M  V30 4800 C 450.805 4.66477 2.6135 0
M  V30 4801 C 452.105 5.1996 0.493821 0
M  V30 4802 H 453.799 2.994 0.00505653 0
M  V30 4803 H 451.345 1.44 0.000992001 0
M  V30 4804 H 453.298 3.46677 2.39568 0
M  V30 4805 H 452.022 2.2241 2.39168 0
M  V30 4806 H 450.681 3.58797 0.752338 0
M  V30 4807 H 450.329 3.87074 3.2122 0
M  V30 4808 H 450.029 5.39207 2.33516 0
M  V30 4809 H 451.553 5.17435 3.24181 0
M  V30 4810 H 452.967 5.64172 1.01898 0
M  V30 4811 H 451.364 5.99299 0.310047 0
M  V30 4812 H 452.434 4.82462 -0.485593 0
M  V30 4813 N 453.777 0.010035 1.57597 0
M  V30 4814 C 455.023 -0.673697 1.91283 0
M  V30 4815 C 455.356 -1.72863 0.884979 0
M  V30 4816 O 454.631 -1.94268 -0.0949487 0
M  V30 4817 C 454.914 -1.30766 3.35518 0
M  V30 4818 C 454.767 -0.263578 4.49027 0
M  V30 4819 C 456.086 -2.23105 3.79358 0
M  V30 4820 H 453.205 -0.243439 0.695634 0
M  V30 4821 H 455.847 0.0633864 1.89894 0
M  V30 4822 H 453.997 -1.93588 3.36832 0
M  V30 4823 H 455.669 0.365738 4.59848 0
M  V30 4824 H 453.912 0.413077 4.31829 0
M  V30 4825 H 454.583 -0.746398 5.4693 0
M  V30 4826 H 457.059 -1.70289 3.79659 0
M  V30 4827 H 455.935 -2.64424 4.81011 0
M  V30 4828 H 456.196 -3.11433 3.13787 0
M  V30 4829 N 455.255 -1.55392 -0.262866 0
M  V30 4830 C 456.187 -1.85392 -1.34768 0
M  V30 4831 C 457.2 -0.739069 -1.45057 0
M  V30 4832 O 458.389 -1.01703 -1.46693 0
M  V30 4833 C 455.489 -2.01088 -2.72795 0
M  V30 4834 C 454.662 -3.31828 -2.84972 0
M  V30 4835 C 453.721 -3.37464 -4.03738 0
M  V30 4836 O 452.747 -4.10778 -3.94018 0
M  V30 4837 N 453.949 -2.65599 -5.16176 0
M  V30 4838 H 456.714 -2.79029 -1.09375 0
M  V30 4839 H 454.275 -1.55434 -0.452981 0
M  V30 4840 H 456.267 -2.02217 -3.50557 0
M  V30 4841 H 454.837 -1.1427 -2.90966 0
M  V30 4842 H 454.057 -3.43152 -1.94012 0
M  V30 4843 H 455.345 -4.18032 -2.90045 0
M  V30 4844 H 454.743 -2.05736 -5.26962 0
M  V30 4845 H 453.3 -2.72439 -5.92132 0
M  V30 4846 N 456.733 0.527833 -1.48498 0
M  V30 4847 C 457.696 1.61439 -1.62696 0
M  V30 4848 C 458.696 1.52824 -0.500136 0
M  V30 4849 O 459.886 1.56456 -0.765976 0
M  V30 4850 C 457.018 3.01063 -1.59918 0
M  V30 4851 H 458.211 1.50189 -2.59583 0
M  V30 4852 H 455.764 0.750055 -1.37127 0
M  V30 4853 H 456.499 3.17818 -0.645163 0
M  V30 4854 H 456.284 3.08725 -2.41726 0
M  V30 4855 H 457.774 3.80057 -1.73051 0
M  V30 4856 N 458.211 1.37122 0.776871 0
M  V30 4857 C 459.159 1.32549 1.91138 0
M  V30 4858 C 460.153 0.215119 1.68029 0
M  V30 4859 O 461.359 0.382852 1.75881 0
M  V30 4860 H 457.734 0.412952 0.62847 0
M  V30 4861 H 459.705 2.28332 1.92112 0
M  V30 4862 C 458.454 1.14422 3.28333 0
M  V30 4863 H 457.777 1.99115 3.46689 0
M  V30 4864 H 459.217 1.15272 4.0803 0
M  V30 4865 C 457.676 -0.150434 3.36564 0
M  V30 4866 O 458.206 -1.13584 3.85307 0
M  V30 4867 N 456.412 -0.19939 2.89915 0
M  V30 4868 H 455.959 0.603142 2.5044 0
M  V30 4869 H 455.917 -1.06526 2.95803 0
M  V30 4870 N 459.689 -1.00246 1.21608 0
M  V30 4871 C 460.935 -1.74319 1.03638 0
M  V30 4872 C 461.268 -1.89408 -0.428749 0
M  V30 4873 O 460.543 -1.43026 -1.3181 0
M  V30 4874 C 460.826 -3.15431 1.73711 0
M  V30 4875 C 460.679 -3.08049 3.27759 0
M  V30 4876 C 461.998 -4.14407 1.48173 0
M  V30 4877 H 459.117 -0.632741 0.377899 0
M  V30 4878 H 461.759 -1.16853 1.49818 0
M  V30 4879 H 459.909 -3.64493 1.34452 0
M  V30 4880 H 461.581 -2.66681 3.76403 0
M  V30 4881 H 459.824 -2.45088 3.57931 0
M  V30 4882 H 460.495 -4.07862 3.71958 0
M  V30 4883 H 462.971 -3.74061 1.82258 0
M  V30 4884 H 461.847 -5.11279 1.99713 0
M  V30 4885 H 462.108 -4.40174 0.412273 0
M  V30 4886 N 461.167 -1.02423 -1.1978 0
M  V30 4887 C 462.583 -0.740459 -1.41384 0
M  V30 4888 C 462.783 0.676827 -1.89793 0
M  V30 4889 O 461.839 1.4435 -2.0717 0
M  V30 4890 C 463.152 -1.77264 -2.42895 0
M  V30 4891 C 464.7 -1.79165 -2.56649 0
M  V30 4892 C 465.175 -2.8133 -3.6141 0
M  V30 4893 N 466.666 -2.80118 -3.68901 0
M  V30 4894 C 467.401 -3.55824 -4.49641 0
M  V30 4895 N 466.897 -4.41231 -5.34123 0
M  V30 4896 N 468.69 -3.44387 -4.44246 0
M  V30 4897 H 460.841 -1.9391 -0.866764 0
M  V30 4898 H 463.104 -0.838074 -0.443098 0
M  V30 4899 H 462.81 -2.7884 -2.14339 0
M  V30 4900 H 462.684 -1.59108 -3.42001 0
M  V30 4901 H 465.071 -0.782702 -2.84531 0
M  V30 4902 H 465.152 -2.01396 -1.57713 0
M  V30 4903 H 464.796 -3.82394 -3.34271 0
M  V30 4904 H 464.726 -2.56359 -4.59986 0
M  V30 4905 H 467.217 -2.1817 -3.08562 0
M  V30 4906 H 467.53 -4.95747 -5.92836 0
M  V30 4907 H 465.875 -4.45306 -5.33599 0
M  V30 4908 H 469.066 -2.7708 -3.77285 0
M  V30 4909 H 469.239 -4.0364 -5.06931 0
M  V30 4910 N 462.645 1.35699 -0.801477 0
M  V30 4911 C 463.593 2.3177 -0.196317 0
M  V30 4912 C 464.587 1.56388 0.651081 0
M  V30 4913 O 465.793 1.71557 0.544815 0
M  V30 4914 H 462.168 0.750669 -0.0447189 0
M  V30 4915 H 464.139 2.8036 -1.02181 0
M  V30 4916 C 462.888 3.41671 0.644702 0
M  V30 4917 H 462.211 3.998 0.0019921 0
M  V30 4918 H 463.651 4.11184 1.0346 0
M  V30 4919 C 462.11 2.84271 1.80808 0
M  V30 4920 O 462.64 2.77408 2.9053 0
M  V30 4921 N 460.846 2.41391 1.61799 0
M  V30 4922 H 460.393 2.47173 0.725493 0
M  V30 4923 H 460.351 2.03334 2.39797 0
M  V30 4924 N 464.123 0.554532 1.47522 0
M  V30 4925 C 465.07 -0.19466 2.29978 0
M  V30 4926 C 466.04 -0.910882 1.38896 0
M  V30 4927 O 467.225 -0.907102 1.67858 0
M  V30 4928 C 464.365 -1.22035 3.22802 0
M  V30 4929 C 463.478 -0.510474 4.28973 0
M  V30 4930 C 462.613 -1.52123 5.08952 0
M  V30 4931 C 461.652 -0.796173 6.069 0
M  V30 4932 N 460.789 -1.75363 6.79847 0
M  V30 4933 H 465.629 0.51461 2.93523 0
M  V30 4934 H 463.166 0.265607 1.44682 0
M  V30 4935 H 465.124 -1.8276 3.7504 0
M  V30 4936 H 463.754 -1.89769 2.61127 0
M  V30 4937 H 462.806 0.211234 3.79813 0
M  V30 4938 H 464.118 0.0576503 4.98767 0
M  V30 4939 H 463.272 -2.20207 5.65326 0
M  V30 4940 H 462.011 -2.12327 4.39054 0
M  V30 4941 H 461.016 -0.101388 5.49707 0
M  V30 4942 H 462.241 -0.199911 6.78806 0
M  V30 4943 H 460.187 -2.3443 6.12682 0
M  V30 4944 H 460.104 -1.23759 7.45801 0
M  V30 4945 H 461.372 -2.4257 7.40797 0
M  V30 4946 N 465.601 -1.54893 0.290851 0
M  V30 4947 C 466.548 -2.23138 -0.58974 0
M  V30 4948 C 467.518 -1.21036 -1.13752 0
M  V30 4949 O 468.703 -1.49626 -1.18392 0
M  V30 4950 C 465.843 -2.96811 -1.76061 0
M  V30 4951 C 464.956 -4.13665 -1.24519 0
M  V30 4952 C 464.091 -4.74944 -2.3791 0
M  V30 4953 C 463.13 -5.83963 -1.83451 0
M  V30 4954 N 462.267 -6.39239 -2.90376 0
M  V30 4955 H 467.107 -2.98 -0.00114915 0
M  V30 4956 H 464.644 -1.47096 0.0112006 0
M  V30 4957 H 466.602 -3.37751 -2.44909 0
M  V30 4958 H 465.232 -2.24344 -2.32098 0
M  V30 4959 H 464.284 -3.77737 -0.449288 0
M  V30 4960 H 465.596 -4.92238 -0.806424 0
M  V30 4961 H 464.75 -5.18684 -3.14724 0
M  V30 4962 H 463.489 -3.95682 -2.85109 0
M  V30 4963 H 462.494 -5.39657 -1.05122 0
M  V30 4964 H 463.719 -6.65103 -1.37169 0
M  V30 4965 H 461.665 -5.62864 -3.36927 0
M  V30 4966 H 461.582 -7.13129 -2.50965 0
M  V30 4967 H 462.85 -6.87637 -3.67118 0
M  V30 4968 N 467.08 -0.0183926 -1.57589 0
M  V30 4969 C 468.326 0.663543 -1.91638 0
M  V30 4970 C 468.659 1.72392 -0.894134 0
M  V30 4971 O 467.934 1.94316 0.0846449 0
M  V30 4972 C 468.217 1.28984 -3.36207 0
M  V30 4973 C 468.07 0.239761 -4.49161 0
M  V30 4974 C 469.389 2.2109 -3.80536 0
M  V30 4975 H 466.508 0.239746 -0.696915 0
M  V30 4976 H 469.15 -0.073456 -1.89858 0
M  V30 4977 H 467.3 1.91799 -3.37854 0
M  V30 4978 H 468.972 -0.390119 -4.59647 0
M  V30 4979 H 467.215 -0.435972 -4.31604 0
M  V30 4980 H 467.886 0.717383 -5.47319 0
M  V30 4981 H 470.362 1.68273 -3.80557 0
M  V30 4982 H 469.238 2.61869 -4.82406 0
M  V30 4983 H 469.499 3.09764 -3.15434 0
M  V30 4984 N 468.558 1.5553 0.254621 0
M  V30 4985 C 469.488 1.9268 1.31897 0
M  V30 4986 C 470.469 0.790797 1.506 0
M  V30 4987 O 471.654 1.05045 1.63337 0
M  V30 4988 C 468.784 2.21477 2.67517 0
M  V30 4989 C 467.738 3.37256 2.63519 0
M  V30 4990 C 467.064 3.51576 4.02862 0
M  V30 4991 C 468.364 4.73157 2.21179 0
M  V30 4992 H 470.058 2.81832 1.01051 0
M  V30 4993 H 467.604 1.35599 0.484662 0
M  V30 4994 H 469.557 2.46055 3.42104 0
M  V30 4995 H 468.281 1.29144 2.99982 0
M  V30 4996 H 466.94 3.12675 1.9139 0
M  V30 4997 H 466.588 2.56676 4.32581 0
M  V30 4998 H 466.288 4.2943 4.01078 0
M  V30 4999 H 467.812 3.78467 4.79161 0
M  V30 5000 H 469.226 4.97158 2.85494 0
M  V30 5001 H 467.623 5.54058 2.30521 0
M  V30 5002 H 468.693 4.70739 1.16332 0
M  V30 5003 N 470.036 -0.519951 1.48776 0
M  V30 5004 C 470.983 -1.62352 1.64044 0
M  V30 5005 C 471.953 -1.58945 0.482251 0
M  V30 5006 O 473.138 -1.77219 0.706971 0
M  V30 5007 C 470.278 -3.00579 1.69547 0
M  V30 5008 C 469.391 -3.14145 2.96541 0
M  V30 5009 C 468.526 -4.42991 2.93142 0
M  V30 5010 C 467.565 -4.50122 4.14797 0
M  V30 5011 N 466.702 -5.7037 4.09418 0
M  V30 5012 H 471.542 -1.48643 2.58281 0
M  V30 5013 H 469.079 -0.723516 1.28077 0
M  V30 5014 H 471.037 -3.80671 1.70719 0
M  V30 5015 H 469.667 -3.13036 0.787918 0
M  V30 5016 H 468.719 -2.27239 3.05068 0
M  V30 5017 H 470.031 -3.15275 3.86527 0
M  V30 5018 H 469.185 -5.31385 2.92772 0
M  V30 5019 H 467.924 -4.44398 2.00902 0
M  V30 5020 H 466.929 -3.60133 4.15433 0
M  V30 5021 H 468.154 -4.50445 5.08208 0
M  V30 5022 H 466.1 -5.72655 3.20004 0
M  V30 5023 H 466.017 -5.73036 4.93119 0
M  V30 5024 H 467.285 -6.61023 4.13121 0
M  V30 5025 N 471.514 -1.37532 -0.769588 0
M  V30 5026 C 472.791 -1.23392 -1.51768 0
M  V30 5027 C 473.171 0.17157 -2.10402 0
M  V30 5028 O 472.519 1.17943 -1.95708 0
M  V30 5029 C 472.729 -2.33163 -2.59685 0
M  V30 5030 C 474.077 -2.70809 -3.27028 0
M  V30 5031 O 475.101 -2.32355 -2.69981 0
M  V30 5032 O 473.96 -3.37066 -4.30173 0
M  V30 5033 H 471.054 -0.481617 -0.67229 0
M  V30 5034 H 473.6 -1.49318 -0.806368 0
M  V30 5035 H 472.372 -3.27273 -2.14494 0
M  V30 5036 H 471.995 -2.08713 -3.38415 0
M  V30 5037 N 472.992 0.995999 -1.22138 0
M  V30 5038 C 473.955 2.06711 -0.990109 0
M  V30 5039 C 474.955 1.60744 0.0422978 0
M  V30 5040 O 476.145 1.73095 -0.195895 0
M  V30 5041 C 473.277 3.37288 -0.49491 0
M  V30 5042 H 474.47 2.28661 -1.94047 0
M  V30 5043 H 472.023 1.16711 -1.03963 0
M  V30 5044 H 472.758 3.21022 0.459948 0
M  V30 5045 H 472.543 3.71986 -1.23971 0
M  V30 5046 H 474.033 4.16103 -0.353253 0
M  V30 5047 N 474.47 1.03057 1.19235 0
M  V30 5048 C 475.716 0.729098 1.89241 0
M  V30 5049 C 476.049 -0.740573 1.79525 0
M  V30 5050 O 475.324 -1.53946 1.18874 0
M  V30 5051 C 475.607 1.18304 3.40112 0
M  V30 5052 C 475.46 2.71406 3.5869 0
M  V30 5053 C 476.779 0.765161 4.33397 0
M  V30 5054 H 473.898 0.266338 0.687192 0
M  V30 5055 H 476.54 1.28079 1.40341 0
M  V30 5056 H 474.69 0.713672 3.81889 0
M  V30 5057 H 476.362 3.26303 3.26074 0
M  V30 5058 H 474.605 3.11717 3.01687 0
M  V30 5059 H 475.276 2.98225 4.64506 0
M  V30 5060 H 477.752 1.16889 3.99345 0
M  V30 5061 H 476.628 1.11065 5.37546 0
M  V30 5062 H 476.889 -0.332372 4.40849 0
M  V30 5063 N 475.948 -1.35272 0.808662 0
M  V30 5064 C 476.896 -2.31663 0.208606 0
M  V30 5065 C 477.89 -1.56731 -0.642778 0
M  V30 5066 O 479.096 -1.71843 -0.53571 0
M  V30 5067 H 475.471 -0.750421 0.0486993 0
M  V30 5068 H 477.442 -2.79814 1.03666 0
M  V30 5069 C 476.191 -3.42008 -0.626573 0
M  V30 5070 H 475.514 -3.99795 0.0192103 0
M  V30 5071 H 476.954 -4.11727 -1.01278 0
M  V30 5072 C 475.413 -2.85226 -1.79298 0
M  V30 5073 O 475.943 -2.78945 -2.89055 0
M  V30 5074 N 474.149 -2.42245 -1.60516 0
M  V30 5075 H 473.696 -2.47554 -0.712375 0
M  V30 5076 H 473.654 -2.04603 -2.38715 0
M  V30 5077 N 477.426 -0.562348 -1.47226 0
M  V30 5078 C 478.374 0.195476 -2.31777 0
M  V30 5079 C 479.368 0.90433 -1.43242 0
M  V30 5080 O 480.574 0.825031 -1.59979 0
M  V30 5081 H 476.949 0.0819095 -0.747526 0
M  V30 5082 H 478.92 -0.536753 -2.93533 0
M  V30 5083 C 477.669 1.20902 -3.26003 0
M  V30 5084 H 476.992 0.672997 -3.94095 0
M  V30 5085 H 478.432 1.71006 -3.87986 0
M  V30 5086 C 476.891 2.25955 -2.49891 0
M  V30 5087 O 477.421 3.32969 -2.2471 0
M  V30 5088 N 475.627 2.00019 -2.1081 0
M  V30 5089 H 475.174 1.13006 -2.31489 0
M  V30 5090 H 475.132 2.70523 -1.60201 0
M  V30 5091 N 478.904 1.54736 -0.299062 0
M  V30 5092 C 480.153 1.99279 0.311549 0
M  V30 5093 C 480.466 1.19107 1.55154 0
M  V30 5094 O 481.672 1.53908 2.23662 0
M  V30 5095 C 480.128 3.54768 0.605632 0
M  V30 5096 C 479.736 4.43746 -0.615914 0
M  V30 5097 C 481.48 4.07841 1.17754 0
M  V30 5098 C 479.387 5.90663 -0.29509 0
M  V30 5099 H 478.317 0.744359 0.120187 0
M  V30 5100 H 480.968 1.78919 -0.407464 0
M  V30 5101 H 479.35 3.71021 1.38419 0
M  V30 5102 H 480.524 4.39267 -1.39218 0
M  V30 5103 H 478.839 4.01434 -1.10633 0
M  V30 5104 H 481.436 5.15174 1.43179 0
M  V30 5105 H 481.779 3.58324 2.11918 0
M  V30 5106 H 482.312 3.95123 0.460739 0
M  V30 5107 H 479.051 6.44325 -1.20524 0
M  V30 5108 H 478.571 5.98155 0.44394 0
M  V30 5109 H 480.25 6.46916 0.104048 0
M  V30 5110 N 480.382 0.0267497 1.57577 0
M  V30 5111 C 481.61 -0.662661 1.96001 0
M  V30 5112 C 482.025 -1.65799 0.903117 0
M  V30 5113 O 481.382 -1.82135 -0.115317 0
M  V30 5114 C 481.433 -1.37112 3.34488 0
M  V30 5115 O 481.154 -0.415683 4.36123 0
M  V30 5116 C 482.655 -2.15257 3.8753 0
M  V30 5117 H 479.875 -0.18287 0.6456 0
M  V30 5118 H 482.419 0.0858116 2.0432 0
M  V30 5119 H 480.574 -2.07101 3.27395 0
M  V30 5120 H 480.988 -0.918496 5.16395 0
M  V30 5121 H 482.462 -2.60285 4.86781 0
M  V30 5122 H 482.939 -2.99063 3.21649 0
M  V30 5123 H 483.545 -1.50231 3.97883 0
M  V30 5124 N 481.861 -1.55662 -0.24637 0
M  V30 5125 C 482.824 -1.89558 -1.28842 0
M  V30 5126 C 483.824 -0.772082 -1.41052 0
M  V30 5127 O 485.014 -1.04007 -1.39743 0
M  V30 5128 C 482.146 -2.12449 -2.66605 0
M  V30 5129 H 483.339 -2.82735 -1.00004 0
M  V30 5130 H 480.892 -1.48562 -0.485684 0
M  V30 5131 H 481.627 -1.21742 -3.00582 0
M  V30 5132 H 481.412 -2.94273 -2.59125 0
M  V30 5133 H 482.902 -2.39854 -3.41847 0
M  V30 5134 N 483.339 0.512053 -1.4905 0
M  V30 5135 C 484.286 1.6148 -1.64902 0
M  V30 5136 C 485.256 1.58687 -0.490673 0
M  V30 5137 O 486.441 1.76842 -0.71636 0
M  V30 5138 C 483.581 2.99676 -1.71139 0
M  V30 5139 C 482.694 3.12568 -2.98203 0
M  V30 5140 C 481.829 4.4143 -2.95487 0
M  V30 5141 C 480.868 4.47916 -4.17179 0
M  V30 5142 N 480.005 5.68191 -4.12437 0
M  V30 5143 H 484.845 1.47271 -2.59066 0
M  V30 5144 H 482.382 0.716713 -1.28459 0
M  V30 5145 H 484.34 3.79761 -1.72736 0
M  V30 5146 H 482.97 3.12614 -0.804508 0
M  V30 5147 H 482.022 2.25618 -3.06269 0
M  V30 5148 H 483.334 3.1322 -3.88194 0
M  V30 5149 H 482.488 5.29825 -2.95585 0
M  V30 5150 H 481.227 4.43326 -2.03256 0
M  V30 5151 H 480.232 3.57925 -4.17337 0
M  V30 5152 H 481.457 4.47744 -5.1059 0
M  V30 5153 H 479.403 5.7095 -3.23036 0
M  V30 5154 H 479.32 5.70413 -4.96151 0
M  V30 5155 H 480.588 6.58823 -4.16621 0
M  V30 5156 N 484.817 1.37938 0.762283 0
M  V30 5157 C 486.065 1.33404 1.51815 0
M  V30 5158 C 486.386 -0.0780975 1.94844 0
M  V30 5159 O 485.656 -1.02405 1.67003 0
M  V30 5160 H 484.236 0.490839 0.563104 0
M  V30 5161 H 486.898 1.72527 0.906669 0
M  V30 5162 H 485.994 1.97926 2.41313 0
M  V30 5163 N 486.295 -0.989507 1.22664 0
M  V30 5164 C 487.544 -1.72375 1.04737 0
M  V30 5165 C 487.857 -1.91096 -0.417316 0
M  V30 5166 O 489.063 -2.6188 -0.716334 0
M  V30 5167 C 487.519 -3.10161 1.82561 0
M  V30 5168 C 487.127 -2.99358 3.333 0
M  V30 5169 C 488.871 -3.87607 1.73093 0
M  V30 5170 C 486.778 -4.32319 4.03552 0
M  V30 5171 H 485.708 -0.646326 0.388302 0
M  V30 5172 H 488.359 -1.10437 1.46546 0
M  V30 5173 H 486.741 -3.728 1.33552 0
M  V30 5174 H 487.915 -2.45863 3.89728 0
M  V30 5175 H 486.23 -2.35392 3.43481 0
M  V30 5176 H 488.827 -4.86025 2.22899 0
M  V30 5177 H 489.17 -4.10509 0.691976 0
M  V30 5178 H 489.703 -3.31652 2.19663 0
M  V30 5179 H 486.442 -4.14616 5.07714 0
M  V30 5180 H 485.962 -4.85714 3.51911 0
M  V30 5181 H 487.641 -5.01051 4.09337 0
M  V30 5182 N 487.773 -1.03688 -1.18687 0
M  V30 5183 C 489.001 -0.757918 -1.92518 0
M  V30 5184 C 489.416 0.684398 -1.75959 0
M  V30 5185 O 488.773 1.46617 -1.08673 0
M  V30 5186 C 488.824 -1.10985 -3.44042 0
M  V30 5187 O 488.545 -2.49554 -3.60076 0
M  V30 5188 C 490.046 -0.854844 -4.3498 0
M  V30 5189 H 487.266 -0.276699 -0.611293 0
M  V30 5190 H 489.81 -1.38352 -1.50595 0
M  V30 5191 H 487.965 -0.529279 -3.83767 0
M  V30 5192 H 488.379 -2.6291 -4.53849 0
M  V30 5193 H 489.853 -1.15098 -5.39867 0
M  V30 5194 H 490.33 0.210507 -4.38695 0
M  V30 5195 H 490.936 -1.41853 -4.00946 0
M  V30 5196 N 489.251 1.34841 -0.815825 0
M  V30 5197 C 490.528 1.92908 -0.323416 0
M  V30 5198 C 490.908 1.74479 1.18828 0
M  V30 5199 O 490.256 1.11928 1.99209 0
M  V30 5200 C 490.466 3.40957 -0.744952 0
M  V30 5201 C 491.814 4.18107 -0.739716 0
M  V30 5202 O 492.838 3.49511 -0.68708 0
M  V30 5203 O 491.697 5.40517 -0.806456 0
M  V30 5204 H 488.791 0.822436 -0.0867646 0
M  V30 5205 H 491.337 1.4386 -0.90014 0
M  V30 5206 H 490.109 3.4814 -1.78646 0
M  V30 5207 H 489.732 3.97341 -0.143535 0
M  V30 5208 N 490.729 0.570148 1.46925 0
M  V30 5209 C 491.959 0.0561151 2.06524 0
M  V30 5210 C 492.367 -1.24874 1.42137 0
M  V30 5211 O 491.71 -1.76292 0.516417 0
M  V30 5212 C 491.772 -0.197035 3.5896 0
M  V30 5213 C 491.436 1.02033 4.45464 0
M  V30 5214 C 492.433 1.92921 4.82781 0
M  V30 5215 C 490.118 1.23864 4.86788 0
M  V30 5216 C 492.112 3.03999 5.60235 0
M  V30 5217 C 489.799 2.35249 5.64004 0
M  V30 5218 C 490.797 3.25146 6.0064 0
M  V30 5219 O 490.485 4.34598 6.76299 0
M  V30 5220 H 490.217 0.0487409 0.674241 0
M  V30 5221 H 492.771 0.786915 1.89728 0
M  V30 5222 H 491.001 -0.982299 3.74016 0
M  V30 5223 H 492.69 -0.658032 4.00531 0
M  V30 5224 H 493.456 1.77265 4.51444 0
M  V30 5225 H 489.335 0.54805 4.57731 0
M  V30 5226 H 492.879 3.74192 5.8875 0
M  V30 5227 H 488.776 2.50873 5.94755 0
M  V30 5228 H 489.544 4.32808 6.94708 0
M  V30 5229 N 492.207 -1.54576 0.307264 0
M  V30 5230 C 493.154 -2.23751 -0.56604 0
M  V30 5231 C 494.124 -1.22235 -1.12462 0
M  V30 5232 O 495.309 -1.50873 -1.16799 0
M  V30 5233 C 492.449 -2.98661 -1.72903 0
M  V30 5234 C 491.562 -4.14963 -1.20124 0
M  V30 5235 C 490.697 -4.77441 -2.3286 0
M  V30 5236 C 489.736 -5.85875 -1.77247 0
M  V30 5237 N 488.873 -6.42282 -2.8358 0
M  V30 5238 H 493.713 -2.97984 0.0304578 0
M  V30 5239 H 491.25 -1.47076 0.0268015 0
M  V30 5240 H 493.208 -3.40329 -2.41313 0
M  V30 5241 H 491.838 -2.26793 -2.29706 0
M  V30 5242 H 490.89 -3.78193 -0.409198 0
M  V30 5243 H 492.202 -4.93066 -0.754171 0
M  V30 5244 H 491.356 -5.21993 -3.09205 0
M  V30 5245 H 490.095 -3.98684 -2.80896 0
M  V30 5246 H 489.1 -5.40741 -0.993926 0
M  V30 5247 H 490.325 -6.6652 -1.30107 0
M  V30 5248 H 488.271 -5.66406 -3.30939 0
M  V30 5249 H 488.188 -7.1575 -2.43388 0
M  V30 5250 H 489.456 -6.91492 -3.59804 0
M  V30 5251 N 493.685 -0.035106 -1.57561 0
M  V30 5252 C 494.632 0.94474 -2.10578 0
M  V30 5253 C 495.602 1.3192 -1.00927 0
M  V30 5254 O 496.787 1.41147 -1.28382 0
M  V30 5255 C 493.927 2.21982 -2.64231 0
M  V30 5256 C 493.04 1.90128 -3.87911 0
M  V30 5257 C 492.175 3.11975 -4.29936 0
M  V30 5258 C 491.214 2.75968 -5.46359 0
M  V30 5259 N 490.351 3.90459 -5.83512 0
M  V30 5260 H 495.191 0.485717 -2.94015 0
M  V30 5261 H 492.728 0.228143 -1.4532 0
M  V30 5262 H 494.686 2.96572 -2.9343 0
M  V30 5263 H 493.316 2.6549 -1.83616 0
M  V30 5264 H 492.368 1.05755 -3.65404 0
M  V30 5265 H 493.68 1.59613 -4.72573 0
M  V30 5266 H 492.834 3.9488 -4.60603 0
M  V30 5267 H 491.573 3.45657 -3.44053 0
M  V30 5268 H 490.578 1.91478 -5.1538 0
M  V30 5269 H 491.803 2.43497 -6.33945 0
M  V30 5270 H 489.749 4.23971 -5.00584 0
M  V30 5271 H 489.666 3.63588 -6.62827 0
M  V30 5272 H 490.934 4.7405 -6.18787 0
M  V30 5273 N 495.163 1.55791 0.238111 0
M  V30 5274 C 496.411 1.77681 0.963001 0
M  V30 5275 C 496.732 0.600674 1.85518 0
M  V30 5276 O 496.002 -0.383182 1.92116 0
M  V30 5277 H 494.582 0.655315 0.358568 0
M  V30 5278 H 497.244 1.93239 0.253945 0
M  V30 5279 H 496.34 2.69177 1.57956 0
M  V30 5280 N 496.642 -0.504142 1.49319 0
M  V30 5281 C 497.889 -1.25846 1.58647 0
M  V30 5282 C 498.217 -1.92592 0.27177 0
M  V30 5283 O 497.472 -1.81167 -0.74007 0
M  V30 5284 C 497.771 -2.35021 2.69258 0
M  V30 5285 C 497.437 -1.85755 4.1086 0
M  V30 5286 C 496.099 -1.72038 4.49395 0
M  V30 5287 C 498.451 -1.48844 4.99495 0
M  V30 5288 C 495.779 -1.19783 5.74342 0
M  V30 5289 C 498.131 -0.980422 6.24956 0
M  V30 5290 C 496.795 -0.829622 6.62324 0
M  V30 5291 H 496.065 -0.460505 0.580531 0
M  V30 5292 H 498.712 -0.559716 1.83138 0
M  V30 5293 H 497.017 -3.10672 2.38726 0
M  V30 5294 H 498.714 -2.93083 2.73685 0
M  V30 5295 H 495.304 -1.9739 3.80441 0
M  V30 5296 H 499.488 -1.5829 4.70381 0
M  V30 5297 H 494.744 -1.06817 6.01997 0
M  V30 5298 H 498.918 -0.685608 6.93017 0
M  V30 5299 H 496.545 -0.42253 7.59025 0
M  V30 5300 N 498.12 -1.38341 -0.754957 0
M  V30 5301 C 499.345 -1.37882 -1.5493 0
M  V30 5302 C 499.77 0.0296385 -1.88077 0
M  V30 5303 O 499.128 1.01133 -1.50472 0
M  V30 5304 C 499.176 -2.23996 -2.82592 0
M  V30 5305 O 498.28 -1.65612 -3.77686 0
M  V30 5306 H 497.621 -0.470384 -0.468652 0
M  V30 5307 H 500.151 -1.82084 -0.933082 0
M  V30 5308 H 500.161 -2.37806 -3.3153 0
M  V30 5309 H 498.836 -3.26365 -2.57796 0
M  V30 5310 H 497.413 -1.60936 -3.36384 0
M  V30 5311 N 499.598 0.982988 -1.23187 0
M  V30 5312 C 500.845 1.72392 -1.06241 0
M  V30 5313 C 501.173 1.9032 0.40108 0
M  V30 5314 O 500.428 1.45084 1.31336 0
M  V30 5315 C 500.727 3.12736 -1.73006 0
M  V30 5316 C 500.393 3.14695 -3.22921 0
M  V30 5317 C 499.055 3.14937 -3.63824 0
M  V30 5318 C 501.407 3.10211 -4.1883 0
M  V30 5319 C 498.735 3.08408 -4.99101 0
M  V30 5320 C 501.087 3.05224 -5.54095 0
M  V30 5321 C 499.751 3.03787 -5.94365 0
M  V30 5322 H 499.021 0.630829 -0.388762 0
M  V30 5323 H 501.668 1.15053 -1.53085 0
M  V30 5324 H 499.973 3.73446 -1.18514 0
M  V30 5325 H 501.67 3.68828 -1.57374 0
M  V30 5326 H 498.26 3.15262 -2.90358 0
M  V30 5327 H 502.444 3.09166 -3.8824 0
M  V30 5328 H 497.7 3.05646 -5.29519 0
M  V30 5329 H 501.874 3.00712 -6.28128 0
M  V30 5330 H 499.501 2.98483 -6.99151 0
M  V30 5331 N 501.076 1.04316 1.18135 0
M  V30 5332 C 502.039 0.640794 2.2006 0
M  V30 5333 C 503.039 -0.303124 1.57917 0
M  V30 5334 O 504.229 -0.0881855 1.73977 0
M  V30 5335 C 501.361 -0.060148 3.40847 0
M  V30 5336 H 502.554 1.54281 2.57172 0
M  V30 5337 H 500.107 0.836004 1.32063 0
M  V30 5338 H 500.842 -0.975845 3.0927 0
M  V30 5339 H 500.627 0.618319 3.87194 0
M  V30 5340 H 502.117 -0.328082 4.16309 0
M  V30 5341 N 502.554 -1.34406 0.822964 0
M  V30 5342 C 503.801 -1.98284 0.411057 0
M  V30 5343 C 504.129 -1.65245 -1.02588 0
M  V30 5344 O 503.384 -0.91619 -1.72929 0
M  V30 5345 C 503.683 -3.52981 0.560268 0
M  V30 5346 C 503.349 -4.05931 1.96293 0
M  V30 5347 C 502.011 -4.20103 2.34664 0
M  V30 5348 C 504.363 -4.34412 2.87985 0
M  V30 5349 C 501.691 -4.60082 3.64062 0
M  V30 5350 C 504.043 -4.75838 4.16847 0
M  V30 5351 C 502.707 -4.88215 4.55195 0
M  V30 5352 H 501.977 -0.725573 0.150416 0
M  V30 5353 H 504.624 -1.60349 1.04692 0
M  V30 5354 H 502.929 -3.91477 -0.158982 0
M  V30 5355 H 504.626 -4.00385 0.222087 0
M  V30 5356 H 501.216 -3.95363 1.65487 0
M  V30 5357 H 505.4 -4.23001 2.59584 0
M  V30 5358 H 500.656 -4.67856 3.93599 0
M  V30 5359 H 504.83 -4.96834 4.87984 0
M  V30 5360 H 502.457 -5.18952 5.55512 0
M  V30 5361 N 504.032 -0.577932 -1.46621 0
M  V30 5362 C 504.942 0.160651 -2.34049 0
M  V30 5363 C 505.958 0.890911 -1.49462 0
M  V30 5364 O 507.134 0.855166 -1.82343 0
M  V30 5365 C 504.199 1.16447 -3.26559 0
M  V30 5366 C 503.26 0.4394 -4.27045 0
M  V30 5367 C 502.493 1.3954 -5.15135 0
M  V30 5368 O 502.716 2.63162 -5.06065 0
M  V30 5369 O 501.65 0.908585 -5.95003 0
M  V30 5370 H 505.476 -0.557057 -2.98547 0
M  V30 5371 H 503.061 -0.338369 -1.45518 0
M  V30 5372 H 504.943 1.7434 -3.83645 0
M  V30 5373 H 503.618 1.86373 -2.64663 0
M  V30 5374 H 502.525 -0.181247 -3.73661 0
M  V30 5375 H 503.858 -0.218799 -4.91713 0
M  V30 5376 N 505.51 1.54411 -0.315457 0
M  V30 5377 C 506.442 2.21527 0.588067 0
M  V30 5378 C 507.455 1.21263 1.08624 0
M  V30 5379 O 508.644 1.47777 1.00121 0
M  V30 5380 C 505.744 2.85963 1.81875 0
M  V30 5381 C 504.917 4.12291 1.46063 0
M  V30 5382 C 503.976 4.60396 2.54799 0
M  V30 5383 O 503.002 5.25265 2.19283 0
M  V30 5384 N 504.204 4.33935 3.85591 0
M  V30 5385 H 506.969 2.99697 0.013414 0
M  V30 5386 H 504.53 1.61308 -0.138295 0
M  V30 5387 H 506.522 3.15071 2.53993 0
M  V30 5388 H 505.092 2.11548 2.30144 0
M  V30 5389 H 504.312 3.90036 0.571445 0
M  V30 5390 H 505.6 4.9452 1.19695 0
M  V30 5391 H 504.998 3.81996 4.17248 0
M  V30 5392 H 503.555 4.67718 4.53964 0
M  V30 5393 N 506.988 0.0434614 1.5754 0
M  V30 5394 C 507.918 -0.931651 2.14109 0
M  V30 5395 C 508.899 -1.32971 1.06079 0
M  V30 5396 O 510.084 -1.40579 1.33982 0
M  V30 5397 C 507.214 -2.20914 2.67982 0
M  V30 5398 C 506.168 -1.95139 3.80926 0
M  V30 5399 C 505.494 -3.29276 4.21285 0
M  V30 5400 C 506.794 -1.27913 5.06395 0
M  V30 5401 H 508.488 -0.460497 2.95837 0
M  V30 5402 H 506.034 -0.220058 1.42309 0
M  V30 5403 H 507.987 -2.89522 3.06194 0
M  V30 5404 H 506.711 -2.70221 1.83434 0
M  V30 5405 H 505.37 -1.28945 3.43175 0
M  V30 5406 H 505.018 -3.76369 3.33699 0
M  V30 5407 H 504.718 -3.12831 4.97404 0
M  V30 5408 H 506.242 -3.99129 4.62091 0
M  V30 5409 H 507.656 -1.86544 5.42102 0
M  V30 5410 H 506.053 -1.2182 5.87605 0
M  V30 5411 H 507.123 -0.254066 4.84234 0
M  V30 5412 N 508.466 -1.55915 -0.229846 0
M  V30 5413 C 509.396 -1.94754 -1.28815 0
M  V30 5414 C 510.377 -0.814657 -1.49323 0
M  V30 5415 O 511.562 -1.07631 -1.61645 0
M  V30 5416 C 508.692 -2.25705 -2.63959 0
M  V30 5417 C 507.646 -3.41406 -2.5812 0
M  V30 5418 C 506.972 -3.57941 -3.97218 0
M  V30 5419 C 508.272 -4.76616 -2.13623 0
M  V30 5420 H 509.966 -2.83404 -0.965547 0
M  V30 5421 H 507.512 -1.36353 -0.463028 0
M  V30 5422 H 509.465 -2.51467 -3.38146 0
M  V30 5423 H 508.189 -1.339 -2.9789 0
M  V30 5424 H 506.848 -3.1568 -1.86391 0
M  V30 5425 H 506.496 -2.63526 -4.28443 0
M  V30 5426 H 506.196 -4.35757 -3.94195 0
M  V30 5427 H 507.72 -3.86042 -4.73079 0
M  V30 5428 H 509.134 -5.01637 -2.77549 0
M  V30 5429 H 507.531 -5.57655 -2.21677 0
M  V30 5430 H 508.601 -4.7253 -1.08829 0
M  V30 5431 N 509.944 0.496216 -1.49584 0
M  V30 5432 C 510.892 1.61805 -1.67098 0
M  V30 5433 C 511.886 1.60667 -0.536877 0
M  V30 5434 O 513.092 1.65118 -0.716654 0
M  V30 5435 H 509.467 0.53646 -0.526986 0
M  V30 5436 H 511.438 1.44187 -2.61252 0
M  V30 5437 C 510.187 2.99912 -1.75921 0
M  V30 5438 H 509.51 3.01496 -2.62565 0
M  V30 5439 H 510.95 3.77931 -1.92209 0
M  V30 5440 C 509.409 3.33092 -0.505088 0
M  V30 5441 O 509.939 4.00019 0.367085 0
M  V30 5442 N 508.145 2.88278 -0.366599 0
M  V30 5443 H 507.692 2.33989 -1.07735 0
M  V30 5444 H 507.65 3.10846 0.47142 0
M  V30 5445 N 511.423 1.38739 0.74761 0
M  V30 5446 C 512.653 1.3832 1.53464 0
M  V30 5447 C 513.061 -0.0273464 1.8918 0
M  V30 5448 O 512.404 -1.00588 1.53713 0
M  V30 5449 C 512.466 2.18007 2.85855 0
M  V30 5450 C 512.13 3.66762 2.72644 0
M  V30 5451 C 513.127 4.60124 2.42037 0
M  V30 5452 C 510.812 4.10193 2.89909 0
M  V30 5453 C 512.806 5.94897 2.28859 0
M  V30 5454 C 510.493 5.45045 2.7635 0
M  V30 5455 C 511.491 6.37211 2.45869 0
M  V30 5456 O 511.179 7.69581 2.3238 0
M  V30 5457 H 510.911 0.474718 0.481268 0
M  V30 5458 H 513.465 1.83012 0.932518 0
M  V30 5459 H 511.695 1.68043 3.48279 0
M  V30 5460 H 513.384 2.09921 3.47402 0
M  V30 5461 H 514.15 4.27874 2.28361 0
M  V30 5462 H 510.029 3.38797 3.1263 0
M  V30 5463 H 513.573 6.66802 2.04989 0
M  V30 5464 H 509.47 5.76889 2.89601 0
M  V30 5465 H 510.238 7.80169 2.47546 0
M  V30 5466 N 512.901 -0.976442 1.23707 0
M  V30 5467 C 513.849 -2.09078 1.01927 0
M  V30 5468 C 514.843 -1.69345 -0.0430193 0
M  V30 5469 O 516.049 -1.79659 0.110814 0
M  V30 5470 H 512.424 -0.68398 0.312531 0
M  V30 5471 H 514.395 -2.24614 1.96447 0
M  V30 5472 C 513.144 -3.41919 0.631385 0
M  V30 5473 H 512.467 -3.72946 1.44053 0
M  V30 5474 H 513.907 -4.20817 0.518532 0
M  V30 5475 C 512.366 -3.30357 -0.660723 0
M  V30 5476 O 512.896 -3.63542 -1.70881 0
M  V30 5477 N 511.102 -2.83507 -0.638139 0
M  V30 5478 H 510.649 -2.567 0.215108 0
M  V30 5479 H 510.607 -2.76153 -1.50289 0
M  V30 5480 N 514.379 -1.04941 -1.1758 0
M  V30 5481 C 515.625 -0.759112 -1.88057 0
M  V30 5482 C 515.958 0.711918 -1.8068 0
M  V30 5483 O 515.233 1.52035 -1.21308 0
M  V30 5484 C 515.516 -1.237 -3.38187 0
M  V30 5485 C 515.369 -2.77078 -3.54327 0
M  V30 5486 C 516.688 -0.834014 -4.32125 0
M  V30 5487 H 513.807 -0.277237 -0.682868 0
M  V30 5488 H 516.449 -1.30296 -1.38286 0
M  V30 5489 H 514.599 -0.774337 -3.80705 0
M  V30 5490 H 516.271 -3.31449 -3.20842 0
M  V30 5491 H 514.514 -3.16477 -2.96689 0
M  V30 5492 H 515.185 -3.05577 -4.59703 0
M  V30 5493 H 517.661 -1.23228 -3.97434 0
M  V30 5494 H 516.537 -1.19603 -5.35711 0
M  V30 5495 H 516.798 0.262195 -4.41322 0
M  V30 5496 N 515.857 1.33968 -0.830081 0
M  V30 5497 C 517.082 2.02813 -0.433796 0
M  V30 5498 C 517.507 1.62076 0.954614 0
M  V30 5499 O 516.865 0.808955 1.62252 0
M  V30 5500 C 516.913 3.56348 -0.552115 0
M  V30 5501 O 516.017 4.10202 0.425191 0
M  V30 5502 H 515.358 0.639817 -0.177567 0
M  V30 5503 H 517.888 1.7106 -1.12248 0
M  V30 5504 H 517.898 4.05722 -0.430513 0
M  V30 5505 H 516.573 3.85344 -1.56471 0
M  V30 5506 H 515.15 3.71979 0.261878 0
M  V30 5507 N 517.335 0.585699 1.46312 0
M  V30 5508 C 518.751 0.247607 1.57668 0
M  V30 5509 C 518.951 -1.25007 1.58037 0
M  V30 5510 O 518.007 -2.03196 1.49893 0
M  V30 5511 C 519.32 0.899456 2.86933 0
M  V30 5512 C 520.868 0.873326 3.00569 0
M  V30 5513 C 521.343 1.50477 4.32574 0
M  V30 5514 N 522.834 1.46925 4.3928 0
M  V30 5515 C 523.569 1.92719 5.40044 0
M  V30 5516 N 523.065 2.46499 6.47464 0
M  V30 5517 N 524.858 1.83617 5.31264 0
M  V30 5518 H 517.009 1.55841 1.44317 0
M  V30 5519 H 519.272 0.651564 0.688599 0
M  V30 5520 H 518.978 1.95313 2.92482 0
M  V30 5521 H 518.852 0.409476 3.74971 0
M  V30 5522 H 521.239 -0.171736 2.946 0
M  V30 5523 H 521.32 1.40136 2.13999 0
M  V30 5524 H 520.964 2.54905 4.39302 0
M  V30 5525 H 520.894 0.951944 5.17924 0
M  V30 5526 H 523.385 1.07616 3.62253 0
M  V30 5527 H 523.698 2.79291 7.20567 0
M  V30 5528 H 522.043 2.50526 6.48276 0
M  V30 5529 H 525.234 1.41358 4.46246 0
M  V30 5530 H 525.407 2.19622 6.09648 0
M  V30 5531 N 518.813 -1.54241 0.323641 0
M  V30 5532 C 519.776 -2.22997 -0.529602 0
M  V30 5533 C 520.776 -1.22345 -1.04347 0
M  V30 5534 O 521.966 -1.46924 -0.935889 0
M  V30 5535 C 519.098 -2.93409 -1.73562 0
M  V30 5536 H 520.291 -2.99815 0.0714518 0
M  V30 5537 H 517.844 -1.56121 0.0747258 0
M  V30 5538 H 518.579 -2.20729 -2.37591 0
M  V30 5539 H 518.364 -3.67217 -1.37456 0
M  V30 5540 H 519.854 -3.45794 -2.34128 0
M  V30 5541 N 520.291 -0.0518155 -1.57515 0
M  V30 5542 C 521.239 0.940195 -2.12751 0
M  V30 5543 C 522.233 1.3218 -1.05948 0
M  V30 5544 O 523.439 1.30138 -1.24355 0
M  V30 5545 H 519.814 0.321066 -0.680015 0
M  V30 5546 H 521.785 0.449217 -2.94999 0
M  V30 5547 C 520.534 2.2055 -2.68799 0
M  V30 5548 H 519.857 1.92066 -3.50643 0
M  V30 5549 H 521.297 2.88119 -3.11068 0
M  V30 5550 C 519.756 2.95061 -1.62605 0
M  V30 5551 O 520.286 3.88025 -1.03921 0
M  V30 5552 N 518.492 2.57804 -1.34111 0
M  V30 5553 H 518.039 1.82281 -1.8202 0
M  V30 5554 H 517.997 3.07964 -0.632872 0
M  V30 5555 N 521.769 1.56035 0.221574 0
M  V30 5556 C 523.009 1.80822 0.953038 0
M  V30 5557 C 523.373 0.625316 1.81532 0
M  V30 5558 O 524.574 0.752491 2.58052 0
M  V30 5559 C 522.845 3.10503 1.76983 0
M  V30 5560 S 524.404 3.56604 2.55693 0
M  V30 5561 H 521.222 0.634849 0.320137 0
M  V30 5562 H 523.824 1.94274 0.218619 0
M  V30 5563 H 522.528 3.94636 1.12651 0
M  V30 5564 H 522.059 2.99858 2.54655 0
M  V30 5565 H 524.074 3.1994 3.79279 0
M  V30 5566 N 523.247 -0.488276 1.49845 0
M  V30 5567 C 524.195 -1.60917 1.67954 0
M  V30 5568 C 525.189 -1.6038 0.54539 0
M  V30 5569 O 526.395 -1.64736 0.7254 0
M  V30 5570 H 522.77 -0.533658 0.529824 0
M  V30 5571 H 524.741 -1.428 2.62013 0
M  V30 5572 C 523.49 -2.98975 1.77509 0
M  V30 5573 H 522.813 -3.00099 2.6416 0
M  V30 5574 H 524.253 -3.76906 1.9421 0
M  V30 5575 C 522.712 -3.3282 0.522745 0
M  V30 5576 O 523.242 -4.00208 -0.345866 0
M  V30 5577 N 521.448 -2.8808 0.381882 0
M  V30 5578 H 520.995 -2.33415 1.08974 0
M  V30 5579 H 520.953 -3.11091 -0.454929 0
M  V30 5580 N 524.725 -1.39134 -0.740242 0
M  V30 5581 C 525.672 -1.37434 -1.8542 0
M  V30 5582 C 526.642 -0.234822 -1.64432 0
M  V30 5583 O 527.827 -0.429125 -1.85912 0
M  V30 5584 C 524.967 -1.21844 -3.22875 0
M  V30 5585 C 524.08 -2.45296 -3.55603 0
M  V30 5586 C 523.215 -2.22334 -4.82432 0
M  V30 5587 C 522.254 -3.41488 -5.07988 0
M  V30 5588 N 521.391 -3.17877 -6.26018 0
M  V30 5589 H 526.231 -2.3266 -1.86207 0
M  V30 5590 H 523.768 -1.15578 -0.909946 0
M  V30 5591 H 525.726 -1.10818 -4.02213 0
M  V30 5592 H 524.356 -0.3025 -3.21379 0
M  V30 5593 H 523.408 -2.66945 -2.71006 0
M  V30 5594 H 524.72 -3.34063 -3.7041 0
M  V30 5595 H 523.874 -2.0852 -5.69741 0
M  V30 5596 H 522.613 -1.30954 -4.6979 0
M  V30 5597 H 521.618 -3.55807 -4.19144 0
M  V30 5598 H 522.843 -4.33763 -5.22519 0
M  V30 5599 H 520.789 -2.29156 -6.14673 0
M  V30 5600 H 520.706 -4.00198 -6.41387 0
M  V30 5601 H 521.974 -3.07746 -7.16179 0
M  V30 5602 N 526.204 0.969867 -1.24223 0
M  V30 5603 C 527.453 1.70687 -1.07466 0
M  V30 5604 C 527.766 1.91736 0.386861 0
M  V30 5605 O 528.972 2.62986 0.674581 0
M  V30 5606 C 527.428 3.07217 -1.87472 0
M  V30 5607 C 527.036 2.94018 -3.3802 0
M  V30 5608 C 528.78 3.84804 -1.79237 0
M  V30 5609 C 526.687 4.25844 -4.10379 0
M  V30 5610 H 525.617 0.640067 -0.398536 0
M  V30 5611 H 528.268 1.08092 -1.48285 0
M  V30 5612 H 526.65 3.70628 -1.39466 0
M  V30 5613 H 527.824 2.39632 -3.9359 0
M  V30 5614 H 526.139 2.29898 -3.47183 0
M  V30 5615 H 528.736 4.82417 -2.30603 0
M  V30 5616 H 529.079 4.09356 -0.757197 0
M  V30 5617 H 529.612 3.28115 -2.24912 0
M  V30 5618 H 526.351 4.06486 -5.14246 0
M  V30 5619 H 525.871 4.80054 -3.59594 0
M  V30 5620 H 527.55 4.94475 -4.17257 0
M  V30 5621 N 527.682 1.05563 1.17022 0
M  V30 5622 C 528.931 0.763036 1.8671 0
M  V30 5623 C 529.244 -0.712857 1.82147 0
M  V30 5624 O 530.45 -1.11955 2.47343 0
M  V30 5625 C 528.906 1.31474 3.35026 0
M  V30 5626 C 528.514 2.82034 3.48081 0
M  V30 5627 C 530.258 1.09935 4.10018 0
M  V30 5628 C 528.165 3.30486 4.90442 0
M  V30 5629 H 527.095 0.281747 0.699382 0
M  V30 5630 H 529.746 1.2734 1.32124 0
M  V30 5631 H 528.128 0.732171 3.89173 0
M  V30 5632 H 529.302 3.46178 3.04133 0
M  V30 5633 H 527.617 3.02156 2.86515 0
M  V30 5634 H 530.214 1.43632 5.15048 0
M  V30 5635 H 530.557 0.0373072 4.16283 0
M  V30 5636 H 531.09 1.64732 3.62089 0
M  V30 5637 H 527.829 4.36137 4.89352 0
M  V30 5638 H 527.349 2.71086 5.35044 0
M  V30 5639 H 529.028 3.25382 5.59227 0
M  V30 5640 N 529.16 -1.33526 0.837174 0
M  V30 5641 C 530.093 -2.27192 0.214233 0
M  V30 5642 C 531.071 -1.49575 -0.637657 0
M  V30 5643 O 532.255 -1.78753 -0.598291 0
M  V30 5644 C 529.382 -3.31401 -0.699367 0
M  V30 5645 C 528.428 -4.26431 0.0768429 0
M  V30 5646 S 529.261 -5.15954 1.4336 0
M  V30 5647 C 530.417 -6.23692 0.525251 0
M  V30 5648 H 530.65 -2.79679 1.00831 0
M  V30 5649 H 528.183 -1.4079 0.633834 0
M  V30 5650 H 530.141 -3.91924 -1.22088 0
M  V30 5651 H 528.802 -2.77732 -1.46709 0
M  V30 5652 H 527.995 -5.00193 -0.618268 0
M  V30 5653 H 527.597 -3.70235 0.529364 0
M  V30 5654 H 529.889 -6.76931 -0.277575 0
M  V30 5655 H 530.832 -6.97283 1.23299 0
M  V30 5656 H 531.24 -5.64398 0.107351 0
M  V30 5657 N 530.638 -0.59345 -1.46 0
M  V30 5658 C 531.568 0.121192 -2.33185 0
M  V30 5659 C 532.549 0.872977 -1.4599 0
M  V30 5660 O 533.734 0.846321 -1.74789 0
M  V30 5661 C 530.864 1.12844 -3.28456 0
M  V30 5662 C 529.818 0.4908 -4.25177 0
M  V30 5663 C 529.144 1.60529 -5.10034 0
M  V30 5664 C 530.444 -0.578949 -5.19081 0
M  V30 5665 H 532.138 -0.606767 -2.93187 0
M  V30 5666 H 529.684 -0.293242 -1.40983 0
M  V30 5667 H 531.637 1.63684 -3.88311 0
M  V30 5668 H 530.361 1.88681 -2.66584 0
M  V30 5669 H 529.02 0.00339328 -3.666 0
M  V30 5670 H 528.668 2.35359 -4.44539 0
M  V30 5671 H 528.368 1.18422 -5.75543 0
M  V30 5672 H 529.892 2.11623 -5.72755 0
M  V30 5673 H 531.306 -0.155199 -5.7309 0
M  V30 5674 H 529.703 -0.920947 -5.92991 0
M  V30 5675 H 530.773 -1.46109 -4.62364 0
M  V30 5676 N 532.116 1.54067 -0.331816 0
M  V30 5677 C 533.363 2.00715 0.268269 0
M  V30 5678 C 533.691 1.21986 1.51491 0
M  V30 5679 O 532.946 0.292309 1.93505 0
M  V30 5680 C 533.245 3.51634 0.639392 0
M  V30 5681 C 532.911 4.48018 -0.509019 0
M  V30 5682 C 531.573 4.74089 -0.824209 0
M  V30 5683 C 533.925 5.05237 -1.28003 0
M  V30 5684 C 531.253 5.54637 -1.91298 0
M  V30 5685 C 533.605 5.86972 -2.35895 0
M  V30 5686 C 532.269 6.11342 -2.67987 0
M  V30 5687 H 531.539 0.734469 0.0981667 0
M  V30 5688 H 534.186 1.8596 -0.457304 0
M  V30 5689 H 532.491 3.6416 1.44551 0
M  V30 5690 H 534.188 3.85175 1.11539 0
M  V30 5691 H 530.778 4.27851 -0.253287 0
M  V30 5692 H 534.962 4.8507 -1.04978 0
M  V30 5693 H 530.218 5.71747 -2.16599 0
M  V30 5694 H 534.392 6.30327 -2.96076 0
M  V30 5695 H 532.019 6.73544 -3.5248 0
M  V30 5696 N 533.594 0.0601682 1.57485 0
M  V30 5697 C 534.822 -0.620937 1.97363 0
M  V30 5698 C 535.237 -1.63846 0.938082 0
M  V30 5699 O 534.594 -1.82339 -0.0766578 0
M  V30 5700 C 534.645 -1.29987 3.37321 0
M  V30 5701 O 534.366 -0.323081 4.36907 0
M  V30 5702 C 535.867 -2.06989 3.92008 0
M  V30 5703 H 533.087 -0.169135 0.649334 0
M  V30 5704 H 535.631 0.129132 2.04092 0
M  V30 5705 H 533.786 -2.0011 3.31715 0
M  V30 5706 H 534.2 -0.808754 5.18227 0
M  V30 5707 H 535.674 -2.49901 4.92192 0
M  V30 5708 H 536.151 -2.92173 3.2792 0
M  V30 5709 H 536.757 -1.41757 4.0098 0
M  V30 5710 N 535.072 -1.5615 -0.213296 0
M  V30 5711 C 536.349 -1.70349 -0.961281 0
M  V30 5712 C 536.729 -0.609791 -2.02101 0
M  V30 5713 O 536.077 0.381987 -2.25285 0
M  V30 5714 C 536.287 -3.11982 -1.56424 0
M  V30 5715 C 537.635 -3.71649 -2.05334 0
M  V30 5716 O 538.659 -3.14995 -1.66302 0
M  V30 5717 O 537.518 -4.71038 -2.77102 0
M  V30 5718 H 534.612 -0.694121 -0.449582 0
M  V30 5719 H 537.158 -1.68464 -0.204426 0
M  V30 5720 H 535.93 -3.83046 -0.799457 0
M  V30 5721 H 535.553 -3.18019 -2.38641 0
M  V30 5722 N 536.55 0.480323 -1.50102 0
M  V30 5723 C 537.798 1.23063 -1.60312 0
M  V30 5724 C 538.119 1.92659 -0.301226 0
M  V30 5725 O 537.389 1.83691 0.680753 0
M  V30 5726 H 535.969 0.457231 -0.590719 0
M  V30 5727 H 538.631 0.554893 -1.86834 0
M  V30 5728 H 537.727 1.9835 -2.40964 0
M  V30 5729 N 538.028 1.39524 0.732853 0
M  V30 5730 C 539.276 1.36594 1.48951 0
M  V30 5731 C 539.597 -0.0367507 1.94965 0
M  V30 5732 O 538.867 -0.988391 1.69138 0
M  V30 5733 H 537.447 0.502673 0.552566 0
M  V30 5734 H 540.109 1.74411 0.869869 0
M  V30 5735 H 539.205 2.03 2.3706 0
M  V30 5736 N 539.506 -0.963266 1.24736 0
M  V30 5737 C 540.416 -2.09246 1.06082 0
M  V30 5738 C 541.432 -1.74 0.000363101 0
M  V30 5739 O 542.608 -2.0041 0.199479 0
M  V30 5740 C 539.673 -3.40115 0.672498 0
M  V30 5741 C 538.734 -3.89282 1.80993 0
M  V30 5742 C 537.967 -5.13905 1.44004 0
M  V30 5743 O 538.19 -5.69434 0.331835 0
M  V30 5744 O 537.124 -5.57566 2.26723 0
M  V30 5745 H 540.95 -2.27881 2.00759 0
M  V30 5746 H 538.535 -1.07649 1.03595 0
M  V30 5747 H 540.417 -4.18797 0.467668 0
M  V30 5748 H 539.092 -3.22771 -0.245102 0
M  V30 5749 H 537.999 -3.11642 2.06955 0
M  V30 5750 H 539.332 -4.1111 2.70646 0
M  V30 5751 N 540.985 -1.06182 -1.16461 0
M  V30 5752 C 541.895 -0.682671 -2.24448 0
M  V30 5753 C 542.911 0.30078 -1.71381 0
M  V30 5754 O 544.087 0.150376 -2.00838 0
M  V30 5755 C 541.152 -0.0737202 -3.46622 0
M  V30 5756 C 540.213 -1.10889 -4.14731 0
M  V30 5757 C 539.446 -0.528908 -5.31073 0
M  V30 5758 O 539.669 0.65868 -5.66584 0
M  V30 5759 O 538.603 -1.26805 -5.88391 0
M  V30 5760 H 542.429 -1.58291 -2.59187 0
M  V30 5761 H 540.014 -0.834013 -1.23954 0
M  V30 5762 H 541.896 0.264192 -4.20571 0
M  V30 5763 H 540.571 0.800015 -3.13658 0
M  V30 5764 H 539.478 -1.49896 -3.42756 0
M  V30 5765 H 540.811 -1.95412 -4.51747 0
M  V30 5766 N 542.463 1.3308 -0.844243 0
M  V30 5767 C 543.879 1.50447 -0.532729 0
M  V30 5768 C 544.079 1.78292 0.938837 0
M  V30 5769 O 543.135 1.84635 1.72239 0
M  V30 5770 C 544.448 2.65555 -1.41072 0
M  V30 5771 C 545.996 2.7944 -1.41005 0
M  V30 5772 C 546.471 3.97616 -2.27301 0
M  V30 5773 N 547.962 4.0486 -2.2504 0
M  V30 5774 C 548.697 4.95508 -2.88547 0
M  V30 5775 N 548.193 5.91236 -3.61126 0
M  V30 5776 N 549.986 4.88548 -2.77989 0
M  V30 5777 H 542.137 1.13269 -1.79677 0
M  V30 5778 H 544.4 0.55734 -0.766861 0
M  V30 5779 H 544.106 2.51675 -2.45668 0
M  V30 5780 H 543.98 3.61089 -1.09061 0
M  V30 5781 H 546.367 2.92749 -0.371784 0
M  V30 5782 H 546.448 1.8465 -1.77026 0
M  V30 5783 H 546.092 3.85066 -3.3119 0
M  V30 5784 H 546.022 4.91661 -1.88619 0
M  V30 5785 H 548.513 3.36353 -1.72264 0
M  V30 5786 H 548.826 6.57079 -4.06776 0
M  V30 5787 H 547.171 5.91295 -3.65234 0
M  V30 5788 H 550.362 4.12729 -2.20846 0
M  V30 5789 H 550.535 5.58994 -3.27765 0
M  V30 5790 N 543.941 0.601185 1.45683 0
M  V30 5791 C 544.904 -0.111398 2.28929 0
M  V30 5792 C 545.904 -0.801246 1.39416 0
M  V30 5793 O 547.094 -0.650383 1.61603 0
M  V30 5794 C 544.226 -1.16773 3.20276 0
M  V30 5795 H 545.419 0.620412 2.93413 0
M  V30 5796 H 542.972 0.359946 1.52099 0
M  V30 5797 H 543.707 -1.93051 2.60579 0
M  V30 5798 H 543.492 -0.677358 3.86205 0
M  V30 5799 H 544.982 -1.66698 3.82886 0
M  V30 5800 N 545.419 -1.53889 0.339982 0
M  V30 5801 C 546.351 -2.22435 -0.55275 0
M  V30 5802 C 547.364 -1.22975 -1.06681 0
M  V30 5803 O 548.553 -1.49351 -0.977575 0
M  V30 5804 C 545.653 -2.8882 -1.77302 0
M  V30 5805 C 544.826 -4.14563 -1.39486 0
M  V30 5806 C 543.885 -4.64391 -2.47442 0
M  V30 5807 O 542.911 -5.28687 -2.10899 0
M  V30 5808 N 544.113 -4.40015 -3.78639 0
M  V30 5809 H 546.878 -2.9968 0.0342669 0
M  V30 5810 H 544.439 -1.61068 0.16394 0
M  V30 5811 H 546.431 -3.19072 -2.48948 0
M  V30 5812 H 545.001 -2.15182 -2.26749 0
M  V30 5813 H 544.221 -3.90896 -0.509321 0
M  V30 5814 H 545.509 -4.96362 -1.11813 0
M  V30 5815 H 544.907 -3.88586 -4.11118 0
M  V30 5816 H 543.464 -4.74881 -4.46465 0
M  V30 5817 N 546.897 -0.0685191 -1.57451 0
M  V30 5818 C 547.807 0.914677 -2.16034 0
M  V30 5819 C 548.823 1.32938 -1.12265 0
M  V30 5820 O 549.999 1.40275 -1.44516 0
M  V30 5821 C 547.064 2.16519 -2.70777 0
M  V30 5822 C 546.125 1.80721 -3.89408 0
M  V30 5823 C 545.358 2.9981 -4.41531 0
M  V30 5824 O 545.581 4.13727 -3.92666 0
M  V30 5825 O 544.515 2.79817 -5.32903 0
M  V30 5826 H 548.341 0.446364 -3.00402 0
M  V30 5827 H 545.926 0.154367 -1.486 0
M  V30 5828 H 547.808 2.89856 -3.05878 0
M  V30 5829 H 546.483 2.62454 -1.89471 0
M  V30 5830 H 545.39 1.04646 -3.59166 0
M  V30 5831 H 546.723 1.39571 -4.71997 0
M  V30 5832 N 548.375 1.56261 0.205012 0
M  V30 5833 C 549.624 1.79236 0.925058 0
M  V30 5834 C 549.937 0.640011 1.84833 0
M  V30 5835 O 551.143 0.753809 2.60826 0
M  V30 5836 C 549.599 3.17475 1.69522 0
M  V30 5837 C 549.207 4.40482 0.817269 0
M  V30 5838 C 550.951 3.49766 2.4055 0
M  V30 5839 C 548.858 5.69744 1.58573 0
M  V30 5840 H 547.788 0.668287 0.349153 0
M  V30 5841 H 550.439 1.82629 0.178544 0
M  V30 5842 H 548.821 3.08304 2.48526 0
M  V30 5843 H 549.995 4.60752 0.0665988 0
M  V30 5844 H 548.31 4.15827 0.218316 0
M  V30 5845 H 550.907 4.43573 2.98575 0
M  V30 5846 H 551.25 2.73041 3.14252 0
M  V30 5847 H 551.783 3.60341 1.68522 0
M  V30 5848 H 548.522 6.49407 0.891679 0
M  V30 5849 H 548.042 5.53509 2.31059 0
M  V30 5850 H 549.721 6.1051 2.14212 0
M  V30 5851 N 549.853 -0.472356 1.50355 0
M  V30 5852 C 551.1 -1.22453 1.61281 0
M  V30 5853 C 551.428 -1.91972 0.31256 0
M  V30 5854 O 550.683 -1.82696 -0.701475 0
M  V30 5855 C 550.982 -2.29257 2.74182 0
M  V30 5856 C 550.648 -1.76999 4.14708 0
M  V30 5857 C 549.31 -1.62467 4.52944 0
M  V30 5858 C 551.662 -1.38215 5.0254 0
M  V30 5859 C 548.99 -1.07574 5.76754 0
M  V30 5860 C 551.342 -0.847638 6.26895 0
M  V30 5861 C 550.006 -0.688946 6.63935 0
M  V30 5862 H 549.276 -0.448087 0.590168 0
M  V30 5863 H 551.923 -0.520744 1.84284 0
M  V30 5864 H 550.228 -3.05538 2.45263 0
M  V30 5865 H 551.925 -2.87212 2.7984 0
M  V30 5866 H 548.515 -1.89276 3.84542 0
M  V30 5867 H 552.699 -1.48276 4.73633 0
M  V30 5868 H 547.955 -0.940237 6.04127 0
M  V30 5869 H 552.129 -0.538455 6.94315 0
M  V30 5870 H 549.756 -0.261435 7.5975 0
M  V30 5871 N 551.331 -1.39911 -0.725443 0
M  V30 5872 C 552.279 -1.39552 -1.86086 0
M  V30 5873 C 553.273 -0.277334 -1.67114 0
M  V30 5874 O 554.479 -0.447865 -1.74339 0
M  V30 5875 H 550.854 -0.435993 -0.612711 0
M  V30 5876 H 552.825 -2.35305 -1.83505 0
M  V30 5877 C 551.574 -1.26529 -3.2386 0
M  V30 5878 H 550.897 -2.11845 -3.3906 0
M  V30 5879 H 552.337 -1.30336 -4.03471 0
M  V30 5880 C 550.796 0.0254168 -3.3689 0
M  V30 5881 O 551.326 0.992048 -3.89257 0
M  V30 5882 N 549.532 0.0916528 -2.90455 0
M  V30 5883 H 549.079 -0.695675 -2.48028 0
M  V30 5884 H 549.037 0.954745 -2.99553 0
M  V30 5885 N 552.809 0.956637 -1.25245 0
M  V30 5886 C 553.756 2.053 -1.05454 0
M  V30 5887 C 554.726 1.66062 0.0356889 0
M  V30 5888 O 555.911 1.90415 -0.121099 0
M  V30 5889 C 553.051 3.38391 -0.677191 0
M  V30 5890 C 552.164 3.90758 -1.84206 0
M  V30 5891 C 551.299 5.12165 -1.40926 0
M  V30 5892 C 550.338 5.56757 -2.54338 0
M  V30 5893 N 549.475 6.69376 -2.11848 0
M  V30 5894 H 554.315 2.21562 -1.99284 0
M  V30 5895 H 551.852 1.08578 -0.992434 0
M  V30 5896 H 553.81 4.1488 -0.43938 0
M  V30 5897 H 552.44 3.22021 0.224127 0
M  V30 5898 H 551.492 3.10808 -2.19323 0
M  V30 5899 H 552.804 4.19802 -2.69383 0
M  V30 5900 H 551.958 5.96065 -1.13098 0
M  V30 5901 H 550.697 4.84832 -0.528175 0
M  V30 5902 H 549.702 4.71423 -2.82913 0
M  V30 5903 H 550.927 5.861 -3.43022 0
M  V30 5904 H 548.873 6.43756 -1.26153 0
M  V30 5905 H 548.79 6.97927 -2.90574 0
M  V30 5906 H 550.058 7.5669 -1.87191 0
M  V30 5907 N 554.287 1.06798 1.15896 0
M  V30 5908 C 555.517 0.807522 1.90165 0
M  V30 5909 C 555.925 -0.642417 1.7796 0
M  V30 5910 O 555.268 -1.45193 1.12537 0
M  V30 5911 C 555.33 1.12939 3.41299 0
M  V30 5912 C 554.994 2.57879 3.7729 0
M  V30 5913 C 555.991 3.56118 3.78782 0
M  V30 5914 C 553.676 2.93311 4.07767 0
M  V30 5915 C 555.67 4.87827 4.10248 0
M  V30 5916 C 553.357 4.25219 4.38899 0
M  V30 5917 C 554.355 5.22287 4.4012 0
M  V30 5918 O 554.043 6.51826 4.70508 0
M  V30 5919 H 553.775 0.291946 0.609708 0
M  V30 5920 H 556.329 1.42627 1.47806 0
M  V30 5921 H 554.559 0.45359 3.84031 0
M  V30 5922 H 556.248 0.852363 3.9685 0
M  V30 5923 H 557.014 3.30086 3.55342 0
M  V30 5924 H 552.893 2.18409 4.05979 0
M  V30 5925 H 556.437 5.63586 4.11116 0
M  V30 5926 H 552.334 4.51006 4.61805 0
M  V30 5927 H 553.102 6.56893 4.88298 0
M  V30 5928 N 555.766 -1.3263 0.851289 0
M  V30 5929 C 556.714 -2.30882 0.282202 0
M  V30 5930 C 557.708 -1.58697 -0.592589 0
M  V30 5931 O 558.914 -1.73461 -0.480768 0
M  V30 5932 H 555.289 -0.748492 0.0725487 0
M  V30 5933 H 557.26 -2.76374 1.12516 0
M  V30 5934 C 556.009 -3.43828 -0.517449 0
M  V30 5935 H 555.332 -3.99532 0.146392 0
M  V30 5936 H 556.772 -4.1474 -0.88128 0
M  V30 5937 C 555.231 -2.90786 -1.70133 0
M  V30 5938 O 555.761 -2.88 -2.80034 0
M  V30 5939 N 553.967 -2.4723 -1.52728 0
M  V30 5940 H 553.514 -2.49695 -0.633257 0
M  V30 5941 H 553.472 -2.12094 -2.32085 0
M  V30 5942 N 557.244 -0.608902 -1.45362 0
M  V30 5943 C 558.191 0.109172 -2.30542 0
M  V30 5944 C 559.161 0.858704 -1.42181 0
M  V30 5945 O 560.346 0.844178 -1.71109 0
M  V30 5946 C 557.486 1.09971 -3.27109 0
M  V30 5947 C 556.599 0.350911 -4.30572 0
M  V30 5948 C 555.734 1.33129 -5.14247 0
M  V30 5949 C 554.773 0.570377 -6.09437 0
M  V30 5950 N 553.91 1.5001 -6.85887 0
M  V30 5951 H 558.75 -0.623195 -2.91411 0
M  V30 5952 H 556.287 -0.319122 -1.43597 0
M  V30 5953 H 558.245 1.68714 -3.81564 0
M  V30 5954 H 556.875 1.79947 -2.67991 0
M  V30 5955 H 555.927 -0.352054 -3.78767 0
M  V30 5956 H 557.239 -0.242725 -4.98209 0
M  V30 5957 H 556.393 1.99074 -5.73109 0
M  V30 5958 H 555.132 1.95885 -4.46632 0
M  V30 5959 H 554.137 -0.102702 -5.49704 0
M  V30 5960 H 555.362 -0.0521607 -6.7908 0
M  V30 5961 H 553.308 2.11529 -6.2096 0
M  V30 5962 H 553.225 0.959934 -7.49881 0
M  V30 5963 H 554.493 2.14909 -7.49289 0
M  V30 5964 N 558.722 1.53707 -0.348139 0
M  V30 5965 C 559.999 1.93247 0.302475 0
M  V30 5966 C 560.379 1.28012 1.67857 0
M  V30 5967 O 559.727 0.43274 2.24365 0
M  V30 5968 C 559.937 3.47031 0.370159 0
M  V30 5969 C 561.285 4.20066 0.61882 0
M  V30 5970 O 562.309 3.53319 0.452087 0
M  V30 5971 O 561.168 5.38318 0.94215 0
M  V30 5972 H 558.262 0.807736 0.177458 0
M  V30 5973 H 560.808 1.64927 -0.399651 0
M  V30 5974 H 559.58 3.86745 -0.59534 0
M  V30 5975 H 559.203 3.81532 1.11888 0
M  V30 5976 N 560.2 0.0768682 1.57412 0
M  V30 5977 C 561.147 -0.888577 2.13009 0
M  V30 5978 C 562.117 -1.29198 1.0439 0
M  V30 5979 O 563.302 -1.37694 1.3208 0
M  V30 5980 C 560.442 -2.14899 2.70023 0
M  V30 5981 C 559.555 -1.79777 3.92816 0
M  V30 5982 C 558.69 -3.00467 4.38056 0
M  V30 5983 C 557.729 -2.61385 5.53484 0
M  V30 5984 N 556.866 -3.74851 5.93659 0
M  V30 5985 H 561.706 -0.407593 2.95199 0
M  V30 5986 H 559.243 -0.189534 1.45874 0
M  V30 5987 H 561.201 -2.88688 3.0119 0
M  V30 5988 H 559.831 -2.60529 1.9059 0
M  V30 5989 H 558.883 -0.960301 3.68079 0
M  V30 5990 H 560.195 -1.47027 4.76639 0
M  V30 5991 H 559.349 -3.82529 4.7091 0
M  V30 5992 H 558.088 -3.36413 3.53097 0
M  V30 5993 H 557.093 -1.77746 5.20275 0
M  V30 5994 H 558.318 -2.26603 6.40178 0
M  V30 5995 H 556.264 -4.1055 5.11649 0
M  V30 5996 H 556.181 -3.45887 6.72234 0
M  V30 5997 H 557.449 -4.57477 6.31138 0
M  V30 5998 N 561.678 -1.56367 -0.196722 0
M  V30 5999 C 562.625 -1.94417 -1.24382 0
M  V30 6000 C 563.595 -0.804543 -1.45315 0
M  V30 6001 O 564.78 -1.06256 -1.58475 0
M  V30 6002 C 561.92 -2.28757 -2.58388 0
M  V30 6003 C 561.033 -3.55775 -2.45047 0
M  V30 6004 C 560.168 -3.79445 -3.71746 0
M  V30 6005 C 559.207 -4.99894 -3.53231 0
M  V30 6006 N 558.344 -5.19826 -4.71938 0
M  V30 6007 H 563.184 -2.83691 -0.912338 0
M  V30 6008 H 560.721 -1.40392 -0.439135 0
M  V30 6009 H 562.679 -2.46682 -3.36457 0
M  V30 6010 H 561.309 -1.42625 -2.89582 0
M  V30 6011 H 560.361 -3.45905 -1.58284 0
M  V30 6012 H 561.673 -4.44 -2.27299 0
M  V30 6013 H 560.827 -3.97601 -4.58256 0
M  V30 6014 H 559.566 -2.89546 -3.92446 0
M  V30 6015 H 558.571 -4.81662 -2.65107 0
M  V30 6016 H 559.796 -5.913 -3.33978 0
M  V30 6017 H 557.742 -4.32875 -4.92905 0
M  V30 6018 H 557.659 -6.02228 -4.57009 0
M  V30 6019 H 558.927 -5.42439 -5.59803 0
M  V30 6020 N 563.156 0.464375 -1.50603 0
M  V30 6021 C 564.402 1.21776 -1.62168 0
M  V30 6022 C 564.735 1.91476 -0.324154 0
M  V30 6023 O 564.01 1.8242 0.674782 0
M  V30 6024 C 564.293 2.25614 -2.80661 0
M  V30 6025 C 564.146 1.60175 -4.20314 0
M  V30 6026 C 565.465 3.26862 -2.94702 0
M  V30 6027 H 562.584 0.44137 -0.590222 0
M  V30 6028 H 565.226 0.510623 -1.8301 0
M  V30 6029 H 563.376 2.85923 -2.63021 0
M  V30 6030 H 565.048 1.03411 -4.4956 0
M  V30 6031 H 563.291 0.904697 -4.24261 0
M  V30 6032 H 563.962 2.35665 -4.99165 0
M  V30 6033 H 566.438 2.76582 -3.10872 0
M  V30 6034 H 565.314 3.96839 -3.79223 0
M  V30 6035 H 565.575 3.91382 -2.05603 0
M  V30 6036 N 564.634 1.40294 0.718013 0
M  V30 6037 C 566.05 1.2227 1.02577 0
M  V30 6038 C 566.25 0.0961976 2.0127 0
M  V30 6039 O 565.306 -0.546695 2.46511 0
M  V30 6040 C 566.619 2.56348 1.57182 0
M  V30 6041 C 568.167 2.6334 1.69178 0
M  V30 6042 C 568.642 3.9768 2.27188 0
M  V30 6043 N 570.133 3.99409 2.34578 0
M  V30 6044 C 570.868 5.00141 2.8044 0
M  V30 6045 N 570.364 6.11268 3.26073 0
M  V30 6046 N 572.157 4.87511 2.79802 0
M  V30 6047 H 564.308 2.12304 0.0637899 0
M  V30 6048 H 566.571 0.943632 0.0909036 0
M  V30 6049 H 566.277 3.3942 0.921262 0
M  V30 6050 H 566.151 2.77266 2.55741 0
M  V30 6051 H 568.538 1.80641 2.33351 0
M  V30 6052 H 568.619 2.46255 0.692247 0
M  V30 6053 H 568.263 4.80817 1.63638 0
M  V30 6054 H 568.193 4.12093 3.27852 0
M  V30 6055 H 570.684 3.19162 2.02346 0
M  V30 6056 H 570.997 6.84023 3.59628 0
M  V30 6057 H 569.342 6.14837 3.24038 0
M  V30 6058 H 572.533 3.9979 2.43487 0
M  V30 6059 H 572.706 5.66158 3.15228 0
M  V30 6060 N 566.112 -0.949982 1.2575 0
M  V30 6061 C 567.358 -1.69766 1.10938 0
M  V30 6062 C 567.691 -1.91056 -0.348028 0
M  V30 6063 O 566.966 -1.48488 -1.25625 0
M  V30 6064 C 567.249 -3.07779 1.86933 0
M  V30 6065 C 567.102 -2.9387 3.4053 0
M  V30 6066 C 568.421 -4.07749 1.65616 0
M  V30 6067 H 565.54 -0.616144 0.404396 0
M  V30 6068 H 568.182 -1.10394 1.54639 0
M  V30 6069 H 566.332 -3.58462 1.4979 0
M  V30 6070 H 568.004 -2.50476 3.87375 0
M  V30 6071 H 566.247 -2.29686 3.68004 0
M  V30 6072 H 566.918 -3.91719 3.88922 0
M  V30 6073 H 569.394 -3.65994 1.97959 0
M  V30 6074 H 568.27 -5.02348 2.21218 0
M  V30 6075 H 568.531 -4.38029 0.598595 0
M  V30 6076 N 567.59 -1.07411 -1.15328 0
M  V30 6077 C 568.837 -0.797649 -1.86128 0
M  V30 6078 C 569.165 0.676298 -1.82364 0
M  V30 6079 O 568.42 1.51223 -1.24218 0
M  V30 6080 C 568.719 -1.25191 -3.34757 0
M  V30 6081 C 568.385 -2.73191 -3.58716 0
M  V30 6082 C 567.047 -3.13616 -3.64964 0
M  V30 6083 C 569.399 -3.68718 -3.6837 0
M  V30 6084 C 566.727 -4.48383 -3.78377 0
M  V30 6085 C 569.079 -5.03248 -3.83306 0
M  V30 6086 C 567.743 -5.43293 -3.878 0
M  V30 6087 H 567.013 -0.29188 -0.681092 0
M  V30 6088 H 569.66 -1.34524 -1.36292 0
M  V30 6089 H 567.965 -0.623712 -3.86804 0
M  V30 6090 H 569.662 -1.01489 -3.87945 0
M  V30 6091 H 566.252 -2.40898 -3.54494 0
M  V30 6092 H 570.436 -3.38614 -3.62842 0
M  V30 6093 H 565.692 -4.78877 -3.80114 0
M  V30 6094 H 569.866 -5.77142 -3.89718 0
M  V30 6095 H 567.493 -6.47721 -3.97946 0
M  V30 6096 N 569.068 1.32177 -0.85831 0
M  V30 6097 C 570.296 2.01313 -0.477582 0
M  V30 6098 C 570.711 1.6449 0.926736 0
M  V30 6099 O 570.068 0.868096 1.60531 0
M  V30 6100 C 570.119 3.56293 -0.611337 0
M  V30 6101 O 569.84 3.91794 -1.96034 0
M  V30 6102 C 571.341 4.42702 -0.230093 0
M  V30 6103 H 568.561 0.644323 -0.187322 0
M  V30 6104 H 571.105 1.68674 -1.15626 0
M  V30 6105 H 569.26 3.87395 0.0196494 0
M  V30 6106 H 569.674 4.86513 -1.95973 0
M  V30 6107 H 571.148 5.50727 -0.374674 0
M  V30 6108 H 571.625 4.3129 0.829779 0
M  V30 6109 H 572.231 4.16997 -0.836302 0
M  V30 6110 N 570.547 0.616602 1.45037 0
M  V30 6111 C 571.794 0.115331 2.02171 0
M  V30 6112 C 572.122 -1.25748 1.48383 0
M  V30 6113 O 571.377 -1.84511 0.652229 0
M  V30 6114 C 571.676 0.0356829 3.57382 0
M  V30 6115 C 571.342 1.34535 4.30362 0
M  V30 6116 C 570.004 1.70408 4.50016 0
M  V30 6117 C 572.356 2.21049 4.72003 0
M  V30 6118 C 569.684 2.92529 5.0857 0
M  V30 6119 C 572.036 3.42427 5.31908 0
M  V30 6120 C 570.7 3.78541 5.49784 0
M  V30 6121 H 569.97 0.0422024 0.739797 0
M  V30 6122 H 572.617 0.80002 1.73988 0
M  V30 6123 H 570.922 -0.732314 3.84895 0
M  V30 6124 H 572.619 -0.368463 3.99304 0
M  V30 6125 H 569.209 1.05615 4.15383 0
M  V30 6126 H 573.393 1.94632 4.56544 0
M  V30 6127 H 568.649 3.20605 5.20598 0
M  V30 6128 H 572.823 4.09709 5.63127 0
M  V30 6129 H 570.45 4.73255 5.94923 0
M  V30 6130 N 572.025 -1.5352 0.356285 0
M  V30 6131 C 573.25 -2.06007 -0.239961 0
M  V30 6132 C 573.675 -1.22872 -1.42422 0
M  V30 6133 O 573.033 -0.245516 -1.7963 0
M  V30 6134 C 573.081 -3.5522 -0.620587 0
M  V30 6135 O 572.185 -3.74864 -1.71902 0
M  V30 6136 H 571.526 -0.662961 -0.0371377 0
M  V30 6137 H 574.056 -1.98033 0.514194 0
M  V30 6138 H 574.066 -3.98081 -0.894197 0
M  V30 6139 H 572.741 -4.15175 0.245407 0
M  V30 6140 H 571.318 -3.43904 -1.44169 0
M  V30 6141 N 573.503 -0.0852151 -1.57369 0
M  V30 6142 C 574.749 0.581666 -1.94279 0
M  V30 6143 C 575.082 1.68444 -0.966446 0
M  V30 6144 O 574.357 1.945 0.00215277 0
M  V30 6145 C 574.64 1.14609 -3.41375 0
M  V30 6146 C 574.493 0.0490414 -4.49773 0
M  V30 6147 C 575.812 2.04751 -3.8957 0
M  V30 6148 H 572.931 0.209972 -0.706456 0
M  V30 6149 H 575.573 -0.153915 -1.89376 0
M  V30 6150 H 573.723 1.77297 -3.45685 0
M  V30 6151 H 575.395 -0.584721 -4.57579 0
M  V30 6152 H 573.638 -0.618638 -4.29366 0
M  V30 6153 H 574.309 0.484601 -5.49869 0
M  V30 6154 H 576.785 1.51981 -3.87351 0
M  V30 6155 H 575.661 2.41173 -4.93079 0
M  V30 6156 H 575.922 2.96107 -3.28288 0
M  V30 6157 N 574.981 1.5647 0.188427 0
M  V30 6158 C 576.229 1.80655 0.905986 0
M  V30 6159 C 576.55 0.659391 1.83513 0
M  V30 6160 O 575.82 -0.321868 1.93238 0
M  V30 6161 H 574.4 0.666391 0.337538 0
M  V30 6162 H 577.062 1.93949 0.192339 0
M  V30 6163 H 576.158 2.74066 1.49313 0
M  V30 6164 N 576.459 -0.456382 1.50847 0
M  V30 6165 C 577.391 -1.57033 1.66953 0
M  V30 6166 C 578.404 -1.53207 0.550593 0
M  V30 6167 O 579.593 -1.58328 0.824285 0
M  V30 6168 C 576.693 -2.95937 1.65149 0
M  V30 6169 C 575.866 -3.24475 2.93317 0
M  V30 6170 C 574.925 -4.43007 2.83957 0
M  V30 6171 O 573.951 -4.42592 3.57912 0
M  V30 6172 N 575.153 -5.45503 1.9851 0
M  V30 6173 H 577.918 -1.43629 2.63042 0
M  V30 6174 H 575.479 -0.645037 1.48495 0
M  V30 6175 H 577.471 -3.73224 1.56481 0
M  V30 6176 H 576.041 -3.03036 0.767343 0
M  V30 6177 H 575.261 -2.35664 3.16 0
M  V30 6178 H 576.549 -3.4036 3.78196 0
M  V30 6179 H 575.947 -5.48668 1.37766 0
M  V30 6180 H 574.504 -6.21716 1.95735 0
M  V30 6181 N 577.937 -1.40673 -0.710563 0
M  V30 6182 C 578.887 -1.37812 -1.81636 0
M  V30 6183 C 579.871 -0.254853 -1.58869 0
M  V30 6184 O 581.063 -0.494356 -1.69956 0
M  V30 6185 C 578.192 -1.24802 -3.19811 0
M  V30 6186 C 577.278 -2.41931 -3.48325 0
M  V30 6187 N 577.669 -3.67411 -3.47625 0
M  V30 6188 C 575.967 -2.35419 -3.78806 0
M  V30 6189 C 576.668 -4.45008 -3.74623 0
M  V30 6190 N 575.644 -3.74916 -3.93623 0
M  V30 6191 H 579.446 -2.32766 -1.79436 0
M  V30 6192 H 576.96 -1.34516 -0.909909 0
M  V30 6193 H 578.957 -1.20835 -3.99004 0
M  V30 6194 H 577.617 -0.308202 -3.23234 0
M  V30 6195 H 578.628 -4.00503 -3.28356 0
M  V30 6196 H 575.305 -1.4983 -3.89689 0
M  V30 6197 H 576.695 -5.53884 -3.80344 0
M  V30 6198 N 579.415 0.9433 -1.26252 0
M  V30 6199 C 580.363 2.06302 -1.07434 0
M  V30 6200 C 581.357 1.694 -0.00189471 0
M  V30 6201 O 582.563 1.79302 -0.158408 0
M  V30 6202 H 578.938 0.675453 -0.330556 0
M  V30 6203 H 580.909 2.19326 -2.02333 0
M  V30 6204 C 579.658 3.40125 -0.721817 0
M  V30 6205 H 578.981 3.68996 -1.5389 0
M  V30 6206 H 580.421 4.19295 -0.629922 0
M  V30 6207 C 578.88 3.31993 0.572902 0
M  V30 6208 O 579.41 3.67945 1.61182 0
M  V30 6209 N 577.616 2.85099 0.562748 0
M  V30 6210 H 577.163 2.5604 -0.283092 0
M  V30 6211 H 577.121 2.80041 1.42915 0
M  V30 6212 N 580.893 1.08022 1.14757 0
M  V30 6213 C 582.123 0.827646 1.89298 0
M  V30 6214 C 582.531 -0.623506 1.78631 0
M  V30 6215 O 581.874 -1.43991 1.14071 0
M  V30 6216 C 581.936 1.16553 3.40082 0
M  V30 6217 C 581.6 2.61866 3.74533 0
M  V30 6218 C 582.597 3.60116 3.74984 0
M  V30 6219 C 580.282 2.97619 4.04633 0
M  V30 6220 C 582.276 4.92151 4.05051 0
M  V30 6221 C 579.963 4.2985 4.34364 0
M  V30 6222 C 580.961 5.26926 4.34555 0
M  V30 6223 O 580.649 6.5678 4.63568 0
M  V30 6224 H 580.381 0.298396 0.606577 0
M  V30 6225 H 582.935 1.44187 1.46285 0
M  V30 6226 H 581.165 0.494296 3.83528 0
M  V30 6227 H 582.854 0.894407 3.95923 0
M  V30 6228 H 583.62 3.33837 3.51821 0
M  V30 6229 H 579.499 2.22702 4.03639 0
M  V30 6230 H 583.043 5.67915 4.05115 0
M  V30 6231 H 578.94 4.55879 4.56995 0
M  V30 6232 H 579.708 6.62035 4.81303 0
M  V30 6233 N 582.371 -1.3172 0.865308 0
M  V30 6234 C 583.648 -1.91574 0.394789 0
M  V30 6235 C 584.028 -1.78769 -1.12271 0
M  V30 6236 O 583.376 -1.19245 -1.94918 0
M  V30 6237 C 583.586 -3.37957 0.870982 0
M  V30 6238 C 584.934 -4.15073 0.894384 0
M  V30 6239 O 585.958 -3.4672 0.816325 0
M  V30 6240 O 584.817 -5.37151 1.00651 0
M  V30 6241 H 581.911 -0.818649 0.117229 0
M  V30 6242 H 584.457 -1.4042 0.952913 0
M  V30 6243 H 583.229 -3.41269 1.91444 0
M  V30 6244 H 582.852 -3.96534 0.290907 0
M  V30 6245 N 583.85 -0.624285 -1.44708 0
M  V30 6246 C 585.266 -0.289322 -1.56956 0
M  V30 6247 C 585.466 1.20773 -1.61295 0
M  V30 6248 O 584.522 1.9915 -1.55227 0
M  V30 6249 C 585.835 -0.975215 -2.84447 0
M  V30 6250 C 587.383 -0.952709 -2.98148 0
M  V30 6251 C 587.858 -1.61893 -4.28433 0
M  V30 6252 N 589.349 -1.5852 -4.35231 0
M  V30 6253 C 590.084 -2.06969 -5.34744 0
M  V30 6254 N 589.58 -2.63579 -6.40701 0
M  V30 6255 N 591.373 -1.97638 -5.26209 0
M  V30 6256 H 583.524 -1.59612 -1.40135 0
M  V30 6257 H 585.787 -0.669592 -0.671081 0
M  V30 6258 H 585.493 -2.02999 -2.87201 0
M  V30 6259 H 585.367 -0.508749 -3.73753 0
M  V30 6260 H 587.754 0.093568 -2.94952 0
M  V30 6261 H 587.835 -1.4576 -2.10209 0
M  V30 6262 H 587.479 -2.66463 -4.32389 0
M  V30 6263 H 587.409 -1.08893 -5.15218 0
M  V30 6264 H 589.899 -1.17183 -3.59272 0
M  V30 6265 H 590.213 -2.98298 -7.12908 0
M  V30 6266 H 588.558 -2.67626 -6.41406 0
M  V30 6267 H 591.749 -1.5314 -4.42341 0
M  V30 6268 H 591.922 -2.35708 -6.03611 0
M  V30 6269 N 585.328 1.53329 -0.364422 0
M  V30 6270 C 586.576 2.00842 0.225189 0
M  V30 6271 C 586.897 1.25345 1.49378 0
M  V30 6272 O 586.167 0.366396 1.92443 0
M  V30 6273 H 584.747 0.742009 0.0862027 0
M  V30 6274 H 587.409 1.8863 -0.490389 0
M  V30 6275 H 586.505 3.08795 0.452987 0
M  V30 6276 N 586.806 0.0935595 1.57322 0
M  V30 6277 C 588.217 -0.435807 1.81542 0
M  V30 6278 C 588.568 -1.68263 1.00907 0
M  V30 6279 O 587.693 -2.15087 0.237983 0
M  V30 6280 C 588.288 -0.797436 3.29282 0
M  V30 6281 C 586.847 -1.27155 3.54272 0
M  V30 6282 C 585.994 -0.267455 2.76007 0
M  V30 6283 H 588.945 0.31902 1.5546 0
M  V30 6284 H 588.966 -1.6571 3.42521 0
M  V30 6285 H 588.478 0.110206 3.87943 0
M  V30 6286 H 586.579 -2.19696 3.00939 0
M  V30 6287 H 586.692 -1.23445 4.62923 0
M  V30 6288 H 585.056 -0.749282 2.43429 0
M  V30 6289 H 585.839 0.632839 3.37417 0
M  V30 6290 N 588.284 -1.56567 -0.180126 0
M  V30 6291 C 589.533 -1.80685 -0.896426 0
M  V30 6292 C 589.846 -0.669335 -1.83791 0
M  V30 6293 O 591.052 -0.795209 -2.59593 0
M  V30 6294 C 589.508 -3.20132 -1.6445 0
M  V30 6295 C 589.116 -4.41727 -0.747088 0
M  V30 6296 C 590.86 -3.53549 -2.34955 0
M  V30 6297 C 588.767 -5.72195 -1.49489 0
M  V30 6298 H 587.697 -0.673758 -0.338477 0
M  V30 6299 H 590.348 -1.8289 -0.149467 0
M  V30 6300 H 588.73 -3.12218 -2.43589 0
M  V30 6301 H 589.904 -4.608 0.00671129 0
M  V30 6302 H 588.219 -4.16122 -0.152134 0
M  V30 6303 H 590.816 -4.48267 -2.91481 0
M  V30 6304 H 591.159 -2.78006 -3.09868 0
M  V30 6305 H 591.692 -3.62976 -1.62768 0
M  V30 6306 H 588.431 -6.50743 -0.788251 0
M  V30 6307 H 587.951 -5.57115 -2.22224 0
M  V30 6308 H 589.63 -6.1384 -2.04472 0
M  V30 6309 N 589.762 0.448376 -1.51087 0
M  V30 6310 C 590.694 1.56146 -1.67783 0
M  V30 6311 C 591.707 1.52913 -0.55871 0
M  V30 6312 O 592.896 1.57889 -0.83267 0
M  V30 6313 C 589.996 2.95057 -1.66716 0
M  V30 6314 C 589.169 3.22915 -2.95033 0
M  V30 6315 C 588.228 4.41495 -2.86302 0
M  V30 6316 O 587.254 4.40688 -3.60254 0
M  V30 6317 N 588.456 5.44443 -2.014 0
M  V30 6318 H 591.221 1.42232 -2.638 0
M  V30 6319 H 588.782 0.637153 -1.48835 0
M  V30 6320 H 590.774 3.72388 -1.58458 0
M  V30 6321 H 589.344 3.02624 -0.783403 0
M  V30 6322 H 588.564 2.33985 -3.17245 0
M  V30 6323 H 589.852 3.38349 -3.79996 0
M  V30 6324 H 589.25 5.4793 -1.40674 0
M  V30 6325 H 587.807 6.2067 -1.99029 0
M  V30 6326 N 591.24 1.41047 0.703093 0
M  V30 6327 C 592.486 1.41209 1.46396 0
M  V30 6328 C 592.841 0.0180188 1.92392 0
M  V30 6329 O 592.134 -0.954739 1.66118 0
M  V30 6330 C 592.328 2.34686 2.6955 0
M  V30 6331 C 592.157 3.83044 2.35601 0
M  V30 6332 C 590.927 4.51777 2.26331 0
M  V30 6333 C 593.125 4.74215 1.9906 0
M  V30 6334 N 591.107 5.85302 1.85188 0
M  V30 6335 C 592.478 5.96631 1.68616 0
M  V30 6336 C 594.533 4.61932 1.85805 0
M  V30 6337 C 593.236 7.08134 1.26249 0
M  V30 6338 C 595.262 5.73389 1.44842 0
M  V30 6339 C 594.624 6.94899 1.15304 0
M  V30 6340 H 590.723 0.571951 0.533288 0
M  V30 6341 H 593.307 1.76859 0.814179 0
M  V30 6342 H 591.478 2.01143 3.32259 0
M  V30 6343 H 593.21 2.25618 3.35974 0
M  V30 6344 H 589.965 4.05618 2.44482 0
M  V30 6345 H 590.389 6.56049 1.67119 0
M  V30 6346 H 595.031 3.68494 2.07298 0
M  V30 6347 H 592.749 8.01445 1.035 0
M  V30 6348 H 596.335 5.65886 1.35146 0
M  V30 6349 H 595.215 7.79679 0.840854 0
M  V30 6350 N 592.718 -0.936591 1.26751 0
M  V30 6351 C 593.651 -2.03619 1.03027 0
M  V30 6352 C 594.629 -1.62534 -0.0464619 0
M  V30 6353 O 595.813 -1.88251 0.0968873 0
M  V30 6354 C 592.94 -3.3402 0.561072 0
M  V30 6355 C 591.986 -3.9408 1.63105 0
M  V30 6356 S 592.819 -4.27782 3.22122 0
M  V30 6357 C 593.975 -5.61277 2.76982 0
M  V30 6358 H 594.208 -2.23429 1.96129 0
M  V30 6359 H 591.741 -1.07857 1.10482 0
M  V30 6360 H 593.699 -4.09424 0.297031 0
M  V30 6361 H 592.36 -3.12147 -0.349741 0
M  V30 6362 H 591.553 -4.88154 1.25386 0
M  V30 6363 H 591.155 -3.25227 1.84671 0
M  V30 6364 H 593.447 -6.40189 2.21731 0
M  V30 6365 H 594.39 -6.03887 3.69766 0
M  V30 6366 H 594.798 -5.21374 2.16402 0
M  V30 6367 N 594.196 -1.08629 -1.14182 0
M  V30 6368 C 595.159 -0.722027 -2.1753 0
M  V30 6369 C 596.159 0.244305 -1.58933 0
M  V30 6370 O 597.349 0.0235545 -1.74184 0
M  V30 6371 C 594.481 -0.0663966 -3.40835 0
M  V30 6372 H 595.674 -1.63719 -2.51269 0
M  V30 6373 H 593.227 -0.884442 -1.28869 0
M  V30 6374 H 593.962 0.860389 -3.12678 0
M  V30 6375 H 593.747 -0.761598 -3.84632 0
M  V30 6376 H 595.237 0.173346 -4.1724 0
M  V30 6377 N 595.674 1.31259 -0.872281 0
M  V30 6378 C 596.914 1.98418 -0.490894 0
M  V30 6379 C 597.278 1.67429 0.939755 0
M  V30 6380 O 598.479 2.27818 1.42661 0
M  V30 6381 C 596.75 3.49583 -0.743408 0
M  V30 6382 S 598.309 4.36359 -0.462226 0
M  V30 6383 H 595.127 0.687005 -0.183151 0
M  V30 6384 H 597.729 1.59619 -1.12881 0
M  V30 6385 H 596.433 3.69627 -1.78338 0
M  V30 6386 H 595.964 3.93291 -0.0925758 0
M  V30 6387 H 597.979 4.91173 0.704525 0
M  V30 6388 N 597.152 0.631951 1.44375 0
M  V30 6389 C 598.062 -0.073674 2.34484 0
M  V30 6390 C 599.078 -0.834825 1.52665 0
M  V30 6391 O 600.254 -0.786902 1.85391 0
M  V30 6392 C 597.319 -1.04247 3.30656 0
M  V30 6393 C 596.38 -0.280602 4.28382 0
M  V30 6394 C 595.613 -1.20325 5.19959 0
M  V30 6395 O 595.836 -2.44199 5.15484 0
M  V30 6396 O 594.77 -0.687128 5.97965 0
M  V30 6397 H 598.596 0.667477 2.96274 0
M  V30 6398 H 596.181 0.392144 1.44162 0
M  V30 6399 H 598.063 -1.59981 3.89851 0
M  V30 6400 H 596.738 -1.76422 2.71398 0
M  V30 6401 H 595.645 0.319804 3.72731 0
M  V30 6402 H 596.978 0.401144 4.90563 0
M  V30 6403 N 598.631 -1.53133 0.372548 0
M  V30 6404 C 599.579 -2.27473 -0.485681 0
M  V30 6405 C 600.573 -1.30719 -1.07745 0
M  V30 6406 O 601.779 -1.48321 -1.01985 0
M  V30 6407 H 598.154 -0.731269 -0.175356 0
M  V30 6408 H 600.125 -2.97955 0.162986 0
M  V30 6409 C 598.874 -3.08191 -1.60978 0
M  V30 6410 H 598.197 -3.82488 -1.16373 0
M  V30 6411 H 599.637 -3.63373 -2.18485 0
M  V30 6412 C 598.096 -2.19461 -2.55614 0
M  V30 6413 O 598.626 -1.81008 -3.58607 0
M  V30 6414 N 596.832 -1.83955 -2.24965 0
M  V30 6415 H 596.379 -2.15423 -1.41247 0
M  V30 6416 H 596.337 -1.24874 -2.88538 0
M  V30 6417 N 600.109 -0.101901 -1.5727 0
M  V30 6418 C 601.056 0.854577 -2.14396 0
M  V30 6419 C 602.026 1.27521 -1.06432 0
M  V30 6420 O 603.211 1.35575 -1.34253 0
M  V30 6421 C 600.351 2.10576 -2.73408 0
M  V30 6422 C 599.464 1.73504 -3.95626 0
M  V30 6423 C 598.599 2.9346 -4.42781 0
M  V30 6424 C 597.638 2.52547 -5.57572 0
M  V30 6425 N 596.775 3.65359 -5.99547 0
M  V30 6426 H 601.615 0.360578 -2.9581 0
M  V30 6427 H 599.152 0.166303 -1.46157 0
M  V30 6428 H 601.11 2.83859 -3.05745 0
M  V30 6429 H 599.74 2.57463 -1.94711 0
M  V30 6430 H 598.792 0.901622 -3.6956 0
M  V30 6431 H 600.104 1.39426 -4.78917 0
M  V30 6432 H 599.258 3.74988 -4.76937 0
M  V30 6433 H 597.997 3.30753 -3.58404 0
M  V30 6434 H 597.002 1.69446 -5.23037 0
M  V30 6435 H 598.227 2.1639 -6.43702 0
M  V30 6436 H 596.173 4.02358 -5.18116 0
M  V30 6437 H 596.09 3.35148 -6.77652 0
M  V30 6438 H 597.358 4.47378 -6.38336 0
M  V30 6439 N 601.587 1.56661 0.17182 0
M  V30 6440 C 602.835 1.81606 0.886774 0
M  V30 6441 C 603.156 0.678818 1.82803 0
M  V30 6442 O 602.426 -0.301354 1.93568 0
M  V30 6443 H 601.006 0.669934 0.330451 0
M  V30 6444 H 603.668 1.94142 0.171757 0
M  V30 6445 H 602.764 2.75634 1.46398 0
M  V30 6446 N 603.065 -0.440357 1.51323 0
M  V30 6447 C 604.295 -1.21079 1.67402 0
M  V30 6448 C 604.703 -1.85555 0.369599 0
M  V30 6449 O 604.046 -1.71375 -0.661525 0
M  V30 6450 C 604.108 -2.33839 2.73056 0
M  V30 6451 C 603.772 -1.89755 4.15743 0
M  V30 6452 C 604.769 -1.40268 5.0062 0
M  V30 6453 C 602.454 -1.97539 4.61826 0
M  V30 6454 C 604.448 -0.991474 6.29642 0
M  V30 6455 C 602.135 -1.56029 5.90845 0
M  V30 6456 C 603.133 -1.06915 6.7458 0
M  V30 6457 O 602.821 -0.659933 8.01187 0
M  V30 6458 H 602.553 -0.371133 0.56501 0
M  V30 6459 H 605.107 -0.528409 1.98487 0
M  V30 6460 H 603.337 -3.05345 2.37279 0
M  V30 6461 H 605.026 -2.95713 2.78044 0
M  V30 6462 H 605.792 -1.33652 4.66221 0
M  V30 6463 H 601.671 -2.34713 3.96776 0
M  V30 6464 H 605.215 -0.607425 6.9495 0
M  V30 6465 H 601.112 -1.62315 6.24759 0
M  V30 6466 H 601.88 -0.786052 8.14717 0
M  V30 6467 N 604.543 -1.41418 -0.695603 0
M  V30 6468 C 605.773 -1.43921 -1.48224 0
M  V30 6469 C 606.181 -0.0428855 -1.89151 0
M  V30 6470 O 605.524 0.948138 -1.5734 0
M  V30 6471 C 605.586 -2.28466 -2.77567 0
M  V30 6472 C 605.25 -3.76629 -2.58844 0
M  V30 6473 C 606.247 -4.6879 -2.24793 0
M  V30 6474 C 603.932 -4.2067 -2.74485 0
M  V30 6475 C 605.926 -6.02981 -2.06622 0
M  V30 6476 C 603.613 -5.54926 -2.55931 0
M  V30 6477 C 604.611 -6.45897 -2.2205 0
M  V30 6478 O 604.299 -7.77675 -2.03657 0
M  V30 6479 H 604.031 -0.492252 -0.463318 0
M  V30 6480 H 606.585 -1.86347 -0.863952 0
M  V30 6481 H 604.815 -1.80853 -3.41802 0
M  V30 6482 H 606.504 -2.2267 -3.39371 0
M  V30 6483 H 607.27 -4.36055 -2.12323 0
M  V30 6484 H 603.149 -3.50167 -2.9984 0
M  V30 6485 H 606.693 -6.73951 -1.80099 0
M  V30 6486 H 602.59 -5.8724 -2.67991 0
M  V30 6487 H 603.358 -7.88819 -2.1842 0
M  V30 6488 N 606.021 0.929856 -1.27246 0
M  V30 6489 C 607.251 1.70895 -1.16096 0
M  V30 6490 C 607.659 1.87039 0.285122 0
M  V30 6491 O 607.002 1.38557 1.20614 0
M  V30 6492 C 607.064 3.12919 -1.7698 0
M  V30 6493 C 606.728 3.2012 -3.26148 0
M  V30 6494 C 607.725 3.02533 -4.22812 0
M  V30 6495 C 605.41 3.43148 -3.66817 0
M  V30 6496 C 607.404 3.07861 -5.58122 0
M  V30 6497 C 605.091 3.48109 -5.02258 0
M  V30 6498 C 606.089 3.30483 -5.97721 0
M  V30 6499 O 605.777 3.35175 -7.30694 0
M  V30 6500 H 605.509 0.54152 -0.404639 0
M  V30 6501 H 608.063 1.17342 -1.68582 0
M  V30 6502 H 606.293 3.67945 -1.18969 0
M  V30 6503 H 607.982 3.72787 -1.60576 0
M  V30 6504 H 608.748 2.84586 -3.92728 0
M  V30 6505 H 604.627 3.55918 -2.9299 0
M  V30 6506 H 608.171 2.94021 -6.32612 0
M  V30 6507 H 604.068 3.65579 -5.31998 0
M  V30 6508 H 604.836 3.51644 -7.39114 0
M  V30 6509 N 607.499 1.09233 1.13605 0
M  V30 6510 C 608.409 0.741939 2.22559 0
M  V30 6511 C 609.425 -0.255236 1.72118 0
M  V30 6512 O 610.601 -0.0970747 2.01166 0
M  V30 6513 C 607.666 0.165595 3.46304 0
M  V30 6514 C 606.727 1.21846 4.11645 0
M  V30 6515 C 605.96 0.669526 5.29484 0
M  V30 6516 O 606.183 -0.508228 5.68131 0
M  V30 6517 O 605.117 1.42361 5.84822 0
M  V30 6518 H 608.943 1.65107 2.54899 0
M  V30 6519 H 606.528 0.866584 1.21699 0
M  V30 6520 H 608.41 -0.152592 4.21124 0
M  V30 6521 H 607.085 -0.716573 3.15669 0
M  V30 6522 H 605.992 1.58931 3.38662 0
M  V30 6523 H 607.325 2.07321 4.46407 0
M  V30 6524 N 608.977 -1.30795 0.87923 0
M  V30 6525 C 610.226 -1.95636 0.490875 0
M  V30 6526 C 610.539 -1.70214 -0.963674 0
M  V30 6527 O 611.745 -2.28991 -1.45861 0
M  V30 6528 C 610.201 -3.50271 0.826929 0
M  V30 6529 C 609.809 -3.84521 2.29886 0
M  V30 6530 C 611.553 -4.21456 0.507494 0
M  V30 6531 C 609.46 -5.32309 2.57685 0
M  V30 6532 H 608.39 -0.732238 0.179841 0
M  V30 6533 H 611.041 -1.48829 1.07341 0
M  V30 6534 H 609.423 -3.9562 0.173542 0
M  V30 6535 H 610.597 -3.50102 2.99609 0
M  V30 6536 H 608.912 -3.26425 2.58526 0
M  V30 6537 H 611.509 -5.30199 0.692293 0
M  V30 6538 H 611.852 -4.12614 -0.552718 0
M  V30 6539 H 612.385 -3.81772 1.11782 0
M  V30 6540 H 609.124 -5.46195 3.62424 0
M  V30 6541 H 608.644 -5.68048 1.92566 0
M  V30 6542 H 610.323 -5.99678 2.42889 0
M  V30 6543 N 610.455 -0.639598 -1.44038 0
M  V30 6544 C 611.866 -0.228866 -1.85292 0
M  V30 6545 C 612.217 1.22161 -1.53529 0
M  V30 6546 O 611.342 1.93064 -0.977518 0
M  V30 6547 C 611.937 -0.408592 -3.36327 0
M  V30 6548 C 610.496 -0.0522953 -3.76364 0
M  V30 6549 C 609.643 -0.717959 -2.67844 0
M  V30 6550 H 612.594 -0.844194 -1.34384 0
M  V30 6551 H 612.615 0.349968 -3.78887 0
M  V30 6552 H 612.127 -1.46435 -3.59414 0
M  V30 6553 H 610.228 1.0014 -3.58891 0
M  V30 6554 H 610.341 -0.468261 -4.76806 0
M  V30 6555 H 608.705 -0.152459 -2.54243 0
M  V30 6556 H 609.488 -1.77648 -2.93762 0
M  V30 6557 N 611.933 1.52934 -0.380664 0
M  V30 6558 C 613.158 2.06363 0.207157 0
M  V30 6559 C 613.583 1.25122 1.4045 0
M  V30 6560 O 612.941 0.274062 1.79217 0
M  V30 6561 C 612.989 3.56162 0.563996 0
M  V30 6562 O 612.093 3.77552 1.65917 0
M  V30 6563 H 611.434 0.663468 0.0265859 0
M  V30 6564 H 613.964 1.9719 -0.545635 0
M  V30 6565 H 613.974 3.99453 0.830752 0
M  V30 6566 H 612.649 4.14732 -0.311427 0
M  V30 6567 H 611.226 3.46154 1.3868 0
M  V30 6568 N 613.412 0.11024 1.57214 0
M  V30 6569 C 614.661 -0.549638 1.94067 0
M  V30 6570 C 614.974 -1.68388 0.995234 0
M  V30 6571 O 616.18 -2.40593 1.25807 0
M  V30 6572 C 614.636 -1.02912 3.44873 0
M  V30 6573 C 614.244 0.0761861 4.47935 0
M  V30 6574 C 615.988 -1.66087 3.9066 0
M  V30 6575 C 613.895 -0.419502 5.8991 0
M  V30 6576 H 612.825 -0.209092 0.724428 0
M  V30 6577 H 615.476 0.188683 1.82527 0
M  V30 6578 H 613.858 -1.82159 3.51616 0
M  V30 6579 H 615.032 0.852185 4.52851 0
M  V30 6580 H 613.347 0.614052 4.11847 0
M  V30 6581 H 615.944 -2.04272 4.94143 0
M  V30 6582 H 616.287 -2.53591 3.30148 0
M  V30 6583 H 616.82 -0.933959 3.86681 0
M  V30 6584 H 613.559 0.419277 6.54158 0
M  V30 6585 H 613.079 -1.16217 5.88433 0
M  V30 6586 H 614.758 -0.883577 6.40938 0
M  V30 6587 N 614.89 -1.56749 -0.16351 0
M  V30 6588 C 616.138 -1.82074 -0.87713 0
M  V30 6589 C 616.459 -0.688503 -1.82441 0
M  V30 6590 O 615.729 0.291085 -1.93725 0
M  V30 6591 H 614.309 -0.671677 -0.326893 0
M  V30 6592 H 616.971 -1.9423 -0.161459 0
M  V30 6593 H 616.067 -2.76407 -1.44934 0
M  V30 6594 N 616.368 0.432326 -1.51554 0
M  V30 6595 C 617.331 1.50765 -1.72634 0
M  V30 6596 C 618.331 1.49334 -0.596314 0
M  V30 6597 O 619.521 1.51268 -0.863925 0
M  V30 6598 C 616.653 2.90284 -1.7874 0
M  V30 6599 H 617.846 1.33377 -2.68609 0
M  V30 6600 H 615.399 0.661329 -1.4162 0
M  V30 6601 H 616.134 3.13071 -0.845977 0
M  V30 6602 H 615.919 2.92727 -2.6087 0
M  V30 6603 H 617.409 3.68282 -1.96871 0
M  V30 6604 N 617.846 1.41785 0.688094 0
M  V30 6605 C 619.095 1.4084 1.44385 0
M  V30 6606 C 619.408 0.0234166 1.95586 0
M  V30 6607 O 620.614 -0.108647 2.71283 0
M  V30 6608 C 619.07 2.47675 2.61123 0
M  V30 6609 C 618.678 3.92116 2.16677 0
M  V30 6610 C 620.422 2.55877 3.38714 0
M  V30 6611 C 618.329 4.90487 3.30419 0
M  V30 6612 H 617.259 0.523787 0.542368 0
M  V30 6613 H 619.91 1.6764 0.74627 0
M  V30 6614 H 618.292 2.14018 3.33185 0
M  V30 6615 H 619.466 4.35059 1.51856 0
M  V30 6616 H 617.781 3.87642 1.5206 0
M  V30 6617 H 620.378 3.26553 4.234 0
M  V30 6618 H 620.721 1.59801 3.84408 0
M  V30 6619 H 621.254 2.88662 2.73714 0
M  V30 6620 H 617.993 5.87994 2.89729 0
M  V30 6621 H 617.513 4.52187 3.94065 0
M  V30 6622 H 619.192 5.11591 3.96085 0
M  V30 6623 N 619.324 -0.923095 1.27737 0
M  V30 6624 C 620.74 -1.19985 1.05241 0
M  V30 6625 C 620.94 -2.00391 -0.21113 0
M  V30 6626 O 619.996 -2.35324 -0.915366 0
M  V30 6627 C 621.309 -1.94352 2.29451 0
M  V30 6628 C 622.857 -2.07273 2.34536 0
M  V30 6629 C 623.332 -2.85046 3.58487 0
M  V30 6630 N 624.823 -2.92612 3.59072 0
M  V30 6631 C 625.558 -3.53266 4.51654 0
M  V30 6632 N 625.054 -4.15274 5.54545 0
M  V30 6633 N 626.847 -3.50714 4.39268 0
M  V30 6634 H 618.998 -0.386042 2.08862 0
M  V30 6635 H 621.261 -0.233407 0.918817 0
M  V30 6636 H 620.967 -1.42692 3.21453 0
M  V30 6637 H 620.841 -2.94947 2.3513 0
M  V30 6638 H 623.228 -2.58117 1.43037 0
M  V30 6639 H 623.309 -1.05884 2.32857 0
M  V30 6640 H 622.953 -2.34884 4.50324 0
M  V30 6641 H 622.883 -3.8673 3.57418 0
M  V30 6642 H 625.374 -2.48547 2.84663 0
M  V30 6643 H 625.687 -4.59507 6.21348 0
M  V30 6644 H 624.032 -4.13806 5.58382 0
M  V30 6645 H 627.223 -3.01475 3.58093 0
M  V30 6646 H 627.396 -3.97693 5.1161 0
M  V30 6647 N 620.802 -1.09834 -1.13024 0
M  V30 6648 C 622.051 -0.831806 -1.83749 0
M  V30 6649 C 622.364 0.644763 -1.84668 0
M  V30 6650 O 623.57 1.02697 -2.51327 0
M  V30 6651 C 622.026 -1.43817 -3.29916 0
M  V30 6652 C 621.634 -2.94759 -3.37374 0
M  V30 6653 C 623.378 -1.25077 -4.05655 0
M  V30 6654 C 621.285 -3.48461 -4.77838 0
M  V30 6655 H 620.215 -0.30751 -0.688443 0
M  V30 6656 H 622.866 -1.32156 -1.27307 0
M  V30 6657 H 621.248 -0.876106 -3.86187 0
M  V30 6658 H 622.422 -3.57228 -2.91076 0
M  V30 6659 H 620.737 -3.12581 -2.75103 0
M  V30 6660 H 623.334 -1.62649 -5.09362 0
M  V30 6661 H 623.677 -0.191782 -4.15858 0
M  V30 6662 H 624.21 -1.78057 -3.55725 0
M  V30 6663 H 620.949 -4.53998 -4.72828 0
M  V30 6664 H 620.469 -2.90757 -5.24615 0
M  V30 6665 H 622.148 -3.45914 -5.46766 0
M  V30 6666 N 622.28 1.30327 -0.886154 0
M  V30 6667 C 623.228 2.30052 -0.343317 0
M  V30 6668 C 624.222 1.60212 0.550305 0
M  V30 6669 O 625.428 1.74674 0.434609 0
M  V30 6670 H 621.803 0.746306 -0.0923681 0
M  V30 6671 H 623.774 2.73294 -1.19804 0
M  V30 6672 C 622.523 3.45079 0.426107 0
M  V30 6673 H 621.846 3.99003 -0.25227 0
M  V30 6674 H 623.286 4.16931 0.771009 0
M  V30 6675 C 621.745 2.95195 1.62363 0
M  V30 6676 O 622.275 2.95323 2.723 0
M  V30 6677 N 620.481 2.51192 1.4612 0
M  V30 6678 H 620.028 2.51286 0.566832 0
M  V30 6679 H 619.986 2.18173 2.2638 0
M  V30 6680 N 623.758 0.647228 1.43697 0
M  V30 6681 C 624.986 0.16575 2.06235 0
M  V30 6682 C 625.401 -1.1662 1.48476 0
M  V30 6683 O 624.758 -1.7187 0.613762 0
M  V30 6684 C 624.809 0.0621651 3.61447 0
M  V30 6685 O 624.53 1.34146 4.17057 0
M  V30 6686 C 626.031 -0.446102 4.4105 0
M  V30 6687 H 623.251 0.0871158 0.665321 0
M  V30 6688 H 625.795 0.886183 1.84301 0
M  V30 6689 H 623.95 -0.608794 3.82587 0
M  V30 6690 H 624.364 1.19675 5.10664 0
M  V30 6691 H 625.838 -0.46755 5.50016 0
M  V30 6692 H 626.315 -1.47627 4.13646 0
M  V30 6693 H 626.921 0.192159 4.24866 0
M  V30 6694 N 625.236 -1.5273 0.388769 0
M  V30 6695 C 626.168 -2.24081 -0.481704 0
M  V30 6696 C 627.181 -1.26307 -1.02715 0
M  V30 6697 O 628.37 -1.52386 -0.929565 0
M  V30 6698 C 625.47 -2.94315 -1.68024 0
M  V30 6699 C 624.643 -4.18791 -1.26226 0
M  V30 6700 C 623.702 -4.72028 -2.32542 0
M  V30 6701 O 622.728 -5.35129 -1.93972 0
M  V30 6702 N 623.93 -4.51838 -3.64448 0
M  V30 6703 H 626.695 -2.9942 0.129591 0
M  V30 6704 H 624.256 -1.60465 0.2151 0
M  V30 6705 H 626.248 -3.26831 -2.38671 0
M  V30 6706 H 624.818 -2.22287 -2.19789 0
M  V30 6707 H 624.038 -3.92318 -0.384703 0
M  V30 6708 H 625.326 -4.99668 -0.959647 0
M  V30 6709 H 624.724 -4.01468 -3.98547 0
M  V30 6710 H 623.281 -4.88845 -4.31131 0
M  V30 6711 N 626.714 -0.118576 -1.57153 0
M  V30 6712 C 627.624 0.845484 -2.18835 0
M  V30 6713 C 628.64 1.29299 -1.16438 0
M  V30 6714 O 629.816 1.35607 -1.48905 0
M  V30 6715 C 626.881 2.07795 -2.77529 0
M  V30 6716 C 625.942 1.6824 -3.9496 0
M  V30 6717 C 625.175 2.85612 -4.50845 0
M  V30 6718 O 625.398 4.01025 -4.05629 0
M  V30 6719 O 624.332 2.62721 -5.41536 0
M  V30 6720 H 628.158 0.350568 -3.0167 0
M  V30 6721 H 625.743 0.107013 -1.49016 0
M  V30 6722 H 627.625 2.79978 -3.14945 0
M  V30 6723 H 626.3 2.56294 -1.97725 0
M  V30 6724 H 625.207 0.931663 -3.62313 0
M  V30 6725 H 626.54 1.24484 -4.76198 0
M  V30 6726 N 628.193 1.56834 0.155195 0
M  V30 6727 C 629.423 1.86778 0.883044 0
M  V30 6728 C 629.831 0.703824 1.75622 0
M  V30 6729 O 629.174 -0.33581 1.80605 0
M  V30 6730 C 629.236 3.1133 1.79761 0
M  V30 6731 C 628.9 4.43504 1.10242 0
M  V30 6732 C 629.897 5.17859 0.460204 0
M  V30 6733 C 627.582 4.90233 1.09437 0
M  V30 6734 C 629.576 6.37144 -0.180782 0
M  V30 6735 C 627.263 6.09444 0.449569 0
M  V30 6736 C 628.261 6.82744 -0.186888 0
M  V30 6737 O 627.949 7.99692 -0.821486 0
M  V30 6738 H 627.681 0.62352 0.261149 0
M  V30 6739 H 630.235 2.04813 0.155204 0
M  V30 6740 H 628.465 2.89282 2.56618 0
M  V30 6741 H 630.154 3.27587 2.39669 0
M  V30 6742 H 630.92 4.8283 0.458289 0
M  V30 6743 H 626.799 4.33109 1.57917 0
M  V30 6744 H 630.343 6.94296 -0.678154 0
M  V30 6745 H 626.24 6.43936 0.449123 0
M  V30 6746 H 627.008 8.15306 -0.722337 0
M  V30 6747 N 629.671 -0.424282 1.51781 0
M  V30 6748 C 630.601 -1.52305 1.7699 0
M  V30 6749 C 631.582 -1.5839 0.620209 0
M  V30 6750 O 632.767 -1.73908 0.864268 0
M  V30 6751 C 629.897 -2.90271 1.90683 0
M  V30 6752 C 628.851 -2.99043 3.06198 0
M  V30 6753 C 628.177 -4.39116 3.05092 0
M  V30 6754 C 629.477 -2.7192 4.45934 0
M  V30 6755 H 631.171 -1.31461 2.68995 0
M  V30 6756 H 628.717 -0.630985 1.29439 0
M  V30 6757 H 630.67 -3.6711 2.06901 0
M  V30 6758 H 629.394 -3.12376 0.953365 0
M  V30 6759 H 628.053 -2.24646 2.89706 0
M  V30 6760 H 627.701 -4.58207 2.07498 0
M  V30 6761 H 627.401 -4.45912 3.82669 0
M  V30 6762 H 628.925 -5.17911 3.2342 0
M  V30 6763 H 630.339 -3.38487 4.62709 0
M  V30 6764 H 628.736 -2.90111 5.25315 0
M  V30 6765 H 629.806 -1.67445 4.55072 0
M  V30 6766 N 631.149 -1.42148 -0.680565 0
M  V30 6767 C 632.426 -1.32795 -1.43614 0
M  V30 6768 C 632.806 0.037415 -2.11067 0
M  V30 6769 O 632.154 1.05258 -2.02813 0
M  V30 6770 C 632.364 -2.49206 -2.44331 0
M  V30 6771 C 633.712 -2.91059 -3.09144 0
M  V30 6772 O 634.736 -2.49054 -2.54657 0
M  V30 6773 O 633.595 -3.63741 -4.07866 0
M  V30 6774 H 630.689 -0.523397 -0.640301 0
M  V30 6775 H 633.235 -1.54144 -0.709775 0
M  V30 6776 H 632.007 -3.40252 -1.93247 0
M  V30 6777 H 631.63 -2.29813 -3.24456 0
M  V30 6778 N 632.627 0.916307 -1.28225 0
M  V30 6779 C 633.873 1.66765 -1.154 0
M  V30 6780 C 634.206 1.91912 0.297251 0
M  V30 6781 O 633.481 1.51766 1.21644 0
M  V30 6782 C 633.764 3.02715 -1.95028 0
M  V30 6783 C 633.617 2.84738 -3.48201 0
M  V30 6784 C 634.936 4.03215 -1.76369 0
M  V30 6785 H 632.055 0.605205 -0.42059 0
M  V30 6786 H 634.697 1.06255 -1.57512 0
M  V30 6787 H 632.847 3.54365 -1.59242 0
M  V30 6788 H 634.519 2.40118 -3.9388 0
M  V30 6789 H 632.762 2.19848 -3.73964 0
M  V30 6790 H 633.433 3.8127 -3.99171 0
M  V30 6791 H 635.909 3.60617 -2.07593 0
M  V30 6792 H 634.785 4.96306 -2.34459 0
M  V30 6793 H 635.046 4.36288 -0.71452 0
M  V30 6794 N 634.105 1.10431 1.1244 0
M  V30 6795 C 635.035 0.775143 2.20258 0
M  V30 6796 C 636.016 -0.25186 1.68225 0
M  V30 6797 O 637.201 -0.117637 1.93843 0
M  V30 6798 C 634.331 0.206133 3.46688 0
M  V30 6799 C 633.285 1.16382 4.11873 0
M  V30 6800 C 632.611 0.456014 5.32752 0
M  V30 6801 C 633.911 2.5104 4.58013 0
M  V30 6802 H 635.605 1.67665 2.4805 0
M  V30 6803 H 633.151 0.807595 1.19222 0
M  V30 6804 H 635.104 -0.036291 4.21384 0
M  V30 6805 H 633.828 -0.730614 3.18323 0
M  V30 6806 H 632.487 1.39169 3.39157 0
M  V30 6807 H 632.135 -0.485203 5.00654 0
M  V30 6808 H 631.835 1.09466 5.77314 0
M  V30 6809 H 633.359 0.222135 6.10196 0
M  V30 6810 H 634.773 2.32401 5.24083 0
M  V30 6811 H 633.17 3.10789 5.13352 0
M  V30 6812 H 634.24 3.11039 3.71998 0
M  V30 6813 N 635.583 -1.29855 0.893053 0
M  V30 6814 C 636.831 -1.9544 0.514566 0
M  V30 6815 C 637.152 -1.70795 -0.940959 0
M  V30 6816 O 636.422 -1.03601 -1.66264 0
M  V30 6817 H 635.002 -0.723137 0.187302 0
M  V30 6818 H 637.664 -1.58234 1.13789 0
M  V30 6819 H 636.76 -3.04341 0.691581 0
M  V30 6820 N 637.061 -0.65484 -1.43351 0
M  V30 6821 C 638.477 -0.32255 -1.56307 0
M  V30 6822 C 638.677 1.17324 -1.63821 0
M  V30 6823 O 637.733 1.95813 -1.59417 0
M  V30 6824 C 639.046 -1.03533 -2.82314 0
M  V30 6825 C 640.594 -1.01574 -2.9606 0
M  V30 6826 C 641.069 -1.70945 -4.24902 0
M  V30 6827 N 642.56 -1.67716 -4.3177 0
M  V30 6828 C 643.295 -2.18265 -5.30234 0
M  V30 6829 N 642.791 -2.7711 -6.34966 0
M  V30 6830 N 644.584 -2.08756 -5.21898 0
M  V30 6831 H 636.735 -1.62549 -1.36717 0
M  V30 6832 H 638.998 -0.683676 -0.656727 0
M  V30 6833 H 638.704 -2.09045 -2.8283 0
M  V30 6834 H 638.578 -0.587913 -3.7259 0
M  V30 6835 H 640.965 0.0309834 -2.95084 0
M  V30 6836 H 641.046 -1.50186 -2.07069 0
M  V30 6837 H 640.69 -2.75574 -4.26639 0
M  V30 6838 H 640.62 -1.19797 -5.12793 0
M  V30 6839 H 643.111 -1.24777 -3.56706 0
M  V30 6840 H 643.424 -3.13353 -7.06421 0
M  V30 6841 H 641.769 -2.81171 -6.35585 0
M  V30 6842 H 644.96 -1.62488 -4.38994 0
M  V30 6843 H 645.133 -2.48459 -5.98475 0
M  V30 6844 N 638.539 1.52521 -0.396863 0
M  V30 6845 C 639.95 1.86547 0.0754868 0
M  V30 6846 C 640.301 1.31621 1.45501 0
M  V30 6847 O 639.426 0.650563 2.0639 0
M  V30 6848 C 640.021 3.38495 0.143754 0
M  V30 6849 C 638.58 3.72205 0.560413 0
M  V30 6850 C 637.727 2.75954 -0.272856 0
M  V30 6851 H 640.678 1.46323 -0.614434 0
M  V30 6852 H 640.699 3.68153 0.961425 0
M  V30 6853 H 640.211 3.78442 -0.860415 0
M  V30 6854 H 638.312 3.3783 1.57167 0
M  V30 6855 H 638.425 4.78074 0.313314 0
M  V30 6856 H 636.789 2.53339 0.263 0
M  V30 6857 H 637.572 3.1874 -1.27515 0
M  V30 6858 N 640.017 0.126909 1.57088 0
M  V30 6859 C 640.95 -0.857844 2.11462 0
M  V30 6860 C 641.928 -1.25569 1.03301 0
M  V30 6861 O 643.112 -1.35535 1.31006 0
M  V30 6862 C 640.239 -2.14912 2.61784 0
M  V30 6863 C 639.285 -1.89874 3.81903 0
M  V30 6864 S 640.118 -1.10785 5.23915 0
M  V30 6865 C 641.274 -2.41075 5.7761 0
M  V30 6866 H 641.507 -0.395384 2.94659 0
M  V30 6867 H 639.04 -0.0870151 1.54155 0
M  V30 6868 H 640.998 -2.89101 2.91429 0
M  V30 6869 H 639.659 -2.58275 1.78754 0
M  V30 6870 H 638.852 -2.85572 4.15289 0
M  V30 6871 H 638.454 -1.23802 3.52915 0
M  V30 6872 H 640.746 -3.36864 5.87817 0
M  V30 6873 H 641.689 -2.12223 6.75549 0
M  V30 6874 H 642.097 -2.50804 5.05725 0
M  V30 6875 N 641.495 -1.56914 -0.146875 0
M  V30 6876 C 642.741 -1.83628 -0.860741 0
M  V30 6877 C 643.074 -0.708528 -1.80813 0
M  V30 6878 O 642.349 0.287838 -1.92358 0
M  V30 6879 C 642.632 -3.20836 -1.63511 0
M  V30 6880 C 642.485 -4.44174 -0.709199 0
M  V30 6881 C 643.804 -3.55268 -2.59756 0
M  V30 6882 H 640.923 -0.667949 -0.311468 0
M  V30 6883 H 643.565 -1.89582 -0.125936 0
M  V30 6884 H 641.715 -3.15891 -2.26153 0
M  V30 6885 H 643.387 -4.61205 -0.0937781 0
M  V30 6886 H 641.63 -4.33796 -0.0187856 0
M  V30 6887 H 642.301 -5.36785 -1.28707 0
M  V30 6888 H 644.777 -3.60824 -2.07232 0
M  V30 6889 H 643.653 -4.52303 -3.10987 0
M  V30 6890 H 643.914 -2.81231 -3.41118 0
M  V30 6891 N 642.974 0.416227 -1.52004 0
M  V30 6892 C 643.904 1.51365 -1.77795 0
M  V30 6893 C 644.885 1.58059 -0.628601 0
M  V30 6894 O 646.07 1.73447 -0.873478 0
M  V30 6895 C 643.2 2.89256 -1.92219 0
M  V30 6896 C 642.154 2.97415 -3.0778 0
M  V30 6897 C 641.48 4.37492 -3.07417 0
M  V30 6898 C 642.78 2.69551 -4.47369 0
M  V30 6899 H 644.474 1.30033 -2.69688 0
M  V30 6900 H 642.02 0.624112 -1.29772 0
M  V30 6901 H 643.973 3.66008 -2.08845 0
M  V30 6902 H 642.697 3.11866 -0.969917 0
M  V30 6903 H 641.356 2.23107 -2.90893 0
M  V30 6904 H 641.004 4.571 -2.09925 0
M  V30 6905 H 640.704 4.43877 -3.85029 0
M  V30 6906 H 642.228 5.16188 -3.26162 0
M  V30 6907 H 643.642 3.36028 -4.64497 0
M  V30 6908 H 642.039 2.87321 -5.26846 0
M  V30 6909 H 643.109 1.65029 -4.55953 0
M  V30 6910 N 644.452 1.42507 0.673017 0
M  V30 6911 C 645.415 1.4582 1.76831 0
M  V30 6912 C 646.415 0.345542 1.57043 0
M  V30 6913 O 647.605 0.606447 1.63303 0
M  V30 6914 C 644.737 1.29158 3.15485 0
M  V30 6915 H 645.93 2.43345 1.7528 0
M  V30 6916 H 643.483 1.28981 0.882817 0
M  V30 6917 H 644.218 0.325626 3.22661 0
M  V30 6918 H 644.003 2.09797 3.31252 0
M  V30 6919 H 645.493 1.34363 3.95394 0
M  V30 6920 N 645.93 -0.909495 1.28709 0
M  V30 6921 C 647.178 -1.65577 1.15882 0
M  V30 6922 C 647.499 -1.928 -0.292108 0
M  V30 6923 O 646.769 -1.54716 -1.20166 0
M  V30 6924 H 645.349 -0.613714 0.425869 0
M  V30 6925 H 648.011 -1.09108 1.61498 0
M  V30 6926 H 647.107 -2.61634 1.70159 0
M  V30 6927 N 647.408 -1.11026 -1.11852 0
M  V30 6928 C 648.685 -0.768347 -1.79877 0
M  V30 6929 C 649.065 0.744261 -1.97545 0
M  V30 6930 O 648.413 1.67271 -1.55669 0
M  V30 6931 C 648.623 -1.52648 -3.13846 0
M  V30 6932 C 649.971 -1.70297 -3.88953 0
M  V30 6933 O 650.995 -1.49037 -3.23522 0
M  V30 6934 O 649.854 -2.05593 -5.06353 0
M  V30 6935 H 646.948 -0.277891 -0.778913 0
M  V30 6936 H 649.494 -1.21343 -1.18633 0
M  V30 6937 H 648.266 -2.55564 -2.96315 0
M  V30 6938 H 647.889 -1.07466 -3.82801 0
M  V30 6939 N 648.886 1.2938 -0.899927 0
M  V30 6940 C 649.833 2.27713 -0.376243 0
M  V30 6941 C 650.803 1.57016 0.541774 0
M  V30 6942 O 651.988 1.84997 0.466966 0
M  V30 6943 C 649.128 3.42889 0.39 0
M  V30 6944 C 648.241 4.28369 -0.558938 0
M  V30 6945 C 647.376 5.30726 0.224379 0
M  V30 6946 C 646.415 6.07862 -0.719068 0
M  V30 6947 N 645.552 7.02094 0.0298569 0
M  V30 6948 H 650.392 2.71888 -1.21988 0
M  V30 6949 H 647.929 1.33724 -0.612879 0
M  V30 6950 H 649.887 4.08443 0.850314 0
M  V30 6951 H 648.517 2.99743 1.19809 0
M  V30 6952 H 647.569 3.62986 -1.13777 0
M  V30 6953 H 648.881 4.82068 -1.2811 0
M  V30 6954 H 648.035 6.02098 0.745881 0
M  V30 6955 H 646.774 4.77759 0.979674 0
M  V30 6956 H 645.779 5.35353 -1.25207 0
M  V30 6957 H 647.004 6.62917 -1.4737 0
M  V30 6958 H 644.95 6.51496 0.767415 0
M  V30 6959 H 644.867 7.5335 -0.632391 0
M  V30 6960 H 646.135 7.77685 0.531615 0
M  V30 6961 N 650.364 0.662433 1.43002 0
M  V30 6962 C 651.327 -0.0142016 2.29196 0
M  V30 6963 C 652.327 -0.741394 1.42688 0
M  V30 6964 O 653.517 -0.581257 1.64216 0
M  V30 6965 C 650.649 -1.03084 3.24941 0
M  V30 6966 H 651.842 0.7443 2.90517 0
M  V30 6967 H 649.395 0.424133 1.50435 0
M  V30 6968 H 650.13 -1.81826 2.68533 0
M  V30 6969 H 649.915 -0.512946 3.8873 0
M  V30 6970 H 651.405 -1.50308 3.89612 0
M  V30 6971 N 651.842 -1.52309 0.404946 0
M  V30 6972 C 652.789 -2.26898 -0.422597 0
M  V30 6973 C 653.759 -1.2914 -1.04461 0
M  V30 6974 O 654.944 -1.57996 -1.06967 0
M  V30 6975 C 652.084 -3.09053 -1.53559 0
M  V30 6976 C 651.197 -4.21762 -0.934908 0
M  V30 6977 C 650.332 -4.91283 -2.02025 0
M  V30 6978 C 649.371 -5.95962 -1.39628 0
M  V30 6979 N 648.508 -6.59017 -2.42159 0
M  V30 6980 H 653.348 -2.97188 0.219903 0
M  V30 6981 H 650.885 -1.46607 0.120282 0
M  V30 6982 H 652.843 -3.54987 -2.19181 0
M  V30 6983 H 651.473 -2.40942 -2.14818 0
M  V30 6984 H 650.525 -3.80029 -0.167854 0
M  V30 6985 H 651.837 -4.96864 -0.439073 0
M  V30 6986 H 650.991 -5.40601 -2.75383 0
M  V30 6987 H 649.73 -4.15741 -2.54973 0
M  V30 6988 H 648.735 -5.45968 -0.648023 0
M  V30 6989 H 649.96 -6.73445 -0.874553 0
M  V30 6990 H 647.906 -5.86306 -2.94247 0
M  V30 6991 H 647.823 -7.2978 -1.97376 0
M  V30 6992 H 649.091 -7.12974 -3.15099 0
M  V30 6993 N 653.32 -0.135238 -1.57019 0
M  V30 6994 C 654.252 0.839675 -2.13265 0
M  V30 6995 C 655.265 1.21887 -1.07923 0
M  V30 6996 O 656.454 1.16499 -1.35241 0
M  V30 6997 C 653.554 2.13647 -2.63075 0
M  V30 6998 C 652.727 1.92646 -3.92691 0
M  V30 6999 C 651.786 3.06205 -4.27931 0
M  V30 7000 O 650.812 2.78409 -4.96465 0
M  V30 7001 N 652.014 4.33072 -3.86561 0
M  V30 7002 H 654.779 0.359026 -2.97542 0
M  V30 7003 H 652.34 0.0486979 -1.61827 0
M  V30 7004 H 654.332 2.88641 -2.8367 0
M  V30 7005 H 652.902 2.5301 -1.83588 0
M  V30 7006 H 652.122 1.01754 -3.80841 0
M  V30 7007 H 653.41 1.75939 -4.77413 0
M  V30 7008 H 652.808 4.58526 -3.31316 0
M  V30 7009 H 651.365 5.04885 -4.12231 0
M  V30 7010 N 654.798 1.5699 0.138552 0
M  V30 7011 C 656.044 1.84081 0.85099 0
M  V30 7012 C 656.377 0.718107 1.80435 0
M  V30 7013 O 655.652 -0.277633 1.92508 0
M  V30 7014 C 655.935 3.21699 1.61808 0
M  V30 7015 C 655.788 4.44544 0.685633 0
M  V30 7016 C 657.107 3.5664 2.57868 0
M  V30 7017 H 654.226 0.669592 0.307922 0
M  V30 7018 H 656.868 1.89646 0.11588 0
M  V30 7019 H 655.018 3.17086 2.24474 0
M  V30 7020 H 656.69 4.61248 0.0693179 0
M  V30 7021 H 654.933 4.338 -0.00421993 0
M  V30 7022 H 655.604 5.3746 1.25858 0
M  V30 7023 H 658.08 3.61918 2.05316 0
M  V30 7024 H 656.956 4.53946 3.08584 0
M  V30 7025 H 657.217 2.83036 3.39622 0
M  V30 7026 N 656.276 -0.40816 1.52223 0
M  V30 7027 C 657.208 -1.51642 1.71864 0
M  V30 7028 C 658.221 -1.51378 0.599056 0
M  V30 7029 O 659.41 -1.55626 0.874239 0
M  V30 7030 C 656.51 -2.90534 1.74481 0
M  V30 7031 C 655.683 -3.14979 3.03491 0
M  V30 7032 C 654.742 -4.33749 2.97907 0
M  V30 7033 O 653.768 -4.30982 3.71811 0
M  V30 7034 N 654.97 -5.38912 2.15764 0
M  V30 7035 H 657.735 -1.35188 2.67478 0
M  V30 7036 H 655.296 -0.597468 1.50472 0
M  V30 7037 H 657.288 -3.68056 1.68275 0
M  V30 7038 H 655.858 -3.00441 0.863363 0
M  V30 7039 H 655.078 -2.25492 3.23337 0
M  V30 7040 H 656.366 -3.28156 3.88833 0
M  V30 7041 H 655.764 -5.44008 1.55152 0
M  V30 7042 H 654.321 -6.15174 2.15415 0
M  V30 7043 N 657.755 -1.42862 -0.66545 0
M  V30 7044 C 659.001 -1.4504 -1.426 0
M  V30 7045 C 659.356 -0.0690217 -1.92276 0
M  V30 7046 O 658.649 0.91036 -1.68591 0
M  V30 7047 C 658.843 -2.4175 -2.63233 0
M  V30 7048 C 658.672 -3.89155 -2.25362 0
M  V30 7049 C 657.442 -4.57619 -2.14273 0
M  V30 7050 C 659.64 -4.79326 -1.86417 0
M  V30 7051 N 657.622 -5.90006 -1.69604 0
M  V30 7052 C 658.993 -6.00892 -1.52738 0
M  V30 7053 C 661.048 -4.66696 -1.73492 0
M  V30 7054 C 659.751 -7.11232 -1.0743 0
M  V30 7055 C 661.777 -5.77027 -1.29589 0
M  V30 7056 C 661.139 -6.97712 -0.968393 0
M  V30 7057 H 657.238 -0.585889 -0.517936 0
M  V30 7058 H 659.822 -1.78956 -0.767002 0
M  V30 7059 H 657.993 -2.09881 -3.26809 0
M  V30 7060 H 659.725 -2.34447 -3.29874 0
M  V30 7061 H 656.48 -4.11957 -2.33641 0
M  V30 7062 H 656.904 -6.60249 -1.49666 0
M  V30 7063 H 661.546 -3.7386 -1.97455 0
M  V30 7064 H 659.264 -8.03907 -0.822147 0
M  V30 7065 H 662.85 -5.6927 -1.20095 0
M  V30 7066 H 661.73 -7.81634 -0.63384 0
M  V30 7067 N 659.233 0.902656 -1.29189 0
M  V30 7068 C 660.461 1.68639 -1.19869 0
M  V30 7069 C 660.876 1.87254 0.241121 0
M  V30 7070 O 660.233 1.40745 1.16177 0
M  V30 7071 C 660.284 3.07251 -1.90471 0
M  V30 7072 O 660.005 2.89488 -3.28829 0
M  V30 7073 C 661.506 4.01653 -1.8759 0
M  V30 7074 H 658.726 0.526802 -0.415596 0
M  V30 7075 H 661.27 1.12901 -1.7051 0
M  V30 7076 H 659.425 3.59774 -1.43672 0
M  V30 7077 H 659.839 3.77296 -3.64346 0
M  V30 7078 H 661.313 4.96339 -2.4156 0
M  V30 7079 H 661.79 4.30881 -0.850756 0
M  V30 7080 H 662.396 3.55061 -2.34119 0
M  V30 7081 N 660.711 1.11618 1.11262 0
M  V30 7082 C 661.659 0.771291 2.1944 0
M  V30 7083 C 662.653 -0.238073 1.67719 0
M  V30 7084 O 663.859 -0.0971628 1.79738 0
M  V30 7085 H 660.234 0.231548 0.715465 0
M  V30 7086 H 662.205 1.69226 2.45775 0
M  V30 7087 C 660.954 0.232765 3.4692 0
M  V30 7088 H 660.277 1.00072 3.87073 0
M  V30 7089 H 661.717 0.0296561 4.2399 0
M  V30 7090 C 660.176 -1.03738 3.20531 0
M  V30 7091 O 660.706 -2.11675 3.41404 0
M  V30 7092 N 658.912 -0.960906 2.74253 0
M  V30 7093 H 658.459 -0.0824323 2.57468 0
M  V30 7094 H 658.417 -1.8114 2.56974 0
M  V30 7095 N 662.189 -1.289 0.906776 0
M  V30 7096 C 663.435 -1.95558 0.53712 0
M  V30 7097 C 663.768 -1.71262 -0.915582 0
M  V30 7098 O 663.043 -1.02961 -1.65013 0
M  V30 7099 C 663.326 -3.50198 0.838645 0
M  V30 7100 C 663.179 -3.83923 2.34357 0
M  V30 7101 C 664.498 -4.38861 0.329988 0
M  V30 7102 H 661.617 -0.710289 0.196617 0
M  V30 7103 H 664.259 -1.52392 1.13475 0
M  V30 7104 H 662.409 -3.87096 0.330024 0
M  V30 7105 H 664.081 -3.56933 2.92227 0
M  V30 7106 H 662.324 -3.31215 2.80141 0
M  V30 7107 H 662.995 -4.91883 2.5051 0
M  V30 7108 H 665.471 -4.08996 0.765609 0
M  V30 7109 H 664.347 -5.45931 0.570105 0
M  V30 7110 H 664.608 -4.35352 -0.769511 0
M  V30 7111 N 663.667 -0.670007 -1.42649 0
M  V30 7112 C 664.897 -0.198252 -2.05647 0
M  V30 7113 C 665.305 1.14786 -1.50402 0
M  V30 7114 O 664.648 1.72316 -0.636634 0
M  V30 7115 C 664.71 -0.0507132 -3.59464 0
M  V30 7116 C 664.374 -1.32478 -4.37377 0
M  V30 7117 C 665.371 -2.2572 -4.68344 0
M  V30 7118 C 663.056 -1.57104 -4.77099 0
M  V30 7119 C 665.05 -3.4187 -5.37963 0
M  V30 7120 C 662.737 -2.73543 -5.46459 0
M  V30 7121 C 663.735 -3.65751 -5.76815 0
M  V30 7122 O 663.423 -4.80154 -6.44753 0
M  V30 7123 H 663.155 -0.0950721 -0.669281 0
M  V30 7124 H 665.709 -0.915745 -1.83857 0
M  V30 7125 H 663.939 0.722314 -3.79894 0
M  V30 7126 H 665.628 0.380552 -4.04112 0
M  V30 7127 H 666.394 -2.07943 -4.38161 0
M  V30 7128 H 662.273 -0.862069 -4.52868 0
M  V30 7129 H 665.817 -4.13861 -5.61574 0
M  V30 7130 H 661.714 -2.91248 -5.7606 0
M  V30 7131 H 662.482 -4.79637 -6.63243 0
M  V30 7132 N 665.145 1.52092 -0.413018 0
M  V30 7133 C 666.075 2.30021 0.401567 0
M  V30 7134 C 667.056 1.34395 1.04269 0
M  V30 7135 O 668.241 1.63304 1.05097 0
M  V30 7136 C 665.371 3.12447 1.51638 0
M  V30 7137 C 664.325 4.16153 1.00005 0
M  V30 7138 C 663.651 4.86948 2.20875 0
M  V30 7139 C 664.951 5.22275 0.0513757 0
M  V30 7140 H 666.645 2.98365 -0.248704 0
M  V30 7141 H 664.191 1.4349 -0.121052 0
M  V30 7142 H 666.144 3.65733 2.09326 0
M  V30 7143 H 664.868 2.41879 2.19458 0
M  V30 7144 H 663.527 3.63882 0.445549 0
M  V30 7145 H 663.175 4.12905 2.8726 0
M  V30 7146 H 662.875 5.57057 1.86978 0
M  V30 7147 H 664.399 5.43048 2.79162 0
M  V30 7148 H 665.813 5.70778 0.537176 0
M  V30 7149 H 664.21 5.9977 -0.198977 0
M  V30 7150 H 665.28 4.76611 -0.892736 0
M  V30 7151 N 666.623 0.143563 1.56945 0
M  V30 7152 C 667.9 -0.553285 1.87612 0
M  V30 7153 C 668.28 -1.83195 1.04894 0
M  V30 7154 O 667.628 -2.28102 0.134773 0
M  V30 7155 C 667.838 -0.822055 3.3918 0
M  V30 7156 C 669.186 -1.16435 4.08324 0
M  V30 7157 O 670.21 -0.911522 3.4434 0
M  V30 7158 O 669.069 -1.63996 5.21313 0
M  V30 7159 H 666.163 -0.281851 0.777489 0
M  V30 7160 H 668.709 0.179916 1.68744 0
M  V30 7161 H 667.481 0.0830265 3.91212 0
M  V30 7162 H 667.104 -1.60956 3.63564 0
M  V30 7163 N 668.101 -1.57061 -0.130224 0
M  V30 7164 C 669.064 -1.98593 -1.14426 0
M  V30 7165 C 670.064 -0.874584 -1.34936 0
M  V30 7166 O 671.254 -1.14086 -1.31643 0
M  V30 7167 C 668.386 -2.31639 -2.50112 0
M  V30 7168 H 669.579 -2.89374 -0.787561 0
M  V30 7169 H 667.132 -1.51756 -0.374146 0
M  V30 7170 H 667.867 -1.43703 -2.90723 0
M  V30 7171 H 667.652 -3.12684 -2.36583 0
M  V30 7172 H 669.142 -2.64551 -3.23114 0
M  V30 7173 N 669.579 0.400081 -1.52437 0
M  V30 7174 C 670.509 1.4947 -1.7939 0
M  V30 7175 C 671.49 1.57383 -0.645329 0
M  V30 7176 O 672.675 1.72511 -0.891826 0
M  V30 7177 C 669.805 2.87201 -1.95276 0
M  V30 7178 C 668.759 2.94134 -3.10917 0
M  V30 7179 C 668.085 4.34207 -3.1204 0
M  V30 7180 C 669.385 2.64791 -4.50203 0
M  V30 7181 H 671.079 1.27165 -2.71052 0
M  V30 7182 H 668.625 0.610312 -1.30427 0
M  V30 7183 H 670.578 3.63772 -2.12715 0
M  V30 7184 H 669.302 3.10819 -1.00294 0
M  V30 7185 H 667.961 2.20009 -2.93243 0
M  V30 7186 H 667.609 4.54848 -2.14761 0
M  V30 7187 H 667.309 4.39768 -3.89715 0
M  V30 7188 H 668.833 5.127 -3.31619 0
M  V30 7189 H 670.247 3.31083 -4.68035 0
M  V30 7190 H 668.644 2.81717 -5.29864 0
M  V30 7191 H 669.714 1.60184 -4.57678 0
M  V30 7192 N 671.057 1.43213 0.657864 0
M  V30 7193 C 671.967 1.50448 1.80007 0
M  V30 7194 C 672.983 0.39191 1.69529 0
M  V30 7195 O 674.159 0.645349 1.90781 0
M  V30 7196 C 671.224 1.42062 3.16258 0
M  V30 7197 C 670.285 2.63951 3.38568 0
M  V30 7198 C 669.518 2.55956 4.68318 0
M  V30 7199 O 669.741 1.60473 5.47361 0
M  V30 7200 O 668.675 3.46378 4.92245 0
M  V30 7201 H 672.501 2.4689 1.76858 0
M  V30 7202 H 670.086 1.25163 0.81576 0
M  V30 7203 H 671.968 1.3981 3.97531 0
M  V30 7204 H 670.643 0.487524 3.20008 0
M  V30 7205 H 669.55 2.71776 2.57077 0
M  V30 7206 H 670.883 3.56217 3.39662 0
M  V30 7207 N 672.536 -0.895792 1.29666 0
M  V30 7208 C 673.466 -2.01673 1.17688 0
M  V30 7209 C 674.447 -1.69955 0.0701317 0
M  V30 7210 O 675.632 -1.9258 0.250289 0
M  V30 7211 C 672.762 -3.36568 0.856681 0
M  V30 7212 C 671.716 -3.82509 1.92017 0
M  V30 7213 C 671.042 -5.14574 1.4532 0
M  V30 7214 C 672.342 -4.02409 3.32963 0
M  V30 7215 H 674.036 -2.11953 2.11463 0
M  V30 7216 H 671.582 -1.01839 1.01807 0
M  V30 7217 H 673.535 -4.14498 0.759577 0
M  V30 7218 H 672.259 -3.26391 -0.116763 0
M  V30 7219 H 670.918 -3.068 2.00673 0
M  V30 7220 H 670.566 -5.00815 0.468325 0
M  V30 7221 H 670.266 -5.46283 2.16447 0
M  V30 7222 H 671.79 -5.9504 1.36968 0
M  V30 7223 H 673.204 -4.70808 3.27127 0
M  V30 7224 H 671.601 -4.45478 4.02082 0
M  V30 7225 H 672.671 -3.06616 3.75652 0
M  V30 7226 N 674.014 -1.12206 -1.10668 0
M  V30 7227 C 675.262 -0.874144 -1.82217 0
M  V30 7228 C 675.583 0.601736 -1.85484 0
M  V30 7229 O 674.853 1.43725 -1.33116 0
M  V30 7230 H 673.433 -0.320404 -0.674797 0
M  V30 7231 H 676.095 -1.41606 -1.33917 0
M  V30 7232 H 675.191 -1.25349 -2.85822 0
M  V30 7233 N 675.492 1.28418 -0.913599 0
M  V30 7234 C 676.422 2.29713 -0.418847 0
M  V30 7235 C 677.403 1.62165 0.513469 0
M  V30 7236 O 678.588 1.89576 0.421235 0
M  V30 7237 C 675.718 3.45612 0.342042 0
M  V30 7238 C 674.672 4.25056 -0.501123 0
M  V30 7239 C 673.998 5.3329 0.388097 0
M  V30 7240 C 675.298 4.91814 -1.75831 0
M  V30 7241 H 676.992 2.71346 -1.26538 0
M  V30 7242 H 674.538 1.30446 -0.609903 0
M  V30 7243 H 676.491 4.15562 0.699 0
M  V30 7244 H 675.215 3.02858 1.22248 0
M  V30 7245 H 673.874 3.56833 -0.840598 0
M  V30 7246 H 673.522 4.8678 1.26707 0
M  V30 7247 H 673.222 5.87347 -0.172459 0
M  V30 7248 H 674.746 6.06088 0.74094 0
M  V30 7249 H 676.16 5.54126 -1.47026 0
M  V30 7250 H 674.557 5.55866 -2.26126 0
M  V30 7251 H 675.627 4.16313 -2.4862 0
M  V30 7252 N 676.97 0.677563 1.42291 0
M  V30 7253 C 678.216 0.201272 2.01799 0
M  V30 7254 C 678.549 -1.19004 1.53465 0
M  V30 7255 O 677.824 -1.79953 0.738039 0
M  V30 7256 C 678.107 0.238968 3.59306 0
M  V30 7257 C 677.96 1.66594 4.17812 0
M  V30 7258 C 679.279 -0.411287 4.38174 0
M  V30 7259 H 676.398 0.0746114 0.733214 0
M  V30 7260 H 679.04 0.862872 1.69276 0
M  V30 7261 H 677.19 -0.324368 3.87144 0
M  V30 7262 H 678.862 2.28173 4.00917 0
M  V30 7263 H 677.105 2.20576 3.73536 0
M  V30 7264 H 677.776 1.64398 5.26951 0
M  V30 7265 H 680.252 0.0682804 4.16044 0
M  V30 7266 H 679.128 -0.354286 5.47755 0
M  V30 7267 H 679.389 -1.4893 4.1626 0
M  V30 7268 N 678.448 -1.51871 0.421078 0
M  V30 7269 C 679.697 -2.01125 -0.152206 0
M  V30 7270 C 680.01 -1.3106 -1.45199 0
M  V30 7271 O 681.216 -1.71195 -2.10724 0
M  V30 7272 C 679.672 -3.58458 -0.3218 0
M  V30 7273 C 679.28 -4.37448 0.96659 0
M  V30 7274 C 681.024 -4.15908 -0.84973 0
M  V30 7275 C 678.931 -5.86451 0.763529 0
M  V30 7276 H 677.861 -0.751556 -0.0606565 0
M  V30 7277 H 680.512 -1.75115 0.548354 0
M  V30 7278 H 678.894 -3.80847 -1.08498 0
M  V30 7279 H 680.068 -4.26814 1.73684 0
M  V30 7280 H 678.383 -3.91373 1.42183 0
M  V30 7281 H 680.98 -5.24922 -1.01788 0
M  V30 7282 H 681.323 -3.74031 -1.82774 0
M  V30 7283 H 681.856 -3.97535 -0.145297 0
M  V30 7284 H 678.595 -6.3271 1.71344 0
M  V30 7285 H 678.115 -5.99791 0.0327889 0
M  V30 7286 H 679.794 -6.45697 0.410354 0
M  V30 7287 N 679.926 -0.151884 -1.56866 0
M  V30 7288 C 681.154 0.504813 -2.00647 0
M  V30 7289 C 681.569 1.58098 -1.03201 0
M  V30 7290 O 680.926 1.82476 -0.0297814 0
M  V30 7291 C 680.977 1.10099 -3.44326 0
M  V30 7292 O 680.698 0.0678021 -4.38048 0
M  V30 7293 C 682.199 1.83782 -4.03409 0
M  V30 7294 H 679.419 0.130989 -0.65809 0
M  V30 7295 H 681.963 -0.247903 -2.02992 0
M  V30 7296 H 680.118 1.8043 -3.42817 0
M  V30 7297 H 680.532 0.505237 -5.22061 0
M  V30 7298 H 682.006 2.2078 -5.05925 0
M  V30 7299 H 682.483 2.72557 -3.44397 0
M  V30 7300 H 683.089 1.18138 -4.08563 0
M  V30 7301 N 681.404 1.57128 0.121893 0
M  V30 7302 C 682.652 1.84335 0.828548 0
M  V30 7303 C 682.973 0.736632 1.80551 0
M  V30 7304 O 682.243 -0.23962 1.94429 0
M  V30 7305 H 680.823 0.680108 0.30897 0
M  V30 7306 H 683.485 1.9459 0.109906 0
M  V30 7307 H 682.581 2.80152 1.37554 0
M  V30 7308 N 682.882 -0.391992 1.52647 0
M  V30 7309 C 684.11 -1.1586 1.71418 0
M  V30 7310 C 684.525 -1.8381 0.431216 0
M  V30 7311 O 683.882 -1.7256 -0.594085 0
M  V30 7312 C 683.933 -2.20888 2.86165 0
M  V30 7313 O 683.654 -1.5571 4.09495 0
M  V30 7314 C 685.155 -3.103 3.1659 0
M  V30 7315 H 682.375 -0.347494 0.574011 0
M  V30 7316 H 684.919 -0.458972 1.99283 0
M  V30 7317 H 683.074 -2.86492 2.6077 0
M  V30 7318 H 683.488 -2.25474 4.73563 0
M  V30 7319 H 684.962 -3.8003 4.00351 0
M  V30 7320 H 685.439 -3.73639 2.30848 0
M  V30 7321 H 686.045 -2.50345 3.43813 0
M  V30 7322 N 684.36 -1.4356 -0.65026 0
M  V30 7323 C 685.29 -1.51758 -1.77459 0
M  V30 7324 C 686.271 -0.372019 -1.65982 0
M  V30 7325 O 687.456 -0.589627 -1.85033 0
M  V30 7326 C 684.586 -1.44302 -3.15902 0
M  V30 7327 C 683.54 -2.57138 -3.42146 0
M  V30 7328 C 682.866 -2.34735 -4.8042 0
M  V30 7329 C 684.166 -3.99373 -3.36598 0
M  V30 7330 H 685.86 -2.45863 -1.70855 0
M  V30 7331 H 683.406 -1.18333 -0.820566 0
M  V30 7332 H 685.359 -1.48641 -3.94314 0
M  V30 7333 H 684.083 -0.467026 -3.23244 0
M  V30 7334 H 682.742 -2.52157 -2.66106 0
M  V30 7335 H 682.39 -1.35372 -4.84441 0
M  V30 7336 H 682.09 -3.10375 -4.9894 0
M  V30 7337 H 683.614 -2.40862 -5.61086 0
M  V30 7338 H 685.028 -4.05826 -4.04942 0
M  V30 7339 H 683.425 -4.75063 -3.66654 0
M  V30 7340 H 684.495 -4.243 -2.34729 0
M  V30 7341 N 685.838 0.888903 -1.30139 0
M  V30 7342 C 687.249 1.45578 -1.16893 0
M  V30 7343 C 687.6 1.94825 0.231866 0
M  V30 7344 O 686.725 1.84661 1.12824 0
M  V30 7345 C 687.32 2.646 -2.11595 0
M  V30 7346 C 685.879 3.17389 -2.02339 0
M  V30 7347 C 685.026 1.90081 -2.01902 0
M  V30 7348 H 687.977 0.69921 -1.42467 0
M  V30 7349 H 687.998 3.40687 -1.69449 0
M  V30 7350 H 687.51 2.28726 -3.13538 0
M  V30 7351 H 685.611 3.5793 -1.03523 0
M  V30 7352 H 685.724 3.80955 -2.90534 0
M  V30 7353 H 684.088 2.08246 -1.46648 0
M  V30 7354 H 684.871 1.5647 -3.05568 0
M  V30 7355 N 687.317 1.12792 1.10072 0
M  V30 7356 C 688.563 0.886857 1.82381 0
M  V30 7357 C 688.896 -0.58576 1.85155 0
M  V30 7358 O 688.171 -1.43317 1.31493 0
M  V30 7359 C 688.454 1.46703 3.28862 0
M  V30 7360 C 688.307 3.00829 3.34398 0
M  V30 7361 C 689.626 1.12971 4.25353 0
M  V30 7362 H 686.745 0.32362 0.662148 0
M  V30 7363 H 689.387 1.39513 1.28982 0
M  V30 7364 H 687.537 1.03476 3.74466 0
M  V30 7365 H 689.209 3.52764 2.97247 0
M  V30 7366 H 687.452 3.36164 2.74183 0
M  V30 7367 H 688.123 3.36519 4.3756 0
M  V30 7368 H 690.599 1.50313 3.88001 0
M  V30 7369 H 689.475 1.56223 5.26199 0
M  V30 7370 H 689.736 0.0424452 4.4208 0
M  V30 7371 N 688.795 -1.27931 0.920396 0
M  V30 7372 C 690.042 -1.94689 0.557007 0
M  V30 7373 C 690.37 -1.724 -0.900476 0
M  V30 7374 O 689.625 -1.04194 -1.65657 0
M  V30 7375 C 689.924 -3.47853 0.820558 0
M  V30 7376 C 689.59 -3.90252 2.25863 0
M  V30 7377 C 688.252 -4.01539 2.65179 0
M  V30 7378 C 690.604 -4.11853 3.19415 0
M  V30 7379 C 687.932 -4.3181 3.97187 0
M  V30 7380 C 690.284 -4.43606 4.50995 0
M  V30 7381 C 688.948 -4.53105 4.90155 0
M  V30 7382 H 688.218 -0.712416 0.203823 0
M  V30 7383 H 690.865 -1.52142 1.16298 0
M  V30 7384 H 689.17 -3.91578 0.131844 0
M  V30 7385 H 690.867 -3.97634 0.51847 0
M  V30 7386 H 687.457 -3.81999 1.94358 0
M  V30 7387 H 691.641 -4.0258 2.90246 0
M  V30 7388 H 686.897 -4.37371 4.2722 0
M  V30 7389 H 691.071 -4.59268 5.23494 0
M  V30 7390 H 688.698 -4.76315 5.92476 0
M  V30 7391 N 690.273 -0.685099 -1.4193 0
M  V30 7392 C 691.221 -0.00165985 -2.326 0
M  V30 7393 C 692.215 0.779678 -1.50391 0
M  V30 7394 O 693.421 0.68648 -1.66395 0
M  V30 7395 H 689.796 0.0182616 -0.751778 0
M  V30 7396 H 691.767 -0.783592 -2.87928 0
M  V30 7397 C 690.516 0.928385 -3.35077 0
M  V30 7398 H 689.839 0.336578 -3.98381 0
M  V30 7399 H 691.279 1.37509 -4.01083 0
M  V30 7400 C 689.738 2.03964 -2.68142 0
M  V30 7401 O 690.268 3.12727 -2.5212 0
M  V30 7402 N 688.474 1.81433 -2.27003 0
M  V30 7403 H 688.021 0.929807 -2.40234 0
M  V30 7404 H 687.979 2.55973 -1.82552 0
M  V30 7405 N 691.751 1.51645 -0.429126 0
M  V30 7406 C 693 2.01203 0.141538 0
M  V30 7407 C 693.313 1.31828 1.44502 0
M  V30 7408 O 694.519 1.7231 2.09813 0
M  V30 7409 C 692.975 3.58624 0.302786 0
M  V30 7410 C 692.583 4.3693 -0.989775 0
M  V30 7411 C 694.327 4.16353 0.827661 0
M  V30 7412 C 692.234 5.86037 -0.794619 0
M  V30 7413 H 691.164 0.751867 0.05667 0
M  V30 7414 H 693.815 1.74822 -0.557633 0
M  V30 7415 H 692.197 3.81417 1.06476 0
M  V30 7416 H 693.371 4.25887 -1.75945 0
M  V30 7417 H 691.686 3.90614 -1.44256 0
M  V30 7418 H 694.283 5.25455 0.990026 0
M  V30 7419 H 694.626 3.74995 1.80787 0
M  V30 7420 H 695.159 3.97606 0.124213 0
M  V30 7421 H 691.898 6.31792 -1.74697 0
M  V30 7422 H 691.418 5.99765 -0.0645968 0
M  V30 7423 H 693.097 6.45471 -0.444591 0
M  V30 7424 N 693.229 0.160201 1.56784 0
M  V30 7425 C 694.457 -0.494165 2.00912 0
M  V30 7426 C 694.872 -1.57548 1.04038 0
M  V30 7427 O 694.229 -1.82457 0.0394581 0
M  V30 7428 C 694.28 -1.08271 3.44905 0
M  V30 7429 O 694.001 -0.0445704 4.38077 0
M  V30 7430 C 695.502 -1.8164 4.04378 0
M  V30 7431 H 692.722 -0.127498 0.658776 0
M  V30 7432 H 695.266 0.258665 2.02858 0
M  V30 7433 H 693.421 -1.78609 3.4377 0
M  V30 7434 H 693.835 -0.477544 5.22322 0
M  V30 7435 H 695.309 -2.18094 5.07089 0
M  V30 7436 H 695.786 -2.70727 3.45838 0
M  V30 7437 H 696.392 -1.15969 4.09184 0
M  V30 7438 N 694.707 -1.5719 -0.113559 0
M  V30 7439 C 695.955 -1.84772 -0.818761 0
M  V30 7440 C 696.276 -0.746196 -1.80158 0
M  V30 7441 O 695.546 0.229305 -1.94553 0
M  V30 7442 H 694.126 -0.681737 -0.305359 0
M  V30 7443 H 696.788 -1.94645 -0.0995845 0
M  V30 7444 H 695.884 -2.80878 -1.36067 0
M  V30 7445 N 696.185 0.383891 -1.52853 0
M  V30 7446 C 697.117 1.48889 -1.74255 0
M  V30 7447 C 698.13 1.50405 -0.623063 0
M  V30 7448 O 699.319 1.54215 -0.898887 0
M  V30 7449 C 696.419 2.87721 -1.79081 0
M  V30 7450 C 695.592 3.10111 -3.08464 0
M  V30 7451 C 694.651 4.28954 -3.0477 0
M  V30 7452 O 693.677 4.25012 -3.78621 0
M  V30 7453 N 694.879 5.35411 -2.24311 0
M  V30 7454 H 697.644 1.30915 -2.69595 0
M  V30 7455 H 695.205 0.573454 -1.51404 0
M  V30 7456 H 697.197 3.65333 -1.7411 0
M  V30 7457 H 695.767 2.99029 -0.911052 0
M  V30 7458 H 694.987 2.20319 -3.26884 0
M  V30 7459 H 696.275 3.21928 -3.94005 0
M  V30 7460 H 695.673 5.41471 -1.63787 0
M  V30 7461 H 694.23 6.1167 -2.25175 0
M  V30 7462 N 697.663 1.43903 0.642637 0
M  V30 7463 C 698.91 1.46079 1.40239 0
M  V30 7464 C 699.238 0.0890335 1.94296 0
M  V30 7465 O 698.493 -0.907533 1.73385 0
M  V30 7466 C 698.792 2.45907 2.59354 0
M  V30 7467 C 698.458 3.91522 2.23654 0
M  V30 7468 C 697.12 4.31179 2.1363 0
M  V30 7469 C 699.472 4.83242 1.95261 0
M  V30 7470 C 696.8 5.60495 1.73384 0
M  V30 7471 C 699.152 6.12933 1.56511 0
M  V30 7472 C 697.816 6.51556 1.4502 0
M  V30 7473 H 697.086 0.534542 0.513172 0
M  V30 7474 H 699.733 1.77047 0.72984 0
M  V30 7475 H 698.038 2.08381 3.3179 0
M  V30 7476 H 699.735 2.44842 3.17574 0
M  V30 7477 H 696.325 3.60142 2.32369 0
M  V30 7478 H 700.509 4.53367 2.0192 0
M  V30 7479 H 695.765 5.89249 1.63082 0
M  V30 7480 H 699.939 6.83469 1.33576 0
M  V30 7481 H 697.566 7.51663 1.13606 0
M  V30 7482 N 699.141 -0.881989 1.30609 0
M  V30 7483 C 700.051 -2.02076 1.19174 0
M  V30 7484 C 701.067 -1.73645 0.11102 0
M  V30 7485 O 702.243 -1.98735 0.326528 0
M  V30 7486 C 699.308 -3.3515 0.887438 0
M  V30 7487 C 698.369 -3.76983 2.05383 0
M  V30 7488 C 697.602 -5.03707 1.76395 0
M  V30 7489 O 697.825 -5.66171 0.693302 0
M  V30 7490 O 696.759 -5.42019 2.61723 0
M  V30 7491 H 700.585 -2.14652 2.14845 0
M  V30 7492 H 698.17 -1.00843 1.10232 0
M  V30 7493 H 700.052 -4.14975 0.73306 0
M  V30 7494 H 698.727 -3.23676 -0.0393354 0
M  V30 7495 H 697.634 -2.97849 2.26355 0
M  V30 7496 H 698.967 -3.93066 2.96243 0
M  V30 7497 N 700.619 -1.13374 -1.09472 0
M  V30 7498 C 701.567 -0.806105 -2.18185 0
M  V30 7499 C 702.561 0.21136 -1.68076 0
M  V30 7500 O 703.767 0.0685558 -1.79869 0
M  V30 7501 H 700.142 -0.242901 -0.71169 0
M  V30 7502 H 702.113 -1.73115 -2.43051 0
M  V30 7503 C 700.862 -0.287928 -3.46506 0
M  V30 7504 H 700.185 -1.06217 -3.85432 0
M  V30 7505 H 701.625 -0.0971054 -4.23889 0
M  V30 7506 C 700.084 0.986256 -3.22141 0
M  V30 7507 O 700.614 2.06217 -3.44728 0
M  V30 7508 N 698.82 0.917153 -2.75747 0
M  V30 7509 H 698.367 0.0414609 -2.57567 0
M  V30 7510 H 698.325 1.77029 -2.59823 0
M  V30 7511 N 702.098 1.27442 -0.927168 0
M  V30 7512 C 703.045 2.26863 -0.424459 0
M  V30 7513 C 704.015 1.5813 0.508346 0
M  V30 7514 O 705.2 1.85946 0.42762 0
M  V30 7515 C 702.34 3.43639 0.31718 0
M  V30 7516 C 701.453 4.27087 -0.649675 0
M  V30 7517 C 700.588 5.31082 0.111753 0
M  V30 7518 C 699.627 6.062 -0.847843 0
M  V30 7519 N 698.764 7.01999 -0.119074 0
M  V30 7520 H 703.604 2.69239 -1.27728 0
M  V30 7521 H 701.141 1.32394 -0.641106 0
M  V30 7522 H 703.099 4.10155 0.763486 0
M  V30 7523 H 701.729 3.02217 1.13424 0
M  V30 7524 H 700.781 3.60491 -1.21451 0
M  V30 7525 H 702.093 4.79242 -1.38307 0
M  V30 7526 H 701.247 6.03544 0.618 0
M  V30 7527 H 699.986 4.7973 0.878114 0
M  V30 7528 H 698.991 5.32577 -1.36534 0
M  V30 7529 H 700.216 6.59642 -1.61398 0
M  V30 7530 H 698.162 6.52977 0.629051 0
M  V30 7531 H 698.079 7.5184 -0.792046 0
M  V30 7532 H 699.347 7.78638 0.366537 0
M  V30 7533 N 703.576 0.692616 1.41565 0
M  V30 7534 C 704.804 0.231279 2.05603 0
M  V30 7535 C 705.219 -1.11837 1.52111 0
M  V30 7536 O 704.576 -1.6983 0.66813 0
M  V30 7537 C 704.627 0.177125 3.61066 0
M  V30 7538 O 704.348 1.47346 4.12578 0
M  V30 7539 C 705.849 -0.30556 4.42246 0
M  V30 7540 H 703.069 0.108238 0.662213 0
M  V30 7541 H 705.613 0.944369 1.81389 0
M  V30 7542 H 703.768 -0.486769 3.8433 0
M  V30 7543 H 704.182 1.35861 5.06599 0
M  V30 7544 H 705.656 -0.29233 5.51225 0
M  V30 7545 H 706.133 -1.34393 4.18133 0
M  V30 7546 H 706.739 0.327229 4.24039 0
M  V30 7547 N 705.054 -1.51416 0.437162 0
M  V30 7548 C 706.002 -2.29328 -0.388765 0
M  V30 7549 C 706.996 -1.35171 -1.02104 0
M  V30 7550 O 708.202 -1.52513 -0.956024 0
M  V30 7551 H 704.577 -0.738048 -0.144183 0
M  V30 7552 H 706.548 -2.96995 0.289212 0
M  V30 7553 C 705.297 -3.14741 -1.47761 0
M  V30 7554 H 704.62 -3.8708 -1.00045 0
M  V30 7555 H 706.06 -3.72313 -2.02877 0
M  V30 7556 C 704.519 -2.30105 -2.46076 0
M  V30 7557 O 705.049 -1.96055 -3.50607 0
M  V30 7558 N 703.255 -1.93331 -2.1696 0
M  V30 7559 H 702.802 -2.2122 -1.31983 0
M  V30 7560 H 702.76 -1.36999 -2.82982 0
M  V30 7561 N 706.532 -0.168513 -1.56696 0
M  V30 7562 C 707.462 0.758563 -2.20835 0
M  V30 7563 C 708.443 1.24121 -1.1631 0
M  V30 7564 O 709.628 1.29487 -1.4473 0
M  V30 7565 C 706.758 1.9892 -2.8469 0
M  V30 7566 C 705.712 1.64252 -3.95228 0
M  V30 7567 C 705.038 2.94757 -4.46119 0
M  V30 7568 C 706.338 0.872675 -5.14958 0
M  V30 7569 H 708.032 0.223953 -2.98561 0
M  V30 7570 H 705.578 0.106277 -1.43607 0
M  V30 7571 H 707.531 2.64275 -3.28233 0
M  V30 7572 H 706.255 2.5479 -2.04327 0
M  V30 7573 H 704.914 1.01266 -3.52336 0
M  V30 7574 H 704.562 3.48662 -3.62552 0
M  V30 7575 H 704.262 2.72316 -5.2069 0
M  V30 7576 H 705.786 3.61147 -4.92347 0
M  V30 7577 H 707.2 1.42875 -5.55211 0
M  V30 7578 H 705.597 0.747402 -5.95428 0
M  V30 7579 H 706.667 -0.131535 -4.84722 0
M  V30 7580 N 708.01 1.57248 0.105221 0
M  V30 7581 C 708.957 2.01338 1.12835 0
M  V30 7582 C 709.927 0.887897 1.40377 0
M  V30 7583 O 711.112 1.15315 1.5201 0
M  V30 7584 C 708.252 2.43432 2.44611 0
M  V30 7585 C 707.365 3.69457 2.23888 0
M  V30 7586 C 706.5 4.00473 3.48991 0
M  V30 7587 C 705.539 5.19638 3.23485 0
M  V30 7588 N 704.676 5.46457 4.40828 0
M  V30 7589 H 709.516 2.88527 0.745386 0
M  V30 7590 H 707.053 1.42714 0.356535 0
M  V30 7591 H 709.011 2.65879 3.21503 0
M  V30 7592 H 707.641 1.59266 2.80774 0
M  V30 7593 H 706.693 3.54545 1.37847 0
M  V30 7594 H 708.005 4.56497 2.01026 0
M  V30 7595 H 707.159 4.23642 4.34295 0
M  V30 7596 H 705.898 3.11935 3.74897 0
M  V30 7597 H 704.903 4.96299 2.36574 0
M  V30 7598 H 706.128 6.09766 2.98935 0
M  V30 7599 H 704.074 4.60876 4.66829 0
M  V30 7600 H 703.991 6.27849 4.2112 0
M  V30 7601 H 705.259 5.74155 5.27225 0
M  V30 7602 N 709.488 -0.375779 1.53054 0
M  V30 7603 C 710.436 -1.48015 1.79428 0
M  V30 7604 C 711.43 -1.55893 0.662854 0
M  V30 7605 O 712.636 -1.58901 0.845599 0
M  V30 7606 H 709.011 -0.492887 0.56795 0
M  V30 7607 H 710.982 -1.22971 2.71884 0
M  V30 7608 C 709.731 -2.84984 1.99197 0
M  V30 7609 H 709.054 -2.79677 2.85693 0
M  V30 7610 H 710.494 -3.61462 2.21633 0
M  V30 7611 C 708.953 -3.28025 0.768183 0
M  V30 7612 O 709.483 -4.01671 -0.0480482 0
M  V30 7613 N 707.689 -2.84454 0.594521 0
M  V30 7614 H 707.236 -2.24688 1.25988 0
M  V30 7615 H 707.194 -3.13609 -0.222916 0
M  V30 7616 N 710.966 -1.44241 -0.634997 0
M  V30 7617 C 711.898 -1.46793 -1.76024 0
M  V30 7618 C 712.911 -0.361781 -1.58729 0
M  V30 7619 O 714.1 -0.627297 -1.67114 0
M  V30 7620 C 711.2 -1.28248 -3.13697 0
M  V30 7621 C 710.373 -2.52038 -3.57485 0
M  V30 7622 C 709.432 -2.2845 -4.74022 0
M  V30 7623 O 708.458 -3.01915 -4.82531 0
M  V30 7624 N 709.66 -1.31264 -5.65464 0
M  V30 7625 H 712.425 -2.43797 -1.74307 0
M  V30 7626 H 709.986 -1.39631 -0.819438 0
M  V30 7627 H 711.978 -1.10321 -3.89373 0
M  V30 7628 H 710.548 -0.39623 -3.10079 0
M  V30 7629 H 709.768 -2.85268 -2.72059 0
M  V30 7630 H 711.056 -3.34382 -3.83492 0
M  V30 7631 H 710.454 -0.705817 -5.6128 0
M  V30 7632 H 709.011 -1.19316 -6.40786 0
M  V30 7633 N 712.444 0.87505 -1.31075 0
M  V30 7634 C 713.374 1.99775 -1.20881 0
M  V30 7635 C 714.355 1.69822 -0.0971612 0
M  V30 7636 O 715.54 1.92158 -0.280895 0
M  V30 7637 C 712.67 3.35163 -0.910118 0
M  V30 7638 C 711.624 3.79406 -1.98078 0
M  V30 7639 C 710.95 5.12197 -1.53488 0
M  V30 7640 C 712.25 3.97061 -3.39323 0
M  V30 7641 H 713.944 2.08562 -2.14808 0
M  V30 7642 H 711.49 1.00207 -1.03415 0
M  V30 7643 H 713.443 4.13237 -0.825423 0
M  V30 7644 H 712.167 3.26536 0.064822 0
M  V30 7645 H 710.826 3.03568 -2.05528 0
M  V30 7646 H 710.474 5.00007 -0.547941 0
M  V30 7647 H 710.174 5.4277 -2.2511 0
M  V30 7648 H 711.698 5.92785 -1.46417 0
M  V30 7649 H 713.112 4.65545 -3.34576 0
M  V30 7650 H 711.509 4.39025 -4.09118 0
M  V30 7651 H 712.579 3.00601 -3.80483 0
M  V30 7652 N 713.922 1.13953 1.08869 0
M  V30 7653 C 715.171 0.899431 1.80536 0
M  V30 7654 C 715.484 -0.575781 1.86933 0
M  V30 7655 O 716.69 -0.932988 2.54966 0
M  V30 7656 C 715.146 1.55963 3.24351 0
M  V30 7657 C 714.754 3.07077 3.26202 0
M  V30 7658 C 716.498 1.40046 4.00733 0
M  V30 7659 C 714.405 3.65955 4.64576 0
M  V30 7660 H 713.335 0.332849 0.676556 0
M  V30 7661 H 715.986 1.3679 1.22314 0
M  V30 7662 H 714.368 1.01883 3.82669 0
M  V30 7663 H 715.542 3.67785 2.77617 0
M  V30 7664 H 713.857 3.22576 2.63312 0
M  V30 7665 H 716.454 1.81441 5.02974 0
M  V30 7666 H 716.797 0.345993 4.1486 0
M  V30 7667 H 717.33 1.91137 3.48872 0
M  V30 7668 H 714.069 4.71234 4.55652 0
M  V30 7669 H 713.589 3.10027 5.13462 0
M  V30 7670 H 715.268 3.65968 5.33551 0
M  V30 7671 N 715.4 -1.26948 0.933913 0
M  V30 7672 C 716.33 -2.29017 0.45534 0
M  V30 7673 C 717.311 -1.62961 -0.487605 0
M  V30 7674 O 718.496 -1.90223 -0.391022 0
M  V30 7675 C 715.626 -3.46112 -0.287015 0
M  V30 7676 C 714.58 -4.24205 0.568682 0
M  V30 7677 C 713.906 -5.3384 -0.303206 0
M  V30 7678 C 715.206 -4.88954 1.83633 0
M  V30 7679 H 716.9 -2.69298 1.30839 0
M  V30 7680 H 714.446 -1.29459 0.630579 0
M  V30 7681 H 716.399 -4.16622 -0.6328 0
M  V30 7682 H 715.123 -3.04765 -1.17414 0
M  V30 7683 H 713.782 -3.5545 0.897261 0
M  V30 7684 H 713.43 -4.88734 -1.18947 0
M  V30 7685 H 713.13 -5.86998 0.265879 0
M  V30 7686 H 714.654 -6.0719 -0.644423 0
M  V30 7687 H 716.068 -5.51717 1.55823 0
M  V30 7688 H 714.465 -5.52198 2.34941 0
M  V30 7689 H 715.535 -4.12305 2.55211 0
M  V30 7690 N 716.879 -0.700114 -1.41195 0
M  V30 7691 C 718.127 -0.232546 -2.00758 0
M  V30 7692 C 718.448 1.1734 -1.55745 0
M  V30 7693 O 717.718 1.79262 -0.790058 0
M  V30 7694 H 716.298 -0.0829845 -0.742376 0
M  V30 7695 H 718.96 -0.902289 -1.72756 0
M  V30 7696 H 718.056 -0.253521 -3.11069 0
M  V30 7697 N 718.357 1.51182 -0.445186 0
M  V30 7698 C 719.603 2.02452 0.11882 0
M  V30 7699 C 719.936 1.32824 1.41673 0
M  V30 7700 O 719.211 0.445637 1.89326 0
M  V30 7701 C 719.494 3.5859 0.329475 0
M  V30 7702 C 719.347 4.38823 -0.987638 0
M  V30 7703 C 720.666 4.26241 1.09575 0
M  V30 7704 H 717.785 0.735819 0.0417092 0
M  V30 7705 H 720.427 1.80747 -0.585718 0
M  V30 7706 H 718.577 3.77214 0.9296 0
M  V30 7707 H 720.249 4.3183 -1.62235 0
M  V30 7708 H 718.492 4.03594 -1.59041 0
M  V30 7709 H 719.163 5.46257 -0.794192 0
M  V30 7710 H 721.639 4.11934 0.587328 0
M  V30 7711 H 720.515 5.35354 1.21191 0
M  V30 7712 H 720.776 3.87635 2.12584 0
M  V30 7713 N 719.835 0.176821 1.56605 0
M  V30 7714 C 720.768 -0.790135 2.14084 0
M  V30 7715 C 721.746 -1.22219 1.07244 0
M  V30 7716 O 722.93 -1.31298 1.35252 0
M  V30 7717 C 720.057 -2.06475 2.68488 0
M  V30 7718 C 719.103 -1.77628 3.87751 0
M  V30 7719 S 719.936 -0.940612 5.27174 0
M  V30 7720 C 721.092 -2.22577 5.84988 0
M  V30 7721 H 721.325 -0.30144 2.95768 0
M  V30 7722 H 718.858 -0.0379279 1.54353 0
M  V30 7723 H 720.816 -2.79683 3.00479 0
M  V30 7724 H 719.477 -2.52457 1.8688 0
M  V30 7725 H 718.67 -2.72215 4.24164 0
M  V30 7726 H 718.272 -1.12512 3.56675 0
M  V30 7727 H 720.564 -3.17992 5.98237 0
M  V30 7728 H 721.507 -1.90624 6.81959 0
M  V30 7729 H 721.915 -2.34588 5.13448 0
M  V30 7730 N 721.313 -1.57302 -0.09688 0
M  V30 7731 C 722.561 -1.8563 -0.799117 0
M  V30 7732 C 722.882 -0.765263 -1.79356 0
M  V30 7733 O 722.152 0.208657 -1.94786 0
M  V30 7734 H 720.732 -0.684937 -0.298111 0
M  V30 7735 H 723.394 -1.9474 -0.0789341 0
M  V30 7736 H 722.49 -2.82305 -1.3308 0
M  V30 7737 N 722.791 0.367657 -1.53252 0
M  V30 7738 C 724.037 1.11216 -1.69584 0
M  V30 7739 C 724.37 1.89026 -0.445269 0
M  V30 7740 O 723.645 1.86342 0.557404 0
M  V30 7741 C 723.928 2.07308 -2.94441 0
M  V30 7742 C 723.781 1.3312 -4.2965 0
M  V30 7743 C 725.1 3.07459 -3.14892 0
M  V30 7744 H 722.219 0.40294 -0.617096 0
M  V30 7745 H 724.861 0.393201 -1.85887 0
M  V30 7746 H 723.011 2.68617 -2.80673 0
M  V30 7747 H 724.683 0.746111 -4.55226 0
M  V30 7748 H 722.926 0.633051 -4.29156 0
M  V30 7749 H 723.597 2.03443 -5.13142 0
M  V30 7750 H 726.073 2.56252 -3.27832 0
M  V30 7751 H 724.949 3.71919 -4.03693 0
M  V30 7752 H 725.21 3.77514 -2.30077 0
M  V30 7753 N 724.269 1.44576 0.627338 0
M  V30 7754 C 725.546 1.38033 1.38586 0
M  V30 7755 C 725.926 0.0409468 2.1106 0
M  V30 7756 O 725.274 -0.976582 2.0658 0
M  V30 7757 C 725.484 2.58102 2.34913 0
M  V30 7758 C 726.832 3.02332 2.98129 0
M  V30 7759 O 727.856 2.58334 2.45238 0
M  V30 7760 O 726.715 3.78628 3.94085 0
M  V30 7761 H 723.809 0.546801 0.620434 0
M  V30 7762 H 726.355 1.56672 0.652077 0
M  V30 7763 H 725.127 3.4719 1.80485 0
M  V30 7764 H 724.75 2.41696 3.15703 0
M  V30 7765 N 725.747 -0.868086 1.31537 0
M  V30 7766 C 726.993 -1.62367 1.2151 0
M  V30 7767 C 727.326 -1.92883 -0.225819 0
M  V30 7768 O 726.601 -1.56176 -1.15927 0
M  V30 7769 C 726.884 -2.95268 2.06129 0
M  V30 7770 C 726.737 -2.71619 3.58529 0
M  V30 7771 C 728.056 -3.96391 1.91212 0
M  V30 7772 H 725.175 -0.589178 0.442762 0
M  V30 7773 H 727.817 -1.00336 1.61347 0
M  V30 7774 H 725.967 -3.4821 1.72284 0
M  V30 7775 H 727.639 -2.25334 4.0252 0
M  V30 7776 H 725.882 -2.05817 3.81866 0
M  V30 7777 H 726.553 -3.66192 4.13047 0
M  V30 7778 H 729.029 -3.52663 2.20834 0
M  V30 7779 H 727.905 -4.87263 2.52718 0
M  V30 7780 H 728.166 -4.33335 0.875953 0
M  V30 7781 N 727.225 -1.14528 -1.08264 0
M  V30 7782 C 728.45 -0.938381 -1.84957 0
M  V30 7783 C 728.875 0.508044 -1.81109 0
M  V30 7784 O 728.233 1.36146 -1.19724 0
M  V30 7785 C 728.281 -1.44568 -3.30352 0
M  V30 7786 O 727.385 -0.638745 -4.07423 0
M  V30 7787 H 726.726 -0.335394 -0.573068 0
M  V30 7788 H 729.256 -1.52287 -1.36637 0
M  V30 7789 H 729.266 -1.45449 -3.81194 0
M  V30 7790 H 727.941 -2.49876 -3.32468 0
M  V30 7791 H 726.518 -0.698801 -3.66294 0
M  V30 7792 N 728.703 1.26451 -0.940633 0
M  V30 7793 C 729.633 2.28773 -0.467479 0
M  V30 7794 C 730.614 1.63218 0.478955 0
M  V30 7795 O 731.799 1.90427 0.380929 0
M  V30 7796 C 728.929 3.46259 0.268656 0
M  V30 7797 C 727.883 4.23898 -0.591171 0
M  V30 7798 C 727.209 5.33993 0.274891 0
M  V30 7799 C 728.509 4.87974 -1.86223 0
M  V30 7800 H 730.203 2.68601 -1.32265 0
M  V30 7801 H 727.749 1.29123 -0.637436 0
M  V30 7802 H 729.702 4.16951 0.610696 0
M  V30 7803 H 728.426 3.05383 1.15796 0
M  V30 7804 H 727.085 3.54969 -0.916098 0
M  V30 7805 H 726.733 4.89358 1.16353 0
M  V30 7806 H 726.433 5.86849 -0.297006 0
M  V30 7807 H 727.957 6.07523 0.612213 0
M  V30 7808 H 729.371 5.50883 -1.58747 0
M  V30 7809 H 727.768 5.50945 -2.37866 0
M  V30 7810 H 728.838 4.10945 -2.57394 0
M  V30 7811 N 730.181 0.707592 1.40822 0
M  V30 7812 C 731.091 0.0507246 2.34545 0
M  V30 7813 C 732.107 -0.752727 1.56876 0
M  V30 7814 O 733.283 -0.687524 1.89302 0
M  V30 7815 C 730.348 -0.865731 3.35717 0
M  V30 7816 C 729.409 -0.0531313 4.29267 0
M  V30 7817 C 728.642 -0.925939 5.25606 0
M  V30 7818 O 728.865 -2.16531 5.27703 0
M  V30 7819 O 727.799 -0.369194 6.00767 0
M  V30 7820 H 731.625 0.823587 2.9232 0
M  V30 7821 H 729.21 0.46801 1.4188 0
M  V30 7822 H 731.092 -1.39091 3.97783 0
M  V30 7823 H 729.767 -1.61788 2.80368 0
M  V30 7824 H 728.674 0.516931 3.70511 0
M  V30 7825 H 730.007 0.660617 4.87747 0
M  V30 7826 N 731.66 -1.50943 0.453197 0
M  V30 7827 C 732.937 -1.94872 -0.168633 0
M  V30 7828 C 733.317 -1.39272 -1.5864 0
M  V30 7829 O 732.665 -0.586272 -2.20851 0
M  V30 7830 C 732.875 -3.48757 -0.130217 0
M  V30 7831 C 734.223 -4.23331 -0.327975 0
M  V30 7832 O 735.247 -3.55594 -0.207619 0
M  V30 7833 O 734.106 -5.43529 -0.569077 0
M  V30 7834 H 731.2 -0.818042 -0.121394 0
M  V30 7835 H 733.746 -1.61782 0.512316 0
M  V30 7836 H 732.518 -3.81725 0.860346 0
M  V30 7837 H 732.141 -3.88333 -0.853397 0
M  V30 7838 N 733.138 -0.185124 -1.56509 0
M  V30 7839 C 734.387 0.456421 -1.96468 0
M  V30 7840 C 734.7 1.63448 -1.07444 0
M  V30 7841 O 735.906 2.34316 -1.37143 0
M  V30 7842 C 734.362 0.863404 -3.4939 0
M  V30 7843 C 733.97 -0.289815 -4.47062 0
M  V30 7844 C 735.714 1.47259 -3.98139 0
M  V30 7845 C 733.621 0.137571 -5.9124 0
M  V30 7846 H 732.551 0.17429 -0.733579 0
M  V30 7847 H 735.202 -0.275554 -1.81419 0
M  V30 7848 H 733.584 1.65176 -3.59907 0
M  V30 7849 H 734.758 -1.06728 -4.4827 0
M  V30 7850 H 733.073 -0.809851 -4.08449 0
M  V30 7851 H 735.67 1.80463 -5.03326 0
M  V30 7852 H 736.013 2.3755 -3.41871 0
M  V30 7853 H 736.546 0.748405 -3.90696 0
M  V30 7854 H 733.285 -0.730907 -6.51412 0
M  V30 7855 H 732.805 0.8801 -5.93308 0
M  V30 7856 H 734.484 0.576771 -6.44424 0
M  V30 7857 N 734.616 1.57351 0.0885366 0
M  V30 7858 C 735.563 2.02523 1.10693 0
M  V30 7859 C 736.533 0.902736 1.39427 0
M  V30 7860 O 737.718 1.16921 1.50779 0
M  V30 7861 C 734.858 2.46013 2.42016 0
M  V30 7862 C 733.971 3.7181 2.19957 0
M  V30 7863 C 733.106 4.04152 3.44724 0
M  V30 7864 C 732.145 5.2304 3.17956 0
M  V30 7865 N 731.282 5.51102 4.35007 0
M  V30 7866 H 736.122 2.89302 0.714742 0
M  V30 7867 H 733.659 1.43084 0.341378 0
M  V30 7868 H 735.617 2.69274 3.18665 0
M  V30 7869 H 734.247 1.62235 2.79069 0
M  V30 7870 H 733.299 3.55987 1.34079 0
M  V30 7871 H 734.611 4.58604 1.96173 0
M  V30 7872 H 733.765 4.28225 4.29777 0
M  V30 7873 H 732.504 3.15893 3.71568 0
M  V30 7874 H 731.509 4.98781 2.31296 0
M  V30 7875 H 732.734 6.12902 2.92451 0
M  V30 7876 H 730.68 4.65802 4.61914 0
M  V30 7877 H 730.597 6.3228 4.14437 0
M  V30 7878 H 731.865 5.79714 5.21106 0
M  V30 7879 N 736.094 -0.359525 1.53444 0
M  V30 7880 C 737.51 -0.701599 1.43352 0
M  V30 7881 C 737.71 -1.93049 0.577439 0
M  V30 7882 O 736.766 -2.52423 0.0622224 0
M  V30 7883 C 738.079 -0.90915 2.86627 0
M  V30 7884 C 739.627 -1.00878 2.96298 0
M  V30 7885 C 740.102 -1.24876 4.40647 0
M  V30 7886 N 741.593 -1.31632 4.44103 0
M  V30 7887 C 742.328 -1.51922 5.52908 0
M  V30 7888 N 741.824 -1.69489 6.71748 0
M  V30 7889 N 743.617 -1.54341 5.40496 0
M  V30 7890 H 735.768 0.448685 2.07607 0
M  V30 7891 H 738.031 0.138713 0.937797 0
M  V30 7892 H 737.737 -0.0778997 3.51614 0
M  V30 7893 H 737.611 -1.81551 3.30634 0
M  V30 7894 H 739.998 -1.83057 2.31461 0
M  V30 7895 H 740.079 -0.0796721 2.55676 0
M  V30 7896 H 739.723 -0.431961 5.0606 0
M  V30 7897 H 739.653 -2.19118 4.78848 0
M  V30 7898 H 742.144 -1.19646 3.5846 0
M  V30 7899 H 742.457 -1.84561 7.50438 0
M  V30 7900 H 740.802 -1.66655 6.74723 0
M  V30 7901 H 743.993 -1.40188 4.46615 0
M  V30 7902 H 744.166 -1.69812 6.25354 0
M  V30 7903 N 737.572 -1.44907 -0.619662 0
M  V30 7904 C 738.502 -1.55488 -1.742 0
M  V30 7905 C 739.483 -0.407143 -1.65156 0
M  V30 7906 O 740.668 -0.628743 -1.8374 0
M  V30 7907 C 737.798 -1.5097 -3.1277 0
M  V30 7908 C 736.752 -2.64337 -3.36615 0
M  V30 7909 C 736.078 -2.44872 -4.75333 0
M  V30 7910 C 737.378 -4.06423 -3.28051 0
M  V30 7911 H 739.072 -2.49432 -1.65602 0
M  V30 7912 H 736.618 -1.20047 -0.795281 0
M  V30 7913 H 738.571 -1.56971 -3.91073 0
M  V30 7914 H 737.295 -0.535486 -3.2218 0
M  V30 7915 H 735.954 -2.57744 -2.60698 0
M  V30 7916 H 735.602 -1.45617 -4.81461 0
M  V30 7917 H 735.302 -3.20888 -4.92244 0
M  V30 7918 H 736.826 -2.52709 -5.55851 0
M  V30 7919 H 738.24 -4.14324 -3.96243 0
M  V30 7920 H 736.637 -4.82733 -3.56495 0
M  V30 7921 H 737.707 -4.29183 -2.25676 0
M  V30 7922 N 739.05 0.861098 -1.31996 0
M  V30 7923 C 740.278 1.6474 -1.25173 0
M  V30 7924 C 740.693 1.87926 0.181425 0
M  V30 7925 O 740.05 1.4437 1.1164 0
M  V30 7926 C 740.101 3.01036 -2.0015 0
M  V30 7927 O 739.822 2.7888 -3.37872 0
M  V30 7928 C 741.323 3.95481 -2.00273 0
M  V30 7929 H 738.543 0.513314 -0.432146 0
M  V30 7930 H 741.087 1.07419 -1.74016 0
M  V30 7931 H 739.242 3.55021 -1.55046 0
M  V30 7932 H 739.656 3.65514 -3.76165 0
M  V30 7933 H 741.13 4.88403 -2.57229 0
M  V30 7934 H 741.607 4.27957 -0.987407 0
M  V30 7935 H 742.213 3.47433 -2.45296 0
M  V30 7936 N 740.528 1.15101 1.07655 0
M  V30 7937 C 741.939 0.933848 1.61667 0
M  V30 7938 C 742.29 -0.525569 1.8903 0
M  V30 7939 O 741.415 -1.39605 1.65346 0
M  V30 7940 C 742.01 1.68876 2.93711 0
M  V30 7941 C 740.569 1.51697 3.44478 0
M  V30 7942 C 739.716 1.70633 2.18586 0
M  V30 7943 H 742.667 1.30171 0.907816 0
M  V30 7944 H 742.688 1.15645 3.625 0
M  V30 7945 H 742.2 2.7509 2.73764 0
M  V30 7946 H 740.301 0.478635 3.69513 0
M  V30 7947 H 740.414 2.29194 4.20722 0
M  V30 7948 H 738.778 1.13259 2.28132 0
M  V30 7949 H 739.561 2.78206 2.01137 0
M  V30 7950 N 742.006 -1.2595 0.947325 0
M  V30 7951 C 743.422 -1.45737 0.650597 0
M  V30 7952 C 743.622 -1.85189 -0.794188 0
M  V30 7953 O 742.678 -1.97738 -1.57022 0
M  V30 7954 C 743.991 -2.53505 1.61728 0
M  V30 7955 C 745.539 -2.67351 1.62765 0
M  V30 7956 C 746.014 -3.78296 2.58179 0
M  V30 7957 N 747.505 -3.85696 2.56501 0
M  V30 7958 C 748.24 -4.71012 3.2701 0
M  V30 7959 N 747.736 -5.60669 4.06966 0
M  V30 7960 N 749.529 -4.64912 3.15932 0
M  V30 7961 H 741.68 -0.986327 1.8811 0
M  V30 7962 H 743.943 -0.494639 0.808725 0
M  V30 7963 H 743.649 -2.31357 2.6489 0
M  V30 7964 H 743.523 -3.51281 1.3741 0
M  V30 7965 H 745.91 -2.88869 0.603241 0
M  V30 7966 H 745.991 -1.69998 1.91139 0
M  V30 7967 H 745.635 -3.5753 3.60742 0
M  V30 7968 H 745.565 -4.75117 2.27093 0
M  V30 7969 H 748.056 -3.21601 1.98447 0
M  V30 7970 H 748.369 -6.22677 4.57704 0
M  V30 7971 H 746.714 -5.60402 4.11066 0
M  V30 7972 H 749.905 -3.93874 2.52945 0
M  V30 7973 H 750.078 -5.3118 3.71149 0
M  V30 7974 N 743.484 -0.715051 -1.40445 0
M  V30 7975 C 744.731 -0.254328 -2.00897 0
M  V30 7976 C 745.059 1.15228 -1.56693 0
M  V30 7977 O 744.314 1.7958 -0.777786 0
M  V30 7978 C 744.613 -0.281791 -3.56287 0
M  V30 7979 C 744.279 -1.63862 -4.20071 0
M  V30 7980 C 742.941 -2.01003 -4.37208 0
M  V30 7981 C 745.293 -2.53039 -4.55654 0
M  V30 7982 C 742.621 -3.26869 -4.8721 0
M  V30 7983 C 744.973 -3.78256 -5.07055 0
M  V30 7984 C 743.637 -4.15515 -5.22401 0
M  V30 7985 H 742.907 -0.0930652 -0.735133 0
M  V30 7986 H 745.554 -0.917977 -1.68064 0
M  V30 7987 H 743.859 0.465428 -3.89026 0
M  V30 7988 H 745.556 0.0925158 -4.00893 0
M  V30 7989 H 742.146 -1.33979 -4.07121 0
M  V30 7990 H 746.33 -2.2562 -4.42051 0
M  V30 7991 H 741.586 -3.55706 -4.97276 0
M  V30 7992 H 745.76 -4.47528 -5.33565 0
M  V30 7993 H 743.387 -5.13114 -5.60909 0
M  V30 7994 N 744.962 1.50701 -0.461195 0
M  V30 7995 C 746.19 2.06681 0.0951756 0
M  V30 7996 C 746.605 1.32615 1.34382 0
M  V30 7997 O 745.962 0.392531 1.78229 0
M  V30 7998 C 746.013 3.59354 0.393316 0
M  V30 7999 O 745.734 4.30626 -0.805797 0
M  V30 8000 C 747.235 4.31926 0.997744 0
M  V30 8001 H 744.455 0.670995 -0.00267259 0
M  V30 8002 H 746.999 1.93991 -0.647137 0
M  V30 8003 H 745.154 3.7188 1.08555 0
M  V30 8004 H 745.568 5.21667 -0.544409 0
M  V30 8005 H 747.042 5.39756 1.15619 0
M  V30 8006 H 747.519 3.91772 1.98523 0
M  V30 8007 H 748.125 4.23905 0.344188 0
M  V30 8008 N 746.441 0.193421 1.56409 0
M  V30 8009 C 747.371 -0.723334 2.22014 0
M  V30 8010 C 748.352 -1.22254 1.1827 0
M  V30 8011 O 749.537 -1.27168 1.46771 0
M  V30 8012 C 746.667 -1.94366 2.87818 0
M  V30 8013 C 745.621 -1.57943 3.97791 0
M  V30 8014 C 744.947 -2.87623 4.50752 0
M  V30 8015 C 746.247 -0.790639 5.16281 0
M  V30 8016 H 747.941 -0.176426 2.9888 0
M  V30 8017 H 745.487 -0.0834166 1.43758 0
M  V30 8018 H 747.44 -2.5902 3.32396 0
M  V30 8019 H 746.164 -2.51507 2.08355 0
M  V30 8020 H 744.823 -0.956482 3.53903 0
M  V30 8021 H 744.471 -3.4285 3.68053 0
M  V30 8022 H 744.171 -2.63998 5.24956 0
M  V30 8023 H 745.695 -3.53268 4.9803 0
M  V30 8024 H 747.109 -1.34024 5.57414 0
M  V30 8025 H 745.506 -0.65258 5.96541 0
M  V30 8026 H 746.576 0.208633 4.84451 0
M  V30 8027 N 747.919 -1.57396 -0.0801906 0
M  V30 8028 C 749.159 -1.88668 -0.786367 0
M  V30 8029 C 749.523 -0.786216 -1.75165 0
M  V30 8030 O 750.724 -0.981769 -2.50229 0
M  V30 8031 C 748.995 -3.25176 -1.48308 0
M  V30 8032 S 750.554 -3.78177 -2.22549 0
M  V30 8033 H 747.372 -0.661094 -0.261679 0
M  V30 8034 H 749.974 -1.95453 -0.0428196 0
M  V30 8035 H 748.678 -4.03176 -0.766629 0
M  V30 8036 H 748.209 -3.21567 -2.26623 0
M  V30 8037 H 750.224 -3.52789 -3.48934 0
M  V30 8038 N 749.397 0.351382 -1.53633 0
M  V30 8039 C 750.808 0.927429 -1.62036 0
M  V30 8040 C 751.159 1.89809 -0.496706 0
M  V30 8041 O 750.284 2.1313 0.374749 0
M  V30 8042 C 750.879 1.68886 -2.93706 0
M  V30 8043 C 749.438 2.21404 -3.04397 0
M  V30 8044 C 748.585 1.03075 -2.57431 0
M  V30 8045 H 751.536 0.129748 -1.58169 0
M  V30 8046 H 751.557 2.55116 -2.82305 0
M  V30 8047 H 751.069 0.982149 -3.75467 0
M  V30 8048 H 749.17 2.95274 -2.27253 0
M  V30 8049 H 749.283 2.48312 -4.09729 0
M  V30 8050 H 747.647 1.40188 -2.12649 0
M  V30 8051 H 748.43 0.338793 -3.41624 0
M  V30 8052 N 750.875 1.45233 0.611969 0
M  V30 8053 C 751.823 1.53898 1.74408 0
M  V30 8054 C 752.817 0.409254 1.64382 0
M  V30 8055 O 754.023 0.584988 1.70229 0
M  V30 8056 H 750.398 0.483303 0.576127 0
M  V30 8057 H 752.369 2.49143 1.64227 0
M  V30 8058 C 751.118 1.51865 3.12782 0
M  V30 8059 H 750.441 2.38118 3.21154 0
M  V30 8060 H 751.881 1.61986 3.91838 0
M  V30 8061 C 750.34 0.242374 3.36027 0
M  V30 8062 O 750.87 -0.679587 3.9591 0
M  V30 8063 N 749.076 0.139448 2.90265 0
M  V30 8064 H 748.623 0.890571 2.41716 0
M  V30 8065 H 748.581 -0.713686 3.06193 0
M  V30 8066 N 752.353 -0.854086 1.3245 0
M  V30 8067 C 753.601 -1.60513 1.228 0
M  V30 8068 C 753.922 -1.93865 -0.210073 0
M  V30 8069 O 753.192 -1.59673 -1.13496 0
M  V30 8070 H 751.772 -0.595099 0.451516 0
M  V30 8071 H 754.434 -1.0216 1.6598 0
M  V30 8072 H 753.53 -2.54182 1.81102 0
M  V30 8073 N 753.831 -1.1567 -1.07043 0
M  V30 8074 C 755.061 -0.956083 -1.83146 0
M  V30 8075 C 755.469 0.498969 -1.82502 0
M  V30 8076 O 754.812 1.35791 -1.23719 0
M  V30 8077 C 754.874 -1.39704 -3.31245 0
M  V30 8078 C 754.538 -2.87045 -3.55604 0
M  V30 8079 C 755.535 -3.85092 -3.49285 0
M  V30 8080 C 753.22 -3.24787 -3.8317 0
M  V30 8081 C 755.214 -5.18885 -3.70185 0
M  V30 8082 C 752.901 -4.58751 -4.03721 0
M  V30 8083 C 753.899 -5.55609 -3.97224 0
M  V30 8084 O 753.587 -6.87154 -4.17223 0
M  V30 8085 H 753.319 -0.339473 -0.58458 0
M  V30 8086 H 755.873 -1.53922 -1.36005 0
M  V30 8087 H 754.103 -0.757326 -3.79212 0
M  V30 8088 H 755.792 -1.16503 -3.88821 0
M  V30 8089 H 756.558 -3.5728 -3.27988 0
M  V30 8090 H 752.437 -2.49979 -3.87339 0
M  V30 8091 H 755.981 -5.94473 -3.6503 0
M  V30 8092 H 751.878 -4.86277 -4.24505 0
M  V30 8093 H 752.646 -6.93618 -4.34553 0
M  V30 8094 N 755.309 1.25446 -0.953992 0
M  V30 8095 C 756.539 1.96929 -0.624688 0
M  V30 8096 C 756.947 1.71112 0.807292 0
M  V30 8097 O 756.29 0.983512 1.55154 0
M  V30 8098 C 756.352 3.50425 -0.802676 0
M  V30 8099 C 756.016 3.99916 -2.21169 0
M  V30 8100 C 757.013 4.10662 -3.18831 0
M  V30 8101 C 754.698 4.33598 -2.53571 0
M  V30 8102 C 756.692 4.54401 -4.46988 0
M  V30 8103 C 754.379 4.77024 -3.81958 0
M  V30 8104 C 755.377 4.87388 -4.78478 0
M  V30 8105 O 755.065 5.29851 -6.04577 0
M  V30 8106 H 754.797 0.634511 -0.233179 0
M  V30 8107 H 757.351 1.60591 -1.28061 0
M  V30 8108 H 755.581 3.86596 -0.0896044 0
M  V30 8109 H 757.27 4.03117 -0.47452 0
M  V30 8110 H 758.036 3.84872 -2.95124 0
M  V30 8111 H 753.915 4.24757 -1.79171 0
M  V30 8112 H 757.459 4.62406 -5.22328 0
M  V30 8113 H 753.356 5.02258 -4.05471 0
M  V30 8114 H 754.124 5.48039 -6.07944 0
M  V30 8115 N 756.787 0.722489 1.40064 0
M  V30 8116 C 758.034 0.264979 2.00759 0
M  V30 8117 C 758.362 -1.14395 1.57302 0
M  V30 8118 O 757.617 -1.79165 0.787298 0
M  V30 8119 C 757.916 0.300682 3.56133 0
M  V30 8120 C 757.582 1.66087 4.19197 0
M  V30 8121 C 756.244 2.03319 4.36136 0
M  V30 8122 C 758.596 2.55452 4.54306 0
M  V30 8123 C 755.924 3.29448 4.8547 0
M  V30 8124 C 758.276 3.8094 5.05042 0
M  V30 8125 C 756.94 4.1828 5.2019 0
M  V30 8126 H 756.21 0.0969625 0.734629 0
M  V30 8127 H 758.857 0.926877 1.67575 0
M  V30 8128 H 757.162 -0.44479 3.89267 0
M  V30 8129 H 758.859 -0.0712542 4.00937 0
M  V30 8130 H 755.449 1.36137 4.06405 0
M  V30 8131 H 759.633 2.27961 4.40849 0
M  V30 8132 H 754.889 3.58338 4.95382 0
M  V30 8133 H 759.063 4.50351 5.31184 0
M  V30 8134 H 756.69 5.16081 5.58179 0
M  V30 8135 N 758.265 -1.50454 0.469181 0
M  V30 8136 C 759.228 -2.2703 -0.314643 0
M  V30 8137 C 760.228 -1.31734 -0.922111 0
M  V30 8138 O 761.418 -1.55176 -0.791588 0
M  V30 8139 C 758.55 -3.08616 -1.44806 0
M  V30 8140 H 759.743 -2.97769 0.356892 0
M  V30 8141 H 757.296 -1.54698 0.223191 0
M  V30 8142 H 758.031 -2.42369 -2.1547 0
M  V30 8143 H 757.816 -3.78647 -1.01829 0
M  V30 8144 H 759.306 -3.66536 -2.00103 0
M  V30 8145 N 759.743 -0.201713 -1.56304 0
M  V30 8146 C 760.992 0.435557 -1.96941 0
M  V30 8147 C 761.305 1.62299 -1.09172 0
M  V30 8148 O 762.511 2.32849 -1.3962 0
M  V30 8149 C 760.967 0.826298 -3.50286 0
M  V30 8150 C 760.575 -0.337216 -4.46729 0
M  V30 8151 C 762.319 1.43028 -3.99679 0
M  V30 8152 C 760.226 0.0748539 -5.91353 0
M  V30 8153 H 759.156 0.1665 -0.735387 0
M  V30 8154 H 761.807 -0.294781 -1.81117 0
M  V30 8155 H 760.189 1.61349 -3.61639 0
M  V30 8156 H 761.363 -1.11476 -4.47113 0
M  V30 8157 H 759.678 -0.853126 -4.07567 0
M  V30 8158 H 762.275 1.75115 -5.05212 0
M  V30 8159 H 762.618 2.33911 -3.44371 0
M  V30 8160 H 763.151 0.706924 -3.91468 0
M  V30 8161 H 759.89 -0.799957 -6.506 0
M  V30 8162 H 759.41 0.817122 -5.94208 0
M  V30 8163 H 761.089 0.508389 -6.45 0
M  V30 8164 N 761.222 1.57436 0.0718424 0
M  V30 8165 C 762.499 1.78312 0.804006 0
M  V30 8166 C 762.879 0.789273 1.9579 0
M  V30 8167 O 762.227 -0.177605 2.27809 0
M  V30 8168 C 762.437 3.24798 1.277 0
M  V30 8169 C 763.785 3.88627 1.71039 0
M  V30 8170 O 764.809 3.28689 1.37266 0
M  V30 8171 O 763.668 4.94073 2.33567 0
M  V30 8172 H 760.762 0.73178 0.385262 0
M  V30 8173 H 763.308 1.69621 0.0519219 0
M  V30 8174 H 762.08 3.88688 0.45134 0
M  V30 8175 H 761.703 3.38213 2.0904 0
M  V30 8176 N 762.7 -0.34323 1.53817 0
M  V30 8177 C 764.111 -0.918823 1.62525 0
M  V30 8178 C 764.462 -1.89542 0.506765 0
M  V30 8179 O 763.587 -2.13326 -0.363441 0
M  V30 8180 C 764.182 -1.67326 2.94597 0
M  V30 8181 C 762.741 -2.19786 3.05567 0
M  V30 8182 C 761.888 -1.01708 2.57974 0
M  V30 8183 H 764.839 -0.121358 1.58235 0
M  V30 8184 H 764.86 -2.53615 2.83654 0
M  V30 8185 H 764.372 -0.962223 3.75983 0
M  V30 8186 H 762.473 -2.94065 2.28816 0
M  V30 8187 H 762.586 -2.46135 4.1104 0
M  V30 8188 H 760.95 -1.39058 2.13389 0
M  V30 8189 H 761.733 -0.320671 3.41799 0
M  V30 8190 N 764.178 -1.45556 -0.604258 0
M  V30 8191 C 765.126 -1.5482 -1.7359 0
M  V30 8192 C 766.12 -0.417966 -1.64163 0
M  V30 8193 O 767.326 -0.594007 -1.69916 0
M  V30 8194 H 763.701 -0.486352 -0.573556 0
M  V30 8195 H 765.672 -2.5001 -1.62903 0
M  V30 8196 C 764.421 -1.53521 -3.11972 0
M  V30 8197 H 763.744 -2.39818 -3.19886 0
M  V30 8198 H 765.184 -1.64061 -3.90973 0
M  V30 8199 C 763.643 -0.260191 -3.35894 0
M  V30 8200 O 764.173 0.658582 -3.96265 0
M  V30 8201 N 762.379 -0.154839 -2.90187 0
M  V30 8202 H 761.926 -0.903378 -2.4124 0
M  V30 8203 H 761.884 0.697437 -3.06567 0
M  V30 8204 N 765.656 0.84705 -1.32902 0
M  V30 8205 C 766.904 1.5986 -1.2365 0
M  V30 8206 C 767.225 1.93974 0.199789 0
M  V30 8207 O 766.495 1.60273 1.12648 0
M  V30 8208 H 765.075 0.592696 -0.454665 0
M  V30 8209 H 767.737 1.01278 -1.66519 0
M  V30 8210 H 766.833 2.53218 -1.82448 0
M  V30 8211 N 767.134 1.16236 1.06428 0
M  V30 8212 C 768.364 0.965782 1.82637 0
M  V30 8213 C 768.772 -0.489284 1.82764 0
M  V30 8214 O 768.115 -1.35133 1.24438 0
M  V30 8215 C 768.177 1.41458 3.30499 0
M  V30 8216 C 767.841 2.88926 3.54077 0
M  V30 8217 C 768.838 3.86939 3.47238 0
M  V30 8218 C 766.523 3.26814 3.81442 0
M  V30 8219 C 768.517 5.20841 3.67428 0
M  V30 8220 C 766.204 4.60886 4.01282 0
M  V30 8221 C 767.202 5.57708 3.94272 0
M  V30 8222 O 766.89 6.89357 4.13573 0
M  V30 8223 H 766.622 0.342569 0.582772 0
M  V30 8224 H 769.176 1.54641 1.35187 0
M  V30 8225 H 767.406 0.777426 3.78805 0
M  V30 8226 H 769.095 1.18563 3.88198 0
M  V30 8227 H 769.861 3.59014 3.26089 0
M  V30 8228 H 765.74 2.5203 3.86008 0
M  V30 8229 H 769.284 5.96401 3.61873 0
M  V30 8230 H 765.181 4.88522 4.21921 0
M  V30 8231 H 765.949 6.95913 4.30869 0
M  V30 8232 N 768.612 -1.24939 0.960631 0
M  V30 8233 C 769.858 -1.93104 0.61958 0
M  V30 8234 C 770.191 -1.74991 -0.84212 0
M  V30 8235 O 769.466 -1.09867 -1.60498 0
M  V30 8236 C 769.749 -3.46326 0.986422 0
M  V30 8237 C 769.602 -3.73638 2.50429 0
M  V30 8238 C 770.921 -4.37067 0.515827 0
M  V30 8239 H 768.04 -0.701311 0.226566 0
M  V30 8240 H 770.682 -1.47442 1.19836 0
M  V30 8241 H 768.832 -3.85348 0.493907 0
M  V30 8242 H 770.504 -3.44217 3.07103 0
M  V30 8243 H 768.747 -3.19035 2.93937 0
M  V30 8244 H 769.418 -4.80815 2.71147 0
M  V30 8245 H 771.894 -4.05381 0.938389 0
M  V30 8246 H 770.77 -5.43022 0.80114 0
M  V30 8247 H 771.031 -4.38224 -0.584171 0
M  V30 8248 N 770.09 -0.729906 -1.39679 0
M  V30 8249 C 771.02 -0.101618 -2.33279 0
M  V30 8250 C 772.001 0.729854 -1.53646 0
M  V30 8251 O 773.186 0.67587 -1.82059 0
M  V30 8252 C 770.316 0.81024 -3.37716 0
M  V30 8253 C 769.27 0.0833126 -4.27919 0
M  V30 8254 C 768.596 1.11185 -5.23012 0
M  V30 8255 C 769.896 -1.07107 -5.112 0
M  V30 8256 H 771.59 -0.883452 -2.86069 0
M  V30 8257 H 769.136 -0.426283 -1.37546 0
M  V30 8258 H 771.089 1.25927 -4.02145 0
M  V30 8259 H 769.813 1.62413 -2.83354 0
M  V30 8260 H 768.472 -0.346043 -3.64963 0
M  V30 8261 H 768.12 1.91917 -4.64948 0
M  V30 8262 H 767.82 0.63026 -5.8421 0
M  V30 8263 H 769.344 1.56068 -5.90318 0
M  V30 8264 H 770.758 -0.700726 -5.69002 0
M  V30 8265 H 769.155 -1.48196 -5.81514 0
M  V30 8266 H 770.225 -1.89513 -4.46332 0
M  V30 8267 N 771.568 1.50203 -0.477153 0
M  V30 8268 C 772.498 2.31517 0.303646 0
M  V30 8269 C 773.479 1.38696 0.984753 0
M  V30 8270 O 774.664 1.67615 0.980758 0
M  V30 8271 C 771.794 3.18598 1.38249 0
M  V30 8272 C 770.748 4.2002 0.822645 0
M  V30 8273 C 770.074 4.95878 2.00024 0
M  V30 8274 C 771.374 5.22023 -0.170185 0
M  V30 8275 H 773.068 2.97042 -0.375027 0
M  V30 8276 H 770.614 1.42848 -0.181802 0
M  V30 8277 H 772.567 3.74282 1.93625 0
M  V30 8278 H 771.291 2.5097 2.09002 0
M  V30 8279 H 769.95 3.65445 0.290813 0
M  V30 8280 H 769.598 4.24717 2.69489 0
M  V30 8281 H 769.298 5.64487 1.63183 0
M  V30 8282 H 770.822 5.54399 2.55878 0
M  V30 8283 H 772.236 5.72543 0.294606 0
M  V30 8284 H 770.633 5.98386 -0.453181 0
M  V30 8285 H 771.703 4.72396 -1.09408 0
M  V30 8286 N 773.046 0.209999 1.56195 0
M  V30 8287 C 773.996 -0.717978 2.164 0
M  V30 8288 C 774.98 -1.16577 1.10899 0
M  V30 8289 O 776.172 -1.12169 1.3692 0
M  V30 8290 C 773.301 -1.93091 2.8385 0
M  V30 8291 C 772.387 -1.50333 3.96561 0
M  V30 8292 N 772.778 -0.787621 4.9963 0
M  V30 8293 C 771.076 -1.79151 4.08437 0
M  V30 8294 C 771.777 -0.571204 5.78889 0
M  V30 8295 N 770.753 -1.12444 5.31843 0
M  V30 8296 H 774.555 -0.162603 2.9345 0
M  V30 8297 H 772.069 0.0107928 1.62396 0
M  V30 8298 H 774.066 -2.60635 3.25384 0
M  V30 8299 H 772.726 -2.49087 2.08293 0
M  V30 8300 H 773.737 -0.441513 5.16015 0
M  V30 8301 H 770.414 -2.36549 3.44022 0
M  V30 8302 H 771.804 -0.00237941 6.719 0
M  V30 8303 N 774.524 -1.57472 -0.0634922 0
M  V30 8304 C 775.935 -1.76303 -0.614337 0
M  V30 8305 C 776.286 -0.836578 -1.77471 0
M  V30 8306 O 775.411 -0.0227184 -2.16388 0
M  V30 8307 C 776.006 -3.19709 -1.12122 0
M  V30 8308 C 774.565 -3.39856 -1.61786 0
M  V30 8309 C 773.712 -2.71975 -0.540845 0
M  V30 8310 H 776.663 -1.57864 0.162702 0
M  V30 8311 H 776.684 -3.24326 -1.98979 0
M  V30 8312 H 776.196 -3.87114 -0.276472 0
M  V30 8313 H 774.297 -2.77578 -2.48558 0
M  V30 8314 H 774.41 -4.48338 -1.68908 0
M  V30 8315 H 772.774 -2.34763 -0.987854 0
M  V30 8316 H 773.557 -3.4204 0.293856 0
M  V30 8317 N 776.003 0.335068 -1.53997 0
M  V30 8318 C 776.951 1.43206 -1.83289 0
M  V30 8319 C 777.945 1.54081 -0.703953 0
M  V30 8320 O 779.151 1.56603 -0.887432 0
M  V30 8321 H 775.526 0.477655 -0.580818 0
M  V30 8322 H 777.497 1.15719 -2.75049 0
M  V30 8323 C 776.246 2.79602 -2.06683 0
M  V30 8324 H 775.569 2.72004 -2.93008 0
M  V30 8325 H 777.009 3.55459 -2.31139 0
M  V30 8326 C 775.468 3.25873 -0.854883 0
M  V30 8327 O 775.998 4.01657 -0.0584648 0
M  V30 8328 N 774.204 2.82777 -0.669729 0
M  V30 8329 H 773.751 2.21269 -1.31901 0
M  V30 8330 H 773.709 3.1409 0.13969 0
M  V30 8331 N 777.481 1.45874 0.596531 0
M  V30 8332 C 778.411 1.5824 1.71705 0
M  V30 8333 C 779.392 0.433366 1.64487 0
M  V30 8334 O 780.577 0.657895 1.82717 0
M  V30 8335 C 777.707 1.55927 3.10329 0
M  V30 8336 C 776.661 2.69659 3.32367 0
M  V30 8337 C 775.987 2.52403 4.71377 0
M  V30 8338 C 777.287 4.11591 3.21544 0
M  V30 8339 H 778.981 2.52035 1.61613 0
M  V30 8340 H 776.527 1.21297 0.776082 0
M  V30 8341 H 778.48 1.63173 3.88526 0
M  V30 8342 H 777.204 0.586674 3.21288 0
M  V30 8343 H 775.863 2.61859 2.56564 0
M  V30 8344 H 775.511 1.53258 4.79083 0
M  V30 8345 H 775.211 3.28679 4.87077 0
M  V30 8346 H 776.735 2.6152 5.5176 0
M  V30 8347 H 778.149 4.20576 3.89601 0
M  V30 8348 H 776.546 4.88344 3.4877 0
M  V30 8349 H 777.616 4.32719 2.1882 0
M  V30 8350 N 778.959 -0.83999 1.33349 0
M  V30 8351 C 779.891 -1.95678 1.19344 0
M  V30 8352 C 780.904 -1.62322 0.124692 0
M  V30 8353 O 782.093 -1.74516 0.375012 0
M  V30 8354 C 779.193 -3.29133 0.807771 0
M  V30 8355 C 778.366 -3.9063 1.96792 0
M  V30 8356 C 777.425 -5.02438 1.56341 0
M  V30 8357 O 776.451 -5.21646 2.27759 0
M  V30 8358 N 777.653 -5.78612 0.467767 0
M  V30 8359 H 780.418 -2.08229 2.15548 0
M  V30 8360 H 777.979 -1.01566 1.26079 0
M  V30 8361 H 779.971 -4.01355 0.519282 0
M  V30 8362 H 778.541 -3.12535 -0.063555 0
M  V30 8363 H 777.761 -3.11011 2.4221 0
M  V30 8364 H 779.049 -4.2845 2.74422 0
M  V30 8365 H 778.447 -5.65559 -0.126324 0
M  V30 8366 H 777.004 -6.51362 0.238945 0
M  V30 8367 N 780.437 -1.16799 -1.0581 0
M  V30 8368 C 781.848 -0.95945 -1.60161 0
M  V30 8369 C 782.199 0.49543 -1.89842 0
M  V30 8370 O 781.324 1.36957 -1.67546 0
M  V30 8371 C 781.919 -1.73527 -2.90987 0
M  V30 8372 C 780.478 -1.57158 -3.42021 0
M  V30 8373 C 779.625 -1.74089 -2.15843 0
M  V30 8374 H 782.576 -1.31598 -0.886992 0
M  V30 8375 H 782.597 -1.21397 -3.60615 0
M  V30 8376 H 782.109 -2.79411 -2.69353 0
M  V30 8377 H 780.21 -0.537361 -3.68705 0
M  V30 8378 H 780.323 -2.35858 -4.17022 0
M  V30 8379 H 778.687 -1.16874 -2.26302 0
M  V30 8380 H 779.47 -2.81371 -1.96686 0
M  V30 8381 N 781.915 1.24427 -0.967243 0
M  V30 8382 C 782.862 2.25398 -0.496419 0
M  V30 8383 C 783.832 1.59667 0.457781 0
M  V30 8384 O 785.017 1.87213 0.368246 0
M  V30 8385 C 782.157 3.44474 0.207693 0
M  V30 8386 C 781.27 4.24804 -0.785221 0
M  V30 8387 C 780.405 5.31169 -0.0572631 0
M  V30 8388 C 779.444 6.03195 -1.04027 0
M  V30 8389 N 778.581 7.01265 -0.34235 0
M  V30 8390 H 783.421 2.65039 -1.36229 0
M  V30 8391 H 780.958 1.30288 -0.682902 0
M  V30 8392 H 782.916 4.12376 0.632612 0
M  V30 8393 H 781.546 3.05672 1.03752 0
M  V30 8394 H 780.598 3.56445 -1.32858 0
M  V30 8395 H 781.91 4.74599 -1.53483 0
M  V30 8396 H 781.064 6.05205 0.425674 0
M  V30 8397 H 779.803 4.8228 0.725047 0
M  V30 8398 H 778.808 5.27964 -1.53409 0
M  V30 8399 H 780.033 6.54173 -1.82302 0
M  V30 8400 H 777.979 6.54648 0.420993 0
M  V30 8401 H 777.896 7.48939 -1.03084 0
M  V30 8402 H 779.164 7.7941 0.118634 0
M  V30 8403 N 783.393 0.737304 1.3929 0
M  V30 8404 C 784.804 0.355966 1.83275 0
M  V30 8405 C 785.155 -1.11295 1.6158 0
M  V30 8406 O 784.28 -1.85871 1.10819 0
M  V30 8407 C 784.875 0.63931 3.32713 0
M  V30 8408 C 783.434 0.31144 3.75109 0
M  V30 8409 C 782.581 0.900765 2.62262 0
M  V30 8410 H 785.532 0.934763 1.28249 0
M  V30 8411 H 785.553 -0.0881293 3.80398 0
M  V30 8412 H 785.065 1.70847 3.48472 0
M  V30 8413 H 783.166 -0.751791 3.64937 0
M  V30 8414 H 783.279 0.795611 4.72448 0
M  V30 8415 H 781.643 0.327239 2.52589 0
M  V30 8416 H 782.426 1.97463 2.80826 0
M  V30 8417 N 784.871 -1.49948 0.485112 0
M  V30 8418 C 786.12 -2.01589 -0.066765 0
M  V30 8419 C 786.433 -1.371 -1.39509 0
M  V30 8420 O 787.639 -1.79978 -2.03274 0
M  V30 8421 C 786.095 -3.59501 -0.169476 0
M  V30 8422 C 785.703 -4.32955 1.15126 0
M  V30 8423 C 787.447 -4.19138 -0.672564 0
M  V30 8424 C 785.354 -5.82684 1.01158 0
M  V30 8425 H 784.284 -0.753453 -0.0287259 0
M  V30 8426 H 786.935 -1.72632 0.622132 0
M  V30 8427 H 785.317 -3.85106 -0.922471 0
M  V30 8428 H 786.491 -4.19064 1.9163 0
M  V30 8429 H 784.806 -3.84991 1.58654 0
M  V30 8430 H 787.403 -5.28767 -0.794325 0
M  V30 8431 H 787.746 -3.81447 -1.66745 0
M  V30 8432 H 788.279 -3.97793 0.0234415 0
M  V30 8433 H 785.018 -6.24873 1.98025 0
M  V30 8434 H 784.538 -5.99112 0.287151 0
M  V30 8435 H 786.217 -6.43376 0.683847 0
M  V30 8436 N 786.349 -0.21828 -1.56081 0
M  V30 8437 C 787.597 0.413488 -1.97825 0
M  V30 8438 C 787.918 1.60527 -1.10707 0
M  V30 8439 O 787.188 1.9504 -0.183378 0
M  V30 8440 H 785.768 0.155757 -0.730581 0
M  V30 8441 H 788.43 -0.310413 -1.92412 0
M  V30 8442 H 787.526 0.742024 -3.03151 0
M  V30 8443 N 787.827 1.57504 0.0551401 0
M  V30 8444 C 789.073 1.88334 0.752216 0
M  V30 8445 C 789.406 0.812742 1.76375 0
M  V30 8446 O 788.681 -0.175198 1.93709 0
M  V30 8447 C 788.964 3.29824 1.44528 0
M  V30 8448 C 788.817 4.47553 0.449026 0
M  V30 8449 C 790.136 3.69808 2.38601 0
M  V30 8450 H 787.255 0.684973 0.271995 0
M  V30 8451 H 789.897 1.89994 0.0151895 0
M  V30 8452 H 788.047 3.28539 2.07351 0
M  V30 8453 H 789.719 4.60967 -0.175277 0
M  V30 8454 H 787.962 4.33168 -0.234162 0
M  V30 8455 H 788.633 5.43376 0.971917 0
M  V30 8456 H 791.109 3.72293 1.85842 0
M  V30 8457 H 789.985 4.69665 2.84088 0
M  V30 8458 H 790.246 3.00641 3.24141 0
M  V30 8459 N 789.305 -0.326896 1.54172 0
M  V30 8460 C 790.553 -1.06313 1.71878 0
M  V30 8461 C 790.874 -1.88652 0.493498 0
M  V30 8462 O 790.144 -1.89608 -0.492522 0
M  V30 8463 H 788.724 -0.39549 0.633716 0
M  V30 8464 H 791.386 -0.364139 1.91468 0
M  V30 8465 H 790.482 -1.73105 2.59694 0
M  V30 8466 N 790.784 -1.46188 -0.588786 0
M  V30 8467 C 792.033 -1.50452 -1.34339 0
M  V30 8468 C 792.346 -0.158096 -1.9496 0
M  V30 8469 O 793.552 -0.0784918 -2.71387 0
M  V30 8470 C 792.008 -2.65074 -2.43441 0
M  V30 8471 C 791.616 -4.06111 -1.8915 0
M  V30 8472 C 793.36 -2.78603 -3.20282 0
M  V30 8473 C 791.267 -5.12084 -2.95845 0
M  V30 8474 H 790.197 -0.559905 -0.504997 0
M  V30 8475 H 792.848 -1.72382 -0.629014 0
M  V30 8476 H 791.23 -2.36462 -3.1765 0
M  V30 8477 H 792.404 -4.44487 -1.21524 0
M  V30 8478 H 790.719 -3.97197 -1.24995 0
M  V30 8479 H 793.316 -3.54944 -3.99898 0
M  V30 8480 H 793.659 -1.85902 -3.72486 0
M  V30 8481 H 794.192 -3.06832 -2.53178 0
M  V30 8482 H 790.931 -6.06556 -2.48535 0
M  V30 8483 H 790.451 -4.78259 -3.61979 0
M  V30 8484 H 792.13 -5.37661 -3.59902 0
M  V30 8485 N 792.262 0.832906 -1.33792 0
M  V30 8486 C 793.673 1.40489 -1.22963 0
M  V30 8487 C 794.024 1.95633 0.149026 0
M  V30 8488 O 793.149 1.8928 1.04891 0
M  V30 8489 C 793.744 2.55387 -2.22627 0
M  V30 8490 C 792.303 3.08522 -2.15618 0
M  V30 8491 C 791.45 1.81347 -2.09782 0
M  V30 8492 H 794.401 0.638156 -1.45304 0
M  V30 8493 H 794.422 3.33193 -1.83746 0
M  V30 8494 H 793.934 2.15222 -3.22957 0
M  V30 8495 H 792.035 3.53217 -1.18611 0
M  V30 8496 H 792.148 3.6829 -3.0643 0
M  V30 8497 H 790.512 2.01839 -1.55349 0
M  V30 8498 H 791.295 1.43369 -3.1193 0
M  V30 8499 N 793.74 1.17359 1.05189 0
M  V30 8500 C 794.968 0.986529 1.81866 0
M  V30 8501 C 795.383 -0.46522 1.82979 0
M  V30 8502 O 794.74 -1.32305 1.25705 0
M  V30 8503 C 794.791 1.52021 3.27982 0
M  V30 8504 O 794.512 2.91511 3.27037 0
M  V30 8505 C 796.013 1.37774 4.21347 0
M  V30 8506 H 793.233 0.349021 0.573084 0
M  V30 8507 H 795.777 1.55648 1.32643 0
M  V30 8508 H 793.932 0.992287 3.74476 0
M  V30 8509 H 794.346 3.16178 4.18488 0
M  V30 8510 H 795.82 1.7993 5.21852 0
M  V30 8511 H 796.297 0.32483 4.37997 0
M  V30 8512 H 796.903 1.89583 3.80708 0
M  V30 8513 N 795.218 -1.23913 0.973828 0
M  V30 8514 C 796.467 -1.91455 0.63464 0
M  V30 8515 C 796.78 -1.76893 -0.834759 0
M  V30 8516 O 797.986 -2.3918 -1.28473 0
M  V30 8517 C 796.442 -3.43172 1.08447 0
M  V30 8518 C 796.05 -3.66409 2.57776 0
M  V30 8519 C 797.794 -4.1653 0.818721 0
M  V30 8520 C 795.701 -5.11728 2.9646 0
M  V30 8521 H 794.631 -0.716881 0.233661 0
M  V30 8522 H 797.282 -1.40457 1.18085 0
M  V30 8523 H 795.664 -3.93242 0.466524 0
M  V30 8524 H 796.838 -3.26913 3.24753 0
M  V30 8525 H 795.153 -3.06349 2.82027 0
M  V30 8526 H 797.75 -5.23603 1.08367 0
M  V30 8527 H 798.093 -4.15578 -0.245128 0
M  V30 8528 H 798.626 -3.72428 1.39793 0
M  V30 8529 H 795.365 -5.17806 4.01941 0
M  V30 8530 H 794.885 -5.52199 2.34172 0
M  V30 8531 H 796.564 -5.80009 2.86703 0
M  V30 8532 N 796.696 -0.74468 -1.38897 0
M  V30 8533 C 797.644 -0.100312 -2.32384 0
M  V30 8534 C 798.638 0.715191 -1.53562 0
M  V30 8535 O 799.844 0.615288 -1.69157 0
M  V30 8536 H 796.219 -0.0136403 -0.751876 0
M  V30 8537 H 798.19 -0.905007 -2.84345 0
M  V30 8538 C 796.939 0.785432 -3.38713 0
M  V30 8539 H 796.262 0.167308 -3.9945 0
M  V30 8540 H 797.702 1.20374 -4.06554 0
M  V30 8541 C 796.161 1.92408 -2.76552 0
M  V30 8542 O 796.691 3.01752 -2.65157 0
M  V30 8543 N 794.897 1.71642 -2.34494 0
M  V30 8544 H 794.444 0.827079 -2.43961 0
M  V30 8545 H 794.402 2.48 -1.93244 0
M  V30 8546 N 798.174 1.49689 -0.493057 0
M  V30 8547 C 799.104 2.31826 0.279073 0
M  V30 8548 C 800.085 1.39733 0.969987 0
M  V30 8549 O 801.27 1.68646 0.962925 0
M  V30 8550 C 798.4 3.20046 1.34862 0
M  V30 8551 C 797.354 4.20869 0.77805 0
M  V30 8552 C 796.68 4.97971 1.94753 0
M  V30 8553 C 797.98 5.21813 -0.225543 0
M  V30 8554 H 799.674 2.96627 -0.406512 0
M  V30 8555 H 797.22 1.42647 -0.196943 0
M  V30 8556 H 799.173 3.76315 1.89645 0
M  V30 8557 H 797.897 2.53172 2.06328 0
M  V30 8558 H 796.556 3.65733 0.252036 0
M  V30 8559 H 796.204 4.27552 2.64969 0
M  V30 8560 H 795.904 5.66186 1.57187 0
M  V30 8561 H 797.428 5.57082 2.49984 0
M  V30 8562 H 798.842 5.72823 0.233864 0
M  V30 8563 H 797.239 5.97872 -0.516622 0
M  V30 8564 H 798.309 4.71209 -1.14412 0
M  V30 8565 N 799.652 0.226554 1.55963 0
M  V30 8566 C 801.068 -0.128733 1.5908 0
M  V30 8567 C 801.268 -1.58558 1.24345 0
M  V30 8568 O 800.324 -2.32661 0.981069 0
M  V30 8569 C 801.637 0.202076 3.0002 0
M  V30 8570 C 803.185 0.144718 3.12665 0
M  V30 8571 C 803.66 0.449272 4.55791 0
M  V30 8572 N 805.151 0.399026 4.61478 0
M  V30 8573 C 805.886 0.608106 5.70166 0
M  V30 8574 N 805.382 0.879227 6.87198 0
M  V30 8575 N 807.175 0.5402 5.59498 0
M  V30 8576 H 799.326 1.17686 1.76816 0
M  V30 8577 H 801.589 0.472072 0.822102 0
M  V30 8578 H 801.295 1.21341 3.30105 0
M  V30 8579 H 801.169 -0.480554 3.74126 0
M  V30 8580 H 803.556 -0.857261 2.82374 0
M  V30 8581 H 803.637 0.860899 2.40878 0
M  V30 8582 H 803.281 1.44871 4.86801 0
M  V30 8583 H 803.211 -0.288157 5.25811 0
M  V30 8584 H 805.702 0.197372 3.77384 0
M  V30 8585 H 806.015 1.02673 7.65949 0
M  V30 8586 H 804.36 0.916477 6.88931 0
M  V30 8587 H 807.551 0.328581 4.66945 0
M  V30 8588 H 807.724 0.706548 6.44137 0
M  V30 8589 N 801.13 -1.57531 -0.0467866 0
M  V30 8590 C 802.077 -2.05387 -1.05285 0
M  V30 8591 C 803.047 -0.939385 -1.36985 0
M  V30 8592 O 804.232 -1.20877 -1.47626 0
M  V30 8593 C 801.372 -2.52343 -2.35408 0
M  V30 8594 C 800.485 -3.77512 -2.10022 0
M  V30 8595 C 799.62 -4.1315 -3.33887 0
M  V30 8596 C 798.659 -5.31286 -3.03976 0
M  V30 8597 N 797.796 -5.62441 -4.20243 0
M  V30 8598 H 802.636 -2.91095 -0.637788 0
M  V30 8599 H 800.173 -1.43939 -0.303322 0
M  V30 8600 H 802.131 -2.77628 -3.11413 0
M  V30 8601 H 800.761 -1.69577 -2.7467 0
M  V30 8602 H 799.813 -3.59417 -1.24594 0
M  V30 8603 H 801.125 -4.63644 -1.83945 0
M  V30 8604 H 800.279 -4.39469 -4.18273 0
M  V30 8605 H 799.018 -3.25634 -3.63062 0
M  V30 8606 H 798.023 -5.04738 -2.17991 0
M  V30 8607 H 799.248 -6.20441 -2.76098 0
M  V30 8608 H 797.194 -4.77885 -4.49402 0
M  V30 8609 H 797.111 -6.43046 -3.97528 0
M  V30 8610 H 798.379 -5.93327 -5.05553 0
M  V30 8611 N 802.608 0.318715 -1.54344 0
M  V30 8612 C 804.024 0.663345 -1.45162 0
M  V30 8613 C 804.224 1.9145 -0.62842 0
M  V30 8614 O 803.28 2.5217 -0.129126 0
M  V30 8615 C 804.593 0.832836 -2.88937 0
M  V30 8616 C 806.141 0.929866 -2.98869 0
M  V30 8617 C 806.616 1.13149 -4.43803 0
M  V30 8618 N 808.107 1.19811 -4.47437 0
M  V30 8619 C 808.842 1.37209 -5.56742 0
M  V30 8620 N 808.338 1.51619 -6.76006 0
M  V30 8621 N 810.131 1.39956 -5.44398 0
M  V30 8622 H 802.282 -0.50357 -2.06344 0
M  V30 8623 H 804.545 -0.163528 -0.933789 0
M  V30 8624 H 804.251 -0.0153519 -3.51697 0
M  V30 8625 H 804.125 1.72721 -3.35332 0
M  V30 8626 H 806.512 1.76855 -2.36233 0
M  V30 8627 H 806.593 0.0118561 -2.55797 0
M  V30 8628 H 806.237 0.297636 -5.07027 0
M  V30 8629 H 806.167 2.06345 -4.84489 0
M  V30 8630 H 808.658 1.101 -3.61506 0
M  V30 8631 H 808.971 1.64599 -7.55067 0
M  V30 8632 H 807.316 1.48708 -6.78904 0
M  V30 8633 H 810.507 1.28298 -4.50175 0
M  V30 8634 H 810.68 1.53172 -6.29637 0
M  V30 8635 N 804.086 1.46499 0.581025 0
M  V30 8636 C 805.502 1.31491 0.904563 0
M  V30 8637 C 805.702 0.287598 1.99437 0
M  V30 8638 O 804.758 -0.309247 2.50599 0
M  V30 8639 C 806.071 2.70163 1.32032 0
M  V30 8640 C 807.619 2.78266 1.43308 0
M  V30 8641 C 808.094 4.17524 1.8825 0
M  V30 8642 N 809.585 4.19949 1.9544 0
M  V30 8643 C 810.32 5.24594 2.31493 0
M  V30 8644 N 809.816 6.39564 2.66326 0
M  V30 8645 N 811.609 5.11961 2.32062 0
M  V30 8646 H 803.76 2.11946 -0.138856 0
M  V30 8647 H 806.023 0.948 0.000548528 0
M  V30 8648 H 805.729 3.46655 0.593554 0
M  V30 8649 H 805.603 3.00379 2.2815 0
M  V30 8650 H 807.99 2.02061 2.15071 0
M  V30 8651 H 808.071 2.51732 0.45438 0
M  V30 8652 H 807.715 4.94225 1.17065 0
M  V30 8653 H 807.645 4.41466 2.87081 0
M  V30 8654 H 810.136 3.36996 1.71004 0
M  V30 8655 H 810.449 7.15187 2.92793 0
M  V30 8656 H 808.794 6.42923 2.6396 0
M  V30 8657 H 811.985 4.21177 2.04272 0
M  V30 8658 H 812.158 5.93626 2.5983 0
M  V30 8659 N 805.565 -0.825799 1.34232 0
M  V30 8660 C 806.976 -1.39835 1.23706 0
M  V30 8661 C 807.327 -1.95709 -0.138649 0
M  V30 8662 O 806.452 -1.89833 -1.03886 0
M  V30 8663 C 807.047 -2.54203 2.23978 0
M  V30 8664 C 805.606 -3.07374 2.17251 0
M  V30 8665 C 804.753 -1.80232 2.10741 0
M  V30 8666 H 807.704 -0.630442 1.4564 0
M  V30 8667 H 807.725 -3.32214 1.8551 0
M  V30 8668 H 807.237 -2.13506 3.24094 0
M  V30 8669 H 805.338 -3.52583 1.20483 0
M  V30 8670 H 805.451 -3.6666 3.08379 0
M  V30 8671 H 803.815 -2.01012 1.56417 0
M  V30 8672 H 804.598 -1.41713 3.12686 0
M  V30 8673 N 807.043 -1.17915 -1.04565 0
M  V30 8674 C 807.991 -0.897919 -2.1457 0
M  V30 8675 C 808.985 0.139883 -1.68821 0
M  V30 8676 O 810.191 -0.00779463 -1.79998 0
M  V30 8677 H 806.566 -0.272867 -0.700748 0
M  V30 8678 H 808.537 -1.83268 -2.3549 0
M  V30 8679 C 807.286 -0.434634 -3.44973 0
M  V30 8680 H 806.609 -1.22469 -3.8058 0
M  V30 8681 H 808.049 -0.276804 -4.23095 0
M  V30 8682 C 806.508 0.848738 -3.26034 0
M  V30 8683 O 807.038 1.9141 -3.53164 0
M  V30 8684 N 805.244 0.799373 -2.79389 0
M  V30 8685 H 804.791 -0.0678192 -2.57511 0
M  V30 8686 H 804.749 1.6585 -2.67098 0
M  V30 8687 N 808.521 1.23394 -0.980386 0
M  V30 8688 C 809.77 1.91116 -0.644785 0
M  V30 8689 C 810.083 1.77333 0.825367 0
M  V30 8690 O 811.289 2.39858 1.27203 0
M  V30 8691 C 809.745 3.42592 -1.10266 0
M  V30 8692 C 809.353 3.65037 -2.59715 0
M  V30 8693 C 811.097 4.1609 -0.8408 0
M  V30 8694 C 809.004 5.10148 -2.9917 0
M  V30 8695 H 807.934 0.715632 -0.23746 0
M  V30 8696 H 810.585 1.39829 -1.18828 0
M  V30 8697 H 808.967 3.92989 -0.487372 0
M  V30 8698 H 810.141 3.25186 -3.26482 0
M  V30 8699 H 808.456 3.04849 -2.83647 0
M  V30 8700 H 811.053 5.23021 -1.11143 0
M  V30 8701 H 811.396 4.15702 0.223085 0
M  V30 8702 H 811.929 3.71681 -1.41767 0
M  V30 8703 H 808.668 5.15668 -4.04682 0
M  V30 8704 H 808.188 5.50949 -2.37097 0
M  V30 8705 H 809.867 5.7848 -2.89775 0
M  V30 8706 N 809.999 0.752036 1.385 0
M  V30 8707 C 810.931 0.0835089 2.29048 0
M  V30 8708 C 811.944 -0.685402 1.47669 0
M  V30 8709 O 813.133 -0.526748 1.70551 0
M  V30 8710 C 810.233 -0.905772 3.26572 0
M  V30 8711 C 809.406 -0.194828 4.36966 0
M  V30 8712 C 808.465 -1.09464 5.14688 0
M  V30 8713 O 807.491 -0.565743 5.66381 0
M  V30 8714 N 808.693 -2.42287 5.2752 0
M  V30 8715 H 811.458 0.861142 2.87062 0
M  V30 8716 H 809.019 0.602689 1.50264 0
M  V30 8717 H 811.011 -1.51072 3.75446 0
M  V30 8718 H 809.581 -1.58449 2.69467 0
M  V30 8719 H 808.801 0.590812 3.89747 0
M  V30 8720 H 810.089 0.297189 5.07931 0
M  V30 8721 H 809.487 -2.87715 4.8707 0
M  V30 8722 H 808.044 -2.97836 5.79773 0
M  V30 8723 N 811.477 -1.49425 0.500989 0
M  V30 8724 C 812.425 -2.30771 -0.291149 0
M  V30 8725 C 813.419 -1.3938 -0.962787 0
M  V30 8726 O 814.625 -1.56431 -0.890477 0
M  V30 8727 H 811 -0.743499 -0.11275 0
M  V30 8728 H 812.971 -2.95501 0.414917 0
M  V30 8729 C 811.72 -3.20725 -1.34279 0
M  V30 8730 H 811.043 -3.90975 -0.83538 0
M  V30 8731 H 812.483 -3.80583 -1.86903 0
M  V30 8732 C 810.942 -2.40334 -2.36095 0
M  V30 8733 O 811.472 -2.10749 -3.41976 0
M  V30 8734 N 809.678 -2.02359 -2.08565 0
M  V30 8735 H 809.225 -2.26619 -1.22482 0
M  V30 8736 H 809.183 -1.48878 -2.76916 0
M  V30 8737 N 812.955 -0.234822 -1.55841 0
M  V30 8738 C 814.366 0.270588 -1.84729 0
M  V30 8739 C 814.717 1.58494 -1.15646 0
M  V30 8740 O 813.842 2.12071 -0.430667 0
M  V30 8741 C 814.437 0.497733 -3.35124 0
M  V30 8742 C 812.996 0.947428 -3.64281 0
M  V30 8743 C 812.143 0.01787 -2.77294 0
M  V30 8744 H 815.094 -0.457691 -1.51957 0
M  V30 8745 H 815.115 1.34199 -3.56049 0
M  V30 8746 H 814.627 -0.459037 -3.85376 0
M  V30 8747 H 812.728 1.91709 -3.19497 0
M  V30 8748 H 812.841 0.812651 -4.72158 0
M  V30 8749 H 811.205 0.527071 -2.49187 0
M  V30 8750 H 811.988 -0.934056 -3.30349 0
M  V30 8751 N 814.433 1.57553 0.0384317 0
M  V30 8752 C 815.38 2.05942 1.04194 0
M  V30 8753 C 816.35 0.946637 1.36484 0
M  V30 8754 O 817.535 1.21658 1.46983 0
M  V30 8755 C 814.675 2.53588 2.34066 0
M  V30 8756 C 813.788 3.7862 2.08017 0
M  V30 8757 C 812.923 4.14915 3.31692 0
M  V30 8758 C 811.962 5.32891 3.01155 0
M  V30 8759 N 811.099 5.64662 4.17254 0
M  V30 8760 H 815.939 2.91429 0.622341 0
M  V30 8761 H 813.476 1.44098 0.295684 0
M  V30 8762 H 815.434 2.79276 3.09937 0
M  V30 8763 H 814.064 1.71031 2.73767 0
M  V30 8764 H 813.116 3.60073 1.22686 0
M  V30 8765 H 814.428 4.64613 1.81484 0
M  V30 8766 H 813.582 4.41681 4.15936 0
M  V30 8767 H 812.321 3.27555 3.6133 0
M  V30 8768 H 811.326 5.05887 2.15311 0
M  V30 8769 H 812.551 6.21896 2.72804 0
M  V30 8770 H 810.497 4.80261 4.46861 0
M  V30 8771 H 810.414 6.45145 3.94112 0
M  V30 8772 H 811.682 5.96 5.02399 0
M  V30 8773 N 815.911 -0.310526 1.54511 0
M  V30 8774 C 817.136 -1.07046 1.7764 0
M  V30 8775 C 817.561 -1.80488 0.529696 0
M  V30 8776 O 816.919 -1.73702 -0.519361 0
M  V30 8777 C 816.967 -2.03411 2.97752 0
M  V30 8778 O 816.071 -3.11545 2.7021 0
M  V30 8779 H 815.412 -0.307994 0.588248 0
M  V30 8780 H 817.942 -0.350848 2.01569 0
M  V30 8781 H 817.952 -2.46048 3.2546 0
M  V30 8782 H 816.627 -1.49361 3.88155 0
M  V30 8783 H 815.204 -2.7349 2.53491 0
M  V30 8784 N 817.389 -1.46805 -0.573248 0
M  V30 8785 C 818.321 -1.54127 -1.6964 0
M  V30 8786 C 819.334 -0.428778 -1.57052 0
M  V30 8787 O 820.523 -0.697612 -1.64303 0
M  V30 8788 C 817.623 -1.41438 -3.07975 0
M  V30 8789 C 816.796 -2.66974 -3.46474 0
M  V30 8790 C 815.855 -2.48349 -4.63906 0
M  V30 8791 O 814.881 -3.22109 -4.69292 0
M  V30 8792 N 816.083 -1.55129 -5.59388 0
M  V30 8793 H 818.848 -2.50971 -1.6381 0
M  V30 8794 H 816.409 -1.42981 -0.759479 0
M  V30 8795 H 818.401 -1.26737 -3.84343 0
M  V30 8796 H 816.971 -0.527388 -3.08119 0
M  V30 8797 H 816.191 -2.9655 -2.59715 0
M  V30 8798 H 817.479 -3.50347 -3.68964 0
M  V30 8799 H 816.877 -0.94324 -5.57781 0
M  V30 8800 H 815.434 -1.46387 -6.35149 0
M  V30 8801 N 818.867 0.818669 -1.34668 0
M  V30 8802 C 819.777 1.9616 -1.2868 0
M  V30 8803 C 820.793 1.72918 -0.193742 0
M  V30 8804 O 821.969 1.96951 -0.420975 0
M  V30 8805 C 819.034 3.30534 -1.04633 0
M  V30 8806 C 818.095 3.66755 -2.23136 0
M  V30 8807 C 817.328 4.94717 -2.00227 0
M  V30 8808 O 817.551 5.62218 -0.96264 0
M  V30 8809 O 816.485 5.28915 -2.87286 0
M  V30 8810 H 820.311 2.04157 -2.24842 0
M  V30 8811 H 817.896 0.954691 -1.14917 0
M  V30 8812 H 819.778 4.11005 -0.930216 0
M  V30 8813 H 818.453 3.23495 -0.115139 0
M  V30 8814 H 817.36 2.8671 -2.40308 0
M  V30 8815 H 818.693 3.78484 -3.1466 0
M  V30 8816 N 820.346 1.18468 1.03938 0
M  V30 8817 C 821.757 0.984808 1.58614 0
M  V30 8818 C 822.108 -0.465165 1.90606 0
M  V30 8819 O 821.233 -1.34274 1.69704 0
M  V30 8820 C 821.828 1.78135 2.8819 0
M  V30 8821 C 820.387 1.62579 3.39478 0
M  V30 8822 C 819.534 1.77501 2.13046 0
M  V30 8823 H 822.485 1.32993 0.865944 0
M  V30 8824 H 822.506 1.27119 3.58638 0
M  V30 8825 H 822.018 2.83661 2.64874 0
M  V30 8826 H 820.119 0.59595 3.67803 0
M  V30 8827 H 820.232 2.42463 4.13217 0
M  V30 8828 H 818.596 1.2046 2.24414 0
M  V30 8829 H 819.379 2.84464 1.92185 0
M  V30 8830 N 821.824 -1.22873 0.986916 0
M  V30 8831 C 823.07 -1.91746 0.660401 0
M  V30 8832 C 823.403 -1.76738 -0.804812 0
M  V30 8833 O 822.678 -1.13246 -1.58131 0
M  V30 8834 C 822.961 -3.44156 1.05966 0
M  V30 8835 C 822.814 -3.68242 2.58298 0
M  V30 8836 C 824.133 -4.35874 0.60842 0
M  V30 8837 H 821.252 -0.696347 0.241391 0
M  V30 8838 H 823.894 -1.44867 1.22937 0
M  V30 8839 H 822.044 -3.84213 0.575534 0
M  V30 8840 H 823.716 -3.37626 3.14335 0
M  V30 8841 H 821.959 -3.12728 3.00638 0
M  V30 8842 H 822.63 -4.74956 2.81285 0
M  V30 8843 H 825.106 -4.03299 1.02417 0
M  V30 8844 H 823.982 -5.41201 0.916142 0
M  V30 8845 H 824.243 -4.39364 -0.491086 0
M  V30 8846 N 823.302 -0.75937 -1.38099 0
M  V30 8847 C 824.53 -0.329111 -2.04266 0
M  V30 8848 C 824.945 1.04453 -1.57274 0
M  V30 8849 O 824.302 1.66449 -0.748397 0
M  V30 8850 C 824.353 -0.349192 -3.5981 0
M  V30 8851 O 824.074 -1.66863 -4.05078 0
M  V30 8852 C 825.575 0.0942106 -4.432 0
M  V30 8853 H 822.795 -0.13971 -0.656294 0
M  V30 8854 H 825.339 -1.02984 -1.76677 0
M  V30 8855 H 823.494 0.302846 -3.86214 0
M  V30 8856 H 823.908 -1.59877 -4.9954 0
M  V30 8857 H 825.382 0.0290004 -5.51992 0
M  V30 8858 H 825.859 1.1429 -4.24069 0
M  V30 8859 H 826.465 -0.529171 -4.21995 0
M  V30 8860 N 824.78 1.49157 -0.508906 0
M  V30 8861 C 825.71 2.32109 0.254469 0
M  V30 8862 C 826.691 1.40754 0.955111 0
M  V30 8863 O 827.876 1.69658 0.944983 0
M  V30 8864 C 825.006 3.21458 1.3146 0
M  V30 8865 C 823.96 4.2167 0.733368 0
M  V30 8866 C 823.286 5.00009 1.8946 0
M  V30 8867 C 824.586 5.21544 -0.280875 0
M  V30 8868 H 826.28 2.9618 -0.43795 0
M  V30 8869 H 823.826 1.4243 -0.212062 0
M  V30 8870 H 825.779 3.78305 1.85643 0
M  V30 8871 H 824.503 2.55346 2.03632 0
M  V30 8872 H 823.162 3.65979 0.213231 0
M  V30 8873 H 822.81 4.30338 2.60419 0
M  V30 8874 H 822.51 5.67821 1.51173 0
M  V30 8875 H 824.034 5.59702 2.44061 0
M  V30 8876 H 825.448 5.73039 0.173095 0
M  V30 8877 H 823.845 5.97291 -0.580006 0
M  V30 8878 H 824.915 4.69969 -1.19404 0
M  V30 8879 N 826.258 0.243083 1.55714 0
M  V30 8880 C 827.535 -0.432851 1.90751 0
M  V30 8881 C 827.915 -1.76153 1.16333 0
M  V30 8882 O 827.263 -2.26783 0.279565 0
M  V30 8883 C 827.473 -0.604685 3.43722 0
M  V30 8884 C 828.821 -0.90231 4.14902 0
M  V30 8885 O 829.845 -0.690689 3.49439 0
M  V30 8886 O 828.704 -1.3051 5.30688 0
M  V30 8887 H 825.798 -0.231835 0.79384 0
M  V30 8888 H 828.344 0.286867 1.67258 0
M  V30 8889 H 827.116 0.331655 3.89892 0
M  V30 8890 H 826.739 -1.37509 3.73065 0
M  V30 8891 N 827.736 -1.57571 -0.0300757 0
M  V30 8892 C 828.983 -1.89226 -0.721091 0
M  V30 8893 C 829.311 -0.840244 -1.75414 0
M  V30 8894 O 828.566 0.158906 -1.95054 0
M  V30 8895 C 828.865 -3.27624 -1.42818 0
M  V30 8896 C 828.531 -4.4776 -0.531208 0
M  V30 8897 C 827.193 -4.8036 -0.28415 0
M  V30 8898 C 829.545 -5.21125 0.0881582 0
M  V30 8899 C 826.873 -5.83715 0.591065 0
M  V30 8900 C 829.225 -6.2541 0.95107 0
M  V30 8901 C 827.889 -6.56486 1.2076 0
M  V30 8902 H 827.159 -0.692428 -0.263866 0
M  V30 8903 H 829.806 -1.91491 0.0189874 0
M  V30 8904 H 828.111 -3.21343 -2.24155 0
M  V30 8905 H 829.808 -3.49365 -1.96838 0
M  V30 8906 H 826.398 -4.2227 -0.73392 0
M  V30 8907 H 830.582 -4.96219 -0.0897496 0
M  V30 8908 H 825.838 -6.06168 0.798132 0
M  V30 8909 H 830.012 -6.81402 1.43751 0
M  V30 8910 H 827.639 -7.36395 1.88751 0
M  V30 8911 N 829.214 0.302327 -1.54673 0
M  V30 8912 C 830.144 1.37759 -1.88533 0
M  V30 8913 C 831.125 1.52961 -0.744113 0
M  V30 8914 O 832.31 1.6649 -0.999731 0
M  V30 8915 C 829.44 2.74201 -2.13146 0
M  V30 8916 C 828.394 2.73765 -3.28993 0
M  V30 8917 C 827.72 4.13483 -3.39022 0
M  V30 8918 C 829.02 2.35624 -4.66132 0
M  V30 8919 H 830.714 1.0967 -2.78591 0
M  V30 8920 H 828.26 0.52613 -1.34044 0
M  V30 8921 H 830.213 3.49508 -2.35419 0
M  V30 8922 H 828.937 3.03812 -1.19858 0
M  V30 8923 H 827.596 2.00914 -3.06642 0
M  V30 8924 H 827.244 4.40269 -2.43253 0
M  V30 8925 H 826.944 4.14093 -4.16894 0
M  V30 8926 H 828.468 4.90572 -3.63553 0
M  V30 8927 H 829.882 3.00647 -4.88143 0
M  V30 8928 H 828.279 2.47449 -5.46707 0
M  V30 8929 H 829.349 1.30753 -4.66939 0
M  V30 8930 N 830.692 1.47107 0.565454 0
M  V30 8931 C 831.969 1.43787 1.32607 0
M  V30 8932 C 832.349 0.130428 2.10697 0
M  V30 8933 O 831.697 -0.888086 2.10536 0
M  V30 8934 C 831.907 2.67833 2.23755 0
M  V30 8935 C 833.255 3.14704 2.85037 0
M  V30 8936 O 834.279 2.68503 2.34061 0
M  V30 8937 O 833.138 3.95002 3.77671 0
M  V30 8938 H 830.232 0.572623 0.596684 0
M  V30 8939 H 832.778 1.59296 0.58504 0
M  V30 8940 H 831.55 3.54532 1.65597 0
M  V30 8941 H 831.173 2.54869 3.05168 0
M  V30 8942 N 832.17 -0.811516 1.35101 0
M  V30 8943 C 833.133 -1.90467 1.27495 0
M  V30 8944 C 834.133 -1.59703 0.187516 0
M  V30 8945 O 835.323 -1.68528 0.440896 0
M  V30 8946 C 832.455 -3.26774 0.971154 0
M  V30 8947 H 833.648 -1.98631 2.2469 0
M  V30 8948 H 831.201 -1.00681 1.19553 0
M  V30 8949 H 831.936 -3.243 0.0028557 0
M  V30 8950 H 831.721 -3.50488 1.75785 0
M  V30 8951 H 833.211 -4.06804 0.943414 0
M  V30 8952 N 833.648 -1.19017 -1.03309 0
M  V30 8953 C 834.558 -0.939303 -2.14975 0
M  V30 8954 C 835.574 0.0992359 -1.73717 0
M  V30 8955 O 836.75 -0.0844362 -2.01223 0
M  V30 8956 C 833.815 -0.476712 -3.43407 0
M  V30 8957 C 832.876 -1.58413 -3.99003 0
M  V30 8958 C 832.109 -1.14352 -5.21305 0
M  V30 8959 O 832.332 -0.00534408 -5.704 0
M  V30 8960 O 831.266 -1.94436 -5.6963 0
M  V30 8961 H 835.092 -1.87386 -2.38998 0
M  V30 8962 H 832.677 -0.972635 -1.13403 0
M  V30 8963 H 834.559 -0.22718 -4.20787 0
M  V30 8964 H 833.234 0.429455 -3.20839 0
M  V30 8965 H 832.141 -1.88777 -3.22977 0
M  V30 8966 H 833.474 -2.4667 -4.25928 0
M  V30 8967 N 835.127 1.22348 -0.993418 0
M  V30 8968 C 836.057 2.26584 -0.564088 0
M  V30 8969 C 837.038 1.65102 0.409298 0
M  V30 8970 O 838.223 1.91872 0.299819 0
M  V30 8971 C 835.353 3.47087 0.121554 0
M  V30 8972 C 834.307 4.21009 -0.770429 0
M  V30 8973 C 833.633 5.34678 0.0481586 0
M  V30 8974 C 834.933 4.79636 -2.06752 0
M  V30 8975 H 836.627 2.62749 -1.43538 0
M  V30 8976 H 834.173 1.26303 -0.691628 0
M  V30 8977 H 836.126 4.19166 0.433303 0
M  V30 8978 H 834.85 3.1002 1.0274 0
M  V30 8979 H 833.509 3.50764 -1.06583 0
M  V30 8980 H 833.157 4.93852 0.954933 0
M  V30 8981 H 832.857 5.85061 -0.545641 0
M  V30 8982 H 834.381 6.09573 0.353991 0
M  V30 8983 H 835.795 5.43654 -1.81969 0
M  V30 8984 H 834.192 5.4036 -2.61019 0
M  V30 8985 H 835.262 3.99659 -2.74592 0
M  V30 8986 N 836.605 0.766683 1.37694 0
M  V30 8987 C 837.515 0.150158 2.34119 0
M  V30 8988 C 838.531 -0.685513 1.59927 0
M  V30 8989 O 839.707 -0.606616 1.92047 0
M  V30 8990 C 836.772 -0.722562 3.39087 0
M  V30 8991 C 835.833 0.128983 4.29106 0
M  V30 8992 C 835.066 -0.702178 5.29061 0
M  V30 8993 O 835.289 -1.93954 5.36412 0
M  V30 8994 O 834.223 -0.114056 6.01792 0
M  V30 8995 H 838.049 0.946829 2.88563 0
M  V30 8996 H 835.634 0.527765 1.39768 0
M  V30 8997 H 837.516 -1.22095 4.03325 0
M  V30 8998 H 836.191 -1.49751 2.86978 0
M  V30 8999 H 835.098 0.673612 3.67985 0
M  V30 9000 H 836.431 0.866892 4.84506 0
M  V30 9001 N 838.083 -1.48885 0.516809 0
M  V30 9002 C 839.031 -2.31066 -0.266656 0
M  V30 9003 C 840.025 -1.40393 -0.94795 0
M  V30 9004 O 841.231 -1.57366 -0.873836 0
M  V30 9005 H 837.606 -0.744654 -0.104858 0
M  V30 9006 H 839.577 -2.95045 0.446236 0
M  V30 9007 C 838.326 -3.22131 -1.3087 0
M  V30 9008 H 837.649 -3.91839 -0.793865 0
M  V30 9009 H 839.089 -3.82544 -1.82856 0
M  V30 9010 C 837.548 -2.42825 -2.33533 0
M  V30 9011 O 838.078 -2.14364 -3.39722 0
M  V30 9012 N 836.284 -2.04559 -2.06407 0
M  V30 9013 H 835.831 -2.27905 -1.20071 0
M  V30 9014 H 835.789 -1.51807 -2.75322 0
M  V30 9015 N 839.561 -0.251338 -1.55583 0
M  V30 9016 C 840.838 0.422729 -1.90977 0
M  V30 9017 C 841.218 1.75534 -1.17265 0
M  V30 9018 O 840.566 2.26632 -0.291588 0
M  V30 9019 C 840.776 0.586448 -3.44037 0
M  V30 9020 C 842.124 0.880294 -4.15375 0
M  V30 9021 O 843.148 0.672148 -3.49801 0
M  V30 9022 O 842.007 1.27694 -5.31372 0
M  V30 9023 H 839.101 0.227622 -0.795058 0
M  V30 9024 H 841.647 -0.295733 -1.67103 0
M  V30 9025 H 840.419 -0.352327 -3.89711 0
M  V30 9026 H 840.042 1.35528 -3.73789 0
M  V30 9027 N 841.039 1.57585 0.0217189 0
M  V30 9028 C 842.288 1.88786 0.710125 0
M  V30 9029 C 842.601 0.850819 1.76126 0
M  V30 9030 O 843.807 1.0523 2.50277 0
M  V30 9031 C 842.263 3.3505 1.31413 0
M  V30 9032 C 841.871 4.47001 0.298959 0
M  V30 9033 C 843.615 3.7539 1.98199 0
M  V30 9034 C 841.522 5.8433 0.911727 0
M  V30 9035 H 840.452 0.704388 0.268986 0
M  V30 9036 H 843.103 1.83466 -0.0352638 0
M  V30 9037 H 841.485 3.35138 2.10947 0
M  V30 9038 H 842.659 4.58395 -0.470203 0
M  V30 9039 H 840.974 4.15542 -0.267222 0
M  V30 9040 H 843.571 4.75314 2.4491 0
M  V30 9041 H 843.914 3.07766 2.80331 0
M  V30 9042 H 844.447 3.77508 1.2543 0
M  V30 9043 H 841.186 6.55372 0.129659 0
M  V30 9044 H 840.706 5.76643 1.65056 0
M  V30 9045 H 842.385 6.31295 1.41688 0
M  V30 9046 N 842.517 -0.29412 1.54831 0
M  V30 9047 C 843.464 -1.36296 1.86258 0
M  V30 9048 C 844.434 -1.50061 0.712097 0
M  V30 9049 O 845.619 -1.64809 0.961381 0
M  V30 9050 C 842.759 -2.72187 2.12151 0
M  V30 9051 C 841.872 -2.66816 3.39755 0
M  V30 9052 C 841.007 -3.94747 3.55455 0
M  V30 9053 C 840.046 -3.838 4.76827 0
M  V30 9054 N 839.183 -5.03521 4.89296 0
M  V30 9055 H 844.023 -1.08796 2.7743 0
M  V30 9056 H 841.56 -0.526069 1.37371 0
M  V30 9057 H 843.518 -3.51225 2.25159 0
M  V30 9058 H 842.148 -2.97934 1.24237 0
M  V30 9059 H 841.2 -1.79605 3.3533 0
M  V30 9060 H 842.512 -2.5462 4.28917 0
M  V30 9061 H 841.666 -4.82223 3.68166 0
M  V30 9062 H 840.405 -4.09785 2.64438 0
M  V30 9063 H 839.41 -2.94708 4.64141 0
M  V30 9064 H 840.635 -3.70301 5.69258 0
M  V30 9065 H 838.581 -5.1901 4.01204 0
M  V30 9066 H 838.498 -4.93775 5.72471 0
M  V30 9067 H 839.766 -5.92629 5.06371 0
M  V30 9068 N 843.995 -1.47404 -0.557645 0
M  V30 9069 C 845.241 -1.54235 -1.31679 0
M  V30 9070 C 845.574 -0.203782 -1.93128 0
M  V30 9071 O 844.849 0.787536 -1.77843 0
M  V30 9072 C 845.132 -2.66003 -2.42723 0
M  V30 9073 C 844.985 -4.09475 -1.86145 0
M  V30 9074 C 846.304 -2.73685 -3.44652 0
M  V30 9075 H 843.423 -0.561466 -0.477415 0
M  V30 9076 H 846.065 -1.79459 -0.624067 0
M  V30 9077 H 844.215 -2.44627 -3.01811 0
M  V30 9078 H 845.887 -4.42213 -1.31321 0
M  V30 9079 H 844.13 -4.17774 -1.16823 0
M  V30 9080 H 844.801 -4.83451 -2.66418 0
M  V30 9081 H 847.277 -2.92968 -2.95481 0
M  V30 9082 H 846.153 -3.53665 -4.19777 0
M  V30 9083 H 846.414 -1.80726 -4.03473 0
M  V30 9084 N 845.473 0.80434 -1.35529 0
M  V30 9085 C 846.383 1.94784 -1.30753 0
M  V30 9086 C 847.399 1.72703 -0.212071 0
M  V30 9087 O 848.575 1.96494 -0.441841 0
M  V30 9088 C 845.64 3.29406 -1.08133 0
M  V30 9089 C 844.701 3.64367 -2.27013 0
M  V30 9090 C 843.934 4.92566 -2.05463 0
M  V30 9091 O 844.157 5.61166 -1.02222 0
M  V30 9092 O 843.091 5.25838 -2.92879 0
M  V30 9093 H 846.917 2.01761 -2.26994 0
M  V30 9094 H 844.502 0.942448 -1.15924 0
M  V30 9095 H 846.384 4.09995 -0.973756 0
M  V30 9096 H 845.059 3.23355 -0.149444 0
M  V30 9097 H 843.966 2.84146 -2.43335 0
M  V30 9098 H 845.299 3.75125 -3.18656 0
M  V30 9099 N 846.951 1.19563 1.02676 0
M  V30 9100 C 848.2 0.993864 1.75514 0
M  V30 9101 C 848.513 -0.475882 1.89723 0
M  V30 9102 O 849.719 -0.796525 2.59553 0
M  V30 9103 C 848.175 1.72937 3.15628 0
M  V30 9104 C 847.783 3.23937 3.09466 0
M  V30 9105 C 849.527 1.61092 3.92746 0
M  V30 9106 C 847.434 3.90067 4.44524 0
M  V30 9107 H 846.364 0.368244 0.657961 0
M  V30 9108 H 849.015 1.43081 1.14891 0
M  V30 9109 H 847.397 1.22025 3.76731 0
M  V30 9110 H 848.571 3.81983 2.57731 0
M  V30 9111 H 846.886 3.3608 2.45843 0
M  V30 9112 H 849.483 2.07848 4.92649 0
M  V30 9113 H 849.826 0.565415 4.12442 0
M  V30 9114 H 850.359 2.09361 3.3825 0
M  V30 9115 H 847.098 4.94725 4.30032 0
M  V30 9116 H 846.618 3.36809 4.96306 0
M  V30 9117 H 848.297 3.93736 5.13401 0
M  V30 9118 N 848.429 -1.21819 0.999893 0
M  V30 9119 C 849.845 -1.42847 0.711824 0
M  V30 9120 C 850.045 -1.88391 -0.714928 0
M  V30 9121 O 849.101 -2.0422 -1.48494 0
M  V30 9122 C 850.414 -2.46417 1.72334 0
M  V30 9123 C 851.962 -2.60207 1.73958 0
M  V30 9124 C 852.437 -3.67005 2.73992 0
M  V30 9125 N 853.928 -3.7447 2.72628 0
M  V30 9126 C 854.663 -4.56718 3.46693 0
M  V30 9127 N 854.159 -5.42904 4.3038 0
M  V30 9128 N 855.952 -4.51094 3.35366 0
M  V30 9129 H 848.103 -0.905656 1.92124 0
M  V30 9130 H 850.366 -0.459893 0.828977 0
M  V30 9131 H 850.072 -2.19914 2.74465 0
M  V30 9132 H 849.946 -3.45137 1.52186 0
M  V30 9133 H 852.333 -2.8605 0.725217 0
M  V30 9134 H 852.414 -1.61739 1.98177 0
M  V30 9135 H 852.058 -3.41908 3.75582 0
M  V30 9136 H 851.988 -4.65058 2.4704 0
M  V30 9137 H 854.479 -3.12895 2.11909 0
M  V30 9138 H 854.792 -6.02704 4.83702 0
M  V30 9139 H 853.137 -5.42463 4.34464 0
M  V30 9140 H 856.328 -3.82791 2.69423 0
M  V30 9141 H 856.501 -5.1496 3.93344 0
M  V30 9142 N 849.908 -0.773975 -1.37286 0
M  V30 9143 C 850.856 -0.149581 -2.32119 0
M  V30 9144 C 851.85 0.682457 -1.55045 0
M  V30 9145 O 853.056 0.579269 -1.70424 0
M  V30 9146 H 849.431 -0.0295857 -0.751418 0
M  V30 9147 H 851.402 -0.965117 -2.82362 0
M  V30 9148 C 850.151 0.713409 -3.40302 0
M  V30 9149 H 849.474 0.0825416 -3.99715 0
M  V30 9150 H 850.914 1.11723 -4.09016 0
M  V30 9151 C 849.373 1.86498 -2.80571 0
M  V30 9152 O 849.903 2.9606 -2.71498 0
M  V30 9153 N 848.109 1.66629 -2.38082 0
M  V30 9154 H 847.656 0.775145 -2.45661 0
M  V30 9155 H 847.614 2.43845 -1.98461 0
M  V30 9156 N 851.386 1.48609 -0.524698 0
M  V30 9157 C 852.333 2.29539 0.240956 0
M  V30 9158 C 853.303 1.37033 0.938681 0
M  V30 9159 O 854.488 1.65996 0.940737 0
M  V30 9160 C 851.628 3.20278 1.28514 0
M  V30 9161 C 850.741 4.27858 0.596798 0
M  V30 9162 C 849.876 5.05784 1.62346 0
M  V30 9163 C 848.915 6.05173 0.918287 0
M  V30 9164 N 848.052 6.76176 1.89025 0
M  V30 9165 H 852.892 2.945 -0.455368 0
M  V30 9166 H 850.429 1.45188 -0.236403 0
M  V30 9167 H 852.387 3.71281 1.90279 0
M  V30 9168 H 851.017 2.57251 1.94992 0
M  V30 9169 H 850.069 3.80162 -0.134668 0
M  V30 9170 H 851.381 4.98782 0.0428506 0
M  V30 9171 H 850.535 5.60775 2.31553 0
M  V30 9172 H 849.274 4.34687 2.2113 0
M  V30 9173 H 848.279 5.49391 0.21212 0
M  V30 9174 H 849.504 6.78265 0.336633 0
M  V30 9175 H 847.45 6.07834 2.46726 0
M  V30 9176 H 847.367 7.43157 1.3876 0
M  V30 9177 H 848.635 7.35759 2.57446 0
M  V30 9178 N 852.864 0.259585 1.55447 0
M  V30 9179 C 853.797 -0.675542 2.17972 0
M  V30 9180 C 854.775 -1.16362 1.13572 0
M  V30 9181 O 855.959 -1.23944 1.42021 0
M  V30 9182 C 853.086 -1.91952 2.79056 0
M  V30 9183 C 852.132 -1.56824 3.96621 0
M  V30 9184 S 852.965 -0.659846 5.31419 0
M  V30 9185 C 854.121 -1.91255 5.95963 0
M  V30 9186 H 854.354 -0.144236 2.9695 0
M  V30 9187 H 851.887 0.0439448 1.54337 0
M  V30 9188 H 853.845 -2.63362 3.14882 0
M  V30 9189 H 852.506 -2.42196 2 0
M  V30 9190 H 851.699 -2.49348 4.37997 0
M  V30 9191 H 851.301 -0.934472 3.62138 0
M  V30 9192 H 853.593 -2.85834 6.14252 0
M  V30 9193 H 854.536 -1.54207 6.91105 0
M  V30 9194 H 854.944 -2.07042 5.25161 0
M  V30 9195 N 854.342 -1.57594 -0.0133615 0
M  V30 9196 C 855.591 -1.8916 -0.700103 0
M  V30 9197 C 855.904 -0.860147 -1.75673 0
M  V30 9198 O 857.11 -1.06556 -2.49716 0
M  V30 9199 C 855.566 -3.35742 -1.29635 0
M  V30 9200 C 855.174 -4.47154 -0.275249 0
M  V30 9201 C 856.918 -3.76436 -1.96205 0
M  V30 9202 C 854.825 -5.84805 -0.880726 0
M  V30 9203 H 853.755 -0.705805 -0.265247 0
M  V30 9204 H 856.406 -1.83445 0.044993 0
M  V30 9205 H 854.788 -3.36252 -2.09167 0
M  V30 9206 H 855.962 -4.58139 0.494506 0
M  V30 9207 H 854.277 -4.15394 0.289256 0
M  V30 9208 H 856.874 -4.76606 -2.42386 0
M  V30 9209 H 857.217 -3.09249 -2.78695 0
M  V30 9210 H 857.75 -3.78168 -1.23426 0
M  V30 9211 H 854.489 -6.55431 -0.0949013 0
M  V30 9212 H 854.009 -5.7751 -1.61995 0
M  V30 9213 H 855.688 -6.32038 -1.38338 0
M  V30 9214 N 855.82 0.285905 -1.54985 0
M  V30 9215 C 857.097 1.0397 -1.65679 0
M  V30 9216 C 857.477 2.04725 -0.514851 0
M  V30 9217 O 856.825 2.23257 0.486663 0
M  V30 9218 C 857.035 1.70807 -3.04345 0
M  V30 9219 C 858.383 2.22447 -3.61666 0
M  V30 9220 O 859.407 1.80815 -3.06895 0
M  V30 9221 O 858.266 2.98773 -4.57599 0
M  V30 9222 H 855.36 0.481473 -0.672394 0
M  V30 9223 H 857.906 0.282789 -1.67327 0
M  V30 9224 H 856.678 0.977271 -3.789 0
M  V30 9225 H 856.301 2.53217 -3.06541 0
M  V30 9226 N 857.298 1.47698 0.54982 0
M  V30 9227 C 858.546 1.54397 1.30407 0
M  V30 9228 C 858.867 0.211026 1.93855 0
M  V30 9229 O 858.137 -0.765701 1.80316 0
M  V30 9230 H 856.717 0.568747 0.484289 0
M  V30 9231 H 859.379 1.84042 0.641444 0
M  V30 9232 H 858.475 2.31449 2.09375 0
M  V30 9233 N 858.776 -0.797141 1.35954 0
M  V30 9234 C 859.686 -1.94088 1.31784 0
M  V30 9235 C 860.702 -1.72588 0.221227 0
M  V30 9236 O 861.878 -1.96256 0.452255 0
M  V30 9237 C 858.943 -3.28828 1.09878 0
M  V30 9238 C 858.004 -3.63158 2.28942 0
M  V30 9239 C 857.237 -4.91469 2.08072 0
M  V30 9240 O 857.46 -5.60616 1.05196 0
M  V30 9241 O 856.394 -5.24277 2.95664 0
M  V30 9242 H 860.22 -2.00554 2.28061 0
M  V30 9243 H 857.805 -0.936288 1.16422 0
M  V30 9244 H 859.687 -4.09473 0.995485 0
M  V30 9245 H 858.362 -3.23271 0.16659 0
M  V30 9246 H 857.269 -2.82851 2.44839 0
M  V30 9247 H 858.602 -3.7343 3.20641 0
M  V30 9248 N 860.254 -1.20106 -1.0204 0
M  V30 9249 C 861.479 -1.0351 -1.79723 0
M  V30 9250 C 861.904 0.411328 -1.83548 0
M  V30 9251 O 861.262 1.29608 -1.26773 0
M  V30 9252 C 861.31 -1.61876 -3.22224 0
M  V30 9253 O 860.414 -0.853813 -4.03465 0
M  V30 9254 H 859.755 -0.365299 -0.554484 0
M  V30 9255 H 862.285 -1.59316 -1.28373 0
M  V30 9256 H 862.295 -1.65451 -3.72948 0
M  V30 9257 H 860.97 -2.67148 -3.18755 0
M  V30 9258 H 859.547 -0.891983 -3.62075 0
M  V30 9259 N 861.732 1.21287 -1.00634 0
M  V30 9260 C 862.98 1.90013 -0.688438 0
M  V30 9261 C 863.301 1.78573 0.783365 0
M  V30 9262 O 862.571 1.1815 1.56261 0
M  V30 9263 H 861.151 0.703336 -0.251648 0
M  V30 9264 H 863.813 1.47346 -1.27574 0
M  V30 9265 H 862.909 2.96879 -0.962781 0
M  V30 9266 N 863.21 0.781244 1.36873 0
M  V30 9267 C 864.12 0.174981 2.33947 0
M  V30 9268 C 865.136 -0.668512 1.60645 0
M  V30 9269 O 866.312 -0.586213 1.9268 0
M  V30 9270 C 863.377 -0.686557 3.39834 0
M  V30 9271 C 862.438 0.174489 4.28945 0
M  V30 9272 C 861.671 -0.646024 5.29776 0
M  V30 9273 O 861.894 -1.88254 5.38439 0
M  V30 9274 O 860.828 -0.0502214 6.01879 0
M  V30 9275 H 864.654 0.977382 2.87543 0
M  V30 9276 H 862.239 0.542559 1.392 0
M  V30 9277 H 864.121 -1.1781 4.04597 0
M  V30 9278 H 862.796 -1.46699 2.8855 0
M  V30 9279 H 861.703 0.712604 3.6725 0
M  V30 9280 H 863.036 0.918232 4.83559 0
M  V30 9281 N 864.689 -1.48329 0.532571 0
M  V30 9282 C 865.636 -2.29663 -0.228779 0
M  V30 9283 C 866.606 -1.37529 -0.931401 0
M  V30 9284 O 867.791 -1.66493 -0.931921 0
M  V30 9285 C 864.931 -3.20955 -1.26814 0
M  V30 9286 C 864.044 -4.28168 -0.574099 0
M  V30 9287 C 863.179 -5.06638 -1.59661 0
M  V30 9288 C 862.218 -6.05651 -0.88618 0
M  V30 9289 N 861.355 -6.77169 -1.85436 0
M  V30 9290 H 866.195 -2.94255 0.47098 0
M  V30 9291 H 863.732 -1.45061 0.2441 0
M  V30 9292 H 865.69 -3.72285 -1.88307 0
M  V30 9293 H 864.32 -2.58281 -1.93625 0
M  V30 9294 H 863.372 -3.80085 0.154827 0
M  V30 9295 H 864.684 -4.98797 -0.0163984 0
M  V30 9296 H 863.838 -5.61995 -2.28576 0
M  V30 9297 H 862.577 -4.35854 -2.18821 0
M  V30 9298 H 861.582 -5.49495 -0.182981 0
M  V30 9299 H 862.807 -6.78434 -0.300659 0
M  V30 9300 H 860.753 -6.09134 -2.43499 0
M  V30 9301 H 860.67 -7.43882 -1.34816 0
M  V30 9302 H 861.938 -7.37114 -2.53541 0
M  V30 9303 N 866.167 -0.267825 -1.55308 0
M  V30 9304 C 867.395 0.354587 -2.03839 0
M  V30 9305 C 867.81 1.50007 -1.14644 0
M  V30 9306 O 867.167 1.81752 -0.165055 0
M  V30 9307 C 867.218 0.84254 -3.51544 0
M  V30 9308 O 866.939 -0.257318 -4.37344 0
M  V30 9309 C 868.44 1.53351 -4.15931 0
M  V30 9310 H 865.66 0.0818131 -0.665994 0
M  V30 9311 H 868.204 -0.397795 -2.00594 0
M  V30 9312 H 866.359 1.54503 -3.55257 0
M  V30 9313 H 866.773 0.116593 -5.2437 0
M  V30 9314 H 868.247 1.82643 -5.20908 0
M  V30 9315 H 868.724 2.4626 -3.63666 0
M  V30 9316 H 869.33 0.87506 -4.162 0
M  V30 9317 N 867.645 1.57599 0.00500368 0
M  V30 9318 C 868.892 1.90349 0.690895 0
M  V30 9319 C 869.22 0.868045 1.74055 0
M  V30 9320 O 868.475 -0.127855 1.95282 0
M  V30 9321 C 868.774 3.29855 1.37588 0
M  V30 9322 C 868.44 4.48548 0.459906 0
M  V30 9323 C 867.102 4.80752 0.207693 0
M  V30 9324 C 869.454 5.20919 -0.171054 0
M  V30 9325 C 866.782 5.82701 -0.683855 0
M  V30 9326 C 869.134 6.23818 -1.05045 0
M  V30 9327 C 867.798 6.54481 -1.31189 0
M  V30 9328 H 867.068 0.696538 0.252816 0
M  V30 9329 H 869.715 1.91436 -0.0494495 0
M  V30 9330 H 868.02 3.24869 2.19015 0
M  V30 9331 H 869.717 3.52452 1.91255 0
M  V30 9332 H 866.307 4.23384 0.666648 0
M  V30 9333 H 870.491 4.96299 0.0107942 0
M  V30 9334 H 865.747 6.04822 -0.894467 0
M  V30 9335 H 869.921 6.79029 -1.54574 0
M  V30 9336 H 867.548 7.33299 -2.00442 0
M  V30 9337 N 869.123 -0.277682 1.55134 0
M  V30 9338 C 870.539 -0.624625 1.46869 0
M  V30 9339 C 870.739 -1.89717 0.678958 0
M  V30 9340 O 869.795 -2.51739 0.195939 0
M  V30 9341 C 871.108 -0.755937 2.91043 0
M  V30 9342 C 872.656 -0.850299 3.01229 0
M  V30 9343 C 873.131 -1.01343 4.46647 0
M  V30 9344 N 874.622 -1.07906 4.50456 0
M  V30 9345 C 875.357 -1.224 5.60184 0
M  V30 9346 N 874.853 -1.33642 6.79788 0
M  V30 9347 N 876.646 -1.25473 5.47917 0
M  V30 9348 H 868.797 0.558102 2.04937 0
M  V30 9349 H 871.06 0.188228 0.929125 0
M  V30 9350 H 870.766 0.108593 3.51532 0
M  V30 9351 H 870.64 -1.6377 3.39793 0
M  V30 9352 H 873.027 -1.7053 2.40839 0
M  V30 9353 H 873.108 0.0559681 2.55739 0
M  V30 9354 H 872.752 -0.163102 5.07638 0
M  V30 9355 H 872.682 -1.93427 4.89789 0
M  V30 9356 H 875.173 -1.00477 3.64298 0
M  V30 9357 H 875.486 -1.44522 7.59166 0
M  V30 9358 H 873.831 -1.30655 6.82608 0
M  V30 9359 H 877.022 -1.16317 4.53418 0
M  V30 9360 H 877.195 -1.36424 6.33476 0
M  V30 9361 N 870.601 -1.47988 -0.541979 0
M  V30 9362 C 871.829 -1.59034 -1.32347 0
M  V30 9363 C 872.244 -0.246123 -1.87189 0
M  V30 9364 O 871.601 0.762889 -1.6579 0
M  V30 9365 C 871.652 -2.62759 -2.48274 0
M  V30 9366 O 871.373 -3.91963 -1.95695 0
M  V30 9367 C 872.874 -2.84133 -3.4027 0
M  V30 9368 H 870.094 -0.536574 -0.402901 0
M  V30 9369 H 872.638 -1.93725 -0.655045 0
M  V30 9370 H 870.793 -2.3096 -3.11025 0
M  V30 9371 H 871.207 -4.48769 -2.7149 0
M  V30 9372 H 872.681 -3.60538 -4.17991 0
M  V30 9373 H 873.158 -1.92512 -3.9476 0
M  V30 9374 H 873.764 -3.17188 -2.83322 0
M  V30 9375 N 872.079 0.78992 -1.36375 0
M  V30 9376 C 873.009 1.91683 -1.33341 0
M  V30 9377 C 873.99 1.68861 -0.204965 0
M  V30 9378 O 875.175 1.89982 -0.402531 0
M  V30 9379 C 872.305 3.28696 -1.12143 0
M  V30 9380 C 871.259 3.66041 -2.21806 0
M  V30 9381 C 870.585 5.01399 -1.85751 0
M  V30 9382 C 871.885 3.74677 -3.63888 0
M  V30 9383 H 873.579 1.94478 -2.27637 0
M  V30 9384 H 871.125 0.934271 -1.09578 0
M  V30 9385 H 873.078 4.07151 -1.08656 0
M  V30 9386 H 871.802 3.26287 -0.142974 0
M  V30 9387 H 870.461 2.89883 -2.24418 0
M  V30 9388 H 870.109 4.9551 -0.864817 0
M  V30 9389 H 869.809 5.27355 -2.59173 0
M  V30 9390 H 871.333 5.82274 -1.83819 0
M  V30 9391 H 872.747 4.43324 -3.63506 0
M  V30 9392 H 871.144 4.12118 -4.3621 0
M  V30 9393 H 872.214 2.75795 -3.9883 0
M  V30 9394 N 873.557 1.20646 1.01402 0
M  V30 9395 C 874.803 1.0197 1.753 0
M  V30 9396 C 875.136 -0.446803 1.8899 0
M  V30 9397 O 874.411 -1.33169 1.41762 0
M  V30 9398 C 874.694 1.70693 3.17074 0
M  V30 9399 C 874.547 3.24805 3.11162 0
M  V30 9400 C 875.866 1.44212 4.15802 0
M  V30 9401 H 872.985 0.371844 0.636318 0
M  V30 9402 H 875.627 1.48696 1.18277 0
M  V30 9403 H 873.777 1.30968 3.65759 0
M  V30 9404 H 875.449 3.73841 2.70261 0
M  V30 9405 H 873.692 3.55576 2.48492 0
M  V30 9406 H 874.363 3.68049 4.11393 0
M  V30 9407 H 876.839 1.7868 3.75783 0
M  V30 9408 H 875.715 1.94825 5.13161 0
M  V30 9409 H 875.976 0.370252 4.40547 0
M  V30 9410 N 875.035 -1.20752 1.01276 0
M  V30 9411 C 875.982 -2.234 0.579732 0
M  V30 9412 C 876.952 -1.61256 -0.398206 0
M  V30 9413 O 878.137 -1.8845 -0.29851 0
M  V30 9414 C 875.277 -3.45008 -0.0797006 0
M  V30 9415 C 874.39 -4.21597 0.942343 0
M  V30 9416 C 873.525 -5.30591 0.254364 0
M  V30 9417 C 872.564 -5.98919 1.26343 0
M  V30 9418 N 871.701 -6.99511 0.602384 0
M  V30 9419 H 876.541 -2.59801 1.45971 0
M  V30 9420 H 874.078 -1.27663 0.730787 0
M  V30 9421 H 876.036 -4.1444 -0.479125 0
M  V30 9422 H 874.666 -3.09312 -0.923354 0
M  V30 9423 H 873.718 -3.51268 1.45996 0
M  V30 9424 H 875.03 -4.68576 1.70992 0
M  V30 9425 H 874.184 -6.06368 -0.200763 0
M  V30 9426 H 872.923 -4.84639 -0.545553 0
M  V30 9427 H 871.928 -5.21906 1.72898 0
M  V30 9428 H 873.153 -6.46957 2.06456 0
M  V30 9429 H 871.099 -6.55759 -0.177734 0
M  V30 9430 H 871.016 -7.44597 1.30809 0
M  V30 9431 H 872.284 -7.79313 0.17072 0
M  V30 9432 N 876.513 -0.788492 -1.36457 0
M  V30 9433 C 877.738 -0.371224 -2.04051 0
M  V30 9434 C 878.163 1.004 -1.59064 0
M  V30 9435 O 877.521 1.64663 -0.758679 0
M  V30 9436 C 877.569 -0.442275 -3.57877 0
M  V30 9437 O 876.673 0.55113 -4.08701 0
M  V30 9438 H 876.014 -0.157808 -0.644975 0
M  V30 9439 H 878.544 -1.06935 -1.74431 0
M  V30 9440 H 878.554 -0.305548 -4.06854 0
M  V30 9441 H 877.229 -1.44547 -3.89973 0
M  V30 9442 H 875.806 0.37614 -3.70998 0
M  V30 9443 N 877.991 1.48044 -0.54043 0
M  V30 9444 C 878.923 2.2779 0.253854 0
M  V30 9445 C 879.936 1.35999 0.894883 0
M  V30 9446 O 881.125 1.60963 0.771563 0
M  V30 9447 C 878.225 3.09724 1.37566 0
M  V30 9448 C 877.398 4.29364 0.83459 0
M  V30 9449 C 876.457 4.93026 1.83881 0
M  V30 9450 O 875.483 5.51927 1.39159 0
M  V30 9451 N 876.685 4.86207 3.17149 0
M  V30 9452 H 879.45 2.96597 -0.430125 0
M  V30 9453 H 877.011 1.57487 -0.375423 0
M  V30 9454 H 879.003 3.49181 2.04584 0
M  V30 9455 H 877.573 2.43269 1.96314 0
M  V30 9456 H 876.793 3.94198 -0.0118878 0
M  V30 9457 H 878.081 5.06787 0.452155 0
M  V30 9458 H 877.479 4.39523 3.56141 0
M  V30 9459 H 876.036 5.29733 3.79771 0
M  V30 9460 N 879.47 0.276058 1.55163 0
M  V30 9461 C 880.747 -0.392292 1.91626 0
M  V30 9462 C 881.127 -1.73646 1.20043 0
M  V30 9463 O 880.475 -2.26139 0.327606 0
M  V30 9464 C 880.685 -0.531641 3.44927 0
M  V30 9465 C 882.033 -0.8141 4.16722 0
M  V30 9466 O 883.057 -0.616413 3.50826 0
M  V30 9467 O 881.916 -1.19224 5.33337 0
M  V30 9468 H 879.01 -0.214945 0.798579 0
M  V30 9469 H 881.556 0.32228 1.66612 0
M  V30 9470 H 880.328 0.414282 3.89101 0
M  V30 9471 H 879.951 -1.29564 3.75897 0
M  V30 9472 N 880.948 -1.576 0.00335426 0
M  V30 9473 C 881.858 -2.12067 -1.00322 0
M  V30 9474 C 882.874 -1.06672 -1.37467 0
M  V30 9475 O 884.05 -1.38592 -1.46131 0
M  V30 9476 C 881.115 -2.61593 -2.27531 0
M  V30 9477 C 880.176 -3.81602 -1.96668 0
M  V30 9478 C 879.409 -4.28756 -3.17811 0
M  V30 9479 O 879.632 -3.75222 -4.2961 0
M  V30 9480 O 878.566 -5.20877 -3.01613 0
M  V30 9481 H 882.392 -2.98299 -0.570199 0
M  V30 9482 H 879.977 -1.47835 -0.215682 0
M  V30 9483 H 881.859 -2.93631 -3.02256 0
M  V30 9484 H 880.534 -1.78457 -2.70065 0
M  V30 9485 H 879.441 -3.54531 -1.19408 0
M  V30 9486 H 880.774 -4.65822 -1.58968 0
M  V30 9487 N 882.426 0.269451 -1.5528 0
M  V30 9488 C 883.842 0.616827 -1.47199 0
M  V30 9489 C 884.042 1.89354 -0.68901 0
M  V30 9490 O 883.098 2.51631 -0.209287 0
M  V30 9491 C 884.411 0.740492 -2.9144 0
M  V30 9492 C 885.959 0.834312 -3.01676 0
M  V30 9493 C 886.434 0.989725 -4.47178 0
M  V30 9494 N 887.925 1.05516 -4.51022 0
M  V30 9495 C 888.66 1.19427 -5.60825 0
M  V30 9496 N 888.156 1.30035 -6.80487 0
M  V30 9497 N 889.949 1.22566 -5.48575 0
M  V30 9498 H 882.1 -0.568962 -2.04638 0
M  V30 9499 H 884.363 -0.193153 -0.928114 0
M  V30 9500 H 884.069 -0.127234 -3.5147 0
M  V30 9501 H 883.943 1.61965 -3.40657 0
M  V30 9502 H 886.33 1.6925 -2.4174 0
M  V30 9503 H 886.411 -0.0695298 -2.55705 0
M  V30 9504 H 886.055 0.136179 -5.07717 0
M  V30 9505 H 885.985 1.90827 -4.90808 0
M  V30 9506 H 888.476 0.985434 -3.64825 0
M  V30 9507 H 888.789 1.40494 -7.59922 0
M  V30 9508 H 887.134 1.27033 -6.83292 0
M  V30 9509 H 890.325 1.13911 -4.54029 0
M  V30 9510 H 890.498 1.33063 -6.34191 0
M  V30 9511 N 883.904 1.48273 0.534124 0
M  V30 9512 C 885.134 1.59503 1.31311 0
M  V30 9513 C 885.542 0.25284 1.87503 0
M  V30 9514 O 884.885 -0.767399 1.66903 0
M  V30 9515 C 884.947 2.57899 2.50456 0
M  V30 9516 C 884.611 4.03063 2.15382 0
M  V30 9517 C 885.608 4.90869 1.713 0
M  V30 9518 C 883.293 4.4857 2.26032 0
M  V30 9519 C 885.287 6.22209 1.38328 0
M  V30 9520 C 882.974 5.79932 1.92672 0
M  V30 9521 C 883.972 6.66574 1.4889 0
M  V30 9522 O 883.66 7.95492 1.15966 0
M  V30 9523 H 883.392 0.540695 0.405739 0
M  V30 9524 H 885.946 1.94794 0.651497 0
M  V30 9525 H 884.176 2.1772 3.19585 0
M  V30 9526 H 885.865 2.59008 3.12522 0
M  V30 9527 H 886.631 4.56951 1.62545 0
M  V30 9528 H 882.51 3.81321 2.59066 0
M  V30 9529 H 886.054 6.89792 1.04082 0
M  V30 9530 H 881.951 6.13386 2.01066 0
M  V30 9531 H 882.719 8.08207 1.29399 0
M  V30 9532 N 885.382 -0.782676 1.36792 0
M  V30 9533 C 886.631 -1.53605 1.30723 0
M  V30 9534 C 886.944 -1.95294 -0.109296 0
M  V30 9535 O 888.15 -2.69921 -0.292398 0
M  V30 9536 C 886.606 -2.77321 2.29393 0
M  V30 9537 C 886.214 -2.42774 3.76517 0
M  V30 9538 C 887.958 -3.55289 2.32314 0
M  V30 9539 C 885.865 -3.62926 4.66947 0
M  V30 9540 H 884.795 -0.576646 0.485794 0
M  V30 9541 H 887.446 -0.858255 1.62192 0
M  V30 9542 H 885.828 -3.46934 1.90927 0
M  V30 9543 H 887.002 -1.81014 4.23758 0
M  V30 9544 H 885.317 -1.78002 3.76436 0
M  V30 9545 H 887.914 -4.44573 2.97083 0
M  V30 9546 H 888.257 -3.94361 1.3336 0
M  V30 9547 H 888.79 -2.92662 2.69432 0
M  V30 9548 H 885.529 -3.28944 5.66989 0
M  V30 9549 H 885.049 -4.23828 4.24418 0
M  V30 9550 H 886.728 -4.29873 4.83548 0
M  V30 9551 N 886.86 -1.21182 -1.00761 0
M  V30 9552 C 888.137 -0.936297 -1.71735 0
M  V30 9553 C 888.517 0.552585 -2.03739 0
M  V30 9554 O 887.865 1.51672 -1.70903 0
M  V30 9555 C 888.075 -1.81867 -2.97868 0
M  V30 9556 C 889.423 -2.06594 -3.7095 0
M  V30 9557 O 890.447 -1.79194 -3.07844 0
M  V30 9558 O 889.306 -2.5292 -4.84452 0
M  V30 9559 H 886.4 -0.350867 -0.74888 0
M  V30 9560 H 888.946 -1.32098 -1.06527 0
M  V30 9561 H 887.718 -2.82643 -2.70607 0
M  V30 9562 H 887.341 -1.43463 -3.70815 0
M  V30 9563 N 888.338 1.20213 -1.01915 0
M  V30 9564 C 889.285 2.2309 -0.591571 0
M  V30 9565 C 890.255 1.61465 0.389649 0
M  V30 9566 O 891.44 1.88606 0.288511 0
M  V30 9567 C 888.58 3.45045 0.0614028 0
M  V30 9568 C 887.693 4.21091 -0.964688 0
M  V30 9569 C 886.828 5.30448 -0.282499 0
M  V30 9570 C 885.867 5.98241 -1.29517 0
M  V30 9571 N 885.004 6.99182 -0.639472 0
M  V30 9572 H 889.844 2.59023 -1.47347 0
M  V30 9573 H 887.381 1.27274 -0.737547 0
M  V30 9574 H 889.339 4.14688 0.45714 0
M  V30 9575 H 887.969 3.09797 0.906937 0
M  V30 9576 H 887.021 3.50489 -1.47857 0
M  V30 9577 H 888.333 4.67662 -1.73475 0
M  V30 9578 H 887.487 6.06466 0.168603 0
M  V30 9579 H 886.226 4.84922 0.519843 0
M  V30 9580 H 885.231 5.20982 -1.75663 0
M  V30 9581 H 886.456 6.45853 -2.09884 0
M  V30 9582 H 884.402 6.55844 0.142955 0
M  V30 9583 H 884.319 7.43893 -1.34756 0
M  V30 9584 H 885.587 7.79212 -0.212047 0
M  V30 9585 N 889.816 0.795718 1.36037 0
M  V30 9586 C 891.064 0.370291 1.98679 0
M  V30 9587 C 891.385 -1.06332 1.63458 0
M  V30 9588 O 890.655 -1.73394 0.911671 0
M  V30 9589 H 889.235 0.133928 0.734896 0
M  V30 9590 H 891.897 1.01915 1.6613 0
M  V30 9591 H 890.993 0.467207 3.08583 0
M  V30 9592 N 891.294 -1.47756 0.548274 0
M  V30 9593 C 892.242 -2.3158 -0.217584 0
M  V30 9594 C 893.236 -1.42372 -0.917957 0
M  V30 9595 O 894.442 -1.59184 -0.840259 0
M  V30 9596 H 890.817 -0.74671 -0.0890388 0
M  V30 9597 H 892.788 -2.94032 0.508719 0
M  V30 9598 C 891.537 -3.24834 -1.24008 0
M  V30 9599 H 890.86 -3.93435 -0.710572 0
M  V30 9600 H 892.3 -3.86336 -1.74701 0
M  V30 9601 C 890.759 -2.47724 -2.2833 0
M  V30 9602 O 891.289 -2.21522 -3.35098 0
M  V30 9603 N 889.495 -2.08891 -2.02022 0
M  V30 9604 H 889.042 -2.30401 -1.1521 0
M  V30 9605 H 889 -1.57613 -2.7204 0
M  V30 9606 N 892.772 -0.284283 -1.55015 0
M  V30 9607 C 894.188 0.069603 -1.59448 0
M  V30 9608 C 894.388 1.53833 -1.30144 0
M  V30 9609 O 893.444 2.2886 -1.06674 0
M  V30 9610 C 894.757 -0.313287 -2.99064 0
M  V30 9611 C 896.305 -0.260662 -3.11913 0
M  V30 9612 C 896.78 -0.618127 -4.5381 0
M  V30 9613 N 898.271 -0.570026 -4.59679 0
M  V30 9614 C 899.006 -0.8193 -5.67517 0
M  V30 9615 N 898.502 -1.13367 -6.83462 0
M  V30 9616 N 900.295 -0.747482 -5.57108 0
M  V30 9617 H 892.446 -1.24167 -1.72326 0
M  V30 9618 H 894.709 -0.502259 -0.804015 0
M  V30 9619 H 894.415 -1.33509 -3.25374 0
M  V30 9620 H 894.289 0.341369 -3.75652 0
M  V30 9621 H 896.676 0.751869 -2.85361 0
M  V30 9622 H 896.757 -0.949706 -2.37517 0
M  V30 9623 H 896.401 -1.62839 -4.81088 0
M  V30 9624 H 896.331 0.092807 -5.26518 0
M  V30 9625 H 898.822 -0.3373 -3.76392 0
M  V30 9626 H 899.135 -1.3103 -7.61611 0
M  V30 9627 H 897.48 -1.17154 -6.85055 0
M  V30 9628 H 900.671 -0.501658 -4.65404 0
M  V30 9629 H 900.844 -0.945128 -6.4107 0
M  V30 9630 N 894.251 1.57596 -0.0117121 0
M  V30 9631 C 895.479 1.9536 0.681334 0
M  V30 9632 C 895.894 0.887255 1.66653 0
M  V30 9633 O 895.251 -0.132692 1.82017 0
M  V30 9634 C 895.302 3.33165 1.40298 0
M  V30 9635 O 895.023 4.35707 0.45728 0
M  V30 9636 C 896.524 3.85458 2.18946 0
M  V30 9637 H 893.744 0.643826 0.189023 0
M  V30 9638 H 896.288 2.04392 -0.066311 0
M  V30 9639 H 894.443 3.25404 2.10216 0
M  V30 9640 H 894.857 5.15495 0.96773 0
M  V30 9641 H 896.331 4.84275 2.64918 0
M  V30 9642 H 896.808 3.18781 3.02118 0
M  V30 9643 H 897.414 3.96431 1.5402 0
M  V30 9644 N 895.729 -0.261212 1.5542 0
M  V30 9645 C 896.959 -1.00769 1.80358 0
M  V30 9646 C 897.367 -1.79991 0.583085 0
M  V30 9647 O 896.71 -1.77911 -0.457534 0
M  V30 9648 C 896.772 -2.00463 2.9842 0
M  V30 9649 C 896.436 -1.4007 4.35005 0
M  V30 9650 C 897.433 -0.810388 5.13545 0
M  V30 9651 C 895.118 -1.42436 4.81682 0
M  V30 9652 C 897.112 -0.251784 6.36903 0
M  V30 9653 C 894.799 -0.861897 6.04991 0
M  V30 9654 C 895.797 -0.276622 6.8244 0
M  V30 9655 O 895.485 0.277194 8.03422 0
M  V30 9656 H 895.217 -0.302839 0.604371 0
M  V30 9657 H 897.771 -0.293763 2.03288 0
M  V30 9658 H 896.001 -2.75648 2.71211 0
M  V30 9659 H 897.69 -2.61336 3.10577 0
M  V30 9660 H 898.456 -0.784719 4.7861 0
M  V30 9661 H 894.335 -1.8693 4.214 0
M  V30 9662 H 897.879 0.205678 6.97297 0
M  V30 9663 H 893.776 -0.884846 6.39407 0
M  V30 9664 H 894.544 0.167682 8.18328 0
M  V30 9665 N 897.207 -1.48554 -0.526253 0
M  V30 9666 C 898.435 -1.60429 -1.30652 0
M  V30 9667 C 898.85 -0.265963 -1.86917 0
M  V30 9668 O 898.207 0.745262 -1.6659 0
M  V30 9669 C 898.258 -2.65377 -2.45473 0
M  V30 9670 O 897.979 -3.94017 -1.91527 0
M  V30 9671 C 899.48 -2.87726 -3.37237 0
M  V30 9672 H 896.7 -0.540817 -0.397187 0
M  V30 9673 H 899.244 -1.94409 -0.634461 0
M  V30 9674 H 897.399 -2.34246 -3.08557 0
M  V30 9675 H 897.813 -4.51623 -2.66715 0
M  V30 9676 H 899.287 -3.64951 -4.14144 0
M  V30 9677 H 899.764 -1.96688 -3.92696 0
M  V30 9678 H 900.37 -3.20176 -2.79942 0
M  V30 9679 N 898.685 0.775411 -1.37205 0
M  V30 9680 C 899.931 1.53533 -1.33414 0
M  V30 9681 C 900.286 1.92225 0.0819435 0
M  V30 9682 O 899.579 1.60935 1.03974 0
M  V30 9683 C 899.773 2.81377 -2.20367 0
M  V30 9684 C 899.602 2.5518 -3.70288 0
M  V30 9685 C 898.372 2.49493 -4.3941 0
M  V30 9686 C 900.57 2.23425 -4.63234 0
M  V30 9687 N 898.552 2.15341 -5.74892 0
M  V30 9688 C 899.923 1.99381 -5.87067 0
M  V30 9689 C 901.978 2.09549 -4.51657 0
M  V30 9690 C 900.681 1.62863 -7.0062 0
M  V30 9691 C 902.707 1.74431 -5.65091 0
M  V30 9692 C 902.069 1.51245 -6.87971 0
M  V30 9693 H 898.168 0.562278 -0.543477 0
M  V30 9694 H 900.752 0.90495 -1.72391 0
M  V30 9695 H 898.923 3.42259 -1.83612 0
M  V30 9696 H 900.655 3.4724 -2.07861 0
M  V30 9697 H 897.41 2.65221 -3.9237 0
M  V30 9698 H 897.834 2.00972 -6.46482 0
M  V30 9699 H 902.476 2.26159 -3.57228 0
M  V30 9700 H 900.194 1.44991 -7.94986 0
M  V30 9701 H 903.78 1.64359 -5.58102 0
M  V30 9702 H 902.66 1.24472 -7.74259 0
M  V30 9703 N 900.163 1.21714 1.00117 0
M  V30 9704 C 901.391 1.06278 1.77518 0
M  V30 9705 C 901.806 -0.387193 1.84787 0
M  V30 9706 O 901.163 -1.26854 1.31203 0
M  V30 9707 C 901.214 1.65795 3.21239 0
M  V30 9708 O 900.935 3.05119 3.14378 0
M  V30 9709 C 902.436 1.55521 4.15124 0
M  V30 9710 H 899.656 0.373013 0.557765 0
M  V30 9711 H 902.2 1.61133 1.25922 0
M  V30 9712 H 900.355 1.15022 3.69931 0
M  V30 9713 H 900.769 3.33643 4.04701 0
M  V30 9714 H 902.243 2.01902 5.13751 0
M  V30 9715 H 902.72 0.510307 4.36225 0
M  V30 9716 H 903.326 2.0556 3.72324 0
M  V30 9717 N 901.641 -1.19671 1.02551 0
M  V30 9718 C 903.052 -1.70964 0.750208 0
M  V30 9719 C 903.403 -1.82095 -0.730461 0
M  V30 9720 O 902.528 -1.48974 -1.56958 0
M  V30 9721 C 903.123 -3.10516 1.35518 0
M  V30 9722 C 901.682 -3.59083 1.12854 0
M  V30 9723 C 900.829 -2.36041 1.45534 0
M  V30 9724 H 903.78 -1.04559 1.19386 0
M  V30 9725 H 903.801 -3.73028 0.750378 0
M  V30 9726 H 903.313 -3.02383 2.43282 0
M  V30 9727 H 901.414 -3.72536 0.0689627 0
M  V30 9728 H 901.527 -4.43395 1.81488 0
M  V30 9729 H 899.891 -2.39214 0.87458 0
M  V30 9730 H 900.674 -2.3054 2.54374 0
M  V30 9731 N 903.119 -0.802921 -1.35613 0
M  V30 9732 C 904.365 -0.382141 -1.99167 0
M  V30 9733 C 904.698 1.04704 -1.63556 0
M  V30 9734 O 903.973 1.72578 -0.89706 0
M  V30 9735 C 904.256 -0.561493 -3.55695 0
M  V30 9736 C 904.109 -2.03534 -4.01116 0
M  V30 9737 C 905.428 0.0151135 -4.40097 0
M  V30 9738 H 902.547 -0.140322 -0.723518 0
M  V30 9739 H 905.189 -1.01177 -1.6082 0
M  V30 9740 H 903.339 -0.0255083 -3.88492 0
M  V30 9741 H 905.011 -2.63343 -3.78746 0
M  V30 9742 H 903.254 -2.5331 -3.52159 0
M  V30 9743 H 903.925 -2.11173 -5.1001 0
M  V30 9744 H 906.401 -0.442582 -4.1374 0
M  V30 9745 H 905.277 -0.140316 -5.48721 0
M  V30 9746 H 905.538 1.10848 -4.27978 0
M  V30 9747 N 904.597 1.47463 -0.556102 0
M  V30 9748 C 905.545 2.31692 0.205299 0
M  V30 9749 C 906.539 1.42857 0.910394 0
M  V30 9750 O 907.745 1.59628 0.831806 0
M  V30 9751 H 904.12 0.747172 0.0850775 0
M  V30 9752 H 906.091 2.93758 -0.524305 0
M  V30 9753 C 904.84 3.25487 1.22283 0
M  V30 9754 H 904.163 3.93806 0.689697 0
M  V30 9755 H 905.603 3.87257 1.7265 0
M  V30 9756 C 904.062 2.48931 2.27013 0
M  V30 9757 O 904.592 2.23296 3.33919 0
M  V30 9758 N 902.798 2.0996 2.00911 0
M  V30 9759 H 902.345 2.31008 1.13986 0
M  V30 9760 H 902.303 1.59053 2.712 0
M  V30 9761 N 906.075 0.2925 1.54862 0
M  V30 9762 C 907.323 -0.318633 1.99572 0
M  V30 9763 C 907.644 -1.55062 1.1824 0
M  V30 9764 O 906.914 -1.93943 0.276226 0
M  V30 9765 H 905.494 -0.120722 0.737181 0
M  V30 9766 H 908.156 0.401862 1.90712 0
M  V30 9767 H 907.252 -0.596542 3.06346 0
M  V30 9768 N 907.553 -1.57587 0.0200696 0
M  V30 9769 C 908.781 -1.95718 -0.670964 0
M  V30 9770 C 909.196 -0.896081 -1.6618 0
M  V30 9771 O 908.553 0.123037 -1.82085 0
M  V30 9772 C 908.604 -3.33904 -1.38529 0
M  V30 9773 O 908.325 -4.35943 -0.434167 0
M  V30 9774 C 909.826 -3.86614 -2.16898 0
M  V30 9775 H 907.046 -0.644819 -0.185606 0
M  V30 9776 H 909.59 -2.04354 0.0771495 0
M  V30 9777 H 907.745 -3.26515 -2.08487 0
M  V30 9778 H 908.159 -5.16001 -0.940378 0
M  V30 9779 H 909.633 -4.85673 -2.62346 0
M  V30 9780 H 910.11 -3.20379 -3.00423 0
M  V30 9781 H 910.716 -3.97243 -1.51916 0
M  V30 9782 N 909.032 0.252966 -1.55557 0
M  V30 9783 C 910.309 1.00432 -1.67847 0
M  V30 9784 C 910.689 2.03587 -0.55816 0
M  V30 9785 O 910.037 2.24239 0.439197 0
M  V30 9786 C 910.247 1.64313 -3.079 0
M  V30 9787 C 911.595 2.14726 -3.66303 0
M  V30 9788 O 912.619 1.74264 -3.10661 0
M  V30 9789 O 911.478 2.89 -4.63833 0
M  V30 9790 H 908.572 0.467102 -0.682455 0
M  V30 9791 H 911.118 0.247233 -1.67889 0
M  V30 9792 H 909.89 0.896681 -3.80888 0
M  V30 9793 H 909.513 2.46657 -3.11843 0
M  V30 9794 N 910.51 1.48831 0.518367 0
M  V30 9795 C 911.74 1.60886 1.29612 0
M  V30 9796 C 912.148 0.272713 1.87224 0
M  V30 9797 O 911.491 -0.749653 1.67708 0
M  V30 9798 C 911.553 2.60541 2.47707 0
M  V30 9799 C 911.217 4.05324 2.11095 0
M  V30 9800 C 912.214 4.92658 1.66084 0
M  V30 9801 C 909.899 4.50942 2.21262 0
M  V30 9802 C 911.893 6.23641 1.3172 0
M  V30 9803 C 909.58 5.81943 1.8651 0
M  V30 9804 C 910.578 6.68116 1.41812 0
M  V30 9805 O 910.266 7.96677 1.07522 0
M  V30 9806 H 909.998 0.544968 0.399982 0
M  V30 9807 H 912.552 1.95474 0.630799 0
M  V30 9808 H 910.782 2.21098 3.17258 0
M  V30 9809 H 912.471 2.62308 3.09757 0
M  V30 9810 H 913.237 4.58649 1.5769 0
M  V30 9811 H 909.116 3.84048 2.55007 0
M  V30 9812 H 912.66 6.90857 0.967598 0
M  V30 9813 H 908.557 6.15484 1.94549 0
M  V30 9814 H 909.325 8.09534 1.2082 0
M  V30 9815 N 911.988 -0.768124 1.37614 0
M  V30 9816 C 913.213 -1.56239 1.36397 0
M  V30 9817 C 913.638 -1.8804 -0.0475839 0
M  V30 9818 O 912.996 -1.495 -1.02564 0
M  V30 9819 C 913.044 -2.84716 2.21289 0
M  V30 9820 O 912.148 -3.79249 1.62001 0
M  V30 9821 H 911.489 -0.473119 0.465891 0
M  V30 9822 H 914.019 -0.950415 1.81186 0
M  V30 9823 H 914.029 -3.33784 2.34632 0
M  V30 9824 H 912.704 -2.60899 3.2389 0
M  V30 9825 H 911.281 -3.37904 1.57719 0
M  V30 9826 N 913.466 -1.22244 -0.994698 0
M  V30 9827 C 914.396 -1.01513 -2.10279 0
M  V30 9828 C 915.377 0.0633365 -1.69982 0
M  V30 9829 O 916.562 -0.0985268 -1.9395 0
M  V30 9830 C 913.692 -0.59016 -3.42249 0
M  V30 9831 C 912.646 -1.61436 -3.96387 0
M  V30 9832 C 911.972 -1.04528 -5.24383 0
M  V30 9833 C 913.272 -3.00388 -4.27276 0
M  V30 9834 H 914.966 -1.94194 -2.2788 0
M  V30 9835 H 912.512 -0.935094 -1.09508 0
M  V30 9836 H 914.465 -0.432254 -4.19177 0
M  V30 9837 H 913.189 0.372308 -3.24471 0
M  V30 9838 H 911.848 -1.76001 -3.21589 0
M  V30 9839 H 911.496 -0.0742225 -5.02945 0
M  V30 9840 H 911.196 -1.72949 -5.61571 0
M  V30 9841 H 912.72 -0.898922 -6.03947 0
M  V30 9842 H 914.134 -2.89207 -4.95007 0
M  V30 9843 H 912.531 -3.65916 -4.75631 0
M  V30 9844 H 913.601 -3.50456 -3.35125 0
M  V30 9845 N 914.944 1.19125 -1.03184 0
M  V30 9846 C 915.907 2.20662 -0.619766 0
M  V30 9847 C 916.907 1.57621 0.318179 0
M  V30 9848 O 918.097 1.73885 0.104783 0
M  V30 9849 C 915.229 3.40774 0.0926696 0
M  V30 9850 H 916.422 2.58633 -1.5182 0
M  V30 9851 H 913.975 1.32855 -0.823364 0
M  V30 9852 H 914.71 3.08324 1.00531 0
M  V30 9853 H 914.495 3.87766 -0.581344 0
M  V30 9854 H 915.985 4.15977 0.367792 0
M  V30 9855 N 916.422 0.810101 1.35185 0
M  V30 9856 C 917.352 0.237453 2.32289 0
M  V30 9857 C 918.333 -0.639032 1.5764 0
M  V30 9858 O 919.518 -0.568575 1.8569 0
M  V30 9859 C 916.648 -0.611964 3.41866 0
M  V30 9860 C 915.602 0.166318 4.27677 0
M  V30 9861 C 914.928 -0.805024 5.28605 0
M  V30 9862 C 916.228 1.36729 5.04086 0
M  V30 9863 H 917.922 1.04874 2.80432 0
M  V30 9864 H 915.468 0.505751 1.34826 0
M  V30 9865 H 917.421 -1.02267 4.08802 0
M  V30 9866 H 916.145 -1.45617 2.92341 0
M  V30 9867 H 914.804 0.558238 3.62325 0
M  V30 9868 H 914.452 -1.64483 4.75347 0
M  V30 9869 H 914.152 -0.288577 5.86891 0
M  V30 9870 H 915.676 -1.21386 5.98413 0
M  V30 9871 H 917.09 1.03128 5.63948 0
M  V30 9872 H 915.487 1.81848 5.71884 0
M  V30 9873 H 916.557 2.15214 4.34524 0
M  V30 9874 N 917.9 -1.47166 0.563914 0
M  V30 9875 C 919.146 -2.02756 0.0424338 0
M  V30 9876 C 919.479 -1.43662 -1.3067 0
M  V30 9877 O 918.754 -0.594676 -1.85186 0
M  V30 9878 C 919.037 -3.60074 -0.0434793 0
M  V30 9879 C 918.89 -4.29587 1.33323 0
M  V30 9880 C 920.209 -4.336 -0.753568 0
M  V30 9881 H 917.328 -0.736806 0.0168946 0
M  V30 9882 H 919.97 -1.75521 0.727496 0
M  V30 9883 H 918.12 -3.83409 -0.626906 0
M  V30 9884 H 919.792 -4.17573 1.96037 0
M  V30 9885 H 918.035 -3.8968 1.9061 0
M  V30 9886 H 918.706 -5.38218 1.22576 0
M  V30 9887 H 921.182 -4.15299 -0.258126 0
M  V30 9888 H 920.058 -5.43291 -0.782659 0
M  V30 9889 H 920.319 -4.03302 -1.81108 0
M  V30 9890 N 919.378 -0.300708 -1.54705 0
M  V30 9891 C 920.308 0.568675 -2.26469 0
M  V30 9892 C 921.289 1.13817 -1.26411 0
M  V30 9893 O 922.474 1.16756 -1.55183 0
M  V30 9894 C 919.604 1.74077 -3.00524 0
M  V30 9895 C 918.558 1.30165 -4.07727 0
M  V30 9896 C 917.884 2.55888 -4.69495 0
M  V30 9897 C 919.184 0.433106 -5.20501 0
M  V30 9898 H 920.878 -0.0298851 -2.99385 0
M  V30 9899 H 918.424 -0.0158135 -1.43991 0
M  V30 9900 H 920.377 2.35506 -3.49449 0
M  V30 9901 H 919.101 2.36556 -2.25186 0
M  V30 9902 H 917.76 0.710414 -3.59651 0
M  V30 9903 H 917.408 3.16681 -3.90797 0
M  V30 9904 H 917.108 2.27207 -5.41895 0
M  V30 9905 H 918.632 3.18121 -5.21183 0
M  V30 9906 H 920.046 0.95307 -5.65322 0
M  V30 9907 H 918.443 0.240085 -5.9962 0
M  V30 9908 H 919.513 -0.541866 -4.81863 0
M  V30 9909 N 920.856 1.57574 -0.0284266 0
M  V30 9910 C 922.267 1.79585 0.510502 0
M  V30 9911 C 922.618 0.938625 1.72291 0
M  V30 9912 O 921.743 0.14884 2.15888 0
M  V30 9913 C 922.338 3.25703 0.932912 0
M  V30 9914 C 920.897 3.48711 1.41696 0
M  V30 9915 C 920.044 2.74665 0.381356 0
M  V30 9916 H 922.995 1.56647 -0.254464 0
M  V30 9917 H 923.016 3.35376 1.79731 0
M  V30 9918 H 922.528 3.88067 0.0503036 0
M  V30 9919 H 920.629 2.91597 2.31952 0
M  V30 9920 H 920.742 4.57423 1.42481 0
M  V30 9921 H 919.106 2.40123 0.8493 0
M  V30 9922 H 919.889 3.39745 -0.492775 0
M  V30 9923 N 922.334 -0.244713 1.55689 0
M  V30 9924 C 923.562 -0.989944 1.8168 0
M  V30 9925 C 923.977 -1.78863 0.604449 0
M  V30 9926 O 923.334 -1.77437 -0.426907 0
M  V30 9927 C 923.385 -1.92607 3.05916 0
M  V30 9928 O 923.106 -1.1597 4.22472 0
M  V30 9929 C 924.607 -2.78711 3.44724 0
M  V30 9930 H 921.827 -0.2912 0.604519 0
M  V30 9931 H 924.371 -0.266938 2.0275 0
M  V30 9932 H 922.526 -2.60333 2.8689 0
M  V30 9933 H 922.94 -1.79311 4.92898 0
M  V30 9934 H 924.414 -3.40141 4.34751 0
M  V30 9935 H 924.891 -3.49935 2.6541 0
M  V30 9936 H 925.497 -2.16435 3.66109 0
M  V30 9937 N 923.813 -1.49104 -0.510467 0
M  V30 9938 C 925.043 -1.61571 -1.28757 0
M  V30 9939 C 925.451 -0.282638 -1.87077 0
M  V30 9940 O 924.794 0.740749 -1.68103 0
M  V30 9941 C 924.856 -2.61851 -2.46322 0
M  V30 9942 C 924.52 -4.06438 -2.08942 0
M  V30 9943 C 925.517 -4.93532 -1.63469 0
M  V30 9944 C 923.202 -4.52109 -2.18867 0
M  V30 9945 C 925.196 -6.24331 -1.28411 0
M  V30 9946 C 922.883 -5.82924 -1.83421 0
M  V30 9947 C 923.881 -6.68858 -1.38267 0
M  V30 9948 O 923.569 -7.97236 -1.03296 0
M  V30 9949 H 923.301 -0.547082 -0.397086 0
M  V30 9950 H 925.855 -1.95806 -0.620424 0
M  V30 9951 H 924.085 -2.22777 -3.16081 0
M  V30 9952 H 925.774 -2.63947 -3.08362 0
M  V30 9953 H 926.54 -4.59479 -1.55255 0
M  V30 9954 H 922.419 -3.85395 -2.52966 0
M  V30 9955 H 925.963 -6.9136 -0.930946 0
M  V30 9956 H 921.86 -6.16507 -1.91282 0
M  V30 9957 H 922.628 -8.10163 -1.16525 0
M  V30 9958 N 925.291 0.760815 -1.38019 0
M  V30 9959 C 926.516 1.55513 -1.37224 0
M  V30 9960 C 926.941 1.88062 0.037611 0
M  V30 9961 O 926.299 1.50042 1.0177 0
M  V30 9962 C 926.347 2.83539 -2.22796 0
M  V30 9963 O 925.451 3.78384 -1.64009 0
M  V30 9964 H 924.792 0.470642 -0.468393 0
M  V30 9965 H 927.322 0.940792 -1.81687 0
M  V30 9966 H 927.332 3.32535 -2.36399 0
M  V30 9967 H 926.007 2.59178 -3.25269 0
M  V30 9968 H 924.584 3.37063 -1.59508 0
M  V30 9969 N 926.769 1.22769 0.988202 0
M  V30 9970 C 928.016 1.05509 1.72841 0
M  V30 9971 C 928.344 -0.409145 1.90148 0
M  V30 9972 O 927.599 -1.3195 1.44526 0
M  V30 9973 C 927.898 1.71679 3.13466 0
M  V30 9974 C 927.564 3.21584 3.16061 0
M  V30 9975 C 926.226 3.62486 3.16476 0
M  V30 9976 C 928.578 4.17511 3.11984 0
M  V30 9977 C 925.906 4.97789 3.10521 0
M  V30 9978 C 928.258 5.52796 3.0757 0
M  V30 9979 C 926.922 5.93072 3.06304 0
M  V30 9980 H 926.192 0.386085 0.632471 0
M  V30 9981 H 928.839 1.52596 1.157 0
M  V30 9982 H 927.144 1.1693 3.73945 0
M  V30 9983 H 928.841 1.55809 3.69492 0
M  V30 9984 H 925.431 2.89019 3.1649 0
M  V30 9985 H 929.615 3.86926 3.10809 0
M  V30 9986 H 924.871 5.28218 3.07888 0
M  V30 9987 H 929.045 6.26848 3.03372 0
M  V30 9988 H 926.672 6.97879 3.01444 0
M  V30 9989 N 928.247 -1.18576 1.03814 0
M  V30 9990 C 929.477 -1.92158 0.758864 0
M  V30 9991 C 929.885 -1.76267 -0.687498 0
M  V30 9992 O 929.228 -1.08806 -1.4801 0
M  V30 9993 C 929.29 -3.44063 1.04217 0
M  V30 9994 C 928.954 -3.8373 2.48193 0
M  V30 9995 C 929.951 -3.87722 3.46363 0
M  V30 9996 C 927.636 -4.151 2.82838 0
M  V30 9997 C 929.63 -4.2253 4.77229 0
M  V30 9998 C 927.317 -4.49578 4.13911 0
M  V30 9999 C 928.315 -4.53269 5.10917 0
M  V30 10000 O 928.003 -4.86945 6.39641 0
M  V30 10001 H 927.735 -0.61694 0.276335 0
M  V30 10002 H 930.289 -1.51388 1.38819 0
M  V30 10003 H 928.519 -3.85061 0.355709 0
M  V30 10004 H 930.208 -3.9889 0.751091 0
M  V30 10005 H 930.974 -3.63627 3.20936 0
M  V30 10006 H 926.853 -4.11406 2.08006 0
M  V30 10007 H 930.397 -4.25326 5.52941 0
M  V30 10008 H 926.294 -4.73133 4.39107 0
M  V30 10009 H 927.062 -5.04857 6.44253 0
M  V30 10010 N 929.725 -0.817259 -1.34754 0
M  V30 10011 C 930.955 -0.414849 -2.02392 0
M  V30 10012 C 931.363 0.982186 -1.61709 0
M  V30 10013 O 930.706 1.64607 -0.815481 0
M  V30 10014 C 930.768 -0.430981 -3.56907 0
M  V30 10015 C 930.432 -1.78037 -4.20894 0
M  V30 10016 C 931.429 -2.74034 -4.41816 0
M  V30 10017 C 929.114 -2.0673 -4.57786 0
M  V30 10018 C 931.108 -3.96901 -4.98747 0
M  V30 10019 C 928.795 -3.29858 -5.14429 0
M  V30 10020 C 929.793 -4.24761 -5.34853 0
M  V30 10021 O 929.481 -5.45714 -5.90298 0
M  V30 10022 H 929.213 -0.165392 -0.655455 0
M  V30 10023 H 931.767 -1.10524 -1.73129 0
M  V30 10024 H 929.997 0.316074 -3.85406 0
M  V30 10025 H 931.686 -0.0494067 -4.0587 0
M  V30 10026 H 932.452 -2.53161 -4.13684 0
M  V30 10027 H 928.331 -1.33666 -4.41197 0
M  V30 10028 H 931.875 -4.70987 -5.14604 0
M  V30 10029 H 927.772 -3.50597 -5.41989 0
M  V30 10030 H 928.54 -5.47157 -6.08738 0
M  V30 10031 N 931.203 1.46865 -0.571711 0
M  V30 10032 C 932.452 2.01636 -0.050881 0
M  V30 10033 C 932.765 1.45001 1.31279 0
M  V30 10034 O 933.971 1.91523 1.92435 0
M  V30 10035 C 932.427 3.59877 -0.0404114 0
M  V30 10036 C 932.035 4.25506 -1.40172 0
M  V30 10037 C 933.779 4.22346 0.42705 0
M  V30 10038 C 931.686 5.75795 -1.34958 0
M  V30 10039 H 930.616 0.753846 -0.0152514 0
M  V30 10040 H 933.267 1.68711 -0.721723 0
M  V30 10041 H 931.649 3.89829 0.696374 0
M  V30 10042 H 932.823 4.07178 -2.15737 0
M  V30 10043 H 931.138 3.75086 -1.8083 0
M  V30 10044 H 933.735 5.32499 0.484688 0
M  V30 10045 H 934.078 3.9052 1.44222 0
M  V30 10046 H 934.611 3.9698 -0.255326 0
M  V30 10047 H 931.35 6.12265 -2.3412 0
M  V30 10048 H 930.87 5.96419 -0.635962 0
M  V30 10049 H 932.549 6.38294 -1.05779 0
M  V30 10050 N 932.681 0.308908 1.54543 0
M  V30 10051 C 933.628 -0.563659 2.23811 0
M  V30 10052 C 934.598 -1.12332 1.22355 0
M  V30 10053 O 935.783 -1.16638 1.50997 0
M  V30 10054 C 932.923 -1.72585 2.98845 0
M  V30 10055 C 932.036 -1.19682 4.1509 0
M  V30 10056 C 931.171 -2.32351 4.77688 0
M  V30 10057 C 930.21 -1.76623 5.86064 0
M  V30 10058 N 929.347 -2.82896 6.42584 0
M  V30 10059 H 934.187 0.0336288 2.97981 0
M  V30 10060 H 931.724 0.0283666 1.47073 0
M  V30 10061 H 933.682 -2.40951 3.40586 0
M  V30 10062 H 932.312 -2.29464 2.27037 0
M  V30 10063 H 931.364 -0.405173 3.78236 0
M  V30 10064 H 932.676 -0.748923 4.93146 0
M  V30 10065 H 931.83 -3.0865 5.22322 0
M  V30 10066 H 930.569 -2.80472 3.98982 0
M  V30 10067 H 929.574 -0.988171 5.40847 0
M  V30 10068 H 930.799 -1.29398 6.66658 0
M  V30 10069 H 928.745 -3.30336 5.66758 0
M  V30 10070 H 928.662 -2.42626 7.16009 0
M  V30 10071 H 929.93 -3.59068 6.91875 0
M  V30 10072 N 934.159 -1.57557 0.0367827 0
M  V30 10073 C 935.122 -2.09591 -0.927589 0
M  V30 10074 C 936.122 -1.01252 -1.24919 0
M  V30 10075 O 937.312 -1.27382 -1.18825 0
M  V30 10076 C 934.444 -2.56816 -2.24184 0
M  V30 10077 H 935.637 -2.96086 -0.476784 0
M  V30 10078 H 933.19 -1.54864 -0.211385 0
M  V30 10079 H 933.925 -1.73673 -2.73876 0
M  V30 10080 H 933.71 -3.35973 -2.0215 0
M  V30 10081 H 935.2 -2.97271 -2.93291 0
M  V30 10082 N 935.637 0.236453 -1.55816 0
M  V30 10083 C 936.584 1.29289 -1.91188 0
M  V30 10084 C 937.554 1.47315 -0.767301 0
M  V30 10085 O 938.739 1.61128 -1.02189 0
M  V30 10086 C 935.879 2.64126 -2.22107 0
M  V30 10087 C 934.992 2.54022 -3.49423 0
M  V30 10088 C 934.127 3.81282 -3.69861 0
M  V30 10089 C 933.166 3.65839 -4.90743 0
M  V30 10090 N 932.303 4.85014 -5.07647 0
M  V30 10091 H 937.143 0.98424 -2.81277 0
M  V30 10092 H 934.68 0.474722 -1.39229 0
M  V30 10093 H 936.638 3.42626 -2.3804 0
M  V30 10094 H 935.268 2.93118 -1.35209 0
M  V30 10095 H 934.32 1.67036 -3.41765 0
M  V30 10096 H 935.632 2.38525 -4.38072 0
M  V30 10097 H 934.786 4.68226 -3.8581 0
M  V30 10098 H 933.525 3.99688 -2.79465 0
M  V30 10099 H 932.53 2.77279 -4.74759 0
M  V30 10100 H 933.755 3.48918 -5.82609 0
M  V30 10101 H 931.701 5.03762 -4.20191 0
M  V30 10102 H 931.618 4.72188 -5.90402 0
M  V30 10103 H 932.886 5.73427 -5.28017 0
M  V30 10104 N 937.115 1.49373 0.502552 0
M  V30 10105 C 938.045 1.68839 1.61294 0
M  V30 10106 C 939.026 0.537096 1.61398 0
M  V30 10107 O 940.211 0.772764 1.78163 0
M  V30 10108 C 937.341 1.75347 2.99784 0
M  V30 10109 C 936.295 2.90251 3.14545 0
M  V30 10110 C 935.621 2.8187 4.54371 0
M  V30 10111 C 936.921 4.31207 2.94717 0
M  V30 10112 H 938.615 2.61803 1.45257 0
M  V30 10113 H 936.161 1.25987 0.697371 0
M  V30 10114 H 938.114 1.87552 3.77362 0
M  V30 10115 H 936.838 0.789814 3.16906 0
M  V30 10116 H 935.497 2.77646 2.39392 0
M  V30 10117 H 935.145 1.83416 4.68367 0
M  V30 10118 H 934.845 3.5899 4.65188 0
M  V30 10119 H 936.369 2.96081 5.34012 0
M  V30 10120 H 937.783 4.44501 3.62065 0
M  V30 10121 H 936.18 5.09536 3.17007 0
M  V30 10122 H 937.25 4.45759 1.90857 0
M  V30 10123 N 938.594 -0.753485 1.38421 0
M  V30 10124 C 939.504 -1.89797 1.37892 0
M  V30 10125 C 940.52 -1.71797 0.276023 0
M  V30 10126 O 941.696 -1.94718 0.514464 0
M  V30 10127 C 938.761 -3.25166 1.20284 0
M  V30 10128 C 937.822 -3.55691 2.4038 0
M  V30 10129 C 937.055 -4.84601 2.23602 0
M  V30 10130 O 937.278 -5.56985 1.22979 0
M  V30 10131 O 936.212 -5.14605 3.12194 0
M  V30 10132 H 940.038 -1.93197 2.34326 0
M  V30 10133 H 937.623 -0.898775 1.19342 0
M  V30 10134 H 939.505 -4.06099 1.12525 0
M  V30 10135 H 938.18 -3.22577 0.269352 0
M  V30 10136 H 937.087 -2.74919 2.53714 0
M  V30 10137 H 938.42 -3.6304 3.32359 0
M  V30 10138 N 940.072 -1.23292 -0.981677 0
M  V30 10139 C 940.982 -1.02964 -2.10798 0
M  V30 10140 C 941.998 0.0254674 -1.73981 0
M  V30 10141 O 943.174 -0.169706 -2.00684 0
M  V30 10142 C 940.239 -0.621934 -3.41076 0
M  V30 10143 C 939.3 -1.75194 -3.91926 0
M  V30 10144 C 938.533 -1.36359 -5.15986 0
M  V30 10145 O 938.756 -0.247265 -5.69864 0
M  V30 10146 O 937.69 -2.18421 -5.60871 0
M  V30 10147 H 941.516 -1.97354 -2.30836 0
M  V30 10148 H 939.101 -1.01986 -1.09175 0
M  V30 10149 H 940.983 -0.405446 -4.19445 0
M  V30 10150 H 939.658 0.29299 -3.22371 0
M  V30 10151 H 938.565 -2.02305 -3.1468 0
M  V30 10152 H 939.898 -2.64513 -4.15083 0
M  V30 10153 N 941.55 1.18024 -1.04442 0
M  V30 10154 C 942.778 1.92032 -0.770161 0
M  V30 10155 C 943.193 1.76391 0.673181 0
M  V30 10156 O 942.55 1.09604 1.45922 0
M  V30 10157 C 942.601 3.43328 -1.13173 0
M  V30 10158 O 942.322 3.5848 -2.51841 0
M  V30 10159 C 943.823 4.34427 -0.882523 0
M  V30 10160 H 941.043 0.609518 -0.280586 0
M  V30 10161 H 943.587 1.49711 -1.39308 0
M  V30 10162 H 941.742 3.83423 -0.553704 0
M  V30 10163 H 942.156 4.52166 -2.65794 0
M  V30 10164 H 943.63 5.39123 -1.18533 0
M  V30 10165 H 944.107 4.3882 0.18257 0
M  V30 10166 H 944.713 4.00035 -1.44403 0
M  V30 10167 N 943.028 0.824394 1.34319 0
M  V30 10168 C 944.277 0.40956 1.97498 0
M  V30 10169 C 944.59 -1.03323 1.66083 0
M  V30 10170 O 945.796 -1.55205 2.22764 0
M  V30 10171 C 944.252 0.681384 3.53391 0
M  V30 10172 C 943.86 2.1379 3.93698 0
M  V30 10173 C 945.604 0.332788 4.23194 0
M  V30 10174 C 943.511 2.35453 5.42509 0
M  V30 10175 H 942.441 0.149409 0.739049 0
M  V30 10176 H 945.092 1.01095 1.5314 0
M  V30 10177 H 943.474 0.00980375 3.95999 0
M  V30 10178 H 944.648 2.84876 3.62191 0
M  V30 10179 H 942.963 2.44807 3.36836 0
M  V30 10180 H 945.56 0.472463 5.32609 0
M  V30 10181 H 945.903 -0.722862 4.09976 0
M  V30 10182 H 946.436 0.959005 3.86067 0
M  V30 10183 H 943.175 3.39529 5.60714 0
M  V30 10184 H 942.695 1.68912 5.75525 0
M  V30 10185 H 944.374 2.17885 6.09209 0
M  V30 10186 N 944.506 -1.46559 0.579492 0
M  V30 10187 C 945.734 -2.06784 0.0693648 0
M  V30 10188 C 946.149 -1.42875 -1.23419 0
M  V30 10189 O 945.506 -0.532919 -1.74546 0
M  V30 10190 C 945.557 -3.61343 -0.106511 0
M  V30 10191 O 945.278 -4.22861 1.14545 0
M  V30 10192 C 946.779 -4.38489 -0.651359 0
M  V30 10193 H 943.999 -0.66866 0.0559848 0
M  V30 10194 H 946.543 -1.88235 0.799245 0
M  V30 10195 H 944.698 -3.7933 -0.786601 0
M  V30 10196 H 945.112 -5.15691 0.95723 0
M  V30 10197 H 946.586 -5.47237 -0.723615 0
M  V30 10198 H 947.063 -4.06309 -1.66763 0
M  V30 10199 H 947.669 -4.253 -0.0062433 0
M  V30 10200 N 945.984 -0.3171 -1.54377 0
M  V30 10201 C 946.916 0.58571 -2.2159 0
M  V30 10202 C 947.929 1.08495 -1.21378 0
M  V30 10203 O 949.118 0.999638 -1.47883 0
M  V30 10204 C 946.218 1.8157 -2.86156 0
M  V30 10205 C 945.391 1.45625 -4.12447 0
M  V30 10206 C 944.45 2.54308 -4.60667 0
M  V30 10207 O 943.476 2.18724 -5.25498 0
M  V30 10208 N 944.678 3.85129 -4.34345 0
M  V30 10209 H 947.443 0.0102247 -2.99698 0
M  V30 10210 H 945.004 -0.140011 -1.61293 0
M  V30 10211 H 946.996 2.53657 -3.15341 0
M  V30 10212 H 945.566 2.29919 -2.11793 0
M  V30 10213 H 944.786 0.567294 -3.90097 0
M  V30 10214 H 946.074 1.19169 -4.94648 0
M  V30 10215 H 945.472 4.16841 -3.8244 0
M  V30 10216 H 944.029 4.53466 -4.68201 0
M  V30 10217 N 947.462 1.57535 -0.0451378 0
M  V30 10218 C 948.425 2.1008 0.916461 0
M  V30 10219 C 949.425 1.01913 1.2438 0
M  V30 10220 O 950.615 1.2801 1.18148 0
M  V30 10221 C 947.747 2.58001 2.22818 0
M  V30 10222 H 948.94 2.96334 0.461076 0
M  V30 10223 H 946.493 1.54974 0.203169 0
M  V30 10224 H 947.228 1.75123 2.72951 0
M  V30 10225 H 947.013 3.3704 2.00366 0
M  V30 10226 H 948.503 2.98822 2.9171 0
M  V30 10227 N 948.94 -0.228186 1.55939 0
M  V30 10228 C 950.356 -0.577583 1.48782 0
M  V30 10229 C 950.556 -1.87461 0.738972 0
M  V30 10230 O 949.612 -2.50988 0.275929 0
M  V30 10231 C 950.925 -0.662961 2.93301 0
M  V30 10232 C 952.473 -0.754035 3.03782 0
M  V30 10233 C 952.948 -0.870815 4.49645 0
M  V30 10234 N 954.439 -0.935208 4.53661 0
M  V30 10235 C 955.174 -1.04516 5.63794 0
M  V30 10236 N 954.67 -1.11948 6.83696 0
M  V30 10237 N 956.463 -1.07978 5.51631 0
M  V30 10238 H 948.614 0.623018 2.03057 0
M  V30 10239 H 950.877 0.217692 0.922667 0
M  V30 10240 H 950.583 0.220375 3.51009 0
M  V30 10241 H 950.457 -1.52876 3.44831 0
M  V30 10242 H 952.844 -1.62782 2.46143 0
M  V30 10243 H 952.925 0.137301 2.55431 0
M  V30 10244 H 952.569 -0.0015186 5.079 0
M  V30 10245 H 952.499 -1.77747 4.95695 0
M  V30 10246 H 954.99 -0.88836 3.6731 0
M  V30 10247 H 955.303 -1.20297 7.6338 0
M  V30 10248 H 953.648 -1.08873 6.8642 0
M  V30 10249 H 956.839 -1.01833 4.56889 0
M  V30 10250 H 957.012 -1.16202 6.37496 0
M  V30 10251 N 950.418 -1.49637 -0.494624 0
M  V30 10252 C 951.648 -1.62928 -1.27036 0
M  V30 10253 C 952.056 -0.302464 -1.86767 0
M  V30 10254 O 951.399 0.722878 -1.68879 0
M  V30 10255 C 951.461 -2.64449 -2.43531 0
M  V30 10256 C 951.125 -4.08632 -2.0462 0
M  V30 10257 C 952.122 -4.95238 -1.58225 0
M  V30 10258 C 949.807 -4.54405 -2.1406 0
M  V30 10259 C 951.801 -6.25658 -1.21782 0
M  V30 10260 C 949.488 -5.84836 -1.77228 0
M  V30 10261 C 950.486 -6.70287 -1.31165 0
M  V30 10262 O 950.174 -7.98287 -0.948339 0
M  V30 10263 H 949.906 -0.551263 -0.391261 0
M  V30 10264 H 952.46 -1.96453 -0.599621 0
M  V30 10265 H 950.69 -2.26117 -3.137 0
M  V30 10266 H 952.379 -2.67203 -3.05545 0
M  V30 10267 H 953.145 -4.611 -1.50373 0
M  V30 10268 H 949.024 -3.88056 -2.48865 0
M  V30 10269 H 952.568 -6.92309 -0.857566 0
M  V30 10270 H 948.465 -6.18502 -1.84732 0
M  V30 10271 H 949.233 -8.11353 -1.07925 0
M  V30 10272 N 951.896 0.746133 -1.38819 0
M  V30 10273 C 953.121 1.54049 -1.38866 0
M  V30 10274 C 953.546 1.88092 0.0176624 0
M  V30 10275 O 952.904 1.51113 1.00173 0
M  V30 10276 C 952.952 2.8116 -2.25791 0
M  V30 10277 O 952.056 3.76623 -1.68014 0
M  V30 10278 H 951.397 0.465648 -0.473359 0
M  V30 10279 H 953.927 0.921469 -1.82675 0
M  V30 10280 H 953.937 3.30009 -2.39913 0
M  V30 10281 H 952.612 2.55713 -3.27999 0
M  V30 10282 H 951.189 3.35352 -1.63074 0
M  V30 10283 N 953.375 1.23811 0.975125 0
M  V30 10284 C 954.285 1.0408 2.10249 0
M  V30 10285 C 955.301 -0.0162404 1.73992 0
M  V30 10286 O 956.477 0.180346 2.00591 0
M  V30 10287 C 953.542 0.640013 3.40741 0
M  V30 10288 C 952.603 1.7727 3.90991 0
M  V30 10289 C 951.836 1.39094 5.15256 0
M  V30 10290 O 952.059 0.277483 5.69725 0
M  V30 10291 O 950.993 2.21392 5.59704 0
M  V30 10292 H 954.819 1.98575 2.29786 0
M  V30 10293 H 952.404 1.02563 1.08633 0
M  V30 10294 H 954.286 0.427684 4.19224 0
M  V30 10295 H 952.961 -0.27589 3.22522 0
M  V30 10296 H 951.868 2.03971 3.13602 0
M  V30 10297 H 953.201 2.66711 4.13674 0
M  V30 10298 N 954.853 -1.17469 1.05066 0
M  V30 10299 C 956.081 -1.9162 0.780334 0
M  V30 10300 C 956.496 -1.76745 -0.663817 0
M  V30 10301 O 955.853 -1.10377 -1.45338 0
M  V30 10302 C 955.904 -3.42723 1.14992 0
M  V30 10303 O 955.625 -3.57139 2.53739 0
M  V30 10304 C 957.126 -4.33952 0.905549 0
M  V30 10305 H 954.346 -0.608022 0.283814 0
M  V30 10306 H 956.89 -1.4897 1.401 0
M  V30 10307 H 955.045 -3.83124 0.57403 0
M  V30 10308 H 955.459 -4.5075 2.68189 0
M  V30 10309 H 956.933 -5.38487 1.21391 0
M  V30 10310 H 957.41 -4.38911 -0.159295 0
M  V30 10311 H 958.016 -3.99263 1.46522 0
M  V30 10312 N 956.331 -0.831506 -1.3388 0
M  V30 10313 C 957.261 -0.274378 -2.31882 0
M  V30 10314 C 958.242 0.613872 -1.58637 0
M  V30 10315 O 959.427 0.538961 -1.86571 0
M  V30 10316 C 956.557 0.557498 -3.42796 0
M  V30 10317 C 955.511 -0.234337 -4.27358 0
M  V30 10318 C 954.837 0.720825 -5.29819 0
M  V30 10319 C 956.137 -1.44732 -5.01847 0
M  V30 10320 H 957.831 -1.09322 -2.78728 0
M  V30 10321 H 955.377 -0.527136 -1.34005 0
M  V30 10322 H 957.33 0.957501 -4.10378 0
M  V30 10323 H 956.054 1.40947 -2.94621 0
M  V30 10324 H 954.713 -0.61581 -3.61391 0
M  V30 10325 H 954.361 1.569 -4.77903 0
M  V30 10326 H 954.061 0.195171 -5.87276 0
M  V30 10327 H 955.585 1.1185 -6.00268 0
M  V30 10328 H 956.999 -1.12087 -5.62236 0
M  V30 10329 H 955.396 -1.90923 -5.68919 0
M  V30 10330 H 956.466 -2.22099 -4.31045 0
M  V30 10331 N 957.809 1.4625 -0.587256 0
M  V30 10332 C 958.756 2.30354 0.143384 0
M  V30 10333 C 959.726 1.40891 0.879716 0
M  V30 10334 O 960.911 1.69837 0.869486 0
M  V30 10335 C 958.051 3.25441 1.14815 0
M  V30 10336 C 957.164 4.30004 0.414792 0
M  V30 10337 C 956.299 5.12214 1.40748 0
M  V30 10338 C 955.338 6.08523 0.660786 0
M  V30 10339 N 954.475 6.83585 1.60176 0
M  V30 10340 H 959.315 2.92304 -0.579866 0
M  V30 10341 H 956.852 1.44055 -0.29777 0
M  V30 10342 H 958.81 3.79018 1.7436 0
M  V30 10343 H 957.44 2.6529 1.83906 0
M  V30 10344 H 956.492 3.79248 -0.295787 0
M  V30 10345 H 957.804 4.98515 -0.168738 0
M  V30 10346 H 956.958 5.70091 2.0756 0
M  V30 10347 H 955.697 4.43675 2.02494 0
M  V30 10348 H 954.702 5.49796 -0.0210864 0
M  V30 10349 H 955.927 6.79083 0.0486551 0
M  V30 10350 H 953.873 6.17752 2.20724 0
M  V30 10351 H 953.79 7.48373 1.07115 0
M  V30 10352 H 955.058 7.46016 2.26009 0
M  V30 10353 N 959.287 0.325282 1.54207 0
M  V30 10354 C 960.698 -0.162426 1.85992 0
M  V30 10355 C 961.049 -1.51482 1.2469 0
M  V30 10356 O 960.174 -2.092 0.553578 0
M  V30 10357 C 960.769 -0.3015 3.37456 0
M  V30 10358 C 959.328 -0.73343 3.69185 0
M  V30 10359 C 958.475 0.143831 2.76927 0
M  V30 10360 H 961.426 0.545508 1.4903 0
M  V30 10361 H 961.447 -1.13212 3.63268 0
M  V30 10362 H 960.959 0.682942 3.82044 0
M  V30 10363 H 959.06 -1.72755 3.30131 0
M  V30 10364 H 959.173 -0.535987 4.76092 0
M  V30 10365 H 957.537 -0.380892 2.51836 0
M  V30 10366 H 958.32 1.12507 3.24341 0
M  V30 10367 N 960.765 -1.57509 0.0534917 0
M  V30 10368 C 962.042 -1.84137 -0.659767 0
M  V30 10369 C 962.422 -0.942362 -1.88899 0
M  V30 10370 O 961.77 -0.00398566 -2.285 0
M  V30 10371 C 961.98 -3.33919 -1.01486 0
M  V30 10372 C 963.328 -4.00989 -1.39616 0
M  V30 10373 O 964.352 -3.38557 -1.10713 0
M  V30 10374 O 963.211 -5.11071 -1.93567 0
M  V30 10375 H 960.305 -0.760081 -0.325893 0
M  V30 10376 H 962.851 -1.69497 0.0830315 0
M  V30 10377 H 961.623 -3.91046 -0.141041 0
M  V30 10378 H 961.246 -3.53755 -1.81503 0
M  V30 10379 N 962.243 0.219913 -1.56058 0
M  V30 10380 C 963.191 1.29215 -1.93407 0
M  V30 10381 C 964.185 1.48434 -0.816307 0
M  V30 10382 O 965.391 1.49589 -1.00115 0
M  V30 10383 H 961.766 0.433256 -0.614649 0
M  V30 10384 H 963.737 0.949977 -2.82875 0
M  V30 10385 C 962.486 2.63501 -2.26854 0
M  V30 10386 H 961.809 2.4952 -3.12377 0
M  V30 10387 H 963.249 3.37334 -2.56869 0
M  V30 10388 C 961.708 3.18634 -1.09425 0
M  V30 10389 O 962.238 4.00117 -0.356243 0
M  V30 10390 N 960.444 2.7703 -0.877642 0
M  V30 10391 H 959.991 2.10875 -1.47951 0
M  V30 10392 H 959.949 3.1426 -0.0936792 0
M  V30 10393 N 963.721 1.49897 0.486681 0
M  V30 10394 C 964.968 1.60105 1.23986 0
M  V30 10395 C 965.296 0.294228 1.92262 0
M  V30 10396 O 964.551 -0.718876 1.82018 0
M  V30 10397 C 964.85 2.71982 2.31863 0
M  V30 10398 C 964.516 4.13 1.80948 0
M  V30 10399 C 963.178 4.51373 1.66782 0
M  V30 10400 C 965.53 5.01198 1.43004 0
M  V30 10401 C 962.858 5.75701 1.13072 0
M  V30 10402 C 965.21 6.26058 0.90742 0
M  V30 10403 C 963.874 6.63247 0.752269 0
M  V30 10404 H 963.144 0.585866 0.453698 0
M  V30 10405 H 965.791 1.83778 0.538305 0
M  V30 10406 H 964.096 2.42336 3.07865 0
M  V30 10407 H 965.793 2.77087 2.89869 0
M  V30 10408 H 962.383 3.82718 1.92937 0
M  V30 10409 H 966.567 4.72196 1.52789 0
M  V30 10410 H 961.823 6.03202 0.997842 0
M  V30 10411 H 965.997 6.9377 0.604684 0
M  V30 10412 H 963.624 7.59466 0.33392 0
M  V30 10413 N 965.199 -0.738761 1.39212 0
M  V30 10414 C 966.109 -1.88324 1.39897 0
M  V30 10415 C 967.125 -1.71494 0.294229 0
M  V30 10416 O 968.301 -1.94162 0.535087 0
M  V30 10417 C 965.366 -3.23871 1.23726 0
M  V30 10418 C 964.427 -3.53121 2.44139 0
M  V30 10419 C 963.66 -4.82202 2.2873 0
M  V30 10420 O 963.883 -5.55649 1.28879 0
M  V30 10421 O 962.817 -5.11265 3.17634 0
M  V30 10422 H 966.643 -1.90701 2.36362 0
M  V30 10423 H 964.228 -0.886067 1.20288 0
M  V30 10424 H 966.11 -4.04882 1.16826 0
M  V30 10425 H 964.785 -3.22274 0.303551 0
M  V30 10426 H 963.692 -2.72212 2.56615 0
M  V30 10427 H 965.025 -3.59495 3.36191 0
M  V30 10428 N 966.677 -1.24326 -0.968545 0
M  V30 10429 C 967.587 -1.05194 -2.09694 0
M  V30 10430 C 968.603 0.00701291 -1.73999 0
M  V30 10431 O 969.779 -0.190981 -2.00492 0
M  V30 10432 C 966.844 -0.658075 -3.40397 0
M  V30 10433 C 965.905 -1.79341 -3.90045 0
M  V30 10434 C 965.138 -1.41824 -5.14511 0
M  V30 10435 O 965.361 -0.307693 -5.69569 0
M  V30 10436 O 964.295 -2.24358 -5.58522 0
M  V30 10437 H 968.121 -1.99791 -2.2873 0
M  V30 10438 H 965.706 -1.03138 -1.08088 0
M  V30 10439 H 967.588 -0.449911 -4.18991 0
M  V30 10440 H 966.263 0.258782 -3.22664 0
M  V30 10441 H 965.17 -2.05632 -3.12516 0
M  V30 10442 H 966.503 -2.68901 -4.12254 0
M  V30 10443 N 968.156 1.1691 -1.05688 0
M  V30 10444 C 969.381 1.91745 -0.790478 0
M  V30 10445 C 969.806 1.76568 0.648478 0
M  V30 10446 O 969.164 1.08682 1.45114 0
M  V30 10447 C 969.212 3.4067 -1.18222 0
M  V30 10448 O 968.316 4.11177 -0.317341 0
M  V30 10449 H 967.657 0.5976 -0.28943 0
M  V30 10450 H 970.187 1.48157 -1.41105 0
M  V30 10451 H 970.197 3.91424 -1.15114 0
M  V30 10452 H 968.872 3.51036 -2.2304 0
M  V30 10453 H 967.449 3.70645 -0.409459 0
M  V30 10454 N 969.634 0.838594 1.33437 0
M  V30 10455 C 970.882 0.433312 1.974 0
M  V30 10456 C 971.203 -1.01078 1.66758 0
M  V30 10457 O 970.473 -1.70406 0.966373 0
M  V30 10458 H 969.053 0.15724 0.730263 0
M  V30 10459 H 971.715 1.07149 1.62804 0
M  V30 10460 H 970.811 0.565144 3.06941 0
M  V30 10461 N 971.112 -1.45937 0.595003 0
M  V30 10462 C 972.342 -2.06399 0.0911607 0
M  V30 10463 C 972.75 -1.44236 -1.22444 0
M  V30 10464 O 972.093 -0.546265 -1.7539 0
M  V30 10465 C 972.155 -3.59242 -0.136079 0
M  V30 10466 C 971.819 -4.43668 1.09579 0
M  V30 10467 C 972.816 -4.79437 2.01088 0
M  V30 10468 C 970.501 -4.84616 1.32109 0
M  V30 10469 C 972.495 -5.54995 3.13464 0
M  V30 10470 C 970.182 -5.5993 2.44788 0
M  V30 10471 C 971.18 -5.95035 3.35294 0
M  V30 10472 O 970.868 -6.68825 4.46014 0
M  V30 10473 H 970.6 -0.673316 0.0601779 0
M  V30 10474 H 973.154 -1.88365 0.819005 0
M  V30 10475 H 971.384 -3.75629 -0.918676 0
M  V30 10476 H 973.073 -4.0159 -0.589954 0
M  V30 10477 H 973.839 -4.48371 1.84902 0
M  V30 10478 H 969.718 -4.56735 0.625662 0
M  V30 10479 H 973.262 -5.82314 3.84131 0
M  V30 10480 H 969.159 -5.90411 2.60931 0
M  V30 10481 H 969.927 -6.87262 4.44537 0
M  V30 10482 N 972.59 -0.333456 -1.54032 0
M  V30 10483 C 973.818 0.267813 -2.05159 0
M  V30 10484 C 974.233 1.4501 -1.20903 0
M  V30 10485 O 973.59 1.80888 -0.241994 0
M  V30 10486 C 973.641 0.69268 -3.54802 0
M  V30 10487 O 973.362 -0.442579 -4.35859 0
M  V30 10488 C 974.863 1.35572 -4.2206 0
M  V30 10489 H 972.083 0.0534924 -0.668864 0
M  V30 10490 H 974.627 -0.482515 -1.98726 0
M  V30 10491 H 972.782 1.39297 -3.6149 0
M  V30 10492 H 973.196 -0.105915 -5.24393 0
M  V30 10493 H 974.67 1.60385 -5.28186 0
M  V30 10494 H 975.147 2.30614 -3.73783 0
M  V30 10495 H 975.753 0.697748 -4.19537 0
M  V30 10496 N 974.068 1.57479 -0.061844 0
M  V30 10497 C 975.315 1.93108 0.60954 0
M  V30 10498 C 975.643 0.941086 1.70217 0
M  V30 10499 O 974.898 -0.044914 1.95648 0
M  V30 10500 C 975.197 3.35394 1.23474 0
M  V30 10501 C 974.863 4.50095 0.269247 0
M  V30 10502 C 973.525 4.812 0.00360316 0
M  V30 10503 C 975.877 5.19725 -0.391839 0
M  V30 10504 C 973.205 5.79276 -0.930383 0
M  V30 10505 C 975.557 6.18801 -1.31408 0
M  V30 10506 C 974.221 6.48328 -1.58829 0
M  V30 10507 H 973.491 0.706634 0.223046 0
M  V30 10508 H 976.138 1.91054 -0.1306 0
M  V30 10509 H 974.443 3.33866 2.05039 0
M  V30 10510 H 976.14 3.60247 1.76134 0
M  V30 10511 H 972.73 4.2583 0.486477 0
M  V30 10512 H 976.914 4.95898 -0.199713 0
M  V30 10513 H 972.17 6.00484 -1.15019 0
M  V30 10514 H 976.344 6.71862 -1.83234 0
M  V30 10515 H 973.971 7.24137 -2.31363 0
M  V30 10516 N 975.546 -0.211634 1.56173 0
M  V30 10517 C 976.795 -0.932647 1.78842 0
M  V30 10518 C 977.108 -1.85103 0.63217 0
M  V30 10519 O 978.314 -2.61143 0.742746 0
M  V30 10520 C 976.77 -1.70866 3.16753 0
M  V30 10521 C 976.378 -0.835934 4.40132 0
M  V30 10522 C 978.122 -2.4203 3.48743 0
M  V30 10523 C 976.029 -1.60987 5.69067 0
M  V30 10524 H 974.959 -0.351983 0.666801 0
M  V30 10525 H 977.61 -0.186284 1.82552 0
M  V30 10526 H 975.992 -2.4983 3.07247 0
M  V30 10527 H 977.166 -0.0861298 4.60719 0
M  V30 10528 H 975.481 -0.235941 4.15731 0
M  V30 10529 H 978.078 -3.00453 4.42303 0
M  V30 10530 H 978.421 -3.15406 2.71707 0
M  V30 10531 H 978.954 -1.70048 3.59623 0
M  V30 10532 H 975.693 -0.9192 6.49023 0
M  V30 10533 H 975.213 -2.33403 5.52524 0
M  V30 10534 H 976.892 -2.16798 6.09596 0
M  V30 10535 N 977.024 -1.50153 -0.478725 0
M  V30 10536 C 977.987 -1.67916 -1.56003 0
M  V30 10537 C 978.987 -0.550111 -1.51097 0
M  V30 10538 O 980.177 -0.817001 -1.53853 0
M  V30 10539 C 977.309 -1.6973 -2.95643 0
M  V30 10540 H 978.502 -2.6438 -1.41573 0
M  V30 10541 H 976.055 -1.39519 -0.704565 0
M  V30 10542 H 976.79 -0.749306 -3.15525 0
M  V30 10543 H 976.575 -2.51745 -3.00611 0
M  V30 10544 H 978.065 -1.85453 -3.74162 0
M  V30 10545 N 978.502 0.731368 -1.39602 0
M  V30 10546 C 979.913 1.30981 -1.33045 0
M  V30 10547 C 980.264 1.962 0.00349918 0
M  V30 10548 O 979.389 1.96539 0.905615 0
M  V30 10549 C 979.984 2.3817 -2.40958 0
M  V30 10550 C 978.543 2.91678 -2.3791 0
M  V30 10551 C 977.69 1.65286 -2.22656 0
M  V30 10552 H 980.641 0.528615 -1.49637 0
M  V30 10553 H 980.662 3.18645 -2.07955 0
M  V30 10554 H 980.174 1.90673 -3.38032 0
M  V30 10555 H 978.275 3.43446 -1.44485 0
M  V30 10556 H 978.388 3.44545 -3.32904 0
M  V30 10557 H 976.752 1.89759 -1.69893 0
M  V30 10558 H 977.535 1.19836 -3.21705 0
M  V30 10559 N 979.98 1.24838 0.961938 0
M  V30 10560 C 981.396 1.01502 1.23165 0
M  V30 10561 C 981.596 -0.272651 1.99647 0
M  V30 10562 O 980.652 -0.987297 2.32398 0
M  V30 10563 C 981.965 2.23366 2.01316 0
M  V30 10564 C 983.513 2.28051 2.14387 0
M  V30 10565 C 983.988 3.49552 2.95935 0
M  V30 10566 N 985.479 3.49904 3.03515 0
M  V30 10567 C 986.214 4.40577 3.66987 0
M  V30 10568 N 985.71 5.41512 4.3213 0
M  V30 10569 N 987.503 4.28275 3.64056 0
M  V30 10570 H 979.654 2.07576 0.450086 0
M  V30 10571 H 981.917 0.911205 0.261551 0
M  V30 10572 H 981.623 3.16913 1.5251 0
M  V30 10573 H 981.497 2.25949 3.02038 0
M  V30 10574 H 983.884 1.35032 2.62393 0
M  V30 10575 H 983.965 2.29491 1.12994 0
M  V30 10576 H 983.609 4.42889 2.4862 0
M  V30 10577 H 983.539 3.45357 3.97538 0
M  V30 10578 H 986.03 2.76885 2.57183 0
M  V30 10579 H 986.343 6.06924 4.78396 0
M  V30 10580 H 984.688 5.45393 4.3078 0
M  V30 10581 H 987.879 3.48653 3.12344 0
M  V30 10582 H 988.052 4.99138 4.13237 0
M  V30 10583 N 981.458 -1.16348 1.06306 0
M  V30 10584 C 982.735 -1.829 0.69331 0
M  V30 10585 C 983.115 -1.94298 -0.82531 0
M  V30 10586 O 982.463 -1.48619 -1.73565 0
M  V30 10587 C 982.673 -3.1989 1.3954 0
M  V30 10588 C 984.021 -3.95662 1.54068 0
M  V30 10589 O 985.045 -3.29408 1.35532 0
M  V30 10590 O 983.904 -5.14422 1.84479 0
M  V30 10591 H 980.998 -0.789738 0.245445 0
M  V30 10592 H 983.544 -1.23549 1.16334 0
M  V30 10593 H 982.316 -3.06629 2.43093 0
M  V30 10594 H 981.939 -3.86918 0.915453 0
M  V30 10595 N 982.937 -0.845659 -1.3299 0
M  V30 10596 C 984.167 -0.457686 -2.01467 0
M  V30 10597 C 984.575 0.947664 -1.63756 0
M  V30 10598 O 983.918 1.62841 -0.850213 0
M  V30 10599 C 983.98 -0.506589 -3.55913 0
M  V30 10600 C 983.644 -1.86924 -4.17023 0
M  V30 10601 C 984.641 -2.83344 -4.35904 0
M  V30 10602 C 982.326 -2.16394 -4.53298 0
M  V30 10603 C 984.32 -4.07391 -4.90216 0
M  V30 10604 C 982.007 -3.40695 -5.07316 0
M  V30 10605 C 983.005 -4.3601 -5.25722 0
M  V30 10606 O 982.693 -5.58112 -5.7859 0
M  V30 10607 H 982.425 -0.179258 -0.651799 0
M  V30 10608 H 984.979 -1.14172 -1.70745 0
M  V30 10609 H 983.209 0.234253 -3.8599 0
M  V30 10610 H 984.898 -0.135487 -4.05674 0
M  V30 10611 H 985.664 -2.61879 -4.08221 0
M  V30 10612 H 981.543 -1.42994 -4.38262 0
M  V30 10613 H 985.087 -4.81796 -5.04498 0
M  V30 10614 H 980.984 -3.62014 -5.3443 0
M  V30 10615 H 981.752 -5.59946 -5.96995 0
M  V30 10616 N 984.415 1.45619 -0.602734 0
M  V30 10617 C 985.655 2.0416 -0.0989764 0
M  V30 10618 C 986.019 1.4616 1.24504 0
M  V30 10619 O 987.22 1.96025 1.83923 0
M  V30 10620 C 985.491 3.57357 -0.0551869 0
M  V30 10621 S 987.05 4.3708 0.388086 0
M  V30 10622 H 983.868 0.709431 -0.0472054 0
M  V30 10623 H 986.47 1.78394 -0.799745 0
M  V30 10624 H 985.174 3.97083 -1.03697 0
M  V30 10625 H 984.705 3.87692 0.667727 0
M  V30 10626 H 986.72 4.68362 1.63865 0
M  V30 10627 N 985.893 0.34162 1.53853 0
M  V30 10628 C 986.841 -0.531412 2.26448 0
M  V30 10629 C 987.835 -1.10357 1.28521 0
M  V30 10630 O 989.041 -1.04953 1.46236 0
M  V30 10631 H 985.416 -0.190054 0.727588 0
M  V30 10632 H 987.387 0.102922 2.98222 0
M  V30 10633 C 986.136 -1.67154 3.04885 0
M  V30 10634 H 985.459 -1.24055 3.80066 0
M  V30 10635 H 986.899 -2.25762 3.58898 0
M  V30 10636 C 985.358 -2.59984 2.14266 0
M  V30 10637 O 985.888 -3.62181 1.73746 0
M  V30 10638 N 984.094 -2.28625 1.79385 0
M  V30 10639 H 983.641 -1.45559 2.12533 0
M  V30 10640 H 983.599 -2.90995 1.19035 0
M  V30 10641 N 987.371 -1.57444 0.0701946 0
M  V30 10642 C 988.648 -1.84826 -0.6402 0
M  V30 10643 C 989.028 -0.962344 -1.87889 0
M  V30 10644 O 988.376 -0.0282209 -2.28483 0
M  V30 10645 C 988.586 -3.34976 -0.979382 0
M  V30 10646 C 989.934 -4.02448 -1.35355 0
M  V30 10647 O 990.958 -3.39713 -1.07116 0
M  V30 10648 O 989.817 -5.13096 -1.88136 0
M  V30 10649 H 986.911 -0.763494 -0.317813 0
M  V30 10650 H 989.457 -1.69399 0.101004 0
M  V30 10651 H 988.229 -3.91173 -0.0995576 0
M  V30 10652 H 987.852 -3.5566 -1.7774 0
M  V30 10653 N 988.849 0.203349 -1.56283 0
M  V30 10654 C 989.779 1.2549 -1.96912 0
M  V30 10655 C 990.76 1.47919 -0.839884 0
M  V30 10656 O 991.945 1.59795 -1.10359 0
M  V30 10657 C 989.075 2.6009 -2.30153 0
M  V30 10658 C 988.029 2.52289 -3.45738 0
M  V30 10659 C 987.355 3.91086 -3.64632 0
M  V30 10660 C 988.655 2.05503 -4.80173 0
M  V30 10661 H 990.349 0.917306 -2.85002 0
M  V30 10662 H 987.895 0.439818 -1.37119 0
M  V30 10663 H 989.848 3.33829 -2.5717 0
M  V30 10664 H 988.572 2.95574 -1.38937 0
M  V30 10665 H 987.231 1.81006 -3.18798 0
M  V30 10666 H 986.879 4.23908 -2.7076 0
M  V30 10667 H 986.579 3.86742 -4.42385 0
M  V30 10668 H 988.103 4.66459 -3.94016 0
M  V30 10669 H 989.517 2.68995 -5.06275 0
M  V30 10670 H 987.914 2.1218 -5.61337 0
M  V30 10671 H 988.984 1.00793 -4.74309 0
M  V30 10672 N 990.327 1.50405 0.470755 0
M  V30 10673 C 991.274 1.69293 1.56871 0
M  V30 10674 C 992.244 0.534248 1.57274 0
M  V30 10675 O 993.429 0.764855 1.74799 0
M  V30 10676 C 990.569 1.79338 2.94842 0
M  V30 10677 C 989.682 3.06709 3.04226 0
M  V30 10678 C 988.817 3.07548 4.33114 0
M  V30 10679 C 987.856 4.29372 4.36241 0
M  V30 10680 N 986.993 4.27949 5.56601 0
M  V30 10681 H 991.833 2.63029 1.40071 0
M  V30 10682 H 989.37 1.30386 0.681016 0
M  V30 10683 H 991.328 1.83143 3.74853 0
M  V30 10684 H 989.958 0.890411 3.10277 0
M  V30 10685 H 989.01 3.12374 2.17086 0
M  V30 10686 H 990.322 3.96684 3.02396 0
M  V30 10687 H 989.476 3.10084 5.21472 0
M  V30 10688 H 988.215 2.15404 4.37553 0
M  V30 10689 H 987.22 4.27048 3.4628 0
M  V30 10690 H 988.445 5.22743 4.33493 0
M  V30 10691 H 986.391 3.38658 5.61824 0
M  V30 10692 H 986.308 5.11692 5.56513 0
M  V30 10693 H 987.576 4.34631 6.47083 0
M  V30 10694 N 991.805 -0.723954 1.39988 0
M  V30 10695 C 993.054 -1.47922 1.3712 0
M  V30 10696 C 993.367 -1.95582 -0.0263665 0
M  V30 10697 O 994.573 -2.70918 -0.177652 0
M  V30 10698 C 993.029 -2.67342 2.40949 0
M  V30 10699 C 992.637 -2.26586 3.86475 0
M  V30 10700 C 994.381 -3.45116 2.47174 0
M  V30 10701 C 992.288 -3.42794 4.81919 0
M  V30 10702 H 991.218 -0.555522 0.509815 0
M  V30 10703 H 993.869 -0.788692 1.65686 0
M  V30 10704 H 992.251 -3.38524 2.0547 0
M  V30 10705 H 993.425 -1.62878 4.31054 0
M  V30 10706 H 991.74 -1.61876 3.83647 0
M  V30 10707 H 994.337 -4.31573 3.15672 0
M  V30 10708 H 994.68 -3.8835 1.49966 0
M  V30 10709 H 995.213 -2.80971 2.81602 0
M  V30 10710 H 991.952 -3.046 5.8043 0
M  V30 10711 H 991.472 -4.05445 4.42012 0
M  V30 10712 H 993.151 -4.08977 5.01345 0
M  V30 10713 N 993.283 -1.25346 -0.955304 0
M  V30 10714 C 994.508 -1.12892 -1.73983 0
M  V30 10715 C 994.933 0.313455 -1.8547 0
M  V30 10716 O 994.291 1.22706 -1.33465 0
M  V30 10717 C 994.339 -1.78729 -3.1319 0
M  V30 10718 O 993.443 -1.06648 -3.98372 0
M  V30 10719 H 992.784 -0.394178 -0.534341 0
M  V30 10720 H 995.314 -1.65897 -1.19747 0
M  V30 10721 H 995.324 -1.84987 -3.63653 0
M  V30 10722 H 993.999 -2.83669 -3.04146 0
M  V30 10723 H 992.576 -1.08266 -3.56837 0
M  V30 10724 N 994.761 1.15782 -1.06922 0
M  V30 10725 C 996.038 1.8253 -0.703 0
M  V30 10726 C 996.418 1.94733 0.814994 0
M  V30 10727 O 995.766 1.49537 1.72774 0
M  V30 10728 C 995.976 3.19145 -1.41234 0
M  V30 10729 C 997.324 3.94839 -1.56164 0
M  V30 10730 O 998.348 3.28685 -1.37277 0
M  V30 10731 O 997.207 5.13436 -1.87205 0
M  V30 10732 H 994.301 0.788425 -0.24963 0
M  V30 10733 H 996.847 1.22931 -1.16988 0
M  V30 10734 H 995.619 3.05336 -2.44715 0
M  V30 10735 H 995.242 3.86427 -0.935959 0
M  V30 10736 N 996.239 0.8527 1.3254 0
M  V30 10737 C 997.187 0.284659 2.30852 0
M  V30 10738 C 998.181 -0.5909 1.5876 0
M  V30 10739 O 999.387 -0.478922 1.73512 0
M  V30 10740 H 995.762 0.0733452 0.748415 0
M  V30 10741 H 997.733 1.1281 2.76254 0
M  V30 10742 C 996.482 -0.51379 3.43883 0
M  V30 10743 H 995.805 0.150644 3.99516 0
M  V30 10744 H 997.245 -0.876866 4.14834 0
M  V30 10745 C 995.704 -1.69823 2.90967 0
M  V30 10746 O 996.234 -2.79727 2.88298 0
M  V30 10747 N 994.44 -1.52465 2.47392 0
M  V30 10748 H 993.987 -0.630599 2.49762 0
M  V30 10749 H 993.945 -2.31859 2.12341 0
M  V30 10750 N 997.718 -1.45297 0.610449 0
M  V30 10751 C 998.666 -2.32295 -0.119167 0
M  V30 10752 C 999.66 -1.46138 -0.856746 0
M  V30 10753 O 1000.87 -1.62605 -0.771988 0
M  V30 10754 H 997.241 -0.749815 -0.0572881 0
M  V30 10755 H 999.212 -2.91609 0.63297 0
M  V30 10756 C 997.961 -3.29802 -1.10119 0
M  V30 10757 H 997.284 -3.96095 -0.543063 0
M  V30 10758 H 998.724 -3.93398 -1.58158 0
M  V30 10759 C 997.183 -2.57185 -2.17617 0
M  V30 10760 O 997.713 -2.35535 -3.25401 0
M  V30 10761 N 995.919 -2.17272 -1.9298 0
M  V30 10762 H 995.466 -2.3508 -1.05334 0
M  V30 10763 H 995.424 -1.69009 -2.6511 0
M  V30 10764 N 999.196 -0.349774 -1.5367 0
M  V30 10765 C 1000.42 0.246038 -2.05432 0
M  V30 10766 C 1000.84 1.43719 -1.22435 0
M  V30 10767 O 1000.2 1.80622 -0.261166 0
M  V30 10768 C 1000.25 0.65501 -3.55516 0
M  V30 10769 O 999.968 -0.488782 -4.35365 0
M  V30 10770 C 1001.47 1.31088 -4.23475 0
M  V30 10771 H 998.689 0.0463952 -0.669394 0
M  V30 10772 H 1001.23 -0.503566 -1.98203 0
M  V30 10773 H 999.388 1.35455 -3.62947 0
M  V30 10774 H 999.802 -0.161528 -5.24251 0
M  V30 10775 H 1001.28 1.54774 -5.29857 0
M  V30 10776 H 1001.75 2.26636 -3.76208 0
M  V30 10777 H 1002.36 0.653211 -4.20254 0
M  V30 10778 N 1000.67 1.57404 -0.0785433 0
M  V30 10779 C 1001.58 2.16612 0.900902 0
M  V30 10780 C 1002.6 1.13109 1.32221 0
M  V30 10781 O 1003.78 1.45406 1.39352 0
M  V30 10782 C 1000.84 2.7215 2.14791 0
M  V30 10783 C 999.902 3.90551 1.78237 0
M  V30 10784 C 999.135 4.43431 2.96993 0
M  V30 10785 O 999.358 3.95292 4.11218 0
M  V30 10786 O 998.292 5.34674 2.76418 0
M  V30 10787 H 1002.12 3.0068 0.427227 0
M  V30 10788 H 999.703 1.48696 0.144902 0
M  V30 10789 H 1001.58 3.07718 2.87902 0
M  V30 10790 H 1000.26 1.91139 2.61243 0
M  V30 10791 H 999.167 3.59825 1.02357 0
M  V30 10792 H 1000.5 4.72876 1.36562 0
M  V30 10793 N 1002.15 -0.195058 1.56388 0
M  V30 10794 C 1003.4 -0.915444 1.80626 0
M  V30 10795 C 1003.73 -1.83255 0.651768 0
M  V30 10796 O 1002.98 -1.92314 -0.362464 0
M  V30 10797 C 1003.28 -1.7637 3.10851 0
M  V30 10798 C 1002.95 -0.997572 4.39726 0
M  V30 10799 C 1001.61 -0.786043 4.74737 0
M  V30 10800 C 1003.96 -0.45851 5.19179 0
M  V30 10801 C 1001.29 -0.023972 5.86695 0
M  V30 10802 C 1003.64 0.29035 6.31933 0
M  V30 10803 C 1002.3 0.512895 6.65527 0
M  V30 10804 H 1001.57 -0.334985 0.660959 0
M  V30 10805 H 1004.22 -0.181815 1.90635 0
M  V30 10806 H 1002.53 -2.566 2.9608 0
M  V30 10807 H 1004.22 -2.3237 3.26811 0
M  V30 10808 H 1000.81 -1.17245 4.12252 0
M  V30 10809 H 1005 -0.609334 4.92545 0
M  V30 10810 H 1000.25 0.158421 6.11195 0
M  V30 10811 H 1004.43 0.715429 6.92715 0
M  V30 10812 H 1002.05 1.10531 7.52122 0
M  V30 10813 N 1003.63 -1.50653 -0.462772 0
M  V30 10814 C 1004.56 -1.73056 -1.5676 0
M  V30 10815 C 1005.54 -0.579699 -1.59917 0
M  V30 10816 O 1006.73 -0.819729 -1.76051 0
M  V30 10817 C 1003.86 -1.83234 -2.9503 0
M  V30 10818 C 1002.81 -2.98488 -3.06739 0
M  V30 10819 C 1002.14 -2.93818 -4.46738 0
M  V30 10820 C 1003.44 -4.38869 -2.83181 0
M  V30 10821 H 1005.13 -2.65562 -1.38265 0
M  V30 10822 H 1002.68 -1.27792 -0.663722 0
M  V30 10823 H 1004.63 -1.97491 -3.72257 0
M  V30 10824 H 1003.35 -0.873558 -3.14701 0
M  V30 10825 H 1002.01 -2.83895 -2.31946 0
M  V30 10826 H 1001.66 -1.95769 -4.63339 0
M  V30 10827 H 1001.36 -3.71197 -4.55507 0
M  V30 10828 H 1002.88 -3.10135 -5.25974 0
M  V30 10829 H 1004.3 -4.53945 -3.50153 0
M  V30 10830 H 1002.69 -5.17762 -3.03386 0
M  V30 10831 H 1003.76 -4.50663 -1.78972 0
M  V30 10832 N 1005.11 0.71652 -1.4037 0
M  V30 10833 C 1006.04 1.84345 -1.43315 0
M  V30 10834 C 1007.02 1.67537 -0.294186 0
M  V30 10835 O 1008.2 1.87582 -0.502671 0
M  V30 10836 C 1005.33 3.2229 -1.29408 0
M  V30 10837 C 1004.29 3.53769 -2.40897 0
M  V30 10838 C 1003.61 4.90847 -2.12068 0
M  V30 10839 C 1004.91 3.54862 -3.83237 0
M  V30 10840 H 1006.61 1.82138 -2.37626 0
M  V30 10841 H 1004.15 0.874873 -1.14376 0
M  V30 10842 H 1006.11 4.00819 -1.30085 0
M  V30 10843 H 1004.83 3.2507 -0.31573 0
M  V30 10844 H 1003.49 2.77579 -2.39469 0
M  V30 10845 H 1003.14 4.90229 -1.12626 0
M  V30 10846 H 1002.84 5.12875 -2.86762 0
M  V30 10847 H 1004.36 5.71711 -2.14426 0
M  V30 10848 H 1005.78 4.23432 -3.86494 0
M  V30 10849 H 1004.17 3.88416 -4.57442 0
M  V30 10850 H 1005.24 2.54266 -4.12888 0
M  V30 10851 N 1006.59 1.25851 0.948643 0
M  V30 10852 C 1007.53 1.06559 2.06756 0
M  V30 10853 C 1008.53 -0.00528632 1.69399 0
M  V30 10854 O 1009.73 0.150806 1.79367 0
M  V30 10855 H 1006.11 0.327689 0.676848 0
M  V30 10856 H 1008.08 2.01401 2.20182 0
M  V30 10857 C 1006.83 0.707392 3.40428 0
M  V30 10858 H 1006.15 1.52324 3.69645 0
M  V30 10859 H 1007.59 0.612142 4.19558 0
M  V30 10860 C 1006.05 -0.58697 3.31747 0
M  V30 10861 O 1006.58 -1.62741 3.67258 0
M  V30 10862 N 1004.79 -0.574828 2.84858 0
M  V30 10863 H 1004.33 0.272236 2.56157 0
M  V30 10864 H 1004.29 -1.441 2.79432 0
M  V30 10865 N 1008.06 -1.15214 1.07534 0
M  V30 10866 C 1009.31 -1.86043 0.799629 0
M  V30 10867 C 1009.64 -1.82435 -0.674356 0
M  V30 10868 O 1008.89 -1.24379 -1.51091 0
M  V30 10869 C 1009.19 -3.34623 1.25547 0
M  V30 10870 C 1008.86 -3.58425 2.73573 0
M  V30 10871 C 1007.52 -3.6463 3.14004 0
M  V30 10872 C 1009.87 -3.67977 3.6911 0
M  V30 10873 C 1007.2 -3.779 4.48786 0
M  V30 10874 C 1009.55 -3.82771 5.03656 0
M  V30 10875 C 1008.22 -3.87222 5.43705 0
M  V30 10876 H 1007.49 -0.680781 0.292605 0
M  V30 10877 H 1010.13 -1.36149 1.34669 0
M  V30 10878 H 1008.44 -3.86737 0.627828 0
M  V30 10879 H 1010.14 -3.87836 1.01901 0
M  V30 10880 H 1006.73 -3.54238 2.41275 0
M  V30 10881 H 1010.91 -3.62482 3.39 0
M  V30 10882 H 1006.17 -3.79604 4.79281 0
M  V30 10883 H 1010.34 -3.89104 5.77556 0
M  V30 10884 H 1007.97 -3.97256 6.48145 0
M  V30 10885 N 1009.54 -0.859717 -1.32086 0
M  V30 10886 C 1010.49 -0.296897 -2.30697 0
M  V30 10887 C 1011.48 0.582473 -1.59071 0
M  V30 10888 O 1012.69 0.469713 -1.73763 0
M  V30 10889 H 1009.07 -0.0773132 -0.748015 0
M  V30 10890 H 1011.04 -1.14273 -2.75652 0
M  V30 10891 C 1009.79 0.495546 -3.44151 0
M  V30 10892 H 1009.11 -0.171829 -3.99431 0
M  V30 10893 H 1010.55 0.854854 -4.15293 0
M  V30 10894 C 1009.01 1.68278 -2.91863 0
M  V30 10895 O 1009.54 2.78194 -2.89777 0
M  V30 10896 N 1007.74 1.51151 -2.48197 0
M  V30 10897 H 1007.29 0.617345 -2.50093 0
M  V30 10898 H 1007.25 2.3073 -2.13567 0
M  V30 10899 N 1011.02 1.44971 -0.618145 0
M  V30 10900 C 1011.93 2.34403 0.0960457 0
M  V30 10901 C 1012.95 1.51862 0.849355 0
M  V30 10902 O 1014.12 1.84632 0.804557 0
M  V30 10903 C 1011.19 3.29646 1.07397 0
M  V30 10904 C 1010.25 4.28095 0.321466 0
M  V30 10905 C 1009.48 5.18787 1.25281 0
M  V30 10906 O 1009.7 5.1313 2.49106 0
M  V30 10907 O 1008.64 5.97282 0.744156 0
M  V30 10908 H 1012.46 2.96898 -0.639176 0
M  V30 10909 H 1010.05 1.44529 -0.37837 0
M  V30 10910 H 1011.93 3.88307 1.63694 0
M  V30 10911 H 1010.61 2.69702 1.79004 0
M  V30 10912 H 1009.51 3.73019 -0.284223 0
M  V30 10913 H 1010.85 4.90923 -0.354315 0
M  V30 10914 N 1012.5 0.357919 1.53482 0
M  V30 10915 C 1013.75 -0.234163 2.01142 0
M  V30 10916 C 1014.07 -1.49399 1.2454 0
M  V30 10917 O 1013.33 -1.92981 0.325111 0
M  V30 10918 C 1013.63 -0.579617 3.52669 0
M  V30 10919 C 1013.29 0.584988 4.47089 0
M  V30 10920 C 1011.96 0.904558 4.72622 0
M  V30 10921 C 1014.31 1.3656 5.02992 0
M  V30 10922 C 1011.64 2.00685 5.5131 0
M  V30 10923 C 1013.99 2.45824 5.82884 0
M  V30 10924 C 1012.65 2.78325 6.06706 0
M  V30 10925 H 1011.92 -0.0856863 0.736029 0
M  V30 10926 H 1014.57 0.488801 1.85157 0
M  V30 10927 H 1012.87 -1.38349 3.66561 0
M  V30 10928 H 1014.57 -1.04985 3.87013 0
M  V30 10929 H 1011.16 0.32587 4.27359 0
M  V30 10930 H 1015.34 1.13196 4.83219 0
M  V30 10931 H 1010.6 2.26272 5.67988 0
M  V30 10932 H 1014.77 3.06732 6.25211 0
M  V30 10933 H 1012.4 3.63862 6.67464 0
M  V30 10934 N 1013.98 -1.5736 0.0868897 0
M  V30 10935 C 1015.23 -1.93229 -0.578387 0
M  V30 10936 C 1015.54 -0.970127 -1.69847 0
M  V30 10937 O 1016.74 -1.22222 -2.42434 0
M  V30 10938 C 1015.2 -3.43307 -1.0802 0
M  V30 10939 C 1014.81 -4.47999 0.00968135 0
M  V30 10940 C 1016.55 -3.88151 -1.71868 0
M  V30 10941 C 1014.46 -5.89223 -0.507029 0
M  V30 10942 H 1013.39 -0.721245 -0.219823 0
M  V30 10943 H 1016.04 -1.82787 0.161566 0
M  V30 10944 H 1014.42 -3.48873 -1.87359 0
M  V30 10945 H 1015.6 -4.54067 0.784865 0
M  V30 10946 H 1013.91 -4.12714 0.552845 0
M  V30 10947 H 1016.51 -4.91056 -2.11585 0
M  V30 10948 H 1016.85 -3.26347 -2.58464 0
M  V30 10949 H 1017.38 -3.85252 -0.991259 0
M  V30 10950 H 1014.12 -6.54708 0.322121 0
M  V30 10951 H 1013.64 -5.86643 -1.2494 0
M  V30 10952 H 1015.32 -6.39556 -0.978628 0
M  V30 10953 N 1015.45 0.186762 -1.56489 0
M  V30 10954 C 1016.73 0.932229 -1.71956 0
M  V30 10955 C 1017.11 2.01037 -0.644006 0
M  V30 10956 O 1016.46 2.259 0.343694 0
M  V30 10957 C 1016.67 1.51106 -3.14592 0
M  V30 10958 C 1018.02 1.98997 -3.75081 0
M  V30 10959 O 1019.04 1.60931 -3.17773 0
M  V30 10960 O 1017.9 2.69067 -4.75673 0
M  V30 10961 H 1014.99 0.437736 -0.701652 0
M  V30 10962 H 1017.54 0.175803 -1.68787 0
M  V30 10963 H 1016.31 0.734327 -3.84348 0
M  V30 10964 H 1015.94 2.33209 -3.22024 0
M  V30 10965 N 1016.93 1.50896 0.454776 0
M  V30 10966 C 1018.35 1.38684 0.78987 0
M  V30 10967 C 1018.55 0.455587 1.96282 0
M  V30 10968 O 1017.6 -0.0957503 2.52318 0
M  V30 10969 C 1018.92 2.80381 1.08661 0
M  V30 10970 C 1020.47 2.8941 1.19209 0
M  V30 10971 C 1020.94 4.31976 1.52187 0
M  V30 10972 N 1022.43 4.35002 1.59146 0
M  V30 10973 C 1023.17 5.42326 1.862 0
M  V30 10974 N 1022.66 6.59835 2.11164 0
M  V30 10975 N 1024.46 5.29786 1.87838 0
M  V30 10976 H 1016.61 2.10006 -0.317981 0
M  V30 10977 H 1018.87 0.944636 -0.0797969 0
M  V30 10978 H 1018.58 3.50438 0.297626 0
M  V30 10979 H 1018.45 3.18634 2.01872 0
M  V30 10980 H 1020.84 2.19561 1.97173 0
M  V30 10981 H 1020.92 2.54677 0.239401 0
M  V30 10982 H 1020.56 5.02368 0.747576 0
M  V30 10983 H 1020.49 4.64208 2.48633 0
M  V30 10984 H 1022.98 3.50276 1.41828 0
M  V30 10985 H 1023.3 7.37428 2.31128 0
M  V30 10986 H 1021.64 6.62981 2.08522 0
M  V30 10987 H 1024.83 4.36974 1.67843 0
M  V30 10988 H 1025 6.13511 2.08585 0
M  V30 10989 N 1018.41 -0.709066 1.40748 0
M  V30 10990 C 1019.36 -1.82312 1.4153 0
M  V30 10991 C 1020.33 -1.63868 0.271392 0
M  V30 10992 O 1021.51 -1.8491 0.470431 0
M  V30 10993 C 1018.65 -3.2008 1.29006 0
M  V30 10994 C 1017.77 -3.50051 2.53156 0
M  V30 10995 C 1016.9 -4.7736 2.33025 0
M  V30 10996 C 1015.94 -5.00255 3.52719 0
M  V30 10997 N 1015.08 -6.18782 3.31743 0
M  V30 10998 H 1019.92 -1.80978 2.36751 0
M  V30 10999 H 1017.45 -0.883975 1.17577 0
M  V30 11000 H 1019.41 -3.99645 1.19749 0
M  V30 11001 H 1018.04 -3.20626 0.374014 0
M  V30 11002 H 1017.09 -2.64993 2.72916 0
M  V30 11003 H 1018.41 -3.62877 3.42231 0
M  V30 11004 H 1017.56 -5.64954 2.21159 0
M  V30 11005 H 1016.3 -4.66756 1.41386 0
M  V30 11006 H 1015.3 -4.11114 3.65055 0
M  V30 11007 H 1016.53 -5.12728 4.45295 0
M  V30 11008 H 1014.47 -6.09416 2.42791 0
M  V30 11009 H 1014.39 -6.32313 4.14386 0
M  V30 11010 H 1015.66 -7.09146 3.23623 0
M  V30 11011 N 1019.89 -1.26353 -0.941956 0
M  V30 11012 C 1021.12 -1.14626 -1.72245 0
M  V30 11013 C 1021.53 0.298588 -1.86424 0
M  V30 11014 O 1020.89 1.2045 -1.37106 0
M  V30 11015 C 1020.94 -1.80933 -3.12963 0
M  V30 11016 O 1020.66 -3.19771 -2.99463 0
M  V30 11017 C 1022.16 -1.7515 -4.07231 0
M  V30 11018 H 1019.38 -0.3992 -0.539333 0
M  V30 11019 H 1021.93 -1.66958 -1.1809 0
M  V30 11020 H 1020.08 -1.32541 -3.64021 0
M  V30 11021 H 1020.5 -3.52571 -3.88322 0
M  V30 11022 H 1021.97 -2.26183 -5.03533 0
M  V30 11023 H 1022.45 -0.717855 -4.33294 0
M  V30 11024 H 1023.05 -2.2309 -3.62093 0
M  V30 11025 N 1021.37 1.14642 -1.08144 0
M  V30 11026 C 1022.78 1.6719 -0.830923 0
M  V30 11027 C 1023.13 1.85373 0.642749 0
M  V30 11028 O 1022.25 1.56293 1.49671 0
M  V30 11029 C 1022.85 3.03697 -1.50179 0
M  V30 11030 C 1021.41 3.5329 -1.29858 0
M  V30 11031 C 1020.56 2.28828 -1.5663 0
M  V30 11032 H 1023.51 0.987441 -1.24239 0
M  V30 11033 H 1023.53 3.69023 -0.9275 0
M  V30 11034 H 1023.04 2.90431 -2.57432 0
M  V30 11035 H 1021.14 3.71783 -0.246626 0
M  V30 11036 H 1021.25 4.34231 -2.02436 0
M  V30 11037 H 1019.62 2.34769 -0.987716 0
M  V30 11038 H 1020.4 2.18141 -2.65084 0
M  V30 11039 N 1022.85 0.866709 1.31628 0
M  V30 11040 C 1023.79 0.309128 2.30537 0
M  V30 11041 C 1024.79 -0.574028 1.59378 0
M  V30 11042 O 1025.99 -0.460491 1.7401 0
M  V30 11043 H 1022.37 0.081279 0.747595 0
M  V30 11044 H 1024.34 1.15734 2.75042 0
M  V30 11045 C 1023.09 -0.477287 3.44409 0
M  V30 11046 H 1022.41 0.19301 3.99334 0
M  V30 11047 H 1023.85 -0.832818 4.1574 0
M  V30 11048 C 1022.31 -1.66727 2.92752 0
M  V30 11049 O 1022.84 -2.76654 2.91248 0
M  V30 11050 N 1021.05 -1.49833 2.48995 0
M  V30 11051 H 1020.59 -0.604073 2.50417 0
M  V30 11052 H 1020.55 -2.29594 2.14788 0
M  V30 11053 N 1024.32 -1.44642 0.625825 0
M  V30 11054 C 1025.27 -2.32408 -0.0945221 0
M  V30 11055 C 1026.27 -1.47038 -0.841198 0
M  V30 11056 O 1027.47 -1.63415 -0.754698 0
M  V30 11057 H 1023.85 -0.75038 -0.0493321 0
M  V30 11058 H 1025.82 -2.90922 0.663863 0
M  V30 11059 C 1024.57 -3.30951 -1.06615 0
M  V30 11060 H 1023.89 -3.96648 -0.501021 0
M  V30 11061 H 1025.33 -3.95054 -1.53976 0
M  V30 11062 C 1023.79 -2.59479 -2.14877 0
M  V30 11063 O 1024.32 -2.38974 -3.22885 0
M  V30 11064 N 1022.52 -2.19307 -1.90665 0
M  V30 11065 H 1022.07 -2.36184 -1.02835 0
M  V30 11066 H 1022.03 -1.71811 -2.63303 0
M  V30 11067 N 1025.8 -0.366053 -1.5329 0
M  V30 11068 C 1027.21 0.113056 -1.86357 0
M  V30 11069 C 1027.56 1.48123 -1.28662 0
M  V30 11070 O 1026.69 2.07658 -0.608849 0
M  V30 11071 C 1027.28 0.211923 -3.38137 0
M  V30 11072 C 1025.84 0.635289 -3.71 0
M  V30 11073 C 1024.99 -0.217203 -2.76448 0
M  V30 11074 H 1027.94 -0.584829 -1.47531 0
M  V30 11075 H 1027.96 1.0354 -3.66142 0
M  V30 11076 H 1027.47 -0.783994 -3.80099 0
M  V30 11077 H 1025.57 1.63942 -3.34595 0
M  V30 11078 H 1025.69 0.409571 -4.77346 0
M  V30 11079 H 1024.05 0.313988 -2.52757 0
M  V30 11080 H 1024.83 -1.21067 -3.21244 0
M  V30 11081 N 1027.28 1.57312 -0.0952337 0
M  V30 11082 C 1028.5 1.99119 0.580206 0
M  V30 11083 C 1028.93 0.973955 1.60922 0
M  V30 11084 O 1028.29 -0.0575338 1.81209 0
M  V30 11085 C 1028.34 3.39893 1.20438 0
M  V30 11086 O 1027.44 3.40941 2.32019 0
M  V30 11087 H 1026.78 0.64748 0.147195 0
M  V30 11088 H 1029.31 2.03836 -0.176686 0
M  V30 11089 H 1029.32 3.7759 1.54564 0
M  V30 11090 H 1028 4.13453 0.450514 0
M  V30 11091 H 1026.57 3.1504 1.9951 0
M  V30 11092 N 1028.76 -0.17846 1.56586 0
M  V30 11093 C 1030 -0.90281 1.83381 0
M  V30 11094 C 1030.36 -1.79738 0.675139 0
M  V30 11095 O 1031.56 -2.55879 0.823368 0
M  V30 11096 C 1029.83 -1.68353 3.15265 0
M  V30 11097 S 1031.39 -2.45762 3.6352 0
M  V30 11098 H 1028.21 -0.302508 0.643436 0
M  V30 11099 H 1030.81 -0.164961 1.94803 0
M  V30 11100 H 1029.52 -1.01725 3.97593 0
M  V30 11101 H 1029.05 -2.46289 3.06766 0
M  V30 11102 H 1031.06 -3.70312 3.30278 0
M  V30 11103 N 1030.24 -1.51135 -0.446768 0
M  V30 11104 C 1031.18 -1.72328 -1.56224 0
M  V30 11105 C 1032.18 -0.589411 -1.58815 0
M  V30 11106 O 1033.38 -0.770554 -1.62673 0
M  V30 11107 H 1029.76 -0.544339 -0.518844 0
M  V30 11108 H 1031.73 -2.65851 -1.3552 0
M  V30 11109 C 1030.48 -1.85686 -2.93966 0
M  V30 11110 H 1029.8 -2.72336 -2.927 0
M  V30 11111 H 1031.24 -2.0453 -3.71407 0
M  V30 11112 C 1029.7 -0.614328 -3.31252 0
M  V30 11113 O 1030.23 0.235369 -4.0101 0
M  V30 11114 N 1028.44 -0.461181 -2.86917 0
M  V30 11115 H 1027.98 -1.15369 -2.30321 0
M  V30 11116 H 1027.94 0.368966 -3.12227 0
M  V30 11117 N 1031.71 0.701592 -1.41122 0
M  V30 11118 C 1032.68 1.79733 -1.42227 0
M  V30 11119 C 1033.68 1.57708 -0.313831 0
M  V30 11120 O 1034.87 1.64492 -0.573423 0
M  V30 11121 C 1032 3.18024 -1.22775 0
M  V30 11122 H 1033.19 1.80148 -2.39764 0
M  V30 11123 H 1030.74 0.908624 -1.27176 0
M  V30 11124 H 1031.48 3.23252 -0.260552 0
M  V30 11125 H 1031.26 3.35411 -2.0308 0
M  V30 11126 H 1032.75 3.98021 -1.2637 0
M  V30 11127 N 1033.19 1.2685 0.935242 0
M  V30 11128 C 1034.47 1.03483 1.65984 0
M  V30 11129 C 1034.85 -0.432859 2.06614 0
M  V30 11130 O 1034.2 -1.4145 1.79455 0
M  V30 11131 C 1034.41 1.98924 2.86758 0
M  V30 11132 C 1035.75 2.2787 3.58274 0
M  V30 11133 O 1036.78 1.96838 2.96873 0
M  V30 11134 O 1035.64 2.80734 4.68882 0
M  V30 11135 H 1032.73 0.393932 0.72715 0
M  V30 11136 H 1035.28 1.38085 0.986445 0
M  V30 11137 H 1034.05 2.9794 2.53668 0
M  V30 11138 H 1033.67 1.64839 3.6182 0
M  V30 11139 N 1034.67 -1.14067 1.0875 0
M  V30 11140 C 1035.6 -2.21385 0.74236 0
M  V30 11141 C 1036.58 -1.67833 -0.276805 0
M  V30 11142 O 1037.77 -1.93647 -0.1464 0
M  V30 11143 C 1034.9 -3.46956 0.154644 0
M  V30 11144 C 1033.85 -4.13555 1.10255 0
M  V30 11145 C 1033.18 -5.3337 0.376877 0
M  V30 11146 C 1034.48 -4.6169 2.44213 0
M  V30 11147 H 1036.17 -2.50512 1.63964 0
M  V30 11148 H 1033.72 -1.20408 0.789807 0
M  V30 11149 H 1035.67 -4.21284 -0.0988419 0
M  V30 11150 H 1034.39 -3.17203 -0.777789 0
M  V30 11151 H 1033.05 -3.41186 1.34119 0
M  V30 11152 H 1032.7 -4.99879 -0.559472 0
M  V30 11153 H 1032.4 -5.78875 1.00884 0
M  V30 11154 H 1033.92 -6.10458 0.131527 0
M  V30 11155 H 1035.34 -5.27475 2.24595 0
M  V30 11156 H 1033.74 -5.17909 3.03134 0
M  V30 11157 H 1034.81 -3.76574 3.05483 0
M  V30 11158 N 1036.15 -0.873678 -1.31166 0
M  V30 11159 C 1037.4 -0.482577 -1.95842 0
M  V30 11160 C 1037.71 0.970881 -1.69804 0
M  V30 11161 O 1038.92 1.4683 -2.28371 0
M  V30 11162 C 1037.37 -0.812074 -3.50619 0
M  V30 11163 C 1036.98 -2.28254 -3.85492 0
M  V30 11164 C 1038.72 -0.489624 -4.21667 0
M  V30 11165 C 1036.63 -2.55426 -5.33396 0
M  V30 11166 H 1035.56 -0.176736 -0.732994 0
M  V30 11167 H 1038.21 -1.06709 -1.49283 0
M  V30 11168 H 1036.59 -0.156769 -3.9569 0
M  V30 11169 H 1037.77 -2.98122 -3.51369 0
M  V30 11170 H 1036.08 -2.5714 -3.27518 0
M  V30 11171 H 1038.68 -0.669811 -5.30488 0
M  V30 11172 H 1039.02 0.570204 -4.12376 0
M  V30 11173 H 1039.56 -1.10163 -3.82242 0
M  V30 11174 H 1036.3 -3.60106 -5.47726 0
M  V30 11175 H 1035.82 -1.90156 -5.68859 0
M  V30 11176 H 1037.49 -2.40345 -6.00702 0
M  V30 11177 N 1037.63 1.44308 -0.633487 0
M  V30 11178 C 1038.57 2.32455 0.0821956 0
M  V30 11179 C 1039.57 1.47482 0.833388 0
M  V30 11180 O 1040.77 1.63812 0.746021 0
M  V30 11181 H 1037.15 0.750631 0.045352 0
M  V30 11182 H 1039.12 2.90566 -0.679282 0
M  V30 11183 C 1037.87 3.31512 1.04858 0
M  V30 11184 H 1037.19 3.96908 0.479979 0
M  V30 11185 H 1038.63 3.95865 1.51879 0
M  V30 11186 C 1037.09 2.60615 2.13498 0
M  V30 11187 O 1037.62 2.40682 3.21613 0
M  V30 11188 N 1035.83 2.20315 1.89499 0
M  V30 11189 H 1035.37 2.36726 1.01581 0
M  V30 11190 H 1035.33 1.73205 2.62388 0
M  V30 11191 N 1039.1 0.374177 1.53094 0
M  V30 11192 C 1040.52 0.0234783 1.59583 0
M  V30 11193 C 1040.72 -1.45984 1.38892 0
M  V30 11194 O 1039.78 -2.22251 1.19836 0
M  V30 11195 C 1041.09 0.487117 2.96728 0
M  V30 11196 C 1042.64 0.442073 3.09862 0
M  V30 11197 C 1043.11 0.881659 4.49434 0
M  V30 11198 N 1044.6 0.837062 4.55574 0
M  V30 11199 C 1045.34 1.14878 5.61774 0
M  V30 11200 N 1044.83 1.53022 6.75689 0
M  V30 11201 N 1046.63 1.07102 5.51802 0
M  V30 11202 H 1038.78 1.34003 1.64794 0
M  V30 11203 H 1041.04 0.548281 0.773364 0
M  V30 11204 H 1040.75 1.52252 3.17037 0
M  V30 11205 H 1040.62 -0.121772 3.77003 0
M  V30 11206 H 1043.01 -0.584216 2.89259 0
M  V30 11207 H 1043.09 1.08657 2.31576 0
M  V30 11208 H 1042.73 1.90611 4.70776 0
M  V30 11209 H 1042.66 0.214326 5.26164 0
M  V30 11210 H 1045.15 0.556173 3.73785 0
M  V30 11211 H 1045.47 1.75211 7.52676 0
M  V30 11212 H 1043.81 1.56895 6.77059 0
M  V30 11213 H 1047 0.772149 4.61688 0
M  V30 11214 H 1047.18 1.31728 6.3447 0
M  V30 11215 N 1040.58 -1.57259 0.103575 0
M  V30 11216 C 1041.83 -1.94945 -0.558953 0
M  V30 11217 C 1042.16 -0.986038 -1.67305 0
M  V30 11218 O 1041.44 -0.0205464 -1.94489 0
M  V30 11219 C 1041.72 -3.42689 -1.10617 0
M  V30 11220 C 1041.57 -4.498 0.00345246 0
M  V30 11221 C 1042.89 -3.91933 -2.00191 0
M  V30 11222 H 1040.01 -0.708859 -0.201713 0
M  V30 11223 H 1042.65 -1.89183 0.176006 0
M  V30 11224 H 1040.8 -3.4773 -1.73251 0
M  V30 11225 H 1042.47 -4.56866 0.638082 0
M  V30 11226 H 1040.72 -4.28615 0.668705 0
M  V30 11227 H 1041.39 -5.50397 -0.420396 0
M  V30 11228 H 1043.86 -3.89098 -1.4745 0
M  V30 11229 H 1042.74 -4.9586 -2.35402 0
M  V30 11230 H 1043 -3.31722 -2.92255 0
M  V30 11231 N 1042.06 0.170153 -1.56679 0
M  V30 11232 C 1042.99 1.21285 -1.9953 0
M  V30 11233 C 1043.97 1.46104 -0.871071 0
M  V30 11234 O 1045.16 1.57419 -1.13724 0
M  V30 11235 C 1042.29 2.5515 -2.35618 0
M  V30 11236 C 1041.24 2.44898 -3.51011 0
M  V30 11237 C 1040.57 3.83263 -3.72845 0
M  V30 11238 C 1041.87 1.95271 -4.84424 0
M  V30 11239 H 1043.56 0.856646 -2.86883 0
M  V30 11240 H 1041.11 0.410634 -1.38021 0
M  V30 11241 H 1043.06 3.28299 -2.64193 0
M  V30 11242 H 1041.78 2.92561 -1.45175 0
M  V30 11243 H 1040.44 1.74203 -3.22566 0
M  V30 11244 H 1040.09 4.18069 -2.79691 0
M  V30 11245 H 1039.79 3.77272 -4.50488 0
M  V30 11246 H 1041.31 4.57996 -4.03822 0
M  V30 11247 H 1042.73 2.58195 -5.11867 0
M  V30 11248 H 1041.13 2.00225 -5.65712 0
M  V30 11249 H 1042.2 0.90709 -4.7634 0
M  V30 11250 N 1043.54 1.5137 0.438746 0
M  V30 11251 C 1044.47 1.75528 1.53987 0
M  V30 11252 C 1045.45 0.605067 1.58975 0
M  V30 11253 O 1046.63 0.847634 1.74725 0
M  V30 11254 C 1043.76 1.87904 2.92078 0
M  V30 11255 C 1042.72 3.0333 3.01951 0
M  V30 11256 C 1042.04 3.00888 4.42007 0
M  V30 11257 C 1043.34 4.43319 2.76163 0
M  V30 11258 H 1045.04 2.67728 1.34022 0
M  V30 11259 H 1042.58 1.28831 0.643308 0
M  V30 11260 H 1044.54 2.03388 3.69068 0
M  V30 11261 H 1043.26 0.923514 3.13271 0
M  V30 11262 H 1041.92 2.87549 2.274 0
M  V30 11263 H 1041.57 2.03116 4.60166 0
M  V30 11264 H 1041.27 3.78397 4.49544 0
M  V30 11265 H 1042.79 3.18464 5.20973 0
M  V30 11266 H 1044.21 4.59458 3.42887 0
M  V30 11267 H 1042.6 5.22523 2.9511 0
M  V30 11268 H 1043.67 4.53453 1.71779 0
M  V30 11269 N 1045.02 -0.694098 1.41492 0
M  V30 11270 C 1046.29 -1.44875 1.31418 0
M  V30 11271 C 1046.67 -2.11022 -0.0575538 0
M  V30 11272 O 1046.02 -2.01799 -1.07188 0
M  V30 11273 C 1046.23 -2.46698 2.46863 0
M  V30 11274 C 1047.58 -3.11907 2.88095 0
M  V30 11275 O 1048.6 -2.57022 2.46613 0
M  V30 11276 O 1047.46 -4.11318 3.59833 0
M  V30 11277 H 1044.56 -0.645266 0.517263 0
M  V30 11278 H 1047.1 -0.724452 1.53459 0
M  V30 11279 H 1045.87 -1.96485 3.38392 0
M  V30 11280 H 1045.5 -3.26634 2.26706 0
M  V30 11281 N 1046.49 -1.27344 -0.928501 0
M  V30 11282 C 1047.46 -1.10043 -2.01055 0
M  V30 11283 C 1048.46 -0.0446793 -1.60738 0
M  V30 11284 O 1049.65 -0.289202 -1.71783 0
M  V30 11285 C 1046.78 -0.676559 -3.34119 0
M  V30 11286 H 1047.97 -2.06126 -2.17835 0
M  V30 11287 H 1045.53 -1.10121 -1.10919 0
M  V30 11288 H 1046.26 0.285697 -3.23039 0
M  V30 11289 H 1046.05 -1.43903 -3.64739 0
M  V30 11290 H 1047.54 -0.577725 -4.13584 0
M  V30 11291 N 1047.97 1.13488 -1.09353 0
M  V30 11292 C 1049.22 1.84383 -0.827488 0
M  V30 11293 C 1049.54 1.83892 0.648745 0
M  V30 11294 O 1048.81 1.29415 1.47066 0
M  V30 11295 H 1047.39 0.682732 -0.303127 0
M  V30 11296 H 1050.05 1.37477 -1.38152 0
M  V30 11297 H 1049.15 2.88919 -1.18035 0
M  V30 11298 N 1049.45 0.880621 1.30701 0
M  V30 11299 C 1050.7 0.496875 1.96309 0
M  V30 11300 C 1051.03 -0.953064 1.69549 0
M  V30 11301 O 1050.28 -1.68782 0.990507 0
M  V30 11302 C 1050.58 0.713203 3.50212 0
M  V30 11303 C 1050.25 2.13756 3.97013 0
M  V30 11304 C 1048.91 2.52706 4.09503 0
M  V30 11305 C 1051.26 3.066 4.21481 0
M  V30 11306 C 1048.59 3.8372 4.43819 0
M  V30 11307 C 1050.94 4.3714 4.57265 0
M  V30 11308 C 1049.6 4.7599 4.67963 0
M  V30 11309 H 1048.87 0.18182 0.718347 0
M  V30 11310 H 1051.52 1.11564 1.55646 0
M  V30 11311 H 1049.83 0.0113694 3.91798 0
M  V30 11312 H 1051.52 0.39595 3.9904 0
M  V30 11313 H 1048.11 1.8252 3.87794 0
M  V30 11314 H 1052.3 2.77729 4.11315 0
M  V30 11315 H 1047.55 4.13568 4.50301 0
M  V30 11316 H 1051.73 5.09123 4.75149 0
M  V30 11317 H 1049.35 5.77549 4.94309 0
M  V30 11318 N 1050.93 -1.4397 0.641131 0
M  V30 11319 C 1052.16 -2.06303 0.157006 0
M  V30 11320 C 1052.57 -1.47981 -1.17248 0
M  V30 11321 O 1051.93 -0.606471 -1.72128 0
M  V30 11322 C 1051.98 -3.6147 0.0468425 0
M  V30 11323 O 1051.7 -4.17622 1.32376 0
M  V30 11324 C 1053.2 -4.40857 -0.464795 0
M  V30 11325 H 1050.42 -0.665684 0.0842946 0
M  V30 11326 H 1052.97 -1.84675 0.878363 0
M  V30 11327 H 1051.12 -3.82325 -0.625006 0
M  V30 11328 H 1051.54 -5.11167 1.17509 0
M  V30 11329 H 1053.01 -5.49813 -0.490862 0
M  V30 11330 H 1053.49 -4.13016 -1.4938 0
M  V30 11331 H 1054.09 -4.24943 0.174146 0
M  V30 11332 N 1052.41 -0.382291 -1.52893 0
M  V30 11333 C 1053.36 0.471187 -2.27778 0
M  V30 11334 C 1054.35 1.0691 -1.31402 0
M  V30 11335 O 1055.56 1.01038 -1.48967 0
M  V30 11336 H 1051.93 0.170696 -0.732371 0
M  V30 11337 H 1053.9 -0.181954 -2.97845 0
M  V30 11338 C 1052.65 1.59012 -3.09209 0
M  V30 11339 H 1051.97 1.13935 -3.83222 0
M  V30 11340 H 1053.41 2.16167 -3.64757 0
M  V30 11341 C 1051.87 2.54212 -2.21084 0
M  V30 11342 O 1052.4 3.57447 -1.83288 0
M  V30 11343 N 1050.61 2.23789 -1.85383 0
M  V30 11344 H 1050.16 1.39872 -2.16318 0
M  V30 11345 H 1050.11 2.87737 -1.26708 0
M  V30 11346 N 1053.89 1.57202 -0.111913 0
M  V30 11347 C 1054.8 2.18475 0.854753 0
M  V30 11348 C 1055.81 1.15888 1.29792 0
M  V30 11349 O 1056.99 1.48329 1.36237 0
M  V30 11350 C 1054.05 2.76645 2.0897 0
M  V30 11351 C 1053.11 3.94244 1.69913 0
M  V30 11352 C 1052.35 4.49631 2.8752 0
M  V30 11353 O 1052.57 4.03926 4.02741 0
M  V30 11354 O 1051.5 5.40417 2.65015 0
M  V30 11355 H 1055.33 3.01519 0.363352 0
M  V30 11356 H 1052.91 1.4897 0.113329 0
M  V30 11357 H 1054.8 3.13755 2.81311 0
M  V30 11358 H 1053.47 1.96637 2.5713 0
M  V30 11359 H 1052.38 3.61915 0.947013 0
M  V30 11360 H 1053.71 4.75666 1.26501 0
M  V30 11361 N 1055.36 -0.161842 1.56767 0
M  V30 11362 C 1056.29 -1.20226 2.0017 0
M  V30 11363 C 1057.27 -1.4564 0.878807 0
M  V30 11364 O 1058.46 -1.56813 1.14557 0
M  V30 11365 C 1055.59 -2.53897 2.36968 0
M  V30 11366 C 1054.54 -2.43033 3.52305 0
M  V30 11367 C 1053.87 -3.81281 3.74872 0
M  V30 11368 C 1055.17 -1.927 4.85453 0
M  V30 11369 H 1056.86 -0.84142 2.87333 0
M  V30 11370 H 1054.41 -0.403309 1.38237 0
M  V30 11371 H 1056.36 -3.26893 2.6593 0
M  V30 11372 H 1055.09 -2.91787 1.46724 0
M  V30 11373 H 1053.75 -1.7249 3.23485 0
M  V30 11374 H 1053.39 -4.1658 2.81904 0
M  V30 11375 H 1053.09 -3.74877 4.52483 0
M  V30 11376 H 1054.62 -4.55848 4.06245 0
M  V30 11377 H 1056.03 -2.55477 5.13229 0
M  V30 11378 H 1054.43 -1.97222 5.66766 0
M  V30 11379 H 1055.5 -0.881816 4.76814 0
M  V30 11380 N 1056.84 -1.516 -0.430713 0
M  V30 11381 C 1058.09 -1.6484 -1.18134 0
M  V30 11382 C 1058.42 -0.366725 -1.90706 0
M  V30 11383 O 1057.7 0.63398 -1.83878 0
M  V30 11384 C 1057.98 -2.85617 -2.19306 0
M  V30 11385 C 1057.83 -4.23778 -1.50773 0
M  V30 11386 C 1059.15 -3.01909 -3.20217 0
M  V30 11387 H 1056.27 -0.599907 -0.428113 0
M  V30 11388 H 1058.91 -1.84102 -0.46973 0
M  V30 11389 H 1057.06 -2.69325 -2.79993 0
M  V30 11390 H 1058.73 -4.51752 -0.93371 0
M  V30 11391 H 1056.98 -4.26171 -0.809966 0
M  V30 11392 H 1057.65 -5.04291 -2.24487 0
M  V30 11393 H 1060.12 -3.16956 -2.69589 0
M  V30 11394 H 1059 -3.87968 -3.88293 0
M  V30 11395 H 1059.26 -2.1427 -3.86705 0
M  V30 11396 N 1058.32 0.686584 -1.41858 0
M  V30 11397 C 1059.25 1.81202 -1.40352 0
M  V30 11398 C 1060.26 1.5993 -0.304322 0
M  V30 11399 O 1061.45 1.69267 -0.566643 0
M  V30 11400 C 1058.55 3.18116 -1.16856 0
M  V30 11401 C 1057.73 3.66339 -2.38987 0
M  V30 11402 C 1056.79 4.8195 -2.11212 0
M  V30 11403 O 1055.81 4.93102 -2.84323 0
M  V30 11404 N 1057.01 5.69829 -1.10793 0
M  V30 11405 H 1059.78 1.82983 -2.37355 0
M  V30 11406 H 1057.34 0.869244 -1.36586 0
M  V30 11407 H 1059.33 3.93097 -0.962125 0
M  V30 11408 H 1057.9 3.11306 -0.284186 0
M  V30 11409 H 1057.12 2.82166 -2.75274 0
M  V30 11410 H 1058.41 3.95297 -3.2034 0
M  V30 11411 H 1057.81 5.63459 -0.503012 0
M  V30 11412 H 1056.36 6.44671 -0.961379 0
M  V30 11413 N 1059.8 1.27835 0.921735 0
M  V30 11414 C 1060.75 1.1092 2.04449 0
M  V30 11415 C 1061.74 0.0306469 1.69372 0
M  V30 11416 O 1062.95 0.188818 1.79007 0
M  V30 11417 H 1059.32 0.341973 0.669745 0
M  V30 11418 H 1061.29 2.06026 2.1586 0
M  V30 11419 C 1060.04 0.779443 3.38851 0
M  V30 11420 H 1059.36 1.60131 3.66331 0
M  V30 11421 H 1060.8 0.700999 4.18165 0
M  V30 11422 C 1059.26 -0.51647 3.32918 0
M  V30 11423 O 1059.79 -1.54914 3.70627 0
M  V30 11424 N 1058 -0.514276 2.86013 0
M  V30 11425 H 1057.55 0.32651 2.55522 0
M  V30 11426 H 1057.5 -1.38141 2.82426 0
M  V30 11427 N 1061.28 -1.12907 1.09954 0
M  V30 11428 C 1062.51 -1.87866 0.859656 0
M  V30 11429 C 1062.91 -1.79664 -0.593096 0
M  V30 11430 O 1062.26 -1.16499 -1.42034 0
M  V30 11431 C 1062.32 -3.38055 1.22308 0
M  V30 11432 C 1061.98 -3.70035 2.68185 0
M  V30 11433 C 1062.98 -3.68817 3.66428 0
M  V30 11434 C 1060.66 -3.99523 3.04444 0
M  V30 11435 C 1062.66 -3.96639 4.98955 0
M  V30 11436 C 1060.35 -4.27006 4.37161 0
M  V30 11437 C 1061.34 -4.25549 5.34225 0
M  V30 11438 O 1061.03 -4.52354 6.64553 0
M  V30 11439 H 1060.76 -0.601425 0.308649 0
M  V30 11440 H 1063.32 -1.43817 1.46649 0
M  V30 11441 H 1061.55 -3.82634 0.559322 0
M  V30 11442 H 1063.24 -3.94348 0.961479 0
M  V30 11443 H 1064 -3.46104 3.3976 0
M  V30 11444 H 1059.88 -3.99801 2.29521 0
M  V30 11445 H 1063.43 -3.95418 5.74709 0
M  V30 11446 H 1059.32 -4.49192 4.6357 0
M  V30 11447 H 1060.09 -4.69997 6.70108 0
M  V30 11448 N 1062.75 -0.88754 -1.30232 0
M  V30 11449 C 1064 -0.517406 -1.96709 0
M  V30 11450 C 1064.35 0.923757 -1.68774 0
M  V30 11451 O 1063.65 1.64435 -0.983443 0
M  V30 11452 C 1063.84 -0.731765 -3.49828 0
M  V30 11453 C 1063.67 -2.19221 -3.92648 0
M  V30 11454 C 1062.44 -2.83729 -4.18122 0
M  V30 11455 C 1064.64 -3.16627 -4.0528 0
M  V30 11456 N 1062.62 -4.20343 -4.4742 0
M  V30 11457 C 1063.99 -4.38322 -4.38491 0
M  V30 11458 C 1066.05 -3.12381 -3.87715 0
M  V30 11459 C 1064.75 -5.56315 -4.55967 0
M  V30 11460 C 1066.78 -4.29648 -4.06394 0
M  V30 11461 C 1066.14 -5.5011 -4.39953 0
M  V30 11462 H 1062.24 -0.238709 -0.744676 0
M  V30 11463 H 1064.82 -1.14581 -1.57414 0
M  V30 11464 H 1062.99 -0.132827 -3.88173 0
M  V30 11465 H 1064.72 -0.328276 -4.03366 0
M  V30 11466 H 1061.48 -2.34584 -4.11421 0
M  V30 11467 H 1061.9 -4.90905 -4.66199 0
M  V30 11468 H 1066.54 -2.20345 -3.60843 0
M  V30 11469 H 1064.26 -6.48853 -4.8168 0
M  V30 11470 H 1067.85 -4.27835 -3.94269 0
M  V30 11471 H 1066.73 -6.39339 -4.54109 0
M  V30 11472 N 1064.23 1.43628 -0.648757 0
M  V30 11473 C 1065.46 2.06732 -0.166284 0
M  V30 11474 C 1065.88 1.48281 1.15734 0
M  V30 11475 O 1065.24 0.591018 1.71396 0
M  V30 11476 C 1065.29 3.60502 -0.0838732 0
M  V30 11477 O 1064.39 4.01186 0.955185 0
M  V30 11478 H 1063.73 0.657479 -0.0928285 0
M  V30 11479 H 1066.26 1.84208 -0.890421 0
M  V30 11480 H 1066.27 4.07875 0.100923 0
M  V30 11481 H 1064.95 4.02424 -1.05014 0
M  V30 11482 H 1063.53 3.65412 0.743537 0
M  V30 11483 N 1065.71 0.390394 1.52688 0
M  V30 11484 C 1066.66 -0.444229 2.26485 0
M  V30 11485 C 1067.63 -1.05688 1.28138 0
M  V30 11486 O 1068.81 -1.0847 1.56968 0
M  V30 11487 C 1065.95 -1.56501 3.07574 0
M  V30 11488 C 1065.07 -0.975111 4.20851 0
M  V30 11489 C 1064.2 -2.06704 4.89333 0
M  V30 11490 C 1063.24 -1.45309 5.94602 0
M  V30 11491 N 1062.38 -2.48437 6.56676 0
M  V30 11492 H 1067.22 0.191535 2.97384 0
M  V30 11493 H 1064.75 0.106287 1.46716 0
M  V30 11494 H 1066.71 -2.22558 3.52879 0
M  V30 11495 H 1065.34 -2.17107 2.38881 0
M  V30 11496 H 1064.39 -0.204109 3.79852 0
M  V30 11497 H 1065.71 -0.486465 4.96422 0
M  V30 11498 H 1064.86 -2.80528 5.37949 0
M  V30 11499 H 1063.6 -2.58928 4.13289 0
M  V30 11500 H 1062.6 -0.700091 5.45324 0
M  V30 11501 H 1063.83 -0.938775 6.7258 0
M  V30 11502 H 1061.77 -2.99829 5.83471 0
M  V30 11503 H 1061.69 -2.04331 7.27863 0
M  V30 11504 H 1062.96 -3.21888 7.09935 0
M  V30 11505 N 1067.19 -1.57141 0.120249 0
M  V30 11506 C 1068.12 -2.12454 -0.859987 0
M  V30 11507 C 1069.13 -1.06755 -1.22911 0
M  V30 11508 O 1070.32 -1.34124 -1.17784 0
M  V30 11509 C 1067.42 -2.61024 -2.16147 0
M  V30 11510 C 1066.6 -3.90835 -1.96385 0
M  V30 11511 C 1065.65 -4.2499 -3.10274 0
M  V30 11512 O 1064.68 -4.93786 -2.83133 0
M  V30 11513 N 1065.88 -3.82411 -4.36741 0
M  V30 11514 H 1068.65 -2.97186 -0.387402 0
M  V30 11515 H 1066.21 -1.61773 -0.0641376 0
M  V30 11516 H 1068.2 -2.80903 -2.91334 0
M  V30 11517 H 1066.77 -1.81166 -2.5475 0
M  V30 11518 H 1065.99 -3.79853 -1.05383 0
M  V30 11519 H 1067.28 -4.75712 -1.80487 0
M  V30 11520 H 1066.68 -3.26926 -4.61666 0
M  V30 11521 H 1065.23 -4.07395 -5.08795 0
M  V30 11522 N 1068.67 0.153526 -1.5685 0
M  V30 11523 C 1069.61 1.18973 -1.97773 0
M  V30 11524 C 1070.58 1.43041 -0.844311 0
M  V30 11525 O 1071.77 1.55484 -1.10586 0
M  V30 11526 C 1068.91 2.51981 -2.35795 0
M  V30 11527 C 1068.02 2.35143 -3.62397 0
M  V30 11528 C 1067.16 3.61141 -3.89552 0
M  V30 11529 C 1066.2 3.39311 -5.09445 0
M  V30 11530 N 1065.33 4.57423 -5.32643 0
M  V30 11531 H 1070.17 0.833758 -2.86099 0
M  V30 11532 H 1067.71 0.400252 -1.4155 0
M  V30 11533 H 1069.67 3.29527 -2.55867 0
M  V30 11534 H 1068.3 2.85539 -1.50557 0
M  V30 11535 H 1067.35 1.48684 -3.50139 0
M  V30 11536 H 1068.66 2.14969 -4.501 0
M  V30 11537 H 1067.82 4.47117 -4.10087 0
M  V30 11538 H 1066.55 3.84312 -3.00259 0
M  V30 11539 H 1065.56 2.51723 -4.8879 0
M  V30 11540 H 1066.78 3.17545 -6.00285 0
M  V30 11541 H 1064.73 4.8078 -4.46303 0
M  V30 11542 H 1064.65 4.40228 -6.14602 0
M  V30 11543 H 1065.92 5.44632 -5.57671 0
M  V30 11544 N 1070.14 1.51827 0.422667 0
M  V30 11545 C 1071.09 1.74791 1.53463 0
M  V30 11546 C 1072.09 0.614602 1.57858 0
M  V30 11547 O 1073.29 0.796336 1.61426 0
M  V30 11548 H 1069.67 0.552524 0.510118 0
M  V30 11549 H 1071.64 2.67974 1.31273 0
M  V30 11550 C 1070.39 1.90339 2.90975 0
M  V30 11551 H 1069.71 2.76958 2.8833 0
M  V30 11552 H 1071.15 2.10413 3.68106 0
M  V30 11553 C 1069.61 0.66695 3.30232 0
M  V30 11554 O 1070.14 -0.171542 4.01334 0
M  V30 11555 N 1068.35 0.506768 2.86147 0
M  V30 11556 H 1067.89 1.19019 2.28456 0
M  V30 11557 H 1067.85 -0.319247 3.12775 0
M  V30 11558 N 1071.62 -0.679052 1.4222 0
M  V30 11559 C 1072.87 -1.43485 1.41757 0
M  V30 11560 C 1073.18 -1.95567 0.0358698 0
M  V30 11561 O 1074.39 -2.71346 -0.0913713 0
M  V30 11562 C 1072.85 -2.59541 2.49332 0
M  V30 11563 C 1072.45 -2.14176 3.93488 0
M  V30 11564 C 1074.2 -3.37078 2.58029 0
M  V30 11565 C 1072.11 -3.27289 4.92581 0
M  V30 11566 H 1071.04 -0.539022 0.52723 0
M  V30 11567 H 1073.69 -0.735581 1.68111 0
M  V30 11568 H 1072.07 -3.31815 2.16135 0
M  V30 11569 H 1073.24 -1.49082 4.36017 0
M  V30 11570 H 1071.56 -1.49589 3.88603 0
M  V30 11571 H 1074.15 -4.21312 3.29242 0
M  V30 11572 H 1074.5 -3.83383 1.62245 0
M  V30 11573 H 1075.03 -2.7187 2.90399 0
M  V30 11574 H 1071.77 -2.8598 5.89827 0
M  V30 11575 H 1071.29 -3.91178 4.54687 0
M  V30 11576 H 1072.97 -3.9282 5.14103 0
M  V30 11577 N 1073.1 -1.28322 -0.914942 0
M  V30 11578 C 1074.05 -1.12146 -2.01722 0
M  V30 11579 C 1075.02 -0.0189279 -1.66089 0
M  V30 11580 O 1076.2 -0.183638 -1.89914 0
M  V30 11581 C 1073.34 -0.78808 -3.35981 0
M  V30 11582 C 1072.46 -1.96954 -3.84491 0
M  V30 11583 C 1071.59 -1.57688 -5.07255 0
M  V30 11584 C 1070.63 -2.72506 -5.48094 0
M  V30 11585 N 1069.77 -2.33741 -6.62049 0
M  V30 11586 H 1074.61 -2.06461 -2.1489 0
M  V30 11587 H 1072.14 -1.0276 -1.05256 0
M  V30 11588 H 1074.1 -0.575546 -4.13211 0
M  V30 11589 H 1072.73 0.118132 -3.22584 0
M  V30 11590 H 1071.78 -2.29423 -3.03429 0
M  V30 11591 H 1073.1 -2.8304 -4.10719 0
M  V30 11592 H 1072.25 -1.32634 -5.92025 0
M  V30 11593 H 1070.99 -0.687291 -4.82833 0
M  V30 11594 H 1069.99 -2.9826 -4.61867 0
M  V30 11595 H 1071.22 -3.62106 -5.74505 0
M  V30 11596 H 1069.16 -1.4725 -6.3926 0
M  V30 11597 H 1069.08 -3.13364 -6.87997 0
M  V30 11598 H 1070.35 -2.11968 -7.50127 0
M  V30 11599 N 1074.58 1.12322 -1.10551 0
M  V30 11600 C 1075.83 1.83495 -0.846998 0
M  V30 11601 C 1076.15 1.8457 0.629205 0
M  V30 11602 O 1075.42 1.30968 1.45686 0
M  V30 11603 H 1074 0.679479 -0.310351 0
M  V30 11604 H 1076.66 1.36004 -1.39602 0
M  V30 11605 H 1075.76 2.87651 -1.21092 0
M  V30 11606 N 1076.06 0.894434 1.2976 0
M  V30 11607 C 1077.3 0.518435 1.96061 0
M  V30 11608 C 1077.64 -0.931882 1.70381 0
M  V30 11609 O 1076.91 -1.65988 1.01381 0
M  V30 11610 C 1077.19 0.80519 3.50982 0
M  V30 11611 C 1077.05 2.30683 3.86142 0
M  V30 11612 C 1078.37 0.288096 4.39156 0
M  V30 11613 H 1075.48 0.18983 0.712133 0
M  V30 11614 H 1078.13 1.12016 1.53468 0
M  V30 11615 H 1076.28 0.293071 3.87393 0
M  V30 11616 H 1077.95 2.88808 3.59705 0
M  V30 11617 H 1076.19 2.76968 3.33873 0
M  V30 11618 H 1076.86 2.45805 4.94251 0
M  V30 11619 H 1079.34 0.726547 4.09708 0
M  V30 11620 H 1078.21 0.517985 5.4645 0
M  V30 11621 H 1078.48 -0.811018 4.34597 0
M  V30 11622 N 1077.53 -1.43282 0.656365 0
M  V30 11623 C 1078.48 -2.30776 -0.0333155 0
M  V30 11624 C 1079.45 -1.44928 -0.811493 0
M  V30 11625 O 1080.64 -1.73792 -0.787465 0
M  V30 11626 C 1077.78 -3.30548 -0.991566 0
M  V30 11627 C 1076.89 -4.31493 -0.209159 0
M  V30 11628 C 1076.02 -5.18346 -1.16149 0
M  V30 11629 C 1075.06 -6.10983 -0.369699 0
M  V30 11630 N 1074.2 -6.90449 -1.27378 0
M  V30 11631 H 1079.04 -2.89204 0.718668 0
M  V30 11632 H 1076.58 -1.4247 0.366161 0
M  V30 11633 H 1078.54 -3.86905 -1.56078 0
M  V30 11634 H 1077.17 -2.73762 -1.71039 0
M  V30 11635 H 1076.22 -3.77405 0.476394 0
M  V30 11636 H 1077.53 -4.97142 0.406394 0
M  V30 11637 H 1076.68 -5.79345 -1.80124 0
M  V30 11638 H 1075.42 -4.52831 -1.81095 0
M  V30 11639 H 1074.43 -5.49069 0.283377 0
M  V30 11640 H 1075.65 -6.78541 0.275399 0
M  V30 11641 H 1073.6 -6.27579 -1.90999 0
M  V30 11642 H 1073.52 -7.52631 -0.71287 0
M  V30 11643 H 1074.78 -7.5595 -1.90158 0
M  V30 11644 N 1079.01 -0.398486 -1.52479 0
M  V30 11645 C 1079.98 0.420206 -2.25315 0
M  V30 11646 C 1080.98 0.982559 -1.27289 0
M  V30 11647 O 1082.17 0.863113 -1.51314 0
M  V30 11648 C 1079.3 1.59045 -3.01525 0
M  V30 11649 H 1080.49 -0.217599 -2.9911 0
M  V30 11650 H 1078.04 -0.150784 -1.55571 0
M  V30 11651 H 1078.78 2.26542 -2.32054 0
M  V30 11652 H 1078.56 1.19382 -3.73484 0
M  V30 11653 H 1080.05 2.16984 -3.56802 0
M  V30 11654 N 1080.49 1.57075 -0.12858 0
M  V30 11655 C 1081.91 1.57964 0.227961 0
M  V30 11656 C 1082.11 1.14186 1.66023 0
M  V30 11657 O 1081.16 0.833655 2.38341 0
M  V30 11658 C 1082.48 3.00697 -0.0140648 0
M  V30 11659 C 1084.02 3.12958 0.0510876 0
M  V30 11660 C 1084.5 4.57709 -0.163368 0
M  V30 11661 N 1085.99 4.6307 -0.109663 0
M  V30 11662 C 1086.73 5.72853 -0.250366 0
M  V30 11663 N 1086.22 6.91351 -0.447772 0
M  V30 11664 N 1088.01 5.61781 -0.189265 0
M  V30 11665 H 1080.17 1.83829 -1.06398 0
M  V30 11666 H 1082.43 0.850014 -0.419739 0
M  V30 11667 H 1082.13 3.37047 -1.00461 0
M  V30 11668 H 1082.01 3.70389 0.713571 0
M  V30 11669 H 1084.4 2.7646 1.03216 0
M  V30 11670 H 1084.48 2.4579 -0.708583 0
M  V30 11671 H 1084.12 4.94907 -1.14146 0
M  V30 11672 H 1084.05 5.2298 0.616405 0
M  V30 11673 H 1086.54 3.7788 0.0390086 0
M  V30 11674 H 1086.85 7.70871 -0.54574 0
M  V30 11675 H 1085.2 6.93314 -0.483866 0
M  V30 11676 H 1088.39 4.68086 -0.0359374 0
M  V30 11677 H 1088.56 6.47294 -0.302359 0
M  V30 11678 N 1081.97 -0.145205 1.5693 0
M  V30 11679 C 1083.22 -0.857516 1.83447 0
M  V30 11680 C 1083.54 -1.81088 0.709739 0
M  V30 11681 O 1082.8 -1.9337 -0.301097 0
M  V30 11682 C 1083.1 -1.66391 3.16305 0
M  V30 11683 C 1082.76 -0.857171 4.42678 0
M  V30 11684 C 1081.43 -0.634611 4.76997 0
M  V30 11685 C 1083.78 -0.293105 5.20375 0
M  V30 11686 C 1081.11 0.162693 5.86474 0
M  V30 11687 C 1083.46 0.491248 6.3069 0
M  V30 11688 C 1082.12 0.724368 6.63558 0
M  V30 11689 H 1081.39 -0.313787 0.671281 0
M  V30 11690 H 1084.04 -0.121074 1.91117 0
M  V30 11691 H 1082.34 -2.47051 3.04094 0
M  V30 11692 H 1084.04 -2.21855 3.34038 0
M  V30 11693 H 1080.63 -1.0407 4.15773 0
M  V30 11694 H 1084.82 -0.452326 4.94234 0
M  V30 11695 H 1080.07 0.352788 6.10381 0
M  V30 11696 H 1084.25 0.935449 6.90089 0
M  V30 11697 H 1081.87 1.34403 7.48224 0
M  V30 11698 N 1083.45 -1.52049 -0.414609 0
M  V30 11699 C 1084.69 -1.66084 -1.16379 0
M  V30 11700 C 1085.03 -0.386932 -1.90306 0
M  V30 11701 O 1084.3 0.614441 -1.8454 0
M  V30 11702 C 1084.58 -2.87927 -2.16264 0
M  V30 11703 C 1084.44 -4.25353 -1.46269 0
M  V30 11704 C 1085.76 -3.05289 -3.16996 0
M  V30 11705 H 1082.88 -0.604414 -0.421726 0
M  V30 11706 H 1085.52 -1.8459 -0.450177 0
M  V30 11707 H 1083.67 -2.7228 -2.77121 0
M  V30 11708 H 1085.34 -4.52717 -0.885743 0
M  V30 11709 H 1083.58 -4.27006 -0.76472 0
M  V30 11710 H 1084.25 -5.06644 -2.19126 0
M  V30 11711 H 1086.73 -3.19798 -2.66212 0
M  V30 11712 H 1085.61 -3.92065 -3.84156 0
M  V30 11713 H 1085.87 -2.1836 -3.84411 0
M  V30 11714 N 1084.93 0.6715 -1.42579 0
M  V30 11715 C 1086.17 1.43366 -1.43436 0
M  V30 11716 C 1086.5 1.94131 -0.0517339 0
M  V30 11717 O 1085.78 1.71121 0.924548 0
M  V30 11718 C 1086.06 2.62832 -2.46154 0
M  V30 11719 C 1085.92 2.17677 -3.9362 0
M  V30 11720 C 1087.23 3.65049 -2.4582 0
M  V30 11721 H 1084.35 0.519967 -0.522306 0
M  V30 11722 H 1087 0.762849 -1.74013 0
M  V30 11723 H 1085.15 3.20062 -2.2021 0
M  V30 11724 H 1086.82 1.65588 -4.30556 0
M  V30 11725 H 1085.06 1.49219 -4.07328 0
M  V30 11726 H 1085.73 3.03503 -4.61075 0
M  V30 11727 H 1088.21 3.17541 -2.68899 0
M  V30 11728 H 1087.08 4.46213 -3.19664 0
M  V30 11729 H 1087.34 4.16401 -1.48536 0
M  V30 11730 N 1086.4 1.28806 0.908124 0
M  V30 11731 C 1087.63 1.19153 1.69146 0
M  V30 11732 C 1088.05 -0.249056 1.8715 0
M  V30 11733 O 1087.4 -1.16772 1.40251 0
M  V30 11734 C 1087.45 1.89167 3.08055 0
M  V30 11735 O 1087.18 3.27599 2.90879 0
M  V30 11736 C 1088.68 1.85886 4.02444 0
M  V30 11737 H 1085.9 0.413359 0.528559 0
M  V30 11738 H 1088.44 1.7003 1.13622 0
M  V30 11739 H 1086.6 1.42146 3.60379 0
M  V30 11740 H 1087.01 3.62743 3.78837 0
M  V30 11741 H 1088.48 2.39454 4.97359 0
M  V30 11742 H 1088.96 0.832483 4.31238 0
M  V30 11743 H 1089.57 2.32612 3.5605 0
M  V30 11744 N 1087.88 -1.11734 1.11145 0
M  V30 11745 C 1089.16 -1.79795 0.770261 0
M  V30 11746 C 1089.54 -1.97624 -0.742158 0
M  V30 11747 O 1088.89 -1.55847 -1.67105 0
M  V30 11748 C 1089.1 -3.13684 1.52982 0
M  V30 11749 C 1090.44 -3.88771 1.70711 0
M  V30 11750 O 1091.47 -3.23363 1.49381 0
M  V30 11751 O 1090.33 -5.06134 2.06132 0
M  V30 11752 H 1087.42 -0.778617 0.27872 0
M  V30 11753 H 1089.97 -1.18504 1.2147 0
M  V30 11754 H 1088.74 -2.96043 2.55879 0
M  V30 11755 H 1088.36 -3.82687 1.07873 0
M  V30 11756 N 1089.36 -0.901303 -1.29284 0
M  V30 11757 C 1090.61 -0.527 -1.95108 0
M  V30 11758 C 1090.93 0.930065 -1.71391 0
M  V30 11759 O 1090.2 1.65601 -1.04658 0
M  V30 11760 H 1088.78 -0.191903 -0.721929 0
M  V30 11761 H 1091.44 -1.14795 -1.57506 0
M  V30 11762 H 1090.54 -0.710945 -3.03895 0
M  V30 11763 N 1090.84 1.42931 -0.663954 0
M  V30 11764 C 1092.09 2.01284 -0.181379 0
M  V30 11765 C 1092.41 1.52708 1.21265 0
M  V30 11766 O 1091.68 0.744181 1.81215 0
M  V30 11767 H 1090.26 0.744248 -0.0640646 0
M  V30 11768 H 1092.92 1.74997 -0.858031 0
M  V30 11769 H 1092.01 3.11613 -0.174273 0
M  V30 11770 N 1092.32 0.406567 1.52266 0
M  V30 11771 C 1093.56 -0.171391 2.00971 0
M  V30 11772 C 1093.88 -1.46443 1.29668 0
M  V30 11773 O 1095.08 -2.12348 1.69176 0
M  V30 11774 C 1093.54 -0.35599 3.58135 0
M  V30 11775 C 1093.15 0.924803 4.38351 0
M  V30 11776 C 1094.89 -0.889378 4.15079 0
M  V30 11777 C 1092.8 0.707534 5.87152 0
M  V30 11778 H 1091.73 -0.0678253 0.750943 0
M  V30 11779 H 1094.38 0.531619 1.7563 0
M  V30 11780 H 1092.76 -1.12127 3.79794 0
M  V30 11781 H 1093.94 1.69603 4.28452 0
M  V30 11782 H 1092.25 1.38442 3.92712 0
M  V30 11783 H 1094.85 -1.06792 5.23927 0
M  V30 11784 H 1095.19 -1.86334 3.7227 0
M  V30 11785 H 1095.72 -0.183224 3.97378 0
M  V30 11786 H 1092.46 1.65299 6.34316 0
M  V30 11787 H 1091.98 -0.024446 5.99795 0
M  V30 11788 H 1093.66 0.348721 6.4606 0
M  V30 11789 N 1093.79 -1.57004 0.136909 0
M  V30 11790 C 1095.02 -2.00156 -0.523936 0
M  V30 11791 C 1095.44 -1.01688 -1.59075 0
M  V30 11792 O 1094.79 -0.0123678 -1.82496 0
M  V30 11793 C 1094.85 -3.4326 -1.13379 0
M  V30 11794 O 1094.57 -4.37963 -0.109598 0
M  V30 11795 C 1096.07 -4.01637 -1.87623 0
M  V30 11796 H 1093.29 -0.65681 -0.137263 0
M  V30 11797 H 1095.83 -2.03219 0.228522 0
M  V30 11798 H 1093.99 -3.4108 -1.83693 0
M  V30 11799 H 1094.4 -5.21555 -0.55503 0
M  V30 11800 H 1095.87 -5.03795 -2.25597 0
M  V30 11801 H 1096.35 -3.41781 -2.75831 0
M  V30 11802 H 1096.96 -4.07417 -1.22031 0
M  V30 11803 N 1095.27 0.136881 -1.57004 0
M  V30 11804 C 1096.69 0.489856 -1.51897 0
M  V30 11805 C 1096.89 1.82833 -0.847009 0
M  V30 11806 O 1095.94 2.48952 -0.421792 0
M  V30 11807 C 1097.26 0.490831 -2.96667 0
M  V30 11808 C 1098.81 0.575639 -3.07661 0
M  V30 11809 C 1099.28 0.607178 -4.53957 0
M  V30 11810 N 1100.77 0.66912 -4.58342 0
M  V30 11811 C 1101.51 0.714675 -5.68929 0
M  V30 11812 N 1101 0.718959 -6.89059 0
M  V30 11813 N 1102.8 0.756326 -5.56988 0
M  V30 11814 H 1094.95 -0.740347 -1.99079 0
M  V30 11815 H 1097.21 -0.271116 -0.908405 0
M  V30 11816 H 1096.92 -0.424648 -3.49127 0
M  V30 11817 H 1096.79 1.32512 -3.53158 0
M  V30 11818 H 1099.18 1.48154 -2.55215 0
M  V30 11819 H 1099.26 -0.285991 -2.54196 0
M  V30 11820 H 1098.9 -0.294604 -5.07045 0
M  V30 11821 H 1098.83 1.48544 -5.05215 0
M  V30 11822 H 1101.32 0.672697 -3.71864 0
M  V30 11823 H 1101.64 0.755848 -7.69095 0
M  V30 11824 H 1099.98 0.686671 -6.91599 0
M  V30 11825 H 1103.17 0.750219 -4.62049 0
M  V30 11826 H 1103.34 0.788363 -6.43186 0
M  V30 11827 N 1096.75 1.52266 0.40654 0
M  V30 11828 C 1098 1.66699 1.15496 0
M  V30 11829 C 1098.33 0.397019 1.90098 0
M  V30 11830 O 1097.6 -0.604646 1.84863 0
M  V30 11831 C 1097.89 2.8907 2.14734 0
M  V30 11832 C 1097.74 4.26123 1.44012 0
M  V30 11833 C 1099.06 3.06966 3.15373 0
M  V30 11834 H 1096.18 0.606642 0.418515 0
M  V30 11835 H 1098.82 1.84826 0.440381 0
M  V30 11836 H 1096.97 2.73745 2.75673 0
M  V30 11837 H 1098.64 4.5318 0.861722 0
M  V30 11838 H 1096.89 4.27406 0.742064 0
M  V30 11839 H 1097.56 5.07799 2.16436 0
M  V30 11840 H 1100.03 3.21205 2.64512 0
M  V30 11841 H 1098.91 3.94097 3.82072 0
M  V30 11842 H 1099.17 2.20395 3.83247 0
M  V30 11843 N 1098.23 -0.663929 1.42933 0
M  V30 11844 C 1099.46 -1.44981 1.47187 0
M  V30 11845 C 1099.87 -1.89009 0.0850091 0
M  V30 11846 O 1099.21 -1.59413 -0.912855 0
M  V30 11847 C 1099.27 -2.72409 2.34592 0
M  V30 11848 C 1098.94 -2.5039 3.82301 0
M  V30 11849 C 1099.93 -2.14295 4.73681 0
M  V30 11850 C 1097.62 -2.65047 4.2668 0
M  V30 11851 C 1099.61 -1.93139 6.07434 0
M  V30 11852 C 1097.3 -2.43506 5.60489 0
M  V30 11853 C 1098.3 -2.07607 6.50683 0
M  V30 11854 O 1097.98 -1.86284 7.82019 0
M  V30 11855 H 1097.72 -0.452238 0.502451 0
M  V30 11856 H 1100.27 -0.822228 1.88225 0
M  V30 11857 H 1098.5 -3.37689 1.88422 0
M  V30 11858 H 1100.19 -3.34327 2.30174 0
M  V30 11859 H 1100.96 -2.02557 4.40676 0
M  V30 11860 H 1096.83 -2.91966 3.56759 0
M  V30 11861 H 1100.38 -1.65042 6.77796 0
M  V30 11862 H 1096.28 -2.54844 5.93064 0
M  V30 11863 H 1097.04 -2.00795 7.93488 0
M  V30 11864 N 1099.71 -1.29285 -0.901281 0
M  V30 11865 C 1101.12 -1.15499 -1.46686 0
M  V30 11866 C 1101.47 0.250446 -1.94595 0
M  V30 11867 O 1100.59 1.14581 -1.83576 0
M  V30 11868 C 1101.19 -2.0906 -2.66607 0
M  V30 11869 C 1099.75 -1.99301 -3.19306 0
M  V30 11870 C 1098.89 -2.00079 -1.91999 0
M  V30 11871 H 1101.85 -1.41793 -0.712773 0
M  V30 11872 H 1101.87 -1.6619 -3.42288 0
M  V30 11873 H 1101.38 -3.11341 -2.31707 0
M  V30 11874 H 1099.48 -1.00103 -3.58901 0
M  V30 11875 H 1099.59 -2.86885 -3.8371 0
M  V30 11876 H 1097.96 -1.44655 -2.09636 0
M  V30 11877 H 1098.74 -3.04061 -1.59379 0
M  V30 11878 N 1101.18 1.11143 -1.11736 0
M  V30 11879 C 1102.13 2.17274 -0.778513 0
M  V30 11880 C 1103.1 1.64186 0.251405 0
M  V30 11881 O 1104.29 1.90373 0.127629 0
M  V30 11882 C 1101.43 3.44324 -0.231246 0
M  V30 11883 C 1100.54 4.114 -1.31809 0
M  V30 11884 C 1099.67 5.26146 -0.73104 0
M  V30 11885 C 1098.71 5.85112 -1.79752 0
M  V30 11886 N 1097.85 6.91247 -1.22973 0
M  V30 11887 H 1102.69 2.45603 -1.68769 0
M  V30 11888 H 1100.23 1.20565 -0.842759 0
M  V30 11889 H 1102.19 4.1707 0.104045 0
M  V30 11890 H 1100.82 3.16369 0.641119 0
M  V30 11891 H 1099.87 3.36697 -1.77029 0
M  V30 11892 H 1101.18 4.51278 -2.12485 0
M  V30 11893 H 1100.33 6.05713 -0.345987 0
M  V30 11894 H 1099.07 4.87583 0.107 0
M  V30 11895 H 1098.08 5.0422 -2.19185 0
M  V30 11896 H 1099.3 6.25741 -2.63865 0
M  V30 11897 H 1097.25 6.54696 -0.41339 0
M  V30 11898 H 1097.17 7.29796 -1.97316 0
M  V30 11899 H 1098.43 7.74611 -0.87167 0
M  V30 11900 N 1102.66 0.908147 1.28804 0
M  V30 11901 C 1103.57 0.397167 2.31214 0
M  V30 11902 C 1104.59 -0.512352 1.66286 0
M  V30 11903 O 1105.76 -0.399893 1.9739 0
M  V30 11904 C 1102.83 -0.359522 3.44831 0
M  V30 11905 C 1101.89 0.582539 4.25329 0
M  V30 11906 C 1101.12 -0.138133 5.33521 0
M  V30 11907 O 1101.35 -1.36076 5.53931 0
M  V30 11908 O 1100.28 0.523682 5.99618 0
M  V30 11909 H 1104.11 1.247 2.76918 0
M  V30 11910 H 1101.69 0.672766 1.33395 0
M  V30 11911 H 1103.57 -0.787098 4.13984 0
M  V30 11912 H 1102.25 -1.18528 3.01219 0
M  V30 11913 H 1101.16 1.0594 3.58786 0
M  V30 11914 H 1102.49 1.37495 4.72605 0
M  V30 11915 N 1104.14 -1.42577 0.671525 0
M  V30 11916 C 1105.1 -2.292 0.000392482 0
M  V30 11917 C 1106.1 -1.43158 -0.732294 0
M  V30 11918 O 1107.29 -1.64583 -0.570789 0
M  V30 11919 C 1104.43 -3.25591 -1.01013 0
M  V30 11920 H 1105.62 -2.90037 0.762783 0
M  V30 11921 H 1103.17 -1.50162 0.433703 0
M  V30 11922 H 1103.91 -2.69685 -1.80112 0
M  V30 11923 H 1103.69 -3.89049 -0.488183 0
M  V30 11924 H 1105.18 -3.90561 -1.47824 0
M  V30 11925 N 1105.62 -0.414636 -1.52048 0
M  V30 11926 C 1106.87 0.159034 -2.01473 0
M  V30 11927 C 1107.19 1.45176 -1.30188 0
M  V30 11928 O 1106.46 1.91134 -0.429469 0
M  V30 11929 H 1105.04 0.0617604 -0.744443 0
M  V30 11930 H 1107.7 -0.552141 -1.86916 0
M  V30 11931 H 1106.8 0.351217 -3.10118 0
M  V30 11932 N 1107.1 1.56929 -0.145233 0
M  V30 11933 C 1108.01 2.20238 0.808219 0
M  V30 11934 C 1109.02 1.18615 1.27304 0
M  V30 11935 O 1110.2 1.51186 1.3306 0
M  V30 11936 C 1107.26 2.81016 2.03055 0
M  V30 11937 C 1106.32 3.97759 1.61512 0
M  V30 11938 C 1105.56 4.55628 2.77918 0
M  V30 11939 O 1105.78 4.12378 3.94082 0
M  V30 11940 O 1104.71 5.45917 2.53492 0
M  V30 11941 H 1108.54 3.02221 0.299314 0
M  V30 11942 H 1106.13 1.49176 0.0817051 0
M  V30 11943 H 1108.01 3.19652 2.74592 0
M  V30 11944 H 1106.68 2.02047 2.52901 0
M  V30 11945 H 1105.59 3.63842 0.870033 0
M  V30 11946 H 1106.92 4.78242 1.16383 0
M  V30 11947 N 1108.58 -0.128553 1.57075 0
M  V30 11948 C 1109.52 -1.17719 2.00611 0
M  V30 11949 C 1110.52 -1.43423 0.90146 0
M  V30 11950 O 1111.72 -1.43498 1.08666 0
M  V30 11951 H 1108.1 -0.396683 0.638864 0
M  V30 11952 H 1110.07 -0.783437 2.87932 0
M  V30 11953 C 1108.82 -2.49826 2.41831 0
M  V30 11954 H 1108.14 -2.30883 3.26394 0
M  V30 11955 H 1109.58 -3.21784 2.761 0
M  V30 11956 C 1108.04 -3.11712 1.27816 0
M  V30 11957 O 1108.57 -3.9736 0.588917 0
M  V30 11958 N 1106.78 -2.71442 1.03767 0
M  V30 11959 H 1106.32 -2.01891 1.59994 0
M  V30 11960 H 1106.28 -3.1318 0.276743 0
M  V30 11961 N 1110.05 -1.5248 -0.398459 0
M  V30 11962 C 1111.3 -1.68262 -1.14277 0
M  V30 11963 C 1111.65 -0.412722 -1.87921 0
M  V30 11964 O 1110.95 0.593257 -1.82184 0
M  V30 11965 C 1111.14 -2.85038 -2.15611 0
M  V30 11966 C 1110.97 -4.23262 -1.51919 0
M  V30 11967 C 1109.74 -4.88627 -1.28732 0
M  V30 11968 C 1111.94 -5.04986 -0.974349 0
M  V30 11969 N 1109.92 -6.10857 -0.610455 0
M  V30 11970 C 1111.29 -6.18542 -0.425008 0
M  V30 11971 C 1113.35 -4.90243 -0.869843 0
M  V30 11972 C 1112.05 -7.18968 0.218609 0
M  V30 11973 C 1114.08 -5.90913 -0.240063 0
M  V30 11974 C 1113.44 -7.03767 0.298552 0
M  V30 11975 H 1109.54 -0.669275 -0.404469 0
M  V30 11976 H 1112.12 -1.8981 -0.433635 0
M  V30 11977 H 1110.29 -2.65087 -2.83872 0
M  V30 11978 H 1112.02 -2.89804 -2.82481 0
M  V30 11979 H 1108.78 -4.47179 -1.55975 0
M  V30 11980 H 1109.2 -6.76386 -0.288338 0
M  V30 11981 H 1113.84 -4.0321 -1.27207 0
M  V30 11982 H 1111.56 -8.05618 0.632874 0
M  V30 11983 H 1115.15 -5.81578 -0.160576 0
M  V30 11984 H 1114.03 -7.80329 0.778185 0
M  V30 11985 N 1111.53 0.65634 -1.43283 0
M  V30 11986 C 1112.46 1.78184 -1.44164 0
M  V30 11987 C 1113.48 1.59249 -0.338177 0
M  V30 11988 O 1114.67 1.68027 -0.60242 0
M  V30 11989 C 1111.77 3.15566 -1.23577 0
M  V30 11990 C 1110.94 3.61187 -2.46704 0
M  V30 11991 C 1110 4.77361 -2.21388 0
M  V30 11992 O 1109.02 4.8696 -2.94718 0
M  V30 11993 N 1110.23 5.67351 -1.22855 0
M  V30 11994 H 1112.99 1.77907 -2.41183 0
M  V30 11995 H 1110.55 0.840076 -1.38399 0
M  V30 11996 H 1112.54 3.90968 -1.04529 0
M  V30 11997 H 1111.11 3.10633 -0.350155 0
M  V30 11998 H 1110.33 2.76263 -2.81198 0
M  V30 11999 H 1111.62 3.88413 -3.28652 0
M  V30 12000 H 1111.02 5.62265 -0.622417 0
M  V30 12001 H 1109.58 6.42487 -1.09791 0
M  V30 12002 N 1113.01 1.29761 0.894412 0
M  V30 12003 C 1113.92 1.1724 2.03204 0
M  V30 12004 C 1114.94 0.0944452 1.73743 0
M  V30 12005 O 1116.11 0.307549 1.99038 0
M  V30 12006 C 1113.18 0.855416 3.35981 0
M  V30 12007 C 1112.24 2.01777 3.78926 0
M  V30 12008 C 1111.47 1.71581 5.05367 0
M  V30 12009 O 1111.69 0.639245 5.66807 0
M  V30 12010 O 1110.63 2.56539 5.44492 0
M  V30 12011 H 1114.45 2.12787 2.16692 0
M  V30 12012 H 1112.04 1.09264 1.0189 0
M  V30 12013 H 1113.92 0.693429 4.15656 0
M  V30 12014 H 1112.6 -0.0702195 3.23624 0
M  V30 12015 H 1111.5 2.23502 2.99996 0
M  V30 12016 H 1112.84 2.92479 3.95875 0
M  V30 12017 N 1114.49 -1.10549 1.12324 0
M  V30 12018 C 1115.44 -2.18944 0.785248 0
M  V30 12019 C 1116.43 -1.67867 -0.227389 0
M  V30 12020 O 1117.64 -1.79796 -0.0857162 0
M  V30 12021 H 1114.01 -0.713976 0.236098 0
M  V30 12022 H 1115.98 -2.44692 1.70788 0
M  V30 12023 C 1114.73 -3.46765 0.25485 0
M  V30 12024 H 1114.05 -3.86428 1.02534 0
M  V30 12025 H 1115.49 -4.23962 0.0566526 0
M  V30 12026 C 1113.95 -3.21185 -1.01695 0
M  V30 12027 O 1114.48 -3.42745 -2.09497 0
M  V30 12028 N 1112.69 -2.7486 -0.943423 0
M  V30 12029 H 1112.24 -2.57515 -0.0660366 0
M  V30 12030 H 1112.19 -2.58122 -1.795 0
M  V30 12031 N 1115.97 -0.914965 -1.28321 0
M  V30 12032 C 1117.38 -0.59512 -1.76961 0
M  V30 12033 C 1117.73 0.88958 -1.74874 0
M  V30 12034 O 1116.85 1.6959 -1.34418 0
M  V30 12035 C 1117.45 -1.07353 -3.21342 0
M  V30 12036 C 1116.01 -0.804577 -3.677 0
M  V30 12037 C 1115.15 -1.23955 -2.48053 0
M  V30 12038 H 1118.1 -1.0961 -1.14767 0
M  V30 12039 H 1118.13 -0.415506 -3.78225 0
M  V30 12040 H 1117.64 -2.15413 -3.22829 0
M  V30 12041 H 1115.74 0.26277 -3.71672 0
M  V30 12042 H 1115.85 -1.41317 -4.57784 0
M  V30 12043 H 1114.22 -0.658274 -2.46046 0
M  V30 12044 H 1115 -2.32853 -2.52258 0
M  V30 12045 N 1117.44 1.42219 -0.679077 0
M  V30 12046 C 1118.35 2.346 -0.00345919 0
M  V30 12047 C 1119.37 1.55327 0.784181 0
M  V30 12048 O 1120.55 1.87878 0.725524 0
M  V30 12049 C 1117.61 3.33905 0.933194 0
M  V30 12050 C 1116.67 4.29073 0.139607 0
M  V30 12051 C 1115.9 5.23634 1.03165 0
M  V30 12052 O 1116.13 5.23234 2.27119 0
M  V30 12053 O 1115.06 5.99901 0.490159 0
M  V30 12054 H 1118.89 2.9392 -0.764525 0
M  V30 12055 H 1116.47 1.42794 -0.439329 0
M  V30 12056 H 1118.35 3.949 1.47077 0
M  V30 12057 H 1117.03 2.77052 1.67404 0
M  V30 12058 H 1115.94 3.71478 -0.442177 0
M  V30 12059 H 1117.27 4.88979 -0.562214 0
M  V30 12060 N 1118.92 0.422693 1.51826 0
M  V30 12061 C 1120.15 -0.147744 2.06372 0
M  V30 12062 C 1120.56 -1.37714 1.29152 0
M  V30 12063 O 1119.92 -1.7917 0.347046 0
M  V30 12064 C 1119.97 -0.484642 3.58237 0
M  V30 12065 O 1119.69 0.695944 4.32537 0
M  V30 12066 C 1121.19 -1.10734 4.29247 0
M  V30 12067 H 1118.41 -0.0144047 0.670845 0
M  V30 12068 H 1120.96 0.597558 1.95575 0
M  V30 12069 H 1119.11 -1.17984 3.68997 0
M  V30 12070 H 1119.53 0.411471 5.22884 0
M  V30 12071 H 1121 -1.29318 5.36639 0
M  V30 12072 H 1121.48 -2.08429 3.86593 0
M  V30 12073 H 1122.08 -0.451958 4.22892 0
M  V30 12074 N 1120.4 -1.5685 0.153553 0
M  V30 12075 C 1121.63 -2.0041 -0.501949 0
M  V30 12076 C 1122.04 -1.03272 -1.58529 0
M  V30 12077 O 1121.38 -0.0227479 -1.83686 0
M  V30 12078 C 1121.44 -3.40402 -1.15613 0
M  V30 12079 C 1121.11 -4.56486 -0.216596 0
M  V30 12080 C 1122.1 -5.16894 0.558267 0
M  V30 12081 C 1119.79 -5.02162 -0.117592 0
M  V30 12082 C 1121.78 -6.21392 1.41951 0
M  V30 12083 C 1119.47 -6.06514 0.747255 0
M  V30 12084 C 1120.47 -6.65999 1.51441 0
M  V30 12085 O 1120.16 -7.6833 2.36483 0
M  V30 12086 H 1119.89 -0.66247 -0.134574 0
M  V30 12087 H 1122.44 -2.03908 0.247086 0
M  V30 12088 H 1120.67 -3.33762 -1.95294 0
M  V30 12089 H 1122.36 -3.68028 -1.71202 0
M  V30 12090 H 1123.13 -4.825 0.491851 0
M  V30 12091 H 1119.01 -4.55586 -0.704462 0
M  V30 12092 H 1122.55 -6.67751 2.01877 0
M  V30 12093 H 1118.45 -6.40335 0.81494 0
M  V30 12094 H 1119.21 -7.85578 2.29803 0
M  V30 12095 N 1121.88 0.120221 -1.57141 0
M  V30 12096 C 1122.79 1.16641 -2.03549 0
M  V30 12097 C 1123.8 1.45407 -0.955656 0
M  V30 12098 O 1124.98 1.56547 -1.26708 0
M  V30 12099 C 1122.04 2.4734 -2.42948 0
M  V30 12100 C 1121.11 2.25982 -3.65008 0
M  V30 12101 C 1120.34 3.50449 -4.02518 0
M  V30 12102 O 1120.56 4.57706 -3.40384 0
M  V30 12103 O 1119.5 3.41524 -4.95626 0
M  V30 12104 H 1123.32 0.802323 -2.9291 0
M  V30 12105 H 1120.91 0.330927 -1.45689 0
M  V30 12106 H 1122.79 3.24348 -2.69029 0
M  V30 12107 H 1121.46 2.83225 -1.56733 0
M  V30 12108 H 1120.37 1.46837 -3.44078 0
M  V30 12109 H 1121.7 1.95002 -4.51924 0
M  V30 12110 N 1123.36 1.52689 0.390367 0
M  V30 12111 C 1124.63 1.58246 1.14968 0
M  V30 12112 C 1125.01 0.374808 2.07746 0
M  V30 12113 O 1124.36 -0.636969 2.19442 0
M  V30 12114 C 1124.57 2.92059 1.91056 0
M  V30 12115 C 1125.92 3.45745 2.46466 0
M  V30 12116 O 1126.94 2.93924 2.01214 0
M  V30 12117 O 1125.8 4.3628 3.29122 0
M  V30 12118 H 1122.9 0.638189 0.52597 0
M  V30 12119 H 1125.44 1.65024 0.39563 0
M  V30 12120 H 1124.21 3.71399 1.23201 0
M  V30 12121 H 1123.84 2.8866 2.73425 0
M  V30 12122 N 1124.83 -0.648732 1.43629 0
M  V30 12123 C 1126.06 -1.44117 1.49148 0
M  V30 12124 C 1126.48 -1.87767 0.111952 0
M  V30 12125 O 1125.84 -1.57655 -0.895249 0
M  V30 12126 C 1125.89 -2.64938 2.44623 0
M  V30 12127 O 1124.99 -3.64155 1.93559 0
M  V30 12128 H 1124.34 -0.431933 0.504312 0
M  V30 12129 H 1126.87 -0.793439 1.88589 0
M  V30 12130 H 1126.88 -3.12698 2.62076 0
M  V30 12131 H 1125.55 -2.3251 3.44836 0
M  V30 12132 H 1124.13 -3.23322 1.85789 0
M  V30 12133 N 1126.31 -1.30234 -0.887518 0
M  V30 12134 C 1127.56 -1.1891 -1.6391 0
M  V30 12135 C 1127.89 0.256749 -1.92798 0
M  V30 12136 O 1127.14 1.20047 -1.54555 0
M  V30 12137 C 1127.44 -1.96046 -2.98832 0
M  V30 12138 C 1127.11 -3.45683 -2.89507 0
M  V30 12139 C 1125.77 -3.86489 -2.8667 0
M  V30 12140 C 1128.12 -4.40983 -2.7782 0
M  V30 12141 C 1125.45 -5.2089 -2.69982 0
M  V30 12142 C 1127.8 -5.75489 -2.6267 0
M  V30 12143 C 1126.47 -6.15537 -2.58207 0
M  V30 12144 H 1125.74 -0.435123 -0.599791 0
M  V30 12145 H 1128.38 -1.61308 -1.03209 0
M  V30 12146 H 1126.69 -1.46275 -3.6347 0
M  V30 12147 H 1128.38 -1.84678 -3.55942 0
M  V30 12148 H 1124.97 -3.13255 -2.92523 0
M  V30 12149 H 1129.16 -4.10401 -2.79079 0
M  V30 12150 H 1124.41 -5.51014 -2.6494 0
M  V30 12151 H 1128.59 -6.48973 -2.526 0
M  V30 12152 H 1126.22 -7.19627 -2.45034 0
M  V30 12153 N 1127.79 1.09952 -1.12909 0
M  V30 12154 C 1129.02 1.8552 -0.909163 0
M  V30 12155 C 1129.43 1.81173 0.545253 0
M  V30 12156 O 1128.77 1.20223 1.38896 0
M  V30 12157 C 1128.83 3.34693 -1.31228 0
M  V30 12158 C 1128.5 3.62794 -2.77902 0
M  V30 12159 C 1129.49 3.58973 -3.76078 0
M  V30 12160 C 1127.18 3.91311 -3.1493 0
M  V30 12161 C 1129.17 3.83271 -5.09296 0
M  V30 12162 C 1126.86 4.15265 -4.48328 0
M  V30 12163 C 1127.86 4.11236 -5.4532 0
M  V30 12164 O 1127.55 4.34576 -6.76313 0
M  V30 12165 H 1127.28 0.59303 -0.324486 0
M  V30 12166 H 1129.83 1.39878 -1.5041 0
M  V30 12167 H 1128.06 3.81016 -0.660573 0
M  V30 12168 H 1129.75 3.9166 -1.06569 0
M  V30 12169 H 1130.52 3.36974 -3.48817 0
M  V30 12170 H 1126.4 3.93575 -2.40041 0
M  V30 12171 H 1129.94 3.80041 -5.84991 0
M  V30 12172 H 1125.84 4.36743 -4.75316 0
M  V30 12173 H 1126.61 4.52065 -6.82334 0
M  V30 12174 N 1129.27 0.921757 1.27833 0
M  V30 12175 C 1130.22 0.414838 2.27041 0
M  V30 12176 C 1131.19 -0.515045 1.57913 0
M  V30 12177 O 1132.37 -0.435499 1.85763 0
M  V30 12178 C 1129.51 -0.331744 3.43502 0
M  V30 12179 C 1128.62 0.631565 4.27358 0
M  V30 12180 C 1127.76 -0.134265 5.3103 0
M  V30 12181 C 1126.8 0.822138 6.06554 0
M  V30 12182 N 1125.93 0.0893149 7.02043 0
M  V30 12183 H 1130.77 1.26585 2.69778 0
M  V30 12184 H 1128.31 0.635488 1.32665 0
M  V30 12185 H 1130.27 -0.780866 4.09827 0
M  V30 12186 H 1128.9 -1.14704 3.01733 0
M  V30 12187 H 1127.95 1.19922 3.61003 0
M  V30 12188 H 1129.26 1.36274 4.79824 0
M  V30 12189 H 1128.42 -0.643579 6.03277 0
M  V30 12190 H 1127.16 -0.898443 4.79353 0
M  V30 12191 H 1126.16 1.34275 5.33151 0
M  V30 12192 H 1127.39 1.586 6.6032 0
M  V30 12193 H 1125.33 -0.656725 6.52704 0
M  V30 12194 H 1125.25 0.760167 7.52169 0
M  V30 12195 H 1126.52 -0.399541 7.78475 0
M  V30 12196 N 1130.75 -1.41857 0.686609 0
M  V30 12197 C 1132.16 -1.55549 0.357288 0
M  V30 12198 C 1132.36 -1.66394 -1.13646 0
M  V30 12199 O 1131.42 -1.63739 -1.92213 0
M  V30 12200 C 1132.73 -2.79938 1.09796 0
M  V30 12201 C 1134.28 -2.93724 1.08143 0
M  V30 12202 C 1134.75 -4.20989 1.80367 0
M  V30 12203 N 1136.25 -4.27927 1.77293 0
M  V30 12204 C 1136.98 -5.2524 2.30022 0
M  V30 12205 N 1136.48 -6.28636 2.91185 0
M  V30 12206 N 1138.27 -5.17118 2.20329 0
M  V30 12207 H 1130.42 -1.33063 1.65554 0
M  V30 12208 H 1132.68 -0.641335 0.698135 0
M  V30 12209 H 1132.39 -2.78104 2.15293 0
M  V30 12210 H 1132.26 -3.71188 0.670763 0
M  V30 12211 H 1134.65 -2.9508 0.0347554 0
M  V30 12212 H 1134.73 -2.03673 1.54761 0
M  V30 12213 H 1134.38 -4.20395 2.85009 0
M  V30 12214 H 1134.31 -5.09997 1.3119 0
M  V30 12215 H 1136.8 -3.53838 1.32692 0
M  V30 12216 H 1137.11 -6.99265 3.29011 0
M  V30 12217 H 1135.45 -6.29164 2.95259 0
M  V30 12218 H 1138.65 -4.35265 1.72226 0
M  V30 12219 H 1138.82 -5.92792 2.61728 0
M  V30 12220 N 1132.22 -0.430739 -1.51599 0
M  V30 12221 C 1133.45 0.139197 -2.06932 0
M  V30 12222 C 1133.87 1.3626 -1.29672 0
M  V30 12223 O 1133.23 1.78219 -0.332836 0
M  V30 12224 C 1133.28 0.446593 -3.57824 0
M  V30 12225 O 1132.38 1.53414 -3.82803 0
M  V30 12226 H 1131.73 0.00475812 -0.663983 0
M  V30 12227 H 1134.26 -0.610171 -1.9529 0
M  V30 12228 H 1134.27 0.698972 -4.01968 0
M  V30 12229 H 1132.94 -0.447613 -4.13484 0
M  V30 12230 H 1131.52 1.27224 -3.50526 0
M  V30 12231 N 1133.7 1.56767 -0.161869 0
M  V30 12232 C 1134.63 2.20511 0.767918 0
M  V30 12233 C 1135.61 1.15783 1.24612 0
M  V30 12234 O 1136.8 1.44179 1.301 0
M  V30 12235 C 1133.93 2.83844 2.00125 0
M  V30 12236 C 1132.88 3.94528 1.65926 0
M  V30 12237 C 1132.21 4.44866 2.96646 0
M  V30 12238 C 1133.51 5.14583 0.894497 0
M  V30 12239 H 1135.2 2.98464 0.236607 0
M  V30 12240 H 1132.75 1.43561 0.112363 0
M  V30 12241 H 1134.7 3.27109 2.65664 0
M  V30 12242 H 1133.43 2.03246 2.55654 0
M  V30 12243 H 1132.08 3.51904 1.02759 0
M  V30 12244 H 1131.73 3.61071 3.50196 0
M  V30 12245 H 1131.43 5.19531 2.74521 0
M  V30 12246 H 1132.96 4.90812 3.6323 0
M  V30 12247 H 1134.37 5.54601 1.45228 0
M  V30 12248 H 1132.77 5.95105 0.772636 0
M  V30 12249 H 1133.84 4.84773 -0.110986 0
M  V30 12250 N 1135.18 -0.111886 1.57202 0
M  V30 12251 C 1136.46 -0.849125 1.76208 0
M  V30 12252 C 1136.84 -1.97735 0.73919 0
M  V30 12253 O 1136.19 -2.27283 -0.235523 0
M  V30 12254 C 1136.4 -1.35924 3.21443 0
M  V30 12255 C 1137.74 -1.80874 3.84148 0
M  V30 12256 O 1138.77 -1.45587 3.25089 0
M  V30 12257 O 1137.63 -2.46065 4.87969 0
M  V30 12258 H 1134.72 -0.403761 0.721738 0
M  V30 12259 H 1137.27 -0.0950726 1.69433 0
M  V30 12260 H 1136.04 -0.550113 3.87414 0
M  V30 12261 H 1135.66 -2.17579 3.32784 0
M  V30 12262 N 1136.66 -1.52894 -0.382264 0
M  V30 12263 C 1137.61 -1.78799 -1.48774 0
M  V30 12264 C 1138.6 -0.65624 -1.56173 0
M  V30 12265 O 1139.81 -0.838856 -1.59258 0
M  V30 12266 H 1136.18 -0.565855 -0.49529 0
M  V30 12267 H 1138.15 -2.7136 -1.24122 0
M  V30 12268 C 1136.9 -1.97987 -2.85826 0
M  V30 12269 H 1136.22 -2.84505 -2.80886 0
M  V30 12270 H 1137.66 -2.20099 -3.62398 0
M  V30 12271 C 1136.12 -0.75427 -3.28348 0
M  V30 12272 O 1136.65 0.0650749 -4.01647 0
M  V30 12273 N 1134.86 -0.582457 -2.84703 0
M  V30 12274 H 1134.41 -1.25034 -2.2522 0
M  V30 12275 H 1134.36 0.236208 -3.13511 0
M  V30 12276 N 1138.14 0.641106 -1.43971 0
M  V30 12277 C 1139.41 1.39897 -1.36704 0
M  V30 12278 C 1139.79 2.1109 -0.0208051 0
M  V30 12279 O 1139.14 2.05638 0.99625 0
M  V30 12280 C 1139.35 2.37366 -2.55849 0
M  V30 12281 C 1140.7 3.01 -2.99473 0
M  V30 12282 O 1141.72 2.47692 -2.55982 0
M  V30 12283 O 1140.58 3.9768 -3.74851 0
M  V30 12284 H 1137.68 0.625623 -0.540855 0
M  V30 12285 H 1140.22 0.666997 -1.56042 0
M  V30 12286 H 1139 1.8379 -3.45452 0
M  V30 12287 H 1138.62 3.17995 -2.38673 0
M  V30 12288 N 1139.62 1.30703 0.880598 0
M  V30 12289 C 1140.56 1.17369 2.00817 0
M  V30 12290 C 1141.56 0.0845159 1.69189 0
M  V30 12291 O 1142.76 0.245673 1.78316 0
M  V30 12292 H 1139.14 0.363107 0.658527 0
M  V30 12293 H 1141.11 2.12789 2.09197 0
M  V30 12294 C 1139.86 0.886851 3.362 0
M  V30 12295 H 1139.18 1.71704 3.61051 0
M  V30 12296 H 1140.62 0.83368 4.15723 0
M  V30 12297 C 1139.08 -0.410293 3.34392 0
M  V30 12298 O 1139.61 -1.43044 3.75368 0
M  V30 12299 N 1137.82 -0.423023 2.87505 0
M  V30 12300 H 1137.36 0.407637 2.54354 0
M  V30 12301 H 1137.32 -1.29086 2.86678 0
M  V30 12302 N 1141.09 -1.09351 1.1349 0
M  V30 12303 C 1142.32 -1.85036 0.918989 0
M  V30 12304 C 1142.73 -1.8146 -0.535638 0
M  V30 12305 O 1142.07 -1.20958 -1.38256 0
M  V30 12306 C 1142.14 -3.33992 1.33001 0
M  V30 12307 C 1141.8 -3.61315 2.79822 0
M  V30 12308 C 1142.8 -3.56973 3.77976 0
M  V30 12309 C 1140.48 -3.89636 3.17001 0
M  V30 12310 C 1142.48 -3.80564 5.11321 0
M  V30 12311 C 1140.16 -4.12882 4.50524 0
M  V30 12312 C 1141.16 -4.08338 5.47494 0
M  V30 12313 O 1140.85 -4.30983 6.78608 0
M  V30 12314 H 1140.58 -0.591301 0.327627 0
M  V30 12315 H 1143.14 -1.39078 1.5115 0
M  V30 12316 H 1141.37 -3.8066 0.68077 0
M  V30 12317 H 1143.05 -3.9109 1.08645 0
M  V30 12318 H 1143.82 -3.3512 3.50599 0
M  V30 12319 H 1139.7 -3.92297 2.42124 0
M  V30 12320 H 1143.24 -3.76933 5.86998 0
M  V30 12321 H 1139.14 -4.34216 4.77626 0
M  V30 12322 H 1139.91 -4.4844 6.84722 0
M  V30 12323 N 1142.57 -0.928524 -1.27343 0
M  V30 12324 C 1143.82 -0.570235 -1.94618 0
M  V30 12325 C 1144.15 0.886381 -1.72792 0
M  V30 12326 O 1143.43 1.63242 -1.05747 0
M  V30 12327 C 1143.71 -0.897964 -3.48724 0
M  V30 12328 C 1143.56 -2.40839 -3.7989 0
M  V30 12329 C 1144.88 -0.404429 -4.38238 0
M  V30 12330 H 1142 -0.208645 -0.70685 0
M  V30 12331 H 1144.64 -1.16045 -1.50444 0
M  V30 12332 H 1142.79 -0.395679 -3.8648 0
M  V30 12333 H 1144.46 -2.98243 -3.51921 0
M  V30 12334 H 1142.71 -2.85723 -3.26412 0
M  V30 12335 H 1143.38 -2.58823 -4.8756 0
M  V30 12336 H 1145.85 -0.834918 -4.07637 0
M  V30 12337 H 1144.73 -0.662684 -5.44885 0
M  V30 12338 H 1144.99 0.695507 -4.36595 0
M  V30 12339 N 1144.05 1.41491 -0.694123 0
M  V30 12340 C 1145.3 2.01252 -0.224477 0
M  V30 12341 C 1145.62 1.54965 1.17541 0
M  V30 12342 O 1144.88 0.751041 1.80715 0
M  V30 12343 C 1145.18 3.56666 -0.228869 0
M  V30 12344 C 1144.84 4.22458 -1.57608 0
M  V30 12345 C 1143.51 4.40144 -1.94491 0
M  V30 12346 C 1145.86 4.5936 -2.46247 0
M  V30 12347 C 1143.19 4.92009 -3.196 0
M  V30 12348 C 1145.54 5.12615 -3.70687 0
M  V30 12349 C 1144.2 5.28512 -4.07715 0
M  V30 12350 H 1143.47 0.736433 -0.0821419 0
M  V30 12351 H 1146.12 1.69408 -0.892926 0
M  V30 12352 H 1144.42 3.88292 0.523128 0
M  V30 12353 H 1146.12 4.00712 0.152019 0
M  V30 12354 H 1142.71 4.09065 -1.27921 0
M  V30 12355 H 1146.9 4.45352 -2.19032 0
M  V30 12356 H 1142.15 5.02502 -3.48285 0
M  V30 12357 H 1146.33 5.4015 -4.39558 0
M  V30 12358 H 1143.95 5.68464 -5.0473 0
M  V30 12359 N 1145.53 0.438773 1.51369 0
M  V30 12360 C 1146.76 -0.125847 2.06517 0
M  V30 12361 C 1147.17 -1.36336 1.30606 0
M  V30 12362 O 1146.53 -1.78792 0.36603 0
M  V30 12363 C 1146.58 -0.446619 3.5873 0
M  V30 12364 O 1146.3 0.741781 4.31775 0
M  V30 12365 C 1147.8 -1.06175 4.30397 0
M  V30 12366 H 1145.02 -0.00728868 0.67096 0
M  V30 12367 H 1147.56 0.618267 1.9493 0
M  V30 12368 H 1145.72 -1.14064 3.70227 0
M  V30 12369 H 1146.13 0.466907 5.22418 0
M  V30 12370 H 1147.61 -1.23619 5.3798 0
M  V30 12371 H 1148.08 -2.04317 3.88782 0
M  V30 12372 H 1148.69 -0.40708 4.23347 0
M  V30 12373 N 1147.01 -1.56678 0.170181 0
M  V30 12374 C 1147.97 -2.16698 -0.746622 0
M  V30 12375 C 1148.97 -1.11475 -1.15888 0
M  V30 12376 O 1150.16 -1.36994 -1.07602 0
M  V30 12377 C 1147.29 -2.74892 -2.01612 0
M  V30 12378 H 1148.48 -2.99061 -0.224135 0
M  V30 12379 H 1146.04 -1.56098 -0.0793761 0
M  V30 12380 H 1146.77 -1.96259 -2.58172 0
M  V30 12381 H 1146.56 -3.51896 -1.72949 0
M  V30 12382 H 1148.05 -3.21058 -2.67042 0
M  V30 12383 N 1148.48 0.103547 -1.57259 0
M  V30 12384 C 1149.89 0.659006 -1.74683 0
M  V30 12385 C 1150.25 1.79542 -0.791142 0
M  V30 12386 O 1149.37 2.16376 0.0323585 0
M  V30 12387 C 1149.97 1.20222 -3.16752 0
M  V30 12388 C 1148.52 1.70382 -3.35629 0
M  V30 12389 C 1147.67 0.609886 -2.7051 0
M  V30 12390 H 1150.62 -0.122474 -1.58227 0
M  V30 12391 H 1150.64 2.07169 -3.19157 0
M  V30 12392 H 1150.16 0.374901 -3.86285 0
M  V30 12393 H 1148.26 2.55542 -2.71162 0
M  V30 12394 H 1148.37 1.80263 -4.43894 0
M  V30 12395 H 1146.73 1.04728 -2.32173 0
M  V30 12396 H 1147.52 -0.206713 -3.42677 0
M  V30 12397 N 1149.96 1.53094 0.37415 0
M  V30 12398 C 1151.19 1.72508 1.13687 0
M  V30 12399 C 1151.6 0.449922 1.83773 0
M  V30 12400 O 1150.94 -0.586391 1.74089 0
M  V30 12401 C 1151 2.82965 2.21746 0
M  V30 12402 C 1150.67 4.23599 1.71501 0
M  V30 12403 C 1151.67 5.06245 1.1837 0
M  V30 12404 C 1149.35 4.69978 1.77273 0
M  V30 12405 C 1151.34 6.33357 0.71679 0
M  V30 12406 C 1149.03 5.9707 1.30194 0
M  V30 12407 C 1150.03 6.7859 0.774856 0
M  V30 12408 O 1149.72 8.03298 0.310981 0
M  V30 12409 H 1149.45 0.580611 0.346218 0
M  V30 12410 H 1152 2.00596 0.441614 0
M  V30 12411 H 1150.23 2.5033 2.9474 0
M  V30 12412 H 1151.92 2.90638 2.83345 0
M  V30 12413 H 1152.69 4.71591 1.13256 0
M  V30 12414 H 1148.57 4.06605 2.17241 0
M  V30 12415 H 1152.11 6.96934 0.30471 0
M  V30 12416 H 1148.01 6.31225 1.34999 0
M  V30 12417 H 1148.78 8.17364 0.431098 0
M  V30 12418 N 1151.44 -0.633461 1.44309 0
M  V30 12419 C 1152.69 -1.39306 1.46969 0
M  V30 12420 C 1153.01 -1.94235 0.101403 0
M  V30 12421 O 1152.27 -1.73959 -0.896475 0
M  V30 12422 C 1152.57 -2.57783 2.47554 0
M  V30 12423 C 1152.23 -2.21156 3.92939 0
M  V30 12424 C 1150.9 -2.1088 4.32531 0
M  V30 12425 C 1153.25 -1.9218 4.84475 0
M  V30 12426 C 1150.58 -1.69812 5.61588 0
M  V30 12427 C 1152.93 -1.52605 6.13917 0
M  V30 12428 C 1151.59 -1.40868 6.52466 0
M  V30 12429 H 1150.86 -0.509758 0.537799 0
M  V30 12430 H 1153.51 -0.718552 1.77508 0
M  V30 12431 H 1151.81 -3.30456 2.1049 0
M  V30 12432 H 1153.51 -3.16009 2.46859 0
M  V30 12433 H 1150.1 -2.30072 3.61614 0
M  V30 12434 H 1154.29 -1.9903 4.54644 0
M  V30 12435 H 1149.54 -1.59327 5.90275 0
M  V30 12436 H 1153.72 -1.29221 6.84306 0
M  V30 12437 H 1151.34 -1.08818 7.52371 0
M  V30 12438 N 1152.92 -1.31168 -0.873655 0
M  V30 12439 C 1153.87 -1.18432 -2.00191 0
M  V30 12440 C 1154.86 -0.0934873 -1.69142 0
M  V30 12441 O 1156.07 -0.255126 -1.78183 0
M  V30 12442 H 1152.44 -0.366594 -0.656592 0
M  V30 12443 H 1154.41 -2.13896 -2.08065 0
M  V30 12444 C 1153.16 -0.904668 -3.35725 0
M  V30 12445 H 1152.48 -1.73617 -3.60135 0
M  V30 12446 H 1153.92 -0.855715 -4.15275 0
M  V30 12447 C 1152.38 0.392554 -3.34605 0
M  V30 12448 O 1152.91 1.41052 -3.76121 0
M  V30 12449 N 1151.12 0.40777 -2.87725 0
M  V30 12450 H 1150.67 -0.42112 -2.54134 0
M  V30 12451 H 1150.62 1.27564 -2.87358 0
M  V30 12452 N 1154.4 1.08748 -1.14068 0
M  V30 12453 C 1155.34 2.15573 -0.824425 0
M  V30 12454 C 1156.31 1.64683 0.216522 0
M  V30 12455 O 1157.5 1.90601 0.0872193 0
M  V30 12456 C 1154.64 3.43756 -0.30423 0
M  V30 12457 C 1153.75 4.08512 -1.40506 0
M  V30 12458 C 1152.89 5.24477 -0.842479 0
M  V30 12459 C 1151.93 5.81167 -1.92123 0
M  V30 12460 N 1151.06 6.88483 -1.37608 0
M  V30 12461 H 1155.9 2.41968 -1.73941 0
M  V30 12462 H 1153.44 1.18751 -0.868143 0
M  V30 12463 H 1155.4 4.17197 0.0155546 0
M  V30 12464 H 1154.03 3.17658 0.573868 0
M  V30 12465 H 1153.08 3.32866 -1.84131 0
M  V30 12466 H 1154.39 4.46669 -2.2201 0
M  V30 12467 H 1153.55 6.04842 -0.474389 0
M  V30 12468 H 1152.28 4.877 0.00355212 0
M  V30 12469 H 1151.29 4.99458 -2.29831 0
M  V30 12470 H 1152.51 6.20003 -2.77079 0
M  V30 12471 H 1150.46 6.53672 -0.552168 0
M  V30 12472 H 1150.38 7.25446 -2.12752 0
M  V30 12473 H 1151.65 7.72588 -1.03578 0
M  V30 12474 N 1155.87 0.935264 1.26849 0
M  V30 12475 C 1157.1 0.595704 1.98661 0
M  V30 12476 C 1157.52 -0.821001 1.69237 0
M  V30 12477 O 1156.88 -1.55211 0.936982 0
M  V30 12478 C 1156.93 0.837275 3.50745 0
M  V30 12479 O 1156.03 -0.0934914 4.12294 0
M  V30 12480 H 1155.38 0.228512 0.623441 0
M  V30 12481 H 1157.91 1.25658 1.61466 0
M  V30 12482 H 1157.92 0.755827 4.00938 0
M  V30 12483 H 1156.59 1.86993 3.71492 0
M  V30 12484 H 1155.17 0.0385124 3.7288 0
M  V30 12485 N 1157.35 -1.41121 0.701616 0
M  V30 12486 C 1158.6 -2.00733 0.234682 0
M  V30 12487 C 1158.92 -1.55869 -1.17174 0
M  V30 12488 O 1158.19 -0.791965 -1.79178 0
M  V30 12489 H 1156.77 -0.742288 0.0837745 0
M  V30 12490 H 1159.43 -1.7266 0.904127 0
M  V30 12491 H 1158.53 -3.11041 0.256831 0
M  V30 12492 N 1158.83 -0.446794 -1.51134 0
M  V30 12493 C 1160.24 0.0141132 -1.86695 0
M  V30 12494 C 1160.59 1.41095 -1.36333 0
M  V30 12495 O 1159.72 2.04139 -0.718068 0
M  V30 12496 C 1160.31 0.0323866 -3.38785 0
M  V30 12497 C 1158.87 0.437737 -3.73846 0
M  V30 12498 C 1158.02 -0.363436 -2.74908 0
M  V30 12499 H 1160.97 -0.66221 -1.44224 0
M  V30 12500 H 1160.99 0.839865 -3.71115 0
M  V30 12501 H 1160.5 -0.984374 -3.75409 0
M  V30 12502 H 1158.6 1.45975 -3.42815 0
M  V30 12503 H 1158.72 0.155964 -4.78846 0
M  V30 12504 H 1157.08 0.179566 -2.54066 0
M  V30 12505 H 1157.86 -1.37925 -3.14375 0
M  V30 12506 N 1160.31 1.56586 -0.178487 0
M  V30 12507 C 1161.56 1.96709 0.4637 0
M  V30 12508 C 1161.88 1.06586 1.63292 0
M  V30 12509 O 1161.15 0.133683 1.95443 0
M  V30 12510 H 1159.73 0.726381 0.174299 0
M  V30 12511 H 1162.39 1.9314 -0.261345 0
M  V30 12512 H 1161.49 3.01164 0.818934 0
M  V30 12513 N 1161.79 -0.095206 1.57312 0
M  V30 12514 C 1162.75 -1.09974 2.01093 0
M  V30 12515 C 1163.75 -1.32954 0.904424 0
M  V30 12516 O 1164.94 -1.29069 1.16991 0
M  V30 12517 C 1162.07 -2.4489 2.37153 0
M  V30 12518 H 1163.26 -0.722906 2.91057 0
M  V30 12519 H 1160.82 -0.340249 1.52552 0
M  V30 12520 H 1161.55 -2.8745 1.50143 0
M  V30 12521 H 1161.34 -2.29559 3.17876 0
M  V30 12522 H 1162.83 -3.17141 2.71683 0
M  V30 12523 N 1163.26 -1.53291 -0.366026 0
M  V30 12524 C 1164.49 -1.73108 -1.1277 0
M  V30 12525 C 1164.9 -0.459662 -1.83531 0
M  V30 12526 O 1164.25 0.577151 -1.74398 0
M  V30 12527 C 1164.31 -2.84137 -2.20242 0
M  V30 12528 C 1163.97 -4.24503 -1.69252 0
M  V30 12529 C 1164.97 -5.06866 -1.15684 0
M  V30 12530 C 1162.65 -4.70912 -1.74778 0
M  V30 12531 C 1164.65 -6.33728 -0.683191 0
M  V30 12532 C 1162.33 -5.97752 -1.27025 0
M  V30 12533 C 1163.33 -6.78992 -0.738858 0
M  V30 12534 O 1163.02 -8.03452 -0.268375 0
M  V30 12535 H 1162.75 -0.582439 -0.343134 0
M  V30 12536 H 1165.31 -2.00828 -0.430969 0
M  V30 12537 H 1163.54 -2.5189 -2.93408 0
M  V30 12538 H 1165.23 -2.92136 -2.818 0
M  V30 12539 H 1165.99 -4.72185 -1.10753 0
M  V30 12540 H 1161.87 -4.07751 -2.15081 0
M  V30 12541 H 1165.41 -6.97086 -0.267746 0
M  V30 12542 H 1161.31 -6.31933 -1.31649 0
M  V30 12543 H 1162.08 -8.17581 -0.387745 0
M  V30 12544 N 1164.74 0.6258 -1.44643 0
M  V30 12545 C 1165.65 1.76611 -1.5442 0
M  V30 12546 C 1166.67 1.68614 -0.429576 0
M  V30 12547 O 1167.84 1.89296 -0.687686 0
M  V30 12548 C 1164.91 3.13015 -1.49071 0
M  V30 12549 C 1163.97 3.32604 -2.71428 0
M  V30 12550 C 1163.2 4.62501 -2.66325 0
M  V30 12551 O 1163.43 5.43651 -1.72626 0
M  V30 12552 O 1162.36 4.84408 -3.57258 0
M  V30 12553 H 1166.19 1.71315 -2.50769 0
M  V30 12554 H 1163.77 0.787677 -1.26949 0
M  V30 12555 H 1165.65 3.94318 -1.48631 0
M  V30 12556 H 1164.33 3.18842 -0.558686 0
M  V30 12557 H 1163.24 2.50959 -2.77435 0
M  V30 12558 H 1164.57 3.31642 -3.63695 0
M  V30 12559 N 1166.22 1.31629 0.866686 0
M  V30 12560 C 1167.45 1.24609 1.65793 0
M  V30 12561 C 1167.87 -0.184944 1.87189 0
M  V30 12562 O 1167.23 -1.1322 1.41601 0
M  V30 12563 C 1167.28 1.9988 3.00134 0
M  V30 12564 O 1166.38 1.33838 3.90079 0
M  V30 12565 H 1165.72 0.430051 0.505917 0
M  V30 12566 H 1168.25 1.73752 1.08035 0
M  V30 12567 H 1168.26 2.09599 3.50046 0
M  V30 12568 H 1166.94 3.03947 2.83882 0
M  V30 12569 H 1165.51 1.3259 3.48532 0
M  V30 12570 N 1167.7 -1.08142 1.14644 0
M  V30 12571 C 1168.95 -1.80225 0.914517 0
M  V30 12572 C 1169.27 -1.86778 -0.560269 0
M  V30 12573 O 1168.54 -1.36284 -1.40724 0
M  V30 12574 H 1167.12 -0.667492 0.335356 0
M  V30 12575 H 1169.78 -1.30729 1.44554 0
M  V30 12576 H 1168.88 -2.82958 1.31685 0
M  V30 12577 N 1169.18 -0.941978 -1.26351 0
M  V30 12578 C 1170.43 -0.585711 -1.93009 0
M  V30 12579 C 1170.74 0.879507 -1.74711 0
M  V30 12580 O 1171.95 1.34518 -2.35833 0
M  V30 12581 C 1170.4 -0.996787 -3.45821 0
M  V30 12582 C 1170.01 -2.48367 -3.72851 0
M  V30 12583 C 1171.75 -0.712452 -4.18479 0
M  V30 12584 C 1169.66 -2.83341 -5.19107 0
M  V30 12585 H 1168.59 -0.215342 -0.722595 0
M  V30 12586 H 1171.24 -1.14472 -1.43417 0
M  V30 12587 H 1169.62 -0.366295 -3.94302 0
M  V30 12588 H 1170.8 -3.16328 -3.35072 0
M  V30 12589 H 1169.11 -2.74139 -3.13427 0
M  V30 12590 H 1171.71 -0.95007 -5.26192 0
M  V30 12591 H 1172.05 0.350811 -4.14819 0
M  V30 12592 H 1172.59 -1.3027 -3.75865 0
M  V30 12593 H 1169.32 -3.88633 -5.27868 0
M  V30 12594 H 1168.84 -2.20043 -5.5798 0
M  V30 12595 H 1170.52 -2.71849 -5.87118 0
M  V30 12596 N 1170.66 1.40747 -0.709091 0
M  V30 12597 C 1171.59 2.282 -0.00156906 0
M  V30 12598 C 1172.57 1.42981 0.774279 0
M  V30 12599 O 1173.75 1.724 0.762276 0
M  V30 12600 C 1170.88 3.23441 1.00517 0
M  V30 12601 C 1169.92 4.25291 0.320904 0
M  V30 12602 S 1170.76 5.27069 -0.946518 0
M  V30 12603 C 1171.91 6.25873 0.0582856 0
M  V30 12604 H 1172.15 2.87859 -0.743271 0
M  V30 12605 H 1169.68 1.46085 -0.499866 0
M  V30 12606 H 1171.64 3.78841 1.58082 0
M  V30 12607 H 1170.3 2.62851 1.71954 0
M  V30 12608 H 1169.49 4.92255 1.08173 0
M  V30 12609 H 1169.09 3.73557 -0.18202 0
M  V30 12610 H 1171.38 6.71398 0.907233 0
M  V30 12611 H 1172.33 7.05739 -0.577787 0
M  V30 12612 H 1172.74 5.62942 0.419108 0
M  V30 12613 N 1172.13 0.454803 1.50895 0
M  V30 12614 C 1173.38 -0.105927 2.02523 0
M  V30 12615 C 1173.71 -1.40825 1.33724 0
M  V30 12616 O 1172.99 -1.89038 0.457683 0
M  V30 12617 C 1173.27 -0.306635 3.58792 0
M  V30 12618 C 1173.12 1.01556 4.38185 0
M  V30 12619 C 1174.44 -1.06858 4.2693 0
M  V30 12620 H 1171.56 -0.0370232 0.736069 0
M  V30 12621 H 1174.2 0.597215 1.8037 0
M  V30 12622 H 1172.35 -0.905563 3.77799 0
M  V30 12623 H 1174.03 1.64981 4.30789 0
M  V30 12624 H 1172.27 1.61608 4.02574 0
M  V30 12625 H 1172.94 0.828959 5.4574 0
M  V30 12626 H 1175.42 -0.561086 4.123 0
M  V30 12627 H 1174.29 -1.1778 5.36115 0
M  V30 12628 H 1174.55 -2.10111 3.8898 0
M  V30 12629 N 1173.61 -1.56489 0.186789 0
M  V30 12630 C 1174.84 -2.02163 -0.463126 0
M  V30 12631 C 1175.26 -1.06612 -1.54969 0
M  V30 12632 O 1174.62 -0.0482139 -1.81236 0
M  V30 12633 C 1174.67 -3.46337 -1.00416 0
M  V30 12634 O 1173.77 -3.53889 -2.11747 0
M  V30 12635 H 1173.11 -0.65496 -0.109194 0
M  V30 12636 H 1175.64 -2.02459 0.295227 0
M  V30 12637 H 1175.65 -3.85959 -1.32287 0
M  V30 12638 H 1174.33 -4.15376 -0.208693 0
M  V30 12639 H 1172.9 -3.26136 -1.80803 0
M  V30 12640 N 1175.09 0.086862 -1.5736 0
M  V30 12641 C 1176.04 1.10478 -2.02641 0
M  V30 12642 C 1177.01 1.39331 -0.904219 0
M  V30 12643 O 1178.19 1.50654 -1.17081 0
M  V30 12644 C 1175.33 2.41754 -2.4627 0
M  V30 12645 C 1174.44 2.19561 -3.72044 0
M  V30 12646 C 1173.58 3.44294 -4.04519 0
M  V30 12647 C 1172.62 3.17399 -5.23378 0
M  V30 12648 N 1171.76 4.3442 -5.51564 0
M  V30 12649 H 1176.6 0.711663 -2.89378 0
M  V30 12650 H 1174.13 0.339856 -1.4312 0
M  V30 12651 H 1176.09 3.18378 -2.69613 0
M  V30 12652 H 1174.72 2.78896 -1.62532 0
M  V30 12653 H 1173.77 1.337 -3.5613 0
M  V30 12654 H 1175.08 1.95685 -4.58812 0
M  V30 12655 H 1174.24 4.29321 -4.28682 0
M  V30 12656 H 1172.98 3.71232 -3.16289 0
M  V30 12657 H 1171.98 2.30765 -4.99026 0
M  V30 12658 H 1173.21 2.91799 -6.13213 0
M  V30 12659 H 1171.15 4.61418 -4.66293 0
M  V30 12660 H 1171.07 4.13764 -6.3272 0
M  V30 12661 H 1172.34 5.20489 -5.80269 0
M  V30 12662 N 1176.57 1.53483 0.357892 0
M  V30 12663 C 1177.53 1.79782 1.42166 0
M  V30 12664 C 1178.53 0.668441 1.46248 0
M  V30 12665 O 1179.72 0.936677 1.46874 0
M  V30 12666 C 1176.85 1.92686 2.8122 0
M  V30 12667 H 1178.05 2.74794 1.20117 0
M  V30 12668 H 1175.6 1.44677 0.591468 0
M  V30 12669 H 1176.33 0.997669 3.08573 0
M  V30 12670 H 1176.12 2.74837 2.79655 0
M  V30 12671 H 1177.61 2.14599 3.58242 0
M  V30 12672 N 1178.05 -0.61812 1.44973 0
M  V30 12673 C 1179.29 -1.37944 1.48658 0
M  V30 12674 C 1179.62 -1.93805 0.123749 0
M  V30 12675 O 1178.9 -1.74434 -0.860401 0
M  V30 12676 C 1179.18 -2.53515 2.55739 0
M  V30 12677 C 1179.04 -2.02918 4.01428 0
M  V30 12678 C 1180.35 -3.55674 2.59199 0
M  V30 12679 H 1177.47 -0.500223 0.541244 0
M  V30 12680 H 1180.12 -0.69774 1.76725 0
M  V30 12681 H 1178.27 -3.11669 2.31937 0
M  V30 12682 H 1179.94 -1.49494 4.36405 0
M  V30 12683 H 1178.18 -1.33999 4.12586 0
M  V30 12684 H 1178.85 -2.86181 4.72021 0
M  V30 12685 H 1181.33 -3.07343 2.80499 0
M  V30 12686 H 1180.2 -4.34042 3.36004 0
M  V30 12687 H 1180.46 -4.10601 1.63888 0
M  V30 12688 N 1179.52 -1.32087 -0.859693 0
M  V30 12689 C 1180.43 -1.22587 -2.00024 0
M  V30 12690 C 1181.45 -0.140477 -1.73432 0
M  V30 12691 O 1182.63 -0.360213 -1.98153 0
M  V30 12692 C 1179.69 -0.944195 -3.33595 0
M  V30 12693 C 1178.75 -2.11752 -3.73443 0
M  V30 12694 C 1177.98 -1.84919 -5.0064 0
M  V30 12695 O 1178.21 -0.789299 -5.64913 0
M  V30 12696 O 1177.14 -2.70885 -5.37499 0
M  V30 12697 H 1180.97 -2.18457 -2.10974 0
M  V30 12698 H 1178.55 -1.11927 -0.989577 0
M  V30 12699 H 1180.43 -0.803389 -4.13671 0
M  V30 12700 H 1179.11 -0.0156083 -3.23696 0
M  V30 12701 H 1178.02 -2.31378 -2.93965 0
M  V30 12702 H 1179.35 -3.02872 -3.87981 0
M  V30 12703 N 1181 1.07532 -1.15215 0
M  V30 12704 C 1182.25 1.79474 -0.920439 0
M  V30 12705 C 1182.56 1.87593 0.553926 0
M  V30 12706 O 1183.77 2.56037 0.903169 0
M  V30 12707 C 1182.23 3.22509 -1.59738 0
M  V30 12708 C 1181.83 3.22596 -3.10863 0
M  V30 12709 C 1183.58 3.99072 -1.44714 0
M  V30 12710 C 1181.48 4.60273 -3.71352 0
M  V30 12711 H 1180.41 0.672625 -0.340722 0
M  V30 12712 H 1183.07 1.2071 -1.38208 0
M  V30 12713 H 1181.45 3.81454 -1.06342 0
M  V30 12714 H 1182.62 2.73306 -3.70999 0
M  V30 12715 H 1180.94 2.5953 -3.25627 0
M  V30 12716 H 1183.53 5.00823 -1.87299 0
M  V30 12717 H 1183.88 4.14428 -0.394386 0
M  V30 12718 H 1184.41 3.46617 -1.95195 0
M  V30 12719 H 1181.15 4.50122 -4.76519 0
M  V30 12720 H 1180.67 5.09809 -3.15998 0
M  V30 12721 H 1182.35 5.29243 -3.7217 0
M  V30 12722 N 1182.48 0.948665 1.2585 0
M  V30 12723 C 1183.71 0.616334 1.97193 0
M  V30 12724 C 1184.12 -0.814538 1.70769 0
M  V30 12725 O 1183.46 -1.55569 0.976926 0
M  V30 12726 C 1183.52 0.787814 3.50762 0
M  V30 12727 C 1183.19 2.19472 4.0085 0
M  V30 12728 C 1184.18 3.17087 4.12009 0
M  V30 12729 C 1181.87 2.51731 4.34669 0
M  V30 12730 C 1183.86 4.45058 4.56292 0
M  V30 12731 C 1181.55 3.79932 4.78639 0
M  V30 12732 C 1182.55 4.76408 4.89412 0
M  V30 12733 O 1182.24 6.02325 5.32409 0
M  V30 12734 H 1181.97 0.230487 0.635493 0
M  V30 12735 H 1184.52 1.27379 1.61133 0
M  V30 12736 H 1182.75 0.0732154 3.86631 0
M  V30 12737 H 1184.44 0.457427 4.03314 0
M  V30 12738 H 1185.21 2.9349 3.8612 0
M  V30 12739 H 1181.09 1.77369 4.25513 0
M  V30 12740 H 1184.63 5.20363 4.64616 0
M  V30 12741 H 1180.53 4.03338 5.03973 0
M  V30 12742 H 1181.3 6.05615 5.50611 0
M  V30 12743 N 1183.96 -1.40369 0.716545 0
M  V30 12744 C 1185.21 -2.00101 0.253452 0
M  V30 12745 C 1185.52 -1.57471 -1.16027 0
M  V30 12746 O 1186.73 -2.09909 -1.72193 0
M  V30 12747 C 1185.18 -3.57645 0.402213 0
M  V30 12748 C 1184.79 -4.09248 1.82264 0
M  V30 12749 C 1186.53 -4.245 -3.88526e-05 0
M  V30 12750 C 1184.44 -5.59299 1.92193 0
M  V30 12751 H 1183.37 -0.748488 0.0910047 0
M  V30 12752 H 1186.02 -1.60595 0.887772 0
M  V30 12753 H 1184.4 -3.94857 -0.300706 0
M  V30 12754 H 1185.58 -3.83412 2.55601 0
M  V30 12755 H 1183.89 -3.54993 2.17644 0
M  V30 12756 H 1186.49 -5.34673 0.0534202 0
M  V30 12757 H 1186.83 -4.03046 -1.04208 0
M  V30 12758 H 1187.37 -3.92398 0.65336 0
M  V30 12759 H 1184.11 -5.85608 2.94522 0
M  V30 12760 H 1183.63 -5.86997 1.23268 0
M  V30 12761 H 1185.3 -6.24416 1.6945 0
M  V30 12762 N 1185.44 -0.462799 -1.50652 0
M  V30 12763 C 1186.37 0.371837 -2.26164 0
M  V30 12764 C 1187.38 0.96432 -1.31167 0
M  V30 12765 O 1188.57 0.854134 -1.56738 0
M  V30 12766 C 1185.67 1.53469 -3.0216 0
M  V30 12767 C 1184.84 1.0565 -4.24449 0
M  V30 12768 C 1183.9 2.09243 -4.82808 0
M  V30 12769 O 1182.93 1.67641 -5.43953 0
M  V30 12770 N 1184.13 3.41976 -4.69076 0
M  V30 12771 H 1186.9 -0.275476 -2.98431 0
M  V30 12772 H 1184.46 -0.293109 -1.59225 0
M  V30 12773 H 1186.45 2.22446 -3.38083 0
M  V30 12774 H 1185.02 2.08685 -2.32743 0
M  V30 12775 H 1184.24 0.192895 -3.93728 0
M  V30 12776 H 1185.53 0.714796 -5.03754 0
M  V30 12777 H 1184.92 3.78491 -4.20429 0
M  V30 12778 H 1183.48 4.06775 -5.09291 0
M  V30 12779 N 1186.91 1.56388 -0.195085 0
M  V30 12780 C 1188.16 1.97189 0.44281 0
M  V30 12781 C 1188.48 1.08312 1.62153 0
M  V30 12782 O 1187.75 0.154404 1.95291 0
M  V30 12783 H 1186.33 0.728188 0.166585 0
M  V30 12784 H 1189 1.92852 -0.281815 0
M  V30 12785 H 1188.09 3.02016 0.786945 0
M  V30 12786 N 1188.39 -0.0785156 1.57404 0
M  V30 12787 C 1189.34 -1.09402 2.03224 0
M  V30 12788 C 1190.31 -1.38849 0.911596 0
M  V30 12789 O 1191.49 -1.50031 1.17878 0
M  V30 12790 C 1188.63 -2.40444 2.47549 0
M  V30 12791 C 1187.75 -2.17585 3.73203 0
M  V30 12792 C 1186.88 -3.42143 4.06339 0
M  V30 12793 C 1185.92 -3.14619 5.25054 0
M  V30 12794 N 1185.06 -4.31489 5.5386 0
M  V30 12795 H 1189.9 -0.696307 2.89751 0
M  V30 12796 H 1187.44 -0.332261 1.43298 0
M  V30 12797 H 1189.39 -3.16944 2.71298 0
M  V30 12798 H 1188.02 -2.78031 1.64009 0
M  V30 12799 H 1187.08 -1.3181 3.56834 0
M  V30 12800 H 1188.39 -1.93249 4.59844 0
M  V30 12801 H 1187.54 -4.27042 4.30953 0
M  V30 12802 H 1186.28 -3.69549 3.18253 0
M  V30 12803 H 1185.29 -2.28116 5.00243 0
M  V30 12804 H 1186.51 -2.88543 6.14752 0
M  V30 12805 H 1184.46 -4.58939 4.68734 0
M  V30 12806 H 1184.37 -4.10403 6.34906 0
M  V30 12807 H 1185.64 -5.17404 5.83021 0
M  V30 12808 N 1189.87 -1.5367 -0.349747 0
M  V30 12809 C 1190.8 -1.84208 -1.43492 0
M  V30 12810 C 1191.78 -0.696725 -1.55177 0
M  V30 12811 O 1192.97 -0.948061 -1.69486 0
M  V30 12812 C 1190.1 -2.04613 -2.80625 0
M  V30 12813 C 1189.05 -3.20419 -2.83753 0
M  V30 12814 C 1188.38 -3.26147 -4.23713 0
M  V30 12815 C 1189.68 -4.58666 -2.49846 0
M  V30 12816 H 1191.37 -2.75087 -1.18185 0
M  V30 12817 H 1188.92 -1.32363 -0.567101 0
M  V30 12818 H 1190.87 -2.2456 -3.56582 0
M  V30 12819 H 1189.59 -1.10459 -3.07354 0
M  V30 12820 H 1188.25 -3.00318 -2.10249 0
M  V30 12821 H 1187.9 -2.29599 -4.47541 0
M  V30 12822 H 1187.6 -4.03963 -4.26717 0
M  V30 12823 H 1189.12 -3.48296 -5.0152 0
M  V30 12824 H 1190.54 -4.78668 -3.15516 0
M  V30 12825 H 1188.94 -5.3884 -2.64144 0
M  V30 12826 H 1190.01 -4.62697 -1.4505 0
M  V30 12827 N 1191.35 0.610423 -1.45298 0
M  V30 12828 C 1192.28 1.73207 -1.56594 0
M  V30 12829 C 1193.26 1.64893 -0.417651 0
M  V30 12830 O 1194.44 1.83336 -0.64043 0
M  V30 12831 C 1191.57 3.11803 -1.52959 0
M  V30 12832 C 1190.53 3.34925 -2.66475 0
M  V30 12833 C 1189.85 4.73764 -2.47894 0
M  V30 12834 C 1191.15 3.25456 -4.08504 0
M  V30 12835 H 1192.85 1.6401 -2.50482 0
M  V30 12836 H 1190.39 0.787621 -1.20551 0
M  V30 12837 H 1192.35 3.90065 -1.59458 0
M  V30 12838 H 1191.07 3.21833 -0.55599 0
M  V30 12839 H 1189.73 2.59051 -2.59399 0
M  V30 12840 H 1189.38 4.80524 -1.4868 0
M  V30 12841 H 1189.08 4.90191 -3.24016 0
M  V30 12842 H 1190.6 5.54231 -2.56243 0
M  V30 12843 H 1192.02 3.93597 -4.16839 0
M  V30 12844 H 1190.41 3.53414 -4.84994 0
M  V30 12845 H 1191.48 2.22939 -4.30612 0
M  V30 12846 N 1192.83 1.32541 0.852676 0
M  V30 12847 C 1193.77 1.21643 1.96142 0
M  V30 12848 C 1194.74 0.0981496 1.6581 0
M  V30 12849 O 1195.93 0.27404 1.88822 0
M  V30 12850 C 1193.07 0.947483 3.31838 0
M  V30 12851 C 1192.18 2.15074 3.74656 0
M  V30 12852 C 1191.32 1.81711 4.99154 0
M  V30 12853 C 1190.36 2.98346 5.34468 0
M  V30 12854 N 1189.49 2.65062 6.50143 0
M  V30 12855 H 1194.33 2.16479 2.04795 0
M  V30 12856 H 1191.87 1.07664 1.00234 0
M  V30 12857 H 1193.83 0.772038 4.09994 0
M  V30 12858 H 1192.46 0.0359112 3.2278 0
M  V30 12859 H 1191.51 2.43639 2.92137 0
M  V30 12860 H 1192.82 3.02314 3.96747 0
M  V30 12861 H 1191.98 1.60729 5.85022 0
M  V30 12862 H 1190.71 0.916875 4.79004 0
M  V30 12863 H 1189.72 3.19956 4.47111 0
M  V30 12864 H 1190.94 3.89104 5.56574 0
M  V30 12865 H 1188.89 1.77582 6.31507 0
M  V30 12866 H 1188.81 3.45832 6.72262 0
M  V30 12867 H 1190.08 2.47516 7.39159 0
M  V30 12868 N 1194.3 -1.0692 1.15784 0
M  V30 12869 C 1195.72 -1.61069 0.944123 0
M  V30 12870 C 1196.07 -1.8936 -0.513522 0
M  V30 12871 O 1195.19 -1.66232 -1.38549 0
M  V30 12872 C 1195.79 -2.9263 1.70743 0
M  V30 12873 C 1194.35 -3.43505 1.53887 0
M  V30 12874 C 1193.49 -2.17495 1.72021 0
M  V30 12875 H 1196.44 -0.89951 1.30746 0
M  V30 12876 H 1196.46 -3.61757 1.17951 0
M  V30 12877 H 1195.98 -2.72007 2.76828 0
M  V30 12878 H 1194.08 -3.69201 0.502153 0
M  V30 12879 H 1194.19 -4.19254 2.31868 0
M  V30 12880 H 1192.55 -2.27407 1.1471 0
M  V30 12881 H 1193.34 -1.99362 2.79481 0
M  V30 12882 N 1195.78 -0.955326 -1.25345 0
M  V30 12883 C 1196.75 -0.480564 -2.24105 0
M  V30 12884 C 1197.75 0.416123 -1.55322 0
M  V30 12885 O 1198.94 0.213315 -1.72889 0
M  V30 12886 C 1196.07 0.305589 -3.39528 0
M  V30 12887 H 1197.26 -1.35349 -2.6762 0
M  V30 12888 H 1194.81 -0.738673 -1.37744 0
M  V30 12889 H 1195.55 1.19615 -3.01434 0
M  V30 12890 H 1195.33 -0.337719 -3.90643 0
M  V30 12891 H 1196.82 0.627201 -4.12863 0
M  V30 12892 N 1197.26 1.39987 -0.723979 0
M  V30 12893 C 1198.51 2.01028 -0.267511 0
M  V30 12894 C 1198.84 1.57295 1.13894 0
M  V30 12895 O 1198.12 0.796805 1.7743 0
M  V30 12896 C 1198.4 3.58326 -0.356971 0
M  V30 12897 C 1198.25 4.12109 -1.8024 0
M  V30 12898 C 1199.57 4.39289 0.267003 0
M  V30 12899 H 1196.69 0.730364 -0.0986775 0
M  V30 12900 H 1199.33 1.66348 -0.91806 0
M  V30 12901 H 1197.48 3.88001 0.196908 0
M  V30 12902 H 1199.15 3.93199 -2.41231 0
M  V30 12903 H 1197.4 3.66082 -2.32737 0
M  V30 12904 H 1198.07 5.21261 -1.81634 0
M  V30 12905 H 1200.54 4.15595 -0.20503 0
M  V30 12906 H 1199.42 5.48624 0.174004 0
M  V30 12907 H 1199.68 4.20931 1.35164 0
M  V30 12908 N 1198.74 0.470782 1.50404 0
M  V30 12909 C 1199.99 -0.0844409 2.02624 0
M  V30 12910 C 1200.32 -1.39398 1.3521 0
M  V30 12911 O 1199.59 -1.88542 0.477707 0
M  V30 12912 C 1199.88 -0.268563 3.59097 0
M  V30 12913 C 1199.73 1.06198 4.37084 0
M  V30 12914 C 1201.05 -1.02324 4.28039 0
M  V30 12915 H 1198.17 -0.0292141 0.736421 0
M  V30 12916 H 1200.81 0.616312 1.79726 0
M  V30 12917 H 1198.96 -0.865441 3.78738 0
M  V30 12918 H 1200.63 1.69541 4.29015 0
M  V30 12919 H 1198.87 1.65868 4.00837 0
M  V30 12920 H 1199.55 0.886795 5.4483 0
M  V30 12921 H 1202.02 -0.517325 4.12872 0
M  V30 12922 H 1200.9 -1.12087 5.37334 0
M  V30 12923 H 1201.16 -2.05974 3.91187 0
M  V30 12924 N 1200.22 -1.56282 0.203376 0
M  V30 12925 C 1201.47 -1.97421 -0.432346 0
M  V30 12926 C 1201.79 -1.0917 -1.61576 0
M  V30 12927 O 1201.06 -0.164759 -1.95206 0
M  V30 12928 H 1199.64 -0.729062 -0.162721 0
M  V30 12929 H 1202.3 -1.927 0.292039 0
M  V30 12930 H 1201.39 -3.02429 -0.770918 0
M  V30 12931 N 1201.7 0.070167 -1.57444 0
M  V30 12932 C 1202.94 0.767842 -1.86513 0
M  V30 12933 C 1203.26 1.78659 -0.796257 0
M  V30 12934 O 1204.46 2.53395 -0.974845 0
M  V30 12935 C 1202.92 1.41654 -3.30851 0
M  V30 12936 C 1202.53 0.436273 -4.45871 0
M  V30 12937 C 1204.27 2.09649 -3.69117 0
M  V30 12938 C 1202.18 1.09098 -5.8125 0
M  V30 12939 H 1201.11 0.290519 -0.695784 0
M  V30 12940 H 1203.76 0.0211697 -1.83488 0
M  V30 12941 H 1202.14 2.21153 -3.28493 0
M  V30 12942 H 1203.32 -0.329022 -4.59624 0
M  V30 12943 H 1201.63 -0.139314 -4.16167 0
M  V30 12944 H 1204.23 2.59411 -4.67558 0
M  V30 12945 H 1204.57 2.89663 -2.99 0
M  V30 12946 H 1205.1 1.36979 -3.73472 0
M  V30 12947 H 1201.84 0.331128 -6.54663 0
M  V30 12948 H 1201.36 1.8271 -5.71294 0
M  V30 12949 H 1203.04 1.61034 -6.2664 0
M  V30 12950 N 1203.17 1.53854 0.341593 0
M  V30 12951 C 1204.12 1.81979 1.41959 0
M  V30 12952 C 1205.09 0.665616 1.5218 0
M  V30 12953 O 1206.28 0.910246 1.67688 0
M  V30 12954 C 1203.42 2.03681 2.78583 0
M  V30 12955 C 1202.53 3.31389 2.77137 0
M  V30 12956 C 1201.66 3.43148 4.05491 0
M  V30 12957 C 1200.7 4.64799 3.98282 0
M  V30 12958 N 1199.84 4.73581 5.18329 0
M  V30 12959 H 1204.68 2.73953 1.17275 0
M  V30 12960 H 1202.22 1.35689 0.568062 0
M  V30 12961 H 1204.17 2.14253 3.57983 0
M  V30 12962 H 1202.8 1.15017 3.01614 0
M  V30 12963 H 1201.86 3.29649 1.89832 0
M  V30 12964 H 1203.17 4.20885 2.67689 0
M  V30 12965 H 1202.32 3.53163 4.93316 0
M  V30 12966 H 1201.06 2.51712 4.17723 0
M  V30 12967 H 1200.07 4.54859 3.08842 0
M  V30 12968 H 1201.29 5.57601 3.87631 0
M  V30 12969 H 1199.24 3.85055 5.31102 0
M  V30 12970 H 1199.15 5.57016 5.11145 0
M  V30 12971 H 1200.42 4.87908 6.0792 0
M  V30 12972 N 1204.65 -0.602709 1.4562 0
M  V30 12973 C 1205.9 -1.35769 1.49163 0
M  V30 12974 C 1206.21 -1.95102 0.139485 0
M  V30 12975 O 1207.42 -2.71449 0.0525919 0
M  V30 12976 C 1205.88 -2.45959 2.62739 0
M  V30 12977 C 1205.48 -1.93017 4.04288 0
M  V30 12978 C 1207.23 -3.22926 2.75534 0
M  V30 12979 C 1205.13 -3.00718 5.09237 0
M  V30 12980 H 1204.06 -0.510317 0.555061 0
M  V30 12981 H 1206.72 -0.645434 1.71774 0
M  V30 12982 H 1205.1 -3.19892 2.3342 0
M  V30 12983 H 1206.27 -1.2576 4.43307 0
M  V30 12984 H 1204.59 -1.2878 3.95986 0
M  V30 12985 H 1207.18 -4.03267 3.51112 0
M  V30 12986 H 1207.53 -3.74243 1.82339 0
M  V30 12987 H 1208.06 -2.56095 3.04402 0
M  V30 12988 H 1204.8 -2.54312 6.04157 0
M  V30 12989 H 1204.32 -3.66526 4.74783 0
M  V30 12990 H 1206 -3.65016 5.34202 0
M  V30 12991 N 1206.13 -1.32992 -0.845635 0
M  V30 12992 C 1207.41 -1.14671 -1.58461 0
M  V30 12993 C 1207.79 0.289498 -2.09106 0
M  V30 12994 O 1207.13 1.28751 -1.88773 0
M  V30 12995 C 1207.34 -2.18206 -2.72373 0
M  V30 12996 C 1208.69 -2.5201 -3.41726 0
M  V30 12997 O 1209.72 -2.16821 -2.82608 0
M  V30 12998 O 1208.58 -3.12368 -4.48429 0
M  V30 12999 H 1205.67 -0.443088 -0.698285 0
M  V30 13000 H 1208.22 -1.44552 -0.888978 0
M  V30 13001 H 1206.99 -3.14707 -2.32541 0
M  V30 13002 H 1206.61 -1.89372 -3.49605 0
M  V30 13003 N 1207.61 1.06304 -1.1635 0
M  V30 13004 C 1208.85 1.79366 -0.94634 0
M  V30 13005 C 1209.19 1.86981 0.524569 0
M  V30 13006 O 1208.46 1.36134 1.38917 0
M  V30 13007 C 1208.74 3.23861 -1.57436 0
M  V30 13008 C 1208.6 3.24327 -3.1166 0
M  V30 13009 C 1209.92 4.21409 -1.26895 0
M  V30 13010 H 1207.04 0.65115 -0.345215 0
M  V30 13011 H 1209.68 1.24325 -1.43678 0
M  V30 13012 H 1207.83 3.70862 -1.15731 0
M  V30 13013 H 1209.5 2.85488 -3.62346 0
M  V30 13014 H 1207.74 2.62983 -3.44997 0
M  V30 13015 H 1208.41 4.2626 -3.50723 0
M  V30 13016 H 1210.89 3.8285 -1.62989 0
M  V30 13017 H 1209.77 5.20778 -1.73439 0
M  V30 13018 H 1210.03 4.41701 -0.187768 0
M  V30 13019 N 1209.09 0.96196 1.24836 0
M  V30 13020 C 1210.03 0.479282 2.27609 0
M  V30 13021 C 1211.03 -0.454224 1.63197 0
M  V30 13022 O 1212.23 -0.330146 1.76946 0
M  V30 13023 H 1208.61 0.13651 0.739506 0
M  V30 13024 H 1210.58 1.35817 2.657 0
M  V30 13025 C 1209.33 -0.220499 3.47 0
M  V30 13026 H 1208.65 0.488694 3.96802 0
M  V30 13027 H 1210.09 -0.522137 4.20773 0
M  V30 13028 C 1208.55 -1.44552 3.04313 0
M  V30 13029 O 1209.08 -2.54287 3.10967 0
M  V30 13030 N 1207.29 -1.3095 2.59423 0
M  V30 13031 H 1206.83 -0.416656 2.54208 0
M  V30 13032 H 1206.79 -2.13029 2.31227 0
M  V30 13033 N 1210.56 -1.39601 0.731392 0
M  V30 13034 C 1211.79 -2.05411 0.286532 0
M  V30 13035 C 1212.21 -1.54777 -1.06892 0
M  V30 13036 O 1211.57 -0.689942 -1.67659 0
M  V30 13037 C 1211.62 -3.594 0.293914 0
M  V30 13038 O 1210.72 -4.06072 -0.719657 0
M  V30 13039 H 1210.06 -0.650949 0.131004 0
M  V30 13040 H 1212.59 -1.78703 0.996305 0
M  V30 13041 H 1212.6 -4.0777 0.137052 0
M  V30 13042 H 1211.28 -3.95617 1.28298 0
M  V30 13043 H 1209.86 -3.69125 -0.529226 0
M  V30 13044 N 1212.04 -0.478751 -1.50152 0
M  V30 13045 C 1213.29 0.0657809 -2.03294 0
M  V30 13046 C 1213.64 1.36719 -1.35373 0
M  V30 13047 O 1212.94 1.8567 -0.473005 0
M  V30 13048 C 1213.13 0.297535 -3.56159 0
M  V30 13049 C 1212.96 -0.979859 -4.38895 0
M  V30 13050 C 1211.73 -1.52535 -4.81727 0
M  V30 13051 C 1213.93 -1.8773 -4.78813 0
M  V30 13052 N 1211.91 -2.75097 -5.48812 0
M  V30 13053 C 1213.28 -2.94876 -5.45388 0
M  V30 13054 C 1215.34 -1.88676 -4.60767 0
M  V30 13055 C 1214.04 -4.02968 -5.95827 0
M  V30 13056 C 1216.06 -2.95728 -5.12151 0
M  V30 13057 C 1215.43 -4.01594 -5.78707 0
M  V30 13058 H 1211.53 -0.0161501 -0.781833 0
M  V30 13059 H 1214.11 -0.648664 -1.83577 0
M  V30 13060 H 1212.28 0.981023 -3.75806 0
M  V30 13061 H 1214.01 0.837091 -3.95948 0
M  V30 13062 H 1210.77 -1.07349 -4.61273 0
M  V30 13063 H 1211.19 -3.37359 -5.86956 0
M  V30 13064 H 1215.83 -1.08143 -4.08736 0
M  V30 13065 H 1213.55 -4.84312 -6.46891 0
M  V30 13066 H 1217.14 -2.97453 -5.00013 0
M  V30 13067 H 1216.02 -4.83067 -6.17751 0
M  V30 13068 N 1213.52 1.56172 -0.211661 0
M  V30 13069 C 1214.77 1.97214 0.423008 0
M  V30 13070 C 1215.08 1.10203 1.616 0
M  V30 13071 O 1216.29 1.411 2.31955 0
M  V30 13072 C 1214.74 3.50805 0.803977 0
M  V30 13073 C 1214.35 4.46505 -0.365654 0
M  V30 13074 C 1216.1 4.00582 1.4048 0
M  V30 13075 C 1214 5.91388 0.0371986 0
M  V30 13076 H 1212.93 0.736432 0.161814 0
M  V30 13077 H 1215.58 1.80925 -0.306307 0
M  V30 13078 H 1213.97 3.62659 1.59043 0
M  V30 13079 H 1215.14 4.46394 -1.14321 0
M  V30 13080 H 1213.46 4.07015 -0.879061 0
M  V30 13081 H 1216.05 5.06317 1.71894 0
M  V30 13082 H 1216.4 3.45853 2.31713 0
M  V30 13083 H 1216.93 3.9191 0.681984 0
M  V30 13084 H 1213.67 6.50078 -0.841367 0
M  V30 13085 H 1213.19 5.94716 0.77927 0
M  V30 13086 H 1214.87 6.4531 0.467309 0
M  V30 13087 N 1215 -0.0618163 1.57479 0
M  V30 13088 C 1215.91 -1.09006 2.07738 0
M  V30 13089 C 1216.92 -1.4176 1.00896 0
M  V30 13090 O 1218.1 -1.51737 1.32431 0
M  V30 13091 C 1215.17 -2.38153 2.5196 0
M  V30 13092 C 1214.23 -2.12279 3.73143 0
M  V30 13093 C 1213.46 -3.35269 4.15248 0
M  V30 13094 O 1213.68 -4.44758 3.57137 0
M  V30 13095 O 1212.62 -3.22894 5.0796 0
M  V30 13096 H 1216.44 -0.693059 2.95686 0
M  V30 13097 H 1214.03 -0.276628 1.46817 0
M  V30 13098 H 1215.91 -3.14139 2.80882 0
M  V30 13099 H 1214.58 -2.77213 1.67137 0
M  V30 13100 H 1213.49 -1.33966 3.49291 0
M  V30 13101 H 1214.82 -1.78094 4.5885 0
M  V30 13102 N 1216.48 -1.54033 -0.333429 0
M  V30 13103 C 1217.42 -1.83441 -1.43011 0
M  V30 13104 C 1218.42 -0.705592 -1.54006 0
M  V30 13105 O 1219.62 -0.889098 -1.56509 0
M  V30 13106 H 1216 -0.581326 -0.477037 0
M  V30 13107 H 1217.97 -2.75172 -1.15426 0
M  V30 13108 C 1216.72 -2.0698 -2.79382 0
M  V30 13109 H 1216.04 -2.93297 -2.71692 0
M  V30 13110 H 1217.48 -2.31517 -3.55212 0
M  V30 13111 C 1215.94 -0.85835 -3.25782 0
M  V30 13112 O 1216.47 -0.062739 -4.01651 0
M  V30 13113 N 1214.68 -0.672738 -2.82706 0
M  V30 13114 H 1214.22 -1.32136 -2.21128 0
M  V30 13115 H 1214.18 0.136347 -3.14104 0
M  V30 13116 N 1217.95 0.594978 -1.45938 0
M  V30 13117 C 1219.2 1.35361 -1.50611 0
M  V30 13118 C 1219.53 1.93898 -0.152866 0
M  V30 13119 O 1218.78 1.76275 0.850037 0
M  V30 13120 C 1219.08 2.51129 -2.54301 0
M  V30 13121 C 1218.75 2.1066 -3.98664 0
M  V30 13122 C 1217.41 1.99338 -4.3797 0
M  V30 13123 C 1219.76 1.79267 -4.894 0
M  V30 13124 C 1217.09 1.54863 -5.65893 0
M  V30 13125 C 1219.44 1.36274 -6.17748 0
M  V30 13126 C 1218.11 1.2352 -6.55972 0
M  V30 13127 H 1217.38 0.49532 -0.551125 0
M  V30 13128 H 1220.02 0.671236 -1.79351 0
M  V30 13129 H 1218.33 3.24759 -2.19177 0
M  V30 13130 H 1220.03 3.09353 -2.55151 0
M  V30 13131 H 1216.62 2.20403 -3.67587 0
M  V30 13132 H 1220.8 1.86906 -4.59761 0
M  V30 13133 H 1216.06 1.43621 -5.94292 0
M  V30 13134 H 1220.23 1.11032 -6.87492 0
M  V30 13135 H 1217.86 0.88832 -7.54992 0
M  V30 13136 N 1219.43 1.33438 0.838571 0
M  V30 13137 C 1220.66 1.27951 1.62592 0
M  V30 13138 C 1221.08 -0.149502 1.88207 0
M  V30 13139 O 1220.43 -1.09174 1.46244 0
M  V30 13140 C 1220.48 2.0523 2.97595 0
M  V30 13141 O 1220.2 3.42557 2.73105 0
M  V30 13142 C 1221.71 2.06957 3.92025 0
M  V30 13143 H 1218.93 0.440796 0.505905 0
M  V30 13144 H 1221.47 1.75814 1.0445 0
M  V30 13145 H 1219.62 1.61049 3.52338 0
M  V30 13146 H 1220.04 3.82314 3.59076 0
M  V30 13147 H 1221.51 2.65481 4.83967 0
M  V30 13148 H 1221.99 1.0599 4.26219 0
M  V30 13149 H 1222.6 2.51158 3.4322 0
M  V30 13150 N 1220.91 -1.05686 1.16912 0
M  V30 13151 C 1221.86 -2.13312 0.88129 0
M  V30 13152 C 1222.83 -1.65199 -0.172783 0
M  V30 13153 O 1224.01 -1.90765 -0.0366542 0
M  V30 13154 C 1221.15 -3.42829 0.395264 0
M  V30 13155 C 1220.27 -4.04643 1.51288 0
M  V30 13156 C 1219.4 -5.22059 0.981238 0
M  V30 13157 C 1218.44 -5.75869 2.07464 0
M  V30 13158 N 1217.58 -6.84592 1.55813 0
M  V30 13159 H 1222.42 -2.37271 1.80295 0
M  V30 13160 H 1219.95 -1.16407 0.899322 0
M  V30 13161 H 1221.91 -4.17092 0.0950633 0
M  V30 13162 H 1220.54 -3.19068 -0.489445 0
M  V30 13163 H 1219.59 -3.27867 1.92891 0
M  V30 13164 H 1220.91 -4.40626 2.33774 0
M  V30 13165 H 1220.06 -6.03372 0.634586 0
M  V30 13166 H 1218.8 -4.87538 0.125754 0
M  V30 13167 H 1217.8 -4.93188 2.42992 0
M  V30 13168 H 1219.03 -6.12439 2.93419 0
M  V30 13169 H 1216.97 -6.51978 0.725283 0
M  V30 13170 H 1216.89 -7.19551 2.31911 0
M  V30 13171 H 1218.16 -7.6957 1.24025 0
M  V30 13172 N 1222.39 -0.968567 -1.24324 0
M  V30 13173 C 1223.62 -0.648568 -1.96472 0
M  V30 13174 C 1224.03 0.782168 -1.71836 0
M  V30 13175 O 1223.39 1.5249 -1.00265 0
M  V30 13176 C 1223.44 -0.91482 -3.49733 0
M  V30 13177 O 1223.16 -2.28931 -3.73527 0
M  V30 13178 C 1224.66 -0.609131 -4.39095 0
M  V30 13179 H 1221.88 -0.241921 -0.625872 0
M  V30 13180 H 1224.43 -1.29673 -1.5813 0
M  V30 13181 H 1222.58 -0.31285 -3.86135 0
M  V30 13182 H 1222.99 -2.36998 -4.67902 0
M  V30 13183 H 1224.47 -0.845875 -5.4548 0
M  V30 13184 H 1224.95 0.456625 -4.3682 0
M  V30 13185 H 1225.55 -1.19105 -4.08282 0
M  V30 13186 N 1223.87 1.39211 -0.738786 0
M  V30 13187 C 1225.09 2.05256 -0.297421 0
M  V30 13188 C 1225.52 1.55341 1.06069 0
M  V30 13189 O 1224.87 0.698823 1.67291 0
M  V30 13190 C 1224.92 3.59239 -0.312969 0
M  V30 13191 O 1224.03 4.06448 0.698112 0
M  V30 13192 H 1223.37 0.650245 -0.134454 0
M  V30 13193 H 1225.9 1.78173 -1.00577 0
M  V30 13194 H 1225.91 4.07691 -0.158675 0
M  V30 13195 H 1224.58 3.94931 -1.30394 0
M  V30 13196 H 1223.16 3.69401 0.509643 0
M  V30 13197 N 1225.34 0.486708 1.49896 0
M  V30 13198 C 1226.59 -0.0646197 2.01596 0
M  V30 13199 C 1226.91 -1.39363 1.37249 0
M  V30 13200 O 1228.11 -2.03082 1.80194 0
M  V30 13201 C 1226.57 -0.16565 3.59519 0
M  V30 13202 C 1226.18 1.15586 4.32832 0
M  V30 13203 C 1227.92 -0.668103 4.1921 0
M  V30 13204 C 1225.83 1.01778 5.82576 0
M  V30 13205 H 1224.76 -0.0279241 0.753483 0
M  V30 13206 H 1227.41 0.623969 1.72566 0
M  V30 13207 H 1225.79 -0.918372 3.85204 0
M  V30 13208 H 1226.96 1.92076 4.1886 0
M  V30 13209 H 1225.28 1.59064 3.84822 0
M  V30 13210 H 1227.88 -0.788698 5.28851 0
M  V30 13211 H 1228.22 -1.66339 3.81624 0
M  V30 13212 H 1228.75 0.0276746 3.9779 0
M  V30 13213 H 1225.49 1.9869 6.24662 0
M  V30 13214 H 1225.01 0.293527 5.99081 0
M  V30 13215 H 1226.69 0.690693 6.43303 0
M  V30 13216 N 1226.82 -1.56058 0.219941 0
M  V30 13217 C 1228.24 -1.59024 -0.135476 0
M  V30 13218 C 1228.44 -1.23672 -1.59083 0
M  V30 13219 O 1227.5 -0.971197 -2.33075 0
M  V30 13220 C 1228.81 -3.00103 0.189356 0
M  V30 13221 C 1230.36 -3.12724 0.131463 0
M  V30 13222 C 1230.83 -4.55977 0.429947 0
M  V30 13223 N 1232.32 -4.61643 0.37946 0
M  V30 13224 C 1233.06 -5.70419 0.58393 0
M  V30 13225 N 1232.55 -6.87565 0.850088 0
M  V30 13226 N 1234.35 -5.59722 0.516477 0
M  V30 13227 H 1226.5 -1.77313 1.16935 0
M  V30 13228 H 1228.76 -0.824096 0.468583 0
M  V30 13229 H 1228.47 -3.30616 1.19941 0
M  V30 13230 H 1228.34 -3.73919 -0.49641 0
M  V30 13231 H 1230.73 -2.82008 -0.869223 0
M  V30 13232 H 1230.81 -2.41241 0.85068 0
M  V30 13233 H 1230.45 -4.8741 1.42806 0
M  V30 13234 H 1230.38 -5.25684 -0.310444 0
M  V30 13235 H 1232.87 -3.77465 0.181373 0
M  V30 13236 H 1233.19 -7.66378 0.994251 0
M  V30 13237 H 1231.53 -6.89313 0.887265 0
M  V30 13238 H 1234.72 -4.6708 0.308784 0
M  V30 13239 H 1234.9 -6.4443 0.679236 0
M  V30 13240 N 1228.3 0.053464 -1.57509 0
M  V30 13241 C 1229.58 0.783141 -1.79238 0
M  V30 13242 C 1229.96 1.94855 -0.812069 0
M  V30 13243 O 1229.31 2.28 0.151006 0
M  V30 13244 C 1229.52 1.239 -3.26266 0
M  V30 13245 C 1230.86 1.66492 -3.90596 0
M  V30 13246 O 1231.89 1.33421 -3.30269 0
M  V30 13247 O 1230.75 2.27785 -4.96766 0
M  V30 13248 H 1227.84 0.376696 -0.736226 0
M  V30 13249 H 1230.39 0.0321229 -1.6967 0
M  V30 13250 H 1229.16 0.405948 -3.89189 0
M  V30 13251 H 1228.78 2.05078 -3.4063 0
M  V30 13252 N 1229.78 1.54207 0.325255 0
M  V30 13253 C 1231.19 1.63587 0.899793 0
M  V30 13254 C 1231.54 0.528851 1.88938 0
M  V30 13255 O 1230.67 -0.33852 2.13736 0
M  V30 13256 C 1231.26 2.9653 1.63877 0
M  V30 13257 C 1229.82 3.08111 2.16205 0
M  V30 13258 C 1228.97 2.59144 0.986903 0
M  V30 13259 H 1231.92 1.58366 0.102883 0
M  V30 13260 H 1231.94 2.86595 2.50287 0
M  V30 13261 H 1231.45 3.7708 0.918279 0
M  V30 13262 H 1229.55 2.32232 2.91375 0
M  V30 13263 H 1229.67 4.13885 2.41322 0
M  V30 13264 H 1228.03 2.14997 1.36558 0
M  V30 13265 H 1228.81 3.4215 0.28076 0
M  V30 13266 N 1231.26 -0.58723 1.46251 0
M  V30 13267 C 1232.5 -1.3567 1.52882 0
M  V30 13268 C 1232.86 -1.91206 0.174438 0
M  V30 13269 O 1234.06 -2.68552 0.115491 0
M  V30 13270 C 1232.33 -2.45914 2.59347 0
M  V30 13271 S 1233.89 -3.33347 2.85351 0
M  V30 13272 H 1230.71 -0.462276 0.540205 0
M  V30 13273 H 1233.31 -0.675537 1.83458 0
M  V30 13274 H 1232.02 -2.03498 3.56394 0
M  V30 13275 H 1231.55 -3.18807 2.30489 0
M  V30 13276 H 1233.56 -4.44626 2.20278 0
M  V30 13277 N 1232.74 -1.33881 -0.831482 0
M  V30 13278 C 1233.7 -1.24654 -1.92339 0
M  V30 13279 C 1234.7 -0.163788 -1.59964 0
M  V30 13280 O 1235.89 -0.415829 -1.69164 0
M  V30 13281 C 1233.02 -0.922537 -3.2818 0
M  V30 13282 H 1234.21 -2.21717 -2.01944 0
M  V30 13283 H 1231.77 -1.18046 -1.02445 0
M  V30 13284 H 1232.5 0.0452872 -3.24268 0
M  V30 13285 H 1232.29 -1.70562 -3.53059 0
M  V30 13286 H 1233.78 -0.88292 -4.0816 0
M  V30 13287 N 1234.21 1.05064 -1.1747 0
M  V30 13288 C 1235.46 1.77737 -0.961979 0
M  V30 13289 C 1235.78 1.88198 0.510551 0
M  V30 13290 O 1235.05 1.39968 1.37062 0
M  V30 13291 H 1233.63 0.658366 -0.352935 0
M  V30 13292 H 1236.29 1.26851 -1.47969 0
M  V30 13293 H 1235.39 2.79368 -1.39141 0
M  V30 13294 N 1235.69 0.975146 1.23809 0
M  V30 13295 C 1237.1 0.678873 1.7392 0
M  V30 13296 C 1237.45 -0.805133 1.78919 0
M  V30 13297 O 1236.58 -1.62984 1.42356 0
M  V30 13298 C 1237.17 1.22562 3.15854 0
M  V30 13299 C 1235.73 0.979096 3.63443 0
M  V30 13300 C 1234.88 1.35649 2.41857 0
M  V30 13301 H 1237.83 1.14961 1.09406 0
M  V30 13302 H 1237.85 0.595489 3.75811 0
M  V30 13303 H 1237.36 2.30571 3.12184 0
M  V30 13304 H 1235.46 -0.0851407 3.72503 0
M  V30 13305 H 1235.58 1.62998 4.5052 0
M  V30 13306 H 1233.94 0.774916 2.42626 0
M  V30 13307 H 1234.72 2.44624 2.40861 0
M  V30 13308 N 1237.17 -1.38817 0.746158 0
M  V30 13309 C 1238.42 -2.00577 0.299458 0
M  V30 13310 C 1238.75 -1.59087 -1.11378 0
M  V30 13311 O 1238.02 -0.824932 -1.7614 0
M  V30 13312 C 1238.31 -3.57713 0.413932 0
M  V30 13313 C 1238.16 -4.09189 1.86774 0
M  V30 13314 C 1239.48 -4.39659 -0.197082 0
M  V30 13315 H 1236.6 -0.728702 0.110285 0
M  V30 13316 H 1239.24 -1.64866 0.944408 0
M  V30 13317 H 1237.39 -3.88265 -0.135155 0
M  V30 13318 H 1239.06 -3.89311 2.47456 0
M  V30 13319 H 1237.3 -3.62333 2.38532 0
M  V30 13320 H 1237.98 -5.18305 1.89904 0
M  V30 13321 H 1240.45 -4.15216 0.271121 0
M  V30 13322 H 1239.33 -5.48832 -0.0867011 0
M  V30 13323 H 1239.59 -4.23028 -1.2845 0
M  V30 13324 N 1238.65 -0.49465 -1.49636 0
M  V30 13325 C 1239.89 0.0505629 -2.04337 0
M  V30 13326 C 1240.25 1.34858 -1.36665 0
M  V30 13327 O 1241.45 1.97763 -1.82052 0
M  V30 13328 C 1239.72 0.206247 -3.56804 0
M  V30 13329 S 1241.28 0.706624 -4.33073 0
M  V30 13330 H 1238.1 0.00479193 -0.710984 0
M  V30 13331 H 1240.7 -0.667169 -1.83764 0
M  V30 13332 H 1239.41 -0.743862 -4.03602 0
M  V30 13333 H 1238.94 0.949406 -3.81772 0
M  V30 13334 H 1240.95 1.97672 -4.55127 0
M  V30 13335 N 1240.13 1.55939 -0.228214 0
M  V30 13336 C 1241.4 1.90329 0.451033 0
M  V30 13337 C 1241.78 1.14646 1.77255 0
M  V30 13338 O 1241.13 0.257912 2.2704 0
M  V30 13339 C 1241.34 3.43129 0.637456 0
M  V30 13340 C 1242.69 4.14022 0.94186 0
M  V30 13341 O 1243.71 3.48764 0.724002 0
M  V30 13342 O 1242.57 5.29418 1.35568 0
M  V30 13343 H 1239.67 0.791591 0.2394 0
M  V30 13344 H 1242.21 1.67524 -0.270893 0
M  V30 13345 H 1240.98 3.90191 -0.294435 0
M  V30 13346 H 1240.61 3.71735 1.41062 0
M  V30 13347 N 1241.6 -0.0451101 1.57535 0
M  V30 13348 C 1242.84 -0.744146 1.90373 0
M  V30 13349 C 1243.21 -1.7337 0.825039 0
M  V30 13350 O 1244.41 -2.4798 1.03726 0
M  V30 13351 C 1242.68 -1.41028 3.28399 0
M  V30 13352 S 1244.24 -2.14069 3.8304 0
M  V30 13353 H 1241.06 -0.246888 0.666759 0
M  V30 13354 H 1243.66 0.000729019 1.955 0
M  V30 13355 H 1242.36 -0.67663 4.04784 0
M  V30 13356 H 1241.89 -2.19404 3.26536 0
M  V30 13357 H 1243.91 -3.40988 3.60474 0
M  V30 13358 N 1243.08 -1.54377 -0.317073 0
M  V30 13359 C 1244.03 -1.84214 -1.39046 0
M  V30 13360 C 1245 -0.689742 -1.51102 0
M  V30 13361 O 1246.18 -0.936809 -1.66218 0
M  V30 13362 C 1243.32 -2.08087 -2.75307 0
M  V30 13363 C 1242.44 -3.35756 -2.7183 0
M  V30 13364 C 1241.57 -3.49556 -3.9998 0
M  V30 13365 C 1240.61 -4.71076 -3.90837 0
M  V30 13366 N 1239.75 -4.81767 -5.10729 0
M  V30 13367 H 1244.59 -2.75785 -1.12902 0
M  V30 13368 H 1242.13 -1.36575 -0.546404 0
M  V30 13369 H 1244.08 -2.19921 -3.54529 0
M  V30 13370 H 1242.71 -1.19801 -2.99746 0
M  V30 13371 H 1241.77 -3.32627 -1.84563 0
M  V30 13372 H 1243.08 -4.2509 -2.60959 0
M  V30 13373 H 1242.23 -3.60967 -4.87635 0
M  V30 13374 H 1240.97 -2.58326 -4.13665 0
M  V30 13375 H 1239.98 -4.59715 -3.01566 0
M  V30 13376 H 1241.2 -5.63698 -3.78711 0
M  V30 13377 H 1239.15 -3.93455 -5.24908 0
M  V30 13378 H 1239.06 -5.65077 -5.02219 0
M  V30 13379 H 1240.33 -4.97517 -6.00081 0
M  V30 13380 N 1244.56 0.579466 -1.4656 0
M  V30 13381 C 1245.98 0.903163 -1.31587 0
M  V30 13382 C 1246.18 1.99406 -0.28972 0
M  V30 13383 O 1245.23 2.50632 0.30658 0
M  V30 13384 C 1246.55 1.31745 -2.70303 0
M  V30 13385 C 1248.09 1.43012 -2.78418 0
M  V30 13386 C 1248.57 1.87805 -4.17724 0
M  V30 13387 N 1250.06 1.94993 -4.20157 0
M  V30 13388 C 1250.79 2.30934 -5.2484 0
M  V30 13389 N 1250.29 2.65645 -6.39847 0
M  V30 13390 N 1252.08 2.31517 -5.12207 0
M  V30 13391 H 1244.23 -0.141111 -2.11931 0
M  V30 13392 H 1246.5 -0.000460304 -0.948 0
M  V30 13393 H 1246.2 0.589864 -3.46718 0
M  V30 13394 H 1246.08 2.2783 -3.00622 0
M  V30 13395 H 1248.46 2.14856 -2.02289 0
M  V30 13396 H 1248.55 0.451701 -2.5178 0
M  V30 13397 H 1248.19 1.16539 -4.94349 0
M  V30 13398 H 1248.12 2.86611 -4.41771 0
M  V30 13399 H 1250.61 1.70645 -3.37178 0
M  V30 13400 H 1250.92 2.92032 -7.15498 0
M  V30 13401 H 1249.27 2.63276 -6.43204 0
M  V30 13402 H 1252.46 2.03824 -4.21394 0
M  V30 13403 H 1252.63 2.59199 -5.93902 0
M  V30 13404 N 1246.04 1.3432 0.824371 0
M  V30 13405 C 1246.99 1.2578 1.95658 0
M  V30 13406 C 1247.98 0.156199 1.68678 0
M  V30 13407 O 1249.19 0.321081 1.77113 0
M  V30 13408 H 1245.56 0.390711 0.642533 0
M  V30 13409 H 1247.53 2.21471 1.99983 0
M  V30 13410 C 1246.28 1.02865 3.32136 0
M  V30 13411 H 1245.6 1.86863 3.53443 0
M  V30 13412 H 1247.04 1.00925 4.11813 0
M  V30 13413 C 1245.5 -0.268097 3.35832 0
M  V30 13414 O 1246.03 -1.26995 3.81097 0
M  V30 13415 N 1244.24 -0.300702 2.8904 0
M  V30 13416 H 1243.79 0.51515 2.52396 0
M  V30 13417 H 1243.74 -1.16811 2.91895 0
M  V30 13418 N 1247.52 -1.0444 1.18026 0
M  V30 13419 C 1248.74 -1.81772 0.998684 0
M  V30 13420 C 1249.17 -1.82682 -0.448225 0
M  V30 13421 O 1248.52 -1.24136 -1.32136 0
M  V30 13422 C 1248.57 -3.2542 1.55352 0
M  V30 13423 O 1247.68 -4.05103 0.772351 0
M  V30 13424 H 1247.02 -0.561731 0.354054 0
M  V30 13425 H 1249.55 -1.31557 1.56697 0
M  V30 13426 H 1249.56 -3.76206 1.57903 0
M  V30 13427 H 1248.23 -3.24073 2.60672 0
M  V30 13428 H 1246.81 -3.63798 0.818852 0
M  V30 13429 N 1248.99 -0.981699 -1.2329 0
M  V30 13430 C 1250.27 -0.567659 -1.87182 0
M  V30 13431 C 1250.65 0.955194 -1.88253 0
M  V30 13432 O 1250 1.83245 -1.36504 0
M  V30 13433 C 1250.21 -1.17522 -3.28618 0
M  V30 13434 C 1251.56 -1.26877 -4.052 0
M  V30 13435 O 1252.58 -1.12877 -3.37842 0
M  V30 13436 O 1251.44 -1.49163 -5.2575 0
M  V30 13437 H 1248.53 -0.191315 -0.804567 0
M  V30 13438 H 1251.08 -1.07686 -1.31155 0
M  V30 13439 H 1249.85 -2.21735 -3.22411 0
M  V30 13440 H 1249.48 -0.650913 -3.92236 0
M  V30 13441 N 1250.47 1.3842 -0.753509 0
M  V30 13442 C 1251.72 2.00415 -0.310091 0
M  V30 13443 C 1252.05 1.59675 1.10532 0
M  V30 13444 O 1251.33 0.834261 1.757 0
M  V30 13445 C 1251.61 3.57488 -0.432897 0
M  V30 13446 C 1251.46 4.08193 -1.88941 0
M  V30 13447 C 1252.78 4.39757 0.173763 0
M  V30 13448 H 1249.9 0.728107 -0.114147 0
M  V30 13449 H 1252.54 1.64363 -0.953138 0
M  V30 13450 H 1250.69 3.88331 0.114563 0
M  V30 13451 H 1252.36 3.87993 -2.49517 0
M  V30 13452 H 1250.61 3.61063 -2.4045 0
M  V30 13453 H 1251.28 5.17291 -1.9265 0
M  V30 13454 H 1253.75 4.15066 -0.293137 0
M  V30 13455 H 1252.63 5.4887 0.057594 0
M  V30 13456 H 1252.89 4.23704 1.26205 0
M  V30 13457 N 1251.95 0.502579 1.49372 0
M  V30 13458 C 1252.88 -0.321683 2.25921 0
M  V30 13459 C 1253.86 -0.968999 1.30572 0
M  V30 13460 O 1255.05 -0.998788 1.59864 0
M  V30 13461 C 1252.17 -1.45318 3.05942 0
M  V30 13462 C 1251.22 -0.920076 4.16457 0
M  V30 13463 S 1252.05 0.190402 5.35161 0
M  V30 13464 C 1253.21 -0.944222 6.18737 0
M  V30 13465 H 1253.44 0.328036 2.95485 0
M  V30 13466 H 1250.97 0.287903 1.51692 0
M  V30 13467 H 1252.93 -2.1015 3.52629 0
M  V30 13468 H 1251.59 -2.07452 2.35844 0
M  V30 13469 H 1250.79 -1.76808 4.71969 0
M  V30 13470 H 1250.39 -0.348944 3.72369 0
M  V30 13471 H 1252.68 -1.8491 6.51778 0
M  V30 13472 H 1253.62 -0.42769 7.06807 0
M  V30 13473 H 1254.03 -1.21227 5.5133 0
M  V30 13474 N 1253.43 -1.55816 0.23648 0
M  V30 13475 C 1254.71 -1.90565 -0.440933 0
M  V30 13476 C 1255.09 -1.15585 -1.76645 0
M  V30 13477 O 1254.43 -0.269949 -2.269 0
M  V30 13478 C 1254.64 -3.43462 -0.61925 0
M  V30 13479 C 1255.99 -4.14516 -0.91989 0
M  V30 13480 O 1257.02 -3.49144 -0.705496 0
M  V30 13481 O 1255.87 -5.3013 -1.32759 0
M  V30 13482 H 1252.97 -0.79285 -0.235199 0
M  V30 13483 H 1255.51 -1.67378 0.279774 0
M  V30 13484 H 1254.29 -3.90029 0.315124 0
M  V30 13485 H 1253.91 -3.72478 -1.39089 0
M  V30 13486 N 1254.91 0.036755 -1.57557 0
M  V30 13487 C 1256.15 0.734039 -1.90765 0
M  V30 13488 C 1256.51 1.7293 -0.834222 0
M  V30 13489 O 1257.71 2.47427 -1.0504 0
M  V30 13490 C 1255.98 1.39285 -3.29142 0
M  V30 13491 S 1257.54 2.12035 -3.8417 0
M  V30 13492 H 1254.36 0.243349 -0.668059 0
M  V30 13493 H 1256.96 -0.0110968 -1.95497 0
M  V30 13494 H 1255.67 0.655154 -4.05137 0
M  V30 13495 H 1255.2 2.17669 -3.27694 0
M  V30 13496 H 1257.21 3.39072 -3.62277 0
M  V30 13497 N 1256.39 1.54543 0.308881 0
M  V30 13498 C 1257.63 1.73706 1.04661 0
M  V30 13499 C 1257.96 0.517111 1.87189 0
M  V30 13500 O 1257.24 -0.485856 1.88334 0
M  V30 13501 C 1257.52 3.02141 1.95916 0
M  V30 13502 C 1257.38 4.34419 1.1662 0
M  V30 13503 C 1258.69 3.26401 2.95213 0
M  V30 13504 H 1255.81 0.63203 0.379087 0
M  V30 13505 H 1258.46 1.87253 0.321947 0
M  V30 13506 H 1256.61 2.90723 2.57706 0
M  V30 13507 H 1258.28 4.57743 0.571772 0
M  V30 13508 H 1256.52 4.3126 0.468747 0
M  V30 13509 H 1257.19 5.20535 1.83704 0
M  V30 13510 H 1259.67 3.37377 2.43549 0
M  V30 13511 H 1258.54 4.17597 3.56235 0
M  V30 13512 H 1258.8 2.44322 3.68455 0
M  V30 13513 N 1257.86 -0.571685 1.46866 0
M  V30 13514 C 1259.11 -1.32574 1.5201 0
M  V30 13515 C 1259.43 -1.94762 0.180838 0
M  V30 13516 O 1260.63 -2.71276 0.110158 0
M  V30 13517 C 1259.09 -2.40331 2.67897 0
M  V30 13518 C 1258.7 -1.84398 4.08291 0
M  V30 13519 C 1260.44 -3.17009 2.82321 0
M  V30 13520 C 1258.35 -2.89849 5.15501 0
M  V30 13521 H 1257.28 -0.498428 0.565761 0
M  V30 13522 H 1259.93 -0.608853 1.73105 0
M  V30 13523 H 1258.31 -3.14869 2.40153 0
M  V30 13524 H 1259.48 -1.16329 4.45875 0
M  V30 13525 H 1257.8 -1.20351 3.98628 0
M  V30 13526 H 1260.4 -3.95729 3.59587 0
M  V30 13527 H 1260.74 -3.70292 1.90236 0
M  V30 13528 H 1261.27 -2.4958 3.09765 0
M  V30 13529 H 1258.01 -2.4144 6.09415 0
M  V30 13530 H 1257.53 -3.56372 4.82451 0
M  V30 13531 H 1259.21 -3.53603 5.41825 0
M  V30 13532 N 1259.34 -1.34755 -0.817236 0
M  V30 13533 C 1260.27 -1.29452 -1.94331 0
M  V30 13534 C 1261.25 -0.170902 -1.69239 0
M  V30 13535 O 1262.44 -0.364173 -1.90755 0
M  V30 13536 C 1259.57 -1.05497 -3.30889 0
M  V30 13537 C 1258.52 -2.14386 -3.70436 0
M  V30 13538 C 1257.85 -1.75612 -5.05039 0
M  V30 13539 C 1259.15 -3.56265 -3.81933 0
M  V30 13540 H 1260.84 -2.23672 -1.99025 0
M  V30 13541 H 1258.39 -1.07674 -0.956159 0
M  V30 13542 H 1260.34 -1.0043 -4.09257 0
M  V30 13543 H 1259.06 -0.0772059 -3.26509 0
M  V30 13544 H 1257.72 -2.18532 -2.94345 0
M  V30 13545 H 1257.37 -0.764809 -4.97152 0
M  V30 13546 H 1257.07 -2.48495 -5.3247 0
M  V30 13547 H 1258.6 -1.72051 -5.85859 0
M  V30 13548 H 1260.01 -3.545 -4.50558 0
M  V30 13549 H 1258.41 -4.27818 -4.20822 0
M  V30 13550 H 1259.48 -3.93192 -2.83775 0
M  V30 13551 N 1260.82 1.03812 -1.18578 0
M  V30 13552 C 1262.1 1.74062 -0.892288 0
M  V30 13553 C 1262.48 2.02267 0.604256 0
M  V30 13554 O 1261.82 1.66988 1.55972 0
M  V30 13555 C 1262.03 3.024 -1.74228 0
M  V30 13556 C 1263.38 3.76088 -1.97087 0
M  V30 13557 O 1264.41 3.12305 -1.71302 0
M  V30 13558 O 1263.27 4.90732 -2.40509 0
M  V30 13559 H 1260.36 0.757567 -0.331695 0
M  V30 13560 H 1262.91 1.09855 -1.29345 0
M  V30 13561 H 1261.68 2.77713 -2.75665 0
M  V30 13562 H 1261.3 3.74346 -1.3398 0
M  V30 13563 N 1262.3 0.988223 1.22768 0
M  V30 13564 C 1263.57 0.577578 1.86878 0
M  V30 13565 C 1263.95 -0.945197 1.88757 0
M  V30 13566 O 1263.3 -1.82519 1.37474 0
M  V30 13567 C 1263.51 1.19263 3.2799 0
M  V30 13568 C 1264.86 1.29024 4.04522 0
M  V30 13569 O 1265.88 1.14667 3.37239 0
M  V30 13570 O 1264.74 1.51949 5.24951 0
M  V30 13571 H 1261.84 0.195579 0.803541 0
M  V30 13572 H 1264.38 1.0838 1.30582 0
M  V30 13573 H 1263.16 2.23442 3.21231 0
M  V30 13574 H 1262.78 0.671706 3.91885 0
M  V30 13575 N 1263.78 -1.38018 0.760839 0
M  V30 13576 C 1265.02 -1.99557 0.319609 0
M  V30 13577 C 1265.34 -1.60699 -1.10457 0
M  V30 13578 O 1264.61 -0.867248 -1.75658 0
M  V30 13579 H 1263.19 -0.738066 0.115182 0
M  V30 13580 H 1265.86 -1.6867 0.976544 0
M  V30 13581 H 1264.95 -3.09672 0.388523 0
M  V30 13582 N 1265.25 -0.510493 -1.49103 0
M  V30 13583 C 1266.5 0.0305831 -2.02077 0
M  V30 13584 C 1266.82 1.36602 -1.39157 0
M  V30 13585 O 1266.09 1.88016 -0.550154 0
M  V30 13586 H 1264.67 0.0142916 -0.746863 0
M  V30 13587 H 1267.33 -0.669895 -1.83026 0
M  V30 13588 H 1266.43 0.153283 -3.11723 0
M  V30 13589 N 1266.73 1.55688 -0.24474 0
M  V30 13590 C 1267.98 1.98891 0.380603 0
M  V30 13591 C 1268.31 1.13283 1.58105 0
M  V30 13592 O 1267.56 0.183141 1.94841 0
M  V30 13593 C 1267.86 3.47487 0.835923 0
M  V30 13594 C 1267.53 4.5017 -0.256528 0
M  V30 13595 C 1266.19 4.7797 -0.556573 0
M  V30 13596 C 1268.54 5.1163 -0.994174 0
M  V30 13597 C 1265.87 5.64508 -1.59838 0
M  V30 13598 C 1268.22 5.99297 -2.02548 0
M  V30 13599 C 1266.88 6.25432 -2.3322 0
M  V30 13600 H 1266.15 0.727794 0.139273 0
M  V30 13601 H 1268.8 1.88235 -0.352113 0
M  V30 13602 H 1267.11 3.55464 1.64781 0
M  V30 13603 H 1268.8 3.78301 1.33001 0
M  V30 13604 H 1265.39 4.28598 -0.0125284 0
M  V30 13605 H 1269.58 4.90202 -0.775617 0
M  V30 13606 H 1264.83 5.83012 -1.84138 0
M  V30 13607 H 1269.01 6.45964 -2.60198 0
M  V30 13608 H 1266.63 6.92282 -3.14085 0
M  V30 13609 N 1268.21 -0.0283989 1.57574 0
M  V30 13610 C 1269.14 -1.02828 2.09639 0
M  V30 13611 C 1270.12 -1.37668 0.999076 0
M  V30 13612 O 1271.31 -1.4654 1.27435 0
M  V30 13613 C 1268.44 -2.329 2.57633 0
M  V30 13614 C 1267.39 -2.12301 3.71635 0
M  V30 13615 C 1266.72 -3.48138 4.05837 0
M  V30 13616 C 1268.02 -1.50864 5.00037 0
M  V30 13617 H 1269.71 -0.594876 2.93431 0
M  V30 13618 H 1267.26 -0.284701 1.41158 0
M  V30 13619 H 1269.21 -3.03179 2.92678 0
M  V30 13620 H 1267.93 -2.78302 1.70926 0
M  V30 13621 H 1266.59 -1.44454 3.3694 0
M  V30 13622 H 1266.24 -3.9119 3.16195 0
M  V30 13623 H 1265.94 -3.3518 4.82626 0
M  V30 13624 H 1267.46 -4.19779 4.43417 0
M  V30 13625 H 1268.88 -2.11062 5.33035 0
M  V30 13626 H 1267.27 -1.48479 5.81441 0
M  V30 13627 H 1268.34 -0.474541 4.82572 0
M  V30 13628 N 1269.69 -1.54705 -0.300681 0
M  V30 13629 C 1270.62 -1.88679 -1.37559 0
M  V30 13630 C 1271.6 -0.74574 -1.52881 0
M  V30 13631 O 1272.78 -1.0015 -1.66384 0
M  V30 13632 C 1269.91 -2.13438 -2.73974 0
M  V30 13633 C 1268.87 -3.29284 -2.73415 0
M  V30 13634 C 1268.19 -3.39462 -4.13122 0
M  V30 13635 C 1269.49 -4.66382 -2.35128 0
M  V30 13636 H 1271.19 -2.78707 -1.09373 0
M  V30 13637 H 1268.73 -1.341 -0.524704 0
M  V30 13638 H 1270.69 -2.35791 -3.49257 0
M  V30 13639 H 1269.41 -1.20181 -3.03684 0
M  V30 13640 H 1268.07 -3.06855 -2.00588 0
M  V30 13641 H 1267.72 -2.43721 -4.4001 0
M  V30 13642 H 1267.42 -4.17334 -4.1365 0
M  V30 13643 H 1268.94 -3.64075 -4.90185 0
M  V30 13644 H 1270.36 -4.88463 -3.00128 0
M  V30 13645 H 1268.75 -5.4697 -2.46867 0
M  V30 13646 H 1269.82 -4.67078 -1.30256 0
M  V30 13647 N 1271.17 0.563888 -1.47167 0
M  V30 13648 C 1272.1 1.68689 -1.53685 0
M  V30 13649 C 1273.08 1.57866 -0.389486 0
M  V30 13650 O 1274.26 1.78819 -0.596336 0
M  V30 13651 C 1271.39 3.06887 -1.43311 0
M  V30 13652 C 1270.43 3.36175 -2.62466 0
M  V30 13653 S 1271.27 3.26166 -4.24707 0
M  V30 13654 C 1272.42 4.66868 -4.16875 0
M  V30 13655 H 1272.66 1.62905 -2.48695 0
M  V30 13656 H 1270.19 0.74417 -1.35283 0
M  V30 13657 H 1272.15 3.86604 -1.38014 0
M  V30 13658 H 1270.81 3.10144 -0.496971 0
M  V30 13659 H 1270 4.36907 -2.51253 0
M  V30 13660 H 1269.6 2.64064 -2.64852 0
M  V30 13661 H 1271.9 5.57673 -3.84717 0
M  V30 13662 H 1272.84 4.83139 -5.1767 0
M  V30 13663 H 1273.25 4.44601 -3.47836 0
M  V30 13664 N 1272.64 1.35187 0.810078 0
M  V30 13665 C 1273.61 1.27698 1.90331 0
M  V30 13666 C 1274.61 0.189216 1.59683 0
M  V30 13667 O 1275.8 0.442689 1.68481 0
M  V30 13668 C 1272.93 0.974631 3.26671 0
M  V30 13669 H 1274.12 2.24902 1.98392 0
M  V30 13670 H 1271.68 1.1966 1.00554 0
M  V30 13671 H 1272.41 0.0063068 3.24299 0
M  V30 13672 H 1272.2 1.76158 3.50301 0
M  V30 13673 H 1273.69 0.947743 4.06703 0
M  V30 13674 N 1274.12 -1.03182 1.19127 0
M  V30 13675 C 1275.07 -2.13507 0.922899 0
M  V30 13676 C 1276.06 -1.68973 -0.120171 0
M  V30 13677 O 1277.27 -1.79977 0.0288007 0
M  V30 13678 H 1273.65 -0.697516 0.281027 0
M  V30 13679 H 1275.62 -2.33335 1.86003 0
M  V30 13680 C 1274.37 -3.44442 0.474864 0
M  V30 13681 H 1273.69 -3.79125 1.26902 0
M  V30 13682 H 1275.13 -4.22744 0.326162 0
M  V30 13683 C 1273.59 -3.27002 -0.81063 0
M  V30 13684 O 1274.12 -3.55374 -1.87276 0
M  V30 13685 N 1272.32 -2.80303 -0.766713 0
M  V30 13686 H 1271.87 -2.57414 0.0978672 0
M  V30 13687 H 1271.83 -2.69015 -1.62721 0
M  V30 13688 N 1275.6 -0.99472 -1.22242 0
M  V30 13689 C 1276.55 -0.517696 -2.22045 0
M  V30 13690 C 1277.53 0.415108 -1.55453 0
M  V30 13691 O 1278.73 0.241632 -1.75343 0
M  V30 13692 C 1275.86 0.164524 -3.42906 0
M  V30 13693 C 1274.94 -0.788692 -4.16702 0
M  V30 13694 N 1275.33 -1.93729 -4.67229 0
M  V30 13695 C 1273.63 -0.604946 -4.41878 0
M  V30 13696 C 1274.33 -2.53573 -5.23522 0
M  V30 13697 N 1273.31 -1.81825 -5.12289 0
M  V30 13698 H 1277.11 -1.39368 -2.58754 0
M  V30 13699 H 1274.62 -0.857215 -1.37933 0
M  V30 13700 H 1276.62 0.523668 -4.13598 0
M  V30 13701 H 1275.28 1.03662 -3.07708 0
M  V30 13702 H 1276.29 -2.31802 -4.63129 0
M  V30 13703 H 1272.97 0.220932 -4.16915 0
M  V30 13704 H 1274.36 -3.50653 -5.73142 0
M  V30 13705 N 1277.08 1.37613 -0.768148 0
M  V30 13706 C 1278.36 1.93921 -0.255724 0
M  V30 13707 C 1278.74 1.70215 1.2486 0
M  V30 13708 O 1278.08 1.0489 2.03003 0
M  V30 13709 C 1278.29 3.43354 -0.625204 0
M  V30 13710 C 1279.64 4.20439 -0.592978 0
M  V30 13711 O 1280.67 3.51701 -0.564375 0
M  V30 13712 O 1279.52 5.43008 -0.616849 0
M  V30 13713 H 1276.62 0.824968 -0.0579366 0
M  V30 13714 H 1279.16 1.46921 -0.849257 0
M  V30 13715 H 1277.94 3.54177 -1.66356 0
M  V30 13716 H 1277.56 3.976 -0.00442816 0
M  V30 13717 N 1278.56 0.518393 1.4883 0
M  V30 13718 C 1279.83 -0.0837498 1.95421 0
M  V30 13719 C 1280.21 -1.52435 1.46037 0
M  V30 13720 O 1279.56 -2.18093 0.681736 0
M  V30 13721 C 1279.77 0.0215333 3.48993 0
M  V30 13722 C 1281.12 -0.143615 4.24357 0
M  V30 13723 O 1282.14 -0.0528223 3.56161 0
M  V30 13724 O 1281 -0.332231 5.45489 0
M  V30 13725 H 1278.1 -0.0857132 0.822546 0
M  V30 13726 H 1280.64 0.582169 1.59402 0
M  V30 13727 H 1279.41 1.02549 3.77623 0
M  V30 13728 H 1279.04 -0.683756 3.91677 0
M  V30 13729 N 1280.03 -1.55556 0.252993 0
M  V30 13730 C 1281.26 -2.03196 -0.37348 0
M  V30 13731 C 1281.67 -1.13145 -1.51641 0
M  V30 13732 O 1281.02 -0.139519 -1.83169 0
M  V30 13733 C 1281.08 -3.47066 -0.937308 0
M  V30 13734 C 1280.74 -4.5694 0.0741513 0
M  V30 13735 C 1281.74 -5.12297 0.885862 0
M  V30 13736 C 1279.42 -5.01894 0.202003 0
M  V30 13737 C 1281.42 -6.11107 1.81182 0
M  V30 13738 C 1279.1 -6.00534 1.13146 0
M  V30 13739 C 1280.1 -6.5502 1.93489 0
M  V30 13740 O 1279.79 -7.51735 2.84868 0
M  V30 13741 H 1279.52 -0.669687 -0.092171 0
M  V30 13742 H 1282.08 -2.01924 0.376264 0
M  V30 13743 H 1280.31 -3.45507 -1.73672 0
M  V30 13744 H 1282 -3.78171 -1.47451 0
M  V30 13745 H 1282.76 -4.78395 0.797707 0
M  V30 13746 H 1278.64 -4.59144 -0.413301 0
M  V30 13747 H 1282.18 -6.53561 2.43935 0
M  V30 13748 H 1278.08 -6.33856 1.22052 0
M  V30 13749 H 1278.85 -7.69373 2.79298 0
M  V30 13750 N 1281.51 0.0200419 -1.57587 0
M  V30 13751 C 1282.74 0.720556 -1.93947 0
M  V30 13752 C 1283.16 1.68407 -0.853499 0
M  V30 13753 O 1282.51 1.81713 0.169337 0
M  V30 13754 C 1282.56 1.46982 -3.3027 0
M  V30 13755 O 1282.28 0.544971 -4.34697 0
M  V30 13756 C 1283.79 2.26667 -3.80968 0
M  V30 13757 H 1281.01 0.201956 -0.639887 0
M  V30 13758 H 1283.55 -0.0251175 -2.04485 0
M  V30 13759 H 1281.7 2.16729 -3.21103 0
M  V30 13760 H 1282.12 1.07139 -5.13441 0
M  V30 13761 H 1283.59 2.74621 -4.78839 0
M  V30 13762 H 1284.07 3.0848 -3.12629 0
M  V30 13763 H 1284.68 1.61976 -3.93248 0
M  V30 13764 N 1282.99 1.54862 0.292472 0
M  V30 13765 C 1283.94 1.87168 1.38097 0
M  V30 13766 C 1284.93 0.746176 1.52081 0
M  V30 13767 O 1286.14 0.930281 1.54097 0
M  V30 13768 H 1282.51 0.593769 0.461456 0
M  V30 13769 H 1284.48 2.78135 1.0809 0
M  V30 13770 C 1283.23 2.14315 2.73796 0
M  V30 13771 H 1282.56 3.00398 2.63821 0
M  V30 13772 H 1284 2.40853 3.48949 0
M  V30 13773 C 1282.46 0.944424 3.23392 0
M  V30 13774 O 1282.99 0.169208 4.01343 0
M  V30 13775 N 1281.19 0.747456 2.80823 0
M  V30 13776 H 1280.74 1.37953 2.17547 0
M  V30 13777 H 1280.7 -0.0530199 3.14355 0
M  V30 13778 N 1284.47 -0.556076 1.47464 0
M  V30 13779 C 1285.4 -1.67829 1.56096 0
M  V30 13780 C 1286.41 -1.56541 0.447077 0
M  V30 13781 O 1287.6 -1.63478 0.716739 0
M  V30 13782 C 1284.7 -3.06303 1.45023 0
M  V30 13783 C 1283.88 -3.43334 2.70999 0
M  V30 13784 C 1282.93 -4.60976 2.53746 0
M  V30 13785 O 1281.96 -4.65501 3.27564 0
M  V30 13786 N 1283.16 -5.5754 1.61647 0
M  V30 13787 H 1285.93 -1.6087 2.52865 0
M  V30 13788 H 1283.49 -0.74274 1.43857 0
M  V30 13789 H 1285.48 -3.82838 1.31214 0
M  V30 13790 H 1284.05 -3.07483 0.563311 0
M  V30 13791 H 1283.27 -2.56236 2.99561 0
M  V30 13792 H 1284.56 -3.64851 3.54629 0
M  V30 13793 H 1283.96 -5.56642 1.00827 0
M  V30 13794 H 1282.51 -6.33397 1.53789 0
M  V30 13795 N 1285.95 -1.35615 -0.802897 0
M  V30 13796 C 1287.2 -1.28428 -1.55528 0
M  V30 13797 C 1287.51 0.138275 -1.95111 0
M  V30 13798 O 1288.72 0.332435 -2.69457 0
M  V30 13799 C 1287.17 -2.25251 -2.80696 0
M  V30 13800 C 1286.78 -3.72871 -2.48336 0
M  V30 13801 C 1288.52 -2.27014 -3.58699 0
M  V30 13802 C 1286.43 -4.61507 -3.69817 0
M  V30 13803 H 1285.36 -0.47718 -0.583794 0
M  V30 13804 H 1288.01 -1.609 -0.882238 0
M  V30 13805 H 1286.39 -1.85755 -3.4973 0
M  V30 13806 H 1287.57 -4.21024 -1.87285 0
M  V30 13807 H 1285.88 -3.73752 -1.83571 0
M  V30 13808 H 1288.48 -2.90451 -4.48935 0
M  V30 13809 H 1288.82 -1.27491 -3.96298 0
M  V30 13810 H 1289.36 -2.65058 -2.9663 0
M  V30 13811 H 1286.09 -5.62043 -3.37324 0
M  V30 13812 H 1285.61 -4.18079 -4.30081 0
M  V30 13813 H 1287.29 -4.77113 -4.37004 0
M  V30 13814 N 1287.43 1.02549 -1.19673 0
M  V30 13815 C 1288.67 1.75656 -0.999463 0
M  V30 13816 C 1288.99 1.89238 0.470517 0
M  V30 13817 O 1288.26 1.42843 1.34062 0
M  V30 13818 H 1286.84 0.650732 -0.366821 0
M  V30 13819 H 1289.51 1.23684 -1.50627 0
M  V30 13820 H 1288.6 2.76353 -1.45035 0
M  V30 13821 N 1288.9 1.00119 1.21713 0
M  V30 13822 C 1290.32 0.713343 1.42771 0
M  V30 13823 C 1290.52 -0.712923 1.88467 0
M  V30 13824 O 1289.58 -1.48277 2.04378 0
M  V30 13825 C 1290.89 1.72596 2.46234 0
M  V30 13826 C 1292.44 1.74235 2.60022 0
M  V30 13827 C 1292.91 2.74382 3.66713 0
M  V30 13828 N 1294.4 2.73027 3.7418 0
M  V30 13829 C 1295.14 3.47178 4.56349 0
M  V30 13830 N 1294.63 4.30958 5.42446 0
M  V30 13831 N 1296.43 3.35846 4.50737 0
M  V30 13832 H 1288.58 1.9222 0.903611 0
M  V30 13833 H 1290.84 0.829466 0.459011 0
M  V30 13834 H 1290.55 2.74699 2.19621 0
M  V30 13835 H 1290.42 1.52553 3.44975 0
M  V30 13836 H 1292.81 0.728261 2.85973 0
M  V30 13837 H 1292.89 1.98349 1.61528 0
M  V30 13838 H 1292.53 3.75945 3.41508 0
M  V30 13839 H 1292.46 2.47534 4.64795 0
M  V30 13840 H 1294.95 2.12242 3.12669 0
M  V30 13841 H 1295.27 4.84344 6.02189 0
M  V30 13842 H 1293.61 4.35042 5.42 0
M  V30 13843 H 1296.8 2.6983 3.82504 0
M  V30 13844 H 1296.98 3.93892 5.14541 0
M  V30 13845 N 1290.38 -1.37203 0.775435 0
M  V30 13846 C 1291.63 -1.99601 0.341431 0
M  V30 13847 C 1291.96 -1.61555 -1.08306 0
M  V30 13848 O 1291.21 -0.855126 -1.76029 0
M  V30 13849 C 1291.51 -3.54725 0.436426 0
M  V30 13850 C 1291.18 -4.1255 1.8197 0
M  V30 13851 C 1289.84 -4.28056 2.19822 0
M  V30 13852 C 1292.19 -4.44222 2.7261 0
M  V30 13853 C 1289.52 -4.72538 3.47742 0
M  V30 13854 C 1291.87 -4.90131 3.99943 0
M  V30 13855 C 1290.53 -5.03842 4.37835 0
M  V30 13856 H 1289.8 -0.730391 0.124938 0
M  V30 13857 H 1292.45 -1.63914 0.990177 0
M  V30 13858 H 1290.76 -3.90681 -0.295852 0
M  V30 13859 H 1292.45 -4.00916 0.0818664 0
M  V30 13860 H 1289.04 -4.00911 1.51553 0
M  V30 13861 H 1293.23 -4.31824 2.44625 0
M  V30 13862 H 1288.48 -4.81341 3.76989 0
M  V30 13863 H 1292.66 -5.13604 4.70302 0
M  V30 13864 H 1290.28 -5.3807 5.37015 0
M  V30 13865 N 1291.86 -0.526279 -1.48553 0
M  V30 13866 C 1293.11 0.0091665 -2.02498 0
M  V30 13867 C 1293.43 1.34632 -1.40373 0
M  V30 13868 O 1292.69 1.88172 -0.537573 0
M  V30 13869 C 1292.99 0.184075 -3.56926 0
M  V30 13870 C 1292.65 -1.07825 -4.37818 0
M  V30 13871 C 1291.32 -1.42422 -4.59641 0
M  V30 13872 C 1293.67 -1.91616 -4.84699 0
M  V30 13873 C 1291 -2.60713 -5.25591 0
M  V30 13874 C 1293.35 -3.09082 -5.51952 0
M  V30 13875 C 1292.01 -3.44029 -5.72014 0
M  V30 13876 H 1291.28 0.00335426 -0.740992 0
M  V30 13877 H 1293.93 -0.691553 -1.78577 0
M  V30 13878 H 1292.23 0.967532 -3.79666 0
M  V30 13879 H 1293.93 0.613226 -3.96283 0
M  V30 13880 H 1290.52 -0.798812 -4.2109 0
M  V30 13881 H 1294.71 -1.66199 -4.67645 0
M  V30 13882 H 1289.96 -2.87996 -5.39322 0
M  V30 13883 H 1294.14 -3.74317 -5.87247 0
M  V30 13884 H 1291.76 -4.35789 -6.2289 0
M  V30 13885 N 1293.34 1.5542 -0.261239 0
M  V30 13886 C 1294.59 1.9889 0.358777 0
M  V30 13887 C 1294.91 1.15092 1.57413 0
M  V30 13888 O 1294.18 0.237095 1.9446 0
M  V30 13889 H 1292.76 0.734599 0.13555 0
M  V30 13890 H 1295.42 1.91483 -0.363357 0
M  V30 13891 H 1294.51 3.05082 0.658142 0
M  V30 13892 N 1294.82 -0.0116844 1.57596 0
M  V30 13893 C 1295.73 -1.02342 2.111 0
M  V30 13894 C 1296.74 -1.38478 1.05355 0
M  V30 13895 O 1297.92 -1.47447 1.37191 0
M  V30 13896 C 1294.98 -2.30016 2.5941 0
M  V30 13897 C 1294.04 -2.003 3.79708 0
M  V30 13898 C 1293.28 -3.21888 4.25704 0
M  V30 13899 O 1293.5 -4.33171 3.71106 0
M  V30 13900 O 1292.43 -3.0657 5.17975 0
M  V30 13901 H 1296.26 -0.598637 2.97742 0
M  V30 13902 H 1293.84 -0.229779 1.47622 0
M  V30 13903 H 1295.73 -3.05044 2.90733 0
M  V30 13904 H 1294.4 -2.71755 1.75871 0
M  V30 13905 H 1293.31 -1.22785 3.53376 0
M  V30 13906 H 1294.64 -1.63406 4.64284 0
M  V30 13907 N 1296.29 -1.55015 -0.284256 0
M  V30 13908 C 1297.54 -1.74297 -1.01506 0
M  V30 13909 C 1297.86 -0.545134 -1.8785 0
M  V30 13910 O 1299.06 -0.620118 -2.64323 0
M  V30 13911 C 1297.52 -3.08438 -1.85456 0
M  V30 13912 C 1297.13 -4.35753 -1.04034 0
M  V30 13913 C 1298.87 -3.37073 -2.58035 0
M  V30 13914 C 1296.78 -5.60938 -1.87358 0
M  V30 13915 H 1295.71 -0.649656 -0.382705 0
M  V30 13916 H 1298.36 -1.81484 -0.271239 0
M  V30 13917 H 1296.74 -2.95259 -2.63891 0
M  V30 13918 H 1297.91 -4.59816 -0.300954 0
M  V30 13919 H 1296.23 -4.14178 -0.429616 0
M  V30 13920 H 1298.83 -4.27806 -3.20759 0
M  V30 13921 H 1299.17 -2.56698 -3.27738 0
M  V30 13922 H 1299.7 -3.51299 -1.86638 0
M  V30 13923 H 1296.44 -6.44029 -1.22096 0
M  V30 13924 H 1295.96 -5.41035 -2.58923 0
M  V30 13925 H 1297.64 -5.98819 -2.44999 0
M  V30 13926 N 1297.77 0.548248 -1.47757 0
M  V30 13927 C 1299.05 1.3092 -1.45325 0
M  V30 13928 C 1299.43 2.1053 -0.155008 0
M  V30 13929 O 1298.78 2.11558 0.863455 0
M  V30 13930 C 1298.99 2.20614 -2.70426 0
M  V30 13931 C 1300.33 2.81345 -3.18009 0
M  V30 13932 O 1301.36 2.30911 -2.71216 0
M  V30 13933 O 1300.22 3.73036 -3.99383 0
M  V30 13934 H 1297.31 0.58996 -0.579548 0
M  V30 13935 H 1299.86 0.56641 -1.59968 0
M  V30 13936 H 1298.63 1.61449 -3.56441 0
M  V30 13937 H 1298.25 3.02173 -2.58413 0
M  V30 13938 N 1299.25 1.36039 0.795694 0
M  V30 13939 C 1300.66 1.2679 1.37044 0
M  V30 13940 C 1301.01 -0.0950192 1.9597 0
M  V30 13941 O 1300.14 -0.996311 1.921 0
M  V30 13942 C 1300.73 2.29585 2.49151 0
M  V30 13943 C 1299.29 2.24044 3.02458 0
M  V30 13944 C 1298.44 2.14703 1.75493 0
M  V30 13945 H 1301.39 1.47009 0.597843 0
M  V30 13946 H 1301.41 1.92864 3.27999 0
M  V30 13947 H 1300.92 3.28769 2.06234 0
M  V30 13948 H 1299.02 1.28307 3.49812 0
M  V30 13949 H 1299.14 3.1647 3.597 0
M  V30 13950 H 1297.5 1.60856 1.97478 0
M  V30 13951 H 1298.28 3.15765 1.34713 0
M  V30 13952 N 1300.73 -1.01913 1.20215 0
M  V30 13953 C 1301.95 -1.79613 1.03702 0
M  V30 13954 C 1302.38 -1.83591 -0.409374 0
M  V30 13955 O 1301.74 -1.26911 -1.29473 0
M  V30 13956 C 1301.78 -3.22052 1.62219 0
M  V30 13957 O 1300.89 -4.03374 0.858106 0
M  V30 13958 H 1300.23 -0.554095 0.365889 0
M  V30 13959 H 1302.76 -1.28203 1.59452 0
M  V30 13960 H 1302.77 -3.72772 1.65847 0
M  V30 13961 H 1301.44 -3.18471 2.67487 0
M  V30 13962 H 1300.02 -3.6198 0.895835 0
M  V30 13963 N 1302.21 -1.00763 -1.2118 0
M  V30 13964 C 1303.14 -0.590493 -2.2591 0
M  V30 13965 C 1304.12 0.390002 -1.65569 0
M  V30 13966 O 1305.3 0.277406 -1.92208 0
M  V30 13967 C 1302.43 0.0810388 -3.47205 0
M  V30 13968 C 1301.39 -0.81951 -4.20081 0
M  V30 13969 C 1300.71 -0.014244 -5.34698 0
M  V30 13970 C 1302.01 -2.12336 -4.7719 0
M  V30 13971 H 1303.71 -1.46595 -2.61056 0
M  V30 13972 H 1301.25 -0.706321 -1.25487 0
M  V30 13973 H 1303.21 0.384355 -4.19644 0
M  V30 13974 H 1301.93 0.991145 -3.11197 0
M  V30 13975 H 1300.59 -1.10669 -3.49497 0
M  V30 13976 H 1300.24 0.897233 -4.94933 0
M  V30 13977 H 1299.94 -0.613883 -5.84384 0
M  V30 13978 H 1301.46 0.282827 -6.09945 0
M  V30 13979 H 1302.87 -1.88301 -5.41494 0
M  V30 13980 H 1301.27 -2.67308 -5.37277 0
M  V30 13981 H 1302.34 -2.79238 -3.96427 0
M  V30 13982 N 1303.68 1.3679 -0.7827 0
M  V30 13983 C 1304.62 2.27871 -0.122531 0
M  V30 13984 C 1305.6 1.46885 0.697399 0
M  V30 13985 O 1306.78 1.76198 0.669819 0
M  V30 13986 C 1303.91 3.28314 0.832311 0
M  V30 13987 C 1302.95 4.26394 0.0950152 0
M  V30 13988 S 1303.79 5.2131 -1.22457 0
M  V30 13989 C 1304.94 6.25302 -0.273558 0
M  V30 13990 H 1305.17 2.83514 -0.894814 0
M  V30 13991 H 1302.71 1.43229 -0.5766 0
M  V30 13992 H 1304.67 3.86688 1.37778 0
M  V30 13993 H 1303.33 2.71597 1.57779 0
M  V30 13994 H 1302.52 4.97297 0.819278 0
M  V30 13995 H 1302.12 3.72067 -0.379778 0
M  V30 13996 H 1304.41 6.75263 0.550064 0
M  V30 13997 H 1305.36 7.01684 -0.951071 0
M  V30 13998 H 1305.76 5.64372 0.120115 0
M  V30 13999 N 1305.16 0.53415 1.48272 0
M  V30 14000 C 1306.58 0.192291 1.58437 0
M  V30 14001 C 1306.78 -1.3046 1.53566 0
M  V30 14002 O 1305.83 -2.08316 1.42692 0
M  V30 14003 C 1307.15 0.798515 2.89904 0
M  V30 14004 C 1308.7 0.76763 3.03441 0
M  V30 14005 C 1309.17 1.3525 4.37574 0
M  V30 14006 N 1310.66 1.31466 4.44152 0
M  V30 14007 C 1311.4 1.73706 5.46456 0
M  V30 14008 N 1310.89 2.23695 6.55692 0
M  V30 14009 N 1312.69 1.64918 5.37363 0
M  V30 14010 H 1304.84 1.50696 1.49681 0
M  V30 14011 H 1307.1 0.627073 0.710973 0
M  V30 14012 H 1306.81 1.8496 2.99136 0
M  V30 14013 H 1306.68 0.278033 3.76174 0
M  V30 14014 H 1309.07 -0.274704 2.93819 0
M  V30 14015 H 1309.15 1.32562 2.18771 0
M  V30 14016 H 1308.79 2.39379 4.47951 0
M  V30 14017 H 1308.72 0.770153 5.20938 0
M  V30 14018 H 1311.21 0.948761 3.65796 0
M  V30 14019 H 1311.53 2.5391 7.29897 0
M  V30 14020 H 1309.87 2.27691 6.56644 0
M  V30 14021 H 1313.06 1.25658 4.50919 0
M  V30 14022 H 1313.23 1.98157 6.16958 0
M  V30 14023 N 1306.64 -1.55279 0.269478 0
M  V30 14024 C 1307.59 -2.18984 -0.634838 0
M  V30 14025 C 1308.57 -1.15269 -1.12258 0
M  V30 14026 O 1309.77 -1.41103 -1.0686 0
M  V30 14027 C 1306.9 -2.91014 -1.82114 0
M  V30 14028 C 1305.98 -4.02011 -1.35084 0
M  V30 14029 N 1306.37 -5.02273 -0.596299 0
M  V30 14030 C 1304.67 -4.14979 -1.63427 0
M  V30 14031 C 1305.37 -5.80647 -0.349781 0
M  V30 14032 N 1304.35 -5.35749 -0.92057 0
M  V30 14033 H 1308.15 -2.93857 -0.0504516 0
M  V30 14034 H 1305.66 -1.62237 0.0727843 0
M  V30 14035 H 1307.66 -3.35098 -2.48022 0
M  V30 14036 H 1306.32 -2.1765 -2.40953 0
M  V30 14037 H 1307.33 -5.17324 -0.244188 0
M  V30 14038 H 1304.01 -3.52802 -2.23242 0
M  V30 14039 H 1305.4 -6.71419 0.254139 0
M  V30 14040 N 1308.12 0.00332656 -1.576 0
M  V30 14041 C 1309.05 0.994803 -2.11248 0
M  V30 14042 C 1310.03 1.36061 -1.02085 0
M  V30 14043 O 1311.21 1.44494 -1.2975 0
M  V30 14044 C 1308.34 2.28772 -2.61306 0
M  V30 14045 C 1307.3 2.06362 -3.74965 0
M  V30 14046 C 1306.62 3.41638 -4.11324 0
M  V30 14047 C 1307.92 1.4289 -5.02374 0
M  V30 14048 H 1309.62 0.548119 -2.9434 0
M  V30 14049 H 1307.16 0.262208 -1.41593 0
M  V30 14050 H 1309.12 2.98485 -2.97464 0
M  V30 14051 H 1307.84 2.75547 -1.75332 0
M  V30 14052 H 1306.5 1.39076 -3.39195 0
M  V30 14053 H 1306.15 3.8611 -3.22379 0
M  V30 14054 H 1305.85 3.2746 -4.87897 0
M  V30 14055 H 1307.37 4.12671 -4.50039 0
M  V30 14056 H 1308.79 2.02555 -5.36325 0
M  V30 14057 H 1307.18 1.3921 -5.8373 0
M  V30 14058 H 1308.25 0.397708 -4.83266 0
M  V30 14059 N 1309.6 1.55164 0.276031 0
M  V30 14060 C 1310.84 1.75887 1.00953 0
M  V30 14061 C 1311.18 0.5567 1.8605 0
M  V30 14062 O 1310.45 -0.445799 1.89322 0
M  V30 14063 C 1310.73 3.06228 1.89463 0
M  V30 14064 C 1310.59 4.36795 1.07379 0
M  V30 14065 C 1311.91 3.32589 2.88223 0
M  V30 14066 H 1309.02 0.639929 0.365596 0
M  V30 14067 H 1311.67 1.87893 0.282156 0
M  V30 14068 H 1309.82 2.96124 2.51481 0
M  V30 14069 H 1311.49 4.58853 0.474549 0
M  V30 14070 H 1309.73 4.32157 0.377165 0
M  V30 14071 H 1310.4 5.24315 1.72621 0
M  V30 14072 H 1312.88 3.42467 2.36338 0
M  V30 14073 H 1311.75 4.2506 3.47297 0
M  V30 14074 H 1312.02 2.52083 3.6319 0
M  V30 14075 N 1311.07 -0.540404 1.48045 0
M  V30 14076 C 1312.02 -1.66695 1.62221 0
M  V30 14077 C 1313.02 -1.6219 0.488943 0
M  V30 14078 O 1314.22 -1.67173 0.66732 0
M  V30 14079 H 1310.6 -0.551868 0.510828 0
M  V30 14080 H 1312.57 -1.51879 2.56856 0
M  V30 14081 C 1311.32 -3.05002 1.6694 0
M  V30 14082 H 1310.64 -3.09157 2.53499 0
M  V30 14083 H 1312.08 -3.8347 1.80904 0
M  V30 14084 C 1310.54 -3.34445 0.40598 0
M  V30 14085 O 1311.07 -3.98753 -0.485676 0
M  V30 14086 N 1309.28 -2.8924 0.280857 0
M  V30 14087 H 1308.82 -2.37085 1.00741 0
M  V30 14088 H 1308.78 -3.09309 -0.563493 0
M  V30 14089 N 1312.55 -1.36459 -0.788468 0
M  V30 14090 C 1313.8 -1.3007 -1.54158 0
M  V30 14091 C 1314.11 0.117574 -1.95246 0
M  V30 14092 O 1315.32 0.303837 -2.69795 0
M  V30 14093 C 1313.78 -2.28216 -2.78291 0
M  V30 14094 C 1313.38 -3.75484 -2.44368 0
M  V30 14095 C 1315.13 -2.30806 -3.56271 0
M  V30 14096 C 1313.04 -4.65404 -3.64902 0
M  V30 14097 H 1311.97 -0.483345 -0.5787 0
M  V30 14098 H 1314.62 -1.61827 -0.865123 0
M  V30 14099 H 1313 -1.89454 -3.4774 0
M  V30 14100 H 1314.17 -4.22986 -1.82809 0
M  V30 14101 H 1312.49 -3.75678 -1.79597 0
M  V30 14102 H 1315.08 -2.95196 -4.45829 0
M  V30 14103 H 1315.43 -1.31687 -3.94923 0
M  V30 14104 H 1315.96 -2.68189 -2.93802 0
M  V30 14105 H 1312.7 -5.65589 -3.31344 0
M  V30 14106 H 1312.22 -4.22617 -4.25623 0
M  V30 14107 H 1313.9 -4.81721 -4.31919 0
M  V30 14108 N 1314.03 1.01274 -1.20754 0
M  V30 14109 C 1315.26 1.7906 -1.04653 0
M  V30 14110 C 1315.68 1.83806 0.399632 0
M  V30 14111 O 1315.04 1.27596 1.28798 0
M  V30 14112 C 1315.09 3.21187 -1.63925 0
M  V30 14113 O 1314.19 4.02913 -0.879486 0
M  V30 14114 H 1313.53 0.552147 -0.368823 0
M  V30 14115 H 1316.06 1.27356 -1.6013 0
M  V30 14116 H 1316.07 3.71887 -1.67822 0
M  V30 14117 H 1314.75 3.17048 -2.69172 0
M  V30 14118 H 1313.32 3.61499 -0.915019 0
M  V30 14119 N 1315.51 1.01404 1.20644 0
M  V30 14120 C 1316.76 0.702949 1.90227 0
M  V30 14121 C 1317.09 -0.765243 1.78487 0
M  V30 14122 O 1316.36 -1.55569 1.16741 0
M  V30 14123 C 1316.65 1.13606 3.4171 0
M  V30 14124 C 1316.5 2.66437 3.62397 0
M  V30 14125 C 1317.82 0.705361 4.34411 0
M  V30 14126 H 1314.94 0.256842 0.690797 0
M  V30 14127 H 1317.58 1.26133 1.42093 0
M  V30 14128 H 1315.73 0.660977 3.82836 0
M  V30 14129 H 1317.4 3.21778 3.3054 0
M  V30 14130 H 1315.64 3.0753 3.05954 0
M  V30 14131 H 1316.32 2.91795 4.68572 0
M  V30 14132 H 1318.79 1.11375 4.00918 0
M  V30 14133 H 1317.67 1.03647 5.39026 0
M  V30 14134 H 1317.93 -0.393094 4.40349 0
M  V30 14135 N 1316.99 -1.36373 0.789944 0
M  V30 14136 C 1318.22 -2.03187 0.373987 0
M  V30 14137 C 1318.63 -1.59697 -1.01457 0
M  V30 14138 O 1317.97 -0.782151 -1.66217 0
M  V30 14139 C 1318.03 -3.57703 0.358985 0
M  V30 14140 C 1317.69 -4.24396 1.69521 0
M  V30 14141 C 1318.69 -4.47247 2.65077 0
M  V30 14142 C 1316.38 -4.61858 1.97465 0
M  V30 14143 C 1318.37 -5.06642 3.86772 0
M  V30 14144 C 1316.06 -5.2097 3.19426 0
M  V30 14145 C 1317.06 -5.43302 4.13899 0
M  V30 14146 O 1316.74 -6.01173 5.3371 0
M  V30 14147 H 1316.48 -0.658654 0.152153 0
M  V30 14148 H 1319.03 -1.7532 1.07014 0
M  V30 14149 H 1317.26 -3.84691 -0.39366 0
M  V30 14150 H 1318.95 -4.05887 -0.0323762 0
M  V30 14151 H 1319.71 -4.18701 2.44775 0
M  V30 14152 H 1315.59 -4.438 1.2475 0
M  V30 14153 H 1319.14 -5.23989 4.60523 0
M  V30 14154 H 1315.03 -5.48943 3.39606 0
M  V30 14155 H 1315.8 -6.19638 5.34781 0
M  V30 14156 N 1318.47 -0.542005 -1.47987 0
M  V30 14157 C 1319.43 0.203537 -2.28294 0
M  V30 14158 C 1320.43 0.856762 -1.36074 0
M  V30 14159 O 1321.62 0.71496 -1.58852 0
M  V30 14160 C 1318.75 1.29581 -3.15312 0
M  V30 14161 H 1319.94 -0.501701 -2.95674 0
M  V30 14162 H 1317.5 -0.298378 -1.53426 0
M  V30 14163 H 1318.23 2.03393 -2.5259 0
M  V30 14164 H 1318.02 0.832398 -3.83163 0
M  V30 14165 H 1319.51 1.81988 -3.75859 0
M  V30 14166 N 1319.94 1.55134 -0.277709 0
M  V30 14167 C 1321.19 1.99654 0.33833 0
M  V30 14168 C 1321.52 1.16612 1.55666 0
M  V30 14169 O 1320.77 0.224428 1.94409 0
M  V30 14170 C 1321.07 3.49182 0.762028 0
M  V30 14171 C 1320.74 4.49524 -0.351958 0
M  V30 14172 C 1319.4 4.76682 -0.657833 0
M  V30 14173 C 1321.75 5.09406 -1.10247 0
M  V30 14174 C 1319.08 5.6099 -1.71776 0
M  V30 14175 C 1321.43 5.94866 -2.15214 0
M  V30 14176 C 1320.1 6.20344 -2.46434 0
M  V30 14177 H 1319.37 0.730584 0.123804 0
M  V30 14178 H 1322.01 1.87446 -0.391961 0
M  V30 14179 H 1320.32 3.58879 1.57204 0
M  V30 14180 H 1322.02 3.81037 1.24947 0
M  V30 14181 H 1318.61 4.28475 -0.103438 0
M  V30 14182 H 1322.79 4.88446 -0.879422 0
M  V30 14183 H 1318.05 5.78975 -1.96463 0
M  V30 14184 H 1322.22 6.403 -2.73842 0
M  V30 14185 H 1319.85 6.85464 -3.28699 0
M  V30 14186 N 1321.42 0.00503138 1.57599 0
M  V30 14187 C 1322.37 -1.00294 2.09866 0
M  V30 14188 C 1323.36 -1.35267 1.01977 0
M  V30 14189 O 1324.57 -1.33772 1.20437 0
M  V30 14190 H 1320.94 -0.341112 0.670184 0
M  V30 14191 H 1322.92 -0.536595 2.93536 0
M  V30 14192 C 1321.66 -2.28432 2.62133 0
M  V30 14193 H 1320.99 -2.02391 3.44787 0
M  V30 14194 H 1322.43 -2.97227 3.02378 0
M  V30 14195 C 1320.89 -2.99758 1.53774 0
M  V30 14196 O 1321.42 -3.90939 0.923563 0
M  V30 14197 N 1319.62 -2.61671 1.26398 0
M  V30 14198 H 1319.17 -1.87605 1.76528 0
M  V30 14199 H 1319.13 -3.09707 0.541168 0
M  V30 14200 N 1322.9 -1.55308 -0.267798 0
M  V30 14201 C 1323.85 -1.88544 -1.33115 0
M  V30 14202 C 1324.82 -0.737465 -1.48831 0
M  V30 14203 O 1326 -0.989215 -1.63154 0
M  V30 14204 C 1323.14 -2.1674 -2.68547 0
M  V30 14205 C 1322.25 -3.44234 -2.61011 0
M  V30 14206 C 1321.39 -3.62104 -3.88657 0
M  V30 14207 C 1320.43 -4.83272 -3.75652 0
M  V30 14208 N 1319.57 -4.97772 -4.95144 0
M  V30 14209 H 1324.41 -2.79237 -1.04071 0
M  V30 14210 H 1321.94 -1.38245 -0.502677 0
M  V30 14211 H 1323.9 -2.31088 -3.47353 0
M  V30 14212 H 1322.53 -1.29276 -2.95783 0
M  V30 14213 H 1321.58 -3.3833 -1.73887 0
M  V30 14214 H 1322.89 -4.33177 -2.47303 0
M  V30 14215 H 1322.05 -3.76298 -4.75904 0
M  V30 14216 H 1320.79 -2.71356 -4.05238 0
M  V30 14217 H 1319.79 -4.69076 -2.86788 0
M  V30 14218 H 1321.02 -5.75461 -3.60585 0
M  V30 14219 H 1318.96 -4.09956 -5.12125 0
M  V30 14220 H 1318.88 -5.80769 -4.83987 0
M  V30 14221 H 1320.15 -5.16357 -5.83949 0
M  V30 14222 N 1324.38 0.532545 -1.4833 0
M  V30 14223 C 1325.6 1.31809 -1.60129 0
M  V30 14224 C 1326.03 1.86283 -0.260807 0
M  V30 14225 O 1325.39 1.6427 0.767137 0
M  V30 14226 C 1325.43 2.44661 -2.64903 0
M  V30 14227 O 1324.54 3.47622 -2.21885 0
M  V30 14228 H 1323.88 0.390492 -0.53704 0
M  V30 14229 H 1326.41 0.641068 -1.94297 0
M  V30 14230 H 1326.42 2.90883 -2.86096 0
M  V30 14231 H 1325.09 2.04373 -3.62222 0
M  V30 14232 H 1323.67 3.07536 -2.10894 0
M  V30 14233 N 1325.86 1.36875 0.78122 0
M  V30 14234 C 1327.09 1.34537 1.56791 0
M  V30 14235 C 1327.49 -0.0734709 1.89057 0
M  V30 14236 O 1326.84 -1.04307 1.51215 0
M  V30 14237 C 1326.9 2.10971 2.91087 0
M  V30 14238 C 1326.56 3.60005 2.81506 0
M  V30 14239 C 1327.56 4.54085 2.53185 0
M  V30 14240 C 1325.24 4.03001 2.99826 0
M  V30 14241 C 1327.24 5.89139 2.43298 0
M  V30 14242 C 1324.93 5.38144 2.89559 0
M  V30 14243 C 1325.92 6.31026 2.61335 0
M  V30 14244 O 1325.61 7.63685 2.51077 0
M  V30 14245 H 1325.34 0.46284 0.492702 0
M  V30 14246 H 1327.9 1.80683 0.976869 0
M  V30 14247 H 1326.13 1.595 3.52274 0
M  V30 14248 H 1327.82 2.01387 3.52418 0
M  V30 14249 H 1328.58 4.22178 2.38727 0
M  V30 14250 H 1324.46 3.31073 3.20799 0
M  V30 14251 H 1328.01 6.61605 2.21188 0
M  V30 14252 H 1323.9 5.69656 3.03583 0
M  V30 14253 H 1324.67 7.739 2.66498 0
M  V30 14254 N 1327.33 -1.00632 1.21289 0
M  V30 14255 C 1328.61 -1.71635 0.938124 0
M  V30 14256 C 1328.99 -2.03798 -0.550416 0
M  V30 14257 O 1328.34 -1.71065 -1.5149 0
M  V30 14258 C 1328.55 -2.97674 1.82184 0
M  V30 14259 C 1329.9 -3.7073 2.06989 0
M  V30 14260 O 1330.92 -3.07653 1.79522 0
M  V30 14261 O 1329.78 -4.84183 2.53435 0
M  V30 14262 H 1326.87 -0.748506 0.351664 0
M  V30 14263 H 1329.42 -1.06387 1.32212 0
M  V30 14264 H 1328.19 -2.70306 2.82931 0
M  V30 14265 H 1327.81 -3.70663 1.43858 0
M  V30 14266 N 1328.81 -1.02043 -1.20104 0
M  V30 14267 C 1330.04 -0.730255 -1.93264 0
M  V30 14268 C 1330.45 0.71359 -1.75227 0
M  V30 14269 O 1329.79 1.49609 -1.06597 0
M  V30 14270 C 1329.85 -0.990978 -3.45572 0
M  V30 14271 C 1329.52 -2.4247 -3.87373 0
M  V30 14272 C 1330.52 -3.40569 -3.92822 0
M  V30 14273 C 1328.2 -2.76645 -4.19253 0
M  V30 14274 C 1330.19 -4.70904 -4.29568 0
M  V30 14275 C 1327.88 -4.07192 -4.55673 0
M  V30 14276 C 1328.88 -5.04132 -4.60804 0
M  V30 14277 O 1328.57 -6.32341 -4.96386 0
M  V30 14278 H 1328.3 -0.267146 -0.620974 0
M  V30 14279 H 1330.85 -1.36557 -1.53432 0
M  V30 14280 H 1329.08 -0.298508 -3.85546 0
M  V30 14281 H 1330.77 -0.691793 -3.99961 0
M  V30 14282 H 1331.54 -3.15503 -3.68352 0
M  V30 14283 H 1327.42 -2.01876 -4.14448 0
M  V30 14284 H 1330.96 -5.46566 -4.33487 0
M  V30 14285 H 1326.86 -4.32035 -4.796 0
M  V30 14286 H 1327.63 -6.36687 -5.14365 0
M  V30 14287 N 1330.29 1.35952 -0.797165 0
M  V30 14288 C 1331.22 2.28649 -0.15877 0
M  V30 14289 C 1332.24 1.49842 0.636481 0
M  V30 14290 O 1333.42 1.72191 0.47039 0
M  V30 14291 C 1330.52 3.29373 0.797913 0
M  V30 14292 C 1329.7 4.3737 0.0510574 0
M  V30 14293 C 1328.76 5.18009 0.924826 0
M  V30 14294 O 1327.78 5.67935 0.379223 0
M  V30 14295 N 1328.98 5.352 2.24813 0
M  V30 14296 H 1331.75 2.84075 -0.955056 0
M  V30 14297 H 1329.31 1.48201 -0.651767 0
M  V30 14298 H 1331.3 3.80209 1.38646 0
M  V30 14299 H 1329.87 2.74531 1.49504 0
M  V30 14300 H 1329.09 3.87594 -0.718633 0
M  V30 14301 H 1330.38 5.0668 -0.464025 0
M  V30 14302 H 1329.78 4.96266 2.71545 0
M  V30 14303 H 1328.34 5.89252 2.78614 0
M  V30 14304 N 1331.77 0.549846 1.47697 0
M  V30 14305 C 1332.99 0.0256819 2.07384 0
M  V30 14306 C 1333.42 -1.25525 1.4009 0
M  V30 14307 O 1332.78 -1.7501 0.473406 0
M  V30 14308 C 1332.82 -0.160835 3.60241 0
M  V30 14309 O 1331.93 -1.22509 3.93783 0
M  V30 14310 H 1331.27 0.0480204 0.662261 0
M  V30 14311 H 1333.8 0.763429 1.89823 0
M  V30 14312 H 1333.81 -0.377337 4.06251 0
M  V30 14313 H 1332.48 0.774774 4.0862 0
M  V30 14314 H 1331.06 -0.98967 3.59527 0
M  V30 14315 N 1333.25 -1.54984 0.285932 0
M  V30 14316 C 1334.49 -2.00126 -0.328223 0
M  V30 14317 C 1334.83 -1.17409 -1.54689 0
M  V30 14318 O 1334.1 -0.246806 -1.92928 0
M  V30 14319 C 1334.38 -3.53236 -0.699733 0
M  V30 14320 C 1334.24 -4.46702 0.527029 0
M  V30 14321 C 1335.56 -4.12572 -1.53206 0
M  V30 14322 H 1332.67 -0.727521 -0.117825 0
M  V30 14323 H 1335.32 -1.85848 0.395032 0
M  V30 14324 H 1333.47 -3.65534 -1.31594 0
M  V30 14325 H 1335.14 -4.46332 1.16557 0
M  V30 14326 H 1333.38 -4.17917 1.1631 0
M  V30 14327 H 1334.05 -5.51549 0.223165 0
M  V30 14328 H 1336.53 -4.03618 -1.01154 0
M  V30 14329 H 1335.4 -5.19891 -1.7608 0
M  V30 14330 H 1335.67 -3.63487 -2.51654 0
M  V30 14331 N 1334.72 -0.0133892 -1.57594 0
M  V30 14332 C 1335.96 0.672977 -1.93004 0
M  V30 14333 C 1336.33 1.70188 -0.888816 0
M  V30 14334 O 1337.53 2.4396 -1.12859 0
M  V30 14335 C 1335.8 1.28743 -3.33407 0
M  V30 14336 S 1337.36 1.99706 -3.90721 0
M  V30 14337 H 1334.18 0.221972 -0.675462 0
M  V30 14338 H 1336.78 -0.0732871 -1.95363 0
M  V30 14339 H 1335.48 0.525931 -4.07016 0
M  V30 14340 H 1335.01 2.07134 -3.34454 0
M  V30 14341 H 1337.03 3.27375 -3.72881 0
M  V30 14342 N 1336.2 1.55448 0.259558 0
M  V30 14343 C 1337.11 1.92364 1.34289 0
M  V30 14344 C 1338.13 0.822492 1.53333 0
M  V30 14345 O 1339.3 1.12277 1.672 0
M  V30 14346 C 1336.37 2.19978 2.67975 0
M  V30 14347 C 1335.43 3.43454 2.57562 0
M  V30 14348 C 1334.66 3.69741 3.84873 0
M  V30 14349 O 1334.89 2.9831 4.86176 0
M  V30 14350 O 1333.82 4.63274 3.84267 0
M  V30 14351 H 1337.65 2.8461 1.05975 0
M  V30 14352 H 1335.23 1.42167 0.459239 0
M  V30 14353 H 1337.11 2.39104 3.46998 0
M  V30 14354 H 1335.79 1.30912 2.96047 0
M  V30 14355 H 1334.7 3.29649 1.76869 0
M  V30 14356 H 1336.03 4.32782 2.34437 0
M  V30 14357 N 1337.68 -0.524672 1.4861 0
M  V30 14358 C 1339.09 -1.10655 1.50374 0
M  V30 14359 C 1339.44 -1.94242 0.276512 0
M  V30 14360 O 1338.57 -2.07451 -0.615887 0
M  V30 14361 C 1339.16 -2.01348 2.72478 0
M  V30 14362 C 1337.72 -2.54743 2.77097 0
M  V30 14363 C 1336.87 -1.31822 2.43964 0
M  V30 14364 H 1339.82 -0.309674 1.55649 0
M  V30 14365 H 1339.84 -2.85709 2.51297 0
M  V30 14366 H 1339.35 -1.40485 3.61781 0
M  V30 14367 H 1337.45 -3.19313 1.92016 0
M  V30 14368 H 1337.57 -2.93514 3.78664 0
M  V30 14369 H 1335.93 -1.63574 1.95233 0
M  V30 14370 H 1336.71 -0.727026 3.35513 0
M  V30 14371 N 1339.16 -1.37287 -0.77395 0
M  V30 14372 C 1340.41 -1.32112 -1.5294 0
M  V30 14373 C 1340.73 0.0946137 -1.9477 0
M  V30 14374 O 1340 1.03817 -1.66129 0
M  V30 14375 H 1338.58 -0.486047 -0.567245 0
M  V30 14376 H 1341.24 -1.71752 -0.921263 0
M  V30 14377 H 1340.34 -1.95873 -2.42982 0
M  V30 14378 N 1340.64 0.999871 -1.21821 0
M  V30 14379 C 1341.6 2.07024 -0.983541 0
M  V30 14380 C 1342.6 1.6073 0.0474011 0
M  V30 14381 O 1343.79 1.73156 -0.190398 0
M  V30 14382 C 1340.92 3.37444 -0.484199 0
M  V30 14383 H 1342.11 2.29276 -1.9332 0
M  V30 14384 H 1339.67 1.1704 -1.03592 0
M  V30 14385 H 1340.4 3.20874 0.470138 0
M  V30 14386 H 1340.19 3.72378 -1.2279 0
M  V30 14387 H 1341.68 4.16213 -0.34004 0
M  V30 14388 N 1342.11 1.02678 1.19562 0
M  V30 14389 C 1343.08 0.610407 2.20922 0
M  V30 14390 C 1344.08 -0.324858 1.57484 0
M  V30 14391 O 1345.27 -0.112153 1.73839 0
M  V30 14392 C 1342.4 -0.107115 3.40732 0
M  V30 14393 H 1343.59 1.50722 2.59274 0
M  V30 14394 H 1341.15 0.817725 1.33203 0
M  V30 14395 H 1341.88 -1.01837 3.07896 0
M  V30 14396 H 1341.67 0.564901 3.88009 0
M  V30 14397 H 1343.16 -0.385423 4.15818 0
M  V30 14398 N 1343.59 -1.35528 0.804364 0
M  V30 14399 C 1345 -1.81321 0.444933 0
M  V30 14400 C 1345.35 -1.66816 -1.03281 0
M  V30 14401 O 1344.48 -1.19753 -1.80245 0
M  V30 14402 C 1345.07 -3.29199 0.800827 0
M  V30 14403 C 1343.63 -3.73144 0.494026 0
M  V30 14404 C 1342.78 -2.57557 1.02761 0
M  V30 14405 H 1345.73 -1.23537 0.996203 0
M  V30 14406 H 1345.75 -3.80375 0.0975117 0
M  V30 14407 H 1345.26 -3.39725 1.8764 0
M  V30 14408 H 1343.37 -3.68169 -0.572901 0
M  V30 14409 H 1343.48 -4.68005 1.0251 0
M  V30 14410 H 1341.84 -2.50692 0.450048 0
M  V30 14411 H 1342.63 -2.70861 2.10925 0
M  V30 14412 N 1345.07 -0.557671 -1.47404 0
M  V30 14413 C 1346.02 0.189765 -2.30019 0
M  V30 14414 C 1346.99 0.907923 -1.3909 0
M  V30 14415 O 1348.17 0.903528 -1.68051 0
M  V30 14416 C 1345.31 1.21348 -3.23061 0
M  V30 14417 C 1344.43 0.501343 -4.29081 0
M  V30 14418 C 1343.56 1.51039 -5.09275 0
M  V30 14419 C 1342.6 0.783254 -6.07068 0
M  V30 14420 N 1341.74 1.73916 -6.80219 0
M  V30 14421 H 1346.58 -0.520856 -2.93413 0
M  V30 14422 H 1344.11 -0.268686 -1.44625 0
M  V30 14423 H 1346.07 1.81961 -3.75428 0
M  V30 14424 H 1344.7 1.89213 -2.61531 0
M  V30 14425 H 1343.75 -0.219317 -3.79767 0
M  V30 14426 H 1345.07 -0.0682656 -4.98753 0
M  V30 14427 H 1344.22 2.19004 -5.65793 0
M  V30 14428 H 1342.96 2.11392 -4.39505 0
M  V30 14429 H 1341.96 0.0896883 -5.49727 0
M  V30 14430 H 1343.19 0.185464 -6.78847 0
M  V30 14431 H 1341.14 2.33125 -6.13179 0
M  V30 14432 H 1341.05 1.22171 -7.46063 0
M  V30 14433 H 1342.32 2.40993 -7.41311 0
M  V30 14434 N 1346.55 1.54831 -0.294147 0
M  V30 14435 C 1347.48 2.20696 0.61854 0
M  V30 14436 C 1348.49 1.19754 1.10285 0
M  V30 14437 O 1349.68 1.46383 1.02148 0
M  V30 14438 C 1346.78 2.83429 1.85798 0
M  V30 14439 C 1345.96 4.10239 1.51731 0
M  V30 14440 C 1345.02 4.56841 2.61119 0
M  V30 14441 O 1344.04 5.22194 2.26501 0
M  V30 14442 N 1345.24 4.2858 3.91534 0
M  V30 14443 H 1348.01 2.9965 0.054714 0
M  V30 14444 H 1345.57 1.61484 -0.116052 0
M  V30 14445 H 1347.56 3.11541 2.5831 0
M  V30 14446 H 1346.13 2.08356 2.33038 0
M  V30 14447 H 1345.35 3.89212 0.625142 0
M  V30 14448 H 1346.64 4.92824 1.26499 0
M  V30 14449 H 1346.04 3.7621 4.22472 0
M  V30 14450 H 1344.59 4.61418 4.60366 0
M  V30 14451 N 1348.03 0.0217466 1.57585 0
M  V30 14452 C 1349.28 -0.657187 1.91116 0
M  V30 14453 C 1349.6 -1.7309 0.898039 0
M  V30 14454 O 1348.87 -1.95803 -0.0615116 0
M  V30 14455 H 1347.45 -0.245732 0.705425 0
M  V30 14456 H 1350.11 0.0678096 1.94782 0
M  V30 14457 H 1349.2 -1.11462 2.91518 0
M  V30 14458 N 1349.51 -1.55583 -0.251311 0
M  V30 14459 C 1350.47 -1.89148 -1.29443 0
M  V30 14460 C 1351.47 -0.7676 -1.41296 0
M  V30 14461 O 1352.66 -1.03563 -1.40073 0
M  V30 14462 C 1349.79 -2.11601 -2.67279 0
M  V30 14463 H 1350.98 -2.82416 -1.00901 0
M  V30 14464 H 1348.54 -1.48407 -0.490398 0
M  V30 14465 H 1349.27 -1.20787 -3.00967 0
M  V30 14466 H 1349.06 -2.93449 -2.60058 0
M  V30 14467 H 1350.55 -2.38768 -3.42607 0
M  V30 14468 N 1350.98 0.516783 -1.48886 0
M  V30 14469 C 1352.23 1.26936 -1.57263 0
M  V30 14470 C 1352.55 1.93337 -0.254156 0
M  V30 14471 O 1351.82 1.81977 0.725345 0
M  V30 14472 H 1350.4 0.4715 -0.579393 0
M  V30 14473 H 1353.06 0.600289 -1.85425 0
M  V30 14474 H 1352.16 2.04167 -2.36055 0
M  V30 14475 N 1352.46 1.37696 0.766659 0
M  V30 14476 C 1353.41 1.30383 1.87041 0
M  V30 14477 C 1354.4 0.190643 1.59767 0
M  V30 14478 O 1355.59 0.425485 1.7181 0
M  V30 14479 C 1352.72 1.11817 3.2458 0
M  V30 14480 C 1351.8 2.27701 3.57789 0
M  V30 14481 N 1352.19 3.53108 3.62144 0
M  V30 14482 C 1350.49 2.19967 3.87983 0
M  V30 14483 C 1351.19 4.29555 3.92247 0
M  V30 14484 N 1350.17 3.58754 4.08408 0
M  V30 14485 H 1353.97 2.25348 1.88668 0
M  V30 14486 H 1351.48 1.30741 0.963362 0
M  V30 14487 H 1353.48 1.04663 4.03548 0
M  V30 14488 H 1352.14 0.177731 3.24213 0
M  V30 14489 H 1353.15 3.86949 3.44225 0
M  V30 14490 H 1349.83 1.34009 3.95408 0
M  V30 14491 H 1351.22 5.38112 4.0235 0
M  V30 14492 N 1353.94 -0.993397 1.22349 0
M  V30 14493 C 1355.36 -1.25708 0.983345 0
M  V30 14494 C 1355.56 -1.98888 -0.323372 0
M  V30 14495 O 1354.61 -2.2981 -1.04612 0
M  V30 14496 C 1355.92 -2.06935 2.1817 0
M  V30 14497 C 1357.47 -2.20121 2.22521 0
M  V30 14498 C 1357.95 -3.04735 3.41907 0
M  V30 14499 N 1359.44 -3.12322 3.42066 0
M  V30 14500 C 1360.17 -3.78081 4.31095 0
M  V30 14501 N 1359.67 -4.45771 5.3034 0
M  V30 14502 N 1361.46 -3.74837 4.18872 0
M  V30 14503 H 1353.61 -0.502767 2.06364 0
M  V30 14504 H 1355.88 -0.284656 0.904254 0
M  V30 14505 H 1355.58 -1.60525 3.12929 0
M  V30 14506 H 1355.46 -3.0769 2.18189 0
M  V30 14507 H 1357.84 -2.65745 1.28311 0
M  V30 14508 H 1357.92 -1.18798 2.26541 0
M  V30 14509 H 1357.57 -2.59811 4.36418 0
M  V30 14510 H 1357.5 -4.06198 3.35128 0
M  V30 14511 H 1359.99 -2.64146 2.7025 0
M  V30 14512 H 1360.3 -4.93687 5.94553 0
M  V30 14513 H 1358.65 -4.44521 5.34253 0
M  V30 14514 H 1361.84 -3.21116 3.40591 0
M  V30 14515 H 1362.01 -4.25806 4.8846 0
M  V30 14516 N 1355.42 -1.03311 -1.19015 0
M  V30 14517 C 1356.64 -0.751686 -1.93299 0
M  V30 14518 C 1357.07 0.68392 -1.75226 0
M  V30 14519 O 1356.43 1.47274 -1.05736 0
M  V30 14520 C 1356.47 -1.11335 -3.42982 0
M  V30 14521 O 1355.58 -0.234434 -4.11733 0
M  V30 14522 H 1354.92 -0.277331 -0.60331 0
M  V30 14523 H 1357.45 -1.38092 -1.5097 0
M  V30 14524 H 1357.46 -1.07204 -3.93664 0
M  V30 14525 H 1356.13 -2.15922 -3.55458 0
M  V30 14526 H 1354.71 -0.3347 -3.71395 0
M  V30 14527 N 1356.9 1.35099 -0.81154 0
M  V30 14528 C 1357.86 2.28033 -0.230947 0
M  V30 14529 C 1358.86 1.49798 0.584575 0
M  V30 14530 O 1360.05 1.6949 0.402336 0
M  V30 14531 C 1357.18 3.341 0.677486 0
M  V30 14532 H 1358.37 2.80893 -1.05067 0
M  V30 14533 H 1355.93 1.45038 -0.582554 0
M  V30 14534 H 1356.66 2.86435 1.5207 0
M  V30 14535 H 1356.45 3.91986 0.0943563 0
M  V30 14536 H 1357.94 4.0345 1.07787 0
M  V30 14537 N 1358.37 0.56548 1.47106 0
M  V30 14538 C 1359.6 0.0495579 2.06541 0
M  V30 14539 C 1360.01 -1.25325 1.4174 0
M  V30 14540 O 1359.35 -1.76455 0.510818 0
M  V30 14541 C 1359.42 -0.20843 3.58895 0
M  V30 14542 C 1359.08 1.00618 4.45786 0
M  V30 14543 C 1360.08 1.91387 4.83391 0
M  V30 14544 C 1357.76 1.22318 4.87179 0
M  V30 14545 C 1359.76 3.02218 5.61198 0
M  V30 14546 C 1357.44 2.33457 5.64749 0
M  V30 14547 C 1358.44 3.23238 6.0167 0
M  V30 14548 O 1358.13 4.32449 6.77675 0
M  V30 14549 H 1357.86 0.0466 0.674392 0
M  V30 14550 H 1360.42 0.780887 1.89977 0
M  V30 14551 H 1358.65 -0.994169 3.73702 0
M  V30 14552 H 1360.33 -0.670745 4.0032 0
M  V30 14553 H 1361.1 1.75831 4.52005 0
M  V30 14554 H 1356.98 0.533514 4.57902 0
M  V30 14555 H 1360.52 3.72321 5.89935 0
M  V30 14556 H 1356.42 2.48983 5.95548 0
M  V30 14557 H 1357.19 4.306 6.96079 0
M  V30 14558 N 1359.85 -1.54672 0.302354 0
M  V30 14559 C 1361.1 -2.00463 -0.306978 0
M  V30 14560 C 1361.43 -1.19043 -1.53435 0
M  V30 14561 O 1360.71 -0.267255 -1.92655 0
M  V30 14562 C 1360.99 -3.53958 -0.662229 0
M  V30 14563 C 1360.84 -4.46118 0.574378 0
M  V30 14564 C 1362.16 -4.14174 -1.48821 0
M  V30 14565 H 1359.28 -0.728729 -0.110102 0
M  V30 14566 H 1361.92 -1.85419 0.414722 0
M  V30 14567 H 1360.07 -3.66909 -1.2771 0
M  V30 14568 H 1361.74 -4.45071 1.21284 0
M  V30 14569 H 1359.99 -4.1666 1.20736 0
M  V30 14570 H 1360.66 -5.51281 0.281651 0
M  V30 14571 H 1363.13 -4.04668 -0.968674 0
M  V30 14572 H 1362.01 -5.2173 -1.70556 0
M  V30 14573 H 1362.27 -3.66136 -2.47784 0
M  V30 14574 N 1361.33 -0.0301034 -1.57571 0
M  V30 14575 C 1362.74 0.508591 -1.79639 0
M  V30 14576 C 1363.09 1.72191 -0.940458 0
M  V30 14577 O 1362.22 2.15872 -0.151138 0
M  V30 14578 C 1362.81 0.929446 -3.25802 0
M  V30 14579 C 1361.37 1.41325 -3.48861 0
M  V30 14580 C 1360.52 0.378433 -2.74706 0
M  V30 14581 H 1363.47 -0.256131 -1.56619 0
M  V30 14582 H 1363.49 1.79374 -3.35567 0
M  V30 14583 H 1363 0.0461738 -3.88073 0
M  V30 14584 H 1361.1 2.31641 -2.91844 0
M  V30 14585 H 1361.22 1.41995 -4.57574 0
M  V30 14586 H 1359.58 0.846744 -2.40213 0
M  V30 14587 H 1360.36 -0.49639 -3.39692 0
M  V30 14588 N 1362.81 1.55714 0.243056 0
M  V30 14589 C 1364.03 1.82126 0.992219 0
M  V30 14590 C 1364.46 0.607665 1.78014 0
M  V30 14591 O 1363.82 -0.443351 1.75796 0
M  V30 14592 C 1363.86 3.06314 1.90274 0
M  V30 14593 O 1362.97 2.83499 2.99503 0
M  V30 14594 H 1362.31 0.601082 0.282128 0
M  V30 14595 H 1364.84 2.02904 0.262881 0
M  V30 14596 H 1364.85 3.35849 2.31666 0
M  V30 14597 H 1363.52 3.94282 1.32344 0
M  V30 14598 H 1362.1 2.65141 2.62211 0
M  V30 14599 N 1364.29 -0.50888 1.49158 0
M  V30 14600 C 1365.53 -1.26537 1.58481 0
M  V30 14601 C 1365.87 -1.92353 0.267168 0
M  V30 14602 O 1365.14 -1.80336 -0.728639 0
M  V30 14603 C 1365.42 -2.33846 2.73839 0
M  V30 14604 C 1365.28 -1.72582 4.15374 0
M  V30 14605 C 1366.6 -3.35467 2.84868 0
M  V30 14606 H 1363.71 -0.458697 0.576859 0
M  V30 14607 H 1366.36 -0.564728 1.81413 0
M  V30 14608 H 1364.51 -2.93605 2.54417 0
M  V30 14609 H 1366.18 -1.16711 4.46292 0
M  V30 14610 H 1364.42 -1.03025 4.21389 0
M  V30 14611 H 1365.09 -2.5038 4.91949 0
M  V30 14612 H 1367.57 -2.85689 3.02524 0
M  V30 14613 H 1366.44 -4.07922 3.67275 0
M  V30 14614 H 1366.71 -3.97313 1.93894 0
M  V30 14615 N 1365.76 -1.381 -0.759346 0
M  V30 14616 C 1366.73 -1.34674 -1.8546 0
M  V30 14617 C 1367.73 -0.248351 -1.58871 0
M  V30 14618 O 1368.92 -0.504915 -1.66722 0
M  V30 14619 C 1366.05 -1.0952 -3.22828 0
M  V30 14620 H 1367.24 -2.3211 -1.89908 0
M  V30 14621 H 1364.8 -1.2331 -0.960435 0
M  V30 14622 H 1365.53 -0.126664 -3.24053 0
M  V30 14623 H 1365.32 -1.89037 -3.43522 0
M  V30 14624 H 1366.81 -1.09804 -4.02906 0
M  V30 14625 N 1367.24 0.986894 -1.22875 0
M  V30 14626 C 1368.52 1.70121 -0.965311 0
M  V30 14627 C 1368.9 2.04648 0.517924 0
M  V30 14628 O 1368.25 1.73453 1.48749 0
M  V30 14629 C 1368.46 2.94738 -1.86897 0
M  V30 14630 C 1369.81 3.6739 -2.12861 0
M  V30 14631 O 1370.83 3.04758 -1.84394 0
M  V30 14632 O 1369.69 4.8009 -2.61106 0
M  V30 14633 H 1366.78 0.742817 -0.363527 0
M  V30 14634 H 1369.33 1.0427 -1.33887 0
M  V30 14635 H 1368.1 2.65771 -2.87196 0
M  V30 14636 H 1367.72 3.68327 -1.49736 0
M  V30 14637 N 1368.72 1.0394 1.18466 0
M  V30 14638 C 1369.97 0.737233 1.87744 0
M  V30 14639 C 1370.28 -0.737891 1.81148 0
M  V30 14640 O 1371.49 -1.15353 2.45776 0
M  V30 14641 C 1369.94 1.26844 3.36806 0
M  V30 14642 C 1369.55 2.7721 3.51935 0
M  V30 14643 C 1371.3 1.04274 4.11494 0
M  V30 14644 C 1369.2 3.23696 4.9495 0
M  V30 14645 H 1368.13 0.272082 0.703198 0
M  V30 14646 H 1370.78 1.25507 1.33866 0
M  V30 14647 H 1369.17 0.67847 3.90145 0
M  V30 14648 H 1370.34 3.41954 3.08875 0
M  V30 14649 H 1368.66 2.98179 2.90652 0
M  V30 14650 H 1371.25 1.3652 5.16978 0
M  V30 14651 H 1371.6 -0.0200645 4.16295 0
M  V30 14652 H 1372.13 1.59726 3.64325 0
M  V30 14653 H 1368.87 4.29351 4.95316 0
M  V30 14654 H 1368.39 2.63687 5.38729 0
M  V30 14655 H 1370.07 3.17645 5.63658 0
M  V30 14656 N 1370.2 -1.34667 0.818693 0
M  V30 14657 C 1371.13 -2.32134 0.252239 0
M  V30 14658 C 1372.11 -1.58044 -0.628982 0
M  V30 14659 O 1373.29 -1.86049 -0.55674 0
M  V30 14660 C 1370.42 -3.42249 -0.590183 0
M  V30 14661 C 1369.38 -4.27562 0.193547 0
M  V30 14662 C 1368.7 -5.29107 -0.771349 0
M  V30 14663 C 1370 -5.03205 1.39936 0
M  V30 14664 H 1371.7 -2.79758 1.06657 0
M  V30 14665 H 1369.24 -1.34502 0.514325 0
M  V30 14666 H 1371.2 -4.09445 -0.996616 0
M  V30 14667 H 1369.92 -2.93262 -1.43752 0
M  V30 14668 H 1368.58 -3.61962 0.581297 0
M  V30 14669 H 1368.23 -4.76384 -1.61453 0
M  V30 14670 H 1367.93 -5.87063 -0.251201 0
M  V30 14671 H 1369.45 -5.99174 -1.17573 0
M  V30 14672 H 1370.87 -5.6328 1.06717 0
M  V30 14673 H 1369.26 -5.70715 1.85485 0
M  V30 14674 H 1370.33 -4.33145 2.17976 0
M  V30 14675 N 1371.68 -0.573274 -1.46804 0
M  V30 14676 C 1372.61 0.20305 -2.28299 0
M  V30 14677 C 1373.62 0.864367 -1.37958 0
M  V30 14678 O 1374.81 0.735516 -1.62642 0
M  V30 14679 C 1371.91 1.30633 -3.12711 0
M  V30 14680 C 1371.08 0.738741 -4.31116 0
M  V30 14681 C 1370.14 1.72853 -4.96999 0
M  V30 14682 O 1369.17 1.2683 -5.5489 0
M  V30 14683 N 1370.37 3.06239 -4.93151 0
M  V30 14684 H 1373.14 -0.496086 -2.95566 0
M  V30 14685 H 1370.7 -0.410411 -1.56612 0
M  V30 14686 H 1372.69 1.96755 -3.53652 0
M  V30 14687 H 1371.26 1.90846 -2.47581 0
M  V30 14688 H 1370.48 -0.0996941 -3.94074 0
M  V30 14689 H 1371.77 0.339154 -5.07668 0
M  V30 14690 H 1371.16 3.46262 -4.47347 0
M  V30 14691 H 1369.72 3.67876 -5.38062 0
M  V30 14692 N 1373.15 1.5451 -0.310553 0
M  V30 14693 C 1374.4 1.99505 0.296731 0
M  V30 14694 C 1374.72 1.20257 1.54265 0
M  V30 14695 O 1375.92 1.55566 2.22512 0
M  V30 14696 C 1374.38 3.55208 0.579251 0
M  V30 14697 C 1373.99 4.43276 -0.648874 0
M  V30 14698 C 1375.73 4.08705 1.1472 0
M  V30 14699 C 1373.64 5.90428 -0.338978 0
M  V30 14700 H 1372.57 0.745232 0.114652 0
M  V30 14701 H 1375.22 1.78611 -0.420749 0
M  V30 14702 H 1373.6 3.72039 1.35658 0
M  V30 14703 H 1374.77 4.3822 -1.42478 0
M  V30 14704 H 1373.09 4.00601 -1.13613 0
M  V30 14705 H 1375.69 5.16223 1.39346 0
M  V30 14706 H 1376.03 3.59889 2.09249 0
M  V30 14707 H 1376.56 3.95454 0.431363 0
M  V30 14708 H 1373.3 6.43411 -1.25309 0
M  V30 14709 H 1372.82 5.98468 0.399475 0
M  V30 14710 H 1374.5 6.46976 0.0559696 0
M  V30 14711 N 1374.63 0.0384594 1.57553 0
M  V30 14712 C 1375.88 -0.636879 1.91803 0
M  V30 14713 C 1376.2 -1.72128 0.916347 0
M  V30 14714 O 1375.47 -1.95858 -0.0407405 0
M  V30 14715 H 1374.05 -0.238237 0.707992 0
M  V30 14716 H 1376.71 0.0884651 1.94699 0
M  V30 14717 H 1375.81 -1.08364 2.92683 0
M  V30 14718 N 1376.11 -1.55841 -0.234795 0
M  V30 14719 C 1377.36 -1.79415 -0.958219 0
M  V30 14720 C 1377.71 -0.609349 -1.82496 0
M  V30 14721 O 1377.01 0.397051 -1.87441 0
M  V30 14722 C 1377.2 -3.06262 -1.84223 0
M  V30 14723 C 1377.03 -4.36966 -1.06256 0
M  V30 14724 C 1375.8 -4.99509 -0.762795 0
M  V30 14725 C 1378 -5.12463 -0.434262 0
M  V30 14726 N 1375.98 -6.13887 0.0396694 0
M  V30 14727 C 1377.35 -6.19565 0.232209 0
M  V30 14728 C 1379.4 -4.96697 -0.345951 0
M  V30 14729 C 1378.11 -7.12613 0.978527 0
M  V30 14730 C 1380.13 -5.90133 0.386865 0
M  V30 14731 C 1379.5 -6.96651 1.04193 0
M  V30 14732 H 1375.59 -0.708334 -0.331342 0
M  V30 14733 H 1378.18 -1.93334 -0.230254 0
M  V30 14734 H 1376.35 -2.9365 -2.54213 0
M  V30 14735 H 1378.08 -3.18081 -2.50213 0
M  V30 14736 H 1374.84 -4.61178 -1.07757 0
M  V30 14737 H 1375.26 -6.75637 0.429349 0
M  V30 14738 H 1379.9 -4.14411 -0.83806 0
M  V30 14739 H 1377.62 -7.94391 1.4822 0
M  V30 14740 H 1381.21 -5.8001 0.456023 0
M  V30 14741 H 1380.09 -7.67706 1.59992 0
M  V30 14742 N 1377.59 0.500963 -1.49426 0
M  V30 14743 C 1378.84 1.25427 -1.60124 0
M  V30 14744 C 1379.19 1.90288 -0.284312 0
M  V30 14745 O 1378.48 1.77741 0.715459 0
M  V30 14746 C 1378.68 2.34448 -2.69757 0
M  V30 14747 C 1378.51 1.80278 -4.11983 0
M  V30 14748 C 1377.28 1.61577 -4.7877 0
M  V30 14749 C 1379.47 1.31462 -4.97215 0
M  V30 14750 N 1377.46 1.02337 -6.0531 0
M  V30 14751 C 1378.83 0.843562 -6.14235 0
M  V30 14752 C 1380.88 1.20035 -4.83214 0
M  V30 14753 C 1379.59 0.269543 -7.18795 0
M  V30 14754 C 1381.61 0.640304 -5.87924 0
M  V30 14755 C 1380.97 0.179474 -7.04171 0
M  V30 14756 H 1377.07 0.448932 -0.6403 0
M  V30 14757 H 1379.66 0.561377 -1.86431 0
M  V30 14758 H 1377.83 3.01198 -2.45223 0
M  V30 14759 H 1379.56 3.01487 -2.69977 0
M  V30 14760 H 1376.31 1.85946 -4.3557 0
M  V30 14761 H 1376.74 0.746441 -6.72872 0
M  V30 14762 H 1381.38 1.54263 -3.93653 0
M  V30 14763 H 1379.1 -0.0849963 -8.08055 0
M  V30 14764 H 1382.68 0.554669 -5.7915 0
M  V30 14765 H 1381.56 -0.247125 -7.83811 0
M  V30 14766 N 1379.07 1.38501 0.752011 0
M  V30 14767 C 1380.03 1.35655 1.84744 0
M  V30 14768 C 1381.03 0.256772 1.58737 0
M  V30 14769 O 1382.22 0.513749 1.66452 0
M  V30 14770 C 1379.35 1.11231 3.22243 0
M  V30 14771 H 1380.55 2.33114 1.88674 0
M  V30 14772 H 1378.1 1.23818 0.953882 0
M  V30 14773 H 1378.83 0.143848 3.23981 0
M  V30 14774 H 1378.62 1.90857 3.42515 0
M  V30 14775 H 1380.11 1.11939 4.02318 0
M  V30 14776 N 1380.55 -0.980364 1.23396 0
M  V30 14777 C 1381.77 -1.75689 1.09275 0
M  V30 14778 C 1382.19 -1.85418 -0.355773 0
M  V30 14779 O 1381.55 -1.33337 -1.24609 0
M  V30 14780 C 1381.6 -3.18378 1.71223 0
M  V30 14781 O 1381.32 -3.09154 3.10411 0
M  V30 14782 C 1382.82 -4.12425 1.62545 0
M  V30 14783 H 1380.04 -0.551354 0.382427 0
M  V30 14784 H 1382.58 -1.23169 1.63247 0
M  V30 14785 H 1380.74 -3.67925 1.21285 0
M  V30 14786 H 1381.15 -3.9898 3.40464 0
M  V30 14787 H 1382.63 -5.1025 2.10592 0
M  V30 14788 H 1383.1 -4.35296 0.584275 0
M  V30 14789 H 1383.71 -3.68782 2.1185 0
M  V30 14790 N 1382.02 -1.04567 -1.17913 0
M  V30 14791 C 1382.99 -0.645476 -2.19923 0
M  V30 14792 C 1383.99 0.299763 -1.57981 0
M  V30 14793 O 1385.18 0.0844825 -1.73995 0
M  V30 14794 C 1382.31 0.0528935 -3.40859 0
M  V30 14795 H 1383.5 -1.54828 -2.56843 0
M  V30 14796 H 1381.05 -0.838812 -1.31885 0
M  V30 14797 H 1381.79 0.969261 -3.09477 0
M  V30 14798 H 1381.57 -0.626558 -3.87062 0
M  V30 14799 H 1383.06 0.319221 -4.16378 0
M  V30 14800 N 1383.5 1.34231 -0.825823 0
M  V30 14801 C 1384.46 2.27776 -0.25512 0
M  V30 14802 C 1385.46 1.50409 0.568654 0
M  V30 14803 O 1386.65 1.69907 0.384337 0
M  V30 14804 C 1383.79 3.348 0.642013 0
M  V30 14805 H 1384.98 2.79763 -1.0804 0
M  V30 14806 H 1382.53 1.44412 -0.597904 0
M  V30 14807 H 1383.27 2.88032 1.49024 0
M  V30 14808 H 1383.05 3.92064 0.0527756 0
M  V30 14809 H 1384.54 4.0457 1.03502 0
M  V30 14810 N 1384.98 0.581051 1.46498 0
M  V30 14811 C 1385.94 -0.142937 2.28754 0
M  V30 14812 C 1386.94 -0.820383 1.38298 0
M  V30 14813 O 1388.13 -0.672592 1.60692 0
M  V30 14814 C 1385.26 -1.21176 3.18637 0
M  V30 14815 H 1386.46 0.579918 2.9424 0
M  V30 14816 H 1384.01 0.338951 1.52581 0
M  V30 14817 H 1384.75 -1.96624 2.57894 0
M  V30 14818 H 1384.53 -0.730517 3.85235 0
M  V30 14819 H 1386.02 -1.71958 3.80552 0
M  V30 14820 N 1386.46 -1.54343 0.318742 0
M  V30 14821 C 1387.7 -2.01485 -0.278487 0
M  V30 14822 C 1388.06 -1.20298 -1.50154 0
M  V30 14823 O 1387.35 -0.275803 -1.89605 0
M  V30 14824 C 1387.55 -3.51079 -0.669181 0
M  V30 14825 C 1387.37 -4.46748 0.514464 0
M  V30 14826 C 1386.14 -4.95061 1.01206 0
M  V30 14827 C 1388.34 -4.95852 1.36512 0
M  V30 14828 N 1386.32 -5.74622 2.16061 0
M  V30 14829 C 1387.7 -5.7329 2.36091 0
M  V30 14830 C 1389.75 -4.78004 1.39344 0
M  V30 14831 C 1388.45 -6.3478 3.38301 0
M  V30 14832 C 1390.48 -5.40325 2.40422 0
M  V30 14833 C 1389.84 -6.1761 3.38728 0
M  V30 14834 H 1385.94 -0.77922 -0.0658815 0
M  V30 14835 H 1388.52 -1.89364 0.452687 0
M  V30 14836 H 1386.7 -3.63455 -1.3695 0
M  V30 14837 H 1388.43 -3.84994 -1.24747 0
M  V30 14838 H 1385.18 -4.69984 0.584127 0
M  V30 14839 H 1385.61 -6.19082 2.73983 0
M  V30 14840 H 1390.25 -4.17819 0.64709 0
M  V30 14841 H 1387.97 -6.94088 4.13845 0
M  V30 14842 H 1391.55 -5.28435 2.43409 0
M  V30 14843 H 1390.43 -6.64978 4.15661 0
M  V30 14844 N 1387.94 -0.0468143 -1.5753 0
M  V30 14845 C 1389.16 0.641161 -1.97241 0
M  V30 14846 C 1389.59 1.6384 -0.92401 0
M  V30 14847 O 1388.94 1.80946 0.113229 0
M  V30 14848 C 1388.99 1.30832 -3.36029 0
M  V30 14849 O 1388.1 2.42394 -3.33645 0
M  V30 14850 H 1387.44 0.167035 -0.642647 0
M  V30 14851 H 1389.97 -0.113921 -2.04283 0
M  V30 14852 H 1389.98 1.66102 -3.72658 0
M  V30 14853 H 1388.65 0.57744 -4.11872 0
M  V30 14854 H 1387.23 2.09104 -3.08756 0
M  V30 14855 N 1389.41 1.55964 0.226527 0
M  V30 14856 C 1390.66 1.77944 0.94967 0
M  V30 14857 C 1390.98 0.614478 1.85697 0
M  V30 14858 O 1392.18 0.717793 2.6184 0
M  V30 14859 C 1390.64 3.15108 1.73881 0
M  V30 14860 C 1390.25 4.39314 0.877894 0
M  V30 14861 C 1391.99 3.46418 2.45347 0
M  V30 14862 C 1389.9 5.67505 1.6641 0
M  V30 14863 H 1388.83 0.663412 0.35833 0
M  V30 14864 H 1391.48 1.82366 0.203695 0
M  V30 14865 H 1389.86 3.04849 2.52751 0
M  V30 14866 H 1391.03 4.60616 0.130089 0
M  V30 14867 H 1389.35 4.15487 0.2756 0
M  V30 14868 H 1391.95 4.39416 3.0466 0
M  V30 14869 H 1392.29 2.68685 3.17985 0
M  V30 14870 H 1392.82 3.57984 1.73471 0
M  V30 14871 H 1389.56 6.48116 0.981089 0
M  V30 14872 H 1389.08 5.50272 2.38665 0
M  V30 14873 H 1390.76 6.075 2.22605 0
M  V30 14874 N 1390.89 -0.493031 1.4969 0
M  V30 14875 C 1391.82 -1.60215 1.69863 0
M  V30 14876 C 1392.8 -1.61053 0.547362 0
M  V30 14877 O 1393.99 -1.77667 0.784093 0
M  V30 14878 C 1391.12 -2.98662 1.77252 0
M  V30 14879 C 1390.07 -3.1269 2.92248 0
M  V30 14880 C 1389.4 -4.52567 2.84758 0
M  V30 14881 C 1390.7 -2.91965 4.33074 0
M  V30 14882 H 1392.39 -1.43587 2.62723 0
M  V30 14883 H 1389.94 -0.689334 1.26429 0
M  V30 14884 H 1391.89 -3.7616 1.89951 0
M  V30 14885 H 1390.62 -3.16397 0.809976 0
M  V30 14886 H 1389.27 -2.37619 2.79164 0
M  V30 14887 H 1388.92 -4.6719 1.86394 0
M  V30 14888 H 1388.62 -4.62893 3.61944 0
M  V30 14889 H 1390.15 -5.32116 2.99475 0
M  V30 14890 H 1391.56 -3.59228 4.46798 0
M  V30 14891 H 1389.96 -3.13756 5.11544 0
M  V30 14892 H 1391.03 -1.88015 4.46966 0
M  V30 14893 N 1392.37 -1.38898 -0.744656 0
M  V30 14894 C 1393.3 -1.32739 -1.8685 0
M  V30 14895 C 1394.32 -0.23793 -1.61052 0
M  V30 14896 O 1395.5 -0.496166 -1.71466 0
M  V30 14897 C 1392.6 -1.03602 -3.22676 0
M  V30 14898 C 1391.78 -2.23634 -3.75908 0
M  V30 14899 C 1390.84 -1.91103 -4.90271 0
M  V30 14900 O 1389.86 -2.6369 -5.04437 0
M  V30 14901 N 1391.06 -0.871358 -5.73923 0
M  V30 14902 H 1393.83 -2.29585 -1.92641 0
M  V30 14903 H 1391.39 -1.32875 -0.924979 0
M  V30 14904 H 1393.38 -0.798755 -3.96739 0
M  V30 14905 H 1391.95 -0.155218 -3.12214 0
M  V30 14906 H 1391.17 -2.63371 -2.93307 0
M  V30 14907 H 1392.46 -3.0372 -4.08205 0
M  V30 14908 H 1391.86 -0.269591 -5.65057 0
M  V30 14909 H 1390.42 -0.693984 -6.48095 0
M  V30 14910 N 1393.85 0.973806 -1.23914 0
M  V30 14911 C 1394.78 2.07003 -0.983982 0
M  V30 14912 C 1395.79 1.62739 0.0443893 0
M  V30 14913 O 1396.98 1.77465 -0.191927 0
M  V30 14914 C 1394.08 3.35737 -0.461937 0
M  V30 14915 C 1393.26 4.08939 -1.55202 0
M  V30 14916 C 1392.31 5.15947 -1.03369 0
M  V30 14917 O 1391.34 5.42461 -1.72409 0
M  V30 14918 N 1392.54 5.80343 0.135067 0
M  V30 14919 H 1395.31 2.29468 -1.92781 0
M  V30 14920 H 1392.87 1.14098 -1.14861 0
M  V30 14921 H 1394.86 4.04576 -0.100074 0
M  V30 14922 H 1393.43 3.10189 0.387467 0
M  V30 14923 H 1392.65 3.34462 -2.08635 0
M  V30 14924 H 1393.94 4.5461 -2.2849 0
M  V30 14925 H 1393.34 5.61196 0.71241 0
M  V30 14926 H 1391.89 6.50326 0.438132 0
M  V30 14927 N 1395.33 1.05191 1.17357 0
M  V30 14928 C 1396.57 0.761984 1.87617 0
M  V30 14929 C 1396.9 -0.710976 1.8104 0
M  V30 14930 O 1396.16 -1.53566 1.21309 0
M  V30 14931 C 1396.46 1.18779 3.37085 0
M  V30 14932 C 1396.12 2.66296 3.63864 0
M  V30 14933 C 1394.78 3.06594 3.70882 0
M  V30 14934 C 1397.14 3.61622 3.75339 0
M  V30 14935 C 1394.46 4.41081 3.86865 0
M  V30 14936 C 1396.82 4.95842 3.9284 0
M  V30 14937 C 1395.48 5.35793 3.98097 0
M  V30 14938 H 1394.75 0.27883 0.686538 0
M  V30 14939 H 1397.4 1.31899 1.38834 0
M  V30 14940 H 1395.7 0.549782 3.87923 0
M  V30 14941 H 1397.4 0.940667 3.89811 0
M  V30 14942 H 1393.99 2.34089 3.59027 0
M  V30 14943 H 1398.17 3.31628 3.69238 0
M  V30 14944 H 1393.43 4.71536 3.89183 0
M  V30 14945 H 1397.6 5.696 4.00661 0
M  V30 14946 H 1395.23 6.40009 4.10234 0
M  V30 14947 N 1396.8 -1.33791 0.83293 0
M  V30 14948 C 1397.73 -2.31853 0.276846 0
M  V30 14949 C 1398.72 -1.58702 -0.612184 0
M  V30 14950 O 1399.9 -1.86629 -0.536975 0
M  V30 14951 C 1397.03 -3.42855 -0.55385 0
M  V30 14952 C 1395.98 -4.27333 0.238884 0
M  V30 14953 C 1395.31 -5.29895 -0.715187 0
M  V30 14954 C 1396.61 -5.01692 1.45265 0
M  V30 14955 H 1398.3 -2.78611 1.09618 0
M  V30 14956 H 1395.85 -1.33949 0.528562 0
M  V30 14957 H 1397.8 -4.10479 -0.953133 0
M  V30 14958 H 1396.53 -2.94771 -1.40634 0
M  V30 14959 H 1395.19 -3.61325 0.619656 0
M  V30 14960 H 1394.83 -4.7807 -1.56391 0
M  V30 14961 H 1394.53 -5.87296 -0.188921 0
M  V30 14962 H 1396.06 -6.00387 -1.11211 0
M  V30 14963 H 1397.47 -5.62117 1.12685 0
M  V30 14964 H 1395.87 -5.68715 1.91528 0
M  V30 14965 H 1396.94 -4.30809 2.22558 0
M  V30 14966 N 1398.28 -0.588812 -1.46187 0
M  V30 14967 C 1399.21 0.128595 -2.33146 0
M  V30 14968 C 1400.19 0.877608 -1.45712 0
M  V30 14969 O 1401.38 0.851866 -1.74519 0
M  V30 14970 C 1398.51 1.13886 -3.28096 0
M  V30 14971 C 1397.46 0.504296 -4.25019 0
M  V30 14972 C 1396.79 1.62147 -5.09522 0
M  V30 14973 C 1398.09 -0.562466 -5.19263 0
M  V30 14974 H 1399.78 -0.597455 -2.93378 0
M  V30 14975 H 1397.33 -0.288764 -1.41075 0
M  V30 14976 H 1399.28 1.64916 -3.8779 0
M  V30 14977 H 1398.01 1.89527 -2.65983 0
M  V30 14978 H 1396.66 0.0150325 -3.66597 0
M  V30 14979 H 1396.31 2.36769 -4.4379 0
M  V30 14980 H 1396.01 1.20249 -5.75164 0
M  V30 14981 H 1397.54 2.13441 -5.7208 0
M  V30 14982 H 1398.95 -0.137003 -5.73136 0
M  V30 14983 H 1397.35 -0.902115 -5.93281 0
M  V30 14984 H 1398.42 -1.4464 -4.62825 0
M  V30 14985 N 1399.76 1.54172 -0.326923 0
M  V30 14986 C 1400.99 2.05512 0.279231 0
M  V30 14987 C 1401.41 1.20131 1.44741 0
M  V30 14988 O 1400.77 0.211191 1.80066 0
M  V30 14989 C 1400.82 3.53971 0.688263 0
M  V30 14990 O 1399.92 3.71516 1.79025 0
M  V30 14991 H 1399.26 0.662131 0.0497826 0
M  V30 14992 H 1401.79 1.98979 -0.476309 0
M  V30 14993 H 1401.8 3.96302 0.970002 0
M  V30 14994 H 1400.48 4.15568 -0.166132 0
M  V30 14995 H 1399.05 3.4109 1.50706 0
M  V30 14996 N 1401.24 0.0551678 1.57503 0
M  V30 14997 C 1402.17 -0.915714 2.14795 0
M  V30 14998 C 1403.15 -1.32179 1.07065 0
M  V30 14999 O 1404.33 -1.39579 1.35023 0
M  V30 15000 C 1401.46 -2.18916 2.69616 0
M  V30 15001 C 1400.42 -1.92303 3.82366 0
M  V30 15002 C 1399.74 -3.26136 4.23721 0
M  V30 15003 C 1401.04 -1.24146 5.07331 0
M  V30 15004 H 1402.74 -0.438499 2.96171 0
M  V30 15005 H 1400.28 -0.209477 1.42468 0
M  V30 15006 H 1402.24 -2.87239 3.08337 0
M  V30 15007 H 1400.96 -2.6885 1.85437 0
M  V30 15008 H 1399.62 -1.26391 3.44123 0
M  V30 15009 H 1399.27 -3.73879 3.36487 0
M  V30 15010 H 1398.97 -3.09126 4.99715 0
M  V30 15011 H 1400.49 -3.95684 4.65045 0
M  V30 15012 H 1401.91 -1.8251 5.43473 0
M  V30 15013 H 1400.3 -1.17449 5.88494 0
M  V30 15014 H 1401.37 -0.218073 4.84409 0
M  V30 15015 N 1402.72 -1.56081 -0.218252 0
M  V30 15016 C 1403.94 -1.83334 -0.958964 0
M  V30 15017 C 1404.36 -0.63472 -1.77811 0
M  V30 15018 O 1403.72 0.396729 -1.78136 0
M  V30 15019 C 1403.77 -3.09141 -1.87387 0
M  V30 15020 O 1403.49 -4.24379 -1.08783 0
M  V30 15021 C 1404.99 -3.49405 -2.7282 0
M  V30 15022 H 1402.21 -0.609375 -0.280898 0
M  V30 15023 H 1404.75 -2.03174 -0.232486 0
M  V30 15024 H 1402.91 -2.91267 -2.55426 0
M  V30 15025 H 1403.32 -4.9587 -1.70919 0
M  V30 15026 H 1404.8 -4.40461 -3.32713 0
M  V30 15027 H 1405.27 -2.71311 -3.45379 0
M  V30 15028 H 1405.88 -3.6973 -2.1019 0
M  V30 15029 N 1404.2 0.485086 -1.49949 0
M  V30 15030 C 1405.44 1.23816 -1.60237 0
M  V30 15031 C 1405.77 1.9223 -0.296274 0
M  V30 15032 O 1405.03 1.82095 0.716939 0
M  V30 15033 C 1405.32 2.31573 -2.72229 0
M  V30 15034 C 1404.99 1.80508 -4.13192 0
M  V30 15035 C 1403.65 1.66301 -4.5155 0
M  V30 15036 C 1406 1.42471 -5.0135 0
M  V30 15037 C 1403.33 1.1246 -5.75821 0
M  V30 15038 C 1405.68 0.900757 -6.26154 0
M  V30 15039 C 1404.35 0.74521 -6.63327 0
M  V30 15040 H 1403.62 0.453075 -0.586348 0
M  V30 15041 H 1406.27 0.536349 -1.83836 0
M  V30 15042 H 1404.57 3.07606 -2.42663 0
M  V30 15043 H 1406.27 2.89574 -2.77395 0
M  V30 15044 H 1402.86 1.92529 -3.82924 0
M  V30 15045 H 1407.04 1.52287 -4.72358 0
M  V30 15046 H 1402.3 0.991422 -6.03308 0
M  V30 15047 H 1406.47 0.5973 -6.93834 0
M  V30 15048 H 1404.1 0.325838 -7.59501 0
M  V30 15049 N 1405.67 1.39291 0.737279 0
M  V30 15050 C 1407.08 1.32489 1.31543 0
M  V30 15051 C 1407.44 -0.0118162 1.96196 0
M  V30 15052 O 1406.56 -0.913938 1.96153 0
M  V30 15053 C 1407.16 2.39946 2.39189 0
M  V30 15054 C 1405.71 2.36671 2.92684 0
M  V30 15055 C 1404.86 2.21953 1.66229 0
M  V30 15056 H 1407.81 1.49412 0.534954 0
M  V30 15057 H 1407.83 2.06603 3.19524 0
M  V30 15058 H 1407.35 3.3722 1.92104 0
M  V30 15059 H 1405.45 1.43028 3.44055 0
M  V30 15060 H 1405.56 3.31441 3.45953 0
M  V30 15061 H 1403.92 1.69087 1.90478 0
M  V30 15062 H 1404.71 3.21194 1.21199 0
M  V30 15063 N 1407.15 -0.967221 1.24429 0
M  V30 15064 C 1408.57 -1.23594 1.00979 0
M  V30 15065 C 1408.77 -1.99529 -0.281112 0
M  V30 15066 O 1407.82 -2.31977 -0.997139 0
M  V30 15067 C 1409.14 -2.02261 2.22511 0
M  V30 15068 C 1410.68 -2.15352 2.2714 0
M  V30 15069 C 1411.16 -2.97414 3.48294 0
M  V30 15070 N 1412.65 -3.04996 3.48614 0
M  V30 15071 C 1413.39 -3.68851 4.39017 0
M  V30 15072 N 1412.88 -4.34421 5.39676 0
M  V30 15073 N 1414.67 -3.65868 4.26728 0
M  V30 15074 H 1406.83 -0.458881 2.07384 0
M  V30 15075 H 1409.09 -0.265411 0.910088 0
M  V30 15076 H 1408.79 -1.53852 3.16263 0
M  V30 15077 H 1408.67 -3.02993 2.24667 0
M  V30 15078 H 1411.06 -2.62964 1.33919 0
M  V30 15079 H 1411.14 -1.13966 2.2901 0
M  V30 15080 H 1410.78 -2.50495 4.41831 0
M  V30 15081 H 1410.71 -3.98998 3.43668 0
M  V30 15082 H 1413.2 -2.58354 2.75793 0
M  V30 15083 H 1413.51 -4.80965 6.04891 0
M  V30 15084 H 1411.86 -4.33089 5.43562 0
M  V30 15085 H 1415.05 -3.13819 3.47325 0
M  V30 15086 H 1415.22 -4.15349 4.97382 0
M  V30 15087 N 1408.63 -1.05812 -1.16797 0
M  V30 15088 C 1409.56 -0.685778 -2.23202 0
M  V30 15089 C 1410.54 0.319428 -1.67074 0
M  V30 15090 O 1411.73 0.195635 -1.93212 0
M  V30 15091 C 1408.86 -0.0662958 -3.47237 0
M  V30 15092 C 1407.81 -0.996943 -4.16227 0
M  V30 15093 C 1407.14 -0.241015 -5.34157 0
M  V30 15094 C 1408.44 -2.32384 -4.67755 0
M  V30 15095 H 1410.13 -1.57535 -2.54604 0
M  V30 15096 H 1407.68 -0.758909 -1.22379 0
M  V30 15097 H 1409.63 0.206024 -4.20896 0
M  V30 15098 H 1408.35 0.858263 -3.15121 0
M  V30 15099 H 1407.01 -1.25393 -3.44488 0
M  V30 15100 H 1406.66 0.686508 -4.98293 0
M  V30 15101 H 1406.36 -0.861188 -5.81255 0
M  V30 15102 H 1407.88 0.0238739 -6.10595 0
M  V30 15103 H 1409.3 -2.11099 -5.3302 0
M  V30 15104 H 1407.69 -2.89855 -5.25456 0
M  V30 15105 H 1408.76 -2.958 -3.84227 0
M  V30 15106 N 1410.11 1.33347 -0.840014 0
M  V30 15107 C 1411.04 2.31703 -0.289138 0
M  V30 15108 C 1412.02 1.59024 0.603759 0
M  V30 15109 O 1413.2 1.86911 0.527071 0
M  V30 15110 C 1410.33 3.43144 0.53566 0
M  V30 15111 C 1409.29 4.272 -0.261544 0
M  V30 15112 C 1408.61 5.30267 0.687075 0
M  V30 15113 C 1409.91 5.00915 -1.47924 0
M  V30 15114 H 1411.61 2.78026 -1.11094 0
M  V30 15115 H 1409.15 1.33666 -0.535658 0
M  V30 15116 H 1411.11 4.10979 0.931351 0
M  V30 15117 H 1409.83 2.95512 1.39069 0
M  V30 15118 H 1408.49 3.60991 -0.638809 0
M  V30 15119 H 1408.14 4.78893 1.53853 0
M  V30 15120 H 1407.84 5.87388 0.157773 0
M  V30 15121 H 1409.36 6.00968 1.08026 0
M  V30 15122 H 1410.78 5.61511 -1.15664 0
M  V30 15123 H 1409.17 5.67692 -1.94541 0
M  V30 15124 H 1410.24 4.29622 -2.24839 0
M  V30 15125 N 1411.59 0.596556 1.45873 0
M  V30 15126 C 1412.5 -0.130832 2.34235 0
M  V30 15127 C 1413.51 -0.871805 1.50584 0
M  V30 15128 O 1414.69 -0.831877 1.83417 0
M  V30 15129 C 1411.75 -1.12279 3.28016 0
M  V30 15130 C 1410.81 -0.384982 4.2757 0
M  V30 15131 C 1410.05 -1.32969 5.1687 0
M  V30 15132 O 1410.27 -2.56696 5.09375 0
M  V30 15133 O 1409.2 -0.832741 5.96112 0
M  V30 15134 H 1413.03 0.59503 2.97814 0
M  V30 15135 H 1410.61 0.356873 1.45075 0
M  V30 15136 H 1412.5 -1.6944 3.85834 0
M  V30 15137 H 1411.17 -1.82988 2.67015 0
M  V30 15138 H 1410.08 0.228816 3.734 0
M  V30 15139 H 1411.41 0.281398 4.91395 0
M  V30 15140 N 1413.06 -1.53996 0.335095 0
M  V30 15141 C 1414.03 -2.23385 -0.513015 0
M  V30 15142 C 1415.03 -1.23117 -1.03435 0
M  V30 15143 O 1416.22 -1.47616 -0.924944 0
M  V30 15144 C 1413.35 -2.94691 -1.71377 0
M  V30 15145 H 1414.54 -2.99753 0.0937306 0
M  V30 15146 H 1412.09 -1.56061 0.086326 0
M  V30 15147 H 1412.83 -2.22488 -2.35944 0
M  V30 15148 H 1412.61 -3.68228 -1.34723 0
M  V30 15149 H 1414.1 -3.47525 -2.31552 0
M  V30 15150 N 1414.54 -0.0635198 -1.57472 0
M  V30 15151 C 1415.79 0.608384 -1.93459 0
M  V30 15152 C 1416.12 1.6976 -0.943141 0
M  V30 15153 O 1415.4 1.94478 0.0289567 0
M  V30 15154 C 1415.68 1.19302 -3.39763 0
M  V30 15155 C 1415.53 0.11102 -4.49663 0
M  V30 15156 C 1416.85 2.101 -3.86712 0
M  V30 15157 H 1413.97 0.219688 -0.703496 0
M  V30 15158 H 1416.61 -0.127803 -1.8957 0
M  V30 15159 H 1414.76 1.82044 -3.43209 0
M  V30 15160 H 1416.43 -0.521606 -4.58342 0
M  V30 15161 H 1414.68 -0.559408 -4.30178 0
M  V30 15162 H 1415.35 0.560332 -5.49149 0
M  V30 15163 H 1417.82 1.57305 -3.8522 0
M  V30 15164 H 1416.7 2.47945 -4.89708 0
M  V30 15165 H 1416.96 3.00603 -3.24177 0
M  V30 15166 N 1416.02 1.56195 0.209972 0
M  V30 15167 C 1416.93 1.96539 1.28101 0
M  V30 15168 C 1417.95 0.870858 1.50639 0
M  V30 15169 O 1419.12 1.17539 1.63544 0
M  V30 15170 C 1416.19 2.28392 2.60841 0
M  V30 15171 C 1415.25 3.51474 2.46505 0
M  V30 15172 C 1414.48 3.81798 3.72915 0
M  V30 15173 O 1414.7 3.13627 4.76439 0
M  V30 15174 O 1413.64 4.75264 3.69334 0
M  V30 15175 H 1417.46 2.87838 0.968671 0
M  V30 15176 H 1415.05 1.43556 0.413777 0
M  V30 15177 H 1416.93 2.50022 3.39215 0
M  V30 15178 H 1415.61 1.40264 2.91732 0
M  V30 15179 H 1414.51 3.35109 1.66292 0
M  V30 15180 H 1415.85 4.40021 2.2055 0
M  V30 15181 N 1417.5 -0.477127 1.50204 0
M  V30 15182 C 1418.43 -1.59442 1.63259 0
M  V30 15183 C 1419.41 -1.55327 0.480864 0
M  V30 15184 O 1420.59 -1.75038 0.699578 0
M  V30 15185 C 1417.72 -2.98009 1.6096 0
M  V30 15186 C 1416.77 -3.20301 2.8162 0
M  V30 15187 S 1417.6 -3.00849 4.43001 0
M  V30 15188 C 1418.75 -4.41769 4.43386 0
M  V30 15189 H 1418.99 -1.48128 2.5777 0
M  V30 15190 H 1416.52 -0.66403 1.39392 0
M  V30 15191 H 1418.48 -3.779 1.60319 0
M  V30 15192 H 1417.14 -3.06718 0.676948 0
M  V30 15193 H 1416.33 -4.21515 2.76299 0
M  V30 15194 H 1415.93 -2.48173 2.79797 0
M  V30 15195 H 1418.23 -5.34294 4.16576 0
M  V30 15196 H 1419.17 -4.52135 5.44958 0
M  V30 15197 H 1419.58 -4.23565 3.73166 0
M  V30 15198 N 1418.98 -1.3968 -0.729882 0
M  V30 15199 C 1419.89 -1.41094 -1.87429 0
M  V30 15200 C 1420.9 -0.305142 -1.71303 0
M  V30 15201 O 1422.08 -0.54744 -1.93817 0
M  V30 15202 C 1419.14 -1.25786 -3.23077 0
M  V30 15203 C 1418.2 -2.46382 -3.5156 0
M  V30 15204 C 1417.44 -2.31795 -4.80735 0
M  V30 15205 O 1417.66 -1.32415 -5.54818 0
M  V30 15206 O 1416.59 -3.20883 -5.09232 0
M  V30 15207 H 1420.42 -2.37571 -1.89192 0
M  V30 15208 H 1418.01 -1.2085 -0.878389 0
M  V30 15209 H 1419.89 -1.19402 -4.0413 0
M  V30 15210 H 1418.56 -0.324065 -3.22074 0
M  V30 15211 H 1417.47 -2.58343 -2.70573 0
M  V30 15212 H 1418.8 -3.38473 -3.57347 0
M  V30 15213 N 1420.45 0.960609 -1.2494 0
M  V30 15214 C 1421.73 1.68035 -1.00118 0
M  V30 15215 C 1422.11 2.057 0.474399 0
M  V30 15216 O 1421.46 1.76569 1.45036 0
M  V30 15217 C 1421.67 2.90708 -1.93106 0
M  V30 15218 C 1423.02 3.62792 -2.20606 0
M  V30 15219 O 1424.04 3.00778 -1.90816 0
M  V30 15220 O 1422.9 4.74443 -2.71231 0
M  V30 15221 H 1419.99 0.734939 -0.379202 0
M  V30 15222 H 1422.54 1.01407 -1.36069 0
M  V30 15223 H 1421.31 2.59619 -2.92769 0
M  V30 15224 H 1420.94 3.65068 -1.57515 0
M  V30 15225 N 1421.93 1.0643 1.16234 0
M  V30 15226 C 1423.21 0.695256 1.82827 0
M  V30 15227 C 1423.59 -0.823242 1.94386 0
M  V30 15228 O 1422.94 -1.73406 1.48804 0
M  V30 15229 C 1423.15 1.3988 3.19741 0
M  V30 15230 C 1424.5 1.54489 3.95498 0
M  V30 15231 O 1425.52 1.35882 3.29264 0
M  V30 15232 O 1424.38 1.85027 5.14225 0
M  V30 15233 H 1421.47 0.246285 0.789476 0
M  V30 15234 H 1424.02 1.16466 1.23426 0
M  V30 15235 H 1422.79 2.43419 3.06371 0
M  V30 15236 H 1422.41 0.91957 3.8682 0
M  V30 15237 N 1423.41 -1.329 0.847073 0
M  V30 15238 C 1424.69 -1.921 0.368351 0
M  V30 15239 C 1425.07 -1.77205 -1.14724 0
M  V30 15240 O 1424.42 -1.16547 -1.96543 0
M  V30 15241 C 1424.63 -3.39125 0.824326 0
M  V30 15242 C 1425.97 -4.16267 0.837097 0
M  V30 15243 O 1427 -3.47812 0.768466 0
M  V30 15244 O 1425.86 -5.38487 0.932389 0
M  V30 15245 H 1422.95 -0.820187 0.105936 0
M  V30 15246 H 1425.5 -1.41719 0.933471 0
M  V30 15247 H 1424.27 -3.43875 1.86723 0
M  V30 15248 H 1423.89 -3.96898 0.236233 0
M  V30 15249 N 1424.89 -0.604284 -1.45555 0
M  V30 15250 C 1426.14 -0.0981861 -2.02262 0
M  V30 15251 C 1426.46 1.27002 -1.47312 0
M  V30 15252 O 1425.72 1.85058 -0.636563 0
M  V30 15253 C 1426.02 -0.00538243 -3.574 0
M  V30 15254 C 1425.68 -1.30881 -4.31487 0
M  V30 15255 C 1424.35 -1.66586 -4.51445 0
M  V30 15256 C 1426.7 -2.17039 -4.7386 0
M  V30 15257 C 1424.03 -2.88207 -5.11032 0
M  V30 15258 C 1426.38 -3.37905 -5.34792 0
M  V30 15259 C 1425.04 -3.73866 -5.52974 0
M  V30 15260 H 1424.31 -0.0359289 -0.740128 0
M  V30 15261 H 1426.96 -0.785241 -1.7466 0
M  V30 15262 H 1425.26 0.764919 -3.84261 0
M  V30 15263 H 1426.96 0.402303 -3.98977 0
M  V30 15264 H 1423.55 -1.0209 -4.16264 0
M  V30 15265 H 1427.73 -1.90754 -4.58177 0
M  V30 15266 H 1422.99 -3.16179 -5.23298 0
M  V30 15267 H 1427.16 -4.0492 -5.6658 0
M  V30 15268 H 1424.79 -4.68194 -5.98914 0
M  V30 15269 N 1426.37 1.53816 -0.343257 0
M  V30 15270 C 1427.59 2.05326 0.254744 0
M  V30 15271 C 1428.01 1.21824 1.44237 0
M  V30 15272 O 1427.37 0.253507 1.80731 0
M  V30 15273 C 1427.42 3.55235 0.670075 0
M  V30 15274 O 1427.14 4.35568 -0.470322 0
M  V30 15275 C 1428.64 4.22915 1.32882 0
M  V30 15276 H 1425.86 0.669191 0.0492324 0
M  V30 15277 H 1428.4 1.98415 -0.495159 0
M  V30 15278 H 1426.56 3.6237 1.36992 0
M  V30 15279 H 1426.97 5.24315 -0.139303 0
M  V30 15280 H 1428.45 5.29197 1.57019 0
M  V30 15281 H 1428.92 3.75244 2.28229 0
M  V30 15282 H 1429.53 4.19973 0.67102 0
M  V30 15283 N 1427.84 0.0718701 1.57436 0
M  V30 15284 C 1428.81 -0.880671 2.11605 0
M  V30 15285 C 1429.81 -1.22632 1.0401 0
M  V30 15286 O 1431 -1.15958 1.29997 0
M  V30 15287 C 1428.13 -2.18407 2.61746 0
M  V30 15288 H 1429.32 -0.410712 2.97074 0
M  V30 15289 H 1426.88 -0.176836 1.55296 0
M  V30 15290 H 1427.61 -2.6994 1.79731 0
M  V30 15291 H 1427.4 -1.94616 3.40392 0
M  V30 15292 H 1428.89 -2.86596 3.03731 0
M  V30 15293 N 1429.32 -1.56304 -0.201686 0
M  V30 15294 C 1430.55 -1.84692 -0.943583 0
M  V30 15295 C 1430.97 -0.654649 -1.7634 0
M  V30 15296 O 1430.33 0.396586 -1.76909 0
M  V30 15297 C 1430.38 -3.11251 -1.82085 0
M  V30 15298 O 1429.48 -2.9134 -2.91881 0
M  V30 15299 H 1428.82 -0.608351 -0.266092 0
M  V30 15300 H 1431.35 -2.0353 -0.208992 0
M  V30 15301 H 1431.36 -3.41874 -2.2268 0
M  V30 15302 H 1430.04 -3.97652 -1.21844 0
M  V30 15303 H 1428.62 -2.72 -2.55089 0
M  V30 15304 N 1430.8 0.469154 -1.50455 0
M  V30 15305 C 1431.73 1.57493 -1.7239 0
M  V30 15306 C 1432.71 1.60161 -0.572915 0
M  V30 15307 O 1433.9 1.76397 -0.812259 0
M  V30 15308 C 1431.03 2.95804 -1.81981 0
M  V30 15309 C 1429.98 3.08001 -2.97185 0
M  V30 15310 C 1429.31 4.4798 -2.91922 0
M  V30 15311 C 1430.61 2.85039 -4.37665 0
M  V30 15312 H 1432.3 1.39389 -2.64974 0
M  V30 15313 H 1429.85 0.669133 -1.27509 0
M  V30 15314 H 1431.8 3.73091 -1.95911 0
M  V30 15315 H 1430.52 3.15068 -0.86021 0
M  V30 15316 H 1429.18 2.33148 -2.82909 0
M  V30 15317 H 1428.83 4.64165 -1.93803 0
M  V30 15318 H 1428.53 4.57076 -3.69263 0
M  V30 15319 H 1430.05 5.27284 -3.07903 0
M  V30 15320 H 1431.47 3.52074 -4.52456 0
M  V30 15321 H 1429.87 3.05578 -5.16471 0
M  V30 15322 H 1430.94 1.8088 -4.499 0
M  V30 15323 N 1432.28 1.40065 0.722464 0
M  V30 15324 C 1433.5 1.4146 1.5167 0
M  V30 15325 C 1433.93 0.0142653 1.88095 0
M  V30 15326 O 1433.29 -0.975934 1.52791 0
M  V30 15327 C 1433.33 2.30531 2.77287 0
M  V30 15328 O 1432.44 1.74382 3.73717 0
M  V30 15329 H 1431.78 0.481194 0.457546 0
M  V30 15330 H 1434.31 1.84213 0.890331 0
M  V30 15331 H 1434.32 2.45479 3.25889 0
M  V30 15332 H 1432.99 3.32292 2.50109 0
M  V30 15333 H 1431.57 1.68743 3.32536 0
M  V30 15334 N 1433.76 -0.95397 1.25448 0
M  V30 15335 C 1434.7 -2.05075 1.0589 0
M  V30 15336 C 1435.67 -1.66069 -0.0321545 0
M  V30 15337 O 1436.86 -1.90389 0.125152 0
M  V30 15338 C 1434 -3.38246 0.684391 0
M  V30 15339 C 1433.11 -3.90366 1.85037 0
M  V30 15340 C 1432.25 -5.11864 1.42016 0
M  V30 15341 C 1431.29 -5.56214 2.55523 0
M  V30 15342 N 1430.42 -6.68924 2.13272 0
M  V30 15343 H 1435.26 -2.21137 1.99755 0
M  V30 15344 H 1432.8 -1.08366 0.994742 0
M  V30 15345 H 1434.76 -4.14785 0.448209 0
M  V30 15346 H 1433.39 -3.22068 -0.217273 0
M  V30 15347 H 1432.44 -3.1034 2.19984 0
M  V30 15348 H 1433.75 -4.19228 2.70276 0
M  V30 15349 H 1432.91 -5.95823 1.14366 0
M  V30 15350 H 1431.65 -4.84718 0.538492 0
M  V30 15351 H 1430.65 -4.7082 2.83916 0
M  V30 15352 H 1431.88 -5.85368 3.44268 0
M  V30 15353 H 1429.82 -6.43486 1.27523 0
M  V30 15354 H 1429.74 -6.97307 2.92059 0
M  V30 15355 H 1431.01 -7.5629 1.88801 0
M  V30 15356 N 1435.24 -1.07045 -1.15668 0
M  V30 15357 C 1436.17 -0.645945 -2.1991 0
M  V30 15358 C 1437.18 0.29995 -1.60013 0
M  V30 15359 O 1438.37 0.0897537 -1.78274 0
M  V30 15360 C 1435.47 0.0721917 -3.38823 0
M  V30 15361 C 1434.64 -0.889103 -4.28268 0
M  V30 15362 C 1433.7 -0.208829 -5.25785 0
M  V30 15363 O 1432.73 -0.848894 -5.62834 0
M  V30 15364 N 1433.93 1.04671 -5.70985 0
M  V30 15365 H 1436.69 -1.54266 -2.56948 0
M  V30 15366 H 1434.26 -0.954736 -1.30753 0
M  V30 15367 H 1436.25 0.537882 -4.0111 0
M  V30 15368 H 1434.82 0.870805 -3.00226 0
M  V30 15369 H 1434.04 -1.53399 -3.63129 0
M  V30 15370 H 1435.33 -1.54097 -4.84904 0
M  V30 15371 H 1434.72 1.58673 -5.42991 0
M  V30 15372 H 1433.28 1.45613 -6.35327 0
M  V30 15373 N 1436.71 1.32449 -0.85411 0
M  V30 15374 C 1437.94 2.01997 -0.470307 0
M  V30 15375 C 1438.36 1.63772 0.925225 0
M  V30 15376 O 1437.72 0.838089 1.60766 0
M  V30 15377 C 1437.77 3.55294 -0.616301 0
M  V30 15378 O 1436.87 4.10902 0.351133 0
M  V30 15379 H 1436.21 0.63651 -0.189079 0
M  V30 15380 H 1438.74 1.69008 -1.15315 0
M  V30 15381 H 1438.75 4.0488 -0.503624 0
M  V30 15382 H 1437.43 3.82459 -1.63396 0
M  V30 15383 H 1436.01 3.72391 0.194741 0
M  V30 15384 N 1438.19 0.611994 1.45232 0
M  V30 15385 C 1439.43 0.111974 2.04093 0
M  V30 15386 C 1439.8 -1.23571 1.4695 0
M  V30 15387 O 1441 -1.82671 1.97192 0
M  V30 15388 C 1439.27 0.0779401 3.57315 0
M  V30 15389 S 1440.83 -0.360247 4.37319 0
M  V30 15390 H 1437.64 0.0517217 0.709116 0
M  V30 15391 H 1440.25 0.811087 1.77881 0
M  V30 15392 H 1438.95 1.06223 3.96415 0
M  V30 15393 H 1438.48 -0.643028 3.88109 0
M  V30 15394 H 1440.5 -1.6088 4.69396 0
M  V30 15395 N 1439.67 -1.53632 0.351409 0
M  V30 15396 C 1440.92 -2.00222 -0.243731 0
M  V30 15397 C 1441.23 -1.24305 -1.51022 0
M  V30 15398 O 1442.44 -1.61411 -2.18309 0
M  V30 15399 C 1440.89 -3.56619 -0.48487 0
M  V30 15400 C 1440.5 -4.414 0.766173 0
M  V30 15401 C 1442.25 -4.11603 -1.03844 0
M  V30 15402 C 1440.15 -5.89321 0.4954 0
M  V30 15403 H 1439.08 -0.74801 -0.0948534 0
M  V30 15404 H 1441.73 -1.77433 0.467957 0
M  V30 15405 H 1440.12 -3.75505 -1.25746 0
M  V30 15406 H 1441.29 -4.34288 1.54047 0
M  V30 15407 H 1439.6 -3.97448 1.24194 0
M  V30 15408 H 1442.2 -5.19736 -1.25611 0
M  V30 15409 H 1442.54 -3.65311 -1.99634 0
M  V30 15410 H 1443.08 -3.96459 -0.326363 0
M  V30 15411 H 1439.82 -6.39863 1.42324 0
M  V30 15412 H 1439.34 -5.99317 -0.240662 0
M  V30 15413 H 1441.02 -6.46897 0.115584 0
M  V30 15414 N 1441.15 -0.0802183 -1.57396 0
M  V30 15415 C 1442.38 0.595754 -1.98137 0
M  V30 15416 C 1442.79 1.62638 -0.958871 0
M  V30 15417 O 1442.15 1.82422 0.0534316 0
M  V30 15418 C 1442.2 1.2568 -3.38949 0
M  V30 15419 O 1441.92 0.267417 -4.37283 0
M  V30 15420 C 1443.42 2.0198 -3.94612 0
M  V30 15421 H 1440.64 0.160853 -0.651435 0
M  V30 15422 H 1443.18 -0.155111 -2.03911 0
M  V30 15423 H 1441.34 1.9587 -3.34236 0
M  V30 15424 H 1441.75 0.742695 -5.19215 0
M  V30 15425 H 1443.23 2.43613 -4.95335 0
M  V30 15426 H 1443.7 2.87973 -3.31614 0
M  V30 15427 H 1444.31 1.36639 -4.02753 0
M  V30 15428 N 1442.63 1.56409 0.193394 0
M  V30 15429 C 1443.54 1.97886 1.26009 0
M  V30 15430 C 1444.55 0.886786 1.49707 0
M  V30 15431 O 1445.73 1.19267 1.62288 0
M  V30 15432 C 1442.79 2.31145 2.58404 0
M  V30 15433 C 1441.85 3.54069 2.42763 0
M  V30 15434 C 1441.09 3.85732 3.68845 0
M  V30 15435 O 1441.31 3.18662 4.73086 0
M  V30 15436 O 1440.24 4.79155 3.64272 0
M  V30 15437 H 1444.07 2.88849 0.938087 0
M  V30 15438 H 1441.65 1.43987 0.398528 0
M  V30 15439 H 1443.54 2.53606 3.36544 0
M  V30 15440 H 1442.21 1.4335 2.90228 0
M  V30 15441 H 1441.12 3.36854 1.62728 0
M  V30 15442 H 1442.45 4.42335 2.15871 0
M  V30 15443 N 1444.1 -0.461169 1.50702 0
M  V30 15444 C 1445.04 -1.57562 1.66453 0
M  V30 15445 C 1446.05 -1.53381 0.545726 0
M  V30 15446 O 1447.24 -1.58589 0.819254 0
M  V30 15447 C 1444.34 -2.9646 1.64209 0
M  V30 15448 C 1443.51 -3.25405 2.92285 0
M  V30 15449 C 1442.57 -4.43906 2.82549 0
M  V30 15450 O 1441.6 -4.43726 3.56505 0
M  V30 15451 N 1442.8 -5.46131 1.96777 0
M  V30 15452 H 1445.56 -1.44463 2.62584 0
M  V30 15453 H 1443.12 -0.649749 1.4829 0
M  V30 15454 H 1445.12 -3.73719 1.55295 0
M  V30 15455 H 1443.69 -3.03278 0.757718 0
M  V30 15456 H 1442.91 -2.36666 3.1525 0
M  V30 15457 H 1444.19 -3.41559 3.77114 0
M  V30 15458 H 1443.59 -5.49103 1.36023 0
M  V30 15459 H 1442.15 -6.22335 1.9376 0
M  V30 15460 N 1445.58 -1.40446 -0.715026 0
M  V30 15461 C 1446.81 -1.4207 -1.50412 0
M  V30 15462 C 1447.22 -0.0205547 -1.88789 0
M  V30 15463 O 1446.58 0.955635 -1.55479 0
M  V30 15464 C 1446.63 -2.3119 -2.77909 0
M  V30 15465 O 1446.35 -3.65754 -2.41154 0
M  V30 15466 C 1447.85 -2.41412 -3.718 0
M  V30 15467 H 1445.07 -0.484554 -0.464164 0
M  V30 15468 H 1447.62 -1.84504 -0.881964 0
M  V30 15469 H 1445.77 -1.92117 -3.36407 0
M  V30 15470 H 1446.19 -4.13091 -3.23197 0
M  V30 15471 H 1447.66 -3.07976 -4.58099 0
M  V30 15472 H 1448.14 -1.43934 -4.14945 0
M  V30 15473 H 1448.74 -2.81039 -3.19213 0
M  V30 15474 N 1447.06 0.947303 -1.25952 0
M  V30 15475 C 1447.99 2.0487 -1.02767 0
M  V30 15476 C 1449 1.62797 0.00985984 0
M  V30 15477 O 1450.19 1.77018 -0.229527 0
M  V30 15478 C 1447.29 3.34682 -0.533048 0
M  V30 15479 C 1446.47 4.05555 -1.63841 0
M  V30 15480 C 1445.53 5.13638 -1.1429 0
M  V30 15481 O 1444.55 5.38682 -1.83876 0
M  V30 15482 N 1445.75 5.80499 0.0119377 0
M  V30 15483 H 1448.52 2.25327 -1.97605 0
M  V30 15484 H 1446.08 1.11636 -1.17256 0
M  V30 15485 H 1448.07 4.04273 -0.185868 0
M  V30 15486 H 1446.64 3.10941 0.321585 0
M  V30 15487 H 1445.86 3.29962 -2.15683 0
M  V30 15488 H 1447.15 4.49661 -2.38081 0
M  V30 15489 H 1446.55 5.62581 0.593212 0
M  V30 15490 H 1445.1 6.51109 0.30009 0
M  V30 15491 N 1448.54 1.07657 1.15099 0
M  V30 15492 C 1449.77 0.821631 1.89559 0
M  V30 15493 C 1450.18 -0.629174 1.78432 0
M  V30 15494 O 1449.52 -1.44353 1.13613 0
M  V30 15495 C 1449.58 1.15473 3.4045 0
M  V30 15496 C 1449.25 2.60675 3.75363 0
M  V30 15497 C 1450.24 3.58923 3.76125 0
M  V30 15498 C 1447.93 2.96333 4.05576 0
M  V30 15499 C 1449.92 4.90863 4.06611 0
M  V30 15500 C 1447.61 4.28469 4.35727 0
M  V30 15501 C 1448.61 5.25543 4.36226 0
M  V30 15502 O 1448.29 6.55305 4.65651 0
M  V30 15503 H 1448.03 0.296469 0.607521 0
M  V30 15504 H 1450.58 1.43722 1.46742 0
M  V30 15505 H 1448.81 0.482117 3.83683 0
M  V30 15506 H 1450.5 0.881832 3.96205 0
M  V30 15507 H 1451.27 3.32718 3.52879 0
M  V30 15508 H 1447.14 2.2142 4.04344 0
M  V30 15509 H 1450.69 5.66626 4.06916 0
M  V30 15510 H 1446.59 4.54425 4.58441 0
M  V30 15511 H 1447.35 6.60503 4.83402 0
M  V30 15512 N 1450.02 -1.31994 0.861122 0
M  V30 15513 C 1451.26 -1.97025 0.467678 0
M  V30 15514 C 1451.59 -1.68116 -0.978129 0
M  V30 15515 O 1450.85 -0.965342 -1.70234 0
M  V30 15516 C 1451.15 -3.51232 0.661135 0
M  V30 15517 C 1450.81 -4.00142 2.07839 0
M  V30 15518 C 1449.47 -4.1321 2.466 0
M  V30 15519 C 1451.83 -4.25986 3.00309 0
M  V30 15520 C 1449.15 -4.49467 3.7709 0
M  V30 15521 C 1451.51 -4.63704 4.30304 0
M  V30 15522 C 1450.17 -4.74978 4.68991 0
M  V30 15523 H 1449.44 -0.720967 0.171136 0
M  V30 15524 H 1452.09 -1.57285 1.09242 0
M  V30 15525 H 1450.39 -3.91772 -0.0467947 0
M  V30 15526 H 1452.09 -3.99584 0.336669 0
M  V30 15527 H 1448.68 -3.90461 1.76743 0
M  V30 15528 H 1452.86 -4.15393 2.71592 0
M  V30 15529 H 1448.12 -4.56391 4.06838 0
M  V30 15530 H 1452.29 -4.82654 5.02014 0
M  V30 15531 H 1449.92 -5.02828 5.70147 0
M  V30 15532 N 1451.49 -0.619688 -1.44906 0
M  V30 15533 C 1452.74 -0.119633 -2.02146 0
M  V30 15534 C 1453.07 1.25432 -1.48651 0
M  V30 15535 O 1452.32 1.84372 -0.656155 0
M  V30 15536 C 1452.62 -0.0432891 -3.57374 0
M  V30 15537 C 1452.29 -1.35451 -4.30074 0
M  V30 15538 C 1450.95 -1.71365 -4.49653 0
M  V30 15539 C 1453.3 -2.22053 -4.71532 0
M  V30 15540 C 1450.63 -2.93611 -5.07946 0
M  V30 15541 C 1452.98 -3.43559 -5.31178 0
M  V30 15542 C 1451.65 -3.7971 -5.48977 0
M  V30 15543 H 1450.92 -0.0437769 -0.739706 0
M  V30 15544 H 1453.56 -0.803722 -1.73818 0
M  V30 15545 H 1451.87 0.72412 -3.8505 0
M  V30 15546 H 1453.57 0.359964 -3.99381 0
M  V30 15547 H 1450.16 -1.06499 -4.15158 0
M  V30 15548 H 1454.34 -1.95603 -4.56129 0
M  V30 15549 H 1449.6 -3.21712 -5.19915 0
M  V30 15550 H 1453.77 -4.10906 -5.62254 0
M  V30 15551 H 1451.4 -4.7452 -5.93915 0
M  V30 15552 N 1452.97 1.53444 -0.359552 0
M  V30 15553 C 1454.25 1.93467 0.288106 0
M  V30 15554 C 1454.63 1.29256 1.66901 0
M  V30 15555 O 1453.98 0.449402 2.24037 0
M  V30 15556 C 1454.19 3.47297 0.344359 0
M  V30 15557 C 1455.54 4.20515 0.587585 0
M  V30 15558 O 1456.56 3.53646 0.425818 0
M  V30 15559 O 1455.42 5.39003 0.902119 0
M  V30 15560 H 1452.51 0.809033 0.171451 0
M  V30 15561 H 1455.06 1.64625 -0.411896 0
M  V30 15562 H 1453.83 3.86292 -0.624064 0
M  V30 15563 H 1453.45 3.82353 1.0905 0
M  V30 15564 N 1454.45 0.0885642 1.57351 0
M  V30 15565 C 1455.4 -0.890284 2.14888 0
M  V30 15566 C 1456.39 -1.29671 1.09004 0
M  V30 15567 O 1457.6 -1.272 1.27359 0
M  V30 15568 H 1453.97 -0.305107 0.687324 0
M  V30 15569 H 1455.94 -0.380243 2.95967 0
M  V30 15570 C 1454.69 -2.14216 2.73874 0
M  V30 15571 H 1454.02 -1.8383 3.55031 0
M  V30 15572 H 1455.46 -2.8078 3.17708 0
M  V30 15573 C 1453.92 -2.91186 1.69448 0
M  V30 15574 O 1454.45 -3.85494 1.12949 0
M  V30 15575 N 1452.65 -2.54603 1.40091 0
M  V30 15576 H 1452.2 -1.77984 1.86225 0
M  V30 15577 H 1452.16 -3.06403 0.704577 0
M  V30 15578 N 1455.93 -1.56509 -0.185096 0
M  V30 15579 C 1457.21 -1.72055 -0.930398 0
M  V30 15580 C 1457.59 -0.646145 -2.00968 0
M  V30 15581 O 1456.93 0.34129 -2.25937 0
M  V30 15582 C 1457.14 -3.14752 -1.50771 0
M  V30 15583 C 1458.49 -3.75292 -1.98597 0
M  V30 15584 O 1459.52 -3.17944 -1.60593 0
M  V30 15585 O 1458.37 -4.7596 -2.68561 0
M  V30 15586 H 1455.47 -0.702118 -0.436989 0
M  V30 15587 H 1458.01 -1.68806 -0.174007 0
M  V30 15588 H 1456.79 -3.84426 -0.730236 0
M  V30 15589 H 1456.41 -3.22272 -2.32866 0
M  V30 15590 N 1457.41 0.45317 -1.50944 0
M  V30 15591 C 1458.63 1.23136 -1.6689 0
M  V30 15592 C 1459.06 1.84639 -0.359185 0
M  V30 15593 O 1458.41 1.68106 0.678983 0
M  V30 15594 C 1458.46 2.30275 -2.77499 0
M  V30 15595 O 1457.57 3.35371 -2.39999 0
M  V30 15596 H 1456.91 0.361475 -0.556984 0
M  V30 15597 H 1459.44 0.537174 -1.97422 0
M  V30 15598 H 1459.45 2.75309 -3.01113 0
M  V30 15599 H 1458.12 1.84885 -3.72546 0
M  V30 15600 H 1456.7 2.95924 -2.26899 0
M  V30 15601 N 1458.88 1.40823 0.707568 0
M  V30 15602 C 1459.83 1.41724 1.82162 0
M  V30 15603 C 1460.8 0.273135 1.63839 0
M  V30 15604 O 1461.99 0.472399 1.84859 0
M  V30 15605 C 1459.13 1.29347 3.19943 0
M  V30 15606 C 1458.24 2.53529 3.49782 0
M  V30 15607 C 1457.37 2.33533 4.77112 0
M  V30 15608 C 1456.41 3.53252 4.9988 0
M  V30 15609 N 1455.55 3.32401 6.18429 0
M  V30 15610 H 1460.39 2.36943 1.80726 0
M  V30 15611 H 1457.93 1.17671 0.882723 0
M  V30 15612 H 1459.89 1.20175 3.99517 0
M  V30 15613 H 1458.52 0.377426 3.20586 0
M  V30 15614 H 1457.57 2.73198 2.64702 0
M  V30 15615 H 1458.88 3.42617 3.62512 0
M  V30 15616 H 1458.03 2.2176 5.64719 0
M  V30 15617 H 1456.77 1.41883 4.66605 0
M  V30 15618 H 1455.78 3.65492 4.10725 0
M  V30 15619 H 1457 4.4584 5.12253 0
M  V30 15620 H 1454.95 2.4344 6.09158 0
M  V30 15621 H 1454.87 4.15059 6.31872 0
M  V30 15622 H 1456.13 3.24377 7.08802 0
M  V30 15623 N 1460.36 -0.94061 1.26453 0
M  V30 15624 C 1461.59 -1.72654 1.14914 0
M  V30 15625 C 1462.01 -1.85823 -0.291789 0
M  V30 15626 O 1461.37 -1.34888 -1.2114 0
M  V30 15627 C 1461.42 -3.11083 1.82372 0
M  V30 15628 O 1460.52 -3.971 1.1129 0
M  V30 15629 H 1459.86 -0.529704 0.400387 0
M  V30 15630 H 1462.39 -1.17803 1.67283 0
M  V30 15631 H 1462.4 -3.6147 1.89219 0
M  V30 15632 H 1461.08 -3.00815 2.87199 0
M  V30 15633 H 1459.66 -3.5555 1.12423 0
M  V30 15634 N 1461.84 -1.08266 -1.14527 0
M  V30 15635 C 1463.09 -0.811459 -1.85531 0
M  V30 15636 C 1463.42 0.662726 -1.82861 0
M  V30 15637 O 1462.67 1.50296 -1.25338 0
M  V30 15638 C 1462.97 -1.27675 -3.33817 0
M  V30 15639 C 1462.64 -2.7585 -3.56676 0
M  V30 15640 C 1461.3 -3.16319 -3.62623 0
M  V30 15641 C 1463.65 -3.71446 -3.65619 0
M  V30 15642 C 1460.98 -4.51183 -3.75035 0
M  V30 15643 C 1463.33 -5.06083 -3.79556 0
M  V30 15644 C 1461.99 -5.4616 -3.83752 0
M  V30 15645 H 1461.26 -0.296934 -0.678904 0
M  V30 15646 H 1463.91 -1.35533 -1.35288 0
M  V30 15647 H 1462.22 -0.65244 -3.86329 0
M  V30 15648 H 1463.91 -1.04369 -3.8718 0
M  V30 15649 H 1460.5 -2.43526 -3.52694 0
M  V30 15650 H 1464.69 -3.41301 -3.60316 0
M  V30 15651 H 1459.94 -4.81689 -3.76545 0
M  V30 15652 H 1464.12 -5.80022 -3.85418 0
M  V30 15653 H 1461.74 -6.50661 -3.93121 0
M  V30 15654 N 1463.32 1.31536 -0.86811 0
M  V30 15655 C 1464.54 2.01487 -0.491705 0
M  V30 15656 C 1464.97 1.64744 0.907803 0
M  V30 15657 O 1464.33 0.855093 1.59868 0
M  V30 15658 C 1464.38 3.54621 -0.65395 0
M  V30 15659 O 1463.48 4.11252 0.307532 0
M  V30 15660 H 1462.82 0.634469 -0.195819 0
M  V30 15661 H 1465.35 1.67775 -1.17101 0
M  V30 15662 H 1465.36 4.04323 -0.546539 0
M  V30 15663 H 1464.04 3.80704 -1.67443 0
M  V30 15664 H 1462.61 3.72577 0.155233 0
M  V30 15665 N 1464.8 0.627364 1.44575 0
M  V30 15666 C 1466.05 0.130094 2.01681 0
M  V30 15667 C 1466.37 -1.25112 1.49572 0
M  V30 15668 O 1465.64 -1.8305 0.697822 0
M  V30 15669 H 1464.22 0.0451032 0.745637 0
M  V30 15670 H 1466.88 0.813218 1.77124 0
M  V30 15671 H 1465.97 0.0949131 3.11956 0
M  V30 15672 N 1466.28 -1.53251 0.367684 0
M  V30 15673 C 1467.52 -2.01585 -0.221679 0
M  V30 15674 C 1467.85 -1.25444 -1.48248 0
M  V30 15675 O 1467.13 -0.348726 -1.91348 0
M  V30 15676 C 1467.41 -3.56449 -0.511507 0
M  V30 15677 C 1467.27 -4.4328 0.763075 0
M  V30 15678 C 1468.58 -4.20113 -1.31121 0
M  V30 15679 H 1465.7 -0.732743 -0.0790954 0
M  V30 15680 H 1468.35 -1.83493 0.492991 0
M  V30 15681 H 1466.5 -3.71996 -1.12033 0
M  V30 15682 H 1468.17 -4.39526 1.40052 0
M  V30 15683 H 1466.41 -4.11164 1.38299 0
M  V30 15684 H 1467.08 -5.4959 0.515215 0
M  V30 15685 H 1469.56 -4.08412 -0.796169 0
M  V30 15686 H 1468.43 -5.28494 -1.48274 0
M  V30 15687 H 1468.69 -3.76316 -2.32032 0
M  V30 15688 N 1467.75 -0.0969077 -1.57302 0
M  V30 15689 C 1468.68 0.858443 -2.17147 0
M  V30 15690 C 1469.66 1.29294 -1.10531 0
M  V30 15691 O 1470.85 1.3595 -1.38676 0
M  V30 15692 C 1467.98 2.11691 -2.75326 0
M  V30 15693 C 1466.93 1.82097 -3.8733 0
M  V30 15694 C 1466.26 3.14787 -4.32219 0
M  V30 15695 C 1467.56 1.10651 -5.10444 0
M  V30 15696 H 1469.25 0.35982 -2.9723 0
M  V30 15697 H 1466.8 0.17163 -1.42974 0
M  V30 15698 H 1468.75 2.78963 -3.15844 0
M  V30 15699 H 1467.48 2.63839 -1.925 0
M  V30 15700 H 1466.14 1.17222 -3.47354 0
M  V30 15701 H 1465.78 3.64826 -3.46281 0
M  V30 15702 H 1465.48 2.95769 -5.07735 0
M  V30 15703 H 1467.01 3.83215 -4.75372 0
M  V30 15704 H 1468.42 1.68036 -5.48121 0
M  V30 15705 H 1466.82 1.01805 -5.91401 0
M  V30 15706 H 1467.89 0.0895634 -4.84817 0
M  V30 15707 N 1469.23 1.56605 0.176793 0
M  V30 15708 C 1470.51 1.72546 0.921261 0
M  V30 15709 C 1470.89 0.656794 2.00623 0
M  V30 15710 O 1470.24 -0.329303 2.26115 0
M  V30 15711 C 1470.45 3.15548 1.491 0
M  V30 15712 C 1471.79 3.7634 1.96604 0
M  V30 15713 O 1472.82 3.18791 1.58905 0
M  V30 15714 O 1471.68 4.77377 2.66033 0
M  V30 15715 H 1468.77 0.704425 0.43326 0
M  V30 15716 H 1471.32 1.68895 0.165052 0
M  V30 15717 H 1470.09 3.84808 0.709839 0
M  V30 15718 H 1469.71 3.23502 2.31154 0
M  V30 15719 N 1470.71 -0.445159 1.51182 0
M  V30 15720 C 1471.95 -1.2048 1.65118 0
M  V30 15721 C 1472.31 -1.88673 0.35589 0
M  V30 15722 O 1473.51 -2.66228 0.370932 0
M  V30 15723 C 1471.79 -2.20075 2.81606 0
M  V30 15724 S 1473.34 -3.04631 3.15825 0
M  V30 15725 H 1470.16 -0.408682 0.581807 0
M  V30 15726 H 1472.76 -0.497601 1.89061 0
M  V30 15727 H 1471.47 -1.68603 3.74167 0
M  V30 15728 H 1471 -2.95387 2.59827 0
M  V30 15729 H 1473.01 -4.21606 2.61654 0
M  V30 15730 N 1472.19 -1.41197 -0.700089 0
M  V30 15731 C 1473.44 -1.40034 -1.45722 0
M  V30 15732 C 1473.76 -0.00876281 -1.94998 0
M  V30 15733 O 1473.03 0.948647 -1.71399 0
M  V30 15734 H 1471.61 -0.515433 -0.540683 0
M  V30 15735 H 1474.27 -1.76394 -0.828926 0
M  V30 15736 H 1473.36 -2.08477 -2.32258 0
M  V30 15737 N 1473.67 0.933891 -1.2695 0
M  V30 15738 C 1474.61 2.05498 -1.08964 0
M  V30 15739 C 1475.61 1.69394 -0.0144837 0
M  V30 15740 O 1476.81 1.79179 -0.171729 0
M  V30 15741 H 1473.19 0.672978 -0.335566 0
M  V30 15742 H 1475.16 2.17817 -2.03957 0
M  V30 15743 C 1473.91 3.39579 -0.747074 0
M  V30 15744 H 1473.23 3.67842 -1.56628 0
M  V30 15745 H 1474.67 4.18815 -0.661064 0
M  V30 15746 C 1473.13 3.3241 0.548214 0
M  V30 15747 O 1473.66 3.69132 1.58443 0
M  V30 15748 N 1471.87 2.85509 0.541545 0
M  V30 15749 H 1471.41 2.55822 -0.302112 0
M  V30 15750 H 1471.37 2.81095 1.4083 0
M  V30 15751 N 1475.14 1.08871 1.13951 0
M  V30 15752 C 1476.38 0.830861 1.86751 0
M  V30 15753 C 1476.75 -0.63195 1.81302 0
M  V30 15754 O 1477.95 -1.0055 2.49285 0
M  V30 15755 C 1476.22 1.34426 3.31156 0
M  V30 15756 S 1477.78 1.21942 4.21516 0
M  V30 15757 H 1474.6 0.300658 0.644302 0
M  V30 15758 H 1477.2 1.39095 1.37378 0
M  V30 15759 H 1475.9 2.40326 3.32674 0
M  V30 15760 H 1475.43 0.780048 3.85589 0
M  V30 15761 H 1477.45 0.166724 4.9592 0
M  V30 15762 N 1476.62 -1.31073 0.875073 0
M  V30 15763 C 1477.85 -2.01223 0.502383 0
M  V30 15764 C 1478.27 -1.65223 -0.899053 0
M  V30 15765 O 1477.63 -0.863559 -1.59412 0
M  V30 15766 C 1477.68 -3.54269 0.672747 0
M  V30 15767 O 1476.78 -4.11409 -0.285718 0
M  V30 15768 H 1476.12 -0.633422 0.199181 0
M  V30 15769 H 1478.65 -1.67152 1.17989 0
M  V30 15770 H 1478.66 -4.04027 0.567973 0
M  V30 15771 H 1477.34 -3.79811 1.69459 0
M  V30 15772 H 1475.91 -3.72654 -0.135472 0
M  V30 15773 N 1478.1 -0.635022 -1.4424 0
M  V30 15774 C 1479.52 -0.300978 -1.56736 0
M  V30 15775 C 1479.72 1.19571 -1.62188 0
M  V30 15776 O 1478.77 1.97991 -1.56703 0
M  V30 15777 C 1480.09 -0.996327 -2.83714 0
M  V30 15778 C 1481.63 -0.97484 -2.97432 0
M  V30 15779 C 1482.11 -1.65073 -4.27218 0
M  V30 15780 N 1483.6 -1.6175 -4.3404 0
M  V30 15781 C 1484.33 -2.10938 -5.33191 0
M  V30 15782 N 1483.83 -2.68333 -6.38725 0
M  V30 15783 N 1485.62 -2.01544 -5.24725 0
M  V30 15784 H 1477.77 -1.60649 -1.38945 0
M  V30 15785 H 1480.04 -0.674561 -0.666087 0
M  V30 15786 H 1479.74 -2.05128 -2.85684 0
M  V30 15787 H 1479.62 -0.536511 -3.73365 0
M  V30 15788 H 1482 0.071646 -2.95013 0
M  V30 15789 H 1482.09 -1.47318 -2.0912 0
M  V30 15790 H 1481.73 -2.69669 -4.30397 0
M  V30 15791 H 1481.66 -1.12719 -5.14395 0
M  V30 15792 H 1484.15 -1.1985 -3.58392 0
M  V30 15793 H 1484.46 -3.03588 -7.10672 0
M  V30 15794 H 1482.81 -2.72385 -6.39399 0
M  V30 15795 H 1486 -1.56423 -4.41191 0
M  V30 15796 H 1486.17 -2.40187 -6.01842 0
M  V30 15797 N 1479.58 1.53054 -0.375806 0
M  V30 15798 C 1480.83 2.00584 0.211847 0
M  V30 15799 C 1481.14 1.26692 1.49025 0
M  V30 15800 O 1482.35 1.64863 2.15713 0
M  V30 15801 C 1480.8 3.57345 0.428074 0
M  V30 15802 C 1480.41 4.40125 -0.836299 0
M  V30 15803 C 1482.15 4.13203 0.972825 0
M  V30 15804 C 1480.06 5.88459 -0.589093 0
M  V30 15805 H 1478.99 0.749424 0.0829412 0
M  V30 15806 H 1481.64 1.76666 -0.496126 0
M  V30 15807 H 1480.02 3.77458 1.19756 0
M  V30 15808 H 1481.2 4.31782 -1.60936 0
M  V30 15809 H 1479.51 3.95422 -1.30501 0
M  V30 15810 H 1482.11 5.21669 1.17326 0
M  V30 15811 H 1482.45 3.68441 1.93797 0
M  V30 15812 H 1482.99 3.96928 0.263249 0
M  V30 15813 H 1479.73 6.37517 -1.52485 0
M  V30 15814 H 1479.25 5.99624 0.145285 0
M  V30 15815 H 1480.92 6.46631 -0.218485 0
M  V30 15816 N 1481.06 0.105248 1.57248 0
M  V30 15817 C 1482.3 -0.556054 1.94716 0
M  V30 15818 C 1482.63 -1.67557 0.987669 0
M  V30 15819 O 1481.89 -1.95698 0.00905706 0
M  V30 15820 C 1482.19 -1.14178 3.38671 0
M  V30 15821 C 1481.85 -0.145022 4.50667 0
M  V30 15822 C 1480.51 0.129099 4.81027 0
M  V30 15823 C 1482.87 0.535015 5.18447 0
M  V30 15824 C 1480.19 1.08978 5.7649 0
M  V30 15825 C 1482.55 1.48423 6.14942 0
M  V30 15826 C 1481.21 1.76648 6.43702 0
M  V30 15827 H 1480.48 -0.203475 0.712516 0
M  V30 15828 H 1483.13 0.183237 1.90621 0
M  V30 15829 H 1481.43 -1.95754 3.39393 0
M  V30 15830 H 1483.13 -1.66132 3.64967 0
M  V30 15831 H 1479.72 -0.36886 4.2701 0
M  V30 15832 H 1483.9 0.336391 4.95159 0
M  V30 15833 H 1479.16 1.31535 5.97083 0
M  V30 15834 H 1483.33 2.01693 6.66553 0
M  V30 15835 H 1480.96 2.51245 7.17482 0
M  V30 15836 N 1482.53 -1.56697 -0.168486 0
M  V30 15837 C 1483.48 -1.93039 -1.21325 0
M  V30 15838 C 1484.47 -0.799039 -1.39657 0
M  V30 15839 O 1485.66 -1.06226 -1.41581 0
M  V30 15840 C 1482.79 -2.29622 -2.55203 0
M  V30 15841 C 1481.88 -3.49278 -2.40553 0
M  V30 15842 N 1482.27 -4.6644 -1.95622 0
M  V30 15843 C 1480.56 -3.53941 -2.71371 0
M  V30 15844 C 1481.27 -5.48572 -1.93502 0
M  V30 15845 N 1480.24 -4.89693 -2.36012 0
M  V30 15846 H 1484.04 -2.81109 -0.857611 0
M  V30 15847 H 1481.56 -1.5797 -0.376734 0
M  V30 15848 H 1483.55 -2.53854 -3.30702 0
M  V30 15849 H 1482.21 -1.42893 -2.91568 0
M  V30 15850 H 1483.23 -4.90604 -1.65916 0
M  V30 15851 H 1479.9 -2.77697 -3.11754 0
M  V30 15852 H 1481.29 -6.52464 -1.60438 0
M  V30 15853 N 1484.01 0.437135 -1.51416 0
M  V30 15854 C 1485.26 1.18421 -1.63771 0
M  V30 15855 C 1485.58 1.91718 -0.356282 0
M  V30 15856 O 1484.85 1.85566 0.627863 0
M  V30 15857 H 1483.43 0.440125 -0.603572 0
M  V30 15858 H 1486.09 0.501155 -1.88347 0
M  V30 15859 H 1485.19 1.91367 -2.46546 0
M  V30 15860 N 1485.49 1.41566 0.692592 0
M  V30 15861 C 1486.4 1.46014 1.83622 0
M  V30 15862 C 1487.42 0.350453 1.70434 0
M  V30 15863 O 1488.59 0.598634 1.92298 0
M  V30 15864 C 1485.66 1.34308 3.19628 0
M  V30 15865 C 1484.72 2.55617 3.44904 0
M  V30 15866 C 1483.95 2.4446 4.74421 0
M  V30 15867 O 1484.17 1.47078 5.51112 0
M  V30 15868 O 1483.11 3.34272 5.00546 0
M  V30 15869 H 1486.93 2.42504 1.82826 0
M  V30 15870 H 1484.52 1.23136 0.846039 0
M  V30 15871 H 1486.4 1.30075 4.00822 0
M  V30 15872 H 1485.08 0.409343 3.21101 0
M  V30 15873 H 1483.98 2.65426 2.63628 0
M  V30 15874 H 1485.32 3.47829 3.48247 0
M  V30 15875 N 1486.97 -0.927146 1.27443 0
M  V30 15876 C 1487.92 -2.02783 1.10216 0
M  V30 15877 C 1488.89 -1.661 0.00307842 0
M  V30 15878 O 1490.07 -1.90081 0.165508 0
M  V30 15879 C 1487.21 -3.36718 0.755984 0
M  V30 15880 C 1486.32 -3.86353 1.93276 0
M  V30 15881 C 1485.46 -5.08737 1.52841 0
M  V30 15882 C 1484.5 -5.50669 2.67263 0
M  V30 15883 N 1483.63 -6.6425 2.27413 0
M  V30 15884 H 1488.47 -2.16851 2.04401 0
M  V30 15885 H 1486.01 -1.06232 1.0175 0
M  V30 15886 H 1487.97 -4.13741 0.53609 0
M  V30 15887 H 1486.6 -3.22456 -0.148909 0
M  V30 15888 H 1485.65 -3.05604 2.26518 0
M  V30 15889 H 1486.96 -4.13401 2.79108 0
M  V30 15890 H 1486.12 -5.93263 1.26979 0
M  V30 15891 H 1484.86 -4.83467 0.641187 0
M  V30 15892 H 1483.86 -4.64692 2.93839 0
M  V30 15893 H 1485.09 -5.77934 3.56607 0
M  V30 15894 H 1483.03 -6.40636 1.41143 0
M  V30 15895 H 1482.95 -6.90955 3.06784 0
M  V30 15896 H 1484.22 -7.52115 2.048 0
M  V30 15897 N 1488.45 -1.09474 -1.13372 0
M  V30 15898 C 1489.38 -0.756441 -2.20908 0
M  V30 15899 C 1490.36 0.266113 -1.68006 0
M  V30 15900 O 1491.54 0.134067 -1.93737 0
M  V30 15901 C 1488.67 -0.176733 -3.4685 0
M  V30 15902 C 1487.63 -1.12886 -4.12845 0
M  V30 15903 C 1486.95 -0.410831 -5.33119 0
M  V30 15904 C 1488.25 -2.47148 -4.60125 0
M  V30 15905 H 1489.95 -1.65555 -2.49463 0
M  V30 15906 H 1487.49 -0.797458 -1.19902 0
M  V30 15907 H 1489.45 0.0720151 -4.21338 0
M  V30 15908 H 1488.17 0.757576 -3.17692 0
M  V30 15909 H 1486.83 -1.36289 -3.40325 0
M  V30 15910 H 1486.48 0.527632 -5.00225 0
M  V30 15911 H 1486.18 -1.04567 -5.78221 0
M  V30 15912 H 1487.7 -0.170394 -6.10362 0
M  V30 15913 H 1489.11 -2.27949 -5.26034 0
M  V30 15914 H 1487.51 -3.06425 -5.15969 0
M  V30 15915 H 1488.58 -3.07874 -3.74622 0
M  V30 15916 N 1489.92 1.30607 -0.882012 0
M  V30 15917 C 1490.86 2.26334 -0.291222 0
M  V30 15918 C 1491.84 1.51653 0.586522 0
M  V30 15919 O 1493.02 1.80681 0.537275 0
M  V30 15920 C 1490.15 3.33584 0.586482 0
M  V30 15921 C 1489.19 4.25924 -0.221535 0
M  V30 15922 S 1490.03 5.10791 -1.6079 0
M  V30 15923 C 1491.18 6.2155 -0.736638 0
M  V30 15924 H 1491.41 2.76096 -1.10265 0
M  V30 15925 H 1488.95 1.38558 -0.681255 0
M  V30 15926 H 1490.91 3.95842 1.08715 0
M  V30 15927 H 1489.57 2.82552 1.37198 0
M  V30 15928 H 1488.76 5.02004 0.448139 0
M  V30 15929 H 1488.36 3.68225 -0.654722 0
M  V30 15930 H 1490.65 6.77483 0.0476549 0
M  V30 15931 H 1491.6 6.92696 -1.46894 0
M  V30 15932 H 1492 5.63708 -0.298853 0
M  V30 15933 N 1491.4 0.642663 1.43901 0
M  V30 15934 C 1492.35 -0.0673926 2.32502 0
M  V30 15935 C 1493.34 -0.823981 1.4801 0
M  V30 15936 O 1494.55 -0.735575 1.64284 0
M  V30 15937 H 1490.93 -0.0405715 0.750905 0
M  V30 15938 H 1492.9 0.69777 2.90127 0
M  V30 15939 C 1491.65 -1.02745 3.32173 0
M  V30 15940 H 1490.97 -0.454697 3.97206 0
M  V30 15941 H 1492.41 -1.49355 3.96824 0
M  V30 15942 C 1490.87 -2.11835 2.61969 0
M  V30 15943 O 1491.4 -3.20074 2.42725 0
M  V30 15944 N 1489.6 -1.88092 2.21517 0
M  V30 15945 H 1489.15 -1.00072 2.37368 0
M  V30 15946 H 1489.11 -2.61279 1.74873 0
M  V30 15947 N 1492.88 -1.52852 0.383918 0
M  V30 15948 C 1494.11 -2.05929 -0.200216 0
M  V30 15949 C 1494.52 -1.25606 -1.40956 0
M  V30 15950 O 1493.88 -0.301336 -1.79995 0
M  V30 15951 C 1493.93 -3.56887 -0.575655 0
M  V30 15952 O 1493.65 -4.34168 0.58564 0
M  V30 15953 C 1495.15 -4.2629 -1.21623 0
M  V30 15954 H 1492.37 -0.670261 -0.0314727 0
M  V30 15955 H 1494.92 -1.97032 0.547591 0
M  V30 15956 H 1493.07 -3.65875 -1.27336 0
M  V30 15957 H 1493.49 -5.23761 0.278267 0
M  V30 15958 H 1494.96 -5.33174 -1.42933 0
M  V30 15959 H 1495.44 -3.81163 -2.182 0
M  V30 15960 H 1496.04 -4.21605 -0.559435 0
M  V30 15961 N 1494.36 -0.113586 -1.5719 0
M  V30 15962 C 1495.31 0.855985 -2.16277 0
M  V30 15963 C 1496.3 1.2792 -1.11053 0
M  V30 15964 O 1497.51 1.25158 -1.29366 0
M  V30 15965 H 1493.88 0.294134 -0.692091 0
M  V30 15966 H 1495.85 0.333109 -2.96535 0
M  V30 15967 C 1494.6 2.09832 -2.77247 0
M  V30 15968 H 1493.93 1.78158 -3.5791 0
M  V30 15969 H 1495.37 2.7569 -3.22135 0
M  V30 15970 C 1493.82 2.88453 -1.74059 0
M  V30 15971 O 1494.35 3.83648 -1.19068 0
M  V30 15972 N 1492.56 2.52342 -1.44124 0
M  V30 15973 H 1492.11 1.74998 -1.89033 0
M  V30 15974 H 1492.07 3.05244 -0.753234 0
M  V30 15975 N 1495.84 1.56784 0.160173 0
M  V30 15976 C 1496.77 2.00298 1.20012 0
M  V30 15977 C 1497.75 0.880356 1.45546 0
M  V30 15978 O 1498.93 1.14724 1.56691 0
M  V30 15979 C 1496.06 2.37238 2.53645 0
M  V30 15980 C 1495.02 3.52563 2.42658 0
M  V30 15981 C 1494.34 3.75278 3.80881 0
M  V30 15982 C 1495.64 4.85657 1.92183 0
M  V30 15983 H 1497.34 2.87423 0.838362 0
M  V30 15984 H 1494.88 1.3828 0.401838 0
M  V30 15985 H 1496.84 2.66278 3.2661 0
M  V30 15986 H 1495.56 1.47035 2.9163 0
M  V30 15987 H 1494.22 3.23669 1.72146 0
M  V30 15988 H 1493.87 2.82347 4.1628 0
M  V30 15989 H 1493.57 4.52882 3.74396 0
M  V30 15990 H 1495.09 4.0673 4.55415 0
M  V30 15991 H 1496.51 5.13501 2.54931 0
M  V30 15992 H 1494.9 5.66975 1.96619 0
M  V30 15993 H 1495.97 4.76908 0.876742 0
M  V30 15994 N 1497.32 -0.429099 1.51646 0
M  V30 15995 C 1498.56 -1.17482 1.63954 0
M  V30 15996 C 1498.88 -1.92152 0.36565 0
M  V30 15997 O 1500.08 -2.68991 0.368221 0
M  V30 15998 C 1498.54 -2.13703 2.89585 0
M  V30 15999 C 1498.15 -1.44642 4.24008 0
M  V30 16000 C 1499.89 -2.88657 3.11252 0
M  V30 16001 C 1497.8 -2.39395 5.40781 0
M  V30 16002 H 1496.73 -0.442234 0.610692 0
M  V30 16003 H 1499.38 -0.441088 1.7812 0
M  V30 16004 H 1497.76 -2.90545 2.69071 0
M  V30 16005 H 1498.94 -0.733012 4.54932 0
M  V30 16006 H 1497.25 -0.818084 4.08285 0
M  V30 16007 H 1499.85 -3.59653 3.95669 0
M  V30 16008 H 1500.19 -3.50473 2.24664 0
M  V30 16009 H 1500.72 -2.18919 3.32144 0
M  V30 16010 H 1497.46 -1.82255 6.29653 0
M  V30 16011 H 1496.98 -3.08766 5.14222 0
M  V30 16012 H 1498.66 -3.0035 5.73061 0
M  V30 16013 N 1498.79 -1.41931 -0.685074 0
M  V30 16014 C 1500.04 -1.41852 -1.44514 0
M  V30 16015 C 1500.37 -0.0313137 -1.94475 0
M  V30 16016 O 1499.62 0.958606 -1.70614 0
M  V30 16017 C 1499.92 -2.38099 -2.6654 0
M  V30 16018 C 1499.59 -3.8471 -2.35178 0
M  V30 16019 C 1498.25 -4.24647 -2.26336 0
M  V30 16020 C 1500.6 -4.77232 -2.0952 0
M  V30 16021 C 1497.93 -5.55101 -1.89947 0
M  V30 16022 C 1500.28 -6.08017 -1.74638 0
M  V30 16023 C 1498.95 -6.46964 -1.64299 0
M  V30 16024 H 1498.22 -0.519072 -0.528815 0
M  V30 16025 H 1500.86 -1.74802 -0.782078 0
M  V30 16026 H 1499.17 -1.9844 -3.3783 0
M  V30 16027 H 1500.87 -2.35306 -3.24703 0
M  V30 16028 H 1497.46 -3.53085 -2.42959 0
M  V30 16029 H 1501.64 -4.47173 -2.1529 0
M  V30 16030 H 1496.9 -5.84148 -1.80503 0
M  V30 16031 H 1501.07 -6.79203 -1.53807 0
M  V30 16032 H 1498.7 -7.47959 -1.35871 0
M  V30 16033 N 1500.27 0.920374 -1.27933 0
M  V30 16034 C 1501.52 1.66338 -1.14081 0
M  V30 16035 C 1501.83 1.93107 0.311324 0
M  V30 16036 O 1503.04 2.65431 0.570862 0
M  V30 16037 C 1501.5 2.99624 -1.99383 0
M  V30 16038 C 1501.1 2.80527 -3.49297 0
M  V30 16039 C 1502.85 3.77474 -1.94199 0
M  V30 16040 C 1500.75 4.09413 -4.26773 0
M  V30 16041 H 1499.68 0.623935 -0.423346 0
M  V30 16042 H 1502.34 1.0219 -1.52412 0
M  V30 16043 H 1500.72 3.6487 -1.53902 0
M  V30 16044 H 1501.89 2.24002 -4.02691 0
M  V30 16045 H 1500.21 2.16097 -3.55937 0
M  V30 16046 H 1502.8 4.72997 -2.49356 0
M  V30 16047 H 1503.15 4.06069 -0.917249 0
M  V30 16048 H 1503.68 3.19036 -2.37614 0
M  V30 16049 H 1500.42 3.85994 -5.29801 0
M  V30 16050 H 1499.94 4.65574 -3.78155 0
M  V30 16051 H 1501.62 4.77721 -4.36339 0
M  V30 16052 N 1501.75 1.10074 1.1279 0
M  V30 16053 C 1502.68 0.690084 2.17516 0
M  V30 16054 C 1503.66 -0.306745 1.5968 0
M  V30 16055 O 1504.84 -0.206533 1.87365 0
M  V30 16056 C 1501.97 0.0176562 3.38695 0
M  V30 16057 C 1501.02 0.97736 4.1515 0
M  V30 16058 S 1501.85 2.49282 4.7394 0
M  V30 16059 C 1503.01 1.83299 5.98458 0
M  V30 16060 H 1503.24 1.57723 2.52013 0
M  V30 16061 H 1500.77 0.917373 1.24192 0
M  V30 16062 H 1502.73 -0.363992 4.08883 0
M  V30 16063 H 1501.39 -0.846237 3.02486 0
M  V30 16064 H 1500.58 0.454057 5.01951 0
M  V30 16065 H 1500.19 1.30073 3.50652 0
M  V30 16066 H 1502.48 1.16098 6.67478 0
M  V30 16067 H 1503.42 2.68041 6.55408 0
M  V30 16068 H 1503.83 1.29909 5.49349 0
M  V30 16069 N 1503.23 -1.30138 0.888926 0
M  V30 16070 C 1504.47 -1.96279 0.51012 0
M  V30 16071 C 1504.81 -1.69984 -0.939096 0
M  V30 16072 O 1504.08 -1.00677 -1.66416 0
M  V30 16073 C 1504.36 -3.51321 0.790305 0
M  V30 16074 C 1504.22 -3.87116 2.29044 0
M  V30 16075 C 1505.54 -4.39274 0.269477 0
M  V30 16076 H 1502.66 -0.712931 0.18681 0
M  V30 16077 H 1505.3 -1.53942 1.11364 0
M  V30 16078 H 1503.45 -3.87514 0.276647 0
M  V30 16079 H 1505.12 -3.60926 2.87281 0
M  V30 16080 H 1503.36 -3.35044 2.7555 0
M  V30 16081 H 1504.03 -4.95288 2.43708 0
M  V30 16082 H 1506.51 -4.10012 0.709173 0
M  V30 16083 H 1505.39 -5.46665 0.494815 0
M  V30 16084 H 1505.65 -4.3425 -0.829434 0
M  V30 16085 N 1504.71 -0.650285 -1.43559 0
M  V30 16086 C 1505.62 0.0438076 -2.34559 0
M  V30 16087 C 1506.63 0.815316 -1.53716 0
M  V30 16088 O 1507.81 0.76323 -1.86378 0
M  V30 16089 C 1504.87 1.00028 -3.31957 0
M  V30 16090 C 1503.93 0.226027 -4.28705 0
M  V30 16091 C 1503.17 1.13694 -5.21449 0
M  V30 16092 O 1503.39 2.37614 -5.18551 0
M  V30 16093 O 1502.32 0.610924 -5.98792 0
M  V30 16094 H 1506.15 -0.705152 -2.954 0
M  V30 16095 H 1503.73 -0.410471 -1.43651 0
M  V30 16096 H 1505.62 1.55004 -3.91857 0
M  V30 16097 H 1504.29 1.72952 -2.73623 0
M  V30 16098 H 1503.2 -0.367244 -3.72293 0
M  V30 16099 H 1504.53 -0.463582 -4.90012 0
M  V30 16100 N 1506.18 1.52647 -0.392018 0
M  V30 16101 C 1507.41 2.06511 0.191815 0
M  V30 16102 C 1507.83 1.26162 1.39516 0
M  V30 16103 O 1507.19 0.287373 1.79008 0
M  V30 16104 C 1507.24 3.56571 0.537512 0
M  V30 16105 O 1506.34 3.78774 1.63106 0
M  V30 16106 H 1505.68 0.663647 0.0216546 0
M  V30 16107 H 1508.21 1.96779 -0.560274 0
M  V30 16108 H 1508.22 4.00059 0.801044 0
M  V30 16109 H 1506.9 4.14489 -0.342239 0
M  V30 16110 H 1505.48 3.47175 1.36103 0
M  V30 16111 N 1507.66 0.121921 1.57128 0
M  V30 16112 C 1508.61 -0.827205 2.15467 0
M  V30 16113 C 1509.58 -1.26155 1.08047 0
M  V30 16114 O 1510.76 -1.33855 1.35969 0
M  V30 16115 C 1507.9 -2.07077 2.76067 0
M  V30 16116 C 1507.02 -1.68452 3.97804 0
M  V30 16117 C 1506.15 -2.87797 4.46482 0
M  V30 16118 C 1505.19 -2.45426 5.60743 0
M  V30 16119 N 1504.33 -3.57695 6.04151 0
M  V30 16120 H 1509.17 -0.322879 2.96246 0
M  V30 16121 H 1506.71 -0.147677 1.46357 0
M  V30 16122 H 1508.66 -2.79943 3.09335 0
M  V30 16123 H 1507.29 -2.54963 1.97974 0
M  V30 16124 H 1506.35 -0.854487 3.70679 0
M  V30 16125 H 1507.66 -1.33316 4.80654 0
M  V30 16126 H 1506.81 -3.68885 4.81673 0
M  V30 16127 H 1505.55 -3.26162 3.62587 0
M  V30 16128 H 1504.56 -1.62772 5.25153 0
M  V30 16129 H 1505.78 -2.08175 6.46405 0
M  V30 16130 H 1503.73 -3.95728 5.23197 0
M  V30 16131 H 1503.64 -3.26491 6.81865 0
M  V30 16132 H 1504.91 -4.39213 6.43981 0
M  V30 16133 N 1509.14 -1.56867 -0.151857 0
M  V30 16134 C 1510.39 -1.82721 -0.863575 0
M  V30 16135 C 1510.71 -0.702042 -1.81924 0
M  V30 16136 O 1509.98 0.27668 -1.93936 0
M  V30 16137 H 1508.56 -0.674088 -0.321893 0
M  V30 16138 H 1511.22 -1.94345 -0.14702 0
M  V30 16139 H 1510.32 -2.77476 -1.42876 0
M  V30 16140 N 1510.62 0.421051 -1.51871 0
M  V30 16141 C 1511.85 1.1911 -1.69175 0
M  V30 16142 C 1512.26 1.84599 -0.39606 0
M  V30 16143 O 1511.62 1.71395 0.626907 0
M  V30 16144 C 1511.67 2.26309 -2.81898 0
M  V30 16145 O 1511.39 1.63496 -4.06449 0
M  V30 16146 C 1512.89 3.16285 -3.10611 0
M  V30 16147 H 1510.11 0.358385 -0.567275 0
M  V30 16148 H 1512.66 0.496919 -1.98371 0
M  V30 16149 H 1510.81 2.91416 -2.55255 0
M  V30 16150 H 1511.22 2.3447 -4.69174 0
M  V30 16151 H 1512.7 3.87601 -3.93026 0
M  V30 16152 H 1513.18 3.77976 -2.23676 0
M  V30 16153 H 1513.78 2.5686 -3.38973 0
M  V30 16154 N 1512.1 1.42293 0.677538 0
M  V30 16155 C 1513.34 1.44099 1.44965 0
M  V30 16156 C 1513.7 0.0545275 1.91923 0
M  V30 16157 O 1514.9 -0.0526718 2.68748 0
M  V30 16158 C 1513.17 2.43462 2.61651 0
M  V30 16159 S 1514.73 2.63947 3.50538 0
M  V30 16160 H 1511.55 0.51024 0.495153 0
M  V30 16161 H 1514.15 1.78874 0.788939 0
M  V30 16162 H 1512.86 3.42971 2.25387 0
M  V30 16163 H 1512.39 2.10102 3.32597 0
M  V30 16164 H 1514.4 1.92042 4.57531 0
M  V30 16165 N 1513.57 -0.913576 1.28419 0
M  V30 16166 C 1514.99 -1.47782 1.14094 0
M  V30 16167 C 1515.34 -1.94347 -0.269004 0
M  V30 16168 O 1514.46 -1.82474 -1.16328 0
M  V30 16169 C 1515.06 -2.6859 2.06507 0
M  V30 16170 C 1513.62 -3.21193 1.96245 0
M  V30 16171 C 1512.76 -1.939 1.98238 0
M  V30 16172 H 1515.71 -0.726271 1.41106 0
M  V30 16173 H 1515.73 -3.43858 1.62916 0
M  V30 16174 H 1515.25 -2.34668 3.09116 0
M  V30 16175 H 1513.35 -3.5984 0.966737 0
M  V30 16176 H 1513.46 -3.8643 2.83211 0
M  V30 16177 H 1511.82 -2.11006 1.42648 0
M  V30 16178 H 1512.61 -1.62273 3.02527 0
M  V30 16179 N 1515.05 -1.1067 -1.12204 0
M  V30 16180 C 1516.29 -0.860466 -1.85406 0
M  V30 16181 C 1516.66 0.603027 -1.82284 0
M  V30 16182 O 1517.86 0.965713 -2.50853 0
M  V30 16183 C 1516.13 -1.39677 -3.28976 0
M  V30 16184 S 1517.69 -1.28633 -4.19522 0
M  V30 16185 H 1514.51 -0.31087 -0.639438 0
M  V30 16186 H 1517.11 -1.41263 -1.35148 0
M  V30 16187 H 1515.81 -2.45588 -3.28808 0
M  V30 16188 H 1515.34 -0.841293 -3.84299 0
M  V30 16189 H 1517.36 -0.245599 -4.95592 0
M  V30 16190 N 1516.53 1.29665 -0.895815 0
M  V30 16191 C 1517.81 1.90601 -0.439394 0
M  V30 16192 C 1518.19 1.81341 1.08068 0
M  V30 16193 O 1517.54 1.23761 1.92082 0
M  V30 16194 C 1517.75 3.35832 -0.949622 0
M  V30 16195 C 1519.09 4.12873 -0.991015 0
M  V30 16196 O 1520.12 3.4472 -0.897025 0
M  V30 16197 O 1518.98 5.34656 -1.1316 0
M  V30 16198 H 1516.07 0.81569 -0.136304 0
M  V30 16199 H 1518.62 1.38157 -0.985426 0
M  V30 16200 H 1517.39 3.36708 -1.99357 0
M  V30 16201 H 1517.01 3.95747 -0.383376 0
M  V30 16202 N 1518.01 0.657889 1.43212 0
M  V30 16203 C 1519.24 0.181072 2.06106 0
M  V30 16204 C 1519.65 -1.15513 1.49339 0
M  V30 16205 O 1519.01 -1.71409 0.626517 0
M  V30 16206 C 1519.06 0.0890244 3.6139 0
M  V30 16207 O 1518.78 1.37241 4.16049 0
M  V30 16208 C 1520.28 -0.413313 4.41369 0
M  V30 16209 H 1517.5 0.0920577 0.664655 0
M  V30 16210 H 1520.05 0.899855 1.83638 0
M  V30 16211 H 1518.2 -0.580345 3.83028 0
M  V30 16212 H 1518.61 1.23467 5.09761 0
M  V30 16213 H 1520.09 -0.426663 5.50349 0
M  V30 16214 H 1520.57 -1.44549 4.14731 0
M  V30 16215 H 1521.17 0.223727 4.24711 0
M  V30 16216 N 1519.49 -1.52437 0.400108 0
M  V30 16217 C 1520.9 -1.5952 0.0505611 0
M  V30 16218 C 1521.1 -1.4135 -1.43606 0
M  V30 16219 O 1520.16 -1.23591 -2.20185 0
M  V30 16220 C 1521.47 -2.95859 0.537411 0
M  V30 16221 C 1523.02 -3.09067 0.494603 0
M  V30 16222 C 1523.49 -4.47873 0.957815 0
M  V30 16223 N 1524.99 -4.54087 0.914267 0
M  V30 16224 C 1525.72 -5.59744 1.24397 0
M  V30 16225 N 1525.22 -6.72995 1.64469 0
M  V30 16226 N 1527.01 -5.49905 1.16452 0
M  V30 16227 H 1519.16 -1.62496 1.36781 0
M  V30 16228 H 1521.42 -0.763947 0.561328 0
M  V30 16229 H 1521.13 -3.14407 1.57611 0
M  V30 16230 H 1521 -3.77156 -0.0577652 0
M  V30 16231 H 1523.39 -2.90209 -0.535035 0
M  V30 16232 H 1523.47 -2.29698 1.12572 0
M  V30 16233 H 1523.12 -4.67473 1.98574 0
M  V30 16234 H 1523.05 -5.25724 0.303602 0
M  V30 16235 H 1525.54 -3.72787 0.619536 0
M  V30 16236 H 1525.85 -7.49594 1.87961 0
M  V30 16237 H 1524.19 -6.74298 1.68364 0
M  V30 16238 H 1527.39 -4.60311 0.850401 0
M  V30 16239 H 1527.56 -6.32142 1.42478 0
M  V30 16240 N 1520.96 -0.130252 -1.57061 0
M  V30 16241 C 1521.89 0.812189 -2.18919 0
M  V30 16242 C 1522.88 1.2692 -1.13249 0
M  V30 16243 O 1524.06 1.32978 -1.41529 0
M  V30 16244 C 1521.19 2.05803 -2.79754 0
M  V30 16245 C 1520.14 1.73841 -3.91105 0
M  V30 16246 C 1519.47 3.05549 -4.38799 0
M  V30 16247 C 1520.77 0.997991 -5.12677 0
M  V30 16248 H 1522.46 0.296692 -2.97926 0
M  V30 16249 H 1520.01 0.141265 -1.43305 0
M  V30 16250 H 1521.96 2.72201 -3.21691 0
M  V30 16251 H 1520.69 2.59697 -1.98053 0
M  V30 16252 H 1519.35 1.09828 -3.49762 0
M  V30 16253 H 1518.99 3.57399 -3.53942 0
M  V30 16254 H 1518.69 2.84932 -5.13894 0
M  V30 16255 H 1520.22 3.73045 -4.83394 0
M  V30 16256 H 1521.63 1.56372 -5.51562 0
M  V30 16257 H 1520.03 0.892378 -5.93428 0
M  V30 16258 H 1521.1 -0.0132936 -4.84898 0
M  V30 16259 N 1522.44 1.56945 0.143535 0
M  V30 16260 C 1523.37 2.0156 1.17881 0
M  V30 16261 C 1524.35 0.895744 1.44604 0
M  V30 16262 O 1525.54 1.16379 1.55466 0
M  V30 16263 C 1522.67 2.39915 2.51114 0
M  V30 16264 C 1521.62 3.55117 2.38905 0
M  V30 16265 C 1520.95 3.79296 3.7688 0
M  V30 16266 C 1522.25 4.87668 1.87021 0
M  V30 16267 H 1523.94 2.88296 0.80783 0
M  V30 16268 H 1521.49 1.38698 0.387149 0
M  V30 16269 H 1523.44 2.69727 3.23767 0
M  V30 16270 H 1522.17 1.5012 2.90055 0
M  V30 16271 H 1520.83 3.25476 1.68703 0
M  V30 16272 H 1520.47 2.86747 4.13262 0
M  V30 16273 H 1520.17 4.56827 3.69571 0
M  V30 16274 H 1521.7 4.11537 4.51076 0
M  V30 16275 H 1523.11 5.16176 2.4947 0
M  V30 16276 H 1521.51 5.69029 1.90594 0
M  V30 16277 H 1522.58 4.77811 0.82611 0
M  V30 16278 N 1523.92 -0.412991 1.52093 0
M  V30 16279 C 1525.17 -1.15737 1.65191 0
M  V30 16280 C 1525.48 -1.91753 0.38601 0
M  V30 16281 O 1526.69 -2.68586 0.396731 0
M  V30 16282 C 1525.15 -2.10619 2.91835 0
M  V30 16283 C 1524.75 -1.40137 4.25518 0
M  V30 16284 C 1526.5 -2.85339 3.14296 0
M  V30 16285 C 1524.4 -2.33645 5.4329 0
M  V30 16286 H 1523.33 -0.435732 0.615348 0
M  V30 16287 H 1525.99 -0.422172 1.78578 0
M  V30 16288 H 1524.37 -2.87675 2.72138 0
M  V30 16289 H 1525.54 -0.684719 4.55684 0
M  V30 16290 H 1523.86 -0.774734 4.09129 0
M  V30 16291 H 1526.45 -3.55437 3.99461 0
M  V30 16292 H 1526.8 -3.48071 2.28369 0
M  V30 16293 H 1527.33 -2.15384 3.34447 0
M  V30 16294 H 1524.07 -1.75566 6.31551 0
M  V30 16295 H 1523.59 -3.03294 5.17467 0
M  V30 16296 H 1525.27 -2.94255 5.76215 0
M  V30 16297 N 1525.4 -1.4265 -0.669982 0
M  V30 16298 C 1526.33 -1.42457 -1.79551 0
M  V30 16299 C 1527.34 -0.322966 -1.59564 0
M  V30 16300 O 1528.53 -0.586359 -1.68594 0
M  V30 16301 C 1525.63 -1.20561 -3.16731 0
M  V30 16302 C 1524.81 -2.43246 -3.63525 0
M  V30 16303 C 1523.87 -2.16823 -4.79452 0
M  V30 16304 O 1522.89 -2.90058 -4.8975 0
M  V30 16305 N 1524.09 -1.17436 -5.68497 0
M  V30 16306 H 1526.86 -2.39474 -1.80201 0
M  V30 16307 H 1524.42 -1.37591 -0.853244 0
M  V30 16308 H 1526.41 -1.00794 -3.91947 0
M  V30 16309 H 1524.98 -0.320497 -3.10953 0
M  V30 16310 H 1524.2 -2.78549 -2.78934 0
M  V30 16311 H 1525.49 -3.24931 -3.91532 0
M  V30 16312 H 1524.89 -0.568736 -5.62834 0
M  V30 16313 H 1523.44 -1.03655 -6.43505 0
M  V30 16314 N 1526.88 0.906753 -1.28902 0
M  V30 16315 C 1527.84 1.99158 -1.1344 0
M  V30 16316 C 1528.84 1.60639 -0.0719551 0
M  V30 16317 O 1530.03 1.71267 -0.318317 0
M  V30 16318 C 1527.16 3.32923 -0.733172 0
M  V30 16319 H 1528.36 2.14305 -2.09794 0
M  V30 16320 H 1525.91 1.09034 -1.11988 0
M  V30 16321 H 1526.64 3.23477 0.230826 0
M  V30 16322 H 1526.43 3.62244 -1.50073 0
M  V30 16323 H 1527.92 4.12544 -0.64784 0
M  V30 16324 N 1528.36 1.11264 1.11616 0
M  V30 16325 C 1529.27 0.781961 2.21184 0
M  V30 16326 C 1530.28 -0.224149 1.7255 0
M  V30 16327 O 1531.46 -0.0607743 2.01308 0
M  V30 16328 C 1528.52 0.228031 3.45949 0
M  V30 16329 C 1527.58 1.29251 4.09381 0
M  V30 16330 C 1526.82 0.764921 5.2819 0
M  V30 16331 O 1527.04 -0.405671 5.68956 0
M  V30 16332 O 1525.97 1.52886 5.82159 0
M  V30 16333 H 1529.8 1.69678 2.51879 0
M  V30 16334 H 1527.38 0.888394 1.20116 0
M  V30 16335 H 1529.27 -0.0766085 4.2133 0
M  V30 16336 H 1527.94 -0.659519 3.1691 0
M  V30 16337 H 1526.85 1.65014 3.3574 0
M  V30 16338 H 1528.18 2.15339 4.42595 0
M  V30 16339 N 1529.83 -1.29188 0.902679 0
M  V30 16340 C 1530.77 -2.26665 0.339964 0
M  V30 16341 C 1531.78 -1.54426 -0.515396 0
M  V30 16342 O 1532.97 -1.75384 -0.332071 0
M  V30 16343 C 1530.07 -3.34672 -0.533653 0
M  V30 16344 C 1529.24 -4.36393 0.296661 0
M  V30 16345 C 1528.3 -5.2372 -0.510264 0
M  V30 16346 O 1527.33 -5.69153 0.0732871 0
M  V30 16347 N 1528.53 -5.51373 -1.81572 0
M  V30 16348 H 1531.29 -2.75588 1.17778 0
M  V30 16349 H 1528.85 -1.42553 0.767474 0
M  V30 16350 H 1530.85 -3.90025 -1.07995 0
M  V30 16351 H 1529.42 -2.85543 -1.27216 0
M  V30 16352 H 1528.64 -3.80658 1.02436 0
M  V30 16353 H 1529.92 -5.0139 0.865191 0
M  V30 16354 H 1529.32 -5.16275 -2.31251 0
M  V30 16355 H 1527.88 -6.09528 -2.30908 0
M  V30 16356 N 1531.31 -0.665475 -1.42861 0
M  V30 16357 C 1532.54 -0.192 -2.06007 0
M  V30 16358 C 1532.95 1.1472 -1.49949 0
M  V30 16359 O 1532.31 1.71074 -0.635599 0
M  V30 16360 C 1532.36 -0.108189 -3.61338 0
M  V30 16361 O 1532.08 -1.39446 -4.15315 0
M  V30 16362 C 1533.58 0.3899 -4.41582 0
M  V30 16363 H 1530.8 -0.0955812 -0.664158 0
M  V30 16364 H 1533.35 -0.909582 -1.83158 0
M  V30 16365 H 1531.5 0.560024 -3.83331 0
M  V30 16366 H 1531.92 -1.26168 -5.09099 0
M  V30 16367 H 1533.39 0.39747 -5.50567 0
M  V30 16368 H 1533.87 1.42348 -4.15492 0
M  V30 16369 H 1534.47 -0.246248 -4.24587 0
M  V30 16370 N 1532.79 1.52222 -0.408187 0
M  V30 16371 C 1534.01 2.06703 0.169901 0
M  V30 16372 C 1534.44 1.27635 1.3817 0
M  V30 16373 O 1533.8 0.306343 1.78693 0
M  V30 16374 C 1533.85 3.57121 0.499663 0
M  V30 16375 O 1532.95 3.80483 1.5908 0
M  V30 16376 H 1532.29 0.663839 0.0146145 0
M  V30 16377 H 1534.82 1.96174 -0.581113 0
M  V30 16378 H 1534.83 4.00886 0.758567 0
M  V30 16379 H 1533.51 4.14103 -0.386182 0
M  V30 16380 H 1532.08 3.48599 1.32413 0
M  V30 16381 N 1534.27 0.138579 1.5699 0
M  V30 16382 C 1535.54 -0.559239 1.87435 0
M  V30 16383 C 1535.92 -1.83527 1.04312 0
M  V30 16384 O 1535.27 -2.28144 0.127531 0
M  V30 16385 C 1535.48 -0.83282 3.38918 0
M  V30 16386 C 1536.83 -1.1773 4.07952 0
M  V30 16387 O 1537.85 -0.92245 3.44048 0
M  V30 16388 O 1536.71 -1.6565 5.2079 0
M  V30 16389 H 1533.81 -0.284318 0.77659 0
M  V30 16390 H 1536.35 0.174558 1.688 0
M  V30 16391 H 1535.13 0.0706054 3.91236 0
M  V30 16392 H 1534.75 -1.62109 3.63051 0
M  V30 16393 N 1535.75 -1.57019 -0.13521 0
M  V30 16394 C 1536.99 -1.83626 -0.844147 0
M  V30 16395 C 1537.31 -0.721298 -1.81169 0
M  V30 16396 O 1536.58 0.256095 -1.94219 0
M  V30 16397 H 1535.16 -0.677464 -0.314725 0
M  V30 16398 H 1537.83 -1.9449 -0.126399 0
M  V30 16399 H 1536.92 -2.78976 -1.39925 0
M  V30 16400 N 1537.22 0.404919 -1.52309 0
M  V30 16401 C 1538.64 0.983553 -1.58692 0
M  V30 16402 C 1538.99 1.9143 -0.429993 0
M  V30 16403 O 1538.11 2.11689 0.449088 0
M  V30 16404 C 1538.71 1.79059 -2.87617 0
M  V30 16405 C 1537.27 2.31918 -2.96464 0
M  V30 16406 C 1536.41 1.12018 -2.53667 0
M  V30 16407 H 1539.36 0.185007 -1.57618 0
M  V30 16408 H 1539.38 2.64836 -2.73207 0
M  V30 16409 H 1538.9 1.11291 -3.71801 0
M  V30 16410 H 1537 3.03044 -2.16783 0
M  V30 16411 H 1537.11 2.62495 -4.00791 0
M  V30 16412 H 1535.47 1.47542 -2.07614 0
M  V30 16413 H 1536.26 0.458111 -3.4023 0
M  V30 16414 N 1538.7 1.43003 0.662408 0
M  V30 16415 C 1539.65 1.47701 1.79686 0
M  V30 16416 C 1540.64 0.351491 1.65713 0
M  V30 16417 O 1541.85 0.525071 1.72171 0
M  V30 16418 H 1538.23 0.46285 0.592684 0
M  V30 16419 H 1540.2 2.43245 1.72843 0
M  V30 16420 C 1538.95 1.40828 3.17904 0
M  V30 16421 H 1538.27 2.26736 3.29288 0
M  V30 16422 H 1539.71 1.48177 3.97265 0
M  V30 16423 C 1538.17 0.124659 3.36669 0
M  V30 16424 O 1538.7 -0.81769 3.9329 0
M  V30 16425 N 1536.9 0.0378063 2.90575 0
M  V30 16426 H 1536.45 0.805456 2.44684 0
M  V30 16427 H 1536.41 -0.820377 3.03508 0
M  V30 16428 N 1540.18 -0.899904 1.29381 0
M  V30 16429 C 1541.59 -1.46563 1.15655 0
M  V30 16430 C 1541.94 -1.94622 -0.248375 0
M  V30 16431 O 1541.07 -1.83698 -1.14386 0
M  V30 16432 C 1541.66 -2.66384 2.09344 0
M  V30 16433 C 1540.22 -3.19093 1.99641 0
M  V30 16434 C 1539.37 -1.91786 2.00283 0
M  V30 16435 H 1542.32 -0.711264 1.41869 0
M  V30 16436 H 1542.34 -3.42111 1.66554 0
M  V30 16437 H 1541.85 -2.31376 3.11587 0
M  V30 16438 H 1539.95 -3.58795 1.00485 0
M  V30 16439 H 1540.07 -3.83405 2.87293 0
M  V30 16440 H 1538.43 -2.09482 1.44878 0
M  V30 16441 H 1539.21 -1.59055 3.04231 0
M  V30 16442 N 1541.66 -1.11854 -1.11024 0
M  V30 16443 C 1542.9 -0.880082 -1.84483 0
M  V30 16444 C 1543.26 0.583659 -1.82914 0
M  V30 16445 O 1544.46 0.939053 -2.51864 0
M  V30 16446 C 1542.73 -1.43158 -3.27476 0
M  V30 16447 S 1544.29 -1.33075 -4.18135 0
M  V30 16448 H 1541.11 -0.317635 -0.636105 0
M  V30 16449 H 1543.71 -1.42688 -1.33642 0
M  V30 16450 H 1542.42 -2.49061 -3.26185 0
M  V30 16451 H 1541.95 -0.882005 -3.83385 0
M  V30 16452 H 1543.96 -0.298149 -4.95303 0
M  V30 16453 N 1543.14 1.28707 -0.909517 0
M  V30 16454 C 1544.41 1.90124 -0.459585 0
M  V30 16455 C 1544.79 1.82477 1.06139 0
M  V30 16456 O 1544.14 1.25792 1.90758 0
M  V30 16457 C 1544.35 3.34806 -0.985188 0
M  V30 16458 C 1545.7 4.11799 -1.03475 0
M  V30 16459 O 1546.72 3.43749 -0.933536 0
M  V30 16460 O 1545.58 5.33426 -1.18825 0
M  V30 16461 H 1542.68 0.814199 -0.144948 0
M  V30 16462 H 1545.22 1.37104 -1.00002 0
M  V30 16463 H 1543.99 3.34575 -2.02917 0
M  V30 16464 H 1543.62 3.95318 -0.425329 0
M  V30 16465 N 1544.61 0.673042 1.42506 0
M  V30 16466 C 1545.55 -0.056507 2.2813 0
M  V30 16467 C 1546.53 -0.810416 1.40965 0
M  V30 16468 O 1547.71 -0.805904 1.70404 0
M  V30 16469 C 1544.84 -1.08716 3.20778 0
M  V30 16470 C 1543.88 -0.429034 4.24337 0
M  V30 16471 S 1544.72 0.812075 5.29307 0
M  V30 16472 C 1545.87 -0.217548 6.25522 0
M  V30 16473 H 1546.1 0.669772 2.89657 0
M  V30 16474 H 1543.64 0.462526 1.47309 0
M  V30 16475 H 1545.6 -1.67672 3.74695 0
M  V30 16476 H 1544.26 -1.78587 2.5839 0
M  V30 16477 H 1543.45 -1.20666 4.89342 0
M  V30 16478 H 1543.05 0.0868926 3.73899 0
M  V30 16479 H 1545.34 -1.07781 6.68872 0
M  V30 16480 H 1546.29 0.397993 7.06981 0
M  V30 16481 H 1546.69 -0.562237 5.61693 0
M  V30 16482 N 1546.09 -1.52004 0.416254 0
M  V30 16483 C 1547.34 -2.02188 -0.157434 0
M  V30 16484 C 1547.67 -1.30097 -1.44182 0
M  V30 16485 O 1546.95 -0.409426 -1.90142 0
M  V30 16486 C 1547.23 -3.57896 -0.397847 0
M  V30 16487 C 1547.08 -4.40628 0.903715 0
M  V30 16488 C 1548.4 -4.24072 -1.17689 0
M  V30 16489 H 1545.52 -0.734889 -0.0557437 0
M  V30 16490 H 1548.16 -1.81831 0.551118 0
M  V30 16491 H 1546.31 -3.75372 -1.00142 0
M  V30 16492 H 1547.98 -4.34848 1.53964 0
M  V30 16493 H 1546.23 -4.06556 1.5131 0
M  V30 16494 H 1546.9 -5.47673 0.689802 0
M  V30 16495 H 1549.37 -4.10738 -0.665832 0
M  V30 16496 H 1548.25 -5.32944 -1.31386 0
M  V30 16497 H 1548.51 -3.83507 -2.19942 0
M  V30 16498 N 1547.57 -0.146903 -1.56914 0
M  V30 16499 C 1548.52 0.792821 -2.16756 0
M  V30 16500 C 1549.49 1.2442 -1.1004 0
M  V30 16501 O 1550.67 1.31674 -1.38081 0
M  V30 16502 C 1547.81 2.02659 -2.79327 0
M  V30 16503 C 1546.93 1.62102 -4.00433 0
M  V30 16504 C 1546.06 2.80658 -4.51004 0
M  V30 16505 C 1545.1 2.36474 -5.64576 0
M  V30 16506 N 1544.24 3.48038 -6.09766 0
M  V30 16507 H 1549.08 0.275708 -2.96722 0
M  V30 16508 H 1546.61 0.124374 -1.46573 0
M  V30 16509 H 1548.57 2.74986 -3.13749 0
M  V30 16510 H 1547.2 2.51781 -2.02005 0
M  V30 16511 H 1546.25 0.795407 -3.71991 0
M  V30 16512 H 1547.57 1.25652 -4.82714 0
M  V30 16513 H 1546.72 3.61175 -4.87481 0
M  V30 16514 H 1545.46 3.20353 -3.6773 0
M  V30 16515 H 1544.46 1.54397 -5.27676 0
M  V30 16516 H 1545.69 1.97865 -6.49635 0
M  V30 16517 H 1543.63 3.87354 -5.29427 0
M  V30 16518 H 1543.55 3.15602 -6.86972 0
M  V30 16519 H 1544.82 4.28912 -6.50887 0
M  V30 16520 N 1549.05 1.57088 0.126881 0
M  V30 16521 C 1549.98 1.96399 1.18153 0
M  V30 16522 C 1550.99 0.862288 1.38089 0
M  V30 16523 O 1552.18 1.14062 1.37303 0
M  V30 16524 C 1549.28 2.24026 2.54295 0
M  V30 16525 C 1548.46 3.5533 2.55068 0
M  V30 16526 C 1547.51 3.71261 3.72896 0
M  V30 16527 O 1546.54 4.43454 3.56844 0
M  V30 16528 N 1547.74 3.09435 4.91152 0
M  V30 16529 H 1550.51 2.87476 0.847217 0
M  V30 16530 H 1548.07 1.58781 0.316242 0
M  V30 16531 H 1550.06 2.31906 3.31665 0
M  V30 16532 H 1548.63 1.39114 2.79939 0
M  V30 16533 H 1547.85 3.58708 1.63468 0
M  V30 16534 H 1549.14 4.41649 2.52634 0
M  V30 16535 H 1548.54 2.50736 5.07097 0
M  V30 16536 H 1547.09 3.22848 5.66226 0
M  V30 16537 N 1550.53 -0.396836 1.52522 0
M  V30 16538 C 1551.94 -0.975124 1.59211 0
M  V30 16539 C 1552.29 -1.91199 0.440138 0
M  V30 16540 O 1551.41 -2.11924 -0.437856 0
M  V30 16541 C 1552.01 -1.77531 2.88562 0
M  V30 16542 C 1550.57 -2.30343 2.9769 0
M  V30 16543 C 1549.71 -1.10671 2.54258 0
M  V30 16544 H 1552.67 -0.176646 1.57714 0
M  V30 16545 H 1552.69 -2.63384 2.74607 0
M  V30 16546 H 1552.2 -1.09318 3.72386 0
M  V30 16547 H 1550.3 -3.01891 2.18387 0
M  V30 16548 H 1550.41 -2.60366 4.02177 0
M  V30 16549 H 1548.78 -1.46439 2.08393 0
M  V30 16550 H 1549.56 -0.440061 3.40468 0
M  V30 16551 N 1552.01 -1.43353 -0.654814 0
M  V30 16552 C 1553.42 -1.26718 -0.970297 0
M  V30 16553 C 1553.62 -0.185747 -2.00642 0
M  V30 16554 O 1552.68 0.436357 -2.48701 0
M  V30 16555 C 1553.99 -2.63095 -1.45608 0
M  V30 16556 C 1555.54 -2.70613 -1.57281 0
M  V30 16557 C 1556.01 -4.07404 -2.0925 0
M  V30 16558 N 1557.5 -4.09461 -2.16555 0
M  V30 16559 C 1558.24 -5.12135 -2.57885 0
M  V30 16560 N 1557.74 -6.25185 -2.98523 0
M  V30 16561 N 1559.53 -4.9949 -2.57811 0
M  V30 16562 H 1551.68 -2.12378 0.0308331 0
M  V30 16563 H 1553.94 -0.946744 -0.0487843 0
M  V30 16564 H 1553.65 -3.43186 -0.769171 0
M  V30 16565 H 1553.52 -2.88381 -2.43138 0
M  V30 16566 H 1555.91 -1.90855 -2.25074 0
M  V30 16567 H 1555.99 -2.49094 -0.581879 0
M  V30 16568 H 1555.63 -4.87628 -1.4206 0
M  V30 16569 H 1555.56 -4.26287 -3.09172 0
M  V30 16570 H 1558.06 -3.27858 -1.87929 0
M  V30 16571 H 1558.37 -6.99362 -3.28804 0
M  V30 16572 H 1556.71 -6.28659 -2.96332 0
M  V30 16573 H 1559.9 -4.10238 -2.25438 0
M  V30 16574 H 1560.08 -5.79637 -2.89699 0
M  V30 16575 N 1553.48 0.89303 -1.29857 0
M  V30 16576 C 1554.71 1.675 -1.20943 0
M  V30 16577 C 1555.12 1.87779 0.231435 0
M  V30 16578 O 1554.46 1.41955 1.16596 0
M  V30 16579 C 1554.53 3.07722 -1.8587 0
M  V30 16580 C 1554.19 3.10647 -3.35182 0
M  V30 16581 C 1555.19 2.903 -4.31303 0
M  V30 16582 C 1552.87 3.32501 -3.76495 0
M  V30 16583 C 1554.87 2.91749 -5.66711 0
M  V30 16584 C 1552.55 3.33581 -5.12022 0
M  V30 16585 C 1553.55 3.13228 -6.06941 0
M  V30 16586 O 1553.24 3.14109 -7.39994 0
M  V30 16587 H 1552.97 0.529708 -0.419982 0
M  V30 16588 H 1555.53 1.12466 -1.71874 0
M  V30 16589 H 1553.76 3.64386 -1.29459 0
M  V30 16590 H 1555.44 3.68035 -1.71187 0
M  V30 16591 H 1556.21 2.73221 -4.00718 0
M  V30 16592 H 1552.09 3.47381 -3.03064 0
M  V30 16593 H 1555.63 2.75782 -6.40773 0
M  V30 16594 H 1551.53 3.50193 -5.4225 0
M  V30 16595 H 1552.3 3.3033 -7.48882 0
M  V30 16596 N 1554.96 1.12442 1.10429 0
M  V30 16597 C 1556.38 0.860481 1.34417 0
M  V30 16598 C 1556.58 -0.509394 1.94955 0
M  V30 16599 O 1555.63 -1.25807 2.18927 0
M  V30 16600 C 1556.95 1.97694 2.26578 0
M  V30 16601 C 1558.49 2.00783 2.40115 0
M  V30 16602 C 1558.97 3.11663 3.35604 0
M  V30 16603 N 1560.46 3.11106 3.43173 0
M  V30 16604 C 1561.2 3.9354 4.1703 0
M  V30 16605 N 1560.69 4.85963 4.93773 0
M  V30 16606 N 1562.48 3.81677 4.12649 0
M  V30 16607 H 1554.64 2.00706 0.695036 0
M  V30 16608 H 1556.9 0.873398 0.368619 0
M  V30 16609 H 1556.6 2.96405 1.89306 0
M  V30 16610 H 1556.48 1.88217 3.26886 0
M  V30 16611 H 1558.87 1.02692 2.76656 0
M  V30 16612 H 1558.95 2.14335 1.39621 0
M  V30 16613 H 1558.59 4.09987 2.99789 0
M  V30 16614 H 1558.52 2.9535 4.35977 0
M  V30 16615 H 1561.01 2.4415 2.88442 0
M  V30 16616 H 1561.32 5.45373 5.47529 0
M  V30 16617 H 1559.67 4.89976 4.92898 0
M  V30 16618 H 1562.86 3.08808 3.51789 0
M  V30 16619 H 1563.03 4.46151 4.6995 0
M  V30 16620 N 1556.44 -1.28223 0.91633 0
M  V30 16621 C 1557.39 -2.27215 0.40521 0
M  V30 16622 C 1558.36 -1.57693 -0.521734 0
M  V30 16623 O 1559.54 -1.85577 -0.443369 0
M  V30 16624 C 1556.68 -3.43358 -0.346303 0
M  V30 16625 C 1555.79 -4.27622 0.613443 0
M  V30 16626 C 1554.93 -5.30969 -0.156775 0
M  V30 16627 C 1553.97 -6.06897 0.796418 0
M  V30 16628 N 1553.11 -7.02075 0.0595539 0
M  V30 16629 H 1557.95 -2.70312 1.2544 0
M  V30 16630 H 1555.48 -1.32933 0.629859 0
M  V30 16631 H 1557.44 -4.09492 -0.798231 0
M  V30 16632 H 1556.07 -3.01244 -1.15982 0
M  V30 16633 H 1555.12 -3.61508 1.1839 0
M  V30 16634 H 1556.43 -4.80397 1.34239 0
M  V30 16635 H 1555.59 -6.02999 -0.669146 0
M  V30 16636 H 1554.33 -4.78968 -0.918755 0
M  V30 16637 H 1553.33 -5.33716 1.32014 0
M  V30 16638 H 1554.56 -6.60987 1.558 0
M  V30 16639 H 1552.5 -6.5242 -0.684388 0
M  V30 16640 H 1552.42 -7.52484 0.728275 0
M  V30 16641 H 1553.69 -7.78299 -0.432538 0
M  V30 16642 N 1557.92 -0.68059 -1.42147 0
M  V30 16643 C 1559.17 -0.204857 -2.01059 0
M  V30 16644 C 1559.49 1.19475 -1.54113 0
M  V30 16645 O 1558.76 1.80334 -0.765279 0
M  V30 16646 H 1557.34 -0.0727459 -0.743449 0
M  V30 16647 H 1560 -0.878396 -1.73983 0
M  V30 16648 H 1559.09 -0.210628 -3.11388 0
M  V30 16649 N 1559.4 1.51781 -0.424309 0
M  V30 16650 C 1560.81 1.86653 0.0418266 0
M  V30 16651 C 1561.16 1.34224 1.43103 0
M  V30 16652 O 1560.28 0.687684 2.05183 0
M  V30 16653 C 1560.88 3.38699 0.0826759 0
M  V30 16654 C 1559.44 3.73155 0.493186 0
M  V30 16655 C 1558.58 2.75417 -0.322586 0
M  V30 16656 H 1561.53 1.45191 -0.640726 0
M  V30 16657 H 1561.56 3.69828 0.894864 0
M  V30 16658 H 1561.07 3.76829 -0.928536 0
M  V30 16659 H 1559.17 3.4061 1.51048 0
M  V30 16660 H 1559.28 4.78562 0.227032 0
M  V30 16661 H 1557.65 2.53772 0.217262 0
M  V30 16662 H 1558.43 3.16388 -1.33243 0
M  V30 16663 N 1560.87 0.155222 1.56834 0
M  V30 16664 C 1562.15 -0.539327 1.88018 0
M  V30 16665 C 1562.53 -1.8241 1.06253 0
M  V30 16666 O 1561.88 -2.27996 0.151721 0
M  V30 16667 C 1562.09 -0.796826 3.39782 0
M  V30 16668 C 1563.44 -1.13397 4.09178 0
M  V30 16669 O 1564.46 -0.885907 3.45007 0
M  V30 16670 O 1563.32 -1.60117 5.22518 0
M  V30 16671 H 1560.41 -0.276066 0.779562 0
M  V30 16672 H 1562.96 0.192451 1.68605 0
M  V30 16673 H 1561.73 0.112097 3.91139 0
M  V30 16674 H 1561.35 -1.5825 3.6475 0
M  V30 16675 N 1562.35 -1.57153 -0.118549 0
M  V30 16676 C 1563.6 -1.8515 -0.82748 0
M  V30 16677 C 1563.93 -0.741026 -1.79506 0
M  V30 16678 O 1563.21 0.253095 -1.92846 0
M  V30 16679 C 1563.49 -3.23734 -1.57698 0
M  V30 16680 C 1563.34 -4.45381 -0.628967 0
M  V30 16681 C 1564.66 -3.59895 -2.53305 0
M  V30 16682 H 1561.78 -0.673459 -0.29937 0
M  V30 16683 H 1564.42 -1.89778 -0.0917198 0
M  V30 16684 H 1562.57 -3.19919 -2.20418 0
M  V30 16685 H 1564.24 -4.61299 -0.0105746 0
M  V30 16686 H 1562.49 -4.33759 0.059462 0
M  V30 16687 H 1563.16 -5.3902 -1.19004 0
M  V30 16688 H 1565.63 -3.64503 -2.0069 0
M  V30 16689 H 1564.51 -4.57839 -3.02778 0
M  V30 16690 H 1564.77 -2.87338 -3.3599 0
M  V30 16691 N 1563.83 0.388742 -1.5273 0
M  V30 16692 C 1565.07 1.14269 -1.69475 0
M  V30 16693 C 1565.43 1.87222 -0.425669 0
M  V30 16694 O 1566.63 2.64668 -0.469486 0
M  V30 16695 C 1564.91 2.09472 -2.8958 0
M  V30 16696 S 1566.46 2.927 -3.26913 0
M  V30 16697 H 1563.28 0.386807 -0.596574 0
M  V30 16698 H 1565.88 0.427089 -1.90778 0
M  V30 16699 H 1564.59 1.54599 -3.80167 0
M  V30 16700 H 1564.12 2.8554 -2.70611 0
M  V30 16701 H 1566.13 4.11605 -2.77121 0
M  V30 16702 N 1565.31 1.43698 0.647203 0
M  V30 16703 C 1566.55 1.45633 1.40703 0
M  V30 16704 C 1566.88 0.0828643 1.94323 0
M  V30 16705 O 1566.14 -0.913033 1.73096 0
M  V30 16706 C 1566.44 2.45083 2.60133 0
M  V30 16707 C 1566.1 3.9081 2.24896 0
M  V30 16708 C 1564.76 4.30499 2.14998 0
M  V30 16709 C 1567.12 4.8262 1.96794 0
M  V30 16710 C 1564.44 5.59942 1.75163 0
M  V30 16711 C 1566.8 6.12433 1.58456 0
M  V30 16712 C 1565.46 6.51092 1.47088 0
M  V30 16713 H 1564.73 0.53291 0.514867 0
M  V30 16714 H 1567.38 1.76814 0.735458 0
M  V30 16715 H 1565.68 2.07327 3.3245 0
M  V30 16716 H 1567.38 2.43833 3.1835 0
M  V30 16717 H 1563.97 3.59403 2.33512 0
M  V30 16718 H 1568.15 4.52724 2.03359 0
M  V30 16719 H 1563.41 5.88728 1.64952 0
M  V30 16720 H 1567.58 6.83042 1.35745 0
M  V30 16721 H 1565.21 7.51299 1.15992 0
M  V30 16722 N 1566.79 -0.886131 1.30328 0
M  V30 16723 C 1568.06 -1.61912 1.09744 0
M  V30 16724 C 1568.44 -2.08116 -0.353663 0
M  V30 16725 O 1567.79 -1.84725 -1.34495 0
M  V30 16726 C 1568 -2.78954 2.09727 0
M  V30 16727 C 1569.35 -3.49313 2.41382 0
M  V30 16728 O 1570.37 -2.89141 2.08028 0
M  V30 16729 O 1569.23 -4.57823 2.98431 0
M  V30 16730 H 1566.33 -0.71158 0.421406 0
M  V30 16731 H 1568.87 -0.933009 1.4175 0
M  V30 16732 H 1567.64 -2.42109 3.07407 0
M  V30 16733 H 1567.27 -3.55263 1.78532 0
M  V30 16734 N 1568.26 -1.13026 -1.09832 0
M  V30 16735 C 1569.21 -0.799174 -2.1844 0
M  V30 16736 C 1570.21 0.216695 -1.68008 0
M  V30 16737 O 1571.41 0.0742662 -1.79847 0
M  V30 16738 H 1567.79 -0.24064 -0.712458 0
M  V30 16739 H 1569.76 -1.72342 -2.436 0
M  V30 16740 C 1568.51 -0.276925 -3.46595 0
M  V30 16741 H 1567.83 -1.04993 -3.85768 0
M  V30 16742 H 1569.27 -0.0836468 -4.23917 0
M  V30 16743 C 1567.73 0.996479 -3.21826 0
M  V30 16744 O 1568.26 2.0731 -3.44072 0
M  V30 16745 N 1566.47 0.925903 -2.75455 0
M  V30 16746 H 1566.01 0.0496383 -2.57552 0
M  V30 16747 H 1565.97 1.77853 -2.5926 0
M  V30 16748 N 1569.74 1.27735 -0.923117 0
M  V30 16749 C 1570.69 2.28975 -0.409065 0
M  V30 16750 C 1571.68 1.61723 0.504194 0
M  V30 16751 O 1572.89 1.75848 0.384402 0
M  V30 16752 H 1569.27 0.743354 -0.113705 0
M  V30 16753 H 1571.24 2.69751 -1.27582 0
M  V30 16754 C 1569.99 3.46158 0.327099 0
M  V30 16755 H 1569.31 3.98117 -0.366444 0
M  V30 16756 H 1570.75 4.18968 0.65128 0
M  V30 16757 C 1569.21 2.99724 1.53842 0
M  V30 16758 O 1569.74 3.03001 2.6373 0
M  V30 16759 N 1567.94 2.55274 1.38865 0
M  V30 16760 H 1567.49 2.52807 0.494629 0
M  V30 16761 H 1567.45 2.24567 2.20039 0
M  V30 16762 N 1571.22 0.688118 1.41784 0
M  V30 16763 C 1572.47 0.216263 2.01644 0
M  V30 16764 C 1572.8 -1.17861 1.54345 0
M  V30 16765 O 1572.07 -1.794 0.751392 0
M  V30 16766 C 1572.36 0.265663 3.59119 0
M  V30 16767 C 1572.21 1.69694 4.16562 0
M  V30 16768 C 1573.53 -0.378713 4.38468 0
M  V30 16769 H 1570.65 0.0800582 0.732639 0
M  V30 16770 H 1573.29 0.875428 1.68631 0
M  V30 16771 H 1571.44 -0.295588 3.87374 0
M  V30 16772 H 1573.11 2.31146 3.9921 0
M  V30 16773 H 1571.36 2.23345 3.71886 0
M  V30 16774 H 1572.03 1.68309 5.25715 0
M  V30 16775 H 1574.5 0.0991969 4.15982 0
M  V30 16776 H 1573.38 -0.31357 5.48004 0
M  V30 16777 H 1573.64 -1.45832 4.17355 0
M  V30 16778 N 1572.7 -1.51554 0.432352 0
M  V30 16779 C 1573.63 -2.30514 -0.372243 0
M  V30 16780 C 1574.61 -1.35712 -1.02549 0
M  V30 16781 O 1575.79 -1.6463 -1.03009 0
M  V30 16782 C 1572.92 -3.14353 -1.47646 0
M  V30 16783 C 1571.88 -4.17392 -0.946974 0
M  V30 16784 C 1571.2 -4.89721 -2.14656 0
M  V30 16785 C 1572.5 -5.22298 0.0151377 0
M  V30 16786 H 1574.2 -2.98024 0.28668 0
M  V30 16787 H 1571.74 -1.43325 0.139315 0
M  V30 16788 H 1573.7 -3.68369 -2.04651 0
M  V30 16789 H 1572.42 -2.44654 -2.1636 0
M  V30 16790 H 1571.08 -3.6442 -0.399174 0
M  V30 16791 H 1570.73 -4.1653 -2.81978 0
M  V30 16792 H 1570.43 -5.59393 -1.79869 0
M  V30 16793 H 1571.95 -5.46559 -2.72224 0
M  V30 16794 H 1573.37 -5.71416 -0.464447 0
M  V30 16795 H 1571.76 -5.99468 0.275339 0
M  V30 16796 H 1572.83 -4.75436 0.953357 0
M  V30 16797 N 1574.18 -0.163538 -1.56749 0
M  V30 16798 C 1575.09 0.782461 -2.21167 0
M  V30 16799 C 1576.1 1.25911 -1.20093 0
M  V30 16800 O 1577.28 1.31286 -1.52728 0
M  V30 16801 C 1574.34 1.99761 -2.83366 0
M  V30 16802 C 1573.4 1.56859 -3.99617 0
M  V30 16803 C 1572.64 2.72582 -4.58841 0
M  V30 16804 O 1572.86 3.89243 -4.16949 0
M  V30 16805 O 1571.79 2.47104 -5.48838 0
M  V30 16806 H 1575.62 0.264023 -3.0255 0
M  V30 16807 H 1573.21 0.06429 -1.49262 0
M  V30 16808 H 1575.09 2.70843 -3.22835 0
M  V30 16809 H 1573.76 2.50526 -2.04984 0
M  V30 16810 H 1572.67 0.827511 -3.64833 0
M  V30 16811 H 1574 1.10794 -4.79568 0
M  V30 16812 N 1575.65 1.57214 0.110213 0
M  V30 16813 C 1576.93 1.76298 0.847249 0
M  V30 16814 C 1577.31 0.741294 1.97656 0
M  V30 16815 O 1576.66 -0.233104 2.27308 0
M  V30 16816 C 1576.87 3.21588 1.35582 0
M  V30 16817 C 1578.22 3.8434 1.80465 0
M  V30 16818 O 1579.24 3.25244 1.45241 0
M  V30 16819 O 1578.1 4.88231 2.45546 0
M  V30 16820 H 1575.19 0.722167 0.402993 0
M  V30 16821 H 1577.74 1.69443 0.0932694 0
M  V30 16822 H 1576.51 3.87472 0.54599 0
M  V30 16823 H 1576.14 3.33015 2.17225 0
M  V30 16824 N 1577.13 -0.380637 1.52934 0
M  V30 16825 C 1578.36 -1.14417 1.72024 0
M  V30 16826 C 1578.77 -1.83962 0.442128 0
M  V30 16827 O 1578.11 -1.73839 -0.593766 0
M  V30 16828 C 1578.18 -2.22944 2.82022 0
M  V30 16829 C 1577.84 -1.73295 4.22869 0
M  V30 16830 C 1578.84 -1.20515 5.05739 0
M  V30 16831 C 1576.52 -1.79264 4.69222 0
M  V30 16832 C 1578.52 -0.743632 6.33047 0
M  V30 16833 C 1576.2 -1.32724 5.96513 0
M  V30 16834 C 1577.2 -0.803615 6.78256 0
M  V30 16835 O 1576.89 -0.34503 8.03159 0
M  V30 16836 H 1576.62 -0.348676 0.579138 0
M  V30 16837 H 1579.17 -0.450113 2.00407 0
M  V30 16838 H 1577.4 -2.95798 2.49079 0
M  V30 16839 H 1579.09 -2.84575 2.89434 0
M  V30 16840 H 1579.86 -1.15254 4.71107 0
M  V30 16841 H 1575.74 -2.18962 4.0568 0
M  V30 16842 H 1579.28 -0.334251 6.96799 0
M  V30 16843 H 1575.18 -1.37673 6.30648 0
M  V30 16844 H 1575.95 -0.465743 8.17174 0
M  V30 16845 N 1578.61 -1.44039 -0.639573 0
M  V30 16846 C 1579.84 -1.49844 -1.42669 0
M  V30 16847 C 1580.25 -0.120599 -1.88414 0
M  V30 16848 O 1579.61 0.871875 -1.60327 0
M  V30 16849 C 1579.66 -2.45597 -2.65263 0
M  V30 16850 O 1579.38 -3.78023 -2.21427 0
M  V30 16851 C 1580.88 -2.60781 -3.5848 0
M  V30 16852 H 1578.1 -0.508477 -0.437826 0
M  V30 16853 H 1580.65 -1.88919 -0.782923 0
M  V30 16854 H 1578.8 -2.09679 -3.2575 0
M  V30 16855 H 1579.22 -4.29642 -3.00846 0
M  V30 16856 H 1580.69 -3.31826 -4.4113 0
M  V30 16857 H 1581.17 -1.65727 -4.06732 0
M  V30 16858 H 1581.77 -2.97565 -3.03867 0
M  V30 16859 N 1580.09 0.879207 -1.30796 0
M  V30 16860 C 1581.37 1.61328 -1.10602 0
M  V30 16861 C 1581.75 2.08301 0.342621 0
M  V30 16862 O 1581.09 1.85436 1.33514 0
M  V30 16863 C 1581.3 2.77838 -2.11203 0
M  V30 16864 C 1582.65 3.48028 -2.43231 0
M  V30 16865 O 1583.68 2.88034 -2.09559 0
M  V30 16866 O 1582.53 4.56233 -3.00854 0
M  V30 16867 H 1579.63 0.709335 -0.425174 0
M  V30 16868 H 1582.17 0.925478 -1.42243 0
M  V30 16869 H 1580.95 2.40475 -3.08687 0
M  V30 16870 H 1580.57 3.54312 -1.80414 0
M  V30 16871 N 1581.57 1.13606 1.09231 0
M  V30 16872 C 1582.81 0.909321 1.83059 0
M  V30 16873 C 1583.17 -0.554485 1.83819 0
M  V30 16874 O 1584.37 -0.898864 2.53326 0
M  V30 16875 C 1582.64 1.4835 3.25157 0
M  V30 16876 S 1584.2 1.3971 4.15964 0
M  V30 16877 H 1581.02 0.327715 0.630971 0
M  V30 16878 H 1583.62 1.44796 1.31355 0
M  V30 16879 H 1582.33 2.54219 3.22181 0
M  V30 16880 H 1581.86 0.942887 3.81934 0
M  V30 16881 H 1583.87 0.37691 4.94766 0
M  V30 16882 N 1583.05 -1.27244 0.929878 0
M  V30 16883 C 1584.29 -1.93886 0.570331 0
M  V30 16884 C 1584.61 -1.7342 -0.891656 0
M  V30 16885 O 1583.88 -1.0832 -1.63228 0
M  V30 16886 H 1582.46 -0.717476 0.207937 0
M  V30 16887 H 1585.13 -1.5491 1.18275 0
M  V30 16888 H 1584.22 -3.02236 0.778463 0
M  V30 16889 N 1584.52 -0.695628 -1.41417 0
M  V30 16890 C 1585.77 -0.226171 -2.0083 0
M  V30 16891 C 1586.09 1.17833 -1.55371 0
M  V30 16892 O 1585.36 1.79512 -0.784362 0
M  V30 16893 H 1583.94 -0.0806271 -0.742636 0
M  V30 16894 H 1586.6 -0.8968 -1.73042 0
M  V30 16895 H 1585.7 -0.243643 -3.11148 0
M  V30 16896 N 1586 1.51322 -0.440383 0
M  V30 16897 C 1587.25 2.02413 0.125248 0
M  V30 16898 C 1587.58 1.32374 1.42094 0
M  V30 16899 O 1586.86 0.439624 1.89467 0
M  V30 16900 C 1587.14 3.58483 0.340858 0
M  V30 16901 C 1586.99 4.39134 -0.973701 0
M  V30 16902 C 1588.31 4.25891 1.10927 0
M  V30 16903 H 1585.43 0.735683 0.0440452 0
M  V30 16904 H 1588.07 1.80932 -0.579976 0
M  V30 16905 H 1586.22 3.76917 0.941572 0
M  V30 16906 H 1587.89 4.32343 -1.60863 0
M  V30 16907 H 1586.14 4.04097 -1.57759 0
M  V30 16908 H 1586.81 5.46506 -0.776845 0
M  V30 16909 H 1589.28 4.11746 0.600403 0
M  V30 16910 H 1588.16 5.34967 1.2289 0
M  V30 16911 H 1588.42 3.86958 2.13813 0
M  V30 16912 N 1587.48 0.171848 1.5666 0
M  V30 16913 C 1588.7 -0.482396 2.01712 0
M  V30 16914 C 1589.13 -1.5598 1.05128 0
M  V30 16915 O 1588.49 -1.81274 0.0309178 0
M  V30 16916 C 1588.54 -1.03716 3.45363 0
M  V30 16917 O 1587.64 -2.15114 3.51852 0
M  V30 16918 H 1586.98 -0.115439 0.653888 0
M  V30 16919 H 1589.51 0.275895 2.02731 0
M  V30 16920 H 1589.52 -1.35964 3.84679 0
M  V30 16921 H 1588.2 -0.24832 4.15158 0
M  V30 16922 H 1586.77 -1.83907 3.24396 0
M  V30 16923 N 1588.96 -1.5727 -0.101874 0
M  V30 16924 C 1590.21 -1.85375 -0.805007 0
M  V30 16925 C 1590.53 -0.759564 -1.79599 0
M  V30 16926 O 1589.8 0.21484 -1.94718 0
M  V30 16927 H 1588.38 -0.683987 -0.300284 0
M  V30 16928 H 1591.04 -1.94714 -0.0851166 0
M  V30 16929 H 1590.13 -2.81881 -1.33976 0
M  V30 16930 N 1590.44 0.372521 -1.53134 0
M  V30 16931 C 1591.37 1.4621 -1.82057 0
M  V30 16932 C 1592.35 1.56194 -0.673612 0
M  V30 16933 O 1593.53 1.70875 -0.922797 0
M  V30 16934 C 1590.66 2.83632 -2.00425 0
M  V30 16935 C 1589.62 2.88478 -3.16171 0
M  V30 16936 C 1588.94 4.28508 -3.19821 0
M  V30 16937 C 1590.24 2.56628 -4.54906 0
M  V30 16938 H 1591.94 1.22256 -2.73302 0
M  V30 16939 H 1589.48 0.586688 -1.31507 0
M  V30 16940 H 1591.43 3.59876 -2.19242 0
M  V30 16941 H 1590.16 3.0896 -1.05884 0
M  V30 16942 H 1588.82 2.14684 -2.97164 0
M  V30 16943 H 1588.47 4.509 -2.2293 0
M  V30 16944 H 1588.17 4.32667 -3.97584 0
M  V30 16945 H 1589.69 5.06635 -3.40813 0
M  V30 16946 H 1591.1 3.22587 -4.73931 0
M  V30 16947 H 1589.5 2.72114 -5.34859 0
M  V30 16948 H 1590.57 1.51902 -4.60493 0
M  V30 16949 N 1591.91 1.44376 0.631925 0
M  V30 16950 C 1592.86 1.51479 1.76513 0
M  V30 16951 C 1593.86 0.386562 1.6493 0
M  V30 16952 O 1595.06 0.561473 1.71019 0
M  V30 16953 H 1591.44 0.475318 0.582733 0
M  V30 16954 H 1593.41 2.46856 1.67644 0
M  V30 16955 C 1592.16 1.4754 3.14845 0
M  V30 16956 H 1591.48 2.3367 3.24405 0
M  V30 16957 H 1592.92 1.5657 3.94033 0
M  V30 16958 C 1591.38 0.196043 3.36329 0
M  V30 16959 O 1591.91 -0.734083 3.94936 0
M  V30 16960 N 1590.11 0.0994331 2.9043 0
M  V30 16961 H 1589.66 0.857176 2.4292 0
M  V30 16962 H 1589.62 -0.755814 3.0518 0
M  V30 16963 N 1593.39 -0.872258 1.31261 0
M  V30 16964 C 1594.8 -1.44077 1.18738 0
M  V30 16965 C 1595.15 -1.95105 -0.207037 0
M  V30 16966 O 1594.28 -1.86083 -1.10464 0
M  V30 16967 C 1594.87 -2.61884 2.14947 0
M  V30 16968 C 1593.43 -3.14787 2.06364 0
M  V30 16969 C 1592.58 -1.87495 2.04306 0
M  V30 16970 H 1595.53 -0.681011 1.43345 0
M  V30 16971 H 1595.55 -3.38501 1.73773 0
M  V30 16972 H 1595.06 -2.24715 3.16425 0
M  V30 16973 H 1593.16 -3.56582 1.08073 0
M  V30 16974 H 1593.28 -3.77225 2.95361 0
M  V30 16975 H 1591.64 -2.06361 1.49288 0
M  V30 16976 H 1592.42 -1.52566 3.07536 0
M  V30 16977 N 1594.87 -1.14184 -1.08627 0
M  V30 16978 C 1596.09 -0.932504 -1.85254 0
M  V30 16979 C 1596.52 0.513792 -1.80947 0
M  V30 16980 O 1595.88 1.36525 -1.19292 0
M  V30 16981 C 1595.93 -1.43519 -3.30809 0
M  V30 16982 O 1595.03 -0.625806 -4.07624 0
M  V30 16983 H 1594.37 -0.333573 -0.57413 0
M  V30 16984 H 1596.9 -1.51853 -1.3712 0
M  V30 16985 H 1596.91 -1.44238 -3.81654 0
M  V30 16986 H 1595.59 -2.48819 -3.3326 0
M  V30 16987 H 1594.16 -0.687168 -3.66514 0
M  V30 16988 N 1596.35 1.26749 -0.936613 0
M  V30 16989 C 1597.28 2.2892 -0.460213 0
M  V30 16990 C 1598.26 1.63065 0.484135 0
M  V30 16991 O 1599.44 1.90305 0.386973 0
M  V30 16992 C 1596.57 3.46172 0.279648 0
M  V30 16993 C 1595.53 4.24083 -0.57771 0
M  V30 16994 C 1594.85 5.33903 0.291843 0
M  V30 16995 C 1596.15 4.88562 -1.84673 0
M  V30 16996 H 1597.85 2.69019 -1.31412 0
M  V30 16997 H 1595.39 1.29325 -0.633333 0
M  V30 16998 H 1597.35 4.16755 0.623931 0
M  V30 16999 H 1596.07 3.05014 1.16765 0
M  V30 17000 H 1594.73 3.55258 -0.904824 0
M  V30 17001 H 1594.38 4.88986 1.17906 0
M  V30 17002 H 1594.08 5.8694 -0.278372 0
M  V30 17003 H 1595.6 6.07326 0.631498 0
M  V30 17004 H 1597.02 5.51384 -1.56997 0
M  V30 17005 H 1595.41 5.51697 -2.36115 0
M  V30 17006 H 1596.48 4.11761 -2.56088 0
M  V30 17007 N 1597.83 0.703118 1.41046 0
M  V30 17008 C 1599.07 0.246419 2.01902 0
M  V30 17009 C 1599.43 -1.14368 1.54719 0
M  V30 17010 O 1598.72 -1.76232 0.751848 0
M  V30 17011 C 1598.91 0.251575 3.56513 0
M  V30 17012 C 1598.74 1.64063 4.18704 0
M  V30 17013 C 1597.51 2.2453 4.52675 0
M  V30 17014 C 1599.71 2.58863 4.44404 0
M  V30 17015 N 1597.69 3.55922 5.00193 0
M  V30 17016 C 1599.06 3.74943 4.93779 0
M  V30 17017 C 1601.12 2.57033 4.26425 0
M  V30 17018 C 1599.82 4.89486 5.27064 0
M  V30 17019 C 1601.85 3.70694 4.60804 0
M  V30 17020 C 1601.21 4.85505 5.10357 0
M  V30 17021 H 1597.31 0.135728 0.770131 0
M  V30 17022 H 1599.89 0.922227 1.71473 0
M  V30 17023 H 1598.06 -0.393749 3.86399 0
M  V30 17024 H 1599.8 -0.220661 4.04098 0
M  V30 17025 H 1596.55 1.76744 4.39384 0
M  V30 17026 H 1596.98 4.23292 5.28349 0
M  V30 17027 H 1601.62 1.69481 3.87345 0
M  V30 17028 H 1599.34 5.77692 5.65064 0
M  V30 17029 H 1602.92 3.70539 4.48545 0
M  V30 17030 H 1601.8 5.71998 5.36459 0
M  V30 17031 N 1599.3 -1.51086 0.448402 0
M  V30 17032 C 1600.53 -2.06293 -0.112531 0
M  V30 17033 C 1600.94 -1.31478 -1.36052 0
M  V30 17034 O 1600.29 -0.370897 -1.79917 0
M  V30 17035 C 1600.35 -3.56156 -0.489178 0
M  V30 17036 C 1600.01 -4.52302 0.653568 0
M  V30 17037 C 1601.01 -4.96909 1.52898 0
M  V30 17038 C 1598.69 -4.9527 0.837448 0
M  V30 17039 C 1600.69 -5.83165 2.57288 0
M  V30 17040 C 1598.37 -5.81314 1.8846 0
M  V30 17041 C 1599.37 -6.25161 2.75069 0
M  V30 17042 O 1599.06 -7.09495 3.77985 0
M  V30 17043 H 1598.79 -0.67597 -0.00641865 0
M  V30 17044 H 1601.35 -1.95515 0.629533 0
M  V30 17045 H 1599.58 -3.64757 -1.28411 0
M  V30 17046 H 1601.27 -3.93828 -0.982548 0
M  V30 17047 H 1602.03 -4.64399 1.3985 0
M  V30 17048 H 1597.91 -4.60676 0.172857 0
M  V30 17049 H 1601.45 -6.1731 3.24921 0
M  V30 17050 H 1597.35 -6.13236 2.01523 0
M  V30 17051 H 1598.12 -7.27697 3.74699 0
M  V30 17052 N 1600.78 -0.180154 -1.56567 0
M  V30 17053 C 1602.03 0.462656 -1.96322 0
M  V30 17054 C 1602.34 1.63788 -1.06925 0
M  V30 17055 O 1603.55 2.34751 -1.36398 0
M  V30 17056 C 1602.01 0.874492 -3.49114 0
M  V30 17057 C 1601.61 -0.27562 -4.47151 0
M  V30 17058 C 1603.36 1.48522 -3.9767 0
M  V30 17059 C 1601.27 0.156341 -5.91193 0
M  V30 17060 H 1600.2 0.176619 -0.733022 0
M  V30 17061 H 1602.85 -0.269793 -1.81506 0
M  V30 17062 H 1601.23 1.66318 -3.59381 0
M  V30 17063 H 1602.4 -1.05304 -4.48606 0
M  V30 17064 H 1600.72 -0.796878 -4.08704 0
M  V30 17065 H 1603.31 1.8206 -5.02751 0
M  V30 17066 H 1603.66 2.38634 -3.41115 0
M  V30 17067 H 1604.19 0.760806 -3.90457 0
M  V30 17068 H 1600.93 -0.710221 -6.51641 0
M  V30 17069 H 1600.45 0.898933 -5.93025 0
M  V30 17070 H 1602.13 0.597228 -6.44238 0
M  V30 17071 N 1602.26 1.57322 0.0935319 0
M  V30 17072 C 1603.51 1.85353 0.795445 0
M  V30 17073 C 1603.82 0.769647 1.79822 0
M  V30 17074 O 1605.03 0.937121 2.54814 0
M  V30 17075 C 1603.48 3.28711 1.4655 0
M  V30 17076 C 1603.09 4.45174 0.502415 0
M  V30 17077 C 1604.84 3.65965 2.15105 0
M  V30 17078 C 1602.74 5.79566 1.17715 0
M  V30 17079 H 1601.67 0.691394 0.300816 0
M  V30 17080 H 1604.32 1.83436 0.0484063 0
M  V30 17081 H 1602.71 3.25173 2.26005 0
M  V30 17082 H 1603.88 4.60062 -0.260754 0
M  V30 17083 H 1602.2 4.16328 -0.0775186 0
M  V30 17084 H 1604.79 4.63655 2.66323 0
M  V30 17085 H 1605.14 2.94667 2.94069 0
M  V30 17086 H 1605.67 3.71398 1.42508 0
M  V30 17087 H 1602.41 6.54099 0.428277 0
M  V30 17088 H 1601.93 5.68519 1.9117 0
M  V30 17089 H 1603.61 6.2418 1.70318 0
M  V30 17090 N 1603.74 -0.364395 1.53329 0
M  V30 17091 C 1604.99 -1.10473 1.69234 0
M  V30 17092 C 1605.31 -1.89799 0.447347 0
M  V30 17093 O 1604.58 -1.8835 -0.538612 0
M  V30 17094 H 1603.16 -0.410826 0.623884 0
M  V30 17095 H 1605.82 -0.410721 1.90523 0
M  V30 17096 H 1604.92 -1.79387 2.55396 0
M  V30 17097 N 1605.22 -1.44709 -0.62426 0
M  V30 17098 C 1606.47 -1.47131 -1.37968 0
M  V30 17099 C 1606.78 -0.110507 -1.95288 0
M  V30 17100 O 1607.98 -0.0122892 -2.71497 0
M  V30 17101 C 1606.44 -2.59059 -2.49833 0
M  V30 17102 C 1606.05 -4.01378 -1.98997 0
M  V30 17103 C 1607.79 -2.70709 -3.26981 0
M  V30 17104 C 1605.7 -5.04717 -3.08244 0
M  V30 17105 H 1604.63 -0.547424 -0.5185 0
M  V30 17106 H 1607.28 -1.70797 -0.670863 0
M  V30 17107 H 1605.66 -2.28646 -3.23322 0
M  V30 17108 H 1606.84 -4.41391 -1.32327 0
M  V30 17109 H 1605.15 -3.9403 -1.34644 0
M  V30 17110 H 1607.75 -3.45087 -4.08435 0
M  V30 17111 H 1608.09 -1.76763 -3.76909 0
M  V30 17112 H 1608.62 -3.00566 -2.60585 0
M  V30 17113 H 1605.36 -6.00315 -2.63253 0
M  V30 17114 H 1604.88 -4.6929 -3.73534 0
M  V30 17115 H 1606.56 -5.28725 -3.72906 0
M  V30 17116 N 1606.69 0.865285 -1.31722 0
M  V30 17117 C 1607.63 1.97919 -1.15588 0
M  V30 17118 C 1608.64 1.6253 -0.0936929 0
M  V30 17119 O 1609.83 1.752 -0.341639 0
M  V30 17120 C 1606.93 3.30614 -0.744814 0
M  V30 17121 C 1606.1 3.94314 -1.89301 0
M  V30 17122 C 1605.16 5.0533 -1.46724 0
M  V30 17123 O 1604.19 5.25898 -2.17762 0
M  V30 17124 N 1605.39 5.794 -0.357262 0
M  V30 17125 H 1608.15 2.12304 -2.11535 0
M  V30 17126 H 1605.71 1.03953 -1.24118 0
M  V30 17127 H 1607.71 4.02273 -0.442594 0
M  V30 17128 H 1606.28 3.12357 0.123186 0
M  V30 17129 H 1605.5 3.15577 -2.3623 0
M  V30 17130 H 1606.78 4.33609 -2.66196 0
M  V30 17131 H 1606.18 5.65215 0.23423 0
M  V30 17132 H 1604.74 6.51699 -0.114599 0
M  V30 17133 N 1608.17 1.14759 1.0802 0
M  V30 17134 C 1609.42 0.918248 1.80484 0
M  V30 17135 C 1609.75 -0.554986 1.86414 0
M  V30 17136 O 1609 -1.42732 1.33888 0
M  V30 17137 C 1609.3 1.4692 3.25805 0
M  V30 17138 C 1608.97 2.96176 3.39987 0
M  V30 17139 C 1607.63 3.36923 3.43564 0
M  V30 17140 C 1609.98 3.92131 3.43341 0
M  V30 17141 C 1607.31 4.72281 3.48092 0
M  V30 17142 C 1609.66 5.27351 3.49404 0
M  V30 17143 C 1608.33 5.67605 3.51256 0
M  V30 17144 H 1607.6 0.336011 0.660437 0
M  V30 17145 H 1610.24 1.43191 1.27156 0
M  V30 17146 H 1608.55 0.876571 3.81868 0
M  V30 17147 H 1610.24 1.26765 3.80436 0
M  V30 17148 H 1606.83 2.63675 3.37896 0
M  V30 17149 H 1611.02 3.61728 3.39804 0
M  V30 17150 H 1606.27 5.02823 3.4782 0
M  V30 17151 H 1610.45 6.01507 3.50946 0
M  V30 17152 H 1608.08 6.72474 3.54517 0
M  V30 17153 N 1609.65 -1.26251 0.943322 0
M  V30 17154 C 1610.58 -2.28673 0.472347 0
M  V30 17155 C 1611.56 -1.63319 -0.475481 0
M  V30 17156 O 1612.75 -1.90508 -0.376875 0
M  V30 17157 C 1609.88 -3.46316 -0.261286 0
M  V30 17158 C 1608.83 -4.23771 0.600192 0
M  V30 17159 C 1608.16 -5.3405 -0.263525 0
M  V30 17160 C 1609.46 -4.87576 1.87262 0
M  V30 17161 H 1611.15 -2.68319 1.32836 0
M  V30 17162 H 1608.7 -1.28987 0.640182 0
M  V30 17163 H 1610.65 -4.1708 -0.601821 0
M  V30 17164 H 1609.37 -3.05629 -1.15146 0
M  V30 17165 H 1608.03 -3.54774 0.923651 0
M  V30 17166 H 1607.68 -4.89604 -1.15312 0
M  V30 17167 H 1607.38 -5.86784 0.309495 0
M  V30 17168 H 1608.9 -6.07652 -0.599281 0
M  V30 17169 H 1610.32 -5.50544 1.59919 0
M  V30 17170 H 1608.72 -5.50437 2.39038 0
M  V30 17171 H 1609.79 -4.10397 2.58268 0
M  V30 17172 N 1611.13 -0.710588 -1.40671 0
M  V30 17173 C 1612.06 -0.0694601 -2.33397 0
M  V30 17174 C 1613.04 0.750959 -1.52626 0
M  V30 17175 O 1614.23 0.700896 -1.81111 0
M  V30 17176 C 1611.36 0.856704 -3.36568 0
M  V30 17177 C 1610.31 0.142276 -4.27763 0
M  V30 17178 C 1609.64 1.18382 -5.21431 0
M  V30 17179 C 1610.94 -1.00052 -5.12627 0
M  V30 17180 H 1612.63 -0.843945 -2.87259 0
M  V30 17181 H 1610.18 -0.407287 -1.3812 0
M  V30 17182 H 1612.13 1.31457 -4.00371 0
M  V30 17183 H 1610.85 1.66303 -2.81089 0
M  V30 17184 H 1609.51 -0.295714 -3.65405 0
M  V30 17185 H 1609.16 1.98306 -4.62259 0
M  V30 17186 H 1608.86 0.71071 -5.83286 0
M  V30 17187 H 1610.38 1.64189 -5.88111 0
M  V30 17188 H 1611.8 -0.622246 -5.69913 0
M  V30 17189 H 1610.19 -1.40168 -5.83501 0
M  V30 17190 H 1611.26 -1.83345 -4.48902 0
M  V30 17191 N 1612.61 1.50847 -0.456408 0
M  V30 17192 C 1613.54 2.31077 0.335523 0
M  V30 17193 C 1614.52 1.37326 1.00377 0
M  V30 17194 O 1615.7 1.66247 1.00376 0
M  V30 17195 C 1612.83 3.16662 1.42627 0
M  V30 17196 C 1611.79 4.18846 0.88045 0
M  V30 17197 C 1611.11 4.93074 2.06838 0
M  V30 17198 C 1612.41 5.22208 -0.0982288 0
M  V30 17199 H 1614.11 2.97531 -0.334056 0
M  V30 17200 H 1611.65 1.43085 -0.162099 0
M  V30 17201 H 1613.61 3.71578 1.98765 0
M  V30 17202 H 1612.33 2.48066 2.12441 0
M  V30 17203 H 1610.99 3.65009 0.341147 0
M  V30 17204 H 1610.64 4.20963 2.75316 0
M  V30 17205 H 1610.34 5.62184 1.70947 0
M  V30 17206 H 1611.86 5.5082 2.63494 0
M  V30 17207 H 1613.28 5.72082 0.373481 0
M  V30 17208 H 1611.67 5.98954 -0.370674 0
M  V30 17209 H 1612.74 4.73859 -1.02887 0
M  V30 17210 N 1614.09 0.188454 1.56469 0
M  V30 17211 C 1615.33 -0.446133 1.98447 0
M  V30 17212 C 1615.69 -1.59695 1.07309 0
M  V30 17213 O 1614.98 -1.91248 0.116155 0
M  V30 17214 C 1615.17 -0.960652 3.44247 0
M  V30 17215 C 1615 0.138775 4.49486 0
M  V30 17216 C 1613.77 0.594191 5.01794 0
M  V30 17217 C 1615.97 0.945352 5.05537 0
M  V30 17218 N 1613.95 1.67213 5.90689 0
M  V30 17219 C 1615.32 1.87284 5.91037 0
M  V30 17220 C 1617.38 0.988513 4.87989 0
M  V30 17221 C 1616.08 2.83989 6.60865 0
M  V30 17222 C 1618.11 1.94358 5.58551 0
M  V30 17223 C 1617.47 2.85852 6.43792 0
M  V30 17224 H 1613.57 -0.130863 0.770973 0
M  V30 17225 H 1616.15 0.29262 1.92489 0
M  V30 17226 H 1614.32 -1.66887 3.50718 0
M  V30 17227 H 1616.06 -1.56529 3.73203 0
M  V30 17228 H 1612.81 0.188748 4.73224 0
M  V30 17229 H 1613.23 2.21211 6.3984 0
M  V30 17230 H 1617.88 0.295146 4.21769 0
M  V30 17231 H 1615.59 3.54305 7.26288 0
M  V30 17232 H 1619.18 1.9833 5.46952 0
M  V30 17233 H 1618.06 3.5855 6.97432 0
M  V30 17234 N 1615.56 -1.5737 -0.0851874 0
M  V30 17235 C 1616.49 -2.05796 -1.10319 0
M  V30 17236 C 1617.47 -0.948796 -1.4118 0
M  V30 17237 O 1618.66 -1.22069 -1.51039 0
M  V30 17238 C 1615.79 -2.49069 -2.42037 0
M  V30 17239 C 1614.74 -3.6374 -2.25561 0
M  V30 17240 C 1614.07 -3.93023 -3.62543 0
M  V30 17241 C 1615.37 -4.94274 -1.68793 0
M  V30 17242 H 1617.06 -2.91095 -0.700274 0
M  V30 17243 H 1614.61 -1.40039 -0.335405 0
M  V30 17244 H 1616.56 -2.81558 -3.13534 0
M  V30 17245 H 1615.29 -1.60781 -2.84283 0
M  V30 17246 H 1613.95 -3.31513 -1.56507 0
M  V30 17247 H 1613.59 -3.01887 -4.02335 0
M  V30 17248 H 1613.29 -4.70229 -3.52362 0
M  V30 17249 H 1614.82 -4.27995 -4.35491 0
M  V30 17250 H 1616.23 -5.25079 -2.30141 0
M  V30 17251 H 1614.63 -5.75711 -1.69344 0
M  V30 17252 H 1615.7 -4.80548 -0.648204 0
M  V30 17253 N 1617.04 0.356258 -1.53521 0
M  V30 17254 C 1618.29 1.09953 -1.70406 0
M  V30 17255 C 1618.62 1.8869 -0.459304 0
M  V30 17256 O 1617.9 1.86751 0.54354 0
M  V30 17257 C 1618.18 2.05114 -2.95973 0
M  V30 17258 C 1618.03 1.29924 -4.30627 0
M  V30 17259 C 1619.35 3.0511 -3.17168 0
M  V30 17260 H 1616.47 0.398343 -0.620074 0
M  V30 17261 H 1619.11 0.379376 -1.86174 0
M  V30 17262 H 1617.26 2.66524 -2.82661 0
M  V30 17263 H 1618.93 0.71226 -4.55768 0
M  V30 17264 H 1617.18 0.601141 -4.29615 0
M  V30 17265 H 1617.85 1.99624 -5.1464 0
M  V30 17266 H 1620.32 2.53809 -3.29728 0
M  V30 17267 H 1619.2 3.68908 -4.06445 0
M  V30 17268 H 1619.46 3.75794 -2.32876 0
M  V30 17269 N 1618.52 1.45038 0.616577 0
M  V30 17270 C 1619.74 1.52321 1.40759 0
M  V30 17271 C 1620.17 0.15375 1.87471 0
M  V30 17272 O 1619.53 -0.859908 1.5961 0
M  V30 17273 C 1619.58 2.50464 2.59423 0
M  V30 17274 O 1618.68 2.01623 3.59753 0
M  V30 17275 H 1618.02 0.513808 0.420592 0
M  V30 17276 H 1620.55 1.90309 0.751234 0
M  V30 17277 H 1620.56 2.68977 3.06783 0
M  V30 17278 H 1619.24 3.4993 2.24771 0
M  V30 17279 H 1617.81 1.92945 3.19103 0
M  V30 17280 N 1620 -0.858287 1.32179 0
M  V30 17281 C 1621.25 -1.60902 1.2229 0
M  V30 17282 C 1621.57 -1.93797 -0.216227 0
M  V30 17283 O 1620.84 -1.59312 -1.14002 0
M  V30 17284 H 1619.42 -0.596529 0.449624 0
M  V30 17285 H 1622.08 -1.02686 1.65655 0
M  V30 17286 H 1621.17 -2.54755 1.80295 0
M  V30 17287 N 1621.48 -1.1533 -1.07409 0
M  V30 17288 C 1622.7 -0.952101 -1.84255 0
M  V30 17289 C 1623.13 0.494571 -1.81482 0
M  V30 17290 O 1622.48 1.35253 -1.20733 0
M  V30 17291 C 1622.53 -1.47019 -3.29268 0
M  V30 17292 O 1621.64 -0.669005 -4.06937 0
M  V30 17293 H 1620.98 -0.339643 -0.57056 0
M  V30 17294 H 1623.51 -1.53298 -1.35502 0
M  V30 17295 H 1623.52 -1.48278 -3.80102 0
M  V30 17296 H 1622.19 -2.5234 -3.30602 0
M  V30 17297 H 1620.77 -0.726003 -3.65764 0
M  V30 17298 N 1622.95 1.25748 -0.950004 0
M  V30 17299 C 1624.18 1.97413 -0.61933 0
M  V30 17300 C 1624.6 1.70656 0.807591 0
M  V30 17301 O 1623.95 0.979899 1.53962 0
M  V30 17302 C 1624 3.51053 -0.862801 0
M  V30 17303 O 1623.73 3.76884 -2.23361 0
M  V30 17304 C 1625.23 4.39951 -0.543879 0
M  V30 17305 H 1622.45 0.629394 -0.232603 0
M  V30 17306 H 1624.99 1.60037 -1.27312 0
M  V30 17307 H 1623.15 3.86557 -0.255493 0
M  V30 17308 H 1623.56 4.71368 -2.30026 0
M  V30 17309 H 1625.03 5.46676 -0.764804 0
M  V30 17310 H 1625.51 4.36094 0.521421 0
M  V30 17311 H 1626.12 4.10005 -1.1303 0
M  V30 17312 N 1624.43 0.718038 1.40292 0
M  V30 17313 C 1625.38 0.0434428 2.27959 0
M  V30 17314 C 1626.37 -0.730049 1.43384 0
M  V30 17315 O 1627.56 -0.601847 1.66454 0
M  V30 17316 C 1624.69 -0.875738 3.31942 0
M  V30 17317 C 1623.77 -0.0973011 4.23988 0
M  V30 17318 N 1624.16 0.92073 4.97349 0
M  V30 17319 C 1622.46 -0.329494 4.44781 0
M  V30 17320 C 1623.16 1.38868 5.64881 0
M  V30 17321 N 1622.14 0.710377 5.38938 0
M  V30 17322 H 1625.94 0.823656 2.82123 0
M  V30 17323 H 1623.45 0.550843 1.52773 0
M  V30 17324 H 1625.45 -1.37436 3.93595 0
M  V30 17325 H 1624.11 -1.6553 2.79338 0
M  V30 17326 H 1625.12 1.30164 5.01276 0
M  V30 17327 H 1621.8 -1.08519 4.0315 0
M  V30 17328 H 1623.19 2.23471 6.33648 0
M  V30 17329 N 1625.91 -1.50602 0.464402 0
M  V30 17330 C 1627.33 -1.59162 0.118173 0
M  V30 17331 C 1627.53 -1.47313 -1.37481 0
M  V30 17332 O 1626.58 -1.32819 -2.14745 0
M  V30 17333 C 1627.9 -2.93313 0.662411 0
M  V30 17334 C 1629.44 -3.06692 0.625244 0
M  V30 17335 C 1629.92 -4.43407 1.14691 0
M  V30 17336 N 1631.41 -4.49801 1.10604 0
M  V30 17337 C 1632.14 -5.53964 1.48026 0
M  V30 17338 N 1631.64 -6.65413 1.92865 0
M  V30 17339 N 1633.43 -5.44471 1.39671 0
M  V30 17340 H 1625.58 -1.56548 1.4355 0
M  V30 17341 H 1627.85 -0.739451 0.593225 0
M  V30 17342 H 1627.55 -3.07439 1.70805 0
M  V30 17343 H 1627.43 -3.77061 0.102251 0
M  V30 17344 H 1629.81 -2.92217 -0.411466 0
M  V30 17345 H 1629.9 -2.24717 1.22213 0
M  V30 17346 H 1629.54 -4.5863 2.18222 0
M  V30 17347 H 1629.47 -5.23963 0.526306 0
M  V30 17348 H 1631.96 -3.69824 0.77709 0
M  V30 17349 H 1632.27 -7.40947 2.19585 0
M  V30 17350 H 1630.62 -6.66551 1.96812 0
M  V30 17351 H 1633.81 -4.56289 1.04487 0
M  V30 17352 H 1633.98 -6.25531 1.69161 0
M  V30 17353 N 1627.39 -0.19675 -1.56367 0
M  V30 17354 C 1628.32 0.718607 -2.22167 0
M  V30 17355 C 1629.3 1.22002 -1.1853 0
M  V30 17356 O 1630.48 1.26856 -1.47042 0
M  V30 17357 C 1627.61 1.93753 -2.88231 0
M  V30 17358 C 1626.57 1.57096 -3.98127 0
M  V30 17359 C 1625.89 2.86663 -4.51363 0
M  V30 17360 C 1627.19 0.779649 -5.16448 0
M  V30 17361 H 1628.89 0.170064 -2.98917 0
M  V30 17362 H 1626.43 0.0803568 -1.43776 0
M  V30 17363 H 1628.39 2.58312 -3.32946 0
M  V30 17364 H 1627.11 2.51063 -2.0889 0
M  V30 17365 H 1625.77 0.948947 -3.54105 0
M  V30 17366 H 1625.42 3.42066 -3.68782 0
M  V30 17367 H 1625.12 2.6288 -5.25517 0
M  V30 17368 H 1626.64 3.52207 -4.98781 0
M  V30 17369 H 1628.06 1.32838 -5.57698 0
M  V30 17370 H 1626.45 0.639882 -5.96679 0
M  V30 17371 H 1627.52 -0.218944 -4.84405 0
M  V30 17372 N 1628.87 1.57413 0.0768405 0
M  V30 17373 C 1629.8 2.06378 1.09226 0
M  V30 17374 C 1630.78 0.956269 1.40675 0
M  V30 17375 O 1631.96 1.22868 1.5039 0
M  V30 17376 C 1629.09 2.50349 2.40712 0
M  V30 17377 C 1628.05 3.64931 2.23628 0
M  V30 17378 C 1627.37 3.9494 3.60453 0
M  V30 17379 C 1628.67 4.95162 1.66169 0
M  V30 17380 H 1630.37 2.91463 0.684827 0
M  V30 17381 H 1627.91 1.40215 0.327974 0
M  V30 17382 H 1629.87 2.83216 3.12036 0
M  V30 17383 H 1628.59 1.62287 2.83426 0
M  V30 17384 H 1627.25 3.32339 1.54747 0
M  V30 17385 H 1626.9 3.04016 4.00728 0
M  V30 17386 H 1626.6 4.72091 3.49863 0
M  V30 17387 H 1628.12 4.30299 4.33215 0
M  V30 17388 H 1629.53 5.26292 2.27353 0
M  V30 17389 H 1627.93 5.76601 1.66289 0
M  V30 17390 H 1629 4.80885 0.62271 0
M  V30 17391 O 1630.38 -0.220531 1.59987 0
M  V30 17392 H 1631.07 -0.861627 1.73481 0
M  V30 END ATOM
M  V30 BEGIN BOND
M  V30 END BOND
M  V30 END CTAB
M  END
$$$$
