drugbank_target|P54455 Nicotinate-nucleotide adenylyltransferase (DB04099)
 OpenBabel12092119583D

  0  0  0     0  0            999 V3000
M  V30 BEGIN CTAB
M  V30 COUNTS 3112 3158 0 0 0
M  V30 BEGIN ATOM
M  V30 1 H -0.908 1.98254 -0.117106 0
M  V30 2 N 0 1.576 0 0
M  V30 3 C 0.933 2.03868 1.02534 0
M  V30 4 C 1.911 0.928543 1.3348 0
M  V30 5 O 3.095 1.19667 1.45644 0
M  V30 6 C 0.222 2.43627 2.35294 0
M  V30 7 C -0.732 3.65373 2.2001 0
M  V30 8 S 0.101 5.13292 1.52614 0
M  V30 9 C 1.257 5.56322 2.86805 0
M  V30 10 H 1.49 2.90518 0.631377 0
M  V30 11 H -0.977 1.52953 0.210867 0
M  V30 12 H 0.981 2.67203 3.11629 0
M  V30 13 H -0.358 1.57376 2.7183 0
M  V30 14 H -1.165 3.90944 3.18086 0
M  V30 15 H -1.563 3.418 1.51819 0
M  V30 16 H 0.729 5.58782 3.83104 0
M  V30 17 H 1.672 6.56266 2.65933 0
M  V30 18 H 2.08 4.83886 2.90714 0
M  V30 19 N 1.4781 -0.272755 1.55222 0
M  V30 20 C 2.4251 -1.33716 1.88119 0
M  V30 21 C 3.3951 -1.49066 0.73271 0
M  V30 22 O 4.5801 -1.63469 0.984002 0
M  V30 23 C 1.7201 -2.69238 2.15882 0
M  V30 24 C 0.8331 -2.62108 3.43399 0
M  V30 25 C -0.0319 -3.89811 3.60861 0
M  V30 26 C -0.9929 -3.77193 4.8207 0
M  V30 27 N -1.8559 -4.9673 4.96189 0
M  V30 28 H 2.9841 -1.04962 2.78903 0
M  V30 29 H 0.5211 -0.507088 1.38083 0
M  V30 30 H 2.4791 -3.48089 2.29978 0
M  V30 31 H 1.1091 -2.96194 1.28331 0
M  V30 32 H 0.1611 -1.74967 3.37773 0
M  V30 33 H 1.4731 -2.48685 4.32386 0
M  V30 34 H 0.6271 -4.77103 3.74777 0
M  V30 35 H -0.6339 -4.06102 2.7006 0
M  V30 36 H -1.6289 -2.88284 4.68159 0
M  V30 37 H -0.4039 -3.62421 5.74307 0
M  V30 38 H -2.4579 -5.13431 4.08319 0
M  V30 39 H -2.5409 -4.85839 5.79221 0
M  V30 40 H -1.2729 -5.85594 5.1449 0
M  V30 41 N 2.9562 -1.48159 -0.537278 0
M  V30 42 C 3.9032 -1.62138 -1.64256 0
M  V30 43 C 4.8732 -0.463668 -1.59497 0
M  V30 44 O 6.0582 -0.686241 -1.78032 0
M  V30 45 C 3.1982 -1.66028 -3.02537 0
M  V30 46 C 2.3112 -2.92855 -3.17585 0
M  V30 47 C 1.4462 -2.87952 -4.46382 0
M  V30 48 C 0.4852 -4.09516 -4.54932 0
M  V30 49 N -0.3778 -4.02733 -5.75109 0
M  V30 50 H 4.4622 -2.56529 -1.51647 0
M  V30 51 H 1.9992 -1.27224 -0.738414 0
M  V30 52 H 3.9572 -1.66265 -3.82638 0
M  V30 53 H 2.5872 -0.751331 -3.13934 0
M  V30 54 H 1.6392 -3.02395 -2.30784 0
M  V30 55 H 2.9512 -3.82822 -3.19764 0
M  V30 56 H 2.1052 -2.8655 -5.34765 0
M  V30 57 H 0.8442 -1.95702 -4.46712 0
M  V30 58 H -0.1508 -4.11201 -3.64957 0
M  V30 59 H 1.0742 -5.02917 -4.56346 0
M  V30 60 H -0.9798 -3.13299 -5.76351 0
M  V30 61 H -1.0628 -4.86397 -5.78752 0
M  V30 62 H 0.2052 -4.05379 -6.65799 0
M  V30 63 N 4.4343 0.785586 -1.36625 0
M  V30 64 C 5.6833 1.53883 -1.30396 0
M  V30 65 C 5.9963 1.95271 0.113452 0
M  V30 66 O 7.2023 2.69858 0.298142 0
M  V30 67 C 5.6583 2.77808 -2.28802 0
M  V30 68 C 5.2663 2.43574 -3.75999 0
M  V30 69 C 7.0103 3.55783 -2.31558 0
M  V30 70 C 4.9173 3.63919 -4.66173 0
M  V30 71 H 3.8473 0.577678 -0.484566 0
M  V30 72 H 6.4983 0.861705 -1.62009 0
M  V30 73 H 4.8803 3.47339 -1.90188 0
M  V30 74 H 6.0543 1.81916 -4.23371 0
M  V30 75 H 4.3693 1.78803 -3.76056 0
M  V30 76 H 6.9663 4.45205 -2.96137 0
M  V30 77 H 7.3093 3.94644 -1.3252 0
M  V30 78 H 7.8423 2.93235 -2.68809 0
M  V30 79 H 4.5813 3.3015 -5.66287 0
M  V30 80 H 4.1013 4.2473 -4.23515 0
M  V30 81 H 5.7803 4.30901 -4.82632 0
M  V30 82 N 5.9124 1.20967 1.01018 0
M  V30 83 C 7.1604 1.02172 1.74371 0
M  V30 84 C 7.4814 -0.446414 1.89821 0
M  V30 85 O 6.7514 -1.32234 1.44537 0
M  V30 86 H 5.3314 0.375066 0.646014 0
M  V30 87 H 7.9934 1.52187 1.21758 0
M  V30 88 H 7.0894 1.48538 2.74487 0
M  V30 89 N 7.3905 -1.2043 1.01659 0
M  V30 90 C 8.6395 -1.89118 0.701237 0
M  V30 91 C 8.9525 -1.79705 -0.772358 0
M  V30 92 O 10.1585 -2.43528 -1.20026 0
M  V30 93 C 8.6145 -3.39168 1.20388 0
M  V30 94 C 8.2225 -3.57166 2.70438 0
M  V30 95 C 9.9665 -4.1341 0.963953 0
M  V30 96 C 7.8735 -5.01042 3.14183 0
M  V30 97 H 6.8035 -0.708267 0.2586 0
M  V30 98 H 9.4545 -1.36239 1.22927 0
M  V30 99 H 7.8365 -3.91369 0.603824 0
M  V30 100 H 9.0105 -3.15351 3.35992 0
M  V30 101 H 7.3255 -2.96294 2.92572 0
M  V30 102 H 9.9225 -5.19491 1.26621 0
M  V30 103 H 10.2655 -4.16181 -0.099578 0
M  V30 104 H 10.7985 -3.67309 1.52738 0
M  V30 105 H 7.5375 -5.03426 4.19812 0
M  V30 106 H 7.0575 -5.43668 2.53348 0
M  V30 107 H 8.7365 -5.69623 3.0682 0
M  V30 108 N 8.8686 -0.792821 -1.36206 0
M  V30 109 C 10.1156 -0.366786 -1.99151 0
M  V30 110 C 10.4436 1.06243 -1.62919 0
M  V30 111 O 9.6986 1.74927 -0.877442 0
M  V30 112 C 9.9976 -0.481501 -3.54142 0
M  V30 113 C 9.6636 -1.87202 -4.10203 0
M  V30 114 C 8.3256 -2.25248 -4.25226 0
M  V30 115 C 10.6776 -2.78237 -4.40719 0
M  V30 116 C 8.0056 -3.53723 -4.68078 0
M  V30 117 C 10.3576 -4.06144 -4.85005 0
M  V30 118 C 9.0216 -4.44207 -4.98234 0
M  V30 119 H 8.2916 -0.134217 -0.728743 0
M  V30 120 H 10.9386 -1.01094 -1.62641 0
M  V30 121 H 9.2436 0.246146 -3.91026 0
M  V30 122 H 10.9406 -0.132844 -4.0078 0
M  V30 123 H 7.5306 -1.56639 -3.98951 0
M  V30 124 H 11.7146 -2.50097 -4.28679 0
M  V30 125 H 6.9706 -3.8308 -4.76508 0
M  V30 126 H 11.1446 -4.76796 -5.07581 0
M  V30 127 H 8.7716 -5.43814 -5.31197 0
M  V30 128 N 10.3467 1.47872 -0.545128 0
M  V30 129 C 11.5947 2.02093 -0.016553 0
M  V30 130 C 11.9157 1.42305 1.3332 0
M  V30 131 O 11.1857 0.593853 1.86682 0
M  V30 132 H 9.7657 0.746993 -0.00313038 0
M  V30 133 H 12.4277 1.81414 -0.712397 0
M  V30 134 H 11.5237 3.11996 0.0805422 0
M  V30 135 N 11.8248 0.280983 1.55075 0
M  V30 136 C 13.0728 -0.333455 1.9933 0
M  V30 137 C 13.3938 -1.55937 1.17085 0
M  V30 138 O 12.6638 -1.94143 0.261805 0
M  V30 139 H 11.2438 -0.126197 0.736263 0
M  V30 140 H 13.9058 0.387678 1.91005 0
M  V30 141 H 13.0018 -0.619292 3.05894 0
M  V30 142 N 13.3029 -1.57598 0.00835791 0
M  V30 143 C 14.5309 -1.95214 -0.68549 0
M  V30 144 C 14.9459 -0.883706 -1.66841 0
M  V30 145 O 14.3029 0.136565 -1.81988 0
M  V30 146 C 14.3539 -3.32865 -1.41007 0
M  V30 147 O 14.0749 -4.35609 -0.466552 0
M  V30 148 C 15.5759 -3.84991 -2.19765 0
M  V30 149 H 12.7959 -0.643422 -0.190392 0
M  V30 150 H 15.3399 -2.04406 0.0619607 0
M  V30 151 H 13.4949 -3.24956 -2.10908 0
M  V30 152 H 13.9089 -5.15288 -0.978699 0
M  V30 153 H 15.3829 -4.8371 -2.65948 0
M  V30 154 H 15.8599 -3.18137 -3.02796 0
M  V30 155 H 16.4659 -3.96103 -1.54864 0
M  V30 156 N 14.781 0.264519 -1.55364 0
M  V30 157 C 16.028 0.994986 -1.7637 0
M  V30 158 C 16.356 1.85976 -0.5695 0
M  V30 159 O 15.611 1.90509 0.44776 0
M  V30 160 C 15.91 1.9004 -3.02687 0
M  V30 161 C 15.576 1.19243 -4.34847 0
M  V30 162 C 14.238 0.996709 -4.70764 0
M  V30 163 C 16.59 0.689296 -5.16622 0
M  V30 164 C 13.918 0.285261 -5.86006 0
M  V30 165 C 16.27 -0.00860079 -6.32599 0
M  V30 166 C 14.934 -0.215963 -6.67151 0
M  V30 167 H 14.204 0.364091 -0.645383 0
M  V30 168 H 16.851 0.266543 -1.89636 0
M  V30 169 H 15.156 2.69533 -2.84357 0
M  V30 170 H 16.853 2.46695 -3.16137 0
M  V30 171 H 13.443 1.3549 -4.06621 0
M  V30 172 H 17.627 0.828108 -4.89342 0
M  V30 173 H 12.883 0.113961 -6.11294 0
M  V30 174 H 17.057 -0.406186 -6.95214 0
M  V30 175 H 14.684 -0.769217 -7.56298 0
M  V30 176 N 16.2591 1.48442 0.529413 0
M  V30 177 C 17.5361 1.46978 1.29062 0
M  V30 178 C 17.9161 0.181769 2.10316 0
M  V30 179 O 17.2641 -0.836481 2.12639 0
M  V30 180 C 17.4741 2.7321 2.17157 0
M  V30 181 C 18.8221 3.21562 2.77278 0
M  V30 182 O 19.8461 2.74131 2.27444 0
M  V30 183 O 18.7051 4.04094 3.67927 0
M  V30 184 H 15.7991 0.587003 0.582543 0
M  V30 185 H 18.3451 1.60676 0.546021 0
M  V30 186 H 17.1171 3.58465 1.56903 0
M  V30 187 H 16.7401 2.62235 2.98862 0
M  V30 188 N 17.7372 -0.778329 1.37039 0
M  V30 189 C 19.1482 -1.35421 1.28523 0
M  V30 190 C 19.4992 -1.96075 -0.0700901 0
M  V30 191 O 18.6242 -1.93352 -0.971801 0
M  V30 192 C 19.2192 -2.46211 2.32735 0
M  V30 193 C 17.7782 -2.99585 2.27873 0
M  V30 194 C 16.9252 -1.72748 2.16918 0
M  V30 195 H 19.8762 -0.5791 1.47757 0
M  V30 196 H 19.8972 -3.2552 1.9702 0
M  V30 197 H 19.4092 -2.02036 3.31365 0
M  V30 198 H 17.5102 -3.48152 1.32745 0
M  V30 199 H 17.6232 -3.55646 3.21018 0
M  V30 200 H 15.9872 -1.95416 1.63354 0
M  V30 201 H 16.7702 -1.30686 3.17452 0
M  V30 202 N 19.2153 -1.21501 -1.00376 0
M  V30 203 C 20.6263 -1.03146 -1.55621 0
M  V30 204 C 20.9773 0.408375 -1.91903 0
M  V30 205 O 20.1023 1.29177 -1.73616 0
M  V30 206 C 20.6973 -1.86612 -2.82775 0
M  V30 207 C 19.2563 -1.72586 -3.34501 0
M  V30 208 C 18.4033 -1.83747 -2.07683 0
M  V30 209 H 21.3543 -1.35505 -0.826081 0
M  V30 210 H 21.3753 -1.3771 -3.54706 0
M  V30 211 H 20.8873 -2.91399 -2.56336 0
M  V30 212 H 18.9883 -0.704877 -3.65872 0
M  V30 213 H 19.1013 -2.54623 -4.05837 0
M  V30 214 H 17.4653 -1.27069 -2.20739 0
M  V30 215 H 18.2483 -2.90044 -1.83655 0
M  V30 216 N 20.6934 1.19889 -1.02296 0
M  V30 217 C 21.6434 2.20777 -0.56934 0
M  V30 218 C 22.6274 1.56379 0.378741 0
M  V30 219 O 23.8194 1.75859 0.200673 0
M  V30 220 C 20.9484 3.43196 0.0845077 0
M  V30 221 C 20.0344 4.14749 -0.88566 0
M  V30 222 N 20.4254 4.62584 -2.04573 0
M  V30 223 C 18.7234 4.40347 -0.707835 0
M  V30 224 C 19.4244 5.17466 -2.65714 0
M  V30 225 N 18.4004 5.0791 -1.93723 0
M  V30 226 H 22.2024 2.55434 -1.45365 0
M  V30 227 H 19.7164 1.35897 -0.88915 0
M  V30 228 H 21.7134 4.14707 0.427067 0
M  V30 229 H 20.3734 3.10042 0.964574 0
M  V30 230 H 21.3844 4.57597 -2.4254 0
M  V30 231 H 18.0614 4.17317 0.12364 0
M  V30 232 H 19.4514 5.64808 -3.63925 0
M  V30 233 N 22.1715 0.800033 1.35784 0
M  V30 234 C 23.1195 0.193851 2.31791 0
M  V30 235 C 24.1135 -0.652744 1.56319 0
M  V30 236 O 25.3195 -0.546641 1.71499 0
M  V30 237 H 21.6945 0.04392 0.750716 0
M  V30 238 H 23.6655 1.01883 2.80468 0
M  V30 239 C 22.4145 -0.648338 3.41602 0
M  V30 240 H 21.7375 -0.00624665 3.998 0
M  V30 241 H 23.1775 -1.03898 4.11073 0
M  V30 242 C 21.6365 -1.8111 2.84079 0
M  V30 243 O 22.1665 -2.90825 2.77099 0
M  V30 244 N 20.3725 -1.62056 2.41218 0
M  V30 245 H 19.9195 -0.728123 2.47095 0
M  V30 246 H 19.8775 -2.40013 2.03079 0
M  V30 247 N 23.6496 -1.47581 0.552962 0
M  V30 248 C 24.8976 -2.02082 0.0272703 0
M  V30 249 C 25.2186 -1.4301 -1.32563 0
M  V30 250 O 24.4886 -0.603745 -1.86365 0
M  V30 251 H 23.0686 -0.746966 0.00709182 0
M  V30 252 H 25.7306 -1.81033 0.722008 0
M  V30 253 H 24.8266 -3.12034 -0.0639951 0
M  V30 254 N 25.1277 -0.289203 -1.54924 0
M  V30 255 C 26.0777 0.606939 -2.19773 0
M  V30 256 C 27.0617 1.10783 -1.16687 0
M  V30 257 O 28.2537 1.05057 -1.4245 0
M  V30 258 C 25.3827 1.78398 -2.93307 0
M  V30 259 C 24.4687 1.29961 -4.03697 0
M  V30 260 N 24.8597 0.532377 -5.0299 0
M  V30 261 C 23.1577 1.58136 -4.17024 0
M  V30 262 C 23.8587 0.275912 -5.81045 0
M  V30 263 N 22.8347 0.852365 -5.36876 0
M  V30 264 H 26.6367 0.0130779 -2.93897 0
M  V30 265 H 24.1507 -0.09341 -1.62131 0
M  V30 266 H 26.1477 2.43741 -3.38225 0
M  V30 267 H 24.8077 2.38166 -2.20697 0
M  V30 268 H 25.8187 0.17838 -5.17593 0
M  V30 269 H 22.4957 2.18738 -3.55612 0
M  V30 270 H 23.8857 -0.339502 -6.71042 0
M  V30 271 N 26.6058 1.57591 -0.0167156 0
M  V30 272 C 27.5358 2.12496 0.967858 0
M  V30 273 C 28.5168 1.03807 1.34752 0
M  V30 274 O 29.7018 1.31577 1.42833 0
M  V30 275 C 26.8318 2.64194 2.25431 0
M  V30 276 C 25.7858 3.77559 2.01576 0
M  V30 277 C 25.1118 4.15636 3.36379 0
M  V30 278 C 26.4118 5.04151 1.36489 0
M  V30 279 H 28.1058 2.95013 0.510643 0
M  V30 280 H 25.6518 1.41915 0.244181 0
M  V30 281 H 27.6048 3.01236 2.94678 0
M  V30 282 H 26.3288 1.78821 2.73296 0
M  V30 283 H 24.9878 3.40937 1.34751 0
M  V30 284 H 24.6358 3.27263 3.81979 0
M  V30 285 H 24.3358 4.92022 3.21229 0
M  V30 286 H 25.8598 4.5525 4.06915 0
M  V30 287 H 27.2738 5.38857 1.95718 0
M  V30 288 H 25.6708 5.85453 1.31776 0
M  V30 289 H 26.7408 4.83733 0.336219 0
M  V30 290 N 28.0839 -0.256276 1.55502 0
M  V30 291 C 29.0139 -1.32102 1.92539 0
M  V30 292 C 29.9949 -1.50684 0.789194 0
M  V30 293 O 31.1799 -1.63449 1.04872 0
M  V30 294 C 28.3099 -2.67752 2.21192 0
M  V30 295 C 27.2639 -2.63878 3.36975 0
M  V30 296 C 26.5899 -4.03236 3.51147 0
M  V30 297 C 27.8899 -2.21682 4.72921 0
M  V30 298 H 29.5839 -1.01351 2.81724 0
M  V30 299 H 27.1299 -0.486105 1.35547 0
M  V30 300 H 29.0829 -3.42365 2.45691 0
M  V30 301 H 27.8069 -3.0012 1.28824 0
M  V30 302 H 26.4659 -1.91722 3.12471 0
M  V30 303 H 26.1139 -4.32854 2.56216 0
M  V30 304 H 25.8139 -4.01535 4.29003 0
M  V30 305 H 27.3379 -4.79563 3.77957 0
M  V30 306 H 28.7519 -2.86023 4.96854 0
M  V30 307 H 27.1489 -2.3111 5.53812 0
M  V30 308 H 28.2189 -1.16833 4.70615 0
M  V30 309 N 29.562 -1.4872 -0.521534 0
M  V30 310 C 30.495 -1.58451 -1.64221 0
M  V30 311 C 31.473 -0.434513 -1.56687 0
M  V30 312 O 32.657 -0.647275 -1.77038 0
M  V30 313 C 29.784 -1.52037 -3.02659 0
M  V30 314 C 28.83 -2.71981 -3.28525 0
M  V30 315 S 29.663 -4.33869 -3.13876 0
M  V30 316 C 30.819 -4.30067 -4.54745 0
M  V30 317 H 31.052 -2.53256 -1.55719 0
M  V30 318 H 28.585 -1.37358 -0.705143 0
M  V30 319 H 30.543 -1.49023 -3.82495 0
M  V30 320 H 29.204 -0.585541 -3.08594 0
M  V30 321 H 28.397 -2.63656 -4.29536 0
M  V30 322 H 27.999 -2.72302 -2.56374 0
M  V30 323 H 30.291 -4.00521 -5.46433 0
M  V30 324 H 31.234 -5.31287 -4.68123 0
M  V30 325 H 31.642 -3.60419 -4.34463 0
M  V30 326 N 31.0401 0.771051 -1.3745 0
M  V30 327 C 32.0031 1.86598 -1.33093 0
M  V30 328 C 33.0031 1.59076 -0.234845 0
M  V30 329 O 34.1931 1.67145 -0.490732 0
M  V30 330 C 31.3251 3.23747 -1.06773 0
M  V30 331 H 32.5181 1.91873 -2.30488 0
M  V30 332 H 30.0711 0.970876 -1.2249 0
M  V30 333 H 30.8061 3.24148 -0.099129 0
M  V30 334 H 30.5911 3.45115 -1.86112 0
M  V30 335 H 32.0811 4.03824 -1.06377 0
M  V30 336 N 32.5182 1.22032 0.997298 0
M  V30 337 C 33.4662 0.983634 2.10778 0
M  V30 338 C 34.4602 -0.0717564 1.69248 0
M  V30 339 O 35.6662 0.080304 1.79821 0
M  V30 340 H 32.0412 0.300877 0.689186 0
M  V30 341 H 34.0122 1.92606 2.27916 0
M  V30 342 C 32.7612 0.57326 3.42942 0
M  V30 343 H 32.0842 1.37702 3.75338 0
M  V30 344 H 33.5242 0.447031 4.21637 0
M  V30 345 C 31.9832 -0.7167 3.29188 0
M  V30 346 O 32.5132 -1.77027 3.60589 0
M  V30 347 N 30.7192 -0.686167 2.82383 0
M  V30 348 H 30.2662 0.171507 2.57028 0
M  V30 349 H 30.2242 -1.54955 2.73562 0
M  V30 350 N 33.9963 -1.19345 1.0293 0
M  V30 351 C 34.9063 -2.26245 0.620515 0
M  V30 352 C 35.9223 -1.70486 -0.347928 0
M  V30 353 O 37.0983 -2.00347 -0.205704 0
M  V30 354 C 34.1633 -3.46693 -0.0218957 0
M  V30 355 C 33.2243 -4.17632 0.994102 0
M  V30 356 C 32.4573 -5.32329 0.382253 0
M  V30 357 O 32.6803 -5.64552 -0.814676 0
M  V30 358 O 31.6143 -5.91664 1.10531 0
M  V30 359 H 35.4403 -2.63453 1.51083 0
M  V30 360 H 33.0253 -1.26207 0.799513 0
M  V30 361 H 34.9073 -4.19683 -0.380072 0
M  V30 362 H 33.5823 -3.11333 -0.886209 0
M  V30 363 H 32.4893 -3.4676 1.40387 0
M  V30 364 H 33.8223 -4.56964 1.8288 0
M  V30 365 N 35.4744 -0.807222 -1.35358 0
M  V30 366 C 36.7204 -0.388463 -1.99045 0
M  V30 367 C 37.0534 1.04184 -1.63888 0
M  V30 368 O 36.3284 1.72292 -0.902535 0
M  V30 369 C 36.6114 -0.572783 -3.55515 0
M  V30 370 C 36.4644 -2.04807 -4.00468 0
M  V30 371 C 37.7834 0.00114064 -4.401 0
M  V30 372 H 34.9024 -0.142619 -0.723069 0
M  V30 373 H 37.5444 -1.01687 -1.60498 0
M  V30 374 H 35.6944 -0.0378425 -3.88482 0
M  V30 375 H 37.3664 -2.64544 -3.77908 0
M  V30 376 H 35.6094 -2.54427 -3.51353 0
M  V30 377 H 36.2804 -2.12792 -5.09337 0
M  V30 378 H 38.7564 -0.455716 -4.13597 0
M  V30 379 H 37.6324 -0.157737 -5.48673 0
M  V30 380 H 37.8934 1.09488 -4.28328 0
M  V30 381 N 36.9525 1.47285 -0.560781 0
M  V30 382 C 37.8825 2.32857 0.173105 0
M  V30 383 C 38.8635 1.44009 0.905281 0
M  V30 384 O 40.0485 1.7286 0.885046 0
M  V30 385 C 37.1785 3.25861 1.20133 0
M  V30 386 C 36.1325 4.23978 0.585388 0
M  V30 387 C 35.4585 5.06332 1.7185 0
M  V30 388 C 36.7585 5.20242 -0.463178 0
M  V30 389 H 38.4525 2.94466 -0.541307 0
M  V30 390 H 35.9985 1.41601 -0.261764 0
M  V30 391 H 37.9515 3.84569 1.72293 0
M  V30 392 H 36.6755 2.62315 1.94573 0
M  V30 393 H 35.3345 3.66501 0.085054 0
M  V30 394 H 34.9825 4.39186 2.45203 0
M  V30 395 H 34.6825 5.72762 1.31213 0
M  V30 396 H 36.2065 5.67899 2.24329 0
M  V30 397 H 37.6205 5.73293 -0.027502 0
M  V30 398 H 36.0175 5.94896 -0.788627 0
M  V30 399 H 37.0875 4.65504 -1.35773 0
M  V30 400 N 38.4306 0.297415 1.54768 0
M  V30 401 C 39.6606 -0.315165 2.04182 0
M  V30 402 C 40.0686 -1.4834 1.17439 0
M  V30 403 O 39.4116 -1.82695 0.191891 0
M  V30 404 C 39.4736 -0.837583 3.49607 0
M  V30 405 C 39.1376 0.204912 4.5654 0
M  V30 406 C 40.1346 1.03214 5.09552 0
M  V30 407 C 37.8196 0.345578 5.0111 0
M  V30 408 C 39.8136 1.986 6.05671 0
M  V30 409 C 37.5006 1.30289 5.97049 0
M  V30 410 C 38.4986 2.12159 6.49213 0
M  V30 411 O 38.1866 3.06268 7.43273 0
M  V30 412 H 37.9186 -0.0729646 0.672051 0
M  V30 413 H 40.4726 0.433907 2.00765 0
M  V30 414 H 38.7026 -1.63712 3.50336 0
M  V30 415 H 40.3916 -1.36566 3.82236 0
M  V30 416 H 41.1576 0.934312 4.75916 0
M  V30 417 H 37.0366 -0.28171 4.60138 0
M  V30 418 H 40.5806 2.62542 6.46311 0
M  V30 419 H 36.4776 1.40145 6.30103 0
M  V30 420 H 37.2456 3.01205 7.61064 0
M  V30 421 N 39.9087 -1.5758 0.0250728 0
M  V30 422 C 40.8407 -2.06869 -0.986796 0
M  V30 423 C 41.8537 -0.991332 -1.29137 0
M  V30 424 O 43.0427 -1.26761 -1.25674 0
M  V30 425 C 40.1427 -2.47486 -2.31525 0
M  V30 426 C 39.3157 -3.78253 -2.19643 0
M  V30 427 C 38.3747 -4.05464 -3.35388 0
M  V30 428 O 37.4007 -4.75774 -3.12454 0
M  V30 429 N 38.6027 -3.55321 -4.59051 0
M  V30 430 H 41.3677 -2.94302 -0.566276 0
M  V30 431 H 38.9287 -1.6109 -0.161776 0
M  V30 432 H 40.9207 -2.62785 -3.07776 0
M  V30 433 H 39.4907 -1.65441 -2.65232 0
M  V30 434 H 38.7107 -3.7279 -1.28144 0
M  V30 435 H 39.9987 -4.63936 -2.08903 0
M  V30 436 H 39.3967 -2.98431 -4.80578 0
M  V30 437 H 37.9537 -3.75905 -5.32483 0
M  V30 438 N 41.3868 0.248026 -1.55636 0
M  V30 439 C 42.3498 1.29044 -1.89421 0
M  V30 440 C 43.3498 1.41134 -0.770581 0
M  V30 441 O 44.5398 1.39854 -1.03858 0
M  V30 442 C 41.6718 2.66831 -2.12165 0
M  V30 443 H 42.8648 1.00305 -2.82629 0
M  V30 444 H 40.4178 0.487265 -1.48511 0
M  V30 445 H 41.1528 3.00711 -1.21422 0
M  V30 446 H 40.9378 2.59438 -2.93997 0
M  V30 447 H 42.4278 3.42103 -2.3949 0
M  V30 448 N 42.8649 1.48995 0.513639 0
M  V30 449 C 44.1129 1.57531 1.26604 0
M  V30 450 C 44.4339 0.258236 1.93283 0
M  V30 451 O 43.7039 -0.721502 1.8213 0
M  V30 452 H 42.2839 0.580387 0.470276 0
M  V30 453 H 44.9459 1.85552 0.596373 0
M  V30 454 H 44.0419 2.36486 2.03669 0
M  V30 455 N 44.343 -0.763751 1.37857 0
M  V30 456 C 45.273 -1.89103 1.36975 0
M  V30 457 C 46.254 -1.68439 0.237152 0
M  V30 458 O 47.439 -1.8918 0.438713 0
M  V30 459 C 44.569 -3.26496 1.18395 0
M  V30 460 C 43.523 -3.61741 2.28751 0
M  V30 461 C 42.849 -4.97762 1.95286 0
M  V30 462 C 44.149 -3.67665 3.70972 0
M  V30 463 H 45.843 -1.90099 2.31307 0
M  V30 464 H 43.389 -0.91319 1.11341 0
M  V30 465 H 45.342 -4.05003 1.16406 0
M  V30 466 H 44.066 -3.25955 0.205215 0
M  V30 467 H 42.725 -2.85547 2.29909 0
M  V30 468 H 42.373 -4.93769 0.959221 0
M  V30 469 H 42.073 -5.22313 2.69189 0
M  V30 470 H 43.597 -5.7866 1.94898 0
M  V30 471 H 45.011 -4.36307 3.719 0
M  V30 472 H 43.408 -4.03718 4.43995 0
M  V30 473 H 44.478 -2.68134 4.0402 0
M  V30 474 N 45.8211 -1.22559 -0.990812 0
M  V30 475 C 47.0981 -0.959875 -1.70428 0
M  V30 476 C 47.4781 0.524455 -2.04481 0
M  V30 477 O 46.8261 1.49302 -1.72977 0
M  V30 478 C 47.0361 -1.85955 -2.95333 0
M  V30 479 C 48.3841 -2.11687 -3.68068 0
M  V30 480 O 49.4081 -1.8342 -3.05345 0
M  V30 481 O 48.2671 -2.59572 -4.80921 0
M  V30 482 H 45.3611 -0.361154 -0.743974 0
M  V30 483 H 47.9071 -1.33554 -1.04697 0
M  V30 484 H 46.6791 -2.86346 -2.66687 0
M  V30 485 H 46.3021 -1.4856 -3.68803 0
M  V30 486 N 47.2992 1.18797 -1.03562 0
M  V30 487 C 48.2092 2.25913 -0.632505 0
M  V30 488 C 49.2252 1.70668 0.338882 0
M  V30 489 O 50.4012 2.00453 0.195076 0
M  V30 490 C 47.4662 3.467 0.00350942 0
M  V30 491 C 46.5272 4.17098 -1.01624 0
M  V30 492 C 45.7602 5.32119 -0.410478 0
M  V30 493 O 45.9832 5.64976 0.784725 0
M  V30 494 O 44.9172 5.9107 -1.13667 0
M  V30 495 H 48.7432 2.62648 -1.52478 0
M  V30 496 H 46.3282 1.25781 -0.806195 0
M  V30 497 H 48.2102 4.19878 0.35781 0
M  V30 498 H 46.8852 3.11798 0.869686 0
M  V30 499 H 45.7922 3.4601 -1.42224 0
M  V30 500 H 47.1252 4.55987 -1.85301 0
M  V30 501 N 48.7773 0.814389 1.34928 0
M  V30 502 C 50.0263 0.394871 1.97797 0
M  V30 503 C 50.3393 -1.04555 1.65311 0
M  V30 504 O 51.5453 -1.56856 2.21604 0
M  V30 505 C 50.0013 0.655103 3.53888 0
M  V30 506 C 49.6093 2.10858 3.95276 0
M  V30 507 C 51.3533 0.301329 4.23429 0
M  V30 508 C 49.2603 2.31415 5.44244 0
M  V30 509 H 48.1903 0.143913 0.740139 0
M  V30 510 H 50.8413 0.999544 1.53888 0
M  V30 511 H 49.2233 -0.0196253 3.95995 0
M  V30 512 H 50.3973 2.82176 3.64298 0
M  V30 513 H 48.7123 2.42297 3.38646 0
M  V30 514 H 51.3093 0.432869 5.32945 0
M  V30 515 H 51.6523 -0.75331 4.09428 0
M  V30 516 H 52.1853 0.930288 3.86769 0
M  V30 517 H 48.9243 3.35353 5.63222 0
M  V30 518 H 48.4443 1.6463 5.76764 0
M  V30 519 H 50.1233 2.13352 6.10811 0
M  V30 520 N 50.2554 -1.46986 0.568584 0
M  V30 521 C 51.5014 -2.0332 0.0571487 0
M  V30 522 C 51.8564 -1.43384 -1.28291 0
M  V30 523 O 51.1494 -0.584304 -1.82473 0
M  V30 524 C 51.3434 -3.57306 -0.081836 0
M  V30 525 C 51.1724 -4.32174 1.24321 0
M  V30 526 C 49.9424 -4.71633 1.81358 0
M  V30 527 C 52.1404 -4.66598 2.16312 0
M  V30 528 N 50.1224 -5.31191 3.07748 0
M  V30 529 C 51.4934 -5.26578 3.27285 0
M  V30 530 C 53.5484 -4.48527 2.16166 0
M  V30 531 C 52.2514 -5.70395 4.38226 0
M  V30 532 C 54.2774 -4.93351 3.26127 0
M  V30 533 C 53.6394 -5.5339 4.3582 0
M  V30 534 H 49.7384 -0.77943 0.063351 0
M  V30 535 H 52.3224 -1.79323 0.758378 0
M  V30 536 H 50.4934 -3.81046 -0.752207 0
M  V30 537 H 52.2254 -4.00282 -0.59637 0
M  V30 538 H 48.9804 -4.53946 1.35019 0
M  V30 539 H 49.4044 -5.65505 3.72201 0
M  V30 540 H 54.0464 -4.01456 1.32638 0
M  V30 541 H 51.7644 -6.16452 5.22506 0
M  V30 542 H 55.3504 -4.81131 3.27115 0
M  V30 543 H 54.2304 -5.87441 5.19503 0
M  V30 544 N 51.7335 -0.305618 -1.54608 0
M  V30 545 C 52.9805 0.302298 -2.00231 0
M  V30 546 C 53.3085 1.5354 -1.19398 0
M  V30 547 O 52.5635 1.93973 -0.259423 0
M  V30 548 C 52.8625 0.698983 -3.50498 0
M  V30 549 C 52.5285 -0.432903 -4.48817 0
M  V30 550 C 51.1905 -0.743622 -4.75419 0
M  V30 551 C 53.5425 -1.19409 -5.07337 0
M  V30 552 C 50.8705 -1.81857 -5.57804 0
M  V30 553 C 53.2225 -2.25899 -5.90891 0
M  V30 554 C 51.8865 -2.57572 -6.15803 0
M  V30 555 H 51.1565 0.110619 -0.732697 0
M  V30 556 H 53.8035 -0.425674 -1.86709 0
M  V30 557 H 52.1085 1.50711 -3.61654 0
M  V30 558 H 53.8055 1.1806 -3.83227 0
M  V30 559 H 50.3955 -0.18063 -4.28219 0
M  V30 560 H 54.5795 -0.967295 -4.86782 0
M  V30 561 H 49.8355 -2.06864 -5.75341 0
M  V30 562 H 54.0095 -2.85335 -6.35261 0
M  V30 563 H 51.6365 -3.40998 -6.7943 0
M  V30 564 N 53.2116 1.57565 -0.0334293 0
M  V30 565 C 54.1446 2.05997 0.981866 0
M  V30 566 C 55.1226 0.956647 1.3148 0
M  V30 567 O 56.3066 1.22729 1.43073 0
M  V30 568 C 53.4336 2.48564 2.30074 0
M  V30 569 C 52.4796 3.69958 2.12211 0
M  V30 570 S 53.3126 5.16414 1.41692 0
M  V30 571 C 54.4686 5.6228 2.7494 0
M  V30 572 H 54.7016 2.91792 0.569612 0
M  V30 573 H 52.2346 1.53366 0.178376 0
M  V30 574 H 54.1926 2.73753 3.05892 0
M  V30 575 H 52.8536 1.63106 2.68431 0
M  V30 576 H 52.0466 3.97603 3.09722 0
M  V30 577 H 51.6486 3.44943 1.44535 0
M  V30 578 H 53.9406 5.66783 3.71165 0
M  V30 579 H 54.8836 6.61759 2.51953 0
M  V30 580 H 55.2916 4.89944 2.80384 0
M  V30 581 N 54.6897 -0.239769 1.55765 0
M  V30 582 C 56.1007 -0.808263 1.68297 0
M  V30 583 C 56.4517 -1.85736 0.632181 0
M  V30 584 O 55.5767 -2.15277 -0.220204 0
M  V30 585 C 56.1717 -1.47284 3.05111 0
M  V30 586 C 54.7307 -1.98895 3.19559 0
M  V30 587 C 53.8777 -0.842575 2.64189 0
M  V30 588 H 56.8287 -0.0154422 1.58692 0
M  V30 589 H 56.8497 -2.34111 2.99954 0
M  V30 590 H 56.3617 -0.709053 3.81568 0
M  V30 591 H 54.4627 -2.78132 2.47938 0
M  V30 592 H 54.5757 -2.18143 4.26556 0
M  V30 593 H 52.9397 -1.24501 2.22197 0
M  V30 594 H 53.7227 -0.0917552 3.43177 0
M  V30 595 N 56.1678 -1.49265 -0.50573 0
M  V30 596 C 57.1158 -1.66065 -1.62866 0
M  V30 597 C 58.1098 -0.526636 -1.61006 0
M  V30 598 O 59.3158 -0.706126 -1.65571 0
M  V30 599 H 55.6908 -0.52356 -0.539805 0
M  V30 600 H 57.6618 -2.60329 -1.45848 0
M  V30 601 C 56.4108 -1.74008 -3.01026 0
M  V30 602 H 55.7338 -2.6064 -3.03161 0
M  V30 603 H 57.1738 -1.89798 -3.79147 0
M  V30 604 C 55.6328 -0.483868 -3.33407 0
M  V30 605 O 56.1628 0.392548 -3.99777 0
M  V30 606 N 54.3688 -0.348236 -2.88506 0
M  V30 607 H 53.9158 -1.06242 -2.34671 0
M  V30 608 H 53.8738 0.491204 -3.10539 0
M  V30 609 N 57.6459 0.756429 -1.3826 0
M  V30 610 C 58.5779 1.87971 -1.31147 0
M  V30 611 C 59.5909 1.61248 -0.224239 0
M  V30 612 O 60.7799 1.71881 -0.481581 0
M  V30 613 C 57.8799 3.23545 -1.00857 0
M  V30 614 C 57.0529 3.77794 -2.20432 0
M  V30 615 C 56.1119 4.91877 -1.86931 0
M  V30 616 O 55.1379 5.06659 -2.59395 0
M  V30 617 N 56.3399 5.74643 -0.822568 0
M  V30 618 H 59.1049 1.94585 -2.2794 0
M  V30 619 H 56.6659 0.936234 -1.32084 0
M  V30 620 H 58.6579 3.97403 -0.765021 0
M  V30 621 H 57.2279 3.12335 -0.128687 0
M  V30 622 H 56.4479 2.95534 -2.6087 0
M  V30 623 H 57.7359 4.10771 -3.00241 0
M  V30 624 H 57.1339 5.65266 -0.221575 0
M  V30 625 H 55.6909 6.48661 -0.638899 0
M  V30 626 N 59.124 1.23083 0.984299 0
M  V30 627 C 60.373 1.05466 1.71929 0
M  V30 628 C 60.686 -0.409211 1.91272 0
M  V30 629 O 61.892 -0.705226 2.62181 0
M  V30 630 C 60.348 1.83874 3.09384 0
M  V30 631 C 59.956 3.34566 2.97943 0
M  V30 632 C 61.7 1.74734 3.8687 0
M  V30 633 C 59.607 4.05381 4.30605 0
M  V30 634 H 58.537 0.391039 0.644674 0
M  V30 635 H 61.188 1.47013 1.09815 0
M  V30 636 H 59.57 1.35131 3.72231 0
M  V30 637 H 60.744 3.90767 2.44209 0
M  V30 638 H 59.059 3.44476 2.33934 0
M  V30 639 H 61.656 2.24957 4.85076 0
M  V30 640 H 61.999 0.709372 4.10212 0
M  V30 641 H 62.532 2.21067 3.30717 0
M  V30 642 H 59.271 5.09467 4.1246 0
M  V30 643 H 58.791 3.53967 4.84218 0
M  V30 644 H 60.47 4.11458 4.99311 0
M  V30 645 N 60.6021 -1.18246 1.0419 0
M  V30 646 C 62.0131 -1.69914 0.773698 0
M  V30 647 C 62.3641 -1.83085 -0.705297 0
M  V30 648 O 61.4891 -1.51123 -1.5489 0
M  V30 649 C 62.0841 -3.08619 1.39784 0
M  V30 650 C 60.6431 -3.57494 1.17792 0
M  V30 651 C 59.7901 -2.34013 1.48773 0
M  V30 652 H 62.7411 -1.02904 1.20816 0
M  V30 653 H 62.7621 -3.71958 0.801714 0
M  V30 654 H 62.2741 -2.99001 2.47426 0
M  V30 655 H 60.3751 -3.72406 0.120295 0
M  V30 656 H 60.4881 -4.40852 1.87581 0
M  V30 657 H 58.8521 -2.37986 0.907463 0
M  V30 658 H 59.6351 -2.27013 2.57527 0
M  V30 659 N 62.0802 -0.821533 -1.34494 0
M  V30 660 C 63.4912 -0.467956 -1.8074 0
M  V30 661 C 63.8422 1.01151 -1.68116 0
M  V30 662 O 62.9672 1.78707 -1.22036 0
M  V30 663 C 63.5622 -0.842627 -3.28154 0
M  V30 664 C 62.1212 -0.541439 -3.72485 0
M  V30 665 C 61.2682 -1.06028 -2.56229 0
M  V30 666 H 64.2192 -1.01183 -1.22261 0
M  V30 667 H 64.2402 -0.145876 -3.8022 0
M  V30 668 H 63.7522 -1.91945 -3.37311 0
M  V30 669 H 61.8532 0.526034 -3.68868 0
M  V30 670 H 61.9662 -1.08453 -4.66663 0
M  V30 671 H 60.3302 -0.481892 -2.501 0
M  V30 672 H 61.1132 -2.14352 -2.68157 0
M  V30 673 N 63.5583 1.46682 -0.576371 0
M  V30 674 C 64.5083 2.27278 0.181288 0
M  V30 675 C 65.4923 1.35497 0.867721 0
M  V30 676 O 66.6843 1.59717 0.762863 0
M  V30 677 C 63.8133 3.21703 1.19841 0
M  V30 678 C 62.8993 4.20969 0.51442 0
M  V30 679 N 63.2903 5.03999 -0.426407 0
M  V30 680 C 61.5883 4.39373 0.765963 0
M  V30 681 C 62.2893 5.75812 -0.825565 0
M  V30 682 N 61.2653 5.43315 -0.176116 0
M  V30 683 H 65.0673 2.88863 -0.541785 0
M  V30 684 H 62.5813 1.57455 -0.397697 0
M  V30 685 H 64.5783 3.78145 1.75533 0
M  V30 686 H 63.2383 2.61677 1.92238 0
M  V30 687 H 64.2493 5.11659 -0.8016 0
M  V30 688 H 60.9263 3.90502 1.47698 0
M  V30 689 H 62.3163 6.52577 -1.59976 0
M  V30 690 N 65.0364 0.313813 1.54444 0
M  V30 691 C 65.9834 -0.55655 2.23989 0
M  V30 692 C 66.9534 -1.11943 1.22711 0
M  V30 693 O 68.1384 -1.16158 1.51367 0
M  V30 694 C 65.2784 -1.71635 2.99392 0
M  V30 695 C 64.3914 -1.18364 4.15468 0
M  V30 696 C 63.5264 -2.30834 4.78424 0
M  V30 697 C 62.5654 -1.74762 5.86622 0
M  V30 698 N 61.7024 -2.80855 6.43479 0
M  V30 699 H 66.5424 0.0430893 2.97969 0
M  V30 700 H 64.0794 0.0330359 1.47063 0
M  V30 701 H 66.0374 -2.39868 3.41349 0
M  V30 702 H 64.6674 -2.28742 2.27765 0
M  V30 703 H 63.7194 -0.393163 3.78363 0
M  V30 704 H 65.0314 -0.733262 4.93381 0
M  V30 705 H 64.1854 -3.0699 5.23299 0
M  V30 706 H 62.9244 -2.79204 3.99871 0
M  V30 707 H 61.9294 -0.970995 5.41158 0
M  V30 708 H 63.1544 -1.2728 6.67066 0
M  V30 709 H 61.1004 -3.28535 5.67804 0
M  V30 710 H 61.0174 -2.40351 7.16776 0
M  V30 711 H 62.2854 -3.5687 6.93011 0
M  V30 712 N 66.5145 -1.57545 0.0417849 0
M  V30 713 C 67.4465 -2.07904 -0.964799 0
M  V30 714 C 68.4595 -1.00497 -1.28079 0
M  V30 715 O 69.6485 -1.28087 -1.24322 0
M  V30 716 C 66.7485 -2.49928 -2.28887 0
M  V30 717 C 65.9215 -3.80562 -2.15619 0
M  V30 718 C 64.9805 -4.08999 -3.31069 0
M  V30 719 O 64.0065 -4.79061 -3.0739 0
M  V30 720 N 65.2085 -3.6017 -4.55256 0
M  V30 721 H 67.9735 -2.94886 -0.535029 0
M  V30 722 H 65.5345 -1.61252 -0.144681 0
M  V30 723 H 67.5265 -2.66034 -3.04972 0
M  V30 724 H 66.0965 -1.68245 -2.63463 0
M  V30 725 H 65.3165 -3.74129 -1.24183 0
M  V30 726 H 66.6045 -4.66126 -2.03971 0
M  V30 727 H 66.0025 -3.03512 -4.77386 0
M  V30 728 H 64.5595 -3.81532 -5.28466 0
M  V30 729 N 67.9926 0.231505 -1.5589 0
M  V30 730 C 68.9406 1.30649 -1.92441 0
M  V30 731 C 69.9346 1.49037 -0.805254 0
M  V30 732 O 71.1406 1.50329 -0.990007 0
M  V30 733 H 67.5156 0.437812 -0.611412 0
M  V30 734 H 69.4866 0.970973 -2.82161 0
M  V30 735 C 68.2356 2.65179 -2.24889 0
M  V30 736 H 67.5586 2.51835 -3.10514 0
M  V30 737 H 68.9986 3.39234 -2.54355 0
M  V30 738 C 67.4576 3.19439 -1.07054 0
M  V30 739 O 67.9876 4.00371 -0.326499 0
M  V30 740 N 66.1936 2.77675 -0.85703 0
M  V30 741 H 65.7406 2.11969 -1.46379 0
M  V30 742 H 65.6986 3.14321 -0.0703223 0
M  V30 743 N 69.4707 1.49531 0.497807 0
M  V30 744 C 70.3807 1.69176 1.62532 0
M  V30 745 C 71.3967 0.5744 1.64246 0
M  V30 746 O 72.5727 0.849497 1.82608 0
M  V30 747 C 69.6377 1.75695 2.98885 0
M  V30 748 C 68.6987 2.9929 3.07773 0
M  V30 749 C 67.9317 3.05488 4.37622 0
M  V30 750 O 68.1547 2.19192 5.26603 0
M  V30 751 O 67.0887 3.9798 4.51548 0
M  V30 752 H 70.9147 2.647 1.48887 0
M  V30 753 H 68.4997 1.3331 0.674441 0
M  V30 754 H 70.3817 1.82317 3.79919 0
M  V30 755 H 69.0567 0.8335 3.12785 0
M  V30 756 H 67.9637 2.98183 2.25915 0
M  V30 757 H 69.2967 3.91125 2.98801 0
M  V30 758 N 70.9488 -0.749086 1.3866 0
M  V30 759 C 72.2258 -1.4992 1.25632 0
M  V30 760 C 72.6058 -2.10633 -0.140317 0
M  V30 761 O 71.9538 -1.97437 -1.15025 0
M  V30 762 C 72.1638 -2.56195 2.36992 0
M  V30 763 C 73.5118 -3.22972 2.75634 0
M  V30 764 O 74.5358 -2.66502 2.36337 0
M  V30 765 O 73.3948 -4.25122 3.43415 0
M  V30 766 H 70.4888 -0.665067 0.491544 0
M  V30 767 H 73.0348 -0.784113 1.50498 0
M  V30 768 H 71.8068 -2.09612 3.30422 0
M  V30 769 H 71.4298 -3.35279 2.13714 0
M  V30 770 N 72.4269 -1.23603 -0.977757 0
M  V30 771 C 73.6569 -1.09487 -1.75203 0
M  V30 772 C 74.0649 0.356321 -1.85814 0
M  V30 773 O 73.4079 1.25816 -1.33851 0
M  V30 774 C 73.4699 -1.64905 -3.19447 0
M  V30 775 C 73.1339 -3.13688 -3.32338 0
M  V30 776 C 74.1309 -4.10953 -3.18455 0
M  V30 777 C 71.8159 -3.53449 -3.56902 0
M  V30 778 C 73.8099 -5.45962 -3.28944 0
M  V30 779 C 71.4969 -4.88602 -3.6703 0
M  V30 780 C 72.4949 -5.84668 -3.53062 0
M  V30 781 O 72.1829 -7.17365 -3.62826 0
M  V30 782 H 71.9149 -0.38367 -0.556573 0
M  V30 783 H 74.4689 -1.6398 -1.23693 0
M  V30 784 H 72.6989 -1.04835 -3.72218 0
M  V30 785 H 74.3879 -1.46226 -3.78646 0
M  V30 786 H 75.1539 -3.81577 -2.99372 0
M  V30 787 H 71.0329 -2.79188 -3.66844 0
M  V30 788 H 74.5769 -6.20925 -3.17958 0
M  V30 789 H 70.4739 -5.17653 -3.85623 0
M  V30 790 H 71.2419 -7.2515 -3.79605 0
M  V30 791 N 73.905 1.17692 -1.04816 0
M  V30 792 C 75.133 1.91786 -0.776254 0
M  V30 793 C 75.548 1.76604 0.667577 0
M  V30 794 O 74.905 1.10067 1.45573 0
M  V30 795 C 74.956 3.42967 -1.14263 0
M  V30 796 O 74.677 3.57678 -2.52978 0
M  V30 797 C 76.178 4.34144 -0.896311 0
M  V30 798 H 73.398 0.608624 -0.282519 0
M  V30 799 H 75.942 1.49268 -1.39783 0
M  V30 800 H 74.097 3.83245 -0.565874 0
M  V30 801 H 74.511 4.51319 -2.67229 0
M  V30 802 H 75.985 5.38744 -1.20244 0
M  V30 803 H 76.462 4.38876 0.168636 0
M  V30 804 H 77.068 3.99574 -1.45672 0
M  V30 805 N 75.3831 0.828654 1.34056 0
M  V30 806 C 76.6601 0.341809 1.9259 0
M  V30 807 C 77.0401 -1.17158 1.75605 0
M  V30 808 O 76.3881 -1.98132 1.13824 0
M  V30 809 C 76.5981 0.777453 3.4023 0
M  V30 810 C 77.9461 0.779579 4.17382 0
M  V30 811 O 78.9701 0.7204 3.48839 0
M  V30 812 O 77.8291 0.857996 5.39723 0
M  V30 813 H 74.9231 0.0946085 0.821571 0
M  V30 814 H 77.4691 0.913827 1.42994 0
M  V30 815 H 76.2411 1.8196 3.46419 0
M  V30 816 H 75.8641 0.181444 3.97186 0
M  V30 817 N 76.8612 -1.46375 0.584142 0
M  V30 818 C 78.0862 -2.07268 0.0740405 0
M  V30 819 C 78.5112 -1.42979 -1.22223 0
M  V30 820 O 77.8692 -0.514092 -1.73859 0
M  V30 821 C 77.9172 -3.60518 -0.0767769 0
M  V30 822 O 77.0212 -3.96533 -1.13292 0
M  V30 823 H 76.3622 -0.660961 0.0634524 0
M  V30 824 H 78.8922 -1.87991 0.807492 0
M  V30 825 H 78.9022 -4.07021 -0.282489 0
M  V30 826 H 77.5772 -4.06702 0.86986 0
M  V30 827 H 76.1542 -3.61738 -0.905553 0
M  V30 828 N 78.3393 -0.321999 -1.54275 0
M  V30 829 C 79.5863 0.281044 -2.0054 0
M  V30 830 C 79.9143 1.52265 -1.21019 0
M  V30 831 O 79.1693 1.93687 -0.279982 0
M  V30 832 C 79.4683 0.661769 -3.5122 0
M  V30 833 C 79.1343 -0.480482 -4.48333 0
M  V30 834 C 77.7963 -0.794005 -4.74604 0
M  V30 835 C 80.1483 -1.24783 -5.06042 0
M  V30 836 C 77.4763 -1.87763 -5.55844 0
M  V30 837 C 79.8283 -2.32153 -5.88462 0
M  V30 838 C 78.4923 -2.64089 -6.13036 0
M  V30 839 H 77.7623 0.102841 -0.733829 0
M  V30 840 H 80.4093 -0.445453 -1.86247 0
M  V30 841 H 78.7143 1.46867 -3.63232 0
M  V30 842 H 80.4113 1.13989 -3.84457 0
M  V30 843 H 77.0013 -0.226039 -4.28004 0
M  V30 844 H 81.1853 -1.01887 -4.85729 0
M  V30 845 H 76.4413 -2.12954 -5.73115 0
M  V30 846 H 80.6153 -2.92057 -6.32199 0
M  V30 847 H 78.2423 -3.48185 -6.75775 0
M  V30 848 N 79.8174 1.5752 -0.0501392 0
M  V30 849 C 80.7674 2.07981 0.934231 0
M  V30 850 C 81.7514 0.984745 1.27246 0
M  V30 851 O 82.9434 1.24809 1.25506 0
M  V30 852 C 80.0724 2.62751 2.20945 0
M  V30 853 C 79.1584 3.79225 1.89865 0
M  V30 854 N 79.5494 4.89036 1.29142 0
M  V30 855 C 77.8474 3.88111 2.19741 0
M  V30 856 C 78.5484 5.70084 1.15669 0
M  V30 857 N 77.5244 5.17659 1.65923 0
M  V30 858 H 81.3264 2.90277 0.460053 0
M  V30 859 H 78.8404 1.61665 0.15434 0
M  V30 860 H 80.8374 2.97205 2.9236 0
M  V30 861 H 79.4974 1.81894 2.6897 0
M  V30 862 H 80.5084 5.08854 0.963756 0
M  V30 863 H 77.1854 3.18194 2.70293 0
M  V30 864 H 78.5754 6.68395 0.685356 0
M  V30 865 N 81.2955 -0.223234 1.56011 0
M  V30 866 C 82.7115 -0.572856 1.48965 0
M  V30 867 C 82.9115 -1.87225 0.74492 0
M  V30 868 O 81.9675 -2.50899 0.283896 0
M  V30 869 C 83.2805 -0.653646 2.9351 0
M  V30 870 C 84.8285 -0.744386 3.0402 0
M  V30 871 C 85.3035 -0.856535 4.49919 0
M  V30 872 N 86.7945 -0.9208 4.53955 0
M  V30 873 C 87.5295 -1.02726 5.64123 0
M  V30 874 N 87.0255 -1.09777 6.84047 0
M  V30 875 N 88.8185 -1.06226 5.51971 0
M  V30 876 H 80.9695 0.629462 2.02858 0
M  V30 877 H 83.2325 0.220621 0.921971 0
M  V30 878 H 82.9385 0.231518 3.50937 0
M  V30 879 H 82.8125 -1.51781 3.45315 0
M  V30 880 H 85.1995 -1.61999 2.46658 0
M  V30 881 H 85.2805 0.14541 2.55386 0
M  V30 882 H 84.9245 0.0146069 5.07898 0
M  V30 883 H 84.8545 -1.76172 4.96257 0
M  V30 884 H 87.3455 -0.876694 3.6759 0
M  V30 885 H 87.6585 -1.17872 7.63758 0
M  V30 886 H 86.0035 -1.06693 6.86762 0
M  V30 887 H 89.1945 -1.00382 4.5721 0
M  V30 888 H 89.3675 -1.14177 6.37862 0
M  V30 889 N 82.7736 -1.49793 -0.48987 0
M  V30 890 C 84.0196 -1.60078 -1.24511 0
M  V30 891 C 84.3526 -0.291608 -1.91998 0
M  V30 892 O 83.6276 0.705647 -1.81248 0
M  V30 893 C 83.9106 -2.76791 -2.30345 0
M  V30 894 C 83.7636 -4.17535 -1.67286 0
M  V30 895 C 85.0826 -2.89111 -3.31817 0
M  V30 896 H 82.2016 -0.582645 -0.451324 0
M  V30 897 H 84.8436 -1.82117 -0.541612 0
M  V30 898 H 82.9936 -2.5813 -2.90346 0
M  V30 899 H 84.6656 -4.4774 -1.11026 0
M  V30 900 H 82.9086 -4.22665 -0.976577 0
M  V30 901 H 83.5796 -4.95094 -2.44103 0
M  V30 902 H 86.0556 -3.06133 -2.81819 0
M  V30 903 H 84.9316 -3.72433 -4.03219 0
M  V30 904 H 85.1926 -1.9893 -3.94815 0
M  V30 905 N 84.2517 0.741722 -1.39055 0
M  V30 906 C 85.1617 1.88621 -1.39496 0
M  V30 907 C 86.1777 1.71557 -0.290578 0
M  V30 908 O 87.3537 1.94275 -0.530954 0
M  V30 909 C 84.4187 3.24134 -1.23037 0
M  V30 910 C 83.4797 3.5364 -2.43387 0
M  V30 911 C 82.7127 4.82687 -2.27703 0
M  V30 912 O 82.9357 5.55922 -1.27696 0
M  V30 913 O 81.8697 5.1194 -3.16545 0
M  V30 914 H 85.6957 1.91203 -2.35956 0
M  V30 915 H 83.2807 0.888625 -1.20099 0
M  V30 916 H 85.1627 4.0513 -1.15964 0
M  V30 917 H 83.8377 3.22337 -0.296691 0
M  V30 918 H 82.7447 2.72758 -2.56035 0
M  V30 919 H 84.0777 3.60209 -3.35425 0
M  V30 920 N 85.7298 1.2412 0.971189 0
M  V30 921 C 86.6628 0.97373 2.06382 0
M  V30 922 C 87.6408 -0.0912662 1.62344 0
M  V30 923 O 88.8248 0.0449365 1.88446 0
M  V30 924 C 85.9518 0.468746 3.35441 0
M  V30 925 C 84.9978 1.52176 3.98428 0
M  V30 926 S 85.8308 3.10203 4.36503 0
M  V30 927 C 86.9868 2.61398 5.68702 0
M  V30 928 H 87.2198 1.89893 2.28753 0
M  V30 929 H 84.7528 1.07466 1.10862 0
M  V30 930 H 86.7108 0.184012 4.10087 0
M  V30 931 H 85.3718 -0.435688 3.11064 0
M  V30 932 H 84.5648 1.11876 4.91426 0
M  V30 933 H 84.1668 1.75632 3.30196 0
M  V30 934 H 86.4588 2.03992 6.4606 0
M  V30 935 H 87.4018 3.52972 6.13854 0
M  V30 936 H 87.8098 2.01941 5.27143 0
M  V30 937 N 87.2079 -1.17134 1.05439 0
M  V30 938 C 88.1379 -2.2342 0.678649 0
M  V30 939 C 89.1189 -1.66971 -0.32476 0
M  V30 940 O 90.3039 -1.93149 -0.201802 0
M  V30 941 C 87.4339 -3.47256 0.0552099 0
M  V30 942 C 86.3879 -4.16543 0.98365 0
M  V30 943 C 85.7139 -5.34231 0.223961 0
M  V30 944 C 87.0139 -4.68495 2.3089 0
M  V30 945 H 88.7079 -2.55105 1.56722 0
M  V30 946 H 86.2539 -1.2262 0.754998 0
M  V30 947 H 88.2069 -4.20828 -0.21946 0
M  V30 948 H 86.9309 -3.14846 -0.868319 0
M  V30 949 H 85.5899 -3.44887 1.24293 0
M  V30 950 H 85.2379 -4.98071 -0.702412 0
M  V30 951 H 84.9379 -5.81527 0.842627 0
M  V30 952 H 86.4619 -6.10585 -0.0433671 0
M  V30 953 H 87.8759 -5.33691 2.09396 0
M  V30 954 H 86.2729 -5.26379 2.88176 0
M  V30 955 H 87.3429 -3.85169 2.94572 0
M  V30 956 N 88.686 -0.835752 -1.33615 0
M  V30 957 C 89.633 -0.26473 -2.29277 0
M  V30 958 C 90.603 0.617712 -1.54187 0
M  V30 959 O 91.788 0.556641 -1.825 0
M  V30 960 C 88.928 0.556777 -3.40579 0
M  V30 961 C 88.041 -0.349339 -4.30585 0
M  V30 962 C 87.176 0.482969 -5.29 0
M  V30 963 C 86.215 -0.421732 -6.10645 0
M  V30 964 N 85.352 0.372262 -7.01112 0
M  V30 965 H 90.192 -1.08582 -2.77514 0
M  V30 966 H 87.729 -0.546927 -1.36554 0
M  V30 967 H 89.687 1.04852 -4.03809 0
M  V30 968 H 88.317 1.34286 -2.93542 0
M  V30 969 H 87.369 -0.959372 -3.68104 0
M  V30 970 H 88.681 -1.04445 -4.87742 0
M  V30 971 H 87.835 1.03866 -5.97743 0
M  V30 972 H 86.574 1.21153 -4.72412 0
M  V30 973 H 85.579 -0.989464 -5.40823 0
M  V30 974 H 86.804 -1.14861 -6.69316 0
M  V30 975 H 84.75 1.08426 -6.46977 0
M  V30 976 H 84.667 -0.264198 -7.55538 0
M  V30 977 H 85.935 0.910293 -7.74167 0
M  V30 978 N 90.1641 1.46063 -0.591896 0
M  V30 979 C 91.0941 2.33172 0.123673 0
M  V30 980 C 92.0751 1.45897 0.87453 0
M  V30 981 O 93.2601 1.74698 0.848181 0
M  V30 982 C 90.3901 3.28336 1.13194 0
M  V30 983 C 89.3441 4.25124 0.495324 0
M  V30 984 C 88.6701 5.09863 1.61071 0
M  V30 985 C 89.9701 5.19143 -0.573425 0
M  V30 986 H 91.6641 2.93252 -0.603646 0
M  V30 987 H 89.2101 1.41014 -0.291741 0
M  V30 988 H 91.1631 3.88137 1.64097 0
M  V30 989 H 89.8871 2.66383 1.88965 0
M  V30 990 H 88.5461 3.66599 0.00729452 0
M  V30 991 H 88.1941 4.44288 2.35832 0
M  V30 992 H 87.8941 5.75417 1.19035 0
M  V30 993 H 89.4181 5.72529 2.12233 0
M  V30 994 H 90.8321 5.73106 -0.1491 0
M  V30 995 H 89.2291 5.93089 -0.914636 0
M  V30 996 H 90.2991 4.62519 -1.45617 0
M  V30 997 N 91.6422 0.330177 1.54103 0
M  V30 998 C 92.6052 -0.520144 2.2322 0
M  V30 999 C 93.6052 -1.03828 1.22786 0
M  V30 1000 O 94.7952 -0.929652 1.4732 0
M  V30 1001 C 91.9272 -1.72317 2.94142 0
M  V30 1002 H 93.1202 0.0841605 2.99782 0
M  V30 1003 H 90.6732 0.0813433 1.56088 0
M  V30 1004 H 91.4082 -2.36653 2.21734 0
M  V30 1005 H 91.1932 -1.35898 3.67796 0
M  V30 1006 H 92.6832 -2.3266 3.46784 0
M  V30 1007 N 93.1203 -1.57491 0.0584922 0
M  V30 1008 C 94.3693 -1.92155 -0.613146 0
M  V30 1009 C 94.6823 -0.939334 -1.71569 0
M  V30 1010 O 95.8883 -1.17829 -2.44599 0
M  V30 1011 C 94.3443 -3.41303 -1.14195 0
M  V30 1012 C 93.9523 -4.47944 -0.0711265 0
M  V30 1013 C 95.6963 -3.84988 -1.78841 0
M  V30 1014 C 93.6033 -5.88212 -0.613225 0
M  V30 1015 H 92.5333 -0.717162 -0.232796 0
M  V30 1016 H 95.1843 -1.83049 0.12857 0
M  V30 1017 H 93.5663 -3.45437 -1.93621 0
M  V30 1018 H 94.7403 -4.55408 0.702836 0
M  V30 1019 H 93.0553 -4.13644 0.478313 0
M  V30 1020 H 95.6523 -4.87159 -2.20408 0
M  V30 1021 H 95.9953 -3.21632 -2.64308 0
M  V30 1022 H 96.5283 -3.83401 -1.06059 0
M  V30 1023 H 93.2673 -6.55183 0.203978 0
M  V30 1024 H 92.7873 -5.84294 -1.35501 0
M  V30 1025 H 94.4663 -6.37687 -1.09383 0
M  V30 1026 N 94.5984 0.214957 -1.56127 0
M  V30 1027 C 95.5304 1.29004 -1.89448 0
M  V30 1028 C 96.5434 1.42716 -0.783326 0
M  V30 1029 O 97.7324 1.43496 -1.06166 0
M  V30 1030 C 94.8324 2.66482 -2.09381 0
M  V30 1031 C 94.0054 2.74633 -3.40434 0
M  V30 1032 C 93.0644 3.9317 -3.49719 0
M  V30 1033 O 92.0904 3.812 -4.227 0
M  V30 1034 N 93.2924 5.07765 -2.81346 0
M  V30 1035 H 96.0574 1.00743 -2.82261 0
M  V30 1036 H 93.6184 0.40497 -1.56753 0
M  V30 1037 H 95.6104 3.44173 -2.12901 0
M  V30 1038 H 94.1804 2.87314 -1.23163 0
M  V30 1039 H 93.4004 1.83368 -3.48955 0
M  V30 1040 H 94.6884 2.77054 -4.26754 0
M  V30 1041 H 94.0864 5.20386 -2.21843 0
M  V30 1042 H 92.6434 5.83474 -2.90519 0
M  V30 1043 N 96.0765 1.50051 0.48192 0
M  V30 1044 C 97.3015 1.64508 1.26301 0
M  V30 1045 C 97.7265 0.323851 1.85291 0
M  V30 1046 O 97.0845 -0.710969 1.66778 0
M  V30 1047 C 97.1325 2.7305 2.35533 0
M  V30 1048 O 96.2365 2.3355 3.39895 0
M  V30 1049 H 95.5775 0.549978 0.372048 0
M  V30 1050 H 98.1075 1.9636 0.574786 0
M  V30 1051 H 98.1175 2.95799 2.8101 0
M  V30 1052 H 96.7925 3.68946 1.91967 0
M  V30 1053 H 95.3695 2.21205 3.00204 0
M  V30 1054 N 97.5546 -0.734337 1.39446 0
M  V30 1055 C 98.5026 -1.86971 1.38364 0
M  V30 1056 C 99.4966 -1.67288 0.266687 0
M  V30 1057 O 100.703 -1.74621 0.436755 0
M  V30 1058 H 97.0776 -0.615474 0.432082 0
M  V30 1059 H 99.0486 -1.85 2.34132 0
M  V30 1060 C 97.7976 -3.2466 1.24465 0
M  V30 1061 H 97.1206 -3.40402 2.09682 0
M  V30 1062 H 98.5606 -4.04292 1.27764 0
M  V30 1063 C 97.0196 -3.36867 -0.0468674 0
M  V30 1064 O 97.5496 -3.88618 -1.01681 0
M  V30 1065 N 95.7556 -2.90391 -0.110145 0
M  V30 1066 H 95.3026 -2.48466 0.679868 0
M  V30 1067 H 95.2606 -2.98939 -0.973799 0
M  V30 1068 N 99.0327 -1.24633 -0.964593 0
M  V30 1069 C 100.444 -1.08045 -1.5226 0
M  V30 1070 C 100.795 0.347116 -1.93105 0
M  V30 1071 O 99.9197 1.23588 -1.77637 0
M  V30 1072 C 100.515 -1.95514 -2.76695 0
M  V30 1073 C 99.0737 -1.8314 -3.28841 0
M  V30 1074 C 98.2207 -1.90262 -2.01732 0
M  V30 1075 H 101.172 -1.38064 -0.782553 0
M  V30 1076 H 101.193 -1.48925 -3.50145 0
M  V30 1077 H 100.705 -2.99407 -2.46936 0
M  V30 1078 H 98.8057 -0.82092 -3.63444 0
M  V30 1079 H 98.9187 -2.67406 -3.97531 0
M  V30 1080 H 97.2827 -1.34027 -2.16584 0
M  V30 1081 H 98.0657 -2.9574 -1.74334 0
M  V30 1082 N 100.511 1.16574 -1.06058 0
M  V30 1083 C 101.736 1.91493 -0.796562 0
M  V30 1084 C 102.161 1.76773 0.642868 0
M  V30 1085 O 101.519 1.09142 1.44768 0
M  V30 1086 C 101.567 3.40293 -1.19303 0
M  V30 1087 O 100.671 4.11074 -0.330394 0
M  V30 1088 H 100.012 0.596678 -0.291326 0
M  V30 1089 H 102.542 1.47708 -1.41575 0
M  V30 1090 H 102.552 3.91057 -1.16356 0
M  V30 1091 H 101.227 3.50326 -2.24153 0
M  V30 1092 H 99.8038 3.70513 -0.421225 0
M  V30 1093 N 101.989 0.842826 1.3317 0
M  V30 1094 C 103.236 0.440447 1.97652 0
M  V30 1095 C 103.564 -1.00123 1.6675 0
M  V30 1096 O 102.819 -1.7155 0.941761 0
M  V30 1097 C 103.118 0.612607 3.52111 0
M  V30 1098 C 102.784 2.02297 4.02972 0
M  V30 1099 C 101.446 2.40874 4.16573 0
M  V30 1100 C 103.798 2.94402 4.30089 0
M  V30 1101 C 101.126 3.70852 4.54627 0
M  V30 1102 C 103.478 4.23865 4.69597 0
M  V30 1103 C 102.142 4.62392 4.81404 0
M  V30 1104 H 101.412 0.161171 0.72326 0
M  V30 1105 H 104.059 1.07061 1.58777 0
M  V30 1106 H 102.364 -0.100849 3.9167 0
M  V30 1107 H 104.061 0.2815 4.00011 0
M  V30 1108 H 100.651 1.71338 3.92863 0
M  V30 1109 H 104.835 2.65835 4.19101 0
M  V30 1110 H 100.091 4.00501 4.61962 0
M  V30 1111 H 104.265 4.95306 4.89536 0
M  V30 1112 H 101.892 5.63154 5.10648 0
M  V30 1113 N 103.467 -1.45747 0.599634 0
M  V30 1114 C 104.414 -2.30467 -0.123849 0
M  V30 1115 C 105.384 -1.41632 -0.86774 0
M  V30 1116 O 106.569 -1.70568 -0.855056 0
M  V30 1117 C 103.709 -3.26402 -1.12051 0
M  V30 1118 C 102.822 -4.3034 -0.37832 0
M  V30 1119 C 101.957 -5.13389 -1.364 0
M  V30 1120 C 100.996 -6.09061 -0.609171 0
M  V30 1121 N 100.133 -6.84918 -1.54374 0
M  V30 1122 H 104.973 -2.91802 0.604627 0
M  V30 1123 H 102.51 -1.43797 0.309972 0
M  V30 1124 H 104.468 -3.80482 -1.7114 0
M  V30 1125 H 103.098 -2.66839 -1.8165 0
M  V30 1126 H 102.15 -3.78984 0.327929 0
M  V30 1127 H 103.462 -4.98354 0.210997 0
M  V30 1128 H 102.616 -5.7183 -2.02719 0
M  V30 1129 H 101.355 -4.45376 -1.98725 0
M  V30 1130 H 100.36 -5.49758 0.0676979 0
M  V30 1131 H 101.585 -6.79099 0.00891991 0
M  V30 1132 H 99.531 -6.19601 -2.15478 0
M  V30 1133 H 99.448 -7.49254 -1.00766 0
M  V30 1134 H 100.716 -7.47906 -2.19676 0
M  V30 1135 N 104.945 -0.338344 -1.53925 0
M  V30 1136 C 105.875 0.51328 -2.27789 0
M  V30 1137 C 106.856 1.107 -1.29149 0
M  V30 1138 O 108.041 1.12937 -1.57984 0
M  V30 1139 C 105.171 1.66697 -3.04679 0
M  V30 1140 C 104.125 1.20183 -4.1078 0
M  V30 1141 C 103.451 2.44363 -4.75595 0
M  V30 1142 C 104.751 0.30605 -5.21403 0
M  V30 1143 H 106.445 -0.102883 -2.99223 0
M  V30 1144 H 103.991 -0.0509219 -1.4391 0
M  V30 1145 H 105.944 2.26915 -3.55088 0
M  V30 1146 H 104.668 2.30995 -2.30887 0
M  V30 1147 H 103.327 0.622499 -3.61276 0
M  V30 1148 H 102.975 3.07057 -3.98403 0
M  V30 1149 H 102.675 2.13925 -5.47275 0
M  V30 1150 H 104.199 3.05317 -5.28786 0
M  V30 1151 H 105.613 0.814929 -5.67478 0
M  V30 1152 H 104.01 0.0937929 -6.00027 0
M  V30 1153 H 105.08 -0.65921 -4.80398 0
M  V30 1154 N 106.423 1.57458 -0.0668435 0
M  V30 1155 C 107.333 2.15937 0.916975 0
M  V30 1156 C 108.349 1.12123 1.33058 0
M  V30 1157 O 109.525 1.44366 1.40429 0
M  V30 1158 C 106.59 2.70547 2.16807 0
M  V30 1159 C 105.651 3.89215 1.81135 0
M  V30 1160 C 104.884 4.41211 3.0028 0
M  V30 1161 O 105.107 3.92225 4.14144 0
M  V30 1162 O 104.041 5.32605 2.80384 0
M  V30 1163 H 107.867 3.00354 0.449561 0
M  V30 1164 H 105.452 1.48584 0.155949 0
M  V30 1165 H 107.334 3.0557 2.90181 0
M  V30 1166 H 106.009 1.89192 2.62656 0
M  V30 1167 H 104.916 3.59054 1.05028 0
M  V30 1168 H 106.249 4.71848 1.40073 0
M  V30 1169 N 107.901 -0.206675 1.56239 0
M  V30 1170 C 108.831 -1.25909 1.96645 0
M  V30 1171 C 109.812 -1.48097 0.836734 0
M  V30 1172 O 110.997 -1.6003 1.10019 0
M  V30 1173 C 108.127 -2.6058 2.29599 0
M  V30 1174 C 107.081 -2.53024 3.452 0
M  V30 1175 C 106.407 -3.91861 3.63798 0
M  V30 1176 C 107.707 -2.06524 4.79734 0
M  V30 1177 H 109.401 -0.923369 2.84806 0
M  V30 1178 H 106.947 -0.442735 1.37025 0
M  V30 1179 H 108.9 -3.34375 2.56459 0
M  V30 1180 H 107.624 -2.95869 1.38307 0
M  V30 1181 H 106.283 -1.81684 3.18412 0
M  V30 1182 H 105.931 -4.24483 2.69857 0
M  V30 1183 H 105.631 -3.87683 4.4156 0
M  V30 1184 H 107.155 -4.67296 3.93022 0
M  V30 1185 H 108.569 -2.70072 5.05702 0
M  V30 1186 H 106.966 -2.13374 5.60885 0
M  V30 1187 H 108.036 -1.01802 4.74093 0
M  V30 1188 N 109.379 -1.50304 -0.473955 0
M  V30 1189 C 110.625 -1.61389 -1.22806 0
M  V30 1190 C 110.958 -0.311955 -1.91678 0
M  V30 1191 O 110.233 0.686384 -1.81986 0
M  V30 1192 C 110.516 -2.79219 -2.27396 0
M  V30 1193 C 110.369 -4.19286 -1.62848 0
M  V30 1194 C 111.688 -2.92614 -3.28732 0
M  V30 1195 H 108.807 -0.587399 -0.445119 0
M  V30 1196 H 111.449 -1.82681 -0.522265 0
M  V30 1197 H 109.599 -2.61195 -2.87592 0
M  V30 1198 H 111.271 -4.48892 -1.06271 0
M  V30 1199 H 109.514 -4.23677 -0.931693 0
M  V30 1200 H 110.185 -4.97655 -2.38838 0
M  V30 1201 H 112.661 -3.09105 -2.78556 0
M  V30 1202 H 111.537 -3.76688 -3.99246 0
M  V30 1203 H 111.798 -2.03107 -3.92683 0
M  V30 1204 N 110.857 0.726932 -1.39834 0
M  V30 1205 C 111.767 1.87131 -1.41489 0
M  V30 1206 C 112.783 1.71239 -0.308757 0
M  V30 1207 O 113.959 1.93701 -0.551529 0
M  V30 1208 C 111.024 3.22811 -1.26468 0
M  V30 1209 C 110.085 3.51039 -2.47124 0
M  V30 1210 C 109.318 4.80245 -2.3281 0
M  V30 1211 O 109.541 5.54537 -1.33585 0
M  V30 1212 O 108.475 5.08554 -3.21957 0
M  V30 1213 H 112.301 1.8869 -2.3797 0
M  V30 1214 H 109.886 0.875837 -1.21035 0
M  V30 1215 H 111.768 4.03877 -1.20255 0
M  V30 1216 H 110.443 3.22005 -0.330862 0
M  V30 1217 H 109.35 2.70027 -2.58914 0
M  V30 1218 H 110.683 3.56632 -3.39227 0
M  V30 1219 N 112.336 1.25143 0.95797 0
M  V30 1220 C 113.269 0.995565 2.05338 0
M  V30 1221 C 114.247 -0.0740423 1.62431 0
M  V30 1222 O 115.431 0.0649212 1.88388 0
M  V30 1223 C 112.558 0.504298 3.34925 0
M  V30 1224 C 111.604 1.56393 3.96792 0
M  V30 1225 S 112.437 3.14815 4.33188 0
M  V30 1226 C 113.593 2.67415 5.65898 0
M  V30 1227 H 113.826 1.92309 2.26726 0
M  V30 1228 H 111.359 1.08635 1.09716 0
M  V30 1229 H 113.317 0.227497 4.09869 0
M  V30 1230 H 111.978 -0.402671 3.11508 0
M  V30 1231 H 111.171 1.17082 4.90212 0
M  V30 1232 H 110.773 1.79124 3.28315 0
M  V30 1233 H 113.065 2.10833 6.4386 0
M  V30 1234 H 114.008 3.59463 6.10076 0
M  V30 1235 H 114.416 2.07521 5.24972 0
M  V30 1236 N 113.814 -1.1601 1.06675 0
M  V30 1237 C 114.724 -2.24156 0.692179 0
M  V30 1238 C 115.74 -1.71507 -0.293513 0
M  V30 1239 O 116.916 -2.009 -0.141861 0
M  V30 1240 C 113.981 -3.46587 0.0884131 0
M  V30 1241 C 113.042 -4.14257 1.12646 0
M  V30 1242 C 112.275 -5.30844 0.551416 0
M  V30 1243 O 112.498 -5.66858 -0.634656 0
M  V30 1244 O 111.432 -5.87848 1.29298 0
M  V30 1245 H 115.258 -2.58513 1.59388 0
M  V30 1246 H 112.843 -1.23599 0.83926 0
M  V30 1247 H 114.725 -4.20679 -0.246361 0
M  V30 1248 H 113.4 -3.13994 -0.786712 0
M  V30 1249 H 112.307 -3.42118 1.51348 0
M  V30 1250 H 113.64 -4.50914 1.97325 0
M  V30 1251 N 115.292 -0.849877 -1.32721 0
M  V30 1252 C 116.708 -0.539102 -1.50219 0
M  V30 1253 C 116.908 0.931271 -1.78689 0
M  V30 1254 O 115.964 1.71455 -1.85363 0
M  V30 1255 C 117.277 -1.42196 -2.64954 0
M  V30 1256 C 118.825 -1.42189 -2.78839 0
M  V30 1257 C 119.3 -2.28985 -3.96648 0
M  V30 1258 N 120.791 -2.26754 -4.03902 0
M  V30 1259 C 121.526 -2.90644 -4.94281 0
M  V30 1260 N 121.022 -3.63629 -5.897 0
M  V30 1261 N 122.815 -2.80057 -4.87365 0
M  V30 1262 H 114.966 -1.80156 -1.12506 0
M  V30 1263 H 117.229 -0.769217 -0.554085 0
M  V30 1264 H 116.935 -2.46733 -2.50631 0
M  V30 1265 H 116.809 -1.10591 -3.60624 0
M  V30 1266 H 119.196 -0.38419 -2.92588 0
M  V30 1267 H 119.277 -1.77807 -1.83898 0
M  V30 1268 H 118.921 -3.32819 -3.83658 0
M  V30 1269 H 118.851 -1.90702 -4.90857 0
M  V30 1270 H 121.342 -1.73688 -3.3562 0
M  V30 1271 H 121.655 -4.09558 -6.55349 0
M  V30 1272 H 120 -3.67737 -5.89741 0
M  V30 1273 H 123.191 -2.22593 -4.11789 0
M  V30 1274 H 123.364 -3.30132 -5.57599 0
M  V30 1275 N 116.77 1.45427 -0.607355 0
M  V30 1276 C 117.68 2.34325 0.113463 0
M  V30 1277 C 118.696 1.51226 0.860617 0
M  V30 1278 O 119.872 1.84029 0.818255 0
M  V30 1279 C 116.937 3.28839 1.09844 0
M  V30 1280 C 115.998 4.27844 0.353271 0
M  V30 1281 C 115.231 5.17842 1.29133 0
M  V30 1282 O 115.454 5.11264 2.52913 0
M  V30 1283 O 114.388 5.96713 0.788523 0
M  V30 1284 H 118.214 2.97364 -0.617094 0
M  V30 1285 H 115.799 1.44807 -0.367619 0
M  V30 1286 H 117.681 3.8708 1.66575 0
M  V30 1287 H 116.356 2.68365 1.81003 0
M  V30 1288 H 115.263 3.7322 -0.256494 0
M  V30 1289 H 116.596 4.91173 -0.317822 0
M  V30 1290 N 118.248 0.346503 1.53744 0
M  V30 1291 C 119.496 -0.248612 2.00565 0
M  V30 1292 C 119.817 -1.5083 1.23593 0
M  V30 1293 O 119.087 -1.92858 0.343912 0
M  V30 1294 H 117.667 -0.0948564 0.740953 0
M  V30 1295 H 120.329 0.468341 1.89189 0
M  V30 1296 H 119.425 -0.488994 3.08245 0
M  V30 1297 N 119.726 -1.57421 0.075193 0
M  V30 1298 C 121.137 -1.81021 -0.456964 0
M  V30 1299 C 121.488 -0.98936 -1.69429 0
M  V30 1300 O 120.613 -0.212865 -2.15351 0
M  V30 1301 C 121.208 -3.28329 -0.83581 0
M  V30 1302 C 119.767 -3.52764 -1.31281 0
M  V30 1303 C 118.914 -2.75676 -0.299648 0
M  V30 1304 H 121.865 -1.55822 0.300856 0
M  V30 1305 H 121.886 -3.40564 -1.69696 0
M  V30 1306 H 121.398 -3.88046 0.0649238 0
M  V30 1307 H 119.499 -2.98355 -2.23193 0
M  V30 1308 H 119.612 -4.61451 -1.28839 0
M  V30 1309 H 117.976 -2.42538 -0.777641 0
M  V30 1310 H 118.759 -3.38132 0.593417 0
M  V30 1311 N 121.204 0.198386 -1.56346 0
M  V30 1312 C 122.429 0.939682 -1.84891 0
M  V30 1313 C 122.854 1.76202 -0.658369 0
M  V30 1314 O 122.212 1.76993 0.392851 0
M  V30 1315 C 122.26 1.81428 -3.11635 0
M  V30 1316 O 121.364 2.91265 -2.91956 0
M  V30 1317 H 120.705 0.264807 -0.608912 0
M  V30 1318 H 123.235 0.204695 -2.03573 0
M  V30 1319 H 123.245 2.21958 -3.42343 0
M  V30 1320 H 121.92 1.21004 -3.97908 0
M  V30 1321 H 120.497 2.54514 -2.72538 0
M  V30 1322 N 122.682 1.50554 0.465978 0
M  V30 1323 C 123.912 1.65323 1.23903 0
M  V30 1324 C 124.32 0.338051 1.86155 0
M  V30 1325 O 123.663 -0.690518 1.70228 0
M  V30 1326 C 123.725 2.69048 2.3844 0
M  V30 1327 C 123.389 4.12462 1.96784 0
M  V30 1328 C 124.386 4.98168 1.48745 0
M  V30 1329 C 122.071 4.58407 2.05349 0
M  V30 1330 C 124.065 6.27868 1.0982 0
M  V30 1331 C 121.752 5.88112 1.66035 0
M  V30 1332 C 122.75 6.72668 1.18349 0
M  V30 1333 O 122.438 7.99951 0.795825 0
M  V30 1334 H 122.17 0.558629 0.38067 0
M  V30 1335 H 124.724 1.97561 0.562022 0
M  V30 1336 H 122.954 2.32062 3.09328 0
M  V30 1337 H 124.643 2.72985 3.0039 0
M  V30 1338 H 125.409 4.63885 1.41546 0
M  V30 1339 H 121.288 3.92735 2.41414 0
M  V30 1340 H 124.832 6.93819 0.725293 0
M  V30 1341 H 120.729 6.21914 1.72895 0
M  V30 1342 H 121.497 8.13265 0.924222 0
M  V30 1343 N 124.16 -0.719506 1.40217 0
M  V30 1344 C 125.388 -1.50864 1.41589 0
M  V30 1345 C 125.803 -1.88794 0.0145275 0
M  V30 1346 O 125.16 -1.55174 -0.960594 0
M  V30 1347 C 125.211 -2.78646 2.30302 0
M  V30 1348 O 124.932 -2.42321 3.64983 0
M  V30 1349 C 126.433 -3.72569 2.40224 0
M  V30 1350 H 123.653 -0.465709 0.48307 0
M  V30 1351 H 126.197 -0.88785 1.84221 0
M  V30 1352 H 124.352 -3.37019 1.91042 0
M  V30 1353 H 124.766 -3.24514 4.12057 0
M  V30 1354 H 126.24 -4.5908 3.06512 0
M  V30 1355 H 126.717 -4.15403 1.42608 0
M  V30 1356 H 127.323 -3.20109 2.80019 0
M  V30 1357 N 125.638 -1.25649 -0.95132 0
M  V30 1358 C 126.885 -1.10594 -1.69633 0
M  V30 1359 C 127.213 0.352515 -1.91279 0
M  V30 1360 O 126.468 1.27601 -1.4838 0
M  V30 1361 C 126.767 -1.80909 -3.08231 0
M  V30 1362 C 126.433 -3.30825 -3.06375 0
M  V30 1363 C 125.095 -3.71722 -3.05576 0
M  V30 1364 C 127.447 -4.26589 -2.99452 0
M  V30 1365 C 124.775 -5.06788 -2.95606 0
M  V30 1366 C 127.127 -5.61683 -2.91024 0
M  V30 1367 C 125.791 -6.01904 -2.88562 0
M  V30 1368 H 125.061 -0.404691 -0.620731 0
M  V30 1369 H 127.708 -1.55964 -1.11119 0
M  V30 1370 H 126.013 -1.27979 -3.70309 0
M  V30 1371 H 127.71 -1.6671 -3.64704 0
M  V30 1372 H 124.3 -2.98287 -3.07771 0
M  V30 1373 H 128.484 -3.95982 -2.99185 0
M  V30 1374 H 123.74 -5.37126 -2.92071 0
M  V30 1375 H 127.914 -6.35578 -2.84629 0
M  V30 1376 H 125.541 -7.06521 -2.80593 0
M  V30 1377 N 127.117 1.15442 -1.07289 0
M  V30 1378 C 128.394 1.82306 -0.708792 0
M  V30 1379 C 128.774 1.94991 0.808807 0
M  V30 1380 O 128.122 1.50085 1.72298 0
M  V30 1381 C 128.332 3.18695 -1.42247 0
M  V30 1382 C 129.68 3.94341 -1.57417 0
M  V30 1383 O 130.704 3.28247 -1.38319 0
M  V30 1384 O 129.563 5.12839 -1.88834 0
M  V30 1385 H 126.657 0.787628 -0.252132 0
M  V30 1386 H 129.203 1.22559 -1.17377 0
M  V30 1387 H 127.975 3.04557 -2.45684 0
M  V30 1388 H 127.598 3.86128 -0.948223 0
M  V30 1389 N 128.595 0.856903 1.32268 0
M  V30 1390 C 129.823 0.475439 2.01363 0
M  V30 1391 C 130.238 -0.928486 1.64392 0
M  V30 1392 O 129.595 -1.60624 0.866387 0
M  V30 1393 C 129.646 0.607545 3.56358 0
M  V30 1394 O 129.367 1.95617 3.92002 0
M  V30 1395 C 130.868 0.225382 4.42727 0
M  V30 1396 H 128.088 0.186636 0.644521 0
M  V30 1397 H 130.632 1.15446 1.68797 0
M  V30 1398 H 128.787 -0.0237719 3.87393 0
M  V30 1399 H 129.201 1.95455 4.86721 0
M  V30 1400 H 130.675 0.368813 5.50767 0
M  V30 1401 H 131.152 -0.834369 4.31202 0
M  V30 1402 H 131.758 0.831864 4.17085 0
M  V30 1403 N 130.073 -1.45103 0.615059 0
M  V30 1404 C 131.319 -2.02483 0.113347 0
M  V30 1405 C 131.652 -1.48146 -1.25564 0
M  V30 1406 O 130.927 -0.659104 -1.82992 0
M  V30 1407 C 131.21 -3.60005 0.0825278 0
M  V30 1408 C 131.063 -4.2466 1.48271 0
M  V30 1409 C 132.382 -4.35972 -0.601401 0
M  V30 1410 H 129.501 -0.735764 0.0426632 0
M  V30 1411 H 132.143 -1.72868 0.788461 0
M  V30 1412 H 130.293 -3.85367 -0.492378 0
M  V30 1413 H 131.965 -4.10458 2.10527 0
M  V30 1414 H 130.208 -3.82772 2.04127 0
M  V30 1415 H 130.879 -5.336 1.41332 0
M  V30 1416 H 133.355 -4.15947 -0.112666 0
M  V30 1417 H 132.231 -5.45697 -0.592097 0
M  V30 1418 H 132.492 -4.09391 -1.66887 0
M  V30 1419 N 131.551 -0.354651 -1.53558 0
M  V30 1420 C 132.776 0.242153 -2.05981 0
M  V30 1421 C 133.201 1.42553 -1.2272 0
M  V30 1422 O 132.559 1.79656 -0.243604 0
M  V30 1423 C 132.607 0.624367 -3.55154 0
M  V30 1424 O 131.711 1.72301 -3.74681 0
M  V30 1425 H 131.052 0.0378432 -0.662921 0
M  V30 1426 H 133.582 -0.512087 -1.98088 0
M  V30 1427 H 133.592 0.898433 -3.97985 0
M  V30 1428 H 132.267 -0.240989 -4.15201 0
M  V30 1429 H 130.844 1.44535 -3.4375 0
M  V30 1430 N 133.029 1.57378 -0.0835403 0
M  V30 1431 C 133.959 2.1641 0.87686 0
M  V30 1432 C 134.94 1.09429 1.30228 0
M  V30 1433 O 136.125 1.37516 1.37124 0
M  V30 1434 C 133.255 2.73517 2.14022 0
M  V30 1435 C 132.209 3.85769 1.85381 0
M  V30 1436 C 131.535 4.29529 3.18448 0
M  V30 1437 C 132.835 5.09486 1.14984 0
M  V30 1438 H 134.529 2.96914 0.385059 0
M  V30 1439 H 132.075 1.42823 0.18377 0
M  V30 1440 H 134.028 3.13463 2.81636 0
M  V30 1441 H 132.752 1.90252 2.65465 0
M  V30 1442 H 131.411 3.46345 1.20169 0
M  V30 1443 H 131.059 3.43169 3.67755 0
M  V30 1444 H 130.759 5.05204 3.00071 0
M  V30 1445 H 132.283 4.72099 3.8724 0
M  V30 1446 H 133.697 5.46674 1.72687 0
M  V30 1447 H 132.094 5.90515 1.06826 0
M  V30 1448 H 133.164 4.84724 0.130749 0
M  V30 1449 N 134.507 -0.190092 1.56449 0
M  V30 1450 C 135.437 -1.23816 1.97969 0
M  V30 1451 C 136.418 -1.47201 0.852395 0
M  V30 1452 O 137.603 -1.58854 1.1171 0
M  V30 1453 C 134.733 -2.5813 2.3235 0
M  V30 1454 C 133.687 -2.49348 3.47864 0
M  V30 1455 C 133.013 -3.8798 3.67934 0
M  V30 1456 C 134.313 -2.01424 4.81898 0
M  V30 1457 H 136.007 -0.89311 2.85769 0
M  V30 1458 H 133.553 -0.428177 1.37487 0
M  V30 1459 H 135.506 -3.31637 2.59991 0
M  V30 1460 H 134.23 -2.94386 1.41438 0
M  V30 1461 H 132.889 -1.78297 3.20321 0
M  V30 1462 H 132.537 -4.21597 2.74344 0
M  V30 1463 H 132.237 -3.82978 4.45648 0
M  V30 1464 H 133.761 -4.63101 3.97957 0
M  V30 1465 H 135.175 -2.64693 5.08538 0
M  V30 1466 H 133.572 -2.07413 5.63116 0
M  V30 1467 H 134.642 -0.967677 4.75146 0
M  V30 1468 N 135.985 -1.50799 -0.457987 0
M  V30 1469 C 136.932 -1.70617 -1.5543 0
M  V30 1470 C 137.902 -0.547562 -1.56815 0
M  V30 1471 O 139.087 -0.779647 -1.74144 0
M  V30 1472 C 136.227 -1.81831 -2.93311 0
M  V30 1473 C 135.34 -3.09278 -3.01615 0
M  V30 1474 C 134.475 -3.11209 -4.30491 0
M  V30 1475 C 133.514 -4.33055 -4.32585 0
M  V30 1476 N 132.651 -4.32652 -5.52952 0
M  V30 1477 H 137.491 -2.64207 -1.37836 0
M  V30 1478 H 135.028 -1.30959 -0.669937 0
M  V30 1479 H 136.986 -1.86314 -3.73287 0
M  V30 1480 H 135.616 -0.916685 -3.0951 0
M  V30 1481 H 134.668 -3.14203 -2.1443 0
M  V30 1482 H 135.98 -3.99233 -2.99022 0
M  V30 1483 H 135.134 -3.14494 -5.18824 0
M  V30 1484 H 133.873 -2.19106 -4.35711 0
M  V30 1485 H 132.878 -4.29969 -3.42647 0
M  V30 1486 H 134.103 -5.264 -4.29046 0
M  V30 1487 H 132.049 -3.43409 -5.58933 0
M  V30 1488 H 131.966 -5.16392 -5.52155 0
M  V30 1489 H 133.234 -4.40101 -6.43375 0
M  V30 1490 N 137.463 0.71206 -1.40597 0
M  V30 1491 C 138.395 1.83704 -1.37061 0
M  V30 1492 C 139.408 1.60453 -0.275426 0
M  V30 1493 O 140.597 1.70262 -0.53602 0
M  V30 1494 C 137.697 3.20172 -1.11099 0
M  V30 1495 C 136.87 3.7059 -2.3234 0
M  V30 1496 C 135.929 4.85681 -2.02485 0
M  V30 1497 O 134.955 4.9815 -2.75382 0
M  V30 1498 N 136.157 5.71735 -1.00497 0
M  V30 1499 H 138.922 1.87235 -2.34016 0
M  V30 1500 H 136.483 0.893739 -1.34996 0
M  V30 1501 H 138.475 3.94768 -0.891064 0
M  V30 1502 H 137.045 3.11767 -0.227989 0
M  V30 1503 H 136.265 2.87085 -2.7014 0
M  V30 1504 H 137.553 4.01011 -3.13157 0
M  V30 1505 H 136.951 5.64275 -0.401298 0
M  V30 1506 H 135.508 6.463 -0.844942 0
M  V30 1507 N 138.941 1.26152 0.944643 0
M  V30 1508 C 140.357 1.03189 1.21754 0
M  V30 1509 C 140.557 -0.245112 2.00004 0
M  V30 1510 O 139.613 -0.955176 2.33736 0
M  V30 1511 C 140.926 2.26119 1.98219 0
M  V30 1512 C 142.474 2.30984 2.11224 0
M  V30 1513 C 142.949 3.53597 2.91089 0
M  V30 1514 N 144.44 3.54053 2.98664 0
M  V30 1515 C 145.175 4.45593 3.60881 0
M  V30 1516 N 144.671 5.47416 4.24626 0
M  V30 1517 N 146.464 4.33252 3.58119 0
M  V30 1518 H 138.615 2.08177 0.421437 0
M  V30 1519 H 140.878 0.914723 0.248969 0
M  V30 1520 H 140.584 3.18984 1.48128 0
M  V30 1521 H 140.458 2.3009 2.98895 0
M  V30 1522 H 142.845 1.38635 2.60508 0
M  V30 1523 H 142.926 2.31026 1.09821 0
M  V30 1524 H 142.57 4.46273 2.42493 0
M  V30 1525 H 142.5 3.50802 3.92741 0
M  V30 1526 H 144.991 2.80403 2.53343 0
M  V30 1527 H 145.304 6.13459 4.69987 0
M  V30 1528 H 143.649 5.51278 4.23223 0
M  V30 1529 H 146.84 3.52924 3.0751 0
M  V30 1530 H 147.013 5.04786 4.06319 0
M  V30 1531 N 140.419 -1.14872 1.07899 0
M  V30 1532 C 141.649 -1.89386 0.825631 0
M  V30 1533 C 142.057 -1.78565 -0.625406 0
M  V30 1534 O 141.4 -1.13918 -1.44113 0
M  V30 1535 C 141.462 -3.40206 1.16191 0
M  V30 1536 C 141.126 -3.74812 2.61467 0
M  V30 1537 C 142.123 -3.75367 3.59716 0
M  V30 1538 C 139.808 -4.0495 2.97189 0
M  V30 1539 C 141.802 -4.05574 4.9172 0
M  V30 1540 C 139.489 -4.34821 4.29388 0
M  V30 1541 C 140.487 -4.35116 5.26463 0
M  V30 1542 O 140.175 -4.64267 6.56286 0
M  V30 1543 H 139.907 -0.606894 0.297751 0
M  V30 1544 H 142.461 -1.46438 1.44031 0
M  V30 1545 H 140.691 -3.8358 0.490214 0
M  V30 1546 H 142.38 -3.96018 0.890193 0
M  V30 1547 H 143.146 -3.52176 3.33462 0
M  V30 1548 H 139.025 -4.03876 2.22273 0
M  V30 1549 H 142.569 -4.05719 5.67484 0
M  V30 1550 H 138.466 -4.5748 4.55392 0
M  V30 1551 H 139.234 -4.82007 6.61522 0
M  V30 1552 N 141.898 -0.863906 -1.31812 0
M  V30 1553 C 143.309 -0.52522 -1.7916 0
M  V30 1554 C 143.66 0.957518 -1.71248 0
M  V30 1555 O 142.785 1.74734 -1.27659 0
M  V30 1556 C 143.38 -0.9466 -3.25307 0
M  V30 1557 C 141.939 -0.659668 -3.70574 0
M  V30 1558 C 141.086 -1.14126 -2.52726 0
M  V30 1559 H 144.037 -1.05022 -1.1898 0
M  V30 1560 H 144.058 -0.266766 -3.79564 0
M  V30 1561 H 143.57 -2.02579 -3.31034 0
M  V30 1562 H 141.671 0.408416 -3.70355 0
M  V30 1563 H 141.784 -1.23245 -4.62977 0
M  V30 1564 H 140.148 -0.561216 -2.4844 0
M  V30 1565 H 140.931 -2.22775 -2.61201 0
M  V30 1566 N 143.376 1.44774 -0.622745 0
M  V30 1567 C 144.324 2.32387 0.0994683 0
M  V30 1568 C 145.318 1.46859 0.844326 0
M  V30 1569 O 146.524 1.63254 0.758174 0
M  V30 1570 H 142.899 0.750273 0.0509291 0
M  V30 1571 H 144.87 2.91062 -0.65767 0
M  V30 1572 C 143.619 3.30723 1.07319 0
M  V30 1573 H 142.942 3.96541 0.509462 0
M  V30 1574 H 144.382 3.94725 1.54817 0
M  V30 1575 C 142.841 2.59021 2.15429 0
M  V30 1576 O 143.371 2.38286 3.23393 0
M  V30 1577 N 141.577 2.189 1.91131 0
M  V30 1578 H 141.124 2.35964 1.03337 0
M  V30 1579 H 141.082 1.71251 2.63668 0
M  V30 1580 N 144.854 0.36279 1.53368 0
M  V30 1581 C 146.131 -0.284021 1.93527 0
M  V30 1582 C 146.511 -1.66628 1.29608 0
M  V30 1583 O 145.859 -2.23942 0.45413 0
M  V30 1584 C 146.069 -0.337028 3.47369 0
M  V30 1585 C 147.417 -0.578708 4.20638 0
M  V30 1586 O 148.441 -0.418352 3.53735 0
M  V30 1587 O 147.3 -0.89074 5.39192 0
M  V30 1588 H 144.394 -0.169743 0.809393 0
M  V30 1589 H 146.94 0.41537 1.64538 0
M  V30 1590 H 145.712 0.632217 3.86159 0
M  V30 1591 H 145.335 -1.08243 3.82582 0
M  V30 1592 N 146.332 -1.57332 0.0918853 0
M  V30 1593 C 147.264 -2.10869 -0.898168 0
M  V30 1594 C 148.277 -1.04521 -1.24817 0
M  V30 1595 O 149.466 -1.31977 -1.20184 0
M  V30 1596 C 146.566 -2.57083 -2.2082 0
M  V30 1597 C 145.739 -3.87229 -2.03402 0
M  V30 1598 C 144.798 -4.19324 -3.17889 0
M  V30 1599 O 143.824 -4.88598 -2.91994 0
M  V30 1600 N 145.026 -3.74471 -4.43567 0
M  V30 1601 H 147.791 -2.96439 -0.440943 0
M  V30 1602 H 145.352 -1.61631 -0.0933064 0
M  V30 1603 H 147.344 -2.75602 -2.96354 0
M  V30 1604 H 145.914 -1.76541 -2.57977 0
M  V30 1605 H 145.134 -3.7789 -1.12218 0
M  V30 1606 H 146.422 -4.72379 -1.89038 0
M  V30 1607 H 145.82 -3.18546 -4.67488 0
M  V30 1608 H 144.377 -3.98151 -5.16061 0
M  V30 1609 N 147.81 0.181792 -1.56548 0
M  V30 1610 C 148.74 1.22765 -1.98623 0
M  V30 1611 C 149.721 1.46747 -0.860189 0
M  V30 1612 O 150.906 1.58259 -1.12551 0
M  V30 1613 C 148.036 2.56894 -2.33715 0
M  V30 1614 C 146.99 2.475 -3.49182 0
M  V30 1615 C 146.316 3.86023 -3.69986 0
M  V30 1616 C 147.616 1.98866 -4.82959 0
M  V30 1617 H 149.31 0.877942 -2.86239 0
M  V30 1618 H 146.856 0.42088 -1.37712 0
M  V30 1619 H 148.809 3.30253 -2.61746 0
M  V30 1620 H 147.533 2.93632 -1.42997 0
M  V30 1621 H 146.192 1.76596 -3.21262 0
M  V30 1622 H 145.84 4.20136 -2.76576 0
M  V30 1623 H 145.54 3.80609 -4.47672 0
M  V30 1624 H 147.064 4.60984 -4.00407 0
M  V30 1625 H 148.478 2.61992 -5.09934 0
M  V30 1626 H 146.875 2.04424 -5.64208 0
M  V30 1627 H 147.945 0.942465 -4.75653 0
M  V30 1628 N 149.288 1.51039 0.449983 0
M  V30 1629 C 150.535 1.63081 1.20045 0
M  V30 1630 C 150.863 0.341024 1.91487 0
M  V30 1631 O 150.118 -0.674276 1.83717 0
M  V30 1632 C 150.417 2.77556 2.25161 0
M  V30 1633 C 150.083 4.17289 1.70823 0
M  V30 1634 C 148.745 4.55305 1.55725 0
M  V30 1635 C 151.097 5.04536 1.3074 0
M  V30 1636 C 148.425 5.78287 0.989999 0
M  V30 1637 C 150.777 6.28085 0.754482 0
M  V30 1638 C 149.441 6.64885 0.590308 0
M  V30 1639 H 148.711 0.596755 0.439277 0
M  V30 1640 H 151.358 1.85037 0.49333 0
M  V30 1641 H 149.663 2.49771 3.01863 0
M  V30 1642 H 151.36 2.84073 2.83026 0
M  V30 1643 H 147.95 3.8731 1.83546 0
M  V30 1644 H 152.134 4.75782 1.41229 0
M  V30 1645 H 147.39 6.05456 0.850451 0
M  V30 1646 H 151.564 6.95038 0.435324 0
M  V30 1647 H 149.191 7.60055 0.14862 0
M  V30 1648 N 150.766 -0.704594 1.40972 0
M  V30 1649 C 152.013 -1.46458 1.39844 0
M  V30 1650 C 152.341 -1.94499 0.00447594 0
M  V30 1651 O 151.596 -1.69275 -0.982057 0
M  V30 1652 C 151.895 -2.698 2.34399 0
M  V30 1653 C 151.561 -2.40464 3.81429 0
M  V30 1654 C 150.223 -2.32174 4.21484 0
M  V30 1655 C 152.575 -2.16086 4.74296 0
M  V30 1656 C 149.903 -1.97589 5.52427 0
M  V30 1657 C 152.255 -1.83011 6.05549 0
M  V30 1658 C 150.919 -1.7321 6.44635 0
M  V30 1659 H 150.189 -0.535927 0.511725 0
M  V30 1660 H 152.836 -0.806124 1.73706 0
M  V30 1661 H 151.141 -3.40536 1.93759 0
M  V30 1662 H 152.838 -3.27919 2.30804 0
M  V30 1663 H 149.428 -2.47808 3.49699 0
M  V30 1664 H 153.612 -2.2144 4.4416 0
M  V30 1665 H 148.868 -1.88547 5.81601 0
M  V30 1666 H 153.042 -1.63164 6.77016 0
M  V30 1667 H 150.669 -1.46179 7.46013 0
M  V30 1668 N 152.244 -1.26651 -0.937939 0
M  V30 1669 C 153.493 -1.11775 -1.67897 0
M  V30 1670 C 153.806 0.33794 -1.92659 0
M  V30 1671 O 155.012 0.607434 -2.64618 0
M  V30 1672 C 153.468 -1.9523 -3.02346 0
M  V30 1673 C 153.076 -3.45393 -2.8532 0
M  V30 1674 C 154.82 -1.88972 -3.80118 0
M  V30 1675 C 152.727 -4.21083 -4.15263 0
M  V30 1676 H 151.657 -0.414696 -0.629717 0
M  V30 1677 H 154.308 -1.50988 -1.04283 0
M  V30 1678 H 152.69 -1.48853 -3.66959 0
M  V30 1679 H 153.864 -3.99561 -2.29537 0
M  V30 1680 H 152.179 -3.52921 -2.20988 0
M  V30 1681 H 154.776 -2.42805 -4.76392 0
M  V30 1682 H 155.119 -0.86113 -4.07296 0
M  V30 1683 H 155.652 -2.33189 -3.22285 0
M  V30 1684 H 152.391 -5.24425 -3.93267 0
M  V30 1685 H 151.911 -3.71695 -4.70747 0
M  V30 1686 H 153.59 -4.29706 -4.83696 0
M  V30 1687 N 153.722 1.14298 -1.08507 0
M  V30 1688 C 154.971 1.84708 -0.810305 0
M  V30 1689 C 155.284 1.83903 0.666271 0
M  V30 1690 O 156.49 2.50112 1.05624 0
M  V30 1691 C 154.946 3.31572 -1.39957 0
M  V30 1692 C 154.554 3.40791 -2.90801 0
M  V30 1693 C 156.298 4.07087 -1.20334 0
M  V30 1694 C 154.205 4.81872 -3.4286 0
M  V30 1695 H 153.135 0.691985 -0.299454 0
M  V30 1696 H 155.786 1.28841 -1.30661 0
M  V30 1697 H 154.168 3.87183 -0.830976 0
M  V30 1698 H 155.342 2.95225 -3.53806 0
M  V30 1699 H 153.657 2.78732 -3.0935 0
M  V30 1700 H 156.254 5.11225 -1.56693 0
M  V30 1701 H 156.597 4.16054 -0.143237 0
M  V30 1702 H 157.13 3.57779 -1.73893 0
M  V30 1703 H 153.869 4.78094 -4.48449 0
M  V30 1704 H 153.389 5.27972 -2.84615 0
M  V30 1705 H 155.068 5.50765 -3.39509 0
M  V30 1706 N 155.201 0.870884 1.31352 0
M  V30 1707 C 156.449 0.48132 1.96285 0
M  V30 1708 C 156.77 -0.969813 1.69173 0
M  V30 1709 O 156.04 -1.67998 1.00764 0
M  V30 1710 H 154.62 0.175002 0.726212 0
M  V30 1711 H 157.282 1.11087 1.60143 0
M  V30 1712 H 156.378 0.639825 3.05471 0
M  V30 1713 N 156.679 -1.44442 0.630414 0
M  V30 1714 C 157.642 -2.29107 -0.0652523 0
M  V30 1715 C 158.642 -1.41002 -0.772995 0
M  V30 1716 O 159.832 -1.62881 -0.617692 0
M  V30 1717 C 156.964 -3.22564 -1.10296 0
M  V30 1718 H 158.157 -2.92103 0.679401 0
M  V30 1719 H 155.71 -1.51343 0.390517 0
M  V30 1720 H 156.445 -2.64416 -1.87762 0
M  V30 1721 H 156.23 -3.87491 -0.59941 0
M  V30 1722 H 157.72 -3.86167 -1.5895 0
M  V30 1723 N 158.157 -0.370918 -1.53173 0
M  V30 1724 C 159.434 0.273754 -1.93675 0
M  V30 1725 C 159.814 1.65938 -1.3049 0
M  V30 1726 O 159.162 2.23698 -0.465999 0
M  V30 1727 C 159.372 0.318602 -3.47543 0
M  V30 1728 C 160.72 0.556392 -4.20939 0
M  V30 1729 O 161.744 0.399587 -3.53952 0
M  V30 1730 O 160.603 0.862133 -5.39657 0
M  V30 1731 H 157.697 0.165448 -0.810281 0
M  V30 1732 H 160.243 -0.42409 -1.64315 0
M  V30 1733 H 159.015 -0.652687 -3.85818 0
M  V30 1734 H 158.638 1.06212 -3.83151 0
M  V30 1735 N 159.635 1.57281 -0.100228 0
M  V30 1736 C 160.568 2.09976 0.893612 0
M  V30 1737 C 161.546 1.01155 1.27304 0
M  V30 1738 O 162.73 1.28687 1.37739 0
M  V30 1739 C 159.857 2.58098 2.19324 0
M  V30 1740 C 158.903 3.78626 1.96328 0
M  V30 1741 S 159.736 5.21959 1.19662 0
M  V30 1742 C 160.892 5.73435 2.50844 0
M  V30 1743 H 161.125 2.93946 0.44534 0
M  V30 1744 H 158.658 1.53985 0.113167 0
M  V30 1745 H 160.616 2.8648 2.94005 0
M  V30 1746 H 159.277 1.74344 2.61272 0
M  V30 1747 H 158.47 4.10382 2.92579 0
M  V30 1748 H 158.072 3.50763 1.29775 0
M  V30 1749 H 160.364 5.82015 3.46792 0
M  V30 1750 H 161.307 6.7185 2.23659 0
M  V30 1751 H 161.715 5.01395 2.59352 0
M  V30 1752 N 161.113 -0.173488 1.56642 0
M  V30 1753 C 162.362 -0.888758 1.81063 0
M  V30 1754 C 162.675 -1.83506 0.67712 0
M  V30 1755 O 163.881 -2.59254 0.806206 0
M  V30 1756 C 162.337 -1.63091 3.20826 0
M  V30 1757 C 161.945 -0.728357 4.4204 0
M  V30 1758 C 163.689 -2.33454 3.54541 0
M  V30 1759 C 161.596 -1.47062 5.72823 0
M  V30 1760 H 160.526 -0.335618 0.675186 0
M  V30 1761 H 163.177 -0.141712 1.82952 0
M  V30 1762 H 161.559 -2.42263 3.13248 0
M  V30 1763 H 162.733 0.0262449 4.60793 0
M  V30 1764 H 161.048 -0.134492 4.16183 0
M  V30 1765 H 163.645 -2.89578 4.49498 0
M  V30 1766 H 163.988 -3.08687 2.79317 0
M  V30 1767 H 164.521 -1.61227 3.63663 0
M  V30 1768 H 161.26 -0.760658 6.51072 0
M  V30 1769 H 160.78 -2.1986 5.58052 0
M  V30 1770 H 162.459 -2.01868 6.14702 0
M  V30 1771 N 162.591 -1.51276 -0.441967 0
M  V30 1772 C 163.501 -1.75092 -1.56141 0
M  V30 1773 C 164.517 -0.634963 -1.62001 0
M  V30 1774 O 165.693 -0.916686 -1.79329 0
M  V30 1775 C 162.758 -1.86666 -2.92158 0
M  V30 1776 C 161.819 -3.10506 -2.96453 0
M  V30 1777 C 161.052 -3.21519 -4.25982 0
M  V30 1778 O 161.275 -2.38586 -5.18105 0
M  V30 1779 O 160.209 -4.14465 -4.36466 0
M  V30 1780 H 164.035 -2.70044 -1.38961 0
M  V30 1781 H 161.62 -1.35722 -0.624499 0
M  V30 1782 H 163.502 -1.96292 -3.72891 0
M  V30 1783 H 162.177 -0.949014 -3.09476 0
M  V30 1784 H 161.084 -3.06363 -2.14692 0
M  V30 1785 H 162.417 -4.01945 -2.84079 0
M  V30 1786 N 164.069 0.697108 -1.41344 0
M  V30 1787 C 165.299 1.48377 -1.43763 0
M  V30 1788 C 165.707 1.89156 -0.0408726 0
M  V30 1789 O 165.05 1.57239 0.949812 0
M  V30 1790 C 165.112 2.7781 -2.2817 0
M  V30 1791 C 164.776 2.59244 -3.76353 0
M  V30 1792 C 165.773 2.25292 -4.68551 0
M  V30 1793 C 163.458 2.74933 -4.20378 0
M  V30 1794 C 165.452 2.07264 -6.02761 0
M  V30 1795 C 163.139 2.56521 -5.54653 0
M  V30 1796 C 164.137 2.22737 -6.4566 0
M  V30 1797 O 163.825 2.04485 -7.77458 0
M  V30 1798 H 163.557 0.463842 -0.491759 0
M  V30 1799 H 166.111 0.865934 -1.86255 0
M  V30 1800 H 164.341 3.41995 -1.8049 0
M  V30 1801 H 166.03 3.39608 -2.22309 0
M  V30 1802 H 166.796 2.12787 -4.35829 0
M  V30 1803 H 162.675 3.00213 -3.49848 0
M  V30 1804 H 166.219 1.80817 -6.73759 0
M  V30 1805 H 162.116 2.68616 -5.86955 0
M  V30 1806 H 162.884 2.1926 -7.88586 0
M  V30 1807 N 165.547 1.27147 0.931209 0
M  V30 1808 C 166.477 1.12081 2.04842 0
M  V30 1809 C 167.458 0.0232364 1.70084 0
M  V30 1810 O 168.643 0.197085 1.93197 0
M  V30 1811 C 165.773 0.76354 3.38803 0
M  V30 1812 C 164.727 1.81396 3.87659 0
M  V30 1813 C 164.053 1.31075 5.18385 0
M  V30 1814 C 165.353 3.21739 4.11438 0
M  V30 1815 H 167.047 2.05537 2.17703 0
M  V30 1816 H 164.593 0.989603 1.04608 0
M  V30 1817 H 166.546 0.644982 4.16435 0
M  V30 1818 H 165.27 -0.206727 3.25945 0
M  V30 1819 H 163.929 1.92136 3.12217 0
M  V30 1820 H 163.577 0.330037 5.01916 0
M  V30 1821 H 163.277 2.013 5.52044 0
M  V30 1822 H 164.801 1.20506 5.98591 0
M  V30 1823 H 166.215 3.14019 4.79651 0
M  V30 1824 H 164.612 3.89644 4.56397 0
M  V30 1825 H 165.682 3.67054 3.16859 0
M  V30 1826 N 167.025 -1.13721 1.09112 0
M  V30 1827 C 168.436 -1.6648 0.845068 0
M  V30 1828 C 168.787 -1.85911 -0.62701 0
M  V30 1829 O 167.912 -1.57556 -1.48341 0
M  V30 1830 C 168.507 -3.02413 1.52748 0
M  V30 1831 C 167.066 -3.52176 1.32849 0
M  V30 1832 C 166.213 -2.27492 1.58564 0
M  V30 1833 H 169.164 -0.976872 1.25072 0
M  V30 1834 H 169.185 -3.68223 0.958752 0
M  V30 1835 H 168.697 -2.88238 2.59885 0
M  V30 1836 H 166.798 -3.7156 0.278137 0
M  V30 1837 H 166.911 -4.32499 2.0611 0
M  V30 1838 H 165.275 -2.33923 1.00758 0
M  V30 1839 H 166.058 -2.15886 2.66924 0
M  V30 1840 N 168.503 -0.877838 -1.30888 0
M  V30 1841 C 169.45 -0.337538 -2.28318 0
M  V30 1842 C 170.42 0.568346 -1.56074 0
M  V30 1843 O 171.605 0.498298 -1.84178 0
M  V30 1844 C 168.745 0.448142 -3.42178 0
M  V30 1845 C 167.858 -0.48615 -4.29256 0
M  V30 1846 C 166.993 0.314427 -5.30269 0
M  V30 1847 C 166.032 -0.615791 -6.08995 0
M  V30 1848 N 165.169 0.14902 -7.01942 0
M  V30 1849 H 170.009 -1.17356 -2.73919 0
M  V30 1850 H 167.546 -0.590094 -1.34745 0
M  V30 1851 H 169.504 0.919517 -4.06941 0
M  V30 1852 H 168.134 1.24879 -2.97666 0
M  V30 1853 H 167.186 -1.076 -3.64865 0
M  V30 1854 H 168.498 -1.19909 -4.84173 0
M  V30 1855 H 167.652 0.847969 -6.00745 0
M  V30 1856 H 166.391 1.06062 -4.76027 0
M  V30 1857 H 165.396 -1.16102 -5.37401 0
M  V30 1858 H 166.621 -1.36097 -6.65323 0
M  V30 1859 H 164.567 0.877884 -6.50099 0
M  V30 1860 H 164.484 -0.504433 -7.54315 0
M  V30 1861 H 165.752 0.663537 -7.76671 0
M  V30 1862 N 169.982 1.44106 -0.638065 0
M  V30 1863 C 171.228 2.02815 -0.15409 0
M  V30 1864 C 171.583 1.49342 1.21304 0
M  V30 1865 O 170.876 0.670699 1.79478 0
M  V30 1866 C 171.07 3.5729 -0.0887327 0
M  V30 1867 C 170.899 4.2575 -1.44799 0
M  V30 1868 C 169.669 4.62443 -2.03653 0
M  V30 1869 C 171.867 4.55746 -2.38327 0
M  V30 1870 N 169.849 5.15903 -3.32741 0
M  V30 1871 C 171.22 5.10364 -3.52036 0
M  V30 1872 C 173.275 4.37703 -2.3732 0
M  V30 1873 C 171.978 5.48837 -4.64941 0
M  V30 1874 C 174.004 4.77229 -3.49294 0
M  V30 1875 C 173.366 5.31966 -4.61726 0
M  V30 1876 H 169.465 0.775519 -0.100466 0
M  V30 1877 H 172.049 1.755 -0.843071 0
M  V30 1878 H 170.22 3.84201 0.569548 0
M  V30 1879 H 171.952 4.02671 0.404711 0
M  V30 1880 H 168.707 4.46987 -1.56523 0
M  V30 1881 H 169.131 5.47102 -3.98758 0
M  V30 1882 H 173.773 3.94671 -1.51641 0
M  V30 1883 H 171.491 5.9082 -5.51323 0
M  V30 1884 H 175.077 4.64976 -3.49698 0
M  V30 1885 H 173.957 5.61986 -5.46939 0
M  V30 1886 N 171.46 0.379036 1.52974 0
M  V30 1887 C 172.69 -0.20649 2.05566 0
M  V30 1888 C 173.098 -1.41906 1.25137 0
M  V30 1889 O 172.441 -1.81421 0.288464 0
M  V30 1890 C 172.503 -0.651086 3.53555 0
M  V30 1891 C 172.167 0.446626 4.54812 0
M  V30 1892 C 173.164 1.30079 5.03364 0
M  V30 1893 C 170.849 0.610719 4.98573 0
M  V30 1894 C 172.843 2.30426 5.94292 0
M  V30 1895 C 170.53 1.61754 5.89304 0
M  V30 1896 C 171.528 2.46274 6.37054 0
M  V30 1897 O 171.216 3.45237 7.25994 0
M  V30 1898 H 170.948 -0.0372381 0.674974 0
M  V30 1899 H 173.502 0.539718 1.98182 0
M  V30 1900 H 171.732 -1.44911 3.58522 0
M  V30 1901 H 173.421 -1.16112 3.88938 0
M  V30 1902 H 174.187 1.18527 4.70294 0
M  V30 1903 H 170.066 -0.0374044 4.60985 0
M  V30 1904 H 173.61 2.96432 6.31485 0
M  V30 1905 H 169.507 1.73348 6.21788 0
M  V30 1906 H 170.275 3.41124 7.44027 0
M  V30 1907 N 172.938 -1.57226 0.108567 0
M  V30 1908 C 173.885 -2.14756 -0.845481 0
M  V30 1909 C 174.855 -1.06971 -1.27068 0
M  V30 1910 O 176.04 -1.34827 -1.35005 0
M  V30 1911 C 173.18 -2.74298 -2.09415 0
M  V30 1912 C 172.293 -3.96358 -1.71826 0
M  V30 1913 C 171.428 -4.44021 -2.9158 0
M  V30 1914 C 170.467 -5.58637 -2.50181 0
M  V30 1915 N 169.604 -6.01091 -3.62814 0
M  V30 1916 H 174.444 -2.95961 -0.348035 0
M  V30 1917 H 171.981 -1.46226 -0.160106 0
M  V30 1918 H 173.939 -3.06945 -2.82561 0
M  V30 1919 H 172.569 -1.95801 -2.56636 0
M  V30 1920 H 171.621 -3.69939 -0.885947 0
M  V30 1921 H 172.933 -4.79504 -1.37394 0
M  V30 1922 H 172.087 -4.78522 -3.72963 0
M  V30 1923 H 170.826 -3.59803 -3.29231 0
M  V30 1924 H 169.831 -5.23751 -1.67228 0
M  V30 1925 H 171.056 -6.44613 -2.13659 0
M  V30 1926 H 169.002 -5.19817 -4.00158 0
M  V30 1927 H 168.919 -6.79066 -3.32273 0
M  V30 1928 H 170.187 -6.40227 -4.44668 0
M  V30 1929 N 174.416 0.165178 -1.56732 0
M  V30 1930 C 175.346 1.20651 -1.99914 0
M  V30 1931 C 176.327 1.45827 -0.875705 0
M  V30 1932 O 177.512 1.57057 -1.14223 0
M  V30 1933 C 174.642 2.54401 -2.36427 0
M  V30 1934 C 173.596 2.43782 -3.51787 0
M  V30 1935 C 172.922 3.82078 -3.7406 0
M  V30 1936 C 174.222 1.93732 -4.85041 0
M  V30 1937 H 175.916 0.847534 -2.87154 0
M  V30 1938 H 173.462 0.40625 -1.38151 0
M  V30 1939 H 175.415 3.27458 -2.65234 0
M  V30 1940 H 174.139 2.92098 -1.46103 0
M  V30 1941 H 172.798 1.73178 -3.23117 0
M  V30 1942 H 172.446 4.17179 -2.81017 0
M  V30 1943 H 172.146 3.7584 -4.51684 0
M  V30 1944 H 173.67 4.56712 -4.05274 0
M  V30 1945 H 175.084 2.56569 -5.12684 0
M  V30 1946 H 173.481 1.98428 -5.66345 0
M  V30 1947 H 174.551 0.891962 -4.76626 0
M  V30 1948 N 175.894 1.51508 0.433938 0
M  V30 1949 C 177.171 1.54888 1.19453 0
M  V30 1950 C 177.551 0.315154 2.08734 0
M  V30 1951 O 176.899 -0.699558 2.17528 0
M  V30 1952 C 177.109 2.86467 1.99342 0
M  V30 1953 C 178.457 3.38545 2.56267 0
M  V30 1954 O 179.481 2.88041 2.0955 0
M  V30 1955 O 178.34 4.26675 3.41483 0
M  V30 1956 H 175.434 0.622863 0.544032 0
M  V30 1957 H 177.98 1.63823 0.442732 0
M  V30 1958 H 176.752 3.67718 1.33788 0
M  V30 1959 H 176.375 2.8071 2.8158 0
M  V30 1960 N 177.372 -0.689602 1.41712 0
M  V30 1961 C 178.282 -1.83314 1.46401 0
M  V30 1962 C 179.298 -1.7036 0.35405 0
M  V30 1963 O 180.474 -1.92171 0.602692 0
M  V30 1964 C 177.539 -3.19344 1.34982 0
M  V30 1965 C 176.6 -3.44363 2.56344 0
M  V30 1966 C 175.833 -4.73904 2.45461 0
M  V30 1967 O 176.056 -5.508 1.48241 0
M  V30 1968 O 174.99 -4.99839 3.35328 0
M  V30 1969 H 178.816 -1.82314 2.42889 0
M  V30 1970 H 176.401 -0.843438 1.23315 0
M  V30 1971 H 178.283 -4.00547 1.3092 0
M  V30 1972 H 176.958 -3.21014 0.41612 0
M  V30 1973 H 175.865 -2.63067 2.65982 0
M  V30 1974 H 177.198 -3.47512 3.48563 0
M  V30 1975 N 178.85 -1.27639 -0.924453 0
M  V30 1976 C 179.78 -1.13166 -2.04244 0
M  V30 1977 C 180.761 -0.032256 -1.70069 0
M  V30 1978 O 181.946 -0.207328 -1.9309 0
M  V30 1979 C 179.076 -0.781496 -3.38393 0
M  V30 1980 C 178.03 -1.83449 -3.86692 0
M  V30 1981 C 177.356 -1.33822 -5.17683 0
M  V30 1982 C 178.656 -3.23917 -4.09726 0
M  V30 1983 H 180.35 -2.06689 -2.1661 0
M  V30 1984 H 177.896 -0.995136 -1.04082 0
M  V30 1985 H 179.849 -0.667057 -4.16087 0
M  V30 1986 H 178.573 0.189439 -3.2605 0
M  V30 1987 H 177.232 -1.93789 -3.11193 0
M  V30 1988 H 176.88 -0.35665 -5.01734 0
M  V30 1989 H 176.58 -2.04224 -5.50968 0
M  V30 1990 H 178.104 -1.23679 -5.97943 0
M  V30 1991 H 179.518 -3.16559 -4.77978 0
M  V30 1992 H 177.915 -3.92059 -4.54324 0
M  V30 1993 H 178.985 -3.68729 -3.14908 0
M  V30 1994 N 180.328 1.1314 -1.09713 0
M  V30 1995 C 181.258 2.20748 -0.761102 0
M  V30 1996 C 182.239 1.68061 0.262566 0
M  V30 1997 O 183.424 1.93765 0.129977 0
M  V30 1998 C 180.554 3.46812 -0.184054 0
M  V30 1999 C 179.508 4.12606 -1.13757 0
M  V30 2000 C 178.834 5.33031 -0.422083 0
M  V30 2001 C 180.134 4.59603 -2.48118 0
M  V30 2002 H 181.828 2.49113 -1.66082 0
M  V30 2003 H 179.374 1.19734 -0.799987 0
M  V30 2004 H 181.327 4.21353 0.0631215 0
M  V30 2005 H 180.051 3.17851 0.750868 0
M  V30 2006 H 178.71 3.40036 -1.37007 0
M  V30 2007 H 178.358 5.00335 0.517072 0
M  V30 2008 H 178.058 5.77999 -1.05788 0
M  V30 2009 H 179.582 6.10325 -0.183277 0
M  V30 2010 H 180.996 5.25552 -2.29059 0
M  V30 2011 H 179.393 5.15321 -3.07514 0
M  V30 2012 H 180.463 3.73971 -3.08665 0
M  V30 2013 N 181.806 0.884767 1.30421 0
M  V30 2014 C 182.754 0.340869 2.30089 0
M  V30 2015 C 183.748 -0.55201 1.60154 0
M  V30 2016 O 184.954 -0.436467 1.74628 0
M  V30 2017 H 181.329 0.0915739 0.746404 0
M  V30 2018 H 183.3 1.19513 2.73421 0
M  V30 2019 C 182.049 -0.429779 3.45034 0
M  V30 2020 H 181.372 0.248024 3.9903 0
M  V30 2021 H 182.812 -0.775445 4.16849 0
M  V30 2022 C 181.271 -1.62677 2.95022 0
M  V30 2023 O 181.801 -2.72614 2.95033 0
M  V30 2024 N 180.007 -1.46387 2.51036 0
M  V30 2025 H 179.554 -0.569506 2.51226 0
M  V30 2026 H 179.512 -2.26612 2.17932 0
M  V30 2027 N 183.284 -1.43765 0.645699 0
M  V30 2028 C 184.214 -2.33471 -0.0370477 0
M  V30 2029 C 185.195 -1.49042 -0.819779 0
M  V30 2030 O 186.38 -1.77726 -0.782758 0
M  V30 2031 C 183.51 -3.32311 -1.0093 0
M  V30 2032 C 182.464 -4.2667 -0.337201 0
M  V30 2033 C 181.79 -5.1549 -1.42037 0
M  V30 2034 C 183.09 -5.16657 0.765706 0
M  V30 2035 H 184.784 -2.90809 0.712069 0
M  V30 2036 H 182.33 -1.39834 0.343876 0
M  V30 2037 H 184.283 -3.9396 -1.49578 0
M  V30 2038 H 183.007 -2.73213 -1.78948 0
M  V30 2039 H 181.666 -3.66374 0.128771 0
M  V30 2040 H 181.314 -4.52735 -2.1918 0
M  V30 2041 H 181.014 -5.79438 -0.975966 0
M  V30 2042 H 182.538 -5.80012 -1.90838 0
M  V30 2043 H 183.952 -5.72158 0.361702 0
M  V30 2044 H 182.349 -5.89286 1.13413 0
M  V30 2045 H 183.419 -4.56796 1.62683 0
M  V30 2046 N 184.763 -0.387143 -1.52771 0
M  V30 2047 C 186.012 0.19697 -2.00736 0
M  V30 2048 C 186.325 1.48082 -1.27793 0
M  V30 2049 O 187.531 2.14485 -1.66458 0
M  V30 2050 C 185.987 0.401568 -3.57653 0
M  V30 2051 C 185.595 -0.868907 -4.39493 0
M  V30 2052 C 187.339 0.942164 -4.13912 0
M  V30 2053 C 185.246 -0.632705 -5.88006 0
M  V30 2054 H 184.176 0.0773827 -0.750019 0
M  V30 2055 H 186.827 -0.50921 -1.76293 0
M  V30 2056 H 185.209 1.16954 -3.78335 0
M  V30 2057 H 186.383 -1.64133 -4.30577 0
M  V30 2058 H 184.698 -1.33429 -3.94443 0
M  V30 2059 H 187.295 1.13455 -5.22525 0
M  V30 2060 H 187.638 1.9106 -3.69867 0
M  V30 2061 H 188.171 0.233814 -3.97112 0
M  V30 2062 H 184.91 -1.57208 -6.36369 0
M  V30 2063 H 184.43 0.100825 -5.99715 0
M  V30 2064 H 186.109 -0.26642 -6.46451 0
M  V30 2065 N 186.241 1.57166 -0.116904 0
M  V30 2066 C 187.173 2.12271 0.864507 0
M  V30 2067 C 188.186 1.06494 1.23138 0
M  V30 2068 O 189.375 1.33873 1.18069 0
M  V30 2069 C 186.475 2.60564 2.16702 0
M  V30 2070 C 185.648 3.90416 1.97216 0
M  V30 2071 C 184.707 4.24329 3.11178 0
M  V30 2072 O 183.733 4.93182 2.84184 0
M  V30 2073 N 184.935 3.8148 4.37554 0
M  V30 2074 H 187.7 2.97102 0.393726 0
M  V30 2075 H 185.261 1.61759 0.0675805 0
M  V30 2076 H 187.253 2.80282 2.91932 0
M  V30 2077 H 185.823 1.80623 2.55135 0
M  V30 2078 H 185.043 3.79627 1.06192 0
M  V30 2079 H 186.331 4.75327 1.81499 0
M  V30 2080 H 185.729 3.25943 4.62361 0
M  V30 2081 H 184.286 4.06311 5.09661 0
M  V30 2082 N 187.719 -0.156864 1.56817 0
M  V30 2083 C 188.966 -0.871125 1.82805 0
M  V30 2084 C 189.294 -1.81611 0.696262 0
M  V30 2085 O 188.549 -1.93141 -0.315459 0
M  V30 2086 C 188.848 -1.68737 3.1506 0
M  V30 2087 C 188.514 -0.890045 4.42028 0
M  V30 2088 C 187.176 -0.670042 4.76512 0
M  V30 2089 C 189.528 -0.331769 5.20143 0
M  V30 2090 C 186.856 0.119104 5.86579 0
M  V30 2091 C 189.208 0.444365 6.31037 0
M  V30 2092 C 187.872 0.675035 6.64078 0
M  V30 2093 H 187.142 -0.318767 0.668931 0
M  V30 2094 H 189.789 -0.135274 1.91022 0
M  V30 2095 H 188.094 -2.49304 3.0225 0
M  V30 2096 H 189.791 -2.24331 3.3238 0
M  V30 2097 H 186.381 -1.07157 4.14988 0
M  V30 2098 H 190.565 -0.489043 4.93885 0
M  V30 2099 H 185.821 0.307417 6.10627 0
M  V30 2100 H 189.995 0.884139 6.90765 0
M  V30 2101 H 187.622 1.28839 7.49203 0
M  V30 2102 N 189.197 -1.51736 -0.425897 0
M  V30 2103 C 190.446 -1.64201 -1.17136 0
M  V30 2104 C 190.759 -0.369705 -1.92074 0
M  V30 2105 O 191.965 -0.373898 -2.68913 0
M  V30 2106 C 190.421 -2.90035 -2.13091 0
M  V30 2107 C 190.029 -4.24312 -1.43747 0
M  V30 2108 C 191.773 -3.1186 -2.87999 0
M  V30 2109 C 189.68 -5.41285 -2.38253 0
M  V30 2110 H 188.61 -0.611624 -0.440944 0
M  V30 2111 H 191.261 -1.78212 -0.437328 0
M  V30 2112 H 189.643 -2.69684 -2.89977 0
M  V30 2113 H 190.817 -4.55086 -0.723408 0
M  V30 2114 H 189.132 -4.08456 -0.809465 0
M  V30 2115 H 191.729 -3.96427 -3.58817 0
M  V30 2116 H 192.072 -2.25403 -3.49999 0
M  V30 2117 H 192.605 -3.32605 -2.18217 0
M  V30 2118 H 189.344 -6.30037 -1.80925 0
M  V30 2119 H 188.864 -5.14872 -3.0768 0
M  V30 2120 H 190.543 -5.73694 -2.99139 0
M  V30 2121 N 190.675 0.682077 -1.42076 0
M  V30 2122 C 191.923 1.4393 -1.41876 0
M  V30 2123 C 192.244 1.94971 -0.0335599 0
M  V30 2124 O 191.514 1.72591 0.926773 0
M  V30 2125 H 190.094 0.534085 -0.522267 0
M  V30 2126 H 192.756 0.806427 -1.77434 0
M  V30 2127 H 191.852 2.29588 -2.11414 0
M  V30 2128 N 192.153 1.28127 0.917671 0
M  V30 2129 C 193.399 1.15223 1.66888 0
M  V30 2130 C 193.732 -0.299293 1.9188 0
M  V30 2131 O 193.007 -1.21805 1.51637 0
M  V30 2132 C 193.29 1.94706 3.02922 0
M  V30 2133 C 193.143 3.47898 2.85109 0
M  V30 2134 C 194.462 1.75939 4.03402 0
M  V30 2135 H 191.581 0.419946 0.605652 0
M  V30 2136 H 194.223 1.57398 1.06423 0
M  V30 2137 H 192.373 1.58864 3.54534 0
M  V30 2138 H 194.045 3.93624 2.40537 0
M  V30 2139 H 192.288 3.7373 2.20246 0
M  V30 2140 H 192.959 3.98765 3.81694 0
M  V30 2141 H 195.435 2.07209 3.60837 0
M  V30 2142 H 194.311 2.33931 4.96556 0
M  V30 2143 H 194.572 0.709877 4.36364 0
M  V30 2144 N 193.631 -1.12557 1.10312 0
M  V30 2145 C 194.578 -2.18247 0.750781 0
M  V30 2146 C 195.548 -1.63853 -0.272293 0
M  V30 2147 O 196.733 -1.90195 -0.151862 0
M  V30 2148 C 193.873 -3.44591 0.187379 0
M  V30 2149 C 192.986 -4.13046 1.2656 0
M  V30 2150 C 192.121 -5.27034 0.663978 0
M  V30 2151 C 191.16 -5.87353 1.72287 0
M  V30 2152 N 190.297 -6.92757 1.1416 0
M  V30 2153 H 195.137 -2.47732 1.65628 0
M  V30 2154 H 192.674 -1.21629 0.827337 0
M  V30 2155 H 194.632 -4.16904 -0.157148 0
M  V30 2156 H 193.262 -3.15527 -0.681355 0
M  V30 2157 H 192.314 -3.38924 1.72727 0
M  V30 2158 H 193.626 -4.53947 2.06721 0
M  V30 2159 H 192.78 -6.06104 0.268824 0
M  V30 2160 H 191.519 -4.87407 -0.169082 0
M  V30 2161 H 190.524 -5.06971 2.12746 0
M  V30 2162 H 191.749 -6.29051 2.55875 0
M  V30 2163 H 189.695 -6.5517 0.329984 0
M  V30 2164 H 189.612 -7.3225 1.88007 0
M  V30 2165 H 190.88 -7.75658 0.772956 0
M  V30 2166 N 195.109 -0.891671 -1.2995 0
M  V30 2167 C 196.525 -0.58662 -1.48428 0
M  V30 2168 C 196.725 0.873951 -1.81561 0
M  V30 2169 O 195.781 1.65471 -1.90724 0
M  V30 2170 C 197.094 -1.50553 -2.60296 0
M  V30 2171 C 198.642 -1.50988 -2.74175 0
M  V30 2172 C 199.117 -2.41488 -3.89163 0
M  V30 2173 N 200.608 -2.39489 -3.96483 0
M  V30 2174 C 201.343 -3.06223 -4.84784 0
M  V30 2175 N 200.839 -3.82206 -5.77833 0
M  V30 2176 N 202.632 -2.95421 -4.78208 0
M  V30 2177 H 194.783 -1.83644 -1.06718 0
M  V30 2178 H 197.046 -0.786455 -0.529332 0
M  V30 2179 H 196.752 -2.54581 -2.42654 0
M  V30 2180 H 196.626 -1.22008 -3.56923 0
M  V30 2181 H 199.013 -0.47708 -2.91218 0
M  V30 2182 H 199.094 -1.83567 -1.78148 0
M  V30 2183 H 198.738 -3.44857 -3.72876 0
M  V30 2184 H 198.668 -2.06222 -4.84541 0
M  V30 2185 H 201.159 -1.84278 -3.29924 0
M  V30 2186 H 201.472 -4.302 -6.41988 0
M  V30 2187 H 199.817 -3.86313 -5.77743 0
M  V30 2188 H 203.008 -2.35581 -4.04499 0
M  V30 2189 H 203.181 -3.47704 -5.46814 0
M  V30 2190 N 196.587 1.43421 -0.653314 0
M  V30 2191 C 197.998 1.85065 -0.246537 0
M  V30 2192 C 198.349 1.54688 1.2069 0
M  V30 2193 O 197.474 0.995896 1.92122 0
M  V30 2194 C 198.069 3.35922 -0.440666 0
M  V30 2195 C 196.628 3.76297 -0.0882064 0
M  V30 2196 C 195.775 2.67147 -0.743484 0
M  V30 2197 H 198.726 1.33572 -0.856979 0
M  V30 2198 H 198.747 3.79204 0.313798 0
M  V30 2199 H 198.259 3.58 -1.49858 0
M  V30 2200 H 196.36 3.5983 0.96711 0
M  V30 2201 H 196.473 4.76338 -0.513738 0
M  V30 2202 H 194.837 2.54086 -0.176712 0
M  V30 2203 H 195.62 2.92053 -1.80443 0
M  V30 2204 N 198.065 0.39524 1.52563 0
M  V30 2205 C 199.313 -0.184678 2.01254 0
M  V30 2206 C 199.634 -1.46822 1.28329 0
M  V30 2207 O 198.904 -1.91666 0.405094 0
M  V30 2208 H 197.484 -0.0712355 0.743596 0
M  V30 2209 H 200.146 0.528293 1.87603 0
M  V30 2210 H 199.242 -0.390681 3.09645 0
M  V30 2211 N 199.544 -1.57102 0.125237 0
M  V30 2212 C 200.791 -1.95407 -0.531248 0
M  V30 2213 C 201.119 -1.0089 -1.66287 0
M  V30 2214 O 200.374 -0.0339431 -1.95671 0
M  V30 2215 C 200.673 -3.40096 -1.09862 0
M  V30 2216 C 200.339 -4.50815 -0.0876989 0
M  V30 2217 C 199.001 -4.80824 0.19026 0
M  V30 2218 C 201.353 -5.17724 0.600902 0
M  V30 2219 C 198.681 -5.75058 1.163 0
M  V30 2220 C 201.033 -6.13005 1.56231 0
M  V30 2221 C 199.697 -6.41403 1.8482 0
M  V30 2222 H 198.967 -0.715046 -0.194397 0
M  V30 2223 H 201.614 -1.90373 0.207463 0
M  V30 2224 H 199.919 -3.41855 -1.91422 0
M  V30 2225 H 201.616 -3.6705 -1.61478 0
M  V30 2226 H 198.206 -4.27444 -0.314528 0
M  V30 2227 H 202.39 -4.94691 0.399333 0
M  V30 2228 H 197.646 -5.95362 1.39117 0
M  V30 2229 H 201.82 -6.63934 2.10153 0
M  V30 2230 H 199.447 -7.14229 2.60349 0
M  V30 2231 N 201.022 0.148545 -1.56898 0
M  V30 2232 C 201.972 1.1886 -1.94567 0
M  V30 2233 C 202.956 1.3863 -0.816735 0
M  V30 2234 O 204.148 1.40218 -1.08018 0
M  V30 2235 C 201.277 2.52262 -2.32849 0
M  V30 2236 C 200.363 2.36092 -3.52309 0
M  V30 2237 N 200.754 1.89674 -4.6889 0
M  V30 2238 C 199.052 2.66848 -3.57363 0
M  V30 2239 C 199.753 1.86511 -5.50989 0
M  V30 2240 N 198.729 2.29766 -4.92655 0
M  V30 2241 H 202.531 0.821793 -2.82177 0
M  V30 2242 H 200.045 0.356615 -1.58436 0
M  V30 2243 H 202.042 3.27447 -2.58039 0
M  V30 2244 H 200.702 2.89727 -1.46589 0
M  V30 2245 H 201.713 1.59663 -4.92674 0
M  V30 2246 H 198.39 3.08198 -2.81639 0
M  V30 2247 H 199.78 1.52128 -6.54452 0
M  V30 2248 N 202.5 1.5196 0.417844 0
M  V30 2249 C 203.746 1.65836 1.16732 0
M  V30 2250 C 204.079 0.382881 1.90388 0
M  V30 2251 O 203.354 -0.618368 1.84408 0
M  V30 2252 C 203.637 2.87466 2.16876 0
M  V30 2253 C 203.49 4.25041 1.47174 0
M  V30 2254 C 204.809 3.04613 3.17646 0
M  V30 2255 H 201.928 0.603515 0.423011 0
M  V30 2256 H 204.57 1.84494 0.454105 0
M  V30 2257 H 202.72 2.71689 2.777 0
M  V30 2258 H 204.392 4.52527 0.895376 0
M  V30 2259 H 202.635 4.26843 0.773806 0
M  V30 2260 H 203.306 5.06176 2.20204 0
M  V30 2261 H 205.782 3.1923 2.66892 0
M  V30 2262 H 204.658 3.91247 3.8499 0
M  V30 2263 H 204.919 2.17541 3.84874 0
M  V30 2264 N 203.978 -0.674533 1.42435 0
M  V30 2265 C 204.888 -1.81751 1.48337 0
M  V30 2266 C 205.904 -1.69975 0.372099 0
M  V30 2267 O 207.08 -1.91521 0.62304 0
M  V30 2268 C 204.145 -3.17895 1.38361 0
M  V30 2269 C 203.206 -3.41625 2.59982 0
M  V30 2270 C 202.439 -4.71274 2.50473 0
M  V30 2271 O 202.662 -5.49197 1.54075 0
M  V30 2272 O 201.596 -4.96254 3.4061 0
M  V30 2273 H 205.422 -1.79728 2.44809 0
M  V30 2274 H 203.007 -0.830312 1.24202 0
M  V30 2275 H 204.889 -3.99136 1.35161 0
M  V30 2276 H 203.564 -3.20555 0.450144 0
M  V30 2277 H 202.471 -2.60231 2.68757 0
M  V30 2278 H 203.804 -3.43796 3.52229 0
M  V30 2279 N 205.456 -1.28612 -0.910864 0
M  V30 2280 C 206.684 -1.18792 -1.69399 0
M  V30 2281 C 207.099 0.253039 -1.87097 0
M  V30 2282 O 206.456 1.17071 -1.40003 0
M  V30 2283 C 206.507 -1.88511 -3.08457 0
M  V30 2284 O 206.228 -3.26979 -2.91576 0
M  V30 2285 C 207.729 -1.85029 -4.02839 0
M  V30 2286 H 204.949 -0.412233 -0.529438 0
M  V30 2287 H 207.493 -1.69788 -1.13984 0
M  V30 2288 H 205.648 -1.41379 -3.60681 0
M  V30 2289 H 206.062 -3.61936 -3.79608 0
M  V30 2290 H 207.536 -2.38395 -4.97867 0
M  V30 2291 H 208.013 -0.823303 -4.31414 0
M  V30 2292 H 208.619 -2.31853 -3.56545 0
M  V30 2293 N 206.934 1.1197 -1.10907 0
M  V30 2294 C 208.345 1.65114 -0.871446 0
M  V30 2295 C 208.696 1.86885 0.597353 0
M  V30 2296 O 207.821 1.59896 1.45816 0
M  V30 2297 C 208.416 2.99944 -1.5754 0
M  V30 2298 C 206.975 3.50018 -1.38435 0
M  V30 2299 C 206.122 2.24941 -1.62164 0
M  V30 2300 H 209.073 0.956851 -1.2661 0
M  V30 2301 H 209.094 3.66651 -1.01721 0
M  V30 2302 H 208.606 2.84067 -2.64438 0
M  V30 2303 H 206.707 3.71071 -0.337214 0
M  V30 2304 H 206.82 4.29165 -2.12965 0
M  V30 2305 H 205.184 2.3229 -1.04467 0
M  V30 2306 H 205.967 2.11612 -2.70324 0
M  V30 2307 N 208.412 0.89855 1.29475 0
M  V30 2308 C 209.642 0.538479 1.99459 0
M  V30 2309 C 210.05 -0.880922 1.67441 0
M  V30 2310 O 209.393 -1.59283 0.915127 0
M  V30 2311 C 209.455 0.649564 3.53583 0
M  V30 2312 C 209.119 2.03573 4.09154 0
M  V30 2313 C 210.116 3.00675 4.24135 0
M  V30 2314 C 207.801 2.3448 4.44212 0
M  V30 2315 C 209.795 4.26809 4.73405 0
M  V30 2316 C 207.482 3.60857 4.93179 0
M  V30 2317 C 208.48 4.56836 5.0773 0
M  V30 2318 O 208.168 5.80969 5.55635 0
M  V30 2319 H 207.9 0.205372 0.644048 0
M  V30 2320 H 210.454 1.20958 1.66007 0
M  V30 2321 H 208.684 -0.0785592 3.8662 0
M  V30 2322 H 210.373 0.29881 4.04799 0
M  V30 2323 H 211.139 2.78112 3.97339 0
M  V30 2324 H 207.018 1.60534 4.32145 0
M  V30 2325 H 210.562 5.0173 4.84678 0
M  V30 2326 H 206.459 3.83251 5.19412 0
M  V30 2327 H 207.227 5.83542 5.73952 0
M  V30 2328 N 209.89 -1.43072 0.660911 0
M  V30 2329 C 211.301 -1.84932 0.256348 0
M  V30 2330 C 211.652 -1.55325 -1.19868 0
M  V30 2331 O 210.777 -1.00607 -1.91591 0
M  V30 2332 C 211.372 -3.35684 0.458475 0
M  V30 2333 C 209.931 -3.76245 0.108161 0
M  V30 2334 C 209.078 -2.66749 0.757641 0
M  V30 2335 H 212.029 -1.33116 0.864051 0
M  V30 2336 H 212.05 -3.79365 -0.293683 0
M  V30 2337 H 211.562 -3.572 1.51755 0
M  V30 2338 H 209.663 -3.60338 -0.948014 0
M  V30 2339 H 209.776 -4.76058 0.538992 0
M  V30 2340 H 208.14 -2.53989 0.190185 0
M  V30 2341 H 208.923 -2.91092 1.81989 0
M  V30 2342 N 211.368 -0.403325 -1.52352 0
M  V30 2343 C 212.298 0.416205 -2.29761 0
M  V30 2344 C 213.279 1.05123 -1.33728 0
M  V30 2345 O 214.464 1.06134 -1.62632 0
M  V30 2346 C 211.594 1.53624 -3.11475 0
M  V30 2347 C 210.548 1.02653 -4.15507 0
M  V30 2348 C 209.874 2.23971 -4.85532 0
M  V30 2349 C 211.174 0.08463 -5.22231 0
M  V30 2350 H 212.868 -0.229701 -2.98518 0
M  V30 2351 H 210.414 -0.111913 -1.43564 0
M  V30 2352 H 212.367 2.1165 -3.64393 0
M  V30 2353 H 211.091 2.20994 -2.40477 0
M  V30 2354 H 209.75 0.46871 -3.63591 0
M  V30 2355 H 209.398 2.89883 -4.11068 0
M  V30 2356 H 209.098 1.90521 -5.55856 0
M  V30 2357 H 210.622 2.82614 -5.41259 0
M  V30 2358 H 212.036 0.573509 -5.70424 0
M  V30 2359 H 210.433 -0.160783 -5.99885 0
M  V30 2360 H 211.503 -0.86237 -4.7717 0
M  V30 2361 N 212.846 1.57033 -0.133567 0
M  V30 2362 C 213.776 2.1909 0.807567 0
M  V30 2363 C 214.757 1.13517 1.26681 0
M  V30 2364 O 215.942 1.41809 1.32679 0
M  V30 2365 C 213.072 2.80188 2.05212 0
M  V30 2366 C 212.026 3.91471 1.73015 0
M  V30 2367 C 211.352 4.39443 3.04622 0
M  V30 2368 C 212.652 5.12886 0.987168 0
M  V30 2369 H 214.346 2.97988 0.290403 0
M  V30 2370 H 211.892 1.43335 0.138239 0
M  V30 2371 H 213.845 3.22264 2.71521 0
M  V30 2372 H 212.569 1.98601 2.59278 0
M  V30 2373 H 211.228 3.49993 1.0909 0
M  V30 2374 H 210.876 3.54695 3.56651 0
M  V30 2375 H 210.576 5.14495 2.83847 0
M  V30 2376 H 212.1 4.8418 3.72024 0
M  V30 2377 H 213.514 5.51891 1.55208 0
M  V30 2378 H 211.911 5.93615 0.87985 0
M  V30 2379 H 212.981 4.84894 -0.0235286 0
M  V30 2380 N 214.325 -0.140222 1.56975 0
M  V30 2381 C 215.572 -0.851687 1.83719 0
M  V30 2382 C 215.9 -1.80862 0.715485 0
M  V30 2383 O 215.155 -1.93464 -0.294956 0
M  V30 2384 C 215.454 -1.65386 3.16832 0
M  V30 2385 C 215.12 -0.843112 4.42947 0
M  V30 2386 C 213.782 -0.619464 4.77196 0
M  V30 2387 C 216.134 -0.276582 5.20466 0
M  V30 2388 C 213.462 0.181312 5.8642 0
M  V30 2389 C 215.814 0.51127 6.30531 0
M  V30 2390 C 214.478 0.745432 6.63325 0
M  V30 2391 H 213.748 -0.311654 0.672274 0
M  V30 2392 H 216.395 -0.115006 1.91154 0
M  V30 2393 H 214.7 -2.46084 3.04877 0
M  V30 2394 H 216.397 -2.20793 3.34741 0
M  V30 2395 H 212.987 -1.0275 4.16101 0
M  V30 2396 H 217.171 -0.436632 4.94376 0
M  V30 2397 H 212.427 0.372165 6.10266 0
M  V30 2398 H 216.601 0.957354 6.89788 0
M  V30 2399 H 214.228 1.36778 7.47794 0
M  V30 2400 N 215.803 -1.52179 -0.40978 0
M  V30 2401 C 216.766 -1.74853 -1.48186 0
M  V30 2402 C 217.766 -0.618417 -1.48433 0
M  V30 2403 O 218.956 -0.886286 -1.49969 0
M  V30 2404 C 216.088 -1.8303 -2.87598 0
M  V30 2405 H 217.281 -2.70559 -1.29374 0
M  V30 2406 H 214.834 -1.42586 -0.640233 0
M  V30 2407 H 215.569 -0.89236 -3.11781 0
M  V30 2408 H 215.354 -2.65187 -2.88822 0
M  V30 2409 H 216.844 -2.02316 -3.65319 0
M  V30 2410 N 217.281 0.66697 -1.42791 0
M  V30 2411 C 218.558 1.4234 -1.34159 0
M  V30 2412 C 218.938 2.11093 0.0172729 0
M  V30 2413 O 218.286 2.03808 1.03318 0
M  V30 2414 C 218.496 2.41942 -2.51526 0
M  V30 2415 C 219.844 3.06353 -2.93995 0
M  V30 2416 O 220.868 2.52269 -2.51473 0
M  V30 2417 O 219.727 4.04376 -3.67617 0
M  V30 2418 H 216.821 0.635277 -0.529483 0
M  V30 2419 H 219.367 0.695034 -1.54814 0
M  V30 2420 H 218.139 1.89991 -3.42081 0
M  V30 2421 H 217.762 3.22249 -2.32898 0
M  V30 2422 N 218.759 1.29093 0.90403 0
M  V30 2423 C 220.005 1.16986 1.65656 0
M  V30 2424 C 220.338 -0.278925 1.92186 0
M  V30 2425 O 219.613 -1.2019 1.5292 0
M  V30 2426 C 219.896 1.97908 3.0084 0
M  V30 2427 C 219.749 3.50903 2.81403 0
M  V30 2428 C 221.068 1.80208 4.01513 0
M  V30 2429 H 218.187 0.426346 0.601164 0
M  V30 2430 H 220.829 1.58518 1.04747 0
M  V30 2431 H 218.979 1.62616 3.52829 0
M  V30 2432 H 220.651 3.96153 2.36348 0
M  V30 2433 H 218.894 3.76045 2.1627 0
M  V30 2434 H 219.565 4.02791 3.77443 0
M  V30 2435 H 222.041 2.11025 3.58619 0
M  V30 2436 H 220.917 2.39184 4.94047 0
M  V30 2437 H 221.178 0.756119 4.35586 0
M  V30 2438 N 220.237 -1.11381 1.11499 0
M  V30 2439 C 221.648 -1.6465 0.880191 0
M  V30 2440 C 221.999 -1.87199 -0.587434 0
M  V30 2441 O 221.124 -1.60667 -1.44966 0
M  V30 2442 C 221.719 -2.99105 1.59128 0
M  V30 2443 C 220.278 -3.49279 1.40289 0
M  V30 2444 C 219.425 -2.24077 1.63354 0
M  V30 2445 H 222.376 -0.950123 1.27116 0
M  V30 2446 H 222.397 -3.66107 1.03664 0
M  V30 2447 H 221.909 -2.82661 2.65941 0
M  V30 2448 H 220.01 -3.70887 0.356888 0
M  V30 2449 H 220.123 -4.2803 2.15238 0
M  V30 2450 H 218.487 -2.31733 1.05698 0
M  V30 2451 H 219.27 -2.10175 2.71443 0
M  V30 2452 N 221.715 -0.905404 -1.28997 0
M  V30 2453 C 222.625 -0.392246 -2.31298 0
M  V30 2454 C 223.641 0.515889 -1.66176 0
M  V30 2455 O 224.817 0.404093 -1.97304 0
M  V30 2456 C 221.882 0.36686 -3.44754 0
M  V30 2457 C 220.943 -0.573485 -4.25452 0
M  V30 2458 C 220.176 0.149488 -5.33491 0
M  V30 2459 O 220.399 1.37255 -5.5364 0
M  V30 2460 O 219.333 -0.510919 -5.99728 0
M  V30 2461 H 223.159 -1.2411 -2.77183 0
M  V30 2462 H 220.744 -0.669926 -1.33538 0
M  V30 2463 H 222.626 0.795907 -4.13816 0
M  V30 2464 H 221.301 1.19169 -3.00966 0
M  V30 2465 H 220.208 -1.05176 -3.59011 0
M  V30 2466 H 221.541 -1.36489 -4.72897 0
M  V30 2467 N 223.193 1.4272 -0.668489 0
M  V30 2468 C 224.44 2.01624 -0.18814 0
M  V30 2469 C 224.768 1.5282 1.20317 0
M  V30 2470 O 224.023 0.718323 1.8204 0
M  V30 2471 C 224.322 3.57021 -0.164499 0
M  V30 2472 C 223.988 4.25232 -1.49962 0
M  V30 2473 C 222.65 4.4358 -1.8652 0
M  V30 2474 C 225.002 4.63727 -2.37921 0
M  V30 2475 C 222.33 4.97694 -3.10674 0
M  V30 2476 C 224.682 5.19218 -3.6138 0
M  V30 2477 C 223.346 5.3578 -3.98115 0
M  V30 2478 H 222.616 0.737795 -0.0688454 0
M  V30 2479 H 225.263 1.70991 -0.862225 0
M  V30 2480 H 223.568 3.87285 0.593079 0
M  V30 2481 H 225.265 4.00372 0.224271 0
M  V30 2482 H 221.855 4.11306 -1.20522 0
M  V30 2483 H 226.039 4.4923 -2.10964 0
M  V30 2484 H 221.295 5.08702 -3.39164 0
M  V30 2485 H 225.469 5.4799 -4.29743 0
M  V30 2486 H 223.096 5.77475 -4.94395 0
M  V30 2487 N 224.671 0.411399 1.52136 0
M  V30 2488 C 225.581 -0.419774 2.30814 0
M  V30 2489 C 226.597 -1.0515 1.38634 0
M  V30 2490 O 227.773 -1.05252 1.71709 0
M  V30 2491 C 224.838 -1.52019 3.11594 0
M  V30 2492 C 223.899 -0.91129 4.19516 0
M  V30 2493 C 223.132 -1.95927 4.96436 0
M  V30 2494 O 223.355 -3.17775 4.73683 0
M  V30 2495 O 222.289 -1.56423 5.81219 0
M  V30 2496 H 226.115 0.221805 3.02889 0
M  V30 2497 H 223.7 0.174547 1.48377 0
M  V30 2498 H 225.582 -2.15898 3.61892 0
M  V30 2499 H 224.257 -2.14633 2.42311 0
M  V30 2500 H 223.164 -0.235157 3.7336 0
M  V30 2501 H 224.497 -0.32904 4.91099 0
M  V30 2502 N 226.149 -1.5696 0.141893 0
M  V30 2503 C 227.395 -1.9625 -0.511248 0
M  V30 2504 C 227.728 -1.02654 -1.64851 0
M  V30 2505 O 227.003 -0.0679676 -1.94381 0
M  V30 2506 C 227.286 -3.45285 -1.02227 0
M  V30 2507 C 227.139 -4.49658 0.113138 0
M  V30 2508 C 228.458 -3.96698 -1.90574 0
M  V30 2509 H 225.577 -0.713567 -0.184367 0
M  V30 2510 H 228.219 -1.88698 0.222087 0
M  V30 2511 H 226.369 -3.51852 -1.64719 0
M  V30 2512 H 228.041 -4.55174 0.749302 0
M  V30 2513 H 226.284 -4.26857 0.773026 0
M  V30 2514 H 226.955 -5.51258 -0.286053 0
M  V30 2515 H 229.431 -3.92578 -1.37918 0
M  V30 2516 H 228.307 -5.01453 -2.2324 0
M  V30 2517 H 228.568 -3.3875 -2.84079 0
M  V30 2518 N 227.627 0.131896 -1.57047 0
M  V30 2519 C 228.852 0.860418 -1.8871 0
M  V30 2520 C 229.277 1.73251 -0.73251 0
M  V30 2521 O 228.635 1.785 0.317429 0
M  V30 2522 C 228.683 1.68047 -3.19049 0
M  V30 2523 O 227.787 2.7862 -3.04047 0
M  V30 2524 H 227.128 0.238743 -0.619595 0
M  V30 2525 H 229.658 0.118169 -2.04258 0
M  V30 2526 H 229.668 2.07238 -3.51449 0
M  V30 2527 H 228.343 1.04018 -4.02682 0
M  V30 2528 H 226.92 2.42726 -2.83088 0
M  V30 2529 N 229.106 1.52395 0.401703 0
M  V30 2530 C 230.331 1.70972 1.17403 0
M  V30 2531 C 230.756 0.421615 1.83314 0
M  V30 2532 O 230.114 -0.621564 1.70312 0
M  V30 2533 C 230.162 2.85151 2.20728 0
M  V30 2534 O 229.266 2.51238 3.27037 0
M  V30 2535 H 228.607 0.568927 0.342372 0
M  V30 2536 H 231.137 1.99131 0.469891 0
M  V30 2537 H 231.147 3.10279 2.64936 0
M  V30 2538 H 229.822 3.78603 1.7214 0
M  V30 2539 H 228.399 2.36808 2.88057 0
M  V30 2540 N 230.584 -0.659388 1.43143 0
M  V30 2541 C 231.812 -1.44723 1.47861 0
M  V30 2542 C 232.227 -1.88563 0.0945886 0
M  V30 2543 O 231.584 -1.59108 -0.893915 0
M  V30 2544 C 231.635 -2.68627 2.41913 0
M  V30 2545 O 231.356 -2.26623 3.74932 0
M  V30 2546 C 232.857 -3.62045 2.55809 0
M  V30 2547 H 230.077 -0.444801 0.502387 0
M  V30 2548 H 232.621 -0.808916 1.87821 0
M  V30 2549 H 230.776 -3.28613 2.05164 0
M  V30 2550 H 231.19 -3.06745 4.2545 0
M  V30 2551 H 232.664 -4.45666 3.25708 0
M  V30 2552 H 233.141 -4.08981 1.60099 0
M  V30 2553 H 233.747 -3.07944 2.93344 0
M  V30 2554 N 232.062 -1.29571 -0.897171 0
M  V30 2555 C 232.995 -1.0924 -2.00354 0
M  V30 2556 C 233.973 -0.00354011 -1.626 0
M  V30 2557 O 235.157 -0.15473 -1.87864 0
M  V30 2558 C 232.284 -0.66352 -3.32137 0
M  V30 2559 C 231.33 -1.75146 -3.88878 0
M  V30 2560 S 232.163 -3.35124 -4.17674 0
M  V30 2561 C 233.319 -2.9411 -5.52494 0
M  V30 2562 H 233.552 -2.02907 -2.17292 0
M  V30 2563 H 231.085 -1.13746 -1.04408 0
M  V30 2564 H 233.043 -0.422791 -4.08317 0
M  V30 2565 H 231.704 0.253588 -3.13075 0
M  V30 2566 H 230.897 -1.40337 -4.84068 0
M  V30 2567 H 230.499 -1.94584 -3.19395 0
M  V30 2568 H 232.791 -2.41312 -6.33068 0
M  V30 2569 H 233.734 -3.88161 -5.9223 0
M  V30 2570 H 234.142 -2.32332 -5.14473 0
M  V30 2571 N 233.54 1.10788 -1.12088 0
M  V30 2572 C 234.789 1.82036 -0.868659 0
M  V30 2573 C 235.102 1.85929 0.607426 0
M  V30 2574 O 236.308 2.53346 0.97613 0
M  V30 2575 C 234.764 3.26951 -1.50435 0
M  V30 2576 C 234.372 3.31367 -3.01496 0
M  V30 2577 C 236.116 4.03053 -1.33225 0
M  V30 2578 C 234.023 4.7072 -3.58017 0
M  V30 2579 H 232.953 0.682108 -0.321318 0
M  V30 2580 H 235.604 1.24618 -1.34694 0
M  V30 2581 H 233.986 3.84343 -0.953735 0
M  V30 2582 H 235.16 2.83819 -3.6302 0
M  V30 2583 H 233.475 2.6875 -3.18061 0
M  V30 2584 H 236.072 5.05981 -1.72878 0
M  V30 2585 H 236.415 4.15387 -0.275529 0
M  V30 2586 H 236.948 3.52066 -1.85188 0
M  V30 2587 H 233.687 4.63585 -4.63432 0
M  V30 2588 H 233.207 5.1865 -3.01268 0
M  V30 2589 H 234.886 5.39685 -3.56859 0
M  V30 2590 N 235.018 0.912232 1.28515 0
M  V30 2591 C 236.434 0.610159 1.47476 0
M  V30 2592 C 236.634 -0.844955 1.82928 0
M  V30 2593 O 235.69 -1.62416 1.93332 0
M  V30 2594 C 237.003 1.54675 2.57868 0
M  V30 2595 C 238.551 1.55331 2.71738 0
M  V30 2596 C 239.026 2.47649 3.85272 0
M  V30 2597 N 240.517 2.45767 3.92623 0
M  V30 2598 C 241.252 3.13896 4.79851 0
M  V30 2599 N 240.748 3.9135 5.71679 0
M  V30 2600 N 242.541 3.02991 4.73448 0
M  V30 2601 H 234.692 1.85318 1.03783 0
M  V30 2602 H 236.955 0.794777 0.516753 0
M  V30 2603 H 236.661 2.5841 2.38574 0
M  V30 2604 H 236.535 1.27671 3.54937 0
M  V30 2605 H 238.922 0.52335 2.90422 0
M  V30 2606 H 239.003 1.86378 1.75205 0
M  V30 2607 H 238.647 3.50745 3.67342 0
M  V30 2608 H 238.577 2.13904 4.81199 0
M  V30 2609 H 241.068 1.89503 3.26951 0
M  V30 2610 H 241.381 4.40359 6.35062 0
M  V30 2611 H 239.726 3.95455 5.71524 0
M  V30 2612 H 242.917 2.41987 4.007 0
M  V30 2613 H 243.09 3.5636 5.41213 0
M  V30 2614 N 236.496 -1.42363 0.676048 0
M  V30 2615 C 237.406 -2.346 -0.00153389 0
M  V30 2616 C 238.422 -1.5516 -0.787485 0
M  V30 2617 O 239.598 -1.87723 -0.729521 0
M  V30 2618 C 236.663 -3.33705 -0.940298 0
M  V30 2619 C 235.724 -4.29042 -0.148739 0
M  V30 2620 C 234.957 -5.23413 -1.04279 0
M  V30 2621 O 235.18 -5.22749 -2.28232 0
M  V30 2622 O 234.114 -5.99795 -0.502925 0
M  V30 2623 H 237.94 -2.94082 0.758268 0
M  V30 2624 H 235.525 -1.42888 0.436289 0
M  V30 2625 H 237.407 -3.94586 -1.47917 0
M  V30 2626 H 236.082 -2.76695 -1.67993 0
M  V30 2627 H 234.989 -3.71571 0.43427 0
M  V30 2628 H 236.322 -4.89097 0.551805 0
M  V30 2629 N 237.974 -0.419461 -1.51915 0
M  V30 2630 C 239.39 -0.0708431 -1.59443 0
M  V30 2631 C 239.59 1.41796 -1.43164 0
M  V30 2632 O 238.646 2.18596 -1.26381 0
M  V30 2633 C 239.959 -0.574991 -2.95151 0
M  V30 2634 C 241.507 -0.533867 -3.08413 0
M  V30 2635 C 241.982 -1.01469 -4.46618 0
M  V30 2636 N 243.473 -0.971939 -4.52888 0
M  V30 2637 C 244.208 -1.31505 -5.58116 0
M  V30 2638 N 243.704 -1.73014 -6.70849 0
M  V30 2639 N 245.497 -1.23436 -5.48379 0
M  V30 2640 H 237.648 -1.38836 -1.60743 0
M  V30 2641 H 239.911 -0.570998 -0.756747 0
M  V30 2642 H 239.617 -1.61597 -3.12377 0
M  V30 2643 H 239.491 0.00979777 -3.77199 0
M  V30 2644 H 241.878 0.498086 -2.90866 0
M  V30 2645 H 241.959 -1.15484 -2.28248 0
M  V30 2646 H 241.603 -2.04502 -4.6491 0
M  V30 2647 H 241.533 -0.370433 -5.25295 0
M  V30 2648 H 244.024 -0.666893 -3.71969 0
M  V30 2649 H 244.337 -1.97479 -7.47143 0
M  V30 2650 H 242.682 -1.76926 -6.72103 0
M  V30 2651 H 245.873 -0.908869 -4.59192 0
M  V30 2652 H 246.046 -1.50506 -6.30279 0
M  V30 2653 N 239.452 1.56882 -0.150215 0
M  V30 2654 C 240.699 1.96228 0.500093 0
M  V30 2655 C 241.027 1.03522 1.64661 0
M  V30 2656 O 240.282 0.0650683 1.95592 0
M  V30 2657 C 240.581 3.41801 1.04437 0
M  V30 2658 C 240.247 4.50897 0.0159671 0
M  V30 2659 C 238.909 4.8046 -0.266731 0
M  V30 2660 C 241.261 5.16703 -0.683192 0
M  V30 2661 C 238.589 5.73135 -1.25434 0
M  V30 2662 C 240.941 6.10441 -1.65964 0
M  V30 2663 C 239.605 6.38382 -1.95 0
M  V30 2664 H 238.875 0.718048 0.182997 0
M  V30 2665 H 241.522 1.90019 -0.237724 0
M  V30 2666 H 239.827 3.44857 1.85959 0
M  V30 2667 H 241.524 3.69573 1.55618 0
M  V30 2668 H 238.114 4.27891 0.246485 0
M  V30 2669 H 242.298 4.93993 -0.477983 0
M  V30 2670 H 237.554 5.93074 -1.48571 0
M  V30 2671 H 241.728 6.60507 -2.20689 0
M  V30 2672 H 239.355 7.09996 -2.71679 0
M  V30 2673 N 240.93 -0.123565 1.57115 0
M  V30 2674 C 241.877 -1.15177 2.00007 0
M  V30 2675 C 242.847 -1.41403 0.871454 0
M  V30 2676 O 244.032 -1.53346 1.13533 0
M  V30 2677 C 241.172 -2.47436 2.40561 0
M  V30 2678 C 240.285 -2.28184 3.66819 0
M  V30 2679 C 239.42 -3.53641 3.96373 0
M  V30 2680 C 238.459 -3.29528 5.15827 0
M  V30 2681 N 237.596 -4.47175 5.41275 0
M  V30 2682 H 242.436 -0.779008 2.87638 0
M  V30 2683 H 239.973 -0.373166 1.42288 0
M  V30 2684 H 241.931 -3.24584 2.62109 0
M  V30 2685 H 240.561 -2.82614 1.55978 0
M  V30 2686 H 239.613 -1.41976 3.52912 0
M  V30 2687 H 240.925 -2.0634 4.5412 0
M  V30 2688 H 240.079 -4.39209 4.18545 0
M  V30 2689 H 238.818 -3.78512 3.07538 0
M  V30 2690 H 237.823 -2.42349 4.93505 0
M  V30 2691 H 239.048 -3.06031 6.06236 0
M  V30 2692 H 236.994 -4.72175 4.55397 0
M  V30 2693 H 236.911 -4.28419 6.22891 0
M  V30 2694 H 238.179 -5.3389 5.67963 0
M  V30 2695 N 242.408 -1.52605 -0.393616 0
M  V30 2696 C 243.633 -1.71592 -1.16495 0
M  V30 2697 C 244.058 -0.43133 -1.83088 0
M  V30 2698 O 243.416 0.612523 -1.7064 0
M  V30 2699 C 243.464 -2.86318 -2.19213 0
M  V30 2700 O 242.568 -2.52969 -3.257 0
M  V30 2701 H 241.909 -0.570734 -0.33935 0
M  V30 2702 H 244.439 -1.99377 -0.459324 0
M  V30 2703 H 244.449 -3.1168 -2.63286 0
M  V30 2704 H 243.124 -3.79511 -1.7013 0
M  V30 2705 H 241.701 -2.38332 -2.86797 0
M  V30 2706 N 243.887 0.651787 -1.4349 0
M  V30 2707 C 244.834 1.76462 -1.4876 0
M  V30 2708 C 245.804 1.62641 -0.337189 0
M  V30 2709 O 246.989 1.82864 -0.544544 0
M  V30 2710 C 244.129 3.14623 -1.41796 0
M  V30 2711 C 243.242 3.39568 -2.67053 0
M  V30 2712 C 242.377 4.67585 -2.52068 0
M  V30 2713 C 241.416 4.85639 -3.72587 0
M  V30 2714 N 240.553 6.04915 -3.56402 0
M  V30 2715 H 245.393 1.71293 -2.43849 0
M  V30 2716 H 242.93 0.835889 -1.21043 0
M  V30 2717 H 244.888 3.94496 -1.35753 0
M  V30 2718 H 243.518 3.18859 -0.50288 0
M  V30 2719 H 242.57 2.53783 -2.8337 0
M  V30 2720 H 243.882 3.48795 -3.56572 0
M  V30 2721 H 243.036 5.55586 -2.4374 0
M  V30 2722 H 241.775 4.60681 -1.60075 0
M  V30 2723 H 240.78 3.96073 -3.81321 0
M  V30 2724 H 242.005 4.94372 -4.65589 0
M  V30 2725 H 239.951 5.9914 -2.67146 0
M  V30 2726 H 239.868 6.15106 -4.39524 0
M  V30 2727 H 241.136 6.95533 -3.51929 0
M  V30 2728 N 245.365 1.30045 0.890287 0
M  V30 2729 C 246.312 1.15976 1.99545 0
M  V30 2730 C 247.282 0.0506202 1.66023 0
M  V30 2731 O 248.467 0.219847 1.89529 0
M  V30 2732 C 245.607 0.852054 3.34416 0
M  V30 2733 C 244.72 2.04255 3.80662 0
M  V30 2734 C 243.855 1.6734 5.04154 0
M  V30 2735 C 242.894 2.82916 5.42794 0
M  V30 2736 N 242.031 2.46333 6.57468 0
M  V30 2737 H 246.871 2.10524 2.10911 0
M  V30 2738 H 244.408 1.04749 1.03276 0
M  V30 2739 H 246.366 0.654296 4.12037 0
M  V30 2740 H 244.996 -0.0565502 3.2275 0
M  V30 2741 H 244.048 2.35172 2.98995 0
M  V30 2742 H 245.36 2.90826 4.05242 0
M  V30 2743 H 244.514 1.43908 5.89386 0
M  V30 2744 H 243.253 0.779308 4.81433 0
M  V30 2745 H 242.258 3.0702 4.56091 0
M  V30 2746 H 243.483 3.73004 5.6749 0
M  V30 2747 H 241.429 1.59423 6.36334 0
M  V30 2748 H 241.346 3.26436 6.81891 0
M  V30 2749 H 242.614 2.26244 7.45945 0
M  V30 2750 N 246.843 -1.10192 1.12674 0
M  V30 2751 C 248.254 -1.63707 0.897604 0
M  V30 2752 C 248.605 -1.87812 -0.567546 0
M  V30 2753 O 247.73 -1.62196 -1.43253 0
M  V30 2754 C 248.325 -2.974 1.62292 0
M  V30 2755 C 246.884 -3.47772 1.43986 0
M  V30 2756 C 246.031 -2.22332 1.65722 0
M  V30 2757 H 248.982 -0.936587 1.28116 0
M  V30 2758 H 249.003 -3.64986 1.07541 0
M  V30 2759 H 248.515 -2.79824 2.68924 0
M  V30 2760 H 246.616 -3.70487 0.396206 0
M  V30 2761 H 246.729 -4.25723 2.19765 0
M  V30 2762 H 245.093 -2.30599 1.08149 0
M  V30 2763 H 245.876 -2.07285 2.73657 0
M  V30 2764 N 248.321 -0.919034 -1.28029 0
M  V30 2765 C 249.549 -0.570971 -1.98866 0
M  V30 2766 C 249.964 0.848996 -1.68634 0
M  V30 2767 O 249.321 1.56307 -0.942036 0
M  V30 2768 C 249.372 -0.776876 -3.53054 0
M  V30 2769 O 249.093 -2.14097 -3.82222 0
M  V30 2770 C 250.594 -0.436356 -4.41147 0
M  V30 2771 H 247.814 -0.217175 -0.634883 0
M  V30 2772 H 250.358 -1.23368 -1.63097 0
M  V30 2773 H 248.513 -0.161085 -3.87065 0
M  V30 2774 H 248.927 -2.18455 -4.76841 0
M  V30 2775 H 250.401 -0.63117 -5.4838 0
M  V30 2776 H 250.878 0.627686 -4.34692 0
M  V30 2777 H 251.484 -1.02991 -4.12641 0
M  V30 2778 N 249.799 1.42003 -0.683588 0
M  V30 2779 C 251.076 1.95112 -0.138075 0
M  V30 2780 C 251.456 1.62359 1.34918 0
M  V30 2781 O 250.804 0.924311 2.08971 0
M  V30 2782 C 251.014 3.46505 -0.416581 0
M  V30 2783 C 252.362 4.23254 -0.337834 0
M  V30 2784 O 253.386 3.54468 -0.35082 0
M  V30 2785 O 252.245 5.45743 -0.287596 0
M  V30 2786 H 249.339 0.826961 -0.00797996 0
M  V30 2787 H 251.885 1.51784 -0.758924 0
M  V30 2788 H 250.657 3.63582 -1.4465 0
M  V30 2789 H 250.28 3.969 0.235839 0
M  V30 2790 N 251.277 0.427512 1.51691 0
M  V30 2791 C 252.507 -0.140986 2.06118 0
M  V30 2792 C 252.915 -1.37854 1.29588 0
M  V30 2793 O 252.258 -1.80411 0.346036 0
M  V30 2794 C 252.32 -0.538276 3.55447 0
M  V30 2795 C 251.984 0.591095 4.53161 0
M  V30 2796 C 252.981 1.46027 4.98971 0
M  V30 2797 C 250.666 0.769028 4.96378 0
M  V30 2798 C 252.66 2.49216 5.8666 0
M  V30 2799 C 250.347 1.80421 5.83859 0
M  V30 2800 C 251.345 2.66417 6.28897 0
M  V30 2801 O 251.033 3.68159 7.14643 0
M  V30 2802 H 250.765 -0.0157455 0.675817 0
M  V30 2803 H 253.319 0.602495 1.96365 0
M  V30 2804 H 251.549 -1.33432 3.6295 0
M  V30 2805 H 253.238 -1.0368 3.92435 0
M  V30 2806 H 254.004 1.33429 4.66285 0
M  V30 2807 H 249.883 0.109273 4.6087 0
M  V30 2808 H 253.427 3.16372 6.21735 0
M  V30 2809 H 249.324 1.93042 6.15959 0
M  V30 2810 H 250.092 3.64622 7.32798 0
M  V30 2811 N 252.755 -1.56801 0.158532 0
M  V30 2812 C 253.685 -2.20347 -0.772609 0
M  V30 2813 C 254.666 -1.15518 -1.24859 0
M  V30 2814 O 255.851 -1.43902 -1.30406 0
M  V30 2815 C 252.981 -2.83417 -2.00729 0
M  V30 2816 C 251.935 -3.94174 -1.66765 0
M  V30 2817 C 251.261 -4.44233 -2.97592 0
M  V30 2818 C 252.561 -5.14392 -0.905447 0
M  V30 2819 H 254.255 -2.98413 -0.242959 0
M  V30 2820 H 251.801 -1.43537 -0.115419 0
M  V30 2821 H 253.754 -3.26543 -2.6636 0
M  V30 2822 H 252.478 -2.02701 -2.56086 0
M  V30 2823 H 251.137 -3.51684 -1.03508 0
M  V30 2824 H 250.785 -3.60325 -3.50963 0
M  V30 2825 H 250.485 -5.18945 -2.75626 0
M  V30 2826 H 252.009 -4.90037 -3.64274 0
M  V30 2827 H 253.423 -5.5429 -1.46408 0
M  V30 2828 H 251.82 -5.9494 -0.7853 0
M  V30 2829 H 252.89 -4.84795 0.100668 0
M  V30 2830 N 254.233 0.115231 -1.57178 0
M  V30 2831 C 255.482 0.820945 -1.84237 0
M  V30 2832 C 255.795 1.80866 -0.744761 0
M  V30 2833 O 257.001 2.56083 -0.901871 0
M  V30 2834 C 255.457 1.51072 -3.26658 0
M  V30 2835 C 255.065 0.563795 -4.44438 0
M  V30 2836 C 256.809 2.20134 -3.62962 0
M  V30 2837 C 254.716 1.25701 -5.77887 0
M  V30 2838 H 253.646 0.310328 -0.687177 0
M  V30 2839 H 256.297 0.0737134 -1.83352 0
M  V30 2840 H 254.679 2.30471 -3.22024 0
M  V30 2841 H 255.853 -0.197247 -4.60378 0
M  V30 2842 H 254.168 -0.0200638 -4.16395 0
M  V30 2843 H 256.765 2.72696 -4.59936 0
M  V30 2844 H 257.108 2.98107 -2.90582 0
M  V30 2845 H 257.641 1.47619 -3.69396 0
M  V30 2846 H 254.38 0.518493 -6.53446 0
M  V30 2847 H 253.9 1.98997 -5.65827 0
M  V30 2848 H 255.579 1.78915 -6.2177 0
M  V30 2849 N 255.711 1.52812 0.385517 0
M  V30 2850 C 257.122 1.5993 0.963293 0
M  V30 2851 C 257.473 0.454302 1.90868 0
M  V30 2852 O 256.598 -0.422132 2.12243 0
M  V30 2853 C 257.193 2.89871 1.75387 0
M  V30 2854 C 255.752 2.99389 2.28129 0
M  V30 2855 C 254.899 2.55071 1.08783 0
M  V30 2856 H 257.85 1.5784 0.164948 0
M  V30 2857 H 257.871 2.76553 2.61341 0
M  V30 2858 H 257.383 3.73186 1.06554 0
M  V30 2859 H 255.484 2.20619 3.00263 0
M  V30 2860 H 255.597 4.04096 2.57377 0
M  V30 2861 H 253.961 2.09473 1.4489 0
M  V30 2862 H 254.744 3.40785 0.414807 0
M  V30 2863 N 257.189 -0.644168 1.43834 0
M  V30 2864 C 258.466 -1.40188 1.36406 0
M  V30 2865 C 258.846 -2.11094 0.0163124 0
M  V30 2866 O 258.194 -2.05426 -1.00062 0
M  V30 2867 C 258.404 -2.3791 2.55343 0
M  V30 2868 C 259.752 -3.01637 2.98832 0
M  V30 2869 O 260.776 -2.48237 2.55455 0
M  V30 2870 O 259.635 -3.98477 3.74003 0
M  V30 2871 H 256.729 -0.626773 0.539523 0
M  V30 2872 H 259.275 -0.670317 1.559 0
M  V30 2873 H 258.047 -1.84525 3.4506 0
M  V30 2874 H 257.67 -3.18503 2.37995 0
M  V30 2875 N 258.668 -1.30515 -0.883378 0
M  V30 2876 C 259.615 -1.17032 -1.98927 0
M  V30 2877 C 260.585 -0.0594241 -1.65994 0
M  V30 2878 O 261.77 -0.229895 -1.8941 0
M  V30 2879 C 258.91 -0.869777 -3.33959 0
M  V30 2880 C 258.023 -2.06271 -3.79574 0
M  V30 2881 C 257.158 -1.70011 -5.03259 0
M  V30 2882 C 256.197 -2.8579 -5.41286 0
M  V30 2883 N 255.334 -2.49816 -6.56153 0
M  V30 2884 H 260.174 -2.1164 -2.09792 0
M  V30 2885 H 257.711 -1.05296 -1.02719 0
M  V30 2886 H 259.669 -0.676138 -4.11685 0
M  V30 2887 H 258.299 0.0394332 -3.22776 0
M  V30 2888 H 257.351 -2.36755 -2.97744 0
M  V30 2889 H 258.663 -2.92971 -4.03694 0
M  V30 2890 H 257.817 -1.47032 -5.88614 0
M  V30 2891 H 256.556 -0.804829 -4.81013 0
M  V30 2892 H 255.561 -3.09434 -4.54456 0
M  V30 2893 H 256.786 -3.76008 -5.65504 0
M  V30 2894 H 254.732 -1.62795 -6.35479 0
M  V30 2895 H 254.649 -3.30048 -6.8015 0
M  V30 2896 H 255.917 -2.30197 -7.44735 0
M  V30 2897 N 260.146 1.09593 -1.13257 0
M  V30 2898 C 261.392 1.82003 -0.89458 0
M  V30 2899 C 261.725 1.85402 0.577906 0
M  V30 2900 O 261 1.32099 1.42759 0
M  V30 2901 C 261.283 3.28237 -1.48096 0
M  V30 2902 C 261.136 3.3312 -3.02244 0
M  V30 2903 C 262.455 4.24871 -1.14774 0
M  V30 2904 H 259.574 0.66077 -0.326424 0
M  V30 2905 H 262.216 1.28389 -1.40058 0
M  V30 2906 H 260.366 3.74024 -1.05062 0
M  V30 2907 H 262.038 2.95748 -3.54021 0
M  V30 2908 H 260.281 2.72756 -3.37323 0
M  V30 2909 H 260.952 4.3613 -3.38371 0
M  V30 2910 H 263.428 3.87361 -1.51957 0
M  V30 2911 H 262.304 5.25532 -1.58452 0
M  V30 2912 H 262.565 4.42058 -0.0611849 0
M  V30 2913 N 261.624 0.925811 1.2754 0
M  V30 2914 C 262.571 0.422045 2.26908 0
M  V30 2915 C 263.541 -0.510029 1.58076 0
M  V30 2916 O 264.726 -0.429599 1.85901 0
M  V30 2917 C 261.866 -0.320837 3.43605 0
M  V30 2918 C 260.979 0.64513 4.27156 0
M  V30 2919 C 260.114 -0.117405 5.3107 0
M  V30 2920 C 259.153 0.841391 6.0629 0
M  V30 2921 N 258.29 0.111604 7.02011 0
M  V30 2922 H 263.13 1.27441 2.69375 0
M  V30 2923 H 260.667 0.639697 1.32462 0
M  V30 2924 H 262.625 -0.76785 4.10073 0
M  V30 2925 H 261.255 -1.13745 3.02096 0
M  V30 2926 H 260.307 1.21067 3.6062 0
M  V30 2927 H 261.619 1.37797 4.79389 0
M  V30 2928 H 260.773 -0.624422 6.03478 0
M  V30 2929 H 259.512 -0.883219 4.79636 0
M  V30 2930 H 258.517 1.35967 5.32722 0
M  V30 2931 H 259.742 1.60696 6.59813 0
M  V30 2932 H 257.688 -0.635999 6.5291 0
M  V30 2933 H 257.605 0.784044 7.51923 0
M  V30 2934 H 258.873 -0.374823 7.78598 0
M  V30 2935 N 263.102 -1.41638 0.69111 0
M  V30 2936 C 264.049 -2.30789 0.0229705 0
M  V30 2937 C 265.019 -1.46863 -0.775911 0
M  V30 2938 O 266.204 -1.75661 -0.74485 0
M  V30 2939 C 263.344 -3.32868 -0.910666 0
M  V30 2940 C 262.457 -4.31875 -0.103874 0
M  V30 2941 C 261.592 -5.21024 -1.03475 0
M  V30 2942 C 260.631 -6.11702 -0.220598 0
M  V30 2943 N 259.768 -6.93349 -1.10504 0
M  V30 2944 H 264.608 -2.87366 0.788978 0
M  V30 2945 H 262.145 -1.41535 0.400794 0
M  V30 2946 H 264.103 -3.90596 -1.46597 0
M  V30 2947 H 262.733 -2.77851 -1.64312 0
M  V30 2948 H 261.785 -3.76131 0.568285 0
M  V30 2949 H 263.097 -4.96003 0.527504 0
M  V30 2950 H 262.251 -5.83565 -1.65943 0
M  V30 2951 H 260.99 -4.57112 -1.69999 0
M  V30 2952 H 259.995 -5.48215 0.417187 0
M  V30 2953 H 261.22 -6.77668 0.440784 0
M  V30 2954 H 259.166 -6.3205 -1.75638 0
M  V30 2955 H 259.083 -7.54146 -0.529125 0
M  V30 2956 H 260.351 -7.60362 -1.71667 0
M  V30 2957 N 264.58 -0.43555 -1.51462 0
M  V30 2958 C 265.81 0.130053 -2.0619 0
M  V30 2959 C 266.218 1.37164 -1.30317 0
M  V30 2960 O 265.561 1.80225 -0.355598 0
M  V30 2961 C 265.623 0.519418 -3.55728 0
M  V30 2962 C 265.287 -0.615119 -4.52841 0
M  V30 2963 C 266.284 -1.48671 -4.9819 0
M  V30 2964 C 263.969 -0.795341 -4.95963 0
M  V30 2965 C 265.963 -2.52324 -5.8533 0
M  V30 2966 C 263.65 -1.83514 -5.82894 0
M  V30 2967 C 264.648 -2.69748 -6.27475 0
M  V30 2968 O 264.336 -3.71944 -7.1268 0
M  V30 2969 H 264.068 0.0121612 -0.675891 0
M  V30 2970 H 266.622 -0.6129 -1.96043 0
M  V30 2971 H 264.852 1.31505 -3.63653 0
M  V30 2972 H 266.541 1.01597 -3.92979 0
M  V30 2973 H 267.307 -1.359 -4.65571 0
M  V30 2974 H 263.186 -0.133713 -4.60806 0
M  V30 2975 H 266.73 -3.19665 -6.20048 0
M  V30 2976 H 262.627 -1.96306 -6.14926 0
M  V30 2977 H 263.395 -3.68503 -7.30854 0
M  V30 2978 N 266.058 1.56714 -0.166846 0
M  V30 2979 C 267.304 1.97039 0.479962 0
M  V30 2980 C 267.637 1.05264 1.63197 0
M  V30 2981 O 266.912 0.0988833 1.94248 0
M  V30 2982 C 267.195 3.46867 0.967212 0
M  V30 2983 C 267.048 4.49421 -0.18466 0
M  V30 2984 C 268.367 3.9968 1.84238 0
M  V30 2985 H 265.486 0.71641 0.172992 0
M  V30 2986 H 268.128 1.8832 -0.252079 0
M  V30 2987 H 266.278 3.54428 1.59101 0
M  V30 2988 H 267.95 4.53924 -0.821621 0
M  V30 2989 H 266.193 4.25573 -0.840837 0
M  V30 2990 H 266.864 5.51644 0.198317 0
M  V30 2991 H 269.34 3.94723 1.31655 0
M  V30 2992 H 268.216 5.04941 2.15234 0
M  V30 2993 H 268.477 3.43226 2.78654 0
M  V30 2994 N 267.536 -0.106894 1.57237 0
M  V30 2995 C 268.446 -1.14911 2.0453 0
M  V30 2996 C 269.462 -1.44592 0.96795 0
M  V30 2997 O 270.638 -1.55468 1.2803 0
M  V30 2998 C 267.703 -2.45272 2.45036 0
M  V30 2999 C 266.764 -2.22879 3.66911 0
M  V30 3000 C 265.997 -3.47024 4.05475 0
M  V30 3001 O 266.22 -4.54804 3.44252 0
M  V30 3002 O 265.154 -3.3731 4.98504 0
M  V30 3003 H 268.98 -0.777461 2.9358 0
M  V30 3004 H 266.565 -0.318563 1.45964 0
M  V30 3005 H 268.447 -3.22055 2.71769 0
M  V30 3006 H 267.122 -2.81886 1.59129 0
M  V30 3007 H 266.029 -1.43915 3.45311 0
M  V30 3008 H 267.362 -1.91163 4.53561 0
M  V30 3009 N 269.014 -1.53014 -0.377408 0
M  V30 3010 C 269.924 -1.81557 -1.48574 0
M  V30 3011 C 270.94 -0.703102 -1.59162 0
M  V30 3012 O 272.116 -0.99192 -1.75279 0
M  V30 3013 C 269.181 -1.9889 -2.83978 0
M  V30 3014 C 268.242 -3.22801 -2.83016 0
M  V30 3015 C 267.475 -3.39298 -4.11962 0
M  V30 3016 O 267.698 -2.60345 -5.0752 0
M  V30 3017 O 266.632 -4.32604 -4.18494 0
M  V30 3018 H 270.458 -2.75695 -1.27382 0
M  V30 3019 H 268.043 -1.38248 -0.566373 0
M  V30 3020 H 269.925 -2.11931 -3.6423 0
M  V30 3021 H 268.6 -1.07942 -3.05172 0
M  V30 3022 H 267.507 -3.15193 -2.01505 0
M  V30 3023 H 268.84 -4.13632 -2.66775 0
M  V30 3024 N 270.492 0.636531 -1.44174 0
M  V30 3025 C 271.44 1.76995 -1.50915 0
M  V30 3026 C 272.434 1.65053 -0.381295 0
M  V30 3027 O 273.64 1.71197 -0.55601 0
M  V30 3028 H 270.015 0.584247 -0.473455 0
M  V30 3029 H 271.986 1.68432 -2.4632 0
M  V30 3030 C 270.735 3.15314 -1.46534 0
M  V30 3031 H 270.058 3.25149 -2.32633 0
M  V30 3032 H 271.498 3.9453 -1.55312 0
M  V30 3033 C 269.957 3.3639 -0.185305 0
M  V30 3034 O 270.487 3.94699 0.746688 0
M  V30 3035 N 268.693 2.9046 -0.0901606 0
M  V30 3036 H 268.24 2.43193 -0.849416 0
M  V30 3037 H 268.198 3.04937 0.765553 0
M  V30 3038 N 271.97 1.30982 0.876444 0
M  V30 3039 C 273.218 1.20058 1.62575 0
M  V30 3040 C 273.539 -0.242947 1.93481 0
M  V30 3041 O 272.809 -1.1619 1.57724 0
M  V30 3042 H 271.389 0.44135 0.602677 0
M  V30 3043 H 274.051 1.64222 1.04962 0
M  V30 3044 H 273.147 1.76762 2.57219 0
M  V30 3045 N 273.449 -1.08991 1.13837 0
M  V30 3046 C 274.379 -2.17771 0.842507 0
M  V30 3047 C 275.36 -1.6892 -0.20001 0
M  V30 3048 O 276.545 -1.94113 -0.0579731 0
M  V30 3049 C 273.675 -3.4589 0.312644 0
M  V30 3050 C 272.629 -4.08099 1.28992 0
M  V30 3051 C 271.955 -5.31098 0.619623 0
M  V30 3052 C 273.255 -4.50077 2.65005 0
M  V30 3053 H 274.949 -2.42777 1.75213 0
M  V30 3054 H 272.495 -1.16682 0.843875 0
M  V30 3055 H 274.448 -4.21297 0.0933043 0
M  V30 3056 H 273.172 -3.20419 -0.632382 0
M  V30 3057 H 271.831 -3.34717 1.49533 0
M  V30 3058 H 271.479 -5.0191 -0.33102 0
M  V30 3059 H 271.179 -5.73674 1.27167 0
M  V30 3060 H 272.703 -6.09224 0.409669 0
M  V30 3061 H 274.117 -5.16688 2.48407 0
M  V30 3062 H 272.514 -5.03553 3.26427 0
M  V30 3063 H 273.584 -3.62257 3.22332 0
M  V30 3064 N 274.927 -0.932562 -1.27047 0
M  V30 3065 C 276.157 -0.591173 -1.97961 0
M  V30 3066 C 276.565 0.836219 -1.69717 0
M  V30 3067 O 275.908 1.56801 -0.957036 0
M  V30 3068 C 275.97 -0.743082 -3.51736 0
M  V30 3069 C 275.634 -2.1435 -4.03613 0
M  V30 3070 C 276.631 -3.11815 -4.16014 0
M  V30 3071 C 274.316 -2.46175 -4.37839 0
M  V30 3072 C 276.31 -4.39211 -4.61923 0
M  V30 3073 C 273.997 -3.73806 -4.83438 0
M  V30 3074 C 274.995 -4.70137 -4.95439 0
M  V30 3075 O 274.683 -5.95496 -5.40037 0
M  V30 3076 H 274.415 -0.222375 -0.638377 0
M  V30 3077 H 276.969 -1.25317 -1.62742 0
M  V30 3078 H 275.199 -0.0239739 -3.86693 0
M  V30 3079 H 276.888 -0.40603 -4.03864 0
M  V30 3080 H 277.654 -2.88549 -3.89826 0
M  V30 3081 H 273.533 -1.71936 -4.27737 0
M  V30 3082 H 277.077 -5.14404 -4.71205 0
M  V30 3083 H 272.974 -3.96888 -5.09068 0
M  V30 3084 H 273.742 -5.98554 -5.58279 0
M  V30 3085 N 276.405 1.4127 -0.698611 0
M  V30 3086 C 277.315 2.34573 -0.0357891 0
M  V30 3087 C 278.331 1.56393 0.762701 0
M  V30 3088 O 279.507 1.8886 0.699564 0
M  V30 3089 C 276.572 3.35159 0.887089 0
M  V30 3090 C 275.633 4.29225 0.0804634 0
M  V30 3091 C 274.866 5.25006 0.959387 0
M  V30 3092 O 275.089 5.26314 2.19886 0
M  V30 3093 O 274.023 6.00519 0.407439 0
M  V30 3094 H 277.849 2.92838 -0.804957 0
M  V30 3095 H 275.434 1.42175 -0.458966 0
M  V30 3096 H 277.316 3.9689 1.41621 0
M  V30 3097 H 275.991 2.79333 1.6357 0
M  V30 3098 H 274.898 3.70833 -0.493328 0
M  V30 3099 H 276.231 4.88157 -0.629547 0
M  V30 3100 N 277.883 0.443576 1.51229 0
M  V30 3101 C 279.108 -0.121648 2.07043 0
M  V30 3102 C 279.533 -1.35156 1.30823 0
M  V30 3103 O 278.891 -1.7793 0.347934 0
M  V30 3104 C 278.939 -0.41624 3.5819 0
M  V30 3105 O 278.043 -1.50163 3.8409 0
M  V30 3106 H 277.384 0.000871367 0.663999 0
M  V30 3107 H 279.914 0.626706 1.94765 0
M  V30 3108 H 279.924 -0.664867 4.02546 0
M  V30 3109 H 278.599 0.482653 4.1309 0
M  V30 3110 H 277.176 -1.24248 3.51592 0
M  V30 3111 O 279.4 -1.58373 0.316273 0
M  V30 3112 H 280.091 -1.92143 -0.24513 0
M  V30 END ATOM
M  V30 BEGIN BOND
M  V30 END BOND
M  V30 END CTAB
M  END
$$$$
