drugbank_target|P54578 Ubiquitin carboxyl-terminal hydrolase 14 (DB12695)
 OpenBabel12092121073D

  0  0  0     0  0            999 V3000
M  V30 BEGIN CTAB
M  V30 COUNTS 7844 7917 0 0 0
M  V30 BEGIN ATOM
M  V30 1 H -0.908 1.98254 -0.117106 0
M  V30 2 N 0 1.576 0 0
M  V30 3 C 0.933 2.03868 1.02534 0
M  V30 4 C 1.911 0.928543 1.3348 0
M  V30 5 O 3.095 1.19667 1.45644 0
M  V30 6 C 0.222 2.43627 2.35294 0
M  V30 7 C -0.732 3.65373 2.2001 0
M  V30 8 S 0.101 5.13292 1.52614 0
M  V30 9 C 1.257 5.56322 2.86805 0
M  V30 10 H 1.49 2.90518 0.631377 0
M  V30 11 H -0.977 1.52953 0.210867 0
M  V30 12 H 0.981 2.67203 3.11629 0
M  V30 13 H -0.358 1.57376 2.7183 0
M  V30 14 H -1.165 3.90944 3.18086 0
M  V30 15 H -1.563 3.418 1.51819 0
M  V30 16 H 0.729 5.58782 3.83104 0
M  V30 17 H 1.672 6.56266 2.65933 0
M  V30 18 H 2.08 4.83886 2.90714 0
M  V30 19 N 1.4781 -0.272755 1.55222 0
M  V30 20 C 2.8891 -0.84378 1.66545 0
M  V30 21 C 3.2401 -1.87035 0.592641 0
M  V30 22 O 2.3651 -2.14761 -0.265818 0
M  V30 23 C 2.9601 -1.53723 3.01918 0
M  V30 24 C 1.5191 -2.05628 3.15268 0
M  V30 25 C 0.6661 -0.898424 2.62343 0
M  V30 26 H 3.6171 -0.0490998 1.58624 0
M  V30 27 H 3.6381 -2.40421 2.94921 0
M  V30 28 H 3.1501 -0.78983 3.79978 0
M  V30 29 H 1.2511 -2.83329 2.41983 0
M  V30 30 H 1.3641 -2.27142 4.21833 0
M  V30 31 H -0.2719 -1.29186 2.19506 0
M  V30 32 H 0.5111 -0.164528 3.42906 0
M  V30 33 N 2.9562 -1.48159 -0.537278 0
M  V30 34 C 3.8862 -1.65029 -1.6519 0
M  V30 35 C 4.8672 -0.499281 -1.62607 0
M  V30 36 O 6.0522 -0.730972 -1.79918 0
M  V30 37 C 3.1822 -1.68303 -3.03795 0
M  V30 38 C 2.1362 -2.8283 -3.21234 0
M  V30 39 C 1.4622 -2.71189 -4.60826 0
M  V30 40 C 2.7622 -4.24211 -3.04701 0
M  V30 41 H 4.4562 -2.58341 -1.51328 0
M  V30 42 H 2.0022 -1.24325 -0.726585 0
M  V30 43 H 3.9552 -1.78693 -3.81637 0
M  V30 44 H 2.6792 -0.715635 -3.18663 0
M  V30 45 H 1.3382 -2.71983 -2.45807 0
M  V30 46 H 0.9862 -1.72435 -4.7252 0
M  V30 47 H 0.6862 -3.48035 -4.7344 0
M  V30 48 H 2.2102 -2.83537 -5.40777 0
M  V30 49 H 3.6242 -4.3593 -3.72341 0
M  V30 50 H 2.0212 -5.01998 -3.28813 0
M  V30 51 H 3.0912 -4.41184 -2.01209 0
M  V30 52 N 4.4343 0.785586 -1.36625 0
M  V30 53 C 5.6643 1.5722 -1.34036 0
M  V30 54 C 6.0723 1.89033 0.0795062 0
M  V30 55 O 5.4153 1.50881 1.04789 0
M  V30 56 C 5.4773 2.91759 -2.10041 0
M  V30 57 C 5.1413 2.82654 -3.59104 0
M  V30 58 C 6.1383 2.54634 -4.53274 0
M  V30 59 C 3.8233 3.01111 -4.02042 0
M  V30 60 C 5.8173 2.45177 -5.88359 0
M  V30 61 C 3.5043 2.91276 -5.37216 0
M  V30 62 C 4.5023 2.63348 -6.30188 0
M  V30 63 O 4.1903 2.53514 -7.6288 0
M  V30 64 H 3.9223 0.494177 -0.461265 0
M  V30 65 H 6.4763 0.982632 -1.8037 0
M  V30 66 H 4.7063 3.52781 -1.58375 0
M  V30 67 H 6.3953 3.53059 -2.00261 0
M  V30 68 H 7.1613 2.40073 -4.21414 0
M  V30 69 H 3.0403 3.21854 -3.30047 0
M  V30 70 H 6.5843 2.23299 -6.60896 0
M  V30 71 H 2.4813 3.054 -5.68684 0
M  V30 72 H 3.2493 2.68967 -7.73045 0
M  V30 73 N 5.9124 1.20967 1.01018 0
M  V30 74 C 7.1374 1.0503 1.78839 0
M  V30 75 C 7.5624 -0.395752 1.8389 0
M  V30 76 O 6.9204 -1.28529 1.27867 0
M  V30 77 C 6.9684 1.64602 3.2084 0
M  V30 78 O 6.0724 0.887988 4.02726 0
M  V30 79 H 5.4134 0.369987 0.551367 0
M  V30 80 H 7.9434 1.60399 1.27018 0
M  V30 81 H 7.9534 1.68607 3.71532 0
M  V30 82 H 6.6284 2.69841 3.16479 0
M  V30 83 H 5.2054 0.922648 3.61305 0
M  V30 84 N 7.3905 -1.2043 1.01659 0
M  V30 85 C 8.6365 -1.90079 0.706963 0
M  V30 86 C 8.9695 -1.78648 -0.761474 0
M  V30 87 O 8.2445 -1.17069 -1.55323 0
M  V30 88 C 8.5275 -3.41469 1.14327 0
M  V30 89 C 8.3805 -3.61833 2.67201 0
M  V30 90 C 9.6995 -4.34261 0.714529 0
M  V30 91 H 6.8185 -0.690254 0.2583 0
M  V30 92 H 9.4605 -1.41826 1.26433 0
M  V30 93 H 7.6105 -3.82696 0.669056 0
M  V30 94 H 9.2825 -3.2986 3.22475 0
M  V30 95 H 7.5255 -3.05304 3.08175 0
M  V30 96 H 8.1965 -4.67955 2.92783 0
M  V30 97 H 10.6725 -4.00682 1.12221 0
M  V30 98 H 9.5485 -5.38806 1.04784 0
M  V30 99 H 9.8095 -4.40431 -0.383799 0
M  V30 100 N 8.8686 -0.792821 -1.36206 0
M  V30 101 C 10.0966 -0.378825 -2.03402 0
M  V30 102 C 10.5116 1.00586 -1.59774 0
M  V30 103 O 9.8686 1.64574 -0.788764 0
M  V30 104 C 9.9196 -0.43683 -3.58851 0
M  V30 105 O 9.6406 -1.76691 -4.00889 0
M  V30 106 C 11.1416 -0.0138943 -4.43298 0
M  V30 107 H 8.3616 -0.155673 -0.652692 0
M  V30 108 H 10.9056 -1.07261 -1.74113 0
M  V30 109 H 9.0606 0.208575 -3.86838 0
M  V30 110 H 9.4746 -1.72011 -4.95492 0
M  V30 111 H 10.9486 -0.105615 -5.51899 0
M  V30 112 H 11.4256 1.03915 -4.2673 0
M  V30 113 H 12.0316 -0.63192 -4.20579 0
M  V30 114 N 10.3467 1.47872 -0.545128 0
M  V30 115 C 11.5927 2.02793 -0.0166104 0
M  V30 116 C 11.9257 1.41987 1.32489 0
M  V30 117 O 11.2007 0.571045 1.85928 0
M  V30 118 C 11.4837 3.59989 0.0893294 0
M  V30 119 C 11.3367 4.3125 -1.27841 0
M  V30 120 C 12.6557 4.32606 0.808724 0
M  V30 121 H 9.7747 0.736962 -0.00751035 0
M  V30 122 H 12.4167 1.76433 -0.705085 0
M  V30 123 H 10.5667 3.82579 0.675681 0
M  V30 124 H 12.2387 4.20035 -1.90704 0
M  V30 125 H 10.4817 3.92076 -1.85632 0
M  V30 126 H 11.1527 5.39736 -1.15713 0
M  V30 127 H 13.6287 4.14936 0.310992 0
M  V30 128 H 12.5047 5.42251 0.851782 0
M  V30 129 H 12.7657 4.00963 1.86229 0
M  V30 130 N 11.8248 0.280983 1.55075 0
M  V30 131 C 12.7718 -0.603937 2.22758 0
M  V30 132 C 13.7418 -1.1452 1.20309 0
M  V30 133 O 14.9268 -1.19343 1.48869 0
M  V30 134 C 12.0668 -1.77947 2.95684 0
M  V30 135 C 11.1798 -1.2715 4.12864 0
M  V30 136 C 10.3148 -2.4093 4.7342 0
M  V30 137 C 9.3538 -1.87165 5.82783 0
M  V30 138 N 8.4908 -2.94441 6.37377 0
M  V30 139 H 13.3308 -0.020124 2.97993 0
M  V30 140 H 10.8678 0.00183425 1.471 0
M  V30 141 H 12.8258 -2.47055 3.36184 0
M  V30 142 H 11.4558 -2.33522 2.22861 0
M  V30 143 H 10.5078 -0.473331 3.77444 0
M  V30 144 H 11.8198 -0.837751 4.91715 0
M  V30 145 H 10.9738 -3.18021 5.1667 0
M  V30 146 H 9.7128 -2.87623 3.93859 0
M  V30 147 H 8.7178 -1.08556 5.38976 0
M  V30 148 H 9.9428 -1.41401 6.64216 0
M  V30 149 H 7.8888 -3.40505 5.60707 0
M  V30 150 H 7.8058 -2.55501 7.11516 0
M  V30 151 H 9.0738 -3.71489 6.85285 0
M  V30 152 N 13.3029 -1.57598 0.00835791 0
M  V30 153 C 14.5489 -1.92046 -0.670055 0
M  V30 154 C 14.9039 -0.88351 -1.70915 0
M  V30 155 O 14.1969 0.103223 -1.91322 0
M  V30 156 C 14.3909 -3.3101 -1.34787 0
M  V30 157 C 14.2199 -4.48126 -0.375945 0
M  V30 158 C 12.9899 -5.05297 0.0166914 0
M  V30 159 C 15.1879 -5.1303 0.361272 0
M  V30 160 N 13.1699 -6.05931 0.985952 0
M  V30 161 C 14.5409 -6.08571 1.18495 0
M  V30 162 C 16.5959 -4.9609 0.42421 0
M  V30 163 C 15.2989 -6.88996 2.06584 0
M  V30 164 C 17.3249 -5.77107 1.29236 0
M  V30 165 C 16.6869 -6.72248 2.10386 0
M  V30 166 H 12.7859 -0.75096 -0.218136 0
M  V30 167 H 15.3699 -1.94572 0.0706669 0
M  V30 168 H 13.5409 -3.29342 -2.05884 0
M  V30 169 H 15.2729 -3.52864 -1.98164 0
M  V30 170 H 12.0279 -4.72279 -0.353435 0
M  V30 171 H 12.4519 -6.60932 1.4662 0
M  V30 172 H 17.0939 -4.22378 -0.188915 0
M  V30 173 H 14.8119 -7.62028 2.6896 0
M  V30 174 H 18.3979 -5.66038 1.34508 0
M  V30 175 H 17.2779 -7.33846 2.76476 0
M  V30 176 N 14.781 0.264519 -1.55364 0
M  V30 177 C 16.029 0.993021 -1.76021 0
M  V30 178 C 16.35 1.86511 -0.569099 0
M  V30 179 O 15.62 1.91438 0.415735 0
M  V30 180 H 14.2 0.369639 -0.649135 0
M  V30 181 H 16.862 0.286707 -1.9278 0
M  V30 182 H 15.958 1.62502 -2.66457 0
M  V30 183 N 16.2591 1.48442 0.529413 0
M  V30 184 C 17.2061 1.63007 1.63394 0
M  V30 185 C 18.1761 0.47212 1.59249 0
M  V30 186 O 19.3611 0.695673 1.77666 0
M  V30 187 C 16.5011 1.6763 3.01653 0
M  V30 188 C 15.6141 2.94535 3.16027 0
M  V30 189 C 14.7491 2.90316 4.44849 0
M  V30 190 C 13.7881 4.11923 4.52754 0
M  V30 191 N 12.9251 4.05777 5.72965 0
M  V30 192 H 17.7651 2.5733 1.50285 0
M  V30 193 H 15.3021 1.27613 0.731656 0
M  V30 194 H 17.2601 1.68292 3.81751 0
M  V30 195 H 15.8901 0.76797 3.13532 0
M  V30 196 H 14.9421 3.03615 2.29177 0
M  V30 197 H 16.2541 3.84512 3.17729 0
M  V30 198 H 15.4081 2.89382 5.33238 0
M  V30 199 H 14.1471 1.98068 4.45668 0
M  V30 200 H 13.1521 4.13131 3.62771 0
M  V30 201 H 14.3771 5.0533 4.53672 0
M  V30 202 H 12.3231 3.16351 5.74681 0
M  V30 203 H 12.2401 4.8946 5.76164 0
M  V30 204 H 13.5081 4.08904 6.6364 0
M  V30 205 N 17.7372 -0.778329 1.37039 0
M  V30 206 C 18.6472 -1.92253 1.34446 0
M  V30 207 C 19.6632 -1.72267 0.244991 0
M  V30 208 O 20.8392 -1.95615 0.479258 0
M  V30 209 C 17.9042 -3.27282 1.144 0
M  V30 210 C 16.9652 -3.59969 2.33925 0
M  V30 211 C 16.1982 -4.88555 2.14825 0
M  V30 212 O 16.4212 -5.59113 1.12912 0
M  V30 213 O 15.3552 -5.20153 3.02861 0
M  V30 214 H 19.1812 -1.97392 2.30803 0
M  V30 215 H 16.7662 -0.920154 1.17701 0
M  V30 216 H 18.6482 -4.08062 1.05182 0
M  V30 217 H 17.3232 -3.23011 0.211124 0
M  V30 218 H 16.2302 -2.7945 2.48714 0
M  V30 219 H 17.5632 -3.68976 3.25757 0
M  V30 220 N 19.2153 -1.21501 -1.00376 0
M  V30 221 C 20.1623 -0.975387 -2.09177 0
M  V30 222 C 21.1323 0.0990615 -1.65804 0
M  V30 223 O 22.3173 -0.0483147 -1.90739 0
M  V30 224 C 19.4573 -0.547507 -3.40729 0
M  V30 225 C 18.5703 -1.69153 -3.97506 0
M  V30 226 C 17.7053 -1.2127 -5.17172 0
M  V30 227 C 16.7443 -2.32897 -5.66061 0
M  V30 228 N 15.8813 -1.86138 -6.76976 0
M  V30 229 H 20.7213 -1.9068 -2.29009 0
M  V30 230 H 18.2583 -0.950257 -1.12288 0
M  V30 231 H 20.2163 -0.280667 -4.16255 0
M  V30 232 H 18.8463 0.346904 -3.20931 0
M  V30 233 H 17.8983 -2.07298 -3.18954 0
M  V30 234 H 19.2103 -2.5316 -4.29781 0
M  V30 235 H 18.3643 -0.902591 -5.99948 0
M  V30 236 H 17.1033 -0.342692 -4.86495 0
M  V30 237 H 16.1083 -2.64709 -4.81881 0
M  V30 238 H 17.3333 -3.20396 -5.98768 0
M  V30 239 H 15.2793 -1.01484 -6.48103 0
M  V30 240 H 15.1963 -2.63717 -7.08512 0
M  V30 241 H 16.4643 -1.58165 -7.63285 0
M  V30 242 N 20.6934 1.19889 -1.02296 0
M  V30 243 C 21.9404 1.8942 -0.715972 0
M  V30 244 C 22.2684 1.79251 0.754944 0
M  V30 245 O 21.5234 1.17526 1.56481 0
M  V30 246 C 21.8224 3.39883 -1.10518 0
M  V30 247 C 21.4884 3.70254 -2.57337 0
M  V30 248 C 20.1504 3.78254 -2.97452 0
M  V30 249 C 22.5024 3.84052 -3.52354 0
M  V30 250 C 19.8304 3.97514 -4.31509 0
M  V30 251 C 22.1824 4.04824 -4.86108 0
M  V30 252 C 20.8464 4.11054 -5.25919 0
M  V30 253 H 20.1164 0.693138 -0.261993 0
M  V30 254 H 22.7634 1.42012 -1.28472 0
M  V30 255 H 21.0684 3.8915 -0.454953 0
M  V30 256 H 22.7654 3.9199 -0.845261 0
M  V30 257 H 19.3554 3.64632 -2.25258 0
M  V30 258 H 23.5394 3.77221 -3.22518 0
M  V30 259 H 18.7954 4.00574 -4.61898 0
M  V30 260 H 22.9694 4.14442 -5.59653 0
M  V30 261 H 20.5964 4.2573 -6.29808 0
M  V30 262 N 22.1715 0.800033 1.35784 0
M  V30 263 C 23.0815 0.207204 2.33683 0
M  V30 264 C 24.0975 -0.64631 1.61551 0
M  V30 265 O 25.2735 -0.559604 1.93469 0
M  V30 266 C 22.3385 -0.639659 3.40748 0
M  V30 267 C 21.3995 0.233585 4.28664 0
M  V30 268 C 20.6325 -0.572954 5.30616 0
M  V30 269 O 20.8555 -1.80816 5.40982 0
M  V30 270 O 19.7895 0.0327285 6.01891 0
M  V30 271 H 23.6155 1.01692 2.86169 0
M  V30 272 H 21.2005 0.561691 1.38439 0
M  V30 273 H 23.0825 -1.12223 4.06182 0
M  V30 274 H 21.7575 -1.42708 2.90544 0
M  V30 275 H 20.6645 0.763147 3.66233 0
M  V30 276 H 21.9975 0.984784 4.82248 0
M  V30 277 N 23.6496 -1.47581 0.552962 0
M  V30 278 C 24.8976 -2.02082 0.0272703 0
M  V30 279 C 25.2186 -1.4301 -1.32563 0
M  V30 280 O 24.4886 -0.603745 -1.86365 0
M  V30 281 H 23.0686 -0.746966 0.00709182 0
M  V30 282 H 25.7306 -1.81033 0.722008 0
M  V30 283 H 24.8266 -3.12034 -0.0639951 0
M  V30 284 N 25.1277 -0.289203 -1.54924 0
M  V30 285 C 26.3737 0.323998 -2.00195 0
M  V30 286 C 26.7067 1.54441 -1.17735 0
M  V30 287 O 25.9817 1.92875 -0.250878 0
M  V30 288 C 26.2647 0.692276 -3.53383 0
M  V30 289 C 26.1177 -0.536457 -4.46589 0
M  V30 290 C 27.4367 1.52335 -4.12895 0
M  V30 291 H 24.5557 0.116289 -0.727768 0
M  V30 292 H 27.1977 -0.398954 -1.85764 0
M  V30 293 H 25.3477 1.30822 -3.65811 0
M  V30 294 H 27.0197 -1.17499 -4.46085 0
M  V30 295 H 25.2627 -1.17192 -4.1767 0
M  V30 296 H 25.9337 -0.234806 -5.515 0
M  V30 297 H 28.4097 1.00302 -4.0383 0
M  V30 298 H 27.2857 1.74982 -5.20262 0
M  V30 299 H 27.5467 2.50886 -3.64018 0
M  V30 300 N 26.6058 1.57591 -0.0167156 0
M  V30 301 C 27.5158 2.1291 0.98521 0
M  V30 302 C 28.5318 1.07834 1.36557 0
M  V30 303 O 29.7078 1.39826 1.44951 0
M  V30 304 C 26.7728 2.63512 2.25305 0
M  V30 305 C 25.8338 3.83256 1.93426 0
M  V30 306 C 25.0668 4.31435 3.14165 0
M  V30 307 O 25.2898 3.78851 4.26413 0
M  V30 308 O 24.2238 5.23416 2.97186 0
M  V30 309 H 28.0498 2.98772 0.544888 0
M  V30 310 H 25.6348 1.48012 0.203141 0
M  V30 311 H 27.5168 2.96183 2.99756 0
M  V30 312 H 26.1918 1.8074 2.68542 0
M  V30 313 H 25.0988 3.55531 1.16398 0
M  V30 314 H 26.4318 4.67153 1.55013 0
M  V30 315 N 28.0839 -0.256276 1.55502 0
M  V30 316 C 29.0139 -1.32102 1.92539 0
M  V30 317 C 29.9949 -1.50684 0.789194 0
M  V30 318 O 31.1799 -1.63449 1.04872 0
M  V30 319 C 28.3099 -2.67752 2.21192 0
M  V30 320 C 27.2639 -2.63878 3.36975 0
M  V30 321 C 26.5899 -4.03236 3.51147 0
M  V30 322 C 27.8899 -2.21682 4.72921 0
M  V30 323 H 29.5839 -1.01351 2.81724 0
M  V30 324 H 27.1299 -0.486105 1.35547 0
M  V30 325 H 29.0829 -3.42365 2.45691 0
M  V30 326 H 27.8069 -3.0012 1.28824 0
M  V30 327 H 26.4659 -1.91722 3.12471 0
M  V30 328 H 26.1139 -4.32854 2.56216 0
M  V30 329 H 25.8139 -4.01535 4.29003 0
M  V30 330 H 27.3379 -4.79563 3.77957 0
M  V30 331 H 28.7519 -2.86023 4.96854 0
M  V30 332 H 27.1489 -2.3111 5.53812 0
M  V30 333 H 28.2189 -1.16833 4.70615 0
M  V30 334 N 29.562 -1.4872 -0.521534 0
M  V30 335 C 30.51 -1.64328 -1.64618 0
M  V30 336 C 31.504 -0.50953 -1.61555 0
M  V30 337 O 32.71 -0.688525 -1.66311 0
M  V30 338 H 29.085 -0.517805 -0.545328 0
M  V30 339 H 31.056 -2.58767 -1.48601 0
M  V30 340 C 29.805 -1.70805 -3.02855 0
M  V30 341 H 29.128 -2.5741 -3.05909 0
M  V30 342 H 30.568 -1.85766 -3.81139 0
M  V30 343 C 29.027 -0.448479 -3.33902 0
M  V30 344 O 29.557 0.434928 -3.99339 0
M  V30 345 N 27.763 -0.317616 -2.88859 0
M  V30 346 H 27.31 -1.03748 -2.35784 0
M  V30 347 H 27.268 0.524113 -3.10001 0
M  V30 348 N 31.0401 0.771051 -1.3745 0
M  V30 349 C 32.2681 1.56015 -1.35893 0
M  V30 350 C 32.6831 1.88718 0.0555523 0
M  V30 351 O 32.0401 1.51502 1.01752 0
M  V30 352 C 32.0911 2.87001 -2.19801 0
M  V30 353 O 31.8121 2.557 -3.55738 0
M  V30 354 C 33.3131 3.81228 -2.26231 0
M  V30 355 H 30.5331 0.483317 -0.465453 0
M  V30 356 H 33.0771 0.955611 -1.80799 0
M  V30 357 H 31.2321 3.43877 -1.78402 0
M  V30 358 H 31.6461 3.39584 -3.99729 0
M  V30 359 H 33.1201 4.70139 -2.89263 0
M  V30 360 H 33.5971 4.20409 -1.27093 0
M  V30 361 H 34.2031 3.30281 -2.67945 0
M  V30 362 N 32.5182 1.22032 0.997298 0
M  V30 363 C 33.7952 0.950823 1.70935 0
M  V30 364 C 34.1752 -0.535292 2.042 0
M  V30 365 O 33.5232 -1.50217 1.72183 0
M  V30 366 C 33.7332 1.84386 2.96315 0
M  V30 367 C 35.0812 2.09732 3.69185 0
M  V30 368 O 36.1052 1.81798 3.06314 0
M  V30 369 O 34.9642 2.57018 4.82291 0
M  V30 370 H 32.0582 0.357204 0.745878 0
M  V30 371 H 34.6042 1.32997 1.05404 0
M  V30 372 H 33.3762 2.84928 2.68201 0
M  V30 373 H 32.9992 1.46602 3.69586 0
M  V30 374 N 33.9963 -1.19345 1.0293 0
M  V30 375 C 34.9063 -2.26245 0.620515 0
M  V30 376 C 35.9223 -1.70486 -0.347928 0
M  V30 377 O 37.0983 -2.00347 -0.205704 0
M  V30 378 C 34.1633 -3.46693 -0.0218957 0
M  V30 379 C 33.2243 -4.17632 0.994102 0
M  V30 380 C 32.4573 -5.32329 0.382253 0
M  V30 381 O 32.6803 -5.64552 -0.814676 0
M  V30 382 O 31.6143 -5.91664 1.10531 0
M  V30 383 H 35.4403 -2.63453 1.51083 0
M  V30 384 H 33.0253 -1.26207 0.799513 0
M  V30 385 H 34.9073 -4.19683 -0.380072 0
M  V30 386 H 33.5823 -3.11333 -0.886209 0
M  V30 387 H 32.4893 -3.4676 1.40387 0
M  V30 388 H 33.8223 -4.56964 1.8288 0
M  V30 389 N 35.4744 -0.807222 -1.35358 0
M  V30 390 C 36.8854 -0.44876 -1.81226 0
M  V30 391 C 37.2364 1.02929 -1.67033 0
M  V30 392 O 36.3614 1.79991 -1.20133 0
M  V30 393 C 36.9564 -0.807774 -3.2903 0
M  V30 394 C 35.5154 -0.501901 -3.73039 0
M  V30 395 C 34.6624 -1.03304 -2.57339 0
M  V30 396 H 37.6134 -0.998808 -1.23327 0
M  V30 397 H 37.6344 -0.10554 -3.80354 0
M  V30 398 H 37.1464 -1.88357 -3.39328 0
M  V30 399 H 35.2474 0.565128 -3.68289 0
M  V30 400 H 35.3604 -1.03497 -4.67787 0
M  V30 401 H 33.7244 -0.455339 -2.50597 0
M  V30 402 H 34.5074 -2.11496 -2.70415 0
M  V30 403 N 36.9525 1.47285 -0.560781 0
M  V30 404 C 38.3635 1.86258 -0.128343 0
M  V30 405 C 38.7145 1.46699 1.30284 0
M  V30 406 O 37.8395 0.871698 1.98067 0
M  V30 407 C 38.4345 3.38044 -0.22614 0
M  V30 408 C 36.9935 3.76096 0.151283 0
M  V30 409 C 36.1405 2.71335 -0.572084 0
M  V30 410 H 39.0915 1.38752 -0.770297 0
M  V30 411 H 39.1125 3.76441 0.554322 0
M  V30 412 H 38.6245 3.66806 -1.26788 0
M  V30 413 H 36.7255 3.52951 1.19399 0
M  V30 414 H 36.8385 4.78641 -0.209765 0
M  V30 415 H 35.2025 2.54696 -0.0147653 0
M  V30 416 H 35.9855 3.02938 -1.61504 0
M  V30 417 N 38.4306 0.297415 1.54768 0
M  V30 418 C 39.3636 -0.622188 2.19554 0
M  V30 419 C 40.3416 -1.13558 1.16376 0
M  V30 420 O 41.5256 -1.20444 1.45002 0
M  V30 421 C 38.6526 -1.8509 2.83653 0
M  V30 422 C 37.6986 -1.47106 4.00328 0
M  V30 423 S 38.5316 -0.53006 5.3287 0
M  V30 424 C 39.6876 -1.76665 6.0045 0
M  V30 425 H 39.9206 -0.0717806 2.97213 0
M  V30 426 H 37.4536 0.0815678 1.54184 0
M  V30 427 H 39.4116 -2.55605 3.21211 0
M  V30 428 H 38.0726 -2.37247 2.05846 0
M  V30 429 H 37.2656 -2.38594 4.43947 0
M  V30 430 H 36.8676 -0.845885 3.64309 0
M  V30 431 H 39.1596 -2.7077 6.21039 0
M  V30 432 H 40.1026 -1.37308 6.9466 0
M  V30 433 H 40.5106 -1.94174 5.30054 0
M  V30 434 N 39.9087 -1.5758 0.0250728 0
M  V30 435 C 41.1547 -1.91917 -0.655413 0
M  V30 436 C 41.4877 -0.901433 -1.72011 0
M  V30 437 O 40.7627 0.0764069 -1.9435 0
M  V30 438 C 41.0457 -3.36751 -1.27558 0
M  V30 439 C 40.8987 -4.49258 -0.220719 0
M  V30 440 C 42.2177 -3.81469 -2.19475 0
M  V30 441 H 39.3367 -0.697925 -0.23679 0
M  V30 442 H 41.9787 -1.89825 0.0815036 0
M  V30 443 H 40.1287 -3.38664 -1.90365 0
M  V30 444 H 41.8007 -4.59478 0.409601 0
M  V30 445 H 40.0437 -4.31415 0.454264 0
M  V30 446 H 40.7147 -5.47618 -0.694175 0
M  V30 447 H 43.1907 -3.81266 -1.66659 0
M  V30 448 H 42.0667 -4.83512 -2.59822 0
M  V30 449 H 42.3277 -3.16744 -3.08424 0
M  V30 450 N 41.3868 0.248026 -1.55636 0
M  V30 451 C 42.6338 0.976224 -1.77415 0
M  V30 452 C 42.9618 1.85361 -0.589193 0
M  V30 453 O 42.2168 1.90973 0.427529 0
M  V30 454 C 42.5158 1.86819 -3.04686 0
M  V30 455 C 42.1818 1.14625 -4.36087 0
M  V30 456 C 40.8438 0.946723 -4.71795 0
M  V30 457 C 43.1958 0.634463 -5.17324 0
M  V30 458 C 40.5238 0.223091 -5.86276 0
M  V30 459 C 42.8758 -0.0756959 -6.32555 0
M  V30 460 C 41.5398 -0.286711 -6.66884 0
M  V30 461 H 40.8098 0.357226 -0.649208 0
M  V30 462 H 43.4568 0.246415 -1.89908 0
M  V30 463 H 41.7618 2.66502 -2.872 0
M  V30 464 H 43.4588 2.43329 -3.18735 0
M  V30 465 H 40.0488 1.3117 -4.08035 0
M  V30 466 H 44.2328 0.77616 -4.90193 0
M  V30 467 H 39.4888 0.0491185 -6.1138 0
M  V30 468 H 43.6628 -0.479899 -6.94745 0
M  V30 469 H 41.2898 -0.849389 -7.5544 0
M  V30 470 N 42.8649 1.48995 0.513639 0
M  V30 471 C 43.8119 1.6473 1.61656 0
M  V30 472 C 44.7819 0.488984 1.58739 0
M  V30 473 O 45.9669 0.714478 1.76918 0
M  V30 474 C 43.1069 1.7082 2.99858 0
M  V30 475 C 42.2199 2.9787 3.12885 0
M  V30 476 C 41.3549 2.95017 4.41744 0
M  V30 477 C 40.3939 4.16702 4.48359 0
M  V30 478 N 39.5309 4.11832 5.68629 0
M  V30 479 H 44.3709 2.58909 1.47547 0
M  V30 480 H 41.9079 1.28382 0.71808 0
M  V30 481 H 43.8659 1.72331 3.79944 0
M  V30 482 H 42.4959 0.801181 3.12699 0
M  V30 483 H 41.5479 3.06029 2.25944 0
M  V30 484 H 42.8599 3.8786 3.13633 0
M  V30 485 H 42.0139 2.95021 5.30139 0
M  V30 486 H 40.7529 2.02784 4.43542 0
M  V30 487 H 39.7579 4.16955 3.58369 0
M  V30 488 H 40.9829 5.10113 4.48287 0
M  V30 489 H 38.9289 3.22428 5.71293 0
M  V30 490 H 38.8459 4.95543 5.7094 0
M  V30 491 H 40.1139 4.1592 6.59266 0
M  V30 492 N 44.343 -0.763751 1.37857 0
M  V30 493 C 45.306 -1.85889 1.34081 0
M  V30 494 C 46.306 -1.58949 0.243277 0
M  V30 495 O 47.496 -1.66882 0.499589 0
M  V30 496 C 44.628 -3.23176 1.08489 0
M  V30 497 H 45.821 -1.90648 2.31502 0
M  V30 498 H 43.374 -0.964367 1.23003 0
M  V30 499 H 44.109 -3.24091 0.116318 0
M  V30 500 H 43.894 -3.44124 1.8794 0
M  V30 501 H 45.384 -4.03254 1.08517 0
M  V30 502 N 45.8211 -1.22559 -0.990812 0
M  V30 503 C 46.7531 -0.955325 -2.08342 0
M  V30 504 C 47.7661 0.0668408 -1.62663 0
M  V30 505 O 48.9551 -0.167421 -1.77713 0
M  V30 506 C 46.0551 -0.415566 -3.36342 0
M  V30 507 C 45.2281 -1.49544 -4.11042 0
M  V30 508 C 44.2871 -0.962399 -5.17324 0
M  V30 509 O 43.3131 -1.64907 -5.44788 0
M  V30 510 N 44.5151 0.215134 -5.80101 0
M  V30 511 H 47.2801 -1.89596 -2.32106 0
M  V30 512 H 44.8411 -1.13276 -1.15673 0
M  V30 513 H 46.8331 -0.0442386 -4.04676 0
M  V30 514 H 45.4031 0.430232 -3.09625 0
M  V30 515 H 44.6231 -2.04 -3.37309 0
M  V30 516 H 45.9111 -2.22195 -4.57719 0
M  V30 517 H 45.3091 0.789779 -5.6016 0
M  V30 518 H 43.8661 0.527826 -6.49659 0
M  V30 519 N 47.2992 1.18797 -1.03562 0
M  V30 520 C 48.2292 2.24472 -0.643019 0
M  V30 521 C 49.2102 1.66433 0.351283 0
M  V30 522 O 50.3952 1.92803 0.232505 0
M  V30 523 C 47.5252 3.473 4.24935e-05 0
M  V30 524 C 46.4792 4.18055 -0.917257 0
M  V30 525 C 45.8052 5.34519 -0.138941 0
M  V30 526 C 47.1052 4.72109 -2.23407 0
M  V30 527 H 48.7992 2.57566 -1.52643 0
M  V30 528 H 46.3452 1.23806 -0.735394 0
M  V30 529 H 48.2982 4.20426 0.286383 0
M  V30 530 H 47.0222 3.13424 0.918299 0
M  V30 531 H 45.6812 3.46821 -1.1879 0
M  V30 532 H 45.3292 4.96891 0.781562 0
M  V30 533 H 45.0292 5.82794 -0.750005 0
M  V30 534 H 46.5532 6.10438 0.1405 0
M  V30 535 H 47.9672 5.36955 -2.00879 0
M  V30 536 H 46.3642 5.30897 -2.79765 0
M  V30 537 H 47.4342 3.89807 -2.88407 0
M  V30 538 N 48.7773 0.814389 1.34928 0
M  V30 539 C 50.0243 0.398423 1.98542 0
M  V30 540 C 50.3523 -1.03638 1.64589 0
M  V30 541 O 49.6073 -1.73509 0.90516 0
M  V30 542 C 49.9063 0.537781 3.53331 0
M  V30 543 C 49.5723 1.93704 4.07172 0
M  V30 544 C 48.2343 2.31984 4.21589 0
M  V30 545 C 50.5863 2.85213 4.36237 0
M  V30 546 C 47.9143 3.61125 4.62391 0
M  V30 547 C 50.2663 4.13809 4.78482 0
M  V30 548 C 48.9303 4.52077 4.91104 0
M  V30 549 H 48.2003 0.145793 0.726516 0
M  V30 550 H 50.8473 1.03669 1.61012 0
M  V30 551 H 49.1523 -0.183906 3.91368 0
M  V30 552 H 50.8493 0.196588 4.00518 0
M  V30 553 H 47.4393 1.62966 3.96409 0
M  V30 554 H 51.6233 2.56885 4.24645 0
M  V30 555 H 46.8793 3.90612 4.70353 0
M  V30 556 H 51.0533 4.84811 4.99932 0
M  V30 557 H 48.6803 5.52196 5.22478 0
M  V30 558 N 50.2554 -1.46986 0.568584 0
M  V30 559 C 51.2184 -2.28624 -0.162366 0
M  V30 560 C 52.2184 -1.37596 -0.832103 0
M  V30 561 O 53.4084 -1.60115 -0.68622 0
M  V30 562 C 50.5404 -3.17596 -1.23878 0
M  V30 563 H 51.7334 -2.94722 0.554899 0
M  V30 564 H 49.2864 -1.52863 0.325976 0
M  V30 565 H 50.0214 -2.56214 -1.98808 0
M  V30 566 H 49.8064 -3.846 -0.763219 0
M  V30 567 H 51.2964 -3.79078 -1.75185 0
M  V30 568 N 51.7335 -0.305618 -1.54608 0
M  V30 569 C 52.6635 0.561482 -2.26649 0
M  V30 570 C 53.6445 1.13415 -1.26772 0
M  V30 571 O 54.8295 1.16262 -1.55553 0
M  V30 572 C 51.9595 1.73122 -3.01075 0
M  V30 573 C 50.9135 1.2887 -4.08138 0
M  V30 574 C 50.2395 2.54396 -4.70305 0
M  V30 575 C 51.5395 0.416578 -5.20636 0
M  V30 576 H 53.2335 -0.0393902 -2.99374 0
M  V30 577 H 50.7795 -0.020385 -1.43986 0
M  V30 578 H 52.7325 2.34396 -3.50195 0
M  V30 579 H 51.4565 2.3584 -2.25936 0
M  V30 580 H 50.1155 0.698991 -3.59875 0
M  V30 581 H 49.7635 3.15439 -3.918 0
M  V30 582 H 49.4635 2.25486 -5.42614 0
M  V30 583 H 50.9875 3.16464 -5.2219 0
M  V30 584 H 52.4015 0.935116 -5.65622 0
M  V30 585 H 50.7985 0.221046 -5.99693 0
M  V30 586 H 51.8685 -0.557162 -4.81688 0
M  V30 587 N 53.2116 1.57565 -0.0334293 0
M  V30 588 C 54.4396 1.9628 0.654347 0
M  V30 589 C 54.8546 0.910138 1.65414 0
M  V30 590 O 54.2116 -0.107595 1.82183 0
M  V30 591 C 54.2626 3.35067 1.35693 0
M  V30 592 O 53.9836 4.36296 0.397191 0
M  V30 593 C 55.4846 3.88439 2.13613 0
M  V30 594 H 52.7046 0.646369 0.180132 0
M  V30 595 H 55.2486 2.04282 -0.0944721 0
M  V30 596 H 53.4036 3.2827 2.05712 0
M  V30 597 H 53.8176 5.1678 0.896597 0
M  V30 598 H 55.2916 4.8788 2.58219 0
M  V30 599 H 55.7686 3.22914 2.97696 0
M  V30 600 H 56.3746 3.98516 1.48543 0
M  V30 601 N 54.6897 -0.239769 1.55765 0
M  V30 602 C 55.9377 -0.964892 1.77579 0
M  V30 603 C 56.2587 -1.85582 0.598699 0
M  V30 604 O 55.5287 -1.92075 -0.385226 0
M  V30 605 H 54.1087 -0.359265 0.654933 0
M  V30 606 H 56.7707 -0.256001 1.93211 0
M  V30 607 H 55.8667 -1.58243 2.69009 0
M  V30 608 N 56.1678 -1.49265 -0.50573 0
M  V30 609 C 57.4138 -1.58748 -1.26202 0
M  V30 610 C 57.7468 -0.271227 -1.92297 0
M  V30 611 O 57.0218 0.724831 -1.80489 0
M  V30 612 C 57.3048 -2.74332 -2.33268 0
M  V30 613 C 57.1578 -4.15737 -1.71705 0
M  V30 614 C 58.4768 -2.85576 -3.34865 0
M  V30 615 H 55.5958 -0.577826 -0.457478 0
M  V30 616 H 58.2378 -1.81532 -0.560897 0
M  V30 617 H 56.3878 -2.55036 -2.93068 0
M  V30 618 H 58.0598 -4.46537 -1.15769 0
M  V30 619 H 56.3028 -4.21605 -1.02135 0
M  V30 620 H 56.9738 -4.92477 -2.49341 0
M  V30 621 H 59.4498 -3.03127 -2.8505 0
M  V30 622 H 58.3258 -3.68135 -4.07146 0
M  V30 623 H 58.5868 -1.94732 -3.96903 0
M  V30 624 N 57.6459 0.756429 -1.3826 0
M  V30 625 C 58.5779 1.87971 -1.31147 0
M  V30 626 C 59.5909 1.61248 -0.224239 0
M  V30 627 O 60.7799 1.71881 -0.481581 0
M  V30 628 C 57.8799 3.23545 -1.00857 0
M  V30 629 C 57.0529 3.77794 -2.20432 0
M  V30 630 C 56.1119 4.91877 -1.86931 0
M  V30 631 O 55.1379 5.06659 -2.59395 0
M  V30 632 N 56.3399 5.74643 -0.822568 0
M  V30 633 H 59.1049 1.94585 -2.2794 0
M  V30 634 H 56.6659 0.936234 -1.32084 0
M  V30 635 H 58.6579 3.97403 -0.765021 0
M  V30 636 H 57.2279 3.12335 -0.128687 0
M  V30 637 H 56.4479 2.95534 -2.6087 0
M  V30 638 H 57.7359 4.10771 -3.00241 0
M  V30 639 H 57.1339 5.65266 -0.221575 0
M  V30 640 H 55.6909 6.48661 -0.638899 0
M  V30 641 N 59.124 1.23083 0.984299 0
M  V30 642 C 60.535 1.05609 1.5396 0
M  V30 643 C 60.886 -0.377793 1.92528 0
M  V30 644 O 60.011 -1.26398 1.75649 0
M  V30 645 C 60.606 1.91087 2.7977 0
M  V30 646 C 59.165 1.77885 3.31713 0
M  V30 647 C 58.312 1.87028 2.04733 0
M  V30 648 H 61.263 1.36802 0.804419 0
M  V30 649 H 61.284 1.43336 3.5247 0
M  V30 650 H 60.796 2.9544 2.51668 0
M  V30 651 H 58.897 0.762995 3.64704 0
M  V30 652 H 59.01 2.61047 4.01735 0
M  V30 653 H 57.374 1.30565 2.18689 0
M  V30 654 H 58.157 2.92929 1.79017 0
M  V30 655 N 60.6021 -1.18246 1.0419 0
M  V30 656 C 61.5651 -2.20128 0.638452 0
M  V30 657 C 62.5651 -1.57885 -0.304805 0
M  V30 658 O 63.7551 -1.73967 -0.0900369 0
M  V30 659 C 60.8871 -3.4084 -0.0637751 0
M  V30 660 H 62.0801 -2.57336 1.54007 0
M  V30 661 H 59.6331 -1.32152 0.834598 0
M  V30 662 H 60.3681 -3.09166 -0.979136 0
M  V30 663 H 60.1531 -3.8726 0.614198 0
M  V30 664 H 61.6431 -4.16274 -0.332512 0
M  V30 665 N 62.0802 -0.821533 -1.34494 0
M  V30 666 C 63.4962 -0.507117 -1.51329 0
M  V30 667 C 63.6962 0.968964 -1.76673 0
M  V30 668 O 62.7522 1.75348 -1.81685 0
M  V30 669 C 64.0652 -1.36544 -2.67911 0
M  V30 670 C 65.6132 -1.36242 -2.81793 0
M  V30 671 C 66.0882 -2.2052 -4.01416 0
M  V30 672 N 67.5792 -2.18136 -4.08621 0
M  V30 673 C 68.3142 -2.80095 -5.00334 0
M  V30 674 N 67.8102 -3.51039 -5.9728 0
M  V30 675 N 69.6032 -2.69656 -4.93196 0
M  V30 676 H 61.7542 -1.77729 -1.16302 0
M  V30 677 H 64.0172 -0.757291 -0.570276 0
M  V30 678 H 63.7232 -2.41361 -2.55808 0
M  V30 679 H 63.5972 -1.02917 -3.62888 0
M  V30 680 H 65.9842 -0.322041 -2.93338 0
M  V30 681 H 66.0652 -1.73866 -1.87628 0
M  V30 682 H 65.7092 -3.24607 -3.90631 0
M  V30 683 H 65.6392 -1.80247 -4.94791 0
M  V30 684 H 68.1302 -1.6653 -3.39229 0
M  V30 685 H 68.4432 -3.95565 -6.63889 0
M  V30 686 H 66.7882 -3.55145 -5.97409 0
M  V30 687 H 69.9792 -2.13808 -4.16418 0
M  V30 688 H 70.1522 -3.1823 -5.64476 0
M  V30 689 N 63.5583 1.46682 -0.576371 0
M  V30 690 C 64.4903 2.28341 0.198231 0
M  V30 691 C 65.5033 1.38141 0.861453 0
M  V30 692 O 66.6923 1.62797 0.732082 0
M  V30 693 C 63.7923 3.12986 1.29972 0
M  V30 694 C 62.9653 4.31271 0.729639 0
M  V30 695 C 62.0243 4.97363 1.71803 0
M  V30 696 O 61.0503 5.55156 1.25658 0
M  V30 697 N 62.2523 4.93796 3.05198 0
M  V30 698 H 65.0173 2.9546 -0.502324 0
M  V30 699 H 62.5783 1.56525 -0.413715 0
M  V30 700 H 64.5703 3.54066 1.96008 0
M  V30 701 H 63.1403 2.47984 1.90323 0
M  V30 702 H 62.3603 3.94052 -0.108012 0
M  V30 703 H 63.6483 5.07739 0.328438 0
M  V30 704 H 63.0463 4.48077 3.45317 0
M  V30 705 H 61.6033 5.38837 3.6674 0
M  V30 706 N 65.0364 0.313813 1.54444 0
M  V30 707 C 65.9834 -0.55655 2.23989 0
M  V30 708 C 66.9534 -1.11943 1.22711 0
M  V30 709 O 68.1384 -1.16158 1.51367 0
M  V30 710 C 65.2784 -1.71635 2.99392 0
M  V30 711 C 64.3914 -1.18364 4.15468 0
M  V30 712 C 63.5264 -2.30834 4.78424 0
M  V30 713 C 62.5654 -1.74762 5.86622 0
M  V30 714 N 61.7024 -2.80855 6.43479 0
M  V30 715 H 66.5424 0.0430893 2.97969 0
M  V30 716 H 64.0794 0.0330359 1.47063 0
M  V30 717 H 66.0374 -2.39868 3.41349 0
M  V30 718 H 64.6674 -2.28742 2.27765 0
M  V30 719 H 63.7194 -0.393163 3.78363 0
M  V30 720 H 65.0314 -0.733262 4.93381 0
M  V30 721 H 64.1854 -3.0699 5.23299 0
M  V30 722 H 62.9244 -2.79204 3.99871 0
M  V30 723 H 61.9294 -0.970995 5.41158 0
M  V30 724 H 63.1544 -1.2728 6.67066 0
M  V30 725 H 61.1004 -3.28535 5.67804 0
M  V30 726 H 61.0174 -2.40351 7.16776 0
M  V30 727 H 62.2854 -3.5687 6.93011 0
M  V30 728 N 66.5145 -1.57545 0.0417849 0
M  V30 729 C 67.7605 -1.92601 -0.635021 0
M  V30 730 C 68.0935 -0.919627 -1.71045 0
M  V30 731 O 67.3685 0.0557892 -1.9442 0
M  V30 732 C 67.6515 -3.38085 -1.23979 0
M  V30 733 C 67.5045 -4.49467 -0.173057 0
M  V30 734 C 68.8235 -3.83776 -2.15416 0
M  V30 735 H 65.9425 -0.700397 -0.229374 0
M  V30 736 H 68.5845 -1.89728 0.101633 0
M  V30 737 H 66.7345 -3.40664 -1.86762 0
M  V30 738 H 68.4065 -4.59018 0.458312 0
M  V30 739 H 66.6495 -4.30909 0.499996 0
M  V30 740 H 67.3205 -5.48323 -0.636054 0
M  V30 741 H 69.7965 -3.83013 -1.62605 0
M  V30 742 H 68.6725 -4.8624 -2.54679 0
M  V30 743 H 68.9335 -3.19998 -3.05047 0
M  V30 744 N 67.9926 0.231505 -1.5589 0
M  V30 745 C 68.9256 1.31369 -1.86595 0
M  V30 746 C 69.9036 1.45671 -0.722397 0
M  V30 747 O 71.0876 1.61642 -0.969743 0
M  V30 748 C 68.2146 2.68529 -2.06421 0
M  V30 749 C 67.2606 2.71295 -3.29092 0
M  V30 750 S 68.0936 2.26358 -4.85306 0
M  V30 751 C 69.2496 3.65414 -5.08157 0
M  V30 752 H 69.4826 1.05128 -2.78092 0
M  V30 753 H 67.0156 0.433259 -1.48197 0
M  V30 754 H 68.9736 3.47499 -2.18528 0
M  V30 755 H 67.6346 2.91999 -1.15738 0
M  V30 756 H 66.8276 3.72063 -3.39978 0
M  V30 757 H 66.4296 2.0038 -3.15791 0
M  V30 758 H 68.7216 4.6103 -4.96445 0
M  V30 759 H 69.6646 3.5945 -6.10083 0
M  V30 760 H 70.0726 3.5864 -4.35933 0
M  V30 761 N 69.4707 1.49531 0.497807 0
M  V30 762 C 70.7167 1.59415 1.25358 0
M  V30 763 C 71.0497 0.281422 1.9215 0
M  V30 764 O 70.3247 -0.715249 1.80871 0
M  V30 765 C 70.6077 2.75566 2.3181 0
M  V30 766 C 70.4607 4.16642 1.69498 0
M  V30 767 C 71.7797 2.87347 3.33346 0
M  V30 768 H 68.8987 0.580244 0.454408 0
M  V30 769 H 71.5407 1.81827 0.551262 0
M  V30 770 H 69.6907 2.56587 2.91711 0
M  V30 771 H 71.3627 4.47145 1.13399 0
M  V30 772 H 69.6057 4.22141 0.998978 0
M  V30 773 H 70.2767 4.93792 2.46725 0
M  V30 774 H 72.7527 3.04634 2.83438 0
M  V30 775 H 71.6287 3.70289 4.05188 0
M  V30 776 H 71.8897 1.96834 3.95865 0
M  V30 777 N 70.9488 -0.749086 1.3866 0
M  V30 778 C 71.8958 -1.86291 1.36251 0
M  V30 779 C 72.8658 -1.64578 0.224347 0
M  V30 780 O 74.0508 -1.86181 0.417279 0
M  V30 781 C 71.1908 -3.23644 1.19786 0
M  V30 782 C 70.3038 -3.57158 2.43027 0
M  V30 783 C 69.4388 -4.83838 2.19258 0
M  V30 784 C 68.4778 -5.10152 3.38247 0
M  V30 785 N 67.6148 -6.28029 3.13884 0
M  V30 786 H 72.4548 -1.87685 2.3147 0
M  V30 787 H 69.9918 -0.917287 1.14997 0
M  V30 788 H 71.9498 -4.0291 1.08254 0
M  V30 789 H 70.5798 -3.21566 0.282031 0
M  V30 790 H 69.6318 -2.72701 2.65214 0
M  V30 791 H 70.9438 -3.7253 3.31697 0
M  V30 792 H 70.0978 -5.71057 2.04888 0
M  V30 793 H 68.8368 -4.70614 1.2796 0
M  V30 794 H 67.8418 -4.21401 3.53131 0
M  V30 795 H 69.0668 -5.25271 4.30427 0
M  V30 796 H 67.0128 -6.1612 2.25238 0
M  V30 797 H 66.9298 -6.43922 3.96106 0
M  V30 798 H 68.1978 -7.18124 3.03179 0
M  V30 799 N 72.4269 -1.23603 -0.977757 0
M  V30 800 C 73.6749 -1.06759 -1.71601 0
M  V30 801 C 73.9959 0.395929 -1.90938 0
M  V30 802 O 73.2659 1.28356 -1.47992 0
M  V30 803 H 71.8459 -0.392062 -0.635843 0
M  V30 804 H 74.5079 -1.55362 -1.1768 0
M  V30 805 H 73.6039 -1.55763 -2.70452 0
M  V30 806 N 73.905 1.17692 -1.04816 0
M  V30 807 C 75.153 1.87488 -0.754497 0
M  V30 808 C 75.474 1.81205 0.720407 0
M  V30 809 O 74.744 1.23544 1.52032 0
M  V30 810 H 73.324 0.694101 -0.276102 0
M  V30 811 H 75.986 1.42793 -1.32651 0
M  V30 812 H 75.082 2.93328 -1.06606 0
M  V30 813 N 75.3831 0.828654 1.34056 0
M  V30 814 C 76.6111 0.43262 2.02326 0
M  V30 815 C 77.0261 -0.963147 1.62385 0
M  V30 816 O 76.3831 -1.62425 0.832121 0
M  V30 817 C 76.4341 0.53182 3.57567 0
M  V30 818 O 76.1551 1.87258 3.96063 0
M  V30 819 C 77.6561 0.131422 4.43105 0
M  V30 820 H 74.8761 0.172923 0.648335 0
M  V30 821 H 77.4201 1.1184 1.71208 0
M  V30 822 H 75.5751 -0.105938 3.87255 0
M  V30 823 H 75.9891 1.85087 4.90758 0
M  V30 824 H 77.4631 0.251904 5.51425 0
M  V30 825 H 77.9401 -0.925645 4.29335 0
M  V30 826 H 78.5461 0.743207 4.18756 0
M  V30 827 N 76.8612 -1.46375 0.584142 0
M  V30 828 C 77.7912 -2.33103 -0.136037 0
M  V30 829 C 78.7722 -1.45431 -0.882255 0
M  V30 830 O 79.9572 -1.74246 -0.857434 0
M  V30 831 C 77.0872 -3.27731 -1.14933 0
M  V30 832 C 76.0412 -4.24855 -0.517862 0
M  V30 833 C 75.3672 -5.09001 -1.63773 0
M  V30 834 C 76.6672 -5.19439 0.545886 0
M  V30 835 H 78.3612 -2.93568 0.588086 0
M  V30 836 H 75.9072 -1.41166 0.284259 0
M  V30 837 H 77.8602 -3.87261 -1.66153 0
M  V30 838 H 76.5842 -2.65377 -1.90375 0
M  V30 839 H 75.2432 -3.6659 -0.0267361 0
M  V30 840 H 74.8912 -4.43031 -2.38185 0
M  V30 841 H 74.5912 -5.74777 -1.22085 0
M  V30 842 H 76.1152 -5.71396 -2.15266 0
M  V30 843 H 77.5292 -5.73177 0.118704 0
M  V30 844 H 75.9262 -5.93566 0.88317 0
M  V30 845 H 76.9962 -4.63285 1.43162 0
M  V30 846 N 78.3393 -0.321999 -1.54275 0
M  V30 847 C 79.2863 0.544664 -2.24281 0
M  V30 848 C 80.2563 1.1129 -1.23303 0
M  V30 849 O 81.4413 1.15354 -1.51981 0
M  V30 850 C 78.5813 1.70045 -3.00298 0
M  V30 851 C 77.6943 1.16159 -4.1609 0
M  V30 852 C 76.8293 2.28293 -4.79641 0
M  V30 853 C 75.8683 1.71648 -5.8754 0
M  V30 854 N 75.0053 2.77438 -6.44959 0
M  V30 855 H 79.8453 -0.0588907 -2.97942 0
M  V30 856 H 77.3823 -0.0408345 -1.47043 0
M  V30 857 H 79.3403 2.38054 -3.42616 0
M  V30 858 H 77.9703 2.27531 -2.28975 0
M  V30 859 H 77.0223 0.373092 -3.78566 0
M  V30 860 H 78.3343 0.707087 -4.93763 0
M  V30 861 H 77.4883 3.0421 -5.2492 0
M  V30 862 H 76.2273 2.77079 -4.01346 0
M  V30 863 H 75.2323 0.942282 -5.41665 0
M  V30 864 H 76.4573 1.23741 -6.67731 0
M  V30 865 H 74.4033 3.25519 -5.69538 0
M  V30 866 H 74.3203 2.36547 -7.1804 0
M  V30 867 H 75.5883 3.53189 -6.94894 0
M  V30 868 N 79.8174 1.5752 -0.0501392 0
M  V30 869 C 81.0944 1.83996 0.663685 0
M  V30 870 C 81.4744 0.938339 1.89099 0
M  V30 871 O 80.8224 -0.00087759 2.285 0
M  V30 872 C 81.0324 3.33702 1.02196 0
M  V30 873 C 82.3804 4.00691 1.40469 0
M  V30 874 O 83.4044 3.38321 1.11433 0
M  V30 875 O 82.2634 5.10658 1.94654 0
M  V30 876 H 79.3574 0.759385 0.32751 0
M  V30 877 H 81.9034 1.69514 -0.0794238 0
M  V30 878 H 80.6754 3.91015 0.149364 0
M  V30 879 H 80.2984 3.53368 1.82255 0
M  V30 880 N 81.2955 -0.223234 1.56011 0
M  V30 881 C 82.5725 -0.972108 1.69733 0
M  V30 882 C 82.9525 -2.02485 0.59691 0
M  V30 883 O 82.3005 -2.25037 -0.396324 0
M  V30 884 C 82.5105 -1.58407 3.10979 0
M  V30 885 C 83.8585 -2.07696 3.70334 0
M  V30 886 O 84.8825 -1.68304 3.1393 0
M  V30 887 O 83.7415 -2.80096 4.69264 0
M  V30 888 H 80.8355 -0.453993 0.691245 0
M  V30 889 H 83.3815 -0.215149 1.68331 0
M  V30 890 H 82.1535 -0.823831 3.82529 0
M  V30 891 H 81.7765 -2.40661 3.16493 0
M  V30 892 N 82.7736 -1.49793 -0.48987 0
M  V30 893 C 84.0506 -1.50348 -1.25119 0
M  V30 894 C 84.4306 -0.237466 -2.0976 0
M  V30 895 O 83.7786 0.77981 -2.14782 0
M  V30 896 C 83.9886 -2.78872 -2.09837 0
M  V30 897 C 85.3366 -3.288 -2.68655 0
M  V30 898 O 86.3606 -2.80065 -2.20096 0
M  V30 899 O 85.2196 -4.13707 -3.57083 0
M  V30 900 H 82.3136 -0.602242 -0.566775 0
M  V30 901 H 84.8596 -1.62067 -0.503229 0
M  V30 902 H 83.6316 -3.62499 -1.47343 0
M  V30 903 H 83.2546 -2.70066 -2.91805 0
M  V30 904 N 84.2517 0.741722 -1.39055 0
M  V30 905 C 85.4977 1.50234 -1.37118 0
M  V30 906 C 85.8527 1.92368 0.0350439 0
M  V30 907 O 85.1457 1.63422 1.00019 0
M  V30 908 C 85.3397 2.7592 -2.27163 0
M  V30 909 C 85.1687 2.46074 -3.76401 0
M  V30 910 C 83.9387 2.38704 -4.45364 0
M  V30 911 C 86.1367 2.12062 -4.68545 0
M  V30 912 N 84.1187 2.01258 -5.79973 0
M  V30 913 C 85.4897 1.85005 -5.91754 0
M  V30 914 C 87.5447 1.98473 -4.56632 0
M  V30 915 C 86.2477 1.4573 -7.04383 0
M  V30 916 C 88.2737 1.60599 -5.69176 0
M  V30 917 C 87.6357 1.34423 -6.91455 0
M  V30 918 H 83.7347 0.548858 -0.557027 0
M  V30 919 H 86.3187 0.862642 -1.74547 0
M  V30 920 H 84.4897 3.3768 -1.91904 0
M  V30 921 H 86.2217 3.42068 -2.16267 0
M  V30 922 H 82.9767 2.55574 -3.98721 0
M  V30 923 H 83.4007 1.85147 -6.51191 0
M  V30 924 H 88.0427 2.17381 -3.62637 0
M  V30 925 H 85.7607 1.25562 -7.98286 0
M  V30 926 H 89.3467 1.507 -5.61944 0
M  V30 927 H 88.2267 1.05555 -7.77064 0
M  V30 928 N 85.7298 1.2412 0.971189 0
M  V30 929 C 86.9778 1.07668 1.71032 0
M  V30 930 C 87.2988 -0.385797 1.91146 0
M  V30 931 O 86.5688 -1.27569 1.4867 0
M  V30 932 H 85.1488 0.395429 0.633755 0
M  V30 933 H 87.8108 1.55984 1.16855 0
M  V30 934 H 86.9068 1.57195 2.69622 0
M  V30 935 N 87.2079 -1.17134 1.05439 0
M  V30 936 C 88.1559 -2.23289 0.651511 0
M  V30 937 C 89.1499 -1.66186 -0.328411 0
M  V30 938 O 90.3559 -1.78949 -0.194206 0
M  V30 939 H 86.7309 -0.726938 0.192523 0
M  V30 940 H 88.7019 -2.54565 1.55689 0
M  V30 941 C 87.4509 -3.47671 0.0448436 0
M  V30 942 H 86.7739 -3.91918 0.78996 0
M  V30 943 H 88.2139 -4.2353 -0.19964 0
M  V30 944 C 86.6729 -3.14453 -1.20918 0
M  V30 945 O 87.2029 -3.29459 -2.29825 0
M  V30 946 N 85.4089 -2.68657 -1.10779 0
M  V30 947 H 84.9559 -2.56646 -0.221526 0
M  V30 948 H 84.9139 -2.46804 -1.9477 0
M  V30 949 N 88.686 -0.835752 -1.33615 0
M  V30 950 C 89.935 -0.426289 -1.97144 0
M  V30 951 C 90.248 1.01912 -1.66953 0
M  V30 952 O 91.454 1.53311 -2.24072 0
M  V30 953 C 89.91 -0.711321 -3.52801 0
M  V30 954 C 89.518 -2.1712 -3.91871 0
M  V30 955 C 91.262 -0.368654 -4.22896 0
M  V30 956 C 89.169 -2.40044 -5.40493 0
M  V30 957 H 88.099 -0.15567 -0.737755 0
M  V30 958 H 90.75 -1.0239 -1.52278 0
M  V30 959 H 89.132 -0.0433766 -3.95976 0
M  V30 960 H 90.306 -2.87936 -3.59763 0
M  V30 961 H 88.621 -2.47654 -3.34749 0
M  V30 962 H 91.218 -0.517601 -5.32189 0
M  V30 963 H 91.561 0.688078 -4.10574 0
M  V30 964 H 92.094 -0.991702 -3.8524 0
M  V30 965 H 88.833 -3.44271 -5.57815 0
M  V30 966 H 88.353 -1.73785 -5.74072 0
M  V30 967 H 90.032 -2.23042 -6.0734 0
M  V30 968 N 90.1641 1.46063 -0.591896 0
M  V30 969 C 91.1111 2.30399 0.136069 0
M  V30 970 C 92.0811 1.41169 0.875238 0
M  V30 971 O 93.2661 1.70112 0.86409 0
M  V30 972 C 90.4061 3.25804 1.13781 0
M  V30 973 C 89.5191 4.30134 0.401137 0
M  V30 974 C 88.6541 5.12659 1.39121 0
M  V30 975 C 87.6931 6.0873 0.641462 0
M  V30 976 N 86.8301 6.8409 1.58004 0
M  V30 977 H 91.6701 2.92118 -0.589144 0
M  V30 978 H 89.2071 1.43959 -0.302342 0
M  V30 979 H 91.1651 3.79569 1.73156 0
M  V30 980 H 89.7951 2.65872 1.83062 0
M  V30 981 H 88.8471 3.79152 -0.307826 0
M  V30 982 H 90.1591 4.98458 -0.184565 0
M  V30 983 H 89.3131 5.70747 2.05749 0
M  V30 984 H 88.0521 4.44316 2.01084 0
M  V30 985 H 87.0571 5.49786 -0.0385419 0
M  V30 986 H 88.2821 6.79095 0.0270945 0
M  V30 987 H 86.2281 6.18449 2.18761 0
M  V30 988 H 86.1451 7.48709 1.04738 0
M  V30 989 H 87.4131 7.4673 2.23639 0
M  V30 990 N 91.6422 0.330177 1.54103 0
M  V30 991 C 92.8912 -0.271336 1.99867 0
M  V30 992 C 93.2042 -1.52723 1.22209 0
M  V30 993 O 94.4102 -2.20515 1.58383 0
M  V30 994 C 92.8662 -0.534032 3.55916 0
M  V30 995 C 92.4742 0.705193 4.42415 0
M  V30 996 C 94.2182 -1.09514 4.1013 0
M  V30 997 C 92.1252 0.414035 5.89949 0
M  V30 998 H 91.0552 -0.105166 0.74663 0
M  V30 999 H 93.7062 0.443429 1.78062 0
M  V30 1000 H 92.0882 -1.30915 3.73734 0
M  V30 1001 H 93.2622 1.4804 4.36372 0
M  V30 1002 H 91.5772 1.18698 3.99124 0
M  V30 1003 H 94.1742 -1.3277 5.17954 0
M  V30 1004 H 94.5172 -2.04656 3.62521 0
M  V30 1005 H 95.0502 -0.381038 3.95971 0
M  V30 1006 H 91.7892 1.33481 6.41766 0
M  V30 1007 H 91.3092 -0.323336 5.98928 0
M  V30 1008 H 92.9882 0.0263105 6.46995 0
M  V30 1009 N 93.1203 -1.57491 0.0584922 0
M  V30 1010 C 94.0673 -2.11958 -0.913376 0
M  V30 1011 C 95.0373 -1.02875 -1.30407 0
M  V30 1012 O 96.2223 -1.30464 -1.39226 0
M  V30 1013 C 93.3623 -2.67497 -2.18035 0
M  V30 1014 C 92.4753 -3.90691 -1.84349 0
M  V30 1015 C 91.6103 -4.3452 -3.05559 0
M  V30 1016 C 90.6493 -5.50395 -2.67827 0
M  V30 1017 N 89.7863 -5.89244 -3.81754 0
M  V30 1018 H 94.6263 -2.94704 -0.442017 0
M  V30 1019 H 92.1633 -1.45643 -0.206545 0
M  V30 1020 H 94.1213 -2.978 -2.92183 0
M  V30 1021 H 92.7513 -1.87537 -2.62735 0
M  V30 1022 H 91.8033 -3.66934 -1.00319 0
M  V30 1023 H 93.1153 -4.7489 -1.5258 0
M  V30 1024 H 92.2693 -4.66414 -3.87998 0
M  V30 1025 H 91.0083 -3.49147 -3.40511 0
M  V30 1026 H 90.0133 -5.18165 -1.83806 0
M  V30 1027 H 91.2383 -6.3749 -2.34059 0
M  V30 1028 H 89.1843 -5.06823 -4.16493 0
M  V30 1029 H 89.1013 -6.68151 -3.53708 0
M  V30 1030 H 90.3693 -6.25756 -4.64811 0
M  V30 1031 N 94.5984 0.214957 -1.56127 0
M  V30 1032 C 95.5464 1.28601 -1.93816 0
M  V30 1033 C 96.5404 1.48175 -0.821016 0
M  V30 1034 O 97.7464 1.49271 -1.0059 0
M  V30 1035 H 94.1214 0.431302 -0.616022 0
M  V30 1036 H 96.0924 0.940991 -2.83175 0
M  V30 1037 C 94.8414 2.62779 -2.27689 0
M  V30 1038 H 94.1644 2.48527 -3.13168 0
M  V30 1039 H 95.6044 3.36517 -2.57939 0
M  V30 1040 C 94.0634 3.18285 -1.10436 0
M  V30 1041 O 94.5934 4.00002 -0.368945 0
M  V30 1042 N 92.7994 2.7675 -0.886433 0
M  V30 1043 H 92.3464 2.10404 -1.48619 0
M  V30 1044 H 92.3044 3.14229 -0.103656 0
M  V30 1045 N 96.0765 1.50051 0.48192 0
M  V30 1046 C 97.3245 1.60181 1.23234 0
M  V30 1047 C 97.6455 0.299176 1.92691 0
M  V30 1048 O 96.9155 -0.682708 1.83619 0
M  V30 1049 H 95.4955 0.590232 0.457859 0
M  V30 1050 H 98.1575 1.86775 0.556881 0
M  V30 1051 H 97.2535 2.40753 1.98607 0
M  V30 1052 N 97.5546 -0.734337 1.39446 0
M  V30 1053 C 98.4876 -1.85715 1.32609 0
M  V30 1054 C 99.4656 -1.6137 0.199636 0
M  V30 1055 O 100.65 -1.84626 0.380195 0
M  V30 1056 C 97.7766 -3.21709 1.05929 0
M  V30 1057 C 96.8226 -3.64913 2.20773 0
M  V30 1058 S 97.6556 -3.74203 3.83056 0
M  V30 1059 C 98.8116 -5.12986 3.58603 0
M  V30 1060 H 99.0446 -1.91232 2.27635 0
M  V30 1061 H 96.5776 -0.899263 1.25509 0
M  V30 1062 H 98.5356 -4.00236 0.912203 0
M  V30 1063 H 97.1966 -3.13848 0.125883 0
M  V30 1064 H 96.3896 -4.63606 1.97699 0
M  V30 1065 H 95.9916 -2.93593 2.31688 0
M  V30 1066 H 98.2836 -5.99339 3.15909 0
M  V30 1067 H 99.2266 -5.41088 4.5676 0
M  V30 1068 H 99.6346 -4.82694 2.9269 0
M  V30 1069 N 99.0327 -1.24633 -0.964593 0
M  V30 1070 C 100.261 -1.11501 -1.74285 0
M  V30 1071 C 100.676 0.332165 -1.85855 0
M  V30 1072 O 100.033 1.22903 -1.34911 0
M  V30 1073 C 100.084 -1.75258 -3.16175 0
M  V30 1074 O 99.8047 -3.14318 -3.05182 0
M  V30 1075 C 101.306 -1.67776 -4.10324 0
M  V30 1076 H 98.5257 -0.389407 -0.546446 0
M  V30 1077 H 101.07 -1.64801 -1.21083 0
M  V30 1078 H 99.2247 -1.25954 -3.66353 0
M  V30 1079 H 99.6387 -3.4551 -3.94618 0
M  V30 1080 H 101.113 -2.17064 -5.0753 0
M  V30 1081 H 101.59 -0.639584 -4.34518 0
M  V30 1082 H 102.196 -2.16522 -3.66058 0
M  V30 1083 N 100.511 1.16574 -1.06058 0
M  V30 1084 C 101.441 2.23057 -0.690488 0
M  V30 1085 C 102.422 1.67141 0.315901 0
M  V30 1086 O 103.607 1.93253 0.191556 0
M  V30 1087 C 100.737 3.47222 -0.073625 0
M  V30 1088 C 99.6908 4.16016 -1.00573 0
M  V30 1089 C 99.0168 5.34104 -0.252289 0
M  V30 1090 C 100.317 4.67264 -2.33371 0
M  V30 1091 H 102.011 2.54271 -1.58072 0
M  V30 1092 H 99.5568 1.22218 -0.76149 0
M  V30 1093 H 101.51 4.20939 0.19714 0
M  V30 1094 H 100.234 3.15302 0.85161 0
M  V30 1095 H 98.8928 3.44223 -1.2612 0
M  V30 1096 H 98.5408 4.98437 0.675988 0
M  V30 1097 H 98.2408 5.81072 -0.873455 0
M  V30 1098 H 99.7648 6.10599 0.0109857 0
M  V30 1099 H 101.179 5.32573 -2.12223 0
M  V30 1100 H 99.5758 5.24843 -2.90963 0
M  V30 1101 H 100.646 3.83602 -2.96611 0
M  V30 1102 N 101.989 0.842826 1.3317 0
M  V30 1103 C 102.919 0.294028 2.31641 0
M  V30 1104 C 103.9 -0.600401 1.59151 0
M  V30 1105 O 105.085 -0.523124 1.87022 0
M  V30 1106 C 102.215 -0.528416 3.43257 0
M  V30 1107 C 101.169 0.27056 4.27144 0
M  V30 1108 C 100.495 -0.675881 5.30411 0
M  V30 1109 C 101.795 1.48981 5.00602 0
M  V30 1110 H 103.489 1.11681 2.77791 0
M  V30 1111 H 101.035 0.538478 1.33553 0
M  V30 1112 H 102.988 -0.922674 4.11175 0
M  V30 1113 H 101.712 -1.38445 2.95805 0
M  V30 1114 H 100.371 0.646427 3.60856 0
M  V30 1115 H 100.019 -1.52842 4.79216 0
M  V30 1116 H 99.7189 -0.145374 5.8742 0
M  V30 1117 H 101.243 -1.06757 6.01195 0
M  V30 1118 H 102.657 1.16849 5.61266 0
M  V30 1119 H 101.054 1.95739 5.6728 0
M  V30 1120 H 102.124 2.25746 4.29147 0
M  V30 1121 N 103.467 -1.45747 0.599634 0
M  V30 1122 C 104.4 -2.27547 -0.172552 0
M  V30 1123 C 105.378 -1.36657 -0.881116 0
M  V30 1124 O 106.562 -1.66081 -0.891595 0
M  V30 1125 C 103.689 -3.14829 -1.24903 0
M  V30 1126 C 102.735 -4.21603 -0.644465 0
M  V30 1127 S 103.568 -5.32754 0.541606 0
M  V30 1128 C 104.724 -6.23604 -0.535656 0
M  V30 1129 H 104.957 -2.92691 0.521468 0
M  V30 1130 H 102.49 -1.49473 0.386947 0
M  V30 1131 H 104.448 -3.65675 -1.86527 0
M  V30 1132 H 103.109 -2.48965 -1.91508 0
M  V30 1133 H 102.302 -4.82566 -1.45417 0
M  V30 1134 H 101.904 -3.73857 -0.103534 0
M  V30 1135 H 104.196 -6.62519 -1.41686 0
M  V30 1136 H 105.139 -7.0809 0.0376246 0
M  V30 1137 H 105.547 -5.58103 -0.84741 0
M  V30 1138 N 104.945 -0.338344 -1.53925 0
M  V30 1139 C 105.878 0.563758 -2.21127 0
M  V30 1140 C 106.856 1.10433 -1.19345 0
M  V30 1141 O 108.04 1.16557 -1.48144 0
M  V30 1142 C 105.167 1.77505 -2.88461 0
M  V30 1143 C 104.213 1.3644 -4.04087 0
M  V30 1144 S 105.046 0.388593 -5.34088 0
M  V30 1145 C 106.202 1.60683 -6.04923 0
M  V30 1146 H 106.435 -0.00704546 -2.97299 0
M  V30 1147 H 103.968 -0.122418 -1.53914 0
M  V30 1148 H 105.926 2.46999 -3.27875 0
M  V30 1149 H 104.587 2.31706 -2.12064 0
M  V30 1150 H 103.78 2.26739 -4.50117 0
M  V30 1151 H 103.382 0.748998 -3.66423 0
M  V30 1152 H 105.674 2.54209 -6.28 0
M  V30 1153 H 106.617 1.18842 -6.98056 0
M  V30 1154 H 107.025 1.80052 -5.35015 0
M  V30 1155 N 106.423 1.57458 -0.0668435 0
M  V30 1156 C 107.671 1.92919 0.602214 0
M  V30 1157 C 107.992 0.947215 1.70449 0
M  V30 1158 O 107.262 -0.00544117 1.95899 0
M  V30 1159 H 105.842 0.71217 0.22544 0
M  V30 1160 H 108.504 1.94508 -0.123535 0
M  V30 1161 H 107.6 2.94589 1.03073 0
M  V30 1162 N 107.901 -0.206675 1.56239 0
M  V30 1163 C 109.126 -0.949474 1.8439 0
M  V30 1164 C 109.551 -1.76549 0.649016 0
M  V30 1165 O 108.909 -1.76782 -0.402231 0
M  V30 1166 C 108.957 -1.83078 3.10668 0
M  V30 1167 O 108.061 -2.9281 2.90407 0
M  V30 1168 H 107.402 -0.268033 0.607499 0
M  V30 1169 H 109.932 -0.215488 2.03462 0
M  V30 1170 H 109.942 -2.2377 3.41161 0
M  V30 1171 H 108.617 -1.23112 3.97261 0
M  V30 1172 H 107.194 -2.55956 2.71184 0
M  V30 1173 N 109.379 -1.50304 -0.473955 0
M  V30 1174 C 110.342 -1.6841 -1.55469 0
M  V30 1175 C 111.342 -0.554905 -1.50922 0
M  V30 1176 O 112.532 -0.821882 -1.53593 0
M  V30 1177 C 109.664 -1.70667 -2.95102 0
M  V30 1178 H 110.857 -2.64828 -1.40733 0
M  V30 1179 H 108.41 -1.39742 -0.700132 0
M  V30 1180 H 109.145 -0.75932 -3.15285 0
M  V30 1181 H 108.93 -2.52698 -2.9981 0
M  V30 1182 H 110.42 -1.8664 -3.73571 0
M  V30 1183 N 110.857 0.726932 -1.39834 0
M  V30 1184 C 112.134 1.47902 -1.28001 0
M  V30 1185 C 112.514 2.1083 0.106789 0
M  V30 1186 O 111.862 1.99242 1.11869 0
M  V30 1187 C 112.072 2.52392 -2.41038 0
M  V30 1188 C 113.42 3.18546 -2.80737 0
M  V30 1189 O 114.444 2.62708 -2.40547 0
M  V30 1190 O 113.303 4.19604 -3.50135 0
M  V30 1191 H 110.397 0.657163 -0.502062 0
M  V30 1192 H 112.943 0.760071 -1.51727 0
M  V30 1193 H 111.715 2.04329 -3.33715 0
M  V30 1194 H 111.338 3.31837 -2.19021 0
M  V30 1195 N 112.336 1.25143 0.95797 0
M  V30 1196 C 113.299 1.05321 2.03569 0
M  V30 1197 C 114.299 0.007152 1.60798 0
M  V30 1198 O 115.489 0.24903 1.72411 0
M  V30 1199 C 112.621 0.598394 3.35607 0
M  V30 1200 H 113.814 2.00986 2.22586 0
M  V30 1201 H 111.367 1.07502 1.13459 0
M  V30 1202 H 112.102 -0.361014 3.22284 0
M  V30 1203 H 111.887 1.35351 3.67998 0
M  V30 1204 H 113.377 0.48104 4.1482 0
M  V30 1205 N 113.814 -1.1601 1.06675 0
M  V30 1206 C 114.744 -2.22688 0.702307 0
M  V30 1207 C 115.725 -1.67306 -0.307032 0
M  V30 1208 O 116.91 -1.93352 -0.181305 0
M  V30 1209 C 114.04 -3.47178 0.092038 0
M  V30 1210 C 112.994 -4.15477 1.02777 0
M  V30 1211 C 112.32 -5.33963 0.28061 0
M  V30 1212 C 113.62 -4.66019 2.35846 0
M  V30 1213 H 115.314 -2.53429 1.59419 0
M  V30 1214 H 112.86 -1.21813 0.767961 0
M  V30 1215 H 114.813 -4.21037 -0.174814 0
M  V30 1216 H 113.537 -3.15749 -0.834877 0
M  V30 1217 H 112.196 -3.43549 1.27944 0
M  V30 1218 H 111.844 -4.98788 -0.649545 0
M  V30 1219 H 111.544 -5.806 0.904258 0
M  V30 1220 H 113.068 -6.10596 0.021396 0
M  V30 1221 H 114.482 -5.3144 2.15045 0
M  V30 1222 H 112.879 -5.23293 2.93743 0
M  V30 1223 H 113.949 -3.82023 2.98641 0
M  V30 1224 N 115.292 -0.849877 -1.32721 0
M  V30 1225 C 116.703 -0.506188 -1.79707 0
M  V30 1226 C 117.054 0.975627 -1.70223 0
M  V30 1227 O 116.179 1.76078 -1.25799 0
M  V30 1228 C 116.774 -0.912044 -3.26293 0
M  V30 1229 C 115.333 -0.620326 -3.71253 0
M  V30 1230 C 114.48 -1.11439 -2.53922 0
M  V30 1231 H 117.431 -1.03754 -1.20087 0
M  V30 1232 H 117.452 -0.226493 -3.79825 0
M  V30 1233 H 116.964 -1.99057 -3.33164 0
M  V30 1234 H 115.065 0.447674 -3.69901 0
M  V30 1235 H 115.178 -1.18327 -4.64258 0
M  V30 1236 H 113.542 -0.534834 -2.49021 0
M  V30 1237 H 114.325 -2.19992 -2.6355 0
M  V30 1238 N 116.77 1.45427 -0.607355 0
M  V30 1239 C 117.68 2.34325 0.113463 0
M  V30 1240 C 118.696 1.51226 0.860617 0
M  V30 1241 O 119.872 1.84029 0.818255 0
M  V30 1242 C 116.937 3.28839 1.09844 0
M  V30 1243 C 115.998 4.27844 0.353271 0
M  V30 1244 C 115.231 5.17842 1.29133 0
M  V30 1245 O 115.454 5.11264 2.52913 0
M  V30 1246 O 114.388 5.96713 0.788523 0
M  V30 1247 H 118.214 2.97364 -0.617094 0
M  V30 1248 H 115.799 1.44807 -0.367619 0
M  V30 1249 H 117.681 3.8708 1.66575 0
M  V30 1250 H 116.356 2.68365 1.81003 0
M  V30 1251 H 115.263 3.7322 -0.256494 0
M  V30 1252 H 116.596 4.91173 -0.317822 0
M  V30 1253 N 118.248 0.346503 1.53744 0
M  V30 1254 C 119.158 -0.517293 2.28826 0
M  V30 1255 C 120.174 -1.10935 1.3405 0
M  V30 1256 O 121.35 -1.1244 1.6709 0
M  V30 1257 C 118.415 -1.65098 3.04866 0
M  V30 1258 C 117.476 -1.0884 4.15274 0
M  V30 1259 C 116.709 -2.16806 4.87679 0
M  V30 1260 O 116.932 -3.3758 4.59778 0
M  V30 1261 O 115.866 -1.80934 5.74061 0
M  V30 1262 H 119.692 0.0931396 3.03557 0
M  V30 1263 H 117.277 0.111458 1.48984 0
M  V30 1264 H 119.159 -2.31053 3.5241 0
M  V30 1265 H 117.834 -2.24717 2.32989 0
M  V30 1266 H 116.741 -0.3933 3.72027 0
M  V30 1267 H 118.074 -0.537036 4.89261 0
M  V30 1268 N 119.726 -1.57421 0.075193 0
M  V30 1269 C 121.137 -1.81021 -0.456964 0
M  V30 1270 C 121.488 -0.98936 -1.69429 0
M  V30 1271 O 120.613 -0.212865 -2.15351 0
M  V30 1272 C 121.208 -3.28329 -0.83581 0
M  V30 1273 C 119.767 -3.52764 -1.31281 0
M  V30 1274 C 118.914 -2.75676 -0.299648 0
M  V30 1275 H 121.865 -1.55822 0.300856 0
M  V30 1276 H 121.886 -3.40564 -1.69696 0
M  V30 1277 H 121.398 -3.88046 0.0649238 0
M  V30 1278 H 119.499 -2.98355 -2.23193 0
M  V30 1279 H 119.612 -4.61451 -1.28839 0
M  V30 1280 H 117.976 -2.42538 -0.777641 0
M  V30 1281 H 118.759 -3.38132 0.593417 0
M  V30 1282 N 121.204 0.198386 -1.56346 0
M  V30 1283 C 122.429 0.939682 -1.84891 0
M  V30 1284 C 122.854 1.76202 -0.658369 0
M  V30 1285 O 122.212 1.76993 0.392851 0
M  V30 1286 C 122.26 1.81428 -3.11635 0
M  V30 1287 O 121.364 2.91265 -2.91956 0
M  V30 1288 H 120.705 0.264807 -0.608912 0
M  V30 1289 H 123.235 0.204695 -2.03573 0
M  V30 1290 H 123.245 2.21958 -3.42343 0
M  V30 1291 H 121.92 1.21004 -3.97908 0
M  V30 1292 H 120.497 2.54514 -2.72538 0
M  V30 1293 N 122.682 1.50554 0.465978 0
M  V30 1294 C 123.645 1.69233 1.54574 0
M  V30 1295 C 124.645 0.562901 1.50626 0
M  V30 1296 O 125.835 0.830016 1.53155 0
M  V30 1297 C 122.967 1.7223 2.94193 0
M  V30 1298 H 124.16 2.65571 1.39327 0
M  V30 1299 H 121.713 1.40111 0.692711 0
M  V30 1300 H 122.448 0.77603 3.14878 0
M  V30 1301 H 122.233 2.54285 2.98466 0
M  V30 1302 H 123.723 1.88618 3.72576 0
M  V30 1303 N 124.16 -0.719506 1.40217 0
M  V30 1304 C 125.107 -1.83359 1.40172 0
M  V30 1305 C 126.077 -1.64065 0.259206 0
M  V30 1306 O 127.262 -1.85254 0.456677 0
M  V30 1307 C 124.402 -3.2103 1.26624 0
M  V30 1308 C 123.515 -3.51923 2.50548 0
M  V30 1309 C 122.65 -4.79079 2.29471 0
M  V30 1310 C 121.689 -5.02863 3.48992 0
M  V30 1311 N 120.826 -6.2123 3.27135 0
M  V30 1312 H 125.666 -1.82733 2.35399 0
M  V30 1313 H 123.203 -0.892688 1.16917 0
M  V30 1314 H 125.161 -4.00524 1.16776 0
M  V30 1315 H 123.791 -3.20895 0.350176 0
M  V30 1316 H 122.843 -2.67014 2.70939 0
M  V30 1317 H 124.155 -3.6541 3.39525 0
M  V30 1318 H 123.309 -5.66582 2.16955 0
M  V30 1319 H 122.048 -4.67794 1.37913 0
M  V30 1320 H 121.053 -4.13816 3.6199 0
M  V30 1321 H 122.278 -5.16023 4.41472 0
M  V30 1322 H 120.224 -6.11204 2.38256 0
M  V30 1323 H 120.141 -6.35375 4.09675 0
M  V30 1324 H 121.409 -7.11532 3.18344 0
M  V30 1325 N 125.638 -1.25649 -0.95132 0
M  V30 1326 C 126.866 -1.13343 -1.73092 0
M  V30 1327 C 127.281 0.312434 -1.86197 0
M  V30 1328 O 126.638 1.21465 -1.36207 0
M  V30 1329 C 126.689 -1.78602 -3.14299 0
M  V30 1330 O 126.41 -3.17537 -3.01831 0
M  V30 1331 C 127.911 -1.72119 -4.08522 0
M  V30 1332 H 125.131 -0.395181 -0.542285 0
M  V30 1333 H 127.675 -1.66076 -1.19328 0
M  V30 1334 H 125.83 -1.29832 -3.64996 0
M  V30 1335 H 126.244 -3.49676 -3.90931 0
M  V30 1336 H 127.718 -2.22435 -5.052 0
M  V30 1337 H 128.195 -0.685635 -4.33815 0
M  V30 1338 H 128.801 -2.20393 -3.63741 0
M  V30 1339 N 127.117 1.15442 -1.07289 0
M  V30 1340 C 128.363 1.86489 -0.796846 0
M  V30 1341 C 128.696 1.82078 0.675371 0
M  V30 1342 O 127.971 1.24346 1.4956 0
M  V30 1343 C 128.254 3.35626 -1.30489 0
M  V30 1344 C 128.107 3.48673 -2.84161 0
M  V30 1345 C 129.426 4.30357 -0.920907 0
M  V30 1346 H 126.545 0.677144 -0.290939 0
M  V30 1347 H 129.187 1.35633 -1.33056 0
M  V30 1348 H 127.337 3.79068 -0.850883 0
M  V30 1349 H 129.009 3.14099 -3.37846 0
M  V30 1350 H 127.252 2.90253 -3.22391 0
M  V30 1351 H 127.923 4.53453 -3.14777 0
M  V30 1352 H 130.399 3.94871 -1.3121 0
M  V30 1353 H 129.275 5.33193 -1.30372 0
M  V30 1354 H 129.536 4.4176 0.173226 0
M  V30 1355 N 128.595 0.856903 1.32268 0
M  V30 1356 C 129.842 0.461386 1.97174 0
M  V30 1357 C 130.17 -0.983491 1.67803 0
M  V30 1358 O 129.425 -1.70541 0.959903 0
M  V30 1359 C 129.724 0.649919 3.51441 0
M  V30 1360 C 129.39 2.0656 4.00804 0
M  V30 1361 C 128.052 2.45279 4.13995 0
M  V30 1362 C 130.404 2.98947 4.26943 0
M  V30 1363 C 127.732 3.75653 4.50668 0
M  V30 1364 C 130.084 4.28822 4.65075 0
M  V30 1365 C 128.748 4.67472 4.76472 0
M  V30 1366 H 128.018 0.168833 0.72151 0
M  V30 1367 H 130.665 1.08739 1.57633 0
M  V30 1368 H 128.97 -0.0593018 3.91755 0
M  V30 1369 H 130.667 0.32391 3.9969 0
M  V30 1370 H 127.257 1.75495 3.91024 0
M  V30 1371 H 131.441 2.70265 4.16258 0
M  V30 1372 H 126.697 4.05379 4.57688 0
M  V30 1373 H 130.871 5.0047 4.84255 0
M  V30 1374 H 128.498 5.68539 5.04646 0
M  V30 1375 N 130.073 -1.45103 0.615059 0
M  V30 1376 C 131.319 -2.02483 0.113347 0
M  V30 1377 C 131.652 -1.48146 -1.25564 0
M  V30 1378 O 130.927 -0.659104 -1.82992 0
M  V30 1379 C 131.21 -3.60005 0.0825278 0
M  V30 1380 C 131.063 -4.2466 1.48271 0
M  V30 1381 C 132.382 -4.35972 -0.601401 0
M  V30 1382 H 129.501 -0.735764 0.0426632 0
M  V30 1383 H 132.143 -1.72868 0.788461 0
M  V30 1384 H 130.293 -3.85367 -0.492378 0
M  V30 1385 H 131.965 -4.10458 2.10527 0
M  V30 1386 H 130.208 -3.82772 2.04127 0
M  V30 1387 H 130.879 -5.336 1.41332 0
M  V30 1388 H 133.355 -4.15947 -0.112666 0
M  V30 1389 H 132.231 -5.45697 -0.592097 0
M  V30 1390 H 132.492 -4.09391 -1.66887 0
M  V30 1391 N 131.551 -0.354651 -1.53558 0
M  V30 1392 C 132.461 0.50515 -2.29097 0
M  V30 1393 C 133.477 1.10223 -1.34636 0
M  V30 1394 O 134.653 1.11553 -1.67684 0
M  V30 1395 C 131.718 1.63479 -3.05738 0
M  V30 1396 C 130.779 1.06636 -4.15845 0
M  V30 1397 C 130.012 2.14217 -4.88822 0
M  V30 1398 O 130.235 3.35137 -4.61562 0
M  V30 1399 O 129.169 1.77887 -5.75013 0
M  V30 1400 H 132.995 -0.109237 -3.03503 0
M  V30 1401 H 130.58 -0.119357 -1.48922 0
M  V30 1402 H 132.462 2.2918 -3.5363 0
M  V30 1403 H 131.137 2.23478 -2.34178 0
M  V30 1404 H 130.044 0.373565 -3.7223 0
M  V30 1405 H 131.377 0.511081 -4.89539 0
M  V30 1406 N 133.029 1.57378 -0.0835403 0
M  V30 1407 C 134.306 1.85363 0.624507 0
M  V30 1408 C 134.686 0.978239 1.87066 0
M  V30 1409 O 134.034 0.0475908 2.2845 0
M  V30 1410 C 134.244 3.35795 0.950947 0
M  V30 1411 C 135.592 4.03581 1.31939 0
M  V30 1412 O 136.616 3.40609 1.04232 0
M  V30 1413 O 135.475 5.14672 1.83779 0
M  V30 1414 H 132.569 0.766162 0.311329 0
M  V30 1415 H 135.115 1.69307 -0.115362 0
M  V30 1416 H 133.887 3.91244 0.0663899 0
M  V30 1417 H 133.51 3.57154 1.74719 0
M  V30 1418 N 134.507 -0.190092 1.56449 0
M  V30 1419 C 135.44 -1.26375 1.90012 0
M  V30 1420 C 136.418 -1.43705 0.760765 0
M  V30 1421 O 137.602 -1.59014 1.01226 0
M  V30 1422 C 134.729 -2.62962 2.13468 0
M  V30 1423 C 133.775 -2.62474 3.36169 0
M  V30 1424 S 134.608 -2.13412 4.91137 0
M  V30 1425 C 135.764 -3.51812 5.17667 0
M  V30 1426 H 135.997 -0.977181 2.80782 0
M  V30 1427 H 133.53 -0.393814 1.49293 0
M  V30 1428 H 135.488 -3.41583 2.27664 0
M  V30 1429 H 134.149 -2.88828 1.23439 0
M  V30 1430 H 133.342 -3.62918 3.49723 0
M  V30 1431 H 132.944 -1.91937 3.20992 0
M  V30 1432 H 135.236 -4.47706 5.08494 0
M  V30 1433 H 136.179 -3.43148 6.19399 0
M  V30 1434 H 136.587 -3.46956 4.45288 0
M  V30 1435 N 135.985 -1.50799 -0.457987 0
M  V30 1436 C 137.213 -1.66218 -1.23203 0
M  V30 1437 C 137.628 -0.350894 -1.85511 0
M  V30 1438 O 136.985 0.668546 -1.69814 0
M  V30 1439 C 137.036 -2.76291 -2.33121 0
M  V30 1440 O 136.757 -4.02338 -1.73366 0
M  V30 1441 C 138.258 -3.028 -3.2377 0
M  V30 1442 H 135.478 -0.558361 -0.372121 0
M  V30 1443 H 138.022 -1.97099 -0.545179 0
M  V30 1444 H 136.177 -2.48068 -2.97558 0
M  V30 1445 H 136.591 -4.63312 -2.4585 0
M  V30 1446 H 138.065 -3.8345 -3.97077 0
M  V30 1447 H 138.542 -2.14385 -3.83322 0
M  V30 1448 H 139.148 -3.32604 -2.65056 0
M  V30 1449 N 137.463 0.71206 -1.40597 0
M  V30 1450 C 138.373 1.8562 -1.43466 0
M  V30 1451 C 139.389 1.70902 -0.326902 0
M  V30 1452 O 140.565 1.93105 -0.572043 0
M  V30 1453 C 137.63 3.21451 -1.29884 0
M  V30 1454 C 136.691 3.48398 -2.50833 0
M  V30 1455 C 135.924 4.77749 -2.3789 0
M  V30 1456 O 136.147 5.53089 -1.39459 0
M  V30 1457 O 135.081 5.05111 -3.27333 0
M  V30 1458 H 138.907 1.86155 -2.39958 0
M  V30 1459 H 136.492 0.86295 -1.21957 0
M  V30 1460 H 138.374 4.02579 -1.24531 0
M  V30 1461 H 137.049 3.21636 -0.364997 0
M  V30 1462 H 135.956 2.67265 -2.61763 0
M  V30 1463 H 137.289 3.53014 -3.4299 0
M  V30 1464 N 138.941 1.26152 0.944643 0
M  V30 1465 C 139.851 1.09176 2.07648 0
M  V30 1466 C 140.867 0.0261935 1.7398 0
M  V30 1467 O 142.043 0.229208 2.00091 0
M  V30 1468 C 139.108 0.722915 3.39079 0
M  V30 1469 C 138.169 1.86752 3.86552 0
M  V30 1470 C 137.402 1.51617 5.11711 0
M  V30 1471 O 137.625 0.416331 5.68879 0
M  V30 1472 O 136.559 2.34975 5.54139 0
M  V30 1473 H 140.385 2.0412 2.24875 0
M  V30 1474 H 137.97 1.05182 1.061 0
M  V30 1475 H 139.852 0.529787 4.18056 0
M  V30 1476 H 138.527 -0.197159 3.23099 0
M  V30 1477 H 137.434 2.11558 3.08535 0
M  V30 1478 H 138.767 2.76719 4.07047 0
M  V30 1479 N 140.419 -1.14872 1.07899 0
M  V30 1480 C 141.351 -2.19425 0.662231 0
M  V30 1481 C 142.364 -1.60231 -0.288079 0
M  V30 1482 O 143.553 -1.78336 -0.076534 0
M  V30 1483 C 140.653 -3.38867 -0.0470695 0
M  V30 1484 C 139.826 -4.27597 0.920831 0
M  V30 1485 C 138.885 -5.25616 0.247805 0
M  V30 1486 O 137.911 -5.62189 0.890599 0
M  V30 1487 N 139.113 -5.71746 -1.00435 0
M  V30 1488 H 141.878 -2.55797 1.56166 0
M  V30 1489 H 139.439 -1.30042 0.964404 0
M  V30 1490 H 141.431 -4.01497 -0.50813 0
M  V30 1491 H 140.001 -3.00864 -0.848523 0
M  V30 1492 H 139.221 -3.61982 1.56087 0
M  V30 1493 H 140.509 -4.83748 1.57688 0
M  V30 1494 H 139.907 -5.44153 -1.54642 0
M  V30 1495 H 138.464 -6.36389 -1.40899 0
M  V30 1496 N 141.898 -0.863906 -1.31812 0
M  V30 1497 C 142.828 -0.330843 -2.31144 0
M  V30 1498 C 143.809 0.575005 -1.60087 0
M  V30 1499 O 144.994 0.493304 -1.8783 0
M  V30 1500 C 142.124 0.47374 -3.44054 0
M  V30 1501 C 141.078 -0.338481 -4.26659 0
M  V30 1502 C 140.404 0.591412 -5.31419 0
M  V30 1503 C 141.704 -1.56926 -4.98168 0
M  V30 1504 H 143.398 -1.16086 -2.75979 0
M  V30 1505 H 140.944 -0.559657 -1.32679 0
M  V30 1506 H 142.897 0.857143 -4.12591 0
M  V30 1507 H 141.621 1.33721 -2.9797 0
M  V30 1508 H 140.28 -0.703754 -3.59782 0
M  V30 1509 H 139.928 1.45199 -4.81587 0
M  V30 1510 H 139.628 0.0519022 -5.87577 0
M  V30 1511 H 141.152 0.97179 -6.02817 0
M  V30 1512 H 142.566 -1.25764 -5.59336 0
M  V30 1513 H 140.963 -2.04739 -5.64094 0
M  V30 1514 H 142.033 -2.32544 -4.25501 0
M  V30 1515 N 143.376 1.44774 -0.622745 0
M  V30 1516 C 144.339 2.29069 0.0774015 0
M  V30 1517 C 145.339 1.4059 0.780461 0
M  V30 1518 O 146.529 1.62551 0.626322 0
M  V30 1519 C 143.661 3.21974 1.12006 0
M  V30 1520 H 144.854 2.92459 -0.663901 0
M  V30 1521 H 142.407 1.51548 -0.382486 0
M  V30 1522 H 143.142 2.63417 1.89162 0
M  V30 1523 H 142.927 3.87168 0.619951 0
M  V30 1524 H 144.417 3.85318 1.60995 0
M  V30 1525 N 144.854 0.36279 1.53368 0
M  V30 1526 C 146.079 -0.231226 2.06107 0
M  V30 1527 C 146.504 -1.419 1.23474 0
M  V30 1528 O 145.862 -1.79524 0.253128 0
M  V30 1529 C 145.91 -0.605523 3.5548 0
M  V30 1530 O 145.014 -1.70312 3.7559 0
M  V30 1531 H 144.355 -0.034327 0.663112 0
M  V30 1532 H 146.885 0.522584 1.97814 0
M  V30 1533 H 146.895 -0.877314 3.98456 0
M  V30 1534 H 145.57 0.263004 4.15068 0
M  V30 1535 H 144.147 -1.4271 3.44512 0
M  V30 1536 N 146.332 -1.57332 0.0918853 0
M  V30 1537 C 147.295 -2.12708 -0.85369 0
M  V30 1538 C 148.295 -1.05561 -1.213 0
M  V30 1539 O 149.485 -1.31461 -1.14296 0
M  V30 1540 C 146.617 -2.64503 -2.15061 0
M  V30 1541 H 147.81 -2.97573 -0.3729 0
M  V30 1542 H 145.363 -1.55509 -0.157072 0
M  V30 1543 H 146.098 -1.83149 -2.67632 0
M  V30 1544 H 145.883 -3.4284 -1.90272 0
M  V30 1545 H 147.373 -3.07351 -2.82711 0
M  V30 1546 N 147.81 0.181792 -1.56548 0
M  V30 1547 C 148.743 1.25366 -1.90679 0
M  V30 1548 C 149.721 1.43299 -0.768376 0
M  V30 1549 O 150.905 1.58475 -1.02068 0
M  V30 1550 C 148.032 2.61826 -2.1486 0
M  V30 1551 C 147.078 2.60688 -3.37556 0
M  V30 1552 S 147.911 2.10804 -4.92262 0
M  V30 1553 C 149.067 3.49062 -5.19525 0
M  V30 1554 H 149.3 0.962277 -2.81296 0
M  V30 1555 H 146.833 0.385892 -1.495 0
M  V30 1556 H 148.791 3.40371 -2.29473 0
M  V30 1557 H 147.452 2.88169 -1.24969 0
M  V30 1558 H 146.645 3.61058 -3.51643 0
M  V30 1559 H 146.247 1.90232 -3.22006 0
M  V30 1560 H 148.539 4.45003 -5.10861 0
M  V30 1561 H 149.482 3.39859 -6.2121 0
M  V30 1562 H 149.89 3.4459 -4.47122 0
M  V30 1563 N 149.288 1.51039 0.449983 0
M  V30 1564 C 150.198 1.74261 1.57067 0
M  V30 1565 C 151.214 0.626363 1.62335 0
M  V30 1566 O 152.39 0.907162 1.79812 0
M  V30 1567 C 149.455 1.85114 2.93144 0
M  V30 1568 C 148.516 3.0893 2.98095 0
M  V30 1569 C 147.749 3.19256 4.27681 0
M  V30 1570 O 147.972 2.35835 5.19363 0
M  V30 1571 O 146.906 4.12144 4.38658 0
M  V30 1572 H 150.732 2.69303 1.40391 0
M  V30 1573 H 148.317 1.35389 0.631688 0
M  V30 1574 H 150.199 1.94311 3.73926 0
M  V30 1575 H 148.874 0.932588 3.09975 0
M  V30 1576 H 147.781 3.0522 2.16314 0
M  V30 1577 H 149.114 4.00433 2.86206 0
M  V30 1578 N 150.766 -0.704594 1.40972 0
M  V30 1579 C 151.696 -1.83124 1.44872 0
M  V30 1580 C 152.677 -1.67281 0.30838 0
M  V30 1581 O 153.862 -1.87149 0.518556 0
M  V30 1582 C 150.992 -3.21181 1.32136 0
M  V30 1583 C 149.946 -3.51714 2.43888 0
M  V30 1584 C 149.272 -4.89032 2.16222 0
M  V30 1585 C 150.572 -3.516 3.86232 0
M  V30 1586 H 152.266 -1.80117 2.39161 0
M  V30 1587 H 149.812 -0.865145 1.15114 0
M  V30 1588 H 151.765 -3.99702 1.33479 0
M  V30 1589 H 150.489 -3.24791 0.343279 0
M  V30 1590 H 149.148 -2.75539 2.41813 0
M  V30 1591 H 148.796 -4.89256 1.16778 0
M  V30 1592 H 148.496 -5.10426 2.911 0
M  V30 1593 H 150.02 -5.69873 2.19265 0
M  V30 1594 H 151.434 -4.2014 3.9007 0
M  V30 1595 H 149.831 -3.84523 4.60719 0
M  V30 1596 H 150.901 -2.50757 4.15029 0
M  V30 1597 N 152.244 -1.26651 -0.937939 0
M  V30 1598 C 153.655 -1.1125 -1.49934 0
M  V30 1599 C 154.006 0.306077 -1.93798 0
M  V30 1600 O 153.131 1.19792 -1.80219 0
M  V30 1601 C 153.726 -2.01339 -2.72485 0
M  V30 1602 C 152.285 -1.90074 -3.24883 0
M  V30 1603 C 151.432 -1.94498 -1.97651 0
M  V30 1604 H 154.383 -1.39693 -0.753091 0
M  V30 1605 H 154.404 -1.56319 -3.46907 0
M  V30 1606 H 153.916 -3.04577 -2.40529 0
M  V30 1607 H 152.017 -0.897827 -3.61621 0
M  V30 1608 H 152.13 -2.75778 -3.9177 0
M  V30 1609 H 150.494 -1.38591 -2.13693 0
M  V30 1610 H 151.277 -2.99372 -1.68022 0
M  V30 1611 N 153.722 1.14298 -1.08507 0
M  V30 1612 C 154.962 1.87016 -0.824894 0
M  V30 1613 C 155.326 1.81099 0.637735 0
M  V30 1614 O 156.527 2.48963 1.01345 0
M  V30 1615 C 154.798 3.31584 -1.33368 0
M  V30 1616 S 156.357 4.21903 -1.20596 0
M  V30 1617 H 153.175 0.645259 -0.2986 0
M  V30 1618 H 155.777 1.37822 -1.38656 0
M  V30 1619 H 154.481 3.33439 -2.39262 0
M  V30 1620 H 154.012 3.85836 -0.767734 0
M  V30 1621 H 156.027 4.95971 -0.150891 0
M  V30 1622 N 155.201 0.870884 1.31352 0
M  V30 1623 C 156.449 0.48132 1.96285 0
M  V30 1624 C 156.77 -0.969813 1.69173 0
M  V30 1625 O 156.04 -1.67998 1.00764 0
M  V30 1626 H 154.62 0.175002 0.726212 0
M  V30 1627 H 157.282 1.11087 1.60143 0
M  V30 1628 H 156.378 0.639825 3.05471 0
M  V30 1629 N 156.679 -1.44442 0.630414 0
M  V30 1630 C 157.609 -2.33418 -0.0618083 0
M  V30 1631 C 158.59 -1.48165 -0.835541 0
M  V30 1632 O 159.775 -1.76886 -0.801564 0
M  V30 1633 C 156.905 -3.31222 -1.04449 0
M  V30 1634 C 155.859 -4.26288 -0.382436 0
M  V30 1635 C 155.185 -5.13954 -1.47497 0
M  V30 1636 C 156.485 -5.1744 0.710865 0
M  V30 1637 H 158.179 -2.91548 0.681184 0
M  V30 1638 H 155.725 -1.40191 0.329026 0
M  V30 1639 H 157.678 -3.92351 -1.53748 0
M  V30 1640 H 156.402 -2.71299 -1.81836 0
M  V30 1641 H 155.061 -3.6649 0.0899054 0
M  V30 1642 H 154.709 -4.50385 -2.2397 0
M  V30 1643 H 154.409 -5.7837 -1.03737 0
M  V30 1644 H 155.933 -5.77955 -1.96979 0
M  V30 1645 H 157.347 -5.72509 0.300996 0
M  V30 1646 H 155.744 -5.90455 1.07156 0
M  V30 1647 H 156.814 -4.58496 1.57829 0
M  V30 1648 N 158.157 -0.370918 -1.53173 0
M  V30 1649 C 159.385 0.217704 -2.05751 0
M  V30 1650 C 159.8 1.42018 -1.24404 0
M  V30 1651 O 159.157 1.80245 -0.286033 0
M  V30 1652 C 159.208 0.605954 -3.56385 0
M  V30 1653 O 158.929 -0.548734 -4.3465 0
M  V30 1654 C 160.43 1.2524 -4.25241 0
M  V30 1655 H 157.65 0.0371659 -0.66997 0
M  V30 1656 H 160.194 -0.530832 -1.9749 0
M  V30 1657 H 158.349 1.3044 -3.6478 0
M  V30 1658 H 158.763 -0.23376 -5.23979 0
M  V30 1659 H 160.237 1.47458 -5.3194 0
M  V30 1660 H 160.714 2.2143 -3.79296 0
M  V30 1661 H 161.32 0.595233 -4.21114 0
M  V30 1662 N 159.635 1.57281 -0.100228 0
M  V30 1663 C 160.583 2.15542 0.874328 0
M  V30 1664 C 161.577 1.09962 1.28859 0
M  V30 1665 O 162.783 1.28298 1.26252 0
M  V30 1666 H 159.158 0.689567 0.300003 0
M  V30 1667 H 161.129 2.96241 0.35829 0
M  V30 1668 C 159.878 2.75454 2.1218 0
M  V30 1669 H 159.201 3.56384 1.81193 0
M  V30 1670 H 160.641 3.19781 2.78417 0
M  V30 1671 C 159.1 1.71602 2.89921 0
M  V30 1672 O 159.63 1.15804 3.84646 0
M  V30 1673 N 157.836 1.41975 2.53558 0
M  V30 1674 H 157.383 1.87539 1.76598 0
M  V30 1675 H 157.341 0.727274 3.05873 0
M  V30 1676 N 161.113 -0.173488 1.56642 0
M  V30 1677 C 162.043 -1.2171 1.99271 0
M  V30 1678 C 163.024 -1.46289 0.867959 0
M  V30 1679 O 164.209 -1.5766 1.13388 0
M  V30 1680 C 161.339 -2.55651 2.35074 0
M  V30 1681 C 160.293 -2.45645 3.50489 0
M  V30 1682 C 159.619 -3.84056 3.72028 0
M  V30 1683 C 160.919 -1.96302 4.84007 0
M  V30 1684 H 162.613 -0.86275 2.867 0
M  V30 1685 H 160.159 -0.413571 1.37933 0
M  V30 1686 H 162.112 -3.2886 2.63494 0
M  V30 1687 H 160.836 -2.92869 1.44552 0
M  V30 1688 H 159.495 -1.7489 3.22194 0
M  V30 1689 H 159.143 -4.18664 2.788 0
M  V30 1690 H 158.843 -3.7823 4.49684 0
M  V30 1691 H 160.367 -4.58854 4.02846 0
M  V30 1692 H 161.781 -2.59284 5.11317 0
M  V30 1693 H 160.178 -2.01429 5.65284 0
M  V30 1694 H 161.248 -0.917226 4.76146 0
M  V30 1695 N 162.591 -1.51276 -0.441967 0
M  V30 1696 C 163.839 -1.63392 -1.18943 0
M  V30 1697 C 164.16 -0.350159 -1.9183 0
M  V30 1698 O 163.43 0.633784 -1.85364 0
M  V30 1699 H 162.01 -0.602164 -0.442049 0
M  V30 1700 H 164.672 -1.88186 -0.507165 0
M  V30 1701 H 163.768 -2.45934 -1.92154 0
M  V30 1702 N 164.069 0.697108 -1.41344 0
M  V30 1703 C 165.017 1.83237 -1.43272 0
M  V30 1704 C 166.011 1.66522 -0.310947 0
M  V30 1705 O 167.217 1.73402 -0.482899 0
M  V30 1706 H 163.592 0.603802 -0.448249 0
M  V30 1707 H 165.563 1.78727 -2.38954 0
M  V30 1708 C 164.312 3.21245 -1.33029 0
M  V30 1709 H 163.635 3.34723 -2.18633 0
M  V30 1710 H 165.075 4.00763 -1.38439 0
M  V30 1711 C 163.534 3.36873 -0.0424635 0
M  V30 1712 O 164.064 3.91177 0.913421 0
M  V30 1713 N 162.27 2.90581 0.0331145 0
M  V30 1714 H 161.817 2.46577 -0.745506 0
M  V30 1715 H 161.775 3.01416 0.894199 0
M  V30 1716 N 165.547 1.27147 0.931209 0
M  V30 1717 C 166.775 1.16082 1.71267 0
M  V30 1718 C 167.19 -0.282772 1.8667 0
M  V30 1719 O 166.547 -1.19283 1.38122 0
M  V30 1720 C 166.598 1.8358 3.11417 0
M  V30 1721 O 166.319 3.22299 2.96741 0
M  V30 1722 C 167.82 1.78597 4.05732 0
M  V30 1723 H 165.04 0.403758 0.535929 0
M  V30 1724 H 167.584 1.67953 1.16671 0
M  V30 1725 H 165.739 1.35623 3.62885 0
M  V30 1726 H 166.153 3.55851 3.85319 0
M  V30 1727 H 167.627 2.30444 5.01597 0
M  V30 1728 H 168.104 0.754564 4.3267 0
M  V30 1729 H 168.71 2.26152 3.60188 0
M  V30 1730 N 167.025 -1.13721 1.09112 0
M  V30 1731 C 168.265 -1.86576 0.834801 0
M  V30 1732 C 168.629 -1.81435 -0.628122 0
M  V30 1733 O 169.83 -2.49497 -1.00024 0
M  V30 1734 C 168.101 -3.30872 1.35124 0
M  V30 1735 S 169.66 -4.21257 1.22832 0
M  V30 1736 H 166.478 -0.643666 0.302017 0
M  V30 1737 H 169.08 -1.37085 1.39385 0
M  V30 1738 H 167.784 -3.32166 2.41027 0
M  V30 1739 H 167.315 -3.85423 0.788185 0
M  V30 1740 H 169.33 -4.95884 0.177191 0
M  V30 1741 N 168.503 -0.877838 -1.30888 0
M  V30 1742 C 169.733 -0.506678 -2.00291 0
M  V30 1743 C 170.141 0.907449 -1.66018 0
M  V30 1744 O 169.484 1.60719 -0.88967 0
M  V30 1745 C 169.546 -0.59323 -3.54572 0
M  V30 1746 C 169.21 -1.97038 -4.12341 0
M  V30 1747 C 170.207 -2.93889 -4.28865 0
M  V30 1748 C 167.892 -2.27383 -4.47886 0
M  V30 1749 C 169.886 -4.19224 -4.80136 0
M  V30 1750 C 167.573 -3.52965 -4.98857 0
M  V30 1751 C 168.571 -4.48701 -5.14934 0
M  V30 1752 O 168.259 -5.72056 -5.64808 0
M  V30 1753 H 167.991 -0.1951 -0.647234 0
M  V30 1754 H 170.545 -1.18301 -1.6791 0
M  V30 1755 H 168.775 0.140057 -3.86446 0
M  V30 1756 H 170.464 -0.234372 -4.05223 0
M  V30 1757 H 171.23 -2.71756 -4.01714 0
M  V30 1758 H 167.109 -1.53639 -4.34645 0
M  V30 1759 H 170.653 -4.93956 -4.92599 0
M  V30 1760 H 166.55 -3.74939 -5.25443 0
M  V30 1761 H 167.318 -5.74337 -5.83163 0
M  V30 1762 N 169.982 1.44106 -0.638065 0
M  V30 1763 C 170.915 2.27924 0.112161 0
M  V30 1764 C 171.893 1.38945 0.844574 0
M  V30 1765 O 173.077 1.68386 0.847248 0
M  V30 1766 C 170.204 3.18029 1.16512 0
M  V30 1767 C 169.25 4.23163 0.532458 0
M  V30 1768 S 170.083 5.31131 -0.682666 0
M  V30 1769 C 171.239 6.24805 0.37013 0
M  V30 1770 H 171.472 2.91205 -0.598887 0
M  V30 1771 H 169.005 1.48394 -0.426441 0
M  V30 1772 H 170.963 3.70492 1.76766 0
M  V30 1773 H 169.624 2.53955 1.8484 0
M  V30 1774 H 168.817 4.86252 1.32571 0
M  V30 1775 H 168.419 3.74 0.00437644 0
M  V30 1776 H 170.711 6.66042 1.24071 0
M  V30 1777 H 171.654 7.07741 -0.225349 0
M  V30 1778 H 172.062 5.60154 0.699141 0
M  V30 1779 N 171.46 0.379036 1.52974 0
M  V30 1780 C 172.408 -0.476033 2.27677 0
M  V30 1781 C 173.402 -1.0719 1.31174 0
M  V30 1782 O 174.608 -1.01355 1.48752 0
M  V30 1783 H 170.983 -0.172255 0.732006 0
M  V30 1784 H 172.954 0.175615 2.97883 0
M  V30 1785 C 171.703 -1.5967 3.0887 0
M  V30 1786 H 171.026 -1.1475 3.82978 0
M  V30 1787 H 172.466 -2.16943 3.64296 0
M  V30 1788 C 170.925 -2.54682 2.20542 0
M  V30 1789 O 171.455 -3.57836 1.82527 0
M  V30 1790 N 169.661 -2.24183 1.84907 0
M  V30 1791 H 169.208 -1.40333 2.1602 0
M  V30 1792 H 169.166 -2.88006 1.26096 0
M  V30 1793 N 172.938 -1.57226 0.108567 0
M  V30 1794 C 173.901 -2.13602 -0.831082 0
M  V30 1795 C 174.901 -1.06841 -1.20173 0
M  V30 1796 O 176.091 -1.32666 -1.12895 0
M  V30 1797 C 173.223 -2.66769 -2.12243 0
M  V30 1798 H 174.416 -2.97951 -0.341317 0
M  V30 1799 H 171.969 -1.55667 -0.14057 0
M  V30 1800 H 172.704 -1.85977 -2.65675 0
M  V30 1801 H 172.489 -3.44839 -1.86625 0
M  V30 1802 H 173.979 -3.10332 -2.79435 0
M  V30 1803 N 174.416 0.165178 -1.56732 0
M  V30 1804 C 175.644 0.896218 -1.86482 0
M  V30 1805 C 176.059 1.75555 -0.694675 0
M  V30 1806 O 175.416 1.79379 0.33607 0
M  V30 1807 C 175.467 1.76792 -3.1532 0
M  V30 1808 O 175.188 0.943239 -4.27825 0
M  V30 1809 C 176.689 2.6081 -3.58459 0
M  V30 1810 H 173.909 0.260064 -0.618553 0
M  V30 1811 H 176.453 0.163428 -2.03846 0
M  V30 1812 H 174.608 2.45398 -2.99764 0
M  V30 1813 H 175.022 1.53998 -5.01383 0
M  V30 1814 H 176.496 3.17579 -4.51495 0
M  V30 1815 H 176.973 3.35977 -2.82872 0
M  V30 1816 H 177.579 1.97526 -3.76648 0
M  V30 1817 N 175.894 1.51508 0.433938 0
M  V30 1818 C 177.14 1.64588 1.18484 0
M  V30 1819 C 177.473 0.362666 1.90784 0
M  V30 1820 O 176.748 -0.637892 1.83742 0
M  V30 1821 C 177.031 2.85149 2.19913 0
M  V30 1822 C 176.884 4.23456 1.51674 0
M  V30 1823 C 178.203 3.01227 3.20858 0
M  V30 1824 H 175.322 0.598994 0.429389 0
M  V30 1825 H 177.964 1.84002 0.473647 0
M  V30 1826 H 176.114 2.68729 2.80566 0
M  V30 1827 H 177.786 4.51552 0.943322 0
M  V30 1828 H 176.029 4.25998 0.819035 0
M  V30 1829 H 176.7 5.03812 2.2556 0
M  V30 1830 H 179.176 3.16382 2.70263 0
M  V30 1831 H 178.052 3.87141 3.89118 0
M  V30 1832 H 178.313 2.13447 3.8716 0
M  V30 1833 N 177.372 -0.689602 1.41712 0
M  V30 1834 C 178.304 -1.815 1.39966 0
M  V30 1835 C 179.317 -1.59995 0.300917 0
M  V30 1836 O 180.506 -1.69387 0.563039 0
M  V30 1837 C 177.606 -3.18364 1.16179 0
M  V30 1838 C 176.779 -3.66847 2.38206 0
M  V30 1839 C 175.838 -4.82398 2.10186 0
M  V30 1840 O 174.864 -4.93706 2.83272 0
M  V30 1841 N 176.066 -5.70064 1.0958 0
M  V30 1842 H 178.831 -1.83488 2.36965 0
M  V30 1843 H 176.392 -0.872149 1.36401 0
M  V30 1844 H 178.384 -3.93301 0.953756 0
M  V30 1845 H 176.954 -3.11365 0.27756 0
M  V30 1846 H 176.174 -2.82751 2.74673 0
M  V30 1847 H 177.462 -3.95978 3.19498 0
M  V30 1848 H 176.86 -5.63565 0.491019 0
M  V30 1849 H 175.417 -6.44874 0.947656 0
M  V30 1850 N 178.85 -1.27639 -0.924453 0
M  V30 1851 C 180.09 -1.15407 -1.68703 0
M  V30 1852 C 180.454 0.294581 -1.89727 0
M  V30 1853 O 181.655 0.539385 -2.63333 0
M  V30 1854 C 179.926 -1.9195 -3.0148 0
M  V30 1855 S 181.485 -1.95969 -3.92609 0
M  V30 1856 H 178.303 -0.411937 -0.579507 0
M  V30 1857 H 180.905 -1.61592 -1.10038 0
M  V30 1858 H 179.609 -2.96387 -2.83871 0
M  V30 1859 H 179.14 -1.46272 -3.65196 0
M  V30 1860 H 181.155 -1.05846 -4.84779 0
M  V30 1861 N 180.328 1.1314 -1.09713 0
M  V30 1862 C 181.577 1.83838 -0.829851 0
M  V30 1863 C 181.89 1.84599 0.646728 0
M  V30 1864 O 183.096 2.51218 1.02965 0
M  V30 1865 C 181.552 3.30069 -1.43466 0
M  V30 1866 C 181.16 3.37688 -2.94399 0
M  V30 1867 C 182.904 4.05788 -1.24645 0
M  V30 1868 C 180.811 4.78209 -3.47952 0
M  V30 1869 H 179.741 0.68877 -0.306777 0
M  V30 1870 H 182.392 1.27448 -1.3202 0
M  V30 1871 H 180.774 3.8628 -0.871996 0
M  V30 1872 H 181.948 2.91456 -3.56918 0
M  V30 1873 H 180.263 2.75436 -3.12289 0
M  V30 1874 H 182.86 5.09535 -1.62107 0
M  V30 1875 H 183.203 4.15878 -0.187357 0
M  V30 1876 H 183.736 3.55915 -1.77678 0
M  V30 1877 H 180.475 4.73311 -4.53495 0
M  V30 1878 H 179.995 5.24924 -2.90198 0
M  V30 1879 H 181.674 5.47133 -3.45332 0
M  V30 1880 N 181.806 0.884767 1.30421 0
M  V30 1881 C 183.222 0.57874 1.48737 0
M  V30 1882 C 183.422 -0.883567 1.81095 0
M  V30 1883 O 182.478 -1.6648 1.89844 0
M  V30 1884 C 183.791 1.49171 2.61091 0
M  V30 1885 C 185.339 1.49532 2.74971 0
M  V30 1886 C 185.814 2.39421 3.90438 0
M  V30 1887 N 187.305 2.37383 3.97748 0
M  V30 1888 C 188.04 3.03647 4.86401 0
M  V30 1889 N 187.536 3.79136 5.79852 0
M  V30 1890 N 189.329 2.9288 4.79768 0
M  V30 1891 H 181.48 1.83075 1.0769 0
M  V30 1892 H 183.743 0.783637 0.533495 0
M  V30 1893 H 183.449 2.53291 2.44001 0
M  V30 1894 H 183.323 1.20113 3.57565 0
M  V30 1895 H 185.71 0.46163 2.91467 0
M  V30 1896 H 185.791 1.8262 1.79119 0
M  V30 1897 H 185.435 3.42874 3.74699 0
M  V30 1898 H 185.365 2.03649 4.85628 0
M  V30 1899 H 187.856 1.82525 3.30897 0
M  V30 1900 H 188.169 4.26789 6.4426 0
M  V30 1901 H 186.514 3.83243 5.79784 0
M  V30 1902 H 189.705 2.33433 4.05742 0
M  V30 1903 H 189.878 3.448 5.4865 0
M  V30 1904 N 183.284 -1.43765 0.645699 0
M  V30 1905 C 184.509 -2.06767 0.161883 0
M  V30 1906 C 184.934 -1.48034 -1.16049 0
M  V30 1907 O 184.292 -0.587369 -1.71522 0
M  V30 1908 C 184.34 -3.60519 0.0762003 0
M  V30 1909 O 183.444 -4.00982 -0.963721 0
M  V30 1910 H 182.785 -0.657675 0.091429 0
M  V30 1911 H 185.315 -1.84397 0.886499 0
M  V30 1912 H 185.325 -4.07853 -0.109604 0
M  V30 1913 H 184 -4.02646 1.04157 0
M  V30 1914 H 182.577 -3.65253 -0.751312 0
M  V30 1915 N 184.763 -0.387143 -1.52771 0
M  V30 1916 C 186.009 0.196025 -2.0185 0
M  V30 1917 C 186.342 1.46641 -1.27319 0
M  V30 1918 O 185.617 1.90889 -0.373032 0
M  V30 1919 C 185.9 0.466136 -3.5707 0
M  V30 1920 C 185.753 -0.819385 -4.42274 0
M  V30 1921 C 187.072 1.25768 -4.21747 0
M  V30 1922 H 184.191 0.0697708 -0.73369 0
M  V30 1923 H 186.833 -0.516286 -1.82851 0
M  V30 1924 H 184.983 1.07293 -3.7339 0
M  V30 1925 H 186.655 -1.4563 -4.37709 0
M  V30 1926 H 184.898 -1.43517 -4.09372 0
M  V30 1927 H 185.569 -0.585065 -5.48891 0
M  V30 1928 H 188.045 0.744167 -4.09391 0
M  V30 1929 H 186.921 1.41541 -5.30337 0
M  V30 1930 H 187.182 2.27228 -3.79236 0
M  V30 1931 N 186.241 1.57166 -0.116904 0
M  V30 1932 C 187.652 1.82169 0.408809 0
M  V30 1933 C 188.003 1.03393 1.66746 0
M  V30 1934 O 187.128 0.269886 2.1471 0
M  V30 1935 C 187.723 3.30429 0.748466 0
M  V30 1936 C 186.282 3.5612 1.21882 0
M  V30 1937 C 185.429 2.76374 0.226452 0
M  V30 1938 H 188.38 1.5497 -0.342063 0
M  V30 1939 H 188.401 3.44943 1.60607 0
M  V30 1940 H 187.913 3.87737 -0.167784 0
M  V30 1941 H 186.014 3.04168 2.15204 0
M  V30 1942 H 186.127 4.64705 1.16559 0
M  V30 1943 H 184.491 2.44515 0.713063 0
M  V30 1944 H 185.274 3.3644 -0.682859 0
M  V30 1945 N 187.719 -0.156864 1.56817 0
M  V30 1946 C 188.629 -1.2136 2.00771 0
M  V30 1947 C 189.645 -1.47598 0.921459 0
M  V30 1948 O 190.821 -1.59462 1.2302 0
M  V30 1949 C 187.886 -2.52943 2.37109 0
M  V30 1950 C 186.947 -2.34439 3.59634 0
M  V30 1951 C 186.18 -3.59748 3.94229 0
M  V30 1952 O 186.403 -4.65526 3.29609 0
M  V30 1953 O 185.337 -3.52998 4.8752 0
M  V30 1954 H 189.163 -0.870468 2.90958 0
M  V30 1955 H 186.748 -0.36484 1.44877 0
M  V30 1956 H 188.63 -3.30538 2.61386 0
M  V30 1957 H 187.305 -2.86806 1.5008 0
M  V30 1958 H 186.212 -1.54828 3.40557 0
M  V30 1959 H 187.545 -2.05496 4.4725 0
M  V30 1960 N 189.197 -1.51736 -0.425897 0
M  V30 1961 C 190.127 -1.76827 -1.52494 0
M  V30 1962 C 191.108 -0.618524 -1.58456 0
M  V30 1963 O 192.293 -0.862416 -1.74 0
M  V30 1964 C 189.423 -1.90374 -2.90474 0
M  V30 1965 C 188.377 -3.0588 -2.99369 0
M  V30 1966 C 187.703 -3.04625 -4.3944 0
M  V30 1967 C 189.003 -4.45644 -2.72394 0
M  V30 1968 H 190.697 -2.68855 -1.31748 0
M  V30 1969 H 188.243 -1.29372 -0.632362 0
M  V30 1970 H 190.196 -2.0651 -3.6733 0
M  V30 1971 H 188.92 -0.95004 -3.12477 0
M  V30 1972 H 187.579 -2.89467 -2.24954 0
M  V30 1973 H 187.227 -2.0701 -4.58428 0
M  V30 1974 H 186.927 -3.82195 -4.46319 0
M  V30 1975 H 188.451 -3.22869 -5.18255 0
M  V30 1976 H 189.865 -4.62348 -3.38979 0
M  V30 1977 H 188.262 -5.25006 -2.9067 0
M  V30 1978 H 189.332 -4.54893 -1.67929 0
M  V30 1979 N 190.675 0.682077 -1.42076 0
M  V30 1980 C 191.622 1.79578 -1.44984 0
M  V30 1981 C 192.592 1.6332 -0.302614 0
M  V30 1982 O 193.777 1.83978 -0.505633 0
M  V30 1983 C 190.917 3.1756 -1.35091 0
M  V30 1984 C 190.03 3.45156 -2.59791 0
M  V30 1985 C 189.165 4.72826 -2.42093 0
M  V30 1986 C 188.204 4.93433 -3.62202 0
M  V30 1987 N 187.341 6.12338 -3.43491 0
M  V30 1988 H 192.181 1.76427 -2.40161 0
M  V30 1989 H 189.718 0.861376 -1.19242 0
M  V30 1990 H 191.676 3.97287 -1.27354 0
M  V30 1991 H 190.306 3.19854 -0.435133 0
M  V30 1992 H 189.358 2.59736 -2.77923 0
M  V30 1993 H 190.67 3.5628 -3.49094 0
M  V30 1994 H 189.824 5.60631 -2.319 0
M  V30 1995 H 188.563 4.63973 -1.50268 0
M  V30 1996 H 187.568 4.04073 -3.72834 0
M  V30 1997 H 188.793 5.04136 -4.54998 0
M  V30 1998 H 186.739 6.04672 -2.54377 0
M  V30 1999 H 186.656 6.2429 -4.26377 0
M  V30 2000 H 187.924 7.02841 -3.37097 0
M  V30 2001 N 192.153 1.28127 0.917671 0
M  V30 2002 C 193.43 1.05761 1.64542 0
M  V30 2003 C 193.81 -0.404344 2.07191 0
M  V30 2004 O 193.158 -1.38963 1.81388 0
M  V30 2005 C 193.368 2.02857 2.83989 0
M  V30 2006 C 194.716 2.32786 3.551 0
M  V30 2007 O 195.74 2.0091 2.94132 0
M  V30 2008 O 194.599 2.87169 4.64969 0
M  V30 2009 H 191.693 0.403916 0.721652 0
M  V30 2010 H 194.239 1.39431 0.967322 0
M  V30 2011 H 193.011 3.01407 2.49538 0
M  V30 2012 H 192.634 1.69809 3.59514 0
M  V30 2013 N 193.631 -1.12557 1.10312 0
M  V30 2014 C 194.594 -2.16434 0.75424 0
M  V30 2015 C 195.594 -1.59278 -0.220685 0
M  V30 2016 O 196.784 -1.742 0.00230591 0
M  V30 2017 C 193.916 -3.40699 0.116987 0
M  V30 2018 H 195.109 -2.48811 1.67431 0
M  V30 2019 H 192.662 -1.27542 0.903475 0
M  V30 2020 H 193.397 -3.13921 -0.813877 0
M  V30 2021 H 193.182 -3.83459 0.818613 0
M  V30 2022 H 194.672 -4.17451 -0.111387 0
M  V30 2023 N 195.109 -0.891671 -1.2995 0
M  V30 2024 C 196.039 -0.379797 -2.30391 0
M  V30 2025 C 197.02 0.540919 -1.6127 0
M  V30 2026 O 198.205 0.453352 -1.88834 0
M  V30 2027 C 195.335 0.400654 -3.44981 0
M  V30 2028 C 194.289 -0.428905 -4.25846 0
M  V30 2029 C 193.615 0.478557 -5.32554 0
M  V30 2030 C 194.915 -1.67458 -4.94727 0
M  V30 2031 H 196.609 -1.21914 -2.73454 0
M  V30 2032 H 194.155 -0.587675 -1.31462 0
M  V30 2033 H 196.108 0.769434 -4.14316 0
M  V30 2034 H 194.832 1.27371 -3.0074 0
M  V30 2035 H 193.491 -0.779911 -3.58208 0
M  V30 2036 H 193.139 1.34951 -4.84559 0
M  V30 2037 H 192.839 -0.0727433 -5.87555 0
M  V30 2038 H 194.363 0.843705 -6.04743 0
M  V30 2039 H 195.777 -1.376 -5.56542 0
M  V30 2040 H 194.174 -2.16659 -5.59624 0
M  V30 2041 H 195.244 -2.41518 -4.20473 0
M  V30 2042 N 196.587 1.43421 -0.653314 0
M  V30 2043 C 197.534 2.30768 0.0382271 0
M  V30 2044 C 198.504 1.44755 0.814576 0
M  V30 2045 O 199.689 1.73624 0.791162 0
M  V30 2046 C 196.829 3.30336 0.998599 0
M  V30 2047 C 195.942 4.31448 0.218342 0
M  V30 2048 C 195.077 5.18098 1.17252 0
M  V30 2049 C 194.116 6.10902 0.382702 0
M  V30 2050 N 193.253 6.90176 1.28848 0
M  V30 2051 H 198.093 2.89357 -0.712511 0
M  V30 2052 H 195.63 1.42548 -0.363128 0
M  V30 2053 H 197.588 3.86572 1.56901 0
M  V30 2054 H 196.218 2.73397 1.71621 0
M  V30 2055 H 195.27 3.77506 -0.46836 0
M  V30 2056 H 196.582 4.97227 -0.395812 0
M  V30 2057 H 195.736 5.7896 1.81356 0
M  V30 2058 H 194.475 4.52444 1.82058 0
M  V30 2059 H 193.48 5.49128 -0.27169 0
M  V30 2060 H 194.705 6.78598 -0.260957 0
M  V30 2061 H 192.651 6.27171 1.92334 0
M  V30 2062 H 192.568 7.52478 0.728887 0
M  V30 2063 H 193.836 7.55543 1.91766 0
M  V30 2064 N 198.065 0.39524 1.52563 0
M  V30 2065 C 199.481 0.0454682 1.59535 0
M  V30 2066 C 199.681 -1.44056 1.4089 0
M  V30 2067 O 198.737 -2.20579 1.22888 0
M  V30 2068 C 200.05 0.527963 2.96029 0
M  V30 2069 C 201.598 0.484733 3.09224 0
M  V30 2070 C 202.073 0.943512 4.48176 0
M  V30 2071 N 203.564 0.899765 4.54377 0
M  V30 2072 C 204.299 1.22609 5.60138 0
M  V30 2073 N 203.795 1.62319 6.73516 0
M  V30 2074 N 205.588 1.14696 5.50274 0
M  V30 2075 H 197.739 1.36261 1.62931 0
M  V30 2076 H 200.002 0.558887 0.765735 0
M  V30 2077 H 199.708 1.56607 3.14908 0
M  V30 2078 H 199.582 -0.0698056 3.77135 0
M  V30 2079 H 201.969 -0.544298 2.90037 0
M  V30 2080 H 202.05 1.11838 2.30056 0
M  V30 2081 H 201.694 1.9708 4.68104 0
M  V30 2082 H 201.624 0.286817 5.25818 0
M  V30 2083 H 204.115 0.607632 3.72983 0
M  V30 2084 H 204.428 1.85567 7.5019 0
M  V30 2085 H 202.773 1.66211 6.74833 0
M  V30 2086 H 205.964 0.835701 4.6058 0
M  V30 2087 H 206.137 1.40459 6.32594 0
M  V30 2088 N 199.544 -1.57102 0.125237 0
M  V30 2089 C 200.774 -1.99472 -0.538015 0
M  V30 2090 C 201.182 -1.00395 -1.60366 0
M  V30 2091 O 200.525 0.0103875 -1.83697 0
M  V30 2092 C 200.587 -3.38262 -1.21734 0
M  V30 2093 C 200.251 -4.56021 -0.298897 0
M  V30 2094 C 201.248 -5.17817 0.464943 0
M  V30 2095 C 198.933 -5.01869 -0.208149 0
M  V30 2096 C 200.927 -6.23852 1.3072 0
M  V30 2097 C 198.614 -6.07763 0.637736 0
M  V30 2098 C 199.612 -6.68622 1.39403 0
M  V30 2099 O 199.3 -7.7247 2.22586 0
M  V30 2100 H 199.032 -0.659934 -0.146501 0
M  V30 2101 H 201.586 -2.04321 0.210267 0
M  V30 2102 H 199.816 -3.30185 -2.01282 0
M  V30 2103 H 201.505 -3.6488 -1.77813 0
M  V30 2104 H 202.271 -4.83308 0.404741 0
M  V30 2105 H 198.15 -4.54241 -0.786522 0
M  V30 2106 H 201.694 -6.71284 1.898 0
M  V30 2107 H 197.591 -6.41701 0.699309 0
M  V30 2108 H 198.359 -7.89595 2.15596 0
M  V30 2109 N 201.022 0.148545 -1.56898 0
M  V30 2110 C 201.985 1.16736 -1.97244 0
M  V30 2111 C 202.985 1.35947 -0.858777 0
M  V30 2112 O 204.175 1.32966 -1.12542 0
M  V30 2113 C 201.307 2.52798 -2.28705 0
M  V30 2114 H 202.5 0.821279 -2.88435 0
M  V30 2115 H 200.053 0.391831 -1.51309 0
M  V30 2116 H 200.788 2.92381 -1.403 0
M  V30 2117 H 200.573 2.40216 -3.09901 0
M  V30 2118 H 202.063 3.26179 -2.60762 0
M  V30 2119 N 202.5 1.5196 0.417844 0
M  V30 2120 C 203.748 1.65263 1.16329 0
M  V30 2121 C 204.069 0.380634 1.91249 0
M  V30 2122 O 203.339 -0.604214 1.86349 0
M  V30 2123 H 201.919 0.60912 0.432414 0
M  V30 2124 H 204.581 1.88969 0.477162 0
M  V30 2125 H 203.677 2.4896 1.88217 0
M  V30 2126 N 203.978 -0.674533 1.42435 0
M  V30 2127 C 204.941 -1.76986 1.45632 0
M  V30 2128 C 205.941 -1.5708 0.343871 0
M  V30 2129 O 207.131 -1.63367 0.604709 0
M  V30 2130 C 204.263 -3.15623 1.28822 0
M  V30 2131 H 205.456 -1.75539 2.43158 0
M  V30 2132 H 203.009 -0.884189 1.28887 0
M  V30 2133 H 203.744 -3.22696 0.322193 0
M  V30 2134 H 203.529 -3.31475 2.09444 0
M  V30 2135 H 205.019 -3.95537 1.33942 0
M  V30 2136 N 205.456 -1.28612 -0.910864 0
M  V30 2137 C 206.386 -1.15326 -2.03032 0
M  V30 2138 C 207.367 -0.0502924 -1.70026 0
M  V30 2139 O 208.552 -0.227797 -1.92859 0
M  V30 2140 C 205.682 -0.817343 -3.37545 0
M  V30 2141 C 204.636 -1.8754 -3.84724 0
M  V30 2142 C 203.962 -1.39305 -5.16235 0
M  V30 2143 C 205.262 -3.28244 -4.06267 0
M  V30 2144 H 206.956 -2.08975 -2.14406 0
M  V30 2145 H 204.502 -1.00612 -1.03021 0
M  V30 2146 H 206.455 -0.711151 -4.15356 0
M  V30 2147 H 205.179 0.154846 -3.26233 0
M  V30 2148 H 203.838 -1.97079 -3.09121 0
M  V30 2149 H 203.486 -0.409846 -5.01328 0
M  V30 2150 H 203.186 -2.10057 -5.48771 0
M  V30 2151 H 204.71 -1.30014 -5.96598 0
M  V30 2152 H 206.124 -3.21611 -4.74594 0
M  V30 2153 H 204.521 -3.96855 -4.5014 0
M  V30 2154 H 205.591 -3.72048 -3.10979 0
M  V30 2155 N 206.934 1.1197 -1.10907 0
M  V30 2156 C 208.35 1.35591 -0.841852 0
M  V30 2157 C 208.55 1.94233 0.536246 0
M  V30 2158 O 207.606 2.1717 1.28816 0
M  V30 2159 C 208.919 2.29284 -1.94549 0
M  V30 2160 C 210.467 2.42862 -1.97451 0
M  V30 2161 C 210.942 3.39873 -3.07002 0
M  V30 2162 N 212.433 3.47433 -3.06341 0
M  V30 2163 C 213.168 4.22421 -3.87748 0
M  V30 2164 N 212.664 5.00432 -4.79103 0
M  V30 2165 N 214.457 4.17876 -3.75946 0
M  V30 2166 H 206.608 0.722664 -1.99728 0
M  V30 2167 H 208.871 0.380635 -0.868229 0
M  V30 2168 H 208.577 1.93378 -2.93765 0
M  V30 2169 H 208.451 3.29452 -1.83688 0
M  V30 2170 H 210.838 2.78046 -0.988645 0
M  V30 2171 H 210.919 1.42566 -2.12388 0
M  V30 2172 H 210.563 3.05417 -4.05811 0
M  V30 2173 H 210.493 4.40011 -2.89306 0
M  V30 2174 H 212.984 2.91784 -2.40147 0
M  V30 2175 H 213.297 5.55002 -5.37766 0
M  V30 2176 H 211.642 4.99612 -4.83128 0
M  V30 2177 H 214.833 3.56016 -3.03924 0
M  V30 2178 H 215.006 4.76061 -4.39624 0
M  V30 2179 N 208.412 0.89855 1.29475 0
M  V30 2180 C 209.375 0.380272 2.26023 0
M  V30 2181 C 210.375 -0.484891 1.53315 0
M  V30 2182 O 211.565 -0.290108 1.71767 0
M  V30 2183 C 208.697 -0.45651 3.3783 0
M  V30 2184 H 209.89 1.23295 2.73383 0
M  V30 2185 H 207.443 0.676589 1.40897 0
M  V30 2186 H 208.178 -1.32922 2.95808 0
M  V30 2187 H 207.963 0.163393 3.91759 0
M  V30 2188 H 209.453 -0.810466 4.0966 0
M  V30 2189 N 209.89 -1.43072 0.660911 0
M  V30 2190 C 211.115 -2.06584 0.183805 0
M  V30 2191 C 211.54 -1.49257 -1.14472 0
M  V30 2192 O 210.898 -0.605528 -1.70889 0
M  V30 2193 C 210.946 -3.60418 0.114434 0
M  V30 2194 O 210.05 -4.01981 -0.921137 0
M  V30 2195 H 209.391 -0.656669 0.0983994 0
M  V30 2196 H 211.921 -1.83447 0.906006 0
M  V30 2197 H 211.931 -4.07946 -0.0663394 0
M  V30 2198 H 210.606 -4.01519 1.08422 0
M  V30 2199 H 209.183 -3.66029 -0.71253 0
M  V30 2200 N 211.368 -0.403325 -1.52352 0
M  V30 2201 C 212.616 0.174003 -2.0135 0
M  V30 2202 C 212.937 1.46139 -1.29106 0
M  V30 2203 O 212.207 1.91448 -0.415253 0
M  V30 2204 H 210.787 0.0672911 -0.743963 0
M  V30 2205 H 213.449 -0.538235 -1.87321 0
M  V30 2206 H 212.545 0.374254 -3.09848 0
M  V30 2207 N 212.846 1.57033 -0.133567 0
M  V30 2208 C 213.756 2.19632 0.824564 0
M  V30 2209 C 214.772 1.17666 1.28182 0
M  V30 2210 O 215.948 1.50193 1.3418 0
M  V30 2211 C 213.013 2.79499 2.05137 0
M  V30 2212 C 212.074 3.96548 1.64464 0
M  V30 2213 C 211.307 4.5355 2.81297 0
M  V30 2214 O 211.53 4.09438 3.97136 0
M  V30 2215 O 210.464 5.44018 2.57542 0
M  V30 2216 H 214.29 3.01991 0.321766 0
M  V30 2217 H 211.875 1.49112 0.0927889 0
M  V30 2218 H 213.757 3.17602 2.7696 0
M  V30 2219 H 212.432 2.00162 2.54395 0
M  V30 2220 H 211.339 3.63186 0.897048 0
M  V30 2221 H 212.672 4.77364 1.19934 0
M  V30 2222 N 214.325 -0.140222 1.56975 0
M  V30 2223 C 215.258 -1.20266 1.93936 0
M  V30 2224 C 216.236 -1.41212 0.806099 0
M  V30 2225 O 217.42 -1.55713 1.06234 0
M  V30 2226 C 214.547 -2.56037 2.21726 0
M  V30 2227 C 213.593 -2.51646 3.44349 0
M  V30 2228 S 214.426 -1.97678 4.97678 0
M  V30 2229 C 215.582 -3.35165 5.28597 0
M  V30 2230 H 215.815 -0.887358 2.83749 0
M  V30 2231 H 213.348 -0.346119 1.50471 0
M  V30 2232 H 215.306 -3.34167 2.38416 0
M  V30 2233 H 213.967 -2.84755 1.32566 0
M  V30 2234 H 213.16 -3.51608 3.61092 0
M  V30 2235 H 212.762 -1.81628 3.26936 0
M  V30 2236 H 215.054 -4.31302 5.2248 0
M  V30 2237 H 215.997 -3.23269 6.30002 0
M  V30 2238 H 216.405 -3.32614 4.56101 0
M  V30 2239 N 215.803 -1.52179 -0.40978 0
M  V30 2240 C 216.766 -1.74853 -1.48186 0
M  V30 2241 C 217.766 -0.618417 -1.48433 0
M  V30 2242 O 218.956 -0.886286 -1.49969 0
M  V30 2243 C 216.088 -1.8303 -2.87598 0
M  V30 2244 H 217.281 -2.70559 -1.29374 0
M  V30 2245 H 214.834 -1.42586 -0.640233 0
M  V30 2246 H 215.569 -0.89236 -3.11781 0
M  V30 2247 H 215.354 -2.65187 -2.88822 0
M  V30 2248 H 216.844 -2.02316 -3.65319 0
M  V30 2249 N 217.281 0.66697 -1.42791 0
M  V30 2250 C 218.506 1.46004 -1.47301 0
M  V30 2251 C 218.931 1.87894 -0.0880317 0
M  V30 2252 O 218.289 1.56502 0.915253 0
M  V30 2253 C 218.337 2.68031 -2.41229 0
M  V30 2254 O 217.441 3.6659 -1.88906 0
M  V30 2255 H 216.782 0.43832 -0.49877 0
M  V30 2256 H 219.312 0.817391 -1.87563 0
M  V30 2257 H 219.322 3.1601 -2.58073 0
M  V30 2258 H 217.997 2.36883 -3.41847 0
M  V30 2259 H 216.574 3.25661 -1.81656 0
M  V30 2260 N 218.759 1.29093 0.90403 0
M  V30 2261 C 219.722 1.1386 1.98919 0
M  V30 2262 C 220.722 0.0753457 1.60623 0
M  V30 2263 O 221.912 0.321931 1.71199 0
M  V30 2264 C 219.044 0.740198 3.32767 0
M  V30 2265 H 220.237 2.10246 2.13861 0
M  V30 2266 H 217.79 1.12218 1.08797 0
M  V30 2267 H 218.525 -0.223997 3.23525 0
M  V30 2268 H 218.31 1.50838 3.61926 0
M  V30 2269 H 219.8 0.656546 4.12407 0
M  V30 2270 N 220.237 -1.11381 1.11499 0
M  V30 2271 C 221.169 -2.17207 0.731704 0
M  V30 2272 C 222.182 -1.61066 -0.236957 0
M  V30 2273 O 223.371 -1.78489 -0.0197591 0
M  V30 2274 C 220.471 -3.38846 0.0607624 0
M  V30 2275 C 219.644 -4.24451 1.0564 0
M  V30 2276 C 218.703 -5.24562 0.4149 0
M  V30 2277 O 217.729 -5.59071 1.069 0
M  V30 2278 N 218.931 -5.74651 -0.821943 0
M  V30 2279 H 221.696 -2.50699 1.64225 0
M  V30 2280 H 219.257 -1.26908 1.00529 0
M  V30 2281 H 221.249 -4.02911 -0.380139 0
M  V30 2282 H 219.819 -3.03411 -0.752376 0
M  V30 2283 H 219.039 -3.56833 1.67524 0
M  V30 2284 H 220.327 -4.78486 1.72998 0
M  V30 2285 H 219.725 -5.48797 -1.37252 0
M  V30 2286 H 218.282 -6.40549 -1.20582 0
M  V30 2287 N 221.715 -0.905404 -1.28997 0
M  V30 2288 C 222.945 -0.549049 -1.99171 0
M  V30 2289 C 223.353 0.87203 -1.67906 0
M  V30 2290 O 222.696 1.58796 -0.923561 0
M  V30 2291 C 222.758 -0.668306 -3.53234 0
M  V30 2292 C 222.422 -2.0574 -4.08069 0
M  V30 2293 C 223.419 -3.0292 -4.22534 0
M  V30 2294 C 221.104 -2.36833 -4.42962 0
M  V30 2295 C 223.098 -4.29314 -4.71135 0
M  V30 2296 C 220.785 -3.63467 -4.91258 0
M  V30 2297 C 221.783 -4.59522 -5.053 0
M  V30 2298 O 221.471 -5.83907 -5.52546 0
M  V30 2299 H 221.203 -0.208784 -0.64295 0
M  V30 2300 H 223.757 -1.21836 -1.65363 0
M  V30 2301 H 221.987 0.0580547 -3.86656 0
M  V30 2302 H 223.676 -0.320273 -4.04634 0
M  V30 2303 H 224.442 -2.80216 -3.95859 0
M  V30 2304 H 220.321 -1.62824 -4.31288 0
M  V30 2305 H 223.865 -5.04293 -4.8201 0
M  V30 2306 H 219.762 -3.86 -5.17372 0
M  V30 2307 H 220.53 -5.86578 -5.70849 0
M  V30 2308 N 223.193 1.4272 -0.668489 0
M  V30 2309 C 224.442 2.00846 -0.185389 0
M  V30 2310 C 224.755 1.53442 1.21305 0
M  V30 2311 O 225.961 2.03944 1.79218 0
M  V30 2312 C 224.417 3.58805 -0.280591 0
M  V30 2313 C 224.025 4.15198 -1.68268 0
M  V30 2314 C 225.769 4.24255 0.14412 0
M  V30 2315 C 223.676 5.655 -1.73099 0
M  V30 2316 H 222.606 0.751145 -0.0655475 0
M  V30 2317 H 225.257 1.63516 -0.832752 0
M  V30 2318 H 223.639 3.93608 0.434553 0
M  V30 2319 H 224.813 3.91866 -2.42441 0
M  V30 2320 H 223.128 3.62176 -2.05469 0
M  V30 2321 H 225.725 5.34547 0.128086 0
M  V30 2322 H 226.068 3.99277 1.17827 0
M  V30 2323 H 226.601 3.94389 -0.519798 0
M  V30 2324 H 223.34 5.95268 -2.74475 0
M  V30 2325 H 222.86 5.90842 -1.03274 0
M  V30 2326 H 224.539 6.29808 -1.48158 0
M  V30 2327 N 224.671 0.411399 1.52136 0
M  V30 2328 C 225.899 -0.163076 2.06256 0
M  V30 2329 C 226.314 -1.3867 1.28125 0
M  V30 2330 O 225.671 -1.79423 0.333721 0
M  V30 2331 C 225.722 -0.511252 3.57867 0
M  V30 2332 O 225.443 0.66378 4.33042 0
M  V30 2333 C 226.944 -1.13921 4.28412 0
M  V30 2334 H 224.164 -0.0193897 0.67072 0
M  V30 2335 H 226.708 0.583007 1.96013 0
M  V30 2336 H 224.863 -1.20723 3.6811 0
M  V30 2337 H 225.277 0.372601 5.23175 0
M  V30 2338 H 226.751 -1.33302 5.35663 0
M  V30 2339 H 227.228 -2.11296 3.85033 0
M  V30 2340 H 227.834 -0.483373 4.22544 0
M  V30 2341 N 226.149 -1.5696 0.141893 0
M  V30 2342 C 227.112 -2.15316 -0.785587 0
M  V30 2343 C 228.112 -1.09366 -1.1788 0
M  V30 2344 O 229.302 -1.35031 -1.10056 0
M  V30 2345 C 226.434 -2.71211 -2.06537 0
M  V30 2346 H 227.627 -2.98608 -0.278041 0
M  V30 2347 H 225.18 -1.5593 -0.107519 0
M  V30 2348 H 225.915 -1.91571 -2.6167 0
M  V30 2349 H 225.7 -3.4872 -1.79268 0
M  V30 2350 H 227.19 -3.16189 -2.72789 0
M  V30 2351 N 227.627 0.131896 -1.57047 0
M  V30 2352 C 228.59 1.14638 -1.98471 0
M  V30 2353 C 229.59 1.35029 -0.873148 0
M  V30 2354 O 230.78 1.31764 -1.13946 0
M  V30 2355 C 227.912 2.50358 -2.31373 0
M  V30 2356 H 229.105 0.79064 -2.8929 0
M  V30 2357 H 226.658 0.375761 -1.51716 0
M  V30 2358 H 227.393 2.90876 -1.43393 0
M  V30 2359 H 227.178 2.36915 -3.12432 0
M  V30 2360 H 228.668 3.23395 -2.64207 0
M  V30 2361 N 229.106 1.52395 0.401703 0
M  V30 2362 C 230.036 1.79231 1.49661 0
M  V30 2363 C 231.017 0.643654 1.57452 0
M  V30 2364 O 232.202 0.889989 1.72606 0
M  V30 2365 C 229.332 1.94971 2.87409 0
M  V30 2366 C 228.286 3.10604 2.94465 0
M  V30 2367 C 227.612 3.11577 4.34538 0
M  V30 2368 C 228.912 4.49921 2.6527 0
M  V30 2369 H 230.606 2.70917 1.27454 0
M  V30 2370 H 228.152 1.30362 0.6117 0
M  V30 2371 H 230.105 2.12328 3.63999 0
M  V30 2372 H 228.829 0.999632 3.10926 0
M  V30 2373 H 227.488 2.93009 2.20321 0
M  V30 2374 H 227.136 2.14277 4.55076 0
M  V30 2375 H 226.836 3.89247 4.40183 0
M  V30 2376 H 228.36 3.31073 5.13053 0
M  V30 2377 H 229.774 4.67683 3.31581 0
M  V30 2378 H 228.171 5.29564 2.82281 0
M  V30 2379 H 229.241 4.57507 1.60671 0
M  V30 2380 N 230.584 -0.659388 1.43143 0
M  V30 2381 C 232 -0.974337 1.26407 0
M  V30 2382 C 232.2 -2.007 0.179341 0
M  V30 2383 O 231.256 -2.4856 -0.444295 0
M  V30 2384 C 232.569 -1.46447 2.62628 0
M  V30 2385 C 234.117 -1.58144 2.7011 0
M  V30 2386 C 234.592 -2.1055 4.06734 0
M  V30 2387 N 236.083 -2.17861 4.08767 0
M  V30 2388 C 236.818 -2.59519 5.1131 0
M  V30 2389 N 236.314 -3.00518 6.24228 0
M  V30 2390 N 238.107 -2.59404 4.98664 0
M  V30 2391 H 230.258 0.0240528 2.12386 0
M  V30 2392 H 232.521 -0.0518065 0.946583 0
M  V30 2393 H 232.227 -0.780123 3.42939 0
M  V30 2394 H 232.101 -2.44058 2.87603 0
M  V30 2395 H 234.488 -2.25682 1.90136 0
M  V30 2396 H 234.569 -0.589828 2.48907 0
M  V30 2397 H 234.213 -1.43616 4.87172 0
M  V30 2398 H 234.143 -3.10531 4.25298 0
M  V30 2399 H 236.634 -1.88975 3.27257 0
M  V30 2400 H 236.947 -3.31036 6.98309 0
M  V30 2401 H 235.292 -2.98337 6.2771 0
M  V30 2402 H 238.483 -2.26747 4.09516 0
M  V30 2403 H 238.656 -2.91548 5.78709 0
M  V30 2404 N 232.062 -1.29571 -0.897171 0
M  V30 2405 C 233.339 -1.08365 -1.62839 0
M  V30 2406 C 233.719 0.371331 -2.07808 0
M  V30 2407 O 233.067 1.3606 -1.83576 0
M  V30 2408 C 233.277 -2.0735 -2.80726 0
M  V30 2409 C 234.625 -2.38406 -3.51351 0
M  V30 2410 O 235.649 -2.05564 -2.90898 0
M  V30 2411 O 234.508 -2.9453 -4.60341 0
M  V30 2412 H 231.602 -0.415345 -0.715134 0
M  V30 2413 H 234.148 -1.40952 -0.945018 0
M  V30 2414 H 232.92 -3.05339 -2.44711 0
M  V30 2415 H 232.543 -1.75507 -3.56767 0
M  V30 2416 N 233.54 1.10788 -1.12088 0
M  V30 2417 C 234.47 2.19083 -0.807755 0
M  V30 2418 C 235.451 1.6858 0.226859 0
M  V30 2419 O 236.636 1.93997 0.0888475 0
M  V30 2420 C 233.766 3.46344 -0.257576 0
M  V30 2421 C 232.72 4.101 -1.22483 0
M  V30 2422 C 232.046 5.32016 -0.535052 0
M  V30 2423 C 233.346 4.54236 -2.57811 0
M  V30 2424 H 235.04 2.45534 -1.71328 0
M  V30 2425 H 232.586 1.1801 -0.825205 0
M  V30 2426 H 234.539 4.21392 -0.0262679 0
M  V30 2427 H 233.263 3.19373 0.683278 0
M  V30 2428 H 231.922 3.37054 -1.44189 0
M  V30 2429 H 231.57 5.01319 0.410827 0
M  V30 2430 H 231.27 5.75625 -1.18024 0
M  V30 2431 H 232.794 6.09799 -0.312695 0
M  V30 2432 H 234.208 5.20575 -2.40155 0
M  V30 2433 H 232.605 5.08682 -3.18375 0
M  V30 2434 H 233.675 3.6734 -3.16528 0
M  V30 2435 N 235.018 0.912232 1.28515 0
M  V30 2436 C 236.265 0.544599 1.95039 0
M  V30 2437 C 236.593 -0.911435 1.71823 0
M  V30 2438 O 235.848 -1.66317 1.03137 0
M  V30 2439 C 236.147 0.798392 3.48368 0
M  V30 2440 C 235.813 2.23374 3.91682 0
M  V30 2441 C 234.475 2.62617 4.03219 0
M  V30 2442 C 236.827 3.16786 4.13879 0
M  V30 2443 C 234.155 3.94429 4.3433 0
M  V30 2444 C 236.507 4.48161 4.46469 0
M  V30 2445 C 235.171 4.8726 4.56217 0
M  V30 2446 H 234.441 0.199283 0.7137 0
M  V30 2447 H 237.088 1.15327 1.52879 0
M  V30 2448 H 235.393 0.106908 3.91654 0
M  V30 2449 H 237.09 0.493141 3.97956 0
M  V30 2450 H 233.68 1.91922 3.83228 0
M  V30 2451 H 237.864 2.87677 4.0442 0
M  V30 2452 H 233.12 4.24426 4.40082 0
M  V30 2453 H 237.294 5.20559 4.62592 0
M  V30 2454 H 234.921 5.89431 4.80078 0
M  V30 2455 N 236.496 -1.42363 0.676048 0
M  V30 2456 C 237.773 -1.95183 0.127726 0
M  V30 2457 C 238.153 -1.61641 -1.35777 0
M  V30 2458 O 237.501 -0.913216 -2.09458 0
M  V30 2459 C 237.711 -3.46721 0.398199 0
M  V30 2460 C 239.059 -4.23427 0.315383 0
M  V30 2461 O 240.083 -3.54649 0.332016 0
M  V30 2462 O 238.942 -5.45888 0.25865 0
M  V30 2463 H 236.036 -0.826992 0.00359427 0
M  V30 2464 H 238.582 -1.52184 0.750864 0
M  V30 2465 H 237.354 -3.64344 1.4272 0
M  V30 2466 H 236.977 -3.96769 -0.256885 0
M  V30 2467 N 237.974 -0.419461 -1.51915 0
M  V30 2468 C 239.199 0.154572 -2.06823 0
M  V30 2469 C 239.624 1.3722 -1.28656 0
M  V30 2470 O 238.982 1.78461 -0.319583 0
M  V30 2471 C 239.03 0.473172 -3.57482 0
M  V30 2472 O 238.134 1.56255 -3.81652 0
M  V30 2473 H 237.475 0.0096924 -0.663929 0
M  V30 2474 H 240.005 -0.595642 -1.95738 0
M  V30 2475 H 240.015 0.728825 -4.01438 0
M  V30 2476 H 238.69 -0.416873 -4.13805 0
M  V30 2477 H 237.267 1.29825 -3.49571 0
M  V30 2478 N 239.452 1.56882 -0.150215 0
M  V30 2479 C 240.385 2.12712 0.826358 0
M  V30 2480 C 241.363 1.05154 1.24022 0
M  V30 2481 O 242.547 1.33004 1.33575 0
M  V30 2482 C 239.674 2.64945 2.11002 0
M  V30 2483 C 238.72 3.8468 1.84183 0
M  V30 2484 S 239.553 5.25502 1.02995 0
M  V30 2485 C 240.709 5.81125 2.32474 0
M  V30 2486 H 240.942 2.95214 0.351598 0
M  V30 2487 H 238.475 1.54267 0.0641211 0
M  V30 2488 H 240.433 2.95689 2.84742 0
M  V30 2489 H 239.094 1.82568 2.55593 0
M  V30 2490 H 238.287 4.19482 2.79375 0
M  V30 2491 H 237.889 3.54714 1.1855 0
M  V30 2492 H 240.181 5.92753 3.281 0
M  V30 2493 H 241.124 6.78625 2.02171 0
M  V30 2494 H 241.532 5.09392 2.43269 0
M  V30 2495 N 240.93 -0.123565 1.57115 0
M  V30 2496 C 242.207 -0.862196 1.75572 0
M  V30 2497 C 242.587 -1.98279 0.724475 0
M  V30 2498 O 241.935 -2.27102 -0.252407 0
M  V30 2499 C 242.145 -1.38309 3.20424 0
M  V30 2500 C 243.493 -1.83724 3.82793 0
M  V30 2501 O 244.517 -1.47999 3.23998 0
M  V30 2502 O 243.376 -2.49685 4.86127 0
M  V30 2503 H 240.47 -0.409113 0.718718 0
M  V30 2504 H 243.016 -0.107661 1.69358 0
M  V30 2505 H 241.788 -0.578889 3.86994 0
M  V30 2506 H 241.411 -2.20046 3.31158 0
M  V30 2507 N 242.408 -1.52605 -0.393616 0
M  V30 2508 C 243.355 -1.77055 -1.48054 0
M  V30 2509 C 244.325 -0.61358 -1.54352 0
M  V30 2510 O 245.51 -0.852806 -1.70681 0
M  V30 2511 C 242.65 -1.94108 -2.85335 0
M  V30 2512 C 241.763 -3.21792 -2.88226 0
M  V30 2513 C 240.898 -3.29188 -4.16904 0
M  V30 2514 C 239.937 -4.51013 -4.13828 0
M  V30 2515 N 239.074 -4.55716 -5.34105 0
M  V30 2516 H 243.914 -2.69815 -1.26506 0
M  V30 2517 H 241.451 -1.33683 -0.61379 0
M  V30 2518 H 243.409 -2.01979 -3.65049 0
M  V30 2519 H 242.039 -1.04713 -3.05344 0
M  V30 2520 H 241.091 -3.23015 -2.00911 0
M  V30 2521 H 242.403 -4.11557 -2.8182 0
M  V30 2522 H 241.557 -3.36216 -5.05018 0
M  V30 2523 H 240.296 -2.37389 -4.26026 0
M  V30 2524 H 239.301 -4.44115 -3.24102 0
M  V30 2525 H 240.526 -5.44123 -4.06333 0
M  V30 2526 H 238.472 -3.66807 -5.43865 0
M  V30 2527 H 238.389 -5.39346 -5.29756 0
M  V30 2528 H 239.657 -4.66993 -6.2413 0
M  V30 2529 N 243.887 0.651787 -1.4349 0
M  V30 2530 C 245.115 1.43937 -1.48626 0
M  V30 2531 C 245.53 1.8851 -0.104587 0
M  V30 2532 O 244.887 1.5958 0.885464 0
M  V30 2533 C 244.938 2.6734 -2.43334 0
M  V30 2534 O 244.659 2.24631 -3.76128 0
M  V30 2535 C 246.16 3.60683 -2.57726 0
M  V30 2536 H 243.38 0.44213 -0.504739 0
M  V30 2537 H 245.924 0.798944 -1.88248 0
M  V30 2538 H 244.079 3.2752 -2.06904 0
M  V30 2539 H 244.493 3.04485 -4.2707 0
M  V30 2540 H 245.967 4.43933 -3.28067 0
M  V30 2541 H 246.444 4.08126 -1.62265 0
M  V30 2542 H 247.05 3.06384 -2.94973 0
M  V30 2543 N 245.365 1.30045 0.890287 0
M  V30 2544 C 246.59 1.21598 1.68014 0
M  V30 2545 C 247.015 -0.218678 1.86825 0
M  V30 2546 O 246.373 -1.15756 1.39536 0
M  V30 2547 C 246.421 1.94434 3.03691 0
M  V30 2548 O 245.525 1.2678 3.92429 0
M  V30 2549 H 244.866 0.420856 0.513592 0
M  V30 2550 H 247.396 1.71775 1.11151 0
M  V30 2551 H 247.406 2.03251 3.5377 0
M  V30 2552 H 246.081 2.98777 2.89318 0
M  V30 2553 H 244.658 1.26282 3.50866 0
M  V30 2554 N 246.843 -1.10192 1.12674 0
M  V30 2555 C 248.068 -1.86523 0.906853 0
M  V30 2556 C 248.493 -1.80221 -0.538711 0
M  V30 2557 O 247.851 -1.17396 -1.38158 0
M  V30 2558 C 247.899 -3.32758 1.3894 0
M  V30 2559 O 247.003 -4.08449 0.5695 0
M  V30 2560 H 246.344 -0.578678 0.325619 0
M  V30 2561 H 248.874 -1.39203 1.49946 0
M  V30 2562 H 248.884 -3.83608 1.38958 0
M  V30 2563 H 247.559 -3.36661 2.44197 0
M  V30 2564 H 246.136 -3.67427 0.636528 0
M  V30 2565 N 248.321 -0.919034 -1.28029 0
M  V30 2566 C 249.546 -0.570357 -1.99403 0
M  V30 2567 C 249.971 0.842486 -1.68178 0
M  V30 2568 O 249.329 1.56391 -0.917141 0
M  V30 2569 C 249.377 -0.792541 -3.51783 0
M  V30 2570 O 248.481 0.145988 -4.12142 0
M  V30 2571 H 247.822 -0.220555 -0.6263 0
M  V30 2572 H 250.352 -1.23592 -1.63053 0
M  V30 2573 H 250.362 -0.704708 -4.01868 0
M  V30 2574 H 249.037 -1.82247 -3.73844 0
M  V30 2575 H 247.614 0.00897528 -3.72899 0
M  V30 2576 N 249.799 1.42003 -0.683588 0
M  V30 2577 C 251.048 2.00638 -0.206681 0
M  V30 2578 C 251.361 1.5472 1.19671 0
M  V30 2579 O 252.567 2.05833 1.77045 0
M  V30 2580 C 251.023 3.58487 -0.318632 0
M  V30 2581 C 250.631 4.1339 -1.72663 0
M  V30 2582 C 252.375 4.24384 0.0991141 0
M  V30 2583 C 250.282 5.63633 -1.79087 0
M  V30 2584 H 249.212 0.750408 -0.0735107 0
M  V30 2585 H 251.863 1.62624 -0.850048 0
M  V30 2586 H 250.245 3.94047 0.392781 0
M  V30 2587 H 251.419 3.89273 -2.46583 0
M  V30 2588 H 249.734 3.59976 -2.09299 0
M  V30 2589 H 252.331 5.34652 0.0713833 0
M  V30 2590 H 252.674 4.00505 1.13586 0
M  V30 2591 H 253.207 3.93816 -0.561599 0
M  V30 2592 H 249.946 5.92323 -2.80774 0
M  V30 2593 H 249.466 5.89714 -1.09535 0
M  V30 2594 H 251.145 6.28201 -1.5483 0
M  V30 2595 N 251.277 0.427512 1.51691 0
M  V30 2596 C 252.688 -0.0378867 1.86662 0
M  V30 2597 C 253.039 -1.42819 1.34525 0
M  V30 2598 O 252.164 -2.05037 0.692014 0
M  V30 2599 C 252.759 -0.0755266 3.38716 0
M  V30 2600 C 251.318 -0.485309 3.73258 0
M  V30 2601 C 250.465 0.328399 2.75349 0
M  V30 2602 H 253.416 0.64379 1.45055 0
M  V30 2603 H 253.437 -0.887056 3.70016 0
M  V30 2604 H 252.949 0.936487 3.76632 0
M  V30 2605 H 251.05 -1.50329 3.40928 0
M  V30 2606 H 251.163 -0.21693 4.78609 0
M  V30 2607 H 249.527 -0.211905 2.53817 0
M  V30 2608 H 250.31 1.3391 3.16106 0
M  V30 2609 N 252.755 -1.56801 0.158532 0
M  V30 2610 C 254.166 -1.83189 -0.360366 0
M  V30 2611 C 254.517 -1.07778 -1.63946 0
M  V30 2612 O 253.642 -0.326718 -2.13919 0
M  V30 2613 C 254.237 -3.32297 -0.660595 0
M  V30 2614 C 252.796 -3.59227 -1.12398 0
M  V30 2615 C 251.943 -2.76877 -0.153097 0
M  V30 2616 H 254.894 -1.54008 0.383031 0
M  V30 2617 H 254.915 -3.4908 -1.51405 0
M  V30 2618 H 254.427 -3.87156 0.270527 0
M  V30 2619 H 252.528 -3.09766 -2.07064 0
M  V30 2620 H 252.641 -4.67632 -1.04197 0
M  V30 2621 H 251.005 -2.46319 -0.647983 0
M  V30 2622 H 251.788 -3.34511 0.77182 0
M  V30 2623 N 254.233 0.115231 -1.57178 0
M  V30 2624 C 255.482 0.820945 -1.84237 0
M  V30 2625 C 255.795 1.80866 -0.744761 0
M  V30 2626 O 257.001 2.56083 -0.901871 0
M  V30 2627 C 255.457 1.51072 -3.26658 0
M  V30 2628 C 255.065 0.563795 -4.44438 0
M  V30 2629 C 256.809 2.20134 -3.62962 0
M  V30 2630 C 254.716 1.25701 -5.77887 0
M  V30 2631 H 253.646 0.310328 -0.687177 0
M  V30 2632 H 256.297 0.0737134 -1.83352 0
M  V30 2633 H 254.679 2.30471 -3.22024 0
M  V30 2634 H 255.853 -0.197247 -4.60378 0
M  V30 2635 H 254.168 -0.0200638 -4.16395 0
M  V30 2636 H 256.765 2.72696 -4.59936 0
M  V30 2637 H 257.108 2.98107 -2.90582 0
M  V30 2638 H 257.641 1.47619 -3.69396 0
M  V30 2639 H 254.38 0.518493 -6.53446 0
M  V30 2640 H 253.9 1.98997 -5.65827 0
M  V30 2641 H 255.579 1.78915 -6.2177 0
M  V30 2642 N 255.711 1.52812 0.385517 0
M  V30 2643 C 256.96 1.67249 1.12741 0
M  V30 2644 C 257.273 0.4205 1.91027 0
M  V30 2645 O 258.479 0.445064 2.67827 0
M  V30 2646 C 256.935 2.95583 2.05326 0
M  V30 2647 C 256.543 4.27974 1.32447 0
M  V30 2648 C 258.287 3.19386 2.7963 0
M  V30 2649 C 256.194 5.47412 2.23818 0
M  V30 2650 H 255.124 0.6231 0.424573 0
M  V30 2651 H 257.775 1.79309 0.389924 0
M  V30 2652 H 256.157 2.77277 2.82725 0
M  V30 2653 H 257.331 4.56844 0.602495 0
M  V30 2654 H 255.646 4.10459 0.700885 0
M  V30 2655 H 258.243 4.05801 3.48181 0
M  V30 2656 H 258.586 2.34604 3.43899 0
M  V30 2657 H 259.119 3.38274 2.09322 0
M  V30 2658 H 255.858 6.34612 1.64157 0
M  V30 2659 H 255.378 5.22849 2.93921 0
M  V30 2660 H 257.057 5.81423 2.83824 0
M  V30 2661 N 257.189 -0.644168 1.43834 0
M  V30 2662 C 258.119 -1.76814 1.52509 0
M  V30 2663 C 259.1 -1.65823 0.379052 0
M  V30 2664 O 260.285 -1.84781 0.597466 0
M  V30 2665 C 257.415 -3.15288 1.4564 0
M  V30 2666 C 256.369 -3.41053 2.58586 0
M  V30 2667 C 255.695 -4.79421 2.36769 0
M  V30 2668 C 256.995 -3.34902 4.00797 0
M  V30 2669 H 258.689 -1.69812 2.46586 0
M  V30 2670 H 256.235 -0.815542 1.1868 0
M  V30 2671 H 258.188 -3.93681 1.50311 0
M  V30 2672 H 256.912 -3.23043 0.480725 0
M  V30 2673 H 255.571 -2.65035 2.53282 0
M  V30 2674 H 255.219 -4.83863 1.37424 0
M  V30 2675 H 254.919 -4.9762 3.12487 0
M  V30 2676 H 256.443 -5.6006 2.43238 0
M  V30 2677 H 257.857 -4.03218 4.07539 0
M  V30 2678 H 256.254 -3.64637 4.76613 0
M  V30 2679 H 257.324 -2.32928 4.25291 0
M  V30 2680 N 258.668 -1.30515 -0.883378 0
M  V30 2681 C 259.598 -1.19607 -2.00541 0
M  V30 2682 C 260.579 -0.086346 -1.69881 0
M  V30 2683 O 261.764 -0.268654 -1.92333 0
M  V30 2684 C 258.894 -0.888758 -3.35736 0
M  V30 2685 C 257.848 -1.95659 -3.8066 0
M  V30 2686 C 257.174 -1.50224 -5.13164 0
M  V30 2687 C 258.474 -3.36788 -3.99213 0
M  V30 2688 H 260.168 -2.13476 -2.09925 0
M  V30 2689 H 257.714 -1.02775 -1.00863 0
M  V30 2690 H 259.667 -0.799094 -4.13754 0
M  V30 2691 H 258.391 0.0856125 -3.26488 0
M  V30 2692 H 257.05 -2.03591 -3.04871 0
M  V30 2693 H 256.698 -0.516092 -5.00345 0
M  V30 2694 H 256.398 -2.2165 -5.44192 0
M  V30 2695 H 257.922 -1.42639 -5.93706 0
M  V30 2696 H 259.336 -3.31605 -4.67665 0
M  V30 2697 H 257.733 -4.06314 -4.41621 0
M  V30 2698 H 258.803 -3.78561 -3.03017 0
M  V30 2699 N 260.146 1.09593 -1.13257 0
M  V30 2700 C 261.078 2.16015 -0.766167 0
M  V30 2701 C 262.091 1.61423 0.211303 0
M  V30 2702 O 263.28 1.78498 -0.00863946 0
M  V30 2703 C 260.38 3.38706 -0.114662 0
M  V30 2704 C 259.553 4.22717 -1.12379 0
M  V30 2705 C 258.612 5.23835 -0.498301 0
M  V30 2706 O 257.638 5.573 -1.15781 0
M  V30 2707 N 258.84 5.75886 0.730417 0
M  V30 2708 H 261.605 2.48055 -1.68193 0
M  V30 2709 H 259.166 1.25292 -1.02535 0
M  V30 2710 H 261.158 4.03464 0.315991 0
M  V30 2711 H 259.728 3.04569 0.704011 0
M  V30 2712 H 258.948 3.54122 -1.73179 0
M  V30 2713 H 260.236 4.75673 -1.80589 0
M  V30 2714 H 259.634 5.50911 1.28504 0
M  V30 2715 H 258.191 6.42387 1.10376 0
M  V30 2716 N 261.624 0.925811 1.2754 0
M  V30 2717 C 262.871 0.565255 1.94451 0
M  V30 2718 C 263.199 -0.89316 1.7278 0
M  V30 2719 O 262.454 -1.65213 1.04895 0
M  V30 2720 C 262.753 0.835296 3.47502 0
M  V30 2721 C 262.419 2.27515 3.89291 0
M  V30 2722 C 261.081 2.66879 4.00411 0
M  V30 2723 C 263.433 3.21158 4.10496 0
M  V30 2724 C 260.761 3.99014 4.30122 0
M  V30 2725 C 263.113 4.52871 4.4169 0
M  V30 2726 C 261.777 4.92072 4.51023 0
M  V30 2727 H 261.047 0.206841 0.711546 0
M  V30 2728 H 263.694 1.16942 1.51647 0
M  V30 2729 H 261.999 0.148442 3.91519 0
M  V30 2730 H 263.696 0.535322 3.97411 0
M  V30 2731 H 260.286 1.95976 3.81171 0
M  V30 2732 H 264.47 2.9195 4.01346 0
M  V30 2733 H 259.726 4.2907 4.35556 0
M  V30 2734 H 263.9 5.25436 4.57045 0
M  V30 2735 H 261.527 5.9449 4.738 0
M  V30 2736 N 263.102 -1.41638 0.69111 0
M  V30 2737 C 264.032 -2.3347 0.037248 0
M  V30 2738 C 265.013 -1.51575 -0.771947 0
M  V30 2739 O 266.198 -1.80126 -0.72582 0
M  V30 2740 C 263.328 -3.35354 -0.903064 0
M  V30 2741 C 262.282 -4.27526 -0.201288 0
M  V30 2742 C 261.608 -5.19747 -1.25565 0
M  V30 2743 C 262.908 -5.13959 0.929689 0
M  V30 2744 H 264.602 -2.88397 0.804227 0
M  V30 2745 H 262.148 -1.38669 0.388189 0
M  V30 2746 H 264.101 -3.98519 -1.36969 0
M  V30 2747 H 262.825 -2.78767 -1.70166 0
M  V30 2748 H 261.484 -3.65779 0.245265 0
M  V30 2749 H 261.132 -4.59479 -2.04666 0
M  V30 2750 H 260.832 -5.8225 -0.791128 0
M  V30 2751 H 262.356 -5.85789 -1.72288 0
M  V30 2752 H 263.77 -5.70718 0.543546 0
M  V30 2753 H 262.167 -5.85379 1.32103 0
M  V30 2754 H 263.237 -4.51389 1.77133 0
M  V30 2755 N 264.58 -0.43555 -1.51462 0
M  V30 2756 C 265.53 0.394701 -2.24558 0
M  V30 2757 C 266.514 0.99157 -1.26715 0
M  V30 2758 O 267.706 0.910007 -1.51815 0
M  V30 2759 C 264.835 1.4963 -3.08975 0
M  V30 2760 C 263.921 0.908912 -4.14246 0
M  V30 2761 N 264.312 0.0505335 -5.05775 0
M  V30 2762 C 262.61 1.17668 -4.30198 0
M  V30 2763 C 263.311 -0.279161 -5.8103 0
M  V30 2764 N 262.287 0.336767 -5.42556 0
M  V30 2765 H 266.089 -0.267106 -2.92684 0
M  V30 2766 H 263.603 -0.247518 -1.60503 0
M  V30 2767 H 265.6 2.10394 -3.59917 0
M  V30 2768 H 264.26 2.16046 -2.42393 0
M  V30 2769 H 265.271 -0.31577 -5.16936 0
M  V30 2770 H 261.948 1.83847 -3.74842 0
M  V30 2771 H 263.338 -0.977553 -6.64751 0
M  V30 2772 N 266.058 1.56714 -0.166846 0
M  V30 2773 C 266.991 2.13577 0.80375 0
M  V30 2774 C 267.969 1.06464 1.22899 0
M  V30 2775 O 269.153 1.34413 1.32157 0
M  V30 2776 C 266.28 2.67168 2.0818 0
M  V30 2777 C 265.326 3.86612 1.80093 0
M  V30 2778 S 266.159 5.26565 0.97416 0
M  V30 2779 C 267.315 5.83558 2.26297 0
M  V30 2780 H 267.548 2.9557 0.320267 0
M  V30 2781 H 265.081 1.54326 0.0477555 0
M  V30 2782 H 267.039 2.98692 2.8159 0
M  V30 2783 H 265.7 1.85269 2.53642 0
M  V30 2784 H 264.893 4.22422 2.7491 0
M  V30 2785 H 264.495 3.55951 1.14781 0
M  V30 2786 H 266.787 5.962 3.21795 0
M  V30 2787 H 267.73 6.80731 1.94962 0
M  V30 2788 H 268.138 5.11944 2.37853 0
M  V30 2789 N 267.536 -0.106894 1.57237 0
M  V30 2790 C 268.499 -1.11466 2.0027 0
M  V30 2791 C 269.499 -1.33623 0.894519 0
M  V30 2792 O 270.689 -1.29935 1.16028 0
M  V30 2793 C 267.821 -2.46646 2.35327 0
M  V30 2794 H 269.014 -0.744516 2.90512 0
M  V30 2795 H 266.567 -0.351576 1.52295 0
M  V30 2796 H 267.302 -2.88558 1.48003 0
M  V30 2797 H 267.087 -2.31915 3.16161 0
M  V30 2798 H 268.577 -3.19151 2.69318 0
M  V30 2799 N 269.014 -1.53014 -0.377408 0
M  V30 2800 C 270.261 -1.68623 -1.12128 0
M  V30 2801 C 270.589 -0.431997 -1.89642 0
M  V30 2802 O 269.844 0.585855 -1.86725 0
M  V30 2803 C 270.143 -2.87982 -2.11663 0
M  V30 2804 C 269.809 -4.24964 -1.50719 0
M  V30 2805 C 268.471 -4.62217 -1.33825 0
M  V30 2806 C 270.823 -5.10199 -1.06519 0
M  V30 2807 C 268.151 -5.82352 -0.712963 0
M  V30 2808 C 270.503 -6.30969 -0.453955 0
M  V30 2809 C 269.167 -6.66944 -0.272411 0
M  V30 2810 H 268.437 -0.617034 -0.410305 0
M  V30 2811 H 271.084 -1.8718 -0.404484 0
M  V30 2812 H 269.389 -2.63889 -2.89603 0
M  V30 2813 H 271.086 -2.97253 -2.6915 0
M  V30 2814 H 267.676 -3.95626 -1.64858 0
M  V30 2815 H 271.86 -4.81978 -1.18368 0
M  V30 2816 H 267.116 -6.08824 -0.560611 0
M  V30 2817 H 271.29 -6.96324 -0.103217 0
M  V30 2818 H 268.917 -7.59898 0.214181 0
M  V30 2819 N 270.492 0.636531 -1.44174 0
M  V30 2820 C 271.903 1.21806 -1.41493 0
M  V30 2821 C 272.254 1.95785 -0.1275 0
M  V30 2822 O 271.379 2.02147 0.772376 0
M  V30 2823 C 271.974 2.21551 -2.56321 0
M  V30 2824 C 270.533 2.75143 -2.56853 0
M  V30 2825 C 269.68 1.50052 -2.33195 0
M  V30 2826 H 272.631 0.427531 -1.52833 0
M  V30 2827 H 272.652 3.0405 -2.28765 0
M  V30 2828 H 272.164 1.67679 -3.50008 0
M  V30 2829 H 270.265 3.33033 -1.67093 0
M  V30 2830 H 270.378 3.2155 -3.55165 0
M  V30 2831 H 268.742 1.77993 -1.82183 0
M  V30 2832 H 269.525 0.980903 -3.28988 0
M  V30 2833 N 271.97 1.30982 0.876444 0
M  V30 2834 C 272.902 1.13902 1.98894 0
M  V30 2835 C 273.915 0.0798815 1.62604 0
M  V30 2836 O 275.104 0.326743 1.75484 0
M  V30 2837 C 272.204 0.716699 3.31235 0
M  V30 2838 C 271.377 1.85945 3.95908 0
M  V30 2839 C 270.436 1.42426 5.06558 0
M  V30 2840 O 269.462 2.13287 5.27729 0
M  V30 2841 N 270.664 0.308025 5.79682 0
M  V30 2842 H 273.429 2.09724 2.14094 0
M  V30 2843 H 270.99 1.2323 1.05004 0
M  V30 2844 H 272.982 0.408403 4.02634 0
M  V30 2845 H 271.552 -0.149719 3.12241 0
M  V30 2846 H 270.772 2.33541 3.17573 0
M  V30 2847 H 272.06 2.62503 4.35855 0
M  V30 2848 H 271.458 -0.282241 5.64995 0
M  V30 2849 H 270.015 0.0592282 6.51773 0
M  V30 2850 N 273.449 -1.08991 1.13837 0
M  V30 2851 C 274.696 -1.81258 0.902882 0
M  V30 2852 C 275.024 -1.85936 -0.570803 0
M  V30 2853 O 274.279 -1.3267 -1.43865 0
M  V30 2854 C 274.578 -3.27042 1.44147 0
M  V30 2855 C 274.244 -3.4249 2.93276 0
M  V30 2856 C 272.906 -3.46414 3.33992 0
M  V30 2857 C 275.258 -3.4666 3.892 0
M  V30 2858 C 272.586 -3.52091 4.69307 0
M  V30 2859 C 274.938 -3.53872 5.24364 0
M  V30 2860 C 273.602 -3.56066 5.646 0
M  V30 2861 H 272.872 -0.663268 0.330388 0
M  V30 2862 H 275.519 -1.28368 1.42105 0
M  V30 2863 H 273.824 -3.82599 0.844097 0
M  V30 2864 H 275.521 -3.81499 1.23528 0
M  V30 2865 H 272.111 -3.40124 2.60794 0
M  V30 2866 H 276.295 -3.42865 3.58828 0
M  V30 2867 H 271.551 -3.52079 4.9985 0
M  V30 2868 H 275.725 -3.56043 5.98503 0
M  V30 2869 H 273.352 -3.60218 6.69438 0
M  V30 2870 N 274.927 -0.932562 -1.27047 0
M  V30 2871 C 275.89 -0.440064 -2.24936 0
M  V30 2872 C 276.89 0.444071 -1.54547 0
M  V30 2873 O 278.08 0.244465 -1.72476 0
M  V30 2874 C 275.212 0.36678 -3.38921 0
M  V30 2875 H 276.405 -1.305 -2.70018 0
M  V30 2876 H 273.958 -0.713707 -1.39054 0
M  V30 2877 H 274.693 1.25033 -2.99228 0
M  V30 2878 H 274.478 -0.267204 -3.91188 0
M  V30 2879 H 275.968 0.701567 -4.11665 0
M  V30 2880 N 276.405 1.4127 -0.698611 0
M  V30 2881 C 277.315 2.34573 -0.0357891 0
M  V30 2882 C 278.331 1.56393 0.762701 0
M  V30 2883 O 279.507 1.8886 0.699564 0
M  V30 2884 C 276.572 3.35159 0.887089 0
M  V30 2885 C 275.633 4.29225 0.0804634 0
M  V30 2886 C 274.866 5.25006 0.959387 0
M  V30 2887 O 275.089 5.26314 2.19886 0
M  V30 2888 O 274.023 6.00519 0.407439 0
M  V30 2889 H 277.849 2.92838 -0.804957 0
M  V30 2890 H 275.434 1.42175 -0.458966 0
M  V30 2891 H 277.316 3.9689 1.41621 0
M  V30 2892 H 275.991 2.79333 1.6357 0
M  V30 2893 H 274.898 3.70833 -0.493328 0
M  V30 2894 H 276.231 4.88157 -0.629547 0
M  V30 2895 N 277.883 0.443576 1.51229 0
M  V30 2896 C 278.83 -0.364716 2.279 0
M  V30 2897 C 279.8 -1.0114 1.31757 0
M  V30 2898 O 280.985 -1.02912 1.60667 0
M  V30 2899 C 278.125 -1.45644 3.12861 0
M  V30 2900 C 277.238 -0.827269 4.24005 0
M  V30 2901 C 276.373 -1.89456 4.96266 0
M  V30 2902 C 275.412 -1.24416 5.99322 0
M  V30 2903 N 274.549 -2.25309 6.64966 0
M  V30 2904 H 279.389 0.295464 2.96532 0
M  V30 2905 H 276.926 0.157554 1.46254 0
M  V30 2906 H 278.884 -2.10076 3.6045 0
M  V30 2907 H 277.514 -2.08616 2.46331 0
M  V30 2908 H 276.566 -0.0710839 3.80334 0
M  V30 2909 H 277.878 -0.312481 4.9782 0
M  V30 2910 H 277.032 -2.61535 5.47434 0
M  V30 2911 H 275.771 -2.4431 4.22095 0
M  V30 2912 H 274.776 -0.508868 5.4744 0
M  V30 2913 H 276.001 -0.702882 6.75453 0
M  V30 2914 H 273.947 -2.79231 5.93604 0
M  V30 2915 H 273.864 -1.78739 7.34567 0
M  V30 2916 H 275.132 -2.96853 7.20763 0
M  V30 2917 N 279.361 -1.56624 0.175154 0
M  V30 2918 C 280.609 -1.96609 -0.467885 0
M  V30 2919 C 280.93 -1.06238 -1.63519 0
M  V30 2920 O 280.2 -0.129523 -1.95471 0
M  V30 2921 H 278.78 -0.726008 -0.175845 0
M  V30 2922 H 281.442 -1.93195 0.257234 0
M  V30 2923 H 280.538 -3.00989 -0.825342 0
M  V30 2924 N 280.839 0.0985539 -1.57292 0
M  V30 2925 C 281.749 1.13824 -2.05137 0
M  V30 2926 C 282.765 1.44076 -0.975604 0
M  V30 2927 O 283.941 1.54786 -1.28853 0
M  V30 2928 C 281.006 2.43969 -2.46333 0
M  V30 2929 C 280.067 2.2093 -3.68087 0
M  V30 2930 C 279.3 3.44869 -4.0731 0
M  V30 2931 O 279.523 4.52972 -3.46659 0
M  V30 2932 O 278.457 3.34661 -5.00285 0
M  V30 2933 H 282.283 0.761881 -2.93988 0
M  V30 2934 H 279.868 0.310818 -1.46131 0
M  V30 2935 H 281.75 3.20609 -2.73473 0
M  V30 2936 H 280.425 2.81038 -1.60621 0
M  V30 2937 H 279.332 1.42081 -3.46069 0
M  V30 2938 H 280.665 1.88755 -4.54568 0
M  V30 2939 N 282.317 1.53212 0.369288 0
M  V30 2940 C 283.249 1.75668 1.47219 0
M  V30 2941 C 284.262 0.637387 1.49804 0
M  V30 2942 O 285.451 0.913561 1.5335 0
M  V30 2943 C 282.551 1.81818 2.85999 0
M  V30 2944 C 281.724 3.11409 3.07153 0
M  V30 2945 C 280.783 3.08849 4.26026 0
M  V30 2946 O 279.809 3.82659 4.2138 0
M  V30 2947 N 281.011 2.29409 5.33246 0
M  V30 2948 H 283.776 2.70832 1.28337 0
M  V30 2949 H 281.337 1.51944 0.55898 0
M  V30 2950 H 283.329 1.77588 3.63655 0
M  V30 2951 H 281.899 0.939544 2.98146 0
M  V30 2952 H 281.119 3.28971 2.1719 0
M  V30 2953 H 282.407 3.97059 3.18154 0
M  V30 2954 H 281.805 1.68946 5.39883 0
M  V30 2955 H 280.362 2.31001 6.09493 0
M  V30 2956 N 283.795 -0.628877 1.44509 0
M  V30 2957 C 285.043 -1.38565 1.4712 0
M  V30 2958 C 285.364 -1.94712 0.105899 0
M  V30 2959 O 284.634 -1.75912 -0.862079 0
M  V30 2960 H 283.214 -0.514333 0.541729 0
M  V30 2961 H 285.876 -0.740018 1.80305 0
M  V30 2962 H 284.972 -2.21583 2.19789 0
M  V30 2963 N 285.273 -1.31445 -0.869486 0
M  V30 2964 C 286.205 -1.14955 -1.98287 0
M  V30 2965 C 287.218 -0.0885037 -1.62559 0
M  V30 2966 O 288.407 -0.336044 -1.75308 0
M  V30 2967 C 285.507 -0.734255 -3.3085 0
M  V30 2968 C 284.68 -1.88042 -3.94917 0
M  V30 2969 C 283.739 -1.4511 -5.05796 0
M  V30 2970 O 282.765 -2.16082 -5.2659 0
M  V30 2971 N 283.967 -0.338763 -5.79511 0
M  V30 2972 H 286.732 -2.10856 -2.12979 0
M  V30 2973 H 284.293 -1.23786 -1.04349 0
M  V30 2974 H 286.285 -0.42975 -4.02412 0
M  V30 2975 H 284.855 0.133158 -3.12316 0
M  V30 2976 H 284.075 -2.35222 -3.1633 0
M  V30 2977 H 285.363 -2.6481 -4.34457 0
M  V30 2978 H 284.761 0.252274 -5.65137 0
M  V30 2979 H 283.318 -0.0937925 -6.51733 0
M  V30 2980 N 286.751 1.08385 -1.14413 0
M  V30 2981 C 287.981 1.8425 -0.934644 0
M  V30 2982 C 288.389 1.81907 0.520234 0
M  V30 2983 O 287.732 1.22126 1.37226 0
M  V30 2984 C 287.794 3.32853 -1.35828 0
M  V30 2985 C 287.458 3.5893 -2.82875 0
M  V30 2986 C 288.455 3.53756 -3.80989 0
M  V30 2987 C 286.14 3.86934 -3.20293 0
M  V30 2988 C 288.134 3.76216 -5.14529 0
M  V30 2989 C 285.821 4.09047 -4.54008 0
M  V30 2990 C 286.819 4.03682 -5.50936 0
M  V30 2991 O 286.507 4.25214 -6.82238 0
M  V30 2992 H 286.239 0.588502 -0.332628 0
M  V30 2993 H 288.793 1.37792 -1.52324 0
M  V30 2994 H 287.023 3.8007 -0.713019 0
M  V30 2995 H 288.712 3.90154 -1.11957 0
M  V30 2996 H 289.478 3.32135 -3.53428 0
M  V30 2997 H 285.357 3.9023 -2.45442 0
M  V30 2998 H 288.901 3.71943 -5.90173 0
M  V30 2999 H 284.798 4.30151 -4.8129 0
M  V30 3000 H 285.566 4.42619 -6.88499 0
M  V30 3001 N 288.23 0.939286 1.26551 0
M  V30 3002 C 289.16 0.465044 2.28822 0
M  V30 3003 C 290.141 -0.480692 1.63167 0
M  V30 3004 O 291.326 -0.382955 1.90387 0
M  V30 3005 C 288.456 -0.27234 3.46231 0
M  V30 3006 C 287.41 0.58666 4.2396 0
M  V30 3007 C 286.736 -0.280573 5.33963 0
M  V30 3008 C 288.036 1.85704 4.88171 0
M  V30 3009 H 289.73 1.31979 2.68741 0
M  V30 3010 H 287.276 0.636061 1.29191 0
M  V30 3011 H 289.229 -0.615133 4.16886 0
M  V30 3012 H 287.953 -1.16121 3.0526 0
M  V30 3013 H 286.612 0.91232 3.55067 0
M  V30 3014 H 286.26 -1.16874 4.89234 0
M  V30 3015 H 285.96 0.29076 5.8688 0
M  V30 3016 H 287.484 -0.618678 6.07458 0
M  V30 3017 H 288.898 1.58161 5.51052 0
M  V30 3018 H 287.295 2.37279 5.51197 0
M  V30 3019 H 288.365 2.56957 4.11219 0
M  V30 3020 N 289.708 -1.40897 0.706093 0
M  V30 3021 C 290.64 -2.29199 0.00815776 0
M  V30 3022 C 291.653 -1.45336 -0.733582 0
M  V30 3023 O 292.842 -1.68727 -0.582537 0
M  V30 3024 C 289.942 -3.23417 -1.01265 0
M  V30 3025 C 289.115 -4.36089 -0.338387 0
M  V30 3026 C 288.174 -5.10811 -1.26326 0
M  V30 3027 O 287.2 -5.64215 -0.751651 0
M  V30 3028 N 288.402 -5.19269 -2.595 0
M  V30 3029 H 291.167 -2.89738 0.766297 0
M  V30 3030 H 288.728 -1.52164 0.55296 0
M  V30 3031 H 290.72 -3.70276 -1.63334 0
M  V30 3032 H 289.29 -2.64112 -1.67223 0
M  V30 3033 H 288.51 -3.91479 0.462352 0
M  V30 3034 H 289.798 -5.08634 0.130031 0
M  V30 3035 H 289.196 -4.77347 -3.03573 0
M  V30 3036 H 287.753 -5.69667 -3.16737 0
M  V30 3037 N 291.186 -0.45159 -1.50991 0
M  V30 3038 C 292.118 0.388634 -2.25881 0
M  V30 3039 C 293.131 0.974041 -1.30446 0
M  V30 3040 O 294.32 0.865758 -1.56099 0
M  V30 3041 C 291.42 1.5571 -3.01011 0
M  V30 3042 C 290.593 1.08801 -4.23652 0
M  V30 3043 C 289.652 2.12825 -4.8124 0
M  V30 3044 O 288.678 1.71678 -5.42693 0
M  V30 3045 N 289.88 3.45453 -4.66522 0
M  V30 3046 H 292.645 -0.25329 -2.98628 0
M  V30 3047 H 290.206 -0.281268 -1.59438 0
M  V30 3048 H 292.198 2.24952 -3.3642 0
M  V30 3049 H 290.768 2.10409 -2.31186 0
M  V30 3050 H 289.988 0.22215 -3.93574 0
M  V30 3051 H 291.276 0.752213 -5.03209 0
M  V30 3052 H 290.674 3.81605 -4.17605 0
M  V30 3053 H 289.231 4.10549 -5.06254 0
M  V30 3054 N 292.664 1.56529 -0.183458 0
M  V30 3055 C 293.941 1.88959 0.50536 0
M  V30 3056 C 294.321 1.09523 1.80466 0
M  V30 3057 O 293.669 0.19278 2.27685 0
M  V30 3058 C 293.879 3.41162 0.73547 0
M  V30 3059 C 295.227 4.11155 1.06005 0
M  V30 3060 O 296.251 3.46548 0.823594 0
M  V30 3061 O 295.11 5.25318 1.50675 0
M  V30 3062 H 292.204 0.78441 0.261973 0
M  V30 3063 H 294.75 1.68231 -0.222802 0
M  V30 3064 H 293.522 3.90874 -0.182561 0
M  V30 3065 H 293.145 3.67543 1.51651 0
M  V30 3066 N 294.142 -0.090211 1.57342 0
M  V30 3067 C 295.105 -1.09335 2.01441 0
M  V30 3068 C 296.105 -1.32666 0.908641 0
M  V30 3069 O 297.295 -1.28697 1.174 0
M  V30 3070 C 294.427 -2.44136 2.3793 0
M  V30 3071 H 295.62 -0.713662 2.91285 0
M  V30 3072 H 293.173 -0.335404 1.52659 0
M  V30 3073 H 293.908 -2.86972 1.51055 0
M  V30 3074 H 293.693 -2.28548 3.18603 0
M  V30 3075 H 295.183 -3.16277 2.72688 0
M  V30 3076 N 295.62 -1.53406 -0.361157 0
M  V30 3077 C 296.568 -1.80832 -1.46296 0
M  V30 3078 C 297.562 -0.677699 -1.55253 0
M  V30 3079 O 298.768 -0.860723 -1.58087 0
M  V30 3080 H 295.143 -0.572627 -0.487445 0
M  V30 3081 H 297.114 -2.73045 -1.20371 0
M  V30 3082 C 295.863 -2.01907 -2.8307 0
M  V30 3083 H 295.186 -2.88349 -2.76938 0
M  V30 3084 H 296.626 -2.25072 -3.59331 0
M  V30 3085 C 295.085 -0.799449 -3.27277 0
M  V30 3086 O 295.615 0.00971761 -4.01699 0
M  V30 3087 N 293.821 -0.621637 -2.83873 0
M  V30 3088 H 293.368 -1.28126 -2.23476 0
M  V30 3089 H 293.326 0.19298 -3.13807 0
M  V30 3090 N 297.098 0.621204 -1.44841 0
M  V30 3091 C 298.008 1.7612 -1.5498 0
M  V30 3092 C 299.024 1.68477 -0.434927 0
M  V30 3093 O 300.2 1.89076 -0.693693 0
M  V30 3094 C 297.265 3.1254 -1.50065 0
M  V30 3095 C 296.326 3.31741 -2.72482 0
M  V30 3096 C 295.559 4.61653 -2.67792 0
M  V30 3097 O 295.782 5.431 -1.74352 0
M  V30 3098 O 294.716 4.83271 -3.58794 0
M  V30 3099 H 298.542 1.70518 -2.51311 0
M  V30 3100 H 296.127 0.783643 -1.27198 0
M  V30 3101 H 298.009 3.93844 -1.49882 0
M  V30 3102 H 296.684 3.18663 -0.568806 0
M  V30 3103 H 295.591 2.50077 -2.7823 0
M  V30 3104 H 296.924 3.30486 -3.64746 0
M  V30 3105 N 298.576 1.31904 0.862503 0
M  V30 3106 C 299.816 1.23324 1.63004 0
M  V30 3107 C 300.18 -0.203724 1.90916 0
M  V30 3108 O 301.381 -0.413132 2.65606 0
M  V30 3109 C 299.652 2.06116 2.91978 0
M  V30 3110 S 301.211 2.14478 3.82812 0
M  V30 3111 H 298.029 0.439117 0.559193 0
M  V30 3112 H 300.631 1.66658 1.02202 0
M  V30 3113 H 299.335 3.09593 2.69407 0
M  V30 3114 H 298.866 1.6353 3.57801 0
M  V30 3115 H 300.881 1.28855 4.79177 0
M  V30 3116 N 300.054 -1.07777 1.14986 0
M  V30 3117 C 301.3 -1.80719 0.93339 0
M  V30 3118 C 301.655 -1.8484 -0.534019 0
M  V30 3119 O 300.948 -1.31795 -1.3907 0
M  V30 3120 C 301.142 -3.25495 1.47608 0
M  V30 3121 C 300.971 -3.3548 2.99472 0
M  V30 3122 C 299.741 -3.46293 3.6798 0
M  V30 3123 C 301.939 -3.26596 3.97291 0
M  V30 3124 N 299.921 -3.45136 5.07695 0
M  V30 3125 C 301.292 -3.32506 5.23297 0
M  V30 3126 C 303.347 -3.10376 3.89321 0
M  V30 3127 C 302.05 -3.23866 6.42264 0
M  V30 3128 C 304.076 -3.03069 5.07842 0
M  V30 3129 C 303.438 -3.09587 6.32721 0
M  V30 3130 H 299.537 -0.674814 0.395158 0
M  V30 3131 H 302.121 -1.28681 1.46114 0
M  V30 3132 H 300.292 -3.75963 0.975022 0
M  V30 3133 H 302.024 -3.86535 1.19887 0
M  V30 3134 H 298.779 -3.50456 3.18555 0
M  V30 3135 H 299.203 -3.48097 5.80653 0
M  V30 3136 H 303.845 -3.04194 2.93642 0
M  V30 3137 H 301.563 -3.28807 7.38181 0
M  V30 3138 H 305.149 -2.91629 5.03432 0
M  V30 3139 H 304.029 -3.0397 7.22891 0
M  V30 3140 N 301.532 -0.945985 -1.26051 0
M  V30 3141 C 302.781 -0.591836 -1.92822 0
M  V30 3142 C 303.094 0.873956 -1.7499 0
M  V30 3143 O 304.3 1.33769 -2.36259 0
M  V30 3144 C 302.756 -1.00776 -3.45503 0
M  V30 3145 C 302.364 -2.4955 -3.7206 0
M  V30 3146 C 304.108 -0.725735 -4.1825 0
M  V30 3147 C 302.015 -2.84988 -5.18205 0
M  V30 3148 H 300.945 -0.217635 -0.721908 0
M  V30 3149 H 303.596 -1.14927 -1.43052 0
M  V30 3150 H 301.978 -0.378812 -3.94184 0
M  V30 3151 H 303.152 -3.1739 -3.34066 0
M  V30 3152 H 301.467 -2.75133 -3.12555 0
M  V30 3153 H 304.064 -0.966771 -5.25887 0
M  V30 3154 H 304.407 0.337639 -4.14929 0
M  V30 3155 H 304.94 -1.31463 -3.7545 0
M  V30 3156 H 301.679 -3.90307 -5.26631 0
M  V30 3157 H 301.199 -2.21813 -5.57278 0
M  V30 3158 H 302.878 -2.73712 -5.86252 0
M  V30 3159 N 303.011 1.40521 -0.713556 0
M  V30 3160 C 303.943 2.29191 -0.0203126 0
M  V30 3161 C 304.956 1.45723 0.725864 0
M  V30 3162 O 306.145 1.69033 0.573581 0
M  V30 3163 C 303.245 3.2395 0.995486 0
M  V30 3164 C 302.418 4.36262 0.315256 0
M  V30 3165 C 301.477 5.11474 1.23616 0
M  V30 3166 O 300.503 5.64606 0.721719 0
M  V30 3167 N 301.705 5.20638 2.56743 0
M  V30 3168 H 304.47 2.89327 -0.781652 0
M  V30 3169 H 302.031 1.51869 -0.561022 0
M  V30 3170 H 304.023 3.71137 1.61368 0
M  V30 3171 H 302.593 2.64995 1.6582 0
M  V30 3172 H 301.813 3.91228 -0.483106 0
M  V30 3173 H 303.101 5.08558 -0.157004 0
M  V30 3174 H 302.499 4.7895 3.01037 0
M  V30 3175 H 301.056 5.71339 3.13712 0
M  V30 3176 N 304.489 0.459591 1.5075 0
M  V30 3177 C 305.422 -0.386257 2.24907 0
M  V30 3178 C 306.4 -1.006 1.27744 0
M  V30 3179 O 307.584 -1.04416 1.56938 0
M  V30 3180 C 304.711 -1.54021 3.01654 0
M  V30 3181 C 303.757 -1.03898 4.13651 0
M  V30 3182 S 304.59 0.0370501 5.35487 0
M  V30 3183 C 305.746 -1.12105 6.15779 0
M  V30 3184 H 305.979 0.243272 2.96303 0
M  V30 3185 H 303.512 0.244339 1.52454 0
M  V30 3186 H 305.47 -2.20163 3.46466 0
M  V30 3187 H 304.131 -2.14121 2.29806 0
M  V30 3188 H 303.324 -1.90254 4.66711 0
M  V30 3189 H 302.926 -0.45545 3.71216 0
M  V30 3190 H 305.218 -2.03501 6.46215 0
M  V30 3191 H 306.161 -0.62995 7.05292 0
M  V30 3192 H 306.569 -1.36967 5.47631 0
M  V30 3193 N 305.967 -1.56429 0.191757 0
M  V30 3194 C 306.9 -2.14829 -0.76967 0
M  V30 3195 C 307.878 -1.08405 -1.2119 0
M  V30 3196 O 309.062 -1.36498 -1.30002 0
M  V30 3197 C 306.189 -2.70446 -2.03903 0
M  V30 3198 C 305.235 -3.89428 -1.7392 0
M  V30 3199 S 306.068 -5.28048 -0.890265 0
M  V30 3200 C 307.224 -5.87085 -2.16984 0
M  V30 3201 H 307.457 -2.96042 -0.273204 0
M  V30 3202 H 304.99 -1.54383 -0.0231975 0
M  V30 3203 H 306.948 -3.03134 -2.76803 0
M  V30 3204 H 305.609 -1.89281 -2.50662 0
M  V30 3205 H 304.802 -4.26742 -2.68155 0
M  V30 3206 H 304.404 -3.57732 -1.09103 0
M  V30 3207 H 306.696 -6.01244 -3.12269 0
M  V30 3208 H 307.639 -6.83747 -1.84108 0
M  V30 3209 H 308.047 -5.15663 -2.29678 0
M  V30 3210 N 307.445 0.0818655 -1.57387 0
M  V30 3211 C 308.861 0.436412 -1.53517 0
M  V30 3212 C 309.061 1.79758 -0.910459 0
M  V30 3213 O 308.117 2.47324 -0.508636 0
M  V30 3214 C 309.43 0.386734 -2.98203 0
M  V30 3215 C 310.978 0.467644 -3.09487 0
M  V30 3216 C 311.453 0.447978 -4.55804 0
M  V30 3217 N 312.944 0.508348 -4.60402 0
M  V30 3218 C 313.679 0.515184 -5.71081 0
M  V30 3219 N 313.175 0.477435 -6.91153 0
M  V30 3220 N 314.968 0.560988 -5.59294 0
M  V30 3221 H 307.119 -0.809546 -1.96367 0
M  V30 3222 H 309.382 -0.302733 -0.898363 0
M  V30 3223 H 309.088 -0.546539 -3.47427 0
M  V30 3224 H 308.962 1.20075 -3.57578 0
M  V30 3225 H 311.349 1.39134 -2.60242 0
M  V30 3226 H 311.43 -0.374753 -2.5304 0
M  V30 3227 H 311.074 -0.471826 -5.05704 0
M  V30 3228 H 311.004 1.30777 -5.10103 0
M  V30 3229 H 313.495 0.54218 -3.7399 0
M  V30 3230 H 313.808 0.486299 -7.71268 0
M  V30 3231 H 312.153 0.444278 -6.93579 0
M  V30 3232 H 315.344 0.5881 -4.64391 0
M  V30 3233 H 315.517 0.562846 -6.45551 0
M  V30 3234 N 308.923 1.53595 0.353017 0
M  V30 3235 C 310.169 1.70638 1.09593 0
M  V30 3236 C 310.502 0.463286 1.88593 0
M  V30 3237 O 309.777 -0.539597 1.86865 0
M  V30 3238 C 310.06 2.96406 2.04489 0
M  V30 3239 C 309.913 4.30901 1.29014 0
M  V30 3240 C 311.232 3.17812 3.0444 0
M  V30 3241 H 308.351 0.620913 0.397034 0
M  V30 3242 H 310.993 1.86254 0.375446 0
M  V30 3243 H 309.143 2.83223 2.65927 0
M  V30 3244 H 310.815 4.55917 0.702638 0
M  V30 3245 H 309.058 4.29741 0.592071 0
M  V30 3246 H 309.729 5.1506 1.98537 0
M  V30 3247 H 312.205 3.30263 2.53112 0
M  V30 3248 H 311.081 4.07223 3.6805 0
M  V30 3249 H 311.342 2.33669 3.75301 0
M  V30 3250 N 310.401 -0.613514 1.45168 0
M  V30 3251 C 311.331 -1.7354 1.56225 0
M  V30 3252 C 312.312 -1.64981 0.41414 0
M  V30 3253 O 313.497 -1.83472 0.636526 0
M  V30 3254 C 310.627 -3.12128 1.52295 0
M  V30 3255 C 309.581 -3.35491 2.65762 0
M  V30 3256 C 308.907 -4.74291 2.46885 0
M  V30 3257 C 310.207 -3.26325 4.0781 0
M  V30 3258 H 311.901 -1.64543 2.50132 0
M  V30 3259 H 309.447 -0.790185 1.20383 0
M  V30 3260 H 311.4 -3.90404 1.58628 0
M  V30 3261 H 310.124 -3.2195 0.549139 0
M  V30 3262 H 308.783 -2.59603 2.58847 0
M  V30 3263 H 308.431 -4.80839 1.47657 0
M  V30 3264 H 308.131 -4.9088 3.22972 0
M  V30 3265 H 309.655 -5.54775 2.55063 0
M  V30 3266 H 311.069 -3.94483 4.16 0
M  V30 3267 H 309.466 -3.54445 4.8424 0
M  V30 3268 H 310.536 -2.23855 4.30136 0
M  V30 3269 N 311.879 -1.3236 -0.855495 0
M  V30 3270 C 312.811 -1.17052 -1.97057 0
M  V30 3271 C 313.824 -0.10574 -1.62456 0
M  V30 3272 O 315.013 -0.354619 -1.74942 0
M  V30 3273 C 312.113 -0.769305 -3.30053 0
M  V30 3274 C 311.286 -1.9222 -3.929 0
M  V30 3275 C 310.345 -1.50466 -5.04228 0
M  V30 3276 O 309.371 -2.21655 -5.24269 0
M  V30 3277 N 310.573 -0.400209 -5.79119 0
M  V30 3278 H 313.338 -2.13103 -2.1073 0
M  V30 3279 H 310.899 -1.24885 -1.0303 0
M  V30 3280 H 312.891 -0.472407 -4.01933 0
M  V30 3281 H 311.461 0.100025 -3.1244 0
M  V30 3282 H 310.681 -2.38563 -3.13817 0
M  V30 3283 H 311.969 -2.69403 -4.31624 0
M  V30 3284 H 311.367 0.192319 -5.65373 0
M  V30 3285 H 309.924 -0.162912 -6.51596 0
M  V30 3286 N 313.357 1.07166 -1.15556 0
M  V30 3287 C 314.289 2.14341 -0.811815 0
M  V30 3288 C 315.302 1.61835 0.177015 0
M  V30 3289 O 316.491 1.78439 -0.0464996 0
M  V30 3290 C 313.591 3.38387 -0.186481 0
M  V30 3291 C 312.764 4.20238 -1.21321 0
M  V30 3292 C 311.823 5.2266 -0.609302 0
M  V30 3293 O 310.849 5.54719 -1.27576 0
M  V30 3294 N 312.051 5.77306 0.608099 0
M  V30 3295 H 314.816 2.44431 -1.73417 0
M  V30 3296 H 312.377 1.23089 -1.0517 0
M  V30 3297 H 314.369 4.04044 0.230339 0
M  V30 3298 H 312.939 3.05994 0.639249 0
M  V30 3299 H 312.159 3.50369 -1.80652 0
M  V30 3300 H 313.447 4.71736 -1.90638 0
M  V30 3301 H 312.845 5.53513 1.1679 0
M  V30 3302 H 311.402 6.44583 0.96725 0
M  V30 3303 N 314.835 0.952656 1.25548 0
M  V30 3304 C 315.782 0.47008 2.25962 0
M  V30 3305 C 316.752 -0.476384 1.59122 0
M  V30 3306 O 317.937 -0.39007 1.8677 0
M  V30 3307 C 315.077 -0.247881 3.44209 0
M  V30 3308 C 314.19 0.735591 4.25691 0
M  V30 3309 C 313.325 -0.0047306 5.312 0
M  V30 3310 C 312.364 0.969805 6.04368 0
M  V30 3311 N 311.501 0.260486 7.01617 0
M  V30 3312 H 316.341 1.33126 2.66611 0
M  V30 3313 H 313.878 0.66765 1.31076 0
M  V30 3314 H 315.836 -0.680695 4.1161 0
M  V30 3315 H 314.466 -1.07312 3.0444 0
M  V30 3316 H 313.518 1.28689 3.57971 0
M  V30 3317 H 314.83 1.47934 4.76358 0
M  V30 3318 H 313.984 -0.496275 6.04667 0
M  V30 3319 H 312.723 -0.781282 4.81401 0
M  V30 3320 H 311.728 1.47237 5.29718 0
M  V30 3321 H 312.953 1.74655 6.56256 0
M  V30 3322 H 310.899 -0.497364 6.54112 0
M  V30 3323 H 310.816 0.943362 7.50091 0
M  V30 3324 H 312.084 -0.209587 7.79218 0
M  V30 3325 N 316.313 -1.40141 0.720998 0
M  V30 3326 C 317.243 -2.33339 0.0867621 0
M  V30 3327 C 318.224 -1.53178 -0.739622 0
M  V30 3328 O 319.409 -1.81625 -0.687449 0
M  V30 3329 C 316.539 -3.37194 -0.831728 0
M  V30 3330 C 315.493 -4.27857 -0.110558 0
M  V30 3331 C 314.819 -5.22294 -1.14513 0
M  V30 3332 C 316.119 -5.11872 1.0385 0
M  V30 3333 H 317.813 -2.86626 0.865219 0
M  V30 3334 H 315.359 -1.37814 0.417516 0
M  V30 3335 H 317.312 -4.01335 -1.28485 0
M  V30 3336 H 316.036 -2.82314 -1.64214 0
M  V30 3337 H 314.695 -3.65176 0.322797 0
M  V30 3338 H 314.343 -4.63717 -1.94874 0
M  V30 3339 H 314.043 -5.83797 -0.667446 0
M  V30 3340 H 315.567 -5.89312 -1.59824 0
M  V30 3341 H 316.981 -5.69436 0.664482 0
M  V30 3342 H 315.378 -5.82445 1.4449 0
M  V30 3343 H 316.448 -4.4753 1.86668 0
M  V30 3344 N 317.792 -0.46758 -1.50504 0
M  V30 3345 C 318.702 0.33382 -2.32213 0
M  V30 3346 C 319.718 0.999323 -1.42441 0
M  V30 3347 O 320.894 0.988068 -1.75497 0
M  V30 3348 C 317.959 1.4035 -3.17022 0
M  V30 3349 C 317.02 0.754961 -4.2261 0
M  V30 3350 C 316.253 1.77367 -5.03365 0
M  V30 3351 O 316.476 2.99976 -4.8515 0
M  V30 3352 O 315.41 1.34744 -5.86624 0
M  V30 3353 H 319.236 -0.334067 -3.01857 0
M  V30 3354 H 316.821 -0.229496 -1.47627 0
M  V30 3355 H 318.703 2.02318 -3.69656 0
M  V30 3356 H 317.378 2.05492 -2.5011 0
M  V30 3357 H 316.285 0.0964244 -3.73976 0
M  V30 3358 H 317.618 0.146545 -4.91982 0
M  V30 3359 N 319.27 1.56325 -0.20005 0
M  V30 3360 C 320.233 2.18084 0.705132 0
M  V30 3361 C 321.233 1.13666 1.1374 0
M  V30 3362 O 322.423 1.39023 1.04968 0
M  V30 3363 C 319.555 2.78689 1.96329 0
M  V30 3364 H 320.748 2.99435 0.167023 0
M  V30 3365 H 318.301 1.56221 0.0495725 0
M  V30 3366 H 319.036 2.0115 2.5438 0
M  V30 3367 H 318.821 3.55133 1.66202 0
M  V30 3368 H 320.311 3.26096 2.60866 0
M  V30 3369 N 320.748 -0.0735177 1.57428 0
M  V30 3370 C 321.997 -0.771809 1.86349 0
M  V30 3371 C 322.31 -1.78828 0.792452 0
M  V30 3372 O 323.516 -2.53602 0.96945 0
M  V30 3373 C 321.972 -1.42358 3.30548 0
M  V30 3374 C 321.58 -0.445761 4.45777 0
M  V30 3375 C 323.324 -2.10434 3.6867 0
M  V30 3376 C 321.231 -1.10335 5.81016 0
M  V30 3377 H 320.161 -0.291999 0.695164 0
M  V30 3378 H 322.812 -0.0250749 1.83483 0
M  V30 3379 H 321.194 -2.21852 3.28021 0
M  V30 3380 H 322.368 0.319239 4.59693 0
M  V30 3381 H 320.683 0.130457 4.16196 0
M  V30 3382 H 323.28 -2.60405 4.67004 0
M  V30 3383 H 323.623 -2.90298 2.98383 0
M  V30 3384 H 324.156 -1.37773 3.7318 0
M  V30 3385 H 320.895 -0.345061 6.54591 0
M  V30 3386 H 320.415 -1.83925 5.70904 0
M  V30 3387 H 322.094 -1.62367 6.26295 0
M  V30 3388 N 322.226 -1.5378 -0.344866 0
M  V30 3389 C 323.136 -1.84667 -1.4469 0
M  V30 3390 C 324.152 -0.736704 -1.57635 0
M  V30 3391 O 325.328 -1.02888 -1.73136 0
M  V30 3392 C 322.393 -2.04869 -2.79696 0
M  V30 3393 C 321.454 -3.28731 -2.76106 0
M  V30 3394 C 320.687 -3.4796 -4.04673 0
M  V30 3395 O 320.91 -2.71052 -5.01883 0
M  V30 3396 O 319.844 -4.41383 -4.09224 0
M  V30 3397 H 323.67 -2.78334 -1.21506 0
M  V30 3398 H 321.255 -1.39418 -0.536921 0
M  V30 3399 H 323.137 -2.19609 -3.59652 0
M  V30 3400 H 321.812 -1.14391 -3.02814 0
M  V30 3401 H 320.719 -3.19396 -1.94774 0
M  V30 3402 H 322.052 -4.19198 -2.57941 0
M  V30 3403 N 323.704 0.605807 -1.45491 0
M  V30 3404 C 324.981 1.36522 -1.40075 0
M  V30 3405 C 325.361 2.10976 -0.0722744 0
M  V30 3406 O 324.709 2.08007 0.945808 0
M  V30 3407 C 324.919 2.31056 -2.61561 0
M  V30 3408 C 326.267 2.93608 -3.06724 0
M  V30 3409 O 327.291 2.41376 -2.61946 0
M  V30 3410 O 326.15 3.88421 -3.84437 0
M  V30 3411 H 323.244 0.612248 -0.555951 0
M  V30 3412 H 325.79 0.628747 -1.57623 0
M  V30 3413 H 324.562 1.75311 -3.49831 0
M  V30 3414 H 324.185 3.12081 -2.46356 0
M  V30 3415 N 325.182 1.32811 0.848464 0
M  V30 3416 C 326.459 1.14334 1.58704 0
M  V30 3417 C 326.839 -0.293948 2.09043 0
M  V30 3418 O 326.187 -1.29153 1.88499 0
M  V30 3419 C 326.397 2.17626 2.72837 0
M  V30 3420 C 327.745 2.51282 3.42261 0
M  V30 3421 O 328.769 2.16219 2.83068 0
M  V30 3422 O 327.628 3.11413 4.49093 0
M  V30 3423 H 324.722 0.441601 0.699226 0
M  V30 3424 H 327.268 1.44362 0.892053 0
M  V30 3425 H 326.04 3.14211 2.3321 0
M  V30 3426 H 325.663 1.88628 3.50008 0
M  V30 3427 N 326.66 -1.06551 1.16123 0
M  V30 3428 C 327.885 -1.83544 0.965735 0
M  V30 3429 C 328.31 -1.81843 -0.481102 0
M  V30 3430 O 327.668 -1.21732 -1.34354 0
M  V30 3431 C 327.716 -3.28169 1.49457 0
M  V30 3432 O 326.82 -4.0643 0.699157 0
M  V30 3433 H 326.161 -0.568026 0.343864 0
M  V30 3434 H 328.691 -1.34362 1.54299 0
M  V30 3435 H 328.701 -3.78992 1.51092 0
M  V30 3436 H 327.376 -3.28722 2.54784 0
M  V30 3437 H 325.953 -3.65216 0.7531 0
M  V30 3438 N 328.138 -0.959301 -1.25041 0
M  V30 3439 C 329.384 -0.617525 -1.9317 0
M  V30 3440 C 329.717 0.843981 -1.74902 0
M  V30 3441 O 328.992 1.60615 -1.09696 0
M  V30 3442 C 329.275 -0.982736 -3.46431 0
M  V30 3443 C 329.128 -2.50032 -3.73904 0
M  V30 3444 C 330.447 -0.511176 -4.37121 0
M  V30 3445 H 327.566 -0.22582 -0.701552 0
M  V30 3446 H 330.208 -1.19679 -1.4757 0
M  V30 3447 H 328.358 -0.489806 -3.854 0
M  V30 3448 H 330.03 -3.06737 -3.44544 0
M  V30 3449 H 328.273 -2.93598 -3.19348 0
M  V30 3450 H 328.944 -2.70635 -4.81103 0
M  V30 3451 H 331.42 -0.934075 -4.0548 0
M  V30 3452 H 330.296 -0.795361 -5.43107 0
M  V30 3453 H 330.557 0.588834 -4.38161 0
M  V30 3454 N 329.616 1.39756 -0.72842 0
M  V30 3455 C 330.563 2.30647 -0.0841519 0
M  V30 3456 C 331.533 1.48869 0.7367 0
M  V30 3457 O 332.718 1.77574 0.698015 0
M  V30 3458 C 329.858 3.35165 0.822091 0
M  V30 3459 C 328.971 4.31999 -0.0106663 0
M  V30 3460 C 328.106 5.23585 0.896241 0
M  V30 3461 C 327.145 6.12072 0.0583381 0
M  V30 3462 N 326.282 6.96035 0.920818 0
M  V30 3463 H 331.122 2.85173 -0.864891 0
M  V30 3464 H 328.659 1.40422 -0.438179 0
M  V30 3465 H 330.617 3.94345 1.36189 0
M  V30 3466 H 329.247 2.8211 1.56888 0
M  V30 3467 H 328.299 3.74492 -0.66781 0
M  V30 3468 H 329.611 4.9443 -0.658825 0
M  V30 3469 H 328.765 5.87759 1.50412 0
M  V30 3470 H 327.504 4.61459 1.57819 0
M  V30 3471 H 326.509 5.46916 -0.562389 0
M  V30 3472 H 327.734 6.76261 -0.6203 0
M  V30 3473 H 325.68 6.36485 1.58818 0
M  V30 3474 H 325.597 7.55284 0.32899 0
M  V30 3475 H 326.865 7.64646 1.51447 0
M  V30 3476 N 331.094 0.475555 1.50254 0
M  V30 3477 C 332.004 -0.321501 2.32387 0
M  V30 3478 C 333.02 -0.991755 1.42969 0
M  V30 3479 O 334.196 -0.978747 1.76018 0
M  V30 3480 C 331.261 -1.38667 3.17762 0
M  V30 3481 C 330.322 -0.732538 4.23004 0
M  V30 3482 C 329.555 -1.74695 5.04299 0
M  V30 3483 O 329.778 -2.97399 4.86734 0
M  V30 3484 O 328.712 -1.31631 5.8733 0
M  V30 3485 H 332.538 0.350071 3.01676 0
M  V30 3486 H 330.123 0.237321 1.47503 0
M  V30 3487 H 332.005 -2.00354 3.70724 0
M  V30 3488 H 330.68 -2.04163 2.51196 0
M  V30 3489 H 329.587 -0.0765902 3.74022 0
M  V30 3490 H 330.92 -0.120452 4.92053 0
M  V30 3491 N 332.573 -1.56217 0.208337 0
M  V30 3492 C 333.801 -2.02337 -0.43215 0
M  V30 3493 C 334.216 -1.08834 -1.54275 0
M  V30 3494 O 333.573 -0.0955462 -1.8225 0
M  V30 3495 C 333.624 -3.48072 -0.976138 0
M  V30 3496 O 333.345 -4.38007 0.0901621 0
M  V30 3497 C 334.846 -4.09773 -1.69119 0
M  V30 3498 H 332.066 -0.662385 -0.10718 0
M  V30 3499 H 334.61 -2.01966 0.320923 0
M  V30 3500 H 332.765 -3.49099 -1.67954 0
M  V30 3501 H 333.179 -5.23543 -0.316701 0
M  V30 3502 H 334.653 -5.13556 -2.02397 0
M  V30 3503 H 335.13 -3.53999 -2.59964 0
M  V30 3504 H 335.736 -4.12556 -1.03332 0
M  V30 3505 N 334.051 0.0651679 -1.57465 0
M  V30 3506 C 335.328 0.79644 -1.78651 0
M  V30 3507 C 335.708 1.95454 -0.797566 0
M  V30 3508 O 335.056 2.27882 0.167946 0
M  V30 3509 C 335.266 1.26322 -3.25337 0
M  V30 3510 C 336.614 1.6939 -3.89348 0
M  V30 3511 O 337.638 1.35872 -3.29268 0
M  V30 3512 O 336.497 2.31471 -4.95059 0
M  V30 3513 H 333.591 0.382157 -0.733407 0
M  V30 3514 H 336.137 0.0447311 -1.69641 0
M  V30 3515 H 334.909 0.434859 -3.88876 0
M  V30 3516 H 334.532 2.07604 -3.39096 0
M  V30 3517 N 335.529 1.53961 0.336706 0
M  V30 3518 C 336.754 1.75797 1.10046 0
M  V30 3519 C 337.179 0.498985 1.81361 0
M  V30 3520 O 336.537 -0.548769 1.72795 0
M  V30 3521 C 336.585 2.94257 2.08436 0
M  V30 3522 O 335.689 2.64883 3.16087 0
M  V30 3523 H 335.03 0.582936 0.317934 0
M  V30 3524 H 337.56 2.00945 0.38501 0
M  V30 3525 H 337.57 3.21237 2.51537 0
M  V30 3526 H 336.245 3.85564 1.55927 0
M  V30 3527 H 334.822 2.48812 2.77753 0
M  V30 3528 N 337.007 -0.598083 1.45811 0
M  V30 3529 C 338.232 -1.3881 1.54099 0
M  V30 3530 C 338.657 -1.8726 0.177578 0
M  V30 3531 O 338.015 -1.6069 -0.839541 0
M  V30 3532 C 338.063 -2.56217 2.53743 0
M  V30 3533 O 337.167 -3.5716 2.06182 0
M  V30 3534 H 336.508 -0.414024 0.519115 0
M  V30 3535 H 339.038 -0.726971 1.91249 0
M  V30 3536 H 339.048 -3.03337 2.72856 0
M  V30 3537 H 337.723 -2.20303 3.5276 0
M  V30 3538 H 336.3 -3.16624 1.96987 0
M  V30 3539 N 338.485 -1.33259 -0.841409 0
M  V30 3540 C 339.71 -1.2775 -1.63385 0
M  V30 3541 C 340.135 0.149188 -1.87507 0
M  V30 3542 O 339.493 1.10498 -1.43736 0
M  V30 3543 C 339.541 -2.05571 -2.96265 0
M  V30 3544 O 338.645 -1.41257 -3.87453 0
M  V30 3545 H 337.986 -0.439627 -0.497618 0
M  V30 3546 H 340.516 -1.75782 -1.04699 0
M  V30 3547 H 340.526 -2.16241 -3.45982 0
M  V30 3548 H 339.201 -3.09309 -2.7803 0
M  V30 3549 H 337.778 -1.39217 -3.45938 0
M  V30 3550 N 339.963 1.05934 -1.16686 0
M  V30 3551 C 340.926 2.11669 -0.879144 0
M  V30 3552 C 341.926 1.60294 0.127445 0
M  V30 3553 O 343.116 1.7389 -0.103865 0
M  V30 3554 C 340.248 3.39438 -0.315425 0
M  V30 3555 H 341.441 2.38626 -1.81653 0
M  V30 3556 H 338.994 1.22058 -0.976299 0
M  V30 3557 H 339.729 3.18132 0.629468 0
M  V30 3558 H 339.514 3.78034 -1.04079 0
M  V30 3559 H 341.004 4.17391 -0.132189 0
M  V30 3560 N 341.441 0.965919 1.2453 0
M  V30 3561 C 342.666 0.643971 1.97149 0
M  V30 3562 C 343.091 -0.779487 1.71189 0
M  V30 3563 O 342.449 -1.5288 0.974553 0
M  V30 3564 C 342.497 0.922557 3.48599 0
M  V30 3565 O 341.601 0.00707672 4.12399 0
M  V30 3566 H 340.942 0.243647 0.617683 0
M  V30 3567 H 343.472 1.29558 1.58353 0
M  V30 3568 H 343.482 0.853373 3.98976 0
M  V30 3569 H 342.157 1.95996 3.66822 0
M  V30 3570 H 340.734 0.12943 3.72675 0
M  V30 3571 N 342.919 -1.39368 0.735821 0
M  V30 3572 C 343.882 -2.2896 0.104874 0
M  V30 3573 C 344.882 -1.46347 -0.666274 0
M  V30 3574 O 346.072 -1.67014 -0.49517 0
M  V30 3575 C 343.204 -3.29857 -0.860656 0
M  V30 3576 H 344.397 -2.86259 0.894205 0
M  V30 3577 H 341.95 -1.48029 0.501704 0
M  V30 3578 H 342.685 -2.77615 -1.67631 0
M  V30 3579 H 342.47 -3.9087 -0.310327 0
M  V30 3580 H 343.96 -3.96893 -1.29867 0
M  V30 3581 N 344.397 -0.483516 -1.5 0
M  V30 3582 C 345.36 0.292965 -2.2732 0
M  V30 3583 C 346.36 0.909499 -1.32608 0
M  V30 3584 O 347.55 0.776745 -1.55924 0
M  V30 3585 C 344.682 1.41854 -3.09984 0
M  V30 3586 H 345.875 -0.385289 -2.97415 0
M  V30 3587 H 343.428 -0.237942 -1.54478 0
M  V30 3588 H 344.163 2.13148 -2.44414 0
M  V30 3589 H 343.948 0.982114 -3.79601 0
M  V30 3590 H 345.438 1.96597 -3.68429 0
M  V30 3591 N 345.875 1.56104 -0.216619 0
M  V30 3592 C 347.103 2.02563 0.421413 0
M  V30 3593 C 347.518 1.0965 1.53695 0
M  V30 3594 O 346.875 0.10521 1.82196 0
M  V30 3595 C 346.926 3.48584 0.957665 0
M  V30 3596 O 346.647 4.37953 -0.113389 0
M  V30 3597 C 348.148 4.10664 1.66943 0
M  V30 3598 H 345.368 0.662944 0.103665 0
M  V30 3599 H 347.912 2.01793 -0.331629 0
M  V30 3600 H 346.067 3.49985 1.661 0
M  V30 3601 H 346.481 5.23704 0.288932 0
M  V30 3602 H 347.955 5.14622 1.99671 0
M  V30 3603 H 348.432 3.55373 2.58083 0
M  V30 3604 H 349.038 4.13098 1.01142 0
M  V30 3605 N 347.353 -0.0568162 1.57498 0
M  V30 3606 C 348.764 -0.606858 1.76562 0
M  V30 3607 C 349.115 -1.77114 0.844094 0
M  V30 3608 O 348.24 -2.16376 0.0318911 0
M  V30 3609 C 348.835 -1.10766 3.20182 0
M  V30 3610 C 347.394 -1.60344 3.40539 0
M  V30 3611 C 346.541 -0.529311 2.72201 0
M  V30 3612 H 349.492 0.169393 1.57793 0
M  V30 3613 H 349.513 -1.97602 3.25167 0
M  V30 3614 H 349.025 -0.26006 3.87228 0
M  V30 3615 H 347.126 -2.47379 2.78629 0
M  V30 3616 H 347.239 -1.67006 4.4905 0
M  V30 3617 H 345.603 -0.977893 2.35179 0
M  V30 3618 H 346.386 0.308352 3.41912 0
M  V30 3619 N 348.832 -1.54138 -0.328536 0
M  V30 3620 C 350.057 -1.76378 -1.09112 0
M  V30 3621 C 350.482 -0.508596 -1.81094 0
M  V30 3622 O 349.84 0.539598 -1.73084 0
M  V30 3623 C 349.888 -2.95358 -2.06872 0
M  V30 3624 O 348.992 -2.66556 -3.14677 0
M  V30 3625 H 348.333 -0.584614 -0.314838 0
M  V30 3626 H 350.863 -2.01146 -0.374348 0
M  V30 3627 H 350.873 -3.22566 -2.4983 0
M  V30 3628 H 349.548 -3.86385 -1.5388 0
M  V30 3629 H 348.125 -2.50282 -2.7643 0
M  V30 3630 N 350.31 0.590341 -1.46126 0
M  V30 3631 C 351.257 1.69994 -1.56111 0
M  V30 3632 C 352.227 1.61065 -0.405867 0
M  V30 3633 O 353.412 1.8039 -0.621613 0
M  V30 3634 C 350.552 3.08326 -1.55013 0
M  V30 3635 C 349.665 3.27936 -2.81215 0
M  V30 3636 C 348.8 4.56473 -2.71673 0
M  V30 3637 C 347.839 4.694 -3.92849 0
M  V30 3638 N 346.976 5.89254 -3.81738 0
M  V30 3639 H 351.816 1.60797 -2.50895 0
M  V30 3640 H 349.353 0.783799 -1.24479 0
M  V30 3641 H 351.311 3.88383 -1.52362 0
M  V30 3642 H 349.941 3.16439 -0.637667 0
M  V30 3643 H 348.993 2.41536 -2.93879 0
M  V30 3644 H 350.305 3.33357 -3.71045 0
M  V30 3645 H 349.459 5.44748 -2.67085 0
M  V30 3646 H 348.198 4.53477 -1.7947 0
M  V30 3647 H 347.203 3.79544 -3.97777 0
M  V30 3648 H 348.428 4.7418 -4.86138 0
M  V30 3649 H 346.374 5.87271 -2.92317 0
M  V30 3650 H 346.291 5.95911 -4.65217 0
M  V30 3651 H 347.559 6.79981 -3.81112 0
M  V30 3652 N 351.788 1.33704 0.83433 0
M  V30 3653 C 352.735 1.24335 1.94447 0
M  V30 3654 C 353.705 0.120991 1.65659 0
M  V30 3655 O 354.89 0.300035 1.88426 0
M  V30 3656 C 352.03 0.993124 3.30501 0
M  V30 3657 C 351.143 2.20217 3.71657 0
M  V30 3658 C 350.278 1.88572 4.96602 0
M  V30 3659 C 349.317 3.05683 5.30306 0
M  V30 3660 N 348.454 2.73997 6.46429 0
M  V30 3661 H 353.294 2.1928 2.01792 0
M  V30 3662 H 350.831 1.09035 0.987404 0
M  V30 3663 H 352.789 0.828467 4.08892 0
M  V30 3664 H 351.419 0.0803902 3.227 0
M  V30 3665 H 350.471 2.47642 2.88752 0
M  V30 3666 H 351.783 3.07752 3.92543 0
M  V30 3667 H 350.937 1.68776 5.82752 0
M  V30 3668 H 349.676 0.982799 4.77695 0
M  V30 3669 H 348.681 3.26088 4.42659 0
M  V30 3670 H 349.906 3.96737 5.51159 0
M  V30 3671 H 347.852 1.86268 6.28999 0
M  V30 3672 H 347.769 3.55064 6.67432 0
M  V30 3673 H 349.037 2.57679 7.35678 0
M  V30 3674 N 353.266 -1.05314 1.17247 0
M  V30 3675 C 354.213 -2.13031 0.888058 0
M  V30 3676 C 355.183 -1.65253 -0.167537 0
M  V30 3677 O 356.368 -1.90775 -0.0305974 0
M  V30 3678 C 353.508 -3.42702 0.406147 0
M  V30 3679 C 352.621 -4.04161 1.52572 0
M  V30 3680 C 351.756 -5.21744 0.997808 0
M  V30 3681 C 350.795 -5.75207 2.09291 0
M  V30 3682 N 349.932 -6.84094 1.57986 0
M  V30 3683 H 354.772 -2.36698 1.81048 0
M  V30 3684 H 352.309 -1.16121 0.903013 0
M  V30 3685 H 354.267 -4.17059 0.108305 0
M  V30 3686 H 352.897 -3.19222 -0.479313 0
M  V30 3687 H 351.949 -3.27253 1.93931 0
M  V30 3688 H 353.261 -4.39881 2.35172 0
M  V30 3689 H 352.415 -6.03168 0.653739 0
M  V30 3690 H 351.154 -4.87495 0.141232 0
M  V30 3691 H 350.159 -4.92414 2.44557 0
M  V30 3692 H 351.384 -6.11505 2.95362 0
M  V30 3693 H 349.33 -6.51745 0.74598 0
M  V30 3694 H 349.247 -7.18811 2.34195 0
M  V30 3695 H 350.515 -7.69172 1.26468 0
M  V30 3696 N 354.744 -0.972509 -1.24016 0
M  V30 3697 C 355.969 -0.654417 -1.96805 0
M  V30 3698 C 356.394 0.770398 -1.716 0
M  V30 3699 O 355.752 1.52361 -0.982647 0
M  V30 3700 C 355.8 -0.941031 -3.48105 0
M  V30 3701 O 354.904 -0.0289472 -4.1239 0
M  V30 3702 H 354.245 -0.24692 -0.616382 0
M  V30 3703 H 356.775 -1.30396 -1.57664 0
M  V30 3704 H 356.785 -0.87452 -3.98517 0
M  V30 3705 H 355.46 -1.97939 -3.65777 0
M  V30 3706 H 354.037 -0.149192 -3.72601 0
M  V30 3707 N 356.222 1.38976 -0.743202 0
M  V30 3708 C 357.152 2.33171 -0.123873 0
M  V30 3709 C 358.133 1.54336 0.71516 0
M  V30 3710 O 359.318 1.82696 0.658467 0
M  V30 3711 C 356.448 3.38474 0.777978 0
M  V30 3712 C 355.402 4.27979 0.0424758 0
M  V30 3713 C 354.728 5.2405 1.06189 0
M  V30 3714 C 356.028 5.10155 -1.1198 0
M  V30 3715 H 357.722 2.85213 -0.910709 0
M  V30 3716 H 355.268 1.37133 -0.439388 0
M  V30 3717 H 357.221 4.03328 1.22084 0
M  V30 3718 H 355.945 2.84891 1.59702 0
M  V30 3719 H 354.604 3.64616 -0.380853 0
M  V30 3720 H 354.252 4.66758 1.87472 0
M  V30 3721 H 353.952 5.84785 0.574485 0
M  V30 3722 H 355.476 5.9178 1.50428 0
M  V30 3723 H 356.89 5.68307 -0.75499 0
M  V30 3724 H 355.287 5.80073 -1.53738 0
M  V30 3725 H 356.357 4.44504 -1.93764 0
M  V30 3726 N 357.7 0.491464 1.49741 0
M  V30 3727 C 358.949 -0.0582189 2.01616 0
M  V30 3728 C 359.262 -1.38927 1.3769 0
M  V30 3729 O 360.468 -2.02509 1.80838 0
M  V30 3730 C 358.924 -0.154235 3.59569 0
M  V30 3731 C 358.532 1.1696 4.32463 0
M  V30 3732 C 360.276 -0.65479 4.1942 0
M  V30 3733 C 358.183 1.03627 5.8225 0
M  V30 3734 H 357.113 -0.0255317 0.753568 0
M  V30 3735 H 359.764 0.629445 1.72367 0
M  V30 3736 H 358.146 -0.906138 3.85493 0
M  V30 3737 H 359.32 1.93405 4.18248 0
M  V30 3738 H 357.635 1.60285 3.84315 0
M  V30 3739 H 360.232 -0.771903 5.29099 0
M  V30 3740 H 360.575 -1.65127 3.8215 0
M  V30 3741 H 361.108 0.040304 3.9778 0
M  V30 3742 H 357.847 2.00672 6.24028 0
M  V30 3743 H 357.367 0.312546 5.98985 0
M  V30 3744 H 359.046 0.711114 6.4308 0
M  V30 3745 N 359.178 -1.55987 0.224894 0
M  V30 3746 C 360.455 -1.90232 -0.455083 0
M  V30 3747 C 360.835 -1.14269 -1.77499 0
M  V30 3748 O 360.183 -0.253079 -2.27094 0
M  V30 3749 C 360.393 -3.42993 -0.644758 0
M  V30 3750 C 361.741 -4.13821 -0.950669 0
M  V30 3751 O 362.765 -3.4861 -0.731423 0
M  V30 3752 O 361.624 -5.29128 -1.36695 0
M  V30 3753 H 358.718 -0.79108 -0.241084 0
M  V30 3754 H 361.264 -1.67581 0.267327 0
M  V30 3755 H 360.036 -3.90252 0.28613 0
M  V30 3756 H 359.659 -3.71434 -1.41853 0
M  V30 3757 N 360.656 0.0484629 -1.57525 0
M  V30 3758 C 361.588 1.08222 -2.02041 0
M  V30 3759 C 362.601 1.33621 -0.930012 0
M  V30 3760 O 363.79 1.3145 -1.20761 0
M  V30 3761 C 360.89 2.42818 -2.36416 0
M  V30 3762 C 360.063 2.37049 -3.67596 0
M  V30 3763 C 359.122 3.53937 -3.89378 0
M  V30 3764 O 358.148 3.34308 -4.60681 0
M  V30 3765 N 359.35 4.75126 -3.3352 0
M  V30 3766 H 362.115 0.702946 -2.9134 0
M  V30 3767 H 359.676 0.236745 -1.6016 0
M  V30 3768 H 361.668 3.197 -2.48141 0
M  V30 3769 H 360.238 2.72661 -1.52888 0
M  V30 3770 H 359.458 1.45395 -3.66407 0
M  V30 3771 H 360.746 2.30318 -4.53686 0
M  V30 3772 H 360.144 4.93976 -2.75688 0
M  V30 3773 H 358.701 5.49439 -3.50656 0
M  V30 3774 N 362.134 1.5431 0.320358 0
M  V30 3775 C 363.381 1.72668 1.05792 0
M  V30 3776 C 363.709 0.502084 1.87908 0
M  V30 3777 O 362.964 -0.516149 1.88771 0
M  V30 3778 C 363.263 2.95639 2.00828 0
M  V30 3779 C 362.929 4.30265 1.34843 0
M  V30 3780 C 361.591 4.66865 1.16578 0
M  V30 3781 C 363.943 5.13801 0.875095 0
M  V30 3782 C 361.271 5.84597 0.496336 0
M  V30 3783 C 363.623 6.32219 0.219463 0
M  V30 3784 C 362.287 6.67495 0.0246915 0
M  V30 3785 H 361.557 0.631837 0.387121 0
M  V30 3786 H 364.204 1.88552 0.334735 0
M  V30 3787 H 362.509 2.74456 2.79609 0
M  V30 3788 H 364.206 3.07038 2.57932 0
M  V30 3789 H 360.796 4.01472 1.50061 0
M  V30 3790 H 364.98 4.86039 1.00398 0
M  V30 3791 H 360.236 6.10486 0.334264 0
M  V30 3792 H 364.41 6.96227 -0.155291 0
M  V30 3793 H 362.037 7.5858 -0.496065 0
M  V30 3794 N 363.613 -0.582584 1.46437 0
M  V30 3795 C 364.86 -1.34079 1.51753 0
M  V30 3796 C 365.188 -1.93762 0.169299 0
M  V30 3797 O 364.443 -1.76989 -0.835062 0
M  V30 3798 C 364.742 -2.48964 2.56421 0
M  V30 3799 C 364.408 -2.07273 4.00436 0
M  V30 3800 C 363.07 -1.95618 4.39644 0
M  V30 3801 C 365.422 -1.75111 4.90903 0
M  V30 3802 C 362.75 -1.5006 5.67185 0
M  V30 3803 C 365.102 -1.31032 6.18881 0
M  V30 3804 C 363.766 -1.17954 6.56996 0
M  V30 3805 H 363.036 -0.49063 0.555304 0
M  V30 3806 H 365.683 -0.656007 1.79913 0
M  V30 3807 H 363.988 -3.22889 2.21923 0
M  V30 3808 H 365.685 -3.07178 2.57765 0
M  V30 3809 H 362.275 -2.17279 3.69443 0
M  V30 3810 H 366.459 -1.83001 4.61329 0
M  V30 3811 H 361.715 -1.38577 5.95488 0
M  V30 3812 H 365.889 -1.052 6.88408 0
M  V30 3813 H 363.516 -0.824279 7.55718 0
M  V30 3814 N 365.091 -1.34144 -0.827227 0
M  V30 3815 C 366.339 -1.26009 -1.58007 0
M  V30 3816 C 366.66 0.170971 -1.94249 0
M  V30 3817 O 365.93 1.10256 -1.61927 0
M  V30 3818 H 364.51 -0.463414 -0.585881 0
M  V30 3819 H 367.172 -1.68005 -0.987951 0
M  V30 3820 H 366.268 -1.86187 -2.50481 0
M  V30 3821 N 366.569 1.04691 -1.17803 0
M  V30 3822 C 367.815 1.78045 -0.970969 0
M  V30 3823 C 368.148 1.87686 0.498751 0
M  V30 3824 O 367.423 1.38035 1.37027 0
M  V30 3825 C 367.706 3.2166 -1.61884 0
M  V30 3826 C 367.559 3.20001 -3.161 0
M  V30 3827 C 368.878 4.1962 -1.3269 0
M  V30 3828 H 365.997 0.64633 -0.354155 0
M  V30 3829 H 368.639 1.22333 -1.45378 0
M  V30 3830 H 366.789 3.69232 -1.20831 0
M  V30 3831 H 368.461 2.80467 -3.66246 0
M  V30 3832 H 366.704 2.58203 -3.48588 0
M  V30 3833 H 367.375 4.21386 -3.56564 0
M  V30 3834 H 369.851 3.80567 -1.68249 0
M  V30 3835 H 368.727 5.18339 -1.80599 0
M  V30 3836 H 368.988 4.414 -0.248622 0
M  V30 3837 N 368.047 0.979072 1.23499 0
M  V30 3838 C 368.957 0.526431 2.28617 0
M  V30 3839 C 369.973 -0.418126 1.68901 0
M  V30 3840 O 371.149 -0.288372 1.99325 0
M  V30 3841 C 368.214 -0.165235 3.46306 0
M  V30 3842 C 367.275 0.82056 4.21385 0
M  V30 3843 C 366.508 0.161807 5.33455 0
M  V30 3844 O 366.731 -1.04742 5.60701 0
M  V30 3845 O 365.665 0.859708 5.95729 0
M  V30 3846 H 369.491 1.4006 2.69475 0
M  V30 3847 H 367.076 0.746643 1.29405 0
M  V30 3848 H 368.958 -0.553287 4.17752 0
M  V30 3849 H 367.633 -1.01419 3.07402 0
M  V30 3850 H 366.54 1.25929 3.52268 0
M  V30 3851 H 367.873 1.63828 4.64135 0
M  V30 3852 N 369.525 -1.3858 0.750561 0
M  V30 3853 C 370.772 -2.00184 0.305373 0
M  V30 3854 C 371.1 -1.59575 -1.11203 0
M  V30 3855 O 370.355 -0.823236 -1.77542 0
M  V30 3856 C 370.654 -3.55455 0.372373 0
M  V30 3857 C 370.32 -4.15765 1.745 0
M  V30 3858 C 368.982 -4.31951 2.12065 0
M  V30 3859 C 371.334 -4.49067 2.64553 0
M  V30 3860 C 368.662 -4.78734 3.39162 0
M  V30 3861 C 371.014 -4.97265 3.91038 0
M  V30 3862 C 369.678 -5.11658 4.28676 0
M  V30 3863 H 368.948 -0.732526 0.111744 0
M  V30 3864 H 371.595 -1.65673 0.960451 0
M  V30 3865 H 369.9 -3.90084 -0.366272 0
M  V30 3866 H 371.597 -4.00999 0.00953918 0
M  V30 3867 H 368.187 -4.03579 1.44297 0
M  V30 3868 H 372.371 -4.36166 2.36796 0
M  V30 3869 H 367.627 -4.88062 3.68246 0
M  V30 3870 H 371.801 -5.22003 4.60962 0
M  V30 3871 H 369.428 -5.47668 5.27222 0
M  V30 3872 N 371.003 -0.499398 -1.49478 0
M  V30 3873 C 371.913 0.284489 -2.32869 0
M  V30 3874 C 372.929 0.968885 -1.44529 0
M  V30 3875 O 374.105 0.95062 -1.77553 0
M  V30 3876 C 371.17 1.33594 -3.19928 0
M  V30 3877 C 370.231 0.665149 -4.24116 0
M  V30 3878 C 369.464 1.6665 -5.07014 0
M  V30 3879 O 369.687 2.89618 -4.91404 0
M  V30 3880 O 368.621 1.22271 -5.8935 0
M  V30 3881 H 372.447 -0.39802 -3.01081 0
M  V30 3882 H 370.032 -0.260758 -1.47107 0
M  V30 3883 H 371.914 1.94431 -3.73864 0
M  V30 3884 H 370.589 2.0014 -2.54412 0
M  V30 3885 H 369.496 0.0170769 -3.74096 0
M  V30 3886 H 370.829 0.0421555 -4.92182 0
M  V30 3887 N 372.481 1.55866 -0.233164 0
M  V30 3888 C 373.709 2.02998 0.399905 0
M  V30 3889 C 374.124 1.11274 1.52524 0
M  V30 3890 O 373.481 0.124528 1.82075 0
M  V30 3891 C 373.532 3.4958 0.920639 0
M  V30 3892 O 373.253 4.37808 -0.159834 0
M  V30 3893 C 374.754 4.12411 1.62578 0
M  V30 3894 H 371.974 0.664006 0.0966281 0
M  V30 3895 H 374.518 2.0143 -0.353013 0
M  V30 3896 H 372.673 3.51727 1.62379 0
M  V30 3897 H 373.087 5.23981 0.23337 0
M  V30 3898 H 374.561 5.16711 1.94201 0
M  V30 3899 H 375.038 3.5809 2.54299 0
M  V30 3900 H 375.644 4.14148 0.967553 0
M  V30 3901 N 373.959 -0.0401083 1.57549 0
M  V30 3902 C 375.187 -0.745196 1.93014 0
M  V30 3903 C 375.602 -1.6948 0.831984 0
M  V30 3904 O 374.959 -1.81482 -0.192463 0
M  V30 3905 C 375.01 -1.51176 3.28372 0
M  V30 3906 O 374.731 -0.600284 4.33968 0
M  V30 3907 C 376.232 -2.315 3.78051 0
M  V30 3908 H 373.452 -0.210088 0.637263 0
M  V30 3909 H 375.996 -0.000924689 2.045 0
M  V30 3910 H 374.151 -2.20801 3.18317 0
M  V30 3911 H 374.565 -1.13669 5.12035 0
M  V30 3912 H 376.039 -2.80697 4.75303 0
M  V30 3913 H 376.516 -3.12436 3.08675 0
M  V30 3914 H 377.122 -1.66971 3.91153 0
M  V30 3915 N 375.437 -1.54477 -0.31217 0
M  V30 3916 C 376.37 -1.79519 -1.40884 0
M  V30 3917 C 377.348 -0.645753 -1.49227 0
M  V30 3918 O 378.532 -0.884468 -1.66461 0
M  V30 3919 C 375.659 -1.92194 -2.78889 0
M  V30 3920 C 374.705 -3.14555 -2.88023 0
M  V30 3921 S 375.538 -4.72893 -2.51262 0
M  V30 3922 C 376.694 -4.8849 -3.91317 0
M  V30 3923 H 376.927 -2.72256 -1.19432 0
M  V30 3924 H 374.46 -1.45746 -0.509654 0
M  V30 3925 H 376.418 -2.00182 -3.58382 0
M  V30 3926 H 375.079 -1.00414 -2.97617 0
M  V30 3927 H 374.272 -3.20193 -3.89221 0
M  V30 3928 H 373.874 -3.04955 -2.16514 0
M  V30 3929 H 376.166 -4.71826 -4.86196 0
M  V30 3930 H 377.109 -5.90588 -3.90656 0
M  V30 3931 H 377.517 -4.16715 -3.80801 0
M  V30 3932 N 376.915 0.57481 -1.46744 0
M  V30 3933 C 377.862 1.68329 -1.57905 0
M  V30 3934 C 378.832 1.60625 -0.422927 0
M  V30 3935 O 380.017 1.79721 -0.640711 0
M  V30 3936 C 377.157 3.06665 -1.58274 0
M  V30 3937 C 376.27 3.24935 -2.84678 0
M  V30 3938 C 375.405 4.53566 -2.76499 0
M  V30 3939 C 374.444 4.65207 -3.97806 0
M  V30 3940 N 373.581 5.85172 -3.87967 0
M  V30 3941 H 378.421 1.58127 -2.52587 0
M  V30 3942 H 375.958 0.770552 -1.25303 0
M  V30 3943 H 377.916 3.86745 -1.56473 0
M  V30 3944 H 376.546 3.15745 -0.671194 0
M  V30 3945 H 375.598 2.38405 -2.96424 0
M  V30 3946 H 376.91 3.29403 -3.7456 0
M  V30 3947 H 376.064 5.41885 -2.72848 0
M  V30 3948 H 374.803 4.51548 -1.8427 0
M  V30 3949 H 373.808 3.75304 -4.0178 0
M  V30 3950 H 375.033 4.68997 -4.9114 0
M  V30 3951 H 372.979 5.84137 -2.98529 0
M  V30 3952 H 372.896 5.90943 -4.71511 0
M  V30 3953 H 374.164 6.759 -3.88303 0
M  V30 3954 N 378.394 1.34581 0.820102 0
M  V30 3955 C 379.634 1.28448 1.58998 0
M  V30 3956 C 379.998 -0.142883 1.91468 0
M  V30 3957 O 381.199 -0.328422 2.66786 0
M  V30 3958 C 379.47 2.153 2.85273 0
M  V30 3959 S 381.029 2.26548 3.75794 0
M  V30 3960 H 377.847 0.456685 0.54494 0
M  V30 3961 H 380.449 1.69825 0.968487 0
M  V30 3962 H 379.153 3.18008 2.59421 0
M  V30 3963 H 378.684 1.7483 3.52417 0
M  V30 3964 H 380.699 1.44034 4.74835 0
M  V30 3965 N 379.872 -1.04064 1.18357 0
M  V30 3966 C 381.1 -1.80916 1.00384 0
M  V30 3967 C 381.515 -1.83414 -0.447738 0
M  V30 3968 O 380.872 -1.26962 -1.31099 0
M  V30 3969 C 380.923 -3.26516 1.55144 0
M  V30 3970 O 380.644 -3.2424 2.94618 0
M  V30 3971 C 382.145 -4.20013 1.41789 0
M  V30 3972 H 379.365 -0.569728 0.354474 0
M  V30 3973 H 381.909 -1.31151 1.56906 0
M  V30 3974 H 380.064 -3.73512 1.02798 0
M  V30 3975 H 380.478 -4.15452 3.20156 0
M  V30 3976 H 381.952 -5.20111 1.84901 0
M  V30 3977 H 382.429 -4.37667 0.36661 0
M  V30 3978 H 383.035 -3.78881 1.93207 0
M  V30 3979 N 381.35 -0.985608 -1.22978 0
M  V30 3980 C 382.26 -0.538548 -2.28335 0
M  V30 3981 C 383.276 0.409163 -1.69121 0
M  V30 3982 O 384.452 0.277797 -1.99475 0
M  V30 3983 C 381.517 0.146867 -3.46389 0
M  V30 3984 C 380.578 -0.842896 -4.20944 0
M  V30 3985 C 379.811 -0.190095 -5.33361 0
M  V30 3986 O 380.034 1.01767 -5.61248 0
M  V30 3987 O 378.968 -0.891289 -5.95264 0
M  V30 3988 H 382.794 -1.41487 -2.68729 0
M  V30 3989 H 380.379 -0.753495 -1.29007 0
M  V30 3990 H 382.261 0.531125 -4.1804 0
M  V30 3991 H 380.936 0.997871 -3.07935 0
M  V30 3992 H 379.843 -1.27795 -3.51595 0
M  V30 3993 H 381.176 -1.66287 -4.6326 0
M  V30 3994 N 382.828 1.3818 -0.7579 0
M  V30 3995 C 384.053 2.04827 -0.325679 0
M  V30 3996 C 384.478 1.56788 1.03919 0
M  V30 3997 O 383.836 0.721811 1.66312 0
M  V30 3998 C 383.884 3.58774 -0.362447 0
M  V30 3999 O 382.988 4.07372 0.642033 0
M  V30 4000 H 382.329 0.64833 -0.143402 0
M  V30 4001 H 384.859 1.7677 -1.03023 0
M  V30 4002 H 384.869 4.07434 -0.214844 0
M  V30 4003 H 383.544 3.93096 -1.35824 0
M  V30 4004 H 382.121 3.70068 0.458688 0
M  V30 4005 N 384.306 0.507319 1.49211 0
M  V30 4006 C 385.216 -0.272136 2.33016 0
M  V30 4007 C 386.232 -0.961206 1.45041 0
M  V30 4008 O 387.408 -0.941191 1.78055 0
M  V30 4009 C 384.473 -1.31895 3.20631 0
M  V30 4010 C 383.534 -0.642648 4.24463 0
M  V30 4011 C 382.767 -1.63959 5.07891 0
M  V30 4012 O 382.99 -2.87007 4.92933 0
M  V30 4013 O 381.924 -1.19143 5.8999 0
M  V30 4014 H 385.75 0.413982 3.00865 0
M  V30 4015 H 383.335 0.268556 1.46966 0
M  V30 4016 H 385.217 -1.92446 3.7489 0
M  V30 4017 H 383.892 -1.98788 2.5547 0
M  V30 4018 H 382.799 0.00276252 3.741 0
M  V30 4019 H 384.132 -0.0160534 4.92197 0
M  V30 4020 N 385.784 -1.5574 0.241426 0
M  V30 4021 C 386.694 -2.2479 -0.671305 0
M  V30 4022 C 387.71 -1.26217 -1.19772 0
M  V30 4023 O 388.886 -1.59079 -1.23514 0
M  V30 4024 C 385.951 -2.92966 -1.85396 0
M  V30 4025 C 385.012 -4.06935 -1.36756 0
M  V30 4026 C 384.245 -4.71851 -2.49384 0
M  V30 4027 O 384.468 -4.35823 -3.67987 0
M  V30 4028 O 383.402 -5.60467 -2.19454 0
M  V30 4029 H 387.228 -3.0349 -0.112966 0
M  V30 4030 H 384.813 -1.49397 0.0101513 0
M  V30 4031 H 386.695 -3.35927 -2.54423 0
M  V30 4032 H 385.37 -2.17211 -2.40002 0
M  V30 4033 H 384.277 -3.68503 -0.644726 0
M  V30 4034 H 385.61 -4.84492 -0.867647 0
M  V30 4035 N 387.262 0.0317525 -1.57568 0
M  V30 4036 C 388.172 1.05021 -2.0978 0
M  V30 4037 C 389.188 1.39809 -1.03583 0
M  V30 4038 O 390.364 1.49182 -1.35302 0
M  V30 4039 C 387.429 2.33301 -2.56459 0
M  V30 4040 C 386.49 2.0512 -3.77127 0
M  V30 4041 C 385.723 3.27283 -4.2157 0
M  V30 4042 O 385.946 4.37861 -3.65559 0
M  V30 4043 O 384.88 3.13141 -5.14029 0
M  V30 4044 H 388.706 0.636505 -2.96955 0
M  V30 4045 H 386.291 0.248559 -1.47318 0
M  V30 4046 H 388.173 3.08722 -2.86825 0
M  V30 4047 H 386.848 2.73973 -1.72397 0
M  V30 4048 H 385.755 1.27276 -3.51784 0
M  V30 4049 H 387.088 1.69305 -4.62165 0
M  V30 4050 N 388.74 1.54641 0.303973 0
M  V30 4051 C 389.65 1.88439 1.39743 0
M  V30 4052 C 390.666 0.778239 1.55626 0
M  V30 4053 O 391.842 1.07442 1.70347 0
M  V30 4054 C 388.907 2.12212 2.74166 0
M  V30 4055 C 387.968 3.35936 2.67293 0
M  V30 4056 C 387.201 3.58566 3.95305 0
M  V30 4057 O 387.424 2.84263 4.9452 0
M  V30 4058 O 386.358 4.52078 3.97378 0
M  V30 4059 H 390.184 2.81458 1.14083 0
M  V30 4060 H 387.769 1.40793 0.499768 0
M  V30 4061 H 389.651 2.29067 3.53704 0
M  V30 4062 H 388.326 1.22379 2.99675 0
M  V30 4063 H 387.233 3.24448 1.86237 0
M  V30 4064 H 388.566 4.2589 2.46736 0
M  V30 4065 N 390.218 -0.567019 1.47046 0
M  V30 4066 C 391.464 -1.32658 1.53394 0
M  V30 4067 C 391.797 -1.93254 0.19148 0
M  V30 4068 O 391.072 -1.77338 -0.798844 0
M  V30 4069 C 391.355 -2.44412 2.64452 0
M  V30 4070 C 391.208 -1.88749 4.08282 0
M  V30 4071 C 392.527 -3.46387 2.71485 0
M  V30 4072 H 389.646 -0.48098 0.558415 0
M  V30 4073 H 392.288 -0.635481 1.79058 0
M  V30 4074 H 390.438 -3.03363 2.427 0
M  V30 4075 H 392.11 -1.34134 4.41368 0
M  V30 4076 H 390.353 -1.19481 4.17021 0
M  V30 4077 H 391.024 -2.69491 4.81745 0
M  V30 4078 H 393.5 -2.9734 2.91081 0
M  V30 4079 H 392.376 -4.2202 3.50985 0
M  V30 4080 H 392.637 -4.04616 1.78153 0
M  V30 4081 N 391.696 -1.35014 -0.812953 0
M  V30 4082 C 392.924 -1.31031 -1.6012 0
M  V30 4083 C 393.339 0.113558 -1.88458 0
M  V30 4084 O 392.696 1.06363 -1.48301 0
M  V30 4085 C 392.747 -2.10872 -2.93624 0
M  V30 4086 O 392.468 -3.47706 -2.66518 0
M  V30 4087 C 393.969 -2.14401 -3.88004 0
M  V30 4088 H 391.189 -0.45037 -0.497401 0
M  V30 4089 H 393.733 -1.77775 -1.01076 0
M  V30 4090 H 391.888 -1.67744 -3.492 0
M  V30 4091 H 392.302 -3.89097 -3.51715 0
M  V30 4092 H 393.776 -2.74669 -4.78812 0
M  V30 4093 H 394.253 -1.14105 -4.24119 0
M  V30 4094 H 394.859 -2.57662 -3.38364 0
M  V30 4095 N 393.175 1.03435 -1.18907 0
M  V30 4096 C 394.122 2.11591 -0.921837 0
M  V30 4097 C 395.092 1.65499 0.141226 0
M  V30 4098 O 396.277 1.908 0.000242829 0
M  V30 4099 C 393.417 3.42012 -0.460616 0
M  V30 4100 C 392.53 4.01682 -1.58982 0
M  V30 4101 C 391.665 5.20091 -1.08069 0
M  V30 4102 C 390.704 5.71805 -2.18416 0
M  V30 4103 N 389.841 6.81494 -1.68849 0
M  V30 4104 H 394.681 2.33787 -1.8479 0
M  V30 4105 H 392.218 1.1467 -0.921373 0
M  V30 4106 H 394.176 4.16834 -0.174642 0
M  V30 4107 H 392.806 3.19944 0.428467 0
M  V30 4108 H 391.858 3.24127 -1.99113 0
M  V30 4109 H 393.17 4.36084 -2.4214 0
M  V30 4110 H 392.324 6.02051 -0.749615 0
M  V30 4111 H 391.063 4.87209 -0.218771 0
M  V30 4112 H 390.068 4.88461 -2.5236 0
M  V30 4113 H 391.293 6.06728 -3.05054 0
M  V30 4114 H 389.239 6.50475 -0.849572 0
M  V30 4115 H 389.156 7.14994 -2.45601 0
M  V30 4116 H 390.424 7.67063 -1.38689 0
M  V30 4117 N 394.653 0.992116 1.22453 0
M  V30 4118 C 395.901 0.666215 1.90804 0
M  V30 4119 C 396.222 -0.804152 1.77647 0
M  V30 4120 O 395.492 -1.57629 1.16318 0
M  V30 4121 H 394.072 0.243423 0.706225 0
M  V30 4122 H 396.734 1.25845 1.48825 0
M  V30 4123 H 395.83 0.928069 2.97982 0
M  V30 4124 N 396.131 -1.37776 0.765217 0
M  V30 4125 C 397.078 -2.30342 0.145274 0
M  V30 4126 C 398.048 -1.5077 -0.696971 0
M  V30 4127 O 399.233 -1.79362 -0.650689 0
M  V30 4128 C 396.373 -3.37227 -0.732939 0
M  V30 4129 C 395.486 -4.31819 0.125199 0
M  V30 4130 C 394.621 -5.25777 -0.757107 0
M  V30 4131 C 393.66 -6.12012 0.103963 0
M  V30 4132 N 392.797 -6.98232 -0.735953 0
M  V30 4133 H 397.637 -2.8278 0.940195 0
M  V30 4134 H 395.174 -1.39211 0.475255 0
M  V30 4135 H 397.132 -3.97818 -1.25686 0
M  V30 4136 H 395.762 -2.86171 -1.49353 0
M  V30 4137 H 394.814 -3.7259 0.766865 0
M  V30 4138 H 396.126 -4.92509 0.789683 0
M  V30 4139 H 395.28 -5.91541 -1.34776 0
M  V30 4140 H 394.019 -4.65481 -1.45529 0
M  V30 4141 H 393.024 -5.45233 0.707197 0
M  V30 4142 H 394.249 -6.74379 0.799381 0
M  V30 4143 H 392.195 -6.40472 -1.41887 0
M  V30 4144 H 392.112 -7.55891 -0.128624 0
M  V30 4145 H 393.38 -7.68393 -1.31121 0
M  V30 4146 N 397.609 -0.515225 -1.4894 0
M  V30 4147 C 398.519 0.259774 -2.33157 0
M  V30 4148 C 399.535 0.953501 -1.45548 0
M  V30 4149 O 400.711 0.931735 -1.78552 0
M  V30 4150 C 397.776 1.30193 -3.21326 0
M  V30 4151 C 396.837 0.620129 -4.24797 0
M  V30 4152 C 396.07 1.61263 -5.08753 0
M  V30 4153 O 396.293 2.84389 -4.94448 0
M  V30 4154 O 395.227 1.16013 -5.90614 0
M  V30 4155 H 399.053 -0.429932 -3.00641 0
M  V30 4156 H 396.638 -0.276346 -1.46822 0
M  V30 4157 H 398.52 1.90455 -3.75905 0
M  V30 4158 H 397.195 1.97431 -2.56521 0
M  V30 4159 H 396.102 -0.0226019 -3.74093 0
M  V30 4160 H 397.435 -0.0100493 -4.92199 0
M  V30 4161 N 399.087 1.5561 -0.249682 0
M  V30 4162 C 400.035 2.22894 0.664906 0
M  V30 4163 C 401.029 1.21743 1.17792 0
M  V30 4164 O 402.235 1.39748 1.13449 0
M  V30 4165 H 398.61 0.715022 0.232912 0
M  V30 4166 H 400.581 2.98307 0.0742998 0
M  V30 4167 C 399.33 2.94424 1.84959 0
M  V30 4168 H 398.653 3.72031 1.46399 0
M  V30 4169 H 400.093 3.44862 2.4667 0
M  V30 4170 C 398.552 1.98454 2.72245 0
M  V30 4171 O 399.082 1.51939 3.71857 0
M  V30 4172 N 397.288 1.65496 2.38871 0
M  V30 4173 H 396.835 2.03517 1.57919 0
M  V30 4174 H 396.793 1.0155 2.97548 0
M  V30 4175 N 400.565 -0.0233959 1.57583 0
M  V30 4176 C 401.497 -1.04994 2.03737 0
M  V30 4177 C 402.51 -1.32125 0.951152 0
M  V30 4178 O 403.699 -1.29512 1.22837 0
M  V30 4179 C 400.799 -2.39026 2.40249 0
M  V30 4180 C 399.972 -2.31171 3.7132 0
M  V30 4181 C 399.031 -3.47698 3.94959 0
M  V30 4182 O 398.057 -3.26937 4.65941 0
M  V30 4183 N 399.259 -4.6976 3.41037 0
M  V30 4184 H 402.024 -0.656507 2.92421 0
M  V30 4185 H 399.585 -0.211235 1.60516 0
M  V30 4186 H 401.577 -3.15712 2.53196 0
M  V30 4187 H 400.147 -2.70194 1.57207 0
M  V30 4188 H 399.367 -1.39547 3.68674 0
M  V30 4189 H 400.655 -2.23071 4.57293 0
M  V30 4190 H 400.053 -4.89528 2.83512 0
M  V30 4191 H 398.61 -5.43791 3.59353 0
M  V30 4192 N 402.043 -1.548 -0.295768 0
M  V30 4193 C 402.973 -1.89115 -1.36959 0
M  V30 4194 C 403.954 -0.75059 -1.52644 0
M  V30 4195 O 405.139 -1.00678 -1.66065 0
M  V30 4196 C 402.269 -2.14307 -2.73295 0
M  V30 4197 C 401.223 -3.30151 -2.72368 0
M  V30 4198 C 400.549 -3.40772 -4.12042 0
M  V30 4199 C 401.849 -4.67126 -2.33646 0
M  V30 4200 H 403.543 -2.79053 -1.08488 0
M  V30 4201 H 401.089 -1.34266 -0.520443 0
M  V30 4202 H 403.042 -2.36898 -3.48507 0
M  V30 4203 H 401.766 -1.21145 -3.03301 0
M  V30 4204 H 400.425 -3.0749 -1.99613 0
M  V30 4205 H 400.073 -2.45117 -4.39234 0
M  V30 4206 H 399.773 -4.18645 -4.12322 0
M  V30 4207 H 401.297 -3.6563 -4.89027 0
M  V30 4208 H 402.711 -4.89414 -2.98575 0
M  V30 4209 H 401.108 -5.47751 -2.45129 0
M  V30 4210 H 402.178 -4.67489 -1.28772 0
M  V30 4211 N 403.521 0.559213 -1.47345 0
M  V30 4212 C 404.453 1.68161 -1.55738 0
M  V30 4213 C 405.466 1.56636 -0.443744 0
M  V30 4214 O 406.655 1.6363 -0.713258 0
M  V30 4215 C 403.755 3.06611 -1.4437 0
M  V30 4216 C 402.928 3.4391 -2.70268 0
M  V30 4217 C 401.987 4.61515 -2.52765 0
M  V30 4218 O 401.013 4.66197 -3.26572 0
M  V30 4219 N 402.215 5.57883 -1.6046 0
M  V30 4220 H 404.98 1.61408 -2.52522 0
M  V30 4221 H 402.541 0.7458 -1.43699 0
M  V30 4222 H 404.533 3.83117 -1.30398 0
M  V30 4223 H 403.103 3.07602 -0.556766 0
M  V30 4224 H 402.323 2.56873 -2.99015 0
M  V30 4225 H 403.611 3.65605 -3.53851 0
M  V30 4226 H 403.009 5.56855 -0.996422 0
M  V30 4227 H 401.566 6.33723 -1.52441 0
M  V30 4228 N 404.999 1.35443 0.805782 0
M  V30 4229 C 405.929 1.31095 1.93226 0
M  V30 4230 C 406.91 0.185244 1.69088 0
M  V30 4231 O 408.095 0.380332 1.90439 0
M  V30 4232 C 405.225 1.08299 3.29983 0
M  V30 4233 C 404.179 2.17519 3.68605 0
M  V30 4234 C 403.505 1.79887 5.03532 0
M  V30 4235 C 404.805 3.5949 3.78898 0
M  V30 4236 H 406.499 2.25352 1.97122 0
M  V30 4237 H 404.045 1.0848 0.946996 0
M  V30 4238 H 405.998 1.03897 4.08391 0
M  V30 4239 H 404.722 0.104885 3.26432 0
M  V30 4240 H 403.381 2.2102 2.92482 0
M  V30 4241 H 403.029 0.80693 4.96485 0
M  V30 4242 H 402.729 2.53001 5.30344 0
M  V30 4243 H 404.253 1.77011 5.84379 0
M  V30 4244 H 405.667 3.58307 4.47536 0
M  V30 4245 H 404.064 4.31371 4.1718 0
M  V30 4246 H 405.134 3.95584 2.80431 0
M  V30 4247 N 406.477 -1.02803 1.19454 0
M  V30 4248 C 407.702 -1.80378 1.02364 0
M  V30 4249 C 408.127 -1.83282 -0.423007 0
M  V30 4250 O 407.485 -1.25945 -1.30413 0
M  V30 4251 C 407.533 -3.23248 1.59821 0
M  V30 4252 O 406.637 -4.04 0.828105 0
M  V30 4253 H 405.978 -0.556799 0.361761 0
M  V30 4254 H 408.508 -1.29385 1.58495 0
M  V30 4255 H 408.518 -3.73994 1.63073 0
M  V30 4256 H 407.193 -3.2045 2.65113 0
M  V30 4257 H 405.77 -3.62635 0.86891 0
M  V30 4258 N 407.956 -0.998596 -1.21925 0
M  V30 4259 C 409.196 -0.685948 -1.92546 0
M  V30 4260 C 409.56 0.768441 -1.75952 0
M  V30 4261 O 410.761 1.19277 -2.40887 0
M  V30 4262 C 409.032 -1.08767 -3.40448 0
M  V30 4263 S 410.591 -0.894251 -4.29591 0
M  V30 4264 H 407.409 -0.250622 -0.665364 0
M  V30 4265 H 410.011 -1.28207 -1.47591 0
M  V30 4266 H 408.715 -2.14242 -3.50041 0
M  V30 4267 H 408.246 -0.48357 -3.90417 0
M  V30 4268 H 410.261 0.212149 -4.95746 0
M  V30 4269 N 409.434 1.37368 -0.772513 0
M  V30 4270 C 410.681 1.99673 -0.337182 0
M  V30 4271 C 411.009 1.61324 1.0865 0
M  V30 4272 O 410.264 0.851377 1.7621 0
M  V30 4273 C 410.563 3.54817 -0.428876 0
M  V30 4274 C 410.229 4.12936 -1.81092 0
M  V30 4275 C 408.891 4.28523 -2.1891 0
M  V30 4276 C 411.243 4.44801 -2.71664 0
M  V30 4277 C 408.571 4.73277 -3.46735 0
M  V30 4278 C 410.923 4.90981 -3.98899 0
M  V30 4279 C 409.587 5.04773 -4.36761 0
M  V30 4280 H 408.857 0.730656 -0.123384 0
M  V30 4281 H 411.504 1.64124 -0.986686 0
M  V30 4282 H 409.809 3.90618 0.304167 0
M  V30 4283 H 411.506 4.00933 -0.0733334 0
M  V30 4284 H 408.096 4.01233 -1.50699 0
M  V30 4285 H 412.28 4.32344 -2.43706 0
M  V30 4286 H 407.536 4.82142 -3.75964 0
M  V30 4287 H 411.71 5.14603 -4.69208 0
M  V30 4288 H 409.337 5.39211 -5.35868 0
M  V30 4289 N 410.912 0.523116 1.48665 0
M  V30 4290 C 412.161 -0.01544 2.01694 0
M  V30 4291 C 412.474 -1.35975 1.40606 0
M  V30 4292 O 413.68 -1.98627 1.85093 0
M  V30 4293 C 412.136 -0.0779303 3.59816 0
M  V30 4294 C 411.744 1.26107 4.29885 0
M  V30 4295 C 413.488 -0.565678 4.20714 0
M  V30 4296 C 411.395 1.15954 5.79921 0
M  V30 4297 H 410.325 -0.00954163 0.75394 0
M  V30 4298 H 412.976 0.665865 1.70993 0
M  V30 4299 H 411.358 -0.824165 3.87329 0
M  V30 4300 H 412.532 2.02233 4.14051 0
M  V30 4301 H 410.847 1.68401 3.80828 0
M  V30 4302 H 413.444 -0.6595 5.30617 0
M  V30 4303 H 413.787 -1.56984 3.85567 0
M  V30 4304 H 414.32 0.12467 3.97605 0
M  V30 4305 H 411.059 2.13864 6.19631 0
M  V30 4306 H 410.579 0.439529 5.98187 0
M  V30 4307 H 412.258 0.847361 6.41427 0
M  V30 4308 N 412.39 -1.55475 0.257931 0
M  V30 4309 C 413.338 -2.23244 -0.653076 0
M  V30 4310 C 414.332 -1.22366 -1.17144 0
M  V30 4311 O 415.538 -1.40347 -1.12706 0
M  V30 4312 H 411.913 -0.716247 -0.229117 0
M  V30 4313 H 413.884 -2.98343 -0.0584788 0
M  V30 4314 C 412.633 -2.95401 -1.83395 0
M  V30 4315 H 411.956 -3.72802 -1.44424 0
M  V30 4316 H 413.396 -3.46165 -2.44838 0
M  V30 4317 C 411.855 -1.99895 -2.71189 0
M  V30 4318 O 412.385 -1.53909 -3.71046 0
M  V30 4319 N 410.591 -1.6676 -2.3799 0
M  V30 4320 H 410.138 -2.04352 -1.56837 0
M  V30 4321 H 410.096 -1.03127 -2.97005 0
M  V30 4322 N 413.868 0.0150385 -1.57593 0
M  V30 4323 C 414.8 1.03912 -2.04291 0
M  V30 4324 C 415.813 1.31618 -0.958146 0
M  V30 4325 O 417.002 1.28859 -1.23522 0
M  V30 4326 C 414.102 2.37749 -2.41514 0
M  V30 4327 C 413.275 2.29198 -3.72541 0
M  V30 4328 C 412.334 3.45598 -3.96797 0
M  V30 4329 O 411.36 3.24461 -4.67668 0
M  V30 4330 N 412.562 4.67945 -3.43523 0
M  V30 4331 H 415.327 0.64099 -2.92765 0
M  V30 4332 H 412.888 0.20272 -1.60626 0
M  V30 4333 H 414.88 3.14364 -2.54867 0
M  V30 4334 H 413.45 2.69357 -1.58637 0
M  V30 4335 H 412.67 1.3759 -3.69408 0
M  V30 4336 H 413.958 2.20642 -4.5847 0
M  V30 4337 H 413.356 4.88017 -2.86104 0
M  V30 4338 H 411.913 5.41878 -3.62232 0
M  V30 4339 N 415.346 1.54954 0.287554 0
M  V30 4340 C 416.256 1.8991 1.37736 0
M  V30 4341 C 417.272 0.794701 1.54792 0
M  V30 4342 O 418.448 1.09243 1.69198 0
M  V30 4343 C 415.513 2.15108 2.71899 0
M  V30 4344 C 414.574 3.38752 2.63715 0
M  V30 4345 C 413.807 3.62739 3.91479 0
M  V30 4346 O 414.03 2.89492 4.91478 0
M  V30 4347 O 412.964 4.56267 3.92561 0
M  V30 4348 H 416.79 2.82652 1.11092 0
M  V30 4349 H 414.375 1.41315 0.484807 0
M  V30 4350 H 416.257 2.32806 3.51254 0
M  V30 4351 H 414.932 1.25551 2.9836 0
M  V30 4352 H 413.839 3.26405 1.82786 0
M  V30 4353 H 415.172 4.28483 2.42205 0
M  V30 4354 N 416.824 -0.551391 1.4764 0
M  V30 4355 C 418.07 -1.31024 1.54792 0
M  V30 4356 C 418.403 -1.9304 0.211967 0
M  V30 4357 O 417.678 -1.78175 -0.77999 0
M  V30 4358 C 417.961 -2.41593 2.67029 0
M  V30 4359 C 417.814 -1.84408 4.10261 0
M  V30 4360 C 419.133 -3.43488 2.75143 0
M  V30 4361 H 416.252 -0.475031 0.563485 0
M  V30 4362 H 418.894 -0.616454 1.79722 0
M  V30 4363 H 417.044 -3.00772 2.45904 0
M  V30 4364 H 418.716 -1.29445 4.42766 0
M  V30 4365 H 416.959 -1.15051 4.18265 0
M  V30 4366 H 417.63 -2.64367 4.84576 0
M  V30 4367 H 420.106 -2.94236 2.94218 0
M  V30 4368 H 418.982 -4.18274 3.55441 0
M  V30 4369 H 419.243 -4.02703 1.82435 0
M  V30 4370 N 418.302 -1.35869 -0.798587 0
M  V30 4371 C 419.249 -1.29446 -1.91082 0
M  V30 4372 C 420.219 -0.16487 -1.6528 0
M  V30 4373 O 421.404 -0.349888 -1.87564 0
M  V30 4374 C 418.544 -1.0804 -3.27752 0
M  V30 4375 C 417.657 -2.29993 -3.65687 0
M  V30 4376 C 416.792 -2.01673 -4.91428 0
M  V30 4377 C 415.831 -3.19636 -5.22015 0
M  V30 4378 N 414.968 -2.91039 -6.38937 0
M  V30 4379 H 419.808 -2.24553 -1.95907 0
M  V30 4380 H 417.345 -1.11615 -0.958148 0
M  V30 4381 H 419.303 -0.936586 -4.06551 0
M  V30 4382 H 417.933 -0.16592 -3.22373 0
M  V30 4383 H 416.985 -2.55211 -2.82085 0
M  V30 4384 H 418.297 -3.18052 -3.84245 0
M  V30 4385 H 417.451 -1.84168 -5.78072 0
M  V30 4386 H 416.19 -1.10911 -4.74921 0
M  V30 4387 H 415.195 -3.37709 -4.33858 0
M  V30 4388 H 416.42 -4.11211 -5.40447 0
M  V30 4389 H 414.366 -2.0288 -6.2384 0
M  V30 4390 H 414.283 -3.72635 -6.57784 0
M  V30 4391 H 415.551 -2.77093 -7.28587 0
M  V30 4392 N 419.78 1.02168 -1.19998 0
M  V30 4393 C 421.01 1.79036 -1.031 0
M  V30 4394 C 421.418 1.84409 0.423078 0
M  V30 4395 O 420.761 1.29228 1.30559 0
M  V30 4396 C 420.823 3.25185 -1.53281 0
M  V30 4397 C 420.487 3.43431 -3.01503 0
M  V30 4398 C 421.484 3.33063 -3.99206 0
M  V30 4399 C 419.169 3.69412 -3.40353 0
M  V30 4400 C 421.163 3.48413 -5.33748 0
M  V30 4401 C 418.85 3.84406 -4.75053 0
M  V30 4402 C 419.848 3.7391 -5.71559 0
M  V30 4403 O 419.536 3.88452 -7.03818 0
M  V30 4404 H 419.268 0.570043 -0.363355 0
M  V30 4405 H 421.822 1.29524 -1.59414 0
M  V30 4406 H 420.052 3.75756 -0.913483 0
M  V30 4407 H 421.741 3.83671 -1.32481 0
M  V30 4408 H 422.507 3.12934 -3.70537 0
M  V30 4409 H 418.386 3.76671 -2.65782 0
M  V30 4410 H 421.93 3.40137 -6.09059 0
M  V30 4411 H 417.827 4.04035 -5.03415 0
M  V30 4412 H 418.595 4.055 -7.10993 0
M  V30 4413 N 421.258 1.00505 1.21394 0
M  V30 4414 C 422.188 0.585684 2.26035 0
M  V30 4415 C 423.169 -0.393525 1.65485 0
M  V30 4416 O 424.354 -0.281497 1.92149 0
M  V30 4417 C 421.484 -0.0884283 3.47187 0
M  V30 4418 C 420.438 0.810567 4.20254 0
M  V30 4419 C 419.764 0.00286382 5.347 0
M  V30 4420 C 421.064 2.1132 4.77641 0
M  V30 4421 H 422.758 1.46039 2.61368 0
M  V30 4422 H 420.304 0.703648 1.25638 0
M  V30 4423 H 422.257 -0.393286 4.19561 0
M  V30 4424 H 420.981 -0.997766 3.10986 0
M  V30 4425 H 419.64 1.09925 3.49731 0
M  V30 4426 H 419.288 -0.907765 4.94741 0
M  V30 4427 H 418.988 0.601444 5.84514 0
M  V30 4428 H 420.512 -0.295808 6.09883 0
M  V30 4429 H 421.926 1.87148 5.41893 0
M  V30 4430 H 420.323 2.66164 5.37845 0
M  V30 4431 H 421.393 2.78393 3.9702 0
M  V30 4432 N 422.737 -1.36956 0.779787 0
M  V30 4433 C 423.984 -1.99491 0.347766 0
M  V30 4434 C 424.312 -1.61898 -1.07793 0
M  V30 4435 O 423.567 -0.86071 -1.75756 0
M  V30 4436 C 423.866 -3.54585 0.447686 0
M  V30 4437 C 423.532 -4.1197 1.83279 0
M  V30 4438 C 422.194 -4.27356 2.2118 0
M  V30 4439 C 424.546 -4.43354 2.74019 0
M  V30 4440 C 421.874 -4.71432 3.4924 0
M  V30 4441 C 424.226 -4.88858 4.01497 0
M  V30 4442 C 422.89 -5.0245 4.39432 0
M  V30 4443 H 422.16 -0.729991 0.127257 0
M  V30 4444 H 424.807 -1.63599 0.995376 0
M  V30 4445 H 423.112 -3.90773 -0.283447 0
M  V30 4446 H 424.809 -4.00888 0.0945948 0
M  V30 4447 H 421.399 -4.00428 1.52825 0
M  V30 4448 H 425.583 -4.31045 2.45995 0
M  V30 4449 H 420.839 -4.80141 3.78516 0
M  V30 4450 H 425.013 -5.12108 4.71931 0
M  V30 4451 H 422.64 -5.36362 5.38721 0
M  V30 4452 N 424.215 -0.530993 -1.48385 0
M  V30 4453 C 425.443 -0.00134122 -2.069 0
M  V30 4454 C 425.858 1.2805 -1.3874 0
M  V30 4455 O 425.215 1.76204 -0.475244 0
M  V30 4456 C 425.266 0.225256 -3.60798 0
M  V30 4457 O 424.987 -1.0058 -4.26398 0
M  V30 4458 C 426.488 0.795172 -4.3611 0
M  V30 4459 H 423.708 -0.0339704 -0.67014 0
M  V30 4460 H 426.252 -0.736926 -1.90761 0
M  V30 4461 H 424.407 0.910891 -3.76539 0
M  V30 4462 H 424.821 -0.787165 -5.1856 0
M  V30 4463 H 426.295 0.903143 -5.44562 0
M  V30 4464 H 426.772 1.80031 -4.00606 0
M  V30 4465 H 427.378 0.146069 -4.25049 0
M  V30 4466 N 425.693 1.55336 -0.266172 0
M  V30 4467 C 426.941 1.99003 0.35246 0
M  V30 4468 C 427.262 1.15591 1.57047 0
M  V30 4469 O 426.532 0.243268 1.94384 0
M  V30 4470 H 425.112 0.735025 0.133217 0
M  V30 4471 H 427.774 1.91367 -0.369434 0
M  V30 4472 H 426.87 3.05289 0.648453 0
M  V30 4473 N 427.171 -0.0066808 1.57599 0
M  V30 4474 C 428.101 -0.999296 2.11036 0
M  V30 4475 C 429.082 -1.36278 1.01795 0
M  V30 4476 O 430.267 -1.4477 1.29442 0
M  V30 4477 C 427.397 -2.29328 2.60818 0
M  V30 4478 C 426.351 -2.07159 3.74525 0
M  V30 4479 C 425.677 -3.42512 4.10596 0
M  V30 4480 C 426.977 -1.43959 5.02069 0
M  V30 4481 H 428.671 -0.554382 2.94223 0
M  V30 4482 H 426.217 -0.265221 1.41536 0
M  V30 4483 H 428.17 -2.99117 2.96828 0
M  V30 4484 H 426.894 -2.7592 1.74745 0
M  V30 4485 H 425.553 -1.39797 3.38899 0
M  V30 4486 H 425.201 -3.86795 3.21556 0
M  V30 4487 H 424.901 -3.28498 4.87199 0
M  V30 4488 H 426.425 -4.13628 4.4916 0
M  V30 4489 H 427.839 -2.03696 5.35893 0
M  V30 4490 H 426.236 -1.40452 5.83432 0
M  V30 4491 H 427.306 -0.407992 4.83181 0
M  V30 4492 N 428.649 -1.55105 -0.279332 0
M  V30 4493 C 429.596 -1.8755 -1.34513 0
M  V30 4494 C 430.566 -0.726384 -1.49375 0
M  V30 4495 O 431.751 -0.977063 -1.63884 0
M  V30 4496 C 428.891 -2.14738 -2.70151 0
M  V30 4497 C 428.004 -3.42285 -2.63562 0
M  V30 4498 C 427.139 -3.59206 -3.91337 0
M  V30 4499 C 426.178 -4.80467 -3.79233 0
M  V30 4500 N 425.315 -4.94079 -4.98829 0
M  V30 4501 H 430.155 -2.78456 -1.06143 0
M  V30 4502 H 427.692 -1.37867 -0.512936 0
M  V30 4503 H 429.65 -2.28501 -3.49061 0
M  V30 4504 H 428.28 -1.27075 -2.96735 0
M  V30 4505 H 427.332 -3.37029 -1.76397 0
M  V30 4506 H 428.644 -4.31328 -2.50515 0
M  V30 4507 H 427.798 -3.72751 -4.78687 0
M  V30 4508 H 426.537 -2.68337 -4.07243 0
M  V30 4509 H 425.542 -4.66932 -2.90266 0
M  V30 4510 H 426.767 -5.72765 -3.64852 0
M  V30 4511 H 424.713 -4.06139 -5.15158 0
M  V30 4512 H 424.63 -5.77156 -4.8829 0
M  V30 4513 H 425.898 -5.12003 -5.8777 0
M  V30 4514 N 430.127 0.543554 -1.4793 0
M  V30 4515 C 431.057 1.65888 -1.64327 0
M  V30 4516 C 432.038 1.62818 -0.492383 0
M  V30 4517 O 433.223 1.80226 -0.723338 0
M  V30 4518 C 430.353 3.04506 -1.67013 0
M  V30 4519 C 429.307 3.2243 -2.81466 0
M  V30 4520 C 428.633 4.61972 -2.69233 0
M  V30 4521 C 429.933 3.06496 -4.22915 0
M  V30 4522 H 431.627 1.52421 -2.57698 0
M  V30 4523 H 429.173 0.731849 -1.24016 0
M  V30 4524 H 431.126 3.82391 -1.77074 0
M  V30 4525 H 429.85 3.18964 -0.70212 0
M  V30 4526 H 428.509 2.46957 -2.70938 0
M  V30 4527 H 428.157 4.73247 -1.7043 0
M  V30 4528 H 427.857 4.74911 -3.46025 0
M  V30 4529 H 429.381 5.41974 -2.81242 0
M  V30 4530 H 430.795 3.74186 -4.34348 0
M  V30 4531 H 429.192 3.30938 -5.006 0
M  V30 4532 H 430.262 2.03077 -4.40327 0
M  V30 4533 N 431.605 1.3629 0.791371 0
M  V30 4534 C 433.021 1.16661 1.08914 0
M  V30 4535 C 433.221 -0.0106266 2.01497 0
M  V30 4536 O 432.277 -0.676596 2.43266 0
M  V30 4537 C 433.59 2.47656 1.70549 0
M  V30 4538 C 435.138 2.54002 1.82899 0
M  V30 4539 C 435.613 3.85078 2.47949 0
M  V30 4540 N 437.104 3.86413 2.5542 0
M  V30 4541 C 437.839 4.84572 3.06557 0
M  V30 4542 N 437.335 5.93124 3.58016 0
M  V30 4543 N 439.128 4.71994 3.05251 0
M  V30 4544 H 431.279 2.11668 0.176238 0
M  V30 4545 H 433.542 0.937486 0.140796 0
M  V30 4546 H 433.248 3.34059 1.09989 0
M  V30 4547 H 433.122 2.63319 2.70079 0
M  V30 4548 H 435.509 1.68018 2.42598 0
M  V30 4549 H 435.59 2.42239 0.821808 0
M  V30 4550 H 435.234 4.71467 1.88895 0
M  V30 4551 H 435.164 3.94135 3.49235 0
M  V30 4552 H 437.655 3.07988 2.18979 0
M  V30 4553 H 437.968 6.63999 3.95381 0
M  V30 4554 H 436.313 5.96796 3.56173 0
M  V30 4555 H 439.504 3.86321 2.64336 0
M  V30 4556 H 439.677 5.48653 3.44796 0
M  V30 4557 N 433.083 -1.0153 1.20538 0
M  V30 4558 C 434.013 -2.11972 0.979295 0
M  V30 4559 C 434.994 -1.6985 -0.0921787 0
M  V30 4560 O 436.179 -1.94089 0.0655932 0
M  V30 4561 C 433.309 -3.43201 0.531984 0
M  V30 4562 C 432.263 -3.9907 1.54685 0
M  V30 4563 C 431.589 -5.26082 0.956127 0
M  V30 4564 C 432.889 -4.32313 2.93092 0
M  V30 4565 H 434.583 -2.31143 1.90298 0
M  V30 4566 H 432.129 -1.11079 0.916372 0
M  V30 4567 H 434.082 -4.1985 0.361044 0
M  V30 4568 H 432.806 -3.23792 -0.427327 0
M  V30 4569 H 431.465 -3.2453 1.70517 0
M  V30 4570 H 431.113 -5.02999 -0.0111538 0
M  V30 4571 H 430.813 -5.64426 1.63393 0
M  V30 4572 H 432.337 -6.05386 0.796284 0
M  V30 4573 H 433.751 -4.99845 2.80763 0
M  V30 4574 H 432.148 -4.81774 3.57791 0
M  V30 4575 H 433.218 -3.41025 3.44717 0
M  V30 4576 N 434.561 -1.01147 -1.20859 0
M  V30 4577 C 435.493 -0.535546 -2.22855 0
M  V30 4578 C 436.506 0.379323 -1.58319 0
M  V30 4579 O 437.695 0.178489 -1.77605 0
M  V30 4580 C 434.795 0.240962 -3.38042 0
M  V30 4581 C 433.968 -0.674562 -4.32167 0
M  V30 4582 C 433.027 0.053467 -5.26173 0
M  V30 4583 O 432.053 -0.567339 -5.66366 0
M  V30 4584 N 433.255 1.32997 -5.65059 0
M  V30 4585 H 436.02 -1.41268 -2.64317 0
M  V30 4586 H 433.581 -0.888386 -1.35349 0
M  V30 4587 H 435.573 0.737115 -3.97931 0
M  V30 4588 H 434.143 1.01935 -2.95513 0
M  V30 4589 H 433.363 -1.35111 -3.70322 0
M  V30 4590 H 434.651 -1.2974 -4.91981 0
M  V30 4591 H 434.049 1.85536 -5.34409 0
M  V30 4592 H 432.606 1.77095 -6.2728 0
M  V30 4593 N 436.039 1.36541 -0.78704 0
M  V30 4594 C 436.949 2.3387 -0.184896 0
M  V30 4595 C 437.965 1.60927 0.661697 0
M  V30 4596 O 439.141 1.92927 0.57804 0
M  V30 4597 C 436.206 3.40122 0.672145 0
M  V30 4598 C 435.267 4.28867 -0.19267 0
M  V30 4599 C 434.5 5.30045 0.623561 0
M  V30 4600 O 434.723 5.39232 1.8597 0
M  V30 4601 O 433.657 6.01895 0.0247068 0
M  V30 4602 H 437.483 2.87126 -0.989562 0
M  V30 4603 H 435.068 1.38969 -0.548455 0
M  V30 4604 H 436.95 4.05093 1.16094 0
M  V30 4605 H 435.625 2.89169 1.45474 0
M  V30 4606 H 434.532 3.66945 -0.728166 0
M  V30 4607 H 435.865 4.83165 -0.938722 0
M  V30 4608 N 437.518 0.538854 1.48102 0
M  V30 4609 C 438.428 -0.222648 2.33541 0
M  V30 4610 C 439.444 -0.930225 1.47047 0
M  V30 4611 O 440.62 -0.903211 1.80011 0
M  V30 4612 C 437.685 -1.25064 3.23357 0
M  V30 4613 C 436.746 -0.552469 4.2573 0
M  V30 4614 C 435.979 -1.53149 5.11254 0
M  V30 4615 O 436.202 -2.76487 4.9891 0
M  V30 4616 O 435.136 -1.06602 5.92385 0
M  V30 4617 H 438.962 0.477707 2.99919 0
M  V30 4618 H 436.547 0.299669 1.46364 0
M  V30 4619 H 438.429 -1.8445 3.78888 0
M  V30 4620 H 437.104 -1.93325 2.59629 0
M  V30 4621 H 436.011 0.082114 3.7401 0
M  V30 4622 H 437.344 0.0883526 4.92121 0
M  V30 4623 N 438.996 -1.55193 0.274407 0
M  V30 4624 C 440.245 -1.98758 -0.343213 0
M  V30 4625 C 440.558 -1.16624 -1.5703 0
M  V30 4626 O 441.764 -1.5033 -2.26082 0
M  V30 4627 C 440.22 -3.53759 -0.661996 0
M  V30 4628 C 439.828 -4.4467 0.54524 0
M  V30 4629 C 441.572 -4.05916 -1.24228 0
M  V30 4630 C 439.479 -5.91058 0.201084 0
M  V30 4631 H 438.409 -0.742353 -0.132014 0
M  V30 4632 H 441.06 -1.79545 0.378948 0
M  V30 4633 H 439.442 -3.68772 -1.44304 0
M  V30 4634 H 440.616 -4.41426 1.32212 0
M  V30 4635 H 438.931 -4.03143 1.04232 0
M  V30 4636 H 441.528 -5.12831 -1.51357 0
M  V30 4637 H 441.871 -3.54908 -2.17592 0
M  V30 4638 H 442.404 -3.9434 -0.523542 0
M  V30 4639 H 439.143 -6.46161 1.10258 0
M  V30 4640 H 438.663 -5.97373 -0.539045 0
M  V30 4641 H 440.342 -6.46669 -0.206954 0
M  V30 4642 N 440.474 -0.00167713 -1.576 0
M  V30 4643 C 441.702 0.693759 -1.94922 0
M  V30 4644 C 442.117 1.67215 -0.876626 0
M  V30 4645 O 441.474 1.81929 0.144279 0
M  V30 4646 C 441.525 1.42416 -3.32265 0
M  V30 4647 O 441.246 0.485014 -4.35407 0
M  V30 4648 C 442.747 2.21395 -3.84056 0
M  V30 4649 H 439.967 0.193118 -0.642609 0
M  V30 4650 H 442.511 -0.0532952 -2.04431 0
M  V30 4651 H 440.666 2.12284 -3.24059 0
M  V30 4652 H 441.08 1.00053 -5.14868 0
M  V30 4653 H 442.554 2.67996 -4.82578 0
M  V30 4654 H 443.031 3.04142 -3.16851 0
M  V30 4655 H 443.637 1.56542 -3.95443 0
M  V30 4656 N 441.952 1.55251 0.271103 0
M  V30 4657 C 442.899 1.88261 1.33516 0
M  V30 4658 C 443.869 0.734296 1.48988 0
M  V30 4659 O 445.054 0.985741 1.63364 0
M  V30 4660 C 442.194 2.16168 2.69008 0
M  V30 4661 C 441.307 3.43678 2.61743 0
M  V30 4662 C 440.442 3.61276 3.89427 0
M  V30 4663 C 439.481 4.82472 3.7668 0
M  V30 4664 N 438.618 4.96717 4.96202 0
M  V30 4665 H 443.458 2.79015 1.04665 0
M  V30 4666 H 440.995 1.38137 0.505618 0
M  V30 4667 H 442.953 2.30349 3.47844 0
M  V30 4668 H 441.583 1.28646 2.96057 0
M  V30 4669 H 440.635 3.37959 1.74607 0
M  V30 4670 H 441.947 4.3265 2.48224 0
M  V30 4671 H 441.101 3.75284 4.76704 0
M  V30 4672 H 439.84 2.70492 4.05814 0
M  V30 4673 H 438.845 4.68465 2.87786 0
M  V30 4674 H 440.07 5.74692 3.61809 0
M  V30 4675 H 438.016 4.08865 5.12997 0
M  V30 4676 H 437.933 5.79738 4.85222 0
M  V30 4677 H 439.201 5.15113 5.85046 0
M  V30 4678 N 443.43 -0.535701 1.48216 0
M  V30 4679 C 444.362 -1.65662 1.58394 0
M  V30 4680 C 445.375 -1.5591 0.468607 0
M  V30 4681 O 446.564 -1.62475 0.7392 0
M  V30 4682 C 443.664 -3.04276 1.4923 0
M  V30 4683 C 442.837 -3.39567 2.75705 0
M  V30 4684 C 441.896 -4.57436 2.60075 0
M  V30 4685 O 440.922 -4.60942 3.33948 0
M  V30 4686 N 442.124 -5.55259 1.69315 0
M  V30 4687 H 444.889 -1.5737 2.55058 0
M  V30 4688 H 442.45 -0.722845 1.44867 0
M  V30 4689 H 444.442 -3.80994 1.36477 0
M  V30 4690 H 443.012 -3.06677 0.605632 0
M  V30 4691 H 442.232 -2.52083 3.03064 0
M  V30 4692 H 443.52 -3.59929 3.59623 0
M  V30 4693 H 442.918 -5.552 1.08489 0
M  V30 4694 H 441.475 -6.31218 1.62504 0
M  V30 4695 N 444.908 -1.36708 -0.784132 0
M  V30 4696 C 446.133 -1.34565 -1.5782 0
M  V30 4697 C 446.558 0.0695257 -1.87971 0
M  V30 4698 O 445.916 1.04302 -1.48293 0
M  V30 4699 C 445.964 -2.17952 -2.87279 0
M  V30 4700 O 445.068 -1.57563 -3.81114 0
M  V30 4701 H 444.409 -0.460337 -0.478524 0
M  V30 4702 H 446.939 -1.80064 -0.971495 0
M  V30 4703 H 446.949 -2.30721 -3.365 0
M  V30 4704 H 445.624 -3.20823 -2.64661 0
M  V30 4705 H 444.201 -1.53764 -3.39722 0
M  V30 4706 N 446.386 1.0089 -1.21074 0
M  V30 4707 C 447.797 1.56056 -1.02486 0
M  V30 4708 C 448.148 1.91728 0.416506 0
M  V30 4709 O 447.273 1.73066 1.29912 0
M  V30 4710 C 447.868 2.83563 -1.85411 0
M  V30 4711 C 446.427 3.3523 -1.71166 0
M  V30 4712 C 445.574 2.0846 -1.82865 0
M  V30 4713 H 448.525 0.831818 -1.35154 0
M  V30 4714 H 448.546 3.55286 -1.36205 0
M  V30 4715 H 448.058 2.57569 -2.9031 0
M  V30 4716 H 446.159 3.66167 -0.689361 0
M  V30 4717 H 446.272 4.06913 -2.52901 0
M  V30 4718 H 444.636 2.21275 -1.26132 0
M  V30 4719 H 445.419 1.84883 -2.89263 0
M  V30 4720 N 447.864 1.01787 1.20321 0
M  V30 4721 C 449.092 0.727194 1.937 0
M  V30 4722 C 449.507 -0.712305 1.74848 0
M  V30 4723 O 448.864 -1.48327 1.06327 0
M  V30 4724 C 448.915 1.05497 3.45764 0
M  V30 4725 O 448.636 2.43794 3.64 0
M  V30 4726 C 450.137 0.785534 4.36285 0
M  V30 4727 H 447.357 0.266939 0.615617 0
M  V30 4728 H 449.901 1.35939 1.52777 0
M  V30 4729 H 448.056 0.468158 3.84561 0
M  V30 4730 H 448.47 2.55656 4.57974 0
M  V30 4731 H 449.944 1.06495 5.4163 0
M  V30 4732 H 450.421 -0.280273 4.38305 0
M  V30 4733 H 451.027 1.35456 4.03152 0
M  V30 4734 N 449.342 -1.36122 0.79427 0
M  V30 4735 C 450.272 -2.32551 0.210328 0
M  V30 4736 C 451.253 -1.56884 -0.657386 0
M  V30 4737 O 452.438 -1.85014 -0.590207 0
M  V30 4738 C 449.568 -3.41128 -0.651819 0
M  V30 4739 C 448.522 -4.27842 0.116395 0
M  V30 4740 C 447.848 -5.2763 -0.86666 0
M  V30 4741 C 449.148 -5.05647 1.30837 0
M  V30 4742 H 450.842 -2.81636 1.01594 0
M  V30 4743 H 448.388 -1.35407 0.489981 0
M  V30 4744 H 450.341 -4.07581 -1.07031 0
M  V30 4745 H 449.065 -2.90622 -1.49019 0
M  V30 4746 H 447.724 -3.62952 0.515915 0
M  V30 4747 H 447.372 -4.73395 -1.70019 0
M  V30 4748 H 447.072 -5.86514 -0.35705 0
M  V30 4749 H 448.596 -5.96955 -1.28361 0
M  V30 4750 H 450.01 -5.65113 0.965393 0
M  V30 4751 H 448.407 -5.73967 1.75161 0
M  V30 4752 H 449.477 -4.37006 2.10128 0
M  V30 4753 N 450.82 -0.546701 -1.47814 0
M  V30 4754 C 451.752 0.244196 -2.27895 0
M  V30 4755 C 452.765 0.88911 -1.36377 0
M  V30 4756 O 453.954 0.764733 -1.61289 0
M  V30 4757 C 451.054 1.36252 -3.10304 0
M  V30 4758 C 450.227 0.816382 -4.29714 0
M  V30 4759 C 449.286 1.81789 -4.93801 0
M  V30 4760 O 448.312 1.36818 -5.52512 0
M  V30 4761 N 449.514 3.15085 -4.87547 0
M  V30 4762 H 452.279 -0.442694 -2.96412 0
M  V30 4763 H 449.84 -0.382095 -1.57327 0
M  V30 4764 H 451.832 2.03102 -3.50045 0
M  V30 4765 H 450.402 1.95281 -2.44099 0
M  V30 4766 H 449.622 -0.0285981 -3.9419 0
M  V30 4767 H 450.91 0.430668 -5.06974 0
M  V30 4768 H 450.308 3.54275 -4.41028 0
M  V30 4769 H 448.865 3.77522 -5.31339 0
M  V30 4770 N 452.299 1.55045 -0.282633 0
M  V30 4771 C 453.715 1.59441 0.0712997 0
M  V30 4772 C 453.915 1.2998 1.53972 0
M  V30 4773 O 452.971 1.06431 2.28973 0
M  V30 4774 C 454.284 2.99097 -0.310104 0
M  V30 4775 C 455.832 3.1194 -0.257343 0
M  V30 4776 C 456.307 4.53875 -0.613297 0
M  V30 4777 N 457.798 4.5974 -0.565134 0
M  V30 4778 C 458.533 5.67603 -0.81326 0
M  V30 4779 N 458.029 6.83582 -1.1264 0
M  V30 4780 N 459.822 5.57187 -0.741553 0
M  V30 4781 H 451.973 1.72458 -1.23984 0
M  V30 4782 H 454.236 0.804549 -0.501403 0
M  V30 4783 H 453.942 3.25516 -1.33163 0
M  V30 4784 H 453.816 3.75616 0.345366 0
M  V30 4785 H 456.203 2.85281 0.754905 0
M  V30 4786 H 456.284 2.37618 -0.947178 0
M  V30 4787 H 455.928 4.81261 -1.62327 0
M  V30 4788 H 455.858 5.26508 0.09841 0
M  V30 4789 H 458.349 3.76427 -0.333294 0
M  V30 4790 H 458.662 7.6175 -1.30219 0
M  V30 4791 H 457.007 6.85179 -1.16425 0
M  V30 4792 H 460.198 4.65457 -0.496705 0
M  V30 4793 H 460.371 6.41171 -0.938306 0
M  V30 4794 N 453.777 0.010035 1.57597 0
M  V30 4795 C 454.725 -0.996272 2.10184 0
M  V30 4796 C 455.719 -1.34942 1.02406 0
M  V30 4797 O 456.925 -1.33389 1.20861 0
M  V30 4798 H 453.3 -0.338982 0.671264 0
M  V30 4799 H 455.271 -0.527272 2.93705 0
M  V30 4800 C 454.02 -2.27599 2.62857 0
M  V30 4801 H 453.343 -2.01295 3.45428 0
M  V30 4802 H 454.783 -2.96265 3.0332 0
M  V30 4803 C 453.242 -2.99269 1.54725 0
M  V30 4804 O 453.772 -3.90644 0.93597 0
M  V30 4805 N 451.978 -2.61269 1.27228 0
M  V30 4806 H 451.525 -1.87043 1.77123 0
M  V30 4807 H 451.483 -3.09534 0.550999 0
M  V30 4808 N 455.255 -1.55392 -0.262866 0
M  V30 4809 C 456.218 -1.88181 -1.30846 0
M  V30 4810 C 457.218 -0.757079 -1.41862 0
M  V30 4811 O 458.408 -1.02519 -1.40838 0
M  V30 4812 C 455.54 -2.09609 -2.68844 0
M  V30 4813 H 456.733 -2.81659 -1.02997 0
M  V30 4814 H 454.286 -1.48039 -0.501414 0
M  V30 4815 H 455.021 -1.18547 -3.01856 0
M  V30 4816 H 454.806 -2.91508 -2.62231 0
M  V30 4817 H 456.296 -2.36215 -3.44372 0
M  V30 4818 N 456.733 0.527833 -1.48498 0
M  V30 4819 C 457.663 1.64136 -1.66077 0
M  V30 4820 C 458.644 1.62286 -0.509625 0
M  V30 4821 O 459.829 1.79449 -0.742413 0
M  V30 4822 C 456.959 3.02717 -1.70234 0
M  V30 4823 C 455.913 3.19426 -2.8487 0
M  V30 4824 C 455.239 4.5909 -2.74118 0
M  V30 4825 C 456.539 3.01993 -4.26142 0
M  V30 4826 H 458.233 1.4968 -2.593 0
M  V30 4827 H 455.779 0.718654 -1.24785 0
M  V30 4828 H 457.732 3.80491 -1.8112 0
M  V30 4829 H 456.456 3.18201 -0.735911 0
M  V30 4830 H 455.115 2.4407 -2.73542 0
M  V30 4831 H 454.763 4.71413 -1.7544 0
M  V30 4832 H 454.463 4.71214 -3.51042 0
M  V30 4833 H 455.987 5.3896 -2.86974 0
M  V30 4834 H 457.401 3.69558 -4.38292 0
M  V30 4835 H 455.798 3.2561 -5.04082 0
M  V30 4836 H 456.868 1.98396 -4.42456 0
M  V30 4837 N 458.211 1.37122 0.776871 0
M  V30 4838 C 459.441 1.35034 1.56363 0
M  V30 4839 C 459.849 -0.0674681 1.8908 0
M  V30 4840 O 459.192 -1.03826 1.51545 0
M  V30 4841 C 459.254 2.11894 2.90415 0
M  V30 4842 C 458.918 3.60897 2.80362 0
M  V30 4843 C 459.915 4.54887 2.51742 0
M  V30 4844 C 457.6 4.03951 2.98545 0
M  V30 4845 C 459.594 5.89909 2.41426 0
M  V30 4846 C 457.281 5.3906 2.87849 0
M  V30 4847 C 458.279 6.31852 2.5933 0
M  V30 4848 O 457.967 7.64479 2.48651 0
M  V30 4849 H 457.699 0.464402 0.49123 0
M  V30 4850 H 460.253 1.80992 0.971127 0
M  V30 4851 H 458.483 1.60618 3.51765 0
M  V30 4852 H 460.172 2.02505 3.51776 0
M  V30 4853 H 460.938 4.22934 2.37385 0
M  V30 4854 H 456.817 3.3209 3.19746 0
M  V30 4855 H 460.361 6.62304 2.19086 0
M  V30 4856 H 456.258 5.70617 3.01773 0
M  V30 4857 H 457.026 7.74742 2.64039 0
M  V30 4858 N 459.689 -1.00246 1.21608 0
M  V30 4859 C 460.938 -1.73476 1.02902 0
M  V30 4860 C 461.251 -1.90643 -0.437561 0
M  V30 4861 O 462.457 -2.61105 -0.74407 0
M  V30 4862 C 460.913 -3.12079 1.79261 0
M  V30 4863 C 460.521 -3.02877 3.30106 0
M  V30 4864 C 462.265 -3.89421 1.68972 0
M  V30 4865 C 460.172 -4.36575 3.98944 0
M  V30 4866 H 459.102 -0.650408 0.381425 0
M  V30 4867 H 461.753 -1.11985 1.45367 0
M  V30 4868 H 460.135 -3.74196 1.2959 0
M  V30 4869 H 461.309 -2.49983 3.87098 0
M  V30 4870 H 459.624 -2.39022 3.40965 0
M  V30 4871 H 462.221 -4.88362 2.17731 0
M  V30 4872 H 462.564 -4.1122 0.648397 0
M  V30 4873 H 463.097 -3.33963 2.16133 0
M  V30 4874 H 459.836 -4.19978 5.03288 0
M  V30 4875 H 459.356 -4.8942 3.4674 0
M  V30 4876 H 461.035 -5.05364 4.04 0
M  V30 4877 N 461.167 -1.02423 -1.1978 0
M  V30 4878 C 462.114 -0.601023 -2.22837 0
M  V30 4879 C 463.084 0.382801 -1.61629 0
M  V30 4880 O 464.269 0.280514 -1.88727 0
M  V30 4881 C 461.409 0.0467755 -3.45068 0
M  V30 4882 C 460.522 -0.98253 -4.20678 0
M  V30 4883 C 459.657 -0.304982 -5.30324 0
M  V30 4884 C 458.696 -1.32052 -5.97686 0
M  V30 4885 N 457.833 -0.669105 -6.98904 0
M  V30 4886 H 462.673 -1.48444 -2.58396 0
M  V30 4887 H 460.21 -0.742936 -1.2696 0
M  V30 4888 H 462.168 0.439556 -4.14878 0
M  V30 4889 H 460.798 0.893796 -3.10179 0
M  V30 4890 H 459.85 -1.49341 -3.49859 0
M  V30 4891 H 461.162 -1.75455 -4.66923 0
M  V30 4892 H 460.316 0.142893 -6.06532 0
M  V30 4893 H 459.055 0.499283 -4.85138 0
M  V30 4894 H 458.06 -1.7787 -5.20233 0
M  V30 4895 H 459.285 -2.1262 -6.44957 0
M  V30 4896 H 457.231 0.115152 -6.55899 0
M  V30 4897 H 457.148 -1.37908 -7.43315 0
M  V30 4898 H 458.416 -0.245076 -7.79115 0
M  V30 4899 N 462.645 1.35699 -0.801477 0
M  V30 4900 C 463.87 2.03687 -0.390678 0
M  V30 4901 C 464.295 1.60015 0.988778 0
M  V30 4902 O 463.653 0.774357 1.63931 0
M  V30 4903 C 463.701 3.57439 -0.476404 0
M  V30 4904 O 462.805 4.09208 0.512106 0
M  V30 4905 H 462.146 0.64344 -0.163956 0
M  V30 4906 H 464.676 1.73403 -1.08594 0
M  V30 4907 H 464.686 4.06544 -0.344357 0
M  V30 4908 H 463.361 3.88576 -1.48262 0
M  V30 4909 H 461.938 3.7134 0.340721 0
M  V30 4910 N 464.123 0.554532 1.47522 0
M  V30 4911 C 465.348 0.0322661 2.07375 0
M  V30 4912 C 465.773 -1.25079 1.40488 0
M  V30 4913 O 465.131 -1.74859 0.47896 0
M  V30 4914 C 465.179 -0.149397 3.6029 0
M  V30 4915 O 464.283 -1.21259 3.9417 0
M  V30 4916 H 463.624 0.0501228 0.662106 0
M  V30 4917 H 466.154 0.769452 1.8958 0
M  V30 4918 H 466.164 -0.364437 4.06369 0
M  V30 4919 H 464.839 0.787743 4.08372 0
M  V30 4920 H 463.416 -0.97825 3.5984 0
M  V30 4921 N 465.601 -1.54893 0.290851 0
M  V30 4922 C 466.548 -2.23138 -0.58974 0
M  V30 4923 C 467.518 -1.21036 -1.13752 0
M  V30 4924 O 468.703 -1.49626 -1.18392 0
M  V30 4925 C 465.843 -2.96811 -1.76061 0
M  V30 4926 C 464.956 -4.13665 -1.24519 0
M  V30 4927 C 464.091 -4.74944 -2.3791 0
M  V30 4928 C 463.13 -5.83963 -1.83451 0
M  V30 4929 N 462.267 -6.39239 -2.90376 0
M  V30 4930 H 467.107 -2.98 -0.00114915 0
M  V30 4931 H 464.644 -1.47096 0.0112006 0
M  V30 4932 H 466.602 -3.37751 -2.44909 0
M  V30 4933 H 465.232 -2.24344 -2.32098 0
M  V30 4934 H 464.284 -3.77737 -0.449288 0
M  V30 4935 H 465.596 -4.92238 -0.806424 0
M  V30 4936 H 464.75 -5.18684 -3.14724 0
M  V30 4937 H 463.489 -3.95682 -2.85109 0
M  V30 4938 H 462.494 -5.39657 -1.05122 0
M  V30 4939 H 463.719 -6.65103 -1.37169 0
M  V30 4940 H 461.665 -5.62864 -3.36927 0
M  V30 4941 H 461.582 -7.13129 -2.50965 0
M  V30 4942 H 462.85 -6.87637 -3.67118 0
M  V30 4943 N 467.08 -0.0183926 -1.57589 0
M  V30 4944 C 468.329 0.66185 -1.90532 0
M  V30 4945 C 468.642 1.73904 -0.895366 0
M  V30 4946 O 469.848 2.47518 -1.11566 0
M  V30 4947 C 468.304 1.22844 -3.38286 0
M  V30 4948 C 467.912 0.185103 -4.47617 0
M  V30 4949 C 469.656 1.88581 -3.80312 0
M  V30 4950 C 467.563 0.762723 -5.86461 0
M  V30 4951 H 466.493 0.250972 -0.711006 0
M  V30 4952 H 469.144 -0.0819435 -1.83317 0
M  V30 4953 H 467.526 2.0235 -3.40398 0
M  V30 4954 H 468.7 -0.58671 -4.5705 0
M  V30 4955 H 467.015 -0.372889 -4.14727 0
M  V30 4956 H 469.612 2.32735 -4.81392 0
M  V30 4957 H 469.955 2.72408 -3.14801 0
M  V30 4958 H 470.488 1.15782 -3.80578 0
M  V30 4959 H 467.227 -0.0371713 -6.55489 0
M  V30 4960 H 466.747 1.50327 -5.80656 0
M  V30 4961 H 468.426 1.25576 -6.34697 0
M  V30 4962 N 468.558 1.5553 0.254621 0
M  V30 4963 C 469.783 1.81383 1.00573 0
M  V30 4964 C 470.208 0.594419 1.78461 0
M  V30 4965 O 469.566 -0.456403 1.75461 0
M  V30 4966 C 469.614 3.04892 1.92545 0
M  V30 4967 O 468.718 2.81266 3.01601 0
M  V30 4968 H 468.059 0.598969 0.286587 0
M  V30 4969 H 470.589 2.02703 0.277952 0
M  V30 4970 H 470.599 3.34119 2.34155 0
M  V30 4971 H 469.274 3.93287 1.3527 0
M  V30 4972 H 467.851 2.63185 2.64174 0
M  V30 4973 N 470.036 -0.519951 1.48776 0
M  V30 4974 C 471.452 -0.849418 1.35119 0
M  V30 4975 C 471.652 -1.98077 0.36982 0
M  V30 4976 O 470.708 -2.51664 -0.205359 0
M  V30 4977 C 472.021 -1.20748 2.75391 0
M  V30 4978 C 473.569 -1.31679 2.83954 0
M  V30 4979 C 474.044 -1.70824 4.24951 0
M  V30 4980 N 475.535 -1.77908 4.27672 0
M  V30 4981 C 476.27 -2.09603 5.33717 0
M  V30 4982 N 475.766 -2.39652 6.5003 0
M  V30 4983 N 477.559 -2.10694 5.21119 0
M  V30 4984 H 469.71 0.226377 2.1119 0
M  V30 4985 H 471.973 0.0386519 0.947212 0
M  V30 4986 H 471.679 -0.449703 3.48813 0
M  V30 4987 H 471.553 -2.15534 3.09556 0
M  V30 4988 H 473.94 -2.06532 2.10781 0
M  V30 4989 H 474.021 -0.3499 2.53396 0
M  V30 4990 H 473.665 -0.965282 4.98643 0
M  V30 4991 H 473.595 -2.6858 4.52959 0
M  V30 4992 H 476.086 -1.56923 3.43779 0
M  V30 4993 H 476.399 -2.6297 7.26682 0
M  V30 4994 H 474.744 -2.37149 6.53288 0
M  V30 4995 H 477.935 -1.86682 4.29264 0
M  V30 4996 H 478.108 -2.35062 6.03863 0
M  V30 4997 N 471.514 -1.37532 -0.769588 0
M  V30 4998 C 472.444 -1.36172 -1.89682 0
M  V30 4999 C 473.425 -0.23001 -1.68538 0
M  V30 5000 O 474.61 -0.43069 -1.89364 0
M  V30 5001 C 471.74 -1.1701 -3.26995 0
M  V30 5002 C 470.694 -2.27216 -3.62708 0
M  V30 5003 C 470.02 -1.93174 -4.98586 0
M  V30 5004 C 471.32 -3.6941 -3.69234 0
M  V30 5005 H 473.014 -2.30499 -1.91078 0
M  V30 5006 H 470.56 -1.10953 -0.917902 0
M  V30 5007 H 472.513 -1.14688 -4.05493 0
M  V30 5008 H 471.237 -0.191395 -3.26039 0
M  V30 5009 H 469.896 -2.28697 -2.86519 0
M  V30 5010 H 469.544 -0.938281 -4.94171 0
M  V30 5011 H 469.244 -2.66973 -5.23449 0
M  V30 5012 H 470.768 -1.92443 -5.79481 0
M  V30 5013 H 472.182 -3.70047 -4.37879 0
M  V30 5014 H 470.579 -4.4228 -4.05597 0
M  V30 5015 H 471.649 -4.0288 -2.69844 0
M  V30 5016 N 472.992 0.995999 -1.22138 0
M  V30 5017 C 474.403 1.54961 -1.04135 0
M  V30 5018 C 474.754 1.92159 0.396147 0
M  V30 5019 O 473.879 1.74435 1.28069 0
M  V30 5020 C 474.474 2.81581 -1.88408 0
M  V30 5021 C 473.033 3.33396 -1.74712 0
M  V30 5022 C 472.18 2.06509 -1.85066 0
M  V30 5023 H 475.131 0.817436 -1.36028 0
M  V30 5024 H 475.152 3.53822 -1.39966 0
M  V30 5025 H 474.664 2.54476 -2.93025 0
M  V30 5026 H 472.765 3.65416 -0.728159 0
M  V30 5027 H 472.878 4.04208 -2.57202 0
M  V30 5028 H 471.242 2.19925 -1.28472 0
M  V30 5029 H 472.025 1.81804 -2.91208 0
M  V30 5030 N 474.47 1.03057 1.19235 0
M  V30 5031 C 475.433 0.617418 2.20727 0
M  V30 5032 C 476.433 -0.319856 1.57587 0
M  V30 5033 O 477.623 -0.106633 1.73873 0
M  V30 5034 C 474.755 -0.096296 3.40764 0
M  V30 5035 H 475.948 1.51544 2.58794 0
M  V30 5036 H 473.501 0.821949 1.32942 0
M  V30 5037 H 474.236 -1.00859 3.08217 0
M  V30 5038 H 474.021 0.577217 3.87828 0
M  V30 5039 H 475.511 -0.372219 4.15938 0
M  V30 5040 N 475.948 -1.35272 0.808662 0
M  V30 5041 C 477.178 -2.02652 0.401953 0
M  V30 5042 C 477.586 -1.6108 -0.992462 0
M  V30 5043 O 476.929 -0.804984 -1.65123 0
M  V30 5044 C 476.991 -3.57174 0.408246 0
M  V30 5045 C 476.655 -4.22019 1.75353 0
M  V30 5046 C 477.652 -4.43552 2.71215 0
M  V30 5047 C 475.337 -4.59093 2.03811 0
M  V30 5048 C 477.331 -5.01264 3.93717 0
M  V30 5049 C 475.018 -5.16519 3.26576 0
M  V30 5050 C 476.016 -5.37546 4.21347 0
M  V30 5051 O 475.704 -5.93761 5.41944 0
M  V30 5052 H 475.436 -0.656495 0.161216 0
M  V30 5053 H 477.99 -1.73829 1.0942 0
M  V30 5054 H 476.22 -3.85197 -0.340608 0
M  V30 5055 H 477.909 -4.05893 0.0235623 0
M  V30 5056 H 478.675 -4.15288 2.50522 0
M  V30 5057 H 474.554 -4.42039 1.30854 0
M  V30 5058 H 478.098 -5.17592 4.67701 0
M  V30 5059 H 473.995 -5.4421 3.47139 0
M  V30 5060 H 474.763 -6.1221 5.43269 0
M  V30 5061 N 477.426 -0.562348 -1.47226 0
M  V30 5062 C 478.356 0.170627 -2.32876 0
M  V30 5063 C 479.337 0.903748 -1.44106 0
M  V30 5064 O 480.522 0.883206 -1.72954 0
M  V30 5065 C 477.652 1.19786 -3.25989 0
M  V30 5066 C 476.606 0.580875 -4.2404 0
M  V30 5067 C 475.932 1.71311 -5.06514 0
M  V30 5068 C 477.232 -0.468714 -5.20193 0
M  V30 5069 H 478.926 -0.544441 -2.94408 0
M  V30 5070 H 476.472 -0.263271 -1.41573 0
M  V30 5071 H 478.425 1.71884 -3.84752 0
M  V30 5072 H 477.149 1.94294 -2.62521 0
M  V30 5073 H 475.808 0.0811538 -3.6651 0
M  V30 5074 H 475.456 2.44736 -4.39447 0
M  V30 5075 H 475.156 1.30604 -5.72902 0
M  V30 5076 H 476.68 2.23725 -5.68137 0
M  V30 5077 H 478.094 -0.0336028 -5.7329 0
M  V30 5078 H 476.491 -0.794957 -5.94811 0
M  V30 5079 H 477.561 -1.36269 -4.65359 0
M  V30 5080 N 478.904 1.54736 -0.299062 0
M  V30 5081 C 480.132 2.04512 0.313447 0
M  V30 5082 C 480.547 1.17643 1.47667 0
M  V30 5083 O 479.904 0.20164 1.81383 0
M  V30 5084 C 479.955 3.53171 0.771542 0
M  V30 5085 O 479.676 4.36736 -0.345379 0
M  V30 5086 C 481.177 4.18936 1.4494 0
M  V30 5087 H 478.397 0.667507 0.0683784 0
M  V30 5088 H 480.941 1.99752 -0.438129 0
M  V30 5089 H 479.096 3.58298 1.47314 0
M  V30 5090 H 479.51 5.24499 0.0109219 0
M  V30 5091 H 480.984 5.24482 1.72111 0
M  V30 5092 H 481.461 3.68554 2.38883 0
M  V30 5093 H 482.067 4.17879 0.791028 0
M  V30 5094 N 480.382 0.0267497 1.57577 0
M  V30 5095 C 481.631 -0.651736 1.9088 0
M  V30 5096 C 481.944 -1.73427 0.904576 0
M  V30 5097 O 483.15 -2.46923 1.12877 0
M  V30 5098 C 481.606 -1.21048 3.38933 0
M  V30 5099 C 481.214 -0.161362 4.47709 0
M  V30 5100 C 482.958 -1.86562 3.81307 0
M  V30 5101 C 480.865 -0.731611 5.86857 0
M  V30 5102 H 479.795 -0.247198 0.712326 0
M  V30 5103 H 482.446 0.0916641 1.83271 0
M  V30 5104 H 480.828 -2.00542 3.41466 0
M  V30 5105 H 482.002 0.61094 4.56732 0
M  V30 5106 H 480.317 0.394877 4.14523 0
M  V30 5107 H 482.914 -2.30178 4.8262 0
M  V30 5108 H 483.257 -2.70735 3.16241 0
M  V30 5109 H 483.79 -1.13762 3.81186 0
M  V30 5110 H 480.529 0.0719329 6.55461 0
M  V30 5111 H 480.049 -1.47245 5.81445 0
M  V30 5112 H 481.728 -1.22208 6.35354 0
M  V30 5113 N 481.861 -1.55662 -0.24637 0
M  V30 5114 C 482.793 -1.86811 -1.32794 0
M  V30 5115 C 483.806 -0.754413 -1.44265 0
M  V30 5116 O 484.995 -1.03253 -1.45606 0
M  V30 5117 C 482.095 -2.0397 -2.70646 0
M  V30 5118 C 481.268 -3.34832 -2.81436 0
M  V30 5119 C 480.327 -3.41727 -4.00136 0
M  V30 5120 O 479.353 -4.14934 -3.89639 0
M  V30 5121 N 480.555 -2.71058 -5.1333 0
M  V30 5122 H 483.32 -2.80174 -1.06409 0
M  V30 5123 H 480.881 -1.55906 -0.43647 0
M  V30 5124 H 482.873 -2.05924 -3.48393 0
M  V30 5125 H 481.443 -1.1735 -2.89738 0
M  V30 5126 H 480.663 -3.4519 -1.90361 0
M  V30 5127 H 481.951 -4.21085 -2.85595 0
M  V30 5128 H 481.349 -2.11314 -5.2475 0
M  V30 5129 H 479.906 -2.78704 -5.89209 0
M  V30 5130 N 483.339 0.512053 -1.4905 0
M  V30 5131 C 484.272 1.63209 -1.59493 0
M  V30 5132 C 485.25 1.56407 -0.444481 0
M  V30 5133 O 486.434 1.76623 -0.658535 0
M  V30 5134 C 483.561 3.01685 -1.53961 0
M  V30 5135 C 482.607 3.26786 -2.74068 0
M  V30 5136 S 483.44 3.11107 -4.35859 0
M  V30 5137 C 484.596 4.51997 -4.32954 0
M  V30 5138 H 484.829 1.54104 -2.54243 0
M  V30 5139 H 482.362 0.696382 -1.37804 0
M  V30 5140 H 484.32 3.81538 -1.51455 0
M  V30 5141 H 482.981 3.08215 -0.605178 0
M  V30 5142 H 482.174 4.27849 -2.66386 0
M  V30 5143 H 481.776 2.54635 -2.73928 0
M  V30 5144 H 484.068 5.43871 -4.03993 0
M  V30 5145 H 485.011 4.64731 -5.34257 0
M  V30 5146 H 485.419 4.32159 -3.63178 0
M  V30 5147 N 484.817 1.37938 0.762283 0
M  V30 5148 C 486.063 1.33866 1.52341 0
M  V30 5149 C 486.396 -0.0738961 1.94059 0
M  V30 5150 O 485.671 -1.03326 1.64785 0
M  V30 5151 C 485.954 2.28644 2.78197 0
M  V30 5152 C 485.807 3.78722 2.42672 0
M  V30 5153 C 487.126 2.21702 3.80179 0
M  V30 5154 H 484.245 0.487593 0.55265 0
M  V30 5155 H 486.887 1.68717 0.873767 0
M  V30 5156 H 485.037 1.99055 3.33631 0
M  V30 5157 H 486.709 4.18948 1.93081 0
M  V30 5158 H 484.952 3.96827 1.75244 0
M  V30 5159 H 485.623 4.40486 3.3268 0
M  V30 5160 H 488.099 2.47805 3.34263 0
M  V30 5161 H 486.975 2.90143 4.65949 0
M  V30 5162 H 487.236 1.21301 4.25133 0
M  V30 5163 N 486.295 -0.989507 1.22664 0
M  V30 5164 C 487.711 -1.25395 0.987331 0
M  V30 5165 C 487.911 -1.9899 -0.317056 0
M  V30 5166 O 486.967 -2.30141 -1.03882 0
M  V30 5167 C 488.28 -2.06242 2.18826 0
M  V30 5168 C 489.828 -2.19413 2.23219 0
M  V30 5169 C 490.303 -3.03648 3.42873 0
M  V30 5170 N 491.794 -3.11234 3.43056 0
M  V30 5171 C 492.529 -3.7671 4.32293 0
M  V30 5172 N 492.025 -4.44085 5.31752 0
M  V30 5173 N 493.818 -3.73505 4.2006 0
M  V30 5174 H 485.969 -0.496212 2.06522 0
M  V30 5175 H 488.232 -0.281784 0.905153 0
M  V30 5176 H 487.938 -1.59531 3.13437 0
M  V30 5177 H 487.812 -3.06996 2.19165 0
M  V30 5178 H 490.199 -2.65336 1.29154 0
M  V30 5179 H 490.28 -1.18078 2.26917 0
M  V30 5180 H 489.924 -2.58424 4.37241 0
M  V30 5181 H 489.854 -4.05132 3.36416 0
M  V30 5182 H 492.345 -2.63287 2.71088 0
M  V30 5183 H 492.658 -4.91797 5.96117 0
M  V30 5184 H 491.003 -4.42822 5.35662 0
M  V30 5185 H 494.194 -3.20033 3.41609 0
M  V30 5186 H 494.367 -4.24253 4.8981 0
M  V30 5187 N 487.773 -1.03688 -1.18687 0
M  V30 5188 C 489.02 -0.73803 -1.88572 0
M  V30 5189 C 489.348 0.733973 -1.8012 0
M  V30 5190 O 488.603 1.55098 -1.19344 0
M  V30 5191 C 488.902 -1.14477 -3.3857 0
M  V30 5192 C 488.568 -2.61641 -3.67226 0
M  V30 5193 C 487.23 -3.01846 -3.74757 0
M  V30 5194 C 489.582 -3.56812 -3.79914 0
M  V30 5195 C 486.91 -4.36118 -3.92451 0
M  V30 5196 C 489.262 -4.90799 -3.99123 0
M  V30 5197 C 487.926 -5.3068 -4.04888 0
M  V30 5198 H 487.196 -0.270064 -0.690034 0
M  V30 5199 H 489.843 -1.3012 -1.40503 0
M  V30 5200 H 488.148 -0.500337 -3.88592 0
M  V30 5201 H 489.845 -0.89095 -3.90977 0
M  V30 5202 H 486.435 -2.29498 -3.61979 0
M  V30 5203 H 490.619 -3.26899 -3.73431 0
M  V30 5204 H 485.875 -4.66542 -3.95157 0
M  V30 5205 H 490.049 -5.64451 -4.07882 0
M  V30 5206 H 487.676 -6.34733 -4.18351 0
M  V30 5207 N 489.251 1.34841 -0.815825 0
M  V30 5208 C 490.498 1.98499 -0.400535 0
M  V30 5209 C 490.826 1.64699 1.03463 0
M  V30 5210 O 490.081 0.907006 1.73412 0
M  V30 5211 C 490.38 3.53273 -0.541541 0
M  V30 5212 C 490.046 4.06966 -1.94138 0
M  V30 5213 C 488.708 4.21341 -2.32433 0
M  V30 5214 C 491.06 4.35933 -2.85677 0
M  V30 5215 C 488.388 4.62007 -3.61617 0
M  V30 5216 C 490.74 4.78042 -4.14317 0
M  V30 5217 C 489.404 4.90622 -4.52599 0
M  V30 5218 H 488.674 0.72636 -0.146566 0
M  V30 5219 H 491.321 1.60902 -1.0384 0
M  V30 5220 H 489.626 3.91387 0.179741 0
M  V30 5221 H 491.323 4.00497 -0.20085 0
M  V30 5222 H 487.913 3.96235 -1.63388 0
M  V30 5223 H 492.097 4.24372 -2.57337 0
M  V30 5224 H 487.353 4.69937 -3.91113 0
M  V30 5225 H 491.527 4.99415 -4.85342 0
M  V30 5226 H 489.154 5.2189 -5.52752 0
M  V30 5227 N 490.729 0.570148 1.46925 0
M  V30 5228 C 491.959 0.0561151 2.06524 0
M  V30 5229 C 492.367 -1.24874 1.42137 0
M  V30 5230 O 491.71 -1.76292 0.516417 0
M  V30 5231 C 491.772 -0.197035 3.5896 0
M  V30 5232 C 491.436 1.02033 4.45464 0
M  V30 5233 C 492.433 1.92921 4.82781 0
M  V30 5234 C 490.118 1.23864 4.86788 0
M  V30 5235 C 492.112 3.03999 5.60235 0
M  V30 5236 C 489.799 2.35249 5.64004 0
M  V30 5237 C 490.797 3.25146 6.0064 0
M  V30 5238 O 490.485 4.34598 6.76299 0
M  V30 5239 H 490.217 0.0487409 0.674241 0
M  V30 5240 H 492.771 0.786915 1.89728 0
M  V30 5241 H 491.001 -0.982299 3.74016 0
M  V30 5242 H 492.69 -0.658032 4.00531 0
M  V30 5243 H 493.456 1.77265 4.51444 0
M  V30 5244 H 489.335 0.54805 4.57731 0
M  V30 5245 H 492.879 3.74192 5.8875 0
M  V30 5246 H 488.776 2.50873 5.94755 0
M  V30 5247 H 489.544 4.32808 6.94708 0
M  V30 5248 N 492.207 -1.54576 0.307264 0
M  V30 5249 C 493.154 -2.23751 -0.56604 0
M  V30 5250 C 494.124 -1.22235 -1.12462 0
M  V30 5251 O 495.309 -1.50873 -1.16799 0
M  V30 5252 C 492.449 -2.98661 -1.72903 0
M  V30 5253 C 491.562 -4.14963 -1.20124 0
M  V30 5254 C 490.697 -4.77441 -2.3286 0
M  V30 5255 C 489.736 -5.85875 -1.77247 0
M  V30 5256 N 488.873 -6.42282 -2.8358 0
M  V30 5257 H 493.713 -2.97984 0.0304578 0
M  V30 5258 H 491.25 -1.47076 0.0268015 0
M  V30 5259 H 493.208 -3.40329 -2.41313 0
M  V30 5260 H 491.838 -2.26793 -2.29706 0
M  V30 5261 H 490.89 -3.78193 -0.409198 0
M  V30 5262 H 492.202 -4.93066 -0.754171 0
M  V30 5263 H 491.356 -5.21993 -3.09205 0
M  V30 5264 H 490.095 -3.98684 -2.80896 0
M  V30 5265 H 489.1 -5.40741 -0.993926 0
M  V30 5266 H 490.325 -6.6652 -1.30107 0
M  V30 5267 H 488.271 -5.66406 -3.30939 0
M  V30 5268 H 488.188 -7.1575 -2.43388 0
M  V30 5269 H 489.456 -6.91492 -3.59804 0
M  V30 5270 N 493.685 -0.035106 -1.57561 0
M  V30 5271 C 494.595 0.960295 -2.14046 0
M  V30 5272 C 495.611 1.3529 -1.0942 0
M  V30 5273 O 496.787 1.43309 -1.41508 0
M  V30 5274 C 493.852 2.22214 -2.66124 0
M  V30 5275 C 492.913 1.8894 -3.85487 0
M  V30 5276 C 492.146 3.09109 -4.35072 0
M  V30 5277 O 492.369 4.21963 -3.83802 0
M  V30 5278 O 491.303 2.91058 -5.26848 0
M  V30 5279 H 495.129 0.509983 -2.99387 0
M  V30 5280 H 492.714 0.185853 -1.48239 0
M  V30 5281 H 494.596 2.96279 -2.99661 0
M  V30 5282 H 493.271 2.66414 -1.83862 0
M  V30 5283 H 492.178 1.12241 -3.56865 0
M  V30 5284 H 493.511 1.49551 -4.6893 0
M  V30 5285 N 495.163 1.55791 0.238111 0
M  V30 5286 C 496.11 1.9105 1.29493 0
M  V30 5287 C 497.08 0.765733 1.47397 0
M  V30 5288 O 498.265 1.02017 1.61236 0
M  V30 5289 C 495.405 2.21826 2.64362 0
M  V30 5290 C 494.518 3.49153 2.54394 0
M  V30 5291 C 493.653 3.69455 3.81676 0
M  V30 5292 C 492.692 4.90353 3.66361 0
M  V30 5293 N 491.829 5.07131 4.85554 0
M  V30 5294 H 496.669 2.81172 0.987233 0
M  V30 5295 H 494.206 1.39179 0.476203 0
M  V30 5296 H 496.164 2.37675 3.4288 0
M  V30 5297 H 494.794 1.34897 2.93262 0
M  V30 5298 H 493.846 3.41587 1.67399 0
M  V30 5299 H 495.158 4.37818 2.38991 0
M  V30 5300 H 494.312 3.85311 4.68636 0
M  V30 5301 H 493.051 2.7904 3.99985 0
M  V30 5302 H 492.056 4.74464 2.77784 0
M  V30 5303 H 493.281 5.82237 3.49538 0
M  V30 5304 H 491.227 4.19654 5.04209 0
M  V30 5305 H 491.144 5.89899 4.72816 0
M  V30 5306 H 492.412 5.27407 5.73988 0
M  V30 5307 N 496.642 -0.504142 1.49319 0
M  V30 5308 C 497.552 -1.63248 1.68486 0
M  V30 5309 C 498.568 -1.64488 0.567432 0
M  V30 5310 O 499.744 -1.82966 0.841749 0
M  V30 5311 C 496.809 -2.99627 1.74426 0
M  V30 5312 C 495.87 -3.09039 2.97982 0
M  V30 5313 C 495.103 -4.38913 3.0363 0
M  V30 5314 O 495.326 -5.27528 2.16958 0
M  V30 5315 O 494.26 -4.53231 3.96062 0
M  V30 5316 H 498.086 -1.50008 2.64067 0
M  V30 5317 H 495.671 -0.680086 1.33023 0
M  V30 5318 H 497.553 -3.80689 1.80705 0
M  V30 5319 H 496.228 -3.13136 0.820233 0
M  V30 5320 H 495.135 -2.27177 2.97223 0
M  V30 5321 H 496.468 -3.00456 3.89855 0
M  V30 5322 N 498.12 -1.38341 -0.754957 0
M  V30 5323 C 499.345 -1.37882 -1.5493 0
M  V30 5324 C 499.77 0.0296385 -1.88077 0
M  V30 5325 O 499.128 1.01133 -1.50472 0
M  V30 5326 C 499.176 -2.23996 -2.82592 0
M  V30 5327 O 498.28 -1.65612 -3.77686 0
M  V30 5328 H 497.621 -0.470384 -0.468652 0
M  V30 5329 H 500.151 -1.82084 -0.933082 0
M  V30 5330 H 500.161 -2.37806 -3.3153 0
M  V30 5331 H 498.836 -3.26365 -2.57796 0
M  V30 5332 H 497.413 -1.60936 -3.36384 0
M  V30 5333 N 499.598 0.982988 -1.23187 0
M  V30 5334 C 500.844 1.72648 -1.06398 0
M  V30 5335 C 501.177 1.90066 0.398561 0
M  V30 5336 O 500.452 1.45105 1.29518 0
M  V30 5337 C 500.735 3.12627 -1.78707 0
M  V30 5338 C 500.588 3.02795 -3.32618 0
M  V30 5339 C 501.907 4.11997 -1.54747 0
M  V30 5340 H 499.026 0.626649 -0.387918 0
M  V30 5341 H 501.668 1.14455 -1.51658 0
M  V30 5342 H 499.818 3.62308 -1.40234 0
M  V30 5343 H 501.49 2.60659 -3.80598 0
M  V30 5344 H 499.733 2.39362 -3.61785 0
M  V30 5345 H 500.404 4.01893 -3.78399 0
M  V30 5346 H 502.88 3.71114 -1.88186 0
M  V30 5347 H 501.756 5.08037 -2.07821 0
M  V30 5348 H 502.017 4.39462 -0.482249 0
M  V30 5349 N 501.076 1.04316 1.18135 0
M  V30 5350 C 502.024 0.630175 2.23901 0
M  V30 5351 C 503.018 -0.344254 1.65865 0
M  V30 5352 O 504.224 -0.211273 1.78756 0
M  V30 5353 H 500.599 0.185578 0.728742 0
M  V30 5354 H 502.57 1.53253 2.56039 0
M  V30 5355 C 501.319 0.011666 3.47698 0
M  V30 5356 H 500.642 0.752526 3.92654 0
M  V30 5357 H 502.082 -0.240046 4.2332 0
M  V30 5358 C 500.541 -1.23913 3.13285 0
M  V30 5359 O 501.071 -2.32959 3.27251 0
M  V30 5360 N 499.277 -1.13338 2.67587 0
M  V30 5361 H 498.824 -0.246006 2.56423 0
M  V30 5362 H 498.782 -1.97116 2.44934 0
M  V30 5363 N 502.554 -1.34406 0.822964 0
M  V30 5364 C 503.517 -2.2783 0.250271 0
M  V30 5365 C 504.517 -1.50288 -0.571854 0
M  V30 5366 O 505.707 -1.69825 -0.387952 0
M  V30 5367 C 502.839 -3.34663 -0.649137 0
M  V30 5368 H 504.032 -2.79992 1.07444 0
M  V30 5369 H 501.585 -1.44539 0.594829 0
M  V30 5370 H 502.32 -2.87714 -1.49637 0
M  V30 5371 H 502.105 -3.92052 -0.0611199 0
M  V30 5372 H 503.595 -4.04349 -1.04363 0
M  V30 5373 N 504.032 -0.577932 -1.46621 0
M  V30 5374 C 504.979 0.158048 -2.30258 0
M  V30 5375 C 505.949 0.888669 -1.40328 0
M  V30 5376 O 507.134 0.880283 -1.6928 0
M  V30 5377 C 504.274 1.16884 -3.24703 0
M  V30 5378 C 503.387 0.442163 -4.29731 0
M  V30 5379 C 502.522 1.44007 -5.11308 0
M  V30 5380 C 501.561 0.69952 -6.0809 0
M  V30 5381 N 500.698 1.64525 -6.82551 0
M  V30 5382 H 505.538 -0.561242 -2.92667 0
M  V30 5383 H 503.075 -0.288591 -1.44241 0
M  V30 5384 H 505.033 1.7677 -3.779 0
M  V30 5385 H 503.663 1.85591 -2.64113 0
M  V30 5386 H 502.715 -0.271632 -3.79429 0
M  V30 5387 H 504.027 -0.136992 -4.98612 0
M  V30 5388 H 503.181 2.11186 -5.68758 0
M  V30 5389 H 501.92 2.05315 -4.42377 0
M  V30 5390 H 500.925 0.0139217 -5.49798 0
M  V30 5391 H 502.15 0.091894 -6.79038 0
M  V30 5392 H 500.096 2.24653 -6.16334 0
M  V30 5393 H 500.013 1.11878 -7.47676 0
M  V30 5394 H 501.281 2.30754 -7.44562 0
M  V30 5395 N 505.51 1.54411 -0.315457 0
M  V30 5396 C 506.756 2.00716 0.289972 0
M  V30 5397 C 507.089 1.2034 1.5242 0
M  V30 5398 O 506.364 0.283579 1.92422 0
M  V30 5399 C 506.647 3.54507 0.632196 0
M  V30 5400 C 506.5 4.45615 -0.61218 0
M  V30 5401 C 507.819 4.15421 1.45305 0
M  V30 5402 H 504.938 0.729637 0.10392 0
M  V30 5403 H 507.58 1.8506 -0.430427 0
M  V30 5404 H 505.73 3.67979 1.24595 0
M  V30 5405 H 507.402 4.44026 -1.25053 0
M  V30 5406 H 505.645 4.15621 -1.24264 0
M  V30 5407 H 506.316 5.51022 -0.328379 0
M  V30 5408 H 508.792 4.05474 0.934331 0
M  V30 5409 H 507.668 5.23157 1.66127 0
M  V30 5410 H 507.929 3.68223 2.44671 0
M  V30 5411 N 506.988 0.0434614 1.5754 0
M  V30 5412 C 507.918 -0.931651 2.14109 0
M  V30 5413 C 508.899 -1.32971 1.06079 0
M  V30 5414 O 510.084 -1.40579 1.33982 0
M  V30 5415 C 507.214 -2.20914 2.67982 0
M  V30 5416 C 506.168 -1.95139 3.80926 0
M  V30 5417 C 505.494 -3.29276 4.21285 0
M  V30 5418 C 506.794 -1.27913 5.06395 0
M  V30 5419 H 508.488 -0.460497 2.95837 0
M  V30 5420 H 506.034 -0.220058 1.42309 0
M  V30 5421 H 507.987 -2.89522 3.06194 0
M  V30 5422 H 506.711 -2.70221 1.83434 0
M  V30 5423 H 505.37 -1.28945 3.43175 0
M  V30 5424 H 505.018 -3.76369 3.33699 0
M  V30 5425 H 504.718 -3.12831 4.97404 0
M  V30 5426 H 506.242 -3.99129 4.62091 0
M  V30 5427 H 507.656 -1.86544 5.42102 0
M  V30 5428 H 506.053 -1.2182 5.87605 0
M  V30 5429 H 507.123 -0.254066 4.84234 0
M  V30 5430 N 508.466 -1.55915 -0.229846 0
M  V30 5431 C 509.413 -1.91734 -1.28478 0
M  V30 5432 C 510.383 -0.773539 -1.46988 0
M  V30 5433 O 511.568 -1.02871 -1.60693 0
M  V30 5434 C 508.708 -2.23224 -2.63182 0
M  V30 5435 C 507.821 -3.50497 -2.52539 0
M  V30 5436 C 506.956 -3.71474 -3.79711 0
M  V30 5437 C 505.995 -4.92289 -3.63755 0
M  V30 5438 N 505.132 -5.09698 -4.82858 0
M  V30 5439 H 509.972 -2.81692 -0.972308 0
M  V30 5440 H 507.509 -1.39429 -0.468815 0
M  V30 5441 H 509.467 -2.3949 -3.41614 0
M  V30 5442 H 508.097 -1.36451 -2.92542 0
M  V30 5443 H 507.149 -3.4247 -1.65585 0
M  V30 5444 H 508.461 -4.39079 -2.36666 0
M  V30 5445 H 507.615 -3.87791 -4.66586 0
M  V30 5446 H 506.354 -2.81157 -3.985 0
M  V30 5447 H 505.359 -4.7593 -2.75264 0
M  V30 5448 H 506.584 -5.84083 -3.46445 0
M  V30 5449 H 504.53 -4.22322 -5.01976 0
M  V30 5450 H 504.447 -5.92399 -4.69681 0
M  V30 5451 H 505.715 -5.30443 -5.71183 0
M  V30 5452 N 509.944 0.496216 -1.49584 0
M  V30 5453 C 511.221 1.25755 -1.49816 0
M  V30 5454 C 511.601 2.09859 -0.228572 0
M  V30 5455 O 510.949 2.14449 0.788908 0
M  V30 5456 C 511.159 2.11017 -2.7798 0
M  V30 5457 C 512.507 2.70047 -3.27658 0
M  V30 5458 O 513.531 2.21281 -2.79129 0
M  V30 5459 O 512.39 3.58834 -4.1219 0
M  V30 5460 H 509.484 0.569322 -0.599834 0
M  V30 5461 H 512.03 0.510094 -1.61852 0
M  V30 5462 H 510.802 1.48879 -3.61871 0
M  V30 5463 H 510.425 2.92947 -2.68827 0
M  V30 5464 N 511.423 1.38739 0.74761 0
M  V30 5465 C 512.669 1.35475 1.50912 0
M  V30 5466 C 513.002 -0.0533093 1.94127 0
M  V30 5467 O 512.277 -1.01572 1.65871 0
M  V30 5468 C 512.56 2.31582 2.75757 0
M  V30 5469 C 512.413 3.81274 2.38642 0
M  V30 5470 C 513.732 2.25722 3.77806 0
M  V30 5471 H 510.851 0.493427 0.547447 0
M  V30 5472 H 513.493 1.69634 0.855823 0
M  V30 5473 H 511.643 2.02582 3.31501 0
M  V30 5474 H 513.315 4.20972 1.88626 0
M  V30 5475 H 511.558 3.98664 1.71025 0
M  V30 5476 H 512.229 4.4399 3.27989 0
M  V30 5477 H 514.705 2.51336 3.31616 0
M  V30 5478 H 513.581 2.95069 4.62845 0
M  V30 5479 H 513.842 1.25803 4.23823 0
M  V30 5480 N 512.901 -0.976442 1.23707 0
M  V30 5481 C 513.848 -2.06952 1.02174 0
M  V30 5482 C 514.818 -1.65984 -0.0621034 0
M  V30 5483 O 516.003 -1.90584 0.0907906 0
M  V30 5484 C 513.143 -3.39425 0.62327 0
M  V30 5485 C 512.256 -3.9364 1.77966 0
M  V30 5486 C 511.391 -5.14343 1.3276 0
M  V30 5487 C 510.43 -5.60733 2.45449 0
M  V30 5488 N 509.567 -6.72662 2.01172 0
M  V30 5489 H 514.407 -2.24704 1.95734 0
M  V30 5490 H 511.944 -1.10143 0.975034 0
M  V30 5491 H 513.902 -4.15526 0.37332 0
M  V30 5492 H 512.532 -3.21624 -0.275329 0
M  V30 5493 H 511.584 -3.14258 2.14351 0
M  V30 5494 H 512.896 -4.24035 2.62671 0
M  V30 5495 H 512.05 -5.97789 1.03601 0
M  V30 5496 H 510.789 -4.8561 0.450975 0
M  V30 5497 H 509.794 -4.75865 2.75378 0
M  V30 5498 H 511.019 -5.91483 3.33654 0
M  V30 5499 H 508.965 -6.45681 1.15895 0
M  V30 5500 H 508.882 -7.02462 2.79434 0
M  V30 5501 H 510.15 -7.59572 1.75129 0
M  V30 5502 N 514.379 -1.04941 -1.1758 0
M  V30 5503 C 515.626 -0.757989 -1.87779 0
M  V30 5504 C 515.954 0.714827 -1.80888 0
M  V30 5505 O 515.209 1.53824 -1.20982 0
M  V30 5506 C 515.508 -1.18062 -3.37337 0
M  V30 5507 C 515.174 -2.65521 -3.6443 0
M  V30 5508 C 513.836 -3.05804 -3.71534 0
M  V30 5509 C 516.188 -3.60822 -3.76108 0
M  V30 5510 C 513.516 -4.40256 -3.87803 0
M  V30 5511 C 515.868 -4.95005 -3.93895 0
M  V30 5512 C 514.532 -5.34945 -3.99237 0
M  V30 5513 H 513.802 -0.277368 -0.68713 0
M  V30 5514 H 516.449 -1.31603 -1.39115 0
M  V30 5515 H 514.754 -0.541525 -3.8804 0
M  V30 5516 H 516.451 -0.932368 -3.9001 0
M  V30 5517 H 513.041 -2.33324 -3.59524 0
M  V30 5518 H 517.225 -3.30841 -3.69943 0
M  V30 5519 H 512.481 -4.70707 -3.90186 0
M  V30 5520 H 516.655 -5.68746 -4.01872 0
M  V30 5521 H 514.282 -6.39135 -4.11596 0
M  V30 5522 N 515.857 1.33968 -0.830081 0
M  V30 5523 C 517.268 1.80439 -0.479455 0
M  V30 5524 C 517.619 1.68756 1.00079 0
M  V30 5525 O 516.744 1.23171 1.77927 0
M  V30 5526 C 517.339 3.27611 -0.863505 0
M  V30 5527 C 515.898 3.72133 -0.565145 0
M  V30 5528 C 515.045 2.55549 -1.07657 0
M  V30 5529 H 517.996 1.21614 -1.0196 0
M  V30 5530 H 518.017 3.8012 -0.170083 0
M  V30 5531 H 517.529 3.36082 -1.94089 0
M  V30 5532 H 515.63 3.69196 0.502536 0
M  V30 5533 H 515.743 4.65963 -1.11422 0
M  V30 5534 H 514.107 2.49788 -0.497807 0
M  V30 5535 H 514.89 2.66786 -2.16055 0
M  V30 5536 N 517.335 0.585699 1.46312 0
M  V30 5537 C 518.265 -0.133556 2.33118 0
M  V30 5538 C 519.246 -0.880707 1.45525 0
M  V30 5539 O 520.431 -0.855579 1.74337 0
M  V30 5540 C 517.561 -1.14585 3.27853 0
M  V30 5541 C 516.515 -0.513341 4.2491 0
M  V30 5542 C 515.841 -1.63231 5.09175 0
M  V30 5543 C 517.141 0.551413 5.19381 0
M  V30 5544 H 518.835 0.59121 2.93505 0
M  V30 5545 H 516.381 0.285761 1.41136 0
M  V30 5546 H 518.334 -1.65741 3.87438 0
M  V30 5547 H 517.058 -1.90093 2.65579 0
M  V30 5548 H 515.717 -0.0228349 3.66593 0
M  V30 5549 H 515.365 -2.37713 4.43285 0
M  V30 5550 H 515.065 -1.21473 5.74907 0
M  V30 5551 H 516.589 -2.14658 5.71624 0
M  V30 5552 H 518.003 0.124804 5.73164 0
M  V30 5553 H 516.4 0.889486 5.93471 0
M  V30 5554 H 517.47 1.43655 4.63132 0
M  V30 5555 N 518.813 -1.54241 0.323641 0
M  V30 5556 C 519.746 -2.20579 -0.584833 0
M  V30 5557 C 520.724 -1.18286 -1.11567 0
M  V30 5558 O 521.908 -1.47025 -1.17966 0
M  V30 5559 C 519.035 -2.86754 -1.80249 0
M  V30 5560 C 518.081 -4.02767 -1.4029 0
M  V30 5561 S 518.914 -5.33693 -0.439539 0
M  V30 5562 C 520.07 -6.03362 -1.66448 0
M  V30 5563 H 520.303 -2.97292 -0.0213238 0
M  V30 5564 H 517.836 -1.54024 0.107726 0
M  V30 5565 H 519.794 -3.25503 -2.50116 0
M  V30 5566 H 518.455 -2.09844 -2.33719 0
M  V30 5567 H 517.648 -4.47933 -2.31024 0
M  V30 5568 H 517.25 -3.65692 -0.783928 0
M  V30 5569 H 519.542 -6.25546 -2.6019 0
M  V30 5570 H 520.485 -6.9689 -1.25498 0
M  V30 5571 H 520.893 -5.33273 -1.85149 0
M  V30 5572 N 520.291 -0.0518155 -1.57515 0
M  V30 5573 C 521.221 0.920283 -2.146 0
M  V30 5574 C 522.202 1.32406 -1.06783 0
M  V30 5575 O 523.387 1.39866 -1.34726 0
M  V30 5576 C 520.517 2.1949 -2.6915 0
M  V30 5577 C 519.471 1.93116 -3.81956 0
M  V30 5578 C 518.797 3.27037 -4.23026 0
M  V30 5579 C 520.097 1.25225 -5.07066 0
M  V30 5580 H 521.791 0.444801 -2.96077 0
M  V30 5581 H 519.337 0.212508 -1.42423 0
M  V30 5582 H 521.29 2.87894 -3.07725 0
M  V30 5583 H 520.014 2.69244 -1.84865 0
M  V30 5584 H 518.673 1.27123 -3.43854 0
M  V30 5585 H 518.321 3.74595 -3.3569 0
M  V30 5586 H 518.021 3.10189 -4.99056 0
M  V30 5587 H 519.545 3.96673 -4.64202 0
M  V30 5588 H 520.959 1.83666 -5.43083 0
M  V30 5589 H 519.356 1.18702 -5.88243 0
M  V30 5590 H 520.426 0.228382 -4.84362 0
M  V30 5591 N 521.769 1.56035 0.221574 0
M  V30 5592 C 523.046 1.69837 0.970301 0
M  V30 5593 C 523.426 0.599065 2.02421 0
M  V30 5594 O 522.774 -0.393929 2.25079 0
M  V30 5595 C 522.984 3.11148 1.58076 0
M  V30 5596 C 524.332 3.70555 2.07302 0
M  V30 5597 O 525.356 3.14109 1.6797 0
M  V30 5598 O 524.215 4.69562 2.79596 0
M  V30 5599 H 521.309 0.691727 0.453257 0
M  V30 5600 H 523.855 1.68353 0.213358 0
M  V30 5601 H 522.627 3.82617 0.819759 0
M  V30 5602 H 522.25 3.16749 2.40324 0
M  V30 5603 N 523.247 -0.488276 1.49845 0
M  V30 5604 C 524.18 -1.60651 1.62069 0
M  V30 5605 C 525.158 -1.5568 0.469308 0
M  V30 5606 O 526.342 -1.75553 0.686551 0
M  V30 5607 C 523.469 -2.99197 1.58741 0
M  V30 5608 C 522.515 -3.22385 2.79232 0
M  V30 5609 S 523.348 -3.04133 4.40753 0
M  V30 5610 C 524.504 -4.45052 4.4009 0
M  V30 5611 H 524.737 -1.50039 2.56662 0
M  V30 5612 H 522.27 -0.674371 1.38894 0
M  V30 5613 H 524.228 -3.79081 1.57506 0
M  V30 5614 H 522.889 -3.07213 0.654136 0
M  V30 5615 H 522.082 -4.23557 2.73159 0
M  V30 5616 H 521.684 -2.50245 2.77945 0
M  V30 5617 H 523.976 -5.37375 4.12594 0
M  V30 5618 H 524.919 -4.56172 5.41583 0
M  V30 5619 H 525.327 -4.26327 3.70008 0
M  V30 5620 N 524.725 -1.39134 -0.740242 0
M  V30 5621 C 525.955 -1.39132 -1.52728 0
M  V30 5622 C 526.363 0.0173133 -1.89192 0
M  V30 5623 O 525.706 0.997715 -1.54244 0
M  V30 5624 C 525.768 -2.1952 -2.84695 0
M  V30 5625 C 525.432 -3.68203 -2.70695 0
M  V30 5626 C 526.429 -4.61401 -2.39593 0
M  V30 5627 C 524.114 -4.11724 -2.8773 0
M  V30 5628 C 526.108 -5.96102 -2.25701 0
M  V30 5629 C 523.795 -5.46503 -2.73456 0
M  V30 5630 C 524.793 -6.38506 -2.42486 0
M  V30 5631 O 524.481 -7.70803 -2.28295 0
M  V30 5632 H 524.213 -0.477263 -0.478744 0
M  V30 5633 H 526.767 -1.83504 -0.922799 0
M  V30 5634 H 524.997 -1.69888 -3.47383 0
M  V30 5635 H 526.686 -2.1176 -3.46284 0
M  V30 5636 H 527.452 -4.29079 -2.26088 0
M  V30 5637 H 523.331 -3.4045 -3.10829 0
M  V30 5638 H 526.875 -6.6788 -2.0145 0
M  V30 5639 H 522.772 -5.78417 -2.86538 0
M  V30 5640 H 523.54 -7.8147 -2.43405 0
M  V30 5641 N 526.204 0.969867 -1.24223 0
M  V30 5642 C 527.114 2.09806 -1.0497 0
M  V30 5643 C 528.13 1.73998 0.00886455 0
M  V30 5644 O 529.306 2.00513 -0.188848 0
M  V30 5645 C 526.371 3.40467 -0.654452 0
M  V30 5646 C 525.432 3.90236 -1.78926 0
M  V30 5647 C 524.665 5.14662 -1.41277 0
M  V30 5648 O 524.888 5.69602 -0.301632 0
M  V30 5649 O 523.822 5.58761 -2.23763 0
M  V30 5650 H 527.648 2.28942 -1.99548 0
M  V30 5651 H 525.233 1.08197 -1.03023 0
M  V30 5652 H 527.115 4.19039 -0.445452 0
M  V30 5653 H 525.79 3.22636 0.262216 0
M  V30 5654 H 524.697 3.12735 -2.05299 0
M  V30 5655 H 526.03 4.1254 -2.68462 0
M  V30 5656 N 527.682 1.05563 1.17022 0
M  V30 5657 C 528.612 0.681026 2.23348 0
M  V30 5658 C 529.593 -0.322983 1.67005 0
M  V30 5659 O 530.778 -0.199746 1.9317 0
M  V30 5660 C 527.908 0.0589053 3.4725 0
M  V30 5661 C 526.862 0.988082 4.16438 0
M  V30 5662 C 526.188 0.229646 5.34207 0
M  V30 5663 C 527.488 2.31388 4.68249 0
M  V30 5664 H 529.182 1.56993 2.54938 0
M  V30 5665 H 526.728 0.756302 1.2254 0
M  V30 5666 H 528.681 -0.214982 4.20851 0
M  V30 5667 H 527.405 -0.864968 3.14938 0
M  V30 5668 H 526.064 1.24659 3.44754 0
M  V30 5669 H 525.712 -0.697111 4.98146 0
M  V30 5670 H 525.412 0.848815 5.81437 0
M  V30 5671 H 526.936 -0.0368694 6.10589 0
M  V30 5672 H 528.35 2.09964 5.33468 0
M  V30 5673 H 526.747 2.88736 5.26072 0
M  V30 5674 H 527.817 2.94982 3.84855 0
M  V30 5675 N 529.16 -1.33526 0.837174 0
M  V30 5676 C 530.4 -1.99649 0.438115 0
M  V30 5677 C 530.764 -1.64879 -0.983816 0
M  V30 5678 O 531.965 -2.23956 -1.48651 0
M  V30 5679 C 530.236 -3.51431 0.650461 0
M  V30 5680 S 531.795 -4.37431 0.346371 0
M  V30 5681 H 528.613 -0.69162 0.164872 0
M  V30 5682 H 531.215 -1.62556 1.08609 0
M  V30 5683 H 529.919 -3.74225 1.68475 0
M  V30 5684 H 529.45 -3.93398 -0.0117309 0
M  V30 5685 H 531.465 -4.89132 -0.834504 0
M  V30 5686 N 530.638 -0.59345 -1.46 0
M  V30 5687 C 531.866 -0.0890934 -2.06708 0
M  V30 5688 C 532.281 1.2205 -1.44046 0
M  V30 5689 O 531.638 1.74029 -0.549551 0
M  V30 5690 C 531.689 0.0720263 -3.61428 0
M  V30 5691 O 531.41 -1.18574 -4.21748 0
M  V30 5692 C 532.911 0.609487 -4.3909 0
M  V30 5693 H 530.131 -0.0623628 -0.668096 0
M  V30 5694 H 532.675 -0.817171 -1.87464 0
M  V30 5695 H 530.83 0.750369 -3.80063 0
M  V30 5696 H 531.244 -1.0064 -5.14754 0
M  V30 5697 H 532.718 0.671363 -5.47902 0
M  V30 5698 H 533.195 1.62878 -4.07882 0
M  V30 5699 H 533.801 -0.03434 -4.25286 0
M  V30 5700 N 532.116 1.54067 -0.331816 0
M  V30 5701 C 533.527 1.86059 0.15454 0
M  V30 5702 C 533.878 1.25331 1.50952 0
M  V30 5703 O 533.003 0.562441 2.08963 0
M  V30 5704 C 533.598 3.37581 0.287192 0
M  V30 5705 C 532.157 3.69493 0.717773 0
M  V30 5706 C 531.304 2.76863 -0.155569 0
M  V30 5707 H 534.255 1.48797 -0.55182 0
M  V30 5708 H 534.276 3.63744 1.11671 0
M  V30 5709 H 533.788 3.81751 -0.699131 0
M  V30 5710 H 531.889 3.3086 1.71354 0
M  V30 5711 H 532.002 4.76315 0.5158 0
M  V30 5712 H 530.366 2.51995 0.370213 0
M  V30 5713 H 531.149 3.23861 -1.13881 0
M  V30 5714 N 533.594 0.0601682 1.57485 0
M  V30 5715 C 534.504 -0.926121 2.15546 0
M  V30 5716 C 535.52 -1.33532 1.11558 0
M  V30 5717 O 536.696 -1.4104 1.4377 0
M  V30 5718 C 533.761 -2.17952 2.69625 0
M  V30 5719 C 532.822 -1.82783 3.88444 0
M  V30 5720 C 532.055 -3.02148 4.39935 0
M  V30 5721 O 532.278 -4.15803 3.90466 0
M  V30 5722 O 531.212 -2.82639 5.31412 0
M  V30 5723 H 535.038 -0.462289 3.00161 0
M  V30 5724 H 532.623 -0.162246 1.48516 0
M  V30 5725 H 534.505 -2.91474 3.04337 0
M  V30 5726 H 533.18 -2.63456 1.88077 0
M  V30 5727 H 532.087 -1.06549 3.58606 0
M  V30 5728 H 533.42 -1.42072 4.7125 0
M  V30 5729 N 535.072 -1.5615 -0.213296 0
M  V30 5730 C 536.002 -1.96109 -1.26742 0
M  V30 5731 C 536.983 -0.830448 -1.48451 0
M  V30 5732 O 538.168 -1.09339 -1.60495 0
M  V30 5733 C 535.298 -2.28492 -2.61551 0
M  V30 5734 C 534.252 -3.44124 -2.54485 0
M  V30 5735 C 533.578 -3.62134 -3.93399 0
M  V30 5736 C 534.878 -4.78855 -2.08556 0
M  V30 5737 H 536.572 -2.84412 -0.935434 0
M  V30 5738 H 534.118 -1.36836 -0.44854 0
M  V30 5739 H 536.071 -2.55039 -3.3546 0
M  V30 5740 H 534.795 -1.37052 -2.96453 0
M  V30 5741 H 533.454 -3.17639 -1.83033 0
M  V30 5742 H 533.102 -2.68055 -4.25623 0
M  V30 5743 H 532.802 -4.39913 -3.89551 0
M  V30 5744 H 534.326 -3.91038 -4.68958 0
M  V30 5745 H 535.74 -5.04552 -2.72213 0
M  V30 5746 H 534.137 -5.59975 -2.1575 0
M  V30 5747 H 535.207 -4.73657 -1.03811 0
M  V30 5748 N 536.55 0.480323 -1.50102 0
M  V30 5749 C 537.482 1.59669 -1.64433 0
M  V30 5750 C 538.495 1.54063 -0.52615 0
M  V30 5751 O 539.684 1.59619 -0.798992 0
M  V30 5752 C 536.784 2.98527 -1.6042 0
M  V30 5753 C 535.957 3.291 -2.88117 0
M  V30 5754 C 535.016 4.47468 -2.76873 0
M  V30 5755 O 534.042 4.4823 -3.50825 0
M  V30 5756 N 535.244 5.48593 -1.89806 0
M  V30 5757 H 538.009 1.47795 -2.60723 0
M  V30 5758 H 535.57 0.66858 -1.4745 0
M  V30 5759 H 537.562 3.75666 -1.50523 0
M  V30 5760 H 536.132 3.04218 -0.719036 0
M  V30 5761 H 535.352 2.40662 -3.12211 0
M  V30 5762 H 536.64 3.46334 -3.72734 0
M  V30 5763 H 536.038 5.50791 -1.2902 0
M  V30 5764 H 534.595 6.24752 -1.85819 0
M  V30 5765 N 538.028 1.39524 0.732853 0
M  V30 5766 C 538.938 1.40695 1.87729 0
M  V30 5767 C 539.954 0.301496 1.71368 0
M  V30 5768 O 541.13 0.543313 1.93933 0
M  V30 5769 C 538.195 1.25098 3.23344 0
M  V30 5770 C 537.256 2.45634 3.52083 0
M  V30 5771 C 536.489 2.30772 4.81228 0
M  V30 5772 O 536.712 1.31233 5.55098 0
M  V30 5773 O 535.646 3.19799 5.09914 0
M  V30 5774 H 539.472 2.37168 1.89697 0
M  V30 5775 H 537.057 1.20663 0.880959 0
M  V30 5776 H 538.939 1.18541 4.04383 0
M  V30 5777 H 537.614 0.317209 3.22142 0
M  V30 5778 H 536.521 2.57767 2.71122 0
M  V30 5779 H 537.854 3.37712 3.58066 0
M  V30 5780 N 539.506 -0.963266 1.24736 0
M  V30 5781 C 540.453 -2.05857 1.04363 0
M  V30 5782 C 541.423 -1.6604 -0.0444951 0
M  V30 5783 O 542.608 -1.90477 0.110999 0
M  V30 5784 C 539.748 -3.38745 0.659235 0
M  V30 5785 C 538.861 -3.9173 1.82131 0
M  V30 5786 C 537.996 -5.12906 1.38208 0
M  V30 5787 C 537.035 -5.58098 2.51382 0
M  V30 5788 N 536.172 -6.7049 2.08295 0
M  V30 5789 H 541.012 -2.22616 1.98107 0
M  V30 5790 H 538.549 -1.09103 0.986661 0
M  V30 5791 H 540.507 -4.15107 0.417371 0
M  V30 5792 H 539.137 -3.21898 -0.241201 0
M  V30 5793 H 538.189 -3.11966 2.17672 0
M  V30 5794 H 539.501 -4.21225 2.67153 0
M  V30 5795 H 538.655 -5.96657 1.09935 0
M  V30 5796 H 537.394 -4.85105 0.502456 0
M  V30 5797 H 536.399 -4.72917 2.80409 0
M  V30 5798 H 537.624 -5.87911 3.39909 0
M  V30 5799 H 535.57 -6.44416 1.22737 0
M  V30 5800 H 535.487 -6.99458 2.86869 0
M  V30 5801 H 536.755 -7.57672 1.83175 0
M  V30 5802 N 540.985 -1.06182 -1.16461 0
M  V30 5803 C 541.918 -0.615859 -2.19733 0
M  V30 5804 C 542.896 0.360766 -1.58547 0
M  V30 5805 O 544.08 0.270009 -1.86556 0
M  V30 5806 C 541.207 0.097312 -3.3856 0
M  V30 5807 C 540.253 -0.835889 -4.18229 0
M  V30 5808 S 541.086 -2.33052 -4.82128 0
M  V30 5809 C 542.242 -1.62881 -6.04335 0
M  V30 5810 H 542.475 -1.49079 -2.57221 0
M  V30 5811 H 540.008 -0.874692 -1.27234 0
M  V30 5812 H 541.966 0.502563 -4.07412 0
M  V30 5813 H 540.627 0.948418 -2.99439 0
M  V30 5814 H 539.82 -0.283426 -5.03202 0
M  V30 5815 H 539.422 -1.18097 -3.54865 0
M  V30 5816 H 541.714 -0.933764 -6.71034 0
M  V30 5817 H 542.657 -2.45641 -6.64128 0
M  V30 5818 H 543.065 -1.11189 -5.53441 0
M  V30 5819 N 542.463 1.3308 -0.844243 0
M  V30 5820 C 543.709 1.97898 -0.443206 0
M  V30 5821 C 544.042 1.66699 0.99625 0
M  V30 5822 O 543.317 0.949704 1.69738 0
M  V30 5823 C 543.6 3.53801 -0.670606 0
M  V30 5824 C 543.453 3.94667 -2.15772 0
M  V30 5825 C 544.772 4.39936 -0.120226 0
M  V30 5826 H 541.891 0.718861 -0.162504 0
M  V30 5827 H 544.533 1.57633 -1.06075 0
M  V30 5828 H 542.683 3.88229 -0.14496 0
M  V30 5829 H 544.355 3.70469 -2.74865 0
M  V30 5830 H 542.598 3.44203 -2.6402 0
M  V30 5831 H 543.269 5.03275 -2.26757 0
M  V30 5832 H 545.745 4.12183 -0.5696 0
M  V30 5833 H 544.621 5.4803 -0.308984 0
M  V30 5834 H 544.882 4.31184 0.976347 0
M  V30 5835 N 543.941 0.601185 1.45683 0
M  V30 5836 C 545.166 0.0982245 2.07167 0
M  V30 5837 C 545.591 -1.20546 1.44396 0
M  V30 5838 O 544.949 -1.73247 0.534347 0
M  V30 5839 C 544.997 -0.0346976 3.60583 0
M  V30 5840 O 544.101 -1.08657 3.97828 0
M  V30 5841 H 543.442 0.0711618 0.660176 0
M  V30 5842 H 545.972 0.829376 1.87036 0
M  V30 5843 H 545.982 -0.234969 4.07323 0
M  V30 5844 H 544.657 0.917265 4.05659 0
M  V30 5845 H 543.234 -0.863275 3.6277 0
M  V30 5846 N 545.419 -1.53889 0.339982 0
M  V30 5847 C 546.666 -2.00855 -0.257621 0
M  V30 5848 C 546.994 -1.22788 -1.50842 0
M  V30 5849 O 546.249 -0.302567 -1.93347 0
M  V30 5850 C 546.548 -3.51968 -0.620735 0
M  V30 5851 C 546.214 -4.47741 0.532771 0
M  V30 5852 C 544.876 -4.73645 0.849339 0
M  V30 5853 C 547.228 -5.04551 1.3068 0
M  V30 5854 C 544.556 -5.53614 1.94237 0
M  V30 5855 C 546.908 -5.85713 2.39005 0
M  V30 5856 C 545.572 -6.09912 2.71225 0
M  V30 5857 H 544.842 -0.734979 -0.0942703 0
M  V30 5858 H 547.489 -1.85714 0.467159 0
M  V30 5859 H 545.794 -3.64921 -1.42618 0
M  V30 5860 H 547.491 -3.85762 -1.09495 0
M  V30 5861 H 544.081 -4.27711 0.275973 0
M  V30 5862 H 548.265 -4.84507 1.07549 0
M  V30 5863 H 543.521 -5.7059 2.19628 0
M  V30 5864 H 547.695 -6.28748 2.99415 0
M  V30 5865 H 545.322 -6.71665 3.56047 0
M  V30 5866 N 546.897 -0.0685191 -1.57451 0
M  V30 5867 C 548.313 0.288101 -1.56978 0
M  V30 5868 C 548.513 1.70262 -1.07765 0
M  V30 5869 O 547.569 2.4135 -0.742054 0
M  V30 5870 C 548.882 0.100745 -3.00531 0
M  V30 5871 C 550.43 0.170531 -3.12535 0
M  V30 5872 C 550.905 0.0114944 -4.57999 0
M  V30 5873 N 552.396 0.0672065 -4.63151 0
M  V30 5874 C 553.131 -0.0314813 -5.73391 0
M  V30 5875 N 552.627 -0.183503 -6.92557 0
M  V30 5876 N 554.42 0.0253489 -5.62094 0
M  V30 5877 H 546.571 -0.993026 -1.87757 0
M  V30 5878 H 548.834 -0.386981 -0.865419 0
M  V30 5879 H 548.54 -0.875197 -3.40636 0
M  V30 5880 H 548.414 0.854457 -3.67395 0
M  V30 5881 H 550.801 1.13696 -2.72318 0
M  V30 5882 H 550.882 -0.614229 -2.48316 0
M  V30 5883 H 550.526 -0.951684 -4.98904 0
M  V30 5884 H 550.456 0.815617 -5.20245 0
M  V30 5885 H 552.947 0.183246 -3.77455 0
M  V30 5886 H 553.26 -0.251041 -7.72392 0
M  V30 5887 H 551.605 -0.218822 -6.94655 0
M  V30 5888 H 554.796 0.142794 -4.67882 0
M  V30 5889 H 554.969 -0.0550166 -6.47977 0
M  V30 5890 N 548.375 1.56261 0.205012 0
M  V30 5891 C 549.6 1.84491 0.947512 0
M  V30 5892 C 550.025 0.650894 1.76479 0
M  V30 5893 O 549.383 -0.40035 1.76824 0
M  V30 5894 C 549.431 3.10863 1.82747 0
M  V30 5895 O 548.535 2.90719 2.925 0
M  V30 5896 H 547.876 0.607783 0.267386 0
M  V30 5897 H 550.406 2.03485 0.213323 0
M  V30 5898 H 550.416 3.41399 2.23407 0
M  V30 5899 H 549.091 3.97392 1.2269 0
M  V30 5900 H 547.668 2.71457 2.55667 0
M  V30 5901 N 549.853 -0.472356 1.50355 0
M  V30 5902 C 550.8 -1.57051 1.69126 0
M  V30 5903 C 551.77 -1.5733 0.532574 0
M  V30 5904 O 552.955 -1.7488 0.762994 0
M  V30 5905 C 550.095 -2.95033 1.79024 0
M  V30 5906 C 549.208 -3.04552 3.06386 0
M  V30 5907 C 548.343 -4.33441 3.07087 0
M  V30 5908 C 547.382 -4.36697 4.28908 0
M  V30 5909 N 546.519 -5.57056 4.27356 0
M  V30 5910 H 551.359 -1.40351 2.62879 0
M  V30 5911 H 548.896 -0.682403 1.30314 0
M  V30 5912 H 550.854 -3.75048 1.82744 0
M  V30 5913 H 549.484 -3.10371 0.887109 0
M  V30 5914 H 548.536 -2.17419 3.12143 0
M  V30 5915 H 549.848 -3.02818 3.96362 0
M  V30 5916 H 549.002 -5.21801 3.09529 0
M  V30 5917 H 547.741 -4.37782 2.14939 0
M  V30 5918 H 546.746 -3.46734 4.2668 0
M  V30 5919 H 547.971 -4.34049 5.22282 0
M  V30 5920 H 545.917 -5.62184 3.3806 0
M  V30 5921 H 545.834 -5.57058 5.111 0
M  V30 5922 H 547.102 -6.47545 4.33942 0
M  V30 5923 N 551.331 -1.39911 -0.725443 0
M  V30 5924 C 552.578 -1.37654 -1.48518 0
M  V30 5925 C 552.906 0.0243982 -1.94485 0
M  V30 5926 O 552.161 1.00708 -1.67799 0
M  V30 5927 C 552.46 -2.30368 -2.7325 0
M  V30 5928 C 552.126 -3.77817 -2.461 0
M  V30 5929 C 550.788 -4.17991 -2.38405 0
M  V30 5930 C 553.14 -4.71036 -2.23103 0
M  V30 5931 C 550.468 -5.49433 -2.05768 0
M  V30 5932 C 552.82 -6.02766 -1.9198 0
M  V30 5933 C 551.484 -6.41993 -1.82761 0
M  V30 5934 H 550.754 -0.503713 -0.543465 0
M  V30 5935 H 553.401 -1.7249 -0.831822 0
M  V30 5936 H 551.706 -1.88683 -3.43375 0
M  V30 5937 H 553.403 -2.2591 -3.31309 0
M  V30 5938 H 549.993 -3.45982 -2.52972 0
M  V30 5939 H 554.177 -4.40823 -2.2801 0
M  V30 5940 H 549.433 -5.78738 -1.9716 0
M  V30 5941 H 553.607 -6.74519 -1.73197 0
M  V30 5942 H 551.234 -7.43761 -1.57237 0
M  V30 5943 N 552.809 0.956637 -1.25245 0
M  V30 5944 C 553.756 2.053 -1.05454 0
M  V30 5945 C 554.726 1.66062 0.0356889 0
M  V30 5946 O 555.911 1.90415 -0.121099 0
M  V30 5947 C 553.051 3.38391 -0.677191 0
M  V30 5948 C 552.164 3.90758 -1.84206 0
M  V30 5949 C 551.299 5.12165 -1.40926 0
M  V30 5950 C 550.338 5.56757 -2.54338 0
M  V30 5951 N 549.475 6.69376 -2.11848 0
M  V30 5952 H 554.315 2.21562 -1.99284 0
M  V30 5953 H 551.852 1.08578 -0.992434 0
M  V30 5954 H 553.81 4.1488 -0.43938 0
M  V30 5955 H 552.44 3.22021 0.224127 0
M  V30 5956 H 551.492 3.10808 -2.19323 0
M  V30 5957 H 552.804 4.19802 -2.69383 0
M  V30 5958 H 551.958 5.96065 -1.13098 0
M  V30 5959 H 550.697 4.84832 -0.528175 0
M  V30 5960 H 549.702 4.71423 -2.82913 0
M  V30 5961 H 550.927 5.861 -3.43022 0
M  V30 5962 H 548.873 6.43756 -1.26153 0
M  V30 5963 H 548.79 6.97927 -2.90574 0
M  V30 5964 H 550.058 7.5669 -1.87191 0
M  V30 5965 N 554.287 1.06798 1.15896 0
M  V30 5966 C 555.564 0.701057 1.82605 0
M  V30 5967 C 555.944 -0.817066 1.94646 0
M  V30 5968 O 555.292 -1.72933 1.49353 0
M  V30 5969 C 555.502 1.40895 3.19296 0
M  V30 5970 C 556.85 1.55744 3.95005 0
M  V30 5971 O 557.874 1.36927 3.28831 0
M  V30 5972 O 556.733 1.86658 5.13635 0
M  V30 5973 H 553.827 0.248791 0.78869 0
M  V30 5974 H 556.373 1.16857 1.23055 0
M  V30 5975 H 555.145 2.4439 3.05596 0
M  V30 5976 H 554.768 0.931847 3.86526 0
M  V30 5977 N 555.766 -1.3263 0.851289 0
M  V30 5978 C 556.696 -2.31449 0.308771 0
M  V30 5979 C 557.677 -1.59531 -0.590255 0
M  V30 5980 O 558.862 -1.87351 -0.511205 0
M  V30 5981 C 555.992 -3.43586 -0.506548 0
M  V30 5982 C 554.946 -4.26963 0.297753 0
M  V30 5983 C 554.272 -5.30831 -0.642094 0
M  V30 5984 C 555.572 -4.99643 1.52166 0
M  V30 5985 H 557.266 -2.77074 1.13447 0
M  V30 5986 H 554.812 -1.33207 0.546971 0
M  V30 5987 H 556.765 -4.11754 -0.896474 0
M  V30 5988 H 555.489 -2.96681 -1.36558 0
M  V30 5989 H 554.148 -3.60437 0.669391 0
M  V30 5990 H 553.796 -4.8018 -1.49788 0
M  V30 5991 H 553.496 -5.87501 -0.107968 0
M  V30 5992 H 555.02 -6.01862 -1.02927 0
M  V30 5993 H 556.434 -5.6051 1.20421 0
M  V30 5994 H 554.831 -5.66022 1.99347 0
M  V30 5995 H 555.901 -4.27701 2.28474 0
M  V30 5996 N 557.244 -0.608902 -1.45362 0
M  V30 5997 C 558.154 0.110969 -2.34337 0
M  V30 5998 C 559.17 0.859007 -1.51318 0
M  V30 5999 O 560.346 0.816296 -1.84116 0
M  V30 6000 C 557.411 1.09494 -3.28956 0
M  V30 6001 C 556.472 0.348718 -4.27881 0
M  V30 6002 C 555.705 1.28582 -5.17979 0
M  V30 6003 O 555.928 2.52369 -5.11533 0
M  V30 6004 O 554.862 0.782172 -5.96796 0
M  V30 6005 H 558.688 -0.620258 -2.97299 0
M  V30 6006 H 556.273 -0.36916 -1.44767 0
M  V30 6007 H 558.155 1.66163 -3.87257 0
M  V30 6008 H 556.83 1.80717 -2.68557 0
M  V30 6009 H 555.737 -0.260465 -3.73192 0
M  V30 6010 H 557.07 -0.323049 -4.91139 0
M  V30 6011 N 558.722 1.53707 -0.348139 0
M  V30 6012 C 559.999 1.93247 0.302475 0
M  V30 6013 C 560.379 1.28012 1.67857 0
M  V30 6014 O 559.727 0.43274 2.24365 0
M  V30 6015 C 559.937 3.47031 0.370159 0
M  V30 6016 C 561.285 4.20066 0.61882 0
M  V30 6017 O 562.309 3.53319 0.452087 0
M  V30 6018 O 561.168 5.38318 0.94215 0
M  V30 6019 H 558.262 0.807736 0.177458 0
M  V30 6020 H 560.808 1.64927 -0.399651 0
M  V30 6021 H 559.58 3.86745 -0.59534 0
M  V30 6022 H 559.203 3.81532 1.11888 0
M  V30 6023 N 560.2 0.0768682 1.57412 0
M  V30 6024 C 561.147 -0.888577 2.13009 0
M  V30 6025 C 562.117 -1.29198 1.0439 0
M  V30 6026 O 563.302 -1.37694 1.3208 0
M  V30 6027 C 560.442 -2.14899 2.70023 0
M  V30 6028 C 559.555 -1.79777 3.92816 0
M  V30 6029 C 558.69 -3.00467 4.38056 0
M  V30 6030 C 557.729 -2.61385 5.53484 0
M  V30 6031 N 556.866 -3.74851 5.93659 0
M  V30 6032 H 561.706 -0.407593 2.95199 0
M  V30 6033 H 559.243 -0.189534 1.45874 0
M  V30 6034 H 561.201 -2.88688 3.0119 0
M  V30 6035 H 559.831 -2.60529 1.9059 0
M  V30 6036 H 558.883 -0.960301 3.68079 0
M  V30 6037 H 560.195 -1.47027 4.76639 0
M  V30 6038 H 559.349 -3.82529 4.7091 0
M  V30 6039 H 558.088 -3.36413 3.53097 0
M  V30 6040 H 557.093 -1.77746 5.20275 0
M  V30 6041 H 558.318 -2.26603 6.40178 0
M  V30 6042 H 556.264 -4.1055 5.11649 0
M  V30 6043 H 556.181 -3.45887 6.72234 0
M  V30 6044 H 557.449 -4.57477 6.31138 0
M  V30 6045 N 561.678 -1.56367 -0.196722 0
M  V30 6046 C 562.625 -1.94417 -1.24382 0
M  V30 6047 C 563.595 -0.804543 -1.45315 0
M  V30 6048 O 564.78 -1.06256 -1.58475 0
M  V30 6049 C 561.92 -2.28757 -2.58388 0
M  V30 6050 C 561.033 -3.55775 -2.45047 0
M  V30 6051 C 560.168 -3.79445 -3.71746 0
M  V30 6052 C 559.207 -4.99894 -3.53231 0
M  V30 6053 N 558.344 -5.19826 -4.71938 0
M  V30 6054 H 563.184 -2.83691 -0.912338 0
M  V30 6055 H 560.721 -1.40392 -0.439135 0
M  V30 6056 H 562.679 -2.46682 -3.36457 0
M  V30 6057 H 561.309 -1.42625 -2.89582 0
M  V30 6058 H 560.361 -3.45905 -1.58284 0
M  V30 6059 H 561.673 -4.44 -2.27299 0
M  V30 6060 H 560.827 -3.97601 -4.58256 0
M  V30 6061 H 559.566 -2.89546 -3.92446 0
M  V30 6062 H 558.571 -4.81662 -2.65107 0
M  V30 6063 H 559.796 -5.913 -3.33978 0
M  V30 6064 H 557.742 -4.32875 -4.92905 0
M  V30 6065 H 557.659 -6.02228 -4.57009 0
M  V30 6066 H 558.927 -5.42439 -5.59803 0
M  V30 6067 N 563.156 0.464375 -1.50603 0
M  V30 6068 C 564.402 1.21776 -1.62168 0
M  V30 6069 C 564.735 1.91476 -0.324154 0
M  V30 6070 O 564.01 1.8242 0.674782 0
M  V30 6071 C 564.293 2.25614 -2.80661 0
M  V30 6072 C 564.146 1.60175 -4.20314 0
M  V30 6073 C 565.465 3.26862 -2.94702 0
M  V30 6074 H 562.584 0.44137 -0.590222 0
M  V30 6075 H 565.226 0.510623 -1.8301 0
M  V30 6076 H 563.376 2.85923 -2.63021 0
M  V30 6077 H 565.048 1.03411 -4.4956 0
M  V30 6078 H 563.291 0.904697 -4.24261 0
M  V30 6079 H 563.962 2.35665 -4.99165 0
M  V30 6080 H 566.438 2.76582 -3.10872 0
M  V30 6081 H 565.314 3.96839 -3.79223 0
M  V30 6082 H 565.575 3.91382 -2.05603 0
M  V30 6083 N 564.634 1.40294 0.718013 0
M  V30 6084 C 565.582 1.40536 1.85344 0
M  V30 6085 C 566.576 0.286192 1.66965 0
M  V30 6086 O 567.782 0.457105 1.74099 0
M  V30 6087 H 564.157 0.439236 0.61039 0
M  V30 6088 H 566.128 2.36275 1.82255 0
M  V30 6089 C 564.877 1.28245 3.23185 0
M  V30 6090 H 564.2 2.1364 3.37932 0
M  V30 6091 H 565.64 1.32474 4.02774 0
M  V30 6092 C 564.099 -0.0075503 3.36899 0
M  V30 6093 O 564.629 -0.971391 3.89778 0
M  V30 6094 N 562.835 -0.0762479 2.905 0
M  V30 6095 H 562.382 0.708819 2.47656 0
M  V30 6096 H 562.34 -0.938846 3.00055 0
M  V30 6097 N 566.112 -0.949982 1.2575 0
M  V30 6098 C 567.044 -2.05088 1.02331 0
M  V30 6099 C 568.057 -1.62795 -0.0133247 0
M  V30 6100 O 569.246 -1.77067 0.225759 0
M  V30 6101 C 566.346 -3.34794 0.525924 0
M  V30 6102 C 565.519 -4.05903 1.62978 0
M  V30 6103 C 564.578 -5.1388 1.13196 0
M  V30 6104 O 563.604 -5.39072 1.82729 0
M  V30 6105 N 564.806 -5.80495 -0.0242926 0
M  V30 6106 H 567.571 -2.25747 1.97125 0
M  V30 6107 H 565.132 -1.11886 1.17018 0
M  V30 6108 H 567.124 -4.04312 0.177263 0
M  V30 6109 H 565.694 -3.10872 -0.328202 0
M  V30 6110 H 564.914 -3.3042 2.1498 0
M  V30 6111 H 566.202 -4.50166 2.37124 0
M  V30 6112 H 565.6 -5.62454 -0.605184 0
M  V30 6113 H 564.157 -6.51043 -0.313947 0
M  V30 6114 N 567.59 -1.07411 -1.15328 0
M  V30 6115 C 568.522 -0.652924 -2.19703 0
M  V30 6116 C 569.535 0.294869 -1.60107 0
M  V30 6117 O 570.724 0.0840932 -1.78302 0
M  V30 6118 C 567.824 0.061434 -3.38844 0
M  V30 6119 C 566.997 -0.902696 -4.27984 0
M  V30 6120 C 566.056 -0.225521 -5.25717 0
M  V30 6121 O 565.082 -0.86676 -5.62562 0
M  V30 6122 N 566.284 1.02858 -5.71315 0
M  V30 6123 H 569.049 -1.55081 -2.56457 0
M  V30 6124 H 566.61 -0.958883 -1.30449 0
M  V30 6125 H 568.602 0.525145 -4.01278 0
M  V30 6126 H 567.172 0.861269 -3.00501 0
M  V30 6127 H 566.392 -1.54551 -3.6264 0
M  V30 6128 H 567.68 -1.55636 -4.84412 0
M  V30 6129 H 567.078 1.56948 -5.43492 0
M  V30 6130 H 565.635 1.43596 -6.35786 0
M  V30 6131 N 569.068 1.32177 -0.85831 0
M  V30 6132 C 570.479 1.79381 -0.517621 0
M  V30 6133 C 570.83 1.70841 0.964769 0
M  V30 6134 O 569.955 1.26917 1.75274 0
M  V30 6135 C 570.55 3.25706 -0.932801 0
M  V30 6136 C 569.109 3.70851 -0.643953 0
M  V30 6137 C 568.256 2.53208 -1.13054 0
M  V30 6138 H 571.207 1.19424 -1.04516 0
M  V30 6139 H 571.228 3.79673 -0.250674 0
M  V30 6140 H 570.74 3.31889 -2.01174 0
M  V30 6141 H 568.841 3.70178 0.424112 0
M  V30 6142 H 568.954 4.63495 -1.21281 0
M  V30 6143 H 567.318 2.48676 -0.550679 0
M  V30 6144 H 568.101 2.62143 -2.21666 0
M  V30 6145 N 570.547 0.616602 1.45037 0
M  V30 6146 C 571.495 -0.109318 2.32343 0
M  V30 6147 C 572.489 -0.850543 1.465 0
M  V30 6148 O 573.695 -0.765088 1.62931 0
M  V30 6149 H 570.07 -0.0541091 0.750051 0
M  V30 6150 H 572.041 0.645326 2.91338 0
M  V30 6151 C 570.79 -1.0872 3.30266 0
M  V30 6152 H 570.113 -0.526267 3.96321 0
M  V30 6153 H 571.553 -1.56489 3.94065 0
M  V30 6154 C 570.012 -2.16525 2.58105 0
M  V30 6155 O 570.542 -3.244 2.36913 0
M  V30 6156 N 568.748 -1.92057 2.18088 0
M  V30 6157 H 568.295 -1.04337 2.35524 0
M  V30 6158 H 568.253 -2.64391 1.70131 0
M  V30 6159 N 572.025 -1.5352 0.356285 0
M  V30 6160 C 573.253 -2.05534 -0.237328 0
M  V30 6161 C 573.668 -1.23043 -1.43199 0
M  V30 6162 O 573.025 -0.268821 -1.80509 0
M  V30 6163 C 573.076 -3.55791 -0.639933 0
M  V30 6164 O 572.797 -4.35154 0.507233 0
M  V30 6165 C 574.298 -4.24027 -1.29292 0
M  V30 6166 H 571.518 -0.669585 -0.0435572 0
M  V30 6167 H 574.062 -1.97988 0.511963 0
M  V30 6168 H 572.217 -3.63518 -1.33915 0
M  V30 6169 H 572.631 -5.24178 0.18375 0
M  V30 6170 H 574.105 -5.30509 -1.52527 0
M  V30 6171 H 574.582 -3.77166 -2.25039 0
M  V30 6172 H 575.188 -4.20527 -0.63539 0
M  V30 6173 N 573.503 -0.0852151 -1.57369 0
M  V30 6174 C 574.728 0.592872 -1.98746 0
M  V30 6175 C 575.153 1.61538 -0.963689 0
M  V30 6176 O 574.511 1.81168 0.069071 0
M  V30 6177 C 574.559 1.22599 -3.39119 0
M  V30 6178 O 573.663 2.34185 -3.39457 0
M  V30 6179 H 573.004 0.151314 -0.646529 0
M  V30 6180 H 575.534 -0.163703 -2.03944 0
M  V30 6181 H 575.544 1.56965 -3.76598 0
M  V30 6182 H 574.219 0.476831 -4.13158 0
M  V30 6183 H 572.796 2.01512 -3.13763 0
M  V30 6184 N 574.981 1.5647 0.188427 0
M  V30 6185 C 576.258 1.71857 0.934058 0
M  V30 6186 C 576.638 0.641867 2.01105 0
M  V30 6187 O 575.986 -0.346098 2.25864 0
M  V30 6188 C 576.196 3.14431 1.5144 0
M  V30 6189 C 577.544 3.74869 1.99396 0
M  V30 6190 O 578.568 3.17601 1.61269 0
M  V30 6191 O 577.427 4.75387 2.69573 0
M  V30 6192 H 574.521 0.701186 0.438483 0
M  V30 6193 H 577.067 1.68768 0.177599 0
M  V30 6194 H 575.839 3.8427 0.738416 0
M  V30 6195 H 575.462 3.21775 2.33552 0
M  V30 6196 N 576.459 -0.456382 1.50847 0
M  V30 6197 C 577.406 -1.55249 1.70782 0
M  V30 6198 C 578.376 -1.56757 0.549231 0
M  V30 6199 O 579.561 -1.74061 0.7815 0
M  V30 6200 C 576.701 -2.93118 1.82143 0
M  V30 6201 C 575.814 -3.01285 3.09598 0
M  V30 6202 C 574.949 -4.30159 3.11667 0
M  V30 6203 C 573.988 -4.32124 4.33515 0
M  V30 6204 N 573.125 -5.52492 4.3324 0
M  V30 6205 H 577.965 -1.37555 2.64353 0
M  V30 6206 H 575.502 -0.668543 1.3103 0
M  V30 6207 H 577.46 -3.73088 1.86711 0
M  V30 6208 H 576.09 -3.09413 0.919978 0
M  V30 6209 H 575.142 -2.14096 3.14431 0
M  V30 6210 H 576.454 -2.98597 3.99551 0
M  V30 6211 H 575.608 -5.18489 3.15046 0
M  V30 6212 H 574.347 -4.35477 2.1957 0
M  V30 6213 H 573.352 -3.42189 4.30333 0
M  V30 6214 H 574.577 -4.28485 5.26856 0
M  V30 6215 H 572.523 -5.58567 3.44004 0
M  V30 6216 H 572.44 -5.51605 5.16979 0
M  V30 6217 H 573.708 -6.42906 4.40786 0
M  V30 6218 N 577.937 -1.40673 -0.710563 0
M  V30 6219 C 578.884 -1.41336 -1.82463 0
M  V30 6220 C 579.854 -0.269648 -1.63897 0
M  V30 6221 O 581.039 -0.468463 -1.8496 0
M  V30 6222 C 578.179 -1.28665 -3.20218 0
M  V30 6223 C 577.292 -2.52784 -3.5032 0
M  V30 6224 C 576.427 -2.32517 -4.77608 0
M  V30 6225 C 575.466 -3.52187 -5.0063 0
M  V30 6226 N 574.603 -3.31084 -6.19135 0
M  V30 6227 H 579.443 -2.36558 -1.8123 0
M  V30 6228 H 576.98 -1.17483 -0.885226 0
M  V30 6229 H 578.938 -1.19324 -3.99772 0
M  V30 6230 H 577.568 -0.370602 -3.20666 0
M  V30 6231 H 576.62 -2.72634 -2.65283 0
M  V30 6232 H 577.932 -3.41845 -3.63241 0
M  V30 6233 H 577.086 -2.20558 -5.65189 0
M  V30 6234 H 575.825 -1.40889 -4.66906 0
M  V30 6235 H 574.83 -3.64617 -4.11502 0
M  V30 6236 H 576.055 -4.44749 -5.13201 0
M  V30 6237 H 574.001 -2.42143 -6.09674 0
M  V30 6238 H 573.918 -4.13713 -6.32754 0
M  V30 6239 H 575.186 -3.22868 -7.0949 0
M  V30 6240 N 579.415 0.9433 -1.26252 0
M  V30 6241 C 580.64 1.72898 -1.14547 0
M  V30 6242 C 581.065 1.85761 0.295743 0
M  V30 6243 O 580.423 1.3463 1.21427 0
M  V30 6244 C 580.471 3.11471 -1.8171 0
M  V30 6245 O 579.575 3.97336 -1.10445 0
M  V30 6246 H 578.916 0.530555 -0.399259 0
M  V30 6247 H 581.446 1.18159 -1.67032 0
M  V30 6248 H 581.456 3.61872 -1.88449 0
M  V30 6249 H 580.131 3.01425 -2.86558 0
M  V30 6250 H 578.708 3.55788 -1.11666 0
M  V30 6251 N 580.893 1.08022 1.14757 0
M  V30 6252 C 582.118 0.82895 1.90114 0
M  V30 6253 C 582.543 -0.612772 1.77839 0
M  V30 6254 O 581.901 -1.42895 1.11583 0
M  V30 6255 C 581.949 1.25062 3.38219 0
M  V30 6256 O 581.053 0.400119 4.10454 0
M  V30 6257 H 580.394 0.301412 0.591648 0
M  V30 6258 H 582.924 1.44062 1.45284 0
M  V30 6259 H 582.934 1.22977 3.89025 0
M  V30 6260 H 581.609 2.30067 3.46471 0
M  V30 6261 H 580.186 0.484052 3.69745 0
M  V30 6262 N 582.371 -1.3172 0.865308 0
M  V30 6263 C 583.782 -1.79104 0.527126 0
M  V30 6264 C 584.133 -1.7135 -0.955695 0
M  V30 6265 O 583.258 -1.27845 -1.74598 0
M  V30 6266 C 583.853 -3.25207 0.950061 0
M  V30 6267 C 582.412 -3.70504 0.663611 0
M  V30 6268 C 581.559 -2.52605 1.14395 0
M  V30 6269 H 584.51 -1.18868 1.05148 0
M  V30 6270 H 584.531 -3.79535 0.270805 0
M  V30 6271 H 584.043 -3.30818 2.02931 0
M  V30 6272 H 582.144 -3.70398 -0.404474 0
M  V30 6273 H 582.257 -4.62845 1.23737 0
M  V30 6274 H 580.621 -2.4838 0.563859 0
M  V30 6275 H 581.404 -2.60964 2.23053 0
M  V30 6276 N 583.85 -0.624285 -1.44708 0
M  V30 6277 C 584.782 0.12305 -2.28869 0
M  V30 6278 C 585.795 0.81557 -1.40898 0
M  V30 6279 O 586.984 0.678162 -1.65116 0
M  V30 6280 C 584.084 1.19612 -3.1709 0
M  V30 6281 C 583.257 0.587452 -4.33437 0
M  V30 6282 C 582.316 1.55358 -5.02743 0
M  V30 6283 O 581.341 1.07338 -5.58988 0
M  V30 6284 N 582.543 2.88798 -5.03563 0
M  V30 6285 H 585.308 -0.599193 -2.93649 0
M  V30 6286 H 582.87 -0.464954 -1.5508 0
M  V30 6287 H 584.861 1.84261 -3.60319 0
M  V30 6288 H 583.432 1.82067 -2.54107 0
M  V30 6289 H 582.652 -0.237509 -3.93484 0
M  V30 6290 H 583.94 0.161326 -5.08544 0
M  V30 6291 H 583.338 3.30399 -4.59188 0
M  V30 6292 H 581.894 3.48826 -5.50603 0
M  V30 6293 N 585.328 1.53329 -0.364422 0
M  V30 6294 C 586.275 2.25698 0.482607 0
M  V30 6295 C 587.245 1.26325 1.07848 0
M  V30 6296 O 588.43 1.55104 1.11119 0
M  V30 6297 C 585.57 3.04873 1.61699 0
M  V30 6298 C 584.683 4.19135 1.0464 0
M  V30 6299 C 583.818 4.85754 2.14979 0
M  V30 6300 C 582.857 5.9205 1.5538 0
M  V30 6301 N 581.994 6.52365 2.59547 0
M  V30 6302 H 586.834 2.97666 -0.141032 0
M  V30 6303 H 584.371 1.46875 -0.0813692 0
M  V30 6304 H 586.329 3.49051 2.28516 0
M  V30 6305 H 584.959 2.35162 2.2113 0
M  V30 6306 H 584.011 3.79451 0.268553 0
M  V30 6307 H 585.323 4.95525 0.570653 0
M  V30 6308 H 584.477 5.3311 2.89619 0
M  V30 6309 H 583.216 4.08834 2.65906 0
M  V30 6310 H 582.221 5.44058 0.792549 0
M  V30 6311 H 583.446 6.7089 1.0528 0
M  V30 6312 H 581.392 5.78298 3.09689 0
M  V30 6313 H 581.309 7.2429 2.16655 0
M  V30 6314 H 582.577 7.0437 3.33892 0
M  V30 6315 N 586.806 0.0935595 1.57322 0
M  V30 6316 C 587.716 -0.880192 2.17462 0
M  V30 6317 C 588.732 -1.31135 1.14366 0
M  V30 6318 O 589.908 -1.37958 1.46729 0
M  V30 6319 C 586.973 -2.12184 2.74188 0
M  V30 6320 C 586.034 -1.74503 3.92234 0
M  V30 6321 C 585.267 -2.92748 4.46245 0
M  V30 6322 O 585.49 -4.07427 3.99198 0
M  V30 6323 O 584.424 -2.71303 5.37288 0
M  V30 6324 H 588.25 -0.398516 3.01074 0
M  V30 6325 H 585.835 -0.130707 1.48827 0
M  V30 6326 H 587.717 -2.84953 3.10451 0
M  V30 6327 H 586.392 -2.59407 1.93623 0
M  V30 6328 H 585.299 -0.989186 3.60785 0
M  V30 6329 H 586.632 -1.32044 4.74157 0
M  V30 6330 N 588.284 -1.56567 -0.180126 0
M  V30 6331 C 589.53 -1.81761 -0.899497 0
M  V30 6332 C 589.863 -0.670015 -1.82276 0
M  V30 6333 O 589.138 0.328575 -1.91705 0
M  V30 6334 C 589.421 -3.17296 -1.7028 0
M  V30 6335 C 589.274 -4.4257 -0.803255 0
M  V30 6336 C 590.593 -3.49678 -2.67233 0
M  V30 6337 H 587.712 -0.661192 -0.325567 0
M  V30 6338 H 590.354 -1.89272 -0.16612 0
M  V30 6339 H 588.504 -3.11023 -2.32802 0
M  V30 6340 H 590.176 -4.60902 -0.191585 0
M  V30 6341 H 588.419 -4.33658 -0.110796 0
M  V30 6342 H 589.09 -5.33935 -1.40064 0
M  V30 6343 H 591.566 -3.56347 -2.14839 0
M  V30 6344 H 590.442 -4.45605 -3.20511 0
M  V30 6345 H 590.703 -2.73932 -3.47007 0
M  V30 6346 N 589.762 0.448376 -1.51087 0
M  V30 6347 C 590.709 1.54341 -1.71603 0
M  V30 6348 C 591.679 1.56463 -0.557536 0
M  V30 6349 O 592.864 1.73644 -0.79072 0
M  V30 6350 C 590.004 2.92148 -1.83695 0
M  V30 6351 C 589.117 2.99639 -3.11192 0
M  V30 6352 C 588.252 4.285 -3.13944 0
M  V30 6353 C 587.291 4.29819 -4.35801 0
M  V30 6354 N 586.428 5.50186 -4.36164 0
M  V30 6355 H 591.268 1.36151 -2.65079 0
M  V30 6356 H 588.805 0.661585 -1.31383 0
M  V30 6357 H 590.763 3.72093 -1.88687 0
M  V30 6358 H 589.393 3.0892 -0.936374 0
M  V30 6359 H 588.445 2.12425 -3.15562 0
M  V30 6360 H 589.757 2.96474 -4.01129 0
M  V30 6361 H 588.911 5.16811 -3.17791 0
M  V30 6362 H 587.65 4.34307 -2.21876 0
M  V30 6363 H 586.655 3.39902 -4.32142 0
M  V30 6364 H 587.88 4.25685 -5.29121 0
M  V30 6365 H 585.826 5.56735 -3.46961 0
M  V30 6366 H 585.743 5.48856 -5.19897 0
M  V30 6367 H 587.011 6.40559 -4.44189 0
M  V30 6368 N 591.24 1.41047 0.703093 0
M  V30 6369 C 592.47 1.43133 1.48985 0
M  V30 6370 C 592.878 0.0328537 1.89171 0
M  V30 6371 O 592.221 -0.956469 1.56835 0
M  V30 6372 C 592.283 2.26991 2.78775 0
M  V30 6373 C 591.947 3.7525 2.60837 0
M  V30 6374 C 592.944 4.67591 2.27276 0
M  V30 6375 C 590.629 4.19208 2.76712 0
M  V30 6376 C 592.623 6.01877 2.09817 0
M  V30 6377 C 590.31 5.53561 2.5887 0
M  V30 6378 C 591.308 6.4471 2.25472 0
M  V30 6379 O 590.996 7.76584 2.07778 0
M  V30 6380 H 590.728 0.489788 0.465922 0
M  V30 6381 H 593.282 1.85886 0.873822 0
M  V30 6382 H 591.512 1.79038 3.42757 0
M  V30 6383 H 593.201 2.20867 3.40547 0
M  V30 6384 H 593.967 4.34923 2.14633 0
M  V30 6385 H 589.846 3.48572 3.01693 0
M  V30 6386 H 593.39 6.72986 1.83671 0
M  V30 6387 H 589.287 5.85811 2.71102 0
M  V30 6388 H 590.055 7.87649 2.22601 0
M  V30 6389 N 592.718 -0.936591 1.26751 0
M  V30 6390 C 593.628 -2.06949 1.10496 0
M  V30 6391 C 594.644 -1.7396 0.037271 0
M  V30 6392 O 595.82 -1.99941 0.241944 0
M  V30 6393 C 592.885 -3.38612 0.744491 0
M  V30 6394 C 591.946 -3.85355 1.89209 0
M  V30 6395 C 591.179 -5.10735 1.54873 0
M  V30 6396 O 591.402 -5.68602 0.452546 0
M  V30 6397 O 590.336 -5.52632 2.38499 0
M  V30 6398 H 594.162 -2.23571 2.05547 0
M  V30 6399 H 591.747 -1.05428 1.05855 0
M  V30 6400 H 593.629 -4.17711 0.556396 0
M  V30 6401 H 592.304 -3.23218 -0.176582 0
M  V30 6402 H 591.211 -3.07182 2.13518 0
M  V30 6403 H 592.544 -4.05277 2.79305 0
M  V30 6404 N 594.196 -1.08629 -1.14182 0
M  V30 6405 C 595.607 -0.838003 -1.66836 0
M  V30 6406 C 595.958 0.634885 -1.85644 0
M  V30 6407 O 595.083 1.49008 -1.56926 0
M  V30 6408 C 595.678 -1.51465 -3.03058 0
M  V30 6409 C 594.237 -1.31355 -3.52736 0
M  V30 6410 C 593.384 -1.57599 -2.28162 0
M  V30 6411 H 596.335 -1.24656 -0.982165 0
M  V30 6412 H 596.356 -0.943134 -3.68626 0
M  V30 6413 H 595.868 -2.58661 -2.89337 0
M  V30 6414 H 593.969 -0.262384 -3.71675 0
M  V30 6415 H 594.082 -2.04275 -4.33369 0
M  V30 6416 H 592.446 -0.997659 -2.34348 0
M  V30 6417 H 593.229 -2.66006 -2.17015 0
M  V30 6418 N 595.674 1.31259 -0.872281 0
M  V30 6419 C 596.921 1.96622 -0.484365 0
M  V30 6420 C 597.249 1.68939 0.963841 0
M  V30 6421 O 596.504 0.97974 1.6941 0
M  V30 6422 C 596.803 3.50659 -0.690889 0
M  V30 6423 C 596.469 3.98366 -2.11224 0
M  V30 6424 C 595.131 4.11104 -2.50094 0
M  V30 6425 C 597.483 4.23425 -3.0391 0
M  V30 6426 C 594.811 4.46254 -3.80887 0
M  V30 6427 C 597.163 4.60039 -4.3422 0
M  V30 6428 C 595.827 4.70984 -4.73001 0
M  V30 6429 H 595.097 0.71949 -0.177242 0
M  V30 6430 H 597.744 1.56353 -1.10571 0
M  V30 6431 H 596.049 3.91798 0.0135782 0
M  V30 6432 H 597.746 3.99284 -0.370534 0
M  V30 6433 H 594.336 3.88949 -1.80047 0
M  V30 6434 H 598.52 4.13075 -2.75104 0
M  V30 6435 H 593.776 4.52926 -4.10692 0
M  V30 6436 H 597.95 4.78381 -5.06088 0
M  V30 6437 H 595.577 4.97977 -5.7439 0
M  V30 6438 N 597.152 0.631951 1.44375 0
M  V30 6439 C 598.377 0.142146 2.06912 0
M  V30 6440 C 598.802 -1.17456 1.4692 0
M  V30 6441 O 598.16 -1.72074 0.570975 0
M  V30 6442 C 598.208 0.0417952 3.60576 0
M  V30 6443 O 597.312 -1.00194 4.00044 0
M  V30 6444 H 596.653 0.0851491 0.658518 0
M  V30 6445 H 599.183 0.868863 1.85235 0
M  V30 6446 H 599.193 -0.148517 4.0773 0
M  V30 6447 H 597.868 1.0031 4.03622 0
M  V30 6448 H 596.445 -0.786131 3.64519 0
M  V30 6449 N 598.631 -1.53133 0.372548 0
M  V30 6450 C 599.878 -2.01356 -0.214959 0
M  V30 6451 C 600.206 -1.2596 -1.48204 0
M  V30 6452 O 599.461 -0.343511 -1.92662 0
M  V30 6453 C 599.76 -3.53206 -0.545938 0
M  V30 6454 C 599.426 -4.46511 0.627624 0
M  V30 6455 C 598.088 -4.71737 0.949615 0
M  V30 6456 C 600.44 -5.01666 1.41353 0
M  V30 6457 C 597.768 -5.4937 2.05936 0
M  V30 6458 C 600.12 -5.80511 2.51375 0
M  V30 6459 C 598.784 -6.04022 2.84101 0
M  V30 6460 H 598.054 -0.736813 -0.078659 0
M  V30 6461 H 600.701 -1.84682 0.506447 0
M  V30 6462 H 599.006 -3.67864 -1.34845 0
M  V30 6463 H 600.703 -3.87997 -1.01287 0
M  V30 6464 H 597.293 -4.27029 0.366635 0
M  V30 6465 H 601.477 -4.82117 1.17802 0
M  V30 6466 H 596.733 -5.65803 2.31682 0
M  V30 6467 H 600.907 -6.22255 3.12684 0
M  V30 6468 H 598.534 -6.63962 3.70214 0
M  V30 6469 N 600.109 -0.101901 -1.5727 0
M  V30 6470 C 601.072 0.840129 -2.13247 0
M  V30 6471 C 602.072 1.20625 -1.06331 0
M  V30 6472 O 603.262 1.13456 -1.32186 0
M  V30 6473 C 600.394 2.13372 -2.65867 0
M  V30 6474 H 601.587 0.353945 -2.97804 0
M  V30 6475 H 599.14 0.147167 -1.55606 0
M  V30 6476 H 599.875 2.66461 -1.84849 0
M  V30 6477 H 599.66 1.88085 -3.44044 0
M  V30 6478 H 601.15 2.80748 -3.09145 0
M  V30 6479 N 601.587 1.56661 0.17182 0
M  V30 6480 C 602.864 1.72838 0.915778 0
M  V30 6481 C 603.244 0.66316 2.00413 0
M  V30 6482 O 602.592 -0.322123 2.26218 0
M  V30 6483 C 602.802 3.16019 1.48097 0
M  V30 6484 C 604.15 3.76962 1.95408 0
M  V30 6485 O 605.174 3.19294 1.57892 0
M  V30 6486 O 604.033 4.78219 2.64516 0
M  V30 6487 H 601.127 0.705797 0.431021 0
M  V30 6488 H 603.673 1.68947 0.159689 0
M  V30 6489 H 602.445 3.85031 0.697618 0
M  V30 6490 H 602.068 3.24234 2.30126 0
M  V30 6491 N 603.065 -0.440357 1.51323 0
M  V30 6492 C 604.342 -1.20109 1.5438 0
M  V30 6493 C 604.722 -2.08866 0.306303 0
M  V30 6494 O 604.07 -2.1723 -0.708773 0
M  V30 6495 C 604.28 -2.00555 2.8562 0
M  V30 6496 C 605.628 -2.577 3.37455 0
M  V30 6497 O 606.652 -2.10769 2.8715 0
M  V30 6498 O 605.511 -3.43289 4.25224 0
M  V30 6499 H 602.605 -0.546668 0.620551 0
M  V30 6500 H 605.151 -0.449672 1.63634 0
M  V30 6501 H 603.923 -1.35346 3.67147 0
M  V30 6502 H 603.546 -2.82768 2.79514 0
M  V30 6503 N 604.543 -1.41418 -0.695603 0
M  V30 6504 C 605.792 -1.40073 -1.4513 0
M  V30 6505 C 606.105 -0.0130439 -1.95596 0
M  V30 6506 O 607.311 0.123032 -2.71221 0
M  V30 6507 C 605.767 -2.46286 -2.62433 0
M  V30 6508 C 605.375 -3.90962 -2.18753 0
M  V30 6509 C 607.119 -2.54077 -3.40066 0
M  V30 6510 C 605.026 -4.88728 -3.33015 0
M  V30 6511 H 603.956 -0.520903 -0.545138 0
M  V30 6512 H 606.607 -1.67242 -0.75515 0
M  V30 6513 H 604.989 -2.12248 -3.34315 0
M  V30 6514 H 606.163 -4.34248 -1.54161 0
M  V30 6515 H 604.478 -3.86831 -1.54114 0
M  V30 6516 H 607.075 -3.24303 -4.25125 0
M  V30 6517 H 607.418 -1.5776 -3.8525 0
M  V30 6518 H 607.951 -2.87206 -2.75241 0
M  V30 6519 H 604.69 -5.86449 -2.92844 0
M  V30 6520 H 604.21 -4.50091 -3.96457 0
M  V30 6521 H 605.889 -5.09483 -3.98793 0
M  V30 6522 N 606.021 0.929856 -1.27246 0
M  V30 6523 C 607.269 1.674 -1.13233 0
M  V30 6524 C 607.59 1.92311 0.322744 0
M  V30 6525 O 606.86 1.52784 1.22612 0
M  V30 6526 H 605.44 0.620411 -0.416052 0
M  V30 6527 H 608.102 1.11663 -1.59741 0
M  V30 6528 H 607.198 2.64308 -1.65975 0
M  V30 6529 N 607.499 1.09233 1.13605 0
M  V30 6530 C 608.724 0.849067 1.89224 0
M  V30 6531 C 609.149 -0.593875 1.78479 0
M  V30 6532 O 608.507 -1.41703 1.13092 0
M  V30 6533 C 608.555 1.28642 3.36873 0
M  V30 6534 O 607.659 0.44363 4.10007 0
M  V30 6535 H 607 0.30767 0.588417 0
M  V30 6536 H 609.53 1.45595 1.43748 0
M  V30 6537 H 609.54 1.27096 3.87699 0
M  V30 6538 H 608.215 2.33729 3.44011 0
M  V30 6539 H 606.792 0.523241 3.69211 0
M  V30 6540 N 608.977 -1.30795 0.87923 0
M  V30 6541 C 609.925 -2.30231 0.331112 0
M  V30 6542 C 610.919 -1.59918 -0.558794 0
M  V30 6543 O 612.125 -1.74441 -0.443866 0
M  V30 6544 H 608.5 -0.746785 0.088409 0
M  V30 6545 H 610.471 -2.73925 1.18353 0
M  V30 6546 C 609.22 -3.44848 -0.444401 0
M  V30 6547 H 608.543 -3.99131 0.231106 0
M  V30 6548 H 609.983 -4.16516 -0.793109 0
M  V30 6549 C 608.442 -2.94329 -1.63926 0
M  V30 6550 O 608.972 -2.93875 -2.73862 0
M  V30 6551 N 607.178 -2.50413 -1.4745 0
M  V30 6552 H 606.725 -2.50982 -0.58015 0
M  V30 6553 H 606.683 -2.16969 -2.27534 0
M  V30 6554 N 610.455 -0.639598 -1.44038 0
M  V30 6555 C 611.403 0.0723409 -2.32487 0
M  V30 6556 C 612.397 0.827129 -1.47834 0
M  V30 6557 O 613.603 0.73907 -1.64127 0
M  V30 6558 H 609.978 0.0421696 -0.750817 0
M  V30 6559 H 611.949 -0.691593 -2.90275 0
M  V30 6560 C 610.698 1.03452 -3.31953 0
M  V30 6561 H 610.021 0.46315 -3.97108 0
M  V30 6562 H 611.461 1.502 -3.96505 0
M  V30 6563 C 609.92 2.12392 -2.61518 0
M  V30 6564 O 610.45 3.2059 -2.42044 0
M  V30 6565 N 608.656 1.88563 -2.21116 0
M  V30 6566 H 608.203 1.00577 -2.37154 0
M  V30 6567 H 608.161 2.61651 -1.74316 0
M  V30 6568 N 611.933 1.52934 -0.380664 0
M  V30 6569 C 613.173 2.03378 0.204161 0
M  V30 6570 C 613.537 1.26132 1.44758 0
M  V30 6571 O 614.738 1.66657 2.109 0
M  V30 6572 C 613.009 3.54241 0.474118 0
M  V30 6573 S 614.568 4.26529 1.03046 0
M  V30 6574 H 611.386 0.708608 0.0582719 0
M  V30 6575 H 613.988 1.88263 -0.527017 0
M  V30 6576 H 612.692 4.08055 -0.438088 0
M  V30 6577 H 612.223 3.73547 1.23396 0
M  V30 6578 H 614.238 4.38964 2.31354 0
M  V30 6579 N 613.412 0.11024 1.57214 0
M  V30 6580 C 614.66 -0.548783 1.94506 0
M  V30 6581 C 614.981 -1.67772 0.99386 0
M  V30 6582 O 614.251 -1.9584 0.0485841 0
M  V30 6583 H 612.831 -0.205715 0.718116 0
M  V30 6584 H 615.493 0.177127 1.94093 0
M  V30 6585 H 614.589 -0.949096 2.97319 0
M  V30 6586 N 614.89 -1.56749 -0.16351 0
M  V30 6587 C 616.12 -1.86307 -0.892936 0
M  V30 6588 C 616.528 -0.6945 -1.75992 0
M  V30 6589 O 615.871 0.345384 -1.80424 0
M  V30 6590 C 615.933 -3.10372 -1.81409 0
M  V30 6591 C 615.597 -4.42913 -1.12593 0
M  V30 6592 C 616.594 -5.17608 -0.487661 0
M  V30 6593 C 614.279 -4.89646 -1.12035 0
M  V30 6594 C 616.273 -6.3723 0.14699 0
M  V30 6595 C 613.96 -6.09197 -0.481883 0
M  V30 6596 C 614.958 -6.82834 0.150678 0
M  V30 6597 O 614.646 -8.00116 0.779065 0
M  V30 6598 H 614.378 -0.622126 -0.264452 0
M  V30 6599 H 616.932 -2.04728 -0.166063 0
M  V30 6600 H 615.162 -2.87917 -2.58148 0
M  V30 6601 H 616.851 -3.26312 -2.41403 0
M  V30 6602 H 617.617 -4.8258 -0.483888 0
M  V30 6603 H 613.496 -4.32265 -1.60212 0
M  V30 6604 H 617.04 -6.94646 0.641325 0
M  V30 6605 H 612.937 -6.43688 -0.483266 0
M  V30 6606 H 613.705 -8.15678 0.679089 0
M  V30 6607 N 616.368 0.432326 -1.51554 0
M  V30 6608 C 617.598 1.2019 -1.68042 0
M  V30 6609 C 618.006 1.85356 -0.379434 0
M  V30 6610 O 617.349 1.71724 0.652427 0
M  V30 6611 C 617.411 2.32387 -2.74292 0
M  V30 6612 C 617.075 1.87548 -4.16743 0
M  V30 6613 C 618.072 1.37611 -5.01357 0
M  V30 6614 C 615.757 1.95087 -4.62868 0
M  V30 6615 C 617.751 0.958069 -6.30159 0
M  V30 6616 C 615.438 1.52894 -5.91664 0
M  V30 6617 C 616.436 1.03336 -6.75137 0
M  V30 6618 O 616.124 0.617435 -8.01525 0
M  V30 6619 H 615.856 0.368132 -0.56697 0
M  V30 6620 H 618.41 0.517875 -1.98764 0
M  V30 6621 H 616.64 3.04082 -2.38895 0
M  V30 6622 H 618.329 2.94235 -2.79608 0
M  V30 6623 H 619.095 1.31178 -4.66923 0
M  V30 6624 H 614.974 2.32606 -3.98015 0
M  V30 6625 H 618.518 0.570562 -6.95263 0
M  V30 6626 H 614.415 1.58999 -6.25611 0
M  V30 6627 H 615.183 0.742835 -8.15122 0
M  V30 6628 N 617.846 1.41785 0.688094 0
M  V30 6629 C 619.123 1.32031 1.44316 0
M  V30 6630 C 619.503 -0.0486079 2.11044 0
M  V30 6631 O 618.851 -1.06332 2.02252 0
M  V30 6632 C 619.061 2.47906 2.45649 0
M  V30 6633 C 620.409 2.89415 3.10683 0
M  V30 6634 O 621.433 2.477 2.55975 0
M  V30 6635 O 620.292 3.61573 4.09789 0
M  V30 6636 H 617.386 0.519994 0.643067 0
M  V30 6637 H 619.932 1.53765 0.71794 0
M  V30 6638 H 618.704 3.39222 1.95048 0
M  V30 6639 H 618.327 2.28089 3.25671 0
M  V30 6640 N 619.324 -0.923095 1.27737 0
M  V30 6641 C 620.254 -2.04124 1.13383 0
M  V30 6642 C 621.235 -1.70066 0.0340658 0
M  V30 6643 O 622.42 -1.93068 0.209383 0
M  V30 6644 C 619.55 -3.3831 0.785097 0
M  V30 6645 C 618.504 -3.86496 1.8386 0
M  V30 6646 C 617.83 -5.1754 1.34373 0
M  V30 6647 C 619.13 -4.09381 3.24353 0
M  V30 6648 H 620.824 -2.1639 2.06919 0
M  V30 6649 H 618.37 -1.03976 0.996243 0
M  V30 6650 H 620.323 -4.16016 0.671485 0
M  V30 6651 H 619.047 -3.2607 -0.185969 0
M  V30 6652 H 617.706 -3.10987 1.9412 0
M  V30 6653 H 617.354 -5.01696 0.361989 0
M  V30 6654 H 617.054 -5.50751 2.04811 0
M  V30 6655 H 618.578 -5.97811 1.24315 0
M  V30 6656 H 619.992 -4.77641 3.17067 0
M  V30 6657 H 618.389 -4.53906 3.92542 0
M  V30 6658 H 619.459 -3.14515 3.69064 0
M  V30 6659 N 620.802 -1.09834 -1.13024 0
M  V30 6660 C 621.734 -0.699379 -2.18269 0
M  V30 6661 C 622.747 0.260841 -1.60697 0
M  V30 6662 O 623.936 0.0462538 -1.7844 0
M  V30 6663 C 621.036 -0.0104537 -3.38898 0
M  V30 6664 C 620.209 -0.993275 -4.25973 0
M  V30 6665 C 619.268 -0.336982 -5.2512 0
M  V30 6666 O 618.294 -0.985892 -5.60597 0
M  V30 6667 N 619.496 0.90716 -5.73368 0
M  V30 6668 H 622.261 -1.60486 -2.5311 0
M  V30 6669 H 619.822 -0.986337 -1.28386 0
M  V30 6670 H 621.814 0.43991 -4.02302 0
M  V30 6671 H 620.384 0.797335 -3.0226 0
M  V30 6672 H 619.604 -1.62208 -3.5928 0
M  V30 6673 H 620.892 -1.65876 -4.81002 0
M  V30 6674 H 620.29 1.45384 -5.46699 0
M  V30 6675 H 618.847 1.30077 -6.38689 0
M  V30 6676 N 622.28 1.30327 -0.886154 0
M  V30 6677 C 623.243 2.26376 -0.358687 0
M  V30 6678 C 624.243 1.52845 0.499498 0
M  V30 6679 O 625.433 1.71483 0.306485 0
M  V30 6680 C 622.565 3.37379 0.488726 0
M  V30 6681 H 623.758 2.74547 -1.20681 0
M  V30 6682 H 621.311 1.41536 -0.663113 0
M  V30 6683 H 622.046 2.94526 1.35739 0
M  V30 6684 H 621.831 3.91897 -0.126003 0
M  V30 6685 H 623.321 4.08868 0.84952 0
M  V30 6686 N 623.758 0.647228 1.43697 0
M  V30 6687 C 625.004 0.158422 2.0218 0
M  V30 6688 C 625.337 -1.22233 1.50907 0
M  V30 6689 O 624.612 -1.81478 0.699702 0
M  V30 6690 C 624.895 0.1627 3.59732 0
M  V30 6691 C 624.748 1.57694 4.21251 0
M  V30 6692 C 626.067 -0.504138 4.37203 0
M  V30 6693 H 623.186 0.059042 0.734631 0
M  V30 6694 H 625.828 0.826772 1.71069 0
M  V30 6695 H 623.978 -0.406414 3.86368 0
M  V30 6696 H 625.65 2.19618 4.05667 0
M  V30 6697 H 623.893 2.12603 3.7813 0
M  V30 6698 H 624.564 1.53183 5.3032 0
M  V30 6699 H 627.04 -0.0199841 4.16095 0
M  V30 6700 H 625.916 -0.470394 5.46881 0
M  V30 6701 H 626.177 -1.57726 4.13007 0
M  V30 6702 N 625.236 -1.5273 0.388769 0
M  V30 6703 C 626.166 -2.29353 -0.438111 0
M  V30 6704 C 627.147 -1.32719 -1.06394 0
M  V30 6705 O 628.332 -1.61612 -1.07681 0
M  V30 6706 C 625.462 -3.09995 -1.56589 0
M  V30 6707 C 624.416 -4.14509 -1.06613 0
M  V30 6708 C 623.742 -4.83372 -2.28594 0
M  V30 6709 C 625.042 -5.22127 -0.134459 0
M  V30 6710 H 626.736 -2.98723 0.201206 0
M  V30 6711 H 624.282 -1.43665 0.0982089 0
M  V30 6712 H 626.235 -3.62357 -2.15118 0
M  V30 6713 H 624.959 -2.38357 -2.23279 0
M  V30 6714 H 623.618 -3.63128 -0.503383 0
M  V30 6715 H 623.266 -4.08283 -2.93792 0
M  V30 6716 H 622.966 -5.54012 -1.95817 0
M  V30 6717 H 624.49 -5.38538 -2.87766 0
M  V30 6718 H 625.904 -5.69851 -0.627914 0
M  V30 6719 H 624.301 -6.00011 0.103534 0
M  V30 6720 H 625.371 -4.77971 0.816798 0
M  V30 6721 N 626.714 -0.118576 -1.57153 0
M  V30 6722 C 627.942 0.54726 -1.99531 0
M  V30 6723 C 628.357 1.60251 -0.998246 0
M  V30 6724 O 627.714 1.82498 0.00893106 0
M  V30 6725 C 627.765 1.17378 -3.41913 0
M  V30 6726 O 627.486 0.160703 -4.37805 0
M  V30 6727 C 628.987 1.92297 -3.9942 0
M  V30 6728 H 626.207 0.144919 -0.655164 0
M  V30 6729 H 628.751 -0.20479 -2.03472 0
M  V30 6730 H 626.906 1.87661 -3.38913 0
M  V30 6731 H 627.32 0.61586 -5.20872 0
M  V30 6732 H 628.794 2.31462 -5.01128 0
M  V30 6733 H 629.271 2.79801 -3.38538 0
M  V30 6734 H 629.877 1.26777 -4.05965 0
M  V30 6735 N 628.193 1.56834 0.155195 0
M  V30 6736 C 629.143 1.94061 1.19684 0
M  V30 6737 C 630.127 0.810851 1.38975 0
M  V30 6738 O 631.319 1.07422 1.40675 0
M  V30 6739 C 628.448 2.31778 2.53247 0
M  V30 6740 C 627.534 3.51305 2.37583 0
M  V30 6741 N 627.925 4.68081 1.9166 0
M  V30 6742 C 626.223 3.56228 2.6836 0
M  V30 6743 C 626.924 5.50193 1.88845 0
M  V30 6744 N 625.9 4.91676 2.31852 0
M  V30 6745 H 629.702 2.81826 0.833747 0
M  V30 6746 H 627.216 1.58284 0.363328 0
M  V30 6747 H 629.213 2.56649 3.28538 0
M  V30 6748 H 627.873 1.4536 2.90346 0
M  V30 6749 H 628.884 4.91993 1.6175 0
M  V30 6750 H 625.561 2.8033 3.09389 0
M  V30 6751 H 626.951 6.53801 1.54901 0
M  V30 6752 N 629.671 -0.424282 1.51781 0
M  V30 6753 C 630.603 -1.53457 1.70246 0
M  V30 6754 C 631.616 -1.52004 0.582967 0
M  V30 6755 O 632.805 -1.56544 0.857683 0
M  V30 6756 C 629.905 -2.92368 1.71389 0
M  V30 6757 C 629.078 -3.1818 3.00133 0
M  V30 6758 C 628.137 -4.36884 2.9329 0
M  V30 6759 O 627.163 -4.34901 3.67219 0
M  V30 6760 N 628.365 -5.4117 2.10036 0
M  V30 6761 H 631.13 -1.38017 2.66029 0
M  V30 6762 H 628.691 -0.613394 1.4983 0
M  V30 6763 H 630.683 -3.6982 1.64362 0
M  V30 6764 H 629.253 -3.0134 0.831449 0
M  V30 6765 H 628.473 -2.28908 3.20928 0
M  V30 6766 H 629.761 -3.32261 3.85331 0
M  V30 6767 H 629.159 -5.45623 1.49373 0
M  V30 6768 H 627.716 -6.17425 2.08878 0
M  V30 6769 N 631.149 -1.42148 -0.680565 0
M  V30 6770 C 632.397 -1.42029 -1.43779 0
M  V30 6771 C 632.718 -0.0356347 -1.94967 0
M  V30 6772 O 631.988 0.924936 -1.7269 0
M  V30 6773 H 630.568 -0.522835 -0.533529 0
M  V30 6774 H 633.23 -1.7752 -0.804538 0
M  V30 6775 H 632.326 -2.11658 -2.29363 0
M  V30 6776 N 632.627 0.916307 -1.28225 0
M  V30 6777 C 634.043 1.19425 -1.05876 0
M  V30 6778 C 634.243 2.005 0.2005 0
M  V30 6779 O 633.299 2.35806 0.902873 0
M  V30 6780 C 634.612 1.93133 -2.30478 0
M  V30 6781 C 636.16 2.06026 -2.35632 0
M  V30 6782 C 636.635 2.83141 -3.59994 0
M  V30 6783 N 638.126 2.90704 -3.60618 0
M  V30 6784 C 638.861 3.50865 -4.53521 0
M  V30 6785 N 638.357 4.12327 -5.56739 0
M  V30 6786 N 640.15 3.48379 -4.41122 0
M  V30 6787 H 632.301 0.37496 -2.09064 0
M  V30 6788 H 634.564 0.228531 -0.920042 0
M  V30 6789 H 634.27 1.40985 -3.22205 0
M  V30 6790 H 634.144 2.93696 -2.36691 0
M  V30 6791 H 636.531 2.57355 -1.44404 0
M  V30 6792 H 636.612 1.04647 -2.33415 0
M  V30 6793 H 636.256 2.32492 -4.51564 0
M  V30 6794 H 636.186 3.84829 -3.59464 0
M  V30 6795 H 638.677 2.47034 -2.85977 0
M  V30 6796 H 638.99 4.56205 -6.23776 0
M  V30 6797 H 637.335 4.10839 -5.60568 0
M  V30 6798 H 640.526 2.99572 -3.59686 0
M  V30 6799 H 640.699 3.94974 -5.13712 0
M  V30 6800 N 634.105 1.10431 1.1244 0
M  V30 6801 C 635.33 0.869089 1.88313 0
M  V30 6802 C 635.755 -0.574912 1.79099 0
M  V30 6803 O 635.113 -1.40496 1.14589 0
M  V30 6804 C 635.161 1.32208 3.3549 0
M  V30 6805 O 634.265 0.487092 4.09513 0
M  V30 6806 H 633.606 0.313894 0.585121 0
M  V30 6807 H 636.136 1.47111 1.42195 0
M  V30 6808 H 636.146 1.31201 3.86329 0
M  V30 6809 H 634.821 2.37364 3.41513 0
M  V30 6810 H 633.398 0.562372 3.68635 0
M  V30 6811 N 635.583 -1.29855 0.893053 0
M  V30 6812 C 636.808 -2.00512 0.530066 0
M  V30 6813 C 637.233 -1.66446 -0.876199 0
M  V30 6814 O 636.591 -0.885446 -1.58207 0
M  V30 6815 C 636.639 -3.53308 0.721505 0
M  V30 6816 O 635.743 -4.11764 -0.228994 0
M  V30 6817 H 635.084 -0.630617 0.207891 0
M  V30 6818 H 637.614 -1.6551 1.20282 0
M  V30 6819 H 637.624 -4.03206 0.623599 0
M  V30 6820 H 636.299 -3.77439 1.74678 0
M  V30 6821 H 634.876 -3.72805 -0.0841034 0
M  V30 6822 N 637.061 -0.65484 -1.43351 0
M  V30 6823 C 638.286 -0.175046 -2.0666 0
M  V30 6824 C 638.711 1.15104 -1.4877 0
M  V30 6825 O 638.069 1.71144 -0.598279 0
M  V30 6826 C 638.117 -0.0991544 -3.60464 0
M  V30 6827 O 637.221 0.938169 -4.01587 0
M  V30 6828 H 636.562 -0.0956148 -0.65708 0
M  V30 6829 H 639.092 -0.898222 -1.83829 0
M  V30 6830 H 639.102 0.083632 -4.07914 0
M  V30 6831 H 637.777 -1.06719 -4.01975 0
M  V30 6832 H 636.354 0.72804 -3.65724 0
M  V30 6833 N 638.539 1.52521 -0.396863 0
M  V30 6834 C 639.764 2.06571 0.185258 0
M  V30 6835 C 640.189 1.26605 1.39115 0
M  V30 6836 O 639.547 0.293055 1.78916 0
M  V30 6837 C 639.595 3.5674 0.526189 0
M  V30 6838 O 638.699 3.7929 1.61903 0
M  V30 6839 H 638.04 0.663712 0.0195474 0
M  V30 6840 H 640.57 1.966 -0.566519 0
M  V30 6841 H 640.58 4.00311 0.788338 0
M  V30 6842 H 639.255 4.14379 -0.355397 0
M  V30 6843 H 637.832 3.47605 1.35 0
M  V30 6844 N 640.017 0.126909 1.57088 0
M  V30 6845 C 641.265 -0.528123 1.95078 0
M  V30 6846 C 641.586 -1.66708 1.0116 0
M  V30 6847 O 640.856 -1.95777 0.0693527 0
M  V30 6848 H 639.436 -0.198087 0.720257 0
M  V30 6849 H 642.098 0.197703 1.93895 0
M  V30 6850 H 641.194 -0.917507 2.98309 0
M  V30 6851 N 641.495 -1.56914 -0.146875 0
M  V30 6852 C 642.445 -1.94693 -1.18653 0
M  V30 6853 C 643.429 -0.81821 -1.38543 0
M  V30 6854 O 644.621 -1.08167 -1.40103 0
M  V30 6855 C 641.75 -2.33117 -2.52014 0
M  V30 6856 C 640.836 -3.5256 -2.35717 0
M  V30 6857 N 641.227 -4.69091 -1.89175 0
M  V30 6858 C 639.525 -3.57647 -2.66467 0
M  V30 6859 C 640.226 -5.51187 -1.85924 0
M  V30 6860 N 639.202 -4.92899 -2.29242 0
M  V30 6861 H 643.004 -2.82264 -0.81879 0
M  V30 6862 H 640.518 -1.58474 -0.354929 0
M  V30 6863 H 642.515 -2.58387 -3.27172 0
M  V30 6864 H 641.175 -1.46898 -2.89571 0
M  V30 6865 H 642.186 -4.92844 -1.59139 0
M  V30 6866 H 638.863 -2.81967 -3.07898 0
M  V30 6867 H 640.253 -6.54613 -1.51431 0
M  V30 6868 N 642.974 0.416227 -1.52004 0
M  V30 6869 C 644.204 1.18401 -1.69307 0
M  V30 6870 C 644.612 1.84943 -0.399072 0
M  V30 6871 O 643.955 1.72406 0.634177 0
M  V30 6872 C 644.017 2.29465 -2.76742 0
M  V30 6873 C 643.681 1.83117 -4.18709 0
M  V30 6874 C 644.678 1.32286 -5.02789 0
M  V30 6875 C 642.363 1.90167 -4.64911 0
M  V30 6876 C 644.357 0.891178 -6.31139 0
M  V30 6877 C 642.044 1.4661 -5.93253 0
M  V30 6878 C 643.042 0.961696 -6.76196 0
M  V30 6879 O 642.73 0.532388 -8.02135 0
M  V30 6880 H 642.462 0.362098 -0.570843 0
M  V30 6881 H 645.016 0.496764 -1.99302 0
M  V30 6882 H 643.246 3.01531 -2.42107 0
M  V30 6883 H 644.935 2.91252 -2.82713 0
M  V30 6884 H 645.701 1.26218 -4.68288 0
M  V30 6885 H 641.58 2.28371 -4.00459 0
M  V30 6886 H 645.124 0.496788 -6.95829 0
M  V30 6887 H 641.021 1.52355 -6.27263 0
M  V30 6888 H 641.789 0.656339 -8.15864 0
M  V30 6889 N 644.452 1.42507 0.673017 0
M  V30 6890 C 645.698 1.43284 1.43519 0
M  V30 6891 C 646.031 0.049668 1.94136 0
M  V30 6892 O 645.306 -0.926369 1.71022 0
M  V30 6893 C 645.589 2.45874 2.63093 0
M  V30 6894 C 645.442 3.93388 2.18096 0
M  V30 6895 C 646.761 2.45431 3.6531 0
M  V30 6896 H 643.88 0.521752 0.520522 0
M  V30 6897 H 646.522 1.73932 0.764701 0
M  V30 6898 H 644.672 2.19869 3.20296 0
M  V30 6899 H 646.344 4.30379 1.66046 0
M  V30 6900 H 644.587 4.07169 1.49652 0
M  V30 6901 H 645.258 4.60752 3.03993 0
M  V30 6902 H 647.734 2.68561 3.17827 0
M  V30 6903 H 646.61 3.19189 4.46553 0
M  V30 6904 H 646.871 1.48092 4.16559 0
M  V30 6905 N 645.93 -0.909495 1.28709 0
M  V30 6906 C 647.155 -1.69801 1.1909 0
M  V30 6907 C 647.58 -1.86479 -0.246388 0
M  V30 6908 O 646.938 -1.37802 -1.17815 0
M  V30 6909 C 646.986 -3.06543 1.89904 0
M  V30 6910 O 646.09 -3.94268 1.2094 0
M  V30 6911 H 645.431 -0.519783 0.413185 0
M  V30 6912 H 647.961 -1.13689 1.70106 0
M  V30 6913 H 647.971 -3.56748 1.97977 0
M  V30 6914 H 646.646 -2.93722 2.94449 0
M  V30 6915 H 645.223 -3.52702 1.2106 0
M  V30 6916 N 647.408 -1.11026 -1.11852 0
M  V30 6917 C 648.654 -0.867633 -1.83967 0
M  V30 6918 C 649.009 0.600309 -1.82795 0
M  V30 6919 O 648.302 1.43731 -1.26696 0
M  V30 6920 C 648.496 -1.35777 -3.30604 0
M  V30 6921 C 648.325 -2.87183 -3.46058 0
M  V30 6922 C 647.095 -3.55256 -3.59334 0
M  V30 6923 C 649.293 -3.85258 -3.40706 0
M  V30 6924 N 647.275 -4.94923 -3.63215 0
M  V30 6925 C 648.646 -5.1097 -3.51155 0
M  V30 6926 C 650.701 -3.77879 -3.2421 0
M  V30 6927 C 649.404 -6.30171 -3.46809 0
M  V30 6928 C 651.43 -4.96586 -3.2118 0
M  V30 6929 C 650.792 -6.21149 -3.32196 0
M  V30 6930 H 646.891 -0.370574 -0.688621 0
M  V30 6931 H 649.475 -1.41379 -1.33865 0
M  V30 6932 H 647.646 -0.83885 -3.79233 0
M  V30 6933 H 649.378 -1.05874 -3.90606 0
M  V30 6934 H 646.133 -3.05714 -3.61713 0
M  V30 6935 H 646.557 -5.67726 -3.68804 0
M  V30 6936 H 651.199 -2.82485 -3.14582 0
M  V30 6937 H 648.917 -7.25847 -3.55206 0
M  V30 6938 H 652.503 -4.92591 -3.09589 0
M  V30 6939 H 651.383 -7.11463 -3.29834 0
M  V30 6940 N 648.886 1.2938 -0.899927 0
M  V30 6941 C 650.132 1.9584 -0.526742 0
M  V30 6942 C 650.465 1.70774 0.924651 0
M  V30 6943 O 649.74 1.02084 1.65557 0
M  V30 6944 C 650.023 3.50638 -0.820062 0
M  V30 6945 C 649.876 3.85161 -2.32317 0
M  V30 6946 C 651.195 4.3903 -0.30671 0
M  V30 6947 H 648.314 0.711322 -0.192848 0
M  V30 6948 H 650.956 1.52992 -1.12665 0
M  V30 6949 H 649.106 3.87265 -0.309491 0
M  V30 6950 H 650.778 3.58477 -2.9033 0
M  V30 6951 H 649.021 3.32696 -2.78381 0
M  V30 6952 H 649.692 4.93204 -2.47898 0
M  V30 6953 H 652.168 4.09396 -0.743908 0
M  V30 6954 H 651.044 5.46226 -0.541144 0
M  V30 6955 H 651.305 4.34937 0.792588 0
M  V30 6956 N 650.364 0.662433 1.43002 0
M  V30 6957 C 651.311 -0.0235324 2.30788 0
M  V30 6958 C 652.281 -0.805342 1.4527 0
M  V30 6959 O 653.466 -0.78009 1.74124 0
M  V30 6960 C 650.606 -0.977545 3.30965 0
M  V30 6961 C 649.719 -0.190865 4.31578 0
M  V30 6962 C 648.854 -1.13951 5.18834 0
M  V30 6963 C 647.893 -0.343796 6.11134 0
M  V30 6964 N 647.03 -1.2445 6.90982 0
M  V30 6965 H 651.87 0.730921 2.88897 0
M  V30 6966 H 649.407 0.372197 1.42313 0
M  V30 6967 H 651.365 -1.54437 3.87563 0
M  V30 6968 H 649.995 -1.69877 2.74484 0
M  V30 6969 H 649.047 0.492388 3.772 0
M  V30 6970 H 650.359 0.427464 4.96965 0
M  V30 6971 H 649.513 -1.77666 5.80103 0
M  V30 6972 H 648.252 -1.79174 4.53595 0
M  V30 6973 H 647.257 0.30665 5.48944 0
M  V30 6974 H 648.482 0.304161 6.78419 0
M  V30 6975 H 646.428 -1.88336 6.28383 0
M  V30 6976 H 646.345 -0.680959 7.52927 0
M  V30 6977 H 647.613 -1.86952 7.56749 0
M  V30 6978 N 651.842 -1.52309 0.404946 0
M  V30 6979 C 653.258 -1.59503 0.0556255 0
M  V30 6980 C 653.458 -1.41805 -1.43156 0
M  V30 6981 O 652.514 -1.2429 -2.19792 0
M  V30 6982 C 653.827 -2.95687 0.546801 0
M  V30 6983 C 655.375 -3.08909 0.504413 0
M  V30 6984 C 655.85 -4.47566 0.97203 0
M  V30 6985 N 657.341 -4.53795 0.928679 0
M  V30 6986 C 658.076 -5.59346 1.26174 0
M  V30 6987 N 657.572 -6.72469 1.66604 0
M  V30 6988 N 659.365 -5.49532 1.18198 0
M  V30 6989 H 651.516 -1.6206 1.37296 0
M  V30 6990 H 653.779 -0.762161 0.563751 0
M  V30 6991 H 653.485 -3.13905 1.58609 0
M  V30 6992 H 653.359 -3.77172 -0.0457905 0
M  V30 6993 H 655.746 -2.90378 -0.525819 0
M  V30 6994 H 655.827 -2.2934 1.13301 0
M  V30 6995 H 655.471 -4.6684 2.00057 0
M  V30 6996 H 655.401 -5.25625 0.320292 0
M  V30 6997 H 657.892 -3.72588 0.631369 0
M  V30 6998 H 658.205 -7.48993 1.9034 0
M  V30 6999 H 656.55 -6.73761 1.70504 0
M  V30 7000 H 659.741 -4.60038 0.865011 0
M  V30 7001 H 659.914 -6.31687 1.44485 0
M  V30 7002 N 653.32 -0.135238 -1.57019 0
M  V30 7003 C 654.267 0.808908 -2.1616 0
M  V30 7004 C 655.237 1.25234 -1.09113 0
M  V30 7005 O 656.422 1.32697 -1.37099 0
M  V30 7006 C 653.562 2.04729 -2.77813 0
M  V30 7007 C 652.675 1.65074 -3.99218 0
M  V30 7008 C 651.81 2.84002 -4.48906 0
M  V30 7009 C 650.849 2.40663 -5.62803 0
M  V30 7010 N 649.986 3.5256 -6.07162 0
M  V30 7011 H 654.826 0.297751 -2.96509 0
M  V30 7012 H 652.363 0.135264 -1.46477 0
M  V30 7013 H 654.321 2.7731 -3.11697 0
M  V30 7014 H 652.951 2.53275 -2.00128 0
M  V30 7015 H 652.003 0.823029 -3.7139 0
M  V30 7016 H 653.315 1.29236 -4.81767 0
M  V30 7017 H 652.469 3.64788 -4.84783 0
M  V30 7018 H 651.208 3.23076 -3.65339 0
M  V30 7019 H 650.213 1.58314 -5.26514 0
M  V30 7020 H 651.438 2.02687 -6.48147 0
M  V30 7021 H 649.384 3.91278 -5.26534 0
M  V30 7022 H 649.301 3.20699 -6.84608 0
M  V30 7023 H 650.569 4.33738 -6.47682 0
M  V30 7024 N 654.798 1.5699 0.138552 0
M  V30 7025 C 655.73 1.95515 1.1961 0
M  V30 7026 C 656.743 0.852002 1.38726 0
M  V30 7027 O 657.932 1.13038 1.38147 0
M  V30 7028 C 655.032 2.2213 2.55952 0
M  V30 7029 C 654.205 3.53424 2.57702 0
M  V30 7030 C 653.264 3.6848 3.75645 0
M  V30 7031 O 652.29 4.4079 3.60129 0
M  V30 7032 N 653.492 3.05777 4.93438 0
M  V30 7033 H 656.257 2.86838 0.868557 0
M  V30 7034 H 653.818 1.58542 0.328033 0
M  V30 7035 H 655.81 2.29435 3.33379 0
M  V30 7036 H 654.38 1.3703 2.80965 0
M  V30 7037 H 653.6 3.57484 1.6613 0
M  V30 7038 H 654.888 4.39759 2.55909 0
M  V30 7039 H 654.286 2.46961 5.08947 0
M  V30 7040 H 652.843 3.18631 5.6861 0
M  V30 7041 N 656.276 -0.40816 1.52223 0
M  V30 7042 C 657.553 -1.16807 1.56893 0
M  V30 7043 C 657.933 -2.08169 0.350537 0
M  V30 7044 O 657.281 -2.18684 -0.662536 0
M  V30 7045 C 657.491 -1.94451 2.8981 0
M  V30 7046 C 658.839 -2.50484 3.42845 0
M  V30 7047 O 659.863 -2.0463 2.91556 0
M  V30 7048 O 658.722 -3.34192 4.3241 0
M  V30 7049 H 655.816 -0.533382 0.632007 0
M  V30 7050 H 658.362 -0.414862 1.64551 0
M  V30 7051 H 657.134 -1.27527 3.69936 0
M  V30 7052 H 656.757 -2.76775 2.85449 0
M  V30 7053 N 657.755 -1.42862 -0.66545 0
M  V30 7054 C 658.665 -1.49491 -1.80803 0
M  V30 7055 C 659.681 -0.382914 -1.69734 0
M  V30 7056 O 660.857 -0.635223 -1.9112 0
M  V30 7057 C 657.922 -1.40383 -3.17007 0
M  V30 7058 C 656.983 -2.62152 -3.39963 0
M  V30 7059 C 656.216 -2.53469 -4.69669 0
M  V30 7060 O 656.439 -1.57568 -5.48205 0
M  V30 7061 O 655.373 -3.43763 -4.94075 0
M  V30 7062 H 659.199 -2.45949 -1.78165 0
M  V30 7063 H 656.784 -1.24728 -0.822387 0
M  V30 7064 H 658.666 -1.377 -3.98267 0
M  V30 7065 H 657.341 -0.470546 -3.20262 0
M  V30 7066 H 656.248 -2.70409 -2.58515 0
M  V30 7067 H 657.581 -3.54411 -3.41546 0
M  V30 7068 N 659.233 0.902656 -1.29189 0
M  V30 7069 C 660.479 1.6555 -1.18172 0
M  V30 7070 C 660.834 1.90569 0.264788 0
M  V30 7071 O 660.127 1.50292 1.1884 0
M  V30 7072 C 660.321 3.011 -1.92545 0
M  V30 7073 C 660.15 2.89312 -3.4428 0
M  V30 7074 C 658.92 2.90239 -4.1363 0
M  V30 7075 C 661.118 2.6656 -4.3983 0
M  V30 7076 N 659.1 2.69156 -5.5175 0
M  V30 7077 C 660.471 2.54429 -5.6539 0
M  V30 7078 C 662.526 2.51644 -4.29627 0
M  V30 7079 C 661.229 2.289 -6.81907 0
M  V30 7080 C 663.255 2.27498 -5.45892 0
M  V30 7081 C 662.617 2.16129 -6.70423 0
M  V30 7082 H 658.716 0.611519 -0.48741 0
M  V30 7083 H 661.3 1.06514 -1.62981 0
M  V30 7084 H 659.471 3.58202 -1.50154 0
M  V30 7085 H 661.203 3.65471 -1.73818 0
M  V30 7086 H 657.958 3.01412 -3.65305 0
M  V30 7087 H 658.382 2.61676 -6.24383 0
M  V30 7088 H 663.024 2.59178 -3.34045 0
M  V30 7089 H 660.742 2.20104 -7.77547 0
M  V30 7090 H 664.328 2.16805 -5.39895 0
M  V30 7091 H 663.208 1.97703 -7.5887 0
M  V30 7092 N 660.711 1.11618 1.11262 0
M  V30 7093 C 661.96 0.860934 1.82403 0
M  V30 7094 C 662.273 -0.615303 1.8567 0
M  V30 7095 O 663.479 -0.986861 2.52929 0
M  V30 7096 C 661.935 1.49048 3.27586 0
M  V30 7097 C 661.543 3.00089 3.32642 0
M  V30 7098 C 663.287 1.31515 4.03614 0
M  V30 7099 C 661.194 3.56019 4.72234 0
M  V30 7100 H 660.124 0.318423 0.683464 0
M  V30 7101 H 662.775 1.34165 1.25188 0
M  V30 7102 H 661.157 0.937434 3.84744 0
M  V30 7103 H 662.331 3.61813 2.85356 0
M  V30 7104 H 660.646 3.16919 2.70096 0
M  V30 7105 H 663.243 1.70732 5.0671 0
M  V30 7106 H 663.586 0.257917 4.155 0
M  V30 7107 H 664.119 1.83694 3.52848 0
M  V30 7108 H 660.858 4.61463 4.65545 0
M  V30 7109 H 660.378 2.99066 5.19923 0
M  V30 7110 H 662.057 3.54568 5.41193 0
M  V30 7111 N 662.189 -1.289 0.906776 0
M  V30 7112 C 663.136 -2.2751 0.388313 0
M  V30 7113 C 664.106 -1.57301 -0.533439 0
M  V30 7114 O 665.291 -1.85243 -0.457148 0
M  V30 7115 C 662.431 -3.43091 -0.37181 0
M  V30 7116 C 661.544 -4.28066 0.581647 0
M  V30 7117 C 660.679 -5.30837 -0.19623 0
M  V30 7118 C 659.718 -6.07472 0.751294 0
M  V30 7119 N 658.855 -7.021 0.00737727 0
M  V30 7120 H 663.695 -2.71237 1.23428 0
M  V30 7121 H 661.232 -1.33397 0.619962 0
M  V30 7122 H 663.19 -4.08888 -0.828641 0
M  V30 7123 H 661.82 -3.00374 -1.18218 0
M  V30 7124 H 660.872 -3.62378 1.157 0
M  V30 7125 H 662.184 -4.81382 1.30665 0
M  V30 7126 H 661.338 -6.02485 -0.71394 0
M  V30 7127 H 660.077 -4.78272 -0.954324 0
M  V30 7128 H 659.082 -5.34682 1.28044 0
M  V30 7129 H 660.307 -6.62126 1.50883 0
M  V30 7130 H 658.253 -6.51894 -0.732854 0
M  V30 7131 H 658.17 -7.53004 0.672334 0
M  V30 7132 H 659.438 -7.77956 -0.490365 0
M  V30 7133 N 663.667 -0.670007 -1.42649 0
M  V30 7134 C 664.914 -0.190286 -2.01604 0
M  V30 7135 C 665.242 1.20155 -1.52948 0
M  V30 7136 O 664.497 1.81964 -0.72026 0
M  V30 7137 C 664.796 -0.168298 -3.57004 0
M  V30 7138 C 664.462 -1.50415 -4.25072 0
M  V30 7139 C 663.124 -1.86992 -4.43382 0
M  V30 7140 C 665.476 -2.38414 -4.63474 0
M  V30 7141 C 662.804 -3.11203 -4.97363 0
M  V30 7142 C 665.156 -3.61933 -5.18833 0
M  V30 7143 C 663.82 -3.98685 -5.35356 0
M  V30 7144 H 663.09 -0.0696305 -0.737721 0
M  V30 7145 H 665.737 -0.864044 -1.70899 0
M  V30 7146 H 664.042 0.588958 -3.87348 0
M  V30 7147 H 665.739 0.22001 -4.00396 0
M  V30 7148 H 662.329 -1.20959 -4.11177 0
M  V30 7149 H 666.513 -2.11442 -4.49006 0
M  V30 7150 H 661.769 -3.39705 -5.08341 0
M  V30 7151 H 665.943 -4.30326 -5.47533 0
M  V30 7152 H 663.57 -4.95009 -5.76949 0
M  V30 7153 N 665.145 1.52092 -0.413018 0
M  V30 7154 C 666.422 1.94356 0.22024 0
M  V30 7155 C 666.802 1.35017 1.62277 0
M  V30 7156 O 666.15 0.527511 2.22328 0
M  V30 7157 C 666.36 3.48289 0.222638 0
M  V30 7158 C 667.708 4.22313 0.440098 0
M  V30 7159 O 668.732 3.54919 0.301826 0
M  V30 7160 O 667.591 5.41829 0.712984 0
M  V30 7161 H 664.685 0.814536 0.14304 0
M  V30 7162 H 667.231 1.63083 -0.469242 0
M  V30 7163 H 666.003 3.83872 -0.758836 0
M  V30 7164 H 665.626 3.85934 0.956057 0
M  V30 7165 N 666.623 0.143563 1.56945 0
M  V30 7166 C 667.9 -0.553285 1.87612 0
M  V30 7167 C 668.28 -1.83195 1.04894 0
M  V30 7168 O 667.628 -2.28102 0.134773 0
M  V30 7169 C 667.838 -0.822055 3.3918 0
M  V30 7170 C 669.186 -1.16435 4.08324 0
M  V30 7171 O 670.21 -0.911522 3.4434 0
M  V30 7172 O 669.069 -1.63996 5.21313 0
M  V30 7173 H 666.163 -0.281851 0.777489 0
M  V30 7174 H 668.709 0.179916 1.68744 0
M  V30 7175 H 667.481 0.0830265 3.91212 0
M  V30 7176 H 667.104 -1.60956 3.63564 0
M  V30 7177 N 668.101 -1.57061 -0.130224 0
M  V30 7178 C 669.378 -1.75205 -0.869631 0
M  V30 7179 C 669.758 -0.716063 -1.98584 0
M  V30 7180 O 669.106 0.262032 -2.26993 0
M  V30 7181 C 669.316 -3.19835 -1.39666 0
M  V30 7182 C 670.664 -3.82011 -1.85345 0
M  V30 7183 O 671.688 -3.23368 -1.49371 0
M  V30 7184 O 670.547 -4.85064 -2.51744 0
M  V30 7185 H 667.641 -0.716977 -0.412157 0
M  V30 7186 H 670.187 -1.69311 -0.11484 0
M  V30 7187 H 668.959 -3.86745 -0.595288 0
M  V30 7188 H 668.582 -3.30222 -2.21448 0
M  V30 7189 N 669.579 0.400081 -1.52437 0
M  V30 7190 C 670.526 1.48803 -1.76426 0
M  V30 7191 C 671.496 1.5461 -0.607032 0
M  V30 7192 O 672.681 1.71041 -0.845563 0
M  V30 7193 C 669.821 2.86156 -1.92896 0
M  V30 7194 C 668.934 2.89587 -3.20567 0
M  V30 7195 C 668.069 4.18296 -3.27417 0
M  V30 7196 C 667.108 4.15736 -4.49255 0
M  V30 7197 N 666.245 5.36032 -4.53447 0
M  V30 7198 H 671.085 1.27649 -2.69276 0
M  V30 7199 H 668.622 0.619451 -1.33421 0
M  V30 7200 H 670.58 3.65901 -2.00429 0
M  V30 7201 H 669.21 3.05785 -1.03418 0
M  V30 7202 H 668.262 2.02278 -3.22161 0
M  V30 7203 H 669.574 2.83562 -4.10358 0
M  V30 7204 H 668.728 5.06439 -3.34072 0
M  V30 7205 H 667.467 4.27028 -2.35581 0
M  V30 7206 H 666.472 3.25982 -4.42737 0
M  V30 7207 H 667.697 4.08636 -5.42396 0
M  V30 7208 H 665.643 5.45415 -3.64498 0
M  V30 7209 H 665.56 5.32038 -5.37096 0
M  V30 7210 H 666.828 6.26104 -4.64343 0
M  V30 7211 N 671.057 1.43213 0.657864 0
M  V30 7212 C 672.303 1.44798 1.41991 0
M  V30 7213 C 672.636 0.070256 1.94073 0
M  V30 7214 O 671.911 -0.908177 1.71995 0
M  V30 7215 C 672.194 2.4865 2.60471 0
M  V30 7216 C 672.047 3.95679 2.13911 0
M  V30 7217 C 673.366 2.49292 3.62686 0
M  V30 7218 H 670.485 0.527244 0.514959 0
M  V30 7219 H 673.127 1.74733 0.74621 0
M  V30 7220 H 671.277 2.23254 3.17946 0
M  V30 7221 H 672.949 4.32116 1.61472 0
M  V30 7222 H 671.192 4.08733 1.45325 0
M  V30 7223 H 671.863 4.6395 2.99089 0
M  V30 7224 H 674.339 2.71917 3.14961 0
M  V30 7225 H 673.215 3.23907 4.43143 0
M  V30 7226 H 673.476 1.52502 4.14964 0
M  V30 7227 N 672.536 -0.895792 1.29666 0
M  V30 7228 C 673.761 -1.68528 1.20885 0
M  V30 7229 C 674.186 -1.8673 -0.226595 0
M  V30 7230 O 673.544 -1.39044 -1.16347 0
M  V30 7231 C 673.592 -3.04512 1.93144 0
M  V30 7232 O 672.696 -3.92963 1.25115 0
M  V30 7233 H 672.037 -0.515371 0.418675 0
M  V30 7234 H 674.567 -1.11878 1.71302 0
M  V30 7235 H 674.577 -3.54628 2.0175 0
M  V30 7236 H 673.252 -2.90582 2.97548 0
M  V30 7237 H 671.829 -3.51399 1.24794 0
M  V30 7238 N 674.014 -1.12206 -1.10668 0
M  V30 7239 C 675.263 -0.870595 -1.81944 0
M  V30 7240 C 675.576 0.605447 -1.85994 0
M  V30 7241 O 676.782 0.973433 -2.53449 0
M  V30 7242 C 675.238 -1.50783 -3.26791 0
M  V30 7243 C 674.846 -3.01849 -3.31046 0
M  V30 7244 C 676.59 -1.33653 -4.02911 0
M  V30 7245 C 674.497 -3.58518 -4.70339 0
M  V30 7246 H 673.427 -0.322043 -0.681765 0
M  V30 7247 H 676.078 -1.34827 -1.24475 0
M  V30 7248 H 674.46 -0.957825 -3.84242 0
M  V30 7249 H 675.634 -3.63321 -2.83433 0
M  V30 7250 H 673.949 -3.18346 -2.68411 0
M  V30 7251 H 676.546 -1.73416 -5.05797 0
M  V30 7252 H 676.889 -0.279949 -4.15358 0
M  V30 7253 H 677.422 -1.85562 -3.51868 0
M  V30 7254 H 674.161 -4.63925 -4.63091 0
M  V30 7255 H 673.681 -3.01819 -5.18329 0
M  V30 7256 H 675.36 -3.57434 -5.39305 0
M  V30 7257 N 675.492 1.28418 -0.913599 0
M  V30 7258 C 676.738 1.9527 -0.547484 0
M  V30 7259 C 677.071 1.71745 0.906486 0
M  V30 7260 O 676.346 1.03834 1.64465 0
M  V30 7261 C 676.629 3.49748 -0.857205 0
M  V30 7262 C 676.482 3.82675 -2.3639 0
M  V30 7263 C 677.801 4.3868 -0.353258 0
M  V30 7264 H 674.92 0.709236 -0.200381 0
M  V30 7265 H 677.562 1.51789 -1.14281 0
M  V30 7266 H 675.712 3.86915 -0.350548 0
M  V30 7267 H 677.384 3.55378 -2.94116 0
M  V30 7268 H 675.627 3.29724 -2.81894 0
M  V30 7269 H 676.298 4.90547 -2.53115 0
M  V30 7270 H 678.774 4.08584 -0.787288 0
M  V30 7271 H 677.65 5.45621 -0.599049 0
M  V30 7272 H 677.911 4.35753 0.746413 0
M  V30 7273 N 676.97 0.677563 1.42291 0
M  V30 7274 C 678.198 0.209459 2.05837 0
M  V30 7275 C 678.613 -1.13444 1.50917 0
M  V30 7276 O 677.97 -1.70529 0.65008 0
M  V30 7277 C 678.021 0.138819 3.61233 0
M  V30 7278 O 677.742 1.42962 4.14118 0
M  V30 7279 C 679.243 -0.352449 4.41897 0
M  V30 7280 H 676.463 0.101209 0.663323 0
M  V30 7281 H 679.007 0.925077 1.8238 0
M  V30 7282 H 677.162 -0.527505 3.83792 0
M  V30 7283 H 677.576 1.3048 5.08011 0
M  V30 7284 H 679.05 -0.350778 5.50884 0
M  V30 7285 H 679.527 -1.3882 4.16684 0
M  V30 7286 H 680.133 0.282236 4.24362 0
M  V30 7287 N 678.448 -1.51871 0.421078 0
M  V30 7288 C 679.859 -1.86644 -0.0457991 0
M  V30 7289 C 680.21 -1.33919 -1.43388 0
M  V30 7290 O 679.335 -0.683316 -2.05328 0
M  V30 7291 C 679.93 -3.38681 -0.0898844 0
M  V30 7292 C 678.489 -3.73049 -0.501127 0
M  V30 7293 C 677.636 -2.75485 0.316723 0
M  V30 7294 H 680.587 -1.45327 0.637635 0
M  V30 7295 H 680.608 -3.69636 -0.902734 0
M  V30 7296 H 680.12 -3.77025 0.920513 0
M  V30 7297 H 678.221 -3.40288 -1.51773 0
M  V30 7298 H 678.334 -4.78512 -0.237217 0
M  V30 7299 H 676.698 -2.53725 -0.222663 0
M  V30 7300 H 677.481 -3.16671 1.32569 0
M  V30 7301 N 679.926 -0.151884 -1.56866 0
M  V30 7302 C 680.836 0.798876 -2.20579 0
M  V30 7303 C 681.852 1.268 -1.19154 0
M  V30 7304 O 683.028 1.32418 -1.51748 0
M  V30 7305 C 680.093 2.01861 -2.81874 0
M  V30 7306 C 679.154 1.59825 -3.9844 0
M  V30 7307 C 678.387 2.75984 -4.56802 0
M  V30 7308 O 678.61 3.92331 -4.14044 0
M  V30 7309 O 677.544 2.51175 -5.46987 0
M  V30 7310 H 681.37 0.2865 -3.02346 0
M  V30 7311 H 678.955 0.0753806 -1.4921 0
M  V30 7312 H 680.837 2.73235 -3.20813 0
M  V30 7313 H 679.512 2.52042 -2.03117 0
M  V30 7314 H 678.419 0.854601 -3.64208 0
M  V30 7315 H 679.752 1.14355 -4.78731 0
M  V30 7316 N 681.404 1.57128 0.121893 0
M  V30 7317 C 682.681 1.75664 0.860327 0
M  V30 7318 C 683.061 0.726585 1.98202 0
M  V30 7319 O 682.409 -0.24999 2.27128 0
M  V30 7320 C 682.619 3.20571 1.37968 0
M  V30 7321 C 683.967 3.82988 1.83317 0
M  V30 7322 O 684.991 3.24156 1.47654 0
M  V30 7323 O 683.85 4.86393 2.49168 0
M  V30 7324 H 680.944 0.719153 0.408348 0
M  V30 7325 H 683.49 1.6937 0.105859 0
M  V30 7326 H 682.262 3.87056 0.57477 0
M  V30 7327 H 681.885 3.31392 2.19694 0
M  V30 7328 N 682.882 -0.391992 1.52647 0
M  V30 7329 C 684.131 -1.13449 1.6677 0
M  V30 7330 C 684.444 -1.91203 0.412399 0
M  V30 7331 O 685.65 -2.68013 0.433707 0
M  V30 7332 C 684.106 -2.06577 2.9471 0
M  V30 7333 C 683.714 -1.3426 4.27409 0
M  V30 7334 C 685.458 -2.80981 3.18198 0
M  V30 7335 C 683.365 -2.26136 5.46458 0
M  V30 7336 H 682.295 -0.427211 0.621295 0
M  V30 7337 H 684.946 -0.397522 1.79142 0
M  V30 7338 H 683.328 -2.83898 2.76076 0
M  V30 7339 H 684.502 -0.621856 4.56585 0
M  V30 7340 H 682.817 -0.718279 4.10158 0
M  V30 7341 H 685.414 -3.49898 4.04321 0
M  V30 7342 H 685.757 -3.44891 2.33144 0
M  V30 7343 H 686.29 -2.10754 3.37383 0
M  V30 7344 H 683.029 -1.66846 6.33911 0
M  V30 7345 H 682.549 -2.96134 5.21598 0
M  V30 7346 H 684.228 -2.86286 5.80215 0
M  V30 7347 N 684.36 -1.4356 -0.65026 0
M  V30 7348 C 685.29 -1.51758 -1.77459 0
M  V30 7349 C 686.271 -0.372019 -1.65982 0
M  V30 7350 O 687.456 -0.589627 -1.85033 0
M  V30 7351 C 684.586 -1.44302 -3.15902 0
M  V30 7352 C 683.54 -2.57138 -3.42146 0
M  V30 7353 C 682.866 -2.34735 -4.8042 0
M  V30 7354 C 684.166 -3.99373 -3.36598 0
M  V30 7355 H 685.86 -2.45863 -1.70855 0
M  V30 7356 H 683.406 -1.18333 -0.820566 0
M  V30 7357 H 685.359 -1.48641 -3.94314 0
M  V30 7358 H 684.083 -0.467026 -3.23244 0
M  V30 7359 H 682.742 -2.52157 -2.66106 0
M  V30 7360 H 682.39 -1.35372 -4.84441 0
M  V30 7361 H 682.09 -3.10375 -4.9894 0
M  V30 7362 H 683.614 -2.40862 -5.61086 0
M  V30 7363 H 685.028 -4.05826 -4.04942 0
M  V30 7364 H 683.425 -4.75063 -3.66654 0
M  V30 7365 H 684.495 -4.243 -2.34729 0
M  V30 7366 N 685.838 0.888903 -1.30139 0
M  V30 7367 C 687.254 1.17153 -1.08385 0
M  V30 7368 C 687.454 2.0088 0.157925 0
M  V30 7369 O 686.51 2.37668 0.852652 0
M  V30 7370 C 687.823 1.882 -2.34523 0
M  V30 7371 C 689.371 2.00981 -2.39949 0
M  V30 7372 C 689.846 2.75441 -3.65918 0
M  V30 7373 N 691.337 2.82989 -3.66704 0
M  V30 7374 C 692.072 3.41167 -4.60861 0
M  V30 7375 N 691.568 4.00425 -5.6536 0
M  V30 7376 N 693.361 3.38944 -4.48412 0
M  V30 7377 H 685.512 0.33053 -2.09812 0
M  V30 7378 H 687.775 0.208964 -0.924683 0
M  V30 7379 H 687.481 1.34119 -3.25123 0
M  V30 7380 H 687.355 2.88609 -2.42868 0
M  V30 7381 H 689.742 2.54234 -1.4983 0
M  V30 7382 H 689.823 0.996725 -2.35582 0
M  V30 7383 H 689.467 2.22861 -4.56394 0
M  V30 7384 H 689.397 3.77118 -3.67546 0
M  V30 7385 H 691.888 2.40912 -2.91153 0
M  V30 7386 H 692.201 4.42871 -6.33313 0
M  V30 7387 H 690.546 3.98856 -5.69157 0
M  V30 7388 H 693.737 2.91875 -3.6596 0
M  V30 7389 H 693.91 3.83989 -5.21974 0
M  V30 7390 N 687.317 1.12792 1.10072 0
M  V30 7391 C 688.247 0.821688 2.18565 0
M  V30 7392 C 689.228 -0.21612 1.68721 0
M  V30 7393 O 690.413 -0.0764932 1.94049 0
M  V30 7394 C 687.543 0.279624 3.46172 0
M  V30 7395 C 686.497 1.25092 4.09312 0
M  V30 7396 C 685.823 0.568916 5.31665 0
M  V30 7397 C 687.123 2.60699 4.52585 0
M  V30 7398 H 688.817 1.72888 2.44438 0
M  V30 7399 H 686.363 0.832702 1.17482 0
M  V30 7400 H 688.316 0.053099 4.21367 0
M  V30 7401 H 687.04 -0.662929 3.19801 0
M  V30 7402 H 685.699 1.46332 3.36129 0
M  V30 7403 H 685.347 -0.378898 5.01571 0
M  V30 7404 H 685.047 1.21687 5.74862 0
M  V30 7405 H 686.571 0.351517 6.09587 0
M  V30 7406 H 687.985 2.43465 5.19035 0
M  V30 7407 H 686.382 3.21608 5.06644 0
M  V30 7408 H 687.452 3.1886 3.65317 0
M  V30 7409 N 688.795 -1.27931 0.920396 0
M  V30 7410 C 690.02 -1.99343 0.572478 0
M  V30 7411 C 690.445 -1.68267 -0.840696 0
M  V30 7412 O 689.803 -0.918805 -1.56294 0
M  V30 7413 C 689.851 -3.51698 0.796284 0
M  V30 7414 O 688.955 -4.12157 -0.141602 0
M  V30 7415 H 688.296 -0.626065 0.221221 0
M  V30 7416 H 690.826 -1.62921 1.23765 0
M  V30 7417 H 690.836 -4.01793 0.708984 0
M  V30 7418 H 689.511 -3.73649 1.82644 0
M  V30 7419 H 688.088 -3.729 -0.005007 0
M  V30 7420 N 690.273 -0.685099 -1.4193 0
M  V30 7421 C 691.521 -0.21124 -2.00993 0
M  V30 7422 C 691.842 1.18985 -1.54491 0
M  V30 7423 O 691.112 1.8009 -0.771 0
M  V30 7424 H 689.692 -0.0751059 -0.743215 0
M  V30 7425 H 692.354 -0.883915 -1.73704 0
M  V30 7426 H 691.45 -0.220513 -3.1132 0
M  V30 7427 N 691.751 1.51645 -0.429126 0
M  V30 7428 C 692.999 2.01616 0.139802 0
M  V30 7429 C 693.32 1.31568 1.43927 0
M  V30 7430 O 692.59 0.447688 1.90716 0
M  V30 7431 H 691.17 0.744998 0.054654 0
M  V30 7432 H 693.832 1.8638 -0.569952 0
M  V30 7433 H 692.928 3.10439 0.321609 0
M  V30 7434 N 693.229 0.160201 1.56784 0
M  V30 7435 C 694.477 -0.486625 1.96154 0
M  V30 7436 C 694.798 -1.64525 1.04673 0
M  V30 7437 O 694.068 -1.95586 0.110864 0
M  V30 7438 H 692.648 -0.182764 0.724297 0
M  V30 7439 H 695.31 0.238787 1.93432 0
M  V30 7440 H 694.406 -0.854025 3.00188 0
M  V30 7441 N 694.707 -1.5719 -0.113559 0
M  V30 7442 C 695.984 -1.76117 -0.850999 0
M  V30 7443 C 696.364 -0.737085 -1.97814 0
M  V30 7444 O 695.712 0.237942 -2.27258 0
M  V30 7445 C 695.922 -3.21298 -1.36266 0
M  V30 7446 C 697.27 -3.83955 -1.81283 0
M  V30 7447 O 698.294 -3.24934 -1.45933 0
M  V30 7448 O 697.153 -4.87707 -2.46585 0
M  V30 7449 H 694.247 -0.721308 -0.404529 0
M  V30 7450 H 696.793 -1.69423 -0.0968756 0
M  V30 7451 H 695.565 -3.87355 -0.554235 0
M  V30 7452 H 695.188 -3.32552 -2.17933 0
M  V30 7453 N 696.185 0.383891 -1.52853 0
M  V30 7454 C 697.431 1.12667 -1.69345 0
M  V30 7455 C 697.786 1.87519 -0.430635 0
M  V30 7456 O 697.079 1.82742 0.575846 0
M  V30 7457 C 697.273 2.12881 -2.87082 0
M  V30 7458 C 697.102 1.47873 -4.24692 0
M  V30 7459 C 695.872 1.24064 -4.89833 0
M  V30 7460 C 698.07 0.926118 -5.05893 0
M  V30 7461 N 696.052 0.552138 -6.11412 0
M  V30 7462 C 697.423 0.365966 -6.18919 0
M  V30 7463 C 699.478 0.823023 -4.91051 0
M  V30 7464 C 698.181 -0.287204 -7.18726 0
M  V30 7465 C 700.207 0.183666 -5.91115 0
M  V30 7466 C 699.569 -0.365693 -7.0345 0
M  V30 7467 H 695.668 0.398064 -0.673104 0
M  V30 7468 H 698.252 0.415504 -1.90215 0
M  V30 7469 H 696.423 2.81329 -2.67784 0
M  V30 7470 H 698.155 2.79703 -2.92486 0
M  V30 7471 H 694.91 1.51701 -4.48647 0
M  V30 7472 H 695.334 0.223783 -6.7663 0
M  V30 7473 H 699.976 1.23354 -4.04405 0
M  V30 7474 H 697.694 -0.709719 -8.04977 0
M  V30 7475 H 701.28 0.105074 -5.81705 0
M  V30 7476 H 700.16 -0.85261 -7.79551 0
M  V30 7477 N 697.663 1.43903 0.642637 0
M  V30 7478 C 698.613 1.46321 1.74854 0
M  V30 7479 C 699.597 0.330361 1.57472 0
M  V30 7480 O 700.789 0.574881 1.67404 0
M  V30 7481 C 697.918 1.39919 3.13493 0
M  V30 7482 C 697.004 2.58274 3.36385 0
M  V30 7483 N 697.395 3.83578 3.29699 0
M  V30 7484 C 695.693 2.53224 3.67142 0
M  V30 7485 C 696.394 4.62375 3.52965 0
M  V30 7486 N 695.37 3.93269 3.75287 0
M  V30 7487 H 699.172 2.41062 1.68126 0
M  V30 7488 H 696.686 1.38704 0.844693 0
M  V30 7489 H 698.683 1.39735 3.92785 0
M  V30 7490 H 697.343 0.46207 3.21395 0
M  V30 7491 H 698.354 4.15713 3.08874 0
M  V30 7492 H 695.031 1.68252 3.82096 0
M  V30 7493 H 696.421 5.714 3.53485 0
M  V30 7494 N 699.141 -0.881989 1.30609 0
M  V30 7495 C 700.39 -1.62878 1.18969 0
M  V30 7496 C 700.703 -1.93946 -0.253859 0
M  V30 7497 O 701.909 -2.67008 -0.491813 0
M  V30 7498 C 700.365 -2.93573 2.0819 0
M  V30 7499 C 699.973 -2.70034 3.57471 0
M  V30 7500 C 701.717 -3.71543 2.0532 0
M  V30 7501 C 699.624 -3.96563 4.38739 0
M  V30 7502 H 698.554 -0.611092 0.441682 0
M  V30 7503 H 701.205 -0.976201 1.55379 0
M  V30 7504 H 699.587 -3.6014 1.64666 0
M  V30 7505 H 700.761 -2.11949 4.09163 0
M  V30 7506 H 699.076 -2.05435 3.62195 0
M  V30 7507 H 701.673 -4.65386 2.63288 0
M  V30 7508 H 702.016 -4.03167 1.03739 0
M  V30 7509 H 702.549 -3.11842 2.46981 0
M  V30 7510 H 699.288 -3.70095 5.41027 0
M  V30 7511 H 698.808 -4.54142 3.9181 0
M  V30 7512 H 700.487 -4.64557 4.50329 0
M  V30 7513 N 700.619 -1.13374 -1.09472 0
M  V30 7514 C 701.582 -0.813639 -2.14272 0
M  V30 7515 C 702.582 0.176677 -1.59826 0
M  V30 7516 O 703.772 -0.0503441 -1.74127 0
M  V30 7517 C 700.904 -0.210897 -3.40247 0
M  V30 7518 H 702.097 -1.74229 -2.44099 0
M  V30 7519 H 699.65 -0.938304 -1.25002 0
M  V30 7520 H 700.385 0.726998 -3.16046 0
M  V30 7521 H 700.17 -0.924048 -3.81056 0
M  V30 7522 H 701.66 -0.00377603 -4.176 0
M  V30 7523 N 702.098 1.27442 -0.927168 0
M  V30 7524 C 703.328 1.9821 -0.582775 0
M  V30 7525 C 703.736 1.69361 0.843406 0
M  V30 7526 O 703.079 0.950381 1.57205 0
M  V30 7527 C 703.141 3.52048 -0.728165 0
M  V30 7528 C 702.805 4.04518 -2.12637 0
M  V30 7529 C 703.802 4.17332 -3.10048 0
M  V30 7530 C 701.487 4.38879 -2.44317 0
M  V30 7531 C 703.481 4.6378 -4.37249 0
M  V30 7532 C 701.168 4.85018 -3.71753 0
M  V30 7533 C 702.166 4.97428 -4.68033 0
M  V30 7534 O 701.854 5.42556 -5.93202 0
M  V30 7535 H 701.586 0.639314 -0.219667 0
M  V30 7536 H 704.14 1.63272 -1.24626 0
M  V30 7537 H 702.37 3.86699 -0.00758143 0
M  V30 7538 H 704.059 4.04033 -0.388906 0
M  V30 7539 H 704.825 3.91046 -2.86894 0
M  V30 7540 H 700.704 4.28462 -1.70121 0
M  V30 7541 H 704.248 4.73382 -5.12402 0
M  V30 7542 H 700.145 5.10746 -3.94726 0
M  V30 7543 H 700.913 5.60811 -5.96182 0
M  V30 7544 N 703.576 0.692616 1.41565 0
M  V30 7545 C 704.822 0.222664 2.01574 0
M  V30 7546 C 705.155 -1.1737 1.54719 0
M  V30 7547 O 704.43 -1.79161 0.757084 0
M  V30 7548 C 704.713 0.277064 3.59033 0
M  V30 7549 C 704.566 1.71016 4.16021 0
M  V30 7550 C 705.885 -0.36479 4.38586 0
M  V30 7551 H 703.004 0.0823839 0.732381 0
M  V30 7552 H 705.646 0.880778 1.68352 0
M  V30 7553 H 703.796 -0.283288 3.87466 0
M  V30 7554 H 705.468 2.32413 3.98475 0
M  V30 7555 H 703.711 2.24525 3.71175 0
M  V30 7556 H 704.382 1.69978 5.25178 0
M  V30 7557 H 706.858 0.112404 4.15948 0
M  V30 7558 H 705.734 -0.296169 5.481 0
M  V30 7559 H 705.995 -1.44506 4.17816 0
M  V30 7560 N 705.054 -1.51416 0.437162 0
M  V30 7561 C 705.984 -2.30631 -0.364922 0
M  V30 7562 C 706.965 -1.36037 -1.02118 0
M  V30 7563 O 708.15 -1.64956 -1.02485 0
M  V30 7564 C 705.28 -3.1482 -1.46648 0
M  V30 7565 C 704.234 -4.17691 -0.933717 0
M  V30 7566 C 703.56 -4.904 -2.13101 0
M  V30 7567 C 704.86 -5.2229 0.0317201 0
M  V30 7568 H 706.554 -2.97932 0.29614 0
M  V30 7569 H 704.1 -1.4328 0.143865 0
M  V30 7570 H 706.053 -3.69017 -2.03481 0
M  V30 7571 H 704.777 -2.4534 -2.15583 0
M  V30 7572 H 703.436 -3.64545 -0.387602 0
M  V30 7573 H 703.084 -4.17423 -2.80654 0
M  V30 7574 H 702.784 -5.59962 -1.78092 0
M  V30 7575 H 704.308 -5.4742 -2.70487 0
M  V30 7576 H 705.722 -5.7156 -0.446302 0
M  V30 7577 H 704.119 -5.99378 0.29437 0
M  V30 7578 H 705.189 -4.75131 0.968447 0
M  V30 7579 N 706.532 -0.168513 -1.56696 0
M  V30 7580 C 707.462 0.758563 -2.20835 0
M  V30 7581 C 708.443 1.24121 -1.1631 0
M  V30 7582 O 709.628 1.29487 -1.4473 0
M  V30 7583 C 706.758 1.9892 -2.8469 0
M  V30 7584 C 705.712 1.64252 -3.95228 0
M  V30 7585 C 705.038 2.94757 -4.46119 0
M  V30 7586 C 706.338 0.872675 -5.14958 0
M  V30 7587 H 708.032 0.223953 -2.98561 0
M  V30 7588 H 705.578 0.106277 -1.43607 0
M  V30 7589 H 707.531 2.64275 -3.28233 0
M  V30 7590 H 706.255 2.5479 -2.04327 0
M  V30 7591 H 704.914 1.01266 -3.52336 0
M  V30 7592 H 704.562 3.48662 -3.62552 0
M  V30 7593 H 704.262 2.72316 -5.2069 0
M  V30 7594 H 705.786 3.61147 -4.92347 0
M  V30 7595 H 707.2 1.42875 -5.55211 0
M  V30 7596 H 705.597 0.747402 -5.95428 0
M  V30 7597 H 706.667 -0.131535 -4.84722 0
M  V30 7598 N 708.01 1.57248 0.105221 0
M  V30 7599 C 709.24 1.89492 0.823175 0
M  V30 7600 C 709.648 0.75934 1.73294 0
M  V30 7601 O 708.991 -0.278182 1.81581 0
M  V30 7602 C 709.053 3.16891 1.69765 0
M  V30 7603 C 708.717 4.46787 0.960769 0
M  V30 7604 C 709.714 5.19061 0.295218 0
M  V30 7605 C 707.399 4.93467 0.937854 0
M  V30 7606 C 709.393 6.36246 -0.383393 0
M  V30 7607 C 707.08 6.10566 0.255452 0
M  V30 7608 C 708.078 6.81804 -0.404003 0
M  V30 7609 O 707.766 7.96673 -1.07549 0
M  V30 7610 H 707.498 0.631512 0.24118 0
M  V30 7611 H 710.052 2.05203 0.0899655 0
M  V30 7612 H 708.282 2.973 2.47285 0
M  V30 7613 H 709.971 3.35046 2.29126 0
M  V30 7614 H 710.737 4.84044 0.304448 0
M  V30 7615 H 706.616 4.37913 1.44058 0
M  V30 7616 H 710.16 6.91787 -0.898696 0
M  V30 7617 H 706.057 6.45039 0.244032 0
M  V30 7618 H 706.825 8.12596 -0.981355 0
M  V30 7619 N 709.488 -0.375779 1.53054 0
M  V30 7620 C 710.736 -1.11727 1.68409 0
M  V30 7621 C 711.057 -1.90127 0.43323 0
M  V30 7622 O 710.327 -1.87945 -0.552595 0
M  V30 7623 H 708.907 -0.415451 0.620813 0
M  V30 7624 H 711.569 -0.424869 1.90213 0
M  V30 7625 H 710.665 -1.8128 2.54055 0
M  V30 7626 N 710.966 -1.44241 -0.634997 0
M  V30 7627 C 712.377 -1.41622 -1.21655 0
M  V30 7628 C 712.728 -0.129584 -1.95772 0
M  V30 7629 O 711.853 0.770225 -2.02229 0
M  V30 7630 C 712.448 -2.56557 -2.21278 0
M  V30 7631 C 711.007 -2.57145 -2.7487 0
M  V30 7632 C 710.154 -2.33354 -1.49804 0
M  V30 7633 H 713.105 -1.52878 -0.425905 0
M  V30 7634 H 713.126 -2.29089 -3.03807 0
M  V30 7635 H 712.638 -3.50186 -1.67306 0
M  V30 7636 H 710.739 -1.67447 -3.32855 0
M  V30 7637 H 710.852 -3.55507 -3.21172 0
M  V30 7638 H 709.216 -1.82372 -1.77799 0
M  V30 7639 H 709.999 -3.29092 -0.977402 0
M  V30 7640 N 712.444 0.87505 -1.31075 0
M  V30 7641 C 713.86 1.15997 -1.09622 0
M  V30 7642 C 714.06 2.01036 0.136611 0
M  V30 7643 O 713.116 2.38559 0.827397 0
M  V30 7644 C 714.429 1.85702 -2.36506 0
M  V30 7645 C 715.977 1.98425 -2.42067 0
M  V30 7646 C 716.452 2.71544 -3.68819 0
M  V30 7647 N 717.943 2.79084 -3.69684 0
M  V30 7648 C 718.678 3.36259 -4.64454 0
M  V30 7649 N 718.174 3.94406 -5.69575 0
M  V30 7650 N 719.967 3.34169 -4.51982 0
M  V30 7651 H 712.118 0.308258 -2.10151 0
M  V30 7652 H 714.381 0.199145 -0.926847 0
M  V30 7653 H 714.087 1.30663 -3.26527 0
M  V30 7654 H 713.961 2.86017 -2.45915 0
M  V30 7655 H 716.348 2.5263 -1.52518 0
M  V30 7656 H 716.429 0.971682 -2.36626 0
M  V30 7657 H 716.073 2.18008 -4.58732 0
M  V30 7658 H 716.003 3.73198 -3.71525 0
M  V30 7659 H 718.494 2.3781 -2.93691 0
M  V30 7660 H 718.807 4.36129 -6.37974 0
M  V30 7661 H 717.152 3.92797 -5.73355 0
M  V30 7662 H 720.343 2.87977 -3.69035 0
M  V30 7663 H 720.516 3.78431 -5.26017 0
M  V30 7664 N 713.922 1.13953 1.08869 0
M  V30 7665 C 715.338 0.878924 1.33218 0
M  V30 7666 C 715.538 -0.482478 1.95638 0
M  V30 7667 O 714.594 -1.22778 2.2064 0
M  V30 7668 C 715.907 2.00798 2.23832 0
M  V30 7669 C 717.455 2.04073 2.37325 0
M  V30 7670 C 717.93 3.16258 3.31278 0
M  V30 7671 N 719.421 3.15805 3.38853 0
M  V30 7672 C 720.156 3.99249 4.11567 0
M  V30 7673 N 719.652 4.92721 4.87029 0
M  V30 7674 N 721.445 3.87327 4.0735 0
M  V30 7675 H 713.596 2.01645 0.66731 0
M  V30 7676 H 715.859 0.878395 0.356547 0
M  V30 7677 H 715.565 2.98986 1.85203 0
M  V30 7678 H 715.439 1.92704 3.24261 0
M  V30 7679 H 717.826 1.06495 2.75214 0
M  V30 7680 H 717.907 2.16239 1.36654 0
M  V30 7681 H 717.551 4.14079 2.9411 0
M  V30 7682 H 717.481 3.0133 4.31866 0
M  V30 7683 H 719.972 2.48102 2.8505 0
M  V30 7684 H 720.285 5.52867 5.39961 0
M  V30 7685 H 718.63 4.96723 4.86098 0
M  V30 7686 H 721.821 3.13627 3.475 0
M  V30 7687 H 721.994 4.52585 4.63757 0
M  V30 7688 N 715.4 -1.26948 0.933913 0
M  V30 7689 C 716.646 -1.94374 0.57848 0
M  V30 7690 C 716.979 -1.73166 -0.879048 0
M  V30 7691 O 716.254 -1.06438 -1.62792 0
M  V30 7692 C 716.537 -3.4834 0.912739 0
M  V30 7693 C 716.39 -3.78866 2.42448 0
M  V30 7694 C 717.709 -4.38062 0.423003 0
M  V30 7695 H 714.828 -0.705959 0.211639 0
M  V30 7696 H 717.47 -1.49951 1.16682 0
M  V30 7697 H 715.62 -3.86309 0.412058 0
M  V30 7698 H 717.292 -3.50654 2.99733 0
M  V30 7699 H 715.535 -3.25198 2.87104 0
M  V30 7700 H 716.206 -4.86458 2.60887 0
M  V30 7701 H 718.682 -4.0728 0.852191 0
M  V30 7702 H 717.558 -5.44599 0.685776 0
M  V30 7703 H 717.819 -4.36886 -0.676994 0
M  V30 7704 N 716.879 -0.700114 -1.41195 0
M  V30 7705 C 717.789 -0.0382854 -2.34569 0
M  V30 7706 C 718.805 0.761036 -1.56474 0
M  V30 7707 O 719.981 0.697553 -1.88934 0
M  V30 7708 C 717.046 0.883522 -3.35253 0
M  V30 7709 C 716.107 0.0758957 -4.29233 0
M  V30 7710 C 715.34 0.9538 -5.25108 0
M  V30 7711 O 715.563 2.19326 -5.26547 0
M  V30 7712 O 714.497 0.401049 -6.00562 0
M  V30 7713 H 718.323 -0.808073 -2.92752 0
M  V30 7714 H 715.908 -0.460479 -1.42127 0
M  V30 7715 H 717.79 1.41199 -3.9704 0
M  V30 7716 H 716.465 1.63272 -2.79506 0
M  V30 7717 H 715.372 -0.497274 -3.7078 0
M  V30 7718 H 716.705 -0.634741 -4.8809 0
M  V30 7719 N 718.357 1.51182 -0.445186 0
M  V30 7720 C 719.606 2.01342 0.120189 0
M  V30 7721 C 719.919 1.33353 1.43095 0
M  V30 7722 O 721.125 1.74525 2.07974 0
M  V30 7723 C 719.581 3.58925 0.264732 0
M  V30 7724 C 719.189 4.35855 -1.03606 0
M  V30 7725 C 720.933 4.17208 0.783455 0
M  V30 7726 C 718.84 5.85162 -0.856731 0
M  V30 7727 H 717.77 0.752426 0.0486922 0
M  V30 7728 H 720.421 1.74221 -0.576143 0
M  V30 7729 H 718.803 3.82525 1.02425 0
M  V30 7730 H 719.977 4.23997 -1.80452 0
M  V30 7731 H 718.292 3.89062 -1.48391 0
M  V30 7732 H 720.889 5.26475 0.934239 0
M  V30 7733 H 721.232 3.76892 1.768 0
M  V30 7734 H 721.765 3.97715 0.0820346 0
M  V30 7735 H 718.504 6.29904 -1.81388 0
M  V30 7736 H 718.024 5.99663 -0.128206 0
M  V30 7737 H 719.703 6.44963 -0.513027 0
M  V30 7738 N 719.835 0.176821 1.56605 0
M  V30 7739 C 720.768 -0.790135 2.14084 0
M  V30 7740 C 721.746 -1.22219 1.07244 0
M  V30 7741 O 722.93 -1.31298 1.35252 0
M  V30 7742 C 720.057 -2.06475 2.68488 0
M  V30 7743 C 719.103 -1.77628 3.87751 0
M  V30 7744 S 719.936 -0.940612 5.27174 0
M  V30 7745 C 721.092 -2.22577 5.84988 0
M  V30 7746 H 721.325 -0.30144 2.95768 0
M  V30 7747 H 718.858 -0.0379279 1.54353 0
M  V30 7748 H 720.816 -2.79683 3.00479 0
M  V30 7749 H 719.477 -2.52457 1.8688 0
M  V30 7750 H 718.67 -2.72215 4.24164 0
M  V30 7751 H 718.272 -1.12512 3.56675 0
M  V30 7752 H 720.564 -3.17992 5.98237 0
M  V30 7753 H 721.507 -1.90624 6.81959 0
M  V30 7754 H 721.915 -2.34588 5.13448 0
M  V30 7755 N 721.313 -1.57302 -0.09688 0
M  V30 7756 C 722.223 -2.05258 -1.13606 0
M  V30 7757 C 723.239 -0.977137 -1.43972 0
M  V30 7758 O 724.415 -1.29018 -1.54649 0
M  V30 7759 C 721.48 -2.46593 -2.43706 0
M  V30 7760 C 720.541 -3.68322 -2.20538 0
M  V30 7761 C 719.774 -4.07676 -3.44435 0
M  V30 7762 O 719.997 -3.47141 -4.52603 0
M  V30 7763 O 718.931 -5.00641 -3.34129 0
M  V30 7764 H 722.757 -2.94069 -0.758752 0
M  V30 7765 H 720.342 -1.46164 -0.309263 0
M  V30 7766 H 722.224 -2.73814 -3.20318 0
M  V30 7767 H 720.899 -1.6092 -2.80867 0
M  V30 7768 H 719.806 -3.4622 -1.41713 0
M  V30 7769 H 721.139 -4.54769 -1.88271 0
M  V30 7770 N 722.791 0.367657 -1.53252 0
M  V30 7771 C 723.701 1.47415 -1.82499 0
M  V30 7772 C 724.717 1.58711 -0.713222 0
M  V30 7773 O 725.893 1.74644 -1.00306 0
M  V30 7774 C 722.958 2.82706 -2.00694 0
M  V30 7775 C 722.019 2.80955 -3.24596 0
M  V30 7776 C 721.252 4.09793 -3.41914 0
M  V30 7777 O 721.475 5.05852 -2.63572 0
M  V30 7778 O 720.409 4.15731 -4.3526 0
M  V30 7779 H 724.235 1.25624 -2.765 0
M  V30 7780 H 721.82 0.557559 -1.38606 0
M  V30 7781 H 723.702 3.62873 -2.14246 0
M  V30 7782 H 722.377 3.04479 -1.09883 0
M  V30 7783 H 721.284 1.99494 -3.16469 0
M  V30 7784 H 722.617 2.64136 -4.15323 0
M  V30 7785 N 724.269 1.44576 0.627338 0
M  V30 7786 C 725.179 1.54232 1.76776 0
M  V30 7787 C 726.195 0.427782 1.6866 0
M  V30 7788 O 727.371 0.685671 1.89369 0
M  V30 7789 C 724.436 1.48738 3.13174 0
M  V30 7790 C 723.497 2.71074 3.32893 0
M  V30 7791 C 722.73 2.65832 4.62784 0
M  V30 7792 O 722.953 1.72048 5.43834 0
M  V30 7793 O 721.887 3.56742 4.84787 0
M  V30 7794 H 725.713 2.50586 1.71582 0
M  V30 7795 H 723.298 1.26865 0.789028 0
M  V30 7796 H 725.18 1.48211 3.94476 0
M  V30 7797 H 723.855 0.555292 3.18902 0
M  V30 7798 H 722.762 2.77168 2.51254 0
M  V30 7799 H 724.095 3.63342 3.32029 0
M  V30 7800 N 725.747 -0.868086 1.31537 0
M  V30 7801 C 726.972 -1.65926 1.24432 0
M  V30 7802 C 727.397 -1.87169 -0.186936 0
M  V30 7803 O 726.755 -1.4148 -1.13371 0
M  V30 7804 C 726.803 -3.00347 1.9956 0
M  V30 7805 O 725.907 -3.90221 1.33422 0
M  V30 7806 H 725.248 -0.506375 0.429512 0
M  V30 7807 H 727.778 -1.0822 1.73637 0
M  V30 7808 H 727.788 -3.50269 2.09226 0
M  V30 7809 H 726.463 -2.84205 3.03645 0
M  V30 7810 H 725.04 -3.48672 1.32219 0
M  V30 7811 N 727.225 -1.14528 -1.08264 0
M  V30 7812 C 728.135 -0.84728 -2.18765 0
M  V30 7813 C 729.151 0.172826 -1.7314 0
M  V30 7814 O 730.327 0.000985336 -2.014 0
M  V30 7815 C 727.392 -0.330633 -3.4512 0
M  V30 7816 C 726.453 -1.41348 -4.05363 0
M  V30 7817 C 725.686 -0.921387 -5.25686 0
M  V30 7818 O 725.909 0.236587 -5.69909 0
M  V30 7819 O 724.843 -1.70101 -5.77364 0
M  V30 7820 H 728.669 -1.7708 -2.46731 0
M  V30 7821 H 726.254 -0.923661 -1.17426 0
M  V30 7822 H 728.136 -0.0485053 -4.21372 0
M  V30 7823 H 726.811 0.565147 -3.18728 0
M  V30 7824 H 725.718 -1.74908 -3.30693 0
M  V30 7825 H 727.051 -2.28383 -4.36007 0
M  V30 7826 N 728.703 1.26451 -0.940633 0
M  V30 7827 C 729.635 2.25556 -0.407104 0
M  V30 7828 C 730.648 1.55888 0.469324 0
M  V30 7829 O 731.837 1.76292 0.279858 0
M  V30 7830 C 728.937 3.36109 0.434064 0
M  V30 7831 C 728.11 4.3532 -0.426082 0
M  V30 7832 C 727.169 5.25004 0.354563 0
M  V30 7833 O 726.195 5.68684 -0.242219 0
M  V30 7834 N 727.397 5.5652 1.65123 0
M  V30 7835 H 730.162 2.7197 -1.25907 0
M  V30 7836 H 727.723 1.40212 -0.809456 0
M  V30 7837 H 729.715 3.93059 0.963684 0
M  V30 7838 H 728.285 2.89194 1.18683 0
M  V30 7839 H 727.505 3.77449 -1.13692 0
M  V30 7840 H 728.793 4.986 -1.01366 0
M  V30 7841 H 728.191 5.22912 2.15822 0
M  V30 7842 H 726.748 6.16115 2.12711 0
M  V30 7843 O 730.22 0.846016 1.37567 0
M  V30 7844 H 730.911 0.436618 1.88715 0
M  V30 END ATOM
M  V30 BEGIN BOND
M  V30 END BOND
M  V30 END CTAB
M  END
$$$$
