drugbank_target|P54652 Heat shock-related 70 kDa protein 2 (DB04216)
 OpenBabel12092121063D

  0  0  0     0  0            999 V3000
M  V30 BEGIN CTAB
M  V30 COUNTS 9849 9918 0 0 0
M  V30 BEGIN ATOM
M  V30 1 H -0.908 1.98254 -0.117106 0
M  V30 2 N 0 1.576 0 0
M  V30 3 C 0.933 2.03868 1.02534 0
M  V30 4 C 1.911 0.928543 1.3348 0
M  V30 5 O 3.095 1.19667 1.45644 0
M  V30 6 C 0.222 2.43627 2.35294 0
M  V30 7 C -0.732 3.65373 2.2001 0
M  V30 8 S 0.101 5.13292 1.52614 0
M  V30 9 C 1.257 5.56322 2.86805 0
M  V30 10 H 1.49 2.90518 0.631377 0
M  V30 11 H -0.977 1.52953 0.210867 0
M  V30 12 H 0.981 2.67203 3.11629 0
M  V30 13 H -0.358 1.57376 2.7183 0
M  V30 14 H -1.165 3.90944 3.18086 0
M  V30 15 H -1.563 3.418 1.51819 0
M  V30 16 H 0.729 5.58782 3.83104 0
M  V30 17 H 1.672 6.56266 2.65933 0
M  V30 18 H 2.08 4.83886 2.90714 0
M  V30 19 N 1.4781 -0.272755 1.55222 0
M  V30 20 C 2.7031 -1.02683 1.80197 0
M  V30 21 C 3.1281 -1.79142 0.573551 0
M  V30 22 O 2.4861 -1.74917 -0.476849 0
M  V30 23 C 2.5341 -1.9609 3.02624 0
M  V30 24 O 1.6381 -3.04863 2.77727 0
M  V30 25 H 0.9791 -0.293557 0.595584 0
M  V30 26 H 3.5091 -0.30159 2.02365 0
M  V30 27 H 3.5191 -2.38039 3.31363 0
M  V30 28 H 2.1941 -1.39851 3.91682 0
M  V30 29 H 0.7711 -2.67228 2.60084 0
M  V30 30 N 2.9562 -1.48159 -0.537278 0
M  V30 31 C 3.9192 -1.61665 -1.62472 0
M  V30 32 C 4.9192 -0.490395 -1.5314 0
M  V30 33 O 6.1092 -0.755998 -1.5694 0
M  V30 34 C 3.2412 -1.57997 -3.02076 0
M  V30 35 H 4.4342 -2.58621 -1.51839 0
M  V30 36 H 1.9872 -1.36647 -0.758771 0
M  V30 37 H 2.7222 -0.624913 -3.18222 0
M  V30 38 H 2.5072 -2.39755 -3.10258 0
M  V30 39 H 3.9972 -1.70627 -3.81151 0
M  V30 40 N 4.4343 0.785586 -1.36625 0
M  V30 41 C 5.8503 1.08419 -1.17122 0
M  V30 42 C 6.0503 2.015 0.00208491 0
M  V30 43 O 5.1063 2.43551 0.666278 0
M  V30 44 C 6.4193 1.69498 -2.48377 0
M  V30 45 C 7.9673 1.81821 -2.54775 0
M  V30 46 C 8.4423 2.46315 -3.86126 0
M  V30 47 N 9.9333 2.53779 -3.87492 0
M  V30 48 C 10.6683 3.045 -4.85868 0
M  V30 49 N 10.1643 3.55499 -5.94637 0
M  V30 50 N 11.9573 3.03247 -4.73284 0
M  V30 51 H 4.1083 0.167264 -2.1174 0
M  V30 52 H 6.3713 0.13682 -0.938075 0
M  V30 53 H 6.0773 1.08571 -3.34522 0
M  V30 54 H 5.9513 2.6896 -2.64462 0
M  V30 55 H 8.3383 2.41884 -1.69045 0
M  V30 56 H 8.4193 0.811532 -2.42586 0
M  V30 57 H 8.0633 1.86895 -4.72263 0
M  V30 58 H 7.9933 3.47561 -3.95612 0
M  V30 59 H 10.4843 2.17672 -3.08913 0
M  V30 60 H 10.7973 3.92562 -6.65669 0
M  V30 61 H 9.1423 3.5364 -5.98301 0
M  V30 62 H 12.3333 2.62696 -3.87438 0
M  V30 63 H 12.5063 3.42467 -5.50109 0
M  V30 64 N 5.9124 1.20967 1.01018 0
M  V30 65 C 7.1604 1.02172 1.74371 0
M  V30 66 C 7.4814 -0.446414 1.89821 0
M  V30 67 O 6.7514 -1.32234 1.44537 0
M  V30 68 H 5.3314 0.375066 0.646014 0
M  V30 69 H 7.9934 1.52187 1.21758 0
M  V30 70 H 7.0894 1.48538 2.74487 0
M  V30 71 N 7.3905 -1.2043 1.01659 0
M  V30 72 C 8.8015 -1.71517 0.737482 0
M  V30 73 C 9.1525 -1.81547 -0.743973 0
M  V30 74 O 8.2775 -1.47803 -1.58061 0
M  V30 75 C 8.8725 -3.11515 1.33206 0
M  V30 76 C 7.4315 -3.59912 1.10183 0
M  V30 77 C 6.5785 -2.37116 1.43776 0
M  V30 78 H 9.5295 -1.05444 1.18606 0
M  V30 79 H 9.5505 -3.73575 0.722636 0
M  V30 80 H 9.0625 -3.04182 2.41028 0
M  V30 81 H 7.1635 -3.72577 0.0412756 0
M  V30 82 H 7.2765 -4.44731 1.78188 0
M  V30 83 H 5.6405 -2.39857 0.856778 0
M  V30 84 H 6.4235 -2.32424 2.52654 0
M  V30 85 N 8.8686 -0.792821 -1.36206 0
M  V30 86 C 9.8316 -0.199459 -2.2833 0
M  V30 87 C 10.8316 0.605189 -1.48977 0
M  V30 88 O 12.0216 0.425685 -1.68919 0
M  V30 89 C 9.1536 0.723523 -3.33134 0
M  V30 90 H 10.3466 -1.01181 -2.82316 0
M  V30 91 H 7.8996 -0.562485 -1.45828 0
M  V30 92 H 8.6346 1.56008 -2.84309 0
M  V30 93 H 8.4196 0.148436 -3.91819 0
M  V30 94 H 9.9096 1.13344 -4.01924 0
M  V30 95 N 10.3467 1.47872 -0.545128 0
M  V30 96 C 11.5957 2.01695 -0.0145033 0
M  V30 97 C 11.9087 1.42609 1.33873 0
M  V30 98 O 13.1147 1.88021 1.95858 0
M  V30 99 C 11.5707 3.59892 0.0245068 0
M  V30 100 C 11.1787 4.27966 -1.32475 0
M  V30 101 C 12.9227 4.21507 0.50316 0
M  V30 102 C 10.8297 5.78136 -1.2455 0
M  V30 103 H 9.7597 0.753998 -0.00165172 0
M  V30 104 H 12.4107 1.69985 -0.691175 0
M  V30 105 H 10.7927 3.88509 0.766575 0
M  V30 106 H 11.9667 4.11003 -2.08357 0
M  V30 107 H 10.2817 3.78286 -1.74036 0
M  V30 108 H 12.8787 5.31538 0.580656 0
M  V30 109 H 13.2217 3.87855 1.51243 0
M  V30 110 H 13.7547 3.97376 -0.183681 0
M  V30 111 H 10.4937 6.16388 -2.23039 0
M  V30 112 H 10.0137 5.97469 -0.528282 0
M  V30 113 H 11.6927 6.40099 -0.942488 0
M  V30 114 N 11.8248 0.280983 1.55075 0
M  V30 115 C 13.0728 -0.333455 1.9933 0
M  V30 116 C 13.3938 -1.55937 1.17085 0
M  V30 117 O 12.6638 -1.94143 0.261805 0
M  V30 118 H 11.2438 -0.126197 0.736263 0
M  V30 119 H 13.9058 0.387678 1.91005 0
M  V30 120 H 13.0018 -0.619292 3.05894 0
M  V30 121 N 13.3029 -1.57598 0.00835791 0
M  V30 122 C 14.5519 -1.90107 -0.673968 0
M  V30 123 C 14.8649 -0.884275 -1.7447 0
M  V30 124 O 16.0709 -1.09987 -2.48224 0
M  V30 125 C 14.5269 -3.37497 -1.24995 0
M  V30 126 C 14.1349 -4.47491 -0.2136 0
M  V30 127 C 15.8789 -3.79104 -1.90999 0
M  V30 128 C 13.7859 -5.85963 -0.80005 0
M  V30 129 H 12.7159 -0.709393 -0.255495 0
M  V30 130 H 15.3669 -1.83365 0.0702693 0
M  V30 131 H 13.7489 -3.39102 -2.04513 0
M  V30 132 H 14.9229 -4.57414 0.557596 0
M  V30 133 H 13.2379 -4.14956 0.346474 0
M  V30 134 H 15.8349 -4.79901 -2.35795 0
M  V30 135 H 16.1779 -3.1306 -2.74407 0
M  V30 136 H 16.7109 -3.79833 -1.18203 0
M  V30 137 H 13.4499 -6.555 -0.00456708 0
M  V30 138 H 12.9699 -5.79687 -1.54021 0
M  V30 139 H 14.6489 -6.33884 -1.29615 0
M  V30 140 N 14.781 0.264519 -1.55364 0
M  V30 141 C 16.058 1.01677 -1.67096 0
M  V30 142 C 16.438 2.03996 -0.543015 0
M  V30 143 O 15.786 2.23907 0.45585 0
M  V30 144 C 15.996 1.66596 -3.0667 0
M  V30 145 C 17.344 2.17442 -3.64697 0
M  V30 146 O 18.368 1.76568 -3.09358 0
M  V30 147 O 17.227 2.92439 -4.61673 0
M  V30 148 H 14.321 0.472161 -0.678965 0
M  V30 149 H 16.867 0.259703 -1.67701 0
M  V30 150 H 15.639 0.924962 -3.80211 0
M  V30 151 H 15.262 2.48968 -3.10001 0
M  V30 152 N 16.2591 1.48442 0.529413 0
M  V30 153 C 17.1891 1.65902 1.64313 0
M  V30 154 C 18.1701 0.507897 1.6234 0
M  V30 155 O 19.3551 0.740503 1.79528 0
M  V30 156 C 16.4851 1.69911 3.02898 0
M  V30 157 C 15.4391 2.8453 3.19729 0
M  V30 158 C 14.7651 2.73629 4.59381 0
M  V30 159 C 16.0651 4.25821 3.02447 0
M  V30 160 H 17.7591 2.5914 1.49955 0
M  V30 161 H 15.3051 1.24709 0.719982 0
M  V30 162 H 17.2581 1.80715 3.80684 0
M  V30 163 H 15.9821 0.732524 3.18279 0
M  V30 164 H 14.6411 2.73283 2.44361 0
M  V30 165 H 14.2891 1.74938 4.71599 0
M  V30 166 H 13.9891 3.50541 4.71588 0
M  V30 167 H 15.5131 2.86401 5.39265 0
M  V30 168 H 16.9271 4.37898 3.70024 0
M  V30 169 H 15.3241 5.03735 3.26146 0
M  V30 170 H 16.3941 4.42244 1.98867 0
M  V30 171 N 17.7372 -0.778329 1.37039 0
M  V30 172 C 18.9852 -1.53361 1.31623 0
M  V30 173 C 19.3062 -1.94739 -0.100831 0
M  V30 174 O 18.5762 -1.65797 -1.04347 0
M  V30 175 H 17.1562 -0.568794 0.484234 0
M  V30 176 H 19.8182 -0.926742 1.71457 0
M  V30 177 H 18.9142 -2.43606 1.95096 0
M  V30 178 N 19.2153 -1.21501 -1.00376 0
M  V30 179 C 20.4433 -1.059 -1.77744 0
M  V30 180 C 20.8583 0.391125 -1.84704 0
M  V30 181 O 20.2153 1.27133 -1.30933 0
M  V30 182 C 20.2663 -1.65111 -3.21591 0
M  V30 183 O 19.9873 -3.0445 -3.15027 0
M  V30 184 C 21.4883 -1.54637 -4.15454 0
M  V30 185 H 18.7083 -0.371825 -0.558558 0
M  V30 186 H 21.2523 -1.60865 -1.26264 0
M  V30 187 H 19.4073 -1.14235 -3.70175 0
M  V30 188 H 19.8213 -3.3278 -4.0541 0
M  V30 189 H 21.2953 -2.00808 -5.14179 0
M  V30 190 H 21.7723 -0.501022 -4.36333 0
M  V30 191 H 22.3783 -2.04767 -3.72761 0
M  V30 192 N 20.6934 1.19889 -1.02296 0
M  V30 193 C 21.9214 1.9339 -0.735399 0
M  V30 194 C 22.3364 1.75148 0.704887 0
M  V30 195 O 21.6934 1.06954 1.47875 0
M  V30 196 C 21.7444 3.45313 -1.06962 0
M  V30 197 O 21.4654 3.62964 -2.45334 0
M  V30 198 C 22.9664 4.35948 -0.804021 0
M  V30 199 H 20.1864 0.61448 -0.269546 0
M  V30 200 H 22.7304 1.522 -1.36585 0
M  V30 201 H 20.8854 3.84359 -0.484455 0
M  V30 202 H 21.2994 4.56886 -2.57595 0
M  V30 203 H 22.7734 5.41174 -1.0879 0
M  V30 204 H 23.2504 4.3842 0.261691 0
M  V30 205 H 23.8564 4.02574 -1.37164 0
M  V30 206 N 22.1715 0.800033 1.35784 0
M  V30 207 C 23.4015 0.389041 2.02904 0
M  V30 208 C 23.8095 -1.0027 1.60445 0
M  V30 209 O 23.1525 -1.65633 0.794453 0
M  V30 210 C 23.2145 0.385495 3.57427 0
M  V30 211 C 22.8785 1.72662 4.23127 0
M  V30 212 C 23.8755 2.68385 4.4527 0
M  V30 213 C 21.5605 2.00883 4.60381 0
M  V30 214 C 23.5545 3.90517 5.03761 0
M  V30 215 C 21.2415 3.2328 5.18588 0
M  V30 216 C 22.2395 4.17915 5.40218 0
M  V30 217 O 21.9275 5.38153 5.97199 0
M  V30 218 H 21.6595 0.157032 0.657508 0
M  V30 219 H 24.2135 1.08311 1.74522 0
M  V30 220 H 22.4435 -0.365128 3.84972 0
M  V30 221 H 24.1325 -0.00228296 4.059 0
M  V30 222 H 24.8985 2.47872 4.16874 0
M  V30 223 H 20.7775 1.28037 4.42863 0
M  V30 224 H 24.3215 4.64395 5.2056 0
M  V30 225 H 20.2185 3.43667 5.4641 0
M  V30 226 H 20.9865 5.3936 6.15656 0
M  V30 227 N 23.6496 -1.47581 0.552962 0
M  V30 228 C 24.8746 -2.07378 0.0300593 0
M  V30 229 C 25.2996 -1.40355 -1.25229 0
M  V30 230 O 24.6576 -0.477099 -1.7491 0
M  V30 231 C 24.7056 -3.60274 -0.153231 0
M  V30 232 O 23.8096 -3.94041 -1.21678 0
M  V30 233 H 23.1506 -0.662158 0.0494182 0
M  V30 234 H 25.6806 -1.89662 0.767434 0
M  V30 235 H 25.6906 -4.0633 -0.368761 0
M  V30 236 H 24.3656 -4.08455 0.783397 0
M  V30 237 H 22.9426 -3.59735 -0.982079 0
M  V30 238 N 25.1277 -0.289203 -1.54924 0
M  V30 239 C 26.3677 0.324536 -2.01807 0
M  V30 240 C 26.7317 1.5199 -1.17316 0
M  V30 241 O 27.9327 2.20422 -1.53843 0
M  V30 242 C 26.2037 0.683578 -3.50802 0
M  V30 243 S 27.7627 1.28185 -4.19659 0
M  V30 244 H 24.5807 0.100236 -0.703899 0
M  V30 245 H 27.1827 -0.414325 -1.91059 0
M  V30 246 H 25.8867 -0.195073 -4.09936 0
M  V30 247 H 25.4177 1.45354 -3.65562 0
M  V30 248 H 27.4327 2.57006 -4.24456 0
M  V30 249 N 26.6058 1.57591 -0.0167156 0
M  V30 250 C 27.8518 1.91567 0.665582 0
M  V30 251 C 28.1848 0.892298 1.72487 0
M  V30 252 O 27.4598 -0.0867127 1.94307 0
M  V30 253 C 27.7428 3.36069 1.29342 0
M  V30 254 C 27.5958 4.49135 0.244541 0
M  V30 255 C 28.9148 3.803 2.21495 0
M  V30 256 H 26.0338 0.69666 0.240488 0
M  V30 257 H 28.6758 1.89866 -0.0714356 0
M  V30 258 H 26.8258 3.3765 1.92158 0
M  V30 259 H 28.4978 4.59689 -0.385228 0
M  V30 260 H 26.7408 4.3165 -0.431379 0
M  V30 261 H 27.4118 5.47242 0.723207 0
M  V30 262 H 29.8878 3.80377 1.68678 0
M  V30 263 H 28.7638 4.82127 2.62382 0
M  V30 264 H 29.0248 3.15104 3.101 0
M  V30 265 N 28.0839 -0.256276 1.55502 0
M  V30 266 C 29.3319 -0.983672 1.76545 0
M  V30 267 C 29.6529 -1.86206 0.578982 0
M  V30 268 O 28.9229 -1.91656 -0.405577 0
M  V30 269 H 27.5029 -0.366191 0.651086 0
M  V30 270 H 30.1649 -0.276479 1.92929 0
M  V30 271 H 29.2609 -1.61087 2.67315 0
M  V30 272 N 29.562 -1.4872 -0.521534 0
M  V30 273 C 30.808 -1.574 -1.27879 0
M  V30 274 C 31.141 -0.250817 -1.92573 0
M  V30 275 O 30.416 0.743934 -1.79711 0
M  V30 276 C 30.699 -2.71843 -2.36164 0
M  V30 277 C 30.552 -4.13893 -1.76105 0
M  V30 278 C 31.871 -2.82008 -3.37875 0
M  V30 279 H 28.99 -0.572941 -0.463581 0
M  V30 280 H 31.632 -1.80927 -0.580119 0
M  V30 281 H 29.782 -2.51914 -2.95756 0
M  V30 282 H 31.454 -4.45284 -1.20499 0
M  V30 283 H 29.697 -4.20498 -1.06601 0
M  V30 284 H 30.368 -4.89804 -2.5455 0
M  V30 285 H 32.844 -3.00086 -2.88249 0
M  V30 286 H 31.72 -3.63796 -4.11028 0
M  V30 287 H 31.981 -1.90511 -3.98946 0
M  V30 288 N 31.0401 0.771051 -1.3745 0
M  V30 289 C 32.2871 1.52963 -1.32697 0
M  V30 290 C 32.6151 1.94299 0.0883274 0
M  V30 291 O 31.8701 1.64397 1.0617 0
M  V30 292 C 32.1691 2.80676 -2.2126 0
M  V30 293 C 31.8351 2.58389 -3.69521 0
M  V30 294 C 30.4971 2.52019 -4.09927 0
M  V30 295 C 32.8491 2.38469 -4.63446 0
M  V30 296 C 30.1771 2.23721 -5.42371 0
M  V30 297 C 32.5291 2.11694 -5.96128 0
M  V30 298 C 31.1931 2.03769 -6.35637 0
M  V30 299 H 30.4631 0.559732 -0.485573 0
M  V30 300 H 33.1101 0.888083 -1.69662 0
M  V30 301 H 31.4151 3.49392 -1.77291 0
M  V30 302 H 33.1121 3.38557 -2.14895 0
M  V30 303 H 29.7021 2.6421 -3.37478 0
M  V30 304 H 33.8861 2.4238 -4.33089 0
M  V30 305 H 29.1421 2.16081 -5.71943 0
M  V30 306 H 33.3161 1.9528 -6.6846 0
M  V30 307 H 30.9431 1.81606 -7.38189 0
M  V30 308 N 32.5182 1.22032 0.997298 0
M  V30 309 C 33.4502 0.944263 2.08845 0
M  V30 310 C 34.4632 -0.0754663 1.62625 0
M  V30 311 O 35.6522 0.157994 1.77799 0
M  V30 312 C 32.7522 0.397723 3.36558 0
M  V30 313 C 31.9252 1.47362 4.11829 0
M  V30 314 C 30.9842 0.934951 5.17827 0
M  V30 315 O 30.0102 1.62016 5.45655 0
M  V30 316 N 31.2122 -0.245895 5.79979 0
M  V30 317 H 33.9772 1.88363 2.33109 0
M  V30 318 H 31.5382 1.12661 1.16272 0
M  V30 319 H 33.5302 0.0227771 4.04694 0
M  V30 320 H 32.1002 -0.446646 3.09393 0
M  V30 321 H 31.3202 2.02208 3.38386 0
M  V30 322 H 32.6082 2.19764 4.58891 0
M  V30 323 H 32.0062 -0.819475 5.59733 0
M  V30 324 H 30.5632 -0.562272 6.4937 0
M  V30 325 N 33.9963 -1.19345 1.0293 0
M  V30 326 C 34.9463 -2.20472 0.58104 0
M  V30 327 C 35.9303 -1.56578 -0.370442 0
M  V30 328 O 37.1223 -1.75963 -0.191344 0
M  V30 329 C 34.2513 -3.43236 -0.066306 0
M  V30 330 C 33.3373 -4.14274 0.907642 0
M  V30 331 N 33.7283 -4.61492 2.07023 0
M  V30 332 C 32.0263 -4.39966 0.731177 0
M  V30 333 C 32.7273 -5.1605 2.68454 0
M  V30 334 N 31.7033 -5.06875 1.96414 0
M  V30 335 H 35.5053 -2.54659 1.46717 0
M  V30 336 H 33.0193 -1.35423 0.896345 0
M  V30 337 H 35.0163 -4.14927 -0.405068 0
M  V30 338 H 33.6763 -3.10549 -0.948118 0
M  V30 339 H 34.6873 -4.56304 2.44963 0
M  V30 340 H 31.3643 -4.17377 -0.101507 0
M  V30 341 H 32.7543 -5.6287 3.66915 0
M  V30 342 N 35.4744 -0.807222 -1.35358 0
M  V30 343 C 36.7224 -0.387122 -1.98358 0
M  V30 344 C 37.0434 1.04942 -1.64354 0
M  V30 345 O 36.3134 1.72615 -0.926339 0
M  V30 346 H 34.8934 -0.140154 -0.733734 0
M  V30 347 H 37.5554 -1.0332 -1.6526 0
M  V30 348 H 36.6514 -0.493352 -3.08176 0
M  V30 349 N 36.9525 1.47285 -0.560781 0
M  V30 350 C 37.8995 2.30058 0.18491 0
M  V30 351 C 38.8695 1.39281 0.904986 0
M  V30 352 O 40.0545 1.68241 0.899979 0
M  V30 353 C 37.1945 3.23317 1.20666 0
M  V30 354 C 36.3075 4.29186 0.492285 0
M  V30 355 C 35.4425 5.09592 1.49964 0
M  V30 356 C 34.4815 6.07232 0.770439 0
M  V30 357 N 33.6185 6.80584 1.72479 0
M  V30 358 H 38.4585 2.93302 -0.527048 0
M  V30 359 H 35.9955 1.44568 -0.271738 0
M  V30 360 H 37.9535 3.75811 1.81168 0
M  V30 361 H 36.5835 2.61929 1.88661 0
M  V30 362 H 35.6355 3.7972 -0.227333 0
M  V30 363 H 36.9475 4.98738 -0.0787929 0
M  V30 364 H 36.1015 5.66254 2.17809 0
M  V30 365 H 34.8405 4.3995 2.10464 0
M  V30 366 H 33.8455 5.49745 0.0780846 0
M  V30 367 H 35.0705 6.78884 0.171134 0
M  V30 368 H 33.0165 6.1367 2.3183 0
M  V30 369 H 32.9335 7.46319 1.20596 0
M  V30 370 H 34.2015 7.41818 2.39428 0
M  V30 371 N 38.4306 0.297415 1.54768 0
M  V30 372 C 39.6766 -0.313376 2.00364 0
M  V30 373 C 40.0096 -1.53815 1.18553 0
M  V30 374 O 39.2846 -1.92739 0.261103 0
M  V30 375 C 39.5676 -0.673525 3.53745 0
M  V30 376 C 39.4206 0.560133 4.46299 0
M  V30 377 C 40.7396 -1.50143 4.13697 0
M  V30 378 H 37.8586 -0.112428 0.728374 0
M  V30 379 H 40.5006 0.4088 1.8555 0
M  V30 380 H 38.6506 -1.28881 3.665 0
M  V30 381 H 40.3226 1.19863 4.45455 0
M  V30 382 H 38.5656 1.19405 4.17043 0
M  V30 383 H 39.2366 0.26405 5.51368 0
M  V30 384 H 41.7126 -0.981588 4.04356 0
M  V30 385 H 40.5886 -1.72221 5.21182 0
M  V30 386 H 40.8496 -2.48952 3.65343 0
M  V30 387 N 39.9087 -1.5758 0.0250728 0
M  V30 388 C 40.8187 -2.1343 -0.973905 0
M  V30 389 C 41.8347 -1.08556 -1.35984 0
M  V30 390 O 43.0107 -1.40592 -1.44207 0
M  V30 391 C 40.0757 -2.64703 -2.23904 0
M  V30 392 C 39.1367 -3.84276 -1.91391 0
M  V30 393 C 38.3697 -4.33095 -3.11873 0
M  V30 394 O 38.5927 -3.81107 -4.24398 0
M  V30 395 O 37.5267 -5.24984 -2.94406 0
M  V30 396 H 41.3527 -2.99057 -0.529036 0
M  V30 397 H 38.9377 -1.48118 -0.195288 0
M  V30 398 H 40.8197 -2.97769 -2.98181 0
M  V30 399 H 39.4947 -1.82161 -2.6758 0
M  V30 400 H 38.4017 -3.56143 -1.14511 0
M  V30 401 H 39.7347 -4.67968 -1.52534 0
M  V30 402 N 41.3868 0.248026 -1.55636 0
M  V30 403 C 42.6358 0.974134 -1.76617 0
M  V30 404 C 42.9488 1.86528 -0.588796 0
M  V30 405 O 44.1548 2.62805 -0.681594 0
M  V30 406 C 42.6108 1.78213 -3.12679 0
M  V30 407 C 42.2188 0.93843 -4.38061 0
M  V30 408 C 43.9628 2.50104 -3.42999 0
M  V30 409 C 41.8698 1.74225 -5.65155 0
M  V30 410 H 40.7998 0.36745 -0.658405 0
M  V30 411 H 43.4508 0.22884 -1.82067 0
M  V30 412 H 41.8328 2.56933 -3.01333 0
M  V30 413 H 43.0068 0.193635 -4.60393 0
M  V30 414 H 41.3218 0.332905 -4.15067 0
M  V30 415 H 43.9188 3.10694 -4.3517 0
M  V30 416 H 44.2618 3.21662 -2.64271 0
M  V30 417 H 44.7948 1.78395 -3.55556 0
M  V30 418 H 41.5338 1.07043 -6.46701 0
M  V30 419 H 41.0538 2.46235 -5.46926 0
M  V30 420 H 42.7328 2.30967 -6.0437 0
M  V30 421 N 42.8649 1.48995 0.513639 0
M  V30 422 C 44.1139 1.57093 1.2651 0
M  V30 423 C 44.4269 0.257091 1.93903 0
M  V30 424 O 45.6329 0.216478 2.70636 0
M  V30 425 C 44.0889 2.77118 2.29638 0
M  V30 426 C 43.6969 4.15209 1.68241 0
M  V30 427 C 45.4409 2.94538 3.05692 0
M  V30 428 C 43.3479 5.26474 2.69406 0
M  V30 429 H 42.2779 0.584876 0.475854 0
M  V30 430 H 44.9289 1.7536 0.540487 0
M  V30 431 H 43.3109 2.52319 3.05207 0
M  V30 432 H 44.4849 4.50094 0.987505 0
M  V30 433 H 42.7999 4.03042 1.04623 0
M  V30 434 H 45.3969 3.74832 3.8132 0
M  V30 435 H 45.7399 2.04614 3.62545 0
M  V30 436 H 46.2729 3.19316 2.37238 0
M  V30 437 H 43.0119 6.18417 2.17351 0
M  V30 438 H 42.5319 4.96058 3.37175 0
M  V30 439 H 44.2109 5.55277 3.32078 0
M  V30 440 N 44.343 -0.763751 1.37857 0
M  V30 441 C 45.306 -1.85889 1.34081 0
M  V30 442 C 46.306 -1.58949 0.243277 0
M  V30 443 O 47.496 -1.66882 0.499589 0
M  V30 444 C 44.628 -3.23176 1.08489 0
M  V30 445 H 45.821 -1.90648 2.31502 0
M  V30 446 H 43.374 -0.964367 1.23003 0
M  V30 447 H 44.109 -3.24091 0.116318 0
M  V30 448 H 43.894 -3.44124 1.8794 0
M  V30 449 H 45.384 -4.03254 1.08517 0
M  V30 450 N 45.8211 -1.22559 -0.990812 0
M  V30 451 C 46.7691 -0.994798 -2.10253 0
M  V30 452 C 47.7631 0.0627798 -1.69284 0
M  V30 453 O 48.9691 -0.0898392 -1.79776 0
M  V30 454 H 45.3441 -0.304527 -0.687581 0
M  V30 455 H 47.3151 -1.93812 -2.26891 0
M  V30 456 C 46.0641 -0.591439 -3.42633 0
M  V30 457 H 45.3871 -1.3969 -3.74602 0
M  V30 458 H 46.8271 -0.469385 -4.21394 0
M  V30 459 C 45.2861 0.699232 -3.29564 0
M  V30 460 O 45.8161 1.75112 -3.61523 0
M  V30 461 N 44.0221 0.671182 -2.82743 0
M  V30 462 H 43.5691 -0.185136 -2.56934 0
M  V30 463 H 43.5271 1.53502 -2.7438 0
M  V30 464 N 47.2992 1.18797 -1.03562 0
M  V30 465 C 48.5762 1.84469 -0.650434 0
M  V30 466 C 48.9562 1.92319 0.870433 0
M  V30 467 O 48.3042 1.44528 1.76986 0
M  V30 468 C 48.5142 3.2306 -1.32036 0
M  V30 469 C 49.8622 3.9915 -1.44792 0
M  V30 470 O 50.8862 3.32481 -1.27806 0
M  V30 471 O 49.7452 5.18587 -1.72423 0
M  V30 472 H 46.8392 0.795251 -0.226946 0
M  V30 473 H 49.3852 1.26231 -1.13419 0
M  V30 474 H 48.1572 3.1222 -2.3587 0
M  V30 475 H 47.7802 3.88949 -0.8249 0
M  V30 476 N 48.7773 0.814389 1.34928 0
M  V30 477 C 49.7093 0.187834 2.28429 0
M  V30 478 C 50.7223 -0.617374 1.5064 0
M  V30 479 O 51.9113 -0.448454 1.72775 0
M  V30 480 C 49.0113 -0.755962 3.30361 0
M  V30 481 C 48.1843 0.00456686 4.374 0
M  V30 482 C 47.2433 -0.858876 5.19143 0
M  V30 483 O 46.2693 -0.306968 5.68372 0
M  V30 484 N 47.4713 -2.17988 5.38016 0
M  V30 485 H 50.2363 0.991105 2.82838 0
M  V30 486 H 47.7973 0.670561 1.4736 0
M  V30 487 H 49.7893 -1.338 3.81942 0
M  V30 488 H 48.3593 -1.46001 2.7641 0
M  V30 489 H 47.5793 0.767865 3.86649 0
M  V30 490 H 48.8673 0.528422 5.06049 0
M  V30 491 H 48.2653 -2.65212 4.99679 0
M  V30 492 H 46.8223 -2.71098 5.92747 0
M  V30 493 N 50.2554 -1.46986 0.568584 0
M  V30 494 C 51.5034 -2.02041 0.0487022 0
M  V30 495 C 51.8244 -1.44408 -1.31039 0
M  V30 496 O 51.0944 -0.623477 -1.85714 0
M  V30 497 H 49.6744 -0.746849 0.015014 0
M  V30 498 H 52.3364 -1.80257 0.741168 0
M  V30 499 H 51.4324 -3.12085 -0.0308961 0
M  V30 500 N 51.7335 -0.305618 -1.54608 0
M  V30 501 C 52.6815 0.584119 -2.25146 0
M  V30 502 C 53.6755 1.13326 -1.25911 0
M  V30 503 O 54.8815 1.08337 -1.43747 0
M  V30 504 H 51.2565 0.206983 -0.722954 0
M  V30 505 H 53.2275 -0.033291 -2.98381 0
M  V30 506 C 51.9765 1.74225 -3.009 0
M  V30 507 H 51.2995 1.32892 -3.77067 0
M  V30 508 H 52.7395 2.34077 -3.53531 0
M  V30 509 C 51.1985 2.64914 -2.0814 0
M  V30 510 O 51.7285 3.66137 -1.65246 0
M  V30 511 N 49.9345 2.3275 -1.74 0
M  V30 512 H 49.4815 1.50479 -2.09078 0
M  V30 513 H 49.4395 2.93694 -1.12211 0
M  V30 514 N 53.2116 1.57565 -0.0334293 0
M  V30 515 C 54.6276 1.56297 0.322997 0
M  V30 516 C 54.8276 1.03945 1.7262 0
M  V30 517 O 53.8836 0.688109 2.42943 0
M  V30 518 C 55.1966 3.00232 0.167664 0
M  V30 519 C 56.7446 3.12078 0.240107 0
M  V30 520 C 57.2196 4.57859 0.113513 0
M  V30 521 N 58.7106 4.62887 0.170359 0
M  V30 522 C 59.4456 5.73319 0.0962517 0
M  V30 523 N 58.9416 6.92794 -0.0291881 0
M  V30 524 N 60.7346 5.61898 0.150551 0
M  V30 525 H 52.8856 1.89923 -0.950956 0
M  V30 526 H 55.1486 0.873824 -0.367608 0
M  V30 527 H 54.8546 3.42501 -0.799102 0
M  V30 528 H 54.7286 3.654 0.936083 0
M  V30 529 H 57.1156 2.69718 1.19733 0
M  V30 530 H 57.1966 2.49623 -0.558763 0
M  V30 531 H 56.8406 5.009 -0.840314 0
M  V30 532 H 56.7706 5.18299 0.931302 0
M  V30 533 H 59.2616 3.76954 0.26728 0
M  V30 534 H 59.5746 7.7276 -0.0789252 0
M  V30 535 H 57.9196 6.94971 -0.0640299 0
M  V30 536 H 61.1106 4.67448 0.246981 0
M  V30 537 H 61.2836 6.47938 0.0893365 0
M  V30 538 N 54.6897 -0.239769 1.55765 0
M  V30 539 C 55.9177 -0.98417 1.81994 0
M  V30 540 C 56.3327 -1.7867 0.610124 0
M  V30 541 O 55.6897 -1.77571 -0.421271 0
M  V30 542 C 55.7407 -1.91635 3.06526 0
M  V30 543 O 55.4617 -1.14629 4.22838 0
M  V30 544 C 56.9627 -2.77616 3.45607 0
M  V30 545 H 54.1827 -0.28928 0.605441 0
M  V30 546 H 56.7267 -0.260499 2.02834 0
M  V30 547 H 54.8817 -2.5942 2.87715 0
M  V30 548 H 55.2957 -1.77745 4.93464 0
M  V30 549 H 56.7697 -3.38759 4.35828 0
M  V30 550 H 57.2467 -3.4909 2.6652 0
M  V30 551 H 57.8527 -2.15271 3.66795 0
M  V30 552 N 56.1678 -1.49265 -0.50573 0
M  V30 553 C 57.3958 -1.62215 -1.28429 0
M  V30 554 C 57.8108 -0.291697 -1.86533 0
M  V30 555 O 57.1678 0.722233 -1.67601 0
M  V30 556 C 57.2188 -2.68735 -2.41793 0
M  V30 557 O 56.9398 -3.96619 -1.86078 0
M  V30 558 C 58.4408 -2.92346 -3.3324 0
M  V30 559 H 55.6608 -0.546239 -0.389697 0
M  V30 560 H 58.2048 -1.95265 -0.607609 0
M  V30 561 H 56.3598 -2.38476 -3.053 0
M  V30 562 H 56.7738 -4.55256 -2.60465 0
M  V30 563 H 58.2478 -3.70623 -4.09075 0
M  V30 564 H 58.7248 -2.02081 -3.89948 0
M  V30 565 H 59.3308 -3.24003 -2.75503 0
M  V30 566 N 57.6459 0.756429 -1.3826 0
M  V30 567 C 59.0569 1.33359 -1.30661 0
M  V30 568 C 59.4079 1.96161 0.0388875 0
M  V30 569 O 58.5329 1.94874 0.940918 0
M  V30 570 C 59.1279 2.42477 -2.36622 0
M  V30 571 C 57.6869 2.95922 -2.3261 0
M  V30 572 C 56.8339 1.69275 -2.19639 0
M  V30 573 H 59.7849 0.55552 -1.4866 0
M  V30 574 H 59.8059 3.22345 -2.02174 0
M  V30 575 H 59.3179 1.96739 -3.34538 0
M  V30 576 H 57.4189 3.45996 -1.38267 0
M  V30 577 H 57.5319 3.50494 -3.26636 0
M  V30 578 H 55.8959 1.92793 -1.66442 0
M  V30 579 H 56.6789 1.25619 -3.19491 0
M  V30 580 N 59.124 1.23083 0.984299 0
M  V30 581 C 60.349 1.088 1.76571 0
M  V30 582 C 60.774 -0.356657 1.84688 0
M  V30 583 O 60.132 -1.25788 1.30565 0
M  V30 584 C 60.18 1.71371 3.17277 0
M  V30 585 O 59.284 0.973213 4.00752 0
M  V30 586 H 58.625 0.381599 0.543395 0
M  V30 587 H 61.155 1.63057 1.23587 0
M  V30 588 H 61.165 1.76449 3.67872 0
M  V30 589 H 59.84 2.76493 3.10684 0
M  V30 590 H 58.417 0.999078 3.59267 0
M  V30 591 N 60.6021 -1.18246 1.0419 0
M  V30 592 C 61.8321 -1.91916 0.764961 0
M  V30 593 C 62.2401 -1.76485 -0.681898 0
M  V30 594 O 61.5831 -1.09275 -1.47664 0
M  V30 595 C 61.6451 -3.4373 1.05309 0
M  V30 596 C 61.3091 -3.8294 2.4941 0
M  V30 597 C 62.3061 -3.86621 3.47592 0
M  V30 598 C 59.9911 -4.142 2.84155 0
M  V30 599 C 61.9851 -4.21013 4.78568 0
M  V30 600 C 59.6721 -4.48262 4.15337 0
M  V30 601 C 60.6701 -4.51645 5.12353 0
M  V30 602 O 60.3581 -4.84911 6.41183 0
M  V30 603 H 60.0901 -0.61606 0.278292 0
M  V30 604 H 62.6441 -1.50947 1.39299 0
M  V30 605 H 60.8741 -3.84946 0.367933 0
M  V30 606 H 62.5631 -3.9865 0.763752 0
M  V30 607 H 63.3291 -3.62607 3.22089 0
M  V30 608 H 59.2081 -4.10743 2.09311 0
M  V30 609 H 62.7521 -4.23568 5.54289 0
M  V30 610 H 58.6491 -4.71737 4.40607 0
M  V30 611 H 59.4171 -5.02809 6.45852 0
M  V30 612 N 62.0802 -0.821533 -1.34494 0
M  V30 613 C 63.3262 -0.409552 -1.98622 0
M  V30 614 C 63.6592 1.0244 -1.64984 0
M  V30 615 O 62.9342 1.71325 -0.920758 0
M  V30 616 C 63.2172 -0.610458 -3.54888 0
M  V30 617 C 63.0702 -2.09043 -3.98273 0
M  V30 618 C 64.3892 -0.0455379 -4.40076 0
M  V30 619 H 61.5082 -0.15028 -0.721516 0
M  V30 620 H 64.1502 -1.03384 -1.59411 0
M  V30 621 H 62.3002 -0.079044 -3.8842 0
M  V30 622 H 63.9722 -2.68537 -3.75081 0
M  V30 623 H 62.2152 -2.58139 -3.48635 0
M  V30 624 H 62.8862 -2.18182 -5.07051 0
M  V30 625 H 65.3622 -0.499557 -4.1309 0
M  V30 626 H 64.2382 -0.215922 -5.48475 0
M  V30 627 H 64.4992 1.04939 -4.29465 0
M  V30 628 N 63.5583 1.46682 -0.576371 0
M  V30 629 C 64.5213 2.28707 0.150239 0
M  V30 630 C 65.5213 1.38035 0.824794 0
M  V30 631 O 66.7113 1.60476 0.677719 0
M  V30 632 C 63.8433 3.18248 1.22192 0
M  V30 633 H 65.0363 2.94423 -0.570521 0
M  V30 634 H 62.5893 1.52688 -0.334078 0
M  V30 635 H 63.3243 2.57265 1.97447 0
M  V30 636 H 63.1093 3.85 0.742812 0
M  V30 637 H 64.5993 3.80001 1.73172 0
M  V30 638 N 65.0364 0.313813 1.54444 0
M  V30 639 C 66.2834 -0.291675 2.00388 0
M  V30 640 C 66.6114 -1.52904 1.2021 0
M  V30 641 O 65.8664 -1.93833 0.269707 0
M  V30 642 C 66.1654 -0.680386 3.50864 0
M  V30 643 C 65.8314 0.456699 4.48581 0
M  V30 644 C 64.4934 0.768824 4.75018 0
M  V30 645 C 66.8454 1.22098 5.06697 0
M  V30 646 C 64.1734 1.84812 5.56831 0
M  V30 647 C 66.5254 2.29029 5.89685 0
M  V30 648 C 65.1894 2.60834 6.14428 0
M  V30 649 H 64.4594 -0.106732 0.733273 0
M  V30 650 H 67.1064 0.43557 1.86481 0
M  V30 651 H 65.4114 -1.48791 3.62448 0
M  V30 652 H 67.1084 -1.16026 3.83847 0
M  V30 653 H 63.6984 0.203337 4.28117 0
M  V30 654 H 67.8824 0.993096 4.86263 0
M  V30 655 H 63.1384 2.09912 5.74236 0
M  V30 656 H 67.3124 2.887 6.33739 0
M  V30 657 H 64.9394 3.44596 6.77612 0
M  V30 658 N 66.5145 -1.57545 0.0417849 0
M  V30 659 C 67.7425 -1.96624 -0.643928 0
M  V30 660 C 68.1575 -0.918897 -1.64929 0
M  V30 661 O 67.5145 0.0979323 -1.82237 0
M  V30 662 C 67.5655 -3.35781 -1.33914 0
M  V30 663 O 67.2865 -4.365 -0.374048 0
M  V30 664 C 68.7875 -3.89566 -2.1155 0
M  V30 665 H 66.0075 -0.647316 -0.176702 0
M  V30 666 H 68.5515 -2.04229 0.105304 0
M  V30 667 H 66.7065 -3.29357 -2.03968 0
M  V30 668 H 67.1205 -5.17248 -0.869179 0
M  V30 669 H 68.5945 -4.89242 -2.55628 0
M  V30 670 H 69.0715 -3.24488 -2.9598 0
M  V30 671 H 69.6775 -3.99298 -1.46427 0
M  V30 672 N 67.9926 0.231505 -1.5589 0
M  V30 673 C 69.2696 0.981096 -1.69215 0
M  V30 674 C 69.6496 2.02799 -0.586164 0
M  V30 675 O 68.9976 2.24823 0.408253 0
M  V30 676 C 69.2076 1.60054 -3.10135 0
M  V30 677 C 70.5556 2.09658 -3.69227 0
M  V30 678 O 71.5796 1.69967 -3.13033 0
M  V30 679 O 70.4386 2.8258 -4.67772 0
M  V30 680 H 67.5326 0.457653 -0.688827 0
M  V30 681 H 70.0786 0.224073 -1.68214 0
M  V30 682 H 68.8506 0.844105 -3.82087 0
M  V30 683 H 68.4736 2.42336 -3.15212 0
M  V30 684 N 69.4707 1.49531 0.497807 0
M  V30 685 C 70.6987 1.62893 1.27567 0
M  V30 686 C 71.1137 0.301585 1.86376 0
M  V30 687 O 70.4707 -0.713335 1.67982 0
M  V30 688 C 70.5217 2.70013 2.40364 0
M  V30 689 O 70.2427 3.976 1.83972 0
M  V30 690 C 71.7437 2.94109 3.31685 0
M  V30 691 H 68.9637 0.548298 0.386794 0
M  V30 692 H 71.5077 1.95584 0.597245 0
M  V30 693 H 69.6627 2.40092 3.04031 0
M  V30 694 H 70.0767 4.56631 2.58047 0
M  V30 695 H 71.5507 3.72788 4.07104 0
M  V30 696 H 72.0277 2.04147 3.88871 0
M  V30 697 H 72.6337 3.2546 2.73781 0
M  V30 698 N 70.9488 -0.749086 1.3866 0
M  V30 699 C 71.8588 -1.89358 1.38494 0
M  V30 700 C 72.8748 -1.71708 0.281476 0
M  V30 701 O 74.0508 -1.94554 0.520643 0
M  V30 702 C 71.1158 -3.24782 1.21316 0
M  V30 703 C 70.1768 -3.54926 2.41508 0
M  V30 704 C 69.4098 -4.83888 2.2514 0
M  V30 705 O 69.6328 -5.56592 1.24746 0
M  V30 706 O 68.5668 -5.13612 3.13826 0
M  V30 707 H 72.3928 -1.92452 2.34938 0
M  V30 708 H 69.9778 -0.894981 1.19626 0
M  V30 709 H 71.8598 -4.05739 1.13814 0
M  V30 710 H 70.5348 -3.2249 0.279592 0
M  V30 711 H 69.4418 -2.74112 2.54585 0
M  V30 712 H 70.7748 -3.61983 3.3351 0
M  V30 713 N 72.4269 -1.23603 -0.977757 0
M  V30 714 C 73.8429 -0.999251 -1.24447 0
M  V30 715 C 74.0429 0.298053 -1.99283 0
M  V30 716 O 73.0989 1.01681 -2.31122 0
M  V30 717 C 74.4119 -2.20784 -2.04144 0
M  V30 718 C 75.9599 -2.25303 -2.17273 0
M  V30 719 C 76.4349 -3.45755 -3.00362 0
M  V30 720 N 77.9259 -3.4601 -3.07947 0
M  V30 721 C 78.6609 -4.35868 -3.72568 0
M  V30 722 N 78.1569 -5.35966 -4.38991 0
M  V30 723 N 79.9499 -4.23605 -3.6948 0
M  V30 724 H 72.1009 -2.06986 -0.476483 0
M  V30 725 H 74.3639 -0.907801 -0.273134 0
M  V30 726 H 74.0699 -3.14945 -1.56533 0
M  V30 727 H 73.9439 -2.22085 -3.04891 0
M  V30 728 H 76.3309 -1.3168 -2.64092 0
M  V30 729 H 76.4119 -2.28033 -1.15907 0
M  V30 730 H 76.0559 -4.39687 -2.5424 0
M  V30 731 H 75.9859 -3.40266 -4.01904 0
M  V30 732 H 78.4769 -2.73588 -2.60688 0
M  V30 733 H 78.7899 -6.00783 -4.86086 0
M  V30 734 H 77.1349 -5.39863 -4.37691 0
M  V30 735 H 80.3259 -3.44647 -3.16759 0
M  V30 736 H 80.4989 -4.93836 -4.1956 0
M  V30 737 N 73.905 1.17692 -1.04816 0
M  V30 738 C 74.835 2.23777 -0.666791 0
M  V30 739 C 75.816 1.66796 0.33361 0
M  V30 740 O 77.001 1.93039 0.212042 0
M  V30 741 C 74.131 3.47281 -0.0367933 0
M  V30 742 C 73.085 4.17059 -0.961546 0
M  V30 743 C 72.411 5.34342 -0.195626 0
M  V30 744 C 73.711 4.69713 -2.28402 0
M  V30 745 H 75.405 2.55933 -1.55367 0
M  V30 746 H 72.951 1.23019 -0.748484 0
M  V30 747 H 74.904 4.20706 0.241775 0
M  V30 748 H 73.628 3.14381 0.885004 0
M  V30 749 H 72.287 3.45541 -1.22462 0
M  V30 750 H 71.935 4.97692 0.728816 0
M  V30 751 H 71.635 5.81966 -0.811775 0
M  V30 752 H 73.159 6.10553 0.0757473 0
M  V30 753 H 74.573 5.34794 -2.06563 0
M  V30 754 H 72.97 5.279 -2.8538 0
M  V30 755 H 74.04 3.86726 -2.92525 0
M  V30 756 N 75.3831 0.828654 1.34056 0
M  V30 757 C 76.6321 0.415828 1.97367 0
M  V30 758 C 76.9451 -1.02796 1.6641 0
M  V30 759 O 78.1511 -1.54497 2.23255 0
M  V30 760 C 76.6071 0.692601 3.53173 0
M  V30 761 C 76.2151 2.15038 3.93017 0
M  V30 762 C 77.9591 0.346222 4.23086 0
M  V30 763 C 75.8661 2.37174 5.41758 0
M  V30 764 H 74.7961 0.151755 0.738571 0
M  V30 765 H 77.4471 1.01581 1.52819 0
M  V30 766 H 75.8291 0.0223764 3.95994 0
M  V30 767 H 77.0031 2.86024 3.61285 0
M  V30 768 H 75.3181 2.45875 3.36057 0
M  V30 769 H 77.9151 0.48937 5.32456 0
M  V30 770 H 78.2581 -0.709842 4.10204 0
M  V30 771 H 78.7911 0.971258 3.85761 0
M  V30 772 H 75.5301 3.41308 5.59633 0
M  V30 773 H 75.0501 1.70738 5.74986 0
M  V30 774 H 76.7291 2.19818 6.08514 0
M  V30 775 N 76.8612 -1.46375 0.584142 0
M  V30 776 C 78.1092 -2.01978 0.0701287 0
M  V30 777 C 78.4302 -1.4579 -1.295 0
M  V30 778 O 77.7002 -0.64314 -1.85042 0
M  V30 779 H 76.2802 -0.746648 0.0229345 0
M  V30 780 H 78.9422 -1.79461 0.760245 0
M  V30 781 H 78.0382 -3.121 0.0022064 0
M  V30 782 N 78.3393 -0.321999 -1.54275 0
M  V30 783 C 79.6163 0.335232 -1.92706 0
M  V30 784 C 79.9963 1.70006 -1.25145 0
M  V30 785 O 79.3443 2.25067 -0.394596 0
M  V30 786 C 79.5543 0.429008 -3.46353 0
M  V30 787 C 80.9023 0.690029 -4.18956 0
M  V30 788 O 81.9263 0.511992 -3.52501 0
M  V30 789 O 80.7853 1.03338 -5.36641 0
M  V30 790 H 77.8793 0.191143 -0.804608 0
M  V30 791 H 80.4253 -0.3716 -1.65581 0
M  V30 792 H 79.1973 -0.529611 -3.87699 0
M  V30 793 H 78.8203 1.18348 -3.79578 0
M  V30 794 N 79.8174 1.5752 -0.0501392 0
M  V30 795 C 80.7804 2.1037 0.909786 0
M  V30 796 C 81.7804 1.02308 1.24056 0
M  V30 797 O 82.9704 1.28385 1.17741 0
M  V30 798 C 80.1024 2.58708 2.21998 0
M  V30 799 H 81.2954 2.96479 0.451665 0
M  V30 800 H 78.8484 1.55038 0.198248 0
M  V30 801 H 79.5834 1.75989 2.72394 0
M  V30 802 H 79.3684 3.37675 1.99295 0
M  V30 803 H 80.8584 2.99747 2.9076 0
M  V30 804 N 81.2955 -0.223234 1.56011 0
M  V30 805 C 82.2585 -1.26014 1.9145 0
M  V30 806 C 83.2585 -1.3989 0.792937 0
M  V30 807 O 84.4485 -1.38184 1.0607 0
M  V30 808 C 81.5805 -2.63422 2.16383 0
M  V30 809 H 82.7735 -0.95796 2.84189 0
M  V30 810 H 80.3265 -0.463576 1.49267 0
M  V30 811 H 81.0615 -2.98741 1.2619 0
M  V30 812 H 80.8465 -2.54728 2.98088 0
M  V30 813 H 82.3365 -3.38249 2.44903 0
M  V30 814 N 82.7736 -1.49793 -0.48987 0
M  V30 815 C 83.7206 -1.67281 -1.59014 0
M  V30 816 C 84.6906 -0.514177 -1.57941 0
M  V30 817 O 85.8756 -0.742533 -1.75759 0
M  V30 818 C 83.0156 -1.75569 -2.97102 0
M  V30 819 C 82.1286 -3.0281 -3.08107 0
M  V30 820 C 81.2636 -3.02008 -4.36995 0
M  V30 821 C 80.3026 -4.23782 -4.41673 0
M  V30 822 N 79.4396 -4.20826 -5.62005 0
M  V30 823 H 84.2796 -2.61224 -1.43409 0
M  V30 824 H 81.8166 -1.29508 -0.697565 0
M  V30 825 H 83.7746 -1.78354 -3.77155 0
M  V30 826 H 82.4046 -0.850827 -3.11385 0
M  V30 827 H 81.4566 -3.09584 -2.21047 0
M  V30 828 H 82.7686 -3.92801 -3.07423 0
M  V30 829 H 81.9226 -3.03418 -5.25378 0
M  V30 830 H 80.6616 -2.09815 -4.4026 0
M  V30 831 H 79.6666 -4.22604 -3.5169 0
M  V30 832 H 80.8916 -5.17181 -4.40115 0
M  V30 833 H 78.8376 -3.31476 -5.66091 0
M  V30 834 H 78.7546 -5.04564 -5.62984 0
M  V30 835 H 80.0226 -4.26355 -6.52565 0
M  V30 836 N 84.2517 0.741722 -1.39055 0
M  V30 837 C 85.1997 1.87702 -1.3737 0
M  V30 838 C 86.1937 1.67427 -0.257812 0
M  V30 839 O 87.3997 1.7485 -0.427489 0
M  V30 840 H 83.7747 0.617757 -0.428812 0
M  V30 841 H 85.7457 1.86239 -2.33147 0
M  V30 842 C 84.4947 3.25315 -1.22741 0
M  V30 843 H 83.8177 3.41509 -2.07873 0
M  V30 844 H 85.2577 4.04964 -1.25618 0
M  V30 845 C 83.7167 3.36838 0.0647316 0
M  V30 846 O 84.2467 3.88073 1.03741 0
M  V30 847 N 82.4527 2.90329 0.125544 0
M  V30 848 H 81.9997 2.48823 -0.666682 0
M  V30 849 H 81.9577 2.98418 0.989639 0
M  V30 850 N 85.7298 1.2412 0.971189 0
M  V30 851 C 86.6618 0.988349 2.06795 0
M  V30 852 C 87.6748 -0.0409541 1.62748 0
M  V30 853 O 88.8638 0.195673 1.77424 0
M  V30 854 C 85.9638 0.469023 3.35639 0
M  V30 855 C 85.1368 1.56065 4.08611 0
M  V30 856 C 84.1958 1.04458 5.15728 0
M  V30 857 O 83.2218 1.73553 5.42096 0
M  V30 858 N 84.4238 -0.122817 5.8037 0
M  V30 859 H 87.1888 1.93265 2.29061 0
M  V30 860 H 84.7498 1.15102 1.13856 0
M  V30 861 H 86.7418 0.108613 4.04554 0
M  V30 862 H 85.3118 -0.380919 3.1027 0
M  V30 863 H 84.5318 2.09341 3.34021 0
M  V30 864 H 85.8198 2.29449 4.54126 0
M  V30 865 H 85.2178 -0.700563 5.61345 0
M  V30 866 H 83.7748 -0.424404 6.50417 0
M  V30 867 N 87.2079 -1.17134 1.05439 0
M  V30 868 C 88.4539 -1.87733 0.767077 0
M  V30 869 C 88.7869 -1.8098 -0.704253 0
M  V30 870 O 88.0619 -1.21951 -1.5152 0
M  V30 871 C 88.3449 -3.37659 1.25133 0
M  V30 872 C 88.1979 -3.53149 2.78578 0
M  V30 873 C 89.5169 -4.31768 0.852324 0
M  V30 874 H 86.6359 -0.681687 0.280129 0
M  V30 875 H 89.2779 -1.37732 1.30881 0
M  V30 876 H 87.4279 -3.80373 0.790469 0
M  V30 877 H 89.0999 -3.19434 3.32806 0
M  V30 878 H 87.3429 -2.95345 3.17732 0
M  V30 879 H 88.0139 -4.58403 3.07523 0
M  V30 880 H 90.4899 -3.96909 1.24911 0
M  V30 881 H 89.3659 -5.35199 1.21873 0
M  V30 882 H 89.6269 -4.41429 -0.243485 0
M  V30 883 N 88.686 -0.835752 -1.33615 0
M  V30 884 C 89.649 -0.272 -2.2758 0
M  V30 885 C 90.649 0.557487 -1.50827 0
M  V30 886 O 91.839 0.37173 -1.70188 0
M  V30 887 C 88.971 0.617173 -3.35267 0
M  V30 888 H 90.164 -1.10111 -2.78954 0
M  V30 889 H 87.717 -0.608594 -1.43965 0
M  V30 890 H 88.452 1.46884 -2.89129 0
M  V30 891 H 88.237 0.0237066 -3.92093 0
M  V30 892 H 89.727 1.005 -4.05326 0
M  V30 893 N 90.1641 1.46063 -0.591896 0
M  V30 894 C 91.0971 2.27452 0.184617 0
M  V30 895 C 92.0751 1.36188 0.888351 0
M  V30 896 O 93.2591 1.65606 0.90039 0
M  V30 897 C 90.3861 3.14162 1.26571 0
M  V30 898 C 89.4321 4.21255 0.666814 0
M  V30 899 S 90.2651 5.33034 -0.513345 0
M  V30 900 C 91.4211 6.23311 0.56872 0
M  V30 901 H 91.6541 2.92963 -0.505939 0
M  V30 902 H 89.1871 1.49676 -0.379014 0
M  V30 903 H 91.1451 3.6468 1.88463 0
M  V30 904 H 89.8061 2.47946 1.92826 0
M  V30 905 H 88.9991 4.81788 1.47974 0
M  V30 906 H 88.6011 3.73797 0.123359 0
M  V30 907 H 90.8931 6.61758 1.45198 0
M  V30 908 H 91.8361 7.081 -7.23824e-05 0
M  V30 909 H 92.2441 5.57646 0.876996 0
M  V30 910 N 91.6422 0.330177 1.54103 0
M  V30 911 C 92.5902 -0.548226 2.26047 0
M  V30 912 C 93.5842 -1.11309 1.27698 0
M  V30 913 O 94.7902 -1.06036 1.45452 0
M  V30 914 H 91.1652 -0.195456 0.726155 0
M  V30 915 H 93.1362 0.0807567 2.98291 0
M  V30 916 C 91.8852 -1.69415 3.03634 0
M  V30 917 H 91.2082 -1.26876 3.79134 0
M  V30 918 H 92.6482 -2.28423 3.5721 0
M  V30 919 C 91.1072 -2.61569 2.12328 0
M  V30 920 O 91.6372 -3.63462 1.7105 0
M  V30 921 N 89.8432 -2.29952 1.77681 0
M  V30 922 H 89.3902 -1.47134 2.11446 0
M  V30 923 H 89.3482 -2.91871 1.16869 0
M  V30 924 N 93.1203 -1.57491 0.0584922 0
M  V30 925 C 94.5313 -1.80526 -0.476138 0
M  V30 926 C 94.8823 -0.971334 -1.70469 0
M  V30 927 O 94.0073 -0.190012 -2.15564 0
M  V30 928 C 94.6023 -3.27424 -0.870587 0
M  V30 929 C 93.1613 -3.51351 -1.35015 0
M  V30 930 C 92.3083 -2.75343 -0.32887 0
M  V30 931 H 95.2593 -1.56133 0.284312 0
M  V30 932 H 95.2803 -3.38745 -1.73299 0
M  V30 933 H 94.7923 -3.88093 0.0237627 0
M  V30 934 H 92.8933 -2.95971 -2.26345 0
M  V30 935 H 93.0063 -4.60059 -1.33726 0
M  V30 936 H 91.3703 -2.417 -0.803321 0
M  V30 937 H 92.1533 -3.38743 0.557521 0
M  V30 938 N 94.5984 0.214957 -1.56127 0
M  V30 939 C 95.8264 0.955092 -1.83536 0
M  V30 940 C 96.2414 1.77677 -0.638472 0
M  V30 941 O 95.5984 1.78219 0.392968 0
M  V30 942 C 95.6494 1.86734 -3.09536 0
M  V30 943 O 95.3704 1.07887 -4.24608 0
M  V30 944 C 96.8714 2.72082 -3.4998 0
M  V30 945 H 94.0914 0.279611 -0.609966 0
M  V30 946 H 96.6354 0.228197 -2.03223 0
M  V30 947 H 94.7904 2.5481 -2.91806 0
M  V30 948 H 95.2044 1.69872 -4.9623 0
M  V30 949 H 96.6784 3.31782 -4.41163 0
M  V30 950 H 97.1554 3.44806 -2.7204 0
M  V30 951 H 97.7614 2.09409 -3.70173 0
M  V30 952 N 96.0765 1.50051 0.48192 0
M  V30 953 C 97.0245 1.68635 1.60203 0
M  V30 954 C 98.0185 0.552184 1.60148 0
M  V30 955 O 99.2245 0.732377 1.64427 0
M  V30 956 H 95.5995 0.532081 0.531407 0
M  V30 957 H 97.5705 2.62616 1.41688 0
M  V30 958 C 96.3195 1.78775 2.9822 0
M  V30 959 H 95.6425 2.6543 2.98976 0
M  V30 960 H 97.0825 1.95806 3.7608 0
M  V30 961 C 95.5415 0.536849 3.32595 0
M  V30 962 O 96.0715 -0.328897 4.00351 0
M  V30 963 N 94.2775 0.394091 2.87915 0
M  V30 964 H 93.8245 1.09962 2.32951 0
M  V30 965 H 93.7825 -0.441737 3.11281 0
M  V30 966 N 97.5546 -0.734337 1.39446 0
M  V30 967 C 98.7826 -1.52358 1.39981 0
M  V30 968 C 99.1976 -1.88799 -0.0054975 0
M  V30 969 O 98.5546 -1.54146 -0.976998 0
M  V30 970 C 98.6056 -2.81072 2.27333 0
M  V30 971 O 98.3266 -2.46178 3.62392 0
M  V30 972 C 99.8276 -3.75096 2.36259 0
M  V30 973 H 97.0476 -0.470806 0.478103 0
M  V30 974 H 99.5916 -0.907339 1.83269 0
M  V30 975 H 97.7466 -3.39026 1.87457 0
M  V30 976 H 98.1606 -3.28866 4.08592 0
M  V30 977 H 99.6346 -4.62305 3.01626 0
M  V30 978 H 100.112 -4.16892 1.38194 0
M  V30 979 H 100.718 -3.23061 2.76608 0
M  V30 980 N 99.0327 -1.24633 -0.964593 0
M  V30 981 C 100.282 -1.08188 -1.7023 0
M  V30 982 C 100.595 0.37873 -1.91898 0
M  V30 983 O 101.801 0.663427 -2.6327 0
M  V30 984 C 100.257 -1.88773 -3.06419 0
M  V30 985 C 99.8647 -3.39263 -2.92582 0
M  V30 986 C 101.609 -1.80867 -3.84041 0
M  V30 987 C 99.5157 -4.1218 -4.24101 0
M  V30 988 H 98.4457 -0.401245 -0.638372 0
M  V30 989 H 101.097 -1.48742 -1.07462 0
M  V30 990 H 99.4787 -1.41035 -3.70034 0
M  V30 991 H 100.653 -3.94603 -2.37961 0
M  V30 992 H 98.9677 -3.48154 -2.28424 0
M  V30 993 H 101.565 -2.32646 -4.81435 0
M  V30 994 H 101.908 -0.774543 -4.09031 0
M  V30 995 H 102.441 -2.26301 -3.27159 0
M  V30 996 H 99.1797 -5.15965 -4.04303 0
M  V30 997 H 98.6997 -3.61626 -4.78526 0
M  V30 998 H 100.379 -4.19349 -4.92702 0
M  V30 999 N 100.511 1.16574 -1.06058 0
M  V30 1000 C 101.758 1.87047 -0.775873 0
M  V30 1001 C 102.086 1.81562 0.697534 0
M  V30 1002 O 101.341 1.22445 1.52662 0
M  V30 1003 C 101.64 3.36195 -1.21275 0
M  V30 1004 C 101.306 3.6188 -2.68986 0
M  V30 1005 C 99.9678 3.68599 -3.09335 0
M  V30 1006 C 102.32 3.72648 -3.64394 0
M  V30 1007 C 99.6478 3.83584 -4.43937 0
M  V30 1008 C 102 3.89154 -4.98741 0
M  V30 1009 C 100.664 3.94114 -5.3873 0
M  V30 1010 H 99.9338 0.684452 -0.283912 0
M  V30 1011 H 102.581 1.37853 -1.32925 0
M  V30 1012 H 100.886 3.87505 -0.578528 0
M  V30 1013 H 102.583 3.89103 -0.969542 0
M  V30 1014 H 99.1728 3.57281 -2.36744 0
M  V30 1015 H 103.357 3.66769 -3.34356 0
M  V30 1016 H 98.6128 3.85677 -4.74409 0
M  V30 1017 H 102.787 3.96427 -5.72554 0
M  V30 1018 H 100.414 4.05478 -6.43033 0
M  V30 1019 N 101.989 0.842826 1.3317 0
M  V30 1020 C 103.266 0.362216 1.92217 0
M  V30 1021 C 103.646 -1.15289 1.76838 0
M  V30 1022 O 102.994 -1.96914 1.15919 0
M  V30 1023 C 103.204 0.813495 3.39387 0
M  V30 1024 C 104.552 0.823804 4.16532 0
M  V30 1025 O 105.576 0.757358 3.48055 0
M  V30 1026 O 104.435 0.915193 5.38782 0
M  V30 1027 H 101.529 0.103317 0.820521 0
M  V30 1028 H 104.075 0.928942 1.42017 0
M  V30 1029 H 102.847 1.85624 3.4447 0
M  V30 1030 H 102.47 0.223561 3.96971 0
M  V30 1031 N 103.467 -1.45747 0.599634 0
M  V30 1032 C 104.43 -2.28917 -0.113835 0
M  V30 1033 C 105.43 -1.3933 -0.802729 0
M  V30 1034 O 106.62 -1.61534 -0.652103 0
M  V30 1035 C 103.752 -3.20152 -1.17114 0
M  V30 1036 H 104.945 -2.93478 0.617289 0
M  V30 1037 H 102.498 -1.52137 0.358327 0
M  V30 1038 H 103.233 -2.60374 -1.93329 0
M  V30 1039 H 103.018 -3.86133 -0.681468 0
M  V30 1040 H 104.508 -3.82708 -1.67105 0
M  V30 1041 N 104.945 -0.338344 -1.53925 0
M  V30 1042 C 105.892 0.520845 -2.24846 0
M  V30 1043 C 106.862 1.09976 -1.24477 0
M  V30 1044 O 108.047 1.13735 -1.53196 0
M  V30 1045 C 105.187 1.6685 -3.02084 0
M  V30 1046 C 104.3 1.11739 -4.17299 0
M  V30 1047 C 103.435 2.23193 -4.82036 0
M  V30 1048 C 102.474 1.65407 -5.89328 0
M  V30 1049 N 101.611 2.70582 -6.47866 0
M  V30 1050 H 106.451 -0.0904881 -2.97863 0
M  V30 1051 H 103.988 -0.0564282 -1.46992 0
M  V30 1052 H 105.946 2.34407 -3.45122 0
M  V30 1053 H 104.576 2.2509 -2.31375 0
M  V30 1054 H 103.628 0.332919 -3.7894 0
M  V30 1055 H 104.94 0.654677 -4.94485 0
M  V30 1056 H 104.094 2.98626 -5.28117 0
M  V30 1057 H 102.833 2.72807 -4.04262 0
M  V30 1058 H 101.838 0.884779 -5.42634 0
M  V30 1059 H 103.063 1.16652 -6.69006 0
M  V30 1060 H 101.009 3.1946 -5.72959 0
M  V30 1061 H 100.926 2.28917 -7.20509 0
M  V30 1062 H 102.194 3.45799 -6.98601 0
M  V30 1063 N 106.423 1.57458 -0.0668435 0
M  V30 1064 C 107.839 1.56947 0.289772 0
M  V30 1065 C 108.039 1.07584 1.70376 0
M  V30 1066 O 107.095 0.739486 2.41429 0
M  V30 1067 C 108.408 3.0052 0.103943 0
M  V30 1068 C 109.956 3.12517 0.173857 0
M  V30 1069 C 110.431 4.57997 0.0163682 0
M  V30 1070 N 111.922 4.63144 0.0721352 0
M  V30 1071 C 112.657 5.73394 -0.0253794 0
M  V30 1072 N 112.153 6.92576 -0.176133 0
M  V30 1073 N 113.946 5.62091 0.0313305 0
M  V30 1074 H 106.097 1.87863 -0.991027 0
M  V30 1075 H 108.36 0.86583 -0.38606 0
M  V30 1076 H 108.066 3.40729 -0.871572 0
M  V30 1077 H 107.94 3.67304 0.858366 0
M  V30 1078 H 110.327 2.72197 1.13985 0
M  V30 1079 H 110.408 2.48381 -0.611586 0
M  V30 1080 H 110.052 4.99005 -0.946374 0
M  V30 1081 H 109.982 5.20158 0.821153 0
M  V30 1082 H 112.473 3.77436 0.187263 0
M  V30 1083 H 112.786 7.72418 -0.242821 0
M  V30 1084 H 111.131 6.94678 -0.211429 0
M  V30 1085 H 114.322 4.67867 0.147773 0
M  V30 1086 H 114.495 6.47982 -0.048121 0
M  V30 1087 N 107.901 -0.206675 1.56239 0
M  V30 1088 C 108.831 -1.25909 1.96645 0
M  V30 1089 C 109.812 -1.48097 0.836734 0
M  V30 1090 O 110.997 -1.6003 1.10019 0
M  V30 1091 C 108.127 -2.6058 2.29599 0
M  V30 1092 C 107.081 -2.53024 3.452 0
M  V30 1093 C 106.407 -3.91861 3.63798 0
M  V30 1094 C 107.707 -2.06524 4.79734 0
M  V30 1095 H 109.401 -0.923369 2.84806 0
M  V30 1096 H 106.947 -0.442735 1.37025 0
M  V30 1097 H 108.9 -3.34375 2.56459 0
M  V30 1098 H 107.624 -2.95869 1.38307 0
M  V30 1099 H 106.283 -1.81684 3.18412 0
M  V30 1100 H 105.931 -4.24483 2.69857 0
M  V30 1101 H 105.631 -3.87683 4.4156 0
M  V30 1102 H 107.155 -4.67296 3.93022 0
M  V30 1103 H 108.569 -2.70072 5.05702 0
M  V30 1104 H 106.966 -2.13374 5.60885 0
M  V30 1105 H 108.036 -1.01802 4.74093 0
M  V30 1106 N 109.379 -1.50304 -0.473955 0
M  V30 1107 C 110.628 -1.60392 -1.22301 0
M  V30 1108 C 110.941 -0.308411 -1.93153 0
M  V30 1109 O 112.147 -0.288156 -2.69966 0
M  V30 1110 C 110.603 -2.83109 -2.2221 0
M  V30 1111 C 110.211 -4.19524 -1.57173 0
M  V30 1112 C 111.955 -3.0254 -2.97775 0
M  V30 1113 C 109.862 -5.33431 -2.55353 0
M  V30 1114 H 108.792 -0.597286 -0.460179 0
M  V30 1115 H 111.443 -1.76731 -0.493803 0
M  V30 1116 H 109.825 -2.60322 -2.9841 0
M  V30 1117 H 110.999 -4.52554 -0.867824 0
M  V30 1118 H 109.314 -4.05674 -0.939002 0
M  V30 1119 H 111.911 -3.84811 -3.71248 0
M  V30 1120 H 112.254 -2.14154 -3.56992 0
M  V30 1121 H 112.787 -3.25494 -2.28688 0
M  V30 1122 H 109.526 -6.23962 -2.00878 0
M  V30 1123 H 109.046 -5.04823 -3.23904 0
M  V30 1124 H 110.725 -5.63887 -3.17239 0
M  V30 1125 N 110.857 0.726932 -1.39834 0
M  V30 1126 C 112.105 1.4837 -1.37225 0
M  V30 1127 C 112.426 1.94979 0.0284857 0
M  V30 1128 O 111.696 1.69555 0.981213 0
M  V30 1129 H 110.276 0.55043 -0.505011 0
M  V30 1130 H 112.938 0.862468 -1.74778 0
M  V30 1131 H 112.034 2.36198 -2.04003 0
M  V30 1132 N 112.336 1.25143 0.95797 0
M  V30 1133 C 113.752 1.01892 1.22842 0
M  V30 1134 C 113.952 -0.266311 1.99732 0
M  V30 1135 O 113.008 -0.979913 2.3271 0
M  V30 1136 C 114.321 2.24004 2.00606 0
M  V30 1137 C 115.869 2.28731 2.13662 0
M  V30 1138 C 116.344 3.5049 2.94823 0
M  V30 1139 N 117.835 3.50866 3.02403 0
M  V30 1140 C 118.57 4.4174 3.65586 0
M  V30 1141 N 118.066 5.42882 4.30408 0
M  V30 1142 N 119.859 4.29429 3.62694 0
M  V30 1143 H 112.01 2.07718 0.443493 0
M  V30 1144 H 114.273 0.912031 0.258657 0
M  V30 1145 H 113.979 3.17395 1.51503 0
M  V30 1146 H 113.853 2.26907 3.01319 0
M  V30 1147 H 116.24 1.35865 2.61963 0
M  V30 1148 H 116.321 2.29848 1.12265 0
M  V30 1149 H 115.965 4.43676 2.47213 0
M  V30 1150 H 115.895 3.46617 3.96439 0
M  V30 1151 H 118.386 2.777 2.56302 0
M  V30 1152 H 118.699 6.0844 4.76467 0
M  V30 1153 H 117.044 5.46758 4.29047 0
M  V30 1154 H 120.235 3.49643 3.11236 0
M  V30 1155 H 120.408 5.00448 4.1165 0
M  V30 1156 N 113.814 -1.1601 1.06675 0
M  V30 1157 C 114.761 -2.20525 0.680967 0
M  V30 1158 C 115.731 -1.62904 -0.324283 0
M  V30 1159 O 116.916 -1.89615 -0.212294 0
M  V30 1160 C 114.056 -3.45013 0.0776551 0
M  V30 1161 C 113.169 -4.16863 1.13355 0
M  V30 1162 C 112.304 -5.2888 0.49597 0
M  V30 1163 C 111.343 -5.92537 1.53513 0
M  V30 1164 N 110.48 -6.96038 0.920631 0
M  V30 1165 H 115.32 -2.52876 1.57663 0
M  V30 1166 H 112.857 -1.24199 0.788223 0
M  V30 1167 H 114.815 -4.16193 -0.289704 0
M  V30 1168 H 113.445 -3.132 -0.781393 0
M  V30 1169 H 112.497 -3.44248 1.61857 0
M  V30 1170 H 113.809 -4.60294 1.92174 0
M  V30 1171 H 112.963 -6.06653 0.0758604 0
M  V30 1172 H 111.702 -4.86622 -0.324062 0
M  V30 1173 H 110.707 -5.13482 1.9651 0
M  V30 1174 H 111.932 -6.36873 2.35733 0
M  V30 1175 H 109.878 -6.55888 0.12138 0
M  V30 1176 H 109.795 -7.3786 1.64616 0
M  V30 1177 H 111.063 -7.77725 0.525795 0
M  V30 1178 N 115.292 -0.849877 -1.32721 0
M  V30 1179 C 116.539 -0.450923 -1.97416 0
M  V30 1180 C 116.867 0.992376 -1.67279 0
M  V30 1181 O 116.122 1.71048 -0.950845 0
M  V30 1182 C 116.421 -0.631272 -3.51781 0
M  V30 1183 C 116.087 -2.04432 -4.01894 0
M  V30 1184 C 114.749 -2.4308 -4.1529 0
M  V30 1185 C 117.101 -2.96679 -4.28522 0
M  V30 1186 C 114.429 -3.73257 -4.52654 0
M  V30 1187 C 116.781 -4.26349 -4.67343 0
M  V30 1188 C 115.445 -4.64939 -4.78945 0
M  V30 1189 H 114.715 -0.165004 -0.722395 0
M  V30 1190 H 117.362 -1.07901 -1.58207 0
M  V30 1191 H 115.667 0.0800767 -3.91718 0
M  V30 1192 H 117.364 -0.302709 -3.99856 0
M  V30 1193 H 113.954 -1.73419 -3.91949 0
M  V30 1194 H 118.138 -2.68054 -4.17685 0
M  V30 1195 H 113.394 -4.02946 -4.59831 0
M  V30 1196 H 117.568 -4.97895 -4.86902 0
M  V30 1197 H 115.195 -5.65855 -5.07654 0
M  V30 1198 N 116.77 1.45427 -0.607355 0
M  V30 1199 C 117.68 2.34325 0.113463 0
M  V30 1200 C 118.696 1.51226 0.860617 0
M  V30 1201 O 119.872 1.84029 0.818255 0
M  V30 1202 C 116.937 3.28839 1.09844 0
M  V30 1203 C 115.998 4.27844 0.353271 0
M  V30 1204 C 115.231 5.17842 1.29133 0
M  V30 1205 O 115.454 5.11264 2.52913 0
M  V30 1206 O 114.388 5.96713 0.788523 0
M  V30 1207 H 118.214 2.97364 -0.617094 0
M  V30 1208 H 115.799 1.44807 -0.367619 0
M  V30 1209 H 117.681 3.8708 1.66575 0
M  V30 1210 H 116.356 2.68365 1.81003 0
M  V30 1211 H 115.263 3.7322 -0.256494 0
M  V30 1212 H 116.596 4.91173 -0.317822 0
M  V30 1213 N 118.248 0.346503 1.53744 0
M  V30 1214 C 119.525 -0.304532 1.93215 0
M  V30 1215 C 119.905 -1.67993 1.27834 0
M  V30 1216 O 119.253 -2.24411 0.430352 0
M  V30 1217 C 119.463 -0.373852 3.46992 0
M  V30 1218 C 120.811 -0.62329 4.2 0
M  V30 1219 O 121.835 -0.455847 3.53271 0
M  V30 1220 O 120.694 -0.947879 5.38217 0
M  V30 1221 H 117.788 -0.178318 0.807547 0
M  V30 1222 H 120.334 0.397895 1.64969 0
M  V30 1223 H 119.106 0.591224 3.86808 0
M  V30 1224 H 118.729 -1.12294 3.81413 0
M  V30 1225 N 119.726 -1.57421 0.075193 0
M  V30 1226 C 120.689 -2.11791 -0.876203 0
M  V30 1227 C 121.689 -1.04268 -1.22412 0
M  V30 1228 O 122.879 -1.30242 -1.15684 0
M  V30 1229 C 120.011 -2.62207 -2.17854 0
M  V30 1230 H 121.204 -2.9716 -0.40444 0
M  V30 1231 H 118.757 -1.55333 -0.173557 0
M  V30 1232 H 119.492 -1.803 -2.6956 0
M  V30 1233 H 119.277 -3.40802 -1.93897 0
M  V30 1234 H 120.767 -3.04335 -2.85955 0
M  V30 1235 N 121.204 0.198386 -1.56346 0
M  V30 1236 C 122.432 0.935572 -1.84539 0
M  V30 1237 C 122.847 1.76989 -0.657281 0
M  V30 1238 O 122.204 1.78626 0.374043 0
M  V30 1239 C 122.255 1.8344 -3.11499 0
M  V30 1240 O 121.976 1.03377 -4.25728 0
M  V30 1241 C 123.477 2.68355 -3.52846 0
M  V30 1242 H 120.697 0.273126 -0.612897 0
M  V30 1243 H 123.241 0.20663 -2.03453 0
M  V30 1244 H 121.396 2.51701 -2.94492 0
M  V30 1245 H 121.81 1.64599 -4.98003 0
M  V30 1246 H 123.284 3.27085 -4.44657 0
M  V30 1247 H 123.761 3.41901 -2.75681 0
M  V30 1248 H 124.367 2.05471 -3.72373 0
M  V30 1249 N 122.682 1.50554 0.465978 0
M  V30 1250 C 123.928 1.62038 1.21949 0
M  V30 1251 C 124.261 0.322116 1.9151 0
M  V30 1252 O 123.536 -0.676723 1.82348 0
M  V30 1253 C 123.819 2.80421 2.25912 0
M  V30 1254 C 123.672 4.20144 1.60622 0
M  V30 1255 C 124.991 2.94354 3.27176 0
M  V30 1256 H 122.11 0.589752 0.441998 0
M  V30 1257 H 124.752 1.82956 0.51257 0
M  V30 1258 H 122.902 2.62717 2.86203 0
M  V30 1259 H 124.574 4.49449 1.03889 0
M  V30 1260 H 122.817 4.24165 0.909211 0
M  V30 1261 H 123.488 4.98914 2.36196 0
M  V30 1262 H 125.964 3.10578 2.76913 0
M  V30 1263 H 124.84 3.788 3.97242 0
M  V30 1264 H 125.101 2.05186 3.916 0
M  V30 1265 N 124.16 -0.719506 1.40217 0
M  V30 1266 C 125.092 -1.84428 1.36084 0
M  V30 1267 C 126.105 -1.60597 0.266913 0
M  V30 1268 O 127.294 -1.70544 0.526983 0
M  V30 1269 C 124.394 -3.20757 1.094 0
M  V30 1270 C 123.567 -3.71817 2.30372 0
M  V30 1271 C 122.626 -4.86748 1.99907 0
M  V30 1272 O 121.652 -4.99603 2.72737 0
M  V30 1273 N 122.854 -5.7226 0.974635 0
M  V30 1274 H 125.619 -1.88473 2.33019 0
M  V30 1275 H 123.18 -0.900885 1.3452 0
M  V30 1276 H 125.172 -3.95235 0.870116 0
M  V30 1277 H 123.742 -3.11884 0.211452 0
M  V30 1278 H 122.962 -2.88514 2.68614 0
M  V30 1279 H 124.25 -4.02666 3.11026 0
M  V30 1280 H 123.648 -5.6448 0.371368 0
M  V30 1281 H 122.205 -6.46739 0.810656 0
M  V30 1282 N 125.638 -1.25649 -0.95132 0
M  V30 1283 C 126.863 -1.13443 -1.73624 0
M  V30 1284 C 127.288 0.307565 -1.85568 0
M  V30 1285 O 126.646 1.22282 -1.33854 0
M  V30 1286 C 126.694 -1.79723 -3.12621 0
M  V30 1287 O 125.798 -1.07912 -3.98031 0
M  V30 1288 H 125.139 -0.395872 -0.533086 0
M  V30 1289 H 127.669 -1.66276 -1.1922 0
M  V30 1290 H 127.679 -1.86141 -3.63064 0
M  V30 1291 H 126.354 -2.84633 -3.03244 0
M  V30 1292 H 124.931 -1.09398 -3.56492 0
M  V30 1293 N 127.117 1.15442 -1.07289 0
M  V30 1294 C 128.394 1.82306 -0.708792 0
M  V30 1295 C 128.774 1.94991 0.808807 0
M  V30 1296 O 128.122 1.50085 1.72298 0
M  V30 1297 C 128.332 3.18695 -1.42247 0
M  V30 1298 C 129.68 3.94341 -1.57417 0
M  V30 1299 O 130.704 3.28247 -1.38319 0
M  V30 1300 O 129.563 5.12839 -1.88834 0
M  V30 1301 H 126.657 0.787628 -0.252132 0
M  V30 1302 H 129.203 1.22559 -1.17377 0
M  V30 1303 H 127.975 3.04557 -2.45684 0
M  V30 1304 H 127.598 3.86128 -0.948223 0
M  V30 1305 N 128.595 0.856903 1.32268 0
M  V30 1306 C 129.528 0.247937 2.26849 0
M  V30 1307 C 130.506 -0.615382 1.50505 0
M  V30 1308 O 131.69 -0.571689 1.79622 0
M  V30 1309 C 128.817 -0.650093 3.32403 0
M  V30 1310 C 127.863 0.140138 4.2627 0
M  V30 1311 S 128.696 1.51004 5.13769 0
M  V30 1312 C 129.852 0.61778 6.22844 0
M  V30 1313 H 130.085 1.04971 2.78152 0
M  V30 1314 H 127.618 0.654665 1.39834 0
M  V30 1315 H 129.576 -1.16256 3.93694 0
M  V30 1316 H 128.237 -1.4257 2.7988 0
M  V30 1317 H 127.43 -0.543945 5.01056 0
M  V30 1318 H 127.032 0.584267 3.69408 0
M  V30 1319 H 129.324 -0.177053 6.77269 0
M  V30 1320 H 130.267 1.33636 6.95375 0
M  V30 1321 H 130.675 0.191124 5.64176 0
M  V30 1322 N 130.073 -1.45103 0.615059 0
M  V30 1323 C 131.02 -2.30586 -0.0993978 0
M  V30 1324 C 131.99 -1.42544 -0.852669 0
M  V30 1325 O 133.175 -1.71465 -0.836917 0
M  V30 1326 C 130.315 -3.27572 -1.08583 0
M  V30 1327 C 129.428 -4.30717 -0.332656 0
M  V30 1328 C 128.563 -5.14807 -1.30947 0
M  V30 1329 C 127.602 -6.09673 -0.544538 0
M  V30 1330 N 126.739 -6.86517 -1.47101 0
M  V30 1331 H 131.579 -2.91144 0.635542 0
M  V30 1332 H 129.116 -1.4346 0.325206 0
M  V30 1333 H 131.074 -3.82276 -1.67095 0
M  V30 1334 H 129.704 -2.68751 -1.78809 0
M  V30 1335 H 128.756 -3.78615 0.368107 0
M  V30 1336 H 130.068 -4.98102 0.263842 0
M  V30 1337 H 129.222 -5.73948 -1.96643 0
M  V30 1338 H 127.961 -4.47458 -1.9399 0
M  V30 1339 H 126.966 -5.49656 0.126003 0
M  V30 1340 H 128.191 -6.79052 0.080947 0
M  V30 1341 H 126.137 -6.21851 -2.08895 0
M  V30 1342 H 126.054 -7.50281 -0.928137 0
M  V30 1343 H 127.322 -7.50194 -2.11731 0
M  V30 1344 N 131.551 -0.354651 -1.53558 0
M  V30 1345 C 132.501 0.513179 -2.2215 0
M  V30 1346 C 133.485 1.05734 -1.21281 0
M  V30 1347 O 134.677 0.989202 -1.46778 0
M  V30 1348 C 131.806 1.65798 -3.00609 0
M  V30 1349 C 130.892 1.12722 -4.08845 0
M  V30 1350 N 131.283 0.318563 -5.04796 0
M  V30 1351 C 129.581 1.40307 -4.23356 0
M  V30 1352 C 130.282 0.0292224 -5.81693 0
M  V30 1353 N 129.258 0.623891 -5.40008 0
M  V30 1354 H 133.06 -0.111586 -2.93688 0
M  V30 1355 H 130.574 -0.162091 -1.61589 0
M  V30 1356 H 132.571 2.29176 -3.48258 0
M  V30 1357 H 131.231 2.28591 -2.306 0
M  V30 1358 H 132.242 -0.0413091 -5.17884 0
M  V30 1359 H 128.919 2.03458 -3.6457 0
M  V30 1360 H 130.309 -0.623808 -6.68998 0
M  V30 1361 N 133.029 1.57378 -0.0835403 0
M  V30 1362 C 134.275 1.95025 0.577664 0
M  V30 1363 C 134.63 0.964049 1.66505 0
M  V30 1364 O 133.923 -0.0118235 1.91596 0
M  V30 1365 C 134.117 3.37063 1.1884 0
M  V30 1366 C 133.946 4.49409 0.16171 0
M  V30 1367 C 132.716 5.04642 -0.257756 0
M  V30 1368 C 134.914 5.10722 -0.605634 0
M  V30 1369 N 132.896 6.00537 -1.27393 0
M  V30 1370 C 134.267 6.02225 -1.47395 0
M  V30 1371 C 136.322 4.93501 -0.660418 0
M  V30 1372 C 135.025 6.78355 -2.39221 0
M  V30 1373 C 137.051 5.70283 -1.56623 0
M  V30 1374 C 136.413 6.61444 -2.4222 0
M  V30 1375 H 132.512 0.760512 0.182058 0
M  V30 1376 H 135.096 1.94013 -0.163419 0
M  V30 1377 H 133.267 3.3879 1.89936 0
M  V30 1378 H 134.999 3.61917 1.81103 0
M  V30 1379 H 131.754 4.73428 0.127702 0
M  V30 1380 H 132.178 6.53184 -1.77987 0
M  V30 1381 H 136.82 4.22798 -0.0128221 0
M  V30 1382 H 134.538 7.48327 -3.05011 0
M  V30 1383 H 138.124 5.58976 -1.61361 0
M  V30 1384 H 137.004 7.1982 -3.11174 0
M  V30 1385 N 134.507 -0.190092 1.56449 0
M  V30 1386 C 135.918 -0.754312 1.70784 0
M  V30 1387 C 136.269 -1.83631 0.690951 0
M  V30 1388 O 135.394 -2.15868 -0.151604 0
M  V30 1389 C 135.989 -1.37503 3.09642 0
M  V30 1390 C 134.548 -1.88628 3.25725 0
M  V30 1391 C 133.695 -0.758098 2.66736 0
M  V30 1392 H 136.646 0.0350524 1.58661 0
M  V30 1393 H 136.667 -2.2445 3.0725 0
M  V30 1394 H 136.179 -0.587302 3.83631 0
M  V30 1395 H 134.28 -2.70103 2.56661 0
M  V30 1396 H 134.393 -2.04462 4.3328 0
M  V30 1397 H 132.757 -1.17369 2.26046 0
M  V30 1398 H 133.54 0.0174705 3.43296 0
M  V30 1399 N 135.985 -1.50799 -0.457987 0
M  V30 1400 C 137.232 -1.62442 -1.20908 0
M  V30 1401 C 137.56 -0.330865 -1.91665 0
M  V30 1402 O 136.815 0.68401 -1.83357 0
M  V30 1403 C 137.114 -2.76358 -2.2663 0
M  V30 1404 C 136.78 -4.16378 -1.73033 0
M  V30 1405 C 135.442 -4.54473 -1.58138 0
M  V30 1406 C 137.794 -5.03836 -1.33413 0
M  V30 1407 C 135.122 -5.77754 -1.02065 0
M  V30 1408 C 137.474 -6.27676 -0.78778 0
M  V30 1409 C 136.138 -6.64562 -0.625561 0
M  V30 1410 H 135.408 -0.594417 -0.442435 0
M  V30 1411 H 138.055 -1.84772 -0.503136 0
M  V30 1412 H 136.36 -2.48167 -3.03184 0
M  V30 1413 H 138.057 -2.82568 -2.84528 0
M  V30 1414 H 134.647 -3.86331 -1.85598 0
M  V30 1415 H 138.831 -4.75026 -1.4375 0
M  V30 1416 H 134.087 -6.04997 -0.882547 0
M  V30 1417 H 138.261 -6.94797 -0.472177 0
M  V30 1418 H 135.888 -7.59965 -0.188926 0
M  V30 1419 N 137.463 0.71206 -1.40597 0
M  V30 1420 C 138.879 1.02058 -1.22704 0
M  V30 1421 C 139.079 2.01228 -0.104729 0
M  V30 1422 O 138.135 2.4674 0.53624 0
M  V30 1423 C 139.448 1.56094 -2.57012 0
M  V30 1424 C 140.996 1.6806 -2.64054 0
M  V30 1425 C 141.471 2.25501 -3.9864 0
M  V30 1426 N 142.962 2.32882 -4.004 0
M  V30 1427 C 143.697 2.78317 -5.01325 0
M  V30 1428 N 143.193 3.23478 -6.12645 0
M  V30 1429 N 144.986 2.77733 -4.88693 0
M  V30 1430 H 137.137 0.0547896 -2.12329 0
M  V30 1431 H 139.4 0.0869027 -0.944008 0
M  V30 1432 H 139.106 0.906865 -3.39807 0
M  V30 1433 H 138.98 2.54564 -2.78347 0
M  V30 1434 H 141.367 2.32583 -1.81629 0
M  V30 1435 H 141.448 0.681802 -2.46546 0
M  V30 1436 H 141.092 1.61598 -4.81506 0
M  V30 1437 H 141.022 3.26102 -4.13479 0
M  V30 1438 H 143.513 2.00991 -3.20017 0
M  V30 1439 H 143.826 3.56725 -6.85542 0
M  V30 1440 H 142.171 3.21429 -6.16205 0
M  V30 1441 H 145.362 2.4179 -4.00818 0
M  V30 1442 H 145.535 3.12826 -5.67489 0
M  V30 1443 N 138.941 1.26152 0.944643 0
M  V30 1444 C 140.187 1.11657 1.69294 0
M  V30 1445 C 140.52 -0.339926 1.91202 0
M  V30 1446 O 139.795 -1.24994 1.49019 0
M  V30 1447 C 140.078 1.88236 3.06984 0
M  V30 1448 C 139.931 3.41772 2.92424 0
M  V30 1449 C 141.25 1.67343 4.07043 0
M  V30 1450 H 138.369 0.407004 0.614424 0
M  V30 1451 H 141.011 1.55106 1.09737 0
M  V30 1452 H 139.161 1.51308 3.57824 0
M  V30 1453 H 140.833 3.88433 2.48832 0
M  V30 1454 H 139.076 3.68974 2.28124 0
M  V30 1455 H 139.747 3.90579 3.90067 0
M  V30 1456 H 142.223 1.99509 3.65151 0
M  V30 1457 H 141.099 2.23346 5.01406 0
M  V30 1458 H 141.36 0.617158 4.37771 0
M  V30 1459 N 140.419 -1.14872 1.07899 0
M  V30 1460 C 141.665 -1.86064 0.806725 0
M  V30 1461 C 141.998 -1.82434 -0.665706 0
M  V30 1462 O 141.273 -1.25138 -1.48899 0
M  V30 1463 C 141.556 -3.34929 1.32267 0
M  V30 1464 C 141.409 -3.47161 2.86006 0
M  V30 1465 C 142.728 -4.29863 0.943717 0
M  V30 1466 H 139.847 -0.675591 0.294526 0
M  V30 1467 H 142.489 -1.34925 1.33773 0
M  V30 1468 H 140.639 -3.78611 0.870974 0
M  V30 1469 H 142.311 -3.12302 3.39507 0
M  V30 1470 H 140.554 -2.88539 3.23925 0
M  V30 1471 H 141.225 -4.51777 3.17177 0
M  V30 1472 H 143.701 -3.9417 1.33302 0
M  V30 1473 H 142.577 -5.32494 1.33198 0
M  V30 1474 H 142.838 -4.41846 -0.149796 0
M  V30 1475 N 141.898 -0.863906 -1.31812 0
M  V30 1476 C 143.123 -0.48527 -2.01643 0
M  V30 1477 C 143.548 0.913058 -1.64453 0
M  V30 1478 O 142.906 1.6014 -0.849985 0
M  V30 1479 C 142.954 -0.642625 -3.54828 0
M  V30 1480 O 142.058 0.320659 -4.11151 0
M  V30 1481 H 141.399 -0.193793 -0.635091 0
M  V30 1482 H 143.929 -1.16565 -1.68148 0
M  V30 1483 H 143.939 -0.533628 -4.04495 0
M  V30 1484 H 142.614 -1.66227 -3.81237 0
M  V30 1485 H 141.191 0.167126 -3.72525 0
M  V30 1486 N 143.376 1.44774 -0.622745 0
M  V30 1487 C 144.286 2.34433 0.0886031 0
M  V30 1488 C 145.302 1.52131 0.844529 0
M  V30 1489 O 146.478 1.84886 0.798691 0
M  V30 1490 C 143.543 3.29986 1.0635 0
M  V30 1491 C 142.604 4.28195 0.307873 0
M  V30 1492 C 141.837 5.19183 1.23633 0
M  V30 1493 O 142.06 5.13918 2.47476 0
M  V30 1494 O 140.994 5.97515 0.725189 0
M  V30 1495 H 144.82 2.96693 -0.648599 0
M  V30 1496 H 142.405 1.44408 -0.382957 0
M  V30 1497 H 144.287 3.88825 1.6246 0
M  V30 1498 H 142.962 2.70269 1.78146 0
M  V30 1499 H 141.869 3.72927 -0.296064 0
M  V30 1500 H 143.202 4.90808 -0.3699 0
M  V30 1501 N 144.854 0.36279 1.53368 0
M  V30 1502 C 146.102 -0.227326 2.00817 0
M  V30 1503 C 146.423 -1.49511 1.25186 0
M  V30 1504 O 145.693 -1.92482 0.364348 0
M  V30 1505 H 144.273 -0.0869923 0.741917 0
M  V30 1506 H 146.935 0.488381 1.88682 0
M  V30 1507 H 146.031 -0.456273 3.08747 0
M  V30 1508 N 146.332 -1.57332 0.0918853 0
M  V30 1509 C 147.58 -1.93853 -0.571446 0
M  V30 1510 C 147.901 -0.974212 -1.6892 0
M  V30 1511 O 147.171 -0.0257254 -1.95883 0
M  V30 1512 H 145.751 -0.715666 -0.214082 0
M  V30 1513 H 148.413 -1.94287 0.154464 0
M  V30 1514 H 147.509 -2.96191 -0.983729 0
M  V30 1515 N 147.81 0.181792 -1.56548 0
M  V30 1516 C 148.757 1.22521 -1.95595 0
M  V30 1517 C 149.727 1.4454 -0.818373 0
M  V30 1518 O 150.912 1.57454 -1.07763 0
M  V30 1519 C 148.052 2.56193 -2.31212 0
M  V30 1520 C 147.165 2.41641 -3.58097 0
M  V30 1521 C 146.3 3.68108 -3.82975 0
M  V30 1522 C 145.339 3.48445 -5.03242 0
M  V30 1523 N 144.476 4.66956 -5.24306 0
M  V30 1524 H 149.316 0.885226 -2.84548 0
M  V30 1525 H 146.853 0.425718 -1.40805 0
M  V30 1526 H 148.811 3.34088 -2.49882 0
M  V30 1527 H 147.441 2.88208 -1.45382 0
M  V30 1528 H 146.493 1.54976 -3.474 0
M  V30 1529 H 147.805 2.23052 -4.46149 0
M  V30 1530 H 146.959 4.54441 -4.01956 0
M  V30 1531 H 145.698 3.89666 -2.93278 0
M  V30 1532 H 144.703 2.60499 -4.8417 0
M  V30 1533 H 145.928 3.2832 -5.9446 0
M  V30 1534 H 143.874 4.88752 -4.37559 0
M  V30 1535 H 143.791 4.51242 -6.06561 0
M  V30 1536 H 145.059 5.54602 -5.47756 0
M  V30 1537 N 149.288 1.51039 0.449983 0
M  V30 1538 C 150.699 1.557 1.03026 0
M  V30 1539 C 151.05 0.372939 1.92623 0
M  V30 1540 O 150.175 -0.511771 2.10261 0
M  V30 1541 C 150.77 2.82171 1.87523 0
M  V30 1542 C 149.329 2.89444 2.40622 0
M  V30 1543 C 148.476 2.50228 1.19504 0
M  V30 1544 H 151.427 1.56999 0.231745 0
M  V30 1545 H 151.448 2.65219 2.72835 0
M  V30 1546 H 150.96 3.68331 1.22286 0
M  V30 1547 H 149.061 2.07685 3.0935 0
M  V30 1548 H 149.174 3.92816 2.74285 0
M  V30 1549 H 147.538 2.03139 1.53644 0
M  V30 1550 H 148.321 3.38719 0.558972 0
M  V30 1551 N 150.766 -0.704594 1.40972 0
M  V30 1552 C 151.713 -1.81862 1.42109 0
M  V30 1553 C 152.683 -1.63781 0.276593 0
M  V30 1554 O 153.868 -1.84759 0.4763 0
M  V30 1555 C 151.008 -3.19669 1.30022 0
M  V30 1556 C 150.121 -3.49246 2.54267 0
M  V30 1557 C 149.256 -4.76618 2.3454 0
M  V30 1558 C 148.295 -4.99133 3.54306 0
M  V30 1559 N 147.432 -6.17726 3.33706 0
M  V30 1560 H 152.272 -1.80226 2.37324 0
M  V30 1561 H 149.809 -0.880238 1.17857 0
M  V30 1562 H 151.767 -3.99263 1.21018 0
M  V30 1563 H 150.397 -3.20506 0.384192 0
M  V30 1564 H 149.449 -2.64125 2.73756 0
M  V30 1565 H 150.761 -3.61788 3.43381 0
M  V30 1566 H 149.915 -5.64249 2.22952 0
M  V30 1567 H 148.654 -4.66305 1.42867 0
M  V30 1568 H 147.659 -4.09953 3.66359 0
M  V30 1569 H 148.884 -5.11311 4.4692 0
M  V30 1570 H 146.83 -6.08642 2.44725 0
M  V30 1571 H 146.747 -6.30995 4.16391 0
M  V30 1572 H 148.015 -7.08115 3.25873 0
M  V30 1573 N 152.244 -1.26651 -0.937939 0
M  V30 1574 C 153.49 -1.12553 -1.687 0
M  V30 1575 C 153.823 0.329782 -1.91379 0
M  V30 1576 O 153.098 1.24202 -1.4968 0
M  V30 1577 C 153.381 -1.89862 -3.05981 0
M  V30 1578 C 153.234 -3.43318 -2.90607 0
M  V30 1579 C 154.553 -1.69499 -4.0615 0
M  V30 1580 H 151.672 -0.410257 -0.612257 0
M  V30 1581 H 154.314 -1.55685 -1.08913 0
M  V30 1582 H 152.464 -1.53204 -3.57017 0
M  V30 1583 H 154.136 -3.89747 -2.46769 0
M  V30 1584 H 152.379 -3.70179 -2.26164 0
M  V30 1585 H 153.05 -3.92642 -3.8799 0
M  V30 1586 H 155.526 -2.01442 -3.64088 0
M  V30 1587 H 154.402 -2.26002 -5.00214 0
M  V30 1588 H 154.663 -0.640365 -4.37438 0
M  V30 1589 N 153.722 1.14298 -1.08507 0
M  V30 1590 C 154.654 2.1907 -0.673859 0
M  V30 1591 C 155.667 1.60381 0.279577 0
M  V30 1592 O 156.856 1.78374 0.0670754 0
M  V30 1593 C 153.956 3.38888 0.0290979 0
M  V30 1594 C 153.129 4.27103 -0.943494 0
M  V30 1595 C 152.188 5.25477 -0.275676 0
M  V30 1596 O 151.214 5.61709 -0.920401 0
M  V30 1597 N 152.416 5.7227 0.974013 0
M  V30 1598 H 155.181 2.54965 -1.57521 0
M  V30 1599 H 152.742 1.29528 -0.971287 0
M  V30 1600 H 154.734 4.01761 0.48683 0
M  V30 1601 H 153.304 3.01309 0.832555 0
M  V30 1602 H 152.524 3.61149 -1.58004 0
M  V30 1603 H 153.812 4.82905 -1.60251 0
M  V30 1604 H 153.21 5.44965 1.51755 0
M  V30 1605 H 151.767 6.37127 1.37522 0
M  V30 1606 N 155.201 0.870884 1.31352 0
M  V30 1607 C 156.447 0.482987 1.96965 0
M  V30 1608 C 156.78 -0.962462 1.68672 0
M  V30 1609 O 156.055 -1.6779 0.98371 0
M  V30 1610 C 156.338 0.741752 3.52378 0
M  V30 1611 C 156.191 2.2368 3.9024 0
M  V30 1612 C 157.51 0.208838 4.39604 0
M  V30 1613 H 154.629 0.176955 0.715441 0
M  V30 1614 H 157.271 1.09229 1.55464 0
M  V30 1615 H 155.421 0.223149 3.87859 0
M  V30 1616 H 157.093 2.82273 3.64856 0
M  V30 1617 H 155.336 2.70901 3.38814 0
M  V30 1618 H 156.007 2.3685 4.98604 0
M  V30 1619 H 158.483 0.652529 4.10952 0
M  V30 1620 H 157.359 0.419336 5.47296 0
M  V30 1621 H 157.62 -0.889275 4.33064 0
M  V30 1622 N 156.679 -1.44442 0.630414 0
M  V30 1623 C 157.589 -2.34476 -0.0761693 0
M  V30 1624 C 158.605 -1.52576 -0.836449 0
M  V30 1625 O 159.781 -1.85307 -0.788874 0
M  V30 1626 C 156.846 -3.30545 -1.04599 0
M  V30 1627 C 155.907 -4.28352 -0.28516 0
M  V30 1628 C 155.14 -5.19831 -1.20878 0
M  V30 1629 O 155.363 -5.15223 -2.44747 0
M  V30 1630 O 154.297 -5.97892 -0.693491 0
M  V30 1631 H 158.123 -2.96345 0.664324 0
M  V30 1632 H 155.708 -1.44203 0.39061 0
M  V30 1633 H 157.59 -3.89681 -1.60396 0
M  V30 1634 H 156.265 -2.7121 -1.76711 0
M  V30 1635 H 155.172 -3.72764 0.315837 0
M  V30 1636 H 156.505 -4.90605 0.395924 0
M  V30 1637 N 158.157 -0.370918 -1.53173 0
M  V30 1638 C 159.387 0.217389 -2.05453 0
M  V30 1639 C 159.795 1.42568 -1.24382 0
M  V30 1640 O 159.138 1.81571 -0.278839 0
M  V30 1641 C 159.2 0.669827 -3.53205 0
M  V30 1642 C 158.864 -0.4225 -4.55043 0
M  V30 1643 C 159.861 -1.27407 -5.04047 0
M  V30 1644 C 157.546 -0.58427 -4.9889 0
M  V30 1645 C 159.54 -2.27271 -5.95505 0
M  V30 1646 C 157.227 -1.58627 -5.90153 0
M  V30 1647 C 158.225 -2.42892 -6.38351 0
M  V30 1648 O 157.913 -3.41382 -7.27814 0
M  V30 1649 H 157.645 0.0408171 -0.674767 0
M  V30 1650 H 160.199 -0.5292 -1.98466 0
M  V30 1651 H 158.429 1.4681 -3.57748 0
M  V30 1652 H 160.118 1.18173 -3.88317 0
M  V30 1653 H 160.884 -1.16031 -4.70916 0
M  V30 1654 H 156.763 0.061851 -4.60959 0
M  V30 1655 H 160.307 -2.93079 -6.33049 0
M  V30 1656 H 156.204 -1.70048 -6.22699 0
M  V30 1657 H 156.972 -3.37173 -7.45826 0
M  V30 1658 N 159.635 1.57281 -0.100228 0
M  V30 1659 C 160.582 2.14305 0.856858 0
M  V30 1660 C 161.552 1.06296 1.27634 0
M  V30 1661 O 162.737 1.34109 1.35718 0
M  V30 1662 C 159.877 2.73184 2.10866 0
M  V30 1663 C 158.99 3.95442 1.73925 0
M  V30 1664 C 158.125 4.42468 2.93931 0
M  V30 1665 C 157.164 5.57303 2.5314 0
M  V30 1666 N 156.301 5.99158 3.65997 0
M  V30 1667 H 161.141 2.95772 0.363726 0
M  V30 1668 H 158.678 1.46139 0.167858 0
M  V30 1669 H 160.636 3.05442 2.84185 0
M  V30 1670 H 159.266 1.94437 2.57671 0
M  V30 1671 H 158.318 3.69464 0.905554 0
M  V30 1672 H 159.63 4.78769 1.39935 0
M  V30 1673 H 158.784 4.76537 3.75496 0
M  V30 1674 H 157.523 3.58052 3.31134 0
M  V30 1675 H 156.528 5.22857 1.70003 0
M  V30 1676 H 157.753 6.43471 2.17075 0
M  V30 1677 H 155.699 5.17687 4.02909 0
M  V30 1678 H 155.616 6.77295 3.35869 0
M  V30 1679 H 156.884 6.3786 4.48057 0
M  V30 1680 N 161.113 -0.173488 1.56642 0
M  V30 1681 C 162.361 -0.888706 1.81512 0
M  V30 1682 C 162.682 -1.82875 0.676872 0
M  V30 1683 O 161.952 -1.93536 -0.303414 0
M  V30 1684 H 160.532 -0.331164 0.669582 0
M  V30 1685 H 163.194 -0.173823 1.94123 0
M  V30 1686 H 162.29 -1.46691 2.75478 0
M  V30 1687 N 162.591 -1.51276 -0.441967 0
M  V30 1688 C 163.501 -1.75092 -1.56141 0
M  V30 1689 C 164.517 -0.634963 -1.62001 0
M  V30 1690 O 165.693 -0.916686 -1.79329 0
M  V30 1691 C 162.758 -1.86666 -2.92158 0
M  V30 1692 C 161.819 -3.10506 -2.96453 0
M  V30 1693 C 161.052 -3.21519 -4.25982 0
M  V30 1694 O 161.275 -2.38586 -5.18105 0
M  V30 1695 O 160.209 -4.14465 -4.36466 0
M  V30 1696 H 164.035 -2.70044 -1.38961 0
M  V30 1697 H 161.62 -1.35722 -0.624499 0
M  V30 1698 H 163.502 -1.96292 -3.72891 0
M  V30 1699 H 162.177 -0.949014 -3.09476 0
M  V30 1700 H 161.084 -3.06363 -2.14692 0
M  V30 1701 H 162.417 -4.01945 -2.84079 0
M  V30 1702 N 164.069 0.697108 -1.41344 0
M  V30 1703 C 165.297 1.48593 -1.43972 0
M  V30 1704 C 165.712 1.88747 -0.0445612 0
M  V30 1705 O 165.069 1.56682 0.935785 0
M  V30 1706 C 165.12 2.74946 -2.34706 0
M  V30 1707 O 164.841 2.36484 -3.68791 0
M  V30 1708 C 166.342 3.687 -2.46121 0
M  V30 1709 H 163.562 0.457964 -0.490418 0
M  V30 1710 H 166.106 0.858429 -1.8561 0
M  V30 1711 H 164.261 3.33937 -1.9638 0
M  V30 1712 H 164.675 3.17918 -4.17167 0
M  V30 1713 H 166.149 4.54145 -3.13777 0
M  V30 1714 H 166.626 4.13081 -1.49199 0
M  V30 1715 H 167.232 3.15613 -2.85076 0
M  V30 1716 N 165.547 1.27147 0.931209 0
M  V30 1717 C 166.494 1.09568 2.03134 0
M  V30 1718 C 167.464 -0.00222433 1.661 0
M  V30 1719 O 168.649 0.159439 1.90133 0
M  V30 1720 C 165.789 0.745231 3.36957 0
M  V30 1721 C 164.902 1.92041 3.86968 0
M  V30 1722 C 164.037 1.51216 5.09222 0
M  V30 1723 C 163.076 2.65504 5.5152 0
M  V30 1724 N 162.213 2.25291 6.64972 0
M  V30 1725 H 167.053 2.03708 2.17502 0
M  V30 1726 H 164.59 1.01411 1.06556 0
M  V30 1727 H 166.548 0.522878 4.1391 0
M  V30 1728 H 165.178 -0.159202 3.22407 0
M  V30 1729 H 164.23 2.25541 3.06326 0
M  V30 1730 H 165.542 2.77787 4.1429 0
M  V30 1731 H 164.696 1.25084 5.93666 0
M  V30 1732 H 163.435 0.625749 4.83669 0
M  V30 1733 H 162.44 2.92354 4.65628 0
M  V30 1734 H 163.665 3.54761 5.7907 0
M  V30 1735 H 161.611 1.39098 6.41083 0
M  V30 1736 H 161.528 3.04577 6.91931 0
M  V30 1737 H 162.796 2.02398 7.52765 0
M  V30 1738 N 167.025 -1.13721 1.09112 0
M  V30 1739 C 168.253 -1.88773 0.846899 0
M  V30 1740 C 168.668 -1.7896 -0.601572 0
M  V30 1741 O 168.025 -1.15394 -1.41388 0
M  V30 1742 C 168.076 -3.3849 1.26913 0
M  V30 1743 O 167.797 -3.48043 2.66079 0
M  V30 1744 C 169.298 -4.30518 1.05682 0
M  V30 1745 H 166.518 -0.59772 0.304914 0
M  V30 1746 H 169.062 -1.43977 1.45227 0
M  V30 1747 H 167.217 -3.80881 0.707723 0
M  V30 1748 H 167.631 -4.4109 2.83795 0
M  V30 1749 H 169.105 -5.3391 1.40156 0
M  V30 1750 H 169.582 -4.392 -0.00563416 0
M  V30 1751 H 170.188 -3.93893 1.60402 0
M  V30 1752 N 168.503 -0.877838 -1.30888 0
M  V30 1753 C 169.75 -0.492696 -1.96415 0
M  V30 1754 C 170.078 0.956671 -1.69346 0
M  V30 1755 O 169.333 1.68993 -0.986913 0
M  V30 1756 C 169.632 -0.705748 -3.50363 0
M  V30 1757 C 169.298 -2.1291 -3.97467 0
M  V30 1758 C 167.96 -2.51834 -4.1004 0
M  V30 1759 C 170.312 -3.05702 -4.22132 0
M  V30 1760 C 167.64 -3.82775 -4.44635 0
M  V30 1761 C 169.992 -4.36166 -4.58194 0
M  V30 1762 C 168.656 -4.74993 -4.68975 0
M  V30 1763 H 167.926 -0.18029 -0.718733 0
M  V30 1764 H 170.573 -1.11233 -1.55883 0
M  V30 1765 H 168.878 -0.00303058 -3.918 0
M  V30 1766 H 170.575 -0.387456 -3.99124 0
M  V30 1767 H 167.165 -1.81694 -3.88182 0
M  V30 1768 H 171.349 -2.76853 -4.11906 0
M  V30 1769 H 166.605 -4.12609 -4.51181 0
M  V30 1770 H 170.779 -5.08111 -4.76231 0
M  V30 1771 H 168.406 -5.76495 -4.95537 0
M  V30 1772 N 169.982 1.44106 -0.638065 0
M  V30 1773 C 171.229 2.01978 -0.14533 0
M  V30 1774 C 171.557 1.50234 1.23532 0
M  V30 1775 O 170.812 0.679548 1.83523 0
M  V30 1776 C 171.111 3.5729 -0.0887327 0
M  V30 1777 C 170.777 4.28317 -1.40909 0
M  V30 1778 C 169.439 4.47437 -1.77069 0
M  V30 1779 C 171.791 4.6867 -2.28031 0
M  V30 1780 C 169.119 5.04171 -3.00047 0
M  V30 1781 C 171.471 5.26766 -3.50286 0
M  V30 1782 C 170.135 5.44104 -3.86661 0
M  V30 1783 H 169.405 0.739089 -0.0531801 0
M  V30 1784 H 172.052 1.72781 -0.825761 0
M  V30 1785 H 170.357 3.8594 0.675095 0
M  V30 1786 H 172.054 3.99807 0.309145 0
M  V30 1787 H 168.644 4.1377 -1.1177 0
M  V30 1788 H 172.828 4.53604 -2.01388 0
M  V30 1789 H 168.084 5.15782 -3.28298 0
M  V30 1790 H 172.258 5.56983 -4.18023 0
M  V30 1791 H 169.885 5.87832 -4.82034 0
M  V30 1792 N 171.46 0.379036 1.52974 0
M  V30 1793 C 172.871 -0.0972525 1.86447 0
M  V30 1794 C 173.222 -1.47027 1.29914 0
M  V30 1795 O 172.347 -2.07135 0.626433 0
M  V30 1796 C 172.942 -0.183248 3.38304 0
M  V30 1797 C 171.501 -0.603812 3.71525 0
M  V30 1798 C 170.648 0.240632 2.76254 0
M  V30 1799 H 173.599 0.597316 1.4703 0
M  V30 1800 H 173.62 -1.00432 3.67006 0
M  V30 1801 H 173.132 0.816191 3.79421 0
M  V30 1802 H 171.233 -1.61099 3.35973 0
M  V30 1803 H 171.346 -0.369086 4.77676 0
M  V30 1804 H 169.71 -0.292548 2.53014 0
M  V30 1805 H 170.493 1.23786 3.20206 0
M  V30 1806 N 172.938 -1.57226 0.108567 0
M  V30 1807 C 173.848 -2.18292 -0.859401 0
M  V30 1808 C 174.864 -1.15612 -1.30038 0
M  V30 1809 O 176.04 -1.48039 -1.36552 0
M  V30 1810 C 173.105 -2.762 -2.09558 0
M  V30 1811 C 172.166 -3.93881 -1.70752 0
M  V30 1812 C 171.399 -4.49018 -2.88477 0
M  V30 1813 O 171.622 -4.03068 -4.036 0
M  V30 1814 O 170.556 -5.39852 -2.66164 0
M  V30 1815 H 174.382 -3.01441 -0.369769 0
M  V30 1816 H 171.967 -1.48945 -0.1165 0
M  V30 1817 H 173.849 -3.13156 -2.81978 0
M  V30 1818 H 172.524 -1.96089 -2.57548 0
M  V30 1819 H 171.431 -3.61713 -0.954714 0
M  V30 1820 H 172.764 -4.75396 -1.27513 0
M  V30 1821 N 174.416 0.165178 -1.56732 0
M  V30 1822 C 175.326 1.22423 -2.00125 0
M  V30 1823 C 176.342 1.48084 -0.913619 0
M  V30 1824 O 177.518 1.60112 -1.22172 0
M  V30 1825 C 174.583 2.54197 -2.35764 0
M  V30 1826 C 173.644 2.36343 -3.58386 0
M  V30 1827 C 172.877 3.61834 -3.92316 0
M  V30 1828 O 173.1 4.67267 -3.27135 0
M  V30 1829 O 172.034 3.55579 -4.85641 0
M  V30 1830 H 175.86 0.885886 -2.90492 0
M  V30 1831 H 173.445 0.372518 -1.44681 0
M  V30 1832 H 175.327 3.3192 -2.59629 0
M  V30 1833 H 174.002 2.87598 -1.48557 0
M  V30 1834 H 172.909 1.56632 -3.39731 0
M  V30 1835 H 174.242 2.07865 -4.46154 0
M  V30 1836 N 175.894 1.51508 0.433938 0
M  V30 1837 C 177.143 1.63578 1.18005 0
M  V30 1838 C 177.456 0.359514 1.92268 0
M  V30 1839 O 178.662 0.359632 2.69108 0
M  V30 1840 C 177.118 2.88901 2.14626 0
M  V30 1841 C 176.726 4.23544 1.45995 0
M  V30 1842 C 178.47 3.10328 2.89649 0
M  V30 1843 C 176.377 5.40014 2.4112 0
M  V30 1844 H 175.307 0.609277 0.444182 0
M  V30 1845 H 177.958 1.77978 0.446773 0
M  V30 1846 H 176.34 2.68142 2.91403 0
M  V30 1847 H 177.514 4.54696 0.747532 0
M  V30 1848 H 175.829 4.08021 0.831115 0
M  V30 1849 H 178.426 3.94518 3.60915 0
M  V30 1850 H 178.769 2.23544 3.51189 0
M  V30 1851 H 179.302 3.31443 2.19978 0
M  V30 1852 H 176.041 6.29068 1.84264 0
M  V30 1853 H 175.561 5.13233 3.10406 0
M  V30 1854 H 177.24 5.72099 3.02177 0
M  V30 1855 N 177.372 -0.689602 1.41712 0
M  V30 1856 C 178.597 -1.48329 1.44959 0
M  V30 1857 C 179.022 -1.8801 0.0581283 0
M  V30 1858 O 178.38 -1.55026 -0.940035 0
M  V30 1859 C 178.428 -2.71835 2.36935 0
M  V30 1860 O 177.532 -3.69549 1.8305 0
M  V30 1861 H 176.873 -0.446199 0.491734 0
M  V30 1862 H 179.403 -0.847127 1.86239 0
M  V30 1863 H 179.413 -3.20076 2.53013 0
M  V30 1864 H 178.088 -2.42291 3.38035 0
M  V30 1865 H 176.665 -3.2851 1.76452 0
M  V30 1866 N 178.85 -1.27639 -0.924453 0
M  V30 1867 C 180.075 -1.17101 -1.71179 0
M  V30 1868 C 180.5 0.268134 -1.86179 0
M  V30 1869 O 179.858 1.19415 -1.36418 0
M  V30 1870 C 179.906 -1.86313 -3.08739 0
M  V30 1871 O 179.01 -1.16331 -3.95652 0
M  V30 1872 H 178.351 -0.407091 -0.524569 0
M  V30 1873 H 180.881 -1.68767 -1.15666 0
M  V30 1874 H 180.891 -1.938 -3.59034 0
M  V30 1875 H 179.566 -2.91001 -2.97138 0
M  V30 1876 H 178.143 -1.16935 -3.54091 0
M  V30 1877 N 180.328 1.1314 -1.09713 0
M  V30 1878 C 181.261 2.17735 -0.683137 0
M  V30 1879 C 182.239 1.59582 0.311841 0
M  V30 1880 O 183.423 1.87298 0.212514 0
M  V30 1881 C 180.55 3.38699 -0.00684324 0
M  V30 1882 C 179.596 4.1546 -0.964102 0
M  V30 1883 S 180.429 4.74733 -2.47767 0
M  V30 1884 C 181.585 5.9904 -1.81387 0
M  V30 1885 H 181.818 2.52515 -1.56918 0
M  V30 1886 H 179.351 1.24484 -0.913404 0
M  V30 1887 H 181.309 4.08765 0.377044 0
M  V30 1888 H 179.97 3.02214 0.85589 0
M  V30 1889 H 179.163 5.02093 -0.43803 0
M  V30 1890 H 178.765 3.51066 -1.28953 0
M  V30 1891 H 181.057 6.67846 -1.13967 0
M  V30 1892 H 182 6.56261 -2.65947 0
M  V30 1893 H 182.408 5.4976 -1.28155 0
M  V30 1894 N 181.806 0.884767 1.30421 0
M  V30 1895 C 183.052 0.503851 1.96441 0
M  V30 1896 C 183.385 -0.944518 1.69684 0
M  V30 1897 O 182.66 -1.66737 1.00145 0
M  V30 1898 C 182.943 0.779085 3.51571 0
M  V30 1899 C 182.796 2.27807 3.87846 0
M  V30 1900 C 184.115 0.255452 4.39358 0
M  V30 1901 H 181.234 0.184533 0.713524 0
M  V30 1902 H 183.876 1.10872 1.54297 0
M  V30 1903 H 182.026 0.264274 3.876 0
M  V30 1904 H 183.698 2.86127 3.61841 0
M  V30 1905 H 181.941 2.74479 3.35922 0
M  V30 1906 H 182.612 2.42125 4.96064 0
M  V30 1907 H 185.088 0.696079 4.10236 0
M  V30 1908 H 183.964 0.477361 5.4682 0
M  V30 1909 H 184.225 -0.843293 4.33983 0
M  V30 1910 N 183.284 -1.43765 0.645699 0
M  V30 1911 C 184.214 -2.33471 -0.0370477 0
M  V30 1912 C 185.195 -1.49042 -0.819779 0
M  V30 1913 O 186.38 -1.77726 -0.782758 0
M  V30 1914 C 183.51 -3.32311 -1.0093 0
M  V30 1915 C 182.464 -4.2667 -0.337201 0
M  V30 1916 C 181.79 -5.1549 -1.42037 0
M  V30 1917 C 183.09 -5.16657 0.765706 0
M  V30 1918 H 184.784 -2.90809 0.712069 0
M  V30 1919 H 182.33 -1.39834 0.343876 0
M  V30 1920 H 184.283 -3.9396 -1.49578 0
M  V30 1921 H 183.007 -2.73213 -1.78948 0
M  V30 1922 H 181.666 -3.66374 0.128771 0
M  V30 1923 H 181.314 -4.52735 -2.1918 0
M  V30 1924 H 181.014 -5.79438 -0.975966 0
M  V30 1925 H 182.538 -5.80012 -1.90838 0
M  V30 1926 H 183.952 -5.72158 0.361702 0
M  V30 1927 H 182.349 -5.89286 1.13413 0
M  V30 1928 H 183.419 -4.56796 1.62683 0
M  V30 1929 N 184.763 -0.387143 -1.52771 0
M  V30 1930 C 185.991 0.195869 -2.05971 0
M  V30 1931 C 186.406 1.40691 -1.25903 0
M  V30 1932 O 185.763 1.79931 -0.305134 0
M  V30 1933 C 185.814 0.56812 -3.57008 0
M  V30 1934 O 185.535 -0.594803 -4.34043 0
M  V30 1935 C 187.036 1.20723 -4.26545 0
M  V30 1936 H 184.256 0.0300578 -0.670326 0
M  V30 1937 H 186.8 -0.551749 -1.96916 0
M  V30 1938 H 184.955 1.26564 -3.66143 0
M  V30 1939 H 185.369 -0.289322 -5.23701 0
M  V30 1940 H 186.843 1.41807 -5.33474 0
M  V30 1941 H 187.32 2.17395 -3.81623 0
M  V30 1942 H 187.926 0.550535 -4.21722 0
M  V30 1943 N 186.241 1.57166 -0.116904 0
M  V30 1944 C 187.188 2.15202 0.83408 0
M  V30 1945 C 188.158 1.07644 1.26499 0
M  V30 1946 O 189.343 1.35541 1.34288 0
M  V30 1947 C 186.483 2.75405 2.07957 0
M  V30 1948 C 185.596 3.97264 1.69721 0
M  V30 1949 C 184.731 4.45561 2.89221 0
M  V30 1950 C 183.77 5.59956 2.47215 0
M  V30 1951 N 182.907 6.03006 3.59622 0
M  V30 1952 H 187.747 2.96141 0.332335 0
M  V30 1953 H 185.284 1.46309 0.152349 0
M  V30 1954 H 187.242 3.08439 2.80929 0
M  V30 1955 H 185.872 1.97159 2.55594 0
M  V30 1956 H 184.924 3.70404 0.866316 0
M  V30 1957 H 186.236 4.80226 1.34849 0
M  V30 1958 H 185.39 4.80493 3.7042 0
M  V30 1959 H 184.129 3.61544 3.27318 0
M  V30 1960 H 183.134 5.2463 1.64448 0
M  V30 1961 H 184.359 6.45738 2.10238 0
M  V30 1962 H 182.305 5.21931 3.97396 0
M  V30 1963 H 182.222 6.80819 3.28667 0
M  V30 1964 H 183.49 6.42576 4.41267 0
M  V30 1965 N 187.719 -0.156864 1.56817 0
M  V30 1966 C 188.652 -1.22316 1.9265 0
M  V30 1967 C 189.63 -1.42059 0.791076 0
M  V30 1968 O 190.814 -1.56831 1.04576 0
M  V30 1969 C 187.941 -2.58375 2.18998 0
M  V30 1970 C 186.987 -2.55284 3.41661 0
M  V30 1971 S 187.82 -2.02946 4.95553 0
M  V30 1972 C 188.976 -3.40753 5.25013 0
M  V30 1973 H 189.209 -0.917403 2.82791 0
M  V30 1974 H 186.742 -0.362059 1.50095 0
M  V30 1975 H 188.7 -3.36677 2.34859 0
M  V30 1976 H 187.361 -2.86145 1.29538 0
M  V30 1977 H 186.554 -3.55418 3.57343 0
M  V30 1978 H 186.156 -1.85086 3.24991 0
M  V30 1979 H 188.448 -4.36819 5.17876 0
M  V30 1980 H 189.391 -3.29933 6.26538 0
M  V30 1981 H 189.799 -3.37433 4.52548 0
M  V30 1982 N 189.197 -1.51736 -0.425897 0
M  V30 1983 C 190.144 -1.73875 -1.51776 0
M  V30 1984 C 191.114 -0.580702 -1.55618 0
M  V30 1985 O 192.299 -0.81641 -1.72451 0
M  V30 1986 C 189.439 -1.88012 -2.89388 0
M  V30 1987 C 188.552 -3.15606 -2.94986 0
M  V30 1988 C 187.687 -3.20271 -4.23793 0
M  V30 1989 C 186.726 -4.42134 -4.23302 0
M  V30 1990 N 185.863 -4.44284 -5.43651 0
M  V30 1991 H 190.703 -2.67071 -1.32201 0
M  V30 1992 H 188.24 -1.32351 -0.642008 0
M  V30 1993 H 190.198 -1.9419 -3.69251 0
M  V30 1994 H 188.828 -0.98213 -3.07496 0
M  V30 1995 H 187.88 -3.18681 -2.07717 0
M  V30 1996 H 189.192 -4.05486 -2.90486 0
M  V30 1997 H 188.346 -3.25428 -5.12036 0
M  V30 1998 H 187.085 -2.28299 -4.30965 0
M  V30 1999 H 186.09 -4.3714 -3.3345 0
M  V30 2000 H 187.315 -5.35382 -4.17783 0
M  V30 2001 H 185.261 -3.55188 -5.51523 0
M  V30 2002 H 185.178 -5.27988 -5.41078 0
M  V30 2003 H 186.446 -4.53649 -6.33895 0
M  V30 2004 N 190.675 0.682077 -1.42076 0
M  V30 2005 C 191.585 1.82535 -1.47371 0
M  V30 2006 C 192.601 1.7017 -0.363079 0
M  V30 2007 O 193.777 1.91848 -0.612875 0
M  V30 2008 C 190.842 3.18624 -1.36674 0
M  V30 2009 C 189.903 3.42999 -2.58167 0
M  V30 2010 C 189.136 4.72595 -2.4797 0
M  V30 2011 O 189.359 5.50006 -1.5116 0
M  V30 2012 O 188.293 4.98054 -3.37974 0
M  V30 2013 H 192.119 1.81023 -2.43853 0
M  V30 2014 H 189.704 0.836887 -1.2376 0
M  V30 2015 H 191.586 3.99847 -1.33043 0
M  V30 2016 H 190.261 3.20789 -0.433138 0
M  V30 2017 H 189.168 2.61653 -2.67373 0
M  V30 2018 H 190.501 3.45659 -3.50401 0
M  V30 2019 N 192.153 1.28127 0.917671 0
M  V30 2020 C 193.402 1.14432 1.66097 0
M  V30 2021 C 193.715 -0.307247 1.93172 0
M  V30 2022 O 194.921 -0.565259 2.65551 0
M  V30 2023 C 193.377 2.00015 2.99202 0
M  V30 2024 C 192.985 3.49889 2.79789 0
M  V30 2025 C 194.729 1.94996 3.77064 0
M  V30 2026 C 192.636 4.27636 4.08511 0
M  V30 2027 H 191.566 0.424662 0.62304 0
M  V30 2028 H 194.217 1.52628 1.01868 0
M  V30 2029 H 192.599 1.54672 3.64544 0
M  V30 2030 H 193.773 4.03162 2.23152 0
M  V30 2031 H 192.088 3.56392 2.15345 0
M  V30 2032 H 194.685 2.50354 4.72469 0
M  V30 2033 H 195.028 0.925819 4.05875 0
M  V30 2034 H 195.561 2.38287 3.18534 0
M  V30 2035 H 192.3 5.30615 3.84874 0
M  V30 2036 H 191.82 3.79137 4.64774 0
M  V30 2037 H 193.499 4.37346 4.76799 0
M  V30 2038 N 193.631 -1.12557 1.10312 0
M  V30 2039 C 194.594 -2.16434 0.75424 0
M  V30 2040 C 195.594 -1.59278 -0.220685 0
M  V30 2041 O 196.784 -1.742 0.00230591 0
M  V30 2042 C 193.916 -3.40699 0.116987 0
M  V30 2043 H 195.109 -2.48811 1.67431 0
M  V30 2044 H 192.662 -1.27542 0.903475 0
M  V30 2045 H 193.397 -3.13921 -0.813877 0
M  V30 2046 H 193.182 -3.83459 0.818613 0
M  V30 2047 H 194.672 -4.17451 -0.111387 0
M  V30 2048 N 195.109 -0.891671 -1.2995 0
M  V30 2049 C 196.019 -0.367691 -2.31701 0
M  V30 2050 C 197.035 0.533486 -1.6562 0
M  V30 2051 O 198.211 0.424997 -1.96865 0
M  V30 2052 C 195.276 0.403406 -3.44345 0
M  V30 2053 C 194.337 -0.528328 -4.26037 0
M  V30 2054 C 193.57 0.206063 -5.33302 0
M  V30 2055 O 193.793 1.43119 -5.52153 0
M  V30 2056 O 192.727 -0.447281 -6.00236 0
M  V30 2057 H 196.553 -1.21163 -2.78484 0
M  V30 2058 H 194.138 -0.655725 -1.34241 0
M  V30 2059 H 196.02 0.839753 -4.12948 0
M  V30 2060 H 194.695 1.22354 -2.99685 0
M  V30 2061 H 193.602 -1.01362 -3.60106 0
M  V30 2062 H 194.935 -1.31465 -4.74318 0
M  V30 2063 N 196.587 1.43421 -0.653314 0
M  V30 2064 C 197.55 2.29182 0.0287951 0
M  V30 2065 C 198.55 1.42213 0.750465 0
M  V30 2066 O 199.74 1.63843 0.591701 0
M  V30 2067 C 196.872 3.24278 1.05151 0
M  V30 2068 H 198.065 2.90985 -0.725786 0
M  V30 2069 H 195.618 1.50702 -0.414545 0
M  V30 2070 H 196.353 2.6737 1.83532 0
M  V30 2071 H 196.138 3.88396 0.537687 0
M  V30 2072 H 197.628 3.88647 1.52786 0
M  V30 2073 N 198.065 0.39524 1.52563 0
M  V30 2074 C 199.295 -0.184675 2.05773 0
M  V30 2075 C 199.703 -1.40571 1.26635 0
M  V30 2076 O 199.046 -1.81105 0.30769 0
M  V30 2077 C 199.108 -0.613551 3.54226 0
M  V30 2078 C 198.772 0.49484 4.54313 0
M  V30 2079 C 199.769 1.3541 5.01956 0
M  V30 2080 C 197.454 0.663565 4.97898 0
M  V30 2081 C 199.448 2.36716 5.91814 0
M  V30 2082 C 197.135 1.67996 5.87555 0
M  V30 2083 C 198.133 2.53017 6.34406 0
M  V30 2084 O 197.821 3.52917 7.22291 0
M  V30 2085 H 197.553 -0.030077 0.675331 0
M  V30 2086 H 200.107 0.560708 1.97599 0
M  V30 2087 H 198.337 -1.411 3.60038 0
M  V30 2088 H 200.026 -1.11981 3.90148 0
M  V30 2089 H 200.792 1.23509 4.6901 0
M  V30 2090 H 196.671 0.0114913 4.60999 0
M  V30 2091 H 200.215 3.03113 6.28306 0
M  V30 2092 H 196.112 1.79933 6.19915 0
M  V30 2093 H 196.88 3.48996 7.40367 0
M  V30 2094 N 199.544 -1.57102 0.125237 0
M  V30 2095 C 200.474 -2.18659 -0.819174 0
M  V30 2096 C 201.455 -1.12843 -1.27281 0
M  V30 2097 O 202.64 -1.41104 -1.33429 0
M  V30 2098 C 199.77 -2.79096 -2.06695 0
M  V30 2099 C 198.724 -3.90548 -1.75088 0
M  V30 2100 C 198.05 -4.37821 -3.06948 0
M  V30 2101 C 199.35 -5.12356 -1.01435 0
M  V30 2102 H 201.044 -2.9783 -0.306202 0
M  V30 2103 H 198.59 -1.4326 -0.145839 0
M  V30 2104 H 200.543 -3.2082 -2.73226 0
M  V30 2105 H 199.267 -1.97223 -2.60328 0
M  V30 2106 H 197.926 -3.49409 -1.10944 0
M  V30 2107 H 197.574 -3.52799 -3.58527 0
M  V30 2108 H 197.274 -5.12982 -2.86571 0
M  V30 2109 H 198.798 -4.822 -3.74587 0
M  V30 2110 H 200.212 -5.5106 -1.58132 0
M  V30 2111 H 198.609 -5.9314 -0.911319 0
M  V30 2112 H 199.679 -4.849 -0.00218681 0
M  V30 2113 N 201.022 0.148545 -1.56898 0
M  V30 2114 C 202.27 0.859717 -1.82902 0
M  V30 2115 C 202.591 1.81775 -0.70588 0
M  V30 2116 O 201.861 1.93994 0.272586 0
M  V30 2117 H 200.441 0.320469 -0.674766 0
M  V30 2118 H 203.103 0.142918 -1.94375 0
M  V30 2119 H 202.199 1.4229 -2.77777 0
M  V30 2120 N 202.5 1.5196 0.417844 0
M  V30 2121 C 203.748 1.65263 1.16329 0
M  V30 2122 C 204.069 0.380634 1.91249 0
M  V30 2123 O 203.339 -0.604214 1.86349 0
M  V30 2124 H 201.919 0.60912 0.432414 0
M  V30 2125 H 204.581 1.88969 0.477162 0
M  V30 2126 H 203.677 2.4896 1.88217 0
M  V30 2127 N 203.978 -0.674533 1.42435 0
M  V30 2128 C 204.925 -1.78807 1.45934 0
M  V30 2129 C 205.895 -1.63157 0.311271 0
M  V30 2130 O 207.08 -1.83707 0.515383 0
M  V30 2131 C 204.22 -3.16839 1.36773 0
M  V30 2132 C 203.333 -3.43774 2.61617 0
M  V30 2133 C 202.468 -4.71536 2.44597 0
M  V30 2134 C 201.507 -4.91505 3.64814 0
M  V30 2135 N 200.644 -6.10508 3.46734 0
M  V30 2136 H 205.484 -1.75151 2.41093 0
M  V30 2137 H 203.021 -0.85504 1.19697 0
M  V30 2138 H 204.979 -3.96606 1.29459 0
M  V30 2139 H 203.609 -3.19619 0.452089 0
M  V30 2140 H 202.661 -2.58259 2.79297 0
M  V30 2141 H 203.973 -3.54423 3.50978 0
M  V30 2142 H 203.127 -5.59393 2.3487 0
M  V30 2143 H 201.866 -4.6317 1.52726 0
M  V30 2144 H 200.871 -4.0209 3.74972 0
M  V30 2145 H 202.096 -5.01716 4.57665 0
M  V30 2146 H 200.042 -6.03315 2.5758 0
M  V30 2147 H 199.959 -6.2202 4.29682 0
M  V30 2148 H 201.227 -7.01044 3.40819 0
M  V30 2149 N 205.456 -1.28612 -0.910864 0
M  V30 2150 C 206.702 -1.16106 -1.66274 0
M  V30 2151 C 207.035 0.289113 -1.92036 0
M  V30 2152 O 206.31 1.21 -1.52281 0
M  V30 2153 C 206.593 -1.96309 -3.01885 0
M  V30 2154 C 206.446 -3.49405 -2.8326 0
M  V30 2155 C 207.765 -1.78076 -4.02463 0
M  V30 2156 H 204.884 -0.423152 -0.603417 0
M  V30 2157 H 207.526 -1.57961 -1.05586 0
M  V30 2158 H 205.676 -1.60742 -3.53687 0
M  V30 2159 H 207.348 -3.94894 -2.38446 0
M  V30 2160 H 205.591 -3.74893 -2.18261 0
M  V30 2161 H 206.262 -4.00784 -3.79574 0
M  V30 2162 H 208.738 -2.0912 -3.59733 0
M  V30 2163 H 207.614 -2.36561 -4.95308 0
M  V30 2164 H 207.875 -0.733008 -4.35981 0
M  V30 2165 N 206.934 1.1197 -1.10907 0
M  V30 2166 C 207.884 2.15946 -0.731538 0
M  V30 2167 C 208.868 1.58758 0.261699 0
M  V30 2168 O 210.06 1.76863 0.0696722 0
M  V30 2169 C 207.189 3.42877 -0.170299 0
M  V30 2170 C 206.275 4.07037 -1.19087 0
M  V30 2171 N 206.666 4.46135 -2.38322 0
M  V30 2172 C 204.964 4.33884 -1.03252 0
M  V30 2173 C 205.665 4.96331 -3.03366 0
M  V30 2174 N 204.641 4.9214 -2.30865 0
M  V30 2175 H 208.443 2.43947 -1.63912 0
M  V30 2176 H 205.957 1.28927 -0.987505 0
M  V30 2177 H 207.954 4.16732 0.118271 0
M  V30 2178 H 206.614 3.16343 0.731935 0
M  V30 2179 H 207.625 4.38345 -2.75815 0
M  V30 2180 H 204.302 4.17084 -0.186256 0
M  V30 2181 H 205.692 5.36257 -4.04818 0
M  V30 2182 N 208.412 0.89855 1.29475 0
M  V30 2183 C 209.637 0.538561 2.00285 0
M  V30 2184 C 210.062 -0.869135 1.66816 0
M  V30 2185 O 209.42 -1.57831 0.892145 0
M  V30 2186 C 209.468 0.736475 3.52999 0
M  V30 2187 O 208.572 -0.211537 4.11857 0
M  V30 2188 H 207.913 0.210563 0.62973 0
M  V30 2189 H 210.443 1.20982 1.64998 0
M  V30 2190 H 210.453 0.640685 4.02938 0
M  V30 2191 H 209.128 1.76276 3.76696 0
M  V30 2192 H 207.705 -0.0682991 3.72837 0
M  V30 2193 N 209.89 -1.43072 0.660911 0
M  V30 2194 C 210.853 -2.29194 -0.0166406 0
M  V30 2195 C 211.853 -1.42609 -0.742912 0
M  V30 2196 O 213.043 -1.64155 -0.583004 0
M  V30 2197 C 210.175 -3.24831 -1.0343 0
M  V30 2198 H 211.368 -2.90596 0.741208 0
M  V30 2199 H 208.921 -1.5048 0.422532 0
M  V30 2200 H 209.656 -2.68339 -1.82111 0
M  V30 2201 H 209.441 -3.88676 -0.517082 0
M  V30 2202 H 210.931 -3.89451 -1.50723 0
M  V30 2203 N 211.368 -0.403325 -1.52352 0
M  V30 2204 C 212.614 0.174605 -2.02047 0
M  V30 2205 C 212.947 1.45282 -1.28867 0
M  V30 2206 O 212.222 1.90483 -0.393257 0
M  V30 2207 C 212.505 0.428238 -3.57545 0
M  V30 2208 C 212.358 -0.866248 -4.4138 0
M  V30 2209 C 213.677 1.21287 -4.23057 0
M  V30 2210 H 210.796 0.0619851 -0.734389 0
M  V30 2211 H 213.438 -0.53565 -1.82293 0
M  V30 2212 H 211.588 1.03327 -3.74507 0
M  V30 2213 H 213.26 -1.50265 -4.3614 0
M  V30 2214 H 211.503 -1.47851 -4.07827 0
M  V30 2215 H 212.174 -0.643249 -5.48239 0
M  V30 2216 H 214.65 0.700703 -4.10158 0
M  V30 2217 H 213.526 1.35909 -5.31808 0
M  V30 2218 H 213.787 2.23193 -3.81625 0
M  V30 2219 N 212.846 1.57033 -0.133567 0
M  V30 2220 C 214.095 1.94861 0.520768 0
M  V30 2221 C 214.408 1.02012 1.66892 0
M  V30 2222 O 215.614 1.29365 2.38699 0
M  V30 2223 C 214.07 3.46362 0.977809 0
M  V30 2224 C 213.678 4.47773 -0.142674 0
M  V30 2225 C 215.422 3.93083 1.60269 0
M  V30 2226 C 213.329 5.90468 0.331883 0
M  V30 2227 H 212.259 0.727453 0.198315 0
M  V30 2228 H 214.91 1.82227 -0.215759 0
M  V30 2229 H 213.292 3.54282 1.7692 0
M  V30 2230 H 214.466 4.51536 -0.919317 0
M  V30 2231 H 212.781 4.10891 -0.675124 0
M  V30 2232 H 215.378 4.97121 1.96914 0
M  V30 2233 H 215.721 3.33876 2.48662 0
M  V30 2234 H 216.254 3.88025 0.876453 0
M  V30 2235 H 212.993 6.53463 -0.516341 0
M  V30 2236 H 212.513 5.90094 1.07469 0
M  V30 2237 H 214.192 6.42179 0.788332 0
M  V30 2238 N 214.325 -0.140222 1.56975 0
M  V30 2239 C 215.553 -0.866437 1.87884 0
M  V30 2240 C 215.968 -1.74428 0.722517 0
M  V30 2241 O 215.325 -1.79891 -0.30749 0
M  V30 2242 C 215.376 -1.71753 3.18093 0
M  V30 2243 O 215.097 -0.875056 4.29272 0
M  V30 2244 C 216.598 -2.55074 3.62563 0
M  V30 2245 H 213.818 -0.25019 0.622612 0
M  V30 2246 H 216.362 -0.130977 2.0408 0
M  V30 2247 H 214.517 -2.40598 3.03631 0
M  V30 2248 H 214.931 -1.46002 5.03769 0
M  V30 2249 H 216.405 -3.10356 4.5649 0
M  V30 2250 H 216.882 -3.31434 2.88181 0
M  V30 2251 H 217.488 -1.91509 3.79743 0
M  V30 2252 N 215.803 -1.52179 -0.40978 0
M  V30 2253 C 217.049 -1.66453 -1.15851 0
M  V30 2254 C 217.382 -0.392972 -1.90182 0
M  V30 2255 O 216.657 0.608579 -1.84734 0
M  V30 2256 C 216.94 -2.88612 -2.15349 0
M  V30 2257 C 216.793 -4.25815 -1.44918 0
M  V30 2258 C 218.112 -3.06294 -3.16026 0
M  V30 2259 H 215.231 -0.60575 -0.419805 0
M  V30 2260 H 217.873 -1.84732 -0.444314 0
M  V30 2261 H 216.023 -2.73158 -2.76255 0
M  V30 2262 H 217.695 -4.52995 -0.871365 0
M  V30 2263 H 215.938 -4.27247 -0.751159 0
M  V30 2264 H 216.609 -5.07337 -2.17516 0
M  V30 2265 H 219.085 -3.20641 -2.65195 0
M  V30 2266 H 217.961 -3.93283 -3.8291 0
M  V30 2267 H 218.222 -2.19579 -3.83715 0
M  V30 2268 N 217.281 0.66697 -1.42791 0
M  V30 2269 C 218.692 1.2478 -1.38877 0
M  V30 2270 C 219.043 1.96012 -0.0859426 0
M  V30 2271 O 218.168 2.00463 0.815081 0
M  V30 2272 C 218.763 2.26938 -2.51564 0
M  V30 2273 C 217.322 2.80529 -2.50959 0
M  V30 2274 C 216.469 1.54965 -2.29959 0
M  V30 2275 H 219.42 0.459853 -1.51892 0
M  V30 2276 H 219.441 3.08834 -2.22265 0
M  V30 2277 H 218.953 1.75065 -3.46372 0
M  V30 2278 H 217.054 3.36502 -1.59991 0
M  V30 2279 H 217.167 3.29012 -3.48265 0
M  V30 2280 H 215.531 1.81817 -1.78366 0
M  V30 2281 H 216.314 1.05047 -3.26833 0
M  V30 2282 N 218.759 1.29093 0.90403 0
M  V30 2283 C 219.722 1.1386 1.98919 0
M  V30 2284 C 220.722 0.0753457 1.60623 0
M  V30 2285 O 221.912 0.321931 1.71199 0
M  V30 2286 C 219.044 0.740198 3.32767 0
M  V30 2287 H 220.237 2.10246 2.13861 0
M  V30 2288 H 217.79 1.12218 1.08797 0
M  V30 2289 H 218.525 -0.223997 3.23525 0
M  V30 2290 H 218.31 1.50838 3.61926 0
M  V30 2291 H 219.8 0.656546 4.12407 0
M  V30 2292 N 220.237 -1.11381 1.11499 0
M  V30 2293 C 221.467 -1.86663 0.885464 0
M  V30 2294 C 221.875 -1.80464 -0.568281 0
M  V30 2295 O 221.218 -1.18445 -1.40415 0
M  V30 2296 C 221.28 -3.36337 1.26956 0
M  V30 2297 C 220.944 -3.66304 2.73259 0
M  V30 2298 C 221.941 -3.63733 3.71476 0
M  V30 2299 C 219.626 -3.9529 3.09921 0
M  V30 2300 C 221.62 -3.89725 5.04374 0
M  V30 2301 C 219.307 -4.20941 4.43004 0
M  V30 2302 C 220.305 -4.18147 5.40039 0
M  V30 2303 O 219.993 -4.43153 6.70724 0
M  V30 2304 H 219.725 -0.597114 0.316908 0
M  V30 2305 H 222.279 -1.41782 1.48617 0
M  V30 2306 H 220.509 -3.81826 0.611999 0
M  V30 2307 H 222.198 -3.92986 1.01573 0
M  V30 2308 H 222.964 -3.41389 3.44498 0
M  V30 2309 H 218.843 -3.966 2.35009 0
M  V30 2310 H 222.387 -3.8746 5.80104 0
M  V30 2311 H 218.284 -4.42761 4.69716 0
M  V30 2312 H 219.052 -4.60717 6.76522 0
M  V30 2313 N 221.715 -0.905404 -1.28997 0
M  V30 2314 C 222.962 -0.534248 -1.95325 0
M  V30 2315 C 223.29 0.920535 -1.71337 0
M  V30 2316 O 222.545 1.66861 -1.02254 0
M  V30 2317 C 222.844 -0.779906 -3.48787 0
M  V30 2318 C 222.51 -2.21293 -3.92861 0
M  V30 2319 C 221.172 -2.60475 -4.04606 0
M  V30 2320 C 223.524 -3.14587 -4.15553 0
M  V30 2321 C 220.852 -3.9212 -4.36416 0
M  V30 2322 C 223.204 -4.45787 -4.48839 0
M  V30 2323 C 221.868 -4.84834 -4.58794 0
M  V30 2324 H 221.138 -0.195495 -0.714747 0
M  V30 2325 H 223.785 -1.14514 -1.53488 0
M  V30 2326 H 222.09 -0.0861365 -3.91705 0
M  V30 2327 H 223.787 -0.472029 -3.98212 0
M  V30 2328 H 220.377 -1.89887 -3.84241 0
M  V30 2329 H 224.561 -2.85528 -4.0594 0
M  V30 2330 H 219.817 -4.22086 -4.42327 0
M  V30 2331 H 223.991 -5.18098 -4.65346 0
M  V30 2332 H 221.618 -5.86877 -4.83197 0
M  V30 2333 N 223.193 1.4272 -0.668489 0
M  V30 2334 C 224.141 2.32586 0.0254857 0
M  V30 2335 C 225.135 1.49471 0.797176 0
M  V30 2336 O 226.341 1.65583 0.705853 0
M  V30 2337 H 222.716 0.751514 0.0270339 0
M  V30 2338 H 224.687 2.88823 -0.749936 0
M  V30 2339 C 223.436 3.3397 0.967427 0
M  V30 2340 H 222.759 3.97961 0.383048 0
M  V30 2341 H 224.199 3.9945 1.42181 0
M  V30 2342 C 222.658 2.65744 2.0708 0
M  V30 2343 O 223.188 2.48454 3.15648 0
M  V30 2344 N 221.394 2.2487 1.8407 0
M  V30 2345 H 220.941 2.39132 0.95778 0
M  V30 2346 H 220.899 1.79552 2.58086 0
M  V30 2347 N 224.671 0.411399 1.52136 0
M  V30 2348 C 225.948 -0.222308 1.94333 0
M  V30 2349 C 226.328 -1.6242 1.34844 0
M  V30 2350 O 225.676 -2.22384 0.525145 0
M  V30 2351 C 225.886 -0.226345 3.48265 0
M  V30 2352 C 227.234 -0.444592 4.22266 0
M  V30 2353 O 228.258 -0.305602 3.54887 0
M  V30 2354 O 227.117 -0.718749 5.41753 0
M  V30 2355 H 224.211 -0.143907 0.814383 0
M  V30 2356 H 226.757 0.467506 1.63133 0
M  V30 2357 H 225.529 0.75475 3.83952 0
M  V30 2358 H 225.152 -0.960163 3.85832 0
M  V30 2359 N 226.149 -1.5696 0.141893 0
M  V30 2360 C 227.374 -2.00754 -0.520838 0
M  V30 2361 C 227.799 -1.0213 -1.57959 0
M  V30 2362 O 227.157 0.00371324 -1.813 0
M  V30 2363 C 227.205 -3.43318 -1.10294 0
M  V30 2364 O 226.309 -3.47679 -2.21795 0
M  V30 2365 H 225.65 -0.651564 -0.127908 0
M  V30 2366 H 228.18 -2.03221 0.23712 0
M  V30 2367 H 228.19 -3.82012 -1.43287 0
M  V30 2368 H 226.865 -4.14608 -0.327574 0
M  V30 2369 H 225.442 -3.20824 -1.9007 0
M  V30 2370 N 227.627 0.131896 -1.57047 0
M  V30 2371 C 228.559 1.1878 -1.9602 0
M  V30 2372 C 229.572 1.38363 -0.857875 0
M  V30 2373 O 230.761 1.37666 -1.13623 0
M  V30 2374 C 227.861 2.55008 -2.23213 0
M  V30 2375 C 227.034 2.56201 -3.54513 0
M  V30 2376 C 226.093 3.7408 -3.70069 0
M  V30 2377 O 225.119 3.58258 -4.42312 0
M  V30 2378 N 226.321 4.92137 -3.07866 0
M  V30 2379 H 229.086 0.85639 -2.87204 0
M  V30 2380 H 226.647 0.321309 -1.5868 0
M  V30 2381 H 228.639 3.32404 -2.30846 0
M  V30 2382 H 227.209 2.80382 -1.3822 0
M  V30 2383 H 226.429 1.64613 -3.58185 0
M  V30 2384 H 227.717 2.54043 -4.4084 0
M  V30 2385 H 227.115 5.07895 -2.49116 0
M  V30 2386 H 225.672 5.67254 -3.21039 0
M  V30 2387 N 229.106 1.52395 0.401703 0
M  V30 2388 C 230.522 1.41363 0.740864 0
M  V30 2389 C 230.722 0.523982 1.94568 0
M  V30 2390 O 229.778 -0.00741204 2.52499 0
M  V30 2391 C 231.091 2.84011 0.987847 0
M  V30 2392 C 232.639 2.93404 1.09011 0
M  V30 2393 C 233.114 4.37036 1.3698 0
M  V30 2394 N 234.605 4.40304 1.43829 0
M  V30 2395 C 235.34 5.48508 1.67112 0
M  V30 2396 N 234.836 6.66819 1.87949 0
M  V30 2397 N 236.629 5.36034 1.69187 0
M  V30 2398 H 228.78 2.08765 -0.391262 0
M  V30 2399 H 231.043 0.941265 -0.112798 0
M  V30 2400 H 230.749 3.51265 0.174835 0
M  V30 2401 H 230.623 3.25502 1.906 0
M  V30 2402 H 233.01 2.26325 1.8937 0
M  V30 2403 H 233.091 2.55359 0.15015 0
M  V30 2404 H 232.735 5.04676 0.571353 0
M  V30 2405 H 232.665 4.72623 2.3224 0
M  V30 2406 H 235.156 3.55024 1.29486 0
M  V30 2407 H 235.469 7.45063 2.05185 0
M  V30 2408 H 233.814 6.6987 1.85199 0
M  V30 2409 H 237.005 4.42579 1.52451 0
M  V30 2410 H 237.178 6.20434 1.86993 0
M  V30 2411 N 230.584 -0.659388 1.43143 0
M  V30 2412 C 231.516 -1.7849 1.43784 0
M  V30 2413 C 232.529 -1.5932 0.334787 0
M  V30 2414 O 233.718 -1.68155 0.598842 0
M  V30 2415 C 230.818 -3.15828 1.22906 0
M  V30 2416 C 229.991 -3.61711 2.45934 0
M  V30 2417 C 229.05 -4.77831 2.20371 0
M  V30 2418 O 228.076 -4.87586 2.93681 0
M  V30 2419 N 229.278 -5.67611 1.21647 0
M  V30 2420 H 232.043 -1.7842 2.40803 0
M  V30 2421 H 229.604 -0.84302 1.3822 0
M  V30 2422 H 231.596 -3.91189 1.03697 0
M  V30 2423 H 230.166 -3.10707 0.343542 0
M  V30 2424 H 229.386 -2.76861 2.80609 0
M  V30 2425 H 230.674 -3.89112 3.27825 0
M  V30 2426 H 230.072 -5.62397 0.610449 0
M  V30 2427 H 228.629 -6.42719 1.08423 0
M  V30 2428 N 232.062 -1.29571 -0.897171 0
M  V30 2429 C 233.025 -1.14913 -1.98312 0
M  V30 2430 C 234.025 -0.0838629 -1.60581 0
M  V30 2431 O 235.215 -0.331006 -1.71026 0
M  V30 2432 C 232.347 -0.757835 -3.3237 0
M  V30 2433 H 233.54 -2.11377 -2.12743 0
M  V30 2434 H 231.093 -1.12793 -1.08201 0
M  V30 2435 H 231.828 0.206837 -3.2364 0
M  V30 2436 H 231.613 -1.52755 -3.61121 0
M  V30 2437 H 233.103 -0.678408 -4.12053 0
M  V30 2438 N 233.54 1.10788 -1.12088 0
M  V30 2439 C 234.768 1.86461 -0.896651 0
M  V30 2440 C 235.183 1.80492 0.553912 0
M  V30 2441 O 234.54 1.19102 1.38278 0
M  V30 2442 C 234.591 3.35006 -1.35843 0
M  V30 2443 O 234.312 3.40866 -2.75213 0
M  V30 2444 C 235.813 4.27565 -1.1706 0
M  V30 2445 H 233.033 0.589425 -0.320654 0
M  V30 2446 H 235.577 1.40076 -1.48993 0
M  V30 2447 H 233.732 3.7887 -0.808458 0
M  V30 2448 H 234.146 4.33411 -2.9539 0
M  V30 2449 H 235.62 5.30007 -1.54263 0
M  V30 2450 H 236.097 4.3906 -0.110814 0
M  V30 2451 H 236.703 3.89501 -1.70789 0
M  V30 2452 N 235.018 0.912232 1.28515 0
M  V30 2453 C 235.965 0.397954 2.27343 0
M  V30 2454 C 236.935 -0.526766 1.57526 0
M  V30 2455 O 238.12 -0.449292 1.85435 0
M  V30 2456 C 235.26 -0.357263 3.43246 0
M  V30 2457 C 234.373 0.599788 4.27816 0
M  V30 2458 C 233.508 -0.173725 5.30916 0
M  V30 2459 C 232.547 0.777039 6.07148 0
M  V30 2460 N 231.684 0.0371398 7.0209 0
M  V30 2461 H 236.524 1.24577 2.70711 0
M  V30 2462 H 234.061 0.625612 1.33133 0
M  V30 2463 H 236.019 -0.8113 4.09236 0
M  V30 2464 H 234.649 -1.16943 3.00872 0
M  V30 2465 H 233.701 1.17235 3.61884 0
M  V30 2466 H 235.013 1.32704 4.80823 0
M  V30 2467 H 234.167 -0.688394 6.02782 0
M  V30 2468 H 232.906 -0.934041 4.78672 0
M  V30 2469 H 231.911 1.3031 5.34134 0
M  V30 2470 H 233.136 1.53689 6.61481 0
M  V30 2471 H 231.082 -0.705213 6.52198 0
M  V30 2472 H 230.999 0.704249 7.52713 0
M  V30 2473 H 232.267 -0.457383 7.78157 0
M  V30 2474 N 236.496 -1.42363 0.676048 0
M  V30 2475 C 237.773 -1.95183 0.127726 0
M  V30 2476 C 238.153 -1.61641 -1.35777 0
M  V30 2477 O 237.501 -0.913216 -2.09458 0
M  V30 2478 C 237.711 -3.46721 0.398199 0
M  V30 2479 C 239.059 -4.23427 0.315383 0
M  V30 2480 O 240.083 -3.54649 0.332016 0
M  V30 2481 O 238.942 -5.45888 0.25865 0
M  V30 2482 H 236.036 -0.826992 0.00359427 0
M  V30 2483 H 238.582 -1.52184 0.750864 0
M  V30 2484 H 237.354 -3.64344 1.4272 0
M  V30 2485 H 236.977 -3.96769 -0.256885 0
M  V30 2486 N 237.974 -0.419461 -1.51915 0
M  V30 2487 C 238.937 0.389116 -2.25873 0
M  V30 2488 C 239.937 0.964924 -1.28631 0
M  V30 2489 O 241.127 0.842179 -1.52489 0
M  V30 2490 C 238.259 1.54874 -3.03689 0
M  V30 2491 H 239.452 -0.258799 -2.98781 0
M  V30 2492 H 237.005 -0.172209 -1.55348 0
M  V30 2493 H 237.74 2.23323 -2.35154 0
M  V30 2494 H 237.525 1.14223 -3.75094 0
M  V30 2495 H 239.015 2.12046 -3.59759 0
M  V30 2496 N 239.452 1.56882 -0.150215 0
M  V30 2497 C 240.7 1.9584 0.499105 0
M  V30 2498 C 241.021 1.03623 1.65188 0
M  V30 2499 O 240.291 0.0984084 1.95653 0
M  V30 2500 H 238.871 0.723119 0.187373 0
M  V30 2501 H 241.533 1.9358 -0.226466 0
M  V30 2502 H 240.629 2.99638 0.873122 0
M  V30 2503 N 240.93 -0.123565 1.57115 0
M  V30 2504 C 242.158 -0.846461 1.88793 0
M  V30 2505 C 242.573 -1.73652 0.740976 0
M  V30 2506 O 241.93 -1.80207 -0.288393 0
M  V30 2507 C 241.981 -1.6837 3.19897 0
M  V30 2508 O 241.702 -0.829477 4.30176 0
M  V30 2509 C 243.203 -2.51214 3.65248 0
M  V30 2510 H 240.423 -0.243573 0.625231 0
M  V30 2511 H 242.967 -0.109324 2.04208 0
M  V30 2512 H 241.122 -2.37364 3.06165 0
M  V30 2513 H 241.536 -1.40651 5.0529 0
M  V30 2514 H 243.01 -3.05497 4.59756 0
M  V30 2515 H 243.487 -3.28359 2.9168 0
M  V30 2516 H 244.093 -1.8747 3.81752 0
M  V30 2517 N 242.408 -1.52605 -0.393616 0
M  V30 2518 C 243.657 -1.66649 -1.13627 0
M  V30 2519 C 243.97 -0.410364 -1.91247 0
M  V30 2520 O 245.176 -0.430854 -2.68059 0
M  V30 2521 C 243.632 -2.9449 -2.06891 0
M  V30 2522 C 243.24 -4.27266 -1.34714 0
M  V30 2523 C 244.984 -3.17899 -2.81319 0
M  V30 2524 C 242.891 -5.46217 -2.26717 0
M  V30 2525 H 241.821 -0.62084 -0.427871 0
M  V30 2526 H 244.472 -1.791 -0.399428 0
M  V30 2527 H 242.854 -2.75774 -2.84191 0
M  V30 2528 H 244.028 -4.56518 -0.626714 0
M  V30 2529 H 242.343 -4.10081 -0.722643 0
M  V30 2530 H 244.94 -4.03949 -3.50328 0
M  V30 2531 H 245.283 -2.32777 -3.45139 0
M  V30 2532 H 245.816 -3.37159 -2.11113 0
M  V30 2533 H 242.555 -6.33733 -1.67521 0
M  V30 2534 H 242.075 -5.21283 -2.96689 0
M  V30 2535 H 243.754 -5.7991 -2.86903 0
M  V30 2536 N 243.887 0.651787 -1.4349 0
M  V30 2537 C 245.115 1.43937 -1.48626 0
M  V30 2538 C 245.53 1.8851 -0.104587 0
M  V30 2539 O 244.887 1.5958 0.885464 0
M  V30 2540 C 244.938 2.6734 -2.43334 0
M  V30 2541 O 244.659 2.24631 -3.76128 0
M  V30 2542 C 246.16 3.60683 -2.57726 0
M  V30 2543 H 243.38 0.44213 -0.504739 0
M  V30 2544 H 245.924 0.798944 -1.88248 0
M  V30 2545 H 244.079 3.2752 -2.06904 0
M  V30 2546 H 244.493 3.04485 -4.2707 0
M  V30 2547 H 245.967 4.43933 -3.28067 0
M  V30 2548 H 246.444 4.08126 -1.62265 0
M  V30 2549 H 247.05 3.06384 -2.94973 0
M  V30 2550 N 245.365 1.30045 0.890287 0
M  V30 2551 C 246.613 1.18327 1.63839 0
M  V30 2552 C 246.934 -0.263455 1.93212 0
M  V30 2553 O 246.204 -1.17856 1.56482 0
M  V30 2554 H 244.784 0.434933 0.607324 0
M  V30 2555 H 247.446 1.631 1.06698 0
M  V30 2556 H 246.542 1.74024 2.59079 0
M  V30 2557 N 246.843 -1.10192 1.12674 0
M  V30 2558 C 247.773 -2.18652 0.819362 0
M  V30 2559 C 248.754 -1.68698 -0.217915 0
M  V30 2560 O 249.939 -1.94041 -0.0785581 0
M  V30 2561 C 247.069 -3.46202 0.27594 0
M  V30 2562 C 246.023 -4.09444 1.24656 0
M  V30 2563 C 245.349 -5.31725 0.563258 0
M  V30 2564 C 246.649 -4.52863 2.60217 0
M  V30 2565 H 248.343 -2.44622 1.72628 0
M  V30 2566 H 245.889 -1.17571 0.831451 0
M  V30 2567 H 247.842 -4.21372 0.0486149 0
M  V30 2568 H 246.566 -3.1973 -0.666331 0
M  V30 2569 H 245.225 -3.36284 1.45974 0
M  V30 2570 H 244.873 -5.0153 -0.384235 0
M  V30 2571 H 244.573 -5.74991 1.21075 0
M  V30 2572 H 246.097 -6.09624 0.34503 0
M  V30 2573 H 247.511 -5.19294 2.42913 0
M  V30 2574 H 245.908 -5.06986 3.21068 0
M  V30 2575 H 246.978 -3.65656 3.18471 0
M  V30 2576 N 248.321 -0.919034 -1.28029 0
M  V30 2577 C 249.269 -0.401753 -2.29104 0
M  V30 2578 C 250.263 0.509354 -1.61561 0
M  V30 2579 O 251.469 0.390014 -1.75724 0
M  V30 2580 H 247.844 -0.111331 -0.743713 0
M  V30 2581 H 249.815 -1.2672 -2.70156 0
M  V30 2582 C 248.564 0.338148 -3.46052 0
M  V30 2583 H 247.887 -0.353732 -3.98232 0
M  V30 2584 H 249.327 0.664653 -4.18758 0
M  V30 2585 C 247.786 1.54798 -2.99231 0
M  V30 2586 O 248.316 2.64696 -3.02157 0
M  V30 2587 N 246.522 1.3968 -2.54829 0
M  V30 2588 H 246.069 0.502698 -2.52647 0
M  V30 2589 H 246.027 2.20755 -2.23863 0
M  V30 2590 N 249.799 1.42003 -0.683588 0
M  V30 2591 C 251.045 2.01712 -0.209825 0
M  V30 2592 C 251.378 1.53968 1.18353 0
M  V30 2593 O 250.653 0.745661 1.79639 0
M  V30 2594 C 250.936 3.59202 -0.254197 0
M  V30 2595 C 250.789 4.17102 -1.68363 0
M  V30 2596 C 252.108 4.38344 0.392709 0
M  V30 2597 H 249.227 0.732891 -0.0777189 0
M  V30 2598 H 251.869 1.68909 -0.87004 0
M  V30 2599 H 250.019 3.87278 0.307954 0
M  V30 2600 H 251.691 3.99946 -2.29871 0
M  V30 2601 H 249.934 3.72597 -2.22157 0
M  V30 2602 H 250.605 5.26249 -1.6663 0
M  V30 2603 H 253.081 4.16011 -0.0859162 0
M  V30 2604 H 251.957 5.47901 0.331063 0
M  V30 2605 H 252.218 4.16887 1.47164 0
M  V30 2606 N 251.277 0.427512 1.51691 0
M  V30 2607 C 252.207 -0.3796 2.30394 0
M  V30 2608 C 253.188 -1.02982 1.35384 0
M  V30 2609 O 254.373 -1.03534 1.643 0
M  V30 2610 C 251.503 -1.48649 3.1388 0
M  V30 2611 C 250.457 -0.960294 4.17088 0
M  V30 2612 C 249.783 -2.16219 4.89033 0
M  V30 2613 C 251.083 -0.00153679 5.223 0
M  V30 2614 H 252.777 0.277164 2.98114 0
M  V30 2615 H 250.323 0.134739 1.43368 0
M  V30 2616 H 252.276 -2.05826 3.67714 0
M  V30 2617 H 251 -2.1714 2.43962 0
M  V30 2618 H 249.659 -0.410806 3.64291 0
M  V30 2619 H 249.307 -2.83307 4.15628 0
M  V30 2620 H 249.007 -1.81654 5.58816 0
M  V30 2621 H 250.531 -2.73968 5.45687 0
M  V30 2622 H 251.945 -0.482687 5.71264 0
M  V30 2623 H 250.342 0.256199 5.99553 0
M  V30 2624 H 251.412 0.938174 4.75738 0
M  V30 2625 N 252.755 -1.56801 0.158532 0
M  V30 2626 C 254.171 -1.5837 -0.197774 0
M  V30 2627 C 254.371 -1.17334 -1.63814 0
M  V30 2628 O 253.427 -0.878988 -2.36707 0
M  V30 2629 C 254.74 -3.00615 0.0714459 0
M  V30 2630 C 256.288 -3.12999 0.00864533 0
M  V30 2631 C 256.763 -4.57313 0.250685 0
M  V30 2632 N 258.254 -4.62777 0.198014 0
M  V30 2633 C 258.989 -5.72271 0.359642 0
M  V30 2634 N 258.485 -6.90371 0.579625 0
M  V30 2635 N 260.278 -5.61318 0.296438 0
M  V30 2636 H 252.429 -1.81765 1.09887 0
M  V30 2637 H 254.692 -0.841849 0.435884 0
M  V30 2638 H 254.398 -3.35068 1.06874 0
M  V30 2639 H 254.272 -3.71683 -0.642757 0
M  V30 2640 H 256.659 -2.7838 -0.979217 0
M  V30 2641 H 256.74 -2.44393 0.755359 0
M  V30 2642 H 256.384 -4.92639 1.2357 0
M  V30 2643 H 256.314 -5.24061 -0.516489 0
M  V30 2644 H 258.805 -3.77885 0.0331115 0
M  V30 2645 H 259.118 -7.69689 0.69275 0
M  V30 2646 H 257.463 -6.92264 0.616087 0
M  V30 2647 H 260.654 -4.67932 0.125258 0
M  V30 2648 H 260.827 -6.46599 0.425831 0
M  V30 2649 N 254.233 0.115231 -1.57178 0
M  V30 2650 C 255.482 0.820945 -1.84237 0
M  V30 2651 C 255.795 1.80866 -0.744761 0
M  V30 2652 O 257.001 2.56083 -0.901871 0
M  V30 2653 C 255.457 1.51072 -3.26658 0
M  V30 2654 C 255.065 0.563795 -4.44438 0
M  V30 2655 C 256.809 2.20134 -3.62962 0
M  V30 2656 C 254.716 1.25701 -5.77887 0
M  V30 2657 H 253.646 0.310328 -0.687177 0
M  V30 2658 H 256.297 0.0737134 -1.83352 0
M  V30 2659 H 254.679 2.30471 -3.22024 0
M  V30 2660 H 255.853 -0.197247 -4.60378 0
M  V30 2661 H 254.168 -0.0200638 -4.16395 0
M  V30 2662 H 256.765 2.72696 -4.59936 0
M  V30 2663 H 257.108 2.98107 -2.90582 0
M  V30 2664 H 257.641 1.47619 -3.69396 0
M  V30 2665 H 254.38 0.518493 -6.53446 0
M  V30 2666 H 253.9 1.98997 -5.65827 0
M  V30 2667 H 255.579 1.78915 -6.2177 0
M  V30 2668 N 255.711 1.52812 0.385517 0
M  V30 2669 C 256.96 1.67249 1.12741 0
M  V30 2670 C 257.273 0.4205 1.91027 0
M  V30 2671 O 258.479 0.445064 2.67827 0
M  V30 2672 C 256.935 2.95583 2.05326 0
M  V30 2673 C 256.543 4.27974 1.32447 0
M  V30 2674 C 258.287 3.19386 2.7963 0
M  V30 2675 C 256.194 5.47412 2.23818 0
M  V30 2676 H 255.124 0.6231 0.424573 0
M  V30 2677 H 257.775 1.79309 0.389924 0
M  V30 2678 H 256.157 2.77277 2.82725 0
M  V30 2679 H 257.331 4.56844 0.602495 0
M  V30 2680 H 255.646 4.10459 0.700885 0
M  V30 2681 H 258.243 4.05801 3.48181 0
M  V30 2682 H 258.586 2.34604 3.43899 0
M  V30 2683 H 259.119 3.38274 2.09322 0
M  V30 2684 H 255.858 6.34612 1.64157 0
M  V30 2685 H 255.378 5.22849 2.93921 0
M  V30 2686 H 257.057 5.81423 2.83824 0
M  V30 2687 N 257.189 -0.644168 1.43834 0
M  V30 2688 C 258.137 -1.77793 1.49974 0
M  V30 2689 C 259.131 -1.65253 0.372536 0
M  V30 2690 O 260.337 -1.7149 0.546924 0
M  V30 2691 H 256.712 -0.58675 0.47035 0
M  V30 2692 H 258.683 -1.69736 2.45423 0
M  V30 2693 C 257.432 -3.16087 1.4486 0
M  V30 2694 H 256.755 -3.26378 2.30905 0
M  V30 2695 H 258.195 -3.95349 1.53217 0
M  V30 2696 C 256.654 -3.36484 0.167463 0
M  V30 2697 O 257.184 -3.94298 -0.767609 0
M  V30 2698 N 255.39 -2.90504 0.0747556 0
M  V30 2699 H 254.937 -2.4364 0.836507 0
M  V30 2700 H 254.895 -3.04527 -0.781714 0
M  V30 2701 N 258.668 -1.30515 -0.883378 0
M  V30 2702 C 259.578 -1.18959 -2.02203 0
M  V30 2703 C 260.594 -0.109172 -1.73657 0
M  V30 2704 O 261.77 -0.324413 -1.9877 0
M  V30 2705 C 258.835 -0.883871 -3.35244 0
M  V30 2706 C 257.896 -2.04982 -3.77201 0
M  V30 2707 C 257.129 -1.75859 -5.03894 0
M  V30 2708 O 257.352 -0.687276 -5.66244 0
M  V30 2709 O 256.286 -2.61146 -5.42297 0
M  V30 2710 H 260.112 -2.14616 -2.1488 0
M  V30 2711 H 257.697 -1.10124 -1.0096 0
M  V30 2712 H 259.579 -0.728644 -4.15053 0
M  V30 2713 H 258.254 0.0427798 -3.23672 0
M  V30 2714 H 257.161 -2.26038 -2.9809 0
M  V30 2715 H 258.494 -2.95825 -3.93381 0
M  V30 2716 N 260.146 1.09593 -1.13257 0
M  V30 2717 C 261.557 1.63229 -0.906274 0
M  V30 2718 C 261.908 1.8811 0.557578 0
M  V30 2719 O 261.033 1.62953 1.42391 0
M  V30 2720 C 261.628 2.96535 -1.63867 0
M  V30 2721 C 260.187 3.47003 -1.45828 0
M  V30 2722 C 259.334 2.2145 -1.66898 0
M  V30 2723 H 262.285 0.92978 -1.28611 0
M  V30 2724 H 262.306 3.64411 -1.09476 0
M  V30 2725 H 261.818 2.78394 -2.70404 0
M  V30 2726 H 259.919 3.70272 -0.415848 0
M  V30 2727 H 260.032 4.24551 -2.2202 0
M  V30 2728 H 258.396 2.30022 -1.09371 0
M  V30 2729 H 259.179 2.0583 -2.74752 0
M  V30 2730 N 261.624 0.925811 1.2754 0
M  V30 2731 C 262.852 0.581509 1.9856 0
M  V30 2732 C 263.267 -0.840041 1.69082 0
M  V30 2733 O 262.624 -1.55805 0.950312 0
M  V30 2734 C 262.675 0.795589 3.52637 0
M  V30 2735 O 262.396 2.16121 3.81082 0
M  V30 2736 C 263.897 0.459744 4.4091 0
M  V30 2737 H 261.117 0.220538 0.633722 0
M  V30 2738 H 263.661 1.24232 1.6244 0
M  V30 2739 H 261.816 0.18161 3.86974 0
M  V30 2740 H 262.23 2.2098 4.75676 0
M  V30 2741 H 263.704 0.660244 5.48037 0
M  V30 2742 H 264.181 -0.604625 4.35018 0
M  V30 2743 H 264.787 1.05178 4.12089 0
M  V30 2744 N 263.102 -1.41638 0.69111 0
M  V30 2745 C 264.065 -2.29178 0.0319786 0
M  V30 2746 C 265.065 -1.44153 -0.712496 0
M  V30 2747 O 266.255 -1.65354 -0.548053 0
M  V30 2748 C 263.387 -3.26952 -0.965161 0
M  V30 2749 H 264.58 -2.88959 0.802681 0
M  V30 2750 H 262.133 -1.4955 0.454356 0
M  V30 2751 H 262.868 -2.72142 -1.76378 0
M  V30 2752 H 262.653 -3.89685 -0.434522 0
M  V30 2753 H 264.143 -3.92561 -1.42428 0
M  V30 2754 N 264.58 -0.43555 -1.51462 0
M  V30 2755 C 265.543 0.365137 -2.26273 0
M  V30 2756 C 266.543 0.951227 -1.29647 0
M  V30 2757 O 267.733 0.825958 -1.53374 0
M  V30 2758 C 264.865 1.51645 -3.05314 0
M  V30 2759 H 266.058 -0.290474 -2.9849 0
M  V30 2760 H 263.611 -0.188676 -1.55157 0
M  V30 2761 H 264.346 2.20816 -2.3751 0
M  V30 2762 H 264.131 1.10238 -3.76284 0
M  V30 2763 H 265.621 2.08218 -3.61987 0
M  V30 2764 N 266.058 1.56714 -0.166846 0
M  V30 2765 C 267.021 2.16539 0.751232 0
M  V30 2766 C 268.021 1.11228 1.16125 0
M  V30 2767 O 269.211 1.36765 1.07894 0
M  V30 2768 C 266.343 2.74462 2.02196 0
M  V30 2769 H 267.536 2.99013 0.230499 0
M  V30 2770 H 265.089 1.56081 0.0826982 0
M  V30 2771 H 265.824 1.95709 2.58589 0
M  V30 2772 H 265.609 3.51527 1.73698 0
M  V30 2773 H 267.099 3.20489 2.67725 0
M  V30 2774 N 267.536 -0.106894 1.57237 0
M  V30 2775 C 268.785 -0.811163 1.8467 0
M  V30 2776 C 269.098 -1.80469 0.754342 0
M  V30 2777 O 270.304 -2.55601 0.915439 0
M  V30 2778 C 268.76 -1.49337 3.27454 0
M  V30 2779 C 268.368 -0.540217 4.44731 0
M  V30 2780 C 270.112 -2.18206 3.64124 0
M  V30 2781 C 268.019 -1.22634 5.78545 0
M  V30 2782 H 266.949 -0.306679 0.688813 0
M  V30 2783 H 269.6 -0.0639887 1.83388 0
M  V30 2784 H 267.982 -2.2876 3.23241 0
M  V30 2785 H 269.156 0.221659 4.60267 0
M  V30 2786 H 267.471 0.042146 4.16379 0
M  V30 2787 H 270.068 -2.70253 4.61376 0
M  V30 2788 H 270.411 -2.96562 2.92158 0
M  V30 2789 H 270.944 -1.45658 3.70174 0
M  V30 2790 H 267.683 -0.483832 6.53712 0
M  V30 2791 H 267.203 -1.95993 5.66874 0
M  V30 2792 H 268.882 -1.75615 6.2271 0
M  V30 2793 N 269.014 -1.53014 -0.377408 0
M  V30 2794 C 269.977 -1.77957 -1.44444 0
M  V30 2795 C 270.977 -0.649763 -1.47087 0
M  V30 2796 O 272.167 -0.917897 -1.48055 0
M  V30 2797 C 269.299 -1.89089 -2.83651 0
M  V30 2798 H 270.492 -2.73243 -1.23606 0
M  V30 2799 H 268.045 -1.43912 -0.609844 0
M  V30 2800 H 268.78 -0.958293 -3.09818 0
M  V30 2801 H 268.565 -2.71254 -2.83132 0
M  V30 2802 H 270.055 -2.1002 -3.60945 0
M  V30 2803 N 270.492 0.636531 -1.44174 0
M  V30 2804 C 271.722 1.42146 -1.49927 0
M  V30 2805 C 272.13 1.88812 -0.121063 0
M  V30 2806 O 271.473 1.61126 0.882267 0
M  V30 2807 C 271.535 2.67883 -2.39748 0
M  V30 2808 C 271.199 2.43048 -3.8701 0
M  V30 2809 C 272.196 2.05216 -4.77684 0
M  V30 2810 C 269.881 2.56856 -4.3166 0
M  V30 2811 C 271.875 1.81512 -6.11009 0
M  V30 2812 C 269.562 2.32766 -5.65034 0
M  V30 2813 C 270.56 1.95152 -6.54526 0
M  V30 2814 O 270.248 1.71326 -7.85431 0
M  V30 2815 H 269.98 0.442567 -0.51099 0
M  V30 2816 H 272.534 0.786158 -1.8976 0
M  V30 2817 H 270.764 3.34032 -1.94832 0
M  V30 2818 H 272.453 3.29874 -2.36513 0
M  V30 2819 H 273.219 1.94111 -4.44462 0
M  V30 2820 H 269.098 2.85104 -3.62266 0
M  V30 2821 H 272.642 1.52077 -6.80822 0
M  V30 2822 H 268.539 2.43479 -5.97819 0
M  V30 2823 H 269.307 1.85616 -7.97176 0
M  V30 2824 N 271.97 1.30982 0.876444 0
M  V30 2825 C 273.218 1.20058 1.62575 0
M  V30 2826 C 273.539 -0.242947 1.93481 0
M  V30 2827 O 272.809 -1.1619 1.57724 0
M  V30 2828 H 271.389 0.44135 0.602677 0
M  V30 2829 H 274.051 1.64222 1.04962 0
M  V30 2830 H 273.147 1.76762 2.57219 0
M  V30 2831 N 273.449 -1.08991 1.13837 0
M  V30 2832 C 274.379 -2.17771 0.842507 0
M  V30 2833 C 275.36 -1.6892 -0.20001 0
M  V30 2834 O 276.545 -1.94113 -0.0579731 0
M  V30 2835 C 273.675 -3.4589 0.312644 0
M  V30 2836 C 272.629 -4.08099 1.28992 0
M  V30 2837 C 271.955 -5.31098 0.619623 0
M  V30 2838 C 273.255 -4.50077 2.65005 0
M  V30 2839 H 274.949 -2.42777 1.75213 0
M  V30 2840 H 272.495 -1.16682 0.843875 0
M  V30 2841 H 274.448 -4.21297 0.0933043 0
M  V30 2842 H 273.172 -3.20419 -0.632382 0
M  V30 2843 H 271.831 -3.34717 1.49533 0
M  V30 2844 H 271.479 -5.0191 -0.33102 0
M  V30 2845 H 271.179 -5.73674 1.27167 0
M  V30 2846 H 272.703 -6.09224 0.409669 0
M  V30 2847 H 274.117 -5.16688 2.48407 0
M  V30 2848 H 272.514 -5.03553 3.26427 0
M  V30 2849 H 273.584 -3.62257 3.22332 0
M  V30 2850 N 274.927 -0.932562 -1.27047 0
M  V30 2851 C 276.204 -0.49377 -1.89265 0
M  V30 2852 C 276.584 1.02833 -1.8436 0
M  V30 2853 O 275.932 1.88461 -1.29209 0
M  V30 2854 C 276.142 -1.04536 -3.32976 0
M  V30 2855 C 277.49 -1.10879 -4.09867 0
M  V30 2856 O 278.514 -0.995327 -3.42011 0
M  V30 2857 O 277.373 -1.28417 -5.31198 0
M  V30 2858 H 274.467 -0.159596 -0.811454 0
M  V30 2859 H 277.013 -1.02457 -1.3528 0
M  V30 2860 H 275.785 -2.08913 -3.30864 0
M  V30 2861 H 275.408 -0.496494 -3.94488 0
M  V30 2862 N 276.405 1.4127 -0.698611 0
M  V30 2863 C 277.352 2.30773 -0.0352094 0
M  V30 2864 C 278.322 1.47273 0.768111 0
M  V30 2865 O 279.507 1.76053 0.735524 0
M  V30 2866 C 276.647 3.33346 0.893 0
M  V30 2867 C 275.76 4.31924 0.0809695 0
M  V30 2868 C 274.895 5.21566 1.0071 0
M  V30 2869 C 273.934 6.11811 0.188155 0
M  V30 2870 N 273.071 6.93926 1.06825 0
M  V30 2871 H 277.911 2.86943 -0.804207 0
M  V30 2872 H 275.448 1.4132 -0.408294 0
M  V30 2873 H 277.406 3.91368 1.44523 0
M  V30 2874 H 276.036 2.78719 1.62836 0
M  V30 2875 H 275.088 3.75825 -0.588224 0
M  V30 2876 H 276.4 4.95716 -0.553801 0
M  V30 2877 H 275.554 5.84437 1.62845 0
M  V30 2878 H 274.293 4.58008 1.67572 0
M  V30 2879 H 273.298 5.47986 -0.446254 0
M  V30 2880 H 274.523 6.77425 -0.476716 0
M  V30 2881 H 272.469 6.32973 1.72283 0
M  V30 2882 H 272.386 7.54416 0.489123 0
M  V30 2883 H 273.654 7.61262 1.67632 0
M  V30 2884 N 277.883 0.443576 1.51229 0
M  V30 2885 C 278.83 -0.364716 2.279 0
M  V30 2886 C 279.8 -1.0114 1.31757 0
M  V30 2887 O 280.985 -1.02912 1.60667 0
M  V30 2888 C 278.125 -1.45644 3.12861 0
M  V30 2889 C 277.238 -0.827269 4.24005 0
M  V30 2890 C 276.373 -1.89456 4.96266 0
M  V30 2891 C 275.412 -1.24416 5.99322 0
M  V30 2892 N 274.549 -2.25309 6.64966 0
M  V30 2893 H 279.389 0.295464 2.96532 0
M  V30 2894 H 276.926 0.157554 1.46254 0
M  V30 2895 H 278.884 -2.10076 3.6045 0
M  V30 2896 H 277.514 -2.08616 2.46331 0
M  V30 2897 H 276.566 -0.0710839 3.80334 0
M  V30 2898 H 277.878 -0.312481 4.9782 0
M  V30 2899 H 277.032 -2.61535 5.47434 0
M  V30 2900 H 275.771 -2.4431 4.22095 0
M  V30 2901 H 274.776 -0.508868 5.4744 0
M  V30 2902 H 276.001 -0.702882 6.75453 0
M  V30 2903 H 273.947 -2.79231 5.93604 0
M  V30 2904 H 273.864 -1.78739 7.34567 0
M  V30 2905 H 275.132 -2.96853 7.20763 0
M  V30 2906 N 279.361 -1.56624 0.175154 0
M  V30 2907 C 280.609 -1.96609 -0.467885 0
M  V30 2908 C 280.93 -1.06238 -1.63519 0
M  V30 2909 O 280.2 -0.129523 -1.95471 0
M  V30 2910 H 278.78 -0.726008 -0.175845 0
M  V30 2911 H 281.442 -1.93195 0.257234 0
M  V30 2912 H 280.538 -3.00989 -0.825342 0
M  V30 2913 N 280.839 0.0985539 -1.57292 0
M  V30 2914 C 282.079 0.808332 -1.87737 0
M  V30 2915 C 282.443 1.7607 -0.76572 0
M  V30 2916 O 283.644 2.51358 -0.952499 0
M  V30 2917 C 281.915 1.52093 -3.23423 0
M  V30 2918 S 283.474 2.26947 -3.75554 0
M  V30 2919 H 280.292 0.269377 -0.657995 0
M  V30 2920 H 282.894 0.0656269 -1.9539 0
M  V30 2921 H 281.598 0.81363 -4.02254 0
M  V30 2922 H 281.129 2.30361 -3.189 0
M  V30 2923 H 283.144 3.53027 -3.48692 0
M  V30 2924 N 282.317 1.53212 0.369288 0
M  V30 2925 C 283.28 1.7872 1.43498 0
M  V30 2926 C 284.28 0.657554 1.46741 0
M  V30 2927 O 285.47 0.925736 1.47566 0
M  V30 2928 C 282.602 1.90591 2.82645 0
M  V30 2929 H 283.795 2.73894 1.22156 0
M  V30 2930 H 281.348 1.44233 0.602203 0
M  V30 2931 H 282.083 0.974709 3.09306 0
M  V30 2932 H 281.868 2.72751 2.8169 0
M  V30 2933 H 283.358 2.11931 3.59826 0
M  V30 2934 N 283.795 -0.628877 1.44509 0
M  V30 2935 C 285.043 -1.38565 1.4712 0
M  V30 2936 C 285.364 -1.94712 0.105899 0
M  V30 2937 O 284.634 -1.75912 -0.862079 0
M  V30 2938 H 283.214 -0.514333 0.541729 0
M  V30 2939 H 285.876 -0.740018 1.80305 0
M  V30 2940 H 284.972 -2.21583 2.19789 0
M  V30 2941 N 285.273 -1.31445 -0.869486 0
M  V30 2942 C 286.521 -1.20918 -1.61936 0
M  V30 2943 C 286.842 0.232683 -1.93607 0
M  V30 2944 O 286.112 1.15352 -1.58338 0
M  V30 2945 H 284.692 -0.44454 -0.600328 0
M  V30 2946 H 287.354 -1.64776 -1.0409 0
M  V30 2947 H 286.45 -1.78124 -2.56278 0
M  V30 2948 N 286.751 1.08385 -1.14413 0
M  V30 2949 C 287.661 2.18856 -0.844951 0
M  V30 2950 C 288.677 1.73121 0.174668 0
M  V30 2951 O 289.853 2.014 0.00312857 0
M  V30 2952 C 286.918 3.45155 -0.32696 0
M  V30 2953 C 285.979 4.05513 -1.40916 0
M  V30 2954 C 285.212 5.25784 -0.915793 0
M  V30 2955 O 285.435 5.69884 0.242651 0
M  V30 2956 O 284.369 5.77545 -1.69487 0
M  V30 2957 H 288.195 2.46919 -1.76818 0
M  V30 2958 H 285.78 1.17524 -0.922411 0
M  V30 2959 H 287.662 4.21377 -0.0440211 0
M  V30 2960 H 286.337 3.18668 0.568539 0
M  V30 2961 H 285.244 3.30879 -1.74556 0
M  V30 2962 H 286.577 4.3625 -2.27919 0
M  V30 2963 N 288.23 0.939286 1.26551 0
M  V30 2964 C 289.177 0.446088 2.26448 0
M  V30 2965 C 290.147 -0.493234 1.58608 0
M  V30 2966 O 291.332 -0.409857 1.86346 0
M  V30 2967 C 288.472 -0.284375 3.43926 0
M  V30 2968 C 287.585 0.690399 4.26448 0
M  V30 2969 C 286.72 -0.0610712 5.31165 0
M  V30 2970 C 285.759 0.905649 6.05363 0
M  V30 2971 N 284.896 0.186055 7.01853 0
M  V30 2972 H 289.736 1.30291 2.68008 0
M  V30 2973 H 287.273 0.65371 1.31776 0
M  V30 2974 H 289.231 -0.724313 4.10864 0
M  V30 2975 H 287.861 -1.10535 3.03285 0
M  V30 2976 H 286.913 1.24885 3.59316 0
M  V30 2977 H 288.225 1.42873 4.779 0
M  V30 2978 H 287.379 -0.56038 6.04106 0
M  V30 2979 H 286.118 -0.832297 4.80546 0
M  V30 2980 H 285.123 1.4161 5.3125 0
M  V30 2981 H 286.348 1.67685 6.58072 0
M  V30 2982 H 284.294 -0.566714 6.53548 0
M  V30 2983 H 284.211 0.863752 7.51049 0
M  V30 2984 H 285.479 -0.292221 7.78952 0
M  V30 2985 N 289.708 -1.40897 0.706093 0
M  V30 2986 C 290.656 -2.32572 0.0361893 0
M  V30 2987 C 291.65 -1.51532 -0.757266 0
M  V30 2988 O 292.856 -1.67396 -0.661703 0
M  V30 2989 H 289.231 -0.751966 -0.00709935 0
M  V30 2990 H 291.202 -2.86733 0.826249 0
M  V30 2991 C 289.951 -3.36418 -0.87854 0
M  V30 2992 H 289.274 -3.98836 -0.277401 0
M  V30 2993 H 290.714 -4.0308 -1.3154 0
M  V30 2994 C 289.173 -2.71141 -1.99961 0
M  V30 2995 O 289.703 -2.56735 -3.0895 0
M  V30 2996 N 287.909 -2.29671 -1.78043 0
M  V30 2997 H 287.456 -2.41588 -0.894042 0
M  V30 2998 H 287.414 -1.86332 -2.53235 0
M  V30 2999 N 291.186 -0.45159 -1.50991 0
M  V30 3000 C 292.432 0.110237 -2.025 0
M  V30 3001 C 292.765 1.41109 -1.33424 0
M  V30 3002 O 292.04 1.89135 -0.453659 0
M  V30 3003 C 292.323 0.314271 -3.58726 0
M  V30 3004 C 292.176 -1.00623 -4.38401 0
M  V30 3005 C 293.495 1.07767 -4.26702 0
M  V30 3006 H 290.614 0.0385897 -0.735989 0
M  V30 3007 H 293.256 -0.593374 -1.80497 0
M  V30 3008 H 291.406 0.913601 -3.77605 0
M  V30 3009 H 293.078 -1.64064 -4.31139 0
M  V30 3010 H 291.321 -1.6075 -4.02917 0
M  V30 3011 H 291.992 -0.817341 -5.45915 0
M  V30 3012 H 294.468 0.56986 -4.12179 0
M  V30 3013 H 293.344 1.18921 -5.35863 0
M  V30 3014 H 293.605 2.10939 -3.88532 0
M  V30 3015 N 292.664 1.56529 -0.183458 0
M  V30 3016 C 293.594 2.21549 0.737456 0
M  V30 3017 C 294.575 1.17489 1.23005 0
M  V30 3018 O 295.76 1.45959 1.281 0
M  V30 3019 C 292.89 2.86575 1.96194 0
M  V30 3020 C 291.844 3.96778 1.60473 0
M  V30 3021 C 291.17 4.48911 2.90487 0
M  V30 3022 C 292.47 5.15767 0.823497 0
M  V30 3023 H 294.164 2.98761 0.195453 0
M  V30 3024 H 291.71 1.43702 0.0925686 0
M  V30 3025 H 293.663 3.30739 2.61131 0
M  V30 3026 H 292.387 2.06749 2.52828 0
M  V30 3027 H 291.046 3.53286 0.978997 0
M  V30 3028 H 290.694 3.65862 3.45186 0
M  V30 3029 H 290.394 5.23265 2.67335 0
M  V30 3030 H 291.918 4.95771 3.56432 0
M  V30 3031 H 293.332 5.56549 1.37571 0
M  V30 3032 H 291.729 5.96114 0.690551 0
M  V30 3033 H 292.799 4.84574 -0.177782 0
M  V30 3034 N 294.142 -0.090211 1.57342 0
M  V30 3035 C 295.391 -0.791531 1.8552 0
M  V30 3036 C 295.704 -1.79659 0.773441 0
M  V30 3037 O 296.91 -2.54616 0.942497 0
M  V30 3038 C 295.366 -1.45856 3.2902 0
M  V30 3039 C 294.974 -0.493017 4.45279 0
M  V30 3040 C 296.718 -2.14332 3.66418 0
M  V30 3041 C 294.625 -1.16491 5.79814 0
M  V30 3042 H 293.555 -0.299356 0.692027 0
M  V30 3043 H 296.206 -0.0445343 1.83446 0
M  V30 3044 H 294.588 -2.25318 3.2565 0
M  V30 3045 H 295.762 0.270464 4.60006 0
M  V30 3046 H 294.077 0.0863061 4.16311 0
M  V30 3047 H 296.674 -2.65344 4.64216 0
M  V30 3048 H 297.017 -2.93447 2.95287 0
M  V30 3049 H 297.55 -1.41724 3.71698 0
M  V30 3050 H 294.289 -0.41447 6.54188 0
M  V30 3051 H 293.809 -1.8997 5.68921 0
M  V30 3052 H 295.488 -1.69001 6.24538 0
M  V30 3053 N 295.62 -1.53406 -0.361157 0
M  V30 3054 C 296.867 -1.69802 -1.10333 0
M  V30 3055 C 297.195 -0.452087 -1.89173 0
M  V30 3056 O 296.45 0.566017 -1.87336 0
M  V30 3057 C 296.749 -2.90211 -2.08596 0
M  V30 3058 C 296.415 -4.26539 -1.46203 0
M  V30 3059 C 295.077 -4.6361 -1.28915 0
M  V30 3060 C 297.429 -5.113 -1.01101 0
M  V30 3061 C 294.757 -5.83075 -0.651157 0
M  V30 3062 C 297.109 -6.31415 -0.387007 0
M  V30 3063 C 295.773 -6.67195 -0.201657 0
M  V30 3064 H 295.043 -0.621351 -0.403737 0
M  V30 3065 H 297.69 -1.87598 -0.384609 0
M  V30 3066 H 295.995 -2.66946 -2.86788 0
M  V30 3067 H 297.692 -3.00091 -2.65982 0
M  V30 3068 H 294.282 -3.97352 -1.60653 0
M  V30 3069 H 298.466 -4.83206 -1.13249 0
M  V30 3070 H 293.722 -6.09385 -0.496006 0
M  V30 3071 H 297.896 -6.96394 -0.0293563 0
M  V30 3072 H 295.523 -7.59628 0.294766 0
M  V30 3073 N 297.098 0.621204 -1.44841 0
M  V30 3074 C 298.375 1.38 -1.38619 0
M  V30 3075 C 298.755 2.11041 -0.0498935 0
M  V30 3076 O 298.103 2.06992 0.967816 0
M  V30 3077 C 298.313 2.33817 -2.59096 0
M  V30 3078 C 299.661 2.96844 -3.03593 0
M  V30 3079 O 300.685 2.44141 -2.59371 0
M  V30 3080 O 299.544 3.92476 -3.80296 0
M  V30 3081 H 296.638 0.61811 -0.549426 0
M  V30 3082 H 299.184 0.645429 -1.56947 0
M  V30 3083 H 297.956 1.79012 -3.47952 0
M  V30 3084 H 297.579 3.14676 -2.43032 0
M  V30 3085 N 298.576 1.31904 0.862503 0
M  V30 3086 C 299.506 1.22782 1.98612 0
M  V30 3087 C 300.487 0.113362 1.69722 0
M  V30 3088 O 301.672 0.299218 1.91881 0
M  V30 3089 C 298.802 0.942058 3.34279 0
M  V30 3090 C 297.756 2.0169 3.77499 0
M  V30 3091 C 297.082 1.58369 5.10709 0
M  V30 3092 C 298.382 3.43096 3.93805 0
M  V30 3093 H 300.076 2.16788 2.06502 0
M  V30 3094 H 297.622 1.04366 0.992154 0
M  V30 3095 H 299.575 0.864818 4.1243 0
M  V30 3096 H 298.299 -0.0336603 3.26583 0
M  V30 3097 H 296.958 2.08416 3.01593 0
M  V30 3098 H 296.606 0.595628 4.99461 0
M  V30 3099 H 296.306 2.30279 5.40597 0
M  V30 3100 H 297.83 1.52067 5.91361 0
M  V30 3101 H 299.244 3.39003 4.62331 0
M  V30 3102 H 297.641 4.13288 4.35101 0
M  V30 3103 H 298.711 3.83334 2.96957 0
M  V30 3104 N 300.054 -1.07777 1.14986 0
M  V30 3105 C 301.302 -1.79934 0.920235 0
M  V30 3106 C 301.623 -1.86955 -0.554336 0
M  V30 3107 O 300.893 -1.36731 -1.40291 0
M  V30 3108 H 299.473 -0.666424 0.337473 0
M  V30 3109 H 302.135 -1.3027 1.44968 0
M  V30 3110 H 301.231 -2.82539 1.32583 0
M  V30 3111 N 301.532 -0.945985 -1.26051 0
M  V30 3112 C 302.78 -0.594941 -1.93145 0
M  V30 3113 C 303.101 0.86953 -1.7454 0
M  V30 3114 O 302.371 1.61838 -1.10387 0
M  V30 3115 H 300.951 -0.217044 -0.714773 0
M  V30 3116 H 303.613 -1.20235 -1.53393 0
M  V30 3117 H 302.709 -0.816835 -3.01221 0
M  V30 3118 N 303.011 1.40521 -0.713556 0
M  V30 3119 C 304.259 2.00527 -0.251692 0
M  V30 3120 C 304.58 1.56857 1.15848 0
M  V30 3121 O 303.85 0.807127 1.785 0
M  V30 3122 H 302.43 0.741551 -0.0900646 0
M  V30 3123 H 305.092 1.71887 -0.918733 0
M  V30 3124 H 304.188 3.10813 -0.283192 0
M  V30 3125 N 304.489 0.459591 1.5075 0
M  V30 3126 C 305.717 -0.0973749 2.06671 0
M  V30 3127 C 306.132 -1.34524 1.32472 0
M  V30 3128 O 305.489 -1.7827 0.390634 0
M  V30 3129 C 305.54 -0.39714 3.59312 0
M  V30 3130 O 305.261 0.801214 4.30711 0
M  V30 3131 C 306.762 -1.00234 4.31819 0
M  V30 3132 H 303.982 0.00195854 0.670997 0
M  V30 3133 H 306.526 0.645072 1.94059 0
M  V30 3134 H 304.681 -1.08951 3.71764 0
M  V30 3135 H 305.095 0.538857 5.21725 0
M  V30 3136 H 306.569 -1.16193 5.39632 0
M  V30 3137 H 307.046 -1.98939 3.91561 0
M  V30 3138 H 307.652 -0.348699 4.23868 0
M  V30 3139 N 305.967 -1.56429 0.191757 0
M  V30 3140 C 307.214 -1.97485 -0.447891 0
M  V30 3141 C 307.542 -1.07852 -1.61859 0
M  V30 3142 O 306.797 -0.116903 -1.95351 0
M  V30 3143 C 307.096 -3.44449 -0.953384 0
M  V30 3144 C 306.762 -4.50781 0.103586 0
M  V30 3145 C 305.424 -4.79584 0.394023 0
M  V30 3146 C 307.776 -5.1471 0.819946 0
M  V30 3147 C 305.104 -5.69607 1.40585 0
M  V30 3148 C 307.456 -6.05827 1.8209 0
M  V30 3149 C 306.12 -6.32987 2.11857 0
M  V30 3150 H 305.39 -0.722648 -0.163895 0
M  V30 3151 H 308.037 -1.89322 0.28802 0
M  V30 3152 H 306.342 -3.49666 -1.76751 0
M  V30 3153 H 308.039 -3.73569 -1.45765 0
M  V30 3154 H 304.629 -4.28394 -0.132951 0
M  V30 3155 H 308.813 -4.92552 0.608789 0
M  V30 3156 H 304.069 -5.88926 1.64243 0
M  V30 3157 H 308.243 -6.54424 2.38123 0
M  V30 3158 H 305.87 -7.02544 2.90407 0
M  V30 3159 N 307.445 0.0818655 -1.57387 0
M  V30 3160 C 308.722 0.815343 -1.77796 0
M  V30 3161 C 309.102 1.96289 -0.77679 0
M  V30 3162 O 308.45 2.27691 0.192106 0
M  V30 3163 C 308.66 1.29765 -3.23978 0
M  V30 3164 C 310.008 1.7351 -3.8753 0
M  V30 3165 O 311.032 1.39356 -3.27808 0
M  V30 3166 O 309.891 2.36708 -4.92576 0
M  V30 3167 H 306.985 0.389914 -0.729312 0
M  V30 3168 H 309.531 0.0627213 -1.69584 0
M  V30 3169 H 308.303 0.47608 -3.88393 0
M  V30 3170 H 307.926 2.11189 -3.36875 0
M  V30 3171 N 308.923 1.53595 0.353017 0
M  V30 3172 C 310.169 1.70638 1.09593 0
M  V30 3173 C 310.502 0.463286 1.88593 0
M  V30 3174 O 309.777 -0.539597 1.86865 0
M  V30 3175 C 310.06 2.96406 2.04489 0
M  V30 3176 C 309.913 4.30901 1.29014 0
M  V30 3177 C 311.232 3.17812 3.0444 0
M  V30 3178 H 308.351 0.620913 0.397034 0
M  V30 3179 H 310.993 1.86254 0.375446 0
M  V30 3180 H 309.143 2.83223 2.65927 0
M  V30 3181 H 310.815 4.55917 0.702638 0
M  V30 3182 H 309.058 4.29741 0.592071 0
M  V30 3183 H 309.729 5.1506 1.98537 0
M  V30 3184 H 312.205 3.30263 2.53112 0
M  V30 3185 H 311.081 4.07223 3.6805 0
M  V30 3186 H 311.342 2.33669 3.75301 0
M  V30 3187 N 310.401 -0.613514 1.45168 0
M  V30 3188 C 311.626 -1.40437 1.52618 0
M  V30 3189 C 312.051 -1.87438 0.157707 0
M  V30 3190 O 311.409 -1.59791 -0.856537 0
M  V30 3191 C 311.457 -2.58894 2.51011 0
M  V30 3192 O 310.561 -3.59326 2.02382 0
M  V30 3193 H 309.902 -0.419506 0.514695 0
M  V30 3194 H 312.432 -0.747215 1.90467 0
M  V30 3195 H 312.442 -3.06214 2.69624 0
M  V30 3196 H 311.117 -2.24032 3.50403 0
M  V30 3197 H 309.694 -3.18695 1.93618 0
M  V30 3198 N 311.879 -1.3236 -0.855495 0
M  V30 3199 C 313.128 -1.22226 -1.60448 0
M  V30 3200 C 313.441 0.214733 -1.94418 0
M  V30 3201 O 314.647 0.437917 -2.67945 0
M  V30 3202 C 313.103 -2.14063 -2.89318 0
M  V30 3203 C 312.711 -3.62839 -2.62777 0
M  V30 3204 C 314.455 -2.12764 -3.67331 0
M  V30 3205 C 312.362 -4.4664 -3.87643 0
M  V30 3206 H 311.292 -0.453904 -0.602069 0
M  V30 3207 H 313.943 -1.57314 -0.944698 0
M  V30 3208 H 312.325 -1.71889 -3.5675 0
M  V30 3209 H 313.499 -4.1335 -2.03662 0
M  V30 3210 H 311.814 -3.66261 -1.98096 0
M  V30 3211 H 314.411 -2.72611 -4.59987 0
M  V30 3212 H 314.754 -1.11841 -4.00995 0
M  V30 3213 H 315.287 -2.53214 -3.06802 0
M  V30 3214 H 312.026 -5.48373 -3.5912 0
M  V30 3215 H 311.546 -4.0088 -4.46156 0
M  V30 3216 H 313.225 -4.59597 -4.55389 0
M  V30 3217 N 313.357 1.07166 -1.15556 0
M  V30 3218 C 314.287 2.16403 -0.877046 0
M  V30 3219 C 315.268 1.69217 0.173111 0
M  V30 3220 O 316.453 1.94181 0.027084 0
M  V30 3221 C 313.583 3.45349 -0.367632 0
M  V30 3222 C 312.537 4.05995 -1.35468 0
M  V30 3223 C 311.863 5.30045 -0.704038 0
M  V30 3224 C 313.163 4.45804 -2.72132 0
M  V30 3225 H 314.857 2.39959 -1.79053 0
M  V30 3226 H 312.403 1.15325 -0.862331 0
M  V30 3227 H 314.356 4.21095 -0.160317 0
M  V30 3228 H 313.08 3.21385 0.581326 0
M  V30 3229 H 311.739 3.32296 -1.54839 0
M  V30 3230 H 311.387 5.02373 0.251128 0
M  V30 3231 H 311.087 5.71579 -1.36277 0
M  V30 3232 H 312.611 6.08495 -0.50654 0
M  V30 3233 H 314.025 5.12671 -2.56595 0
M  V30 3234 H 312.422 4.98296 -3.34397 0
M  V30 3235 H 313.492 3.57083 -3.28054 0
M  V30 3236 N 314.835 0.952656 1.25548 0
M  V30 3237 C 316.063 0.623496 1.97282 0
M  V30 3238 C 316.478 -0.803987 1.70826 0
M  V30 3239 O 315.835 -1.53755 0.983147 0
M  V30 3240 C 315.886 0.870209 3.5087 0
M  V30 3241 O 315.607 2.24156 3.76412 0
M  V30 3242 C 317.108 0.553164 4.39835 0
M  V30 3243 H 314.328 0.233931 0.628902 0
M  V30 3244 H 316.872 1.27649 1.59768 0
M  V30 3245 H 315.027 0.263652 3.86502 0
M  V30 3246 H 315.441 2.31021 4.70882 0
M  V30 3247 H 316.915 0.776342 5.46513 0
M  V30 3248 H 317.392 -0.512215 4.36203 0
M  V30 3249 H 317.998 1.13896 4.09766 0
M  V30 3250 N 316.313 -1.40141 0.720998 0
M  V30 3251 C 317.562 -2.0002 0.259804 0
M  V30 3252 C 317.875 -1.57839 -1.15526 0
M  V30 3253 O 319.081 -2.10455 -1.71525 0
M  V30 3254 C 317.537 -3.57516 0.413566 0
M  V30 3255 C 317.145 -4.08667 1.83562 0
M  V30 3256 C 318.889 -4.24498 0.0134387 0
M  V30 3257 C 316.796 -5.58686 1.93968 0
M  V30 3258 H 315.726 -0.748195 0.0933806 0
M  V30 3259 H 318.377 -1.60313 0.892866 0
M  V30 3260 H 316.759 -3.9495 -0.288169 0
M  V30 3261 H 317.933 -3.82598 2.56817 0
M  V30 3262 H 316.248 -3.543 2.1877 0
M  V30 3263 H 318.845 -5.34654 0.0703954 0
M  V30 3264 H 319.188 -4.03375 -1.02927 0
M  V30 3265 H 319.721 -3.92188 0.665815 0
M  V30 3266 H 316.46 -5.8467 2.96379 0
M  V30 3267 H 315.98 -5.86602 1.25131 0
M  V30 3268 H 317.659 -6.23875 1.71431 0
M  V30 3269 N 317.792 -0.46758 -1.50504 0
M  V30 3270 C 318.702 0.33382 -2.32213 0
M  V30 3271 C 319.718 0.999323 -1.42441 0
M  V30 3272 O 320.894 0.988068 -1.75497 0
M  V30 3273 C 317.959 1.4035 -3.17022 0
M  V30 3274 C 317.02 0.754961 -4.2261 0
M  V30 3275 C 316.253 1.77367 -5.03365 0
M  V30 3276 O 316.476 2.99976 -4.8515 0
M  V30 3277 O 315.41 1.34744 -5.86624 0
M  V30 3278 H 319.236 -0.334067 -3.01857 0
M  V30 3279 H 316.821 -0.229496 -1.47627 0
M  V30 3280 H 318.703 2.02318 -3.69656 0
M  V30 3281 H 317.378 2.05492 -2.5011 0
M  V30 3282 H 316.285 0.0964244 -3.73976 0
M  V30 3283 H 317.618 0.146545 -4.91982 0
M  V30 3284 N 319.27 1.56325 -0.20005 0
M  V30 3285 C 320.547 1.89484 0.48529 0
M  V30 3286 C 320.927 1.1143 1.79294 0
M  V30 3287 O 320.275 0.216919 2.27468 0
M  V30 3288 C 320.485 3.41923 0.699243 0
M  V30 3289 C 321.833 4.12256 1.01638 0
M  V30 3290 O 322.857 3.47402 0.786792 0
M  V30 3291 O 321.716 5.26887 1.45095 0
M  V30 3292 H 318.81 0.787144 0.253639 0
M  V30 3293 H 321.356 1.67985 -0.240633 0
M  V30 3294 H 320.128 3.90658 -0.224008 0
M  V30 3295 H 319.751 3.69131 1.47744 0
M  V30 3296 N 320.748 -0.0735177 1.57428 0
M  V30 3297 C 321.996 -0.771472 1.86796 0
M  V30 3298 C 322.317 -1.78201 0.791804 0
M  V30 3299 O 321.587 -1.95074 -0.179718 0
M  V30 3300 H 320.167 -0.28791 0.689287 0
M  V30 3301 H 322.829 -0.0500161 1.94836 0
M  V30 3302 H 321.925 -1.28874 2.8425 0
M  V30 3303 N 322.226 -1.5378 -0.344866 0
M  V30 3304 C 323.475 -1.7018 -1.08267 0
M  V30 3305 C 323.788 -0.471 -1.89845 0
M  V30 3306 O 324.994 -0.515917 -2.66553 0
M  V30 3307 C 323.45 -3.00923 -1.97417 0
M  V30 3308 C 323.058 -4.31335 -1.21053 0
M  V30 3309 C 324.802 -3.26688 -2.71063 0
M  V30 3310 C 322.709 -5.53153 -2.09225 0
M  V30 3311 H 321.639 -0.634138 -0.407903 0
M  V30 3312 H 324.29 -1.8028 -0.342246 0
M  V30 3313 H 322.672 -2.84676 -2.75274 0
M  V30 3314 H 323.846 -4.58281 -0.481159 0
M  V30 3315 H 322.161 -4.12173 -0.591813 0
M  V30 3316 H 324.758 -4.1489 -3.37299 0
M  V30 3317 H 325.101 -2.43639 -3.37558 0
M  V30 3318 H 325.634 -3.43705 -2.0028 0
M  V30 3319 H 322.373 -6.38741 -1.47274 0
M  V30 3320 H 321.893 -5.30458 -2.79955 0
M  V30 3321 H 323.572 -5.88744 -2.68308 0
M  V30 3322 N 323.704 0.605807 -1.45491 0
M  V30 3323 C 324.951 1.36476 -1.49601 0
M  V30 3324 C 325.279 1.94007 -0.138452 0
M  V30 3325 O 324.534 1.75638 0.863114 0
M  V30 3326 C 324.833 2.53012 -2.52428 0
M  V30 3327 C 324.499 2.13617 -3.97087 0
M  V30 3328 C 323.161 2.02587 -4.36477 0
M  V30 3329 C 325.513 1.82899 -4.88055 0
M  V30 3330 C 322.841 1.59064 -5.64726 0
M  V30 3331 C 325.193 1.40861 -6.16718 0
M  V30 3332 C 323.857 1.28391 -6.55036 0
M  V30 3333 H 323.127 0.499402 -0.547429 0
M  V30 3334 H 325.774 0.684546 -1.78847 0
M  V30 3335 H 324.079 3.26379 -2.16758 0
M  V30 3336 H 325.776 3.1124 -2.52845 0
M  V30 3337 H 322.366 2.23129 -3.65939 0
M  V30 3338 H 326.55 1.90317 -4.58359 0
M  V30 3339 H 321.806 1.48034 -5.93208 0
M  V30 3340 H 325.98 1.16138 -6.86648 0
M  V30 3341 H 323.607 0.944403 -7.54311 0
M  V30 3342 N 325.182 1.32811 0.848464 0
M  V30 3343 C 326.092 1.24278 1.98978 0
M  V30 3344 C 327.108 0.155176 1.73307 0
M  V30 3345 O 328.284 0.376999 1.9784 0
M  V30 3346 C 325.349 0.972444 3.32783 0
M  V30 3347 C 324.41 2.14911 3.71634 0
M  V30 3348 C 323.643 1.89157 4.99054 0
M  V30 3349 O 323.866 0.837165 5.64223 0
M  V30 3350 O 322.8 2.75433 5.35183 0
M  V30 3351 H 326.626 2.20238 2.09115 0
M  V30 3352 H 324.211 1.12762 0.980052 0
M  V30 3353 H 326.093 0.838432 4.12975 0
M  V30 3354 H 324.768 0.043051 3.23671 0
M  V30 3355 H 323.675 2.33862 2.91992 0
M  V30 3356 H 325.008 3.06151 3.85399 0
M  V30 3357 N 326.66 -1.06551 1.16123 0
M  V30 3358 C 327.906 -1.79567 0.94252 0
M  V30 3359 C 328.239 -1.86869 -0.528547 0
M  V30 3360 O 327.514 -1.35838 -1.39206 0
M  V30 3361 C 327.797 -3.24195 1.56747 0
M  V30 3362 C 327.65 -3.24989 3.10969 0
M  V30 3363 C 328.969 -4.21678 1.25998 0
M  V30 3364 H 326.088 -0.651883 0.343828 0
M  V30 3365 H 328.73 -1.2463 1.43413 0
M  V30 3366 H 326.88 -3.71107 1.14942 0
M  V30 3367 H 328.552 -2.86258 3.61737 0
M  V30 3368 H 326.795 -2.63716 3.44436 0
M  V30 3369 H 327.466 -4.27005 3.49815 0
M  V30 3370 H 329.942 -3.83196 1.62174 0
M  V30 3371 H 328.818 -5.21146 1.7233 0
M  V30 3372 H 329.079 -4.4174 0.178367 0
M  V30 3373 N 328.138 -0.959301 -1.25041 0
M  V30 3374 C 329.085 -0.482057 -2.2571 0
M  V30 3375 C 330.055 0.467939 -1.59372 0
M  V30 3376 O 331.24 0.380159 -1.86974 0
M  V30 3377 C 328.38 0.229623 -3.44335 0
M  V30 3378 C 327.493 -0.758156 -4.25295 0
M  V30 3379 C 326.628 -0.0234403 -5.31195 0
M  V30 3380 C 325.667 -1.00184 -6.03846 0
M  V30 3381 N 324.804 -0.29769 -7.01469 0
M  V30 3382 H 329.644 -1.34538 -2.65901 0
M  V30 3383 H 327.181 -0.674592 -1.3072 0
M  V30 3384 H 329.139 0.658856 -4.11965 0
M  V30 3385 H 327.769 1.05696 -3.05005 0
M  V30 3386 H 326.821 -1.30586 -3.57284 0
M  V30 3387 H 328.133 -1.50458 -4.75567 0
M  V30 3388 H 327.287 0.464201 -6.04922 0
M  V30 3389 H 326.026 0.755741 -4.81809 0
M  V30 3390 H 325.031 -1.50044 -5.2893 0
M  V30 3391 H 326.256 -1.78133 -6.55321 0
M  V30 3392 H 324.202 0.462668 -6.54366 0
M  V30 3393 H 324.119 -0.983128 -7.4958 0
M  V30 3394 H 325.387 0.16826 -7.79318 0
M  V30 3395 N 329.616 1.39756 -0.72842 0
M  V30 3396 C 330.841 2.05472 -0.282159 0
M  V30 3397 C 331.266 1.54549 1.07221 0
M  V30 3398 O 330.624 0.686372 1.67805 0
M  V30 3399 C 330.672 3.59462 -0.286264 0
M  V30 3400 O 329.776 4.05918 0.728298 0
M  V30 3401 H 329.117 0.651226 -0.129618 0
M  V30 3402 H 331.647 1.78915 -0.992499 0
M  V30 3403 H 331.657 4.07798 -0.128373 0
M  V30 3404 H 330.332 3.95889 -1.27456 0
M  V30 3405 H 328.909 3.69012 0.537081 0
M  V30 3406 N 331.094 0.475555 1.50254 0
M  V30 3407 C 332.322 -0.0754493 2.06762 0
M  V30 3408 C 332.737 -1.33111 1.33891 0
M  V30 3409 O 332.094 -1.77846 0.40952 0
M  V30 3410 C 332.145 -0.359008 3.59713 0
M  V30 3411 O 331.866 0.846851 4.29837 0
M  V30 3412 C 333.367 -0.956484 4.32858 0
M  V30 3413 H 330.587 0.00907525 0.670939 0
M  V30 3414 H 333.131 0.665618 1.93364 0
M  V30 3415 H 331.286 -1.05001 3.72899 0
M  V30 3416 H 331.7 0.594162 5.21124 0
M  V30 3417 H 333.174 -1.10463 5.40834 0
M  V30 3418 H 333.651 -1.94775 3.93649 0
M  V30 3419 H 334.257 -0.303723 4.24214 0
M  V30 3420 N 332.573 -1.56217 0.208337 0
M  V30 3421 C 333.536 -2.18455 -0.693557 0
M  V30 3422 C 334.536 -1.14268 -1.13135 0
M  V30 3423 O 335.726 -1.39577 -1.0423 0
M  V30 3424 C 332.858 -2.79727 -1.94848 0
M  V30 3425 H 334.051 -2.99519 -0.15114 0
M  V30 3426 H 331.604 -1.56245 -0.041287 0
M  V30 3427 H 332.339 -2.02497 -2.53309 0
M  V30 3428 H 332.124 -3.56009 -1.64316 0
M  V30 3429 H 333.614 -3.27475 -2.59133 0
M  V30 3430 N 334.051 0.0651679 -1.57465 0
M  V30 3431 C 335.299 0.761555 -1.87202 0
M  V30 3432 C 335.62 1.77778 -0.801243 0
M  V30 3433 O 334.89 1.95166 0.16937 0
M  V30 3434 H 333.47 0.284251 -0.690804 0
M  V30 3435 H 336.132 0.0396827 -1.9486 0
M  V30 3436 H 335.228 1.27365 -2.84929 0
M  V30 3437 N 335.529 1.53961 0.336706 0
M  V30 3438 C 336.806 1.62171 1.09361 0
M  V30 3439 C 337.186 0.447263 2.06307 0
M  V30 3440 O 336.534 -0.559802 2.21537 0
M  V30 3441 C 336.744 2.98565 1.80721 0
M  V30 3442 C 338.092 3.54157 2.34218 0
M  V30 3443 O 339.116 3.00784 1.90807 0
M  V30 3444 O 337.975 4.47528 3.13657 0
M  V30 3445 H 335.069 0.6562 0.503319 0
M  V30 3446 H 337.615 1.66307 0.33765 0
M  V30 3447 H 336.387 3.75482 1.10132 0
M  V30 3448 H 336.01 2.9805 2.63158 0
M  V30 3449 N 337.007 -0.598083 1.45811 0
M  V30 3450 C 338.235 -1.38322 1.53866 0
M  V30 3451 C 338.65 -1.87992 0.174479 0
M  V30 3452 O 338.007 -1.62756 -0.825627 0
M  V30 3453 C 338.058 -2.58125 2.53089 0
M  V30 3454 O 337.779 -2.10516 3.84206 0
M  V30 3455 C 339.28 -3.50869 2.70935 0
M  V30 3456 H 336.5 -0.423093 0.520801 0
M  V30 3457 H 339.044 -0.728527 1.91083 0
M  V30 3458 H 337.199 -3.19615 2.18917 0
M  V30 3459 H 337.613 -2.88425 4.38077 0
M  V30 3460 H 339.087 -4.31451 3.44317 0
M  V30 3461 H 339.564 -4.01822 1.77301 0
M  V30 3462 H 340.17 -2.95225 3.06141 0
M  V30 3463 N 338.485 -1.33259 -0.841409 0
M  V30 3464 C 339.435 -1.19872 -1.93945 0
M  V30 3465 C 340.419 -0.102269 -1.60575 0
M  V30 3466 O 341.611 -0.330114 -1.73894 0
M  V30 3467 C 338.74 -0.937517 -3.30251 0
M  V30 3468 C 337.826 -2.07629 -3.69799 0
M  V30 3469 N 338.217 -3.32604 -3.81062 0
M  V30 3470 C 336.515 -1.98242 -3.9952 0
M  V30 3471 C 337.216 -4.07275 -4.15333 0
M  V30 3472 N 336.192 -3.35691 -4.27566 0
M  V30 3473 H 339.994 -2.14604 -2.00805 0
M  V30 3474 H 337.508 -1.2523 -1.03398 0
M  V30 3475 H 339.505 -0.822545 -4.08705 0
M  V30 3476 H 338.165 0.00128798 -3.247 0
M  V30 3477 H 339.176 -3.67382 -3.65035 0
M  V30 3478 H 335.853 -1.12005 -4.02195 0
M  V30 3479 H 337.243 -5.1511 -4.31406 0
M  V30 3480 N 339.963 1.05934 -1.16686 0
M  V30 3481 C 340.893 2.1546 -0.899949 0
M  V30 3482 C 341.874 1.69391 0.155154 0
M  V30 3483 O 343.059 1.94199 0.00648693 0
M  V30 3484 C 340.189 3.44939 -0.404241 0
M  V30 3485 C 339.143 4.04536 -1.39767 0
M  V30 3486 C 338.469 5.29268 -0.760216 0
M  V30 3487 C 339.769 4.42893 -2.76845 0
M  V30 3488 H 341.463 2.38046 -1.81588 0
M  V30 3489 H 339.009 1.14404 -0.874514 0
M  V30 3490 H 340.962 4.20901 -0.204971 0
M  V30 3491 H 339.686 3.21983 0.547206 0
M  V30 3492 H 338.345 3.30635 -1.58355 0
M  V30 3493 H 337.993 5.02611 0.197831 0
M  V30 3494 H 337.693 5.70101 -1.42332 0
M  V30 3495 H 339.217 6.07924 -0.57105 0
M  V30 3496 H 340.631 5.09921 -2.62019 0
M  V30 3497 H 339.028 4.94721 -3.39663 0
M  V30 3498 H 340.098 3.53584 -3.31823 0
M  V30 3499 N 341.441 0.965919 1.2453 0
M  V30 3500 C 342.689 0.625593 1.92174 0
M  V30 3501 C 343.01 -0.841652 1.75901 0
M  V30 3502 O 342.28 -1.60061 1.12948 0
M  V30 3503 H 340.86 0.228388 0.71123 0
M  V30 3504 H 343.522 1.2266 1.51461 0
M  V30 3505 H 342.618 0.864653 2.99884 0
M  V30 3506 N 342.919 -1.39368 0.735821 0
M  V30 3507 C 344.167 -2.00101 0.283562 0
M  V30 3508 C 344.488 -1.5868 -1.13338 0
M  V30 3509 O 343.758 -0.835423 -1.77193 0
M  V30 3510 H 342.338 -0.740024 0.101851 0
M  V30 3511 H 345 -1.70404 0.945962 0
M  V30 3512 H 344.096 -3.10323 0.332604 0
M  V30 3513 N 344.397 -0.483516 -1.5 0
M  V30 3514 C 345.307 0.309172 -2.32554 0
M  V30 3515 C 346.323 0.984159 -1.43493 0
M  V30 3516 O 347.499 0.969399 -1.76535 0
M  V30 3517 C 344.564 1.36979 -3.18493 0
M  V30 3518 C 343.625 0.710095 -4.23387 0
M  V30 3519 C 342.858 1.72018 -5.05218 0
M  V30 3520 O 343.081 2.94813 -4.88305 0
M  V30 3521 O 342.015 1.28515 -5.8802 0
M  V30 3522 H 345.841 -0.366064 -3.01486 0
M  V30 3523 H 343.426 -0.24514 -1.47375 0
M  V30 3524 H 345.308 1.98385 -3.71781 0
M  V30 3525 H 343.983 2.02828 -2.52275 0
M  V30 3526 H 342.89 0.0567539 -3.74057 0
M  V30 3527 H 344.223 0.0943557 -4.9211 0
M  V30 3528 N 345.875 1.56104 -0.216619 0
M  V30 3529 C 347.152 1.89988 0.465165 0
M  V30 3530 C 347.532 1.13326 1.78102 0
M  V30 3531 O 346.88 0.241033 2.27225 0
M  V30 3532 C 347.09 3.42646 0.662939 0
M  V30 3533 C 348.438 4.13311 0.972602 0
M  V30 3534 O 349.462 3.48217 0.749901 0
M  V30 3535 O 348.321 5.28396 1.39499 0
M  V30 3536 H 345.415 0.78979 0.245276 0
M  V30 3537 H 347.961 1.67721 -0.258436 0
M  V30 3538 H 346.733 3.90399 -0.26543 0
M  V30 3539 H 346.356 3.70677 1.43821 0
M  V30 3540 N 347.353 -0.0568162 1.57498 0
M  V30 3541 C 348.6 -0.753104 1.87975 0
M  V30 3542 C 348.928 -1.76815 0.81035 0
M  V30 3543 O 348.183 -1.94756 -0.19199 0
M  V30 3544 C 348.482 -1.48359 3.25153 0
M  V30 3545 C 348.148 -0.60713 4.46794 0
M  V30 3546 C 346.81 -0.365642 4.79809 0
M  V30 3547 C 349.162 -0.000305978 5.212 0
M  V30 3548 C 346.49 0.491905 5.84634 0
M  V30 3549 C 348.842 0.844781 6.26934 0
M  V30 3550 C 347.506 1.096 6.58441 0
M  V30 3551 H 346.776 -0.27558 0.687849 0
M  V30 3552 H 349.423 -0.0135173 1.91495 0
M  V30 3553 H 347.728 -2.29577 3.17492 0
M  V30 3554 H 349.425 -2.02739 3.45974 0
M  V30 3555 H 346.015 -0.805487 4.20963 0
M  V30 3556 H 350.199 -0.173961 4.95995 0
M  V30 3557 H 345.455 0.695131 6.07436 0
M  V30 3558 H 349.629 1.32165 6.83744 0
M  V30 3559 H 347.256 1.76224 7.39492 0
M  V30 3560 N 348.832 -1.54138 -0.328536 0
M  V30 3561 C 350.109 -1.62749 -1.08499 0
M  V30 3562 C 350.489 -0.458198 -2.06067 0
M  V30 3563 O 349.837 0.548046 -2.2183 0
M  V30 3564 C 350.047 -2.99519 -1.79135 0
M  V30 3565 C 351.395 -3.55394 -2.32337 0
M  V30 3566 O 352.419 -3.01792 -1.89209 0
M  V30 3567 O 351.278 -4.49186 -3.11279 0
M  V30 3568 H 348.372 -0.65886 -0.499832 0
M  V30 3569 H 350.918 -1.66484 -0.328826 0
M  V30 3570 H 349.69 -3.76061 -1.08139 0
M  V30 3571 H 349.313 -2.99441 -2.61574 0
M  V30 3572 N 350.31 0.590341 -1.46126 0
M  V30 3573 C 351.258 1.72105 -1.5647 0
M  V30 3574 C 352.252 1.63756 -0.433612 0
M  V30 3575 O 353.458 1.69342 -0.610194 0
M  V30 3576 H 349.833 0.568889 -0.491802 0
M  V30 3577 H 351.804 1.6051 -2.51553 0
M  V30 3578 C 350.553 3.10493 -1.56491 0
M  V30 3579 H 349.876 3.17583 -2.4286 0
M  V30 3580 H 351.316 3.8939 -1.67785 0
M  V30 3581 C 349.775 3.3563 -0.292231 0
M  V30 3582 O 350.305 3.96875 0.620739 0
M  V30 3583 N 348.511 2.90026 -0.182523 0
M  V30 3584 H 348.058 2.40367 -0.926356 0
M  V30 3585 H 348.016 3.07218 0.668152 0
M  V30 3586 N 351.788 1.33704 0.83433 0
M  V30 3587 C 353.204 1.13137 1.12571 0
M  V30 3588 C 353.404 -0.0747261 2.01361 0
M  V30 3589 O 352.46 -0.753647 2.4099 0
M  V30 3590 C 353.773 2.42105 1.78342 0
M  V30 3591 C 355.321 2.48054 1.90888 0
M  V30 3592 C 355.796 3.76995 2.60075 0
M  V30 3593 N 357.287 3.78092 2.67584 0
M  V30 3594 C 358.022 4.74574 3.21818 0
M  V30 3595 N 357.518 5.81434 3.76705 0
M  V30 3596 N 359.311 4.62044 3.20112 0
M  V30 3597 H 351.462 2.11 0.243489 0
M  V30 3598 H 353.725 0.932532 0.17055 0
M  V30 3599 H 353.431 3.30391 1.20561 0
M  V30 3600 H 353.305 2.54594 2.7832 0
M  V30 3601 H 355.692 1.60215 2.47821 0
M  V30 3602 H 355.773 2.39502 0.898459 0
M  V30 3603 H 355.417 4.65219 2.03799 0
M  V30 3604 H 355.347 3.82825 3.61597 0
M  V30 3605 H 357.838 3.00865 2.28667 0
M  V30 3606 H 358.151 6.51084 4.16305 0
M  V30 3607 H 356.496 5.85163 3.7498 0
M  V30 3608 H 359.687 3.77716 2.76493 0
M  V30 3609 H 359.86 5.37406 3.62076 0
M  V30 3610 N 353.266 -1.05314 1.17247 0
M  V30 3611 C 354.199 -2.12512 0.831507 0
M  V30 3612 C 355.177 -1.61351 -0.201168 0
M  V30 3613 O 356.361 -1.88317 -0.0829831 0
M  V30 3614 C 353.488 -3.37848 0.24015 0
M  V30 3615 C 352.534 -4.07832 1.24801 0
M  V30 3616 S 353.367 -4.56537 2.79882 0
M  V30 3617 C 354.523 -5.85122 2.22223 0
M  V30 3618 H 354.756 -2.41106 1.7394 0
M  V30 3619 H 352.289 -1.17896 0.996988 0
M  V30 3620 H 354.247 -4.10391 -0.0945588 0
M  V30 3621 H 352.908 -3.07392 -0.645668 0
M  V30 3622 H 352.101 -4.97883 0.78287 0
M  V30 3623 H 351.703 -3.41348 1.52831 0
M  V30 3624 H 353.995 -6.58408 1.59703 0
M  V30 3625 H 354.938 -6.36381 3.10523 0
M  V30 3626 H 355.346 -5.39626 1.65722 0
M  V30 3627 N 354.744 -0.972509 -1.24016 0
M  V30 3628 C 355.99 -0.637978 -1.92504 0
M  V30 3629 C 356.323 0.825383 -1.75787 0
M  V30 3630 O 355.598 1.59442 -1.11393 0
M  V30 3631 C 355.881 -1.01942 -3.45369 0
M  V30 3632 C 355.734 -2.53983 -3.71231 0
M  V30 3633 C 357.053 -0.55751 -4.36555 0
M  V30 3634 H 354.172 -0.233248 -0.699117 0
M  V30 3635 H 356.814 -1.21238 -1.46292 0
M  V30 3636 H 354.964 -0.530656 -3.84859 0
M  V30 3637 H 356.636 -3.10374 -3.41271 0
M  V30 3638 H 354.879 -2.96968 -3.16216 0
M  V30 3639 H 355.55 -2.75723 -4.78206 0
M  V30 3640 H 358.026 -0.977029 -4.04467 0
M  V30 3641 H 356.902 -0.85292 -5.42233 0
M  V30 3642 H 357.163 0.542328 -4.38761 0
M  V30 3643 N 356.222 1.38976 -0.743202 0
M  V30 3644 C 357.447 2.05161 -0.303936 0
M  V30 3645 C 357.872 1.55677 1.05576 0
M  V30 3646 O 357.23 0.704131 1.67068 0
M  V30 3647 C 357.278 3.59138 -0.324373 0
M  V30 3648 O 356.382 4.06668 0.685204 0
M  V30 3649 H 355.723 0.649815 -0.136518 0
M  V30 3650 H 358.253 1.77852 -1.01142 0
M  V30 3651 H 358.263 4.07639 -0.171618 0
M  V30 3652 H 356.938 3.94515 -1.31647 0
M  V30 3653 H 355.515 3.69561 0.497913 0
M  V30 3654 N 357.7 0.491464 1.49741 0
M  V30 3655 C 358.65 -0.311086 2.25868 0
M  V30 3656 C 359.634 -0.943857 1.30308 0
M  V30 3657 O 360.826 -0.853035 1.55088 0
M  V30 3658 C 357.955 -1.38059 3.14316 0
M  V30 3659 C 357.041 -0.754541 4.17334 0
M  V30 3660 N 357.432 0.137216 5.05614 0
M  V30 3661 C 355.73 -1.01621 4.34269 0
M  V30 3662 C 356.431 0.494614 5.79593 0
M  V30 3663 N 355.407 -0.135169 5.43432 0
M  V30 3664 H 359.209 0.37555 2.91491 0
M  V30 3665 H 356.723 0.306917 1.59473 0
M  V30 3666 H 358.72 -1.96891 3.67477 0
M  V30 3667 H 357.38 -2.06901 2.50244 0
M  V30 3668 H 358.391 0.50741 5.15408 0
M  V30 3669 H 355.068 -1.69808 3.81407 0
M  V30 3670 H 356.458 1.2236 6.60665 0
M  V30 3671 N 359.178 -1.55987 0.224894 0
M  V30 3672 C 360.108 -2.23426 -0.678457 0
M  V30 3673 C 361.089 -1.20709 -1.19847 0
M  V30 3674 O 362.274 -1.49304 -1.24186 0
M  V30 3675 C 359.404 -2.91676 -1.88527 0
M  V30 3676 C 358.358 -4.00893 -1.49896 0
M  V30 3677 C 357.684 -4.56455 -2.78483 0
M  V30 3678 C 358.984 -5.17769 -0.686461 0
M  V30 3679 H 360.678 -2.99175 -0.116173 0
M  V30 3680 H 358.224 -1.43897 -0.054436 0
M  V30 3681 H 360.177 -3.37547 -2.5227 0
M  V30 3682 H 358.901 -2.1338 -2.47258 0
M  V30 3683 H 357.56 -3.55758 -0.884985 0
M  V30 3684 H 357.208 -3.74886 -3.35365 0
M  V30 3685 H 356.908 -5.30169 -2.53368 0
M  V30 3686 H 358.432 -5.05047 -3.43162 0
M  V30 3687 H 359.846 -5.60001 -1.22767 0
M  V30 3688 H 358.243 -5.97735 -0.532259 0
M  V30 3689 H 359.313 -4.83932 0.306196 0
M  V30 3690 N 360.656 0.0484629 -1.57525 0
M  V30 3691 C 361.619 1.03956 -2.04269 0
M  V30 3692 C 362.619 1.30211 -0.943496 0
M  V30 3693 O 363.809 1.25539 -1.20771 0
M  V30 3694 C 360.941 2.37742 -2.44319 0
M  V30 3695 H 362.134 0.636182 -2.93075 0
M  V30 3696 H 359.687 0.294811 -1.53494 0
M  V30 3697 H 360.422 2.82866 -1.5861 0
M  V30 3698 H 360.207 2.20021 -3.24551 0
M  V30 3699 H 361.697 3.08936 -2.80978 0
M  V30 3700 N 362.134 1.5431 0.320358 0
M  V30 3701 C 363.044 1.86946 1.41734 0
M  V30 3702 C 364.06 0.761689 1.56443 0
M  V30 3703 O 365.236 1.05629 1.71477 0
M  V30 3704 C 362.301 2.09293 2.76401 0
M  V30 3705 C 361.362 3.33082 2.70841 0
M  V30 3706 C 360.595 3.54353 3.99086 0
M  V30 3707 O 360.818 2.79002 4.97508 0
M  V30 3708 O 359.752 4.47838 4.0215 0
M  V30 3709 H 363.578 2.80232 1.17062 0
M  V30 3710 H 361.163 1.40255 0.514673 0
M  V30 3711 H 363.045 2.25303 3.56113 0
M  V30 3712 H 361.72 1.19194 3.00956 0
M  V30 3713 H 360.627 3.22454 1.89668 0
M  V30 3714 H 361.96 4.23249 2.5124 0
M  V30 3715 N 363.613 -0.582584 1.46437 0
M  V30 3716 C 364.523 -1.71949 1.59595 0
M  V30 3717 C 365.539 -1.67264 0.479443 0
M  V30 3718 O 366.715 -1.87171 0.743579 0
M  V30 3719 C 363.78 -3.08452 1.58298 0
M  V30 3720 C 362.841 -3.244 2.81182 0
M  V30 3721 C 362.074 -4.54391 2.79937 0
M  V30 3722 O 362.297 -5.38287 1.8869 0
M  V30 3723 O 361.231 -4.73588 3.71481 0
M  V30 3724 H 365.057 -1.63795 2.55744 0
M  V30 3725 H 362.642 -0.749643 1.29231 0
M  V30 3726 H 364.524 -3.89732 1.60271 0
M  V30 3727 H 363.199 -3.17043 0.653094 0
M  V30 3728 H 362.106 -2.42613 2.84763 0
M  V30 3729 H 363.439 -3.20699 3.7338 0
M  V30 3730 N 365.091 -1.34144 -0.827227 0
M  V30 3731 C 366.338 -1.26258 -1.58319 0
M  V30 3732 C 366.666 0.168595 -1.93768 0
M  V30 3733 O 365.921 1.12877 -1.59866 0
M  V30 3734 C 366.22 -2.09464 -2.89585 0
M  V30 3735 C 365.886 -3.58521 -2.73448 0
M  V30 3736 C 364.548 -3.99155 -2.68754 0
M  V30 3737 C 366.9 -4.53189 -2.57428 0
M  V30 3738 C 364.228 -5.32656 -2.45957 0
M  V30 3739 C 366.58 -5.86864 -2.36163 0
M  V30 3740 C 365.244 -6.26667 -2.29879 0
M  V30 3741 H 364.514 -0.462013 -0.579332 0
M  V30 3742 H 367.161 -1.65845 -0.95748 0
M  V30 3743 H 365.466 -1.62692 -3.56425 0
M  V30 3744 H 367.163 -2.00712 -3.47154 0
M  V30 3745 H 363.753 -3.26264 -2.77939 0
M  V30 3746 H 367.937 -4.22696 -2.60081 0
M  V30 3747 H 363.193 -5.62519 -2.39546 0
M  V30 3748 H 367.367 -6.59813 -2.22754 0
M  V30 3749 H 364.994 -7.30049 -2.11975 0
M  V30 3750 N 366.569 1.04691 -1.17803 0
M  V30 3751 C 367.516 2.12557 -0.899343 0
M  V30 3752 C 368.486 1.65339 0.158771 0
M  V30 3753 O 369.671 1.90789 0.0204797 0
M  V30 3754 C 366.811 3.42481 -0.424315 0
M  V30 3755 C 365.924 4.03346 -1.54713 0
M  V30 3756 C 365.059 5.21208 -1.02546 0
M  V30 3757 C 364.098 5.74089 -2.12339 0
M  V30 3758 N 363.235 6.83247 -1.61612 0
M  V30 3759 H 368.075 2.35734 -1.823 0
M  V30 3760 H 365.612 1.1564 -0.909159 0
M  V30 3761 H 367.57 4.16996 -0.130421 0
M  V30 3762 H 366.2 3.19471 0.462377 0
M  V30 3763 H 365.252 3.2622 -1.95664 0
M  V30 3764 H 366.564 4.38628 -2.37501 0
M  V30 3765 H 365.718 6.02812 -0.685718 0
M  V30 3766 H 364.457 4.87414 -0.167084 0
M  V30 3767 H 363.462 4.91111 -2.47165 0
M  V30 3768 H 364.687 6.0993 -2.98601 0
M  V30 3769 H 362.633 6.5134 -0.780533 0
M  V30 3770 H 362.55 7.17559 -2.38003 0
M  V30 3771 H 363.818 7.68491 -1.30545 0
M  V30 3772 N 368.047 0.979072 1.23499 0
M  V30 3773 C 369.463 0.687475 1.44034 0
M  V30 3774 C 369.663 -0.746801 1.8715 0
M  V30 3775 O 368.719 -1.51939 2.0167 0
M  V30 3776 C 370.032 1.68127 2.49307 0
M  V30 3777 C 371.58 1.69516 2.63122 0
M  V30 3778 C 372.055 2.67723 3.71603 0
M  V30 3779 N 373.546 2.66233 3.79044 0
M  V30 3780 C 374.281 3.38891 4.62537 0
M  V30 3781 N 373.777 4.21103 5.50131 0
M  V30 3782 N 375.57 3.27661 4.56721 0
M  V30 3783 H 367.721 1.90559 0.938135 0
M  V30 3784 H 369.984 0.821051 0.473897 0
M  V30 3785 H 369.69 2.70693 2.2454 0
M  V30 3786 H 369.564 1.46306 3.4767 0
M  V30 3787 H 371.951 0.676561 2.8724 0
M  V30 3788 H 372.032 1.95404 1.65079 0
M  V30 3789 H 371.676 3.69724 3.48233 0
M  V30 3790 H 371.606 2.39111 4.69184 0
M  V30 3791 H 374.097 2.06568 3.16446 0
M  V30 3792 H 374.41 4.73403 6.10827 0
M  V30 3793 H 372.755 4.25195 5.49759 0
M  V30 3794 H 375.946 2.62887 3.87309 0
M  V30 3795 H 376.119 3.84547 5.21562 0
M  V30 3796 N 369.525 -1.3858 0.750561 0
M  V30 3797 C 370.472 -2.30483 0.120835 0
M  V30 3798 C 371.442 -1.50022 -0.712923 0
M  V30 3799 O 372.627 -1.78662 -0.669676 0
M  V30 3800 C 369.767 -3.36431 -0.768666 0
M  V30 3801 C 368.88 -4.31927 0.0793922 0
M  V30 3802 C 368.015 -5.24944 -0.81283 0
M  V30 3803 C 367.054 -6.12088 0.0390447 0
M  V30 3804 N 366.191 -6.97412 -0.809969 0
M  V30 3805 H 371.031 -2.83761 0.91015 0
M  V30 3806 H 368.568 -1.39707 0.460463 0
M  V30 3807 H 370.526 -3.96462 -1.29898 0
M  V30 3808 H 369.156 -2.8457 -1.5238 0
M  V30 3809 H 368.208 -3.73382 0.727303 0
M  V30 3810 H 369.52 -4.93319 0.737401 0
M  V30 3811 H 368.674 -5.90078 -1.41042 0
M  V30 3812 H 367.413 -4.63911 -1.50458 0
M  V30 3813 H 366.418 -5.45952 0.649328 0
M  V30 3814 H 367.643 -6.75189 0.727809 0
M  V30 3815 H 365.589 -6.38931 -1.48672 0
M  V30 3816 H 365.506 -7.55712 -0.208789 0
M  V30 3817 H 366.774 -7.66959 -1.39263 0
M  V30 3818 N 371.003 -0.499398 -1.49478 0
M  V30 3819 C 371.953 0.299103 -2.2603 0
M  V30 3820 C 372.937 0.936934 -1.30807 0
M  V30 3821 O 374.129 0.844798 -1.55538 0
M  V30 3822 C 371.258 1.36391 -3.15044 0
M  V30 3823 C 370.344 0.732398 -4.17728 0
M  V30 3824 N 370.735 -0.164028 -5.05534 0
M  V30 3825 C 369.033 0.993162 -4.34801 0
M  V30 3826 C 369.734 -0.525345 -5.79323 0
M  V30 3827 N 368.71 0.106348 -5.43496 0
M  V30 3828 H 372.512 -0.391003 -2.91287 0
M  V30 3829 H 370.026 -0.31537 -1.59308 0
M  V30 3830 H 372.023 1.94939 -3.68516 0
M  V30 3831 H 370.683 2.05571 -2.51338 0
M  V30 3832 H 371.694 -0.534736 -5.15132 0
M  V30 3833 H 368.371 1.67783 -3.82302 0
M  V30 3834 H 369.761 -1.25862 -6.60006 0
M  V30 3835 N 372.481 1.55866 -0.233164 0
M  V30 3836 C 373.428 2.20796 0.67215 0
M  V30 3837 C 374.398 1.16731 1.18166 0
M  V30 3838 O 375.583 1.45129 1.23864 0
M  V30 3839 C 372.723 2.90072 1.86955 0
M  V30 3840 C 371.836 4.08759 1.39786 0
M  V30 3841 C 370.971 4.65787 2.55374 0
M  V30 3842 C 370.01 5.76752 2.04998 0
M  V30 3843 N 369.147 6.28021 3.13901 0
M  V30 3844 H 373.987 2.9779 0.111749 0
M  V30 3845 H 371.524 1.47036 0.0434007 0
M  V30 3846 H 373.482 3.28428 2.57276 0
M  V30 3847 H 372.112 2.15575 2.40265 0
M  V30 3848 H 371.164 3.7581 0.589173 0
M  V30 3849 H 372.476 4.88906 0.98856 0
M  V30 3850 H 371.63 5.06646 3.33758 0
M  V30 3851 H 370.369 3.84828 2.99598 0
M  V30 3852 H 369.374 5.35383 1.25079 0
M  V30 3853 H 370.599 6.59553 1.61759 0
M  V30 3854 H 368.545 5.49971 3.57586 0
M  V30 3855 H 368.462 7.03323 2.7726 0
M  V30 3856 H 369.73 6.73538 3.92386 0
M  V30 3857 N 373.959 -0.0401083 1.57549 0
M  V30 3858 C 374.906 -1.04413 2.05831 0
M  V30 3859 C 375.876 -1.36585 0.945184 0
M  V30 3860 O 377.061 -1.47112 1.21502 0
M  V30 3861 C 374.201 -2.34336 2.53339 0
M  V30 3862 C 373.314 -2.08419 3.78398 0
M  V30 3863 C 372.449 -3.32133 4.14561 0
M  V30 3864 C 371.488 -3.01721 5.3257 0
M  V30 3865 N 370.625 -4.17855 5.64218 0
M  V30 3866 H 375.465 -0.625442 2.91363 0
M  V30 3867 H 373.002 -0.297218 1.44066 0
M  V30 3868 H 374.96 -3.10234 2.78946 0
M  V30 3869 H 373.59 -2.73948 1.7074 0
M  V30 3870 H 372.642 -1.23069 3.59942 0
M  V30 3871 H 373.954 -1.81978 4.64419 0
M  V30 3872 H 373.108 -4.16406 4.41238 0
M  V30 3873 H 371.847 -3.61678 3.2717 0
M  V30 3874 H 370.852 -2.15849 5.05657 0
M  V30 3875 H 372.077 -2.73466 6.21605 0
M  V30 3876 H 370.023 -4.47372 4.79786 0
M  V30 3877 H 369.94 -3.94798 6.44725 0
M  V30 3878 H 371.208 -5.03033 5.95465 0
M  V30 3879 N 375.437 -1.54477 -0.31217 0
M  V30 3880 C 376.714 -1.63891 -1.06767 0
M  V30 3881 C 377.094 -0.480028 -2.0557 0
M  V30 3882 O 376.442 0.524487 -2.22399 0
M  V30 3883 C 376.652 -3.01402 -1.75948 0
M  V30 3884 C 378 -3.57838 -2.28554 0
M  V30 3885 O 379.024 -3.03782 -1.85998 0
M  V30 3886 O 377.883 -4.52462 -3.06497 0
M  V30 3887 H 374.977 -0.664125 -0.492816 0
M  V30 3888 H 377.523 -1.66823 -0.311149 0
M  V30 3889 H 376.295 -3.77187 -1.04144 0
M  V30 3890 H 375.918 -3.02199 -2.58383 0
M  V30 3891 N 376.915 0.57481 -1.46744 0
M  V30 3892 C 378.164 1.32898 -1.51727 0
M  V30 3893 C 378.477 1.948 -0.176692 0
M  V30 3894 O 379.683 2.71299 -0.104385 0
M  V30 3895 C 378.139 2.40901 -2.67385 0
M  V30 3896 C 377.747 1.85266 -4.07898 0
M  V30 3897 C 379.491 3.17609 -2.81646 0
M  V30 3898 C 377.398 2.90945 -5.14883 0
M  V30 3899 H 376.328 0.499631 -0.564699 0
M  V30 3900 H 378.979 0.612536 -1.72975 0
M  V30 3901 H 377.361 3.15379 -2.39483 0
M  V30 3902 H 378.535 1.17278 -4.45626 0
M  V30 3903 H 376.85 1.21199 -3.98371 0
M  V30 3904 H 379.447 3.96493 -3.58744 0
M  V30 3905 H 379.79 3.70696 -1.89448 0
M  V30 3906 H 380.323 2.50239 -3.09233 0
M  V30 3907 H 377.062 2.42736 -6.089 0
M  V30 3908 H 376.582 3.57398 -4.81691 0
M  V30 3909 H 378.261 3.54755 -5.41071 0
M  V30 3910 N 378.394 1.34581 0.820102 0
M  V30 3911 C 379.642 1.26845 1.57336 0
M  V30 3912 C 379.963 -0.160667 1.94337 0
M  V30 3913 O 379.233 -1.09396 1.6251 0
M  V30 3914 H 377.813 0.466514 0.583415 0
M  V30 3915 H 380.475 1.68526 0.979027 0
M  V30 3916 H 379.571 1.87513 2.4949 0
M  V30 3917 N 379.872 -1.04064 1.18357 0
M  V30 3918 C 381.283 -1.58719 0.98312 0
M  V30 3919 C 381.634 -1.90556 -0.467193 0
M  V30 3920 O 380.759 -1.69561 -1.34454 0
M  V30 3921 C 381.354 -2.88379 1.77828 0
M  V30 3922 C 379.913 -3.3965 1.62218 0
M  V30 3923 C 379.06 -2.13235 1.77274 0
M  V30 3924 H 382.011 -0.867359 1.32901 0
M  V30 3925 H 382.032 -3.58773 1.26737 0
M  V30 3926 H 381.544 -2.65176 2.83379 0
M  V30 3927 H 379.645 -3.67866 0.592036 0
M  V30 3928 H 379.758 -4.13475 2.42023 0
M  V30 3929 H 378.122 -2.24542 1.20221 0
M  V30 3930 H 378.905 -1.92487 2.8426 0
M  V30 3931 N 381.35 -0.985608 -1.22978 0
M  V30 3932 C 382.298 -0.522631 -2.26652 0
M  V30 3933 C 383.292 0.422998 -1.64034 0
M  V30 3934 O 384.498 0.296319 -1.77544 0
M  V30 3935 H 380.873 -0.150597 -0.736766 0
M  V30 3936 H 382.844 -1.40863 -2.63059 0
M  V30 3937 C 381.593 0.154238 -3.47358 0
M  V30 3938 H 380.916 -0.564329 -3.95797 0
M  V30 3939 H 382.356 0.441744 -4.21693 0
M  V30 3940 C 380.815 1.38719 -3.07016 0
M  V30 3941 O 381.345 2.48307 -3.15764 0
M  V30 3942 N 379.551 1.25975 -2.61875 0
M  V30 3943 H 379.098 0.368068 -2.54957 0
M  V30 3944 H 379.056 2.08578 -2.3525 0
M  V30 3945 N 382.828 1.3818 -0.7579 0
M  V30 3946 C 383.775 2.30416 -0.133057 0
M  V30 3947 C 384.745 1.50398 0.704957 0
M  V30 3948 O 385.93 1.79014 0.660192 0
M  V30 3949 C 383.07 3.36834 0.750813 0
M  V30 3950 C 382.183 4.31879 -0.102297 0
M  V30 3951 C 381.318 5.25368 0.784979 0
M  V30 3952 C 380.357 6.12058 -0.0715046 0
M  V30 3953 N 379.494 6.97832 0.772972 0
M  V30 3954 H 384.334 2.83274 -0.925186 0
M  V30 3955 H 381.871 1.39461 -0.467866 0
M  V30 3956 H 383.829 3.97145 1.27794 0
M  V30 3957 H 382.459 2.85374 1.50868 0
M  V30 3958 H 381.511 3.72991 -0.747095 0
M  V30 3959 H 382.823 4.92921 -0.763552 0
M  V30 3960 H 381.977 5.90818 1.37911 0
M  V30 3961 H 380.716 4.64703 1.47996 0
M  V30 3962 H 379.721 5.456 -0.678272 0
M  V30 3963 H 380.946 6.74793 -0.763606 0
M  V30 3964 H 378.892 6.3971 1.45282 0
M  V30 3965 H 378.809 7.55812 0.168709 0
M  V30 3966 H 380.077 7.67687 1.35194 0
M  V30 3967 N 384.306 0.507319 1.49211 0
M  V30 3968 C 385.722 0.163682 1.58758 0
M  V30 3969 C 385.922 -1.33208 1.51188 0
M  V30 3970 O 384.978 -2.10855 1.38911 0
M  V30 3971 C 386.291 0.746095 2.91297 0
M  V30 3972 C 387.839 0.712773 3.04776 0
M  V30 3973 C 388.314 1.27336 4.39943 0
M  V30 3974 N 389.805 1.23433 4.46451 0
M  V30 3975 C 390.54 1.63821 5.495 0
M  V30 3976 N 390.036 2.11832 6.5962 0
M  V30 3977 N 391.829 1.55198 5.4025 0
M  V30 3978 H 383.98 1.47972 1.52375 0
M  V30 3979 H 386.243 0.614147 0.722168 0
M  V30 3980 H 385.949 1.79534 3.02424 0
M  V30 3981 H 385.823 0.210137 3.76614 0
M  V30 3982 H 388.21 -0.327656 2.93275 0
M  V30 3983 H 388.291 1.28595 2.21127 0
M  V30 3984 H 387.935 2.3126 4.52196 0
M  V30 3985 H 387.865 0.676066 5.22242 0
M  V30 3986 H 390.356 0.882627 3.67448 0
M  V30 3987 H 390.669 2.40703 7.34358 0
M  V30 3988 H 389.014 2.1581 6.60644 0
M  V30 3989 H 392.205 1.17505 4.53112 0
M  V30 3990 H 392.378 1.86997 6.20432 0
M  V30 3991 N 385.784 -1.5574 0.241426 0
M  V30 3992 C 386.747 -2.19877 -0.647063 0
M  V30 3993 C 387.747 -1.16642 -1.10686 0
M  V30 3994 O 388.937 -1.41757 -1.01245 0
M  V30 3995 C 386.069 -2.83797 -1.88871 0
M  V30 3996 H 387.262 -2.99772 -0.087574 0
M  V30 3997 H 384.815 -1.56298 -0.00813574 0
M  V30 3998 H 385.55 -2.07824 -2.48957 0
M  V30 3999 H 385.335 -3.59414 -1.56728 0
M  V30 4000 H 386.825 -3.32898 -2.52129 0
M  V30 4001 N 387.262 0.0317525 -1.57568 0
M  V30 4002 C 388.508 0.724175 -1.8943 0
M  V30 4003 C 388.841 1.75149 -0.838836 0
M  V30 4004 O 388.116 1.93948 0.146422 0
M  V30 4005 C 388.399 1.39615 -3.31933 0
M  V30 4006 C 388.252 0.382537 -4.4817 0
M  V30 4007 C 389.571 2.33084 -3.73309 0
M  V30 4008 H 386.69 0.261797 -0.688935 0
M  V30 4009 H 389.332 -0.013017 -1.89996 0
M  V30 4010 H 387.482 2.02451 -3.31581 0
M  V30 4011 H 389.154 -0.243689 -4.60656 0
M  V30 4012 H 387.397 -0.29844 -4.32772 0
M  V30 4013 H 388.068 0.891145 -5.44759 0
M  V30 4014 H 390.544 1.80295 -3.7501 0
M  V30 4015 H 389.42 2.77084 -4.73831 0
M  V30 4016 H 389.681 3.19643 -3.05419 0
M  V30 4017 N 388.74 1.54641 0.303973 0
M  V30 4018 C 390.156 1.45788 0.649463 0
M  V30 4019 C 390.356 0.64666 1.90842 0
M  V30 4020 O 389.412 0.153183 2.52035 0
M  V30 4021 C 390.725 2.89718 0.805227 0
M  V30 4022 C 392.273 2.99742 0.901305 0
M  V30 4023 C 392.748 4.44863 1.08909 0
M  V30 4024 N 394.239 4.48559 1.15536 0
M  V30 4025 C 394.974 5.58026 1.3189 0
M  V30 4026 N 394.47 6.77422 1.45161 0
M  V30 4027 N 396.263 5.45708 1.34755 0
M  V30 4028 H 388.414 2.05854 -0.523237 0
M  V30 4029 H 390.677 0.932186 -0.172431 0
M  V30 4030 H 390.383 3.51666 -0.0489108 0
M  V30 4031 H 390.257 3.36964 1.69513 0
M  V30 4032 H 392.644 2.3791 1.74593 0
M  V30 4033 H 392.725 2.55797 -0.0125531 0
M  V30 4034 H 392.369 5.07288 0.249241 0
M  V30 4035 H 392.299 4.86436 2.01713 0
M  V30 4036 H 394.79 3.6254 1.06646 0
M  V30 4037 H 395.103 7.56604 1.57387 0
M  V30 4038 H 393.448 6.80292 1.42223 0
M  V30 4039 H 396.639 4.51378 1.23996 0
M  V30 4040 H 396.812 6.3107 1.47157 0
M  V30 4041 N 390.218 -0.567019 1.47046 0
M  V30 4042 C 391.634 -0.891975 1.32348 0
M  V30 4043 C 391.834 -1.99154 0.306616 0
M  V30 4044 O 390.89 -2.50883 -0.28532 0
M  V30 4045 C 392.203 -1.29449 2.7141 0
M  V30 4046 C 393.751 -1.40646 2.79621 0
M  V30 4047 C 394.226 -1.84257 4.19301 0
M  V30 4048 N 395.717 -1.91424 4.21795 0
M  V30 4049 C 396.452 -2.26476 5.26779 0
M  V30 4050 N 395.948 -2.60211 6.42077 0
M  V30 4051 N 397.741 -2.27166 5.14152 0
M  V30 4052 H 389.892 0.159074 2.11803 0
M  V30 4053 H 392.155 0.00849752 0.947962 0
M  V30 4054 H 391.861 -0.560448 3.47206 0
M  V30 4055 H 391.735 -2.25273 3.02542 0
M  V30 4056 H 394.122 -2.13133 2.04104 0
M  V30 4057 H 394.203 -0.430339 2.52154 0
M  V30 4058 H 393.847 -1.12343 4.95319 0
M  V30 4059 H 393.777 -2.82855 4.44185 0
M  V30 4060 H 396.268 -1.6778 3.38612 0
M  V30 4061 H 396.581 -2.85956 7.17948 0
M  V30 4062 H 394.926 -2.57813 6.45413 0
M  V30 4063 H 398.117 -2.00244 4.23107 0
M  V30 4064 H 398.29 -2.54154 5.96079 0
M  V30 4065 N 391.696 -1.35014 -0.812953 0
M  V30 4066 C 392.626 -1.30069 -1.93919 0
M  V30 4067 C 393.607 -0.176275 -1.69184 0
M  V30 4068 O 394.792 -0.370227 -1.90638 0
M  V30 4069 C 391.922 -1.06547 -3.30552 0
M  V30 4070 C 390.876 -2.15561 -3.69753 0
M  V30 4071 C 390.202 -1.77214 -5.04479 0
M  V30 4072 C 391.502 -3.57476 -3.808 0
M  V30 4073 H 393.196 -2.24303 -1.98314 0
M  V30 4074 H 390.742 -1.07977 -0.952736 0
M  V30 4075 H 392.695 -1.01729 -4.08937 0
M  V30 4076 H 391.419 -0.0875719 -3.26483 0
M  V30 4077 H 390.078 -2.19466 -2.9365 0
M  V30 4078 H 389.726 -0.780589 -4.96906 0
M  V30 4079 H 389.426 -2.50184 -5.31678 0
M  V30 4080 H 390.95 -1.7391 -5.8531 0
M  V30 4081 H 392.364 -3.55929 -4.4943 0
M  V30 4082 H 390.761 -4.29152 -4.19462 0
M  V30 4083 H 391.831 -3.94091 -2.82525 0
M  V30 4084 N 393.175 1.03435 -1.18907 0
M  V30 4085 C 394.591 1.28973 -0.940111 0
M  V30 4086 C 394.791 1.97676 0.390691 0
M  V30 4087 O 393.847 2.26127 1.12352 0
M  V30 4088 C 395.16 2.14221 -2.11021 0
M  V30 4089 C 396.708 2.27547 -2.14922 0
M  V30 4090 C 397.183 3.16164 -3.31367 0
M  V30 4091 N 398.674 3.23752 -3.31269 0
M  V30 4092 C 399.409 3.92495 -4.18014 0
M  V30 4093 N 398.905 4.63515 -5.14904 0
M  V30 4094 N 400.698 3.88838 -4.05908 0
M  V30 4095 H 392.849 0.57252 -2.04538 0
M  V30 4096 H 395.112 0.315184 -0.894071 0
M  V30 4097 H 394.818 1.71054 -3.073 0
M  V30 4098 H 394.692 3.14919 -2.0762 0
M  V30 4099 H 397.079 2.69947 -1.19217 0
M  V30 4100 H 397.16 1.26418 -2.22378 0
M  V30 4101 H 396.804 2.74474 -4.27348 0
M  V30 4102 H 396.734 4.17339 -3.21148 0
M  V30 4103 H 399.225 2.73167 -2.61129 0
M  V30 4104 H 399.538 5.13583 -5.77453 0
M  V30 4105 H 397.883 4.62398 -5.18857 0
M  V30 4106 H 401.074 3.32491 -3.29495 0
M  V30 4107 H 401.247 4.4214 -4.73726 0
M  V30 4108 N 394.653 0.992116 1.22453 0
M  V30 4109 C 395.881 0.685944 1.95198 0
M  V30 4110 C 396.296 -0.749233 1.73297 0
M  V30 4111 O 395.653 -1.50549 1.03156 0
M  V30 4112 C 395.704 0.981395 3.47924 0
M  V30 4113 O 395.425 2.36018 3.6909 0
M  V30 4114 C 396.926 0.692815 4.37853 0
M  V30 4115 H 394.146 0.253821 0.621141 0
M  V30 4116 H 396.69 1.32668 1.55626 0
M  V30 4117 H 394.845 0.386481 3.85467 0
M  V30 4118 H 395.259 2.45884 4.63294 0
M  V30 4119 H 396.733 0.949818 5.43767 0
M  V30 4120 H 397.21 -0.373181 4.37612 0
M  V30 4121 H 397.816 1.26874 4.05935 0
M  V30 4122 N 396.131 -1.37776 0.765217 0
M  V30 4123 C 397.094 -2.28686 0.153416 0
M  V30 4124 C 398.094 -1.47727 -0.635081 0
M  V30 4125 O 399.284 -1.68027 -0.459632 0
M  V30 4126 C 396.416 -3.31608 -0.790495 0
M  V30 4127 H 397.609 -2.84297 0.954723 0
M  V30 4128 H 395.162 -1.46932 0.53299 0
M  V30 4129 H 395.897 -2.81109 -1.61705 0
M  V30 4130 H 395.682 -3.9144 -0.227348 0
M  V30 4131 H 397.172 -3.99559 -1.21419 0
M  V30 4132 N 397.609 -0.515225 -1.4894 0
M  V30 4133 C 398.849 0.0223983 -2.04388 0
M  V30 4134 C 399.213 1.32961 -1.38511 0
M  V30 4135 O 400.414 1.95236 -1.8476 0
M  V30 4136 C 398.685 0.157056 -3.57055 0
M  V30 4137 S 400.244 0.646875 -4.34006 0
M  V30 4138 H 397.062 -0.00500662 -0.710982 0
M  V30 4139 H 399.664 -0.69243 -1.82827 0
M  V30 4140 H 398.368 -0.799412 -4.02539 0
M  V30 4141 H 397.899 0.896704 -3.83044 0
M  V30 4142 H 399.914 1.91381 -4.57808 0
M  V30 4143 N 399.087 1.5561 -0.249682 0
M  V30 4144 C 399.997 2.25143 0.659375 0
M  V30 4145 C 401.013 1.2685 1.19101 0
M  V30 4146 O 402.189 1.59732 1.22669 0
M  V30 4147 C 399.254 2.93945 1.8384 0
M  V30 4148 C 398.315 4.07655 1.34596 0
M  V30 4149 C 397.548 4.73167 2.46878 0
M  V30 4150 O 397.771 4.37768 3.65671 0
M  V30 4151 O 396.705 5.61623 2.16478 0
M  V30 4152 H 400.531 3.03545 0.0968698 0
M  V30 4153 H 398.116 1.49389 -0.018074 0
M  V30 4154 H 399.998 3.37271 2.52638 0
M  V30 4155 H 398.673 2.18481 2.38847 0
M  V30 4156 H 397.58 3.68839 0.625174 0
M  V30 4157 H 398.913 4.84946 0.841941 0
M  V30 4158 N 400.565 -0.0233959 1.57583 0
M  V30 4159 C 401.981 -0.379134 1.55031 0
M  V30 4160 C 402.181 -1.76255 0.976548 0
M  V30 4161 O 401.237 -2.45266 0.600078 0
M  V30 4162 C 402.55 -0.275792 2.99433 0
M  V30 4163 C 404.098 -0.352458 3.11009 0
M  V30 4164 C 404.573 -0.278501 4.57152 0
M  V30 4165 N 406.064 -0.337123 4.61972 0
M  V30 4166 C 406.799 -0.302876 5.726 0
M  V30 4167 N 406.295 -0.220589 6.92449 0
M  V30 4168 N 408.088 -0.353023 5.6099 0
M  V30 4169 H 400.239 0.881869 1.93227 0
M  V30 4170 H 402.502 0.335867 0.886509 0
M  V30 4171 H 402.208 0.675108 3.4516 0
M  V30 4172 H 402.082 -1.06721 3.61788 0
M  V30 4173 H 404.469 -1.29379 2.65226 0
M  V30 4174 H 404.55 0.468409 2.51475 0
M  V30 4175 H 404.194 0.659189 5.03604 0
M  V30 4176 H 404.124 -1.11755 5.14605 0
M  V30 4177 H 406.615 -0.403002 3.75745 0
M  V30 4178 H 406.928 -0.199713 7.72542 0
M  V30 4179 H 405.273 -0.186555 6.9475 0
M  V30 4180 H 408.464 -0.415339 4.66254 0
M  V30 4181 H 408.637 -0.322866 6.47195 0
M  V30 4182 N 402.043 -1.548 -0.295768 0
M  V30 4183 C 403.006 -1.85363 -1.34808 0
M  V30 4184 C 404.006 -0.726817 -1.43436 0
M  V30 4185 O 405.196 -0.995088 -1.42981 0
M  V30 4186 C 402.328 -2.03859 -2.73229 0
M  V30 4187 H 403.521 -2.7941 -1.08949 0
M  V30 4188 H 401.074 -1.46942 -0.532702 0
M  V30 4189 H 401.809 -1.12117 -3.04303 0
M  V30 4190 H 401.594 -2.8588 -2.68356 0
M  V30 4191 H 403.084 -2.28857 -3.49305 0
M  V30 4192 N 403.521 0.559213 -1.47345 0
M  V30 4193 C 404.468 1.66645 -1.59682 0
M  V30 4194 C 405.438 1.60168 -0.43994 0
M  V30 4195 O 406.623 1.79031 -0.659736 0
M  V30 4196 C 403.763 3.04969 -1.61518 0
M  V30 4197 C 402.876 3.21897 -2.88108 0
M  V30 4198 C 402.011 4.50608 -2.81294 0
M  V30 4199 C 401.05 4.60961 -4.02717 0
M  V30 4200 N 400.187 5.81024 -3.94151 0
M  V30 4201 H 405.027 1.55439 -2.54249 0
M  V30 4202 H 402.564 0.757219 -1.26113 0
M  V30 4203 H 404.522 3.85064 -1.60566 0
M  V30 4204 H 403.152 3.15015 -0.704645 0
M  V30 4205 H 402.204 2.35248 -2.98936 0
M  V30 4206 H 403.516 3.25412 -3.78032 0
M  V30 4207 H 402.67 5.3896 -2.7858 0
M  V30 4208 H 401.409 4.49568 -1.89049 0
M  V30 4209 H 400.414 3.71021 -4.05738 0
M  V30 4210 H 401.639 4.63761 -4.96087 0
M  V30 4211 H 399.585 5.80938 -3.04708 0
M  V30 4212 H 399.502 5.85909 -4.77752 0
M  V30 4213 H 400.77 6.71744 -3.9545 0
M  V30 4214 N 404.999 1.35443 0.805782 0
M  V30 4215 C 406.415 1.15499 1.10146 0
M  V30 4216 C 406.615 -0.0319975 2.01475 0
M  V30 4217 O 405.671 -0.70236 2.42535 0
M  V30 4218 C 406.984 2.45833 1.73166 0
M  V30 4219 C 408.532 2.52047 1.85583 0
M  V30 4220 C 409.007 3.82427 2.52019 0
M  V30 4221 N 410.498 3.83682 2.59504 0
M  V30 4222 C 411.233 4.81294 3.11679 0
M  V30 4223 N 410.729 5.89294 3.64287 0
M  V30 4224 N 412.522 4.6873 3.1024 0
M  V30 4225 H 404.673 2.11469 0.198678 0
M  V30 4226 H 406.936 0.93594 0.150731 0
M  V30 4227 H 406.642 3.32874 1.13526 0
M  V30 4228 H 406.516 2.6044 2.72857 0
M  V30 4229 H 408.903 1.65435 2.44367 0
M  V30 4230 H 408.984 2.41354 0.847455 0
M  V30 4231 H 408.628 4.69437 1.93885 0
M  V30 4232 H 408.558 3.90409 3.53395 0
M  V30 4233 H 411.049 3.05648 2.22234 0
M  V30 4234 H 411.362 6.59768 4.02401 0
M  V30 4235 H 409.707 5.92985 3.62483 0
M  V30 4236 H 412.898 3.83496 2.68419 0
M  V30 4237 H 413.071 5.44965 3.50596 0
M  V30 4238 N 406.477 -1.02803 1.19454 0
M  V30 4239 C 407.705 -1.79841 1.02297 0
M  V30 4240 C 408.12 -1.83879 -0.428259 0
M  V30 4241 O 407.477 -1.28345 -1.29745 0
M  V30 4242 C 407.528 -3.24852 1.58598 0
M  V30 4243 O 407.249 -3.21097 2.98041 0
M  V30 4244 C 408.75 -4.18485 1.46236 0
M  V30 4245 H 405.97 -0.565936 0.360496 0
M  V30 4246 H 408.514 -1.2948 1.58288 0
M  V30 4247 H 406.669 -3.72401 1.06753 0
M  V30 4248 H 407.083 -4.12033 3.24545 0
M  V30 4249 H 408.557 -5.18121 1.90407 0
M  V30 4250 H 409.034 -4.37254 0.41301 0
M  V30 4251 H 409.64 -3.76811 1.97215 0
M  V30 4252 N 407.956 -0.998596 -1.21925 0
M  V30 4253 C 408.886 -0.573688 -2.26343 0
M  V30 4254 C 409.867 0.402296 -1.65274 0
M  V30 4255 O 411.052 0.291683 -1.91997 0
M  V30 4256 C 408.182 0.106839 -3.47136 0
M  V30 4257 C 407.136 -0.788269 -4.20678 0
M  V30 4258 C 406.462 0.0254927 -5.34694 0
M  V30 4259 C 407.762 -2.08784 -4.78755 0
M  V30 4260 H 409.456 -1.44651 -2.62138 0
M  V30 4261 H 407.002 -0.696975 -1.26009 0
M  V30 4262 H 408.955 0.415531 -4.19346 0
M  V30 4263 H 407.679 1.01424 -3.10452 0
M  V30 4264 H 406.338 -1.08069 -3.50309 0
M  V30 4265 H 405.986 0.933989 -4.94253 0
M  V30 4266 H 405.686 -0.570437 -5.84825 0
M  V30 4267 H 407.21 0.328147 -6.09718 0
M  V30 4268 H 408.624 -1.84272 -5.42878 0
M  V30 4269 H 407.021 -2.63307 -5.39249 0
M  V30 4270 H 408.091 -2.76284 -3.98491 0
M  V30 4271 N 409.434 1.37368 -0.772513 0
M  V30 4272 C 410.659 2.0447 -0.347386 0
M  V30 4273 C 411.084 1.57882 1.0225 0
M  V30 4274 O 410.442 0.73941 1.65537 0
M  V30 4275 C 410.49 3.58369 -0.400479 0
M  V30 4276 O 409.594 4.0803 0.598789 0
M  V30 4277 H 408.935 0.646773 -0.15027 0
M  V30 4278 H 411.465 1.75667 -1.04892 0
M  V30 4279 H 411.475 4.07183 -0.258045 0
M  V30 4280 H 410.15 3.91633 -1.39986 0
M  V30 4281 H 408.727 3.70534 0.419411 0
M  V30 4282 N 410.912 0.523116 1.48665 0
M  V30 4283 C 412.137 -0.0117284 2.07397 0
M  V30 4284 C 412.562 -1.28031 1.37803 0
M  V30 4285 O 411.92 -1.75836 0.441762 0
M  V30 4286 C 411.968 -0.225786 3.59892 0
M  V30 4287 O 411.072 -1.29592 3.91509 0
M  V30 4288 H 410.413 0.0360673 0.66302 0
M  V30 4289 H 412.943 0.729066 1.9117 0
M  V30 4290 H 412.953 -0.450552 4.05505 0
M  V30 4291 H 411.628 0.700944 4.09951 0
M  V30 4292 H 410.205 -1.05436 3.57684 0
M  V30 4293 N 412.39 -1.55475 0.257931 0
M  V30 4294 C 413.615 -2.04064 -0.370488 0
M  V30 4295 C 414.04 -1.13565 -1.49948 0
M  V30 4296 O 413.398 -0.130781 -1.80828 0
M  V30 4297 C 413.446 -3.50554 -0.845237 0
M  V30 4298 O 412.55 -3.63173 -1.95394 0
M  V30 4299 H 411.891 -0.659257 -0.0792243 0
M  V30 4300 H 414.421 -2.00903 0.387212 0
M  V30 4301 H 414.431 -3.91588 -1.14555 0
M  V30 4302 H 413.106 -4.15896 -0.0191259 0
M  V30 4303 H 411.683 -3.34039 -1.65748 0
M  V30 4304 N 413.868 0.0150385 -1.57593 0
M  V30 4305 C 415.096 0.714395 -1.94175 0
M  V30 4306 C 415.511 1.68135 -0.858841 0
M  V30 4307 O 414.868 1.81766 0.163567 0
M  V30 4308 C 414.919 1.45933 -3.30735 0
M  V30 4309 O 414.64 0.531167 -4.34868 0
M  V30 4310 C 416.141 2.25456 -3.81686 0
M  V30 4311 H 413.361 0.199923 -0.640525 0
M  V30 4312 H 415.905 -0.0316096 -2.04476 0
M  V30 4313 H 414.06 2.15709 -3.21789 0
M  V30 4314 H 414.474 1.05509 -5.13778 0
M  V30 4315 H 415.948 2.731 -4.79709 0
M  V30 4316 H 416.425 3.07485 -3.13607 0
M  V30 4317 H 417.031 1.60727 -3.9376 0
M  V30 4318 N 415.346 1.54954 0.287554 0
M  V30 4319 C 416.278 1.83224 1.37701 0
M  V30 4320 C 417.291 0.715898 1.46215 0
M  V30 4321 O 418.48 0.993565 1.48292 0
M  V30 4322 C 415.58 1.96723 2.75959 0
M  V30 4323 C 414.753 3.27253 2.90215 0
M  V30 4324 C 413.812 3.30998 4.09056 0
M  V30 4325 O 412.838 4.04457 4.00503 0
M  V30 4326 N 414.04 2.57353 5.20336 0
M  V30 4327 H 416.805 2.77254 1.138 0
M  V30 4328 H 414.366 1.54694 0.477652 0
M  V30 4329 H 416.358 1.96615 3.5373 0
M  V30 4330 H 414.928 1.09626 2.92747 0
M  V30 4331 H 414.148 3.40022 1.99447 0
M  V30 4332 H 415.436 4.13365 2.96659 0
M  V30 4333 H 414.834 1.97327 5.30169 0
M  V30 4334 H 413.391 2.62984 5.96391 0
M  V30 4335 N 416.824 -0.551391 1.4764 0
M  V30 4336 C 417.787 -1.64007 1.60107 0
M  V30 4337 C 418.787 -1.53601 0.47576 0
M  V30 4338 O 419.977 -1.57655 0.740988 0
M  V30 4339 C 417.109 -3.03569 1.55108 0
M  V30 4340 H 418.302 -1.543 2.57161 0
M  V30 4341 H 415.855 -0.771776 1.35917 0
M  V30 4342 H 416.59 -3.18804 0.594519 0
M  V30 4343 H 416.375 -3.12532 2.36783 0
M  V30 4344 H 417.865 -3.82762 1.66982 0
M  V30 4345 N 418.302 -1.35869 -0.798587 0
M  V30 4346 C 419.527 -1.32883 -1.59238 0
M  V30 4347 C 419.952 0.0894587 -1.87887 0
M  V30 4348 O 419.31 1.05869 -1.47178 0
M  V30 4349 C 419.358 -2.14892 -2.89575 0
M  V30 4350 O 418.462 -1.53512 -3.82763 0
M  V30 4351 H 417.803 -0.455236 -0.48338 0
M  V30 4352 H 420.333 -1.79024 -0.990539 0
M  V30 4353 H 420.343 -2.27139 -3.38928 0
M  V30 4354 H 419.018 -3.17998 -2.68049 0
M  V30 4355 H 417.595 -1.50153 -3.41334 0
M  V30 4356 N 419.78 1.02168 -1.19998 0
M  V30 4357 C 421.029 1.75091 -1.0013 0
M  V30 4358 C 421.342 1.89923 0.467835 0
M  V30 4359 O 422.548 2.59888 0.785515 0
M  V30 4360 C 421.004 3.14892 -1.74273 0
M  V30 4361 C 420.612 3.0809 -3.25245 0
M  V30 4362 C 422.356 3.9206 -1.62755 0
M  V30 4363 C 420.263 4.42867 -3.91948 0
M  V30 4364 H 419.193 0.656394 -0.37103 0
M  V30 4365 H 421.844 1.14284 -1.43567 0
M  V30 4366 H 420.226 3.7621 -1.2362 0
M  V30 4367 H 421.4 2.5611 -3.83072 0
M  V30 4368 H 419.715 2.44416 -3.3712 0
M  V30 4369 H 422.312 4.91764 -2.09934 0
M  V30 4370 H 422.655 4.12199 -0.582894 0
M  V30 4371 H 423.188 3.37359 -2.10793 0
M  V30 4372 H 419.927 4.27931 -4.96543 0
M  V30 4373 H 419.447 4.94874 -3.3891 0
M  V30 4374 H 421.126 5.11728 -3.95909 0
M  V30 4375 N 421.258 1.00505 1.21394 0
M  V30 4376 C 422.168 0.574806 2.27449 0
M  V30 4377 C 423.184 -0.382206 1.6975 0
M  V30 4378 O 424.36 -0.246027 1.99892 0
M  V30 4379 C 421.425 -0.0917414 3.46579 0
M  V30 4380 C 420.486 0.909758 4.1955 0
M  V30 4381 C 419.719 0.274924 5.32991 0
M  V30 4382 O 419.942 -0.928254 5.62796 0
M  V30 4383 O 418.876 0.985877 5.93771 0
M  V30 4384 H 422.702 1.45744 2.66444 0
M  V30 4385 H 420.287 0.773923 1.27792 0
M  V30 4386 H 422.169 -0.464551 4.18832 0
M  V30 4387 H 420.844 -0.948755 3.09484 0
M  V30 4388 H 419.751 1.33372 3.49518 0
M  V30 4389 H 421.084 1.73636 4.60555 0
M  V30 4390 N 422.737 -1.36956 0.779787 0
M  V30 4391 C 423.986 -1.98738 0.344405 0
M  V30 4392 C 424.299 -1.62596 -1.08728 0
M  V30 4393 O 425.505 -2.1754 -1.62445 0
M  V30 4394 C 423.961 -3.5544 0.564829 0
M  V30 4395 C 423.569 -4.00514 2.0073 0
M  V30 4396 C 425.313 -4.24059 0.193471 0
M  V30 4397 C 423.22 -5.49957 2.17489 0
M  V30 4398 H 422.15 -0.743561 0.12503 0
M  V30 4399 H 424.801 -1.56381 0.960057 0
M  V30 4400 H 423.183 -3.95817 -0.120397 0
M  V30 4401 H 424.357 -3.71362 2.72814 0
M  V30 4402 H 422.672 -3.44703 2.336 0
M  V30 4403 H 425.269 -5.33874 0.297097 0
M  V30 4404 H 425.612 -4.07378 -0.857263 0
M  V30 4405 H 426.145 -3.89012 0.831556 0
M  V30 4406 H 422.884 -5.71574 3.2091 0
M  V30 4407 H 422.404 -5.80767 1.49899 0
M  V30 4408 H 424.083 -6.16043 1.97738 0
M  V30 4409 N 424.215 -0.530993 -1.48385 0
M  V30 4410 C 425.492 0.0671788 -1.95485 0
M  V30 4411 C 425.872 1.51191 -1.47324 0
M  V30 4412 O 425.22 2.17507 -0.700202 0
M  V30 4413 C 425.43 -0.0511206 -3.48963 0
M  V30 4414 C 426.778 0.107632 -4.24464 0
M  V30 4415 O 427.802 0.0226248 -3.56193 0
M  V30 4416 O 426.661 0.285972 -5.45751 0
M  V30 4417 H 423.755 0.0787365 -0.823243 0
M  V30 4418 H 426.301 -0.595662 -1.58902 0
M  V30 4419 H 425.073 -1.05747 -3.7674 0
M  V30 4420 H 424.696 0.650525 -3.92242 0
M  V30 4421 N 425.693 1.55336 -0.266172 0
M  V30 4422 C 426.918 2.04258 0.359661 0
M  V30 4423 C 427.343 1.14359 1.49344 0
M  V30 4424 O 426.701 0.140369 1.80756 0
M  V30 4425 C 426.749 3.50997 0.826635 0
M  V30 4426 O 425.853 3.64204 1.93466 0
M  V30 4427 H 425.194 0.659668 0.075727 0
M  V30 4428 H 427.724 2.00694 -0.39786 0
M  V30 4429 H 427.734 3.9219 1.12477 0
M  V30 4430 H 426.409 4.159 -0.00293032 0
M  V30 4431 H 424.986 3.34913 1.63974 0
M  V30 4432 N 427.171 -0.0066808 1.57599 0
M  V30 4433 C 428.101 -0.999296 2.11036 0
M  V30 4434 C 429.082 -1.36278 1.01795 0
M  V30 4435 O 430.267 -1.4477 1.29442 0
M  V30 4436 C 427.397 -2.29328 2.60818 0
M  V30 4437 C 426.351 -2.07159 3.74525 0
M  V30 4438 C 425.677 -3.42512 4.10596 0
M  V30 4439 C 426.977 -1.43959 5.02069 0
M  V30 4440 H 428.671 -0.554382 2.94223 0
M  V30 4441 H 426.217 -0.265221 1.41536 0
M  V30 4442 H 428.17 -2.99117 2.96828 0
M  V30 4443 H 426.894 -2.7592 1.74745 0
M  V30 4444 H 425.553 -1.39797 3.38899 0
M  V30 4445 H 425.201 -3.86795 3.21556 0
M  V30 4446 H 424.901 -3.28498 4.87199 0
M  V30 4447 H 426.425 -4.13628 4.4916 0
M  V30 4448 H 427.839 -2.03696 5.35893 0
M  V30 4449 H 426.236 -1.40452 5.83432 0
M  V30 4450 H 427.306 -0.407992 4.83181 0
M  V30 4451 N 428.649 -1.55105 -0.279332 0
M  V30 4452 C 429.879 -1.7917 -1.02867 0
M  V30 4453 C 430.287 -0.56204 -1.80659 0
M  V30 4454 O 429.63 0.478266 -1.77365 0
M  V30 4455 C 429.692 -2.96061 -2.03932 0
M  V30 4456 C 429.356 -4.33341 -1.45137 0
M  V30 4457 C 430.353 -5.12565 -0.870266 0
M  V30 4458 C 428.038 -4.79987 -1.48048 0
M  V30 4459 C 430.032 -6.36565 -0.326097 0
M  V30 4460 C 427.719 -6.03944 -0.932443 0
M  V30 4461 C 428.717 -6.8207 -0.356247 0
M  V30 4462 O 428.405 -8.03691 0.183412 0
M  V30 4463 H 428.137 -0.600796 -0.309872 0
M  V30 4464 H 430.691 -2.02932 -0.317468 0
M  V30 4465 H 428.921 -2.67975 -2.78794 0
M  V30 4466 H 430.61 -3.07506 -2.64943 0
M  V30 4467 H 431.376 -4.77661 -0.840521 0
M  V30 4468 H 427.255 -4.1919 -1.91835 0
M  V30 4469 H 430.799 -6.97489 0.124286 0
M  V30 4470 H 426.696 -6.3833 -0.959407 0
M  V30 4471 H 427.464 -8.18468 0.0721681 0
M  V30 4472 N 430.127 0.543554 -1.4793 0
M  V30 4473 C 431.037 1.67657 -1.64098 0
M  V30 4474 C 432.053 1.65934 -0.523622 0
M  V30 4475 O 433.229 1.85133 -0.792943 0
M  V30 4476 C 430.294 3.04146 -1.66421 0
M  V30 4477 C 429.355 3.16831 -2.89684 0
M  V30 4478 C 428.588 4.46809 -2.91886 0
M  V30 4479 O 428.811 5.33095 -2.02895 0
M  V30 4480 O 427.745 4.63573 -3.83906 0
M  V30 4481 H 431.571 1.56957 -2.59997 0
M  V30 4482 H 429.156 0.715116 -1.31173 0
M  V30 4483 H 431.038 3.85346 -1.70548 0
M  V30 4484 H 429.713 3.152 -0.736923 0
M  V30 4485 H 428.62 2.34977 -2.91095 0
M  V30 4486 H 429.953 3.10687 -3.81752 0
M  V30 4487 N 431.605 1.3629 0.791371 0
M  V30 4488 C 432.853 1.30154 1.5461 0
M  V30 4489 C 433.174 -0.119409 1.94634 0
M  V30 4490 O 432.444 -1.05924 1.64794 0
M  V30 4491 H 431.024 0.478784 0.573389 0
M  V30 4492 H 433.686 1.70565 0.94306 0
M  V30 4493 H 432.782 1.92762 2.45457 0
M  V30 4494 N 433.083 -1.0153 1.20538 0
M  V30 4495 C 434.329 -1.75408 1.01783 0
M  V30 4496 C 434.662 -1.88943 -0.448814 0
M  V30 4497 O 433.937 -1.4162 -1.33319 0
M  V30 4498 C 434.22 -3.17255 1.70356 0
M  V30 4499 C 434.073 -3.11508 3.24473 0
M  V30 4500 C 435.392 -4.15955 1.43769 0
M  V30 4501 H 432.511 -0.636713 0.371167 0
M  V30 4502 H 435.153 -1.18436 1.4857 0
M  V30 4503 H 433.303 -3.65898 1.30578 0
M  V30 4504 H 434.975 -2.70658 3.73553 0
M  V30 4505 H 433.218 -2.4887 3.55311 0
M  V30 4506 H 433.889 -4.11784 3.67611 0
M  V30 4507 H 436.365 -3.75973 1.7828 0
M  V30 4508 H 435.241 -5.13368 1.94279 0
M  V30 4509 H 435.502 -4.40586 0.365564 0
M  V30 4510 N 434.561 -1.01147 -1.20859 0
M  V30 4511 C 435.838 -0.613136 -1.85742 0
M  V30 4512 C 436.218 0.909004 -1.90526 0
M  V30 4513 O 435.566 1.79862 -1.40932 0
M  V30 4514 C 435.776 -1.255 -3.25654 0
M  V30 4515 C 437.124 -1.3672 -4.01986 0
M  V30 4516 O 438.148 -1.21082 -3.34989 0
M  V30 4517 O 437.007 -1.6194 -5.21956 0
M  V30 4518 H 434.101 -0.210878 -0.799662 0
M  V30 4519 H 436.647 -1.10853 -1.2849 0
M  V30 4520 H 435.419 -2.29532 -3.16908 0
M  V30 4521 H 435.042 -0.746369 -3.90532 0
M  V30 4522 N 436.039 1.36541 -0.78704 0
M  V30 4523 C 437.286 1.99304 -0.358341 0
M  V30 4524 C 437.614 1.62467 1.06933 0
M  V30 4525 O 436.869 0.870019 1.75297 0
M  V30 4526 C 437.168 3.54343 -0.466485 0
M  V30 4527 C 436.834 4.10993 -1.85461 0
M  V30 4528 C 435.496 4.26177 -2.23443 0
M  V30 4529 C 437.848 4.41895 -2.76366 0
M  V30 4530 C 435.176 4.69573 -3.51736 0
M  V30 4531 C 437.528 4.86722 -4.04084 0
M  V30 4532 C 436.192 5.00112 -4.42091 0
M  V30 4533 H 435.462 0.729306 -0.131126 0
M  V30 4534 H 438.109 1.63068 -1.00404 0
M  V30 4535 H 436.414 3.90918 0.262719 0
M  V30 4536 H 438.111 4.00833 -0.115854 0
M  V30 4537 H 434.701 3.99612 -1.54946 0
M  V30 4538 H 438.885 4.29735 -2.48277 0
M  V30 4539 H 434.141 4.78127 -3.81057 0
M  V30 4540 H 438.315 5.09598 -4.7464 0
M  V30 4541 H 435.942 5.33498 -5.41557 0
M  V30 4542 N 437.518 0.538854 1.48102 0
M  V30 4543 C 438.748 0.0122958 2.06596 0
M  V30 4544 C 439.156 -1.27861 1.39457 0
M  V30 4545 O 438.499 -1.77348 0.478907 0
M  V30 4546 C 438.561 -0.273131 3.58461 0
M  V30 4547 C 438.225 0.92561 4.47528 0
M  V30 4548 C 439.222 1.82637 4.86765 0
M  V30 4549 C 436.907 1.13511 4.89306 0
M  V30 4550 C 438.901 2.92047 5.66558 0
M  V30 4551 C 436.588 2.23233 5.68868 0
M  V30 4552 C 437.586 3.12333 6.07402 0
M  V30 4553 O 437.274 4.20155 6.85365 0
M  V30 4554 H 437.006 0.0344283 0.675123 0
M  V30 4555 H 439.56 0.746494 1.91355 0
M  V30 4556 H 437.79 -1.06141 3.71848 0
M  V30 4557 H 439.479 -0.742842 3.99045 0
M  V30 4558 H 440.245 1.67649 4.55103 0
M  V30 4559 H 436.124 0.450835 4.5879 0
M  V30 4560 H 439.668 3.6162 5.96554 0
M  V30 4561 H 435.565 2.38201 5.99942 0
M  V30 4562 H 436.333 4.17975 7.03732 0
M  V30 4563 N 438.996 -1.55193 0.274407 0
M  V30 4564 C 440.224 -2.03987 -0.345943 0
M  V30 4565 C 440.639 -1.15279 -1.4952 0
M  V30 4566 O 439.996 -0.172759 -1.8168 0
M  V30 4567 C 440.047 -3.51898 -0.827631 0
M  V30 4568 O 439.768 -4.37231 0.275855 0
M  V30 4569 C 441.269 -4.16577 -1.51587 0
M  V30 4570 H 438.489 -0.666335 -0.0789892 0
M  V30 4571 H 441.033 -2.00423 0.406294 0
M  V30 4572 H 439.188 -3.55909 -1.52996 0
M  V30 4573 H 439.602 -5.24415 -0.0943638 0
M  V30 4574 H 441.076 -5.21678 -1.80433 0
M  V30 4575 H 441.553 -3.64707 -2.44716 0
M  V30 4576 H 442.159 -4.16568 -0.857409 0
M  V30 4577 N 440.474 -0.00167713 -1.576 0
M  V30 4578 C 441.699 0.69739 -1.95323 0
M  V30 4579 C 442.124 1.6642 -0.876706 0
M  V30 4580 O 441.482 1.80548 0.165007 0
M  V30 4581 C 441.53 1.40403 -3.32144 0
M  V30 4582 O 440.634 2.5185 -3.26566 0
M  V30 4583 H 439.975 0.185373 -0.637599 0
M  V30 4584 H 442.505 -0.0553665 -2.04525 0
M  V30 4585 H 442.515 1.76707 -3.67748 0
M  V30 4586 H 441.19 0.695167 -4.10049 0
M  V30 4587 H 439.767 2.17861 -3.0264 0
M  V30 4588 N 441.952 1.55251 0.271103 0
M  V30 4589 C 443.201 1.75151 1.00025 0
M  V30 4590 C 443.514 0.561041 1.87381 0
M  V30 4591 O 444.72 0.642506 2.63788 0
M  V30 4592 C 443.176 3.09999 1.82835 0
M  V30 4593 C 442.784 4.3662 1.00336 0
M  V30 4594 C 444.528 3.39249 2.55168 0
M  V30 4595 C 442.435 5.62506 1.82595 0
M  V30 4596 H 441.365 0.652877 0.377183 0
M  V30 4597 H 444.016 1.81708 0.255843 0
M  V30 4598 H 442.398 2.97485 2.61378 0
M  V30 4599 H 443.572 4.60055 0.261959 0
M  V30 4600 H 441.887 4.14527 0.394486 0
M  V30 4601 H 444.484 4.3051 3.1712 0
M  V30 4602 H 444.827 2.59467 3.2555 0
M  V30 4603 H 445.36 3.52869 1.83653 0
M  V30 4604 H 442.099 6.45041 1.16631 0
M  V30 4605 H 441.619 5.43211 2.54327 0
M  V30 4606 H 443.298 6.00875 2.39913 0
M  V30 4607 N 443.43 -0.535701 1.48216 0
M  V30 4608 C 444.658 -1.31671 1.59594 0
M  V30 4609 C 445.073 -1.87083 0.254056 0
M  V30 4610 O 444.43 -1.66112 -0.755854 0
M  V30 4611 C 444.481 -2.47158 2.63809 0
M  V30 4612 O 444.202 -1.94032 3.92789 0
M  V30 4613 C 445.703 -3.39062 2.85573 0
M  V30 4614 H 442.923 -0.400623 0.538277 0
M  V30 4615 H 445.467 -0.646827 1.94001 0
M  V30 4616 H 443.622 -3.10043 2.32276 0
M  V30 4617 H 444.036 -2.69585 4.49916 0
M  V30 4618 H 445.51 -4.16459 3.62306 0
M  V30 4619 H 445.987 -3.93941 1.94184 0
M  V30 4620 H 446.593 -2.81975 3.18387 0
M  V30 4621 N 444.908 -1.36708 -0.784132 0
M  V30 4622 C 446.324 -1.17237 -1.08294 0
M  V30 4623 C 446.524 -5.93947e-05 -2.015 0
M  V30 4624 O 445.58 0.663686 -2.43622 0
M  V30 4625 C 446.893 -2.48557 -1.69233 0
M  V30 4626 C 448.441 -2.54968 -1.8155 0
M  V30 4627 C 448.916 -3.86388 -2.45904 0
M  V30 4628 N 450.407 -3.87762 -2.53367 0
M  V30 4629 C 451.142 -4.86191 -3.03983 0
M  V30 4630 N 450.638 -5.95015 -3.54866 0
M  V30 4631 N 452.431 -4.73606 -3.02743 0
M  V30 4632 H 444.582 -2.11758 -0.16501 0
M  V30 4633 H 446.845 -0.93822 -0.135822 0
M  V30 4634 H 446.551 -3.34638 -1.08215 0
M  V30 4635 H 446.425 -2.64748 -2.68679 0
M  V30 4636 H 448.812 -1.69302 -2.41704 0
M  V30 4637 H 448.893 -2.42672 -0.80895 0
M  V30 4638 H 448.537 -4.72462 -1.86392 0
M  V30 4639 H 448.467 -3.95982 -3.4714 0
M  V30 4640 H 450.958 -3.09145 -2.17343 0
M  V30 4641 H 451.271 -6.66086 -3.91854 0
M  V30 4642 H 449.616 -5.98676 -3.53003 0
M  V30 4643 H 452.807 -3.87717 -2.62284 0
M  V30 4644 H 452.98 -5.50473 -3.41881 0
M  V30 4645 N 446.386 1.0089 -1.21074 0
M  V30 4646 C 447.349 2.0775 -0.968129 0
M  V30 4647 C 448.349 1.6069 0.0593445 0
M  V30 4648 O 449.539 1.73293 -0.177525 0
M  V30 4649 C 446.671 3.37794 -0.459108 0
M  V30 4650 H 447.864 2.30707 -1.9161 0
M  V30 4651 H 445.417 1.17807 -1.02719 0
M  V30 4652 H 446.152 3.20516 0.49397 0
M  V30 4653 H 445.937 3.7328 -1.20019 0
M  V30 4654 H 447.427 4.16454 -0.309099 0
M  V30 4655 N 447.864 1.01787 1.20321 0
M  V30 4656 C 449.28 0.732951 1.41774 0
M  V30 4657 C 449.48 -0.686883 1.89431 0
M  V30 4658 O 448.536 -1.45446 2.06402 0
M  V30 4659 C 449.849 1.75973 2.43832 0
M  V30 4660 C 451.397 1.77802 2.57596 0
M  V30 4661 C 451.872 2.7941 3.62897 0
M  V30 4662 N 453.363 2.78157 3.70382 0
M  V30 4663 C 454.098 3.53434 4.51521 0
M  V30 4664 N 453.594 4.38392 5.36455 0
M  V30 4665 N 455.387 3.42026 4.46066 0
M  V30 4666 H 447.538 1.93447 0.877035 0
M  V30 4667 H 449.801 0.835712 0.447536 0
M  V30 4668 H 449.507 2.77699 2.15815 0
M  V30 4669 H 449.381 1.57292 3.4284 0
M  V30 4670 H 451.768 0.767602 2.84942 0
M  V30 4671 H 451.849 2.00557 1.58779 0
M  V30 4672 H 451.493 3.80616 3.36295 0
M  V30 4673 H 451.423 2.53916 4.61339 0
M  V30 4674 H 453.914 2.16531 3.09714 0
M  V30 4675 H 454.227 4.92596 5.95457 0
M  V30 4676 H 452.572 4.4247 5.35953 0
M  V30 4677 H 455.763 2.75075 3.78749 0
M  V30 4678 H 455.936 4.00946 5.09064 0
M  V30 4679 N 449.342 -1.36122 0.79427 0
M  V30 4680 C 450.589 -1.99111 0.368905 0
M  V30 4681 C 450.917 -1.63032 -1.0607 0
M  V30 4682 O 450.172 -0.879303 -1.74833 0
M  V30 4683 C 450.471 -3.5409 0.48527 0
M  V30 4684 C 450.137 -4.10003 1.87638 0
M  V30 4685 C 448.799 -4.24986 2.257 0
M  V30 4686 C 451.151 -4.40423 2.78706 0
M  V30 4687 C 448.479 -4.67701 3.54221 0
M  V30 4688 C 450.831 -4.84573 4.0666 0
M  V30 4689 C 449.495 -4.97761 4.44737 0
M  V30 4690 H 448.765 -0.7286 0.134992 0
M  V30 4691 H 451.412 -1.62534 1.01267 0
M  V30 4692 H 449.717 -3.91052 -0.241984 0
M  V30 4693 H 451.414 -4.00766 0.137109 0
M  V30 4694 H 448.004 -3.98784 1.57064 0
M  V30 4695 H 452.188 -4.28412 2.50553 0
M  V30 4696 H 447.444 -4.761 3.83587 0
M  V30 4697 H 451.618 -5.07074 4.77336 0
M  V30 4698 H 449.245 -5.30618 5.44379 0
M  V30 4699 N 450.82 -0.546701 -1.47814 0
M  V30 4700 C 451.73 0.21026 -2.33656 0
M  V30 4701 C 452.746 0.922413 -1.47538 0
M  V30 4702 O 453.922 0.893652 -1.80488 0
M  V30 4703 C 450.987 1.23348 -3.24016 0
M  V30 4704 C 450.048 0.529883 -4.26017 0
M  V30 4705 C 449.281 1.50435 -5.12059 0
M  V30 4706 O 449.504 2.73837 -5.00369 0
M  V30 4707 O 448.438 1.03459 -5.92942 0
M  V30 4708 H 452.264 -0.493605 -2.99662 0
M  V30 4709 H 449.849 -0.307427 -1.46203 0
M  V30 4710 H 451.731 1.82438 -3.79861 0
M  V30 4711 H 450.406 1.91945 -2.60651 0
M  V30 4712 H 449.313 -0.101948 -3.73961 0
M  V30 4713 H 450.646 -0.11445 -4.92067 0
M  V30 4714 N 452.299 1.55045 -0.282633 0
M  V30 4715 C 453.209 2.26491 0.61147 0
M  V30 4716 C 454.225 1.29348 1.16384 0
M  V30 4717 O 455.401 1.62298 1.19253 0
M  V30 4718 C 452.466 2.97779 1.77563 0
M  V30 4719 C 451.527 4.10418 1.25919 0
M  V30 4720 C 450.76 4.78297 2.36786 0
M  V30 4721 O 450.983 4.45426 3.56303 0
M  V30 4722 O 449.917 5.66089 2.04517 0
M  V30 4723 H 453.743 3.03683 0.0324615 0
M  V30 4724 H 451.328 1.49317 -0.0497576 0
M  V30 4725 H 453.21 3.42554 2.45427 0
M  V30 4726 H 451.885 2.23498 2.34159 0
M  V30 4727 H 450.792 3.70082 0.546797 0
M  V30 4728 H 452.125 4.86622 0.738887 0
M  V30 4729 N 453.777 0.010035 1.57597 0
M  V30 4730 C 454.707 -0.976857 2.12084 0
M  V30 4731 C 455.688 -1.35191 1.03235 0
M  V30 4732 O 456.873 -1.43389 1.3097 0
M  V30 4733 C 454.003 -2.26548 2.63236 0
M  V30 4734 C 452.957 -2.03175 3.76701 0
M  V30 4735 C 452.283 -3.38138 4.14206 0
M  V30 4736 C 453.583 -1.38625 5.03568 0
M  V30 4737 H 455.277 -0.523145 2.94794 0
M  V30 4738 H 452.823 -0.250195 1.4181 0
M  V30 4739 H 454.776 -2.95952 2.99984 0
M  V30 4740 H 453.5 -2.74051 1.77661 0
M  V30 4741 H 452.159 -1.36195 3.40362 0
M  V30 4742 H 451.807 -3.83363 3.25641 0
M  V30 4743 H 451.507 -3.23312 4.90656 0
M  V30 4744 H 453.031 -4.08841 4.53521 0
M  V30 4745 H 454.445 -1.98 5.38023 0
M  V30 4746 H 452.842 -1.34256 5.84889 0
M  V30 4747 H 453.912 -0.356722 4.83586 0
M  V30 4748 N 455.255 -1.55392 -0.262866 0
M  V30 4749 C 456.203 -1.8977 -1.345 0
M  V30 4750 C 457.197 -0.775063 -1.50629 0
M  V30 4751 O 458.403 -0.959519 -1.52293 0
M  V30 4752 H 454.778 -0.602467 -0.450041 0
M  V30 4753 H 456.749 -2.80147 -1.02762 0
M  V30 4754 C 455.498 -2.19501 -2.69657 0
M  V30 4755 H 454.821 -3.05378 -2.5804 0
M  V30 4756 H 456.261 -2.47469 -3.44289 0
M  V30 4757 C 454.72 -1.00597 -3.21531 0
M  V30 4758 O 455.25 -0.245768 -4.00947 0
M  V30 4759 N 453.456 -0.800911 -2.79345 0
M  V30 4760 H 453.003 -1.42079 -2.14875 0
M  V30 4761 H 452.961 -0.00697996 -3.14399 0
M  V30 4762 N 456.733 0.527833 -1.48498 0
M  V30 4763 C 457.696 1.61439 -1.62696 0
M  V30 4764 C 458.696 1.52824 -0.500136 0
M  V30 4765 O 459.886 1.56456 -0.765976 0
M  V30 4766 C 457.018 3.01063 -1.59918 0
M  V30 4767 H 458.211 1.50189 -2.59583 0
M  V30 4768 H 455.764 0.750055 -1.37127 0
M  V30 4769 H 456.499 3.17818 -0.645163 0
M  V30 4770 H 456.284 3.08725 -2.41726 0
M  V30 4771 H 457.774 3.80057 -1.73051 0
M  V30 4772 N 458.211 1.37122 0.776871 0
M  V30 4773 C 459.488 1.22586 1.52421 0
M  V30 4774 C 459.868 -0.182726 2.10308 0
M  V30 4775 O 459.216 -1.18979 1.9508 0
M  V30 4776 C 459.426 2.31782 2.60918 0
M  V30 4777 C 460.774 2.69071 3.2846 0
M  V30 4778 O 461.798 2.3092 2.71209 0
M  V30 4779 O 460.657 3.3478 4.31954 0
M  V30 4780 H 457.751 0.478045 0.674835 0
M  V30 4781 H 460.297 1.48888 0.814275 0
M  V30 4782 H 459.069 3.26131 2.16227 0
M  V30 4783 H 458.692 2.06916 3.39517 0
M  V30 4784 N 459.689 -1.00246 1.21608 0
M  V30 4785 C 460.619 -2.10921 1.00172 0
M  V30 4786 C 461.6 -1.69938 -0.0741587 0
M  V30 4787 O 462.785 -1.94009 0.0861753 0
M  V30 4788 C 459.915 -3.42618 0.568355 0
M  V30 4789 C 458.869 -3.97407 1.58909 0
M  V30 4790 C 458.195 -5.25038 1.01187 0
M  V30 4791 C 459.495 -4.2918 2.97661 0
M  V30 4792 H 461.189 -2.29112 1.92739 0
M  V30 4793 H 458.735 -1.10101 0.928102 0
M  V30 4794 H 460.688 -4.19444 0.405555 0
M  V30 4795 H 459.412 -3.24227 -0.392961 0
M  V30 4796 H 458.071 -3.22703 1.73949 0
M  V30 4797 H 457.719 -5.02982 0.0421965 0
M  V30 4798 H 457.419 -5.62661 1.6937 0
M  V30 4799 H 458.943 -6.04507 0.860448 0
M  V30 4800 H 460.357 -4.96839 2.86049 0
M  V30 4801 H 458.754 -4.77952 3.6288 0
M  V30 4802 H 459.824 -3.3735 3.48315 0
M  V30 4803 N 461.167 -1.02423 -1.1978 0
M  V30 4804 C 462.414 -0.717988 -1.89344 0
M  V30 4805 C 462.742 0.753036 -1.79331 0
M  V30 4806 O 461.997 1.56355 -1.17692 0
M  V30 4807 C 462.296 -1.1088 -3.39765 0
M  V30 4808 C 461.962 -2.57731 -3.6998 0
M  V30 4809 C 460.624 -2.97854 -3.77937 0
M  V30 4810 C 462.976 -3.52763 -3.83677 0
M  V30 4811 C 460.304 -4.31931 -3.97054 0
M  V30 4812 C 462.656 -4.86538 -4.04306 0
M  V30 4813 C 461.32 -5.26356 -4.10494 0
M  V30 4814 H 460.59 -0.26273 -0.692859 0
M  V30 4815 H 463.237 -1.28623 -1.41875 0
M  V30 4816 H 461.542 -0.459094 -3.89101 0
M  V30 4817 H 463.239 -0.849432 -3.919 0
M  V30 4818 H 459.829 -2.25646 -3.64393 0
M  V30 4819 H 464.013 -3.2292 -3.76877 0
M  V30 4820 H 459.269 -4.62324 -4.00083 0
M  V30 4821 H 463.443 -5.60093 -4.13846 0
M  V30 4822 H 461.07 -6.3026 -4.2506 0
M  V30 4823 N 462.645 1.35699 -0.801477 0
M  V30 4824 C 464.061 1.52065 -0.484596 0
M  V30 4825 C 464.261 1.75215 0.995084 0
M  V30 4826 O 463.317 1.79061 1.78026 0
M  V30 4827 C 464.63 2.69908 -1.32552 0
M  V30 4828 C 466.178 2.83784 -1.32044 0
M  V30 4829 C 466.653 4.04646 -2.14536 0
M  V30 4830 N 468.144 4.11814 -2.12046 0
M  V30 4831 C 468.879 5.04437 -2.72636 0
M  V30 4832 N 468.375 6.02426 -3.42133 0
M  V30 4833 N 470.168 4.97144 -2.62305 0
M  V30 4834 H 462.319 1.18928 -1.75983 0
M  V30 4835 H 464.582 0.581455 -0.748741 0
M  V30 4836 H 464.288 2.59363 -2.37537 0
M  V30 4837 H 464.162 3.64376 -0.975181 0
M  V30 4838 H 466.549 2.93783 -0.27846 0
M  V30 4839 H 466.63 1.90188 -1.71062 0
M  V30 4840 H 466.274 3.95407 -3.18772 0
M  V30 4841 H 466.204 4.97413 -1.72882 0
M  V30 4842 H 468.695 3.41664 -1.61476 0
M  V30 4843 H 469.008 6.69688 -3.85666 0
M  V30 4844 H 467.353 6.02615 -3.46237 0
M  V30 4845 H 470.544 4.19546 -2.07603 0
M  V30 4846 H 470.717 5.69138 -3.09815 0
M  V30 4847 N 464.123 0.554532 1.47522 0
M  V30 4848 C 465.371 0.0294208 2.02079 0
M  V30 4849 C 465.692 -1.32411 1.43151 0
M  V30 4850 O 464.962 -1.863 0.605728 0
M  V30 4851 H 463.542 0.00788672 0.746958 0
M  V30 4852 H 466.204 0.723934 1.80956 0
M  V30 4853 H 465.3 -0.0606745 3.12041 0
M  V30 4854 N 465.601 -1.54893 0.290851 0
M  V30 4855 C 466.829 -2.04343 -0.324288 0
M  V30 4856 C 467.244 -1.16859 -1.48289 0
M  V30 4857 O 466.601 -0.192018 -1.81487 0
M  V30 4858 C 466.652 -3.52756 -0.79026 0
M  V30 4859 O 466.373 -4.36913 0.322213 0
M  V30 4860 C 467.874 -4.18161 -1.4716 0
M  V30 4861 H 465.094 -0.667135 -0.0719173 0
M  V30 4862 H 467.638 -1.99981 0.427529 0
M  V30 4863 H 465.793 -3.57511 -1.49213 0
M  V30 4864 H 466.207 -5.24486 -0.0387372 0
M  V30 4865 H 467.681 -5.23562 -1.7489 0
M  V30 4866 H 468.158 -3.67282 -2.40834 0
M  V30 4867 H 468.764 -4.17454 -0.813178 0
M  V30 4868 N 467.08 -0.0183926 -1.57589 0
M  V30 4869 C 468.01 0.965596 -2.12599 0
M  V30 4870 C 468.991 1.34641 -1.0395 0
M  V30 4871 O 470.176 1.42693 -1.31729 0
M  V30 4872 C 467.306 2.25149 -2.64434 0
M  V30 4873 C 466.26 2.01175 -3.77773 0
M  V30 4874 C 465.586 3.35937 -4.15994 0
M  V30 4875 C 466.886 1.35953 -5.04296 0
M  V30 4876 H 468.58 0.507504 -2.95067 0
M  V30 4877 H 466.126 0.242671 -1.41941 0
M  V30 4878 H 468.079 2.94357 -3.01549 0
M  V30 4879 H 466.803 2.73105 -1.79112 0
M  V30 4880 H 465.462 1.34388 -3.4108 0
M  V30 4881 H 465.11 3.81631 -3.27669 0
M  V30 4882 H 464.81 3.20705 -4.92364 0
M  V30 4883 H 466.334 4.0643 -4.55683 0
M  V30 4884 H 467.748 1.95144 -5.39065 0
M  V30 4885 H 466.145 1.31152 -5.85593 0
M  V30 4886 H 467.215 0.331071 -4.83768 0
M  V30 4887 N 468.558 1.5553 0.254621 0
M  V30 4888 C 469.468 1.92789 1.33677 0
M  V30 4889 C 470.484 0.827356 1.53071 0
M  V30 4890 O 471.66 1.12807 1.66843 0
M  V30 4891 C 468.725 2.20827 2.67275 0
M  V30 4892 C 467.786 3.4427 2.5647 0
M  V30 4893 C 467.019 3.70961 3.83697 0
M  V30 4894 O 467.242 2.99852 4.85227 0
M  V30 4895 O 466.176 4.64491 3.82794 0
M  V30 4896 H 470.002 2.84945 1.05071 0
M  V30 4897 H 467.587 1.42312 0.454723 0
M  V30 4898 H 469.469 2.40204 3.46237 0
M  V30 4899 H 468.144 1.31851 2.9563 0
M  V30 4900 H 467.051 3.30209 1.75821 0
M  V30 4901 H 468.384 4.33524 2.33062 0
M  V30 4902 N 470.036 -0.519951 1.48776 0
M  V30 4903 C 471.447 -1.10177 1.50725 0
M  V30 4904 C 471.798 -1.94153 0.282678 0
M  V30 4905 O 470.923 -2.07645 -0.609298 0
M  V30 4906 C 471.518 -2.00482 2.73116 0
M  V30 4907 C 470.077 -2.53862 2.77905 0
M  V30 4908 C 469.224 -1.31047 2.44381 0
M  V30 4909 H 472.175 -0.30473 1.55747 0
M  V30 4910 H 472.196 -2.8491 2.52203 0
M  V30 4911 H 471.708 -1.39335 3.62225 0
M  V30 4912 H 469.809 -3.18702 1.93029 0
M  V30 4913 H 469.922 -2.9231 3.79594 0
M  V30 4914 H 468.286 -1.62953 1.95751 0
M  V30 4915 H 469.069 -0.71637 3.35743 0
M  V30 4916 N 471.514 -1.37532 -0.769588 0
M  V30 4917 C 472.76 -1.33057 -1.53048 0
M  V30 4918 C 473.093 0.0841865 -1.94017 0
M  V30 4919 O 472.368 1.04198 -1.64235 0
M  V30 4920 C 472.651 -2.27166 -2.79406 0
M  V30 4921 C 472.504 -3.77429 -2.44677 0
M  V30 4922 C 473.823 -2.19683 -3.81349 0
M  V30 4923 H 470.942 -0.484655 -0.555228 0
M  V30 4924 H 473.584 -1.68251 -0.882702 0
M  V30 4925 H 471.734 -1.97283 -3.34682 0
M  V30 4926 H 473.406 -4.17918 -1.953 0
M  V30 4927 H 471.649 -3.95892 -1.77346 0
M  V30 4928 H 472.32 -4.38716 -3.35011 0
M  V30 4929 H 474.796 -2.46029 -3.35573 0
M  V30 4930 H 473.672 -2.87668 -4.67481 0
M  V30 4931 H 473.933 -1.19045 -4.25771 0
M  V30 4932 N 472.992 0.995999 -1.22138 0
M  V30 4933 C 473.902 2.11985 -1.00496 0
M  V30 4934 C 474.918 1.7394 0.0457701 0
M  V30 4935 O 476.094 2.00868 -0.146273 0
M  V30 4936 C 473.159 3.41779 -0.582086 0
M  V30 4937 C 472.22 3.93943 -1.70608 0
M  V30 4938 C 471.453 5.17542 -1.30328 0
M  V30 4939 O 471.676 5.70114 -0.180743 0
M  V30 4940 O 470.61 5.63382 -2.11861 0
M  V30 4941 H 474.436 2.33123 -1.94647 0
M  V30 4942 H 472.021 1.10358 -1.00705 0
M  V30 4943 H 473.903 4.1989 -0.356467 0
M  V30 4944 H 472.578 3.22007 0.330592 0
M  V30 4945 H 471.485 3.17019 -1.98619 0
M  V30 4946 H 472.818 4.18141 -2.59651 0
M  V30 4947 N 474.47 1.03057 1.19235 0
M  V30 4948 C 475.417 0.612832 2.22515 0
M  V30 4949 C 476.387 -0.374224 1.61829 0
M  V30 4950 O 477.572 -0.270501 1.88873 0
M  V30 4951 C 474.712 -0.028475 3.45088 0
M  V30 4952 C 473.825 1.00483 4.20151 0
M  V30 4953 C 472.96 0.333102 5.30155 0
M  V30 4954 C 471.999 1.3522 5.96977 0
M  V30 4955 N 471.136 0.70616 6.9854 0
M  V30 4956 H 475.976 1.49812 2.57605 0
M  V30 4957 H 473.513 0.749658 1.26564 0
M  V30 4958 H 475.471 -0.417548 4.15105 0
M  V30 4959 H 474.101 -0.877334 3.10649 0
M  V30 4960 H 473.153 1.51194 3.49062 0
M  V30 4961 H 474.465 1.77929 4.65986 0
M  V30 4962 H 473.619 -0.110725 6.06599 0
M  V30 4963 H 472.358 -0.473547 4.85396 0
M  V30 4964 H 471.363 1.80627 5.19282 0
M  V30 4965 H 472.588 2.16037 6.4382 0
M  V30 4966 H 470.534 -0.0803667 6.55951 0
M  V30 4967 H 470.451 1.41848 7.42573 0
M  V30 4968 H 471.719 0.286391 7.78974 0
M  V30 4969 N 475.948 -1.35272 0.808662 0
M  V30 4970 C 476.911 -2.28082 0.226093 0
M  V30 4971 C 477.911 -1.49673 -0.587762 0
M  V30 4972 O 479.101 -1.69404 -0.405943 0
M  V30 4973 C 476.233 -3.33955 -0.684596 0
M  V30 4974 H 477.426 -2.81116 1.04469 0
M  V30 4975 H 474.979 -1.45162 0.579466 0
M  V30 4976 H 475.714 -2.86111 -1.5268 0
M  V30 4977 H 475.499 -3.91965 -0.102699 0
M  V30 4978 H 476.989 -4.03219 -1.08646 0
M  V30 4979 N 477.426 -0.562348 -1.47226 0
M  V30 4980 C 478.356 0.170627 -2.32876 0
M  V30 4981 C 479.337 0.903748 -1.44106 0
M  V30 4982 O 480.522 0.883206 -1.72954 0
M  V30 4983 C 477.652 1.19786 -3.25989 0
M  V30 4984 C 476.606 0.580875 -4.2404 0
M  V30 4985 C 475.932 1.71311 -5.06514 0
M  V30 4986 C 477.232 -0.468714 -5.20193 0
M  V30 4987 H 478.926 -0.544441 -2.94408 0
M  V30 4988 H 476.472 -0.263271 -1.41573 0
M  V30 4989 H 478.425 1.71884 -3.84752 0
M  V30 4990 H 477.149 1.94294 -2.62521 0
M  V30 4991 H 475.808 0.0811538 -3.6651 0
M  V30 4992 H 475.456 2.44736 -4.39447 0
M  V30 4993 H 475.156 1.30604 -5.72902 0
M  V30 4994 H 476.68 2.23725 -5.68137 0
M  V30 4995 H 478.094 -0.0336028 -5.7329 0
M  V30 4996 H 476.491 -0.794957 -5.94811 0
M  V30 4997 H 477.561 -1.36269 -4.65359 0
M  V30 4998 N 478.904 1.54736 -0.299062 0
M  V30 4999 C 480.32 1.59507 0.0543849 0
M  V30 5000 C 480.52 1.31606 1.52585 0
M  V30 5001 O 479.576 1.08853 2.27832 0
M  V30 5002 C 480.889 2.98751 -0.34181 0
M  V30 5003 C 482.437 3.1165 -0.290414 0
M  V30 5004 C 482.912 4.53199 -0.661402 0
M  V30 5005 N 484.403 4.59114 -0.613863 0
M  V30 5006 C 485.138 5.66709 -0.873417 0
M  V30 5007 N 484.634 6.82349 -1.19884 0
M  V30 5008 N 486.427 5.56369 -0.800608 0
M  V30 5009 H 478.578 1.71133 -1.25806 0
M  V30 5010 H 480.841 0.799186 -0.509908 0
M  V30 5011 H 480.547 3.24085 -1.36608 0
M  V30 5012 H 480.421 3.75961 0.305508 0
M  V30 5013 H 482.808 2.86066 0.724605 0
M  V30 5014 H 482.889 2.366 -0.972327 0
M  V30 5015 H 482.533 4.79513 -1.67422 0
M  V30 5016 H 482.463 5.26583 0.0425612 0
M  V30 5017 H 484.954 3.76053 -0.3732 0
M  V30 5018 H 485.267 7.60326 -1.38291 0
M  V30 5019 H 483.612 6.83906 -1.23685 0
M  V30 5020 H 486.803 4.64904 -0.546045 0
M  V30 5021 H 486.976 6.40139 -1.00626 0
M  V30 5022 N 480.382 0.0267497 1.57577 0
M  V30 5023 C 481.659 -0.690926 1.82991 0
M  V30 5024 C 482.039 -1.90471 0.910164 0
M  V30 5025 O 481.387 -2.28474 -0.0347985 0
M  V30 5026 C 481.597 -1.07139 3.32148 0
M  V30 5027 C 482.945 -1.46402 3.98562 0
M  V30 5028 O 483.969 -1.16443 3.36629 0
M  V30 5029 O 482.828 -2.02214 5.07712 0
M  V30 5030 H 479.922 -0.338747 0.75444 0
M  V30 5031 H 482.468 0.0542506 1.69613 0
M  V30 5032 H 481.24 -0.207394 3.9075 0
M  V30 5033 H 480.863 -1.87481 3.50623 0
M  V30 5034 N 481.861 -1.55662 -0.24637 0
M  V30 5035 C 482.824 -1.89558 -1.28842 0
M  V30 5036 C 483.824 -0.772082 -1.41052 0
M  V30 5037 O 485.014 -1.04007 -1.39743 0
M  V30 5038 C 482.146 -2.12449 -2.66605 0
M  V30 5039 H 483.339 -2.82735 -1.00004 0
M  V30 5040 H 480.892 -1.48562 -0.485684 0
M  V30 5041 H 481.627 -1.21742 -3.00582 0
M  V30 5042 H 481.412 -2.94273 -2.59125 0
M  V30 5043 H 482.902 -2.39854 -3.41847 0
M  V30 5044 N 483.339 0.512053 -1.4905 0
M  V30 5045 C 484.286 1.6148 -1.64902 0
M  V30 5046 C 485.256 1.58687 -0.490673 0
M  V30 5047 O 486.441 1.76842 -0.71636 0
M  V30 5048 C 483.581 2.99676 -1.71139 0
M  V30 5049 C 482.694 3.12568 -2.98203 0
M  V30 5050 C 481.829 4.4143 -2.95487 0
M  V30 5051 C 480.868 4.47916 -4.17179 0
M  V30 5052 N 480.005 5.68191 -4.12437 0
M  V30 5053 H 484.845 1.47271 -2.59066 0
M  V30 5054 H 482.382 0.716713 -1.28459 0
M  V30 5055 H 484.34 3.79761 -1.72736 0
M  V30 5056 H 482.97 3.12614 -0.804508 0
M  V30 5057 H 482.022 2.25618 -3.06269 0
M  V30 5058 H 483.334 3.1322 -3.88194 0
M  V30 5059 H 482.488 5.29825 -2.95585 0
M  V30 5060 H 481.227 4.43326 -2.03256 0
M  V30 5061 H 480.232 3.57925 -4.17337 0
M  V30 5062 H 481.457 4.47744 -5.1059 0
M  V30 5063 H 479.403 5.7095 -3.23036 0
M  V30 5064 H 479.32 5.70413 -4.96151 0
M  V30 5065 H 480.588 6.58823 -4.16621 0
M  V30 5066 N 484.817 1.37938 0.762283 0
M  V30 5067 C 485.747 1.37176 1.88958 0
M  V30 5068 C 486.728 0.238945 1.68413 0
M  V30 5069 O 487.913 0.440726 1.89133 0
M  V30 5070 C 485.043 1.18742 3.2637 0
M  V30 5071 C 483.997 2.29136 3.61498 0
M  V30 5072 C 483.323 1.95816 4.97554 0
M  V30 5073 C 484.623 3.71363 3.6727 0
M  V30 5074 H 486.317 2.31509 1.89853 0
M  V30 5075 H 483.863 1.11438 0.912005 0
M  V30 5076 H 485.816 1.16837 4.04879 0
M  V30 5077 H 484.54 0.208683 3.25933 0
M  V30 5078 H 483.199 2.30213 2.85303 0
M  V30 5079 H 482.847 0.964475 4.93667 0
M  V30 5080 H 482.547 2.69745 5.22026 0
M  V30 5081 H 484.071 1.95513 5.78452 0
M  V30 5082 H 485.485 3.72364 4.35911 0
M  V30 5083 H 483.882 4.44425 4.03245 0
M  V30 5084 H 484.952 4.04305 2.67704 0
M  V30 5085 N 486.295 -0.989507 1.22664 0
M  V30 5086 C 487.572 -1.70326 0.961688 0
M  V30 5087 C 487.952 -2.04537 -0.522279 0
M  V30 5088 O 487.3 -1.73136 -1.49118 0
M  V30 5089 C 487.51 -2.95135 1.86269 0
M  V30 5090 C 488.858 -3.67842 2.12078 0
M  V30 5091 O 489.882 -3.0515 1.83745 0
M  V30 5092 O 488.741 -4.80644 2.60083 0
M  V30 5093 H 485.835 -0.743589 0.361946 0
M  V30 5094 H 488.381 -1.04555 1.33665 0
M  V30 5095 H 487.153 -2.66382 2.8663 0
M  V30 5096 H 486.776 -3.68645 1.48952 0
M  V30 5097 N 487.773 -1.03688 -1.18687 0
M  V30 5098 C 488.72 -0.624624 -2.22187 0
M  V30 5099 C 489.69 0.365636 -1.62026 0
M  V30 5100 O 490.875 0.260481 -1.89014 0
M  V30 5101 C 488.015 0.0101738 -3.45099 0
M  V30 5102 C 487.128 -1.02709 -4.19613 0
M  V30 5103 C 486.263 -0.361213 -5.2997 0
M  V30 5104 C 485.302 -1.38384 -5.96252 0
M  V30 5105 N 484.439 -0.743196 -6.98155 0
M  V30 5106 H 489.279 -1.51176 -2.56807 0
M  V30 5107 H 486.816 -0.75636 -1.26165 0
M  V30 5108 H 488.774 0.395528 -4.15321 0
M  V30 5109 H 487.404 0.860848 -3.1111 0
M  V30 5110 H 486.456 -1.53043 -3.48256 0
M  V30 5111 H 487.768 -1.80398 -4.65036 0
M  V30 5112 H 486.922 0.0785537 -6.06649 0
M  V30 5113 H 485.661 0.447799 -4.8564 0
M  V30 5114 H 484.666 -1.83378 -5.18317 0
M  V30 5115 H 485.891 -2.19448 -6.42666 0
M  V30 5116 H 483.837 0.0455789 -6.55984 0
M  V30 5117 H 483.754 -1.45784 -7.41811 0
M  V30 5118 H 485.022 -0.327698 -7.78811 0
M  V30 5119 N 489.251 1.34841 -0.815825 0
M  V30 5120 C 490.499 1.98107 -0.399744 0
M  V30 5121 C 490.82 1.65019 1.03894 0
M  V30 5122 O 490.09 0.937311 1.72021 0
M  V30 5123 H 488.67 0.732827 -0.144823 0
M  V30 5124 H 491.332 1.64599 -1.0437 0
M  V30 5125 H 490.428 3.07856 -0.512965 0
M  V30 5126 N 490.729 0.570148 1.46925 0
M  V30 5127 C 491.661 -0.207909 2.28255 0
M  V30 5128 C 492.674 -0.867301 1.37774 0
M  V30 5129 O 493.863 -0.738976 1.62485 0
M  V30 5130 C 490.963 -1.31298 3.12433 0
M  V30 5131 C 490.136 -0.747915 4.30958 0
M  V30 5132 C 489.195 -1.7391 4.9663 0
M  V30 5133 O 488.221 -1.2801 5.54619 0
M  V30 5134 N 489.423 -3.07288 4.92498 0
M  V30 5135 H 492.188 0.489794 2.95671 0
M  V30 5136 H 489.749 0.407076 1.56699 0
M  V30 5137 H 491.741 -1.97507 3.53232 0
M  V30 5138 H 490.311 -1.91373 2.47175 0
M  V30 5139 H 489.531 0.0913066 3.94094 0
M  V30 5140 H 490.819 -0.349958 5.07595 0
M  V30 5141 H 490.217 -3.47213 4.46609 0
M  V30 5142 H 488.774 -3.69021 5.37277 0
M  V30 5143 N 492.207 -1.54576 0.307264 0
M  V30 5144 C 493.456 -1.99442 -0.300976 0
M  V30 5145 C 493.769 -1.19928 -1.5452 0
M  V30 5146 O 494.975 -1.55092 -2.22842 0
M  V30 5147 C 493.431 -3.55084 -0.586809 0
M  V30 5148 C 493.039 -4.43413 0.639438 0
M  V30 5149 C 494.783 -4.0846 -1.1559 0
M  V30 5150 C 492.69 -5.90499 0.326411 0
M  V30 5151 H 491.62 -0.744986 -0.116238 0
M  V30 5152 H 494.271 -1.787 0.416947 0
M  V30 5153 H 492.653 -3.71749 -1.36449 0
M  V30 5154 H 493.827 -4.38522 1.41545 0
M  V30 5155 H 492.142 -4.00842 1.1276 0
M  V30 5156 H 494.739 -5.15926 -1.40445 0
M  V30 5157 H 495.082 -3.59443 -2.10015 0
M  V30 5158 H 495.615 -3.95362 -0.439778 0
M  V30 5159 H 492.354 -6.43676 1.23939 0
M  V30 5160 H 491.874 -5.98382 -0.412212 0
M  V30 5161 H 493.553 -6.46962 -0.0697393 0
M  V30 5162 N 493.685 -0.035106 -1.57561 0
M  V30 5163 C 494.617 0.973604 -2.07494 0
M  V30 5164 C 495.63 1.28504 -0.999534 0
M  V30 5165 O 496.819 1.24864 -1.27559 0
M  V30 5166 C 493.919 2.29945 -2.48955 0
M  V30 5167 C 493.092 2.1723 -3.79644 0
M  V30 5168 C 492.151 3.328 -4.07592 0
M  V30 5169 O 491.177 3.09418 -4.77754 0
M  V30 5170 N 492.379 4.56779 -3.58236 0
M  V30 5171 H 495.144 0.547525 -2.94656 0
M  V30 5172 H 492.705 0.151515 -1.61189 0
M  V30 5173 H 494.697 3.06097 -2.64739 0
M  V30 5174 H 493.267 2.64173 -1.67126 0
M  V30 5175 H 492.487 1.25768 -3.73599 0
M  V30 5176 H 493.775 2.05945 -4.65257 0
M  V30 5177 H 493.173 4.78668 -3.01485 0
M  V30 5178 H 491.73 5.30079 -3.79288 0
M  V30 5179 N 495.163 1.55791 0.238111 0
M  V30 5180 C 496.073 1.94196 1.31625 0
M  V30 5181 C 497.089 0.843545 1.52185 0
M  V30 5182 O 498.265 1.1457 1.65637 0
M  V30 5183 C 495.33 2.2365 2.64918 0
M  V30 5184 C 494.391 3.46971 2.52804 0
M  V30 5185 C 493.624 3.7501 3.79741 0
M  V30 5186 O 493.847 3.04982 4.82019 0
M  V30 5187 O 492.781 4.68525 3.77846 0
M  V30 5188 H 496.607 2.86044 1.02043 0
M  V30 5189 H 494.192 1.42786 0.439603 0
M  V30 5190 H 496.074 2.43863 3.4367 0
M  V30 5191 H 494.749 1.34979 2.94215 0
M  V30 5192 H 493.656 3.32055 1.72309 0
M  V30 5193 H 494.989 4.35971 2.28451 0
M  V30 5194 N 496.642 -0.504142 1.49319 0
M  V30 5195 C 497.891 -1.25507 1.57895 0
M  V30 5196 C 498.204 -1.93735 0.269433 0
M  V30 5197 O 499.41 -2.70492 0.233706 0
M  V30 5198 C 497.866 -2.27869 2.78574 0
M  V30 5199 C 497.474 -1.65594 4.16272 0
M  V30 5200 C 499.218 -3.0381 2.96479 0
M  V30 5201 C 497.125 -2.66048 5.28178 0
M  V30 5202 H 496.055 -0.47212 0.587894 0
M  V30 5203 H 498.706 -0.52931 1.757 0
M  V30 5204 H 497.088 -3.03594 2.54257 0
M  V30 5205 H 498.262 -0.958826 4.50714 0
M  V30 5206 H 496.577 -1.02055 4.037 0
M  V30 5207 H 499.174 -3.78925 3.77253 0
M  V30 5208 H 499.517 -3.61235 2.06918 0
M  V30 5209 H 500.05 -2.352 3.20821 0
M  V30 5210 H 496.789 -2.13408 6.19788 0
M  V30 5211 H 496.309 -3.34009 4.98195 0
M  V30 5212 H 497.988 -3.28536 5.57381 0
M  V30 5213 N 498.12 -1.38341 -0.754957 0
M  V30 5214 C 499.366 -1.34672 -1.51628 0
M  V30 5215 C 499.699 0.0636036 -1.94096 0
M  V30 5216 O 498.974 1.0245 -1.6533 0
M  V30 5217 C 499.257 -2.30116 -2.76981 0
M  V30 5218 C 499.11 -3.80003 -2.4066 0
M  V30 5219 C 500.429 -2.23715 -3.78998 0
M  V30 5220 H 497.548 -0.490517 -0.550056 0
M  V30 5221 H 500.19 -1.69178 -0.864807 0
M  V30 5222 H 498.34 -2.00821 -3.3257 0
M  V30 5223 H 500.012 -4.19966 -1.90856 0
M  V30 5224 H 498.255 -3.97751 -1.73137 0
M  V30 5225 H 498.926 -4.42244 -3.30339 0
M  V30 5226 H 501.402 -2.49574 -3.32945 0
M  V30 5227 H 500.278 -2.9261 -4.64403 0
M  V30 5228 H 500.539 -1.23554 -4.24484 0
M  V30 5229 N 499.598 0.982988 -1.23187 0
M  V30 5230 C 500.528 2.09301 -1.03515 0
M  V30 5231 C 501.509 1.70035 0.0471136 0
M  V30 5232 O 502.694 1.93847 -0.117029 0
M  V30 5233 C 499.824 3.4167 -0.622791 0
M  V30 5234 C 498.778 3.94828 -1.65211 0
M  V30 5235 C 498.104 5.23362 -1.09527 0
M  V30 5236 C 499.404 4.2439 -3.04451 0
M  V30 5237 H 501.098 2.26016 -1.96359 0
M  V30 5238 H 498.644 1.08611 -0.945501 0
M  V30 5239 H 500.597 4.18746 -0.472233 0
M  V30 5240 H 499.321 3.24811 0.341329 0
M  V30 5241 H 497.98 3.19895 -1.79061 0
M  V30 5242 H 497.628 5.02852 -0.122211 0
M  V30 5243 H 497.328 5.59895 -1.783 0
M  V30 5244 H 498.852 6.03062 -0.956511 0
M  V30 5245 H 500.266 4.92225 -2.93917 0
M  V30 5246 H 498.663 4.72118 -3.70438 0
M  V30 5247 H 499.733 3.31765 -3.53638 0
M  V30 5248 N 501.076 1.04316 1.18135 0
M  V30 5249 C 502.322 0.749128 1.88457 0
M  V30 5250 C 502.655 -0.72149 1.803 0
M  V30 5251 O 501.93 -1.52676 1.205 0
M  V30 5252 C 502.213 1.21905 3.38838 0
M  V30 5253 C 502.066 2.75195 3.55792 0
M  V30 5254 C 503.385 0.811085 4.32561 0
M  V30 5255 H 500.504 0.273611 0.684329 0
M  V30 5256 H 503.146 1.29561 1.38975 0
M  V30 5257 H 501.296 0.754137 3.8111 0
M  V30 5258 H 502.968 3.29743 3.22595 0
M  V30 5259 H 501.211 3.14899 2.98364 0
M  V30 5260 H 501.882 3.03135 4.61317 0
M  V30 5261 H 504.358 1.21118 3.98082 0
M  V30 5262 H 503.234 1.16761 5.36338 0
M  V30 5263 H 503.495 -0.285596 4.41177 0
M  V30 5264 N 502.554 -1.34406 0.822964 0
M  V30 5265 C 503.802 -1.97892 0.410245 0
M  V30 5266 C 504.123 -1.65567 -1.03017 0
M  V30 5267 O 503.393 -0.94642 -1.71522 0
M  V30 5268 H 501.973 -0.732049 0.148707 0
M  V30 5269 H 504.635 -1.64043 1.05242 0
M  V30 5270 H 503.731 -3.07579 0.529284 0
M  V30 5271 N 504.032 -0.577932 -1.46621 0
M  V30 5272 C 505.28 -0.061566 -2.02006 0
M  V30 5273 C 505.601 1.30117 -1.4524 0
M  V30 5274 O 504.871 1.85313 -0.63529 0
M  V30 5275 H 503.451 -0.0197692 -0.746738 0
M  V30 5276 H 506.113 -0.752631 -1.79782 0
M  V30 5277 H 505.209 0.0110238 -3.12098 0
M  V30 5278 N 505.51 1.54411 -0.315457 0
M  V30 5279 C 506.735 2.05299 0.294496 0
M  V30 5280 C 507.16 1.19052 1.4563 0
M  V30 5281 O 506.518 0.197804 1.80218 0
M  V30 5282 C 506.566 3.5345 0.714549 0
M  V30 5283 O 505.67 3.70175 1.81781 0
M  V30 5284 H 505.011 0.661743 0.0547019 0
M  V30 5285 H 507.541 1.99327 -0.461508 0
M  V30 5286 H 507.551 3.9557 0.999426 0
M  V30 5287 H 506.226 4.1568 -0.135244 0
M  V30 5288 H 504.803 3.3996 1.53236 0
M  V30 5289 N 506.988 0.0434614 1.5754 0
M  V30 5290 C 508.216 -0.641835 1.96693 0
M  V30 5291 C 508.631 -1.64832 0.920652 0
M  V30 5292 O 507.988 -1.82247 -0.095993 0
M  V30 5293 C 508.039 -1.33557 3.35924 0
M  V30 5294 O 507.76 -0.369403 4.3654 0
M  V30 5295 C 509.261 -2.11135 3.89791 0
M  V30 5296 H 506.481 -0.176013 0.647503 0
M  V30 5297 H 509.025 0.107478 2.04217 0
M  V30 5298 H 507.18 -2.03617 3.29574 0
M  V30 5299 H 507.594 -0.863674 5.1734 0
M  V30 5300 H 509.068 -2.55107 4.89514 0
M  V30 5301 H 509.545 -2.95634 3.24803 0
M  V30 5302 H 510.151 -1.46002 3.99454 0
M  V30 5303 N 508.466 -1.55915 -0.229846 0
M  V30 5304 C 509.882 -1.48721 -0.579166 0
M  V30 5305 C 510.082 -0.736976 -1.87539 0
M  V30 5306 O 509.138 -0.273258 -2.51017 0
M  V30 5307 C 510.451 -2.9323 -0.666082 0
M  V30 5308 C 511.999 -3.03701 -0.757267 0
M  V30 5309 C 512.474 -4.49552 -0.8756 0
M  V30 5310 N 513.965 -4.53561 -0.940035 0
M  V30 5311 C 514.7 -5.63683 -1.05116 0
M  V30 5312 N 514.196 -6.83576 -1.12675 0
M  V30 5313 N 515.989 -5.51516 -1.08565 0
M  V30 5314 H 508.14 -2.03123 0.620857 0
M  V30 5315 H 510.403 -0.922898 0.21671 0
M  V30 5316 H 510.109 -3.51032 0.21664 0
M  V30 5317 H 509.983 -3.44668 -1.53243 0
M  V30 5318 H 512.37 -2.45969 -1.63043 0
M  V30 5319 H 512.451 -2.55446 0.134583 0
M  V30 5320 H 512.095 -5.079 -0.00692351 0
M  V30 5321 H 512.025 -4.95506 -1.78274 0
M  V30 5322 H 514.516 -3.67215 -0.892269 0
M  V30 5323 H 514.829 -7.63251 -1.21109 0
M  V30 5324 H 513.174 -6.86303 -1.09603 0
M  V30 5325 H 516.365 -4.5678 -1.02319 0
M  V30 5326 H 516.538 -6.37372 -1.1688 0
M  V30 5327 N 509.944 0.496216 -1.49584 0
M  V30 5328 C 511.193 1.24668 -1.58558 0
M  V30 5329 C 511.506 1.9359 -0.279703 0
M  V30 5330 O 512.712 2.70365 -0.248048 0
M  V30 5331 C 511.168 2.26388 -2.79779 0
M  V30 5332 C 510.776 1.63384 -4.17145 0
M  V30 5333 C 512.52 3.02233 -2.98086 0
M  V30 5334 C 510.427 2.63243 -5.29582 0
M  V30 5335 H 509.357 0.468995 -0.590389 0
M  V30 5336 H 512.008 0.519985 -1.75978 0
M  V30 5337 H 510.39 3.02241 -2.55863 0
M  V30 5338 H 511.564 0.93491 -4.51216 0
M  V30 5339 H 509.879 0.999121 -4.04236 0
M  V30 5340 H 512.476 3.76919 -3.79257 0
M  V30 5341 H 512.819 3.60132 -2.08831 0
M  V30 5342 H 513.352 2.33495 -3.22063 0
M  V30 5343 H 510.091 2.10119 -6.20911 0
M  V30 5344 H 509.611 3.31363 -4.99959 0
M  V30 5345 H 511.29 3.25575 -5.59115 0
M  V30 5346 N 511.423 1.38739 0.74761 0
M  V30 5347 C 512.834 1.31507 1.32524 0
M  V30 5348 C 513.185 -0.0263963 1.96182 0
M  V30 5349 O 512.31 -0.92849 1.95469 0
M  V30 5350 C 512.905 2.38162 2.40966 0
M  V30 5351 C 511.464 2.34489 2.94434 0
M  V30 5352 C 510.611 2.20712 1.67873 0
M  V30 5353 H 513.562 1.4901 0.546043 0
M  V30 5354 H 513.583 2.04222 3.21051 0
M  V30 5355 H 513.095 3.35783 1.94605 0
M  V30 5356 H 511.196 1.40467 3.45108 0
M  V30 5357 H 511.309 3.28861 3.48407 0
M  V30 5358 H 509.673 1.67667 1.91729 0
M  V30 5359 H 510.456 3.20285 1.23582 0
M  V30 5360 N 512.901 -0.976442 1.23707 0
M  V30 5361 C 513.848 -2.06952 1.02174 0
M  V30 5362 C 514.818 -1.65984 -0.0621034 0
M  V30 5363 O 516.003 -1.90584 0.0907906 0
M  V30 5364 C 513.143 -3.39425 0.62327 0
M  V30 5365 C 512.256 -3.9364 1.77966 0
M  V30 5366 C 511.391 -5.14343 1.3276 0
M  V30 5367 C 510.43 -5.60733 2.45449 0
M  V30 5368 N 509.567 -6.72662 2.01172 0
M  V30 5369 H 514.407 -2.24704 1.95734 0
M  V30 5370 H 511.944 -1.10143 0.975034 0
M  V30 5371 H 513.902 -4.15526 0.37332 0
M  V30 5372 H 512.532 -3.21624 -0.275329 0
M  V30 5373 H 511.584 -3.14258 2.14351 0
M  V30 5374 H 512.896 -4.24035 2.62671 0
M  V30 5375 H 512.05 -5.97789 1.03601 0
M  V30 5376 H 510.789 -4.8561 0.450975 0
M  V30 5377 H 509.794 -4.75865 2.75378 0
M  V30 5378 H 511.019 -5.91483 3.33654 0
M  V30 5379 H 508.965 -6.45681 1.15895 0
M  V30 5380 H 508.882 -7.02462 2.79434 0
M  V30 5381 H 510.15 -7.59572 1.75129 0
M  V30 5382 N 514.379 -1.04941 -1.1758 0
M  V30 5383 C 515.628 -0.753124 -1.87112 0
M  V30 5384 C 515.941 0.722507 -1.81767 0
M  V30 5385 O 517.147 1.13265 -2.46746 0
M  V30 5386 C 515.603 -1.29695 -3.35719 0
M  V30 5387 C 515.211 -2.80184 -3.49572 0
M  V30 5388 C 516.955 -1.07759 -4.10595 0
M  V30 5389 C 514.862 -3.2788 -4.92187 0
M  V30 5390 H 513.792 -0.278034 -0.700866 0
M  V30 5391 H 516.443 -1.26637 -1.32798 0
M  V30 5392 H 514.825 -0.711522 -3.89555 0
M  V30 5393 H 515.999 -3.44561 -3.05965 0
M  V30 5394 H 514.314 -3.00632 -2.88113 0
M  V30 5395 H 516.911 -1.40899 -5.15802 0
M  V30 5396 H 517.254 -0.0152302 -4.16297 0
M  V30 5397 H 517.787 -1.62809 -3.62957 0
M  V30 5398 H 514.526 -4.33535 -4.91658 0
M  V30 5399 H 514.046 -2.68245 -5.36475 0
M  V30 5400 H 515.725 -3.22412 -5.60945 0
M  V30 5401 N 515.857 1.33968 -0.830081 0
M  V30 5402 C 516.789 2.28194 -0.21448 0
M  V30 5403 C 517.802 1.5135 0.599752 0
M  V30 5404 O 518.991 1.73286 0.42826 0
M  V30 5405 C 516.091 3.31221 0.717356 0
M  V30 5406 C 515.264 4.37365 -0.055613 0
M  V30 5407 C 514.323 5.2011 0.798231 0
M  V30 5408 O 513.349 5.68691 0.240616 0
M  V30 5409 N 514.551 5.40523 2.11695 0
M  V30 5410 H 517.316 2.81662 -1.02405 0
M  V30 5411 H 514.877 1.46568 -0.687713 0
M  V30 5412 H 516.869 3.83477 1.29334 0
M  V30 5413 H 515.439 2.78095 1.42765 0
M  V30 5414 H 514.659 3.85727 -0.812936 0
M  V30 5415 H 515.947 5.05397 -0.587444 0
M  V30 5416 H 515.345 5.0274 2.59363 0
M  V30 5417 H 513.902 5.95871 2.64162 0
M  V30 5418 N 517.335 0.585699 1.46312 0
M  V30 5419 C 518.282 -0.145835 2.30339 0
M  V30 5420 C 519.252 -0.881215 1.40797 0
M  V30 5421 O 520.437 -0.871293 1.69744 0
M  V30 5422 C 517.577 -1.15161 3.25318 0
M  V30 5423 C 516.69 -0.419367 4.2996 0
M  V30 5424 C 515.825 -1.41293 5.12064 0
M  V30 5425 C 514.864 -0.667261 6.08452 0
M  V30 5426 N 514.001 -1.60903 6.83414 0
M  V30 5427 H 518.841 0.576755 2.92365 0
M  V30 5428 H 516.378 0.296237 1.44086 0
M  V30 5429 H 518.336 -1.74763 3.78832 0
M  V30 5430 H 516.966 -1.84188 2.65094 0
M  V30 5431 H 516.018 0.291751 3.7928 0
M  V30 5432 H 517.33 0.163433 4.98532 0
M  V30 5433 H 516.484 -2.08167 5.6987 0
M  V30 5434 H 515.223 -2.02966 4.43459 0
M  V30 5435 H 514.228 0.0152356 5.49798 0
M  V30 5436 H 515.453 -0.0558817 6.79077 0
M  V30 5437 H 513.399 -2.21381 6.17516 0
M  V30 5438 H 513.316 -1.07911 7.48259 0
M  V30 5439 H 514.584 -2.26802 7.45775 0
M  V30 5440 N 518.813 -1.54241 0.323641 0
M  V30 5441 C 519.743 -2.27289 -0.534993 0
M  V30 5442 C 520.724 -1.28087 -1.11927 0
M  V30 5443 O 521.909 -1.56899 -1.14439 0
M  V30 5444 C 519.039 -3.03075 -1.69596 0
M  V30 5445 C 517.993 -4.09614 -1.24098 0
M  V30 5446 C 517.319 -4.73242 -2.4889 0
M  V30 5447 C 518.619 -5.21087 -0.355789 0
M  V30 5448 H 520.313 -2.99308 0.0743257 0
M  V30 5449 H 517.859 -1.43952 0.0371874 0
M  V30 5450 H 519.812 -3.52907 -2.30293 0
M  V30 5451 H 518.536 -2.28673 -2.33187 0
M  V30 5452 H 517.195 -3.60666 -0.656945 0
M  V30 5453 H 516.843 -3.95455 -3.10845 0
M  V30 5454 H 516.543 -5.45209 -2.19138 0
M  V30 5455 H 518.067 -5.25848 -3.10348 0
M  V30 5456 H 519.481 -5.66675 -0.869042 0
M  V30 5457 H 517.878 -5.9991 -0.151045 0
M  V30 5458 H 518.948 -4.81005 0.613339 0
M  V30 5459 N 520.291 -0.0518155 -1.57515 0
M  V30 5460 C 521.221 0.920283 -2.146 0
M  V30 5461 C 522.202 1.32406 -1.06783 0
M  V30 5462 O 523.387 1.39866 -1.34726 0
M  V30 5463 C 520.517 2.1949 -2.6915 0
M  V30 5464 C 519.471 1.93116 -3.81956 0
M  V30 5465 C 518.797 3.27037 -4.23026 0
M  V30 5466 C 520.097 1.25225 -5.07066 0
M  V30 5467 H 521.791 0.444801 -2.96077 0
M  V30 5468 H 519.337 0.212508 -1.42423 0
M  V30 5469 H 521.29 2.87894 -3.07725 0
M  V30 5470 H 520.014 2.69244 -1.84865 0
M  V30 5471 H 518.673 1.27123 -3.43854 0
M  V30 5472 H 518.321 3.74595 -3.3569 0
M  V30 5473 H 518.021 3.10189 -4.99056 0
M  V30 5474 H 519.545 3.96673 -4.64202 0
M  V30 5475 H 520.959 1.83666 -5.43083 0
M  V30 5476 H 519.356 1.18702 -5.88243 0
M  V30 5477 H 520.426 0.228382 -4.84362 0
M  V30 5478 N 521.769 1.56035 0.221574 0
M  V30 5479 C 522.701 1.889 1.29805 0
M  V30 5480 C 523.714 0.777269 1.43047 0
M  V30 5481 O 524.903 1.05557 1.43945 0
M  V30 5482 C 522.003 2.0825 2.67367 0
M  V30 5483 C 521.176 3.39267 2.76073 0
M  V30 5484 C 520.235 3.48049 3.94649 0
M  V30 5485 O 519.261 4.2108 3.82988 0
M  V30 5486 N 520.463 2.79191 5.08953 0
M  V30 5487 H 523.228 2.81831 1.01938 0
M  V30 5488 H 520.789 1.5658 0.411612 0
M  V30 5489 H 522.781 2.11441 3.45072 0
M  V30 5490 H 521.351 1.21944 2.87834 0
M  V30 5491 H 520.571 3.48175 1.84846 0
M  V30 5492 H 521.859 4.25575 2.7886 0
M  V30 5493 H 521.257 2.19635 5.21322 0
M  V30 5494 H 519.814 2.88043 5.84701 0
M  V30 5495 N 523.247 -0.488276 1.49845 0
M  V30 5496 C 524.524 -1.24959 1.50481 0
M  V30 5497 C 524.904 -2.09735 0.239698 0
M  V30 5498 O 524.252 -2.14865 -0.777524 0
M  V30 5499 C 524.462 -2.0954 2.79095 0
M  V30 5500 C 525.81 -2.68305 3.29086 0
M  V30 5501 O 526.834 -2.19797 2.80299 0
M  V30 5502 O 525.693 -3.56643 4.14087 0
M  V30 5503 H 522.787 -0.566133 0.602845 0
M  V30 5504 H 525.333 -0.501504 1.6212 0
M  V30 5505 H 524.105 -1.46958 3.62656 0
M  V30 5506 H 523.728 -2.91517 2.70377 0
M  V30 5507 N 524.725 -1.39134 -0.740242 0
M  V30 5508 C 525.972 -1.36071 -1.49969 0
M  V30 5509 C 526.3 0.0450245 -1.94448 0
M  V30 5510 O 525.555 1.02482 -1.66721 0
M  V30 5511 C 525.854 -2.27457 -2.75678 0
M  V30 5512 C 525.52 -3.75185 -2.50094 0
M  V30 5513 C 524.182 -4.15439 -2.42825 0
M  V30 5514 C 526.534 -4.68643 -2.28086 0
M  V30 5515 C 523.862 -5.4722 -2.11584 0
M  V30 5516 C 526.214 -6.00695 -1.98363 0
M  V30 5517 C 524.878 -6.40018 -1.8956 0
M  V30 5518 H 524.148 -0.497921 -0.548777 0
M  V30 5519 H 526.795 -1.71599 -0.85007 0
M  V30 5520 H 525.1 -1.8503 -3.45356 0
M  V30 5521 H 526.797 -2.22384 -3.33686 0
M  V30 5522 H 523.387 -3.43279 -2.56627 0
M  V30 5523 H 527.571 -4.3838 -2.32672 0
M  V30 5524 H 522.827 -5.76615 -2.03287 0
M  V30 5525 H 527.001 -6.72644 -1.80341 0
M  V30 5526 H 524.628 -7.42051 -1.65117 0
M  V30 5527 N 526.204 0.969867 -1.24223 0
M  V30 5528 C 527.451 1.71256 -1.08063 0
M  V30 5529 C 527.779 1.90734 0.380872 0
M  V30 5530 O 527.034 1.46469 1.29789 0
M  V30 5531 C 527.333 3.10883 -1.76314 0
M  V30 5532 C 526.999 3.11252 -3.26241 0
M  V30 5533 C 525.661 3.1106 -3.67144 0
M  V30 5534 C 528.013 3.05751 -4.22097 0
M  V30 5535 C 525.341 3.03097 -5.02344 0
M  V30 5536 C 527.693 2.9933 -5.57301 0
M  V30 5537 C 526.357 2.97466 -5.97554 0
M  V30 5538 H 525.627 0.62667 -0.395431 0
M  V30 5539 H 528.274 1.13422 -1.54297 0
M  V30 5540 H 526.579 3.72168 -1.22468 0
M  V30 5541 H 528.276 3.67138 -1.61277 0
M  V30 5542 H 524.866 3.12165 -2.93685 0
M  V30 5543 H 529.05 3.05031 -3.91497 0
M  V30 5544 H 524.306 3.00013 -5.32731 0
M  V30 5545 H 528.48 2.94033 -6.31283 0
M  V30 5546 H 526.107 2.91051 -7.02277 0
M  V30 5547 N 527.682 1.05563 1.17022 0
M  V30 5548 C 528.63 0.653887 2.2322 0
M  V30 5549 C 529.624 -0.326642 1.66221 0
M  V30 5550 O 530.83 -0.192301 1.7897 0
M  V30 5551 H 527.205 0.193297 0.726733 0
M  V30 5552 H 529.176 1.5596 2.54399 0
M  V30 5553 C 527.925 0.0485434 3.47666 0
M  V30 5554 H 527.248 0.79413 3.91834 0
M  V30 5555 H 528.688 -0.195133 4.23551 0
M  V30 5556 C 527.147 -1.20583 3.14581 0
M  V30 5557 O 527.677 -2.29475 3.29703 0
M  V30 5558 N 525.883 -1.10493 2.68774 0
M  V30 5559 H 525.43 -0.218795 2.56669 0
M  V30 5560 H 525.388 -1.94507 2.47011 0
M  V30 5561 N 529.16 -1.33526 0.837174 0
M  V30 5562 C 530.408 -1.97446 0.431211 0
M  V30 5563 C 530.729 -1.6665 -1.01255 0
M  V30 5564 O 529.999 -0.964559 -1.70508 0
M  V30 5565 H 528.579 -0.73043 0.156463 0
M  V30 5566 H 531.241 -1.62918 1.06976 0
M  V30 5567 H 530.337 -3.07001 0.561877 0
M  V30 5568 N 530.638 -0.59345 -1.46 0
M  V30 5569 C 531.585 0.133618 -2.30413 0
M  V30 5570 C 532.555 0.873736 -1.41262 0
M  V30 5571 O 533.74 0.862279 -1.70204 0
M  V30 5572 C 530.88 1.13434 -3.25924 0
M  V30 5573 C 529.993 0.39656 -4.30176 0
M  V30 5574 C 529.128 1.38575 -5.12806 0
M  V30 5575 C 528.167 0.634984 -6.08797 0
M  V30 5576 N 527.304 1.57276 -6.84258 0
M  V30 5577 H 532.144 -0.592252 -2.92055 0
M  V30 5578 H 529.681 -0.303874 -1.43927 0
M  V30 5579 H 531.639 1.72752 -3.79753 0
M  V30 5580 H 530.269 1.82779 -2.66067 0
M  V30 5581 H 529.321 -0.311861 -3.79119 0
M  V30 5582 H 530.633 -0.189869 -4.98438 0
M  V30 5583 H 529.787 2.05141 -5.70966 0
M  V30 5584 H 528.526 2.00611 -4.44529 0
M  V30 5585 H 527.531 -0.0443925 -5.49782 0
M  V30 5586 H 528.756 0.0198678 -6.79097 0
M  V30 5587 H 526.702 2.18103 -6.18682 0
M  V30 5588 H 526.619 1.03941 -7.48821 0
M  V30 5589 H 527.887 2.22844 -7.46968 0
M  V30 5590 N 532.116 1.54067 -0.331816 0
M  V30 5591 C 533.026 2.28322 0.539104 0
M  V30 5592 C 534.042 1.32985 1.1221 0
M  V30 5593 O 535.218 1.6601 1.1403 0
M  V30 5594 C 532.283 3.03277 1.68 0
M  V30 5595 C 531.344 4.14216 1.12798 0
M  V30 5596 C 530.577 4.85588 2.2145 0
M  V30 5597 O 530.8 4.56536 3.41952 0
M  V30 5598 O 529.734 5.72309 1.86404 0
M  V30 5599 H 533.56 3.03632 -0.0641692 0
M  V30 5600 H 531.145 1.49083 -0.0972365 0
M  V30 5601 H 533.027 3.50189 2.34405 0
M  V30 5602 H 531.702 2.30834 2.2693 0
M  V30 5603 H 530.609 3.71635 0.428782 0
M  V30 5604 H 531.942 4.88727 0.583698 0
M  V30 5605 N 533.594 0.0601682 1.57485 0
M  V30 5606 C 534.524 -0.90889 2.15085 0
M  V30 5607 C 535.505 -1.31838 1.07484 0
M  V30 5608 O 536.69 -1.3915 1.35466 0
M  V30 5609 C 533.82 -2.18059 2.7031 0
M  V30 5610 C 532.774 -1.91088 3.82974 0
M  V30 5611 C 532.1 -3.24789 4.24754 0
M  V30 5612 C 533.4 -1.22535 5.07723 0
M  V30 5613 H 535.094 -0.429093 2.96309 0
M  V30 5614 H 532.64 -0.204952 1.42534 0
M  V30 5615 H 534.593 -2.86258 3.09248 0
M  V30 5616 H 533.317 -2.6826 1.8629 0
M  V30 5617 H 531.976 -1.25297 3.44523 0
M  V30 5618 H 531.624 -3.72809 3.37672 0
M  V30 5619 H 531.324 -3.07538 5.00694 0
M  V30 5620 H 532.848 -3.94205 4.66299 0
M  V30 5621 H 534.262 -1.80783 5.4405 0
M  V30 5622 H 532.659 -1.1558 5.88864 0
M  V30 5623 H 533.729 -0.202692 4.84476 0
M  V30 5624 N 535.072 -1.5615 -0.213296 0
M  V30 5625 C 536.02 -1.93953 -1.28394 0
M  V30 5626 C 537.014 -0.822592 -1.48087 0
M  V30 5627 O 538.22 -1.00748 -1.49164 0
M  V30 5628 H 534.595 -0.61648 -0.430646 0
M  V30 5629 H 536.566 -2.83275 -0.937977 0
M  V30 5630 C 535.315 -2.27969 -2.62537 0
M  V30 5631 H 534.638 -3.13432 -2.48194 0
M  V30 5632 H 536.078 -2.58297 -3.36242 0
M  V30 5633 C 534.537 -1.10775 -3.18167 0
M  V30 5634 O 535.067 -0.373201 -3.99963 0
M  V30 5635 N 533.273 -0.889377 -2.76656 0
M  V30 5636 H 532.82 -1.48843 -2.10246 0
M  V30 5637 H 532.778 -0.107 -3.14218 0
M  V30 5638 N 536.55 0.480323 -1.50102 0
M  V30 5639 C 537.497 1.57946 -1.6829 0
M  V30 5640 C 538.467 1.57611 -0.524223 0
M  V30 5641 O 539.652 1.75282 -0.753709 0
M  V30 5642 C 536.792 2.95978 -1.77457 0
M  V30 5643 C 535.905 3.06173 -3.04766 0
M  V30 5644 C 535.04 4.35063 -3.04784 0
M  V30 5645 C 534.079 4.38966 -4.26586 0
M  V30 5646 N 533.216 5.59314 -4.24396 0
M  V30 5647 H 538.056 1.41743 -2.62131 0
M  V30 5648 H 535.593 0.689304 -1.2995 0
M  V30 5649 H 537.551 3.76011 -1.80752 0
M  V30 5650 H 536.181 3.10837 -0.870637 0
M  V30 5651 H 535.233 2.19071 -3.10986 0
M  V30 5652 H 536.545 3.04916 -3.9475 0
M  V30 5653 H 535.699 5.23436 -3.06757 0
M  V30 5654 H 534.438 4.38915 -2.12614 0
M  V30 5655 H 533.443 3.48992 -4.24835 0
M  V30 5656 H 534.668 4.36813 -5.19972 0
M  V30 5657 H 532.614 5.63969 -3.35074 0
M  V30 5658 H 532.531 5.5976 -5.08138 0
M  V30 5659 H 533.799 6.49837 -4.30502 0
M  V30 5660 N 538.028 1.39524 0.732853 0
M  V30 5661 C 539.253 1.40329 1.52717 0
M  V30 5662 C 539.678 0.000286574 1.881 0
M  V30 5663 O 539.036 -0.987262 1.52062 0
M  V30 5664 C 539.084 2.28464 2.78992 0
M  V30 5665 O 538.188 1.716 3.75003 0
M  V30 5666 H 537.529 0.47778 0.461109 0
M  V30 5667 H 540.059 1.83546 0.903996 0
M  V30 5668 H 540.069 2.43051 3.27705 0
M  V30 5669 H 538.744 3.30425 2.52572 0
M  V30 5670 H 537.321 1.66267 3.33781 0
M  V30 5671 N 539.506 -0.963266 1.24736 0
M  V30 5672 C 540.755 -1.70115 1.08369 0
M  V30 5673 C 541.068 -1.91939 -0.376688 0
M  V30 5674 O 542.274 -2.6334 -0.660624 0
M  V30 5675 C 540.73 -3.06218 1.89099 0
M  V30 5676 C 540.338 -2.92221 3.39574 0
M  V30 5677 C 542.082 -3.83848 1.81275 0
M  V30 5678 C 539.989 -4.23662 4.12631 0
M  V30 5679 H 538.919 -0.637944 0.401924 0
M  V30 5680 H 541.57 -1.07304 1.48856 0
M  V30 5681 H 539.952 -3.69884 1.41429 0
M  V30 5682 H 541.126 -2.37541 3.94856 0
M  V30 5683 H 539.441 -2.28054 3.48397 0
M  V30 5684 H 542.038 -4.81188 2.33158 0
M  V30 5685 H 542.381 -4.08949 0.778895 0
M  V30 5686 H 542.914 -3.26918 2.26649 0
M  V30 5687 H 539.653 -4.03753 5.16395 0
M  V30 5688 H 539.173 -4.78141 3.62135 0
M  V30 5689 H 540.852 -4.92256 4.19873 0
M  V30 5690 N 540.985 -1.06182 -1.16461 0
M  V30 5691 C 541.933 -0.665716 -2.2287 0
M  V30 5692 C 542.927 0.317822 -1.66392 0
M  V30 5693 O 544.133 0.182807 -1.79069 0
M  V30 5694 H 540.508 -0.197148 -0.725697 0
M  V30 5695 H 542.479 -1.57307 -2.53569 0
M  V30 5696 C 541.228 -0.0669803 -3.47635 0
M  V30 5697 H 540.551 -0.814899 -3.91407 0
M  V30 5698 H 541.991 0.172669 -4.23648 0
M  V30 5699 C 540.45 1.18913 -3.15216 0
M  V30 5700 O 540.98 2.27723 -3.30916 0
M  V30 5701 N 539.186 1.09066 -2.69357 0
M  V30 5702 H 538.733 0.20518 -2.56782 0
M  V30 5703 H 538.691 1.93195 -2.48039 0
M  V30 5704 N 542.463 1.3308 -0.844243 0
M  V30 5705 C 543.874 1.7992 -0.498566 0
M  V30 5706 C 544.225 1.69808 0.982834 0
M  V30 5707 O 543.35 1.25051 1.7661 0
M  V30 5708 C 543.945 3.26677 -0.898204 0
M  V30 5709 C 542.504 3.71513 -0.604583 0
M  V30 5710 C 541.651 2.54393 -1.10362 0
M  V30 5711 H 544.602 1.20526 -1.03244 0
M  V30 5712 H 544.623 3.79918 -0.21039 0
M  V30 5713 H 544.135 3.34004 -1.97643 0
M  V30 5714 H 542.236 3.69708 0.46335 0
M  V30 5715 H 542.349 4.64755 -1.16358 0
M  V30 5716 H 540.713 2.49246 -0.524273 0
M  V30 5717 H 541.496 2.6448 -2.18873 0
M  V30 5718 N 543.941 0.601185 1.45683 0
M  V30 5719 C 545.218 0.0261659 1.95582 0
M  V30 5720 C 545.598 -1.4399 1.5437 0
M  V30 5721 O 544.946 -2.13919 0.80318 0
M  V30 5722 C 545.156 0.217557 3.48321 0
M  V30 5723 C 546.504 0.0950076 4.24494 0
M  V30 5724 O 547.528 0.147345 3.55895 0
M  V30 5725 O 546.387 -0.025261 5.46494 0
M  V30 5726 H 543.481 -0.0393688 0.826062 0
M  V30 5727 H 546.027 0.670798 1.55879 0
M  V30 5728 H 544.799 1.23601 3.71266 0
M  V30 5729 H 544.422 -0.46264 3.94899 0
M  V30 5730 N 545.419 -1.53889 0.339982 0
M  V30 5731 C 546.329 -2.28604 -0.526988 0
M  V30 5732 C 547.345 -1.33578 -1.11503 0
M  V30 5733 O 548.521 -1.66612 -1.13148 0
M  V30 5734 C 545.586 -3.04164 -1.66389 0
M  V30 5735 C 544.647 -4.14809 -1.10599 0
M  V30 5736 C 543.88 -4.86756 -2.18871 0
M  V30 5737 O 544.103 -4.58343 -3.39526 0
M  V30 5738 O 543.037 -5.73289 -1.83366 0
M  V30 5739 H 546.863 -3.03594 0.0802707 0
M  V30 5740 H 544.448 -1.4903 0.105141 0
M  V30 5741 H 546.33 -3.51427 -2.32544 0
M  V30 5742 H 545.005 -2.32035 -2.25703 0
M  V30 5743 H 543.912 -3.71857 -0.409067 0
M  V30 5744 H 545.245 -4.89029 -0.557771 0
M  V30 5745 N 546.897 -0.0685191 -1.57451 0
M  V30 5746 C 547.86 0.885173 -2.11417 0
M  V30 5747 C 548.86 1.22853 -1.03748 0
M  V30 5748 O 550.05 1.16235 -1.2975 0
M  V30 5749 C 547.182 2.18964 -2.61281 0
M  V30 5750 H 548.375 0.417034 -2.96986 0
M  V30 5751 H 545.928 0.18014 -1.55258 0
M  V30 5752 H 546.663 2.70321 -1.79156 0
M  V30 5753 H 546.448 1.9534 -3.39977 0
M  V30 5754 H 547.938 2.87242 -3.0312 0
M  V30 5755 N 548.375 1.56261 0.205012 0
M  V30 5756 C 549.621 1.80306 0.9283 0
M  V30 5757 C 549.954 0.640932 1.83319 0
M  V30 5758 O 549.229 -0.359032 1.91158 0
M  V30 5759 C 549.512 3.14547 1.75306 0
M  V30 5760 C 549.365 4.41236 0.873562 0
M  V30 5761 C 550.684 3.45382 2.72762 0
M  V30 5762 H 547.803 0.655929 0.336044 0
M  V30 5763 H 550.445 1.88984 0.196211 0
M  V30 5764 H 548.595 3.0728 2.37721 0
M  V30 5765 H 550.267 4.60539 0.264887 0
M  V30 5766 H 548.51 4.33427 0.179773 0
M  V30 5767 H 549.181 5.31639 1.48541 0
M  V30 5768 H 551.657 3.52884 2.20481 0
M  V30 5769 H 550.533 4.40449 3.2756 0
M  V30 5770 H 550.794 2.68377 3.51321 0
M  V30 5771 N 549.853 -0.472356 1.50355 0
M  V30 5772 C 550.816 -1.5529 1.68576 0
M  V30 5773 C 551.816 -1.50863 0.556511 0
M  V30 5774 O 553.006 -1.53505 0.823516 0
M  V30 5775 C 550.138 -2.94921 1.70981 0
M  V30 5776 H 551.331 -1.40451 2.64978 0
M  V30 5777 H 548.884 -0.698645 1.39816 0
M  V30 5778 H 549.619 -3.15204 0.762675 0
M  V30 5779 H 549.404 -2.99541 2.53017 0
M  V30 5780 H 550.894 -3.73372 1.87037 0
M  V30 5781 N 551.331 -1.39911 -0.725443 0
M  V30 5782 C 552.561 -1.40744 -1.51244 0
M  V30 5783 C 552.969 -0.00275403 -1.892 0
M  V30 5784 O 552.312 0.981299 -1.55294 0
M  V30 5785 C 552.374 -2.22527 -2.82351 0
M  V30 5786 C 552.038 -3.71053 -2.66774 0
M  V30 5787 C 553.035 -4.63916 -2.34686 0
M  V30 5788 C 550.72 -4.14753 -2.83347 0
M  V30 5789 C 552.714 -5.98463 -2.19366 0
M  V30 5790 C 550.401 -5.49372 -2.67644 0
M  V30 5791 C 551.399 -6.41042 -2.357 0
M  V30 5792 O 551.087 -7.73181 -2.20107 0
M  V30 5793 H 550.819 -0.482314 -0.473655 0
M  V30 5794 H 553.373 -1.84472 -0.903284 0
M  V30 5795 H 551.603 -1.73563 -3.45562 0
M  V30 5796 H 553.292 -2.15421 -3.44018 0
M  V30 5797 H 554.058 -4.31453 -2.21525 0
M  V30 5798 H 549.937 -3.43728 -3.072 0
M  V30 5799 H 553.481 -6.69979 -1.94354 0
M  V30 5800 H 549.378 -5.81424 -2.80387 0
M  V30 5801 H 550.146 -7.84008 -2.35103 0
M  V30 5802 N 552.809 0.956637 -1.25245 0
M  V30 5803 C 554.057 1.69764 -1.09657 0
M  V30 5804 C 554.378 1.91583 0.363464 0
M  V30 5805 O 553.648 1.50149 1.25825 0
M  V30 5806 H 552.228 0.629097 -0.402798 0
M  V30 5807 H 554.89 1.15026 -1.57337 0
M  V30 5808 H 553.986 2.67769 -1.60331 0
M  V30 5809 N 554.287 1.06798 1.15896 0
M  V30 5810 C 555.25 0.687328 2.18651 0
M  V30 5811 C 556.25 -0.269559 1.58524 0
M  V30 5812 O 557.44 -0.0512627 1.74125 0
M  V30 5813 C 554.572 0.0121642 3.40898 0
M  V30 5814 H 555.765 1.59701 2.53842 0
M  V30 5815 H 553.318 0.863828 1.3026 0
M  V30 5816 H 554.053 -0.910025 3.1127 0
M  V30 5817 H 553.838 0.700309 3.85795 0
M  V30 5818 H 555.328 -0.239703 4.16911 0
M  V30 5819 N 555.766 -1.3263 0.851289 0
M  V30 5820 C 556.729 -2.27247 0.298541 0
M  V30 5821 C 557.729 -1.51467 -0.539847 0
M  V30 5822 O 558.919 -1.7061 -0.351843 0
M  V30 5823 C 556.051 -3.35964 -0.578004 0
M  V30 5824 H 557.244 -2.7765 1.13359 0
M  V30 5825 H 554.797 -1.43245 0.625354 0
M  V30 5826 H 555.532 -2.90823 -1.435 0
M  V30 5827 H 555.317 -3.92094 0.0220539 0
M  V30 5828 H 556.807 -4.06472 -0.957626 0
M  V30 5829 N 557.244 -0.608902 -1.45362 0
M  V30 5830 C 558.49 -0.104762 -2.02529 0
M  V30 5831 C 558.823 1.26191 -1.47613 0
M  V30 5832 O 558.098 1.8327 -0.65134 0
M  V30 5833 C 558.381 -0.0672661 -3.60037 0
M  V30 5834 C 558.234 -1.4647 -4.25284 0
M  V30 5835 C 559.553 0.619877 -4.35713 0
M  V30 5836 H 556.672 -0.0395438 -0.735938 0
M  V30 5837 H 559.314 -0.781126 -1.73201 0
M  V30 5838 H 557.464 0.50871 -3.85155 0
M  V30 5839 H 559.136 -2.08785 -4.11347 0
M  V30 5840 H 557.379 -2.02502 -3.83634 0
M  V30 5841 H 558.05 -1.39069 -5.34195 0
M  V30 5842 H 560.526 0.130297 -4.15896 0
M  V30 5843 H 559.402 0.615224 -5.45441 0
M  V30 5844 H 559.663 1.68621 -4.0868 0
M  V30 5845 N 558.722 1.53707 -0.348139 0
M  V30 5846 C 559.654 2.22725 0.540946 0
M  V30 5847 C 560.667 1.2354 1.06027 0
M  V30 5848 O 561.856 1.49867 0.96964 0
M  V30 5849 C 558.956 2.89756 1.75768 0
M  V30 5850 C 558.129 4.15297 1.37285 0
M  V30 5851 C 557.188 4.65697 2.44976 0
M  V30 5852 O 556.214 5.29798 2.08092 0
M  V30 5853 N 557.416 4.42017 3.763 0
M  V30 5854 H 560.181 2.99658 -0.0501592 0
M  V30 5855 H 557.742 1.60979 -0.17248 0
M  V30 5856 H 559.734 3.20388 2.47252 0
M  V30 5857 H 558.304 2.16382 2.25605 0
M  V30 5858 H 557.524 3.9116 0.488584 0
M  V30 5859 H 558.812 4.96948 1.09179 0
M  V30 5860 H 558.21 3.9076 4.09051 0
M  V30 5861 H 556.767 4.77242 4.4394 0
M  V30 5862 N 560.2 0.0768682 1.57412 0
M  V30 5863 C 561.163 -0.873949 2.11884 0
M  V30 5864 C 562.163 -1.22301 1.04398 0
M  V30 5865 O 563.353 -1.15545 1.30365 0
M  V30 5866 C 560.485 -2.17575 2.62438 0
M  V30 5867 H 561.678 -0.401278 2.97203 0
M  V30 5868 H 559.231 -0.171904 1.55352 0
M  V30 5869 H 559.966 -2.69368 1.80587 0
M  V30 5870 H 559.751 -1.93534 3.41009 0
M  V30 5871 H 561.241 -2.85631 3.04639 0
M  V30 5872 N 561.678 -1.56367 -0.196722 0
M  V30 5873 C 562.641 -1.93561 -1.22746 0
M  V30 5874 C 563.641 -0.816566 -1.38524 0
M  V30 5875 O 564.831 -1.084 -1.36363 0
M  V30 5876 C 561.963 -2.20823 -2.59712 0
M  V30 5877 H 563.156 -2.85774 -0.909586 0
M  V30 5878 H 560.709 -1.50032 -0.438174 0
M  V30 5879 H 561.444 -1.31243 -2.96557 0
M  V30 5880 H 561.229 -3.02368 -2.49632 0
M  V30 5881 H 562.719 -2.50608 -3.34044 0
M  V30 5882 N 563.156 0.464375 -1.50603 0
M  V30 5883 C 564.405 1.21277 -1.61167 0
M  V30 5884 C 564.718 1.92953 -0.320704 0
M  V30 5885 O 565.924 2.69778 -0.30534 0
M  V30 5886 C 564.38 2.20403 -2.84518 0
M  V30 5887 C 563.988 1.54499 -4.20516 0
M  V30 5888 C 565.732 2.95843 -3.0443 0
M  V30 5889 C 563.639 2.51951 -5.35047 0
M  V30 5890 H 562.569 0.456367 -0.600204 0
M  V30 5891 H 565.22 0.48254 -1.77042 0
M  V30 5892 H 563.602 2.96746 -2.62217 0
M  V30 5893 H 564.776 0.83899 -4.53098 0
M  V30 5894 H 563.091 0.913152 -4.06264 0
M  V30 5895 H 565.688 3.6879 -3.87167 0
M  V30 5896 H 566.031 3.55622 -2.16423 0
M  V30 5897 H 566.564 2.26611 -3.26944 0
M  V30 5898 H 563.303 1.96901 -6.25228 0
M  V30 5899 H 562.823 3.20683 -5.06875 0
M  V30 5900 H 564.502 3.13643 -5.65895 0
M  V30 5901 N 564.634 1.40294 0.718013 0
M  V30 5902 C 565.564 1.43118 1.84498 0
M  V30 5903 C 566.545 0.292403 1.67568 0
M  V30 5904 O 567.73 0.500675 1.87635 0
M  V30 5905 C 564.86 1.29065 3.22427 0
M  V30 5906 C 563.814 2.40521 3.54025 0
M  V30 5907 C 563.14 2.11546 4.91073 0
M  V30 5908 C 564.44 3.82859 3.55269 0
M  V30 5909 H 566.134 2.37432 1.82391 0
M  V30 5910 H 563.68 1.14283 0.87609 0
M  V30 5911 H 565.633 1.29658 4.00957 0
M  V30 5912 H 564.357 0.312271 3.25104 0
M  V30 5913 H 563.016 2.39173 2.77834 0
M  V30 5914 H 562.664 1.12104 4.90348 0
M  V30 5915 H 562.364 2.86216 5.1318 0
M  V30 5916 H 563.888 2.13817 5.71939 0
M  V30 5917 H 565.302 3.86044 4.23843 0
M  V30 5918 H 563.699 4.57029 3.88902 0
M  V30 5919 H 564.769 4.12617 2.54706 0
M  V30 5920 N 566.112 -0.949982 1.2575 0
M  V30 5921 C 567.361 -1.68956 1.10168 0
M  V30 5922 C 567.674 -1.92327 -0.356309 0
M  V30 5923 O 568.88 -2.64026 -0.632657 0
M  V30 5924 C 567.336 -3.04196 1.92336 0
M  V30 5925 C 566.944 -2.88603 3.42655 0
M  V30 5926 C 568.688 -3.81904 1.85336 0
M  V30 5927 C 566.595 -4.19262 4.17101 0
M  V30 5928 H 565.525 -0.633645 0.408668 0
M  V30 5929 H 568.176 -1.05719 1.49986 0
M  V30 5930 H 566.558 -3.68363 1.45344 0
M  V30 5931 H 567.732 -2.3334 3.97353 0
M  V30 5932 H 566.047 -2.24345 3.50796 0
M  V30 5933 H 568.644 -4.78688 2.38248 0
M  V30 5934 H 568.987 -4.08099 0.822226 0
M  V30 5935 H 569.52 -3.24495 2.30104 0
M  V30 5936 H 566.259 -3.98254 5.20648 0
M  V30 5937 H 565.779 -4.74273 3.67186 0
M  V30 5938 H 567.458 -4.87775 4.25071 0
M  V30 5939 N 567.59 -1.07411 -1.15328 0
M  V30 5940 C 568.838 -0.796073 -1.85761 0
M  V30 5941 C 569.159 0.679864 -1.82764 0
M  V30 5942 O 568.429 1.49242 -1.269 0
M  V30 5943 H 567.009 -0.291495 -0.687779 0
M  V30 5944 H 569.671 -1.35799 -1.39802 0
M  V30 5945 H 568.767 -1.13114 -2.90881 0
M  V30 5946 N 569.068 1.32177 -0.85831 0
M  V30 5947 C 570.345 1.91781 -0.384624 0
M  V30 5948 C 570.725 1.78171 1.13217 0
M  V30 5949 O 570.073 1.18209 1.95548 0
M  V30 5950 C 570.283 3.38414 -0.853047 0
M  V30 5951 C 571.631 4.15542 -0.872359 0
M  V30 5952 O 572.655 3.47148 -0.797926 0
M  V30 5953 O 571.514 5.37678 -0.978009 0
M  V30 5954 H 568.608 0.819259 -0.112886 0
M  V30 5955 H 571.154 1.40923 -0.945453 0
M  V30 5956 H 569.926 3.4228 -1.89632 0
M  V30 5957 H 569.549 3.96683 -0.269874 0
M  V30 5958 N 570.547 0.616602 1.45037 0
M  V30 5959 C 571.494 -0.0969439 2.30596 0
M  V30 5960 C 572.464 -0.851151 1.42635 0
M  V30 5961 O 573.649 -0.835092 1.71554 0
M  V30 5962 C 570.789 -1.08234 3.27688 0
M  V30 5963 C 569.902 -0.328072 4.30752 0
M  V30 5964 C 569.037 -1.30399 5.14946 0
M  V30 5965 C 568.076 -0.538049 6.09731 0
M  V30 5966 N 567.213 -1.46371 6.86673 0
M  V30 5967 H 572.053 0.63864 2.91076 0
M  V30 5968 H 569.59 0.326733 1.43425 0
M  V30 5969 H 571.548 -1.66688 3.82454 0
M  V30 5970 H 570.178 -1.78523 2.68941 0
M  V30 5971 H 569.23 0.372136 3.78575 0
M  V30 5972 H 570.542 0.269142 4.98073 0
M  V30 5973 H 569.696 -1.96032 5.74157 0
M  V30 5974 H 568.435 -1.93514 4.47665 0
M  V30 5975 H 567.44 0.131852 5.49642 0
M  V30 5976 H 568.665 0.0881732 6.79043 0
M  V30 5977 H 566.611 -2.08233 6.22073 0
M  V30 5978 H 566.528 -0.920152 7.50379 0
M  V30 5979 H 567.796 -2.10932 7.50418 0
M  V30 5980 N 572.025 -1.5352 0.356285 0
M  V30 5981 C 573.25 -2.06007 -0.239961 0
M  V30 5982 C 573.675 -1.22872 -1.42422 0
M  V30 5983 O 573.033 -0.245516 -1.7963 0
M  V30 5984 C 573.081 -3.5522 -0.620587 0
M  V30 5985 O 572.185 -3.74864 -1.71902 0
M  V30 5986 H 571.526 -0.662961 -0.0371377 0
M  V30 5987 H 574.056 -1.98033 0.514194 0
M  V30 5988 H 574.066 -3.98081 -0.894197 0
M  V30 5989 H 572.741 -4.15175 0.245407 0
M  V30 5990 H 571.318 -3.43904 -1.44169 0
M  V30 5991 N 573.503 -0.0852151 -1.57369 0
M  V30 5992 C 574.413 0.891712 -2.16992 0
M  V30 5993 C 575.429 1.3174 -1.13669 0
M  V30 5994 O 576.605 1.38735 -1.45995 0
M  V30 5995 C 573.67 2.13635 -2.73059 0
M  V30 5996 C 572.731 1.7658 -3.91303 0
M  V30 5997 C 571.964 2.95111 -4.44686 0
M  V30 5998 O 572.187 4.09539 -3.97032 0
M  V30 5999 O 571.121 2.74149 -5.35841 0
M  V30 6000 H 574.947 0.414477 -3.00858 0
M  V30 6001 H 572.532 0.138598 -1.48756 0
M  V30 6002 H 574.414 2.86595 -3.08935 0
M  V30 6003 H 573.089 2.6043 -1.92244 0
M  V30 6004 H 571.996 1.00831 -3.60255 0
M  V30 6005 H 573.329 1.34557 -4.7345 0
M  V30 6006 N 574.981 1.5647 0.188427 0
M  V30 6007 C 575.929 1.95971 1.25293 0
M  V30 6008 C 576.923 0.846047 1.4676 0
M  V30 6009 O 578.129 1.03109 1.47542 0
M  V30 6010 H 574.504 0.623253 0.420784 0
M  V30 6011 H 576.475 2.84731 0.892792 0
M  V30 6012 C 575.224 2.32116 2.58877 0
M  V30 6013 H 574.547 3.17341 2.43176 0
M  V30 6014 H 575.987 2.63613 3.3209 0
M  V30 6015 C 574.446 1.15823 3.16365 0
M  V30 6016 O 574.976 0.436785 3.99318 0
M  V30 6017 N 573.182 0.933278 2.75206 0
M  V30 6018 H 572.729 1.52169 2.07852 0
M  V30 6019 H 572.687 0.156976 3.14008 0
M  V30 6020 N 576.459 -0.456382 1.50847 0
M  V30 6021 C 577.705 -1.20914 1.62811 0
M  V30 6022 C 578.038 -1.91301 0.334304 0
M  V30 6023 O 577.313 -1.82775 -0.665098 0
M  V30 6024 C 577.596 -2.24122 2.81853 0
M  V30 6025 C 577.449 -1.57944 4.21158 0
M  V30 6026 C 578.768 -3.25295 2.96431 0
M  V30 6027 H 575.887 -0.438233 0.592554 0
M  V30 6028 H 578.529 -0.50091 1.83278 0
M  V30 6029 H 576.679 -2.84524 2.64534 0
M  V30 6030 H 578.351 -1.01025 4.50102 0
M  V30 6031 H 576.594 -0.882185 4.24735 0
M  V30 6032 H 577.265 -2.33014 5.00408 0
M  V30 6033 H 579.741 -2.7493 3.12335 0
M  V30 6034 H 578.617 -3.94822 3.81322 0
M  V30 6035 H 578.878 -3.90286 2.07676 0
M  V30 6036 N 577.937 -1.40673 -0.710563 0
M  V30 6037 C 578.869 -1.37256 -1.83558 0
M  V30 6038 C 579.882 -0.277133 -1.60424 0
M  V30 6039 O 581.071 -0.537831 -1.70205 0
M  V30 6040 C 578.171 -1.1144 -3.20054 0
M  V30 6041 C 577.344 -2.32734 -3.70342 0
M  V30 6042 C 576.403 -2.03002 -4.85465 0
M  V30 6043 O 575.429 -2.75912 -4.97857 0
M  V30 6044 N 576.631 -1.01105 -5.71627 0
M  V30 6045 H 579.396 -2.34215 -1.86985 0
M  V30 6046 H 576.957 -1.35091 -0.892301 0
M  V30 6047 H 578.949 -0.895265 -3.94673 0
M  V30 6048 H 577.519 -0.231307 -3.11743 0
M  V30 6049 H 576.739 -2.70446 -2.86798 0
M  V30 6050 H 578.027 -3.13584 -4.00678 0
M  V30 6051 H 577.425 -0.407303 -5.64232 0
M  V30 6052 H 575.982 -0.85182 -6.4621 0
M  V30 6053 N 579.415 0.9433 -1.26252 0
M  V30 6054 C 580.692 1.66639 -1.02424 0
M  V30 6055 C 581.072 2.06335 0.446006 0
M  V30 6056 O 580.42 1.78551 1.42589 0
M  V30 6057 C 580.63 2.88019 -1.97094 0
M  V30 6058 C 581.978 3.59718 -2.25584 0
M  V30 6059 O 583.002 2.9812 -1.94943 0
M  V30 6060 O 581.861 4.7066 -2.77743 0
M  V30 6061 H 578.955 0.729643 -0.389294 0
M  V30 6062 H 581.501 0.995218 -1.37454 0
M  V30 6063 H 580.273 2.5556 -2.96319 0
M  V30 6064 H 579.896 3.62863 -1.62532 0
M  V30 6065 N 580.893 1.08022 1.14757 0
M  V30 6066 C 581.823 0.728248 2.21853 0
M  V30 6067 C 582.804 -0.287486 1.67653 0
M  V30 6068 O 583.989 -0.158727 1.9355 0
M  V30 6069 C 581.119 0.132549 3.47047 0
M  V30 6070 C 580.073 1.07619 4.14249 0
M  V30 6071 C 579.399 0.342907 5.33599 0
M  V30 6072 C 580.699 2.41268 4.63235 0
M  V30 6073 H 582.393 1.62365 2.51551 0
M  V30 6074 H 579.939 0.782125 1.20908 0
M  V30 6075 H 581.892 -0.125665 4.21213 0
M  V30 6076 H 580.616 -0.797971 3.16702 0
M  V30 6077 H 579.275 1.31944 3.42033 0
M  V30 6078 H 578.923 -0.59129 4.99513 0
M  V30 6079 H 578.623 0.971955 5.79506 0
M  V30 6080 H 580.147 0.0926538 6.1053 0
M  V30 6081 H 581.561 2.21232 5.28894 0
M  V30 6082 H 579.958 2.9983 5.19829 0
M  V30 6083 H 581.028 3.03079 3.78512 0
M  V30 6084 N 582.371 -1.3172 0.865308 0
M  V30 6085 C 583.301 -2.31109 0.333302 0
M  V30 6086 C 584.282 -1.60148 -0.573301 0
M  V30 6087 O 585.467 -1.87882 -0.491305 0
M  V30 6088 C 582.597 -3.44104 -0.470078 0
M  V30 6089 C 581.551 -4.26623 0.343021 0
M  V30 6090 C 580.877 -5.31482 -0.585756 0
M  V30 6091 C 582.177 -4.98001 1.57456 0
M  V30 6092 H 583.871 -2.75855 1.1638 0
M  V30 6093 H 581.417 -1.3262 0.561069 0
M  V30 6094 H 583.37 -4.12682 -0.852752 0
M  V30 6095 H 582.094 -2.98112 -1.33404 0
M  V30 6096 H 580.753 -3.59707 0.707583 0
M  V30 6097 H 580.401 -4.81741 -1.44686 0
M  V30 6098 H 580.101 -5.87582 -0.0456494 0
M  V30 6099 H 581.625 -6.0292 -0.965375 0
M  V30 6100 H 583.039 -5.59201 1.26359 0
M  V30 6101 H 581.436 -5.63876 2.05339 0
M  V30 6102 H 582.506 -4.25253 2.32997 0
M  V30 6103 N 583.85 -0.624285 -1.44708 0
M  V30 6104 C 584.779 0.0717025 -2.3339 0
M  V30 6105 C 585.76 0.841814 -1.47809 0
M  V30 6106 O 586.946 0.809056 -1.76544 0
M  V30 6107 C 584.076 1.05852 -3.30776 0
M  V30 6108 C 583.029 0.400503 -4.26122 0
M  V30 6109 C 582.356 1.49674 -5.13324 0
M  V30 6110 C 583.656 -0.688924 -5.17737 0
M  V30 6111 H 585.35 -0.668819 -2.91834 0
M  V30 6112 H 582.896 -0.32308 -1.40329 0
M  V30 6113 H 584.849 1.5541 -3.91696 0
M  V30 6114 H 583.572 1.82984 -2.70526 0
M  V30 6115 H 582.231 -0.0743687 -3.66525 0
M  V30 6116 H 581.88 2.25877 -4.49431 0
M  V30 6117 H 581.58 1.06188 -5.77926 0
M  V30 6118 H 583.104 1.99427 -5.77115 0
M  V30 6119 H 584.518 -0.276724 -5.72632 0
M  V30 6120 H 582.915 -1.04652 -5.90904 0
M  V30 6121 H 583.985 -1.55884 -4.5916 0
M  V30 6122 N 585.328 1.53329 -0.364422 0
M  V30 6123 C 586.258 2.28627 0.474543 0
M  V30 6124 C 587.239 1.31009 1.08492 0
M  V30 6125 O 588.424 1.59878 1.10239 0
M  V30 6126 C 585.554 3.07465 1.61501 0
M  V30 6127 C 584.508 4.1276 1.13194 0
M  V30 6128 C 583.834 4.79674 2.36255 0
M  V30 6129 C 585.134 5.21847 0.217507 0
M  V30 6130 H 586.828 2.99005 -0.153656 0
M  V30 6131 H 584.374 1.43803 -0.0753406 0
M  V30 6132 H 586.327 3.58889 2.20855 0
M  V30 6133 H 585.051 2.34775 2.27042 0
M  V30 6134 H 583.71 3.62281 0.56109 0
M  V30 6135 H 583.358 4.03557 3.00251 0
M  V30 6136 H 583.058 5.50827 2.04606 0
M  V30 6137 H 584.582 5.33892 2.96297 0
M  V30 6138 H 585.996 5.6878 0.718493 0
M  V30 6139 H 584.393 6.00099 -0.00806408 0
M  V30 6140 H 585.463 4.7921 -0.740653 0
M  V30 6141 N 586.806 0.0935595 1.57322 0
M  V30 6142 C 588.083 -0.612692 1.85756 0
M  V30 6143 C 588.463 -1.86439 0.99013 0
M  V30 6144 O 587.811 -2.28416 0.0621362 0
M  V30 6145 C 588.021 -0.929547 3.36393 0
M  V30 6146 C 589.369 -1.29366 4.04413 0
M  V30 6147 O 590.393 -1.02061 3.41265 0
M  V30 6148 O 589.252 -1.80498 5.15832 0
M  V30 6149 H 586.346 -0.306444 0.768128 0
M  V30 6150 H 588.892 0.126141 1.69231 0
M  V30 6151 H 587.664 -0.0414766 3.91278 0
M  V30 6152 H 587.287 -1.72441 3.5826 0
M  V30 6153 N 588.284 -1.56567 -0.180126 0
M  V30 6154 C 589.53 -1.81761 -0.899497 0
M  V30 6155 C 589.863 -0.670015 -1.82276 0
M  V30 6156 O 589.138 0.328575 -1.91705 0
M  V30 6157 C 589.421 -3.17296 -1.7028 0
M  V30 6158 C 589.274 -4.4257 -0.803255 0
M  V30 6159 C 590.593 -3.49678 -2.67233 0
M  V30 6160 H 587.712 -0.661192 -0.325567 0
M  V30 6161 H 590.354 -1.89272 -0.16612 0
M  V30 6162 H 588.504 -3.11023 -2.32802 0
M  V30 6163 H 590.176 -4.60902 -0.191585 0
M  V30 6164 H 588.419 -4.33658 -0.110796 0
M  V30 6165 H 589.09 -5.33935 -1.40064 0
M  V30 6166 H 591.566 -3.56347 -2.14839 0
M  V30 6167 H 590.442 -4.45605 -3.20511 0
M  V30 6168 H 590.703 -2.73932 -3.47007 0
M  V30 6169 N 589.762 0.448376 -1.51087 0
M  V30 6170 C 590.99 1.22143 -1.66999 0
M  V30 6171 C 591.405 1.85283 -0.362699 0
M  V30 6172 O 590.762 1.70236 0.65772 0
M  V30 6173 C 590.813 2.31357 -2.7777 0
M  V30 6174 O 590.534 1.70801 -4.03434 0
M  V30 6175 C 592.035 3.21836 -3.04855 0
M  V30 6176 H 589.255 0.368558 -0.560719 0
M  V30 6177 H 591.799 0.532618 -1.97442 0
M  V30 6178 H 589.954 2.95973 -2.49958 0
M  V30 6179 H 590.368 2.42895 -4.64868 0
M  V30 6180 H 591.842 3.94627 -3.85971 0
M  V30 6181 H 592.319 3.81949 -2.16821 0
M  V30 6182 H 592.925 2.62933 -3.34285 0
M  V30 6183 N 591.24 1.41047 0.703093 0
M  V30 6184 C 592.651 1.35657 1.28274 0
M  V30 6185 C 593.002 0.0360309 1.96167 0
M  V30 6186 O 592.127 -0.865833 1.98324 0
M  V30 6187 C 592.722 2.45707 2.33267 0
M  V30 6188 C 591.281 2.43738 2.86825 0
M  V30 6189 C 590.428 2.25941 1.60767 0
M  V30 6190 H 593.379 1.50672 0.49836 0
M  V30 6191 H 593.4 2.14333 3.14391 0
M  V30 6192 H 592.912 3.41805 1.83824 0
M  V30 6193 H 591.013 1.51375 3.40465 0
M  V30 6194 H 591.126 3.39779 3.37768 0
M  V30 6195 H 589.49 1.73681 1.86298 0
M  V30 6196 H 590.273 3.24054 1.1333 0
M  V30 6197 N 592.718 -0.936591 1.26751 0
M  V30 6198 C 593.648 -2.05315 1.11212 0
M  V30 6199 C 594.629 -1.70092 0.0160262 0
M  V30 6200 O 595.814 -1.93279 0.188894 0
M  V30 6201 C 592.944 -3.39123 0.749171 0
M  V30 6202 C 591.898 -3.88425 1.79751 0
M  V30 6203 C 591.224 -5.18936 1.28876 0
M  V30 6204 C 592.524 -4.12798 3.19992 0
M  V30 6205 H 594.218 -2.18573 2.04613 0
M  V30 6206 H 591.764 -1.05027 0.985159 0
M  V30 6207 H 593.717 -4.16704 0.627323 0
M  V30 6208 H 592.441 -3.25855 -0.220543 0
M  V30 6209 H 591.1 -3.13028 1.90811 0
M  V30 6210 H 590.748 -5.02051 0.308757 0
M  V30 6211 H 590.448 -5.52892 1.98958 0
M  V30 6212 H 591.972 -5.99096 1.17967 0
M  V30 6213 H 593.386 -4.80977 3.11983 0
M  V30 6214 H 591.783 -4.58044 3.87705 0
M  V30 6215 H 592.853 -3.18412 3.65707 0
M  V30 6216 N 594.196 -1.08629 -1.14182 0
M  V30 6217 C 595.421 -0.83902 -1.89671 0
M  V30 6218 C 595.846 0.603332 -1.78161 0
M  V30 6219 O 595.204 1.42301 -1.12339 0
M  V30 6220 C 595.252 -1.26854 -3.37551 0
M  V30 6221 O 594.356 -0.42188 -4.10236 0
M  V30 6222 H 593.697 -0.304545 -0.590041 0
M  V30 6223 H 596.227 -1.4483 -1.44518 0
M  V30 6224 H 596.237 -1.25038 -3.88368 0
M  V30 6225 H 594.912 -2.31901 -3.45246 0
M  V30 6226 H 593.489 -0.503654 -3.69483 0
M  V30 6227 N 595.674 1.31259 -0.872281 0
M  V30 6228 C 596.604 2.30929 -0.345554 0
M  V30 6229 C 597.585 1.60449 0.5648 0
M  V30 6230 O 598.77 1.8814 0.481335 0
M  V30 6231 C 595.9 3.44348 0.451823 0
M  V30 6232 C 594.854 4.26435 -0.365641 0
M  V30 6233 C 594.18 5.31785 0.557562 0
M  V30 6234 C 595.48 4.97159 -1.60095 0
M  V30 6235 H 597.174 2.75234 -1.17841 0
M  V30 6236 H 594.72 1.3232 -0.568094 0
M  V30 6237 H 596.673 4.13128 0.830854 0
M  V30 6238 H 595.397 2.98816 1.31821 0
M  V30 6239 H 594.056 3.59326 -0.726649 0
M  V30 6240 H 593.704 4.82502 1.4213 0
M  V30 6241 H 593.404 5.87598 0.0144878 0
M  V30 6242 H 594.928 6.03424 0.933387 0
M  V30 6243 H 596.342 5.58523 -1.29323 0
M  V30 6244 H 594.739 5.62779 -2.08327 0
M  V30 6245 H 595.809 4.24012 -2.35249 0
M  V30 6246 N 597.152 0.631951 1.44375 0
M  V30 6247 C 598.4 0.136497 2.01639 0
M  V30 6248 C 598.721 -1.24637 1.49969 0
M  V30 6249 O 597.991 -1.82827 0.70363 0
M  V30 6250 H 596.571 0.0474703 0.74549 0
M  V30 6251 H 599.233 0.818837 1.76865 0
M  V30 6252 H 598.329 0.104817 3.11924 0
M  V30 6253 N 598.631 -1.53133 0.372548 0
M  V30 6254 C 599.88 -2.00539 -0.216115 0
M  V30 6255 C 600.193 -1.26374 -1.49295 0
M  V30 6256 O 601.399 -1.64404 -2.16064 0
M  V30 6257 C 599.855 -3.57253 -0.435678 0
M  V30 6258 C 599.463 -4.40302 0.82693 0
M  V30 6259 C 601.207 -4.12995 -0.981618 0
M  V30 6260 C 599.114 -5.88583 0.576567 0
M  V30 6261 H 598.044 -0.749246 -0.084536 0
M  V30 6262 H 600.695 -1.76771 0.492364 0
M  V30 6263 H 599.077 -3.77202 -1.20559 0
M  V30 6264 H 600.251 -4.32124 1.60017 0
M  V30 6265 H 598.566 -3.95699 1.29659 0
M  V30 6266 H 601.163 -5.21418 -1.18436 0
M  V30 6267 H 601.506 -3.68027 -1.94581 0
M  V30 6268 H 602.039 -3.96871 -0.271696 0
M  V30 6269 H 598.778 -6.37841 1.51128 0
M  V30 6270 H 598.298 -5.99592 -0.158047 0
M  V30 6271 H 599.977 -6.46676 0.204722 0
M  V30 6272 N 600.109 -0.101901 -1.5727 0
M  V30 6273 C 601.019 0.868647 -2.17926 0
M  V30 6274 C 602.035 1.30527 -1.1506 0
M  V30 6275 O 603.211 1.37178 -1.47459 0
M  V30 6276 C 600.276 2.10727 -2.75309 0
M  V30 6277 C 599.337 1.7242 -3.93154 0
M  V30 6278 C 598.57 2.90377 -4.47791 0
M  V30 6279 O 598.793 4.05305 -4.01353 0
M  V30 6280 O 597.727 2.6845 -5.38719 0
M  V30 6281 H 601.553 0.382544 -3.01281 0
M  V30 6282 H 599.138 0.122812 -1.48894 0
M  V30 6283 H 601.02 2.83303 -3.11958 0
M  V30 6284 H 599.695 2.58376 -1.94996 0
M  V30 6285 H 598.602 0.970039 -3.61305 0
M  V30 6286 H 599.935 1.29528 -4.74851 0
M  V30 6287 N 601.587 1.56661 0.17182 0
M  V30 6288 C 602.815 1.861 0.904115 0
M  V30 6289 C 603.23 0.687227 1.75848 0
M  V30 6290 O 602.587 -0.343671 1.79235 0
M  V30 6291 C 602.638 3.14568 1.78127 0
M  V30 6292 O 602.359 4.27422 0.961366 0
M  V30 6293 C 603.86 3.5735 2.62327 0
M  V30 6294 H 601.08 0.617445 0.262684 0
M  V30 6295 H 603.624 2.03775 0.172068 0
M  V30 6296 H 601.779 2.98721 2.46666 0
M  V30 6297 H 602.193 5.00725 1.56123 0
M  V30 6298 H 603.667 4.50144 3.1949 0
M  V30 6299 H 604.144 2.81445 3.37173 0
M  V30 6300 H 604.75 3.75807 1.99121 0
M  V30 6301 N 603.065 -0.440357 1.51323 0
M  V30 6302 C 604.028 -1.51679 1.71832 0
M  V30 6303 C 605.028 -1.49648 0.588386 0
M  V30 6304 O 606.218 -1.51724 0.855891 0
M  V30 6305 C 603.35 -2.91228 1.77199 0
M  V30 6306 H 604.543 -1.34799 2.67898 0
M  V30 6307 H 602.096 -0.66883 1.41267 0
M  V30 6308 H 602.831 -3.13516 0.829363 0
M  V30 6309 H 602.616 -2.94107 2.59314 0
M  V30 6310 H 604.106 -3.69321 1.94915 0
M  V30 6311 N 604.543 -1.41418 -0.695603 0
M  V30 6312 C 605.791 -1.40496 -1.45277 0
M  V30 6313 C 606.112 -0.0149538 -1.94994 0
M  V30 6314 O 605.382 0.9432 -1.71699 0
M  V30 6315 H 603.962 -0.517147 -0.539044 0
M  V30 6316 H 606.624 -1.76656 -0.823321 0
M  V30 6317 H 605.72 -2.09214 -2.31595 0
M  V30 6318 N 606.021 0.929856 -1.27246 0
M  V30 6319 C 607.269 1.674 -1.13233 0
M  V30 6320 C 607.59 1.92311 0.322744 0
M  V30 6321 O 606.86 1.52784 1.22612 0
M  V30 6322 H 605.44 0.620411 -0.416052 0
M  V30 6323 H 608.102 1.11663 -1.59741 0
M  V30 6324 H 607.198 2.64308 -1.65975 0
M  V30 6325 N 607.499 1.09233 1.13605 0
M  V30 6326 C 608.745 0.828385 1.8511 0
M  V30 6327 C 609.078 -0.64437 1.83198 0
M  V30 6328 O 608.353 -1.47428 1.26867 0
M  V30 6329 C 608.636 1.36167 3.33363 0
M  V30 6330 C 608.489 2.90038 3.438 0
M  V30 6331 C 609.808 0.993819 4.28732 0
M  V30 6332 H 606.927 0.30239 0.672108 0
M  V30 6333 H 609.569 1.35339 1.33355 0
M  V30 6334 H 607.719 0.9151 3.77569 0
M  V30 6335 H 609.391 3.43128 3.08319 0
M  V30 6336 H 607.634 3.27271 2.84739 0
M  V30 6337 H 608.305 3.22428 4.48045 0
M  V30 6338 H 610.781 1.37893 3.92587 0
M  V30 6339 H 609.657 1.39403 5.30903 0
M  V30 6340 H 609.918 -0.0982206 4.41991 0
M  V30 6341 N 608.977 -1.30795 0.87923 0
M  V30 6342 C 609.91 -2.26396 0.286404 0
M  V30 6343 C 610.888 -1.51528 -0.589748 0
M  V30 6344 O 612.072 -1.80566 -0.541119 0
M  V30 6345 C 609.199 -3.33458 -0.593581 0
M  V30 6346 C 608.245 -4.2597 0.21247 0
M  V30 6347 S 609.078 -5.11132 1.59702 0
M  V30 6348 C 610.234 -6.21705 0.723408 0
M  V30 6349 H 610.467 -2.7633 1.09677 0
M  V30 6350 H 608 -1.38703 0.678305 0
M  V30 6351 H 609.958 -3.9561 -1.09557 0
M  V30 6352 H 608.619 -2.82259 -1.37799 0
M  V30 6353 H 607.812 -5.01907 -0.458822 0
M  V30 6354 H 607.414 -3.68363 0.646883 0
M  V30 6355 H 609.706 -6.77472 -0.0620739 0
M  V30 6356 H 610.649 -6.93007 1.4542 0
M  V30 6357 H 611.057 -5.63771 0.286855 0
M  V30 6358 N 610.455 -0.639598 -1.44038 0
M  V30 6359 C 611.683 -0.154811 -2.0632 0
M  V30 6360 C 612.098 1.17406 -1.47856 0
M  V30 6361 O 611.455 1.72193 -0.604638 0
M  V30 6362 C 611.506 -0.0429958 -3.61474 0
M  V30 6363 O 611.227 -1.31932 -4.17763 0
M  V30 6364 C 612.728 0.469486 -4.40807 0
M  V30 6365 H 609.948 -0.0835862 -0.665773 0
M  V30 6366 H 612.492 -0.876397 -1.84769 0
M  V30 6367 H 610.647 0.629075 -3.82258 0
M  V30 6368 H 611.061 -1.16965 -5.11292 0
M  V30 6369 H 612.535 0.496712 -5.49761 0
M  V30 6370 H 613.012 1.49819 -4.12857 0
M  V30 6371 H 613.618 -0.169624 -4.24962 0
M  V30 6372 N 611.933 1.52934 -0.380664 0
M  V30 6373 C 613.344 1.86457 0.0952684 0
M  V30 6374 C 613.695 1.3007 1.46889 0
M  V30 6375 O 612.82 0.628636 2.07068 0
M  V30 6376 C 613.415 3.38323 0.179648 0
M  V30 6377 C 611.974 3.71589 0.599858 0
M  V30 6378 C 611.121 2.76228 -0.243572 0
M  V30 6379 H 614.072 1.46966 -0.59888 0
M  V30 6380 H 614.093 3.67113 1.00042 0
M  V30 6381 H 613.605 3.79333 -0.820228 0
M  V30 6382 H 611.706 3.36144 1.60742 0
M  V30 6383 H 611.819 4.77715 0.364003 0
M  V30 6384 H 610.183 2.53045 0.289855 0
M  V30 6385 H 610.966 3.20074 -1.24127 0
M  V30 6386 N 613.412 0.11024 1.57214 0
M  V30 6387 C 614.342 -0.840002 2.17867 0
M  V30 6388 C 615.323 -1.28352 1.11624 0
M  V30 6389 O 616.508 -1.3477 1.39824 0
M  V30 6390 C 613.638 -2.09349 2.77111 0
M  V30 6391 C 612.592 -1.78807 3.8886 0
M  V30 6392 C 611.918 -3.11112 4.34872 0
M  V30 6393 C 613.218 -1.0632 5.11364 0
M  V30 6394 H 614.912 -0.334608 2.97524 0
M  V30 6395 H 612.458 -0.159502 1.43114 0
M  V30 6396 H 614.411 -2.76275 3.18198 0
M  V30 6397 H 613.135 -2.62198 1.9473 0
M  V30 6398 H 611.794 -1.14273 3.48335 0
M  V30 6399 H 611.442 -3.61877 3.49362 0
M  V30 6400 H 611.142 -2.91453 5.10224 0
M  V30 6401 H 612.666 -3.79171 4.78604 0
M  V30 6402 H 614.08 -1.63383 5.49526 0
M  V30 6403 H 612.477 -0.967876 5.92243 0
M  V30 6404 H 613.547 -0.0484569 4.84876 0
M  V30 6405 N 614.89 -1.56749 -0.16351 0
M  V30 6406 C 616.139 -1.81626 -0.877211 0
M  V30 6407 C 616.452 -0.688791 -1.83071 0
M  V30 6408 O 617.658 -0.822697 -2.58735 0
M  V30 6409 C 616.114 -3.21858 -1.61045 0
M  V30 6410 C 615.722 -4.42494 -0.700195 0
M  V30 6411 C 617.466 -3.56021 -2.31192 0
M  V30 6412 C 615.373 -5.73748 -1.43412 0
M  V30 6413 H 614.303 -0.67731 -0.331312 0
M  V30 6414 H 616.954 -1.83039 -0.13006 0
M  V30 6415 H 615.336 -3.14784 -2.40264 0
M  V30 6416 H 616.51 -4.60766 0.0555849 0
M  V30 6417 H 614.825 -4.1626 -0.10799 0
M  V30 6418 H 617.422 -4.51333 -2.8671 0
M  V30 6419 H 617.765 -2.81277 -3.06902 0
M  V30 6420 H 618.298 -3.64682 -1.58909 0
M  V30 6421 H 615.037 -6.51543 -0.719186 0
M  V30 6422 H 614.557 -5.5944 -2.16302 0
M  V30 6423 H 616.236 -6.15975 -1.9795 0
M  V30 6424 N 616.368 0.432326 -1.51554 0
M  V30 6425 C 617.315 1.52512 -1.7323 0
M  V30 6426 C 618.285 1.55863 -0.5741 0
M  V30 6427 O 619.47 1.72796 -0.809093 0
M  V30 6428 C 616.61 2.90183 -1.86783 0
M  V30 6429 C 615.723 2.96322 -3.14352 0
M  V30 6430 C 614.858 4.25147 -3.18471 0
M  V30 6431 C 613.897 4.25172 -4.40335 0
M  V30 6432 N 613.034 5.45529 -4.41975 0
M  V30 6433 H 617.874 1.33332 -2.66508 0
M  V30 6434 H 615.411 0.647613 -1.32077 0
M  V30 6435 H 617.369 3.70071 -1.92623 0
M  V30 6436 H 615.999 3.0791 -0.969087 0
M  V30 6437 H 615.051 2.09066 -3.17798 0
M  V30 6438 H 616.363 2.92203 -4.04251 0
M  V30 6439 H 615.517 5.13411 -3.23255 0
M  V30 6440 H 614.256 4.31929 -2.2647 0
M  V30 6441 H 613.261 3.353 -4.35723 0
M  V30 6442 H 614.486 4.20049 -5.33606 0
M  V30 6443 H 612.432 5.53024 -3.52847 0
M  V30 6444 H 612.349 5.43311 -5.25689 0
M  V30 6445 H 613.617 6.35812 -4.50958 0
M  V30 6446 N 617.846 1.41785 0.688094 0
M  V30 6447 C 619.262 1.24419 0.999608 0
M  V30 6448 C 619.462 0.138868 2.01021 0
M  V30 6449 O 618.518 -0.494283 2.47615 0
M  V30 6450 C 619.831 2.59625 1.51709 0
M  V30 6451 C 621.379 2.66869 1.63554 0
M  V30 6452 C 621.854 4.0241 2.18702 0
M  V30 6453 N 623.345 4.04295 2.26053 0
M  V30 6454 C 624.08 5.05977 2.69768 0
M  V30 6455 N 623.576 6.18047 3.13033 0
M  V30 6456 N 625.369 4.93336 2.69398 0
M  V30 6457 H 617.52 2.12392 0.0187427 0
M  V30 6458 H 619.783 0.945347 0.0708673 0
M  V30 6459 H 619.489 3.41297 0.849059 0
M  V30 6460 H 619.363 2.82628 2.49803 0
M  V30 6461 H 621.75 1.8555 2.29467 0
M  V30 6462 H 621.831 2.47668 0.639857 0
M  V30 6463 H 621.475 4.8418 1.53402 0
M  V30 6464 H 621.405 4.18955 3.19037 0
M  V30 6465 H 623.896 3.23383 1.9553 0
M  V30 6466 H 624.209 6.91498 3.45038 0
M  V30 6467 H 622.554 6.21572 3.10923 0
M  V30 6468 H 625.745 4.04865 2.34952 0
M  V30 6469 H 625.918 5.72717 3.03148 0
M  V30 6470 N 619.324 -0.923095 1.27737 0
M  V30 6471 C 620.272 -2.04567 1.10703 0
M  V30 6472 C 621.266 -1.69375 0.0288445 0
M  V30 6473 O 622.472 -1.79027 0.186913 0
M  V30 6474 H 618.847 -0.670109 0.34126 0
M  V30 6475 H 620.818 -2.1608 2.05796 0
M  V30 6476 C 619.567 -3.38934 0.775837 0
M  V30 6477 H 618.89 -3.66501 1.59741 0
M  V30 6478 H 620.33 -4.18239 0.696548 0
M  V30 6479 C 618.789 -3.32863 -0.520012 0
M  V30 6480 O 619.319 -3.70462 -1.55308 0
M  V30 6481 N 617.525 -2.85958 -0.51732 0
M  V30 6482 H 617.072 -2.55557 0.32379 0
M  V30 6483 H 617.03 -2.82279 -1.38441 0
M  V30 6484 N 620.802 -1.09834 -1.13024 0
M  V30 6485 C 622.03 -0.858902 -1.8823 0
M  V30 6486 C 622.445 0.590164 -1.79339 0
M  V30 6487 O 621.802 1.4065 -1.16292 0
M  V30 6488 C 621.853 -1.29066 -3.37675 0
M  V30 6489 O 621.574 -2.6829 -3.46341 0
M  V30 6490 C 623.075 -1.08421 -4.29837 0
M  V30 6491 H 620.295 -0.308713 -0.595766 0
M  V30 6492 H 622.839 -1.4614 -1.4305 0
M  V30 6493 H 620.994 -0.731961 -3.80422 0
M  V30 6494 H 621.408 -2.86598 -4.39274 0
M  V30 6495 H 622.882 -1.43553 -5.33007 0
M  V30 6496 H 623.359 -0.0223315 -4.39194 0
M  V30 6497 H 623.965 -1.62907 -3.92863 0
M  V30 6498 N 622.28 1.30327 -0.886154 0
M  V30 6499 C 623.508 2.00254 -0.520176 0
M  V30 6500 C 623.923 1.66419 0.891637 0
M  V30 6501 O 623.28 0.901951 1.58654 0
M  V30 6502 C 623.331 3.54916 -0.686775 0
M  V30 6503 O 623.052 3.87547 -2.04301 0
M  V30 6504 C 624.553 4.42115 -0.323945 0
M  V30 6505 H 621.773 0.640204 -0.200947 0
M  V30 6506 H 624.317 1.66183 -1.19178 0
M  V30 6507 H 622.472 3.8735 -0.0625273 0
M  V30 6508 H 622.886 4.82247 -2.06249 0
M  V30 6509 H 624.36 5.49808 -0.491407 0
M  V30 6510 H 624.837 4.32953 0.73811 0
M  V30 6511 H 625.443 4.15129 -0.924565 0
M  V30 6512 N 623.758 0.647228 1.43697 0
M  V30 6513 C 625.007 0.155552 2.01099 0
M  V30 6514 C 625.32 -1.23569 1.51624 0
M  V30 6515 O 626.526 -1.82226 2.01261 0
M  V30 6516 C 624.982 0.227296 3.59182 0
M  V30 6517 C 624.59 1.62086 4.17651 0
M  V30 6518 C 626.334 -0.207085 4.23995 0
M  V30 6519 C 624.241 1.64685 5.68008 0
M  V30 6520 H 623.171 0.0543895 0.752036 0
M  V30 6521 H 625.822 0.808386 1.64734 0
M  V30 6522 H 624.204 -0.492937 3.9292 0
M  V30 6523 H 625.378 2.36597 3.95422 0
M  V30 6524 H 623.693 2.0007 3.65186 0
M  V30 6525 H 626.29 -0.207426 5.34298 0
M  V30 6526 H 626.633 -1.23742 3.97484 0
M  V30 6527 H 627.166 0.461193 3.95118 0
M  V30 6528 H 623.905 2.65608 5.99277 0
M  V30 6529 H 623.425 0.944914 5.9231 0
M  V30 6530 H 625.104 1.38792 6.31938 0
M  V30 6531 N 625.236 -1.5273 0.388769 0
M  V30 6532 C 626.647 -1.86505 -0.0853788 0
M  V30 6533 C 626.998 -1.30847 -1.46197 0
M  V30 6534 O 626.123 -0.639609 -2.06732 0
M  V30 6535 C 626.718 -3.38414 -0.161703 0
M  V30 6536 C 625.277 -3.71902 -0.580144 0
M  V30 6537 C 624.424 -2.76095 0.258218 0
M  V30 6538 H 627.375 -1.46647 0.606665 0
M  V30 6539 H 627.396 -3.67638 -0.980936 0
M  V30 6540 H 626.908 -3.78893 0.840333 0
M  V30 6541 H 625.009 -3.36992 -1.58957 0
M  V30 6542 H 625.122 -4.77902 -0.338663 0
M  V30 6543 H 623.486 -2.53195 -0.276432 0
M  V30 6544 H 624.269 -3.19411 1.25822 0
M  V30 6545 N 626.714 -0.118576 -1.57153 0
M  V30 6546 C 627.942 0.54726 -1.99531 0
M  V30 6547 C 628.357 1.60251 -0.998246 0
M  V30 6548 O 627.714 1.82498 0.00893106 0
M  V30 6549 C 627.765 1.17378 -3.41913 0
M  V30 6550 O 627.486 0.160703 -4.37805 0
M  V30 6551 C 628.987 1.92297 -3.9942 0
M  V30 6552 H 626.207 0.144919 -0.655164 0
M  V30 6553 H 628.751 -0.20479 -2.03472 0
M  V30 6554 H 626.906 1.87661 -3.38913 0
M  V30 6555 H 627.32 0.61586 -5.20872 0
M  V30 6556 H 628.794 2.31462 -5.01128 0
M  V30 6557 H 629.271 2.79801 -3.38538 0
M  V30 6558 H 629.877 1.26777 -4.05965 0
M  V30 6559 N 628.193 1.56834 0.155195 0
M  V30 6560 C 629.14 1.97646 1.19184 0
M  V30 6561 C 630.11 0.842788 1.4313 0
M  V30 6562 O 631.295 1.1042 1.55602 0
M  V30 6563 C 628.435 2.35527 2.52232 0
M  V30 6564 C 627.548 3.62147 2.35529 0
M  V30 6565 C 626.683 3.89167 3.61555 0
M  V30 6566 C 625.722 5.09084 3.39853 0
M  V30 6567 N 624.859 5.32156 4.5799 0
M  V30 6568 H 629.699 2.8601 0.836802 0
M  V30 6569 H 627.236 1.41507 0.401758 0
M  V30 6570 H 629.194 2.55516 3.29799 0
M  V30 6571 H 627.824 1.50253 2.85699 0
M  V30 6572 H 626.876 3.4998 1.49057 0
M  V30 6573 H 628.188 4.49871 2.15448 0
M  V30 6574 H 627.342 4.09611 4.47553 0
M  V30 6575 H 626.081 2.9985 3.84632 0
M  V30 6576 H 625.086 4.88522 2.52243 0
M  V30 6577 H 626.311 5.99947 3.18183 0
M  V30 6578 H 624.257 4.45791 4.81255 0
M  V30 6579 H 624.174 6.14133 4.40882 0
M  V30 6580 H 625.442 5.57091 5.45225 0
M  V30 6581 N 629.671 -0.424282 1.51781 0
M  V30 6582 C 630.603 -1.53457 1.70246 0
M  V30 6583 C 631.616 -1.52004 0.582967 0
M  V30 6584 O 632.805 -1.56544 0.857683 0
M  V30 6585 C 629.905 -2.92368 1.71389 0
M  V30 6586 C 629.078 -3.1818 3.00133 0
M  V30 6587 C 628.137 -4.36884 2.9329 0
M  V30 6588 O 627.163 -4.34901 3.67219 0
M  V30 6589 N 628.365 -5.4117 2.10036 0
M  V30 6590 H 631.13 -1.38017 2.66029 0
M  V30 6591 H 628.691 -0.613394 1.4983 0
M  V30 6592 H 630.683 -3.6982 1.64362 0
M  V30 6593 H 629.253 -3.0134 0.831449 0
M  V30 6594 H 628.473 -2.28908 3.20928 0
M  V30 6595 H 629.761 -3.32261 3.85331 0
M  V30 6596 H 629.159 -5.45623 1.49373 0
M  V30 6597 H 627.716 -6.17425 2.08878 0
M  V30 6598 N 631.149 -1.42148 -0.680565 0
M  V30 6599 C 632.377 -1.45696 -1.46902 0
M  V30 6600 C 632.792 -0.0665858 -1.88683 0
M  V30 6601 O 632.149 0.917436 -1.57764 0
M  V30 6602 C 632.2 -2.37898 -2.72188 0
M  V30 6603 O 631.921 -3.71526 -2.32163 0
M  V30 6604 C 633.422 -2.50407 -3.65802 0
M  V30 6605 H 630.642 -0.495729 -0.45221 0
M  V30 6606 H 633.186 -1.866 -0.836709 0
M  V30 6607 H 631.341 -2.00263 -3.31622 0
M  V30 6608 H 631.755 -4.20849 -3.13027 0
M  V30 6609 H 633.229 -3.19056 -4.50452 0
M  V30 6610 H 633.706 -1.5401 -4.11312 0
M  V30 6611 H 634.312 -2.8874 -3.12265 0
M  V30 6612 N 632.627 0.916307 -1.28225 0
M  V30 6613 C 633.559 2.02303 -1.07732 0
M  V30 6614 C 634.572 1.62773 -0.0298421 0
M  V30 6615 O 635.761 1.76406 -0.272626 0
M  V30 6616 C 632.861 3.33282 -0.614504 0
M  V30 6617 C 632.034 4.01439 -1.73682 0
M  V30 6618 C 631.093 5.10698 -1.26781 0
M  V30 6619 O 630.119 5.34038 -1.96958 0
M  V30 6620 N 631.321 5.80355 -0.129624 0
M  V30 6621 H 634.086 2.20442 -2.03041 0
M  V30 6622 H 631.647 1.08744 -1.19943 0
M  V30 6623 H 633.639 4.03699 -0.284397 0
M  V30 6624 H 632.209 3.11633 0.245664 0
M  V30 6625 H 631.429 3.24604 -2.23665 0
M  V30 6626 H 632.717 4.43721 -2.48976 0
M  V30 6627 H 632.115 5.6386 0.455847 0
M  V30 6628 H 630.672 6.51647 0.141224 0
M  V30 6629 N 634.105 1.10431 1.1244 0
M  V30 6630 C 635.333 0.868872 1.87772 0
M  V30 6631 C 635.748 -0.580645 1.7965 0
M  V30 6632 O 635.105 -1.40031 1.17036 0
M  V30 6633 C 635.156 1.30855 3.36986 0
M  V30 6634 O 634.877 2.70123 3.44914 0
M  V30 6635 C 636.378 1.107 4.29256 0
M  V30 6636 H 633.598 0.311868 0.59412 0
M  V30 6637 H 636.142 1.46897 1.42273 0
M  V30 6638 H 634.297 0.752126 3.80029 0
M  V30 6639 H 634.711 2.88923 4.37748 0
M  V30 6640 H 636.185 1.46378 5.32238 0
M  V30 6641 H 636.662 0.0456228 4.39176 0
M  V30 6642 H 637.268 1.64988 3.91994 0
M  V30 6643 N 635.583 -1.29855 0.893053 0
M  V30 6644 C 636.83 -1.95826 0.515585 0
M  V30 6645 C 637.158 -1.70451 -0.936842 0
M  V30 6646 O 636.413 -1.00657 -1.67829 0
M  V30 6647 C 636.712 -3.49515 0.746588 0
M  V30 6648 C 636.378 -3.94955 2.17535 0
M  V30 6649 C 635.04 -4.07073 2.56603 0
M  V30 6650 C 637.392 -4.18536 3.10607 0
M  V30 6651 C 634.72 -4.40138 3.87938 0
M  V30 6652 C 637.072 -4.53073 4.41484 0
M  V30 6653 C 635.736 -4.634 4.80434 0
M  V30 6654 H 635.006 -0.71658 0.188666 0
M  V30 6655 H 637.653 -1.54574 1.13045 0
M  V30 6656 H 635.958 -3.9177 0.0487551 0
M  V30 6657 H 637.655 -3.98644 0.434009 0
M  V30 6658 H 634.245 -3.86035 1.86212 0
M  V30 6659 H 638.429 -4.08646 2.81641 0
M  V30 6660 H 633.685 -4.46335 4.17846 0
M  V30 6661 H 637.859 -4.70269 5.13634 0
M  V30 6662 H 635.486 -4.88775 5.82239 0
M  V30 6663 N 637.061 -0.65484 -1.43351 0
M  V30 6664 C 638.289 -0.176685 -2.06144 0
M  V30 6665 C 638.704 1.15831 -1.49093 0
M  V30 6666 O 638.061 1.71542 -0.622868 0
M  V30 6667 C 638.112 -0.0813326 -3.61408 0
M  V30 6668 O 637.833 -1.36355 -4.1634 0
M  V30 6669 C 639.334 0.422706 -4.4128 0
M  V30 6670 H 636.554 -0.0906429 -0.66485 0
M  V30 6671 H 639.098 -0.895945 -1.83829 0
M  V30 6672 H 637.253 0.588496 -3.82904 0
M  V30 6673 H 637.667 -1.22381 -5.10023 0
M  V30 6674 H 639.141 0.438375 -5.50257 0
M  V30 6675 H 639.618 1.45432 -4.14423 0
M  V30 6676 H 640.224 -0.214687 -4.24758 0
M  V30 6677 N 638.539 1.52521 -0.396863 0
M  V30 6678 C 639.767 2.06091 0.18275 0
M  V30 6679 C 640.182 1.26796 1.39886 0
M  V30 6680 O 639.539 0.316585 1.79733 0
M  V30 6681 C 639.59 3.57362 0.545377 0
M  V30 6682 O 639.311 4.33656 -0.622428 0
M  V30 6683 C 640.812 4.27305 1.18004 0
M  V30 6684 H 638.032 0.670504 0.025789 0
M  V30 6685 H 640.576 1.96561 -0.564276 0
M  V30 6686 H 638.731 3.66941 1.2423 0
M  V30 6687 H 639.145 5.23507 -0.322662 0
M  V30 6688 H 640.619 5.34366 1.38408 0
M  V30 6689 H 641.096 3.83 2.1496 0
M  V30 6690 H 641.702 4.22064 0.523671 0
M  V30 6691 N 640.017 0.126909 1.57088 0
M  V30 6692 C 641.247 -0.535892 1.99529 0
M  V30 6693 C 641.655 -1.60259 1.00566 0
M  V30 6694 O 640.998 -1.83698 -0.00843269 0
M  V30 6695 C 641.06 -1.21374 3.38391 0
M  V30 6696 C 640.724 -0.294044 4.56053 0
M  V30 6697 C 641.721 0.470454 5.17767 0
M  V30 6698 C 639.406 -0.202808 5.0189 0
M  V30 6699 C 641.4 1.31384 6.23712 0
M  V30 6700 C 639.087 0.644203 6.07695 0
M  V30 6701 C 640.085 1.40115 6.68473 0
M  V30 6702 O 639.773 2.23408 7.72233 0
M  V30 6703 H 639.505 -0.145799 0.66009 0
M  V30 6704 H 642.059 0.212441 2.04298 0
M  V30 6705 H 640.289 -2.00931 3.30399 0
M  V30 6706 H 641.978 -1.77424 3.65069 0
M  V30 6707 H 642.744 0.409884 4.83265 0
M  V30 6708 H 638.623 -0.781688 4.54324 0
M  V30 6709 H 642.167 1.90514 6.71081 0
M  V30 6710 H 638.064 0.706137 6.41626 0
M  V30 6711 H 638.832 2.16436 7.89365 0
M  V30 6712 N 641.495 -1.56914 -0.146875 0
M  V30 6713 C 642.72 -1.87881 -0.878386 0
M  V30 6714 C 643.145 -0.715945 -1.73942 0
M  V30 6715 O 642.503 0.334447 -1.78189 0
M  V30 6716 C 642.551 -3.17431 -1.71084 0
M  V30 6717 O 641.655 -3.01374 -2.81509 0
M  V30 6718 H 640.996 -0.617289 -0.244644 0
M  V30 6719 H 643.526 -2.04136 -0.137654 0
M  V30 6720 H 643.536 -3.49455 -2.10582 0
M  V30 6721 H 642.211 -4.01671 -1.07856 0
M  V30 6722 H 640.788 -2.80758 -2.45416 0
M  V30 6723 N 642.974 0.416227 -1.52004 0
M  V30 6724 C 644.251 1.17637 -1.56272 0
M  V30 6725 C 644.631 2.08352 -0.339493 0
M  V30 6726 O 643.979 2.1833 0.674124 0
M  V30 6727 C 644.189 1.95986 -2.88774 0
M  V30 6728 C 645.537 2.52299 -3.41512 0
M  V30 6729 O 646.561 2.06174 -2.90467 0
M  V30 6730 O 645.42 3.3648 -4.30631 0
M  V30 6731 H 642.514 0.536726 -0.629169 0
M  V30 6732 H 645.06 0.423583 -1.64329 0
M  V30 6733 H 643.832 1.29487 -3.69254 0
M  V30 6734 H 643.455 2.78285 -2.83978 0
M  V30 6735 N 644.452 1.42507 0.673017 0
M  V30 6736 C 645.4 1.46362 1.80779 0
M  V30 6737 C 646.394 0.339166 1.6597 0
M  V30 6738 O 647.6 0.512262 1.72557 0
M  V30 6739 H 643.975 0.458433 0.596107 0
M  V30 6740 H 645.946 2.41953 1.74646 0
M  V30 6741 C 644.695 1.38462 3.18941 0
M  V30 6742 H 644.018 2.24283 3.30964 0
M  V30 6743 H 645.458 1.45221 3.98355 0
M  V30 6744 C 643.917 0.0996354 3.36753 0
M  V30 6745 O 644.447 -0.846894 3.92671 0
M  V30 6746 N 642.653 0.016211 2.90595 0
M  V30 6747 H 642.2 0.78725 2.45276 0
M  V30 6748 H 642.158 -0.84291 3.0289 0
M  V30 6749 N 645.93 -0.909495 1.28709 0
M  V30 6750 C 646.862 -2.01729 1.08804 0
M  V30 6751 C 647.875 -1.62755 0.0384739 0
M  V30 6752 O 649.064 -1.76259 0.281977 0
M  V30 6753 C 646.164 -3.32952 0.63217 0
M  V30 6754 C 645.337 -4.00512 1.75809 0
M  V30 6755 C 644.396 -5.10019 1.29488 0
M  V30 6756 O 643.422 -5.32986 1.99787 0
M  V30 6757 N 644.624 -5.80278 0.1604 0
M  V30 6758 H 647.389 -2.19362 2.04207 0
M  V30 6759 H 644.95 -1.08106 1.20518 0
M  V30 6760 H 646.942 -4.03543 0.305802 0
M  V30 6761 H 645.512 -3.11759 -0.229134 0
M  V30 6762 H 644.732 -3.23413 2.25383 0
M  V30 6763 H 646.02 -4.42395 2.51325 0
M  V30 6764 H 645.418 -5.64094 -0.425937 0
M  V30 6765 H 643.975 -6.51713 -0.106663 0
M  V30 6766 N 647.408 -1.11026 -1.11852 0
M  V30 6767 C 648.633 -0.879064 -1.87849 0
M  V30 6768 C 649.058 0.565406 -1.79401 0
M  V30 6769 O 648.416 1.39886 -1.15333 0
M  V30 6770 C 648.464 -1.33985 -3.34784 0
M  V30 6771 O 647.568 -0.508803 -4.09249 0
M  V30 6772 H 646.909 -0.316992 -0.583448 0
M  V30 6773 H 649.439 -1.47863 -1.41413 0
M  V30 6774 H 649.449 -1.33248 -3.85628 0
M  V30 6775 H 648.124 -2.39172 -3.40249 0
M  V30 6776 H 646.701 -0.581913 -3.68332 0
M  V30 6777 N 648.886 1.2938 -0.899927 0
M  V30 6778 C 650.111 2.00228 -0.540692 0
M  V30 6779 C 650.536 1.66909 0.867359 0
M  V30 6780 O 649.894 0.893824 1.57735 0
M  V30 6781 C 649.942 3.52921 -0.740232 0
M  V30 6782 O 649.046 4.11879 0.207154 0
M  V30 6783 H 648.387 0.629505 -0.211233 0
M  V30 6784 H 650.917 1.6487 -1.21158 0
M  V30 6785 H 650.927 4.0287 -0.644973 0
M  V30 6786 H 649.602 3.76508 -1.76677 0
M  V30 6787 H 648.179 3.72845 0.0643315 0
M  V30 6788 N 650.364 0.662433 1.43002 0
M  V30 6789 C 651.61 0.179857 2.02001 0
M  V30 6790 C 651.943 -1.20625 1.52195 0
M  V30 6791 O 651.218 -1.80726 0.718911 0
M  V30 6792 C 651.501 0.200845 3.59539 0
M  V30 6793 C 651.354 1.62153 4.19555 0
M  V30 6794 C 652.673 -0.457738 4.37713 0
M  V30 6795 H 649.792 0.0668305 0.733964 0
M  V30 6796 H 652.434 0.84487 1.70182 0
M  V30 6797 H 650.584 -0.365411 3.86778 0
M  V30 6798 H 652.256 2.23908 4.03315 0
M  V30 6799 H 650.499 2.16601 3.75854 0
M  V30 6800 H 651.17 1.58799 5.28665 0
M  V30 6801 H 653.646 0.0241495 4.16093 0
M  V30 6802 H 652.522 -0.412363 5.47349 0
M  V30 6803 H 652.783 -1.53336 4.14657 0
M  V30 6804 N 651.842 -1.52309 0.404946 0
M  V30 6805 C 652.772 -2.29805 -0.41376 0
M  V30 6806 C 653.753 -1.3384 -1.0498 0
M  V30 6807 O 654.938 -1.62745 -1.05961 0
M  V30 6808 C 652.068 -3.11639 -1.53292 0
M  V30 6809 C 651.022 -4.15616 -1.02211 0
M  V30 6810 C 650.348 -4.8577 -2.23455 0
M  V30 6811 C 651.648 -5.2224 -0.0790725 0
M  V30 6812 H 653.342 -2.98493 0.232878 0
M  V30 6813 H 650.888 -1.43552 0.113441 0
M  V30 6814 H 652.841 -3.64618 -2.11262 0
M  V30 6815 H 651.565 -2.40712 -2.20738 0
M  V30 6816 H 650.224 -3.63641 -0.46484 0
M  V30 6817 H 649.872 -4.11376 -2.89445 0
M  V30 6818 H 649.572 -5.56058 -1.89929 0
M  V30 6819 H 651.096 -5.4156 -2.82038 0
M  V30 6820 H 652.51 -5.70485 -0.567438 0
M  V30 6821 H 650.907 -5.99867 0.167167 0
M  V30 6822 H 651.977 -4.77078 0.867447 0
M  V30 6823 N 653.32 -0.135238 -1.57019 0
M  V30 6824 C 654.566 0.519563 -1.96032 0
M  V30 6825 C 654.899 1.65284 -1.01955 0
M  V30 6826 O 654.174 1.94408 -0.059727 0
M  V30 6827 C 654.457 1.0369 -3.44848 0
M  V30 6828 C 654.31 -0.0940754 -4.49702 0
M  V30 6829 C 655.629 1.92254 -3.95887 0
M  V30 6830 H 652.748 0.18739 -0.712779 0
M  V30 6831 H 655.39 -0.214086 -1.8879 0
M  V30 6832 H 653.54 1.66209 -3.5115 0
M  V30 6833 H 655.212 -0.73 -4.55487 0
M  V30 6834 H 653.455 -0.754924 -4.27181 0
M  V30 6835 H 654.126 0.309419 -5.51132 0
M  V30 6836 H 656.602 1.39581 -3.9199 0
M  V30 6837 H 655.478 2.25364 -5.00502 0
M  V30 6838 H 655.739 2.85513 -3.37543 0
M  V30 6839 N 654.798 1.5699 0.138552 0
M  V30 6840 C 655.73 1.95515 1.1961 0
M  V30 6841 C 656.743 0.852002 1.38726 0
M  V30 6842 O 657.932 1.13038 1.38147 0
M  V30 6843 C 655.032 2.2213 2.55952 0
M  V30 6844 C 654.205 3.53424 2.57702 0
M  V30 6845 C 653.264 3.6848 3.75645 0
M  V30 6846 O 652.29 4.4079 3.60129 0
M  V30 6847 N 653.492 3.05777 4.93438 0
M  V30 6848 H 656.257 2.86838 0.868557 0
M  V30 6849 H 653.818 1.58542 0.328033 0
M  V30 6850 H 655.81 2.29435 3.33379 0
M  V30 6851 H 654.38 1.3703 2.80965 0
M  V30 6852 H 653.6 3.57484 1.6613 0
M  V30 6853 H 654.888 4.39759 2.55909 0
M  V30 6854 H 654.286 2.46961 5.08947 0
M  V30 6855 H 652.843 3.18631 5.6861 0
M  V30 6856 N 656.276 -0.40816 1.52223 0
M  V30 6857 C 657.522 -1.15673 1.66576 0
M  V30 6858 C 657.855 -1.90141 0.394996 0
M  V30 6859 O 657.13 -1.84798 -0.606613 0
M  V30 6860 C 657.413 -2.15042 2.88841 0
M  V30 6861 C 657.266 -1.44465 4.25969 0
M  V30 6862 C 658.585 -3.15699 3.0663 0
M  V30 6863 H 655.704 -0.41916 0.606196 0
M  V30 6864 H 658.346 -0.442348 1.84779 0
M  V30 6865 H 656.496 -2.75964 2.73452 0
M  V30 6866 H 658.168 -0.866544 4.53088 0
M  V30 6867 H 656.411 -0.746612 4.27327 0
M  V30 6868 H 657.082 -2.16976 5.07568 0
M  V30 6869 H 659.558 -2.64854 3.20923 0
M  V30 6870 H 658.434 -3.82491 3.9369 0
M  V30 6871 H 658.695 -3.83481 2.19987 0
M  V30 6872 N 657.755 -1.42862 -0.66545 0
M  V30 6873 C 658.985 -1.47032 -1.45138 0
M  V30 6874 C 659.393 -0.0829977 -1.89018 0
M  V30 6875 O 658.736 0.914551 -1.59316 0
M  V30 6876 C 658.798 -2.34302 -2.72659 0
M  V30 6877 C 658.462 -3.82034 -2.50796 0
M  V30 6878 C 659.459 -4.73453 -2.14799 0
M  V30 6879 C 657.144 -4.26397 -2.655 0
M  V30 6880 C 659.138 -6.07228 -1.93785 0
M  V30 6881 C 656.825 -5.6023 -2.44103 0
M  V30 6882 C 657.823 -6.50462 -2.08299 0
M  V30 6883 O 657.511 -7.8182 -1.87116 0
M  V30 6884 H 657.243 -0.501969 -0.452772 0
M  V30 6885 H 659.797 -1.88137 -0.82423 0
M  V30 6886 H 658.027 -1.88063 -3.37889 0
M  V30 6887 H 659.716 -2.29818 -3.34572 0
M  V30 6888 H 660.482 -4.4046 -2.03026 0
M  V30 6889 H 656.361 -3.56448 -2.92345 0
M  V30 6890 H 659.905 -6.7762 -1.65763 0
M  V30 6891 H 655.802 -5.92793 -2.55475 0
M  V30 6892 H 656.57 -7.93274 -2.01639 0
M  V30 6893 N 659.233 0.902656 -1.29189 0
M  V30 6894 C 660.143 2.03946 -1.15944 0
M  V30 6895 C 661.159 1.738 -0.0833803 0
M  V30 6896 O 662.335 1.9923 -0.29487 0
M  V30 6897 C 659.4 3.36519 -0.834006 0
M  V30 6898 C 658.461 3.80203 -1.9936 0
M  V30 6899 C 657.694 5.06449 -1.68359 0
M  V30 6900 O 657.917 5.67202 -0.603141 0
M  V30 6901 O 656.851 5.46114 -2.53067 0
M  V30 6902 H 660.677 2.18043 -2.11403 0
M  V30 6903 H 658.262 1.02584 -1.08613 0
M  V30 6904 H 660.144 4.16089 -0.666949 0
M  V30 6905 H 658.819 3.23573 0.0908245 0
M  V30 6906 H 657.726 3.01413 -2.21588 0
M  V30 6907 H 659.059 3.97729 -2.89952 0
M  V30 6908 N 660.711 1.11618 1.11262 0
M  V30 6909 C 661.959 0.864469 1.82678 0
M  V30 6910 C 662.28 -0.611564 1.85162 0
M  V30 6911 O 661.55 -1.44429 1.32352 0
M  V30 6912 H 660.13 0.316821 0.676486 0
M  V30 6913 H 662.792 1.40894 1.34666 0
M  V30 6914 H 661.888 1.23832 2.86482 0
M  V30 6915 N 662.189 -1.289 0.906776 0
M  V30 6916 C 663.099 -2.31256 0.394707 0
M  V30 6917 C 664.115 -1.66231 -0.514121 0
M  V30 6918 O 665.291 -1.97347 -0.401994 0
M  V30 6919 C 662.356 -3.44792 -0.363191 0
M  V30 6920 C 661.417 -4.25391 0.578012 0
M  V30 6921 C 660.65 -5.33506 -0.143811 0
M  V30 6922 O 660.873 -5.53786 -1.36665 0
M  V30 6923 O 659.807 -5.99673 0.5173 0
M  V30 6924 H 663.633 -2.77051 1.24405 0
M  V30 6925 H 661.218 -1.33466 0.671346 0
M  V30 6926 H 663.1 -4.139 -0.791503 0
M  V30 6927 H 661.775 -3.01093 -1.18848 0
M  V30 6928 H 660.682 -3.58899 1.05558 0
M  V30 6929 H 662.015 -4.72752 1.36992 0
M  V30 6930 N 663.667 -0.670007 -1.42649 0
M  V30 6931 C 665.083 -0.33911 -1.55956 0
M  V30 6932 C 665.283 1.1558 -1.65056 0
M  V30 6933 O 664.339 1.94111 -1.61485 0
M  V30 6934 C 665.652 -1.06522 -2.812 0
M  V30 6935 C 667.2 -1.04708 -2.94966 0
M  V30 6936 C 667.675 -1.75442 -4.23065 0
M  V30 6937 N 669.166 -1.72286 -4.29967 0
M  V30 6938 C 669.901 -2.23877 -5.27889 0
M  V30 6939 N 669.397 -2.83829 -6.31991 0
M  V30 6940 N 671.19 -2.14279 -5.19654 0
M  V30 6941 H 663.341 -1.6399 -1.34986 0
M  V30 6942 H 665.604 -0.690603 -0.649439 0
M  V30 6943 H 665.31 -2.12033 -2.80597 0
M  V30 6944 H 665.184 -0.627398 -3.71946 0
M  V30 6945 H 667.571 -0.000315966 -2.951 0
M  V30 6946 H 667.652 -1.52374 -2.05465 0
M  V30 6947 H 667.296 -2.80084 -4.23693 0
M  V30 6948 H 667.226 -1.25229 -5.11493 0
M  V30 6949 H 669.717 -1.28554 -3.55362 0
M  V30 6950 H 670.03 -3.20827 -7.03057 0
M  V30 6951 H 668.375 -2.87896 -6.32567 0
M  V30 6952 H 671.566 -1.67135 -4.37245 0
M  V30 6953 H 671.739 -2.54792 -5.95806 0
M  V30 6954 N 665.145 1.52092 -0.413018 0
M  V30 6955 C 666.108 2.25706 0.398687 0
M  V30 6956 C 667.108 1.28221 0.970368 0
M  V30 6957 O 668.298 1.52131 0.848635 0
M  V30 6958 C 665.43 3.03029 1.5616 0
M  V30 6959 H 666.623 2.98888 -0.246131 0
M  V30 6960 H 664.176 1.5542 -0.165622 0
M  V30 6961 H 664.911 2.34205 2.24317 0
M  V30 6962 H 664.696 3.74606 1.15812 0
M  V30 6963 H 666.186 3.58857 2.13569 0
M  V30 6964 N 666.623 0.143563 1.56945 0
M  V30 6965 C 667.556 -0.835367 2.1236 0
M  V30 6966 C 668.534 -1.24466 1.04627 0
M  V30 6967 O 669.718 -1.34138 1.32436 0
M  V30 6968 C 666.845 -2.12123 2.64048 0
M  V30 6969 C 665.891 -1.85812 3.83896 0
M  V30 6970 S 666.724 -1.05222 5.25061 0
M  V30 6971 C 667.88 -2.34935 5.80135 0
M  V30 6972 H 668.113 -0.364109 2.95062 0
M  V30 6973 H 665.646 -0.0706601 1.54238 0
M  V30 6974 H 667.604 -2.85993 2.94479 0
M  V30 6975 H 666.265 -2.56364 1.81483 0
M  V30 6976 H 665.458 -2.81151 4.18294 0
M  V30 6977 H 665.06 -1.20052 3.54208 0
M  V30 6978 H 667.352 -3.3061 5.91357 0
M  V30 6979 H 668.295 -2.05046 6.77762 0
M  V30 6980 H 668.703 -2.45426 5.08356 0
M  V30 6981 N 668.101 -1.57061 -0.130224 0
M  V30 6982 C 669.329 -1.88432 -0.854456 0
M  V30 6983 C 669.744 -0.733608 -1.73964 0
M  V30 6984 O 669.101 0.296029 -1.80083 0
M  V30 6985 C 669.152 -3.1918 -1.69724 0
M  V30 6986 O 668.873 -4.2982 -0.847705 0
M  V30 6987 C 670.374 -3.6418 -2.5276 0
M  V30 6988 H 667.594 -0.624193 -0.246221 0
M  V30 6989 H 670.138 -2.04159 -0.11798 0
M  V30 6990 H 668.293 -3.05156 -2.3866 0
M  V30 6991 H 668.707 -5.04689 -1.42792 0
M  V30 6992 H 670.181 -4.58457 -3.07443 0
M  V30 6993 H 670.658 -2.90285 -3.29592 0
M  V30 6994 H 671.264 -3.80954 -1.89087 0
M  V30 6995 N 669.579 0.400081 -1.52437 0
M  V30 6996 C 670.526 1.48803 -1.76426 0
M  V30 6997 C 671.496 1.5461 -0.607032 0
M  V30 6998 O 672.681 1.71041 -0.845563 0
M  V30 6999 C 669.821 2.86156 -1.92896 0
M  V30 7000 C 668.934 2.89587 -3.20567 0
M  V30 7001 C 668.069 4.18296 -3.27417 0
M  V30 7002 C 667.108 4.15736 -4.49255 0
M  V30 7003 N 666.245 5.36032 -4.53447 0
M  V30 7004 H 671.085 1.27649 -2.69276 0
M  V30 7005 H 668.622 0.619451 -1.33421 0
M  V30 7006 H 670.58 3.65901 -2.00429 0
M  V30 7007 H 669.21 3.05785 -1.03418 0
M  V30 7008 H 668.262 2.02278 -3.22161 0
M  V30 7009 H 669.574 2.83562 -4.10358 0
M  V30 7010 H 668.728 5.06439 -3.34072 0
M  V30 7011 H 667.467 4.27028 -2.35581 0
M  V30 7012 H 666.472 3.25982 -4.42737 0
M  V30 7013 H 667.697 4.08636 -5.42396 0
M  V30 7014 H 665.643 5.45415 -3.64498 0
M  V30 7015 H 665.56 5.32038 -5.37096 0
M  V30 7016 H 666.828 6.26104 -4.64343 0
M  V30 7017 N 671.057 1.43213 0.657864 0
M  V30 7018 C 672.334 1.35063 1.41483 0
M  V30 7019 C 672.714 -0.0038314 2.111 0
M  V30 7020 O 672.062 -1.02018 2.04462 0
M  V30 7021 C 672.272 2.53061 2.40335 0
M  V30 7022 C 673.62 2.9594 3.04474 0
M  V30 7023 O 674.644 2.53074 2.50663 0
M  V30 7024 O 673.503 3.70184 4.02027 0
M  V30 7025 H 670.597 0.533517 0.631893 0
M  V30 7026 H 673.143 1.55253 0.685162 0
M  V30 7027 H 671.915 3.43283 1.87809 0
M  V30 7028 H 671.538 2.34945 3.20759 0
M  V30 7029 N 672.536 -0.895792 1.29666 0
M  V30 7030 C 673.484 -2.02173 1.15017 0
M  V30 7031 C 674.478 -1.69276 0.0647651 0
M  V30 7032 O 675.684 -1.7859 0.224846 0
M  V30 7033 H 672.059 -0.662719 0.355397 0
M  V30 7034 H 674.03 -2.11666 2.10334 0
M  V30 7035 C 672.779 -3.37212 0.847555 0
M  V30 7036 H 672.102 -3.6303 1.67479 0
M  V30 7037 H 673.542 -4.16668 0.785106 0
M  V30 7038 C 672.001 -3.33891 -0.44929 0
M  V30 7039 O 672.531 -3.73673 -1.47415 0
M  V30 7040 N 670.737 -2.86991 -0.456547 0
M  V30 7041 H 670.284 -2.54813 0.377925 0
M  V30 7042 H 670.242 -2.85152 -1.32423 0
M  V30 7043 N 674.014 -1.12206 -1.10668 0
M  V30 7044 C 674.962 -0.782918 -2.19028 0
M  V30 7045 C 675.956 0.229175 -1.67843 0
M  V30 7046 O 677.162 0.0876295 -1.79787 0
M  V30 7047 H 673.537 -0.235339 -0.714227 0
M  V30 7048 H 675.508 -1.70527 -2.44874 0
M  V30 7049 C 674.257 -0.25116 -3.46792 0
M  V30 7050 H 673.58 -1.02123 -3.86537 0
M  V30 7051 H 675.02 -0.0521409 -4.23968 0
M  V30 7052 C 673.479 1.02037 -3.21076 0
M  V30 7053 O 674.009 2.09862 -3.42522 0
M  V30 7054 N 672.215 0.946348 -2.74759 0
M  V30 7055 H 671.762 0.068777 -2.57508 0
M  V30 7056 H 671.72 1.79775 -2.57931 0
M  V30 7057 N 675.492 1.28418 -0.913599 0
M  V30 7058 C 676.422 2.29713 -0.418847 0
M  V30 7059 C 677.403 1.62165 0.513469 0
M  V30 7060 O 678.588 1.89576 0.421235 0
M  V30 7061 C 675.718 3.45612 0.342042 0
M  V30 7062 C 674.672 4.25056 -0.501123 0
M  V30 7063 C 673.998 5.3329 0.388097 0
M  V30 7064 C 675.298 4.91814 -1.75831 0
M  V30 7065 H 676.992 2.71346 -1.26538 0
M  V30 7066 H 674.538 1.30446 -0.609903 0
M  V30 7067 H 676.491 4.15562 0.699 0
M  V30 7068 H 675.215 3.02858 1.22248 0
M  V30 7069 H 673.874 3.56833 -0.840598 0
M  V30 7070 H 673.522 4.8678 1.26707 0
M  V30 7071 H 673.222 5.87347 -0.172459 0
M  V30 7072 H 674.746 6.06088 0.74094 0
M  V30 7073 H 676.16 5.54126 -1.47026 0
M  V30 7074 H 674.557 5.55866 -2.26126 0
M  V30 7075 H 675.627 4.16313 -2.4862 0
M  V30 7076 N 676.97 0.677563 1.42291 0
M  V30 7077 C 677.9 0.014968 2.33495 0
M  V30 7078 C 678.881 -0.786376 1.50831 0
M  V30 7079 O 680.066 -0.742975 1.79426 0
M  V30 7080 C 677.196 -0.935023 3.34477 0
M  V30 7081 C 676.15 -0.242074 4.27315 0
M  V30 7082 C 675.476 -1.30519 5.18526 0
M  V30 7083 C 676.776 0.880604 5.14823 0
M  V30 7084 H 678.47 0.776671 2.89151 0
M  V30 7085 H 676.016 0.37494 1.39033 0
M  V30 7086 H 677.969 -1.40766 3.97194 0
M  V30 7087 H 676.693 -1.72818 2.77131 0
M  V30 7088 H 675.352 0.210351 3.65996 0
M  V30 7089 H 675 -2.09041 4.57505 0
M  V30 7090 H 674.7 -0.846652 5.81468 0
M  V30 7091 H 676.224 -1.7787 5.84119 0
M  V30 7092 H 677.638 0.489062 5.7121 0
M  V30 7093 H 676.035 1.26511 5.86613 0
M  V30 7094 H 677.105 1.72818 4.53059 0
M  V30 7095 N 678.448 -1.51871 0.421078 0
M  V30 7096 C 679.696 -2.01539 -0.150492 0
M  V30 7097 C 680.017 -1.30803 -1.44623 0
M  V30 7098 O 679.287 -0.437568 -1.90951 0
M  V30 7099 H 677.867 -0.744698 -0.0586041 0
M  V30 7100 H 680.529 -1.8668 0.560059 0
M  V30 7101 H 679.625 -3.10264 -0.338068 0
M  V30 7102 N 679.926 -0.151884 -1.56866 0
M  V30 7103 C 680.873 0.785936 -2.17006 0
M  V30 7104 C 681.843 1.2407 -1.10435 0
M  V30 7105 O 683.028 1.31235 -1.38499 0
M  V30 7106 C 680.168 2.01771 -2.79969 0
M  V30 7107 C 679.281 1.6083 -4.00946 0
M  V30 7108 C 678.416 2.79224 -4.51893 0
M  V30 7109 C 677.455 2.3468 -5.65324 0
M  V30 7110 N 676.592 3.461 -6.10867 0
M  V30 7111 H 681.432 0.266286 -2.96808 0
M  V30 7112 H 678.969 0.11972 -1.46612 0
M  V30 7113 H 680.927 2.73989 -3.14621 0
M  V30 7114 H 679.557 2.51139 -2.02803 0
M  V30 7115 H 678.609 0.783592 -3.72242 0
M  V30 7116 H 679.921 1.24119 -4.83111 0
M  V30 7117 H 679.075 3.59625 -4.88625 0
M  V30 7118 H 677.814 3.19183 -3.68746 0
M  V30 7119 H 676.819 1.52721 -5.28163 0
M  V30 7120 H 678.044 1.95801 -6.5026 0
M  V30 7121 H 675.99 3.85671 -5.30654 0
M  V30 7122 H 675.907 3.1342 -6.87971 0
M  V30 7123 H 677.175 4.26844 -6.52246 0
M  V30 7124 N 681.404 1.57128 0.121893 0
M  V30 7125 C 682.651 1.847 0.830188 0
M  V30 7126 C 682.979 0.736543 1.80015 0
M  V30 7127 O 682.234 -0.272358 1.93796 0
M  V30 7128 C 682.533 3.1874 1.61677 0
M  V30 7129 C 682.199 4.43901 0.791361 0
M  V30 7130 C 680.861 4.77887 0.563731 0
M  V30 7131 C 683.213 5.20753 0.215823 0
M  V30 7132 C 680.541 5.86168 -0.249737 0
M  V30 7133 C 682.893 6.29891 -0.584821 0
M  V30 7134 C 681.557 6.6241 -0.822794 0
M  V30 7135 H 680.827 0.675866 0.303787 0
M  V30 7136 H 683.474 1.91276 0.0926894 0
M  V30 7137 H 681.779 3.07728 2.42509 0
M  V30 7138 H 683.476 3.37295 2.16872 0
M  V30 7139 H 680.066 4.17272 0.978867 0
M  V30 7140 H 684.25 4.94851 0.378907 0
M  V30 7141 H 679.506 6.0979 -0.44336 0
M  V30 7142 H 683.68 6.88624 -1.03779 0
M  V30 7143 H 681.307 7.46147 -1.45496 0
M  V30 7144 N 682.882 -0.391992 1.52647 0
M  V30 7145 C 684.159 -1.15136 1.58123 0
M  V30 7146 C 684.539 -2.07786 0.372597 0
M  V30 7147 O 683.887 -2.19374 -0.639304 0
M  V30 7148 C 684.097 -1.91367 2.91856 0
M  V30 7149 C 685.445 -2.46833 3.45483 0
M  V30 7150 O 686.469 -2.01527 2.9371 0
M  V30 7151 O 685.328 -3.29587 4.3593 0
M  V30 7152 H 682.422 -0.526649 0.637629 0
M  V30 7153 H 684.968 -0.397386 1.64982 0
M  V30 7154 H 683.74 -1.23597 3.71268 0
M  V30 7155 H 683.363 -2.73732 2.88369 0
M  V30 7156 N 684.36 -1.4356 -0.65026 0
M  V30 7157 C 685.29 -1.51758 -1.77459 0
M  V30 7158 C 686.271 -0.372019 -1.65982 0
M  V30 7159 O 687.456 -0.589627 -1.85033 0
M  V30 7160 C 684.586 -1.44302 -3.15902 0
M  V30 7161 C 683.54 -2.57138 -3.42146 0
M  V30 7162 C 682.866 -2.34735 -4.8042 0
M  V30 7163 C 684.166 -3.99373 -3.36598 0
M  V30 7164 H 685.86 -2.45863 -1.70855 0
M  V30 7165 H 683.406 -1.18333 -0.820566 0
M  V30 7166 H 685.359 -1.48641 -3.94314 0
M  V30 7167 H 684.083 -0.467026 -3.23244 0
M  V30 7168 H 682.742 -2.52157 -2.66106 0
M  V30 7169 H 682.39 -1.35372 -4.84441 0
M  V30 7170 H 682.09 -3.10375 -4.9894 0
M  V30 7171 H 683.614 -2.40862 -5.61086 0
M  V30 7172 H 685.028 -4.05826 -4.04942 0
M  V30 7173 H 683.425 -4.75063 -3.66654 0
M  V30 7174 H 684.495 -4.243 -2.34729 0
M  V30 7175 N 685.838 0.888903 -1.30139 0
M  V30 7176 C 687.066 1.67358 -1.21651 0
M  V30 7177 C 687.481 1.87499 0.221246 0
M  V30 7178 O 686.838 1.41969 1.14677 0
M  V30 7179 C 686.889 3.05213 -1.93719 0
M  V30 7180 O 686.61 2.85984 -3.31881 0
M  V30 7181 C 688.111 3.9964 -1.9184 0
M  V30 7182 H 685.331 0.522365 -0.42116 0
M  V30 7183 H 687.875 1.11086 -1.71698 0
M  V30 7184 H 686.03 3.5823 -1.4748 0
M  V30 7185 H 686.444 3.73411 -3.68327 0
M  V30 7186 H 687.918 4.93749 -2.46811 0
M  V30 7187 H 688.395 4.29955 -0.896409 0
M  V30 7188 H 689.001 3.52558 -2.37872 0
M  V30 7189 N 687.317 1.12792 1.10072 0
M  V30 7190 C 688.565 0.883796 1.81751 0
M  V30 7191 C 688.886 -0.591891 1.858 0
M  V30 7192 O 688.156 -1.43017 1.33876 0
M  V30 7193 H 686.736 0.323978 0.673088 0
M  V30 7194 H 689.398 1.42314 1.33164 0
M  V30 7195 H 688.494 1.26863 2.85153 0
M  V30 7196 N 688.795 -1.27931 0.920396 0
M  V30 7197 C 690.044 -1.93975 0.552867 0
M  V30 7198 C 690.357 -1.73193 -0.909035 0
M  V30 7199 O 691.563 -2.33515 -1.38502 0
M  V30 7200 C 690.019 -3.47463 0.937947 0
M  V30 7201 C 689.627 -3.77013 2.42003 0
M  V30 7202 C 691.371 -4.19628 0.64132 0
M  V30 7203 C 689.278 -5.23841 2.74489 0
M  V30 7204 H 688.208 -0.726146 0.203046 0
M  V30 7205 H 690.859 -1.45339 1.12022 0
M  V30 7206 H 689.241 -3.94867 0.299317 0
M  V30 7207 H 690.415 -3.40393 3.10595 0
M  V30 7208 H 688.73 -3.18035 2.6878 0
M  V30 7209 H 691.327 -5.27729 0.860622 0
M  V30 7210 H 691.67 -4.14164 -0.421168 0
M  V30 7211 H 692.203 -3.78022 1.23872 0
M  V30 7212 H 688.942 -5.34388 3.79618 0
M  V30 7213 H 688.462 -5.61634 2.1054 0
M  V30 7214 H 690.141 -5.91647 2.61845 0
M  V30 7215 N 690.273 -0.685099 -1.4193 0
M  V30 7216 C 691.684 -0.287699 -1.8447 0
M  V30 7217 C 692.035 1.17215 -1.57338 0
M  V30 7218 O 691.16 1.89856 -1.03845 0
M  V30 7219 C 691.755 -0.515385 -3.34857 0
M  V30 7220 C 690.314 -0.172006 -3.76007 0
M  V30 7221 C 689.461 -0.802808 -2.65425 0
M  V30 7222 H 692.412 -0.88652 -1.3163 0
M  V30 7223 H 692.433 0.229251 -3.79809 0
M  V30 7224 H 691.945 -1.57796 -3.54573 0
M  V30 7225 H 690.046 0.886716 -3.61895 0
M  V30 7226 H 690.159 -0.619717 -4.75075 0
M  V30 7227 H 688.523 -0.233267 -2.5363 0
M  V30 7228 H 689.306 -1.86904 -2.87961 0
M  V30 7229 N 691.751 1.51645 -0.429126 0
M  V30 7230 C 693.162 1.86665 0.0359003 0
M  V30 7231 C 693.513 1.34677 1.42676 0
M  V30 7232 O 692.638 0.694195 2.04963 0
M  V30 7233 C 693.233 3.38724 0.0719221 0
M  V30 7234 C 691.792 3.7331 0.481336 0
M  V30 7235 C 690.939 2.75313 -0.331329 0
M  V30 7236 H 693.89 1.44987 -0.645333 0
M  V30 7237 H 693.911 3.7011 0.883118 0
M  V30 7238 H 693.423 3.76532 -0.940495 0
M  V30 7239 H 691.524 3.41088 1.49966 0
M  V30 7240 H 691.637 4.78631 0.211837 0
M  V30 7241 H 690.001 2.53839 0.209204 0
M  V30 7242 H 690.784 3.15963 -1.34247 0
M  V30 7243 N 693.229 0.160201 1.56784 0
M  V30 7244 C 694.192 -0.760405 2.16219 0
M  V30 7245 C 695.192 -1.16595 1.10735 0
M  V30 7246 O 696.382 -1.08472 1.36306 0
M  V30 7247 C 693.514 -2.03358 2.73603 0
M  V30 7248 H 694.707 -0.243173 2.98912 0
M  V30 7249 H 692.26 -0.0893139 1.56045 0
M  V30 7250 H 692.995 -2.59416 1.94612 0
M  V30 7251 H 692.78 -1.75186 3.50788 0
M  V30 7252 H 694.27 -2.69081 3.19351 0
M  V30 7253 N 694.707 -1.5719 -0.113559 0
M  V30 7254 C 696.118 -1.74259 -0.670116 0
M  V30 7255 C 696.469 -0.779694 -1.80042 0
M  V30 7256 O 695.594 0.0461353 -2.16351 0
M  V30 7257 C 696.189 -3.15981 -1.22236 0
M  V30 7258 C 694.748 -3.34537 -1.72516 0
M  V30 7259 C 693.895 -2.70116 -0.627098 0
M  V30 7260 H 696.846 -1.58301 0.112396 0
M  V30 7261 H 696.867 -3.17832 -2.09197 0
M  V30 7262 H 696.379 -3.86038 -0.39949 0
M  V30 7263 H 694.48 -2.6953 -2.57263 0
M  V30 7264 H 694.593 -4.42737 -1.83086 0
M  V30 7265 H 692.957 -2.31501 -1.06204 0
M  V30 7266 H 693.74 -3.42802 0.184889 0
M  V30 7267 N 696.185 0.383891 -1.52853 0
M  V30 7268 C 697.601 0.724316 -1.42218 0
M  V30 7269 C 697.801 1.93943 -0.546654 0
M  V30 7270 O 696.857 2.5249 -0.0220562 0
M  V30 7271 C 698.17 0.954635 -2.85144 0
M  V30 7272 C 699.718 1.05579 -2.94656 0
M  V30 7273 C 700.193 1.3187 -4.38605 0
M  V30 7274 N 701.684 1.38681 -4.41952 0
M  V30 7275 C 702.419 1.60699 -5.50421 0
M  V30 7276 N 701.915 1.80154 -6.68967 0
M  V30 7277 N 703.708 1.6292 -5.37972 0
M  V30 7278 H 695.859 -0.4156 -2.08294 0
M  V30 7279 H 698.122 -0.123776 -0.939885 0
M  V30 7280 H 697.828 0.133829 -3.51445 0
M  V30 7281 H 697.702 1.86788 -3.27704 0
M  V30 7282 H 700.089 1.86716 -2.2852 0
M  V30 7283 H 700.17 0.120338 -2.55517 0
M  V30 7284 H 699.814 0.512416 -5.05309 0
M  V30 7285 H 699.744 2.26708 -4.75301 0
M  V30 7286 H 702.235 1.25334 -3.56511 0
M  V30 7287 H 702.548 1.96476 -7.47407 0
M  V30 7288 H 700.893 1.77368 -6.71986 0
M  V30 7289 H 704.084 1.47276 -4.44328 0
M  V30 7290 H 704.257 1.79739 -6.22574 0
M  V30 7291 N 697.663 1.43903 0.642637 0
M  V30 7292 C 698.911 1.45791 1.39962 0
M  V30 7293 C 699.232 0.0873144 1.94804 0
M  V30 7294 O 698.502 -0.878825 1.75081 0
M  V30 7295 H 697.082 0.536797 0.519479 0
M  V30 7296 H 699.744 1.7959 0.757189 0
M  V30 7297 H 698.84 2.17665 2.2367 0
M  V30 7298 N 699.141 -0.881989 1.30609 0
M  V30 7299 C 700.387 -1.63647 1.19781 0
M  V30 7300 C 700.72 -1.92632 -0.246265 0
M  V30 7301 O 699.995 -1.54938 -1.17577 0
M  V30 7302 C 700.278 -2.97437 2.02985 0
M  V30 7303 C 700.131 -2.75406 3.55628 0
M  V30 7304 C 701.45 -3.98397 1.86997 0
M  V30 7305 H 698.569 -0.593841 0.436488 0
M  V30 7306 H 701.211 -1.02041 1.60273 0
M  V30 7307 H 699.361 -3.50018 1.68581 0
M  V30 7308 H 701.033 -2.2959 4.00107 0
M  V30 7309 H 699.276 -2.09856 3.79662 0
M  V30 7310 H 699.947 -3.70552 4.09139 0
M  V30 7311 H 702.423 -3.54986 2.17081 0
M  V30 7312 H 701.299 -4.89916 2.47536 0
M  V30 7313 H 701.56 -4.3424 0.829943 0
M  V30 7314 N 700.619 -1.13374 -1.09472 0
M  V30 7315 C 702.03 -0.90801 -1.63132 0
M  V30 7316 C 702.381 0.555576 -1.8817 0
M  V30 7317 O 701.506 1.42218 -1.63104 0
M  V30 7318 C 702.101 -1.64182 -2.96361 0
M  V30 7319 C 700.66 -1.46197 -3.46848 0
M  V30 7320 C 699.807 -1.67134 -2.21273 0
M  V30 7321 H 702.758 -1.2871 -0.928411 0
M  V30 7322 H 702.779 -1.09863 -3.64294 0
M  V30 7323 H 702.291 -2.707 -2.78106 0
M  V30 7324 H 700.392 -0.419788 -3.70228 0
M  V30 7325 H 700.505 -2.22472 -4.24315 0
M  V30 7326 H 698.869 -1.09616 -2.29905 0
M  V30 7327 H 699.652 -2.74971 -2.05538 0
M  V30 7328 N 702.098 1.27442 -0.927168 0
M  V30 7329 C 703.03 2.25975 -0.383158 0
M  V30 7330 C 704.043 1.55382 0.485832 0
M  V30 7331 O 705.232 1.75986 0.298541 0
M  V30 7332 C 702.332 3.35629 0.469688 0
M  V30 7333 C 701.505 4.35747 -0.379886 0
M  V30 7334 C 700.564 5.24598 0.410227 0
M  V30 7335 O 699.59 5.68909 -0.181888 0
M  V30 7336 N 700.792 5.54737 1.71017 0
M  V30 7337 H 703.557 2.7329 -1.23015 0
M  V30 7338 H 701.118 1.41063 -0.794539 0
M  V30 7339 H 703.11 3.92015 1.00532 0
M  V30 7340 H 701.68 2.87919 1.21744 0
M  V30 7341 H 700.9 3.78634 -1.09682 0
M  V30 7342 H 702.188 4.99648 -0.960717 0
M  V30 7343 H 701.586 5.20594 2.21356 0
M  V30 7344 H 700.143 6.13824 2.19234 0
M  V30 7345 N 703.576 0.692616 1.41565 0
M  V30 7346 C 704.825 0.219452 2.00503 0
M  V30 7347 C 705.138 -1.18683 1.55479 0
M  V30 7348 O 706.344 -1.75731 2.06956 0
M  V30 7349 C 704.8 0.341451 3.58277 0
M  V30 7350 C 704.408 1.75291 4.12283 0
M  V30 7351 C 706.152 -0.0720899 4.24439 0
M  V30 7352 C 704.059 1.82673 5.62481 0
M  V30 7353 H 702.989 0.0782874 0.749925 0
M  V30 7354 H 705.64 0.860386 1.62079 0
M  V30 7355 H 704.022 -0.367683 3.94289 0
M  V30 7356 H 705.196 2.49057 3.87695 0
M  V30 7357 H 703.511 2.11587 3.58636 0
M  V30 7358 H 706.108 -0.0373385 5.34687 0
M  V30 7359 H 706.451 -1.11034 4.0122 0
M  V30 7360 H 706.984 0.586663 3.9345 0
M  V30 7361 H 703.723 2.84539 5.90523 0
M  V30 7362 H 703.243 1.13288 5.89004 0
M  V30 7363 H 704.922 1.58827 6.27203 0
M  V30 7364 N 705.054 -1.51416 0.437162 0
M  V30 7365 C 705.964 -2.31493 -0.380537 0
M  V30 7366 C 706.98 -1.40399 -1.02782 0
M  V30 7367 O 708.156 -1.73471 -1.02323 0
M  V30 7368 C 705.221 -3.1413 -1.46709 0
M  V30 7369 C 704.282 -4.21003 -0.839953 0
M  V30 7370 C 703.515 -4.9969 -1.87473 0
M  V30 7371 O 703.738 -4.79008 -3.09689 0
M  V30 7372 O 702.672 -5.8379 -1.46536 0
M  V30 7373 H 706.498 -3.02469 0.273183 0
M  V30 7374 H 704.083 -1.48059 0.199706 0
M  V30 7375 H 705.965 -3.65505 -2.09724 0
M  V30 7376 H 704.64 -2.45919 -2.10489 0
M  V30 7377 H 703.547 -3.73706 -0.171752 0
M  V30 7378 H 704.88 -4.91587 -0.245638 0
M  V30 7379 N 706.532 -0.168513 -1.56696 0
M  V30 7380 C 707.778 0.477865 -1.9709 0
M  V30 7381 C 708.111 1.63084 -1.05438 0
M  V30 7382 O 707.386 1.94238 -0.10095 0
M  V30 7383 C 707.669 0.963521 -3.4697 0
M  V30 7384 C 707.522 -0.189443 -4.49401 0
M  V30 7385 C 708.841 1.83813 -3.99876 0
M  V30 7386 H 705.96 0.172229 -0.716593 0
M  V30 7387 H 708.602 -0.254083 -1.88293 0
M  V30 7388 H 706.752 1.58724 -3.54597 0
M  V30 7389 H 708.424 -0.826451 -4.53836 0
M  V30 7390 H 706.667 -0.845366 -4.25483 0
M  V30 7391 H 707.338 0.192446 -5.51664 0
M  V30 7392 H 709.814 1.31235 -3.94863 0
M  V30 7393 H 708.69 2.14697 -5.0517 0
M  V30 7394 H 708.951 2.78289 -3.43523 0
M  V30 7395 N 708.01 1.57248 0.105221 0
M  V30 7396 C 709.238 1.89768 0.82437 0
M  V30 7397 C 709.653 0.761192 1.72775 0
M  V30 7398 O 709.01 -0.267342 1.80531 0
M  V30 7399 C 709.061 3.2184 1.64625 0
M  V30 7400 O 708.782 4.31115 0.779217 0
M  V30 7401 C 710.283 3.68155 2.46935 0
M  V30 7402 H 707.503 0.628031 0.236259 0
M  V30 7403 H 710.047 2.04321 0.085485 0
M  V30 7404 H 708.202 3.08915 2.33775 0
M  V30 7405 H 708.616 5.06897 1.34745 0
M  V30 7406 H 710.09 4.6329 3.00111 0
M  V30 7407 H 710.567 2.95492 3.24932 0
M  V30 7408 H 711.173 3.83914 1.83002 0
M  V30 7409 N 709.488 -0.375779 1.53054 0
M  V30 7410 C 710.735 -1.11948 1.68742 0
M  V30 7411 C 711.063 -1.89596 0.434015 0
M  V30 7412 O 710.318 -1.86787 -0.583867 0
M  V30 7413 C 710.617 -2.11356 2.88207 0
M  V30 7414 C 710.283 -1.50266 4.25124 0
M  V30 7415 C 708.945 -1.33333 4.62359 0
M  V30 7416 C 711.297 -1.05976 5.10312 0
M  V30 7417 C 708.625 -0.706765 5.82427 0
M  V30 7418 C 710.977 -0.447241 6.31017 0
M  V30 7419 C 709.641 -0.265314 6.66973 0
M  V30 7420 H 708.911 -0.409648 0.61747 0
M  V30 7421 H 711.558 -0.402492 1.87222 0
M  V30 7422 H 709.863 -2.89322 2.64197 0
M  V30 7423 H 711.56 -2.68833 2.97539 0
M  V30 7424 H 708.15 -1.64437 3.95801 0
M  V30 7425 H 712.334 -1.17855 4.82104 0
M  V30 7426 H 707.59 -0.554132 6.08884 0
M  V30 7427 H 711.764 -0.0958064 6.96334 0
M  V30 7428 H 709.391 0.222267 7.59875 0
M  V30 7429 N 710.966 -1.44241 -0.634997 0
M  V30 7430 C 712.243 -1.37296 -1.39317 0
M  V30 7431 C 712.623 -0.0297532 -2.11079 0
M  V30 7432 O 711.971 0.987524 -2.06059 0
M  V30 7433 C 712.181 -2.56853 -2.36279 0
M  V30 7434 C 713.529 -3.00747 -2.99728 0
M  V30 7435 O 714.553 -2.5703 -2.46605 0
M  V30 7436 O 713.412 -3.76533 -3.96087 0
M  V30 7437 H 710.506 -0.543503 -0.623325 0
M  V30 7438 H 713.052 -1.56324 -0.660376 0
M  V30 7439 H 711.824 -3.46228 -1.82324 0
M  V30 7440 H 711.447 -2.40019 -3.16981 0
M  V30 7441 N 712.444 0.87505 -1.31075 0
M  V30 7442 C 713.693 1.62245 -1.19831 0
M  V30 7443 C 714.006 1.94078 0.24357 0
M  V30 7444 O 715.212 2.67265 0.477646 0
M  V30 7445 C 713.668 2.92464 -2.09744 0
M  V30 7446 C 713.276 2.68134 -3.58898 0
M  V30 7447 C 715.02 3.70449 -2.07287 0
M  V30 7448 C 712.927 3.9423 -4.40836 0
M  V30 7449 H 711.857 0.608741 -0.444916 0
M  V30 7450 H 714.508 0.967947 -1.55894 0
M  V30 7451 H 712.89 3.59262 -1.66574 0
M  V30 7452 H 714.064 2.09776 -4.10281 0
M  V30 7453 H 712.379 2.03511 -3.6328 0
M  V30 7454 H 714.976 4.63983 -2.65752 0
M  V30 7455 H 715.319 4.02611 -1.05876 0
M  V30 7456 H 715.852 3.10528 -2.48631 0
M  V30 7457 H 712.591 3.67221 -5.42982 0
M  V30 7458 H 712.111 4.52058 -3.94213 0
M  V30 7459 H 713.79 4.62162 -4.52786 0
M  V30 7460 N 713.922 1.13953 1.08869 0
M  V30 7461 C 715.199 0.815768 1.77777 0
M  V30 7462 C 715.579 -0.691624 1.99449 0
M  V30 7463 O 714.927 -1.63085 1.60049 0
M  V30 7464 C 715.137 1.60916 3.09689 0
M  V30 7465 C 716.485 1.80549 3.84301 0
M  V30 7466 O 717.509 1.57562 3.19457 0
M  V30 7467 O 716.368 2.18946 5.00724 0
M  V30 7468 H 713.462 0.298445 0.771271 0
M  V30 7469 H 716.008 1.24446 1.15374 0
M  V30 7470 H 714.78 2.6333 2.89435 0
M  V30 7471 H 714.403 1.17578 3.79817 0
M  V30 7472 N 715.4 -1.26948 0.933913 0
M  V30 7473 C 716.363 -2.24889 0.442457 0
M  V30 7474 C 717.363 -1.54594 -0.442426 0
M  V30 7475 O 718.553 -1.72502 -0.242629 0
M  V30 7476 C 715.685 -3.3896 -0.363173 0
M  V30 7477 H 716.878 -2.69879 1.30787 0
M  V30 7478 H 714.431 -1.38978 0.715187 0
M  V30 7479 H 715.166 -2.99361 -1.24714 0
M  V30 7480 H 714.951 -3.9116 0.271366 0
M  V30 7481 H 716.441 -4.11739 -0.697186 0
M  V30 7482 N 716.879 -0.700114 -1.41195 0
M  V30 7483 C 717.827 -0.0263301 -2.32585 0
M  V30 7484 C 718.821 0.763683 -1.51209 0
M  V30 7485 O 720.027 0.668793 -1.67114 0
M  V30 7486 H 716.402 0.0102869 -0.75193 0
M  V30 7487 H 718.373 -0.814087 -2.8708 0
M  V30 7488 C 717.122 0.892793 -3.36042 0
M  V30 7489 H 716.445 0.294306 -3.98715 0
M  V30 7490 H 717.885 1.33247 -4.02518 0
M  V30 7491 C 716.344 2.01109 -2.7029 0
M  V30 7492 O 716.874 3.10035 -2.55423 0
M  V30 7493 N 715.08 1.79015 -2.28915 0
M  V30 7494 H 714.627 0.904275 -2.41207 0
M  V30 7495 H 714.585 2.54022 -1.85257 0
M  V30 7496 N 718.357 1.51182 -0.445186 0
M  V30 7497 C 719.605 2.01753 0.11841 0
M  V30 7498 C 719.926 1.33087 1.42523 0
M  V30 7499 O 719.196 0.467891 1.9023 0
M  V30 7500 H 717.776 0.745536 0.0467492 0
M  V30 7501 H 720.438 1.85765 -0.589688 0
M  V30 7502 H 719.534 3.10762 0.288665 0
M  V30 7503 N 719.835 0.176821 1.56605 0
M  V30 7504 C 721.084 -0.466833 1.96223 0
M  V30 7505 C 721.397 -1.64015 1.06576 0
M  V30 7506 O 722.603 -2.3504 1.35898 0
M  V30 7507 C 721.059 -0.881921 3.48927 0
M  V30 7508 C 720.667 0.266102 4.47209 0
M  V30 7509 C 722.411 -1.49368 3.97353 0
M  V30 7510 C 720.318 -0.168923 5.91159 0
M  V30 7511 H 719.248 -0.178178 0.732645 0
M  V30 7512 H 721.899 0.265929 1.81563 0
M  V30 7513 H 720.281 -1.67082 3.59026 0
M  V30 7514 H 721.455 1.04349 4.4883 0
M  V30 7515 H 719.77 0.788178 4.08872 0
M  V30 7516 H 722.367 -1.8313 5.02362 0
M  V30 7517 H 722.71 -2.3936 3.40606 0
M  V30 7518 H 723.243 -0.769114 3.90294 0
M  V30 7519 H 719.982 0.696351 6.51791 0
M  V30 7520 H 719.502 -0.911552 5.92833 0
M  V30 7521 H 721.181 -0.610938 6.44109 0
M  V30 7522 N 721.313 -1.57302 -0.09688 0
M  V30 7523 C 722.243 -2.0497 -1.11846 0
M  V30 7524 C 723.224 -0.938278 -1.41882 0
M  V30 7525 O 724.409 -1.20943 -1.51942 0
M  V30 7526 C 721.539 -2.47264 -2.43881 0
M  V30 7527 C 720.493 -3.62053 -2.28257 0
M  V30 7528 C 719.819 -3.90318 -3.65453 0
M  V30 7529 C 721.119 -4.93005 -1.72461 0
M  V30 7530 H 722.813 -2.90567 -0.721888 0
M  V30 7531 H 720.359 -1.39786 -0.345803 0
M  V30 7532 H 722.312 -2.7922 -3.15617 0
M  V30 7533 H 721.036 -1.58664 -2.8547 0
M  V30 7534 H 719.695 -3.30341 -1.58967 0
M  V30 7535 H 719.343 -2.98889 -4.04567 0
M  V30 7536 H 719.043 -4.67597 -3.55846 0
M  V30 7537 H 720.567 -4.24747 -4.3866 0
M  V30 7538 H 721.981 -5.23354 -2.34036 0
M  V30 7539 H 720.378 -5.74436 -1.73618 0
M  V30 7540 H 721.448 -4.80053 -0.683898 0
M  V30 7541 N 722.791 0.367657 -1.53252 0
M  V30 7542 C 723.739 1.47061 -1.8021 0
M  V30 7543 C 724.733 1.55539 -0.671112 0
M  V30 7544 O 725.939 1.58451 -0.854014 0
M  V30 7545 H 722.314 0.489868 -0.570555 0
M  V30 7546 H 724.285 1.21527 -2.72532 0
M  V30 7547 C 723.034 2.83924 -2.00706 0
M  V30 7548 H 722.357 2.78158 -2.87172 0
M  V30 7549 H 723.797 3.60281 -2.23547 0
M  V30 7550 C 722.256 3.27613 -0.785568 0
M  V30 7551 O 722.786 4.01691 0.0267459 0
M  V30 7552 N 720.992 2.84134 -0.609597 0
M  V30 7553 H 720.539 2.24017 -1.27178 0
M  V30 7554 H 720.497 3.13723 0.206281 0
M  V30 7555 N 724.269 1.44576 0.627338 0
M  V30 7556 C 725.515 1.47777 1.38888 0
M  V30 7557 C 725.848 0.111406 1.9388 0
M  V30 7558 O 725.123 -0.87149 1.73883 0
M  V30 7559 C 725.406 2.54119 2.55138 0
M  V30 7560 C 725.259 4.00128 2.0547 0
M  V30 7561 C 726.578 2.56929 3.57317 0
M  V30 7562 H 723.697 0.538048 0.50366 0
M  V30 7563 H 726.339 1.76277 0.708978 0
M  V30 7564 H 724.489 2.29948 3.13139 0
M  V30 7565 H 726.161 4.35444 1.5227 0
M  V30 7566 H 724.404 4.11724 1.36623 0
M  V30 7567 H 725.075 4.7019 2.89181 0
M  V30 7568 H 727.551 2.78536 3.09122 0
M  V30 7569 H 726.427 3.33234 4.36173 0
M  V30 7570 H 726.688 1.6127 4.11636 0
M  V30 7571 N 725.747 -0.868086 1.31537 0
M  V30 7572 C 726.975 -1.65402 1.24298 0
M  V30 7573 C 727.39 -1.87827 -0.191389 0
M  V30 7574 O 726.747 -1.43776 -1.12404 0
M  V30 7575 C 726.798 -3.02093 1.9855 0
M  V30 7576 O 726.519 -2.80668 3.36388 0
M  V30 7577 C 728.02 -3.96538 1.98173 0
M  V30 7578 H 725.24 -0.515598 0.429417 0
M  V30 7579 H 727.784 -1.0834 1.73444 0
M  V30 7580 H 725.939 -3.55838 1.53161 0
M  V30 7581 H 726.353 -3.67504 3.74221 0
M  V30 7582 H 727.827 -4.8976 2.54635 0
M  V30 7583 H 728.304 -4.28474 0.964697 0
M  V30 7584 H 728.91 -3.48729 2.4345 0
M  V30 7585 N 727.225 -1.14528 -1.08264 0
M  V30 7586 C 728.188 -0.83632 -2.13397 0
M  V30 7587 C 729.188 0.159715 -1.60005 0
M  V30 7588 O 730.378 -0.0688098 -1.74064 0
M  V30 7589 C 727.51 -0.246973 -3.40004 0
M  V30 7590 H 728.703 -1.76808 -2.42237 0
M  V30 7591 H 726.256 -0.951509 -1.24 0
M  V30 7592 H 726.991 0.693436 -3.168 0
M  V30 7593 H 726.776 -0.964412 -3.80055 0
M  V30 7594 H 728.266 -0.0480679 -4.17572 0
M  V30 7595 N 728.703 1.26451 -0.940633 0
M  V30 7596 C 729.666 2.24651 -0.454378 0
M  V30 7597 C 730.666 1.54826 0.434222 0
M  V30 7598 O 731.856 1.72628 0.233477 0
M  V30 7599 C 728.988 3.39148 0.345192 0
M  V30 7600 H 730.181 2.69182 -1.32217 0
M  V30 7601 H 727.734 1.38596 -0.722547 0
M  V30 7602 H 728.469 3.00018 1.23125 0
M  V30 7603 H 728.254 3.9101 -0.292107 0
M  V30 7604 H 729.744 4.12103 0.675341 0
M  V30 7605 N 730.181 0.707592 1.40822 0
M  V30 7606 C 731.458 0.171172 1.9485 0
M  V30 7607 C 731.838 -1.32143 1.64625 0
M  V30 7608 O 731.186 -2.07372 0.959647 0
M  V30 7609 C 731.396 0.475334 3.45748 0
M  V30 7610 C 732.744 0.409625 4.22619 0
M  V30 7611 O 733.768 0.410934 3.53822 0
M  V30 7612 O 732.627 0.380185 5.45176 0
M  V30 7613 H 729.721 0.022015 0.826707 0
M  V30 7614 H 732.267 0.784577 1.50474 0
M  V30 7615 H 731.039 1.50801 3.61075 0
M  V30 7616 H 730.662 -0.168439 3.97243 0
M  V30 7617 N 731.66 -1.50943 0.453197 0
M  V30 7618 C 732.607 -2.28128 -0.350197 0
M  V30 7619 C 733.577 -1.32398 -1.00299 0
M  V30 7620 O 734.762 -1.61319 -1.01887 0
M  V30 7621 C 731.902 -3.13782 -1.43649 0
M  V30 7622 C 731.015 -4.24523 -0.800255 0
M  V30 7623 C 730.15 -4.97462 -1.86293 0
M  V30 7624 C 729.189 -6.00102 -1.20598 0
M  V30 7625 N 728.326 -6.66387 -2.21071 0
M  V30 7626 H 733.166 -2.96337 0.31434 0
M  V30 7627 H 730.703 -1.46151 0.166863 0
M  V30 7628 H 732.661 -3.6178 -2.07776 0
M  V30 7629 H 731.291 -2.47655 -2.07044 0
M  V30 7630 H 730.343 -3.80371 -0.0468651 0
M  V30 7631 H 731.655 -4.98009 -0.280777 0
M  V30 7632 H 730.809 -5.49088 -2.58044 0
M  V30 7633 H 729.548 -4.23642 -2.41617 0
M  V30 7634 H 728.553 -5.47753 -0.474 0
M  V30 7635 H 729.778 -6.75887 -0.659859 0
M  V30 7636 H 727.724 -5.9537 -2.75446 0
M  V30 7637 H 727.641 -7.3569 -1.74058 0
M  V30 7638 H 728.909 -7.22638 -2.92257 0
M  V30 7639 N 733.138 -0.185124 -1.56509 0
M  V30 7640 C 734.363 0.465278 -2.02114 0
M  V30 7641 C 734.788 1.55083 -1.06447 0
M  V30 7642 O 734.146 1.81241 -0.0462852 0
M  V30 7643 C 734.194 1.00784 -3.46229 0
M  V30 7644 O 733.298 2.12123 -3.53663 0
M  V30 7645 H 732.639 0.109891 -0.654843 0
M  V30 7646 H 735.169 -0.293072 -2.0249 0
M  V30 7647 H 735.179 1.32697 -3.85818 0
M  V30 7648 H 733.854 0.213113 -4.15354 0
M  V30 7649 H 732.431 1.8115 -3.25943 0
M  V30 7650 N 734.616 1.57351 0.0885366 0
M  V30 7651 C 735.844 1.90631 0.804196 0
M  V30 7652 C 736.259 0.779474 1.71958 0
M  V30 7653 O 735.616 -0.248179 1.80805 0
M  V30 7654 C 735.667 3.23568 1.61202 0
M  V30 7655 O 735.388 4.31917 0.733447 0
M  V30 7656 C 736.889 3.70753 2.43016 0
M  V30 7657 H 734.109 0.630501 0.229585 0
M  V30 7658 H 736.653 2.044 0.0638092 0
M  V30 7659 H 734.808 3.11377 2.30485 0
M  V30 7660 H 735.222 5.08297 1.29361 0
M  V30 7661 H 736.696 4.66447 2.9518 0
M  V30 7662 H 737.173 2.98922 3.2178 0
M  V30 7663 H 737.779 3.85834 1.7892 0
M  V30 7664 N 736.094 -0.359525 1.53444 0
M  V30 7665 C 737.342 -1.09935 1.69584 0
M  V30 7666 C 737.663 -1.89656 0.453371 0
M  V30 7667 O 736.933 -1.8852 -0.53263 0
M  V30 7668 H 735.513 -0.408843 0.625185 0
M  V30 7669 H 738.175 -0.40467 1.90653 0
M  V30 7670 H 737.271 -1.78575 2.55964 0
M  V30 7671 N 737.572 -1.44907 -0.619662 0
M  V30 7672 C 738.519 -1.52654 -1.73105 0
M  V30 7673 C 739.489 -0.373334 -1.6185 0
M  V30 7674 O 740.674 -0.585143 -1.81606 0
M  V30 7675 C 737.814 -1.48769 -3.11387 0
M  V30 7676 C 736.927 -2.74551 -3.33535 0
M  V30 7677 C 736.062 -2.62421 -4.61854 0
M  V30 7678 C 735.101 -3.83312 -4.77219 0
M  V30 7679 N 734.238 -3.69789 -5.96826 0
M  V30 7680 H 739.078 -2.47605 -1.65819 0
M  V30 7681 H 736.615 -1.22875 -0.808719 0
M  V30 7682 H 738.573 -1.44507 -3.91374 0
M  V30 7683 H 737.203 -0.573783 -3.1766 0
M  V30 7684 H 736.255 -2.88953 -2.47408 0
M  V30 7685 H 737.567 -3.64253 -3.40765 0
M  V30 7686 H 736.721 -2.56056 -5.50019 0
M  V30 7687 H 735.46 -1.70298 -4.57001 0
M  V30 7688 H 734.465 -3.90049 -3.87481 0
M  V30 7689 H 735.69 -4.76486 -4.83878 0
M  V30 7690 H 733.636 -2.80426 -5.93041 0
M  V30 7691 H 733.553 -4.53116 -6.05163 0
M  V30 7692 H 734.821 -3.67335 -6.87521 0
M  V30 7693 N 739.05 0.861098 -1.31996 0
M  V30 7694 C 739.96 2.00154 -1.22374 0
M  V30 7695 C 740.976 1.73447 -0.138631 0
M  V30 7696 O 742.152 1.98191 -0.358104 0
M  V30 7697 C 739.217 3.33696 -0.940645 0
M  V30 7698 C 738.278 3.73668 -2.11355 0
M  V30 7699 C 737.511 5.00837 -1.84386 0
M  V30 7700 O 737.734 5.64996 -0.783287 0
M  V30 7701 O 736.668 5.37787 -2.70313 0
M  V30 7702 H 740.494 2.11207 -2.18233 0
M  V30 7703 H 738.079 0.990768 -1.11822 0
M  V30 7704 H 739.961 4.13756 -0.798987 0
M  V30 7705 H 738.636 3.23698 -0.0121636 0
M  V30 7706 H 737.543 2.94211 -2.31065 0
M  V30 7707 H 738.876 3.88303 -3.02459 0
M  V30 7708 N 740.528 1.15101 1.07655 0
M  V30 7709 C 741.476 0.840714 2.16875 0
M  V30 7710 C 742.47 -0.184594 1.68391 0
M  V30 7711 O 743.676 -0.0399315 1.79956 0
M  V30 7712 H 740.051 0.254192 0.707736 0
M  V30 7713 H 742.022 1.76959 2.40266 0
M  V30 7714 C 740.771 0.343018 3.46004 0
M  V30 7715 H 740.094 1.12335 3.83694 0
M  V30 7716 H 741.534 0.16453 4.23681 0
M  V30 7717 C 739.993 -0.934881 3.23669 0
M  V30 7718 O 740.523 -2.00706 3.47965 0
M  V30 7719 N 738.729 -0.873167 2.77172 0
M  V30 7720 H 738.276 -0.000479072 2.576 0
M  V30 7721 H 738.234 -1.72873 2.62607 0
M  V30 7722 N 742.006 -1.2595 0.947325 0
M  V30 7723 C 742.953 -2.26159 0.460497 0
M  V30 7724 C 743.923 -1.58919 -0.483125 0
M  V30 7725 O 745.108 -1.86603 -0.397983 0
M  V30 7726 C 742.248 -3.441 -0.26247 0
M  V30 7727 C 741.361 -4.25999 0.717539 0
M  V30 7728 C 740.496 -5.31193 -0.0272486 0
M  V30 7729 C 739.535 -6.04774 0.944177 0
M  V30 7730 N 738.672 -7.01721 0.230741 0
M  V30 7731 H 743.512 -2.67173 1.31995 0
M  V30 7732 H 741.049 -1.31358 0.662088 0
M  V30 7733 H 743.007 -4.11317 -0.698137 0
M  V30 7734 H 741.637 -3.03983 -1.08602 0
M  V30 7735 H 740.689 -3.58513 1.27171 0
M  V30 7736 H 742.001 -4.76981 1.45913 0
M  V30 7737 H 741.155 -6.04451 -0.521903 0
M  V30 7738 H 739.894 -4.81066 -0.801682 0
M  V30 7739 H 738.899 -5.30338 1.4499 0
M  V30 7740 H 740.124 -6.56991 1.71872 0
M  V30 7741 H 738.07 -6.53895 -0.525088 0
M  V30 7742 H 737.987 -7.50484 0.911556 0
M  V30 7743 H 739.255 -7.79122 -0.242616 0
M  V30 7744 N 743.484 -0.715051 -1.40445 0
M  V30 7745 C 744.733 -0.251322 -2.00128 0
M  V30 7746 C 745.046 1.16194 -1.57347 0
M  V30 7747 O 746.252 1.72416 -2.09726 0
M  V30 7748 C 744.708 -0.398407 -3.57688 0
M  V30 7749 C 744.316 -1.81828 -4.09442 0
M  V30 7750 C 746.06 0.00455625 -4.245 0
M  V30 7751 C 743.967 -1.91598 -5.59503 0
M  V30 7752 H 742.897 -0.0902081 -0.748584 0
M  V30 7753 H 745.548 -0.886062 -1.6069 0
M  V30 7754 H 743.93 0.304908 -3.94824 0
M  V30 7755 H 745.104 -2.55193 -3.83684 0
M  V30 7756 H 743.419 -2.17266 -3.55225 0
M  V30 7757 H 746.016 -0.0477303 -5.34679 0
M  V30 7758 H 746.359 1.04636 -4.02935 0
M  V30 7759 H 746.892 -0.649184 -3.92467 0
M  V30 7760 H 743.631 -2.93898 -5.85922 0
M  V30 7761 H 743.151 -1.22644 -5.87127 0
M  V30 7762 H 744.83 -1.68785 -6.24596 0
M  V30 7763 N 744.962 1.50701 -0.461195 0
M  V30 7764 C 746.19 2.06681 0.0951756 0
M  V30 7765 C 746.605 1.32615 1.34382 0
M  V30 7766 O 745.962 0.392531 1.78229 0
M  V30 7767 C 746.013 3.59354 0.393316 0
M  V30 7768 O 745.734 4.30626 -0.805797 0
M  V30 7769 C 747.235 4.31926 0.997744 0
M  V30 7770 H 744.455 0.670995 -0.00267259 0
M  V30 7771 H 746.999 1.93991 -0.647137 0
M  V30 7772 H 745.154 3.7188 1.08555 0
M  V30 7773 H 745.568 5.21667 -0.544409 0
M  V30 7774 H 747.042 5.39756 1.15619 0
M  V30 7775 H 747.519 3.91772 1.98523 0
M  V30 7776 H 748.125 4.23905 0.344188 0
M  V30 7777 N 746.441 0.193421 1.56409 0
M  V30 7778 C 747.69 -0.445995 1.96707 0
M  V30 7779 C 748.003 -1.62876 1.08309 0
M  V30 7780 O 749.209 -2.33586 1.38383 0
M  V30 7781 C 747.665 -0.844863 3.49843 0
M  V30 7782 C 747.273 0.31352 4.46902 0
M  V30 7783 C 749.017 -1.45146 3.98915 0
M  V30 7784 C 746.924 -0.106214 5.91305 0
M  V30 7785 H 745.854 -0.170398 0.734493 0
M  V30 7786 H 748.505 0.285172 1.81271 0
M  V30 7787 H 746.887 -1.63265 3.60778 0
M  V30 7788 H 748.061 1.09103 4.47698 0
M  V30 7789 H 746.376 0.8315 4.08014 0
M  V30 7790 H 748.973 -1.77792 5.04276 0
M  V30 7791 H 749.316 -2.35734 3.43126 0
M  V30 7792 H 749.849 -0.727675 3.91088 0
M  V30 7793 H 746.588 0.765442 6.51016 0
M  V30 7794 H 746.108 -0.848623 5.93766 0
M  V30 7795 H 747.787 -0.542588 6.44721 0
M  V30 7796 N 747.919 -1.57396 -0.0801906 0
M  V30 7797 C 749.147 -1.91055 -0.794075 0
M  V30 7798 C 749.562 -0.788583 -1.71542 0
M  V30 7799 O 748.919 0.238587 -1.80934 0
M  V30 7800 C 748.97 -3.24418 -1.59484 0
M  V30 7801 O 748.691 -4.323 -0.710532 0
M  V30 7802 C 750.192 -3.72037 -2.41046 0
M  V30 7803 H 747.412 -0.63171 -0.226238 0
M  V30 7804 H 749.956 -2.04431 -0.0529685 0
M  V30 7805 H 748.111 -3.12595 -2.2883 0
M  V30 7806 H 748.525 -5.08976 -1.26663 0
M  V30 7807 H 749.999 -4.68006 -2.92702 0
M  V30 7808 H 750.476 -3.00624 -3.2019 0
M  V30 7809 H 751.082 -3.86777 -1.76871 0
M  V30 7810 N 749.397 0.351382 -1.53633 0
M  V30 7811 C 750.345 1.45142 -1.8176 0
M  V30 7812 C 751.339 1.54819 -0.687571 0
M  V30 7813 O 752.545 1.57536 -0.870772 0
M  V30 7814 H 748.92 0.483789 -0.575719 0
M  V30 7815 H 750.891 1.1863 -2.73806 0
M  V30 7816 C 749.64 2.81779 -2.03706 0
M  V30 7817 H 748.963 2.75097 -2.90107 0
M  V30 7818 H 750.403 3.5789 -2.27356 0
M  V30 7819 C 748.862 3.26762 -0.820271 0
M  V30 7820 O 749.392 4.01697 -0.0158603 0
M  V30 7821 N 747.598 2.83472 -0.639699 0
M  V30 7822 H 747.145 2.22655 -1.29547 0
M  V30 7823 H 747.103 3.13924 0.172995 0
M  V30 7824 N 750.875 1.45233 0.611969 0
M  V30 7825 C 752.152 1.39495 1.37115 0
M  V30 7826 C 752.532 0.0633303 2.11005 0
M  V30 7827 O 751.88 -0.954617 2.07604 0
M  V30 7828 C 752.09 2.60579 2.32163 0
M  V30 7829 C 753.438 3.05477 2.94905 0
M  V30 7830 O 754.462 2.60921 2.42485 0
M  V30 7831 O 753.321 3.82787 3.90047 0
M  V30 7832 H 750.415 0.55335 0.614599 0
M  V30 7833 H 752.961 1.57355 0.635423 0
M  V30 7834 H 751.733 3.49085 1.76793 0
M  V30 7835 H 751.356 2.45031 3.13122 0
M  V30 7836 N 752.353 -0.854086 1.3245 0
M  V30 7837 C 753.3 -1.96271 1.21434 0
M  V30 7838 C 754.27 -1.6582 0.0963851 0
M  V30 7839 O 755.455 -1.88851 0.27203 0
M  V30 7840 C 752.595 -3.31939 0.943952 0
M  V30 7841 C 751.708 -3.74885 2.14675 0
M  V30 7842 C 750.843 -4.99347 1.81179 0
M  V30 7843 C 749.882 -5.34785 2.97777 0
M  V30 7844 N 749.019 -6.50425 2.6437 0
M  V30 7845 H 753.859 -2.05025 2.16261 0
M  V30 7846 H 751.396 -1.00348 1.07558 0
M  V30 7847 H 753.354 -4.10076 0.767675 0
M  V30 7848 H 751.984 -3.22784 0.0324763 0
M  V30 7849 H 751.036 -2.92396 2.43328 0
M  V30 7850 H 752.348 -3.97068 3.01891 0
M  V30 7851 H 751.502 -5.85193 1.60107 0
M  V30 7852 H 750.241 -4.79101 0.911777 0
M  V30 7853 H 749.246 -4.47451 3.1948 0
M  V30 7854 H 750.471 -5.56988 3.88511 0
M  V30 7855 H 748.417 -6.31695 1.7691 0
M  V30 7856 H 748.334 -6.7263 3.45116 0
M  V30 7857 H 749.602 -7.39422 2.46729 0
M  V30 7858 N 753.831 -1.1567 -1.07043 0
M  V30 7859 C 755.079 -0.931673 -1.79344 0
M  V30 7860 C 755.4 0.542421 -1.87304 0
M  V30 7861 O 754.67 1.39418 -1.37621 0
M  V30 7862 H 753.25 -0.34171 -0.664262 0
M  V30 7863 H 755.912 -1.45795 -1.29344 0
M  V30 7864 H 755.008 -1.34379 -2.81689 0
M  V30 7865 N 755.309 1.25446 -0.953992 0
M  V30 7866 C 756.725 1.4539 -0.658316 0
M  V30 7867 C 756.925 1.85607 0.784356 0
M  V30 7868 O 755.981 1.98568 1.55972 0
M  V30 7869 C 757.294 2.52643 -1.6307 0
M  V30 7870 C 758.842 2.66484 -1.64181 0
M  V30 7871 C 759.317 3.76921 -2.60182 0
M  V30 7872 N 760.808 3.84331 -2.58542 0
M  V30 7873 C 761.543 4.69271 -3.29503 0
M  V30 7874 N 761.039 5.58503 -4.09934 0
M  V30 7875 N 762.832 4.6323 -3.18393 0
M  V30 7876 H 754.983 0.976337 -1.8863 0
M  V30 7877 H 757.246 0.490343 -0.811337 0
M  V30 7878 H 756.952 2.29949 -2.66114 0
M  V30 7879 H 756.826 3.50547 -1.39271 0
M  V30 7880 H 759.213 2.88545 -0.618552 0
M  V30 7881 H 759.294 1.68982 -1.92038 0
M  V30 7882 H 758.938 3.55612 -3.62633 0
M  V30 7883 H 758.868 4.73906 -2.29609 0
M  V30 7884 H 761.359 3.20544 -2.0015 0
M  V30 7885 H 761.672 6.20241 -4.61 0
M  V30 7886 H 760.017 5.58214 -4.14032 0
M  V30 7887 H 763.208 3.92527 -2.5503 0
M  V30 7888 H 763.381 5.29204 -3.73961 0
M  V30 7889 N 756.787 0.722489 1.40064 0
M  V30 7890 C 757.717 0.0892452 2.33329 0
M  V30 7891 C 758.698 -0.737992 1.53257 0
M  V30 7892 O 759.883 -0.685516 1.81698 0
M  V30 7893 C 757.013 -0.828139 3.37282 0
M  V30 7894 C 755.967 -0.106005 4.27869 0
M  V30 7895 C 755.293 -1.13957 5.22415 0
M  V30 7896 C 756.593 1.04395 5.11761 0
M  V30 7897 H 758.287 0.868269 2.86534 0
M  V30 7898 H 755.833 0.418982 1.3777 0
M  V30 7899 H 757.786 -1.28058 4.01471 0
M  V30 7900 H 756.51 -1.63914 2.82489 0
M  V30 7901 H 755.169 0.326683 3.65142 0
M  V30 7902 H 754.817 -1.9438 4.63924 0
M  V30 7903 H 754.517 -0.661233 5.83868 0
M  V30 7904 H 756.041 -1.59197 5.89482 0
M  V30 7905 H 757.455 0.670541 5.69365 0
M  V30 7906 H 755.852 1.4511 5.82291 0
M  V30 7907 H 756.922 1.87144 4.47331 0
M  V30 7908 N 758.265 -1.50454 0.469181 0
M  V30 7909 C 759.49 -2.0722 -0.0864892 0
M  V30 7910 C 759.915 -1.33098 -1.32916 0
M  V30 7911 O 759.273 -0.378084 -1.77314 0
M  V30 7912 C 759.321 -3.58845 -0.355384 0
M  V30 7913 O 758.425 -3.86583 -1.43622 0
M  V30 7914 H 757.766 -0.663889 0.0121414 0
M  V30 7915 H 760.296 -1.93674 0.659674 0
M  V30 7916 H 760.306 -4.03617 -0.596447 0
M  V30 7917 H 758.981 -4.12211 0.552698 0
M  V30 7918 H 757.558 -3.5365 -1.18262 0
M  V30 7919 N 759.743 -0.201713 -1.56304 0
M  V30 7920 C 760.69 0.716499 -2.19397 0
M  V30 7921 C 761.66 1.20494 -1.14326 0
M  V30 7922 O 762.845 1.26763 -1.42604 0
M  V30 7923 C 759.985 1.92762 -2.86246 0
M  V30 7924 C 759.098 1.47993 -4.0586 0
M  V30 7925 C 758.233 2.64706 -4.60547 0
M  V30 7926 C 757.272 2.16576 -5.72504 0
M  V30 7927 N 756.409 3.26491 -6.21569 0
M  V30 7928 H 761.249 0.171724 -2.97505 0
M  V30 7929 H 758.786 0.073016 -1.46919 0
M  V30 7930 H 760.744 2.6384 -3.23178 0
M  V30 7931 H 759.374 2.44559 -2.10691 0
M  V30 7932 H 758.426 0.66477 -3.74546 0
M  V30 7933 H 759.738 1.08686 -4.86815 0
M  V30 7934 H 758.892 3.43898 -4.99819 0
M  V30 7935 H 757.631 3.0729 -3.78713 0
M  V30 7936 H 756.636 1.3584 -5.32755 0
M  V30 7937 H 757.861 1.75015 -6.56161 0
M  V30 7938 H 755.807 3.68594 -5.42655 0
M  V30 7939 H 755.724 2.91374 -6.97594 0
M  V30 7940 H 756.992 4.05877 -6.65495 0
M  V30 7941 N 761.222 1.57436 0.0718424 0
M  V30 7942 C 762.499 1.78312 0.804006 0
M  V30 7943 C 762.879 0.789273 1.9579 0
M  V30 7944 O 762.227 -0.177605 2.27809 0
M  V30 7945 C 762.437 3.24798 1.277 0
M  V30 7946 C 763.785 3.88627 1.71039 0
M  V30 7947 O 764.809 3.28689 1.37266 0
M  V30 7948 O 763.668 4.94073 2.33567 0
M  V30 7949 H 760.762 0.73178 0.385262 0
M  V30 7950 H 763.308 1.69621 0.0519219 0
M  V30 7951 H 762.08 3.88688 0.45134 0
M  V30 7952 H 761.703 3.38213 2.0904 0
M  V30 7953 N 762.7 -0.34323 1.53817 0
M  V30 7954 C 763.977 -1.10047 1.61706 0
M  V30 7955 C 764.357 -2.06495 0.438514 0
M  V30 7956 O 763.705 -2.21297 -0.569188 0
M  V30 7957 C 763.915 -1.81985 2.97796 0
M  V30 7958 C 765.263 -2.35717 3.53161 0
M  V30 7959 O 766.287 -1.9208 2.99973 0
M  V30 7960 O 765.146 -3.15551 4.46195 0
M  V30 7961 H 762.24 -0.506096 0.654061 0
M  V30 7962 H 764.786 -0.344697 1.66162 0
M  V30 7963 H 763.558 -1.11722 3.75012 0
M  V30 7964 H 763.181 -2.64419 2.96931 0
M  V30 7965 N 764.178 -1.45556 -0.604258 0
M  V30 7966 C 765.427 -1.49019 -1.35928 0
M  V30 7967 C 765.74 -0.137409 -1.95117 0
M  V30 7968 O 766.946 -0.0497032 -2.71455 0
M  V30 7969 C 765.402 -2.62477 -2.46239 0
M  V30 7970 C 765.01 -4.04082 -1.93447 0
M  V30 7971 C 766.754 -2.7519 -3.23219 0
M  V30 7972 C 764.661 -5.08917 -3.0126 0
M  V30 7973 H 763.591 -0.554518 -0.510907 0
M  V30 7974 H 766.242 -1.71705 -0.647262 0
M  V30 7975 H 764.624 -2.3308 -3.2014 0
M  V30 7976 H 765.798 -4.43173 -1.26232 0
M  V30 7977 H 764.113 -3.95849 -1.29201 0
M  V30 7978 H 766.71 -3.50683 -4.0364 0
M  V30 7979 H 767.053 -1.81941 -3.74437 0
M  V30 7980 H 767.586 -3.04129 -2.56418 0
M  V30 7981 H 764.325 -6.03886 -2.54955 0
M  V30 7982 H 763.845 -4.74393 -3.67031 0
M  V30 7983 H 765.524 -5.33814 -3.65584 0
M  V30 7984 N 765.656 0.84705 -1.32902 0
M  V30 7985 C 766.933 1.58583 -1.14503 0
M  V30 7986 C 767.313 2.09075 0.291724 0
M  V30 7987 O 766.661 1.88636 1.28952 0
M  V30 7988 C 766.871 2.72605 -2.17916 0
M  V30 7989 C 768.219 3.41993 -2.51646 0
M  V30 7990 O 769.243 2.82838 -2.1652 0
M  V30 7991 O 768.102 4.48761 -3.1189 0
M  V30 7992 H 765.196 0.698756 -0.442345 0
M  V30 7993 H 767.742 0.890516 -1.44457 0
M  V30 7994 H 766.514 2.32876 -3.14459 0
M  V30 7995 H 766.137 3.49807 -1.89 0
M  V30 7996 N 767.134 1.16236 1.06428 0
M  V30 7997 C 768.55 0.906983 1.31324 0
M  V30 7998 C 768.75 -0.440872 1.96618 0
M  V30 7999 O 767.806 -1.1807 2.23194 0
M  V30 8000 C 769.119 2.05501 2.19522 0
M  V30 8001 C 770.667 2.09061 2.32943 0
M  V30 8002 C 771.142 3.23214 3.24495 0
M  V30 8003 N 772.633 3.22922 3.32078 0
M  V30 8004 C 773.368 4.07889 4.03006 0
M  V30 8005 N 772.864 5.02941 4.76469 0
M  V30 8006 N 774.657 3.95881 3.99043 0
M  V30 8007 H 766.808 2.03015 0.624388 0
M  V30 8008 H 769.071 0.88576 0.337835 0
M  V30 8009 H 768.777 3.02847 1.78819 0
M  V30 8010 H 768.651 1.99538 3.201 0
M  V30 8011 H 771.038 1.12308 2.72893 0
M  V30 8012 H 771.119 2.19089 1.32037 0
M  V30 8013 H 770.763 4.20225 2.85261 0
M  V30 8014 H 770.693 3.10423 4.25377 0
M  V30 8015 H 773.184 2.54093 2.79724 0
M  V30 8016 H 773.497 5.64196 5.28112 0
M  V30 8017 H 771.842 5.06922 4.75453 0
M  V30 8018 H 775.033 3.20927 3.40769 0
M  V30 8019 H 775.206 4.62321 4.54052 0
M  V30 8020 N 768.612 -1.24939 0.960631 0
M  V30 8021 C 769.545 -2.24116 0.429804 0
M  V30 8022 C 770.523 -1.54972 -0.492188 0
M  V30 8023 O 771.707 -1.83642 -0.42519 0
M  V30 8024 C 768.834 -3.36558 -0.380312 0
M  V30 8025 C 767.88 -4.23757 0.482941 0
M  V30 8026 S 768.713 -4.9994 1.91885 0
M  V30 8027 C 769.869 -6.15846 1.11732 0
M  V30 8028 H 770.102 -2.68795 1.27029 0
M  V30 8029 H 767.635 -1.34108 0.765141 0
M  V30 8030 H 769.593 -4.01777 -0.841764 0
M  V30 8031 H 768.254 -2.90451 -1.19569 0
M  V30 8032 H 767.447 -5.03809 -0.138699 0
M  V30 8033 H 767.049 -3.63504 0.879839 0
M  V30 8034 H 769.341 -6.76495 0.368898 0
M  V30 8035 H 770.284 -6.82356 1.89198 0
M  V30 8036 H 770.692 -5.60805 0.644812 0
M  V30 8037 N 770.09 -0.729906 -1.39679 0
M  V30 8038 C 771.336 -0.27603 -2.00913 0
M  V30 8039 C 771.669 1.13227 -1.57776 0
M  V30 8040 O 770.944 1.7709 -0.804319 0
M  V30 8041 C 771.227 -0.372157 -3.58172 0
M  V30 8042 C 771.08 -1.81986 -4.11341 0
M  V30 8043 C 772.399 0.248378 -4.39399 0
M  V30 8044 H 769.518 -0.101773 -0.729939 0
M  V30 8045 H 772.16 -0.925104 -1.65957 0
M  V30 8046 H 770.31 0.180459 -3.88081 0
M  V30 8047 H 771.982 -2.42896 -3.92172 0
M  V30 8048 H 770.225 -2.34287 -3.65092 0
M  V30 8049 H 770.896 -1.83842 -5.20486 0
M  V30 8050 H 773.372 -0.222645 -4.15504 0
M  V30 8051 H 772.248 0.150746 -5.48693 0
M  V30 8052 H 772.509 1.33378 -4.21501 0
M  V30 8053 N 771.568 1.50203 -0.477153 0
M  V30 8054 C 772.5 2.26508 0.350239 0
M  V30 8055 C 773.513 1.32081 0.95176 0
M  V30 8056 O 774.702 1.57546 0.839139 0
M  V30 8057 C 771.802 3.0361 1.50579 0
M  V30 8058 C 770.975 4.25438 1.01595 0
M  V30 8059 C 770.034 4.84783 2.04626 0
M  V30 8060 O 769.06 5.45528 1.62442 0
M  V30 8061 N 770.262 4.72318 3.37485 0
M  V30 8062 H 773.027 2.98155 -0.30394 0
M  V30 8063 H 770.588 1.58938 -0.308289 0
M  V30 8064 H 772.58 3.4019 2.1921 0
M  V30 8065 H 771.15 2.34724 2.06455 0
M  V30 8066 H 770.37 3.93894 0.155316 0
M  V30 8067 H 771.658 5.04413 0.666694 0
M  V30 8068 H 771.056 4.24022 3.74462 0
M  V30 8069 H 769.613 5.13149 4.01897 0
M  V30 8070 N 773.046 0.209999 1.56195 0
M  V30 8071 C 773.956 -0.716459 2.23392 0
M  V30 8072 C 774.972 -1.22291 1.23778 0
M  V30 8073 O 776.148 -1.26694 1.56558 0
M  V30 8074 C 773.213 -1.91261 2.89172 0
M  V30 8075 C 772.274 -1.44927 4.04097 0
M  V30 8076 C 771.507 -2.5884 4.66731 0
M  V30 8077 O 771.73 -3.76693 4.2832 0
M  V30 8078 O 770.664 -2.30701 5.55932 0
M  V30 8079 H 774.49 -0.174089 3.03201 0
M  V30 8080 H 772.075 -0.0199505 1.49387 0
M  V30 8081 H 773.957 -2.6114 3.30733 0
M  V30 8082 H 772.632 -2.4433 2.12331 0
M  V30 8083 H 771.539 -0.718839 3.67129 0
M  V30 8084 H 772.872 -0.965084 4.82646 0
M  V30 8085 N 774.524 -1.57472 -0.0634922 0
M  V30 8086 C 775.487 -2.03268 -1.059 0
M  V30 8087 C 776.487 -0.931028 -1.31105 0
M  V30 8088 O 777.677 -1.19567 -1.26686 0
M  V30 8089 C 774.809 -2.42039 -2.40062 0
M  V30 8090 H 776.002 -2.92454 -0.664119 0
M  V30 8091 H 773.555 -1.53206 -0.309444 0
M  V30 8092 H 774.29 -1.55904 -2.84367 0
M  V30 8093 H 774.075 -3.22437 -2.23108 0
M  V30 8094 H 775.565 -2.78017 -3.11603 0
M  V30 8095 N 776.003 0.335068 -1.53997 0
M  V30 8096 C 776.913 1.43511 -1.85585 0
M  V30 8097 C 777.929 1.57162 -0.746726 0
M  V30 8098 O 779.105 1.72477 -1.03988 0
M  V30 8099 C 776.17 2.78386 -2.06646 0
M  V30 8100 C 775.231 2.74007 -3.30483 0
M  V30 8101 C 774.464 4.02449 -3.50529 0
M  V30 8102 O 774.687 5.00147 -2.74242 0
M  V30 8103 O 773.621 4.06405 -4.4398 0
M  V30 8104 H 777.447 1.19731 -2.79102 0
M  V30 8105 H 775.032 0.528033 -1.39758 0
M  V30 8106 H 776.914 3.58247 -2.21894 0
M  V30 8107 H 775.589 3.0208 -1.16317 0
M  V30 8108 H 774.496 1.92736 -3.2063 0
M  V30 8109 H 775.829 2.55267 -4.20832 0
M  V30 8110 N 777.481 1.45874 0.596531 0
M  V30 8111 C 778.897 1.30524 0.918459 0
M  V30 8112 C 779.097 0.266429 1.99731 0
M  V30 8113 O 778.153 -0.335809 2.50257 0
M  V30 8114 C 779.466 2.68747 1.3489 0
M  V30 8115 C 781.014 2.7673 1.46251 0
M  V30 8116 C 781.489 4.15504 1.92667 0
M  V30 8117 N 782.98 4.17853 1.99883 0
M  V30 8118 C 783.715 5.22109 2.37044 0
M  V30 8119 N 783.211 6.36704 2.73094 0
M  V30 8120 N 785.004 5.09471 2.37479 0
M  V30 8121 H 777.155 2.12081 -0.116368 0
M  V30 8122 H 779.418 0.947941 0.0106033 0
M  V30 8123 H 779.124 3.46006 0.630288 0
M  V30 8124 H 778.998 2.97942 2.31323 0
M  V30 8125 H 781.385 1.99768 2.17202 0
M  V30 8126 H 781.466 2.51236 0.481054 0
M  V30 8127 H 781.11 4.92956 1.223 0
M  V30 8128 H 781.04 4.38396 2.91747 0
M  V30 8129 H 783.531 3.35163 1.74568 0
M  V30 8130 H 783.844 7.12041 3.00362 0
M  V30 8131 H 782.189 6.40087 2.70764 0
M  V30 8132 H 785.38 4.18987 2.08728 0
M  V30 8133 H 785.553 5.90837 2.66112 0
M  V30 8134 N 778.959 -0.83999 1.33349 0
M  V30 8135 C 780.189 -1.62492 1.27593 0
M  V30 8136 C 780.597 -1.88559 -0.155597 0
M  V30 8137 O 779.94 -1.46537 -1.10782 0
M  V30 8138 C 780.002 -2.99984 1.98116 0
M  V30 8139 C 779.666 -2.96892 3.47425 0
M  V30 8140 C 780.663 -2.72688 4.42648 0
M  V30 8141 C 778.348 -3.17063 3.89585 0
M  V30 8142 C 780.342 -2.68681 5.78004 0
M  V30 8143 C 778.029 -3.12682 5.25046 0
M  V30 8144 C 779.027 -2.88522 6.19067 0
M  V30 8145 O 778.715 -2.84042 7.52047 0
M  V30 8146 H 778.447 -0.512358 0.440982 0
M  V30 8147 H 781.001 -1.0545 1.76265 0
M  V30 8148 H 779.231 -3.58875 1.44034 0
M  V30 8149 H 780.92 -3.6084 1.85875 0
M  V30 8150 H 781.686 -2.56856 4.114 0
M  V30 8151 H 777.565 -3.34889 3.16813 0
M  V30 8152 H 781.109 -2.49743 6.51363 0
M  V30 8153 H 777.006 -3.28063 5.55918 0
M  V30 8154 H 777.774 -2.99892 7.61582 0
M  V30 8155 N 780.437 -1.16799 -1.0581 0
M  V30 8156 C 781.384 -0.87902 -2.13405 0
M  V30 8157 C 782.354 0.174541 -1.6518 0
M  V30 8158 O 783.539 0.0386843 -1.90761 0
M  V30 8159 C 780.679 -0.391616 -3.42871 0
M  V30 8160 C 779.792 -1.50857 -4.04804 0
M  V30 8161 C 778.927 -0.975682 -5.22163 0
M  V30 8162 C 777.966 -2.06851 -5.76089 0
M  V30 8163 N 777.103 -1.55085 -6.84758 0
M  V30 8164 H 781.943 -1.80043 -2.37463 0
M  V30 8165 H 779.48 -0.898083 -1.16503 0
M  V30 8166 H 781.438 -0.0906247 -4.17102 0
M  V30 8167 H 780.068 0.49284 -3.19016 0
M  V30 8168 H 779.12 -1.92542 -3.28073 0
M  V30 8169 H 780.432 -2.33305 -4.40874 0
M  V30 8170 H 779.586 -0.628165 -6.03439 0
M  V30 8171 H 778.325 -0.120566 -4.87551 0
M  V30 8172 H 777.33 -2.42467 -4.93447 0
M  V30 8173 H 778.555 -2.92768 -6.12751 0
M  V30 8174 H 776.501 -0.718345 -6.52055 0
M  V30 8175 H 776.418 -2.31145 -7.19797 0
M  V30 8176 H 777.686 -1.23206 -7.69702 0
M  V30 8177 N 781.915 1.24427 -0.967243 0
M  V30 8178 C 783.14 1.9708 -0.646069 0
M  V30 8179 C 783.565 1.71272 0.777665 0
M  V30 8180 O 782.923 0.976179 1.52776 0
M  V30 8181 C 782.971 3.48501 -0.926266 0
M  V30 8182 O 782.075 4.12398 -0.0114653 0
M  V30 8183 H 781.416 0.617423 -0.244304 0
M  V30 8184 H 783.946 1.58215 -1.29727 0
M  V30 8185 H 783.956 3.98885 -0.857619 0
M  V30 8186 H 782.631 3.66613 -1.96386 0
M  V30 8187 H 781.208 3.72661 -0.133396 0
M  V30 8188 N 783.393 0.737304 1.3929 0
M  V30 8189 C 784.303 0.100464 2.34385 0
M  V30 8190 C 785.319 -0.719282 1.58437 0
M  V30 8191 O 786.495 -0.647216 1.90717 0
M  V30 8192 C 783.56 -0.794325 3.37478 0
M  V30 8193 C 782.621 0.0379345 4.29283 0
M  V30 8194 C 781.854 -0.814241 5.27452 0
M  V30 8195 O 782.077 -2.05288 5.32177 0
M  V30 8196 O 781.011 -0.241679 6.01415 0
M  V30 8197 H 784.837 0.885407 2.90507 0
M  V30 8198 H 782.422 0.497999 1.40856 0
M  V30 8199 H 784.304 -1.30622 4.00644 0
M  V30 8200 H 782.979 -1.55804 2.83737 0
M  V30 8201 H 781.886 0.595405 3.69331 0
M  V30 8202 H 783.219 0.763926 4.86236 0
M  V30 8203 N 784.871 -1.49948 0.485112 0
M  V30 8204 C 786.148 -1.95186 -0.12726 0
M  V30 8205 C 786.528 -1.42605 -1.5565 0
M  V30 8206 O 785.876 -0.632986 -2.19558 0
M  V30 8207 C 786.086 -3.48955 -0.0562117 0
M  V30 8208 C 787.434 -4.23932 -0.238106 0
M  V30 8209 O 788.458 -3.55955 -0.132145 0
M  V30 8210 O 787.317 -5.44614 -0.453658 0
M  V30 8211 H 784.411 -0.820433 -0.104014 0
M  V30 8212 H 786.957 -1.60659 0.546517 0
M  V30 8213 H 785.729 -3.79814 0.941122 0
M  V30 8214 H 785.352 -3.90056 -0.770834 0
M  V30 8215 N 786.349 -0.21828 -1.56081 0
M  V30 8216 C 787.259 0.704602 -2.23769 0
M  V30 8217 C 788.275 1.21633 -1.24425 0
M  V30 8218 O 789.451 1.25862 -1.57228 0
M  V30 8219 C 786.516 1.89725 -2.90182 0
M  V30 8220 C 785.577 1.42782 -4.0486 0
M  V30 8221 C 784.81 2.56361 -4.68097 0
M  V30 8222 O 785.033 3.74417 -4.30312 0
M  V30 8223 O 783.967 2.2775 -5.57148 0
M  V30 8224 H 787.793 0.158007 -3.03289 0
M  V30 8225 H 785.378 0.0120279 -1.49395 0
M  V30 8226 H 787.26 2.59382 -3.32113 0
M  V30 8227 H 785.935 2.432 -2.13624 0
M  V30 8228 H 784.842 0.699359 -3.67505 0
M  V30 8229 H 786.175 0.939474 -4.83151 0
M  V30 8230 N 787.827 1.57504 0.0551401 0
M  V30 8231 C 788.79 2.03826 1.04821 0
M  V30 8232 C 789.79 0.937968 1.30609 0
M  V30 8233 O 790.98 1.20237 1.2605 0
M  V30 8234 C 788.112 2.43309 2.38775 0
M  V30 8235 H 789.305 2.92802 0.6486 0
M  V30 8236 H 786.858 1.53368 0.301315 0
M  V30 8237 H 787.593 1.5741 2.83536 0
M  V30 8238 H 787.378 3.23615 2.21395 0
M  V30 8239 H 788.868 2.79666 3.10124 0
M  V30 8240 N 789.305 -0.326896 1.54172 0
M  V30 8241 C 790.253 -1.42232 1.84046 0
M  V30 8242 C 791.247 -1.53705 0.712115 0
M  V30 8243 O 792.453 -1.56131 0.895724 0
M  V30 8244 H 788.828 -0.474568 0.583343 0
M  V30 8245 H 790.799 -1.14259 2.75658 0
M  V30 8246 C 789.548 -2.78502 2.08163 0
M  V30 8247 H 788.871 -2.70447 2.94446 0
M  V30 8248 H 790.311 -3.54228 2.33021 0
M  V30 8249 C 788.77 -3.25415 0.872152 0
M  V30 8250 O 789.3 -4.01621 0.0797648 0
M  V30 8251 N 787.506 -2.82418 0.684716 0
M  V30 8252 H 787.053 -2.20566 1.33072 0
M  V30 8253 H 787.011 -3.14159 -0.123031 0
M  V30 8254 N 790.784 -1.46188 -0.588786 0
M  V30 8255 C 792.2 -1.31009 -0.911524 0
M  V30 8256 C 792.4 -0.277017 -1.99587 0
M  V30 8257 O 791.456 0.322532 -2.50432 0
M  V30 8258 C 792.769 -2.69459 -1.33463 0
M  V30 8259 C 794.317 -2.77502 -1.44782 0
M  V30 8260 C 794.792 -4.1652 -1.90461 0
M  V30 8261 N 796.283 -4.18907 -1.97665 0
M  V30 8262 C 797.018 -5.23359 -2.34271 0
M  V30 8263 N 796.514 -6.38143 -2.69714 0
M  V30 8264 N 798.307 -5.10723 -2.34774 0
M  V30 8265 H 790.458 -2.12016 0.127614 0
M  V30 8266 H 792.721 -0.947984 -0.00557599 0
M  V30 8267 H 792.427 -3.46336 -0.611929 0
M  V30 8268 H 792.301 -2.99165 -2.2974 0
M  V30 8269 H 794.688 -2.00917 -2.1614 0
M  V30 8270 H 794.769 -2.51488 -0.467724 0
M  V30 8271 H 794.413 -4.93597 -1.19684 0
M  V30 8272 H 794.343 -4.39937 -2.89418 0
M  V30 8273 H 796.834 -3.36084 -1.72789 0
M  V30 8274 H 797.147 -7.13624 -2.96582 0
M  V30 8275 H 795.492 -6.41514 -2.67366 0
M  V30 8276 H 798.683 -4.20088 -2.06503 0
M  V30 8277 H 798.856 -5.9224 -2.62975 0
M  V30 8278 N 792.262 0.832906 -1.33792 0
M  V30 8279 C 793.539 1.57359 -1.16178 0
M  V30 8280 C 793.919 2.09372 0.269532 0
M  V30 8281 O 793.267 1.89993 1.26944 0
M  V30 8282 C 793.477 2.70279 -2.20795 0
M  V30 8283 C 794.825 3.39305 -2.55259 0
M  V30 8284 O 795.849 2.80526 -2.19508 0
M  V30 8285 O 794.708 4.45428 -3.16632 0
M  V30 8286 H 791.802 0.694025 -0.449731 0
M  V30 8287 H 794.348 0.875144 -1.45394 0
M  V30 8288 H 793.12 2.29527 -3.16911 0
M  V30 8289 H 792.743 3.47782 -1.927 0
M  V30 8290 N 793.74 1.17359 1.05189 0
M  V30 8291 C 795.156 0.920861 1.30355 0
M  V30 8292 C 795.356 -0.419993 1.97074 0
M  V30 8293 O 794.412 -1.15696 2.24434 0
M  V30 8294 C 795.725 2.07818 2.1733 0
M  V30 8295 C 797.273 2.1152 2.30712 0
M  V30 8296 C 797.748 3.26637 3.21048 0
M  V30 8297 N 799.239 3.26426 3.28634 0
M  V30 8298 C 799.974 4.12141 3.98657 0
M  V30 8299 N 799.47 5.07966 4.71107 0
M  V30 8300 N 801.263 4.00091 3.94821 0
M  V30 8301 H 793.414 2.03666 0.602821 0
M  V30 8302 H 795.677 0.889294 0.328421 0
M  V30 8303 H 795.383 3.04727 1.75597 0
M  V30 8304 H 795.257 2.02922 3.17966 0
M  V30 8305 H 797.644 1.15196 2.71687 0
M  V30 8306 H 797.725 2.20477 1.29706 0
M  V30 8307 H 797.369 4.23227 2.80788 0
M  V30 8308 H 797.299 3.14917 4.2206 0
M  V30 8309 H 799.79 2.57045 2.77013 0
M  V30 8310 H 800.103 5.69766 5.22099 0
M  V30 8311 H 798.448 5.11936 4.7005 0
M  V30 8312 H 801.639 3.24523 3.37346 0
M  V30 8313 H 801.812 4.6711 4.49123 0
M  V30 8314 N 795.218 -1.23913 0.973828 0
M  V30 8315 C 796.464 -1.92436 0.640026 0
M  V30 8316 C 796.797 -1.75875 -0.823512 0
M  V30 8317 O 796.072 -1.11563 -1.59323 0
M  V30 8318 C 796.355 -3.4526 1.0231 0
M  V30 8319 C 796.208 -3.70961 2.54378 0
M  V30 8320 C 797.527 -4.36495 0.562155 0
M  V30 8321 H 794.646 -0.698868 0.233992 0
M  V30 8322 H 797.288 -1.46163 1.21393 0
M  V30 8323 H 795.438 -3.84802 0.534751 0
M  V30 8324 H 797.11 -3.40941 3.10737 0
M  V30 8325 H 795.353 -3.15899 2.97305 0
M  V30 8326 H 796.024 -4.77912 2.76232 0
M  V30 8327 H 798.5 -4.04363 0.981333 0
M  V30 8328 H 797.376 -5.42142 0.858689 0
M  V30 8329 H 797.637 -4.38818 -0.537659 0
M  V30 8330 N 796.696 -0.74468 -1.38897 0
M  V30 8331 C 797.659 -0.11945 -2.28889 0
M  V30 8332 C 798.659 0.656942 -1.46768 0
M  V30 8333 O 799.849 0.484525 -1.67326 0
M  V30 8334 C 796.981 0.839635 -3.30398 0
M  V30 8335 H 798.174 -0.912414 -2.85683 0
M  V30 8336 H 795.727 -0.511119 -1.47707 0
M  V30 8337 H 796.462 1.6586 -2.78677 0
M  V30 8338 H 796.247 0.285432 -3.9106 0
M  V30 8339 H 797.737 1.27337 -3.97712 0
M  V30 8340 N 798.174 1.49689 -0.493057 0
M  V30 8341 C 799.137 2.27502 0.278485 0
M  V30 8342 C 800.137 1.33184 0.901037 0
M  V30 8343 O 801.327 1.56415 0.766801 0
M  V30 8344 C 798.459 3.10881 1.39878 0
M  V30 8345 H 799.652 2.97163 -0.404219 0
M  V30 8346 H 797.205 1.54324 -0.247774 0
M  V30 8347 H 797.94 2.45767 2.11587 0
M  V30 8348 H 797.725 3.80219 0.957924 0
M  V30 8349 H 799.215 3.69673 1.94247 0
M  V30 8350 N 799.652 0.226554 1.55963 0
M  V30 8351 C 800.599 -0.681504 2.20509 0
M  V30 8352 C 801.569 -1.1866 1.16229 0
M  V30 8353 O 802.754 -1.24478 1.44602 0
M  V30 8354 C 799.894 -1.88183 2.89277 0
M  V30 8355 C 799.007 -1.41517 4.08163 0
M  V30 8356 C 798.142 -2.57346 4.647 0
M  V30 8357 C 797.181 -2.07441 5.75877 0
M  V30 8358 N 796.318 -3.16561 6.26685 0
M  V30 8359 H 801.158 -0.124372 2.9774 0
M  V30 8360 H 798.695 -0.0496333 1.47016 0
M  V30 8361 H 800.653 -2.58666 3.27335 0
M  V30 8362 H 799.283 -2.41177 2.14555 0
M  V30 8363 H 798.335 -0.605099 3.75557 0
M  V30 8364 H 799.647 -1.00928 4.88482 0
M  V30 8365 H 798.801 -3.35903 5.05227 0
M  V30 8366 H 797.54 -3.01227 3.83554 0
M  V30 8367 H 796.545 -1.27347 5.34848 0
M  V30 8368 H 797.77 -1.64554 6.58862 0
M  V30 8369 H 795.716 -3.59914 5.48451 0
M  V30 8370 H 795.633 -2.80239 7.02141 0
M  V30 8371 H 796.901 -3.95238 6.71868 0
M  V30 8372 N 801.13 -1.57531 -0.0467866 0
M  V30 8373 C 802.078 -2.06455 -1.0714 0
M  V30 8374 C 803.072 -0.974744 -1.38546 0
M  V30 8375 O 804.278 -1.15974 -1.37659 0
M  V30 8376 H 800.653 -0.658607 -0.362962 0
M  V30 8377 H 802.624 -2.91613 -0.632813 0
M  V30 8378 C 801.373 -2.54481 -2.36927 0
M  V30 8379 H 800.696 -3.37946 -2.13617 0
M  V30 8380 H 802.136 -2.92442 -3.07007 0
M  V30 8381 C 800.595 -1.43836 -3.04652 0
M  V30 8382 O 801.125 -0.794531 -3.93764 0
M  V30 8383 N 799.331 -1.17727 -2.65686 0
M  V30 8384 H 798.878 -1.70265 -1.93307 0
M  V30 8385 H 798.836 -0.439051 -3.11319 0
M  V30 8386 N 802.608 0.318715 -1.54344 0
M  V30 8387 C 803.571 1.37545 -1.83342 0
M  V30 8388 C 804.571 1.445 -0.705444 0
M  V30 8389 O 805.761 1.44443 -0.973752 0
M  V30 8390 C 802.893 2.76225 -1.99781 0
M  V30 8391 H 804.086 1.13084 -2.77762 0
M  V30 8392 H 801.639 0.554457 -1.46135 0
M  V30 8393 H 802.374 3.05934 -1.07588 0
M  V30 8394 H 802.159 2.7257 -2.81865 0
M  V30 8395 H 803.649 3.52664 -2.23647 0
M  V30 8396 N 804.086 1.46499 0.581025 0
M  V30 8397 C 805.016 1.60052 1.70017 0
M  V30 8398 C 805.997 0.450788 1.64018 0
M  V30 8399 O 807.182 0.677237 1.82009 0
M  V30 8400 C 804.312 1.5921 3.08658 0
M  V30 8401 C 803.266 2.73169 3.29488 0
M  V30 8402 C 802.592 2.57389 4.68674 0
M  V30 8403 C 803.892 4.14978 3.1716 0
M  V30 8404 H 805.586 2.53735 1.5893 0
M  V30 8405 H 803.132 1.22113 0.763173 0
M  V30 8406 H 805.085 1.67285 3.86773 0
M  V30 8407 H 803.809 0.620718 3.20647 0
M  V30 8408 H 802.468 2.64566 2.53773 0
M  V30 8409 H 802.116 1.58331 4.77431 0
M  V30 8410 H 801.816 3.33826 4.83564 0
M  V30 8411 H 803.34 2.67358 5.48956 0
M  V30 8412 H 804.754 4.24684 3.85119 0
M  V30 8413 H 803.151 4.92016 3.4357 0
M  V30 8414 H 804.221 4.35016 2.14218 0
M  V30 8415 N 805.565 -0.825799 1.34232 0
M  V30 8416 C 806.475 -1.9684 1.27638 0
M  V30 8417 C 807.491 -1.73018 0.184569 0
M  V30 8418 O 808.667 -1.97172 0.410525 0
M  V30 8419 C 805.732 -3.31084 1.02879 0
M  V30 8420 C 804.793 -3.67933 2.21188 0
M  V30 8421 C 804.026 -4.95772 1.976 0
M  V30 8422 O 804.249 -5.62721 0.93281 0
M  V30 8423 O 803.183 -5.30431 2.84477 0
M  V30 8424 H 807.009 -2.05346 2.23756 0
M  V30 8425 H 804.594 -0.960772 1.1441 0
M  V30 8426 H 806.476 -4.11492 0.908406 0
M  V30 8427 H 805.151 -3.23552 0.0979821 0
M  V30 8428 H 804.058 -2.87981 2.38784 0
M  V30 8429 H 805.391 -3.80147 3.12648 0
M  V30 8430 N 807.043 -1.17915 -1.04565 0
M  V30 8431 C 808.268 -0.996749 -1.81878 0
M  V30 8432 C 808.693 0.450169 -1.82634 0
M  V30 8433 O 808.051 1.32268 -1.23995 0
M  V30 8434 C 808.099 -1.55005 -3.25585 0
M  V30 8435 O 807.203 -0.76804 -4.05185 0
M  V30 8436 H 806.544 -0.353456 -0.562108 0
M  V30 8437 H 809.074 -1.56557 -1.31723 0
M  V30 8438 H 809.084 -1.57503 -3.76373 0
M  V30 8439 H 807.759 -2.60327 -3.2435 0
M  V30 8440 H 806.336 -0.81498 -3.63885 0
M  V30 8441 N 808.521 1.23394 -0.980386 0
M  V30 8442 C 809.751 1.9556 -0.666319 0
M  V30 8443 C 810.159 1.72786 0.770815 0
M  V30 8444 O 809.502 1.0162 1.53033 0
M  V30 8445 C 809.564 3.48643 -0.876825 0
M  V30 8446 C 809.228 3.95135 -2.29602 0
M  V30 8447 C 810.225 4.03806 -3.2747 0
M  V30 8448 C 807.91 4.28122 -2.62711 0
M  V30 8449 C 809.904 4.44818 -4.56526 0
M  V30 8450 C 807.591 4.68814 -3.9199 0
M  V30 8451 C 808.589 4.77129 -4.88709 0
M  V30 8452 O 808.277 5.16908 -6.15679 0
M  V30 8453 H 808.009 0.629422 -0.246585 0
M  V30 8454 H 810.563 1.57839 -1.31438 0
M  V30 8455 H 808.793 3.86319 -0.171587 0
M  V30 8456 H 810.482 4.0202 -0.55992 0
M  V30 8457 H 811.248 3.78526 -3.03222 0
M  V30 8458 H 807.127 4.20861 -1.8814 0
M  V30 8459 H 810.671 4.51223 -5.32018 0
M  V30 8460 H 806.568 4.93545 -4.16033 0
M  V30 8461 H 807.336 5.3502 -6.19432 0
M  V30 8462 N 809.999 0.752036 1.385 0
M  V30 8463 C 811.227 0.318274 2.04437 0
M  V30 8464 C 811.642 -1.05285 1.56718 0
M  V30 8465 O 810.999 -1.66844 0.73956 0
M  V30 8466 C 811.05 0.330106 3.5999 0
M  V30 8467 O 810.771 1.64712 4.05957 0
M  V30 8468 C 812.272 -0.117713 4.43144 0
M  V30 8469 H 809.492 0.136228 0.657026 0
M  V30 8470 H 812.036 1.02045 1.7722 0
M  V30 8471 H 810.191 -0.323323 3.86048 0
M  V30 8472 H 810.605 1.57225 5.0038 0
M  V30 8473 H 812.079 -0.0582735 5.51969 0
M  V30 8474 H 812.556 -1.16538 4.23457 0
M  V30 8475 H 813.162 0.506784 4.2227 0
M  V30 8476 N 811.477 -1.49425 0.500989 0
M  V30 8477 C 812.707 -2.06561 -0.0402858 0
M  V30 8478 C 813.115 -1.36157 -1.31369 0
M  V30 8479 O 812.458 -0.433618 -1.78509 0
M  V30 8480 C 812.52 -3.5765 -0.364269 0
M  V30 8481 C 812.184 -4.49739 0.811417 0
M  V30 8482 C 813.181 -4.91255 1.7019 0
M  V30 8483 C 810.866 -4.92036 1.01022 0
M  V30 8484 C 812.86 -5.73806 2.77534 0
M  V30 8485 C 810.547 -5.74364 2.08683 0
M  V30 8486 C 811.545 -6.15154 2.96774 0
M  V30 8487 O 811.233 -6.95836 4.02577 0
M  V30 8488 H 810.965 -0.67578 0.0172357 0
M  V30 8489 H 813.519 -1.93193 0.697553 0
M  V30 8490 H 811.749 -3.69026 -1.1557 0
M  V30 8491 H 813.438 -3.97025 -0.844156 0
M  V30 8492 H 814.204 -4.59222 1.56013 0
M  V30 8493 H 810.083 -4.59789 0.333929 0
M  V30 8494 H 813.627 -6.05564 3.4632 0
M  V30 8495 H 809.524 -6.0581 2.22855 0
M  V30 8496 H 810.292 -7.14142 3.9993 0
M  V30 8497 N 812.955 -0.234822 -1.55841 0
M  V30 8498 C 813.903 0.686145 -2.22249 0
M  V30 8499 C 814.897 1.18948 -1.20614 0
M  V30 8500 O 816.103 1.14777 -1.38659 0
M  V30 8501 H 812.478 0.239724 -0.712767 0
M  V30 8502 H 814.449 0.102762 -2.98223 0
M  V30 8503 C 813.198 1.8776 -2.92646 0
M  V30 8504 H 812.521 1.49943 -3.70617 0
M  V30 8505 H 813.961 2.4995 -3.42493 0
M  V30 8506 C 812.42 2.74127 -1.95847 0
M  V30 8507 O 812.95 3.7329 -1.48384 0
M  V30 8508 N 811.156 2.4044 -1.63209 0
M  V30 8509 H 810.703 1.59854 -2.02001 0
M  V30 8510 H 810.661 2.98504 -0.987063 0
M  V30 8511 N 814.433 1.57553 0.0384317 0
M  V30 8512 C 815.682 1.88022 0.730108 0
M  V30 8513 C 815.995 0.83209 1.77019 0
M  V30 8514 O 817.201 1.0257 2.51379 0
M  V30 8515 C 815.657 3.33637 1.3496 0
M  V30 8516 C 815.265 4.46659 0.346352 0
M  V30 8517 C 817.009 3.73266 2.02169 0
M  V30 8518 C 814.916 5.8333 0.973652 0
M  V30 8519 H 813.846 0.701496 0.276442 0
M  V30 8520 H 816.497 1.83493 -0.0158028 0
M  V30 8521 H 814.879 3.32882 2.1449 0
M  V30 8522 H 816.053 4.58868 -0.421558 0
M  V30 8523 H 814.368 4.15802 -0.223133 0
M  V30 8524 H 816.965 4.72689 2.49938 0
M  V30 8525 H 817.308 3.04776 2.8358 0
M  V30 8526 H 817.841 3.76156 1.29427 0
M  V30 8527 H 814.58 6.55197 0.199163 0
M  V30 8528 H 814.1 5.7486 1.71162 0
M  V30 8529 H 815.779 6.29757 1.48376 0
M  V30 8530 N 815.911 -0.310526 1.54511 0
M  V30 8531 C 816.858 -1.38264 1.84802 0
M  V30 8532 C 817.828 -1.50808 0.696141 0
M  V30 8533 O 819.013 -1.6582 0.943846 0
M  V30 8534 C 816.153 -2.74422 2.09252 0
M  V30 8535 C 815.266 -2.70405 3.36906 0
M  V30 8536 C 814.401 -3.98495 3.51248 0
M  V30 8537 C 813.44 -3.88836 4.72729 0
M  V30 8538 N 812.577 -5.08683 4.83928 0
M  V30 8539 H 817.417 -1.11732 2.76261 0
M  V30 8540 H 814.954 -0.540609 1.36806 0
M  V30 8541 H 816.912 -3.53593 2.21422 0
M  V30 8542 H 815.542 -2.99235 1.2107 0
M  V30 8543 H 814.594 -1.83151 3.33406 0
M  V30 8544 H 815.906 -2.59155 4.26193 0
M  V30 8545 H 815.06 -4.861 3.63031 0
M  V30 8546 H 813.799 -4.12567 2.60077 0
M  V30 8547 H 812.804 -2.99615 4.60989 0
M  V30 8548 H 814.029 -3.76318 5.65298 0
M  V30 8549 H 811.975 -5.23236 3.95677 0
M  V30 8550 H 811.892 -4.99819 5.67201 0
M  V30 8551 H 813.16 -5.97966 5.00057 0
M  V30 8552 N 817.389 -1.46805 -0.573248 0
M  V30 8553 C 818.321 -1.54127 -1.6964 0
M  V30 8554 C 819.334 -0.428778 -1.57052 0
M  V30 8555 O 820.523 -0.697612 -1.64303 0
M  V30 8556 C 817.623 -1.41438 -3.07975 0
M  V30 8557 C 816.796 -2.66974 -3.46474 0
M  V30 8558 C 815.855 -2.48349 -4.63906 0
M  V30 8559 O 814.881 -3.22109 -4.69292 0
M  V30 8560 N 816.083 -1.55129 -5.59388 0
M  V30 8561 H 818.848 -2.50971 -1.6381 0
M  V30 8562 H 816.409 -1.42981 -0.759479 0
M  V30 8563 H 818.401 -1.26737 -3.84343 0
M  V30 8564 H 816.971 -0.527388 -3.08119 0
M  V30 8565 H 816.191 -2.9655 -2.59715 0
M  V30 8566 H 817.479 -3.50347 -3.68964 0
M  V30 8567 H 816.877 -0.94324 -5.57781 0
M  V30 8568 H 815.434 -1.46387 -6.35149 0
M  V30 8569 N 818.867 0.818669 -1.34668 0
M  V30 8570 C 820.095 1.60674 -1.30351 0
M  V30 8571 C 820.51 1.88408 0.121546 0
M  V30 8572 O 819.867 1.47849 1.06991 0
M  V30 8573 C 819.918 2.94516 -2.09625 0
M  V30 8574 O 819.639 2.6799 -3.46573 0
M  V30 8575 C 821.14 3.8891 -2.12754 0
M  V30 8576 H 818.36 0.499306 -0.448258 0
M  V30 8577 H 820.904 1.01828 -1.77345 0
M  V30 8578 H 819.059 3.49908 -1.66262 0
M  V30 8579 H 819.473 3.53361 -3.87603 0
M  V30 8580 H 820.947 4.79972 -2.72637 0
M  V30 8581 H 821.424 4.24599 -1.12306 0
M  V30 8582 H 822.03 3.39453 -2.56225 0
M  V30 8583 N 820.346 1.18468 1.03938 0
M  V30 8584 C 821.592 0.982286 1.77423 0
M  V30 8585 C 821.925 -0.48679 1.88 0
M  V30 8586 O 821.2 -1.36146 1.38905 0
M  V30 8587 C 821.483 1.63929 3.20623 0
M  V30 8588 C 821.336 3.18132 3.17982 0
M  V30 8589 C 822.655 1.3536 4.18767 0
M  V30 8590 H 819.774 0.358264 0.644062 0
M  V30 8591 H 822.416 1.46154 1.21405 0
M  V30 8592 H 820.566 1.2318 3.68455 0
M  V30 8593 H 822.238 3.68024 2.78129 0
M  V30 8594 H 820.481 3.50225 2.55978 0
M  V30 8595 H 821.152 3.5924 4.19107 0
M  V30 8596 H 823.628 1.70669 3.79488 0
M  V30 8597 H 822.504 1.83896 5.17178 0
M  V30 8598 H 822.765 0.276722 4.41233 0
M  V30 8599 N 821.824 -1.22873 0.986916 0
M  V30 8600 C 822.734 -2.28277 0.540978 0
M  V30 8601 C 823.75 -1.69164 -0.407363 0
M  V30 8602 O 824.926 -1.99504 -0.275674 0
M  V30 8603 C 821.991 -3.46404 -0.143181 0
M  V30 8604 C 821.052 -4.20854 0.847375 0
M  V30 8605 C 820.285 -5.33341 0.19577 0
M  V30 8606 O 820.508 -5.61356 -1.0117 0
M  V30 8607 O 819.442 -5.95169 0.897623 0
M  V30 8608 H 823.268 -2.68578 1.41773 0
M  V30 8609 H 820.853 -1.28927 0.754867 0
M  V30 8610 H 822.735 -4.18096 -0.526676 0
M  V30 8611 H 821.41 -3.08041 -0.994593 0
M  V30 8612 H 820.317 -3.51459 1.28169 0
M  V30 8613 H 821.65 -4.63082 1.6678 0
M  V30 8614 N 823.302 -0.75937 -1.38099 0
M  V30 8615 C 824.579 -0.243371 -1.9408 0
M  V30 8616 C 824.959 1.25942 -1.69416 0
M  V30 8617 O 824.307 2.03667 -1.03595 0
M  V30 8618 C 824.517 -0.603328 -3.43745 0
M  V30 8619 C 825.865 -0.566195 -4.20808 0
M  V30 8620 O 826.889 -0.541969 -3.52053 0
M  V30 8621 O 825.748 -0.582261 -5.43389 0
M  V30 8622 H 822.842 -0.0526825 -0.82532 0
M  V30 8623 H 825.388 -0.839884 -1.47459 0
M  V30 8624 H 824.16 -1.64098 -3.55229 0
M  V30 8625 H 823.783 0.0208887 -3.97595 0
M  V30 8626 N 824.78 1.49157 -0.508906 0
M  V30 8627 C 825.69 2.33045 0.269656 0
M  V30 8628 C 826.706 1.45143 0.959662 0
M  V30 8629 O 827.882 1.78155 0.939295 0
M  V30 8630 C 824.947 3.20772 1.31554 0
M  V30 8631 C 824.008 4.24531 0.638131 0
M  V30 8632 C 823.241 5.08065 1.63418 0
M  V30 8633 O 823.464 4.93238 2.86483 0
M  V30 8634 O 822.398 5.90117 1.18516 0
M  V30 8635 H 826.224 3.00821 -0.417183 0
M  V30 8636 H 823.809 1.46938 -0.270119 0
M  V30 8637 H 825.691 3.75095 1.92047 0
M  V30 8638 H 824.366 2.55681 1.98516 0
M  V30 8639 H 823.273 3.74099 -0.00674357 0
M  V30 8640 H 824.606 4.92199 0.0108155 0
M  V30 8641 N 826.258 0.243083 1.55714 0
M  V30 8642 C 827.205 -0.658078 2.21219 0
M  V30 8643 C 828.175 -1.1742 1.17481 0
M  V30 8644 O 829.36 -1.22937 1.45915 0
M  V30 8645 C 826.5 -1.85104 2.91257 0
M  V30 8646 C 825.613 -1.3718 4.09641 0
M  V30 8647 C 824.748 -2.52403 4.67404 0
M  V30 8648 C 823.787 -2.01321 5.78045 0
M  V30 8649 N 822.924 -3.09896 6.30007 0
M  V30 8650 H 827.764 -0.0927854 2.97856 0
M  V30 8651 H 825.301 -0.0340375 1.47061 0
M  V30 8652 H 827.259 -2.55179 3.3006 0
M  V30 8653 H 825.889 -2.38887 2.17101 0
M  V30 8654 H 824.941 -0.565232 3.76177 0
M  V30 8655 H 826.253 -0.957409 4.89525 0
M  V30 8656 H 825.407 -3.30525 5.08761 0
M  V30 8657 H 824.146 -2.97142 3.86728 0
M  V30 8658 H 823.151 -1.21667 5.36169 0
M  V30 8659 H 824.376 -1.57556 6.6057 0
M  V30 8660 H 822.322 -3.54077 5.52237 0
M  V30 8661 H 822.239 -2.72776 7.05074 0
M  V30 8662 H 823.507 -3.8809 6.76023 0
M  V30 8663 N 827.736 -1.57571 -0.0300757 0
M  V30 8664 C 828.666 -2.0953 -1.03051 0
M  V30 8665 C 829.647 -0.99761 -1.37774 0
M  V30 8666 O 830.832 -1.27279 -1.46676 0
M  V30 8667 C 827.962 -2.57385 -2.33174 0
M  V30 8668 C 826.916 -3.71409 -2.12696 0
M  V30 8669 C 826.242 -4.05467 -3.4857 0
M  V30 8670 C 827.542 -4.99877 -1.51396 0
M  V30 8671 H 829.236 -2.93367 -0.597999 0
M  V30 8672 H 826.782 -1.41127 -0.286203 0
M  V30 8673 H 828.735 -2.92355 -3.03491 0
M  V30 8674 H 827.459 -1.70629 -2.78484 0
M  V30 8675 H 826.118 -3.36786 -1.44813 0
M  V30 8676 H 825.766 -3.15779 -3.91526 0
M  V30 8677 H 825.466 -4.82269 -3.35694 0
M  V30 8678 H 826.99 -4.4297 -4.2025 0
M  V30 8679 H 828.404 -5.3281 -2.11629 0
M  V30 8680 H 826.801 -5.81283 -1.49098 0
M  V30 8681 H 827.871 -4.82522 -0.479676 0
M  V30 8682 N 829.214 0.302327 -1.54673 0
M  V30 8683 C 830.63 0.647911 -1.45857 0
M  V30 8684 C 830.83 1.90773 -0.64869 0
M  V30 8685 O 829.886 2.52018 -0.155865 0
M  V30 8686 C 831.199 0.802144 -2.89804 0
M  V30 8687 C 832.747 0.898114 -2.99838 0
M  V30 8688 C 833.222 1.08436 -4.44978 0
M  V30 8689 N 834.713 1.15059 -4.48682 0
M  V30 8690 C 835.448 1.31296 -5.58166 0
M  V30 8691 N 834.944 1.4444 -6.77576 0
M  V30 8692 N 836.737 1.34174 -5.45851 0
M  V30 8693 H 828.888 -0.525428 -2.05798 0
M  V30 8694 H 831.151 -0.173423 -0.932002 0
M  V30 8695 H 830.857 -0.0526531 -3.51661 0
M  V30 8696 H 830.731 1.69155 -3.37145 0
M  V30 8697 H 833.118 1.7434 -2.38096 0
M  V30 8698 H 833.199 -0.0152752 -2.55795 0
M  V30 8699 H 832.843 0.243843 -5.07314 0
M  V30 8700 H 832.773 2.01195 -4.8665 0
M  V30 8701 H 835.264 1.0626 -3.62653 0
M  V30 8702 H 835.577 1.56582 -7.56771 0
M  V30 8703 H 833.922 1.41499 -6.80443 0
M  V30 8704 H 837.113 1.23516 -4.5151 0
M  V30 8705 H 837.286 1.46485 -6.31226 0
M  V30 8706 N 830.692 1.47107 0.565454 0
M  V30 8707 C 831.94 1.53005 1.32038 0
M  V30 8708 C 832.261 0.190453 1.94068 0
M  V30 8709 O 831.531 -0.784783 1.79494 0
M  V30 8710 H 830.111 0.563578 0.490294 0
M  V30 8711 H 832.773 1.83351 0.660928 0
M  V30 8712 H 831.869 2.29215 2.11818 0
M  V30 8713 N 832.17 -0.811516 1.35101 0
M  V30 8714 C 833.117 -1.92308 1.27617 0
M  V30 8715 C 834.087 -1.6543 0.149091 0
M  V30 8716 O 835.272 -1.8789 0.331974 0
M  V30 8717 C 832.412 -3.28768 1.04908 0
M  V30 8718 C 831.525 -3.67865 2.26493 0
M  V30 8719 C 830.66 -4.9333 1.96974 0
M  V30 8720 C 829.699 -5.25041 3.1464 0
M  V30 8721 N 828.836 -6.41685 2.84929 0
M  V30 8722 H 833.676 -1.98041 2.22674 0
M  V30 8723 H 831.213 -0.968755 1.10696 0
M  V30 8724 H 833.171 -4.07426 0.897749 0
M  V30 8725 H 831.801 -3.22517 0.135151 0
M  V30 8726 H 830.853 -2.84507 2.52507 0
M  V30 8727 H 832.165 -3.87263 3.14371 0
M  V30 8728 H 831.319 -5.79803 1.78643 0
M  V30 8729 H 830.058 -4.75958 1.06374 0
M  V30 8730 H 829.063 -4.3706 3.33554 0
M  V30 8731 H 830.288 -5.44346 4.06035 0
M  V30 8732 H 828.234 -6.25747 1.96918 0
M  V30 8733 H 828.151 -6.6131 3.66341 0
M  V30 8734 H 829.419 -7.31198 2.70128 0
M  V30 8735 N 833.648 -1.19017 -1.03309 0
M  V30 8736 C 834.897 -0.984542 -1.76039 0
M  V30 8737 C 835.21 0.485937 -1.89468 0
M  V30 8738 O 836.416 0.810278 -2.59127 0
M  V30 8739 C 834.872 -1.71261 -3.1654 0
M  V30 8740 C 834.48 -3.22291 -3.11179 0
M  V30 8741 C 836.224 -1.59007 -3.93595 0
M  V30 8742 C 834.131 -3.87704 -4.46587 0
M  V30 8743 H 833.061 -0.364749 -0.659905 0
M  V30 8744 H 835.712 -1.4247 -1.15649 0
M  V30 8745 H 834.094 -1.20025 -3.77373 0
M  V30 8746 H 835.268 -3.80611 -2.59753 0
M  V30 8747 H 833.583 -3.34772 -2.47622 0
M  V30 8748 H 836.18 -2.05232 -4.93745 0
M  V30 8749 H 836.523 -0.543534 -4.12736 0
M  V30 8750 H 837.056 -2.07564 -3.39355 0
M  V30 8751 H 833.795 -4.92437 -4.3265 0
M  V30 8752 H 833.315 -3.34172 -4.98085 0
M  V30 8753 H 834.994 -3.91008 -5.15482 0
M  V30 8754 N 835.127 1.22348 -0.993418 0
M  V30 8755 C 836.352 1.95666 -0.687727 0
M  V30 8756 C 836.777 1.72883 0.741161 0
M  V30 8757 O 836.135 1.00837 1.50671 0
M  V30 8758 C 836.183 3.46457 -0.99998 0
M  V30 8759 O 835.287 4.12281 -0.0989386 0
M  V30 8760 H 834.628 0.612102 -0.257346 0
M  V30 8761 H 837.158 1.55428 -1.33054 0
M  V30 8762 H 837.168 3.96976 -0.942035 0
M  V30 8763 H 835.843 3.62365 -2.04118 0
M  V30 8764 H 834.42 3.72295 -0.212413 0
M  V30 8765 N 836.605 0.766683 1.37694 0
M  V30 8766 C 837.515 0.150158 2.34119 0
M  V30 8767 C 838.531 -0.685513 1.59927 0
M  V30 8768 O 839.707 -0.606616 1.92047 0
M  V30 8769 C 836.772 -0.722562 3.39087 0
M  V30 8770 C 835.833 0.128983 4.29106 0
M  V30 8771 C 835.066 -0.702178 5.29061 0
M  V30 8772 O 835.289 -1.93954 5.36412 0
M  V30 8773 O 834.223 -0.114056 6.01792 0
M  V30 8774 H 838.049 0.946829 2.88563 0
M  V30 8775 H 835.634 0.527765 1.39768 0
M  V30 8776 H 837.516 -1.22095 4.03325 0
M  V30 8777 H 836.191 -1.49751 2.86978 0
M  V30 8778 H 835.098 0.673612 3.67985 0
M  V30 8779 H 836.431 0.866892 4.84506 0
M  V30 8780 N 838.083 -1.48885 0.516809 0
M  V30 8781 C 839.015 -2.27357 -0.290061 0
M  V30 8782 C 840.028 -1.34558 -0.916406 0
M  V30 8783 O 841.217 -1.59715 -0.797073 0
M  V30 8784 C 838.317 -3.07496 -1.42476 0
M  V30 8785 C 837.49 -4.27982 -0.902793 0
M  V30 8786 C 836.549 -4.90038 -1.91701 0
M  V30 8787 O 835.575 -5.49643 -1.47922 0
M  V30 8788 N 836.777 -4.811 -3.24843 0
M  V30 8789 H 839.542 -2.97244 0.382884 0
M  V30 8790 H 837.103 -1.58064 0.35032 0
M  V30 8791 H 839.095 -3.45882 -2.10113 0
M  V30 8792 H 837.665 -2.40115 -2.00159 0
M  V30 8793 H 836.885 -3.94167 -0.0508272 0
M  V30 8794 H 838.173 -5.06003 -0.532723 0
M  V30 8795 H 837.571 -4.33801 -3.63088 0
M  V30 8796 H 836.128 -5.23625 -3.8815 0
M  V30 8797 N 839.561 -0.251338 -1.55583 0
M  V30 8798 C 840.838 0.422729 -1.90977 0
M  V30 8799 C 841.218 1.75534 -1.17265 0
M  V30 8800 O 840.566 2.26632 -0.291588 0
M  V30 8801 C 840.776 0.586448 -3.44037 0
M  V30 8802 C 842.124 0.880294 -4.15375 0
M  V30 8803 O 843.148 0.672148 -3.49801 0
M  V30 8804 O 842.007 1.27694 -5.31372 0
M  V30 8805 H 839.101 0.227622 -0.795058 0
M  V30 8806 H 841.647 -0.295733 -1.67103 0
M  V30 8807 H 840.419 -0.352327 -3.89711 0
M  V30 8808 H 840.042 1.35528 -3.73789 0
M  V30 8809 N 841.039 1.57585 0.0217189 0
M  V30 8810 C 841.986 2.07036 1.02004 0
M  V30 8811 C 842.956 0.96106 1.35473 0
M  V30 8812 O 844.141 1.23211 1.45684 0
M  V30 8813 C 841.281 2.56056 2.31364 0
M  V30 8814 C 840.394 3.80805 2.03989 0
M  V30 8815 C 839.529 4.18409 3.27272 0
M  V30 8816 C 838.568 5.36055 2.95486 0
M  V30 8817 N 837.705 5.69056 4.11242 0
M  V30 8818 H 842.545 2.92073 0.591396 0
M  V30 8819 H 840.082 1.44403 0.280384 0
M  V30 8820 H 842.04 2.82548 3.06957 0
M  V30 8821 H 840.67 1.73925 2.71937 0
M  V30 8822 H 839.722 3.61354 1.1886 0
M  V30 8823 H 841.034 4.66512 1.76546 0
M  V30 8824 H 840.188 4.46068 4.11228 0
M  V30 8825 H 838.927 3.31369 3.57835 0
M  V30 8826 H 837.932 5.08142 2.09933 0
M  V30 8827 H 839.157 6.24755 2.66193 0
M  V30 8828 H 837.103 4.84974 4.41742 0
M  V30 8829 H 837.02 6.49288 3.87247 0
M  V30 8830 H 838.288 6.01295 4.96049 0
M  V30 8831 N 842.517 -0.29412 1.54831 0
M  V30 8832 C 843.465 -1.38296 1.87021 0
M  V30 8833 C 844.459 -1.5216 0.744557 0
M  V30 8834 O 845.665 -1.54196 0.92864 0
M  V30 8835 H 842.04 -0.462088 0.593278 0
M  V30 8836 H 844.011 -1.08386 2.7802 0
M  V30 8837 C 842.76 -2.74024 2.14023 0
M  V30 8838 H 842.083 -2.6414 3.00117 0
M  V30 8839 H 843.523 -3.49205 2.40482 0
M  V30 8840 C 841.982 -3.23492 0.940982 0
M  V30 8841 O 842.512 -4.01361 0.164937 0
M  V30 8842 N 840.718 -2.80902 0.744467 0
M  V30 8843 H 840.265 -2.17694 1.37721 0
M  V30 8844 H 840.223 -3.14349 -0.0563652 0
M  V30 8845 N 843.995 -1.47404 -0.557645 0
M  V30 8846 C 844.942 -1.59859 -1.66475 0
M  V30 8847 C 845.912 -0.441644 -1.60121 0
M  V30 8848 O 847.097 -0.661641 -1.78961 0
M  V30 8849 C 844.237 -1.61843 -3.04797 0
M  V30 8850 C 843.35 -2.8845 -3.2159 0
M  V30 8851 C 842.485 -2.81773 -4.50308 0
M  V30 8852 C 841.524 -4.03208 -4.60532 0
M  V30 8853 N 840.661 -3.94769 -5.80604 0
M  V30 8854 H 845.501 -2.54415 -1.55168 0
M  V30 8855 H 843.038 -1.26194 -0.755876 0
M  V30 8856 H 844.996 -1.60976 -3.84893 0
M  V30 8857 H 843.626 -0.707997 -3.1494 0
M  V30 8858 H 842.678 -2.99186 -2.34929 0
M  V30 8859 H 843.99 -3.78379 -3.25009 0
M  V30 8860 H 843.144 -2.79153 -5.38663 0
M  V30 8861 H 841.883 -1.89527 -4.49367 0
M  V30 8862 H 840.888 -4.06133 -3.70589 0
M  V30 8863 H 842.113 -4.9658 -4.63233 0
M  V30 8864 H 840.059 -3.05326 -5.80613 0
M  V30 8865 H 839.976 -4.78375 -5.854 0
M  V30 8866 H 841.244 -3.96165 -6.71322 0
M  V30 8867 N 845.473 0.80434 -1.35529 0
M  V30 8868 C 846.722 1.55665 -1.28263 0
M  V30 8869 C 847.035 1.95096 0.140352 0
M  V30 8870 O 848.241 2.69422 0.335303 0
M  V30 8871 C 846.697 2.80935 -2.24952 0
M  V30 8872 C 846.305 2.48733 -3.72607 0
M  V30 8873 C 848.049 3.5894 -2.26632 0
M  V30 8874 C 845.956 3.70308 -4.61114 0
M  V30 8875 H 844.886 0.584301 -0.476559 0
M  V30 8876 H 847.537 0.88395 -1.60806 0
M  V30 8877 H 845.919 3.49927 -1.85383 0
M  V30 8878 H 847.093 1.87733 -4.20824 0
M  V30 8879 H 845.408 1.83969 -3.73557 0
M  V30 8880 H 848.005 4.49244 -2.89973 0
M  V30 8881 H 848.348 3.96433 -1.27069 0
M  V30 8882 H 848.881 2.96912 -2.64742 0
M  V30 8883 H 845.62 3.37922 -5.61684 0
M  V30 8884 H 845.14 4.30526 -4.17621 0
M  V30 8885 H 846.819 4.37511 -4.76648 0
M  V30 8886 N 846.951 1.19563 1.02676 0
M  V30 8887 C 847.881 0.959024 2.12897 0
M  V30 8888 C 848.862 -0.108382 1.69754 0
M  V30 8889 O 850.047 0.0470698 1.94143 0
M  V30 8890 C 847.177 0.499211 3.43693 0
M  V30 8891 C 846.131 1.5087 4.00528 0
M  V30 8892 C 845.457 0.905884 5.2697 0
M  V30 8893 C 846.757 2.88954 4.3509 0
M  V30 8894 H 848.451 1.88084 2.32948 0
M  V30 8895 H 845.997 0.905731 1.11949 0
M  V30 8896 H 847.95 0.320965 4.20176 0
M  V30 8897 H 846.674 -0.458205 3.2337 0
M  V30 8898 H 845.333 1.67413 3.26142 0
M  V30 8899 H 844.981 -0.0591506 5.02965 0
M  V30 8900 H 844.681 1.58 5.65959 0
M  V30 8901 H 846.205 0.73848 6.06118 0
M  V30 8902 H 847.619 2.75981 5.02501 0
M  V30 8903 H 846.016 3.53177 4.85166 0
M  V30 8904 H 847.086 3.41447 3.44299 0
M  V30 8905 N 848.429 -1.21819 0.999893 0
M  V30 8906 C 849.706 -1.86318 0.595384 0
M  V30 8907 C 850.086 -1.8965 -0.927143 0
M  V30 8908 O 849.434 -1.3921 -1.81199 0
M  V30 8909 C 849.644 -3.26837 1.22387 0
M  V30 8910 C 850.992 -4.03272 1.32878 0
M  V30 8911 O 852.016 -3.36129 1.1788 0
M  V30 8912 O 850.875 -5.23477 1.56952 0
M  V30 8913 H 847.969 -0.801638 0.203238 0
M  V30 8914 H 850.515 -1.29542 1.09622 0
M  V30 8915 H 849.287 -3.19084 2.26497 0
M  V30 8916 H 848.91 -3.91226 0.709069 0
M  V30 8917 N 849.908 -0.773975 -1.37286 0
M  V30 8918 C 850.855 -0.159938 -2.30245 0
M  V30 8919 C 851.825 0.687356 -1.51211 0
M  V30 8920 O 853.01 0.639255 -1.79773 0
M  V30 8921 C 850.15 0.711452 -3.37687 0
M  V30 8922 C 849.263 -0.152692 -4.3173 0
M  V30 8923 C 848.398 0.723613 -5.26248 0
M  V30 8924 C 847.437 -0.14293 -6.11933 0
M  V30 8925 N 846.574 0.691479 -6.98687 0
M  V30 8926 H 851.414 -0.958182 -2.82175 0
M  V30 8927 H 848.951 -0.48411 -1.38906 0
M  V30 8928 H 850.909 1.2315 -3.9861 0
M  V30 8929 H 849.539 1.47528 -2.87116 0
M  V30 8930 H 848.591 -0.790574 -3.72094 0
M  V30 8931 H 849.903 -0.821027 -4.91997 0
M  V30 8932 H 849.057 1.31006 -5.92387 0
M  V30 8933 H 847.796 1.42562 -4.66398 0
M  V30 8934 H 846.801 -0.7419 -5.44771 0
M  V30 8935 H 848.026 -0.842305 -6.73856 0
M  V30 8936 H 845.972 1.37806 -6.41362 0
M  V30 8937 H 845.889 0.0804911 -7.55957 0
M  V30 8938 H 847.157 1.26225 -7.69212 0
M  V30 8939 N 851.386 1.48609 -0.524698 0
M  V30 8940 C 852.626 2.04398 0.00938367 0
M  V30 8941 C 852.99 1.39355 1.32077 0
M  V30 8942 O 854.191 1.86 1.94055 0
M  V30 8943 C 852.462 3.57148 0.134318 0
M  V30 8944 S 854.021 4.34409 0.619227 0
M  V30 8945 H 850.839 0.710936 -0.00953362 0
M  V30 8946 H 853.441 1.82382 -0.704058 0
M  V30 8947 H 852.145 4.02022 -0.825027 0
M  V30 8948 H 851.676 3.83607 0.872296 0
M  V30 8949 H 853.691 4.59017 1.88462 0
M  V30 8950 N 852.864 0.259585 1.55447 0
M  V30 8951 C 853.796 -0.667548 2.19263 0
M  V30 8952 C 854.809 -1.12925 1.17268 0
M  V30 8953 O 855.998 -1.05384 1.44071 0
M  V30 8954 C 853.098 -1.92066 2.7922 0
M  V30 8955 C 852.271 -1.60832 4.06758 0
M  V30 8956 C 851.33 -2.71231 4.50911 0
M  V30 8957 O 850.356 -2.38077 5.17019 0
M  V30 8958 N 851.558 -4.00984 4.19752 0
M  V30 8959 H 854.323 -0.121449 2.99454 0
M  V30 8960 H 851.884 0.0800519 1.61702 0
M  V30 8961 H 853.876 -2.65186 3.0571 0
M  V30 8962 H 852.446 -2.37621 2.03113 0
M  V30 8963 H 851.666 -0.711685 3.87722 0
M  V30 8964 H 852.954 -1.37445 4.89884 0
M  V30 8965 H 852.352 -4.30748 3.66706 0
M  V30 8966 H 850.909 -4.7053 4.51048 0
M  V30 8967 N 854.342 -1.57594 -0.0133615 0
M  V30 8968 C 855.252 -2.10991 -1.02566 0
M  V30 8969 C 856.268 -1.05208 -1.3859 0
M  V30 8970 O 857.444 -1.37034 -1.47593 0
M  V30 8971 C 854.509 -2.59165 -2.30292 0
M  V30 8972 C 853.57 -3.79495 -2.00704 0
M  V30 8973 C 852.803 -4.25361 -3.22341 0
M  V30 8974 O 853.026 -3.70645 -4.33565 0
M  V30 8975 O 851.96 -5.17649 -3.07121 0
M  V30 8976 H 855.786 -2.97678 -0.601806 0
M  V30 8977 H 853.371 -1.47598 -0.23135 0
M  V30 8978 H 855.253 -2.90409 -3.05354 0
M  V30 8979 H 853.928 -1.75582 -2.71942 0
M  V30 8980 H 852.835 -3.53245 -1.23161 0
M  V30 8981 H 854.168 -4.64109 -1.639 0
M  V30 8982 N 855.82 0.285905 -1.54985 0
M  V30 8983 C 857.066 1.02071 -1.75241 0
M  V30 8984 C 857.399 1.864 -0.544842 0
M  V30 8985 O 856.674 1.89034 0.457844 0
M  V30 8986 C 856.957 1.91409 -3.05016 0
M  V30 8987 C 856.81 1.10158 -4.36102 0
M  V30 8988 C 858.129 2.90335 -3.30747 0
M  V30 8989 H 855.248 0.369663 -0.637588 0
M  V30 8990 H 857.89 0.294114 -1.8771 0
M  V30 8991 H 856.04 2.53362 -2.94517 0
M  V30 8992 H 857.712 0.503756 -4.58541 0
M  V30 8993 H 855.955 0.404675 -4.31908 0
M  V30 8994 H 856.626 1.75956 -5.23205 0
M  V30 8995 H 859.102 2.38514 -3.40955 0
M  V30 8996 H 857.978 3.49997 -4.2284 0
M  V30 8997 H 858.239 3.64787 -2.49765 0
M  V30 8998 N 857.298 1.47698 0.54982 0
M  V30 8999 C 858.547 1.53961 1.30303 0
M  V30 9000 C 858.86 0.209731 1.94472 0
M  V30 9001 O 860.066 0.150418 2.71083 0
M  V30 9002 C 858.522 2.71436 2.36328 0
M  V30 9003 C 858.13 4.10983 1.78316 0
M  V30 9004 C 859.874 2.86996 3.12783 0
M  V30 9005 C 857.781 5.19747 2.82164 0
M  V30 9006 H 856.711 0.573098 0.489975 0
M  V30 9007 H 859.362 1.73989 0.583089 0
M  V30 9008 H 857.744 2.44801 3.11269 0
M  V30 9009 H 858.918 4.47552 1.09697 0
M  V30 9010 H 857.233 4.00371 1.1442 0
M  V30 9011 H 859.83 3.65422 3.90347 0
M  V30 9012 H 860.173 1.95712 3.67427 0
M  V30 9013 H 860.706 3.13436 2.44954 0
M  V30 9014 H 857.445 6.12932 2.32366 0
M  V30 9015 H 856.965 4.87688 3.49171 0
M  V30 9016 H 858.644 5.47014 3.4552 0
M  V30 9017 N 858.776 -0.797141 1.35954 0
M  V30 9018 C 859.724 -1.93084 1.29697 0
M  V30 9019 C 860.718 -1.68329 0.190152 0
M  V30 9020 O 861.924 -1.7643 0.3567 0
M  V30 9021 H 858.299 -0.634531 0.403577 0
M  V30 9022 H 860.27 -1.95481 2.25455 0
M  V30 9023 C 859.019 -3.29996 1.09536 0
M  V30 9024 H 858.342 -3.49607 1.93946 0
M  V30 9025 H 859.782 -4.09696 1.09202 0
M  V30 9026 C 858.241 -3.36304 -0.200381 0
M  V30 9027 O 858.771 -3.83579 -1.19291 0
M  V30 9028 N 856.977 -2.89587 -0.242406 0
M  V30 9029 H 856.524 -2.51307 0.565897 0
M  V30 9030 H 856.482 -2.94189 -1.10906 0
M  V30 9031 N 860.254 -1.20106 -1.0204 0
M  V30 9032 C 861.5 -1.02042 -1.75951 0
M  V30 9033 C 861.855 0.443229 -1.87225 0
M  V30 9034 O 861.148 1.32477 -1.38421 0
M  V30 9035 C 861.342 -1.63308 -3.17908 0
M  V30 9036 C 861.171 -3.15478 -3.20474 0
M  V30 9037 C 859.941 -3.84432 -3.27933 0
M  V30 9038 C 862.139 -4.12747 -3.06829 0
M  V30 9039 N 860.121 -5.23925 -3.19963 0
M  V30 9040 C 861.492 -5.38892 -3.06586 0
M  V30 9041 C 863.547 -4.03996 -2.91018 0
M  V30 9042 C 862.25 -6.57296 -2.92154 0
M  V30 9043 C 864.276 -5.22019 -2.77938 0
M  V30 9044 C 863.638 -6.47067 -2.78358 0
M  V30 9045 H 859.737 -0.427602 -0.654737 0
M  V30 9046 H 862.321 -1.52216 -1.21402 0
M  V30 9047 H 860.492 -1.15723 -3.7076 0
M  V30 9048 H 862.224 -1.38597 -3.80227 0
M  V30 9049 H 858.979 -3.35269 -3.34502 0
M  V30 9050 H 859.403 -5.9694 -3.19362 0
M  V30 9051 H 864.045 -3.0813 -2.8951 0
M  V30 9052 H 861.763 -7.5334 -2.92412 0
M  V30 9053 H 865.349 -5.17057 -2.66728 0
M  V30 9054 H 864.229 -7.36857 -2.6835 0
M  V30 9055 N 861.732 1.21287 -1.00634 0
M  V30 9056 C 862.662 2.25973 -0.588089 0
M  V30 9057 C 863.643 1.65527 0.391764 0
M  V30 9058 O 864.828 1.92179 0.279452 0
M  V30 9059 C 861.958 3.47197 0.0847336 0
M  V30 9060 C 860.912 4.20168 -0.815039 0
M  V30 9061 C 860.238 5.34699 -0.00855393 0
M  V30 9062 C 861.538 4.77416 -2.11828 0
M  V30 9063 H 863.232 2.61212 -1.46317 0
M  V30 9064 H 860.778 1.25563 -0.704985 0
M  V30 9065 H 862.731 4.19602 0.388821 0
M  V30 9066 H 861.455 3.11092 0.994456 0
M  V30 9067 H 860.114 3.49614 -1.10297 0
M  V30 9068 H 859.762 4.94837 0.902499 0
M  V30 9069 H 859.462 5.84449 -0.607664 0
M  V30 9070 H 860.986 6.09914 0.289317 0
M  V30 9071 H 862.4 5.41694 -1.87725 0
M  V30 9072 H 860.797 5.37561 -2.66736 0
M  V30 9073 H 861.867 3.96724 -2.78816 0
M  V30 9074 N 863.21 0.781244 1.36873 0
M  V30 9075 C 864.487 0.274217 1.93668 0
M  V30 9076 C 864.867 -1.2323 1.71399 0
M  V30 9077 O 864.215 -2.01993 1.06822 0
M  V30 9078 C 864.425 0.657939 3.42742 0
M  V30 9079 C 865.773 0.63307 4.19854 0
M  V30 9080 O 866.797 0.597909 3.51146 0
M  V30 9081 O 865.656 0.668636 5.42394 0
M  V30 9082 H 862.75 0.0658059 0.824378 0
M  V30 9083 H 865.296 0.863238 1.46104 0
M  V30 9084 H 864.068 1.69728 3.52573 0
M  V30 9085 H 863.691 0.0423678 3.97577 0
M  V30 9086 N 864.689 -1.48329 0.532571 0
M  V30 9087 C 866.105 -1.58458 0.190605 0
M  V30 9088 C 866.305 -1.53427 -1.30623 0
M  V30 9089 O 865.361 -1.4247 -2.08467 0
M  V30 9090 C 866.674 -2.89989 0.79543 0
M  V30 9091 C 868.222 -3.03523 0.7644 0
M  V30 9092 C 868.697 -4.37718 1.34785 0
M  V30 9093 N 870.188 -4.44292 1.30993 0
M  V30 9094 C 870.923 -5.4664 1.73124 0
M  V30 9095 N 870.419 -6.5593 2.22997 0
M  V30 9096 N 872.212 -5.37538 1.64346 0
M  V30 9097 H 864.363 -1.49842 1.50537 0
M  V30 9098 H 866.626 -0.71164 0.626316 0
M  V30 9099 H 866.332 -2.99333 1.84642 0
M  V30 9100 H 866.206 -3.76203 0.27403 0
M  V30 9101 H 868.593 -2.93789 -0.277831 0
M  V30 9102 H 868.674 -2.18912 1.3233 0
M  V30 9103 H 868.318 -4.48206 2.38902 0
M  V30 9104 H 868.248 -5.21019 0.764609 0
M  V30 9105 H 870.739 -3.65897 0.944868 0
M  V30 9106 H 871.052 -7.30167 2.53133 0
M  V30 9107 H 869.397 -6.56886 2.26992 0
M  V30 9108 H 872.588 -4.51052 1.25178 0
M  V30 9109 H 872.761 -6.17169 1.97501 0
M  V30 9110 N 866.167 -0.267825 -1.55308 0
M  V30 9111 C 867.115 0.638848 -2.23655 0
M  V30 9112 C 868.109 1.16363 -1.2311 0
M  V30 9113 O 869.315 1.1181 -1.41062 0
M  V30 9114 H 865.69 0.224551 -0.717691 0
M  V30 9115 H 867.661 0.0394809 -2.98374 0
M  V30 9116 C 866.41 1.8151 -2.96562 0
M  V30 9117 H 865.733 1.42048 -3.73715 0
M  V30 9118 H 867.173 2.42629 -3.47717 0
M  V30 9119 C 865.632 2.69911 -2.01618 0
M  V30 9120 O 866.162 3.70058 -1.56268 0
M  V30 9121 N 864.368 2.36924 -1.68272 0
M  V30 9122 H 863.915 1.55533 -2.05347 0
M  V30 9123 H 863.873 2.96343 -1.05016 0
M  V30 9124 N 867.645 1.57599 0.00500368 0
M  V30 9125 C 868.577 2.04949 1.02609 0
M  V30 9126 C 869.59 0.966507 1.31006 0
M  V30 9127 O 870.779 1.2434 1.2807 0
M  V30 9128 C 867.879 2.43023 2.36206 0
M  V30 9129 C 867.052 3.73993 2.26821 0
M  V30 9130 C 866.111 3.9899 3.43065 0
M  V30 9131 O 865.137 4.69725 3.21477 0
M  V30 9132 N 866.339 3.46496 4.65748 0
M  V30 9133 H 869.104 2.93167 0.622336 0
M  V30 9134 H 866.665 1.60752 0.192488 0
M  V30 9135 H 868.657 2.56863 3.12735 0
M  V30 9136 H 867.227 1.60349 2.68341 0
M  V30 9137 H 866.447 3.70277 1.35235 0
M  V30 9138 H 867.735 4.59865 2.17719 0
M  V30 9139 H 867.133 2.89206 4.86186 0
M  V30 9140 H 865.69 3.65675 5.3956 0
M  V30 9141 N 869.123 -0.277682 1.55134 0
M  V30 9142 C 870.056 -1.3685 1.82612 0
M  V30 9143 C 871.034 -1.47752 0.678833 0
M  V30 9144 O 872.218 -1.6445 0.921329 0
M  V30 9145 C 869.345 -2.74539 1.98359 0
M  V30 9146 C 868.391 -2.80945 3.20893 0
M  V30 9147 S 869.224 -2.40666 4.78373 0
M  V30 9148 C 870.38 -3.80338 4.97085 0
M  V30 9149 H 870.613 -1.13338 2.74849 0
M  V30 9150 H 868.146 -0.477063 1.46845 0
M  V30 9151 H 870.104 -3.53834 2.08115 0
M  V30 9152 H 868.765 -2.95306 1.07019 0
M  V30 9153 H 867.958 -3.81992 3.28783 0
M  V30 9154 H 867.56 -2.09667 3.09703 0
M  V30 9155 H 869.852 -4.75565 4.8254 0
M  V30 9156 H 870.795 -3.77403 5.99143 0
M  V30 9157 H 871.203 -3.71424 4.25094 0
M  V30 9158 N 870.601 -1.47988 -0.541979 0
M  V30 9159 C 871.564 -1.61148 -1.62984 0
M  V30 9160 C 872.564 -0.48553 -1.53295 0
M  V30 9161 O 873.754 -0.751012 -1.5718 0
M  V30 9162 C 870.886 -1.57038 -3.02576 0
M  V30 9163 H 872.079 -2.58138 -1.52659 0
M  V30 9164 H 869.632 -1.36405 -0.763106 0
M  V30 9165 H 870.367 -0.614807 -3.18419 0
M  V30 9166 H 870.152 -2.38769 -3.11018 0
M  V30 9167 H 871.642 -1.69416 -3.81691 0
M  V30 9168 N 872.079 0.78992 -1.36375 0
M  V30 9169 C 872.989 1.93386 -1.32812 0
M  V30 9170 C 874.005 1.72468 -0.230377 0
M  V30 9171 O 875.181 1.96014 -0.462657 0
M  V30 9172 C 872.246 3.2824 -1.11621 0
M  V30 9173 C 871.307 3.61939 -2.30865 0
M  V30 9174 C 870.54 4.90359 -2.10675 0
M  V30 9175 O 870.763 5.6005 -1.08168 0
M  V30 9176 O 869.697 5.22702 -2.9844 0
M  V30 9177 H 873.523 1.99342 -2.29121 0
M  V30 9178 H 871.108 0.9301 -1.16917 0
M  V30 9179 H 872.99 4.08939 -1.01719 0
M  V30 9180 H 871.665 3.23178 -0.183732 0
M  V30 9181 H 870.572 2.81549 -2.46335 0
M  V30 9182 H 871.905 3.71725 -3.22617 0
M  V30 9183 N 873.557 1.20646 1.01402 0
M  V30 9184 C 874.504 0.957618 2.09996 0
M  V30 9185 C 875.474 -0.113115 1.65714 0
M  V30 9186 O 876.659 0.032142 1.90773 0
M  V30 9187 C 873.799 0.5186 3.41181 0
M  V30 9188 C 872.912 1.65777 3.98926 0
M  V30 9189 C 872.047 1.16881 5.18182 0
M  V30 9190 C 871.086 2.2809 5.68015 0
M  V30 9191 N 870.223 1.80392 6.7853 0
M  V30 9192 H 875.063 1.88732 2.30617 0
M  V30 9193 H 872.6 0.940703 1.13089 0
M  V30 9194 H 874.558 0.245367 4.16478 0
M  V30 9195 H 873.188 -0.3741 3.20625 0
M  V30 9196 H 872.24 2.04586 3.207 0
M  V30 9197 H 873.552 2.49507 4.31912 0
M  V30 9198 H 872.706 0.851694 6.00692 0
M  V30 9199 H 871.445 0.301434 4.86768 0
M  V30 9200 H 870.45 2.60614 4.84108 0
M  V30 9201 H 871.675 3.15308 6.01463 0
M  V30 9202 H 869.621 0.959856 6.4894 0
M  V30 9203 H 869.538 2.57701 7.10722 0
M  V30 9204 H 870.806 1.51688 7.64598 0
M  V30 9205 N 875.035 -1.20752 1.01276 0
M  V30 9206 C 876.312 -1.85676 0.615112 0
M  V30 9207 C 876.692 -1.90623 -0.906976 0
M  V30 9208 O 876.04 -1.41124 -1.79712 0
M  V30 9209 C 876.25 -3.2552 1.25847 0
M  V30 9210 C 877.598 -4.0184 1.37148 0
M  V30 9211 O 878.622 -3.3486 1.21438 0
M  V30 9212 O 877.481 -5.21783 1.62495 0
M  V30 9213 H 874.575 -0.799437 0.211729 0
M  V30 9214 H 877.121 -1.28372 1.10989 0
M  V30 9215 H 875.893 -3.16664 2.29869 0
M  V30 9216 H 875.516 -3.90452 0.750524 0
M  V30 9217 N 876.513 -0.788492 -1.36457 0
M  V30 9218 C 877.423 -0.187385 -2.3385 0
M  V30 9219 C 878.439 0.659984 -1.60998 0
M  V30 9220 O 879.615 0.575986 -1.92988 0
M  V30 9221 C 876.68 0.668525 -3.40194 0
M  V30 9222 C 875.741 -0.197234 -4.28847 0
M  V30 9223 C 874.974 0.61792 -5.30111 0
M  V30 9224 O 875.197 1.85396 -5.3943 0
M  V30 9225 O 874.131 0.0183016 -6.01897 0
M  V30 9226 H 877.957 -0.992617 -2.87021 0
M  V30 9227 H 875.542 -0.549934 -1.3891 0
M  V30 9228 H 877.424 1.15663 -4.05216 0
M  V30 9229 H 876.099 1.45166 -2.89324 0
M  V30 9230 H 875.006 -0.73207 -3.66867 0
M  V30 9231 H 876.339 -0.943863 -4.83065 0
M  V30 9232 N 877.991 1.48044 -0.54043 0
M  V30 9233 C 879.221 2.06595 -0.0144943 0
M  V30 9234 C 879.629 1.39593 1.27713 0
M  V30 9235 O 878.972 0.480794 1.77297 0
M  V30 9236 C 879.034 3.5849 0.269316 0
M  V30 9237 C 878.698 4.47429 -0.930372 0
M  V30 9238 C 879.695 4.8657 -1.83155 0
M  V30 9239 C 877.38 4.89185 -1.14032 0
M  V30 9240 C 879.374 5.66246 -2.92649 0
M  V30 9241 C 877.061 5.6863 -2.23838 0
M  V30 9242 C 878.059 6.07069 -3.12979 0
M  V30 9243 O 877.747 6.84917 -4.20884 0
M  V30 9244 H 877.479 0.675086 -0.0351467 0
M  V30 9245 H 880.033 1.91275 -0.74853 0
M  V30 9246 H 878.263 3.71961 1.05745 0
M  V30 9247 H 879.952 3.99124 0.738595 0
M  V30 9248 H 880.718 4.54924 -1.68134 0
M  V30 9249 H 876.597 4.58742 -0.455717 0
M  V30 9250 H 880.141 5.96169 -3.62254 0
M  V30 9251 H 876.038 5.99688 -2.38839 0
M  V30 9252 H 876.806 7.03287 -4.18723 0
M  V30 9253 N 879.47 0.276058 1.55163 0
M  V30 9254 C 880.38 -0.621066 2.2623 0
M  V30 9255 C 881.396 -1.16931 1.28853 0
M  V30 9256 O 882.572 -1.1994 1.61791 0
M  V30 9257 C 879.637 -1.78824 2.97023 0
M  V30 9258 C 878.698 -1.27657 4.09881 0
M  V30 9259 C 877.931 -2.38812 4.77289 0
M  V30 9260 O 878.154 -3.58188 4.43912 0
M  V30 9261 O 877.088 -2.06915 5.65217 0
M  V30 9262 H 880.914 -0.0453346 3.03666 0
M  V30 9263 H 878.499 0.0434275 1.49337 0
M  V30 9264 H 880.381 -2.46877 3.41511 0
M  V30 9265 H 879.056 -2.35104 2.22503 0
M  V30 9266 H 877.963 -0.56248 3.69847 0
M  V30 9267 H 879.296 -0.759509 4.86305 0
M  V30 9268 N 880.948 -1.576 0.00335426 0
M  V30 9269 C 881.898 -2.05116 -0.995562 0
M  V30 9270 C 882.882 -0.946535 -1.30113 0
M  V30 9271 O 884.074 -1.21028 -1.29156 0
M  V30 9272 C 881.203 -2.56077 -2.28648 0
M  V30 9273 C 880.289 -3.73422 -2.0104 0
M  V30 9274 N 880.68 -4.84986 -1.43603 0
M  V30 9275 C 878.978 -3.81416 -2.31166 0
M  V30 9276 C 879.679 -5.66399 -1.32542 0
M  V30 9277 N 878.655 -5.12505 -1.81218 0
M  V30 9278 H 882.457 -2.88783 -0.546025 0
M  V30 9279 H 879.971 -1.61135 -0.202265 0
M  V30 9280 H 881.968 -2.88395 -3.01055 0
M  V30 9281 H 880.628 -1.73829 -2.74251 0
M  V30 9282 H 881.639 -5.05768 -1.11439 0
M  V30 9283 H 878.316 -3.1003 -2.7962 0
M  V30 9284 H 879.706 -6.66066 -0.88348 0
M  V30 9285 N 882.426 0.269451 -1.5528 0
M  V30 9286 C 883.373 1.33316 -1.88403 0
M  V30 9287 C 884.343 1.48909 -0.735881 0
M  V30 9288 O 885.528 1.63259 -0.987479 0
M  V30 9289 C 882.668 2.68778 -2.16454 0
M  V30 9290 C 881.781 2.61377 -3.43956 0
M  V30 9291 C 880.916 3.89042 -3.6169 0
M  V30 9292 C 879.955 3.76166 -4.82872 0
M  V30 9293 N 879.092 4.95673 -4.97245 0
M  V30 9294 H 883.932 1.04368 -2.79126 0
M  V30 9295 H 881.469 0.504147 -1.38191 0
M  V30 9296 H 883.427 3.47599 -2.30719 0
M  V30 9297 H 882.057 2.9592 -1.28961 0
M  V30 9298 H 881.109 1.74247 -3.38145 0
M  V30 9299 H 882.421 2.47764 -4.32914 0
M  V30 9300 H 881.575 4.76304 -3.75791 0
M  V30 9301 H 880.314 4.05526 -2.70924 0
M  V30 9302 H 879.319 2.87287 -4.68771 0
M  V30 9303 H 880.544 3.61198 -5.75077 0
M  V30 9304 H 878.49 5.12561 -4.09411 0
M  V30 9305 H 878.407 4.84605 -5.80254 0
M  V30 9306 H 879.675 5.84498 -5.15735 0
M  V30 9307 N 883.904 1.48273 0.534124 0
M  V30 9308 C 884.836 1.5857 1.65494 0
M  V30 9309 C 885.849 0.470266 1.5586 0
M  V30 9310 O 887.038 0.740928 1.62396 0
M  V30 9311 C 884.138 1.49554 3.04117 0
M  V30 9312 C 883.311 2.76066 3.39273 0
M  V30 9313 C 882.37 2.60562 4.57159 0
M  V30 9314 O 881.396 3.34438 4.60587 0
M  V30 9315 N 882.598 1.69906 5.55079 0
M  V30 9316 H 885.363 2.55226 1.57099 0
M  V30 9317 H 882.924 1.44944 0.721303 0
M  V30 9318 H 884.916 1.36882 3.80848 0
M  V30 9319 H 883.486 0.608895 3.06613 0
M  V30 9320 H 882.706 3.03332 2.51761 0
M  V30 9321 H 883.994 3.60006 3.59546 0
M  V30 9322 H 883.392 1.09079 5.55084 0
M  V30 9323 H 881.949 1.63175 6.31044 0
M  V30 9324 N 885.382 -0.782676 1.36792 0
M  V30 9325 C 886.329 -1.89558 1.31667 0
M  V30 9326 C 887.299 -1.65076 0.184147 0
M  V30 9327 O 888.484 -1.87143 0.371753 0
M  V30 9328 C 885.624 -3.26469 1.11858 0
M  V30 9329 C 884.737 -3.62978 2.34245 0
M  V30 9330 C 883.872 -4.89041 2.07394 0
M  V30 9331 C 882.911 -5.18249 3.25706 0
M  V30 9332 N 882.048 -6.35497 2.98476 0
M  V30 9333 H 886.888 -1.93274 2.26824 0
M  V30 9334 H 884.425 -0.945057 1.12726 0
M  V30 9335 H 886.383 -4.05431 0.983968 0
M  V30 9336 H 885.013 -3.22158 0.203531 0
M  V30 9337 H 884.065 -2.79087 2.58485 0
M  V30 9338 H 885.377 -3.80507 3.22514 0
M  V30 9339 H 884.531 -5.75883 1.90901 0
M  V30 9340 H 883.27 -4.73594 1.16446 0
M  V30 9341 H 882.275 -4.29887 3.4275 0
M  V30 9342 H 883.5 -5.35611 4.1749 0
M  V30 9343 H 881.446 -6.21429 2.10146 0
M  V30 9344 H 881.363 -6.5339 3.80286 0
M  V30 9345 H 882.631 -7.25304 2.85577 0
M  V30 9346 N 886.86 -1.21182 -1.00761 0
M  V30 9347 C 887.77 -0.984691 -2.12934 0
M  V30 9348 C 888.786 0.0623657 -1.73888 0
M  V30 9349 O 889.962 -0.1271 -2.00999 0
M  V30 9350 C 887.027 -0.549447 -3.42319 0
M  V30 9351 C 886.088 -1.66841 -3.95553 0
M  V30 9352 C 885.321 -1.25384 -5.18763 0
M  V30 9353 O 885.544 -0.126333 -5.7026 0
M  V30 9354 O 884.478 -2.06475 -5.65377 0
M  V30 9355 H 888.304 -1.92413 -2.3497 0
M  V30 9356 H 885.889 -0.99647 -1.11314 0
M  V30 9357 H 887.771 -0.316384 -4.20211 0
M  V30 9358 H 886.446 0.361304 -3.21677 0
M  V30 9359 H 885.353 -1.95585 -3.189 0
M  V30 9360 H 886.686 -2.55649 -4.206 0
M  V30 9361 N 888.338 1.20213 -1.01915 0
M  V30 9362 C 889.268 2.25336 -0.612023 0
M  V30 9363 C 890.249 1.65933 0.374186 0
M  V30 9364 O 891.434 1.92464 0.259053 0
M  V30 9365 C 888.564 3.47267 0.047904 0
M  V30 9366 C 887.518 4.1928 -0.859557 0
M  V30 9367 C 886.844 5.3466 -0.0652655 0
M  V30 9368 C 888.144 4.75143 -2.1688 0
M  V30 9369 H 889.838 2.59645 -1.49079 0
M  V30 9370 H 887.384 1.24808 -0.718263 0
M  V30 9371 H 889.337 4.19991 0.344294 0
M  V30 9372 H 888.061 3.12129 0.961404 0
M  V30 9373 H 886.72 3.48425 -1.13999 0
M  V30 9374 H 886.368 4.95767 0.849964 0
M  V30 9375 H 886.068 5.83772 -0.669618 0
M  V30 9376 H 887.592 6.10187 0.224612 0
M  V30 9377 H 889.006 5.39672 -1.9346 0
M  V30 9378 H 887.403 5.34702 -2.72422 0
M  V30 9379 H 888.473 3.93744 -2.83008 0
M  V30 9380 N 889.816 0.795718 1.36037 0
M  V30 9381 C 890.726 0.199784 2.33748 0
M  V30 9382 C 891.742 -0.651436 1.61345 0
M  V30 9383 O 892.918 -0.565743 1.93291 0
M  V30 9384 C 889.983 -0.650475 3.40543 0
M  V30 9385 C 889.044 0.219974 4.28736 0
M  V30 9386 C 888.277 -0.589798 5.30431 0
M  V30 9387 O 888.5 -1.82532 5.40406 0
M  V30 9388 O 887.434 0.0136187 6.01898 0
M  V30 9389 H 891.26 1.00782 2.8649 0
M  V30 9390 H 888.845 0.557293 1.38617 0
M  V30 9391 H 890.727 -1.13512 4.05824 0
M  V30 9392 H 889.402 -1.4363 2.9009 0
M  V30 9393 H 888.309 0.751516 3.66474 0
M  V30 9394 H 889.642 0.969468 4.82558 0
M  V30 9395 N 891.294 -1.47756 0.548274 0
M  V30 9396 C 892.71 -1.58247 0.207401 0
M  V30 9397 C 892.91 -1.54804 -1.28988 0
M  V30 9398 O 891.966 -1.44673 -2.06944 0
M  V30 9399 C 893.279 -2.89129 0.826142 0
M  V30 9400 C 894.827 -3.02695 0.79655 0
M  V30 9401 C 895.302 -4.36264 1.3942 0
M  V30 9402 N 896.793 -4.42877 1.35698 0
M  V30 9403 C 897.528 -5.44773 1.78913 0
M  V30 9404 N 897.024 -6.53528 2.29942 0
M  V30 9405 N 898.817 -5.35765 1.70038 0
M  V30 9406 H 890.968 -1.48236 1.52117 0
M  V30 9407 H 893.231 -0.704957 0.633829 0
M  V30 9408 H 892.937 -2.97358 1.87806 0
M  V30 9409 H 892.811 -3.75891 0.313916 0
M  V30 9410 H 895.198 -2.94067 -0.246655 0
M  V30 9411 H 895.279 -2.17496 1.34644 0
M  V30 9412 H 894.923 -4.45646 2.43642 0
M  V30 9413 H 894.853 -5.20179 0.819827 0
M  V30 9414 H 897.344 -3.64874 0.983623 0
M  V30 9415 H 897.657 -7.27441 2.60863 0
M  V30 9416 H 896.002 -6.54442 2.33947 0
M  V30 9417 H 899.193 -4.49699 1.29955 0
M  V30 9418 H 899.366 -6.1504 2.04035 0
M  V30 9419 N 892.772 -0.284283 -1.55015 0
M  V30 9420 C 894.018 0.330352 -2.00091 0
M  V30 9421 C 894.351 1.54814 -1.17244 0
M  V30 9422 O 893.626 1.92954 -0.244753 0
M  V30 9423 C 893.909 0.703492 -3.53161 0
M  V30 9424 C 893.762 -0.522275 -4.46758 0
M  V30 9425 C 895.081 1.53645 -4.12409 0
M  V30 9426 H 892.2 0.118599 -0.727395 0
M  V30 9427 H 894.842 -0.393054 -1.8589 0
M  V30 9428 H 892.992 1.31983 -3.65394 0
M  V30 9429 H 894.664 -1.16082 -4.46456 0
M  V30 9430 H 892.907 -1.15865 -4.1804 0
M  V30 9431 H 893.578 -0.217295 -5.51572 0
M  V30 9432 H 896.054 1.01583 -4.0351 0
M  V30 9433 H 894.93 1.76633 -5.19704 0
M  V30 9434 H 895.191 2.5204 -3.63219 0
M  V30 9435 N 894.251 1.57596 -0.0117121 0
M  V30 9436 C 895.491 1.92932 0.675031 0
M  V30 9437 C 895.855 0.887004 1.70283 0
M  V30 9438 O 897.056 1.12599 2.4408 0
M  V30 9439 C 895.327 3.3327 1.29098 0
M  V30 9440 S 896.886 3.90509 2.00121 0
M  V30 9441 H 893.704 0.675226 0.22269 0
M  V30 9442 H 896.306 1.9537 -0.071208 0
M  V30 9443 H 895.01 4.0696 0.530262 0
M  V30 9444 H 894.541 3.34233 2.0749 0
M  V30 9445 H 896.556 3.72532 3.27771 0
M  V30 9446 N 895.729 -0.261212 1.5542 0
M  V30 9447 C 896.677 -1.34298 1.89913 0
M  V30 9448 C 897.671 -1.50547 0.776665 0
M  V30 9449 O 898.877 -1.52191 0.961139 0
M  V30 9450 H 895.252 -0.4494 0.602946 0
M  V30 9451 H 897.223 -1.02464 2.80256 0
M  V30 9452 C 895.972 -2.69423 2.19788 0
M  V30 9453 H 895.295 -2.57715 3.05652 0
M  V30 9454 H 896.735 -3.44026 2.47835 0
M  V30 9455 C 895.194 -3.21423 1.00939 0
M  V30 9456 O 895.724 -4.00921 0.250034 0
M  V30 9457 N 893.93 -2.7926 0.803883 0
M  V30 9458 H 893.477 -2.14724 1.42308 0
M  V30 9459 H 893.435 -3.14398 0.0103257 0
M  V30 9460 N 897.207 -1.48554 -0.526253 0
M  V30 9461 C 898.618 -1.50256 -1.10815 0
M  V30 9462 C 898.969 -0.274445 -1.94271 0
M  V30 9463 O 898.094 0.618094 -2.07385 0
M  V30 9464 C 898.689 -2.72264 -2.01638 0
M  V30 9465 C 897.248 -2.76826 -2.55038 0
M  V30 9466 C 896.395 -2.43823 -1.32081 0
M  V30 9467 H 899.346 -1.55616 -0.31133 0
M  V30 9468 H 899.367 -2.50993 -2.85977 0
M  V30 9469 H 898.879 -3.61632 -1.4087 0
M  V30 9470 H 896.98 -1.91676 -3.19517 0
M  V30 9471 H 897.093 -3.78351 -2.93917 0
M  V30 9472 H 895.457 -1.95058 -1.63781 0
M  V30 9473 H 896.24 -3.35436 -0.730596 0
M  V30 9474 N 898.685 0.775411 -1.37205 0
M  V30 9475 C 899.934 1.52909 -1.31536 0
M  V30 9476 C 900.247 1.9535 0.0989374 0
M  V30 9477 O 901.453 2.70072 0.278079 0
M  V30 9478 C 899.909 2.761 -2.30861 0
M  V30 9479 C 899.517 2.40773 -3.77799 0
M  V30 9480 C 901.261 3.54052 -2.34195 0
M  V30 9481 C 899.168 3.60444 -4.68865 0
M  V30 9482 H 898.098 0.574061 -0.488845 0
M  V30 9483 H 900.749 0.849642 -1.62645 0
M  V30 9484 H 899.131 3.45916 -1.92764 0
M  V30 9485 H 900.305 1.78764 -4.24712 0
M  V30 9486 H 898.62 1.76004 -3.77375 0
M  V30 9487 H 901.217 4.42992 -2.99437 0
M  V30 9488 H 901.56 3.93649 -1.35449 0
M  V30 9489 H 902.093 2.91229 -2.7098 0
M  V30 9490 H 898.832 3.25932 -5.68725 0
M  V30 9491 H 898.352 4.21571 -4.26659 0
M  V30 9492 H 900.031 4.27302 -4.85821 0
M  V30 9493 N 900.163 1.21714 1.00117 0
M  V30 9494 C 901.412 1.03087 1.73367 0
M  V30 9495 C 901.725 -0.435532 1.90689 0
M  V30 9496 O 902.931 -0.741291 2.61184 0
M  V30 9497 C 901.387 1.79593 3.11888 0
M  V30 9498 C 900.995 3.30428 3.02525 0
M  V30 9499 C 902.739 1.69386 3.89241 0
M  V30 9500 C 900.646 3.99408 4.3615 0
M  V30 9501 H 899.576 0.382117 0.650002 0
M  V30 9502 H 902.227 1.45486 1.11831 0
M  V30 9503 H 900.609 1.29988 3.74058 0
M  V30 9504 H 901.783 3.87364 2.49571 0
M  V30 9505 H 900.098 3.4122 2.38659 0
M  V30 9506 H 902.695 2.18251 4.8813 0
M  V30 9507 H 903.038 0.652773 4.1115 0
M  V30 9508 H 903.571 2.16489 3.33733 0
M  V30 9509 H 900.31 5.03735 4.19442 0
M  V30 9510 H 899.83 3.47261 4.8905 0
M  V30 9511 H 901.509 4.04537 5.04934 0
M  V30 9512 N 901.641 -1.19671 1.02551 0
M  V30 9513 C 902.866 -1.93774 0.739363 0
M  V30 9514 C 903.291 -1.74787 -0.695064 0
M  V30 9515 O 902.649 -1.04796 -1.47944 0
M  V30 9516 C 902.697 -3.43684 1.09149 0
M  V30 9517 O 901.801 -4.11874 0.208213 0
M  V30 9518 H 901.142 -0.605064 0.273484 0
M  V30 9519 H 903.672 -1.51846 1.37128 0
M  V30 9520 H 903.682 -3.94339 1.04695 0
M  V30 9521 H 902.357 -3.56826 2.13654 0
M  V30 9522 H 900.934 -3.716 0.311045 0
M  V30 9523 N 903.119 -0.802921 -1.35613 0
M  V30 9524 C 904.066 -0.20874 -2.29854 0
M  V30 9525 C 905.036 0.655128 -1.52634 0
M  V30 9526 O 906.221 0.600979 -1.81088 0
M  V30 9527 C 903.361 0.639663 -3.3912 0
M  V30 9528 C 902.474 -0.244234 -4.31309 0
M  V30 9529 C 901.609 0.611825 -5.27665 0
M  V30 9530 C 900.648 -0.272698 -6.11492 0
M  V30 9531 N 899.785 0.543122 -6.99996 0
M  V30 9532 H 904.625 -1.01782 -2.80079 0
M  V30 9533 H 902.162 -0.513465 -1.37848 0
M  V30 9534 H 904.12 1.14668 -4.01132 0
M  V30 9535 H 902.75 1.41404 -2.9018 0
M  V30 9536 H 901.802 -0.869322 -3.70334 0
M  V30 9537 H 903.114 -0.925202 -4.90144 0
M  V30 9538 H 902.268 1.18412 -5.95032 0
M  V30 9539 H 901.007 1.32637 -4.69317 0
M  V30 9540 H 900.012 -0.857287 -5.43075 0
M  V30 9541 H 901.237 -0.985051 -6.71918 0
M  V30 9542 H 899.183 1.24171 -6.44141 0
M  V30 9543 H 899.1 -0.0798767 -7.55958 0
M  V30 9544 H 900.368 1.09881 -7.71717 0
M  V30 9545 N 904.597 1.47463 -0.556102 0
M  V30 9546 C 905.527 2.32801 0.180497 0
M  V30 9547 C 906.508 1.43721 0.909848 0
M  V30 9548 O 907.693 1.72578 0.89053 0
M  V30 9549 C 904.823 3.25478 1.21167 0
M  V30 9550 C 903.777 4.2379 0.598846 0
M  V30 9551 C 903.103 5.05783 1.73457 0
M  V30 9552 C 904.403 5.20387 -0.446659 0
M  V30 9553 H 906.097 2.94636 -0.531956 0
M  V30 9554 H 903.643 1.41683 -0.257267 0
M  V30 9555 H 905.596 3.8402 1.73513 0
M  V30 9556 H 904.32 2.61695 1.95405 0
M  V30 9557 H 902.979 3.66472 0.0966897 0
M  V30 9558 H 902.627 4.38405 2.46596 0
M  V30 9559 H 902.327 5.72343 1.33031 0
M  V30 9560 H 903.851 5.67183 2.26131 0
M  V30 9561 H 905.265 5.73299 -0.00930019 0
M  V30 9562 H 903.662 5.95143 -0.769735 0
M  V30 9563 H 904.732 4.65932 -1.34295 0
M  V30 9564 N 906.075 0.2925 1.54862 0
M  V30 9565 C 907.305 -0.321646 2.04081 0
M  V30 9566 C 907.713 -1.48712 1.16967 0
M  V30 9567 O 907.056 -1.82755 0.18609 0
M  V30 9568 C 907.118 -0.848678 3.49339 0
M  V30 9569 C 906.782 0.190416 4.56603 0
M  V30 9570 C 907.779 1.01595 5.09877 0
M  V30 9571 C 905.464 0.329666 5.01217 0
M  V30 9572 C 907.458 1.96676 6.06298 0
M  V30 9573 C 905.145 1.28393 5.9746 0
M  V30 9574 C 906.143 2.10097 6.49883 0
M  V30 9575 O 905.831 3.03907 7.44242 0
M  V30 9576 H 905.563 -0.075098 0.671816 0
M  V30 9577 H 908.117 0.427531 2.00901 0
M  V30 9578 H 906.347 -1.64823 3.49815 0
M  V30 9579 H 908.036 -1.37779 3.81801 0
M  V30 9580 H 908.802 0.919197 4.7621 0
M  V30 9581 H 904.681 -0.296317 4.60047 0
M  V30 9582 H 908.225 2.60488 6.47141 0
M  V30 9583 H 904.122 1.38144 6.30545 0
M  V30 9584 H 904.89 2.98787 7.62016 0
M  V30 9585 N 907.553 -1.57587 0.0200696 0
M  V30 9586 C 908.485 -2.06555 -0.993359 0
M  V30 9587 C 909.498 -0.987227 -1.29451 0
M  V30 9588 O 910.687 -1.26361 -1.26075 0
M  V30 9589 C 907.787 -2.4675 -2.3231 0
M  V30 9590 C 906.96 -3.77554 -2.20843 0
M  V30 9591 C 906.019 -4.04397 -3.36674 0
M  V30 9592 O 905.045 -4.7478 -3.13963 0
M  V30 9593 N 906.247 -3.53861 -4.60176 0
M  V30 9594 H 909.012 -2.9412 -0.575617 0
M  V30 9595 H 906.573 -1.61038 -0.166889 0
M  V30 9596 H 908.565 -2.61806 -3.08609 0
M  V30 9597 H 907.135 -1.64598 -2.65756 0
M  V30 9598 H 906.355 -3.72382 -1.29327 0
M  V30 9599 H 907.643 -4.63271 -2.10375 0
M  V30 9600 H 907.041 -2.96904 -4.81523 0
M  V30 9601 H 905.598 -3.74213 -5.33674 0
M  V30 9602 N 909.032 0.252966 -1.55557 0
M  V30 9603 C 910.28 0.979912 -1.76754 0
M  V30 9604 C 910.601 1.86083 -0.582944 0
M  V30 9605 O 909.871 1.91742 0.401497 0
M  V30 9606 H 908.451 0.364805 -0.651864 0
M  V30 9607 H 911.113 0.272372 -1.92987 0
M  V30 9608 H 910.209 1.60518 -2.67657 0
M  V30 9609 N 910.51 1.48831 0.518367 0
M  V30 9610 C 911.758 1.57128 1.27103 0
M  V30 9611 C 912.079 0.252098 1.93364 0
M  V30 9612 O 911.349 -0.727281 1.819 0
M  V30 9613 H 909.929 0.578891 0.472116 0
M  V30 9614 H 912.591 1.85361 0.602262 0
M  V30 9615 H 911.687 2.35838 2.04418 0
M  V30 9616 N 911.988 -0.768124 1.37614 0
M  V30 9617 C 913.399 -1.34462 1.29525 0
M  V30 9618 C 913.75 -1.96121 -0.0555168 0
M  V30 9619 O 912.875 -1.94069 -0.957406 0
M  V30 9620 C 913.47 -2.44475 2.34558 0
M  V30 9621 C 912.029 -2.97883 2.30093 0
M  V30 9622 C 911.176 -1.71131 2.18196 0
M  V30 9623 H 914.127 -0.568103 1.48183 0
M  V30 9624 H 914.148 -3.24047 1.99434 0
M  V30 9625 H 913.66 -1.99568 3.32858 0
M  V30 9626 H 911.761 -3.47156 1.35328 0
M  V30 9627 H 911.874 -3.53251 3.23652 0
M  V30 9628 H 910.238 -1.94197 1.64802 0
M  V30 9629 H 911.021 -1.28323 3.18415 0
M  V30 9630 N 913.466 -1.22244 -0.994698 0
M  V30 9631 C 914.714 -1.04384 -1.73056 0
M  V30 9632 C 915.035 0.422204 -1.90374 0
M  V30 9633 O 914.305 1.30383 -1.46209 0
M  V30 9634 H 912.885 -0.383263 -0.641185 0
M  V30 9635 H 915.547 -1.53725 -1.1981 0
M  V30 9636 H 914.643 -1.52021 -2.72573 0
M  V30 9637 N 914.944 1.19125 -1.03184 0
M  V30 9638 C 916.192 1.8851 -0.728587 0
M  V30 9639 C 916.513 1.80195 0.74531 0
M  V30 9640 O 915.783 1.21437 1.5372 0
M  V30 9641 H 914.363 0.69784 -0.266511 0
M  V30 9642 H 917.025 1.44607 -1.3067 0
M  V30 9643 H 916.121 2.9477 -1.02554 0
M  V30 9644 N 916.422 0.810101 1.35185 0
M  V30 9645 C 917.67 0.391343 1.98275 0
M  V30 9646 C 917.991 -1.04592 1.64577 0
M  V30 9647 O 917.261 -1.72417 0.93001 0
M  V30 9648 H 915.841 0.141715 0.733434 0
M  V30 9649 H 918.503 1.03672 1.6504 0
M  V30 9650 H 917.599 0.49991 3.0807 0
M  V30 9651 N 917.9 -1.47166 0.563914 0
M  V30 9652 C 919.125 -2.0735 0.0454698 0
M  V30 9653 C 919.55 -1.41281 -1.24182 0
M  V30 9654 O 918.908 -0.490084 -1.7455 0
M  V30 9655 C 918.956 -3.60378 -0.126453 0
M  V30 9656 O 918.06 -3.94934 -1.18746 0
M  V30 9657 H 917.401 -0.661773 0.0543377 0
M  V30 9658 H 919.931 -1.89086 0.781508 0
M  V30 9659 H 919.941 -4.06593 -0.338554 0
M  V30 9660 H 918.616 -4.07862 0.81373 0
M  V30 9661 H 917.193 -3.60455 -0.955318 0
M  V30 9662 N 919.378 -0.300708 -1.54705 0
M  V30 9663 C 920.626 0.308044 -1.99739 0
M  V30 9664 C 920.947 1.54433 -1.19061 0
M  V30 9665 O 920.217 1.93794 -0.286507 0
M  V30 9666 H 918.797 0.116811 -0.73781 0
M  V30 9667 H 921.459 -0.41197 -1.90496 0
M  V30 9668 H 920.555 0.580287 -3.06658 0
M  V30 9669 N 920.856 1.57574 -0.0284266 0
M  V30 9670 C 922.104 1.91393 0.649079 0
M  V30 9671 C 922.425 0.905368 1.72708 0
M  V30 9672 O 921.695 -0.0532107 1.95828 0
M  V30 9673 H 920.275 0.70646 0.24274 0
M  V30 9674 H 922.937 1.94752 -0.076066 0
M  V30 9675 H 922.033 2.91988 1.10226 0
M  V30 9676 N 922.334 -0.244713 1.55689 0
M  V30 9677 C 923.582 -0.970525 1.77272 0
M  V30 9678 C 923.903 -1.85771 0.592804 0
M  V30 9679 O 923.173 -1.91952 -0.391323 0
M  V30 9680 H 921.753 -0.361342 0.653789 0
M  V30 9681 H 924.415 -0.262134 1.93129 0
M  V30 9682 H 923.511 -1.59096 2.68505 0
M  V30 9683 N 923.813 -1.49104 -0.510467 0
M  V30 9684 C 925.061 -1.578 -1.26268 0
M  V30 9685 C 925.382 -0.262349 -1.93227 0
M  V30 9686 O 924.652 0.717624 -1.82283 0
M  V30 9687 H 923.232 -0.581387 -0.46904 0
M  V30 9688 H 925.894 -1.85678 -0.592423 0
M  V30 9689 H 924.99 -2.36919 -2.03165 0
M  V30 9690 N 925.291 0.760815 -1.38019 0
M  V30 9691 C 926.516 1.55513 -1.37224 0
M  V30 9692 C 926.941 1.88062 0.037611 0
M  V30 9693 O 926.299 1.50042 1.0177 0
M  V30 9694 C 926.347 2.83539 -2.22796 0
M  V30 9695 O 925.451 3.78384 -1.64009 0
M  V30 9696 H 924.792 0.470642 -0.468393 0
M  V30 9697 H 927.322 0.940792 -1.81687 0
M  V30 9698 H 927.332 3.32535 -2.36399 0
M  V30 9699 H 926.007 2.59178 -3.25269 0
M  V30 9700 H 924.584 3.37063 -1.59508 0
M  V30 9701 N 926.769 1.22769 0.988202 0
M  V30 9702 C 928.017 1.05301 1.725 0
M  V30 9703 C 928.338 -0.412103 1.90596 0
M  V30 9704 O 927.608 -1.29606 1.46898 0
M  V30 9705 H 926.188 0.386658 0.639144 0
M  V30 9706 H 928.85 1.54359 1.18993 0
M  V30 9707 H 927.946 1.53465 2.71763 0
M  V30 9708 N 928.247 -1.18576 1.03814 0
M  V30 9709 C 929.21 -2.2033 0.63146 0
M  V30 9710 C 930.21 -1.57787 -0.309816 0
M  V30 9711 O 931.4 -1.73938 -0.0955598 0
M  V30 9712 C 928.532 -3.40818 -0.0745963 0
M  V30 9713 H 929.725 -2.57824 1.53189 0
M  V30 9714 H 927.278 -1.32416 0.830398 0
M  V30 9715 H 928.013 -3.08853 -0.988947 0
M  V30 9716 H 927.798 -3.87453 0.6019 0
M  V30 9717 H 929.288 -4.16166 -0.345727 0
M  V30 9718 N 929.725 -0.817259 -1.34754 0
M  V30 9719 C 930.95 -0.414423 -2.03217 0
M  V30 9720 C 931.375 0.970037 -1.61158 0
M  V30 9721 O 930.733 1.63016 -0.793436 0
M  V30 9722 C 930.781 -0.518087 -3.56859 0
M  V30 9723 O 929.885 0.464314 -4.09778 0
M  V30 9724 H 929.226 -0.171454 -0.641482 0
M  V30 9725 H 931.756 -1.10611 -1.72123 0
M  V30 9726 H 931.766 -0.391779 -4.06115 0
M  V30 9727 H 930.441 -1.52786 -3.86819 0
M  V30 9728 H 929.018 0.297361 -3.71712 0
M  V30 9729 N 931.203 1.46865 -0.571711 0
M  V30 9730 C 932.451 2.0203 -0.0530022 0
M  V30 9731 C 932.772 1.44687 1.30731 0
M  V30 9732 O 932.042 0.627429 1.85581 0
M  V30 9733 H 930.622 0.746815 -0.0166035 0
M  V30 9734 H 933.284 1.80099 -0.745003 0
M  V30 9735 H 932.38 3.12091 0.0242538 0
M  V30 9736 N 932.681 0.308908 1.54543 0
M  V30 9737 C 933.929 -0.297447 1.99899 0
M  V30 9738 C 934.25 -1.53799 1.19878 0
M  V30 9739 O 933.52 -1.93639 0.29678 0
M  V30 9740 H 932.1 -0.112897 0.738419 0
M  V30 9741 H 934.762 0.422067 1.90275 0
M  V30 9742 H 933.858 -0.564016 3.06961 0
M  V30 9743 N 934.159 -1.57557 0.0367827 0
M  V30 9744 C 935.57 -1.79853 -0.500971 0
M  V30 9745 C 935.921 -0.947749 -1.71791 0
M  V30 9746 O 935.046 -0.160287 -2.15806 0
M  V30 9747 C 935.641 -3.26193 -0.915626 0
M  V30 9748 C 934.2 -3.49457 -1.39845 0
M  V30 9749 C 933.347 -2.74864 -0.366784 0
M  V30 9750 H 936.298 -1.56509 0.262768 0
M  V30 9751 H 936.319 -3.36324 -1.7795 0
M  V30 9752 H 935.831 -3.88089 -0.0297227 0
M  V30 9753 H 933.932 -2.92823 -2.30402 0
M  V30 9754 H 934.045 -4.58172 -1.40054 0
M  V30 9755 H 932.409 -2.4057 -0.836554 0
M  V30 9756 H 933.192 -3.39479 0.510785 0
M  V30 9757 N 935.637 0.236453 -1.55816 0
M  V30 9758 C 936.865 0.980295 -1.82203 0
M  V30 9759 C 937.28 1.7854 -0.613926 0
M  V30 9760 O 936.637 1.77661 0.417491 0
M  V30 9761 C 936.688 1.90982 -3.06933 0
M  V30 9762 O 936.409 1.13728 -4.23081 0
M  V30 9763 C 937.91 2.76879 -3.46198 0
M  V30 9764 H 935.13 0.28799 -0.606055 0
M  V30 9765 H 937.674 0.256182 -2.02889 0
M  V30 9766 H 935.829 2.58808 -2.88266 0
M  V30 9767 H 936.243 1.76694 -4.93842 0
M  V30 9768 H 937.717 3.37831 -4.36548 0
M  V30 9769 H 938.194 3.48522 -2.67262 0
M  V30 9770 H 938.8 2.1449 -3.67252 0
M  V30 9771 N 937.115 1.49373 0.502552 0
M  V30 9772 C 938.364 1.58028 1.25339 0
M  V30 9773 C 938.677 0.271494 1.93707 0
M  V30 9774 O 939.883 0.236584 2.70467 0
M  V30 9775 C 938.339 2.78817 2.27572 0
M  V30 9776 C 937.947 4.16448 1.65151 0
M  V30 9777 C 939.691 2.96802 3.03494 0
M  V30 9778 C 937.598 5.28461 2.65486 0
M  V30 9779 H 936.528 0.588396 0.471494 0
M  V30 9780 H 939.179 1.75756 0.52744 0
M  V30 9781 H 937.561 2.5458 3.03323 0
M  V30 9782 H 938.735 4.50816 0.954029 0
M  V30 9783 H 937.05 4.03809 1.01625 0
M  V30 9784 H 939.647 3.77656 3.78524 0
M  V30 9785 H 939.99 2.07303 3.61014 0
M  V30 9786 H 940.523 3.21071 2.34858 0
M  V30 9787 H 937.262 6.20015 2.12749 0
M  V30 9788 H 936.782 4.9855 3.33479 0
M  V30 9789 H 938.461 5.5773 3.27943 0
M  V30 9790 N 938.594 -0.753485 1.38421 0
M  V30 9791 C 939.504 -1.89797 1.37892 0
M  V30 9792 C 940.52 -1.71797 0.276023 0
M  V30 9793 O 941.696 -1.94718 0.514464 0
M  V30 9794 C 938.761 -3.25166 1.20284 0
M  V30 9795 C 937.822 -3.55691 2.4038 0
M  V30 9796 C 937.055 -4.84601 2.23602 0
M  V30 9797 O 937.278 -5.56985 1.22979 0
M  V30 9798 O 936.212 -5.14605 3.12194 0
M  V30 9799 H 940.038 -1.93197 2.34326 0
M  V30 9800 H 937.623 -0.898775 1.19342 0
M  V30 9801 H 939.505 -4.06099 1.12525 0
M  V30 9802 H 938.18 -3.22577 0.269352 0
M  V30 9803 H 937.087 -2.74919 2.53714 0
M  V30 9804 H 938.42 -3.6304 3.32359 0
M  V30 9805 N 940.072 -1.23292 -0.981677 0
M  V30 9806 C 940.982 -1.02964 -2.10798 0
M  V30 9807 C 941.998 0.0254674 -1.73981 0
M  V30 9808 O 943.174 -0.169706 -2.00684 0
M  V30 9809 C 940.239 -0.621934 -3.41076 0
M  V30 9810 C 939.3 -1.75194 -3.91926 0
M  V30 9811 C 938.533 -1.36359 -5.15986 0
M  V30 9812 O 938.756 -0.247265 -5.69864 0
M  V30 9813 O 937.69 -2.18421 -5.60871 0
M  V30 9814 H 941.516 -1.97354 -2.30836 0
M  V30 9815 H 939.101 -1.01986 -1.09175 0
M  V30 9816 H 940.983 -0.405446 -4.19445 0
M  V30 9817 H 939.658 0.29299 -3.22371 0
M  V30 9818 H 938.565 -2.02305 -3.1468 0
M  V30 9819 H 939.898 -2.64513 -4.15083 0
M  V30 9820 N 941.55 1.18024 -1.04442 0
M  V30 9821 C 942.796 1.88377 -0.751133 0
M  V30 9822 C 943.129 1.80377 0.719571 0
M  V30 9823 O 942.404 1.20662 1.52548 0
M  V30 9824 C 942.687 3.38708 -1.22265 0
M  V30 9825 C 942.54 3.55499 -2.75574 0
M  V30 9826 C 943.859 4.32475 -0.815688 0
M  V30 9827 H 940.978 0.684037 -0.27434 0
M  V30 9828 H 943.62 1.38837 -1.29709 0
M  V30 9829 H 941.77 3.8103 -0.758192 0
M  V30 9830 H 943.442 3.22244 -3.30086 0
M  V30 9831 H 941.685 2.98028 -3.15217 0
M  V30 9832 H 942.356 4.60994 -3.03625 0
M  V30 9833 H 944.832 3.97953 -1.21542 0
M  V30 9834 H 943.708 5.36213 -1.17331 0
M  V30 9835 H 943.969 4.41207 0.280901 0
M  V30 9836 N 943.028 0.824394 1.34319 0
M  V30 9837 C 944.305 0.335692 1.92698 0
M  V30 9838 C 944.685 -1.17715 1.75232 0
M  V30 9839 O 944.033 -1.98493 1.13194 0
M  V30 9840 C 944.243 0.766647 3.40475 0
M  V30 9841 C 945.591 0.766323 4.17627 0
M  V30 9842 O 946.615 0.709321 3.49066 0
M  V30 9843 O 945.474 0.840856 5.39992 0
M  V30 9844 H 942.568 0.0919996 0.821867 0
M  V30 9845 H 945.114 0.909282 1.43283 0
M  V30 9846 H 943.886 1.80859 3.46995 0
M  V30 9847 H 943.509 0.168833 3.97241 0
M  V30 9848 O 944.545 -1.44549 0.720262 0
M  V30 9849 H 945.236 -1.91851 0.26698 0
M  V30 END ATOM
M  V30 BEGIN BOND
M  V30 END BOND
M  V30 END CTAB
M  END
$$$$
