drugbank_target|P54646 5'-AMP-activated protein kinase catalytic subunit alpha-2 (DB00131; DB00945; DB12010)
 OpenBabel12092121003D

  0  0  0     0  0            999 V3000
M  V30 BEGIN CTAB
M  V30 COUNTS 8745 8846 0 0 0
M  V30 BEGIN ATOM
M  V30 1 H -0.908 1.98254 -0.117106 0
M  V30 2 N 0 1.576 0 0
M  V30 3 C 0.933 2.03868 1.02534 0
M  V30 4 C 1.911 0.928543 1.3348 0
M  V30 5 O 3.095 1.19667 1.45644 0
M  V30 6 C 0.222 2.43627 2.35294 0
M  V30 7 C -0.732 3.65373 2.2001 0
M  V30 8 S 0.101 5.13292 1.52614 0
M  V30 9 C 1.257 5.56322 2.86805 0
M  V30 10 H 1.49 2.90518 0.631377 0
M  V30 11 H -0.977 1.52953 0.210867 0
M  V30 12 H 0.981 2.67203 3.11629 0
M  V30 13 H -0.358 1.57376 2.7183 0
M  V30 14 H -1.165 3.90944 3.18086 0
M  V30 15 H -1.563 3.418 1.51819 0
M  V30 16 H 0.729 5.58782 3.83104 0
M  V30 17 H 1.672 6.56266 2.65933 0
M  V30 18 H 2.08 4.83886 2.90714 0
M  V30 19 N 1.4781 -0.272755 1.55222 0
M  V30 20 C 2.4411 -1.32041 1.87344 0
M  V30 21 C 3.4411 -1.42342 0.74803 0
M  V30 22 O 4.6311 -1.41488 1.0162 0
M  V30 23 C 1.7631 -2.70173 2.07893 0
M  V30 24 H 2.9561 -1.04789 2.80997 0
M  V30 25 H 0.5091 -0.51083 1.47717 0
M  V30 26 H 1.2441 -3.02605 1.16622 0
M  V30 27 H 1.0291 -2.64082 2.89833 0
M  V30 28 H 2.5191 -3.45869 2.34017 0
M  V30 29 N 2.9562 -1.48159 -0.537278 0
M  V30 30 C 3.8662 -1.64807 -1.6696 0
M  V30 31 C 4.8822 -0.530651 -1.65711 0
M  V30 32 O 6.0582 -0.800784 -1.84796 0
M  V30 33 C 3.1232 -1.67708 -3.03438 0
M  V30 34 C 2.1842 -2.91025 -3.156 0
M  V30 35 C 1.4172 -2.93778 -4.45567 0
M  V30 36 O 1.6402 -2.05153 -5.3223 0
M  V30 37 O 0.5742 -3.85868 -4.61941 0
M  V30 38 H 4.4002 -2.6066 -1.55853 0
M  V30 39 H 1.9852 -1.31475 -0.709549 0
M  V30 40 H 3.8672 -1.7218 -3.84619 0
M  V30 41 H 2.5422 -0.750278 -3.14885 0
M  V30 42 H 1.4492 -2.92089 -2.33741 0
M  V30 43 H 2.7822 -3.83065 -3.09066 0
M  V30 44 N 4.4343 0.785586 -1.36625 0
M  V30 45 C 5.3813 1.89838 -1.31264 0
M  V30 46 C 6.3513 1.65115 -0.180633 0
M  V30 47 O 7.5363 1.87222 -0.36777 0
M  V30 48 C 4.6763 3.26706 -1.11163 0
M  V30 49 C 3.7893 3.63476 -2.33472 0
M  V30 50 C 2.9243 4.89481 -2.06353 0
M  V30 51 C 1.9633 5.18941 -3.24602 0
M  V30 52 N 1.1003 6.36131 -2.97123 0
M  V30 53 H 5.9403 1.93756 -2.26413 0
M  V30 54 H 3.4773 0.947454 -1.12524 0
M  V30 55 H 5.4353 4.05639 -0.975337 0
M  V30 56 H 4.0653 3.222 -0.196674 0
M  V30 57 H 3.1173 2.79636 -2.57891 0
M  V30 58 H 4.4293 3.81193 -3.21704 0
M  V30 59 H 3.5833 5.76288 -1.89675 0
M  V30 60 H 2.3223 4.73841 -1.15437 0
M  V30 61 H 1.3273 4.30615 -3.41834 0
M  V30 62 H 2.5523 5.36498 -4.16349 0
M  V30 63 H 0.4983 6.21875 -2.08823 0
M  V30 64 H 0.4153 6.54198 -3.78894 0
M  V30 65 H 1.6833 7.2591 -2.84033 0
M  V30 66 N 5.9124 1.20967 1.01018 0
M  V30 67 C 6.8444 0.922059 2.09835 0
M  V30 68 C 7.8574 -0.0927106 1.62536 0
M  V30 69 O 9.0464 0.139127 1.77957 0
M  V30 70 C 6.1464 0.362004 3.36961 0
M  V30 71 C 5.3194 1.42986 4.13369 0
M  V30 72 C 4.3784 0.879976 5.1879 0
M  V30 73 O 3.4044 1.56219 5.47343 0
M  V30 74 N 4.6064 -0.307396 5.79686 0
M  V30 75 H 7.3714 1.8588 2.35093 0
M  V30 76 H 4.9324 1.11422 1.1746 0
M  V30 77 H 6.9244 -0.0201474 4.04695 0
M  V30 78 H 5.4944 -0.479437 3.08902 0
M  V30 79 H 4.7144 1.98608 3.40512 0
M  V30 80 H 6.0024 2.14885 4.61196 0
M  V30 81 H 5.4004 -0.878796 5.58832 0
M  V30 82 H 3.9574 -0.631115 6.48737 0
M  V30 83 N 7.3905 -1.2043 1.01659 0
M  V30 84 C 8.3375 -2.23215 0.586822 0
M  V30 85 C 9.3075 -1.61382 -0.393085 0
M  V30 86 O 10.4925 -1.88544 -0.292525 0
M  V30 87 C 7.6325 -3.45032 -0.0687464 0
M  V30 88 C 6.7455 -4.21296 0.955724 0
M  V30 89 C 5.8805 -5.30507 0.271208 0
M  V30 90 C 4.9195 -5.98515 1.28244 0
M  V30 91 N 4.0565 -6.99316 0.62459 0
M  V30 92 H 8.8965 -2.59336 1.46796 0
M  V30 93 H 6.4335 -1.27431 0.734836 0
M  V30 94 H 8.3915 -4.1459 -0.465965 0
M  V30 95 H 7.0215 -3.09604 -0.913529 0
M  V30 96 H 6.0735 -3.50803 1.4711 0
M  V30 97 H 7.3855 -4.6803 1.72479 0
M  V30 98 H 6.5395 -6.06428 -0.18151 0
M  V30 99 H 5.2785 -4.8481 -0.530163 0
M  V30 100 H 4.2835 -5.21355 1.74554 0
M  V30 101 H 5.5085 -6.46298 2.08509 0
M  V30 102 H 3.4545 -6.55812 -0.156914 0
M  V30 103 H 3.3715 -7.44178 1.33172 0
M  V30 104 H 4.6395 -7.79255 0.195462 0
M  V30 105 N 8.8686 -0.792821 -1.36206 0
M  V30 106 C 9.8186 -0.166598 -2.27391 0
M  V30 107 C 10.8026 0.651479 -1.47121 0
M  V30 108 O 11.9946 0.510994 -1.69463 0
M  V30 109 C 9.1236 0.695033 -3.36191 0
M  V30 110 C 8.2096 -0.132019 -4.23894 0
M  V30 111 N 8.6006 -1.18822 -4.91645 0
M  V30 112 C 6.8986 0.0885952 -4.45912 0
M  V30 113 C 7.5996 -1.69198 -5.56549 0
M  V30 114 N 6.5756 -1.00065 -5.34311 0
M  V30 115 H 10.3776 -0.974947 -2.77258 0
M  V30 116 H 7.8916 -0.632616 -1.49572 0
M  V30 117 H 9.8886 1.1596 -4.00448 0
M  V30 118 H 8.5486 1.50189 -2.87877 0
M  V30 119 H 9.5596 -1.57069 -4.93507 0
M  V30 120 H 6.2366 0.865688 -4.08426 0
M  V30 121 H 7.6266 -2.57395 -6.20643 0
M  V30 122 N 10.3467 1.47872 -0.545128 0
M  V30 123 C 11.6237 1.9554 0.0485222 0
M  V30 124 C 12.0037 1.4876 1.49779 0
M  V30 125 O 11.3517 0.720925 2.16829 0
M  V30 126 C 11.5617 3.48898 -0.084417 0
M  V30 127 C 12.9097 4.24547 0.0671239 0
M  V30 128 O 13.9337 3.56198 -0.0113649 0
M  V30 129 O 12.7927 5.45999 0.233882 0
M  V30 130 H 9.8867 0.823957 0.0708773 0
M  V30 131 H 12.4327 1.58327 -0.610798 0
M  V30 132 H 11.2047 3.75714 -1.09337 0
M  V30 133 H 10.8277 3.92845 0.613066 0
M  V30 134 N 11.8248 0.280983 1.55075 0
M  V30 135 C 13.0728 -0.333455 1.9933 0
M  V30 136 C 13.3938 -1.55937 1.17085 0
M  V30 137 O 12.6638 -1.94143 0.261805 0
M  V30 138 H 11.2438 -0.126197 0.736263 0
M  V30 139 H 13.9058 0.387678 1.91005 0
M  V30 140 H 13.0018 -0.619292 3.05894 0
M  V30 141 N 13.3029 -1.57598 0.00835791 0
M  V30 142 C 14.7189 -1.55764 -0.347822 0
M  V30 143 C 14.9189 -1.01186 -1.74252 0
M  V30 144 O 13.9749 -0.649371 -2.44007 0
M  V30 145 C 15.2879 -2.99927 -0.215407 0
M  V30 146 C 16.8359 -3.11656 -0.289725 0
M  V30 147 C 17.3109 -4.57621 -0.18634 0
M  V30 148 N 18.8019 -4.62557 -0.243978 0
M  V30 149 C 19.5369 -5.73094 -0.18745 0
M  V30 150 N 19.0329 -6.92753 -0.0810331 0
M  V30 151 N 20.8259 -5.61588 -0.239925 0
M  V30 152 H 12.9769 -1.91411 0.92062 0
M  V30 153 H 15.2399 -0.879562 0.353659 0
M  V30 154 H 14.9459 -3.43729 0.744512 0
M  V30 155 H 14.8199 -3.63865 -0.994097 0
M  V30 156 H 17.2069 -2.67779 -1.24009 0
M  V30 157 H 17.2879 -2.5048 0.51898 0
M  V30 158 H 16.9319 -5.02174 0.760519 0
M  V30 159 H 16.8619 -5.16752 -1.01364 0
M  V30 160 H 19.3529 -3.76481 -0.327217 0
M  V30 161 H 19.6659 -7.72787 -0.0440241 0
M  V30 162 H 18.0109 -6.94984 -0.0465419 0
M  V30 163 H 21.2019 -4.66996 -0.321317 0
M  V30 164 H 21.3749 -6.47714 -0.192407 0
M  V30 165 N 14.781 0.264519 -1.55364 0
M  V30 166 C 16.027 0.99646 -1.76631 0
M  V30 167 C 16.36 1.85632 -0.570478 0
M  V30 168 O 15.635 1.89647 0.43175 0
M  V30 169 C 15.918 1.87187 -3.07625 0
M  V30 170 C 15.771 1.04138 -4.37579 0
M  V30 171 C 17.09 2.85749 -3.34717 0
M  V30 172 H 14.209 0.360841 -0.642622 0
M  V30 173 H 16.851 0.268218 -1.88097 0
M  V30 174 H 15.001 2.49279 -2.9798 0
M  V30 175 H 16.673 0.440517 -4.59192 0
M  V30 176 H 14.916 0.345115 -4.32425 0
M  V30 177 H 15.587 1.68729 -5.2558 0
M  V30 178 H 18.063 2.33793 -3.4421 0
M  V30 179 H 16.939 3.44136 -4.27623 0
M  V30 180 H 17.2 3.61311 -2.54768 0
M  V30 181 N 16.2591 1.48442 0.529413 0
M  V30 182 C 17.2061 1.63007 1.63394 0
M  V30 183 C 18.1761 0.47212 1.59249 0
M  V30 184 O 19.3611 0.695673 1.77666 0
M  V30 185 C 16.5011 1.6763 3.01653 0
M  V30 186 C 15.6141 2.94535 3.16027 0
M  V30 187 C 14.7491 2.90316 4.44849 0
M  V30 188 C 13.7881 4.11923 4.52754 0
M  V30 189 N 12.9251 4.05777 5.72965 0
M  V30 190 H 17.7651 2.5733 1.50285 0
M  V30 191 H 15.3021 1.27613 0.731656 0
M  V30 192 H 17.2601 1.68292 3.81751 0
M  V30 193 H 15.8901 0.76797 3.13532 0
M  V30 194 H 14.9421 3.03615 2.29177 0
M  V30 195 H 16.2541 3.84512 3.17729 0
M  V30 196 H 15.4081 2.89382 5.33238 0
M  V30 197 H 14.1471 1.98068 4.45668 0
M  V30 198 H 13.1521 4.13131 3.62771 0
M  V30 199 H 14.3771 5.0533 4.53672 0
M  V30 200 H 12.3231 3.16351 5.74681 0
M  V30 201 H 12.2401 4.8946 5.76164 0
M  V30 202 H 13.5081 4.08904 6.6364 0
M  V30 203 N 17.7372 -0.778329 1.37039 0
M  V30 204 C 18.9862 -1.53189 1.3121 0
M  V30 205 C 19.2992 -1.95328 -0.103095 0
M  V30 206 O 20.5052 -2.70012 -0.283826 0
M  V30 207 C 18.9612 -2.76591 2.30272 0
M  V30 208 C 18.5692 -2.41577 3.77286 0
M  V30 209 C 20.3132 -3.5455 2.33441 0
M  V30 210 C 18.2202 -3.61441 4.68096 0
M  V30 211 H 17.1502 -0.5751 0.487622 0
M  V30 212 H 19.8012 -0.853101 1.62464 0
M  V30 213 H 18.1832 -3.46326 1.92027 0
M  V30 214 H 19.3572 -1.79668 4.2433 0
M  V30 215 H 17.6722 -1.76806 3.76999 0
M  V30 216 H 20.2692 -4.43628 2.98493 0
M  V30 217 H 20.6122 -3.93936 1.34611 0
M  V30 218 H 21.1452 -2.91805 2.7036 0
M  V30 219 H 17.8842 -3.27142 5.6803 0
M  V30 220 H 17.4042 -4.22478 4.25761 0
M  V30 221 H 19.0832 -4.28335 4.8491 0
M  V30 222 N 19.2153 -1.21501 -1.00376 0
M  V30 223 C 20.4633 -1.03095 -1.73827 0
M  V30 224 C 20.7843 0.436341 -1.90055 0
M  V30 225 O 20.0543 1.31466 -1.45236 0
M  V30 226 H 18.6343 -0.378487 -0.644016 0
M  V30 227 H 21.2963 -1.52831 -1.20949 0
M  V30 228 H 20.3923 -1.49991 -2.73695 0
M  V30 229 N 20.6934 1.19889 -1.02296 0
M  V30 230 C 21.6434 2.20777 -0.56934 0
M  V30 231 C 22.6274 1.56379 0.378741 0
M  V30 232 O 23.8194 1.75859 0.200673 0
M  V30 233 C 20.9484 3.43196 0.0845077 0
M  V30 234 C 20.0344 4.14749 -0.88566 0
M  V30 235 N 20.4254 4.62584 -2.04573 0
M  V30 236 C 18.7234 4.40347 -0.707835 0
M  V30 237 C 19.4244 5.17466 -2.65714 0
M  V30 238 N 18.4004 5.0791 -1.93723 0
M  V30 239 H 22.2024 2.55434 -1.45365 0
M  V30 240 H 19.7164 1.35897 -0.88915 0
M  V30 241 H 21.7134 4.14707 0.427067 0
M  V30 242 H 20.3734 3.10042 0.964574 0
M  V30 243 H 21.3844 4.57597 -2.4254 0
M  V30 244 H 18.0614 4.17317 0.12364 0
M  V30 245 H 19.4514 5.64808 -3.63925 0
M  V30 246 N 22.1715 0.800033 1.35784 0
M  V30 247 C 23.4015 0.389041 2.02904 0
M  V30 248 C 23.8095 -1.0027 1.60445 0
M  V30 249 O 23.1525 -1.65633 0.794453 0
M  V30 250 C 23.2145 0.385495 3.57427 0
M  V30 251 C 22.8785 1.72662 4.23127 0
M  V30 252 C 23.8755 2.68385 4.4527 0
M  V30 253 C 21.5605 2.00883 4.60381 0
M  V30 254 C 23.5545 3.90517 5.03761 0
M  V30 255 C 21.2415 3.2328 5.18588 0
M  V30 256 C 22.2395 4.17915 5.40218 0
M  V30 257 O 21.9275 5.38153 5.97199 0
M  V30 258 H 21.6595 0.157032 0.657508 0
M  V30 259 H 24.2135 1.08311 1.74522 0
M  V30 260 H 22.4435 -0.365128 3.84972 0
M  V30 261 H 24.1325 -0.00228296 4.059 0
M  V30 262 H 24.8985 2.47872 4.16874 0
M  V30 263 H 20.7775 1.28037 4.42863 0
M  V30 264 H 24.3215 4.64395 5.2056 0
M  V30 265 H 20.2185 3.43667 5.4641 0
M  V30 266 H 20.9865 5.3936 6.15656 0
M  V30 267 N 23.6496 -1.47581 0.552962 0
M  V30 268 C 24.8956 -2.02782 0.0273648 0
M  V30 269 C 25.2286 -1.42687 -1.31734 0
M  V30 270 O 24.5036 -0.580897 -1.85623 0
M  V30 271 C 24.7866 -3.60031 -0.0702371 0
M  V30 272 C 24.6396 -4.30566 1.30126 0
M  V30 273 C 25.9586 -4.33028 -0.785771 0
M  V30 274 H 23.0776 -0.736912 0.0114185 0
M  V30 275 H 25.7196 -1.76056 0.714432 0
M  V30 276 H 23.8696 -3.82932 -0.655382 0
M  V30 277 H 25.5416 -4.19018 1.92929 0
M  V30 278 H 23.7846 -3.91086 1.87709 0
M  V30 279 H 24.4556 -5.39114 1.18573 0
M  V30 280 H 26.9316 -4.15095 -0.288982 0
M  V30 281 H 25.8076 -5.42695 -0.823013 0
M  V30 282 H 26.0686 -4.01945 -1.841 0
M  V30 283 N 25.1277 -0.289203 -1.54924 0
M  V30 284 C 26.0577 0.58549 -2.2604 0
M  V30 285 C 27.0387 1.14753 -1.25562 0
M  V30 286 O 28.2237 1.17906 -1.54311 0
M  V30 287 C 25.3537 1.76305 -2.99222 0
M  V30 288 C 24.3077 1.33191 -4.06748 0
M  V30 289 C 23.6337 2.5937 -4.6758 0
M  V30 290 C 24.9337 0.471775 -5.20165 0
M  V30 291 H 26.6277 -0.00763532 -2.99399 0
M  V30 292 H 24.1737 -0.00511229 -1.43999 0
M  V30 293 H 26.1267 2.38097 -3.47689 0
M  V30 294 H 24.8507 2.38223 -2.23422 0
M  V30 295 H 23.5097 0.737121 -3.59113 0
M  V30 296 H 23.1577 3.19576 -3.88433 0
M  V30 297 H 22.8577 2.31228 -5.40192 0
M  V30 298 H 24.3817 3.21985 -5.18804 0
M  V30 299 H 25.7957 0.995056 -5.64599 0
M  V30 300 H 24.1927 0.284639 -5.99425 0
M  V30 301 H 25.2627 -0.506041 -4.82252 0
M  V30 302 N 26.6058 1.57591 -0.0167156 0
M  V30 303 C 27.8538 1.90906 0.663285 0
M  V30 304 C 28.1748 0.892509 1.73376 0
M  V30 305 O 27.4448 -0.0677623 1.95783 0
M  V30 306 H 26.0248 0.704637 0.247983 0
M  V30 307 H 28.6868 1.94803 -0.0615909 0
M  V30 308 H 27.7828 2.9116 1.12393 0
M  V30 309 N 28.0839 -0.256276 1.55502 0
M  V30 310 C 29.3609 -1.00789 1.67633 0
M  V30 311 C 29.7409 -2.03706 0.553826 0
M  V30 312 O 29.0889 -2.24145 -0.443969 0
M  V30 313 C 29.2989 -1.64968 3.07549 0
M  V30 314 C 30.6469 -2.15505 3.65845 0
M  V30 315 O 31.6709 -1.74925 3.1029 0
M  V30 316 O 30.5299 -2.89986 4.63217 0
M  V30 317 H 27.6239 -0.468553 0.681459 0
M  V30 318 H 30.1699 -0.250806 1.67836 0
M  V30 319 H 28.9419 -0.904785 3.80696 0
M  V30 320 H 28.5649 -2.47321 3.11317 0
M  V30 321 N 29.562 -1.4872 -0.521534 0
M  V30 322 C 30.79 -1.60843 -1.30142 0
M  V30 323 C 31.205 -0.271897 -1.86832 0
M  V30 324 O 30.562 0.739969 -1.66825 0
M  V30 325 C 30.613 -2.66155 -2.4463 0
M  V30 326 O 30.334 -3.94623 -1.90275 0
M  V30 327 C 31.835 -2.88795 -3.36322 0
M  V30 328 H 29.055 -0.542075 -0.395468 0
M  V30 329 H 31.599 -1.94609 -0.628285 0
M  V30 330 H 29.754 -2.35224 -3.07812 0
M  V30 331 H 30.168 -4.52468 -2.65279 0
M  V30 332 H 31.642 -3.66264 -4.12983 0
M  V30 333 H 32.119 -1.97934 -3.9207 0
M  V30 334 H 32.725 -3.21063 -2.78924 0
M  V30 335 N 31.0401 0.771051 -1.3745 0
M  V30 336 C 31.9701 1.89827 -1.3597 0
M  V30 337 C 32.9511 1.68562 -0.228216 0
M  V30 338 O 34.1361 1.8941 -0.428675 0
M  V30 339 C 31.2661 3.2712 -1.16662 0
M  V30 340 C 30.2201 3.6295 -2.2683 0
M  V30 341 C 29.5461 4.98791 -1.92644 0
M  V30 342 C 30.8461 3.69627 -3.69017 0
M  V30 343 H 32.5401 1.91323 -2.30295 0
M  V30 344 H 30.0861 0.919082 -1.10855 0
M  V30 345 H 32.0391 4.05615 -1.14256 0
M  V30 346 H 30.7631 3.26059 -0.187926 0
M  V30 347 H 29.4221 2.86763 -2.28392 0
M  V30 348 H 29.0701 4.94271 -0.933021 0
M  V30 349 H 28.7701 5.23733 -2.66416 0
M  V30 350 H 30.2941 5.79685 -1.91826 0
M  V30 351 H 31.7081 4.38273 -3.69581 0
M  V30 352 H 30.1051 4.06067 -4.41848 0
M  V30 353 H 31.1751 2.70273 -4.02592 0
M  V30 354 N 32.5182 1.22032 0.997298 0
M  V30 355 C 33.7662 1.04016 1.73278 0
M  V30 356 C 34.0872 -0.426255 1.90284 0
M  V30 357 O 33.3572 -1.30694 1.45931 0
M  V30 358 H 31.9372 0.381897 0.642 0
M  V30 359 H 34.5992 1.5347 1.20137 0
M  V30 360 H 33.6952 1.51441 2.72896 0
M  V30 361 N 33.9963 -1.19345 1.0293 0
M  V30 362 C 35.2423 -1.89318 0.727083 0
M  V30 363 C 35.5753 -1.79446 -0.742483 0
M  V30 364 O 34.8503 -1.1871 -1.54072 0
M  V30 365 C 35.1333 -3.40238 1.17942 0
M  V30 366 C 34.9863 -3.58979 2.71024 0
M  V30 367 C 36.3053 -4.33479 0.760548 0
M  V30 368 H 33.4243 -0.687475 0.265606 0
M  V30 369 H 36.0663 -1.40477 1.2793 0
M  V30 370 H 34.2163 -3.81964 0.709608 0
M  V30 371 H 35.8883 -3.26421 3.25955 0
M  V30 372 H 34.1313 -3.02018 3.11396 0
M  V30 373 H 34.8023 -4.64823 2.9773 0
M  V30 374 H 37.2783 -3.99469 1.16464 0
M  V30 375 H 36.1543 -5.37664 1.10493 0
M  V30 376 H 36.4153 -4.40813 -0.337063 0
M  V30 377 N 35.4744 -0.807222 -1.35358 0
M  V30 378 C 36.7224 -0.387122 -1.98358 0
M  V30 379 C 37.0434 1.04942 -1.64354 0
M  V30 380 O 36.3134 1.72615 -0.926339 0
M  V30 381 H 34.8934 -0.140154 -0.733734 0
M  V30 382 H 37.5554 -1.0332 -1.6526 0
M  V30 383 H 36.6514 -0.493352 -3.08176 0
M  V30 384 N 36.9525 1.47285 -0.560781 0
M  V30 385 C 38.1805 2.06855 -0.0430262 0
M  V30 386 C 38.5955 1.41291 1.25229 0
M  V30 387 O 37.9525 0.510648 1.7521 0
M  V30 388 C 38.0035 3.61178 0.152518 0
M  V30 389 O 37.7245 4.24285 -1.0915 0
M  V30 390 C 39.2255 4.37624 0.707145 0
M  V30 391 H 36.4455 0.669319 -0.0474652 0
M  V30 392 H 38.9895 1.89237 -0.77521 0
M  V30 393 H 37.1445 3.78298 0.834843 0
M  V30 394 H 37.5585 5.16868 -0.891482 0
M  V30 395 H 39.0325 5.46271 0.793244 0
M  V30 396 H 39.5095 4.04152 1.71923 0
M  V30 397 H 40.1155 4.25257 0.0604027 0
M  V30 398 N 38.4306 0.297415 1.54768 0
M  V30 399 C 39.6776 -0.312913 2.00068 0
M  V30 400 C 40.0056 -1.54171 1.18582 0
M  V30 401 O 39.2606 -1.94108 0.249133 0
M  V30 402 C 39.5596 -0.717561 3.50123 0
M  V30 403 C 39.2256 0.409095 4.4904 0
M  V30 404 C 37.8876 0.718399 4.75807 0
M  V30 405 C 40.2396 1.16717 5.07963 0
M  V30 406 C 37.5676 1.78896 5.5876 0
M  V30 407 C 39.9196 2.22762 5.92081 0
M  V30 408 C 38.5836 2.54303 6.1716 0
M  V30 409 H 37.8536 -0.114503 0.7321 0
M  V30 410 H 40.5006 0.415767 1.86932 0
M  V30 411 H 38.8056 -1.52627 3.60849 0
M  V30 412 H 40.5026 -1.20091 3.82595 0
M  V30 413 H 37.0926 0.157918 4.28309 0
M  V30 414 H 41.2766 0.941466 4.87289 0
M  V30 415 H 36.5326 2.0381 5.7643 0
M  V30 416 H 40.7066 2.81962 6.36765 0
M  V30 417 H 38.3336 3.3739 6.81229 0
M  V30 418 N 39.9087 -1.5758 0.0250728 0
M  V30 419 C 41.1567 -1.91255 -0.653151 0
M  V30 420 C 41.4777 -0.901691 -1.729 0
M  V30 421 O 40.7477 0.0573785 -1.95816 0
M  V30 422 H 39.3277 -0.705942 -0.244243 0
M  V30 423 H 41.9897 -1.94767 0.0719209 0
M  V30 424 H 41.0857 -2.91752 -1.10847 0
M  V30 425 N 41.3868 0.248026 -1.55636 0
M  V30 426 C 42.3338 1.30707 -1.90222 0
M  V30 427 C 43.3038 1.47881 -0.756332 0
M  V30 428 O 44.4888 1.61883 -1.00988 0
M  V30 429 C 41.6288 2.65769 -2.20138 0
M  V30 430 C 40.7418 2.56612 -3.47526 0
M  V30 431 C 39.8768 3.8402 -3.67017 0
M  V30 432 C 38.9158 3.69476 -4.8801 0
M  V30 433 N 38.0528 4.88774 -5.04029 0
M  V30 434 H 42.8928 1.00512 -2.80538 0
M  V30 435 H 40.4298 0.485055 -1.38873 0
M  V30 436 H 42.3878 3.44386 -2.35487 0
M  V30 437 H 41.0178 2.94115 -1.33027 0
M  V30 438 H 40.0698 1.69571 -3.40514 0
M  V30 439 H 41.3818 2.41774 -4.36287 0
M  V30 440 H 40.5358 4.7108 -3.8232 0
M  V30 441 H 39.2748 4.01754 -2.76487 0
M  V30 442 H 38.2798 2.80799 -4.72686 0
M  V30 443 H 39.5048 3.53238 -5.8 0
M  V30 444 H 37.4508 5.0687 -4.16435 0
M  V30 445 H 37.3678 4.76562 -5.86877 0
M  V30 446 H 38.6358 5.77335 -5.23741 0
M  V30 447 N 42.8649 1.48995 0.513639 0
M  V30 448 C 44.1109 1.58076 1.27042 0
M  V30 449 C 44.4439 0.261026 1.92438 0
M  V30 450 O 43.7189 -0.734393 1.80103 0
M  V30 451 C 44.0019 2.73091 2.34719 0
M  V30 452 C 43.8549 4.14821 1.73907 0
M  V30 453 C 45.1739 2.83796 3.36375 0
M  V30 454 H 42.2929 0.575391 0.460536 0
M  V30 455 H 44.9349 1.81232 0.570516 0
M  V30 456 H 43.0849 2.53479 2.94416 0
M  V30 457 H 44.7569 4.45917 1.18135 0
M  V30 458 H 42.9999 4.21058 1.0437 0
M  V30 459 H 43.6709 4.91147 2.51949 0
M  V30 460 H 46.1469 3.01611 2.86653 0
M  V30 461 H 45.0229 3.65971 4.09093 0
M  V30 462 H 45.2839 1.92624 3.9793 0
M  V30 463 N 44.343 -0.763751 1.37857 0
M  V30 464 C 45.29 -1.87726 1.34267 0
M  V30 465 C 46.26 -1.64807 0.206879 0
M  V30 466 O 47.445 -1.86613 0.397508 0
M  V30 467 C 44.585 -3.24896 1.16346 0
M  V30 468 C 43.698 -3.59716 2.39225 0
M  V30 469 C 42.833 -4.86137 2.14114 0
M  V30 470 C 41.872 -5.13711 3.32817 0
M  V30 471 N 41.009 -6.31323 3.07206 0
M  V30 472 H 45.849 -1.90129 2.29466 0
M  V30 473 H 43.386 -0.929433 1.14017 0
M  V30 474 H 45.344 -4.04036 1.03975 0
M  V30 475 H 43.974 -3.21847 0.247909 0
M  V30 476 H 43.026 -2.75498 2.62307 0
M  V30 477 H 44.338 -3.76027 3.27728 0
M  V30 478 H 43.492 -5.73198 1.9882 0
M  V30 479 H 42.231 -4.71945 1.22961 0
M  V30 480 H 41.236 -4.25123 3.48641 0
M  V30 481 H 42.461 -5.29807 4.24832 0
M  V30 482 H 40.407 -6.18474 2.1869 0
M  V30 483 H 40.324 -6.48087 3.89254 0
M  V30 484 H 41.592 -7.213 2.95546 0
M  V30 485 N 45.8211 -1.22559 -0.990812 0
M  V30 486 C 47.0701 -1.04553 -1.72486 0
M  V30 487 C 47.3831 0.419349 -1.91052 0
M  V30 488 O 48.5891 0.719121 -2.61803 0
M  V30 489 C 47.0451 -1.82231 -3.10355 0
M  V30 490 C 46.6531 -3.32981 -2.99713 0
M  V30 491 C 48.3971 -1.7268 -3.87791 0
M  V30 492 C 46.3041 -4.03091 -4.32748 0
M  V30 493 H 45.2341 -0.387614 -0.646739 0
M  V30 494 H 47.8851 -1.46429 -1.10593 0
M  V30 495 H 46.2671 -1.33155 -3.72942 0
M  V30 496 H 47.4411 -3.89466 -2.46278 0
M  V30 497 H 45.7561 -3.43231 -2.35758 0
M  V30 498 H 48.3531 -2.22381 -4.86262 0
M  V30 499 H 48.6961 -0.687607 -4.10582 0
M  V30 500 H 49.2291 -2.1931 -3.31885 0
M  V30 501 H 45.9681 -5.07273 -4.15156 0
M  V30 502 H 45.4881 -3.51394 -4.86089 0
M  V30 503 H 47.1671 -4.08804 -5.01486 0
M  V30 504 N 47.2992 1.18797 -1.03562 0
M  V30 505 C 48.5472 1.88278 -0.734569 0
M  V30 506 C 48.8682 1.8043 0.739586 0
M  V30 507 O 48.1382 1.21925 1.53333 0
M  V30 508 H 46.7182 0.696991 -0.268725 0
M  V30 509 H 49.3802 1.44192 -1.31129 0
M  V30 510 H 48.4762 2.94443 -1.03489 0
M  V30 511 N 48.7773 0.814389 1.34928 0
M  V30 512 C 49.6873 0.231978 2.3345 0
M  V30 513 C 50.7033 -0.629139 1.62228 0
M  V30 514 O 51.8793 -0.539052 1.94052 0
M  V30 515 C 48.9443 -0.603482 3.41407 0
M  V30 516 C 48.0053 0.279037 4.28392 0
M  V30 517 C 47.2383 -0.516643 5.31193 0
M  V30 518 O 47.4613 -1.75068 5.4287 0
M  V30 519 O 46.3953 0.0965652 6.01823 0
M  V30 520 H 50.2213 1.04721 2.85074 0
M  V30 521 H 47.8063 0.576343 1.37836 0
M  V30 522 H 49.6883 -1.07908 4.0735 0
M  V30 523 H 48.3633 -1.39618 2.92042 0
M  V30 524 H 47.2703 0.801948 3.65403 0
M  V30 525 H 48.6033 1.03588 4.81176 0
M  V30 526 N 50.2554 -1.46986 0.568584 0
M  V30 527 C 51.2054 -2.27179 -0.193339 0
M  V30 528 C 52.1894 -1.35035 -0.874895 0
M  V30 529 O 53.3814 -1.5931 -0.771322 0
M  V30 530 C 50.5104 -3.21063 -1.21546 0
M  V30 531 C 49.5964 -4.2069 -0.536738 0
M  V30 532 N 49.9874 -5.04218 0.399673 0
M  V30 533 C 48.2854 -4.38961 -0.789254 0
M  V30 534 C 48.9864 -5.76242 0.795017 0
M  V30 535 N 47.9624 -5.434 0.1473 0
M  V30 536 H 51.7644 -2.89146 0.526458 0
M  V30 537 H 49.2784 -1.57664 0.389342 0
M  V30 538 H 51.2754 -3.77209 -1.77536 0
M  V30 539 H 49.9354 -2.60654 -1.93623 0
M  V30 540 H 50.9464 -5.12077 0.774454 0
M  V30 541 H 47.6234 -3.89713 -1.49767 0
M  V30 542 H 49.0134 -6.53417 1.56513 0
M  V30 543 N 51.7335 -0.305618 -1.54608 0
M  V30 544 C 52.6655 0.602161 -2.21149 0
M  V30 545 C 53.6785 1.09394 -1.20569 0
M  V30 546 O 54.8675 1.0106 -1.47136 0
M  V30 547 C 51.9675 1.83692 -2.84799 0
M  V30 548 C 51.1405 1.48686 -4.11353 0
M  V30 549 C 50.1995 2.57725 -4.58764 0
M  V30 550 O 49.2255 2.22623 -5.23858 0
M  V30 551 N 50.4275 3.88346 -4.31471 0
M  V30 552 H 53.1925 0.0324966 -2.99682 0
M  V30 553 H 50.7535 -0.128021 -1.61393 0
M  V30 554 H 52.7455 2.55994 -3.13448 0
M  V30 555 H 51.3155 2.31486 -2.10078 0
M  V30 556 H 50.5355 0.596269 -3.89664 0
M  V30 557 H 51.8235 1.22842 -4.93748 0
M  V30 558 H 51.2215 4.19671 -3.79331 0
M  V30 559 H 49.7785 4.56932 -4.64818 0
M  V30 560 N 53.2116 1.57565 -0.0334293 0
M  V30 561 C 54.1416 2.13511 0.945265 0
M  V30 562 C 55.1226 1.05231 1.33643 0
M  V30 563 O 56.3076 1.33084 1.41429 0
M  V30 564 C 53.4376 2.6657 2.22616 0
M  V30 565 C 52.3916 3.79676 1.97561 0
M  V30 566 C 51.7176 4.1918 3.31952 0
M  V30 567 C 53.0176 5.0557 1.31135 0
M  V30 568 H 54.7116 2.95538 0.479325 0
M  V30 569 H 52.2576 1.42166 0.229115 0
M  V30 570 H 54.2106 3.04344 2.91466 0
M  V30 571 H 52.9346 1.8171 2.71384 0
M  V30 572 H 51.5936 3.42347 1.31127 0
M  V30 573 H 51.2416 3.31296 3.78487 0
M  V30 574 H 50.9416 4.95402 3.15992 0
M  V30 575 H 52.4656 4.59541 4.02063 0
M  V30 576 H 53.8796 5.40903 1.89992 0
M  V30 577 H 52.2766 5.86818 1.25559 0
M  V30 578 H 53.3466 4.84062 0.284894 0
M  V30 579 N 54.6897 -0.239769 1.55765 0
M  V30 580 C 55.9177 -0.98417 1.81994 0
M  V30 581 C 56.3327 -1.7867 0.610124 0
M  V30 582 O 55.6897 -1.77571 -0.421271 0
M  V30 583 C 55.7407 -1.91635 3.06526 0
M  V30 584 O 55.4617 -1.14629 4.22838 0
M  V30 585 C 56.9627 -2.77616 3.45607 0
M  V30 586 H 54.1827 -0.28928 0.605441 0
M  V30 587 H 56.7267 -0.260499 2.02834 0
M  V30 588 H 54.8817 -2.5942 2.87715 0
M  V30 589 H 55.2957 -1.77745 4.93464 0
M  V30 590 H 56.7697 -3.38759 4.35828 0
M  V30 591 H 57.2467 -3.4909 2.6652 0
M  V30 592 H 57.8527 -2.15271 3.66795 0
M  V30 593 N 56.1678 -1.49265 -0.50573 0
M  V30 594 C 57.4158 -1.582 -1.25766 0
M  V30 595 C 57.7368 -0.268482 -1.93143 0
M  V30 596 O 57.0068 0.711833 -1.8251 0
M  V30 597 H 55.5868 -0.582873 -0.467191 0
M  V30 598 H 58.2488 -1.85865 -0.586525 0
M  V30 599 H 57.3448 -2.37563 -2.02412 0
M  V30 600 N 57.6459 0.756429 -1.3826 0
M  V30 601 C 58.5959 1.86069 -1.31766 0
M  V30 602 C 59.5799 1.59621 -0.202483 0
M  V30 603 O 60.7719 1.7149 -0.438211 0
M  V30 604 C 57.9009 3.23742 -1.1422 0
M  V30 605 C 56.9869 3.56091 -2.30348 0
M  V30 606 N 57.3779 3.59517 -3.55783 0
M  V30 607 C 55.6759 3.86341 -2.22838 0
M  V30 608 C 56.3769 3.89052 -4.32451 0
M  V30 609 N 55.3529 4.05736 -3.61772 0
M  V30 610 H 59.1549 1.86992 -2.26741 0
M  V30 611 H 56.6689 0.953643 -1.31451 0
M  V30 612 H 58.6659 4.02761 -1.07652 0
M  V30 613 H 57.3259 3.24073 -0.201763 0
M  V30 614 H 58.3369 3.41347 -3.89491 0
M  V30 615 H 55.0139 3.94404 -1.36937 0
M  V30 616 H 56.4039 3.98349 -5.4108 0
M  V30 617 N 59.124 1.23083 0.984299 0
M  V30 618 C 60.071 1.00854 2.07598 0
M  V30 619 C 61.041 -0.0726709 1.65941 0
M  V30 620 O 62.226 0.0786535 1.90638 0
M  V30 621 C 59.366 0.601645 3.39815 0
M  V30 622 C 58.479 1.75456 3.94765 0
M  V30 623 C 57.614 1.29482 5.15177 0
M  V30 624 C 56.653 2.41873 5.62284 0
M  V30 625 N 55.79 1.96885 6.73929 0
M  V30 626 H 60.63 1.943 2.25946 0
M  V30 627 H 58.167 0.968001 1.10762 0
M  V30 628 H 60.125 0.346854 4.15756 0
M  V30 629 H 58.755 -0.295803 3.21442 0
M  V30 630 H 57.807 2.12346 3.15616 0
M  V30 631 H 59.119 2.59965 4.25699 0
M  V30 632 H 58.273 0.997923 5.98437 0
M  V30 633 H 57.012 0.420046 4.85888 0
M  V30 634 H 56.017 2.72342 4.77608 0
M  V30 635 H 57.242 3.29881 5.93595 0
M  V30 636 H 55.188 1.11782 6.46406 0
M  V30 637 H 55.105 2.74956 7.04227 0
M  V30 638 H 56.373 1.70289 7.60672 0
M  V30 639 N 60.6021 -1.18246 1.0419 0
M  V30 640 C 61.8481 -1.88536 0.747122 0
M  V30 641 C 62.1811 -1.80223 -0.723409 0
M  V30 642 O 61.4561 -1.20337 -1.52804 0
M  V30 643 C 61.7391 -3.38968 1.21544 0
M  V30 644 C 61.5921 -3.56084 2.74816 0
M  V30 645 C 62.9111 -4.32648 0.806482 0
M  V30 646 H 60.0301 -0.684619 0.272883 0
M  V30 647 H 62.6721 -1.39113 1.29413 0
M  V30 648 H 60.8221 -3.8119 0.750081 0
M  V30 649 H 62.4941 -3.22946 3.29399 0
M  V30 650 H 60.7371 -2.98699 3.14582 0
M  V30 651 H 61.4081 -4.61639 3.02644 0
M  V30 652 H 63.8841 -3.98211 1.20695 0
M  V30 653 H 62.7601 -5.36462 1.1619 0
M  V30 654 H 63.0211 -4.41146 -0.29029 0
M  V30 655 N 62.0802 -0.821533 -1.34494 0
M  V30 656 C 63.0432 -0.247847 -2.27856 0
M  V30 657 C 64.0432 0.573453 -1.50227 0
M  V30 658 O 65.2332 0.389759 -1.69784 0
M  V30 659 C 62.3652 0.652698 -3.34593 0
M  V30 660 H 63.5582 -1.07146 -2.80107 0
M  V30 661 H 61.1112 -0.593291 -1.44602 0
M  V30 662 H 61.8462 1.49943 -2.87555 0
M  V30 663 H 61.6312 0.065292 -3.92046 0
M  V30 664 H 63.1212 1.04793 -4.04238 0
M  V30 665 N 63.5583 1.46682 -0.576371 0
M  V30 666 C 64.8043 2.02712 -0.0596221 0
M  V30 667 C 65.1373 1.44765 1.29448 0
M  V30 668 O 64.4123 0.610355 1.84675 0
M  V30 669 C 64.6953 3.60098 0.0129503 0
M  V30 670 C 64.5483 4.28441 -1.3696 0
M  V30 671 C 65.8673 4.34224 0.71678 0
M  V30 672 H 62.9863 0.736637 -0.0231407 0
M  V30 673 H 65.6283 1.74898 -0.742351 0
M  V30 674 H 63.7783 3.83926 0.594378 0
M  V30 675 H 65.4503 4.15896 -1.9957 0
M  V30 676 H 63.6933 3.8805 -1.93907 0
M  V30 677 H 64.3643 5.3716 -1.27135 0
M  V30 678 H 66.8403 4.15503 0.222908 0
M  V30 679 H 65.7163 5.43936 0.73657 0
M  V30 680 H 65.9773 4.04823 1.77682 0
M  V30 681 N 65.0364 0.313813 1.54444 0
M  V30 682 C 65.9834 -0.55655 2.23989 0
M  V30 683 C 66.9534 -1.11943 1.22711 0
M  V30 684 O 68.1384 -1.16158 1.51367 0
M  V30 685 C 65.2784 -1.71635 2.99392 0
M  V30 686 C 64.3914 -1.18364 4.15468 0
M  V30 687 C 63.5264 -2.30834 4.78424 0
M  V30 688 C 62.5654 -1.74762 5.86622 0
M  V30 689 N 61.7024 -2.80855 6.43479 0
M  V30 690 H 66.5424 0.0430893 2.97969 0
M  V30 691 H 64.0794 0.0330359 1.47063 0
M  V30 692 H 66.0374 -2.39868 3.41349 0
M  V30 693 H 64.6674 -2.28742 2.27765 0
M  V30 694 H 63.7194 -0.393163 3.78363 0
M  V30 695 H 65.0314 -0.733262 4.93381 0
M  V30 696 H 64.1854 -3.0699 5.23299 0
M  V30 697 H 62.9244 -2.79204 3.99871 0
M  V30 698 H 61.9294 -0.970995 5.41158 0
M  V30 699 H 63.1544 -1.2728 6.67066 0
M  V30 700 H 61.1004 -3.28535 5.67804 0
M  V30 701 H 61.0174 -2.40351 7.16776 0
M  V30 702 H 62.2854 -3.5687 6.93011 0
M  V30 703 N 66.5145 -1.57545 0.0417849 0
M  V30 704 C 67.7635 -1.91494 -0.633492 0
M  V30 705 C 68.0765 -0.921084 -1.72556 0
M  V30 706 O 69.2825 -1.15228 -2.45835 0
M  V30 707 C 67.7385 -3.40072 -1.17808 0
M  V30 708 C 67.3465 -4.47843 -0.118633 0
M  V30 709 C 69.0905 -3.8307 -1.82915 0
M  V30 710 C 66.9975 -5.87529 -0.675578 0
M  V30 711 H 65.9275 -0.714653 -0.24039 0
M  V30 712 H 68.5785 -1.83175 0.109148 0
M  V30 713 H 66.9605 -3.43364 -1.97274 0
M  V30 714 H 68.1345 -4.56128 0.654494 0
M  V30 715 H 66.4495 -4.14128 0.434414 0
M  V30 716 H 69.0465 -4.84794 -2.25563 0
M  V30 717 H 69.3895 -3.1881 -2.67705 0
M  V30 718 H 69.9225 -3.82255 -1.10119 0
M  V30 719 H 66.6615 -6.55362 0.134475 0
M  V30 720 H 66.1815 -5.82824 -1.4169 0
M  V30 721 H 67.8605 -6.36491 -1.1614 0
M  V30 722 N 67.9926 0.231505 -1.5589 0
M  V30 723 C 68.9226 1.29022 -1.94617 0
M  V30 724 C 69.9036 1.4941 -0.813067 0
M  V30 725 O 71.0886 1.6176 -1.07459 0
M  V30 726 C 68.2186 2.64199 -2.25424 0
M  V30 727 C 67.1726 2.58484 -3.41131 0
M  V30 728 C 66.4986 3.97599 -3.57518 0
M  V30 729 C 67.7986 2.1413 -4.76388 0
M  V30 730 H 69.4926 0.968563 -2.83301 0
M  V30 731 H 67.0386 0.464479 -1.36303 0
M  V30 732 H 68.9916 3.38413 -2.51107 0
M  V30 733 H 67.7156 2.98032 -1.33583 0
M  V30 734 H 66.3746 1.86727 -3.15481 0
M  V30 735 H 66.0226 4.28723 -2.6307 0
M  V30 736 H 65.7226 3.94659 -4.35337 0
M  V30 737 H 67.2466 4.7349 -3.85538 0
M  V30 738 H 68.6606 2.78083 -5.01341 0
M  V30 739 H 67.0576 2.2227 -5.57419 0
M  V30 740 H 68.1276 1.09331 -4.72414 0
M  V30 741 N 69.4707 1.49531 0.497807 0
M  V30 742 C 70.4187 1.66926 1.61983 0
M  V30 743 C 71.4127 0.535167 1.60724 0
M  V30 744 O 72.6187 0.714896 1.65195 0
M  V30 745 H 68.9937 0.526415 0.537021 0
M  V30 746 H 70.9647 2.61098 1.44465 0
M  V30 747 C 69.7137 1.75602 3.00099 0
M  V30 748 H 69.0367 2.62244 3.01775 0
M  V30 749 H 70.4767 1.91807 3.78135 0
M  V30 750 C 68.9357 0.501543 3.33146 0
M  V30 751 O 69.4657 -0.371342 3.9998 0
M  V30 752 N 67.6717 0.363531 2.88317 0
M  V30 753 H 67.2187 1.07485 2.34104 0
M  V30 754 H 67.1767 -0.474728 3.10795 0
M  V30 755 N 70.9488 -0.749086 1.3866 0
M  V30 756 C 72.3648 -1.05276 1.19955 0
M  V30 757 C 72.5648 -2.01435 0.05134 0
M  V30 758 O 71.6208 -2.45232 -0.60147 0
M  V30 759 C 72.9338 -1.62853 2.52783 0
M  V30 760 C 74.4818 -1.75002 2.59506 0
M  V30 761 C 74.9568 -2.35991 3.92521 0
M  V30 762 N 76.4478 -2.43416 3.94085 0
M  V30 763 C 77.1828 -2.91511 4.9377 0
M  V30 764 N 76.6788 -3.39608 6.03853 0
M  V30 765 N 78.4718 -2.90592 4.81157 0
M  V30 766 H 70.6228 -0.111066 2.12109 0
M  V30 767 H 72.8858 -0.111901 0.941373 0
M  V30 768 H 72.5918 -0.99664 3.37283 0
M  V30 769 H 72.4658 -2.61854 2.715 0
M  V30 770 H 74.8528 -2.37317 1.75398 0
M  V30 771 H 74.9338 -0.74693 2.44652 0
M  V30 772 H 74.5778 -1.74308 4.77053 0
M  V30 773 H 74.5078 -3.3695 4.04688 0
M  V30 774 H 76.9988 -2.09405 3.14576 0
M  V30 775 H 77.3118 -3.74775 6.75843 0
M  V30 776 H 75.6568 -3.37653 6.07466 0
M  V30 777 H 78.8478 -2.52332 3.94267 0
M  V30 778 H 79.0208 -3.27762 5.58996 0
M  V30 779 N 72.4269 -1.23603 -0.977757 0
M  V30 780 C 73.3589 -0.977369 -2.07317 0
M  V30 781 C 74.3719 0.0495845 -1.62724 0
M  V30 782 O 75.5609 -0.186261 -1.77526 0
M  V30 783 C 72.6609 -0.451216 -3.35883 0
M  V30 784 C 71.8339 -1.53896 -4.09432 0
M  V30 785 C 70.8929 -1.01721 -5.16274 0
M  V30 786 O 69.9189 -1.70676 -5.43009 0
M  V30 787 N 71.1209 0.153594 -5.80297 0
M  V30 788 H 73.8859 -1.92047 -2.30082 0
M  V30 789 H 71.4469 -1.14497 -1.14465 0
M  V30 790 H 73.4389 -0.0871574 -4.04606 0
M  V30 791 H 72.0089 0.397368 -3.10064 0
M  V30 792 H 71.2289 -2.07566 -3.35127 0
M  V30 793 H 72.5169 -2.27037 -4.55337 0
M  V30 794 H 71.9149 0.730323 -5.60966 0
M  V30 795 H 70.4719 0.458892 -6.50183 0
M  V30 796 N 73.905 1.17692 -1.04816 0
M  V30 797 C 74.852 2.21581 -0.645797 0
M  V30 798 C 75.822 1.62367 0.350159 0
M  V30 799 O 77.007 1.89254 0.242433 0
M  V30 800 C 74.147 3.45092 -0.0227568 0
M  V30 801 C 73.26 4.18613 -1.06709 0
M  V30 802 C 72.395 5.29602 -0.411767 0
M  V30 803 C 71.434 5.94904 -1.44067 0
M  V30 804 N 70.571 6.97414 -0.809781 0
M  V30 805 H 75.411 2.55353 -1.5362 0
M  V30 806 H 72.948 1.25438 -0.768364 0
M  V30 807 H 74.906 4.15679 0.35588 0
M  V30 808 H 73.536 3.11917 0.831122 0
M  V30 809 H 72.588 3.46779 -1.5636 0
M  V30 810 H 73.9 4.63293 -1.84827 0
M  V30 811 H 73.054 6.06696 0.0206623 0
M  V30 812 H 71.793 4.86045 0.401438 0
M  V30 813 H 70.798 5.16544 -1.88316 0
M  V30 814 H 72.023 6.40542 -2.25571 0
M  V30 815 H 69.969 6.55998 -0.0170186 0
M  V30 816 H 69.886 7.40386 -1.52856 0
M  V30 817 H 71.154 7.78463 -0.401999 0
M  V30 818 N 75.3831 0.828654 1.34056 0
M  V30 819 C 76.6321 0.415828 1.97367 0
M  V30 820 C 76.9451 -1.02796 1.6641 0
M  V30 821 O 78.1511 -1.54497 2.23255 0
M  V30 822 C 76.6071 0.692601 3.53173 0
M  V30 823 C 76.2151 2.15038 3.93017 0
M  V30 824 C 77.9591 0.346222 4.23086 0
M  V30 825 C 75.8661 2.37174 5.41758 0
M  V30 826 H 74.7961 0.151755 0.738571 0
M  V30 827 H 77.4471 1.01581 1.52819 0
M  V30 828 H 75.8291 0.0223764 3.95994 0
M  V30 829 H 77.0031 2.86024 3.61285 0
M  V30 830 H 75.3181 2.45875 3.36057 0
M  V30 831 H 77.9151 0.48937 5.32456 0
M  V30 832 H 78.2581 -0.709842 4.10204 0
M  V30 833 H 78.7911 0.971258 3.85761 0
M  V30 834 H 75.5301 3.41308 5.59633 0
M  V30 835 H 75.0501 1.70738 5.74986 0
M  V30 836 H 76.7291 2.19818 6.08514 0
M  V30 837 N 76.8612 -1.46375 0.584142 0
M  V30 838 C 78.2772 -1.57694 0.245929 0
M  V30 839 C 78.4772 -1.57903 -1.25175 0
M  V30 840 O 77.5332 -1.49676 -2.03355 0
M  V30 841 C 78.8462 -2.87028 0.896402 0
M  V30 842 C 80.3942 -3.00662 0.870127 0
M  V30 843 C 80.8692 -4.32734 1.50017 0
M  V30 844 N 82.3602 -4.39436 1.46458 0
M  V30 845 C 83.0952 -5.40248 1.92144 0
M  V30 846 N 82.5912 -6.47726 2.4581 0
M  V30 847 N 84.3842 -5.31459 1.83052 0
M  V30 848 H 76.5352 -1.44483 1.55687 0
M  V30 849 H 78.7982 -0.689291 0.650831 0
M  V30 850 H 78.5042 -2.9269 1.95002 0
M  V30 851 H 78.3782 -3.75014 0.405486 0
M  V30 852 H 80.7652 -2.94581 -0.174871 0
M  V30 853 H 80.8462 -2.14148 1.39908 0
M  V30 854 H 80.4902 -4.39573 2.54437 0
M  V30 855 H 80.4202 -5.18025 0.946432 0
M  V30 856 H 82.9112 -3.62367 1.07231 0
M  V30 857 H 83.2242 -7.20863 2.78525 0
M  V30 858 H 81.5692 -6.48542 2.49836 0
M  V30 859 H 84.7602 -4.46396 1.40883 0
M  V30 860 H 84.9332 -6.09881 2.18973 0
M  V30 861 N 78.3393 -0.321999 -1.54275 0
M  V30 862 C 79.5643 0.285791 -2.05422 0
M  V30 863 C 79.9893 1.45124 -1.19669 0
M  V30 864 O 79.3473 1.80132 -0.205441 0
M  V30 865 C 79.3953 0.69956 -3.53749 0
M  V30 866 O 78.4993 1.8021 -3.70942 0
M  V30 867 H 77.8403 0.0518962 -0.661969 0
M  V30 868 H 80.3703 -0.469954 -1.9913 0
M  V30 869 H 80.3803 0.982649 -3.9599 0
M  V30 870 H 79.0553 -0.152864 -4.15619 0
M  V30 871 H 77.6323 1.51794 -3.40607 0
M  V30 872 N 79.8174 1.5752 -0.0501392 0
M  V30 873 C 80.7474 2.14502 0.922566 0
M  V30 874 C 81.7284 1.06642 1.3252 0
M  V30 875 O 82.9134 1.34577 1.4001 0
M  V30 876 C 80.0434 2.68916 2.19776 0
M  V30 877 C 78.9974 3.8175 1.93523 0
M  V30 878 C 78.3234 4.22677 3.27487 0
M  V30 879 C 79.6234 5.06932 1.25765 0
M  V30 880 H 81.3174 2.9603 0.447952 0
M  V30 881 H 78.8634 1.42401 0.214024 0
M  V30 882 H 80.8164 3.07419 2.88222 0
M  V30 883 H 79.5404 1.84578 2.69441 0
M  V30 884 H 78.1994 3.43718 1.27489 0
M  V30 885 H 77.8474 3.35291 3.74952 0
M  V30 886 H 77.5474 4.98725 3.1072 0
M  V30 887 H 79.0714 4.63779 3.97166 0
M  V30 888 H 80.4854 5.42888 1.84244 0
M  V30 889 H 78.8824 5.88116 1.19328 0
M  V30 890 H 79.9524 4.84337 0.233536 0
M  V30 891 N 81.2955 -0.223234 1.56011 0
M  V30 892 C 82.5725 -0.972108 1.69733 0
M  V30 893 C 82.9525 -2.02485 0.59691 0
M  V30 894 O 82.3005 -2.25037 -0.396324 0
M  V30 895 C 82.5105 -1.58407 3.10979 0
M  V30 896 C 83.8585 -2.07696 3.70334 0
M  V30 897 O 84.8825 -1.68304 3.1393 0
M  V30 898 O 83.7415 -2.80096 4.69264 0
M  V30 899 H 80.8355 -0.453993 0.691245 0
M  V30 900 H 83.3815 -0.215149 1.68331 0
M  V30 901 H 82.1535 -0.823831 3.82529 0
M  V30 902 H 81.7765 -2.40661 3.16493 0
M  V30 903 N 82.7736 -1.49793 -0.48987 0
M  V30 904 C 84.0196 -1.60078 -1.24511 0
M  V30 905 C 84.3526 -0.291608 -1.91998 0
M  V30 906 O 83.6276 0.705647 -1.81248 0
M  V30 907 C 83.9106 -2.76791 -2.30345 0
M  V30 908 C 83.7636 -4.17535 -1.67286 0
M  V30 909 C 85.0826 -2.89111 -3.31817 0
M  V30 910 H 82.2016 -0.582645 -0.451324 0
M  V30 911 H 84.8436 -1.82117 -0.541612 0
M  V30 912 H 82.9936 -2.5813 -2.90346 0
M  V30 913 H 84.6656 -4.4774 -1.11026 0
M  V30 914 H 82.9086 -4.22665 -0.976577 0
M  V30 915 H 83.5796 -4.95094 -2.44103 0
M  V30 916 H 86.0556 -3.06133 -2.81819 0
M  V30 917 H 84.9316 -3.72433 -4.03219 0
M  V30 918 H 85.1926 -1.9893 -3.94815 0
M  V30 919 N 84.2517 0.741722 -1.39055 0
M  V30 920 C 85.4977 1.50336 -1.36113 0
M  V30 921 C 85.8307 1.94148 0.0450796 0
M  V30 922 O 85.1057 1.66301 1.00868 0
M  V30 923 C 85.3887 2.74773 -2.32749 0
M  V30 924 C 85.2417 2.37023 -3.82283 0
M  V30 925 C 86.5607 3.76846 -2.27322 0
M  V30 926 H 83.6797 0.545351 -0.495743 0
M  V30 927 H 86.3217 0.848624 -1.69995 0
M  V30 928 H 84.4717 3.30639 -2.03986 0
M  V30 929 H 86.1437 1.8684 -4.21768 0
M  V30 930 H 84.3867 1.69334 -3.99385 0
M  V30 931 H 85.0577 3.26104 -4.45376 0
M  V30 932 H 87.5337 3.30548 -2.5274 0
M  V30 933 H 86.4097 4.6159 -2.97028 0
M  V30 934 H 86.6707 4.23286 -1.27599 0
M  V30 935 N 85.7298 1.2412 0.971189 0
M  V30 936 C 86.9778 1.07668 1.71032 0
M  V30 937 C 87.2988 -0.385797 1.91146 0
M  V30 938 O 86.5688 -1.27569 1.4867 0
M  V30 939 H 85.1488 0.395429 0.633755 0
M  V30 940 H 87.8108 1.55984 1.16855 0
M  V30 941 H 86.9068 1.57195 2.69622 0
M  V30 942 N 87.2079 -1.17134 1.05439 0
M  V30 943 C 88.1549 -2.21235 0.657539 0
M  V30 944 C 89.1249 -1.62551 -0.341543 0
M  V30 945 O 90.3099 -1.89379 -0.232393 0
M  V30 946 C 87.4499 -3.45076 0.0410575 0
M  V30 947 C 86.5629 -4.18042 1.08927 0
M  V30 948 C 85.6979 -5.29376 0.439848 0
M  V30 949 C 84.7369 -5.94132 1.4722 0
M  V30 950 N 83.8739 -6.96975 0.846756 0
M  V30 951 H 88.7139 -2.54534 1.54972 0
M  V30 952 H 86.2509 -1.25028 0.775006 0
M  V30 953 H 88.2089 -4.15862 -0.33383 0
M  V30 954 H 86.8389 -3.12353 -0.814568 0
M  V30 955 H 85.8909 -3.45945 1.58196 0
M  V30 956 H 87.2029 -4.62306 1.87282 0
M  V30 957 H 86.3569 -6.06699 0.0115125 0
M  V30 958 H 85.0959 -4.86251 -0.375656 0
M  V30 959 H 84.1009 -5.15538 1.91052 0
M  V30 960 H 85.3259 -6.39337 2.28965 0
M  V30 961 H 83.2719 -6.5598 0.0518075 0
M  V30 962 H 83.1889 -7.39565 1.5678 0
M  V30 963 H 84.4569 -7.78239 0.443277 0
M  V30 964 N 88.686 -0.835752 -1.33615 0
M  V30 965 C 89.935 -0.426289 -1.97144 0
M  V30 966 C 90.248 1.01912 -1.66953 0
M  V30 967 O 91.454 1.53311 -2.24072 0
M  V30 968 C 89.91 -0.711321 -3.52801 0
M  V30 969 C 89.518 -2.1712 -3.91871 0
M  V30 970 C 91.262 -0.368654 -4.22896 0
M  V30 971 C 89.169 -2.40044 -5.40493 0
M  V30 972 H 88.099 -0.15567 -0.737755 0
M  V30 973 H 90.75 -1.0239 -1.52278 0
M  V30 974 H 89.132 -0.0433766 -3.95976 0
M  V30 975 H 90.306 -2.87936 -3.59763 0
M  V30 976 H 88.621 -2.47654 -3.34749 0
M  V30 977 H 91.218 -0.517601 -5.32189 0
M  V30 978 H 91.561 0.688078 -4.10574 0
M  V30 979 H 92.094 -0.991702 -3.8524 0
M  V30 980 H 88.833 -3.44271 -5.57815 0
M  V30 981 H 88.353 -1.73785 -5.74072 0
M  V30 982 H 90.032 -2.23042 -6.0734 0
M  V30 983 N 90.1641 1.46063 -0.591896 0
M  V30 984 C 91.1111 2.30399 0.136069 0
M  V30 985 C 92.0811 1.41169 0.875238 0
M  V30 986 O 93.2661 1.70112 0.86409 0
M  V30 987 C 90.4061 3.25804 1.13781 0
M  V30 988 C 89.5191 4.30134 0.401137 0
M  V30 989 C 88.6541 5.12659 1.39121 0
M  V30 990 C 87.6931 6.0873 0.641462 0
M  V30 991 N 86.8301 6.8409 1.58004 0
M  V30 992 H 91.6701 2.92118 -0.589144 0
M  V30 993 H 89.2071 1.43959 -0.302342 0
M  V30 994 H 91.1651 3.79569 1.73156 0
M  V30 995 H 89.7951 2.65872 1.83062 0
M  V30 996 H 88.8471 3.79152 -0.307826 0
M  V30 997 H 90.1591 4.98458 -0.184565 0
M  V30 998 H 89.3131 5.70747 2.05749 0
M  V30 999 H 88.0521 4.44316 2.01084 0
M  V30 1000 H 87.0571 5.49786 -0.0385419 0
M  V30 1001 H 88.2821 6.79095 0.0270945 0
M  V30 1002 H 86.2281 6.18449 2.18761 0
M  V30 1003 H 86.1451 7.48709 1.04738 0
M  V30 1004 H 87.4131 7.4673 2.23639 0
M  V30 1005 N 91.6422 0.330177 1.54103 0
M  V30 1006 C 93.0582 -0.0222371 1.59585 0
M  V30 1007 C 93.2582 -1.49902 1.34654 0
M  V30 1008 O 92.3142 -2.25592 1.13421 0
M  V30 1009 C 93.6272 0.401932 2.98002 0
M  V30 1010 C 95.1752 0.353145 3.11001 0
M  V30 1011 C 95.6502 0.752576 4.51775 0
M  V30 1012 N 97.1412 0.706239 4.57784 0
M  V30 1013 C 97.8762 0.987417 5.64834 0
M  V30 1014 N 97.3722 1.33607 6.79795 0
M  V30 1015 N 99.1652 0.91254 5.54643 0
M  V30 1016 H 91.3162 1.29228 1.68564 0
M  V30 1017 H 93.5792 0.525906 0.78875 0
M  V30 1018 H 93.2852 1.4311 3.21267 0
M  V30 1019 H 93.1592 -0.229699 3.765 0
M  V30 1020 H 95.5462 -0.666822 2.87467 0
M  V30 1021 H 95.6272 1.0198 2.34593 0
M  V30 1022 H 95.2712 1.77049 4.76042 0
M  V30 1023 H 95.2012 0.0635409 5.26562 0
M  V30 1024 H 97.6922 0.44889 3.75224 0
M  V30 1025 H 98.0052 1.53582 7.57385 0
M  V30 1026 H 96.3502 1.37439 6.81275 0
M  V30 1027 H 99.5412 0.639601 4.6371 0
M  V30 1028 H 99.7142 1.13503 6.37982 0
M  V30 1029 N 93.1203 -1.57491 0.0584922 0
M  V30 1030 C 94.0303 -2.15448 -0.928414 0
M  V30 1031 C 95.0463 -1.11416 -1.3365 0
M  V30 1032 O 96.2223 -1.4362 -1.41193 0
M  V30 1033 C 93.2873 -2.69393 -2.18239 0
M  V30 1034 C 92.3483 -3.88249 -1.83196 0
M  V30 1035 C 91.5813 -4.39613 -3.02616 0
M  V30 1036 O 91.8043 -3.90023 -4.16219 0
M  V30 1037 O 90.7383 -5.31111 -2.83204 0
M  V30 1038 H 94.5643 -3.00112 -0.465483 0
M  V30 1039 H 92.1493 -1.48499 -0.163826 0
M  V30 1040 H 94.0313 -3.04026 -2.91798 0
M  V30 1041 H 92.7063 -1.87796 -2.63656 0
M  V30 1042 H 91.6133 -3.58492 -1.06931 0
M  V30 1043 H 92.9463 -4.71098 -1.42573 0
M  V30 1044 N 94.5984 0.214957 -1.56127 0
M  V30 1045 C 95.8474 0.936451 -1.78643 0
M  V30 1046 C 96.1604 1.85237 -0.628229 0
M  V30 1047 O 97.3664 2.613 -0.737186 0
M  V30 1048 C 95.8224 1.7154 -3.16389 0
M  V30 1049 C 95.4304 0.845299 -4.39953 0
M  V30 1050 C 97.1744 2.42772 -3.48227 0
M  V30 1051 C 95.0814 1.62198 -5.68723 0
M  V30 1052 H 94.0114 0.353401 -0.666051 0
M  V30 1053 H 96.6624 0.190169 -1.82512 0
M  V30 1054 H 95.0444 2.50484 -3.06715 0
M  V30 1055 H 96.2184 0.0959353 -4.607 0
M  V30 1056 H 94.5334 0.244789 -4.1568 0
M  V30 1057 H 97.1304 3.01394 -4.41663 0
M  V30 1058 H 97.4734 3.15984 -2.71035 0
M  V30 1059 H 98.0064 1.70813 -3.5926 0
M  V30 1060 H 94.7454 0.933011 -6.48826 0
M  V30 1061 H 94.2654 2.34579 -5.52026 0
M  V30 1062 H 95.9444 2.18095 -6.09133 0
M  V30 1063 N 96.0765 1.50051 0.48192 0
M  V30 1064 C 97.0085 1.64263 1.59844 0
M  V30 1065 C 98.0215 0.52451 1.54119 0
M  V30 1066 O 99.2105 0.797293 1.59704 0
M  V30 1067 C 96.3105 1.60102 2.98698 0
M  V30 1068 C 95.4835 2.87767 3.29407 0
M  V30 1069 C 94.5425 2.76397 4.47762 0
M  V30 1070 O 93.5685 3.50348 4.48603 0
M  V30 1071 N 94.7705 1.89222 5.48794 0
M  V30 1072 H 97.5355 2.60566 1.48073 0
M  V30 1073 H 95.0965 1.47379 0.670149 0
M  V30 1074 H 97.0885 1.50123 3.75826 0
M  V30 1075 H 95.6585 0.715798 3.04294 0
M  V30 1076 H 94.8785 3.11954 2.40994 0
M  V30 1077 H 96.1665 3.72365 3.4673 0
M  V30 1078 H 95.5645 1.28434 5.50928 0
M  V30 1079 H 94.1215 1.85154 6.24949 0
M  V30 1080 N 97.5546 -0.734337 1.39446 0
M  V30 1081 C 98.5026 -1.86971 1.38364 0
M  V30 1082 C 99.4966 -1.67288 0.266687 0
M  V30 1083 O 100.703 -1.74621 0.436755 0
M  V30 1084 H 97.0776 -0.615474 0.432082 0
M  V30 1085 H 99.0486 -1.85 2.34132 0
M  V30 1086 C 97.7976 -3.2466 1.24465 0
M  V30 1087 H 97.1206 -3.40402 2.09682 0
M  V30 1088 H 98.5606 -4.04292 1.27764 0
M  V30 1089 C 97.0196 -3.36867 -0.0468674 0
M  V30 1090 O 97.5496 -3.88618 -1.01681 0
M  V30 1091 N 95.7556 -2.90391 -0.110145 0
M  V30 1092 H 95.3026 -2.48466 0.679868 0
M  V30 1093 H 95.2606 -2.98939 -0.973799 0
M  V30 1094 N 99.0327 -1.24633 -0.964593 0
M  V30 1095 C 99.9627 -1.06611 -2.07741 0
M  V30 1096 C 100.944 0.0218666 -1.70086 0
M  V30 1097 O 102.129 -0.145793 -1.93652 0
M  V30 1098 C 99.2587 -0.673444 -3.40708 0
M  V30 1099 C 98.2127 -1.71054 -3.92332 0
M  V30 1100 C 97.5387 -1.17285 -5.21678 0
M  V30 1101 C 98.8387 -3.10718 -4.19824 0
M  V30 1102 H 100.533 -1.99693 -2.23076 0
M  V30 1103 H 98.0787 -0.96152 -1.07195 0
M  V30 1104 H 100.032 -0.534345 -4.17998 0
M  V30 1105 H 98.7557 0.293073 -3.25282 0
M  V30 1106 H 97.4147 -1.83791 -3.17201 0
M  V30 1107 H 97.0627 -0.196847 -5.02615 0
M  V30 1108 H 96.7627 -1.86592 -5.57187 0
M  V30 1109 H 98.2867 -1.04593 -6.01575 0
M  V30 1110 H 99.7007 -3.01192 -4.87808 0
M  V30 1111 H 98.0977 -3.77406 -4.66567 0
M  V30 1112 H 99.1677 -3.58524 -3.26479 0
M  V30 1113 N 100.511 1.16574 -1.06058 0
M  V30 1114 C 101.458 2.20883 -0.669263 0
M  V30 1115 C 102.428 1.62729 0.332918 0
M  V30 1116 O 103.613 1.895 0.222346 0
M  V30 1117 C 100.753 3.45049 -0.0593572 0
M  V30 1118 C 99.8658 4.17458 -1.11143 0
M  V30 1119 C 99.0008 5.29135 -0.467916 0
M  V30 1120 C 98.0398 5.93343 -1.50369 0
M  V30 1121 N 97.1768 6.96516 -0.883706 0
M  V30 1122 H 102.017 2.53709 -1.5632 0
M  V30 1123 H 99.5538 1.24616 -0.781625 0
M  V30 1124 H 101.512 4.16033 0.311771 0
M  V30 1125 H 100.142 3.12781 0.797992 0
M  V30 1126 H 99.1938 3.45101 -1.60029 0
M  V30 1127 H 100.506 4.61307 -1.89731 0
M  V30 1128 H 99.6598 6.06684 -0.0436871 0
M  V30 1129 H 98.3988 4.86443 0.349864 0
M  V30 1130 H 97.4038 5.14517 -1.93784 0
M  V30 1131 H 98.6288 6.38114 -2.32352 0
M  V30 1132 H 96.5748 6.55943 -0.086595 0
M  V30 1133 H 96.4918 7.38723 -1.607 0
M  V30 1134 H 97.7598 7.77993 -0.484543 0
M  V30 1135 N 101.989 0.842826 1.3317 0
M  V30 1136 C 102.919 0.294028 2.31641 0
M  V30 1137 C 103.9 -0.600401 1.59151 0
M  V30 1138 O 105.085 -0.523124 1.87022 0
M  V30 1139 C 102.215 -0.528416 3.43257 0
M  V30 1140 C 101.169 0.27056 4.27144 0
M  V30 1141 C 100.495 -0.675881 5.30411 0
M  V30 1142 C 101.795 1.48981 5.00602 0
M  V30 1143 H 103.489 1.11681 2.77791 0
M  V30 1144 H 101.035 0.538478 1.33553 0
M  V30 1145 H 102.988 -0.922674 4.11175 0
M  V30 1146 H 101.712 -1.38445 2.95805 0
M  V30 1147 H 100.371 0.646427 3.60856 0
M  V30 1148 H 100.019 -1.52842 4.79216 0
M  V30 1149 H 99.7189 -0.145374 5.8742 0
M  V30 1150 H 101.243 -1.06757 6.01195 0
M  V30 1151 H 102.657 1.16849 5.61266 0
M  V30 1152 H 101.054 1.95739 5.6728 0
M  V30 1153 H 102.124 2.25746 4.29147 0
M  V30 1154 N 103.467 -1.45747 0.599634 0
M  V30 1155 C 104.714 -2.02292 0.0917284 0
M  V30 1156 C 105.042 -1.46906 -1.27472 0
M  V30 1157 O 104.297 -0.630652 -1.8526 0
M  V30 1158 C 104.596 -3.57399 -0.00602758 0
M  V30 1159 C 104.262 -4.31902 1.29503 0
M  V30 1160 C 102.924 -4.51974 1.65144 0
M  V30 1161 C 105.276 -4.74551 2.15525 0
M  V30 1162 C 102.604 -5.11949 2.86574 0
M  V30 1163 C 104.956 -5.35868 3.36196 0
M  V30 1164 C 103.62 -5.54165 3.72099 0
M  V30 1165 H 102.89 -0.740239 0.0335658 0
M  V30 1166 H 105.537 -1.7491 0.779661 0
M  V30 1167 H 103.842 -3.84014 -0.777183 0
M  V30 1168 H 105.539 -3.98846 -0.415038 0
M  V30 1169 H 102.129 -4.16588 1.00761 0
M  V30 1170 H 106.313 -4.58784 1.8929 0
M  V30 1171 H 101.569 -5.24305 3.14507 0
M  V30 1172 H 105.743 -5.6787 4.03109 0
M  V30 1173 H 103.37 -6.00406 4.6628 0
M  V30 1174 N 104.945 -0.338344 -1.53925 0
M  V30 1175 C 106.361 0.0137736 -1.59594 0
M  V30 1176 C 106.561 1.49186 -1.35447 0
M  V30 1177 O 105.617 2.24987 -1.14616 0
M  V30 1178 C 106.93 -0.41773 -2.97784 0
M  V30 1179 C 108.478 -0.369633 -3.1081 0
M  V30 1180 C 108.953 -0.776524 -4.51369 0
M  V30 1181 N 110.444 -0.730506 -4.57403 0
M  V30 1182 C 111.179 -1.01736 -5.64303 0
M  V30 1183 N 110.675 -1.3721 -6.79077 0
M  V30 1184 N 112.468 -0.941942 -5.54151 0
M  V30 1185 H 104.619 -1.3012 -1.67876 0
M  V30 1186 H 106.882 -0.530082 -0.78595 0
M  V30 1187 H 106.588 -1.44811 -3.20504 0
M  V30 1188 H 106.462 0.209729 -3.76616 0
M  V30 1189 H 108.849 0.651568 -2.87817 0
M  V30 1190 H 108.93 -1.03223 -2.34049 0
M  V30 1191 H 108.574 -1.79571 -4.75096 0
M  V30 1192 H 108.504 -0.0914649 -5.26521 0
M  V30 1193 H 110.995 -0.468783 -3.74981 0
M  V30 1194 H 111.308 -1.57597 -7.5656 0
M  V30 1195 H 109.653 -1.4105 -6.80536 0
M  V30 1196 H 112.844 -0.664184 -4.63364 0
M  V30 1197 H 113.017 -1.16884 -6.37371 0
M  V30 1198 N 106.423 1.57458 -0.0668435 0
M  V30 1199 C 107.373 2.0896 0.912119 0
M  V30 1200 C 108.357 0.998186 1.26195 0
M  V30 1201 O 109.549 1.26133 1.24175 0
M  V30 1202 C 106.678 2.6508 2.18145 0
M  V30 1203 C 105.764 3.81218 1.85832 0
M  V30 1204 N 106.155 4.90378 1.23948 0
M  V30 1205 C 104.453 3.9042 2.15612 0
M  V30 1206 C 105.154 5.71279 1.09616 0
M  V30 1207 N 104.13 5.19389 1.60423 0
M  V30 1208 H 107.932 2.90749 0.42924 0
M  V30 1209 H 105.446 1.6182 0.137184 0
M  V30 1210 H 107.443 3.0029 2.89192 0
M  V30 1211 H 106.103 1.84736 2.67025 0
M  V30 1212 H 107.114 5.09847 0.909731 0
M  V30 1213 H 103.791 3.21043 2.66903 0
M  V30 1214 H 105.181 6.69085 0.614425 0
M  V30 1215 N 107.901 -0.206675 1.56239 0
M  V30 1216 C 109.312 -0.772383 1.69974 0
M  V30 1217 C 109.663 -1.84353 0.671436 0
M  V30 1218 O 108.788 -2.15695 -0.174491 0
M  V30 1219 C 109.383 -1.40779 3.08167 0
M  V30 1220 C 107.942 -1.92072 3.23706 0
M  V30 1221 C 107.089 -0.786347 2.65917 0
M  V30 1222 H 110.04 0.0182223 1.5869 0
M  V30 1223 H 110.061 -2.27696 3.04852 0
M  V30 1224 H 109.573 -0.627958 3.82986 0
M  V30 1225 H 107.674 -2.7281 2.53782 0
M  V30 1226 H 107.787 -2.09046 4.31087 0
M  V30 1227 H 106.151 -1.1976 2.24788 0
M  V30 1228 H 106.934 -0.0189416 3.43295 0
M  V30 1229 N 109.379 -1.50304 -0.473955 0
M  V30 1230 C 110.329 -1.65347 -1.56985 0
M  V30 1231 C 111.313 -0.508176 -1.52664 0
M  V30 1232 O 112.505 -0.762446 -1.59737 0
M  V30 1233 C 109.634 -1.74832 -2.95447 0
M  V30 1234 C 108.72 -2.95028 -3.04662 0
M  V30 1235 N 109.111 -4.18747 -2.83698 0
M  V30 1236 C 107.409 -2.93527 -3.35795 0
M  V30 1237 C 108.11 -4.99687 -2.97805 0
M  V30 1238 N 107.086 -4.33585 -3.2788 0
M  V30 1239 H 110.888 -2.58698 -1.39472 0
M  V30 1240 H 108.402 -1.47449 -0.680629 0
M  V30 1241 H 110.399 -1.83712 -3.7424 0
M  V30 1242 H 109.059 -0.826376 -3.14008 0
M  V30 1243 H 110.07 -4.48291 -2.59337 0
M  V30 1244 H 106.747 -2.10821 -3.60362 0
M  V30 1245 H 108.137 -6.08057 -2.85861 0
M  V30 1246 N 110.857 0.726932 -1.39834 0
M  V30 1247 C 112.106 1.48214 -1.36805 0
M  V30 1248 C 112.419 1.95576 0.0305291 0
M  V30 1249 O 113.625 2.7088 0.183417 0
M  V30 1250 C 112.081 2.67854 -2.40379 0
M  V30 1251 C 111.689 2.27408 -3.85992 0
M  V30 1252 C 113.433 3.45641 -2.46439 0
M  V30 1253 C 111.34 3.43819 -4.81189 0
M  V30 1254 H 110.27 0.556606 -0.508631 0
M  V30 1255 H 112.921 0.792216 -1.65518 0
M  V30 1256 H 111.303 3.3896 -2.04749 0
M  V30 1257 H 112.477 1.63795 -4.30706 0
M  V30 1258 H 110.792 1.62692 -3.83302 0
M  V30 1259 H 113.389 4.32244 -3.14753 0
M  V30 1260 H 113.732 3.88669 -1.49139 0
M  V30 1261 H 114.265 2.8157 -2.81004 0
M  V30 1262 H 111.004 3.05834 -5.79781 0
M  V30 1263 H 110.524 4.06385 -4.41148 0
M  V30 1264 H 112.203 4.10043 -5.00474 0
M  V30 1265 N 112.336 1.25143 0.95797 0
M  V30 1266 C 113.585 1.0909 1.69654 0
M  V30 1267 C 113.898 -0.368548 1.92097 0
M  V30 1268 O 115.104 -0.649455 2.63618 0
M  V30 1269 C 113.56 1.90395 3.05414 0
M  V30 1270 C 113.168 3.4081 2.90779 0
M  V30 1271 C 114.912 1.82901 3.83076 0
M  V30 1272 C 112.819 4.14423 4.21909 0
M  V30 1273 H 111.749 0.404625 0.636235 0
M  V30 1274 H 114.4 1.4931 1.06672 0
M  V30 1275 H 112.782 1.42996 3.69281 0
M  V30 1276 H 113.956 3.95859 2.35865 0
M  V30 1277 H 112.271 3.49361 2.26575 0
M  V30 1278 H 114.868 2.35196 4.80195 0
M  V30 1279 H 115.211 0.796224 4.08615 0
M  V30 1280 H 115.744 2.28033 3.25954 0
M  V30 1281 H 112.483 5.18102 4.01561 0
M  V30 1282 H 112.003 3.64159 4.76601 0
M  V30 1283 H 113.682 4.21956 4.90471 0
M  V30 1284 N 113.814 -1.1601 1.06675 0
M  V30 1285 C 114.761 -2.20525 0.680967 0
M  V30 1286 C 115.731 -1.62904 -0.324283 0
M  V30 1287 O 116.916 -1.89615 -0.212294 0
M  V30 1288 C 114.056 -3.45013 0.0776551 0
M  V30 1289 C 113.169 -4.16863 1.13355 0
M  V30 1290 C 112.304 -5.2888 0.49597 0
M  V30 1291 C 111.343 -5.92537 1.53513 0
M  V30 1292 N 110.48 -6.96038 0.920631 0
M  V30 1293 H 115.32 -2.52876 1.57663 0
M  V30 1294 H 112.857 -1.24199 0.788223 0
M  V30 1295 H 114.815 -4.16193 -0.289704 0
M  V30 1296 H 113.445 -3.132 -0.781393 0
M  V30 1297 H 112.497 -3.44248 1.61857 0
M  V30 1298 H 113.809 -4.60294 1.92174 0
M  V30 1299 H 112.963 -6.06653 0.0758604 0
M  V30 1300 H 111.702 -4.86622 -0.324062 0
M  V30 1301 H 110.707 -5.13482 1.9651 0
M  V30 1302 H 111.932 -6.36873 2.35733 0
M  V30 1303 H 109.878 -6.55888 0.12138 0
M  V30 1304 H 109.795 -7.3786 1.64616 0
M  V30 1305 H 111.063 -7.77725 0.525795 0
M  V30 1306 N 115.292 -0.849877 -1.32721 0
M  V30 1307 C 116.222 -0.306308 -2.31482 0
M  V30 1308 C 117.203 0.591952 -1.59468 0
M  V30 1309 O 118.388 0.513199 -1.87296 0
M  V30 1310 C 115.518 0.510204 -3.43532 0
M  V30 1311 C 114.472 -0.293209 -4.26994 0
M  V30 1312 C 113.798 0.647743 -5.30762 0
M  V30 1313 C 115.098 -1.51634 -4.99804 0
M  V30 1314 H 116.792 -1.13153 -2.77195 0
M  V30 1315 H 114.338 -0.545553 -1.33266 0
M  V30 1316 H 116.291 0.900856 -4.11658 0
M  V30 1317 H 115.015 1.36874 -2.96535 0
M  V30 1318 H 113.674 -0.665555 -3.60508 0
M  V30 1319 H 113.322 1.50299 -4.8002 0
M  V30 1320 H 113.022 0.11422 -5.87489 0
M  V30 1321 H 114.546 1.03567 -6.01753 0
M  V30 1322 H 115.96 -1.19824 -5.60638 0
M  V30 1323 H 114.357 -1.98745 -5.66234 0
M  V30 1324 H 115.427 -2.28018 -4.27943 0
M  V30 1325 N 116.77 1.45427 -0.607355 0
M  V30 1326 C 118 2.06314 -0.108656 0
M  V30 1327 C 118.408 1.45269 1.21217 0
M  V30 1328 O 117.751 0.561115 1.74921 0
M  V30 1329 C 117.813 3.59345 0.105618 0
M  V30 1330 C 117.477 4.42723 -1.13337 0
M  V30 1331 C 118.474 4.77715 -2.05145 0
M  V30 1332 C 116.159 4.83478 -1.36213 0
M  V30 1333 C 118.153 5.52317 -3.18158 0
M  V30 1334 C 115.84 5.57835 -2.49527 0
M  V30 1335 C 116.838 5.92171 -3.40327 0
M  V30 1336 O 116.526 6.65019 -4.51669 0
M  V30 1337 H 116.258 0.672782 -0.0658842 0
M  V30 1338 H 118.812 1.87664 -0.834945 0
M  V30 1339 H 117.042 3.76394 0.886796 0
M  V30 1340 H 118.731 4.02076 0.555886 0
M  V30 1341 H 119.497 4.46787 -1.88697 0
M  V30 1342 H 115.376 4.56188 -0.664362 0
M  V30 1343 H 118.92 5.79036 -3.89054 0
M  V30 1344 H 114.817 5.88177 -2.65928 0
M  V30 1345 H 115.585 6.83469 -4.50348 0
M  V30 1346 N 118.248 0.346503 1.53744 0
M  V30 1347 C 119.18 -0.543316 2.22667 0
M  V30 1348 C 120.193 -1.06159 1.23427 0
M  V30 1349 O 121.382 -0.971235 1.49764 0
M  V30 1350 C 118.482 -1.76076 2.89569 0
M  V30 1351 C 117.655 -1.37727 4.15151 0
M  V30 1352 C 116.714 -2.45471 4.65436 0
M  V30 1353 O 115.74 -2.08655 5.29577 0
M  V30 1354 N 116.942 -3.7677 4.41616 0
M  V30 1355 H 119.707 0.0469703 2.99663 0
M  V30 1356 H 117.268 0.170766 1.60997 0
M  V30 1357 H 119.26 -2.47593 3.20125 0
M  V30 1358 H 117.83 -2.25835 2.16142 0
M  V30 1359 H 117.05 -0.492746 3.91108 0
M  V30 1360 H 118.338 -1.09708 4.96832 0
M  V30 1361 H 117.736 -4.09467 3.90325 0
M  V30 1362 H 116.293 -4.44448 4.7677 0
M  V30 1363 N 119.726 -1.57421 0.075193 0
M  V30 1364 C 120.972 -1.93905 -0.594025 0
M  V30 1365 C 121.305 -0.955701 -1.69056 0
M  V30 1366 O 120.58 0.0145373 -1.94495 0
M  V30 1367 C 120.863 -3.40638 -1.1678 0
M  V30 1368 C 120.716 -4.49733 -0.0776792 0
M  V30 1369 C 122.035 -3.88259 -2.07228 0
M  V30 1370 H 119.154 -0.705105 -0.214466 0
M  V30 1371 H 121.796 -1.8947 0.141854 0
M  V30 1372 H 119.946 -3.44549 -1.79494 0
M  V30 1373 H 121.618 -4.57942 0.555573 0
M  V30 1374 H 119.861 -4.29751 0.591286 0
M  V30 1375 H 120.532 -5.49549 -0.519603 0
M  V30 1376 H 123.008 -3.86376 -1.54445 0
M  V30 1377 H 121.884 -4.91533 -2.44308 0
M  V30 1378 H 122.145 -3.26396 -2.98191 0
M  V30 1379 N 121.204 0.198386 -1.56346 0
M  V30 1380 C 122.453 0.917451 -1.79627 0
M  V30 1381 C 122.766 1.8456 -0.64784 0
M  V30 1382 O 123.972 2.60504 -0.764859 0
M  V30 1383 C 122.428 1.68175 -3.18191 0
M  V30 1384 C 122.036 0.798589 -4.40825 0
M  V30 1385 C 123.78 2.39065 -3.50782 0
M  V30 1386 C 121.687 1.56157 -5.70411 0
M  V30 1387 H 120.617 0.346317 -0.669762 0
M  V30 1388 H 123.268 0.170801 -1.82703 0
M  V30 1389 H 121.65 2.47216 -3.09354 0
M  V30 1390 H 122.824 0.0470665 -4.60776 0
M  V30 1391 H 121.139 0.200686 -4.15916 0
M  V30 1392 H 123.736 2.96692 -4.44835 0
M  V30 1393 H 124.079 3.13091 -2.74371 0
M  V30 1394 H 124.612 1.66993 -3.61052 0
M  V30 1395 H 121.351 0.864142 -6.49779 0
M  V30 1396 H 120.871 2.2871 -5.54483 0
M  V30 1397 H 122.55 2.11622 -6.11412 0
M  V30 1398 N 122.682 1.50554 0.465978 0
M  V30 1399 C 123.907 1.65838 1.24549 0
M  V30 1400 C 124.332 0.343486 1.84937 0
M  V30 1401 O 123.69 -0.69324 1.67523 0
M  V30 1402 C 123.738 2.75533 2.32624 0
M  V30 1403 O 122.842 2.37142 3.37398 0
M  V30 1404 H 122.183 0.553893 0.366194 0
M  V30 1405 H 124.713 1.96959 0.553927 0
M  V30 1406 H 124.723 2.98763 2.77857 0
M  V30 1407 H 123.398 3.70962 1.88043 0
M  V30 1408 H 121.975 2.24377 2.97841 0
M  V30 1409 N 124.16 -0.719506 1.40217 0
M  V30 1410 C 125.388 -1.50864 1.41589 0
M  V30 1411 C 125.803 -1.88794 0.0145275 0
M  V30 1412 O 125.16 -1.55174 -0.960594 0
M  V30 1413 C 125.211 -2.78646 2.30302 0
M  V30 1414 O 124.932 -2.42321 3.64983 0
M  V30 1415 C 126.433 -3.72569 2.40224 0
M  V30 1416 H 123.653 -0.465709 0.48307 0
M  V30 1417 H 126.197 -0.88785 1.84221 0
M  V30 1418 H 124.352 -3.37019 1.91042 0
M  V30 1419 H 124.766 -3.24514 4.12057 0
M  V30 1420 H 126.24 -4.5908 3.06512 0
M  V30 1421 H 126.717 -4.15403 1.42608 0
M  V30 1422 H 127.323 -3.20109 2.80019 0
M  V30 1423 N 125.638 -1.25649 -0.95132 0
M  V30 1424 C 127.049 -1.09654 -1.51106 0
M  V30 1425 C 127.4 0.326615 -1.93462 0
M  V30 1426 O 126.525 1.21697 -1.78938 0
M  V30 1427 C 127.12 -1.98437 -2.74605 0
M  V30 1428 C 125.679 -1.86618 -3.2688 0
M  V30 1429 C 124.826 -1.9239 -1.99703 0
M  V30 1430 H 127.777 -1.38887 -0.767865 0
M  V30 1431 H 127.798 -1.5263 -3.48546 0
M  V30 1432 H 127.31 -3.02009 -2.43746 0
M  V30 1433 H 125.411 -0.859421 -3.62553 0
M  V30 1434 H 125.524 -2.71607 -3.94673 0
M  V30 1435 H 123.888 -1.36317 -2.15151 0
M  V30 1436 H 124.671 -2.97573 -1.71188 0
M  V30 1437 N 127.117 1.15442 -1.07289 0
M  V30 1438 C 128.345 1.90096 -0.81676 0
M  V30 1439 C 128.76 1.7798 0.629966 0
M  V30 1440 O 128.117 1.1313 1.43206 0
M  V30 1441 C 128.168 3.40466 -1.21512 0
M  V30 1442 O 127.889 3.52232 -2.60508 0
M  V30 1443 C 129.39 4.32145 -0.988198 0
M  V30 1444 H 126.61 0.602495 -0.295366 0
M  V30 1445 H 129.154 1.4627 -1.42918 0
M  V30 1446 H 127.309 3.81958 -0.647039 0
M  V30 1447 H 127.723 4.45549 -2.76742 0
M  V30 1448 H 129.197 5.36072 -1.31645 0
M  V30 1449 H 129.674 4.39135 0.0755063 0
M  V30 1450 H 130.28 3.96395 -1.54115 0
M  V30 1451 N 128.595 0.856903 1.32268 0
M  V30 1452 C 129.872 0.382583 1.91822 0
M  V30 1453 C 130.252 -1.13407 1.78051 0
M  V30 1454 O 129.6 -1.95673 1.18001 0
M  V30 1455 C 129.81 0.849446 3.38505 0
M  V30 1456 C 131.158 0.867936 4.15634 0
M  V30 1457 O 132.182 0.794232 3.47232 0
M  V30 1458 O 131.041 0.972286 5.37781 0
M  V30 1459 H 128.135 0.112014 0.819379 0
M  V30 1460 H 130.681 0.943952 1.41024 0
M  V30 1461 H 129.453 1.89267 3.42482 0
M  V30 1462 H 129.076 0.265652 3.96712 0
M  V30 1463 N 130.073 -1.45103 0.615059 0
M  V30 1464 C 131.32 -2.02183 0.113179 0
M  V30 1465 C 131.648 -1.48249 -1.25906 0
M  V30 1466 O 130.903 -0.650265 -1.84581 0
M  V30 1467 C 131.202 -3.57386 0.0318797 0
M  V30 1468 C 130.868 -4.30505 1.34077 0
M  V30 1469 C 129.53 -4.50197 1.69929 0
M  V30 1470 C 131.882 -4.72238 2.20546 0
M  V30 1471 C 129.21 -5.08881 2.91988 0
M  V30 1472 C 131.562 -5.32272 3.41861 0
M  V30 1473 C 130.226 -5.50187 3.77956 0
M  V30 1474 H 129.496 -0.739842 0.0414151 0
M  V30 1475 H 132.143 -1.74073 0.798168 0
M  V30 1476 H 130.448 -3.84817 -0.736409 0
M  V30 1477 H 132.145 -3.99264 -0.372712 0
M  V30 1478 H 128.735 -4.15496 1.05173 0
M  V30 1479 H 132.919 -4.56751 1.94146 0
M  V30 1480 H 128.175 -5.20939 3.2005 0
M  V30 1481 H 132.349 -5.63563 4.09109 0
M  V30 1482 H 129.976 -5.95427 4.72622 0
M  V30 1483 N 131.551 -0.354651 -1.53558 0
M  V30 1484 C 132.798 0.238443 -2.01091 0
M  V30 1485 C 133.126 1.49663 -1.24222 0
M  V30 1486 O 132.381 1.93049 -0.321003 0
M  V30 1487 C 132.68 0.587121 -3.52545 0
M  V30 1488 C 132.346 -0.575472 -4.47213 0
M  V30 1489 C 131.008 -0.894497 -4.72813 0
M  V30 1490 C 133.36 -1.35489 -5.03281 0
M  V30 1491 C 130.688 -1.99511 -5.51736 0
M  V30 1492 C 133.04 -2.44583 -5.83405 0
M  V30 1493 C 131.704 -2.77033 -6.07296 0
M  V30 1494 H 130.974 0.0872526 -0.735845 0
M  V30 1495 H 133.621 -0.484859 -1.8526 0
M  V30 1496 H 131.926 1.39129 -3.66265 0
M  V30 1497 H 133.623 1.05809 -3.86789 0
M  V30 1498 H 130.213 -0.316774 -4.27428 0
M  V30 1499 H 134.397 -1.12167 -4.83459 0
M  V30 1500 H 129.653 -2.25063 -5.68469 0
M  V30 1501 H 133.827 -3.05401 -6.25862 0
M  V30 1502 H 131.454 -3.6244 -6.68237 0
M  V30 1503 N 133.029 1.57378 -0.0835403 0
M  V30 1504 C 133.962 2.09016 0.915833 0
M  V30 1505 C 134.94 0.997993 1.2837 0
M  V30 1506 O 136.124 1.27219 1.39096 0
M  V30 1507 C 133.251 2.55757 2.22049 0
M  V30 1508 C 132.297 3.76522 2.00333 0
M  V30 1509 S 133.13 5.20661 1.25191 0
M  V30 1510 C 134.286 5.70743 2.56912 0
M  V30 1511 H 134.519 2.93457 0.476492 0
M  V30 1512 H 132.052 1.53856 0.129493 0
M  V30 1513 H 134.01 2.83346 2.97027 0
M  V30 1514 H 132.671 1.71564 2.63106 0
M  V30 1515 H 131.864 4.07256 2.96916 0
M  V30 1516 H 131.466 3.49367 1.33488 0
M  V30 1517 H 133.758 5.78304 3.52946 0
M  V30 1518 H 134.701 6.6944 2.30772 0
M  V30 1519 H 135.109 4.98616 2.64655 0
M  V30 1520 N 134.507 -0.190092 1.56449 0
M  V30 1521 C 135.753 -0.911052 1.81184 0
M  V30 1522 C 136.086 -1.82699 0.658396 0
M  V30 1523 O 135.361 -1.91491 -0.340775 0
M  V30 1524 C 135.644 -1.72297 3.16205 0
M  V30 1525 C 135.497 -0.831419 4.42049 0
M  V30 1526 C 136.816 -2.69454 3.47969 0
M  V30 1527 H 133.935 -0.32977 0.659106 0
M  V30 1528 H 136.577 -0.178169 1.89163 0
M  V30 1529 H 134.727 -2.34778 3.09534 0
M  V30 1530 H 136.399 -0.220929 4.60771 0
M  V30 1531 H 134.642 -0.138406 4.33579 0
M  V30 1532 H 135.313 -1.43461 5.33032 0
M  V30 1533 H 137.789 -2.17104 3.54972 0
M  V30 1534 H 136.665 -3.23342 4.43555 0
M  V30 1535 H 136.926 -3.48744 2.71717 0
M  V30 1536 N 135.985 -1.50799 -0.457987 0
M  V30 1537 C 136.918 -1.65273 -1.57353 0
M  V30 1538 C 137.896 -0.500578 -1.54703 0
M  V30 1539 O 139.08 -0.721781 -1.74134 0
M  V30 1540 C 136.207 -1.64737 -2.95938 0
M  V30 1541 C 135.253 -2.8567 -3.16693 0
M  V30 1542 S 136.086 -4.46791 -2.95191 0
M  V30 1543 C 137.242 -4.48968 -4.36095 0
M  V30 1544 H 137.475 -2.59633 -1.44838 0
M  V30 1545 H 135.008 -1.40225 -0.64625 0
M  V30 1546 H 136.966 -1.65112 -3.7583 0
M  V30 1547 H 135.627 -0.715899 -3.05833 0
M  V30 1548 H 134.82 -2.81637 -4.17967 0
M  V30 1549 H 134.422 -2.8293 -2.44594 0
M  V30 1550 H 136.714 -4.23337 -5.28954 0
M  V30 1551 H 137.657 -5.50664 -4.45168 0
M  V30 1552 H 138.065 -3.78522 -4.18786 0
M  V30 1553 N 137.463 0.71206 -1.40597 0
M  V30 1554 C 138.373 1.8562 -1.43466 0
M  V30 1555 C 139.389 1.70902 -0.326902 0
M  V30 1556 O 140.565 1.93105 -0.572043 0
M  V30 1557 C 137.63 3.21451 -1.29884 0
M  V30 1558 C 136.691 3.48398 -2.50833 0
M  V30 1559 C 135.924 4.77749 -2.3789 0
M  V30 1560 O 136.147 5.53089 -1.39459 0
M  V30 1561 O 135.081 5.05111 -3.27333 0
M  V30 1562 H 138.907 1.86155 -2.39958 0
M  V30 1563 H 136.492 0.86295 -1.21957 0
M  V30 1564 H 138.374 4.02579 -1.24531 0
M  V30 1565 H 137.049 3.21636 -0.364997 0
M  V30 1566 H 135.956 2.67265 -2.61763 0
M  V30 1567 H 137.289 3.53014 -3.4299 0
M  V30 1568 N 138.941 1.26152 0.944643 0
M  V30 1569 C 140.171 1.14094 1.72239 0
M  V30 1570 C 140.579 -0.306931 1.86694 0
M  V30 1571 O 139.922 -1.22222 1.3714 0
M  V30 1572 C 139.984 1.73316 3.14963 0
M  V30 1573 C 139.648 3.2239 3.23904 0
M  V30 1574 C 140.645 4.19252 3.07447 0
M  V30 1575 C 138.33 3.62788 3.47405 0
M  V30 1576 C 140.324 5.54491 3.14353 0
M  V30 1577 C 138.011 4.98162 3.53947 0
M  V30 1578 C 139.009 5.93823 3.37436 0
M  V30 1579 O 138.697 7.26732 3.43679 0
M  V30 1580 H 138.429 0.398292 0.546205 0
M  V30 1581 H 140.983 1.67201 1.19301 0
M  V30 1582 H 139.213 1.14667 3.69308 0
M  V30 1583 H 140.902 1.56214 3.74636 0
M  V30 1584 H 141.668 3.8938 2.8915 0
M  V30 1585 H 137.547 2.88816 3.59313 0
M  V30 1586 H 141.091 6.29137 3.01384 0
M  V30 1587 H 136.988 5.27695 3.71763 0
M  V30 1588 H 137.756 7.3496 3.60245 0
M  V30 1589 N 140.419 -1.14872 1.07899 0
M  V30 1590 C 141.665 -1.86064 0.806725 0
M  V30 1591 C 141.998 -1.82434 -0.665706 0
M  V30 1592 O 141.273 -1.25138 -1.48899 0
M  V30 1593 C 141.556 -3.34929 1.32267 0
M  V30 1594 C 141.409 -3.47161 2.86006 0
M  V30 1595 C 142.728 -4.29863 0.943717 0
M  V30 1596 H 139.847 -0.675591 0.294526 0
M  V30 1597 H 142.489 -1.34925 1.33773 0
M  V30 1598 H 140.639 -3.78611 0.870974 0
M  V30 1599 H 142.311 -3.12302 3.39507 0
M  V30 1600 H 140.554 -2.88539 3.23925 0
M  V30 1601 H 141.225 -4.51777 3.17177 0
M  V30 1602 H 143.701 -3.9417 1.33302 0
M  V30 1603 H 142.577 -5.32494 1.33198 0
M  V30 1604 H 142.838 -4.41846 -0.149796 0
M  V30 1605 N 141.898 -0.863906 -1.31812 0
M  V30 1606 C 143.123 -0.48527 -2.01643 0
M  V30 1607 C 143.548 0.913058 -1.64453 0
M  V30 1608 O 142.906 1.6014 -0.849985 0
M  V30 1609 C 142.954 -0.642625 -3.54828 0
M  V30 1610 O 142.058 0.320659 -4.11151 0
M  V30 1611 H 141.399 -0.193793 -0.635091 0
M  V30 1612 H 143.929 -1.16565 -1.68148 0
M  V30 1613 H 143.939 -0.533628 -4.04495 0
M  V30 1614 H 142.614 -1.66227 -3.81237 0
M  V30 1615 H 141.191 0.167126 -3.72525 0
M  V30 1616 N 143.376 1.44774 -0.622745 0
M  V30 1617 C 144.624 2.01721 -0.123655 0
M  V30 1618 C 144.945 1.49172 1.25589 0
M  V30 1619 O 144.215 0.691974 1.83272 0
M  V30 1620 H 142.795 0.745777 -0.0427225 0
M  V30 1621 H 145.457 1.77382 -0.807559 0
M  V30 1622 H 144.553 3.11984 -0.0849534 0
M  V30 1623 N 144.854 0.36279 1.53368 0
M  V30 1624 C 146.102 -0.227326 2.00817 0
M  V30 1625 C 146.423 -1.49511 1.25186 0
M  V30 1626 O 145.693 -1.92482 0.364348 0
M  V30 1627 H 144.273 -0.0869923 0.741917 0
M  V30 1628 H 146.935 0.488381 1.88682 0
M  V30 1629 H 146.031 -0.456273 3.08747 0
M  V30 1630 N 146.332 -1.57332 0.0918853 0
M  V30 1631 C 147.242 -2.17368 -0.882505 0
M  V30 1632 C 148.258 -1.14226 -1.31257 0
M  V30 1633 O 149.434 -1.46582 -1.38115 0
M  V30 1634 C 146.499 -2.73962 -2.12476 0
M  V30 1635 C 145.56 -3.92048 -1.7492 0
M  V30 1636 C 144.793 -4.45933 -2.93223 0
M  V30 1637 O 145.016 -3.98764 -4.07852 0
M  V30 1638 O 143.95 -5.36999 -2.71875 0
M  V30 1639 H 147.776 -3.01031 -0.40172 0
M  V30 1640 H 145.361 -1.48813 -0.132291 0
M  V30 1641 H 147.243 -3.10147 -2.85283 0
M  V30 1642 H 145.918 -1.93347 -2.59613 0
M  V30 1643 H 144.825 -3.6068 -0.993025 0
M  V30 1644 H 146.158 -4.74017 -1.32548 0
M  V30 1645 N 147.81 0.181792 -1.56548 0
M  V30 1646 C 148.74 1.22765 -1.98623 0
M  V30 1647 C 149.721 1.46747 -0.860189 0
M  V30 1648 O 150.906 1.58259 -1.12551 0
M  V30 1649 C 148.036 2.56894 -2.33715 0
M  V30 1650 C 146.99 2.475 -3.49182 0
M  V30 1651 C 146.316 3.86023 -3.69986 0
M  V30 1652 C 147.616 1.98866 -4.82959 0
M  V30 1653 H 149.31 0.877942 -2.86239 0
M  V30 1654 H 146.856 0.42088 -1.37712 0
M  V30 1655 H 148.809 3.30253 -2.61746 0
M  V30 1656 H 147.533 2.93632 -1.42997 0
M  V30 1657 H 146.192 1.76596 -3.21262 0
M  V30 1658 H 145.84 4.20136 -2.76576 0
M  V30 1659 H 145.54 3.80609 -4.47672 0
M  V30 1660 H 147.064 4.60984 -4.00407 0
M  V30 1661 H 148.478 2.61992 -5.09934 0
M  V30 1662 H 146.875 2.04424 -5.64208 0
M  V30 1663 H 147.945 0.942465 -4.75653 0
M  V30 1664 N 149.288 1.51039 0.449983 0
M  V30 1665 C 150.535 1.63081 1.20045 0
M  V30 1666 C 150.863 0.341024 1.91487 0
M  V30 1667 O 150.118 -0.674276 1.83717 0
M  V30 1668 C 150.417 2.77556 2.25161 0
M  V30 1669 C 150.083 4.17289 1.70823 0
M  V30 1670 C 148.745 4.55305 1.55725 0
M  V30 1671 C 151.097 5.04536 1.3074 0
M  V30 1672 C 148.425 5.78287 0.989999 0
M  V30 1673 C 150.777 6.28085 0.754482 0
M  V30 1674 C 149.441 6.64885 0.590308 0
M  V30 1675 H 148.711 0.596755 0.439277 0
M  V30 1676 H 151.358 1.85037 0.49333 0
M  V30 1677 H 149.663 2.49771 3.01863 0
M  V30 1678 H 151.36 2.84073 2.83026 0
M  V30 1679 H 147.95 3.8731 1.83546 0
M  V30 1680 H 152.134 4.75782 1.41229 0
M  V30 1681 H 147.39 6.05456 0.850451 0
M  V30 1682 H 151.564 6.95038 0.435324 0
M  V30 1683 H 149.191 7.60055 0.14862 0
M  V30 1684 N 150.766 -0.704594 1.40972 0
M  V30 1685 C 152.043 -1.45847 1.30338 0
M  V30 1686 C 152.423 -2.10973 -0.0732344 0
M  V30 1687 O 151.771 -2.00997 -1.08685 0
M  V30 1688 C 151.981 -2.48525 2.45023 0
M  V30 1689 C 153.329 -3.1404 2.8577 0
M  V30 1690 O 154.353 -2.58848 2.44696 0
M  V30 1691 O 153.212 -4.13981 3.56766 0
M  V30 1692 H 150.306 -0.649092 0.512454 0
M  V30 1693 H 152.852 -0.735836 1.52917 0
M  V30 1694 H 151.624 -1.98994 3.36923 0
M  V30 1695 H 151.247 -3.2831 2.24272 0
M  V30 1696 N 152.244 -1.26651 -0.937939 0
M  V30 1697 C 153.474 -1.15006 -1.71631 0
M  V30 1698 C 153.882 0.297026 -1.86854 0
M  V30 1699 O 153.225 1.21493 -1.37786 0
M  V30 1700 C 153.287 -1.74984 -3.14039 0
M  V30 1701 C 152.951 -3.24103 -3.2219 0
M  V30 1702 C 153.948 -4.20877 -3.05219 0
M  V30 1703 C 151.633 -3.64625 -3.45476 0
M  V30 1704 C 153.627 -5.56151 -3.11408 0
M  V30 1705 C 151.314 -5.00032 -3.513 0
M  V30 1706 C 152.312 -5.95604 -3.34282 0
M  V30 1707 O 152 -7.28545 -3.3982 0
M  V30 1708 H 151.732 -0.401183 -0.544085 0
M  V30 1709 H 154.286 -1.67832 -1.18413 0
M  V30 1710 H 152.516 -1.16624 -3.68695 0
M  V30 1711 H 154.205 -1.58199 -3.73802 0
M  V30 1712 H 154.971 -3.90908 -2.87081 0
M  V30 1713 H 150.85 -2.90718 -3.57777 0
M  V30 1714 H 154.394 -6.30727 -2.98043 0
M  V30 1715 H 150.291 -5.29659 -3.68959 0
M  V30 1716 H 151.059 -7.3686 -3.56343 0
M  V30 1717 N 153.722 1.14298 -1.08507 0
M  V30 1718 C 154.971 1.84708 -0.810305 0
M  V30 1719 C 155.284 1.83903 0.666271 0
M  V30 1720 O 156.49 2.50112 1.05624 0
M  V30 1721 C 154.946 3.31572 -1.39957 0
M  V30 1722 C 154.554 3.40791 -2.90801 0
M  V30 1723 C 156.298 4.07087 -1.20334 0
M  V30 1724 C 154.205 4.81872 -3.4286 0
M  V30 1725 H 153.135 0.691985 -0.299454 0
M  V30 1726 H 155.786 1.28841 -1.30661 0
M  V30 1727 H 154.168 3.87183 -0.830976 0
M  V30 1728 H 155.342 2.95225 -3.53806 0
M  V30 1729 H 153.657 2.78732 -3.0935 0
M  V30 1730 H 156.254 5.11225 -1.56693 0
M  V30 1731 H 156.597 4.16054 -0.143237 0
M  V30 1732 H 157.13 3.57779 -1.73893 0
M  V30 1733 H 153.869 4.78094 -4.48449 0
M  V30 1734 H 153.389 5.27972 -2.84615 0
M  V30 1735 H 155.068 5.50765 -3.39509 0
M  V30 1736 N 155.201 0.870884 1.31352 0
M  V30 1737 C 156.441 0.488783 1.9847 0
M  V30 1738 C 156.805 -0.941536 1.67329 0
M  V30 1739 O 158.006 -1.42903 2.27667 0
M  V30 1740 C 156.277 0.739688 3.49662 0
M  V30 1741 S 157.836 0.457582 4.36408 0
M  V30 1742 H 154.654 0.18242 0.6872 0
M  V30 1743 H 157.256 1.12711 1.59739 0
M  V30 1744 H 155.96 1.77944 3.69816 0
M  V30 1745 H 155.491 0.0883905 3.93301 0
M  V30 1746 H 157.506 -0.709752 4.91098 0
M  V30 1747 N 156.679 -1.44442 0.630414 0
M  V30 1748 C 157.626 -2.30678 -0.0749355 0
M  V30 1749 C 158.596 -1.4344 -0.837502 0
M  V30 1750 O 159.781 -1.72343 -0.818684 0
M  V30 1751 C 156.921 -3.28706 -1.05103 0
M  V30 1752 C 156.034 -4.31046 -0.286954 0
M  V30 1753 C 155.169 -5.16167 -1.2548 0
M  V30 1754 C 154.208 -6.10216 -0.479843 0
M  V30 1755 N 153.345 -6.88039 -1.39811 0
M  V30 1756 H 158.185 -2.90454 0.666386 0
M  V30 1757 H 155.722 -1.43107 0.340404 0
M  V30 1758 H 157.68 -3.84027 -1.63031 0
M  V30 1759 H 156.31 -2.70632 -1.75949 0
M  V30 1760 H 155.362 -3.78203 0.408243 0
M  V30 1761 H 156.674 -4.97794 0.316657 0
M  V30 1762 H 155.828 -5.76002 -1.90544 0
M  V30 1763 H 154.567 -4.49491 -1.89233 0
M  V30 1764 H 153.572 -5.49491 0.184295 0
M  V30 1765 H 154.797 -6.78928 0.152965 0
M  V30 1766 H 152.743 -6.24032 -2.02287 0
M  V30 1767 H 152.66 -7.51223 -0.848508 0
M  V30 1768 H 153.928 -7.52397 -2.03762 0
M  V30 1769 N 158.157 -0.370918 -1.53173 0
M  V30 1770 C 159.107 0.489588 -2.22681 0
M  V30 1771 C 160.091 1.04442 -1.22395 0
M  V30 1772 O 161.283 0.973578 -1.47819 0
M  V30 1773 C 158.412 1.626 -3.02351 0
M  V30 1774 C 157.498 1.08379 -4.10018 0
M  V30 1775 N 157.889 0.265004 -5.05105 0
M  V30 1776 C 156.187 1.35809 -4.2482 0
M  V30 1777 C 156.888 -0.0324755 -5.81691 0
M  V30 1778 N 155.864 0.566581 -5.40639 0
M  V30 1779 H 159.666 -0.142729 -2.93553 0
M  V30 1780 H 157.18 -0.179221 -1.61408 0
M  V30 1781 H 159.177 2.2547 -3.50669 0
M  V30 1782 H 157.837 2.26132 -2.33011 0
M  V30 1783 H 158.848 -0.0962352 -5.17811 0
M  V30 1784 H 155.525 1.9958 -3.66707 0
M  V30 1785 H 156.915 -0.69473 -6.68299 0
M  V30 1786 N 159.635 1.57281 -0.100228 0
M  V30 1787 C 160.883 1.94153 0.561157 0
M  V30 1788 C 161.204 0.983157 1.68401 0
M  V30 1789 O 160.474 0.0361132 1.95867 0
M  V30 1790 H 159.054 0.716791 0.210283 0
M  V30 1791 H 161.716 1.94202 -0.164765 0
M  V30 1792 H 160.812 2.96709 0.968008 0
M  V30 1793 N 161.113 -0.173488 1.56642 0
M  V30 1794 C 162.529 -0.525174 1.50712 0
M  V30 1795 C 162.729 -1.8476 0.804107 0
M  V30 1796 O 161.785 -2.49869 0.363574 0
M  V30 1797 C 163.098 -0.559937 2.95441 0
M  V30 1798 C 164.646 -0.647288 3.06234 0
M  V30 1799 C 165.121 -0.712963 4.52417 0
M  V30 1800 N 166.612 -0.775911 4.56655 0
M  V30 1801 C 167.347 -0.847264 5.67106 0
M  V30 1802 N 166.843 -0.879585 6.87194 0
M  V30 1803 N 168.636 -0.886117 5.55071 0
M  V30 1804 H 160.787 0.693681 2.00753 0
M  V30 1805 H 163.05 0.249841 0.914485 0
M  V30 1806 H 162.756 0.343049 3.50023 0
M  V30 1807 H 162.63 -1.40718 3.49969 0
M  V30 1808 H 165.017 -1.5407 2.51687 0
M  V30 1809 H 165.098 0.226586 2.54794 0
M  V30 1810 H 164.742 0.176183 5.07594 0
M  V30 1811 H 164.672 -1.60295 5.0161 0
M  V30 1812 H 167.163 -0.759304 3.70193 0
M  V30 1813 H 167.476 -0.935144 7.67121 0
M  V30 1814 H 165.821 -0.847898 6.89808 0
M  V30 1815 H 169.012 -0.857853 4.60172 0
M  V30 1816 H 169.185 -0.938263 6.41171 0
M  V30 1817 N 162.591 -1.51276 -0.441967 0
M  V30 1818 C 163.837 -1.63958 -1.19355 0
M  V30 1819 C 164.17 -0.352543 -1.90973 0
M  V30 1820 O 163.445 0.647627 -1.83401 0
M  V30 1821 C 163.728 -2.83979 -2.21422 0
M  V30 1822 C 163.581 -4.22646 -1.53918 0
M  V30 1823 C 164.9 -2.99521 -3.22451 0
M  V30 1824 H 162.019 -0.596709 -0.432559 0
M  V30 1825 H 164.661 -1.83748 -0.483398 0
M  V30 1826 H 162.811 -2.67237 -2.81987 0
M  V30 1827 H 164.483 -4.51045 -0.967256 0
M  V30 1828 H 162.726 -4.25558 -0.841615 0
M  V30 1829 H 163.397 -5.02609 -2.28229 0
M  V30 1830 H 165.873 -3.14944 -2.71937 0
M  V30 1831 H 164.749 -3.85072 -3.91166 0
M  V30 1832 H 165.01 -2.11391 -3.88287 0
M  V30 1833 N 164.069 0.697108 -1.41344 0
M  V30 1834 C 164.979 1.84088 -1.45427 0
M  V30 1835 C 165.995 1.70545 -0.34501 0
M  V30 1836 O 167.171 1.92488 -0.592492 0
M  V30 1837 C 164.236 3.20056 -1.33286 0
M  V30 1838 C 163.297 3.45718 -2.54514 0
M  V30 1839 C 162.53 4.75199 -2.42944 0
M  V30 1840 O 162.753 5.51579 -1.45318 0
M  V30 1841 O 161.687 5.0161 -3.32672 0
M  V30 1842 H 165.513 1.836 -2.41919 0
M  V30 1843 H 163.098 0.849966 -1.22866 0
M  V30 1844 H 164.98 4.01236 -1.28794 0
M  V30 1845 H 163.655 3.2123 -0.39909 0
M  V30 1846 H 162.562 2.64474 -2.64583 0
M  V30 1847 H 163.895 3.49356 -3.46715 0
M  V30 1848 N 165.547 1.27147 0.931209 0
M  V30 1849 C 166.457 1.11372 2.06478 0
M  V30 1850 C 167.473 0.044645 1.73943 0
M  V30 1851 O 168.649 0.250417 1.99837 0
M  V30 1852 C 165.714 0.758838 3.38294 0
M  V30 1853 C 164.775 1.90841 3.84549 0
M  V30 1854 C 164.008 1.57036 5.10074 0
M  V30 1855 O 164.231 0.476645 5.68405 0
M  V30 1856 O 163.165 2.40839 5.51616 0
M  V30 1857 H 166.991 2.06493 2.22698 0
M  V30 1858 H 164.576 1.06301 1.04978 0
M  V30 1859 H 166.458 0.574098 4.17471 0
M  V30 1860 H 165.133 -0.162879 3.2329 0
M  V30 1861 H 164.04 2.14819 3.06274 0
M  V30 1862 H 165.373 2.81021 4.04089 0
M  V30 1863 N 167.025 -1.13721 1.09112 0
M  V30 1864 C 167.958 -2.18094 0.67158 0
M  V30 1865 C 168.936 -1.59414 -0.320299 0
M  V30 1866 O 170.12 -1.87183 -0.222444 0
M  V30 1867 C 167.247 -3.38698 -0.0111189 0
M  V30 1868 C 166.293 -4.15966 0.942055 0
M  V30 1869 S 167.126 -4.7604 2.45246 0
M  V30 1870 C 168.282 -5.99994 1.78208 0
M  V30 1871 H 168.515 -2.53344 1.55577 0
M  V30 1872 H 166.048 -1.24967 0.906789 0
M  V30 1873 H 168.006 -4.08559 -0.398716 0
M  V30 1874 H 166.667 -3.01756 -0.871905 0
M  V30 1875 H 165.86 -5.02318 0.411396 0
M  V30 1876 H 165.462 -3.51745 1.2709 0
M  V30 1877 H 167.754 -6.68441 1.10424 0
M  V30 1878 H 168.697 -6.57662 2.62463 0
M  V30 1879 H 169.105 -5.50432 1.25238 0
M  V30 1880 N 168.503 -0.877838 -1.30888 0
M  V30 1881 C 169.413 -0.343096 -2.32078 0
M  V30 1882 C 170.429 0.551022 -1.65045 0
M  V30 1883 O 171.605 0.445854 -1.96403 0
M  V30 1884 C 168.67 0.439905 -3.43898 0
M  V30 1885 C 167.731 -0.483111 -4.26573 0
M  V30 1886 C 166.964 0.262616 -5.33053 0
M  V30 1887 O 167.187 1.48967 -5.50604 0
M  V30 1888 O 166.121 -0.383593 -6.00676 0
M  V30 1889 H 169.947 -1.18203 -2.79753 0
M  V30 1890 H 167.532 -0.64145 -1.34929 0
M  V30 1891 H 169.414 0.883504 -4.12034 0
M  V30 1892 H 168.089 1.25526 -2.98371 0
M  V30 1893 H 166.996 -0.975374 -3.61161 0
M  V30 1894 H 168.329 -1.26427 -4.75686 0
M  V30 1895 N 169.982 1.44106 -0.638065 0
M  V30 1896 C 170.945 2.29138 0.0531013 0
M  V30 1897 C 171.945 1.41409 0.765506 0
M  V30 1898 O 173.135 1.63206 0.609046 0
M  V30 1899 C 170.267 3.23144 1.08584 0
M  V30 1900 H 171.46 2.91739 -0.694883 0
M  V30 1901 H 169.013 1.51134 -0.398538 0
M  V30 1902 H 169.748 2.65408 1.86357 0
M  V30 1903 H 169.533 3.87804 0.578852 0
M  V30 1904 H 171.023 3.87004 1.56899 0
M  V30 1905 N 171.46 0.379036 1.52974 0
M  V30 1906 C 172.876 0.0285448 1.59574 0
M  V30 1907 C 173.076 -1.45542 1.39355 0
M  V30 1908 O 172.132 -2.2187 1.20541 0
M  V30 1909 C 173.445 0.496535 2.96572 0
M  V30 1910 C 174.993 0.451909 3.0972 0
M  V30 1911 C 175.468 0.895924 4.49152 0
M  V30 1912 N 176.959 0.851522 4.55306 0
M  V30 1913 C 177.694 1.16661 5.61407 0
M  V30 1914 N 177.19 1.55166 6.752 0
M  V30 1915 N 178.983 1.08853 5.51459 0
M  V30 1916 H 171.134 1.34525 1.64367 0
M  V30 1917 H 173.397 0.550733 0.771619 0
M  V30 1918 H 173.103 1.53258 3.16552 0
M  V30 1919 H 172.977 -0.109802 3.7704 0
M  V30 1920 H 175.364 -0.575029 2.89443 0
M  V30 1921 H 175.445 1.09392 2.3123 0
M  V30 1922 H 175.089 1.92104 4.70168 0
M  V30 1923 H 175.019 0.23103 5.26093 0
M  V30 1924 H 177.51 0.568038 3.73606 0
M  V30 1925 H 177.823 1.776 7.52116 0
M  V30 1926 H 176.168 1.59044 6.76557 0
M  V30 1927 H 179.359 0.786803 4.6144 0
M  V30 1928 H 179.532 1.33742 6.34048 0
M  V30 1929 N 172.938 -1.57226 0.108567 0
M  V30 1930 C 174.354 -1.5766 -0.248058 0
M  V30 1931 C 174.554 -1.12063 -1.67464 0
M  V30 1932 O 173.61 -0.803236 -2.39383 0
M  V30 1933 C 174.923 -3.0069 -0.0242287 0
M  V30 1934 C 176.471 -3.12868 -0.0909372 0
M  V30 1935 C 176.946 -4.57879 0.105067 0
M  V30 1936 N 178.437 -4.63172 0.0506846 0
M  V30 1937 C 179.172 -5.73126 0.177396 0
M  V30 1938 N 178.668 -6.91866 0.359696 0
M  V30 1939 N 180.461 -5.61977 0.117709 0
M  V30 1940 H 172.612 -1.85169 1.04049 0
M  V30 1941 H 174.875 -0.85529 0.40888 0
M  V30 1942 H 174.581 -3.38299 0.961604 0
M  V30 1943 H 174.455 -3.6945 -0.76068 0
M  V30 1944 H 176.842 -2.75124 -1.06729 0
M  V30 1945 H 176.923 -2.46672 0.677225 0
M  V30 1946 H 176.567 -4.96321 1.07834 0
M  V30 1947 H 176.497 -5.22153 -0.682954 0
M  V30 1948 H 178.988 -3.778 -0.0871266 0
M  V30 1949 H 179.301 -7.71503 0.447529 0
M  V30 1950 H 177.646 -6.93874 0.395536 0
M  V30 1951 H 180.837 -4.68094 -0.0236741 0
M  V30 1952 H 181.01 -6.47627 0.219905 0
M  V30 1953 N 174.416 0.165178 -1.56732 0
M  V30 1954 C 175.346 1.20651 -1.99914 0
M  V30 1955 C 176.327 1.45827 -0.875705 0
M  V30 1956 O 177.512 1.57057 -1.14223 0
M  V30 1957 C 174.642 2.54401 -2.36427 0
M  V30 1958 C 173.596 2.43782 -3.51787 0
M  V30 1959 C 172.922 3.82078 -3.7406 0
M  V30 1960 C 174.222 1.93732 -4.85041 0
M  V30 1961 H 175.916 0.847534 -2.87154 0
M  V30 1962 H 173.462 0.40625 -1.38151 0
M  V30 1963 H 175.415 3.27458 -2.65234 0
M  V30 1964 H 174.139 2.92098 -1.46103 0
M  V30 1965 H 172.798 1.73178 -3.23117 0
M  V30 1966 H 172.446 4.17179 -2.81017 0
M  V30 1967 H 172.146 3.7584 -4.51684 0
M  V30 1968 H 173.67 4.56712 -4.05274 0
M  V30 1969 H 175.084 2.56569 -5.12684 0
M  V30 1970 H 173.481 1.98428 -5.66345 0
M  V30 1971 H 174.551 0.891962 -4.76626 0
M  V30 1972 N 175.894 1.51508 0.433938 0
M  V30 1973 C 177.141 1.64345 1.18309 0
M  V30 1974 C 177.469 0.361315 1.91115 0
M  V30 1975 O 176.724 -0.654753 1.84422 0
M  V30 1976 C 177.023 2.79928 2.22205 0
M  V30 1977 C 176.689 4.19078 1.66387 0
M  V30 1978 C 175.351 4.56932 1.50887 0
M  V30 1979 C 177.703 5.05894 1.25381 0
M  V30 1980 C 175.031 5.79305 0.928608 0
M  V30 1981 C 177.383 6.2885 0.687823 0
M  V30 1982 C 176.047 6.65473 0.519755 0
M  V30 1983 H 175.317 0.601381 0.432923 0
M  V30 1984 H 177.964 1.85549 0.473676 0
M  V30 1985 H 176.269 2.52959 2.99197 0
M  V30 1986 H 177.966 2.87059 2.79997 0
M  V30 1987 H 174.556 3.89234 1.79428 0
M  V30 1988 H 178.74 4.77253 1.36175 0
M  V30 1989 H 173.996 6.06324 0.786186 0
M  V30 1990 H 178.17 6.95461 0.361581 0
M  V30 1991 H 175.797 7.6017 0.0679979 0
M  V30 1992 N 177.372 -0.689602 1.41712 0
M  V30 1993 C 178.304 -1.815 1.39966 0
M  V30 1994 C 179.317 -1.59995 0.300917 0
M  V30 1995 O 180.506 -1.69387 0.563039 0
M  V30 1996 C 177.606 -3.18364 1.16179 0
M  V30 1997 C 176.779 -3.66847 2.38206 0
M  V30 1998 C 175.838 -4.82398 2.10186 0
M  V30 1999 O 174.864 -4.93706 2.83272 0
M  V30 2000 N 176.066 -5.70064 1.0958 0
M  V30 2001 H 178.831 -1.83488 2.36965 0
M  V30 2002 H 176.392 -0.872149 1.36401 0
M  V30 2003 H 178.384 -3.93301 0.953756 0
M  V30 2004 H 176.954 -3.11365 0.27756 0
M  V30 2005 H 176.174 -2.82751 2.74673 0
M  V30 2006 H 177.462 -3.95978 3.19498 0
M  V30 2007 H 176.86 -5.63565 0.491019 0
M  V30 2008 H 175.417 -6.44874 0.947656 0
M  V30 2009 N 178.85 -1.27639 -0.924453 0
M  V30 2010 C 179.782 -1.06442 -2.02985 0
M  V30 2011 C 180.795 -0.0194771 -1.62788 0
M  V30 2012 O 181.984 -0.261388 -1.76576 0
M  V30 2013 C 179.084 -0.59327 -3.33667 0
M  V30 2014 C 178.257 -1.71123 -4.02537 0
M  V30 2015 C 177.316 -1.23527 -5.11495 0
M  V30 2016 O 176.342 -1.93553 -5.35281 0
M  V30 2017 N 177.544 -0.0926678 -5.80426 0
M  V30 2018 H 180.309 -2.01633 -2.2173 0
M  V30 2019 H 177.87 -1.19248 -1.09505 0
M  V30 2020 H 179.862 -0.258686 -4.03872 0
M  V30 2021 H 178.432 0.265502 -3.1147 0
M  V30 2022 H 177.652 -2.21593 -3.26022 0
M  V30 2023 H 178.94 -2.46145 -4.45298 0
M  V30 2024 H 178.338 0.491741 -5.63559 0
M  V30 2025 H 176.895 0.182714 -6.51544 0
M  V30 2026 N 180.328 1.1314 -1.09713 0
M  V30 2027 C 181.577 1.83838 -0.829851 0
M  V30 2028 C 181.89 1.84599 0.646728 0
M  V30 2029 O 183.096 2.51218 1.02965 0
M  V30 2030 C 181.552 3.30069 -1.43466 0
M  V30 2031 C 181.16 3.37688 -2.94399 0
M  V30 2032 C 182.904 4.05788 -1.24645 0
M  V30 2033 C 180.811 4.78209 -3.47952 0
M  V30 2034 H 179.741 0.68877 -0.306777 0
M  V30 2035 H 182.392 1.27448 -1.3202 0
M  V30 2036 H 180.774 3.8628 -0.871996 0
M  V30 2037 H 181.948 2.91456 -3.56918 0
M  V30 2038 H 180.263 2.75436 -3.12289 0
M  V30 2039 H 182.86 5.09535 -1.62107 0
M  V30 2040 H 183.203 4.15878 -0.187357 0
M  V30 2041 H 183.736 3.55915 -1.77678 0
M  V30 2042 H 180.475 4.73311 -4.53495 0
M  V30 2043 H 179.995 5.24924 -2.90198 0
M  V30 2044 H 181.674 5.47133 -3.45332 0
M  V30 2045 N 181.806 0.884767 1.30421 0
M  V30 2046 C 182.736 0.367574 2.30589 0
M  V30 2047 C 183.717 -0.549464 1.60981 0
M  V30 2048 O 184.902 -0.46336 1.88591 0
M  V30 2049 C 182.032 -0.418944 3.44764 0
M  V30 2050 C 180.986 0.406316 4.26067 0
M  V30 2051 C 180.312 -0.506793 5.32293 0
M  V30 2052 C 181.612 1.64832 4.95608 0
M  V30 2053 H 183.306 1.20462 2.74097 0
M  V30 2054 H 180.852 0.580695 1.31772 0
M  V30 2055 H 182.805 -0.791395 4.13902 0
M  V30 2056 H 181.529 -1.28964 3.0006 0
M  V30 2057 H 180.188 0.760903 3.58617 0
M  V30 2058 H 179.836 -1.37519 4.83836 0
M  V30 2059 H 179.536 0.0415828 5.87585 0
M  V30 2060 H 181.06 -0.875764 6.04287 0
M  V30 2061 H 182.474 1.34646 5.57264 0
M  V30 2062 H 180.871 2.13688 5.60765 0
M  V30 2063 H 181.941 2.39284 4.21748 0
M  V30 2064 N 183.284 -1.43765 0.645699 0
M  V30 2065 C 184.509 -2.06767 0.161883 0
M  V30 2066 C 184.934 -1.48034 -1.16049 0
M  V30 2067 O 184.292 -0.587369 -1.71522 0
M  V30 2068 C 184.34 -3.60519 0.0762003 0
M  V30 2069 O 183.444 -4.00982 -0.963721 0
M  V30 2070 H 182.785 -0.657675 0.091429 0
M  V30 2071 H 185.315 -1.84397 0.886499 0
M  V30 2072 H 185.325 -4.07853 -0.109604 0
M  V30 2073 H 184 -4.02646 1.04157 0
M  V30 2074 H 182.577 -3.65253 -0.751312 0
M  V30 2075 N 184.763 -0.387143 -1.52771 0
M  V30 2076 C 185.726 0.436939 -2.24997 0
M  V30 2077 C 186.726 0.991991 -1.26555 0
M  V30 2078 O 187.916 0.874335 -1.50669 0
M  V30 2079 C 185.048 1.61281 -3.00335 0
M  V30 2080 H 186.241 -0.195365 -2.99263 0
M  V30 2081 H 183.794 -0.139218 -1.55679 0
M  V30 2082 H 184.529 2.2826 -2.30364 0
M  V30 2083 H 184.314 1.22154 -3.72587 0
M  V30 2084 H 185.804 2.19629 -3.5518 0
M  V30 2085 N 186.241 1.57166 -0.116904 0
M  V30 2086 C 187.487 1.95412 0.542405 0
M  V30 2087 C 187.82 1.00019 1.66463 0
M  V30 2088 O 187.095 0.0370346 1.94465 0
M  V30 2089 C 187.378 3.43615 1.07708 0
M  V30 2090 C 187.231 4.49781 -0.0415868 0
M  V30 2091 C 188.55 3.93616 1.96861 0
M  V30 2092 H 185.669 0.710543 0.195696 0
M  V30 2093 H 188.311 1.89027 -0.192038 0
M  V30 2094 H 186.461 3.49187 1.70296 0
M  V30 2095 H 188.133 4.56308 -0.676793 0
M  V30 2096 H 186.376 4.28033 -0.705019 0
M  V30 2097 H 187.047 5.50733 0.373717 0
M  V30 2098 H 189.523 3.90335 1.44146 0
M  V30 2099 H 188.399 4.97838 2.3119 0
M  V30 2100 H 188.66 3.34188 2.89432 0
M  V30 2101 N 187.719 -0.156864 1.56817 0
M  V30 2102 C 188.996 -0.899244 1.73704 0
M  V30 2103 C 189.376 -1.99771 0.682254 0
M  V30 2104 O 188.724 -2.26515 -0.300522 0
M  V30 2105 C 188.934 -1.45075 3.17418 0
M  V30 2106 C 190.282 -1.91802 3.7881 0
M  V30 2107 O 191.306 -1.54838 3.20786 0
M  V30 2108 O 190.165 -2.5994 4.80722 0
M  V30 2109 H 187.259 -0.424267 0.709878 0
M  V30 2110 H 189.805 -0.143561 1.69092 0
M  V30 2111 H 188.577 -0.660846 3.85679 0
M  V30 2112 H 188.2 -2.27021 3.26416 0
M  V30 2113 N 189.197 -1.51736 -0.425897 0
M  V30 2114 C 190.427 -1.68549 -1.19476 0
M  V30 2115 C 190.835 -0.387288 -1.85194 0
M  V30 2116 O 190.178 0.645142 -1.71999 0
M  V30 2117 C 190.24 -2.75275 -2.31223 0
M  V30 2118 C 189.904 -4.17534 -1.8578 0
M  V30 2119 C 190.901 -5.01936 -1.35485 0
M  V30 2120 C 188.586 -4.6369 -1.93123 0
M  V30 2121 C 190.58 -6.30559 -0.931347 0
M  V30 2122 C 188.267 -5.92307 -1.50384 0
M  V30 2123 C 189.265 -6.75569 -1.00473 0
M  V30 2124 O 188.953 -8.0178 -0.583452 0
M  V30 2125 H 188.685 -0.568525 -0.365725 0
M  V30 2126 H 191.239 -1.98982 -0.509444 0
M  V30 2127 H 189.469 -2.40182 -3.03067 0
M  V30 2128 H 191.158 -2.80853 -2.93047 0
M  V30 2129 H 191.924 -4.67475 -1.29197 0
M  V30 2130 H 187.803 -3.98997 -2.30916 0
M  V30 2131 H 191.347 -6.95498 -0.541084 0
M  V30 2132 H 187.244 -6.2628 -1.56346 0
M  V30 2133 H 188.012 -8.1543 -0.708275 0
M  V30 2134 N 190.675 0.682077 -1.42076 0
M  V30 2135 C 191.915 1.45424 -1.43636 0
M  V30 2136 C 192.279 1.91939 -0.0484001 0
M  V30 2137 O 193.48 2.6873 0.0612514 0
M  V30 2138 C 191.751 2.62427 -2.42625 0
M  V30 2139 S 193.31 3.51379 -2.62827 0
M  V30 2140 H 190.128 0.496779 -0.508657 0
M  V30 2141 H 192.73 0.794645 -1.78621 0
M  V30 2142 H 191.434 2.26481 -3.42249 0
M  V30 2143 H 190.965 3.33266 -2.09039 0
M  V30 2144 H 192.98 4.58141 -1.9058 0
M  V30 2145 N 192.153 1.28127 0.917671 0
M  V30 2146 C 193.103 1.08361 2.00604 0
M  V30 2147 C 194.087 0.00847518 1.60898 0
M  V30 2148 O 195.279 0.228167 1.75523 0
M  V30 2149 C 192.408 0.743376 3.35155 0
M  V30 2150 C 191.494 1.85716 3.81275 0
M  V30 2151 N 191.885 3.09822 3.99805 0
M  V30 2152 C 190.183 1.74612 4.10398 0
M  V30 2153 C 190.884 3.82368 4.38372 0
M  V30 2154 N 189.86 3.10192 4.4641 0
M  V30 2155 H 193.662 2.02531 2.12975 0
M  V30 2156 H 191.176 1.18989 1.10523 0
M  V30 2157 H 193.173 0.582859 4.12805 0
M  V30 2158 H 191.833 -0.190595 3.2414 0
M  V30 2159 H 192.844 3.45475 3.85833 0
M  V30 2160 H 189.521 0.883657 4.08041 0
M  V30 2161 H 190.911 4.89082 4.60704 0
M  V30 2162 N 193.631 -1.12557 1.10312 0
M  V30 2163 C 195.047 -1.36036 0.834649 0
M  V30 2164 C 195.247 -1.93946 -0.546539 0
M  V30 2165 O 194.303 -2.16484 -1.29966 0
M  V30 2166 C 195.616 -2.30312 1.9333 0
M  V30 2167 C 197.164 -2.43906 1.9616 0
M  V30 2168 C 197.639 -3.41496 3.05195 0
M  V30 2169 N 199.13 -3.49053 3.04494 0
M  V30 2170 C 199.865 -4.24471 3.85502 0
M  V30 2171 N 199.361 -5.02966 4.76442 0
M  V30 2172 N 201.154 -4.19864 3.73725 0
M  V30 2173 H 193.305 -0.733246 1.99342 0
M  V30 2174 H 195.568 -0.385234 0.866198 0
M  V30 2175 H 195.274 -1.94933 2.92735 0
M  V30 2176 H 195.148 -3.30421 1.81939 0
M  V30 2177 H 197.535 -2.78567 0.973886 0
M  V30 2178 H 197.616 -1.4369 2.11629 0
M  V30 2179 H 197.26 -3.07565 4.04186 0
M  V30 2180 H 197.19 -4.41539 2.86968 0
M  V30 2181 H 199.681 -2.93053 2.38596 0
M  V30 2182 H 199.994 -5.57846 5.34815 0
M  V30 2183 H 198.339 -5.02167 4.80472 0
M  V30 2184 H 201.53 -3.57623 3.02032 0
M  V30 2185 H 201.703 -4.78386 4.37093 0
M  V30 2186 N 195.109 -0.891671 -1.2995 0
M  V30 2187 C 196.059 -0.334811 -2.25528 0
M  V30 2188 C 197.043 0.540553 -1.51548 0
M  V30 2189 O 198.235 0.383882 -1.72787 0
M  V30 2190 C 195.364 0.44374 -3.4042 0
M  V30 2191 C 194.45 -0.44609 -4.21747 0
M  V30 2192 N 194.841 -1.54963 -4.81477 0
M  V30 2193 C 193.139 -0.242415 -4.45341 0
M  V30 2194 C 193.84 -2.10015 -5.42465 0
M  V30 2195 N 192.816 -1.39423 -5.25416 0
M  V30 2196 H 196.618 -1.17792 -2.69262 0
M  V30 2197 H 194.132 -0.741822 -1.44467 0
M  V30 2198 H 196.129 0.859362 -4.07947 0
M  V30 2199 H 194.789 1.28421 -2.98225 0
M  V30 2200 H 195.8 -1.93244 -4.80497 0
M  V30 2201 H 192.477 0.560342 -4.13723 0
M  V30 2202 H 193.867 -3.02724 -5.9984 0
M  V30 2203 N 196.587 1.43421 -0.653314 0
M  V30 2204 C 197.52 2.2803 0.0879804 0
M  V30 2205 C 198.498 1.39833 0.82979 0
M  V30 2206 O 199.682 1.69275 0.829341 0
M  V30 2207 C 196.809 3.19247 1.13132 0
M  V30 2208 C 195.855 4.23704 0.487546 0
M  V30 2209 S 196.688 5.30377 -0.738961 0
M  V30 2210 C 197.844 6.25162 0.30384 0
M  V30 2211 H 198.077 2.90554 -0.629739 0
M  V30 2212 H 195.61 1.47934 -0.442156 0
M  V30 2213 H 197.568 3.72346 1.72827 0
M  V30 2214 H 196.229 2.55901 1.82136 0
M  V30 2215 H 195.422 4.87631 1.27407 0
M  V30 2216 H 195.024 3.73983 -0.0352915 0
M  V30 2217 H 197.316 6.67321 1.17 0
M  V30 2218 H 198.259 7.07463 -0.300402 0
M  V30 2219 H 198.667 5.60864 0.63969 0
M  V30 2220 N 198.065 0.39524 1.52563 0
M  V30 2221 C 199.311 -0.185318 2.01952 0
M  V30 2222 C 199.644 -1.45964 1.28095 0
M  V30 2223 O 198.919 -1.90689 0.38315 0
M  V30 2224 C 199.202 -0.447193 3.57312 0
M  V30 2225 C 199.055 0.842828 4.41833 0
M  V30 2226 C 200.374 -1.23529 4.22408 0
M  V30 2227 H 197.493 -0.0658788 0.73405 0
M  V30 2228 H 200.135 0.525975 1.82575 0
M  V30 2229 H 198.285 -1.05312 3.73954 0
M  V30 2230 H 199.957 1.4795 4.36931 0
M  V30 2231 H 198.2 1.45686 4.08605 0
M  V30 2232 H 198.871 0.614165 5.48573 0
M  V30 2233 H 201.347 -0.722445 4.0978 0
M  V30 2234 H 200.223 -1.38727 5.3108 0
M  V30 2235 H 200.484 -2.25213 3.80436 0
M  V30 2236 N 199.544 -1.57102 0.125237 0
M  V30 2237 C 200.79 -1.95697 -0.532035 0
M  V30 2238 C 201.123 -1.009 -1.6593 0
M  V30 2239 O 200.398 -0.047347 -1.94442 0
M  V30 2240 C 200.681 -3.44181 -1.05884 0
M  V30 2241 C 200.534 -4.49752 0.0654392 0
M  V30 2242 C 201.853 -3.94655 -1.9477 0
M  V30 2243 H 198.972 -0.711571 -0.191925 0
M  V30 2244 H 201.614 -1.88923 0.20206 0
M  V30 2245 H 199.764 -3.50085 -1.68442 0
M  V30 2246 H 201.436 -4.55943 0.700982 0
M  V30 2247 H 199.679 -4.27653 0.727709 0
M  V30 2248 H 200.35 -5.50924 -0.344505 0
M  V30 2249 H 202.826 -3.91094 -1.42074 0
M  V30 2250 H 201.702 -4.99057 -2.28546 0
M  V30 2251 H 201.963 -3.35718 -2.87656 0
M  V30 2252 N 201.022 0.148545 -1.56898 0
M  V30 2253 C 201.972 1.1886 -1.94567 0
M  V30 2254 C 202.956 1.3863 -0.816735 0
M  V30 2255 O 204.148 1.40218 -1.08018 0
M  V30 2256 C 201.277 2.52262 -2.32849 0
M  V30 2257 C 200.363 2.36092 -3.52309 0
M  V30 2258 N 200.754 1.89674 -4.6889 0
M  V30 2259 C 199.052 2.66848 -3.57363 0
M  V30 2260 C 199.753 1.86511 -5.50989 0
M  V30 2261 N 198.729 2.29766 -4.92655 0
M  V30 2262 H 202.531 0.821793 -2.82177 0
M  V30 2263 H 200.045 0.356615 -1.58436 0
M  V30 2264 H 202.042 3.27447 -2.58039 0
M  V30 2265 H 200.702 2.89727 -1.46589 0
M  V30 2266 H 201.713 1.59663 -4.92674 0
M  V30 2267 H 198.39 3.08198 -2.81639 0
M  V30 2268 H 199.78 1.52128 -6.54452 0
M  V30 2269 N 202.5 1.5196 0.417844 0
M  V30 2270 C 203.916 1.40569 0.755816 0
M  V30 2271 C 204.116 0.503316 1.95113 0
M  V30 2272 O 203.172 -0.0341925 2.52477 0
M  V30 2273 C 204.485 2.82947 1.01791 0
M  V30 2274 C 206.033 2.92231 1.12116 0
M  V30 2275 C 206.508 4.35559 1.41608 0
M  V30 2276 N 207.999 4.38753 1.48491 0
M  V30 2277 C 208.734 5.46705 1.7292 0
M  V30 2278 N 208.23 6.64788 1.95011 0
M  V30 2279 N 210.023 5.34209 1.74863 0
M  V30 2280 H 202.174 2.09168 -0.369098 0
M  V30 2281 H 204.437 0.942409 -0.102809 0
M  V30 2282 H 204.143 3.5106 0.212081 0
M  V30 2283 H 204.017 3.23462 1.94042 0
M  V30 2284 H 206.404 2.24304 1.9176 0
M  V30 2285 H 206.485 2.55185 0.177225 0
M  V30 2286 H 206.129 5.04042 0.624848 0
M  V30 2287 H 206.059 4.70133 2.37239 0
M  V30 2288 H 208.55 3.5363 1.33244 0
M  V30 2289 H 208.863 7.42845 2.13076 0
M  V30 2290 H 207.208 6.67869 1.92293 0
M  V30 2291 H 210.399 4.40937 1.57137 0
M  V30 2292 H 210.572 6.18415 1.93563 0
M  V30 2293 N 203.978 -0.674533 1.42435 0
M  V30 2294 C 205.255 -1.4305 1.33402 0
M  V30 2295 C 205.635 -2.11081 -0.0284674 0
M  V30 2296 O 204.983 -2.03257 -1.04397 0
M  V30 2297 C 205.193 -2.43272 2.50239 0
M  V30 2298 C 206.541 -3.07907 2.92367 0
M  V30 2299 O 207.565 -2.53599 2.50132 0
M  V30 2300 O 206.424 -4.0632 3.65467 0
M  V30 2301 H 203.518 -0.638076 0.526106 0
M  V30 2302 H 206.064 -0.703235 1.54443 0
M  V30 2303 H 204.836 -1.91803 3.41068 0
M  V30 2304 H 204.459 -3.23479 2.31186 0
M  V30 2305 N 205.456 -1.28612 -0.910864 0
M  V30 2306 C 206.386 -1.15326 -2.03032 0
M  V30 2307 C 207.367 -0.0502924 -1.70026 0
M  V30 2308 O 208.552 -0.227797 -1.92859 0
M  V30 2309 C 205.682 -0.817343 -3.37545 0
M  V30 2310 C 204.636 -1.8754 -3.84724 0
M  V30 2311 C 203.962 -1.39305 -5.16235 0
M  V30 2312 C 205.262 -3.28244 -4.06267 0
M  V30 2313 H 206.956 -2.08975 -2.14406 0
M  V30 2314 H 204.502 -1.00612 -1.03021 0
M  V30 2315 H 206.455 -0.711151 -4.15356 0
M  V30 2316 H 205.179 0.154846 -3.26233 0
M  V30 2317 H 203.838 -1.97079 -3.09121 0
M  V30 2318 H 203.486 -0.409846 -5.01328 0
M  V30 2319 H 203.186 -2.10057 -5.48771 0
M  V30 2320 H 204.71 -1.30014 -5.96598 0
M  V30 2321 H 206.124 -3.21611 -4.74594 0
M  V30 2322 H 204.521 -3.96855 -4.5014 0
M  V30 2323 H 205.591 -3.72048 -3.10979 0
M  V30 2324 N 206.934 1.1197 -1.10907 0
M  V30 2325 C 207.881 2.17846 -0.762345 0
M  V30 2326 C 208.851 1.63995 0.263599 0
M  V30 2327 O 210.036 1.90273 0.141773 0
M  V30 2328 C 207.176 3.44487 -0.205651 0
M  V30 2329 C 206.289 4.12369 -1.28748 0
M  V30 2330 C 205.424 5.26674 -0.691919 0
M  V30 2331 C 204.463 5.86431 -1.75399 0
M  V30 2332 N 203.6 6.92142 -1.17833 0
M  V30 2333 H 208.44 2.46851 -1.6694 0
M  V30 2334 H 205.977 1.21188 -0.833776 0
M  V30 2335 H 207.935 4.16981 0.135037 0
M  V30 2336 H 206.565 3.15884 0.664613 0
M  V30 2337 H 205.617 3.38003 -1.74522 0
M  V30 2338 H 206.929 4.52844 -2.09125 0
M  V30 2339 H 206.083 6.05953 -0.300963 0
M  V30 2340 H 204.822 4.8749 0.143232 0
M  V30 2341 H 203.827 5.05835 -2.15432 0
M  V30 2342 H 205.052 6.27685 -2.59208 0
M  V30 2343 H 202.998 6.54985 -0.364725 0
M  V30 2344 H 202.915 7.31242 -1.91887 0
M  V30 2345 H 204.183 7.75237 -0.81408 0
M  V30 2346 N 208.412 0.89855 1.29475 0
M  V30 2347 C 209.823 0.572537 1.77705 0
M  V30 2348 C 210.174 -0.911778 1.73727 0
M  V30 2349 O 209.299 -1.71288 1.32247 0
M  V30 2350 C 209.894 1.03252 3.22683 0
M  V30 2351 C 208.453 0.757687 3.68695 0
M  V30 2352 C 207.6 1.20787 2.49612 0
M  V30 2353 H 210.551 1.08139 1.16153 0
M  V30 2354 H 210.572 0.367307 3.78723 0
M  V30 2355 H 210.084 2.11285 3.25546 0
M  V30 2356 H 208.185 -0.310079 3.71308 0
M  V30 2357 H 208.298 1.35476 4.59547 0
M  V30 2358 H 206.662 0.626888 2.46865 0
M  V30 2359 H 207.445 2.29622 2.55203 0
M  V30 2360 N 209.89 -1.43072 0.660911 0
M  V30 2361 C 210.8 -2.34585 -0.0264163 0
M  V30 2362 C 211.816 -1.54316 -0.803898 0
M  V30 2363 O 212.992 -1.86939 -0.749391 0
M  V30 2364 C 210.057 -3.32689 -0.975639 0
M  V30 2365 C 209.118 -4.2886 -0.194236 0
M  V30 2366 C 208.351 -5.22278 -1.09825 0
M  V30 2367 O 208.574 -5.20299 -2.33763 0
M  V30 2368 O 207.508 -5.99228 -0.566513 0
M  V30 2369 H 211.334 -2.94869 0.727034 0
M  V30 2370 H 208.919 -1.43342 0.42111 0
M  V30 2371 H 210.801 -3.92995 -1.52094 0
M  V30 2372 H 209.476 -2.74898 -1.70918 0
M  V30 2373 H 208.383 -3.72011 0.394835 0
M  V30 2374 H 209.716 -4.89655 0.499899 0
M  V30 2375 N 211.368 -0.403325 -1.52352 0
M  V30 2376 C 212.316 0.439752 -2.28405 0
M  V30 2377 C 213.31 1.05089 -1.32863 0
M  V30 2378 O 214.516 0.989759 -1.50345 0
M  V30 2379 H 210.891 0.160587 -0.734653 0
M  V30 2380 H 212.862 -0.222983 -2.97566 0
M  V30 2381 C 211.611 1.54736 -3.11371 0
M  V30 2382 H 210.934 1.08643 -3.84755 0
M  V30 2383 H 212.374 2.1112 -3.67701 0
M  V30 2384 C 210.833 2.51141 -2.24566 0
M  V30 2385 O 211.363 3.54887 -1.88196 0
M  V30 2386 N 209.569 2.21213 -1.8845 0
M  V30 2387 H 209.116 1.36878 -2.18225 0
M  V30 2388 H 209.074 2.85963 -1.30662 0
M  V30 2389 N 212.846 1.57033 -0.133567 0
M  V30 2390 C 214.092 1.95976 0.521649 0
M  V30 2391 C 214.425 1.01779 1.65393 0
M  V30 2392 O 213.7 0.0576581 1.94415 0
M  V30 2393 C 213.983 3.44738 1.04057 0
M  V30 2394 C 213.836 4.49711 -0.0892897 0
M  V30 2395 C 215.155 3.95682 1.92675 0
M  V30 2396 H 212.274 0.712579 0.188149 0
M  V30 2397 H 214.916 1.88813 -0.212076 0
M  V30 2398 H 213.066 3.50973 1.66583 0
M  V30 2399 H 214.738 4.55565 -0.725152 0
M  V30 2400 H 212.981 4.27261 -0.750378 0
M  V30 2401 H 213.652 5.51099 0.315284 0
M  V30 2402 H 216.128 3.91841 1.39998 0
M  V30 2403 H 215.004 5.00262 2.25897 0
M  V30 2404 H 215.265 3.37239 2.85872 0
M  V30 2405 N 214.325 -0.140222 1.56975 0
M  V30 2406 C 215.255 -1.17456 2.01808 0
M  V30 2407 C 216.236 -1.44415 0.898794 0
M  V30 2408 O 217.421 -1.5522 1.16707 0
M  V30 2409 C 214.551 -2.50607 2.40444 0
M  V30 2410 C 213.505 -2.38155 3.55621 0
M  V30 2411 C 212.831 -3.76078 3.80091 0
M  V30 2412 C 214.131 -1.85991 4.88062 0
M  V30 2413 H 215.825 -0.801743 2.88466 0
M  V30 2414 H 213.371 -0.38422 1.38779 0
M  V30 2415 H 215.324 -3.23197 2.7041 0
M  V30 2416 H 214.048 -2.89737 1.50732 0
M  V30 2417 H 212.707 -1.68016 3.25832 0
M  V30 2418 H 212.355 -4.12656 2.87618 0
M  V30 2419 H 212.055 -3.68606 4.57606 0
M  V30 2420 H 213.579 -4.50206 4.12488 0
M  V30 2421 H 214.993 -2.4838 5.16701 0
M  V30 2422 H 213.39 -1.89393 5.6943 0
M  V30 2423 H 214.46 -0.816023 4.77984 0
M  V30 2424 N 215.803 -1.52179 -0.40978 0
M  V30 2425 C 216.733 -1.78435 -1.5061 0
M  V30 2426 C 217.714 -0.635295 -1.57791 0
M  V30 2427 O 218.899 -0.880823 -1.73076 0
M  V30 2428 C 216.029 -1.93444 -2.88439 0
M  V30 2429 C 214.983 -3.09038 -2.96108 0
M  V30 2430 C 214.309 -3.09268 -4.36185 0
M  V30 2431 C 215.609 -4.48508 -2.67652 0
M  V30 2432 H 217.303 -2.70237 -1.28889 0
M  V30 2433 H 214.849 -1.30036 -0.618605 0
M  V30 2434 H 216.802 -2.10394 -3.65119 0
M  V30 2435 H 215.526 -0.983129 -3.11452 0
M  V30 2436 H 214.185 -2.91837 -2.21872 0
M  V30 2437 H 213.833 -2.11861 -4.56206 0
M  V30 2438 H 213.533 -3.86907 -4.42241 0
M  V30 2439 H 215.057 -3.28348 -5.14801 0
M  V30 2440 H 216.471 -4.65918 -3.34056 0
M  V30 2441 H 214.868 -5.28059 -2.85085 0
M  V30 2442 H 215.938 -4.56649 -1.63095 0
M  V30 2443 N 217.281 0.66697 -1.42791 0
M  V30 2444 C 218.558 1.4234 -1.34159 0
M  V30 2445 C 218.938 2.11093 0.0172729 0
M  V30 2446 O 218.286 2.03808 1.03318 0
M  V30 2447 C 218.496 2.41942 -2.51526 0
M  V30 2448 C 219.844 3.06353 -2.93995 0
M  V30 2449 O 220.868 2.52269 -2.51473 0
M  V30 2450 O 219.727 4.04376 -3.67617 0
M  V30 2451 H 216.821 0.635277 -0.529483 0
M  V30 2452 H 219.367 0.695034 -1.54814 0
M  V30 2453 H 218.139 1.89991 -3.42081 0
M  V30 2454 H 217.762 3.22249 -2.32898 0
M  V30 2455 N 218.759 1.29093 0.90403 0
M  V30 2456 C 219.722 1.1386 1.98919 0
M  V30 2457 C 220.722 0.0753457 1.60623 0
M  V30 2458 O 221.912 0.321931 1.71199 0
M  V30 2459 C 219.044 0.740198 3.32767 0
M  V30 2460 H 220.237 2.10246 2.13861 0
M  V30 2461 H 217.79 1.12218 1.08797 0
M  V30 2462 H 218.525 -0.223997 3.23525 0
M  V30 2463 H 218.31 1.50838 3.61926 0
M  V30 2464 H 219.8 0.656546 4.12407 0
M  V30 2465 N 220.237 -1.11381 1.11499 0
M  V30 2466 C 221.187 -2.15555 0.74298 0
M  V30 2467 C 222.171 -1.58894 -0.253276 0
M  V30 2468 O 223.363 -1.76897 -0.0602918 0
M  V30 2469 C 220.492 -3.42782 0.188481 0
M  V30 2470 C 219.578 -4.064 1.21244 0
M  V30 2471 N 219.969 -4.44864 2.40685 0
M  V30 2472 C 218.267 -4.3333 1.05552 0
M  V30 2473 C 218.968 -4.94715 3.05994 0
M  V30 2474 N 217.944 -4.90909 2.33472 0
M  V30 2475 H 221.746 -2.43074 1.65203 0
M  V30 2476 H 219.26 -1.28401 0.994329 0
M  V30 2477 H 221.257 -4.16789 -0.0961693 0
M  V30 2478 H 219.917 -3.16727 -0.715149 0
M  V30 2479 H 220.928 -4.36876 2.78136 0
M  V30 2480 H 217.605 -4.1698 0.208372 0
M  V30 2481 H 218.995 -5.34103 4.07656 0
M  V30 2482 N 221.715 -0.905404 -1.28997 0
M  V30 2483 C 222.648 -0.331959 -2.25773 0
M  V30 2484 C 223.626 0.559099 -1.52685 0
M  V30 2485 O 224.81 0.50463 -1.8162 0
M  V30 2486 C 221.937 0.526276 -3.34586 0
M  V30 2487 C 220.983 -0.298249 -4.25456 0
M  V30 2488 S 221.816 -1.69968 -5.0781 0
M  V30 2489 C 222.972 -0.848519 -6.20122 0
M  V30 2490 H 223.205 -1.15222 -2.74064 0
M  V30 2491 H 220.738 -0.706112 -1.37308 0
M  V30 2492 H 222.696 1.01565 -3.97737 0
M  V30 2493 H 221.357 1.32084 -2.84978 0
M  V30 2494 H 220.55 0.357607 -5.0273 0
M  V30 2495 H 220.152 -0.720968 -3.66985 0
M  V30 2496 H 222.444 -0.0744325 -6.77459 0
M  V30 2497 H 223.387 -1.59353 -6.89937 0
M  V30 2498 H 223.795 -0.400383 -5.63078 0
M  V30 2499 N 223.193 1.4272 -0.668489 0
M  V30 2500 C 224.141 2.32586 0.0254857 0
M  V30 2501 C 225.135 1.49471 0.797176 0
M  V30 2502 O 226.341 1.65583 0.705853 0
M  V30 2503 H 222.716 0.751514 0.0270339 0
M  V30 2504 H 224.687 2.88823 -0.749936 0
M  V30 2505 C 223.436 3.3397 0.967427 0
M  V30 2506 H 222.759 3.97961 0.383048 0
M  V30 2507 H 224.199 3.9945 1.42181 0
M  V30 2508 C 222.658 2.65744 2.0708 0
M  V30 2509 O 223.188 2.48454 3.15648 0
M  V30 2510 N 221.394 2.2487 1.8407 0
M  V30 2511 H 220.941 2.39132 0.95778 0
M  V30 2512 H 220.899 1.79552 2.58086 0
M  V30 2513 N 224.671 0.411399 1.52136 0
M  V30 2514 C 225.634 -0.401089 2.25663 0
M  V30 2515 C 226.634 -0.971732 1.28117 0
M  V30 2516 O 227.824 -0.850254 1.52041 0
M  V30 2517 C 224.956 -1.56483 3.02863 0
M  V30 2518 H 226.149 0.24295 2.98914 0
M  V30 2519 H 223.702 0.163968 1.55438 0
M  V30 2520 H 224.437 -2.24567 2.33967 0
M  V30 2521 H 224.222 -1.16211 3.74483 0
M  V30 2522 H 225.712 -2.13951 3.58629 0
M  V30 2523 N 226.149 -1.5696 0.141893 0
M  V30 2524 C 227.096 -2.16501 -0.799737 0
M  V30 2525 C 228.066 -1.09643 -1.24771 0
M  V30 2526 O 229.251 -1.3766 -1.32115 0
M  V30 2527 C 226.391 -2.78679 -2.03549 0
M  V30 2528 C 225.504 -3.99914 -1.6338 0
M  V30 2529 C 224.639 -4.50106 -2.82096 0
M  V30 2530 C 223.678 -5.63819 -2.38275 0
M  V30 2531 N 222.815 -6.08651 -3.49983 0
M  V30 2532 H 227.655 -2.96632 -0.285179 0
M  V30 2533 H 225.192 -1.46533 -0.129053 0
M  V30 2534 H 227.15 -3.1287 -2.75986 0
M  V30 2535 H 225.78 -2.012 -2.52425 0
M  V30 2536 H 224.832 -3.71735 -0.807279 0
M  V30 2537 H 226.144 -4.82311 -1.27192 0
M  V30 2538 H 225.298 -4.86325 -3.62729 0
M  V30 2539 H 224.037 -3.66706 -3.21525 0
M  V30 2540 H 223.042 -5.2718 -1.56081 0
M  V30 2541 H 224.267 -6.49 -1.99938 0
M  V30 2542 H 222.213 -5.28188 -3.89042 0
M  V30 2543 H 222.13 -6.85961 -3.17794 0
M  V30 2544 H 223.398 -6.49515 -4.30988 0
M  V30 2545 N 227.627 0.131896 -1.57047 0
M  V30 2546 C 228.876 0.84044 -1.83356 0
M  V30 2547 C 229.189 1.81646 -0.725535 0
M  V30 2548 O 230.395 2.57025 -0.874659 0
M  V30 2549 C 228.851 1.54528 -3.25037 0
M  V30 2550 C 228.459 0.610902 -4.43815 0
M  V30 2551 C 230.203 2.23972 -3.60606 0
M  V30 2552 C 228.11 1.31823 -5.76521 0
M  V30 2553 H 227.04 0.317599 -0.683847 0
M  V30 2554 H 229.691 0.0931561 -1.83263 0
M  V30 2555 H 228.073 2.33873 -3.19561 0
M  V30 2556 H 229.247 -0.148407 -4.60561 0
M  V30 2557 H 227.562 0.0241016 -4.16393 0
M  V30 2558 H 230.159 2.77558 -4.57018 0
M  V30 2559 H 230.502 3.01173 -2.87403 0
M  V30 2560 H 231.035 1.51529 -3.6781 0
M  V30 2561 H 227.774 0.587771 -6.52859 0
M  V30 2562 H 227.294 2.04987 -5.63685 0
M  V30 2563 H 228.973 1.855 -6.19838 0
M  V30 2564 N 229.106 1.52395 0.401703 0
M  V30 2565 C 230.069 1.75636 1.47257 0
M  V30 2566 C 231.069 0.62628 1.48103 0
M  V30 2567 O 232.259 0.894227 1.49497 0
M  V30 2568 C 229.391 1.84553 2.86624 0
M  V30 2569 H 230.584 2.71241 1.27938 0
M  V30 2570 H 228.137 1.42923 0.632662 0
M  V30 2571 H 228.872 0.908882 3.11303 0
M  V30 2572 H 228.657 2.66715 2.87412 0
M  V30 2573 H 230.147 2.04251 3.64241 0
M  V30 2574 N 230.584 -0.659388 1.43143 0
M  V30 2575 C 231.861 -1.41627 1.34912 0
M  V30 2576 C 232.241 -2.11099 -0.00607785 0
M  V30 2577 O 231.589 -2.04353 -1.02236 0
M  V30 2578 C 231.799 -2.40604 2.52805 0
M  V30 2579 C 233.147 -3.04789 2.95616 0
M  V30 2580 O 234.171 -2.50932 2.52807 0
M  V30 2581 O 233.03 -4.02421 3.69756 0
M  V30 2582 H 230.124 -0.63246 0.532844 0
M  V30 2583 H 232.67 -0.686814 1.5518 0
M  V30 2584 H 231.442 -1.88174 3.43083 0
M  V30 2585 H 231.065 -3.21009 2.34604 0
M  V30 2586 N 232.062 -1.29571 -0.897171 0
M  V30 2587 C 233.309 -1.17689 -1.6479 0
M  V30 2588 C 233.637 0.27107 -1.92602 0
M  V30 2589 O 232.892 1.21193 -1.53658 0
M  V30 2590 C 233.191 -1.9382 -3.00281 0
M  V30 2591 C 232.857 -3.43522 -2.92068 0
M  V30 2592 C 231.519 -3.84348 -2.89535 0
M  V30 2593 C 233.871 -4.38906 -2.81089 0
M  V30 2594 C 231.199 -5.18869 -2.73846 0
M  V30 2595 C 233.551 -5.73521 -2.66939 0
M  V30 2596 C 232.215 -6.13601 -2.62774 0
M  V30 2597 H 231.485 -0.430654 -0.603008 0
M  V30 2598 H 234.132 -1.60536 -1.04404 0
M  V30 2599 H 232.437 -1.4357 -3.64547 0
M  V30 2600 H 234.134 -1.82028 -3.57305 0
M  V30 2601 H 230.724 -3.11072 -2.94842 0
M  V30 2602 H 234.908 -4.08315 -2.82121 0
M  V30 2603 H 230.164 -5.4903 -2.69027 0
M  V30 2604 H 234.338 -6.47078 -2.57416 0
M  V30 2605 H 231.965 -7.17786 -2.50375 0
M  V30 2606 N 233.54 1.10788 -1.12088 0
M  V30 2607 C 234.788 1.8231 -0.872205 0
M  V30 2608 C 235.109 1.85419 0.603709 0
M  V30 2609 O 234.379 1.32963 1.43867 0
M  V30 2610 H 232.959 0.675137 -0.319686 0
M  V30 2611 H 235.621 1.34068 -1.41463 0
M  V30 2612 H 234.717 2.85955 -1.25045 0
M  V30 2613 N 235.018 0.912232 1.28515 0
M  V30 2614 C 235.948 0.416403 2.29757 0
M  V30 2615 C 236.929 -0.515194 1.6211 0
M  V30 2616 O 238.114 -0.423253 1.89532 0
M  V30 2617 C 235.244 -0.34572 3.45575 0
M  V30 2618 C 234.198 0.496599 4.25109 0
M  V30 2619 C 233.524 -0.393771 5.33248 0
M  V30 2620 C 234.824 1.75307 4.92001 0
M  V30 2621 H 236.518 1.26249 2.7148 0
M  V30 2622 H 234.064 0.608515 1.30511 0
M  V30 2623 H 236.017 -0.703422 4.15488 0
M  V30 2624 H 234.741 -1.2257 3.02728 0
M  V30 2625 H 233.4 0.8368 3.56922 0
M  V30 2626 H 233.048 -1.27225 4.86644 0
M  V30 2627 H 232.748 0.166209 5.87365 0
M  V30 2628 H 234.272 -0.747389 6.06009 0
M  V30 2629 H 235.686 1.46437 5.54283 0
M  V30 2630 H 234.083 2.25534 5.56106 0
M  V30 2631 H 235.153 2.48176 4.16577 0
M  V30 2632 N 236.496 -1.42363 0.676048 0
M  V30 2633 C 237.721 -2.06377 0.205705 0
M  V30 2634 C 238.146 -1.50463 -1.12883 0
M  V30 2635 O 237.504 -0.623619 -1.70237 0
M  V30 2636 C 237.552 -3.60277 0.152655 0
M  V30 2637 O 236.656 -4.02935 -0.87845 0
M  V30 2638 H 235.997 -0.655588 0.105359 0
M  V30 2639 H 238.527 -1.82475 0.925412 0
M  V30 2640 H 238.537 -4.07993 -0.0230675 0
M  V30 2641 H 237.212 -4.00346 1.12675 0
M  V30 2642 H 235.789 -3.66764 -0.673668 0
M  V30 2643 N 237.974 -0.419461 -1.51915 0
M  V30 2644 C 238.922 0.415502 -2.28859 0
M  V30 2645 C 239.916 1.03674 -1.3397 0
M  V30 2646 O 241.122 0.973757 -1.51387 0
M  V30 2647 H 237.497 0.152786 -0.736315 0
M  V30 2648 H 239.468 -0.254531 -2.97312 0
M  V30 2649 C 238.217 1.51425 -3.12995 0
M  V30 2650 H 237.54 1.04556 -3.85886 0
M  V30 2651 H 238.98 2.07208 -3.6992 0
M  V30 2652 C 237.439 2.48745 -2.27217 0
M  V30 2653 O 237.969 3.52871 -1.9195 0
M  V30 2654 N 236.175 2.19202 -1.90785 0
M  V30 2655 H 235.722 1.34556 -2.19664 0
M  V30 2656 H 235.68 2.84561 -1.33687 0
M  V30 2657 N 239.452 1.56882 -0.150215 0
M  V30 2658 C 240.385 2.12712 0.826358 0
M  V30 2659 C 241.363 1.05154 1.24022 0
M  V30 2660 O 242.547 1.33004 1.33575 0
M  V30 2661 C 239.674 2.64945 2.11002 0
M  V30 2662 C 238.72 3.8468 1.84183 0
M  V30 2663 S 239.553 5.25502 1.02995 0
M  V30 2664 C 240.709 5.81125 2.32474 0
M  V30 2665 H 240.942 2.95214 0.351598 0
M  V30 2666 H 238.475 1.54267 0.0641211 0
M  V30 2667 H 240.433 2.95689 2.84742 0
M  V30 2668 H 239.094 1.82568 2.55593 0
M  V30 2669 H 238.287 4.19482 2.79375 0
M  V30 2670 H 237.889 3.54714 1.1855 0
M  V30 2671 H 240.181 5.92753 3.281 0
M  V30 2672 H 241.124 6.78625 2.02171 0
M  V30 2673 H 241.532 5.09392 2.43269 0
M  V30 2674 N 240.93 -0.123565 1.57115 0
M  V30 2675 C 241.863 -1.18202 1.95201 0
M  V30 2676 C 242.841 -1.40349 0.821031 0
M  V30 2677 O 244.025 -1.54578 1.07879 0
M  V30 2678 C 241.152 -2.53671 2.24429 0
M  V30 2679 C 240.198 -2.4798 3.46999 0
M  V30 2680 S 241.031 -1.92389 4.99747 0
M  V30 2681 C 242.187 -3.2954 5.32123 0
M  V30 2682 H 242.42 -0.857212 2.84674 0
M  V30 2683 H 239.953 -0.33014 1.50829 0
M  V30 2684 H 241.911 -3.3162 2.41947 0
M  V30 2685 H 240.572 -2.83332 1.35579 0
M  V30 2686 H 239.765 -3.47758 3.64801 0
M  V30 2687 H 239.367 -1.7815 3.28844 0
M  V30 2688 H 241.659 -4.25736 5.27025 0
M  V30 2689 H 242.602 -3.16569 6.33395 0
M  V30 2690 H 243.01 -3.27758 4.59603 0
M  V30 2691 N 242.408 -1.52605 -0.393616 0
M  V30 2692 C 243.633 -1.71592 -1.16495 0
M  V30 2693 C 244.058 -0.43133 -1.83088 0
M  V30 2694 O 243.416 0.612523 -1.7064 0
M  V30 2695 C 243.464 -2.86318 -2.19213 0
M  V30 2696 O 242.568 -2.52969 -3.257 0
M  V30 2697 H 241.909 -0.570734 -0.33935 0
M  V30 2698 H 244.439 -1.99377 -0.459324 0
M  V30 2699 H 244.449 -3.1168 -2.63286 0
M  V30 2700 H 243.124 -3.79511 -1.7013 0
M  V30 2701 H 241.701 -2.38332 -2.86797 0
M  V30 2702 N 243.887 0.651787 -1.4349 0
M  V30 2703 C 245.164 1.40909 -1.35661 0
M  V30 2704 C 245.544 2.11099 -0.00511733 0
M  V30 2705 O 244.892 2.04892 1.0115 0
M  V30 2706 C 245.102 2.3926 -2.54078 0
M  V30 2707 C 246.45 3.03217 -2.97228 0
M  V30 2708 O 247.474 2.49588 -2.54135 0
M  V30 2709 O 246.333 4.00455 -3.71885 0
M  V30 2710 H 243.427 0.629625 -0.536191 0
M  V30 2711 H 245.973 0.678575 -1.55542 0
M  V30 2712 H 244.745 1.86352 -3.44076 0
M  V30 2713 H 244.368 3.1976 -2.36303 0
M  V30 2714 N 245.365 1.30045 0.890287 0
M  V30 2715 C 246.613 1.18327 1.63839 0
M  V30 2716 C 246.934 -0.263455 1.93212 0
M  V30 2717 O 246.204 -1.17856 1.56482 0
M  V30 2718 H 244.784 0.434933 0.607324 0
M  V30 2719 H 247.446 1.631 1.06698 0
M  V30 2720 H 246.542 1.74024 2.59079 0
M  V30 2721 N 246.843 -1.10192 1.12674 0
M  V30 2722 C 247.753 -2.20172 0.810026 0
M  V30 2723 C 248.769 -1.72821 -0.202188 0
M  V30 2724 O 249.945 -2.01369 -0.0351691 0
M  V30 2725 C 247.01 -3.45631 0.272007 0
M  V30 2726 C 246.071 -4.07704 1.34447 0
M  V30 2727 C 245.304 -5.27175 0.832029 0
M  V30 2728 O 245.527 -5.69425 -0.333284 0
M  V30 2729 O 244.461 -5.80168 1.60277 0
M  V30 2730 H 248.287 -2.49701 1.72867 0
M  V30 2731 H 245.872 -1.18977 0.903597 0
M  V30 2732 H 247.754 -4.21394 -0.0230219 0
M  V30 2733 H 246.429 -3.17723 -0.619164 0
M  V30 2734 H 245.336 -3.33614 1.6927 0
M  V30 2735 H 246.669 -4.3982 2.2095 0
M  V30 2736 N 248.321 -0.919034 -1.28029 0
M  V30 2737 C 249.568 -0.554934 -1.94748 0
M  V30 2738 C 249.896 0.90231 -1.72304 0
M  V30 2739 O 249.151 1.65767 -1.04018 0
M  V30 2740 C 249.45 -0.816855 -3.4794 0
M  V30 2741 C 249.116 -2.25448 -3.90492 0
M  V30 2742 C 247.778 -2.64752 -4.01821 0
M  V30 2743 C 250.13 -3.18977 -4.12193 0
M  V30 2744 C 247.458 -3.96727 -4.32232 0
M  V30 2745 C 249.81 -4.50523 -4.44086 0
M  V30 2746 C 248.474 -4.89673 -4.53626 0
M  V30 2747 H 247.744 -0.203065 -0.712633 0
M  V30 2748 H 250.391 -1.16136 -1.52265 0
M  V30 2749 H 248.696 -0.127677 -3.91592 0
M  V30 2750 H 250.393 -0.514238 -3.97689 0
M  V30 2751 H 246.983 -1.93952 -3.82205 0
M  V30 2752 H 251.167 -2.89817 -4.02889 0
M  V30 2753 H 246.423 -4.26754 -4.37825 0
M  V30 2754 H 250.597 -5.23005 -4.59825 0
M  V30 2755 H 248.224 -5.91969 -4.76946 0
M  V30 2756 N 249.799 1.42003 -0.683588 0
M  V30 2757 C 250.729 2.33487 -0.024866 0
M  V30 2758 C 251.71 1.51163 0.779975 0
M  V30 2759 O 252.895 1.79739 0.735362 0
M  V30 2760 C 250.025 3.3487 0.920836 0
M  V30 2761 C 248.979 4.27414 0.223958 0
M  V30 2762 C 248.305 5.19074 1.2832 0
M  V30 2763 C 249.605 5.14445 -0.90242 0
M  V30 2764 H 251.299 2.88819 -0.788921 0
M  V30 2765 H 248.845 1.38873 -0.38083 0
M  V30 2766 H 250.798 3.97787 1.39081 0
M  V30 2767 H 249.522 2.77861 1.71642 0
M  V30 2768 H 248.181 3.65904 -0.225864 0
M  V30 2769 H 247.829 4.58387 2.071 0
M  V30 2770 H 247.529 5.81822 0.821995 0
M  V30 2771 H 249.053 5.84867 1.75392 0
M  V30 2772 H 250.467 5.70998 -0.513272 0
M  V30 2773 H 248.864 5.86072 -1.28997 0
M  V30 2774 H 249.934 4.52322 -1.74737 0
M  V30 2775 N 251.277 0.427512 1.51691 0
M  V30 2776 C 252.693 0.0792977 1.59403 0
M  V30 2777 C 252.893 -1.41035 1.43914 0
M  V30 2778 O 251.949 -2.17922 1.27539 0
M  V30 2779 C 253.262 0.590636 2.94842 0
M  V30 2780 C 254.81 0.550215 3.08126 0
M  V30 2781 C 255.285 1.03836 4.46074 0
M  V30 2782 N 256.776 0.995943 4.52366 0
M  V30 2783 C 257.511 1.34463 5.57411 0
M  V30 2784 N 257.007 1.76569 6.69922 0
M  V30 2785 N 258.8 1.26343 5.47717 0
M  V30 2786 H 250.951 1.39687 1.60004 0
M  V30 2787 H 253.214 0.575003 0.753708 0
M  V30 2788 H 252.92 1.63251 3.11516 0
M  V30 2789 H 252.794 0.0102061 3.77199 0
M  V30 2790 H 255.181 -0.482654 2.91126 0
M  V30 2791 H 255.262 1.16693 2.27632 0
M  V30 2792 H 254.906 2.06965 4.63819 0
M  V30 2793 H 254.836 0.398286 5.25092 0
M  V30 2794 H 257.327 0.68661 3.7161 0
M  V30 2795 H 257.64 2.01438 7.46085 0
M  V30 2796 H 255.985 1.80488 6.71155 0
M  V30 2797 H 259.176 0.933209 4.58703 0
M  V30 2798 H 259.349 1.53846 6.29472 0
M  V30 2799 N 252.755 -1.56801 0.158532 0
M  V30 2800 C 253.983 -2.00859 -0.496303 0
M  V30 2801 C 254.398 -1.03871 -1.57659 0
M  V30 2802 O 253.755 -0.0375165 -1.82461 0
M  V30 2803 C 253.806 -3.4479 -1.08638 0
M  V30 2804 O 253.527 -4.38072 -0.0492322 0
M  V30 2805 C 255.028 -4.04185 -1.8207 0
M  V30 2806 H 252.248 -0.65864 -0.128199 0
M  V30 2807 H 254.792 -2.02885 0.256506 0
M  V30 2808 H 252.947 -3.43579 -1.78975 0
M  V30 2809 H 253.361 -5.2227 -0.483102 0
M  V30 2810 H 254.835 -5.06857 -2.18633 0
M  V30 2811 H 255.312 -3.45549 -2.71095 0
M  V30 2812 H 255.918 -4.0906 -1.16405 0
M  V30 2813 N 254.233 0.115231 -1.57178 0
M  V30 2814 C 255.458 0.840354 -1.89612 0
M  V30 2815 C 255.883 1.72464 -0.750845 0
M  V30 2816 O 255.241 1.78826 0.298478 0
M  V30 2817 C 255.289 1.64654 -3.20814 0
M  V30 2818 O 254.393 2.7538 -3.06985 0
M  V30 2819 H 253.734 0.232158 -0.622092 0
M  V30 2820 H 256.264 0.0964977 -2.04372 0
M  V30 2821 H 256.274 2.03499 -3.53627 0
M  V30 2822 H 254.949 0.997416 -4.03763 0
M  V30 2823 H 253.526 2.3971 -2.85646 0
M  V30 2824 N 255.711 1.52812 0.385517 0
M  V30 2825 C 256.951 1.69716 1.13911 0
M  V30 2826 C 257.315 0.42962 1.87132 0
M  V30 2827 O 258.516 0.475071 2.64569 0
M  V30 2828 C 256.787 2.90021 2.0886 0
M  V30 2829 S 258.346 3.27531 2.92009 0
M  V30 2830 H 255.164 0.59739 0.385547 0
M  V30 2831 H 257.766 1.90868 0.423061 0
M  V30 2832 H 256.47 3.80493 1.53797 0
M  V30 2833 H 256.001 2.71213 2.84969 0
M  V30 2834 H 258.016 2.77989 4.11019 0
M  V30 2835 N 257.189 -0.644168 1.43834 0
M  V30 2836 C 258.437 -1.40117 1.45642 0
M  V30 2837 C 258.758 -1.94814 0.0852413 0
M  V30 2838 O 258.028 -1.74988 -0.880688 0
M  V30 2839 H 256.608 -0.52005 0.536243 0
M  V30 2840 H 259.27 -0.7591 1.7951 0
M  V30 2841 H 258.366 -2.23902 2.17427 0
M  V30 2842 N 258.668 -1.30515 -0.883378 0
M  V30 2843 C 259.893 -1.22487 -1.67367 0
M  V30 2844 C 260.318 0.208767 -1.86938 0
M  V30 2845 O 259.676 1.15015 -1.40148 0
M  V30 2846 C 259.724 -1.96041 -3.02655 0
M  V30 2847 O 258.828 -1.28859 -3.91751 0
M  V30 2848 H 258.169 -0.423573 -0.511353 0
M  V30 2849 H 260.699 -1.72362 -1.10239 0
M  V30 2850 H 260.709 -2.05124 -3.52687 0
M  V30 2851 H 259.384 -3.00307 -2.8773 0
M  V30 2852 H 257.961 -1.28141 -3.50192 0
M  V30 2853 N 260.146 1.09593 -1.13257 0
M  V30 2854 C 261.557 1.63229 -0.906274 0
M  V30 2855 C 261.908 1.8811 0.557578 0
M  V30 2856 O 261.033 1.62953 1.42391 0
M  V30 2857 C 261.628 2.96535 -1.63867 0
M  V30 2858 C 260.187 3.47003 -1.45828 0
M  V30 2859 C 259.334 2.2145 -1.66898 0
M  V30 2860 H 262.285 0.92978 -1.28611 0
M  V30 2861 H 262.306 3.64411 -1.09476 0
M  V30 2862 H 261.818 2.78394 -2.70404 0
M  V30 2863 H 259.919 3.70272 -0.415848 0
M  V30 2864 H 260.032 4.24551 -2.2202 0
M  V30 2865 H 258.396 2.30022 -1.09371 0
M  V30 2866 H 259.179 2.0583 -2.74752 0
M  V30 2867 N 261.624 0.925811 1.2754 0
M  V30 2868 C 262.572 0.413897 2.28888 0
M  V30 2869 C 263.566 -0.500779 1.61829 0
M  V30 2870 O 264.772 -0.38069 1.75928 0
M  V30 2871 H 261.147 0.115274 0.743112 0
M  V30 2872 H 263.118 1.28151 2.69481 0
M  V30 2873 C 261.867 -0.319792 3.46226 0
M  V30 2874 H 261.19 0.374846 3.98039 0
M  V30 2875 H 262.63 -0.642435 4.19105 0
M  V30 2876 C 261.089 -1.53209 3.00048 0
M  V30 2877 O 261.619 -2.6309 3.03557 0
M  V30 2878 N 259.825 -1.38326 2.55566 0
M  V30 2879 H 259.372 -0.489292 2.5291 0
M  V30 2880 H 259.33 -2.19564 2.25031 0
M  V30 2881 N 263.102 -1.41638 0.69111 0
M  V30 2882 C 264.332 -2.0533 0.228758 0
M  V30 2883 C 264.74 -1.52089 -1.12541 0
M  V30 2884 O 264.083 -0.662145 -1.71351 0
M  V30 2885 C 264.145 -3.59349 0.10407 0
M  V30 2886 C 263.809 -4.35362 1.38956 0
M  V30 2887 C 264.806 -4.64942 2.32648 0
M  V30 2888 C 262.491 -4.74714 1.64169 0
M  V30 2889 C 264.485 -5.32828 3.49818 0
M  V30 2890 C 262.172 -5.42338 2.81625 0
M  V30 2891 C 263.17 -5.71322 3.74273 0
M  V30 2892 O 262.858 -6.37554 4.89673 0
M  V30 2893 H 262.59 -0.667796 0.104997 0
M  V30 2894 H 265.144 -1.82477 0.942938 0
M  V30 2895 H 263.374 -3.80924 -0.665839 0
M  V30 2896 H 265.063 -4.04633 -0.320519 0
M  V30 2897 H 265.829 -4.35025 2.14425 0
M  V30 2898 H 261.708 -4.51538 0.929202 0
M  V30 2899 H 265.252 -5.55368 4.22152 0
M  V30 2900 H 261.149 -5.71673 2.99768 0
M  V30 2901 H 261.917 -6.56049 4.8943 0
M  V30 2902 N 264.58 -0.43555 -1.51462 0
M  V30 2903 C 265.543 0.365137 -2.26273 0
M  V30 2904 C 266.543 0.951227 -1.29647 0
M  V30 2905 O 267.733 0.825958 -1.53374 0
M  V30 2906 C 264.865 1.51645 -3.05314 0
M  V30 2907 H 266.058 -0.290474 -2.9849 0
M  V30 2908 H 263.611 -0.188676 -1.55157 0
M  V30 2909 H 264.346 2.20816 -2.3751 0
M  V30 2910 H 264.131 1.10238 -3.76284 0
M  V30 2911 H 265.621 2.08218 -3.61987 0
M  V30 2912 N 266.058 1.56714 -0.166846 0
M  V30 2913 C 267.021 2.16539 0.751232 0
M  V30 2914 C 268.021 1.11228 1.16125 0
M  V30 2915 O 269.211 1.36765 1.07894 0
M  V30 2916 C 266.343 2.74462 2.02196 0
M  V30 2917 H 267.536 2.99013 0.230499 0
M  V30 2918 H 265.089 1.56081 0.0826982 0
M  V30 2919 H 265.824 1.95709 2.58589 0
M  V30 2920 H 265.609 3.51527 1.73698 0
M  V30 2921 H 267.099 3.20489 2.67725 0
M  V30 2922 N 267.536 -0.106894 1.57237 0
M  V30 2923 C 268.947 -0.662723 1.74542 0
M  V30 2924 C 269.298 -1.7971 0.787319 0
M  V30 2925 O 268.423 -2.16368 -0.0369636 0
M  V30 2926 C 269.018 -1.20896 3.16496 0
M  V30 2927 C 267.577 -1.71096 3.35266 0
M  V30 2928 C 266.724 -0.615642 2.7038 0
M  V30 2929 H 269.675 0.119106 1.58252 0
M  V30 2930 H 269.696 -2.07847 3.18716 0
M  V30 2931 H 269.208 -0.383122 3.86204 0
M  V30 2932 H 267.309 -2.56119 2.70618 0
M  V30 2933 H 267.422 -1.81208 4.43509 0
M  V30 2934 H 265.786 -1.05222 2.31949 0
M  V30 2935 H 266.569 0.199419 3.4272 0
M  V30 2936 N 269.014 -1.53014 -0.377408 0
M  V30 2937 C 269.924 -1.81557 -1.48574 0
M  V30 2938 C 270.94 -0.703102 -1.59162 0
M  V30 2939 O 272.116 -0.99192 -1.75279 0
M  V30 2940 C 269.181 -1.9889 -2.83978 0
M  V30 2941 C 268.242 -3.22801 -2.83016 0
M  V30 2942 C 267.475 -3.39298 -4.11962 0
M  V30 2943 O 267.698 -2.60345 -5.0752 0
M  V30 2944 O 266.632 -4.32604 -4.18494 0
M  V30 2945 H 270.458 -2.75695 -1.27382 0
M  V30 2946 H 268.043 -1.38248 -0.566373 0
M  V30 2947 H 269.925 -2.11931 -3.6423 0
M  V30 2948 H 268.6 -1.07942 -3.05172 0
M  V30 2949 H 267.507 -3.15193 -2.01505 0
M  V30 2950 H 268.84 -4.13632 -2.66775 0
M  V30 2951 N 270.492 0.636531 -1.44174 0
M  V30 2952 C 271.738 1.39826 -1.4689 0
M  V30 2953 C 272.071 1.93947 -0.0990585 0
M  V30 2954 O 271.346 1.73325 0.882544 0
M  V30 2955 C 271.629 2.56751 -2.5249 0
M  V30 2956 C 271.482 2.08014 -3.98811 0
M  V30 2957 C 272.801 3.58946 -2.54649 0
M  V30 2958 H 269.92 0.507075 -0.53483 0
M  V30 2959 H 272.562 0.720188 -1.75822 0
M  V30 2960 H 270.712 3.14597 -2.2795 0
M  V30 2961 H 272.384 1.5504 -4.34466 0
M  V30 2962 H 270.627 1.39242 -4.10846 0
M  V30 2963 H 271.298 2.92169 -4.68339 0
M  V30 2964 H 273.774 3.1089 -2.76563 0
M  V30 2965 H 272.65 4.38286 -3.3045 0
M  V30 2966 H 272.911 4.12655 -1.58646 0
M  V30 2967 N 271.97 1.30982 0.876444 0
M  V30 2968 C 273.219 1.19658 1.62373 0
M  V30 2969 C 273.532 -0.245636 1.94052 0
M  V30 2970 O 274.738 -0.48049 2.67214 0
M  V30 2971 C 273.194 2.09433 2.92687 0
M  V30 2972 C 272.802 3.58613 2.68516 0
M  V30 2973 C 274.546 2.06893 3.70669 0
M  V30 2974 C 272.453 4.40416 3.94699 0
M  V30 2975 H 271.383 0.444268 0.609214 0
M  V30 2976 H 274.034 1.55791 0.969605 0
M  V30 2977 H 272.416 1.66191 3.59439 0
M  V30 2978 H 273.59 4.10058 2.10212 0
M  V30 2979 H 271.905 3.63063 2.03898 0
M  V30 2980 H 274.502 2.65258 4.64265 0
M  V30 2981 H 274.845 1.05448 4.02724 0
M  V30 2982 H 275.378 2.48301 3.10792 0
M  V30 2983 H 272.117 5.42591 3.67798 0
M  V30 2984 H 271.637 3.93731 4.52477 0
M  V30 2985 H 273.316 4.52294 4.62644 0
M  V30 2986 N 273.449 -1.08991 1.13837 0
M  V30 2987 C 274.674 -1.85551 0.926585 0
M  V30 2988 C 275.099 -1.80782 -0.519566 0
M  V30 2989 O 274.457 -1.18855 -1.36906 0
M  V30 2990 C 274.505 -3.31266 1.42462 0
M  V30 2991 O 273.609 -4.07822 0.612789 0
M  V30 2992 H 272.95 -0.575192 0.331738 0
M  V30 2993 H 275.48 -1.37604 1.51414 0
M  V30 2994 H 275.49 -3.82112 1.43019 0
M  V30 2995 H 274.165 -3.34052 2.47754 0
M  V30 2996 H 272.742 -3.66731 0.675463 0
M  V30 2997 N 274.927 -0.932562 -1.27047 0
M  V30 2998 C 276.175 -0.574422 -1.93765 0
M  V30 2999 C 276.496 0.887993 -1.73608 0
M  V30 3000 O 275.766 1.62999 -1.08665 0
M  V30 3001 H 274.346 -0.209451 -0.717035 0
M  V30 3002 H 277.008 -1.18601 -1.5466 0
M  V30 3003 H 276.104 -0.784841 -3.02071 0
M  V30 3004 N 276.405 1.4127 -0.698611 0
M  V30 3005 C 277.821 1.55241 -0.370462 0
M  V30 3006 C 278.021 1.67351 1.12231 0
M  V30 3007 O 277.077 1.65363 1.90818 0
M  V30 3008 C 278.39 2.78997 -1.12165 0
M  V30 3009 C 279.938 2.92797 -1.1063 0
M  V30 3010 C 280.413 4.19445 -1.8393 0
M  V30 3011 N 281.904 4.26409 -1.80914 0
M  V30 3012 C 282.639 5.23271 -2.34467 0
M  V30 3013 N 282.135 6.26145 -2.96504 0
M  V30 3014 N 283.928 5.15232 -2.24706 0
M  V30 3015 H 276.079 1.31654 -1.66676 0
M  V30 3016 H 278.342 0.635393 -0.703548 0
M  V30 3017 H 278.048 2.76268 -2.17644 0
M  V30 3018 H 277.922 3.70606 -0.702209 0
M  V30 3019 H 280.309 2.95039 -0.0597713 0
M  V30 3020 H 280.39 2.02353 -1.56483 0
M  V30 3021 H 280.034 4.17964 -2.88563 0
M  V30 3022 H 279.964 5.08866 -1.35509 0
M  V30 3023 H 282.455 3.527 -1.35687 0
M  V30 3024 H 282.768 6.96451 -3.34927 0
M  V30 3025 H 281.113 6.26638 -3.00583 0
M  V30 3026 H 284.304 4.33789 -1.7591 0
M  V30 3027 H 284.477 5.90552 -2.66745 0
M  V30 3028 N 277.883 0.443576 1.51229 0
M  V30 3029 C 278.813 -0.355142 2.30783 0
M  V30 3030 C 279.794 -1.0154 1.36468 0
M  V30 3031 O 280.979 -1.01785 1.65389 0
M  V30 3032 C 278.109 -1.45312 3.15439 0
M  V30 3033 C 277.063 -0.916002 4.18083 0
M  V30 3034 C 276.389 -2.1102 4.91299 0
M  V30 3035 C 277.689 0.0538602 5.22272 0
M  V30 3036 H 279.383 0.308767 2.97804 0
M  V30 3037 H 276.929 0.149937 1.43217 0
M  V30 3038 H 278.882 -2.01914 3.69876 0
M  V30 3039 H 277.606 -2.14541 2.46252 0
M  V30 3040 H 276.265 -0.372145 3.64706 0
M  V30 3041 H 275.913 -2.78882 4.18609 0
M  V30 3042 H 275.613 -1.75717 5.60712 0
M  V30 3043 H 277.137 -2.68164 5.48562 0
M  V30 3044 H 278.551 -0.422069 5.71744 0
M  V30 3045 H 276.948 0.319776 5.99247 0
M  V30 3046 H 278.018 0.98858 4.74716 0
M  V30 3047 N 279.361 -1.56624 0.175154 0
M  V30 3048 C 280.591 -2.01082 -0.474283 0
M  V30 3049 C 280.999 -1.05447 -1.57091 0
M  V30 3050 O 280.342 -0.0480595 -1.83637 0
M  V30 3051 C 280.404 -3.41963 -1.10911 0
M  V30 3052 C 280.068 -4.56742 -0.153666 0
M  V30 3053 C 281.065 -5.16076 0.629448 0
M  V30 3054 C 278.75 -5.02277 -0.0483776 0
M  V30 3055 C 280.744 -6.19377 1.50501 0
M  V30 3056 C 278.431 -6.05427 0.830768 0
M  V30 3057 C 279.429 -6.63849 1.60605 0
M  V30 3058 O 279.117 -7.64998 2.47049 0
M  V30 3059 H 278.849 -0.664261 -0.125432 0
M  V30 3060 H 281.403 -2.03549 0.275163 0
M  V30 3061 H 279.633 -3.36422 -1.90676 0
M  V30 3062 H 281.322 -3.70352 -1.66114 0
M  V30 3063 H 282.088 -4.81776 0.558297 0
M  V30 3064 H 277.967 -4.56513 -0.641611 0
M  V30 3065 H 281.511 -6.64906 2.1106 0
M  V30 3066 H 277.408 -6.39151 0.903107 0
M  V30 3067 H 278.176 -7.82336 2.40607 0
M  V30 3068 N 280.839 0.0985539 -1.57292 0
M  V30 3069 C 281.802 1.10402 -2.00858 0
M  V30 3070 C 282.802 1.33146 -0.901593 0
M  V30 3071 O 283.992 1.29318 -1.16716 0
M  V30 3072 C 281.124 2.45394 -2.36632 0
M  V30 3073 H 282.317 0.729099 -2.90902 0
M  V30 3074 H 279.87 0.343495 -1.52479 0
M  V30 3075 H 280.605 2.87769 -1.49531 0
M  V30 3076 H 280.39 2.30235 -3.17387 0
M  V30 3077 H 281.88 3.17718 -2.71007 0
M  V30 3078 N 282.317 1.53212 0.369288 0
M  V30 3079 C 283.565 1.68881 1.11012 0
M  V30 3080 C 283.886 0.441285 1.89941 0
M  V30 3081 O 283.156 -0.544623 1.88177 0
M  V30 3082 H 281.736 0.622569 0.412816 0
M  V30 3083 H 284.398 1.90391 0.416802 0
M  V30 3084 H 283.494 2.54822 1.80201 0
M  V30 3085 N 283.795 -0.628877 1.44509 0
M  V30 3086 C 285.206 -1.21054 1.42137 0
M  V30 3087 C 285.557 -1.95715 0.137881 0
M  V30 3088 O 284.682 -2.02554 -0.761645 0
M  V30 3089 C 285.277 -2.20189 2.57493 0
M  V30 3090 C 283.836 -2.73777 2.58308 0
M  V30 3091 C 282.983 -1.48813 2.33987 0
M  V30 3092 H 285.934 -0.41942 1.53057 0
M  V30 3093 H 285.955 -3.02833 2.30375 0
M  V30 3094 H 285.467 -1.6582 3.50892 0
M  V30 3095 H 283.568 -3.32142 1.68856 0
M  V30 3096 H 283.681 -3.19662 3.56865 0
M  V30 3097 H 282.045 -1.77024 1.83124 0
M  V30 3098 H 282.828 -0.963442 3.29504 0
M  V30 3099 N 285.273 -1.31445 -0.869486 0
M  V30 3100 C 286.183 -1.21097 -2.0093 0
M  V30 3101 C 287.199 -0.127584 -1.73532 0
M  V30 3102 O 288.375 -0.345477 -1.98415 0
M  V30 3103 C 285.44 -0.919378 -3.34288 0
M  V30 3104 C 284.501 -2.08971 -3.75006 0
M  V30 3105 C 283.734 -1.81194 -5.02001 0
M  V30 3106 O 283.957 -0.747296 -5.65484 0
M  V30 3107 O 282.891 -2.66883 -5.39497 0
M  V30 3108 H 286.717 -2.16883 -2.12592 0
M  V30 3109 H 284.302 -1.11189 -0.997868 0
M  V30 3110 H 286.184 -0.772625 -4.14257 0
M  V30 3111 H 284.859 0.00844772 -3.23699 0
M  V30 3112 H 283.766 -2.29187 -2.95676 0
M  V30 3113 H 285.099 -2.9998 -3.90221 0
M  V30 3114 N 286.751 1.08385 -1.14413 0
M  V30 3115 C 287.997 1.81044 -0.913834 0
M  V30 3116 C 288.33 1.86004 0.558209 0
M  V30 3117 O 287.605 1.33606 1.4135 0
M  V30 3118 C 287.888 3.26648 -1.51569 0
M  V30 3119 C 287.741 3.29895 -3.0576 0
M  V30 3120 C 289.06 4.23629 -1.19273 0
M  V30 3121 H 286.179 0.65727 -0.333414 0
M  V30 3122 H 288.821 1.26896 -1.41412 0
M  V30 3123 H 286.971 3.72889 -1.09023 0
M  V30 3124 H 288.643 2.91977 -3.57137 0
M  V30 3125 H 286.886 2.69163 -3.40197 0
M  V30 3126 H 287.557 4.32516 -3.42977 0
M  V30 3127 H 290.033 3.85727 -1.56057 0
M  V30 3128 H 288.909 5.23822 -1.64017 0
M  V30 3129 H 289.17 4.41968 -0.108068 0
M  V30 3130 N 288.23 0.939286 1.26551 0
M  V30 3131 C 289.507 0.5038 1.89001 0
M  V30 3132 C 289.887 -1.01854 1.84903 0
M  V30 3133 O 289.235 -1.87773 1.30206 0
M  V30 3134 C 289.445 1.063 3.32417 0
M  V30 3135 C 290.793 1.13051 4.09273 0
M  V30 3136 O 291.817 1.01345 3.41479 0
M  V30 3137 O 290.676 1.31233 5.30509 0
M  V30 3138 H 287.77 0.163897 0.810597 0
M  V30 3139 H 290.316 1.03173 1.34735 0
M  V30 3140 H 289.088 2.10665 3.29752 0
M  V30 3141 H 288.711 0.517408 3.94219 0
M  V30 3142 N 289.708 -1.40897 0.706093 0
M  V30 3143 C 290.957 -2.00284 0.238574 0
M  V30 3144 C 291.27 -1.56604 -1.17194 0
M  V30 3145 O 292.476 -2.08624 -1.73748 0
M  V30 3146 C 290.932 -3.57934 0.375623 0
M  V30 3147 C 290.54 -4.10591 1.79217 0
M  V30 3148 C 292.284 -4.24488 -0.0315857 0
M  V30 3149 C 290.191 -5.60712 1.88032 0
M  V30 3150 H 289.121 -0.749144 0.0854398 0
M  V30 3151 H 291.772 -1.61251 0.875813 0
M  V30 3152 H 290.154 -3.94622 -0.330042 0
M  V30 3153 H 291.328 -3.85301 2.52745 0
M  V30 3154 H 289.643 -3.56601 2.15 0
M  V30 3155 H 292.24 -5.34698 0.0136842 0
M  V30 3156 H 292.583 -4.02261 -1.072 0
M  V30 3157 H 293.116 -3.92873 0.624181 0
M  V30 3158 H 289.855 -5.87781 2.90161 0
M  V30 3159 H 289.375 -5.87896 1.18903 0
M  V30 3160 H 291.054 -6.25658 1.64805 0
M  V30 3161 N 291.186 -0.45159 -1.50991 0
M  V30 3162 C 292.432 0.102439 -2.03142 0
M  V30 3163 C 292.787 1.39138 -1.32884 0
M  V30 3164 O 292.08 1.86493 -0.439438 0
M  V30 3165 C 292.274 0.361728 -3.55565 0
M  V30 3166 C 292.103 -0.900535 -4.40591 0
M  V30 3167 C 290.873 -1.43821 -4.844 0
M  V30 3168 C 293.071 -1.79063 -4.82121 0
M  V30 3169 N 291.053 -2.65153 -5.53685 0
M  V30 3170 C 292.424 -2.84991 -5.50618 0
M  V30 3171 C 294.479 -1.80334 -4.64095 0
M  V30 3172 C 293.182 -3.92155 -6.02998 0
M  V30 3173 C 295.208 -2.86442 -5.17402 0
M  V30 3174 C 294.57 -3.9109 -5.85857 0
M  V30 3175 H 290.669 -0.00204537 -0.781997 0
M  V30 3176 H 293.253 -0.615446 -1.84717 0
M  V30 3177 H 291.424 1.04865 -3.73976 0
M  V30 3178 H 293.156 0.908372 -3.94374 0
M  V30 3179 H 289.911 -0.990117 -4.63135 0
M  V30 3180 H 290.335 -3.26717 -5.92946 0
M  V30 3181 H 294.977 -1.00753 -4.1062 0
M  V30 3182 H 292.695 -4.72565 -6.55521 0
M  V30 3183 H 296.281 -2.88386 -5.05297 0
M  V30 3184 H 295.161 -4.71845 -6.26364 0
M  V30 3185 N 292.664 1.56529 -0.183458 0
M  V30 3186 C 293.889 2.02064 0.467428 0
M  V30 3187 C 294.314 1.06282 1.55196 0
M  V30 3188 O 293.672 0.0443565 1.81246 0
M  V30 3189 C 293.72 3.46122 1.01153 0
M  V30 3190 O 292.824 3.53437 2.12499 0
M  V30 3191 H 292.165 0.654726 0.110588 0
M  V30 3192 H 294.695 2.02521 -0.290917 0
M  V30 3193 H 294.705 3.85676 1.33108 0
M  V30 3194 H 293.38 4.15331 0.217533 0
M  V30 3195 H 291.957 3.2575 1.81497 0
M  V30 3196 N 294.142 -0.090211 1.57342 0
M  V30 3197 C 295.382 -0.798365 1.88163 0
M  V30 3198 C 295.746 -1.75662 0.775046 0
M  V30 3199 O 296.947 -2.50849 0.965816 0
M  V30 3200 C 295.218 -1.50376 3.24225 0
M  V30 3201 S 296.777 -2.24952 3.76752 0
M  V30 3202 H 293.595 -0.265883 0.659414 0
M  V30 3203 H 296.197 -0.055264 1.95422 0
M  V30 3204 H 294.901 -0.792286 4.0268 0
M  V30 3205 H 294.432 -2.28666 3.20118 0
M  V30 3206 H 296.447 -3.51173 3.5056 0
M  V30 3207 N 295.62 -1.53406 -0.361157 0
M  V30 3208 C 296.868 -1.69467 -1.10115 0
M  V30 3209 C 297.189 -0.451352 -1.89705 0
M  V30 3210 O 296.459 0.534636 -1.88463 0
M  V30 3211 H 295.039 -0.624749 -0.409508 0
M  V30 3212 H 297.701 -1.90609 -0.406699 0
M  V30 3213 H 296.797 -2.55774 -1.78847 0
M  V30 3214 N 297.098 0.621204 -1.44841 0
M  V30 3215 C 298.344 1.3826 -1.48365 0
M  V30 3216 C 298.677 1.93831 -0.119624 0
M  V30 3217 O 297.952 1.74251 0.864111 0
M  V30 3218 C 298.235 2.54058 -2.55199 0
M  V30 3219 C 298.088 2.03772 -4.00995 0
M  V30 3220 C 299.407 3.56225 -2.58442 0
M  V30 3221 H 296.526 0.501374 -0.540179 0
M  V30 3222 H 299.168 0.7015 -1.76576 0
M  V30 3223 H 297.318 3.12162 -2.31274 0
M  V30 3224 H 298.99 1.50423 -4.36086 0
M  V30 3225 H 297.233 1.34876 -4.12299 0
M  V30 3226 H 297.904 2.87185 -4.71411 0
M  V30 3227 H 300.38 3.07939 -2.79844 0
M  V30 3228 H 299.256 4.34756 -3.3508 0
M  V30 3229 H 299.517 4.10949 -1.63013 0
M  V30 3230 N 298.576 1.31904 0.862503 0
M  V30 3231 C 299.825 1.21373 1.61094 0
M  V30 3232 C 300.138 -0.22504 1.94301 0
M  V30 3233 O 301.344 -0.452121 2.67709 0
M  V30 3234 C 299.8 2.12525 2.9045 0
M  V30 3235 C 299.408 3.61441 2.64697 0
M  V30 3236 C 301.152 2.10813 3.68454 0
M  V30 3237 C 299.059 4.44578 3.90006 0
M  V30 3238 H 297.989 0.450705 0.604468 0
M  V30 3239 H 300.64 1.56811 0.953027 0
M  V30 3240 H 299.022 1.69994 3.57656 0
M  V30 3241 H 300.196 4.12264 2.05851 0
M  V30 3242 H 298.511 3.65205 2.00036 0
M  V30 3243 H 301.108 2.70167 4.61426 0
M  V30 3244 H 301.451 1.09713 4.01583 0
M  V30 3245 H 301.984 2.51583 3.08141 0
M  V30 3246 H 298.723 5.46461 3.62023 0
M  V30 3247 H 298.243 3.98508 4.48276 0
M  V30 3248 H 299.922 4.57176 4.5782 0
M  V30 3249 N 300.054 -1.07777 1.14986 0
M  V30 3250 C 300.984 -2.16865 0.865557 0
M  V30 3251 C 301.965 -1.69123 -0.182083 0
M  V30 3252 O 303.15 -1.94164 -0.0373815 0
M  V30 3253 C 300.28 -3.45539 0.349313 0
M  V30 3254 C 299.234 -4.06708 1.33313 0
M  V30 3255 C 298.56 -5.30411 0.675918 0
M  V30 3256 C 299.86 -4.47241 2.69764 0
M  V30 3257 H 301.554 -2.40905 1.77778 0
M  V30 3258 H 299.1 -1.15781 0.856203 0
M  V30 3259 H 301.053 -4.21174 0.137983 0
M  V30 3260 H 299.777 -3.21072 -0.598362 0
M  V30 3261 H 298.436 -3.33112 1.53075 0
M  V30 3262 H 298.084 -5.02232 -0.277767 0
M  V30 3263 H 297.784 -5.72293 1.33244 0
M  V30 3264 H 299.308 -6.08755 0.474262 0
M  V30 3265 H 300.722 -5.14025 2.53873 0
M  V30 3266 H 299.119 -5.00062 3.3175 0
M  V30 3267 H 300.189 -3.58818 3.26156 0
M  V30 3268 N 301.532 -0.945985 -1.26051 0
M  V30 3269 C 302.762 -0.612136 -1.97323 0
M  V30 3270 C 303.17 0.818171 -1.70595 0
M  V30 3271 O 302.513 1.55777 -0.973613 0
M  V30 3272 C 302.575 -0.780347 -3.50929 0
M  V30 3273 C 302.239 -2.18619 -4.01317 0
M  V30 3274 C 303.236 -3.16209 -4.12683 0
M  V30 3275 C 300.921 -2.50805 -4.35203 0
M  V30 3276 C 302.915 -4.44085 -4.57238 0
M  V30 3277 C 300.602 -3.78912 -4.79446 0
M  V30 3278 C 301.6 -4.75365 -4.90425 0
M  V30 3279 O 301.288 -6.01191 -5.3369 0
M  V30 3280 H 301.02 -0.229134 -0.635982 0
M  V30 3281 H 303.574 -1.27036 -1.61404 0
M  V30 3282 H 301.804 -0.0649864 -3.86645 0
M  V30 3283 H 303.493 -0.448842 -4.03411 0
M  V30 3284 H 304.259 -2.92668 -3.86744 0
M  V30 3285 H 300.138 -1.76463 -4.2589 0
M  V30 3286 H 303.682 -5.19373 -4.65723 0
M  V30 3287 H 299.579 -4.02265 -5.0483 0
M  V30 3288 H 300.347 -6.04442 -5.51899 0
M  V30 3289 N 303.011 1.40521 -0.713556 0
M  V30 3290 C 303.974 2.29098 -0.0684347 0
M  V30 3291 C 304.974 1.45268 0.689472 0
M  V30 3292 O 306.164 1.66205 0.521677 0
M  V30 3293 C 303.296 3.28446 0.913024 0
M  V30 3294 H 304.489 2.87645 -0.84855 0
M  V30 3295 H 302.042 1.48809 -0.47809 0
M  V30 3296 H 302.777 2.74913 1.72027 0
M  V30 3297 H 302.562 3.90327 0.372472 0
M  V30 3298 H 304.052 3.94777 1.36165 0
M  V30 3299 N 304.489 0.459591 1.5075 0
M  V30 3300 C 305.419 -0.330644 2.31147 0
M  V30 3301 C 306.4 -1.00087 1.37538 0
M  V30 3302 O 307.585 -1.00025 1.66459 0
M  V30 3303 C 304.715 -1.41958 3.16962 0
M  V30 3304 C 303.669 -0.871608 4.19031 0
M  V30 3305 C 302.995 -2.05797 4.9351 0
M  V30 3306 C 304.295 0.109251 5.22186 0
M  V30 3307 H 305.989 0.340336 2.97459 0
M  V30 3308 H 303.535 0.165119 1.4305 0
M  V30 3309 H 305.488 -1.9798 3.71997 0
M  V30 3310 H 304.212 -2.11917 2.48513 0
M  V30 3311 H 302.871 -0.333442 3.6508 0
M  V30 3312 H 302.519 -2.74427 4.21544 0
M  V30 3313 H 302.219 -1.6976 5.62544 0
M  V30 3314 H 303.743 -2.62331 5.51375 0
M  V30 3315 H 305.157 -0.361405 5.7216 0
M  V30 3316 H 303.554 0.383316 5.98875 0
M  V30 3317 H 304.624 1.03887 4.73641 0
M  V30 3318 N 305.967 -1.56429 0.191757 0
M  V30 3319 C 306.897 -2.21937 -0.725696 0
M  V30 3320 C 307.878 -1.1814 -1.2238 0
M  V30 3321 O 309.063 -1.46636 -1.27325 0
M  V30 3322 C 306.193 -2.87611 -1.94672 0
M  V30 3323 C 305.147 -3.97623 -1.58366 0
M  V30 3324 C 304.473 -4.50446 -2.88102 0
M  V30 3325 C 305.773 -5.16197 -0.796133 0
M  V30 3326 H 307.467 -2.98861 -0.179606 0
M  V30 3327 H 305.013 -1.43749 -0.0849464 0
M  V30 3328 H 306.966 -3.3212 -2.59373 0
M  V30 3329 H 305.69 -2.08087 -2.51728 0
M  V30 3330 H 304.349 -3.53801 -0.960247 0
M  V30 3331 H 303.997 -3.67688 -3.43241 0
M  V30 3332 H 303.697 -5.24675 -2.64556 0
M  V30 3333 H 305.221 -4.97654 -3.53798 0
M  V30 3334 H 306.635 -5.57271 -1.34618 0
M  V30 3335 H 305.032 -5.96471 -0.658928 0
M  V30 3336 H 306.102 -4.84473 0.203478 0
M  V30 3337 N 307.445 0.0818655 -1.57387 0
M  V30 3338 C 308.685 0.788375 -1.88584 0
M  V30 3339 C 309.049 1.75248 -0.784351 0
M  V30 3340 O 310.25 2.50334 -0.979105 0
M  V30 3341 C 308.521 1.48654 -3.25018 0
M  V30 3342 S 310.08 2.22951 -3.7794 0
M  V30 3343 H 306.898 0.262383 -0.660815 0
M  V30 3344 H 309.5 0.0448995 -1.95448 0
M  V30 3345 H 308.204 0.770919 -4.03094 0
M  V30 3346 H 307.735 2.26965 -3.21326 0
M  V30 3347 H 309.75 3.49309 -3.52417 0
M  V30 3348 N 308.923 1.53595 0.353017 0
M  V30 3349 C 310.171 1.70049 1.09215 0
M  V30 3350 C 310.492 0.461406 1.89463 0
M  V30 3351 O 309.762 -0.524633 1.88744 0
M  V30 3352 H 308.342 0.626912 0.40619 0
M  V30 3353 H 311.004 1.90822 0.396585 0
M  V30 3354 H 310.1 2.56718 1.77488 0
M  V30 3355 N 310.401 -0.613514 1.45168 0
M  V30 3356 C 311.629 -1.39946 1.5239 0
M  V30 3357 C 312.044 -1.88167 0.154531 0
M  V30 3358 O 311.401 -1.61872 -0.842843 0
M  V30 3359 C 311.452 -2.60795 2.50337 0
M  V30 3360 O 311.173 -2.1458 3.81952 0
M  V30 3361 C 312.674 -3.53723 2.67198 0
M  V30 3362 H 309.894 -0.428593 0.516284 0
M  V30 3363 H 312.438 -0.748753 1.903 0
M  V30 3364 H 310.593 -3.21919 2.15515 0
M  V30 3365 H 311.007 -2.93055 4.34993 0
M  V30 3366 H 312.481 -4.35079 3.39721 0
M  V30 3367 H 312.958 -4.0368 1.73029 0
M  V30 3368 H 313.564 -2.98456 3.02992 0
M  V30 3369 N 311.879 -1.3236 -0.855495 0
M  V30 3370 C 312.809 -1.23833 -1.97958 0
M  V30 3371 C 313.79 -0.122361 -1.69659 0
M  V30 3372 O 314.975 -0.30939 -1.9172 0
M  V30 3373 C 312.105 -0.959772 -3.33775 0
M  V30 3374 C 311.059 -2.03689 -3.76424 0
M  V30 3375 C 310.385 -1.61075 -5.09862 0
M  V30 3376 C 311.685 -3.4518 -3.9198 0
M  V30 3377 H 313.379 -2.1788 -2.0535 0
M  V30 3378 H 310.925 -1.04891 -0.986605 0
M  V30 3379 H 312.878 -0.886678 -4.11966 0
M  V30 3380 H 311.602 0.0163404 -3.26596 0
M  V30 3381 H 310.261 -2.10012 -3.00484 0
M  V30 3382 H 309.909 -0.622107 -4.99138 0
M  V30 3383 H 309.609 -2.33143 -5.39368 0
M  V30 3384 H 311.133 -1.55201 -5.90546 0
M  V30 3385 H 312.547 -3.4145 -4.60526 0
M  V30 3386 H 310.944 -4.1559 -4.32903 0
M  V30 3387 H 312.014 -3.84903 -2.94919 0
M  V30 3388 N 313.357 1.07166 -1.15556 0
M  V30 3389 C 314.768 1.6127 -0.940693 0
M  V30 3390 C 315.119 1.89251 0.517551 0
M  V30 3391 O 314.244 1.65937 1.38903 0
M  V30 3392 C 314.839 2.92993 -1.7012 0
M  V30 3393 C 313.398 3.43832 -1.53156 0
M  V30 3394 C 312.545 2.1786 -1.71558 0
M  V30 3395 H 315.496 0.90229 -1.30554 0
M  V30 3396 H 315.517 3.62007 -1.17181 0
M  V30 3397 H 315.029 2.72596 -2.76248 0
M  V30 3398 H 313.13 3.69307 -0.494294 0
M  V30 3399 H 313.243 4.19747 -2.30975 0
M  V30 3400 H 311.607 2.2765 -1.14225 0
M  V30 3401 H 312.39 1.99956 -2.79056 0
M  V30 3402 N 314.835 0.952656 1.25548 0
M  V30 3403 C 316.082 0.606373 1.93208 0
M  V30 3404 C 316.41 -0.85631 1.74636 0
M  V30 3405 O 315.665 -1.62951 1.08376 0
M  V30 3406 C 315.964 0.908818 3.45652 0
M  V30 3407 C 315.63 2.35722 3.84378 0
M  V30 3408 C 314.292 2.75312 3.9466 0
M  V30 3409 C 316.644 3.29793 4.03591 0
M  V30 3410 C 313.972 4.08047 4.21562 0
M  V30 3411 C 316.324 4.62138 4.31985 0
M  V30 3412 C 314.988 5.01528 4.40484 0
M  V30 3413 H 314.258 0.221888 0.706998 0
M  V30 3414 H 316.905 1.20132 1.49133 0
M  V30 3415 H 315.21 0.231456 3.91116 0
M  V30 3416 H 316.907 0.619498 3.96186 0
M  V30 3417 H 313.497 2.04017 3.76928 0
M  V30 3418 H 317.681 3.00397 3.95064 0
M  V30 3419 H 312.937 4.38212 4.26357 0
M  V30 3420 H 317.111 5.35012 4.45797 0
M  V30 3421 H 314.738 6.04406 4.61083 0
M  V30 3422 N 316.313 -1.40141 0.720998 0
M  V30 3423 C 317.59 -1.94677 0.189757 0
M  V30 3424 C 317.97 -1.65879 -1.30566 0
M  V30 3425 O 317.318 -0.979391 -2.06447 0
M  V30 3426 C 317.528 -3.45279 0.508304 0
M  V30 3427 C 318.876 -4.22209 0.449934 0
M  V30 3428 O 319.9 -3.53413 0.444677 0
M  V30 3429 O 318.759 -5.44788 0.432189 0
M  V30 3430 H 315.853 -0.826459 0.0299026 0
M  V30 3431 H 318.399 -1.49719 0.7989 0
M  V30 3432 H 317.171 -3.59619 1.54239 0
M  V30 3433 H 316.794 -3.97386 -0.130525 0
M  V30 3434 N 317.792 -0.46758 -1.50504 0
M  V30 3435 C 319.069 0.15003 -1.95024 0
M  V30 3436 C 319.449 1.57304 -1.40779 0
M  V30 3437 O 318.797 2.20281 -0.607319 0
M  V30 3438 C 319.007 0.0969324 -3.48865 0
M  V30 3439 C 320.355 0.287565 -4.23625 0
M  V30 3440 O 321.379 0.173678 -3.55776 0
M  V30 3441 O 320.238 0.517186 -5.44047 0
M  V30 3442 H 317.332 0.113582 -0.819163 0
M  V30 3443 H 319.878 -0.52773 -1.61286 0
M  V30 3444 H 318.65 -0.896732 -3.80886 0
M  V30 3445 H 318.273 0.816303 -3.8913 0
M  V30 3446 N 319.27 1.56325 -0.20005 0
M  V30 3447 C 320.18 2.22931 0.730668 0
M  V30 3448 C 321.196 1.22997 1.23076 0
M  V30 3449 O 322.372 1.55748 1.27689 0
M  V30 3450 C 319.437 2.87948 1.93098 0
M  V30 3451 C 318.498 4.03166 1.47497 0
M  V30 3452 C 317.731 4.65073 2.61807 0
M  V30 3453 O 317.954 4.25913 3.79413 0
M  V30 3454 O 316.888 5.54452 2.34237 0
M  V30 3455 H 320.714 3.03084 0.193391 0
M  V30 3456 H 318.299 1.49371 0.0294621 0
M  V30 3457 H 320.181 3.29063 2.6324 0
M  V30 3458 H 318.856 2.10771 2.45677 0
M  V30 3459 H 317.763 3.66664 0.742201 0
M  V30 3460 H 319.096 4.82022 0.995796 0
M  V30 3461 N 320.748 -0.0735177 1.57428 0
M  V30 3462 C 321.698 -1.09442 2.00016 0
M  V30 3463 C 322.682 -1.34575 0.881947 0
M  V30 3464 O 323.874 -1.34905 1.14585 0
M  V30 3465 C 321.003 -2.40865 2.4462 0
M  V30 3466 C 320.089 -2.19014 3.63172 0
M  V30 3467 N 320.48 -1.67087 4.77405 0
M  V30 3468 C 318.778 -2.49494 3.69688 0
M  V30 3469 C 319.479 -1.6001 5.5926 0
M  V30 3470 N 318.455 -2.05999 5.03056 0
M  V30 3471 H 322.257 -0.686227 2.85776 0
M  V30 3472 H 319.771 -0.280617 1.59957 0
M  V30 3473 H 321.768 -3.14763 2.73368 0
M  V30 3474 H 320.428 -2.82403 1.60246 0
M  V30 3475 H 321.439 -1.35975 4.99731 0
M  V30 3476 H 318.116 -2.94409 2.96023 0
M  V30 3477 H 319.506 -1.2073 6.60964 0
M  V30 3478 N 322.226 -1.5378 -0.344866 0
M  V30 3479 C 323.472 -1.71216 -1.08687 0
M  V30 3480 C 323.805 -0.473281 -1.88345 0
M  V30 3481 O 323.08 0.52968 -1.87149 0
M  V30 3482 C 323.363 -2.97486 -2.02914 0
M  V30 3483 C 323.216 -4.31579 -1.26727 0
M  V30 3484 C 324.535 -3.19422 -3.0275 0
M  V30 3485 H 321.654 -0.62301 -0.393735 0
M  V30 3486 H 324.296 -1.8645 -0.365563 0
M  V30 3487 H 322.446 -2.84629 -2.64421 0
M  V30 3488 H 324.118 -4.56284 -0.67845 0
M  V30 3489 H 322.361 -4.30049 -0.569273 0
M  V30 3490 H 323.032 -5.16106 -1.95803 0
M  V30 3491 H 325.508 -3.316 -2.51357 0
M  V30 3492 H 324.384 -4.09169 -3.65885 0
M  V30 3493 H 324.645 -2.35656 -3.74057 0
M  V30 3494 N 323.704 0.605807 -1.45491 0
M  V30 3495 C 325.115 1.18777 -1.44045 0
M  V30 3496 C 325.466 1.95471 -0.169001 0
M  V30 3497 O 324.591 2.0374 0.729324 0
M  V30 3498 C 325.186 2.16064 -2.60963 0
M  V30 3499 C 323.745 2.69633 -2.62631 0
M  V30 3500 C 322.892 1.45072 -2.36325 0
M  V30 3501 H 325.843 0.395017 -1.53705 0
M  V30 3502 H 325.864 2.9913 -2.35163 0
M  V30 3503 H 325.376 1.60217 -3.53486 0
M  V30 3504 H 323.477 3.29414 -1.74119 0
M  V30 3505 H 323.59 3.13944 -3.61906 0
M  V30 3506 H 321.954 1.74089 -1.85917 0
M  V30 3507 H 322.737 0.910899 -3.30995 0
M  V30 3508 N 325.182 1.32811 0.848464 0
M  V30 3509 C 326.41 1.26739 1.63538 0
M  V30 3510 C 326.825 -0.163484 1.88091 0
M  V30 3511 O 326.182 -1.10258 1.45429 0
M  V30 3512 C 326.233 2.03013 2.99112 0
M  V30 3513 O 325.954 3.40518 2.75643 0
M  V30 3514 C 327.455 2.04038 3.93552 0
M  V30 3515 H 324.675 0.437024 0.509167 0
M  V30 3516 H 327.219 1.75033 1.05753 0
M  V30 3517 H 325.374 1.58426 3.53525 0
M  V30 3518 H 325.788 3.79635 3.61908 0
M  V30 3519 H 327.262 2.61877 4.85926 0
M  V30 3520 H 327.739 1.0282 4.26995 0
M  V30 3521 H 328.345 2.486 3.45077 0
M  V30 3522 N 326.66 -1.06551 1.16123 0
M  V30 3523 C 327.59 -2.15935 0.88851 0
M  V30 3524 C 328.571 -1.69306 -0.164135 0
M  V30 3525 O 329.756 -1.94193 -0.0167857 0
M  V30 3526 C 326.886 -3.45149 0.385942 0
M  V30 3527 C 325.84 -4.05271 1.3762 0
M  V30 3528 C 325.166 -5.29664 0.732137 0
M  V30 3529 C 326.466 -4.44355 2.74493 0
M  V30 3530 H 328.16 -2.39006 1.80323 0
M  V30 3531 H 325.706 -1.14866 0.868435 0
M  V30 3532 H 327.659 -4.21004 0.182647 0
M  V30 3533 H 326.383 -3.21689 -0.564274 0
M  V30 3534 H 325.042 -3.3147 1.56599 0
M  V30 3535 H 324.69 -5.02499 -0.224483 0
M  V30 3536 H 324.39 -5.70848 1.39307 0
M  V30 3537 H 325.914 -6.08218 0.538802 0
M  V30 3538 H 327.328 -5.11303 2.59311 0
M  V30 3539 H 325.725 -4.96515 3.37035 0
M  V30 3540 H 326.795 -3.55339 3.29943 0
M  V30 3541 N 328.138 -0.959301 -1.25041 0
M  V30 3542 C 329.385 -0.616611 -1.92884 0
M  V30 3543 C 329.713 0.847036 -1.75087 0
M  V30 3544 O 328.968 1.62374 -1.09239 0
M  V30 3545 C 329.267 -0.927136 -3.45165 0
M  V30 3546 C 328.933 -2.37757 -3.83122 0
M  V30 3547 C 327.595 -2.77402 -3.93194 0
M  V30 3548 C 329.947 -3.31929 -4.01836 0
M  V30 3549 C 327.275 -4.10277 -4.19392 0
M  V30 3550 C 329.627 -4.64423 -4.29528 0
M  V30 3551 C 328.291 -5.03857 -4.37818 0
M  V30 3552 H 327.561 -0.225634 -0.705812 0
M  V30 3553 H 330.208 -1.20921 -1.48493 0
M  V30 3554 H 328.513 -0.252195 -3.90987 0
M  V30 3555 H 330.21 -0.6405 -3.95852 0
M  V30 3556 H 326.8 -2.06013 -3.75841 0
M  V30 3557 H 330.984 -3.02488 -3.93465 0
M  V30 3558 H 326.24 -4.40467 -4.24027 0
M  V30 3559 H 330.414 -5.37369 -4.42953 0
M  V30 3560 H 328.041 -6.06843 -4.57871 0
M  V30 3561 N 329.616 1.39756 -0.72842 0
M  V30 3562 C 330.563 2.30647 -0.0841519 0
M  V30 3563 C 331.533 1.48869 0.7367 0
M  V30 3564 O 332.718 1.77574 0.698015 0
M  V30 3565 C 329.858 3.35165 0.822091 0
M  V30 3566 C 328.971 4.31999 -0.0106663 0
M  V30 3567 C 328.106 5.23585 0.896241 0
M  V30 3568 C 327.145 6.12072 0.0583381 0
M  V30 3569 N 326.282 6.96035 0.920818 0
M  V30 3570 H 331.122 2.85173 -0.864891 0
M  V30 3571 H 328.659 1.40422 -0.438179 0
M  V30 3572 H 330.617 3.94345 1.36189 0
M  V30 3573 H 329.247 2.8211 1.56888 0
M  V30 3574 H 328.299 3.74492 -0.66781 0
M  V30 3575 H 329.611 4.9443 -0.658825 0
M  V30 3576 H 328.765 5.87759 1.50412 0
M  V30 3577 H 327.504 4.61459 1.57819 0
M  V30 3578 H 326.509 5.46916 -0.562389 0
M  V30 3579 H 327.734 6.76261 -0.6203 0
M  V30 3580 H 325.68 6.36485 1.58818 0
M  V30 3581 H 325.597 7.55284 0.32899 0
M  V30 3582 H 326.865 7.64646 1.51447 0
M  V30 3583 N 331.094 0.475555 1.50254 0
M  V30 3584 C 332.041 -0.316293 2.28622 0
M  V30 3585 C 333.011 -0.983227 1.33873 0
M  V30 3586 O 334.196 -0.994805 1.62814 0
M  V30 3587 C 331.336 -1.38975 3.1588 0
M  V30 3588 C 330.449 -0.737146 4.25664 0
M  V30 3589 C 329.584 -1.78887 5.00173 0
M  V30 3590 C 328.623 -1.11676 6.01826 0
M  V30 3591 N 327.76 -2.11154 6.69596 0
M  V30 3592 H 332.6 0.358297 2.95838 0
M  V30 3593 H 330.137 0.188541 1.45887 0
M  V30 3594 H 332.095 -2.02383 3.64825 0
M  V30 3595 H 330.725 -2.03344 2.50701 0
M  V30 3596 H 329.777 0.0096065 3.80399 0
M  V30 3597 H 331.089 -0.206816 4.98371 0
M  V30 3598 H 330.243 -2.49865 5.52859 0
M  V30 3599 H 328.982 -2.35302 4.27182 0
M  V30 3600 H 327.987 -0.392633 5.48396 0
M  V30 3601 H 329.212 -0.55945 6.76792 0
M  V30 3602 H 327.158 -2.66577 5.99394 0
M  V30 3603 H 327.075 -1.63118 7.38193 0
M  V30 3604 H 328.343 -2.81497 7.26897 0
M  V30 3605 N 332.573 -1.56217 0.208337 0
M  V30 3606 C 333.822 -1.97124 -0.427204 0
M  V30 3607 C 334.135 -1.09859 -1.61835 0
M  V30 3608 O 335.341 -1.40606 -2.32255 0
M  V30 3609 C 333.797 -3.50633 -0.811442 0
M  V30 3610 C 333.405 -4.46582 0.35615 0
M  V30 3611 C 335.149 -4.00282 -1.41332 0
M  V30 3612 C 333.056 -5.91379 -0.0497852 0
M  V30 3613 H 331.986 -0.736086 -0.163381 0
M  V30 3614 H 334.637 -1.8099 0.302456 0
M  V30 3615 H 333.019 -3.62319 -1.59815 0
M  V30 3616 H 334.193 -4.46636 1.1337 0
M  V30 3617 H 332.508 -4.07202 0.870396 0
M  V30 3618 H 335.105 -5.0595 -1.72972 0
M  V30 3619 H 335.448 -3.45359 -2.32449 0
M  V30 3620 H 335.981 -3.91764 -0.690323 0
M  V30 3621 H 332.72 -6.50255 0.827529 0
M  V30 3622 H 332.24 -5.94549 -0.791926 0
M  V30 3623 H 333.919 -6.45209 -0.481042 0
M  V30 3624 N 334.051 0.0651679 -1.57465 0
M  V30 3625 C 335.467 0.420105 -1.53972 0
M  V30 3626 C 335.667 1.78782 -0.929474 0
M  V30 3627 O 334.723 2.46771 -0.534839 0
M  V30 3628 C 336.036 0.355084 -2.98596 0
M  V30 3629 C 337.584 0.434792 -3.09965 0
M  V30 3630 C 338.059 0.399609 -4.56253 0
M  V30 3631 N 339.55 0.459488 -4.60915 0
M  V30 3632 C 340.285 0.454584 -5.71595 0
M  V30 3633 N 339.781 0.404102 -6.9162 0
M  V30 3634 N 341.574 0.501635 -5.59857 0
M  V30 3635 H 333.725 -0.830328 -1.95498 0
M  V30 3636 H 335.988 -0.312244 -0.895102 0
M  V30 3637 H 335.694 -0.583357 -3.46828 0
M  V30 3638 H 335.568 1.16275 -3.58831 0
M  V30 3639 H 337.955 1.36366 -2.61703 0
M  V30 3640 H 338.036 -0.40157 -2.52628 0
M  V30 3641 H 337.68 -0.525436 -5.05175 0
M  V30 3642 H 337.61 1.25359 -5.11461 0
M  V30 3643 H 340.101 0.502482 -3.74544 0
M  V30 3644 H 340.414 0.404468 -7.71741 0
M  V30 3645 H 338.759 0.37069 -6.94011 0
M  V30 3646 H 341.95 0.538812 -4.64989 0
M  V30 3647 H 342.123 0.494345 -6.46112 0
M  V30 3648 N 335.529 1.53961 0.336706 0
M  V30 3649 C 336.777 1.71197 1.07405 0
M  V30 3650 C 337.098 0.481475 1.88962 0
M  V30 3651 O 336.368 -0.504585 1.8929 0
M  V30 3652 H 334.948 0.631185 0.399517 0
M  V30 3653 H 337.61 1.91232 0.376323 0
M  V30 3654 H 336.706 2.58587 1.74755 0
M  V30 3655 N 337.007 -0.598083 1.45811 0
M  V30 3656 C 338.255 -1.35413 1.50026 0
M  V30 3657 C 338.576 -1.94444 0.147177 0
M  V30 3658 O 337.846 -1.77701 -0.824571 0
M  V30 3659 H 336.426 -0.502727 0.552517 0
M  V30 3660 H 339.088 -0.701606 1.81834 0
M  V30 3661 H 338.184 -2.16871 2.2444 0
M  V30 3662 N 338.485 -1.33259 -0.841409 0
M  V30 3663 C 339.731 -1.24757 -1.59886 0
M  V30 3664 C 340.064 0.186913 -1.93298 0
M  V30 3665 O 339.339 1.12757 -1.5848 0
M  V30 3666 C 339.622 -2.12036 -2.91055 0
M  V30 3667 C 339.475 -3.63929 -2.6434 0
M  V30 3668 C 340.794 -1.9916 -3.92458 0
M  V30 3669 H 337.913 -0.454542 -0.580138 0
M  V30 3670 H 340.555 -1.63335 -0.970647 0
M  V30 3671 H 338.705 -1.79265 -3.44669 0
M  V30 3672 H 340.377 -4.06978 -2.17178 0
M  V30 3673 H 338.62 -3.85935 -1.98082 0
M  V30 3674 H 339.291 -4.20341 -3.57796 0
M  V30 3675 H 341.767 -2.27895 -3.48143 0
M  V30 3676 H 340.643 -2.62484 -4.82072 0
M  V30 3677 H 340.904 -0.963082 -4.31482 0
M  V30 3678 N 339.963 1.05934 -1.16686 0
M  V30 3679 C 341.21 1.788 -0.950622 0
M  V30 3680 C 341.538 1.87384 0.521305 0
M  V30 3681 O 340.793 1.36438 1.40297 0
M  V30 3682 C 341.092 3.23105 -1.52767 0
M  V30 3683 C 340.758 3.34594 -3.02254 0
M  V30 3684 C 339.42 3.37437 -3.43059 0
M  V30 3685 C 341.772 3.36219 -3.98254 0
M  V30 3686 C 339.1 3.39525 -4.78477 0
M  V30 3687 C 341.452 3.39845 -5.33562 0
M  V30 3688 C 340.116 3.40971 -5.73842 0
M  V30 3689 H 339.386 0.654275 -0.347857 0
M  V30 3690 H 342.033 1.24555 -1.45459 0
M  V30 3691 H 340.338 3.80227 -0.94524 0
M  V30 3692 H 342.035 3.7809 -1.336 0
M  V30 3693 H 338.625 3.3309 -2.6972 0
M  V30 3694 H 342.809 3.33231 -3.67792 0
M  V30 3695 H 338.065 3.38703 -5.09009 0
M  V30 3696 H 342.239 3.4005 -6.07733 0
M  V30 3697 H 339.866 3.42342 -6.78753 0
M  V30 3698 N 341.441 0.965919 1.2453 0
M  V30 3699 C 342.671 0.643451 1.96324 0
M  V30 3700 C 343.079 -0.790927 1.71875 0
M  V30 3701 O 342.422 -1.54208 0.998273 0
M  V30 3702 C 342.484 0.836078 3.49643 0
M  V30 3703 C 342.148 2.24975 3.97788 0
M  V30 3704 C 343.145 3.22735 4.07601 0
M  V30 3705 C 340.83 2.57697 4.31158 0
M  V30 3706 C 342.824 4.51303 4.50116 0
M  V30 3707 C 340.511 3.86492 4.73357 0
M  V30 3708 C 341.509 4.83107 4.828 0
M  V30 3709 O 341.197 6.09605 5.24058 0
M  V30 3710 H 340.929 0.239223 0.632257 0
M  V30 3711 H 343.483 1.29587 1.59362 0
M  V30 3712 H 341.713 0.12649 3.86493 0
M  V30 3713 H 343.402 0.512965 4.02646 0
M  V30 3714 H 344.168 2.98783 3.82039 0
M  V30 3715 H 340.047 1.83216 4.23028 0
M  V30 3716 H 343.591 5.26716 4.57401 0
M  V30 3717 H 339.488 4.10245 4.98366 0
M  V30 3718 H 340.256 6.13146 5.42213 0
M  V30 3719 N 342.919 -1.39368 0.735821 0
M  V30 3720 C 344.168 -1.99733 0.281004 0
M  V30 3721 C 344.481 -1.59055 -1.13846 0
M  V30 3722 O 345.687 -2.12262 -1.69284 0
M  V30 3723 C 344.143 -3.57057 0.451462 0
M  V30 3724 C 343.751 -4.06697 1.87886 0
M  V30 3725 C 345.495 -4.2446 0.0584616 0
M  V30 3726 C 343.402 -5.56598 1.99883 0
M  V30 3727 H 342.332 -0.747163 0.101311 0
M  V30 3728 H 344.983 -1.59357 0.909819 0
M  V30 3729 H 343.365 -3.95234 -0.246263 0
M  V30 3730 H 344.539 -3.79853 2.60861 0
M  V30 3731 H 342.854 -3.5196 2.22515 0
M  V30 3732 H 345.451 -5.34549 0.127099 0
M  V30 3733 H 345.794 -4.04444 -0.986433 0
M  V30 3734 H 346.327 -3.9146 0.707374 0
M  V30 3735 H 343.066 -5.81494 3.02564 0
M  V30 3736 H 342.586 -5.85242 1.31346 0
M  V30 3737 H 344.265 -6.22022 1.78039 0
M  V30 3738 N 344.397 -0.483516 -1.5 0
M  V30 3739 C 345.808 -0.0314176 -1.86674 0
M  V30 3740 C 346.159 1.37728 -1.39733 0
M  V30 3741 O 345.284 2.02327 -0.767635 0
M  V30 3742 C 345.879 -0.0502376 -3.38763 0
M  V30 3743 C 344.438 0.346442 -3.74802 0
M  V30 3744 C 343.585 -0.430366 -2.7394 0
M  V30 3745 H 346.536 -0.697182 -1.42566 0
M  V30 3746 H 346.557 0.749116 -3.73053 0
M  V30 3747 H 346.069 -1.07563 -3.72897 0
M  V30 3748 H 344.17 1.37572 -3.46273 0
M  V30 3749 H 344.283 0.0391486 -4.79084 0
M  V30 3750 H 342.647 0.117557 -2.54429 0
M  V30 3751 H 343.43 -1.4555 -3.10918 0
M  V30 3752 N 345.875 1.56104 -0.216619 0
M  V30 3753 C 346.785 2.23694 0.706982 0
M  V30 3754 C 347.801 1.24295 1.21765 0
M  V30 3755 O 348.977 1.57094 1.2603 0
M  V30 3756 C 346.042 2.8998 1.90033 0
M  V30 3757 C 345.103 4.04708 1.43213 0
M  V30 3758 C 344.336 4.67824 2.56859 0
M  V30 3759 O 344.559 4.29913 3.74874 0
M  V30 3760 O 343.493 5.56905 2.28343 0
M  V30 3761 H 347.319 3.03272 0.161235 0
M  V30 3762 H 344.904 1.49394 0.0136177 0
M  V30 3763 H 346.786 3.31837 2.59735 0
M  V30 3764 H 345.461 2.13365 2.43428 0
M  V30 3765 H 344.368 3.6743 0.70327 0
M  V30 3766 H 345.701 4.83051 0.944615 0
M  V30 3767 N 347.353 -0.0568162 1.57498 0
M  V30 3768 C 348.583 -0.764515 1.91934 0
M  V30 3769 C 348.991 -1.70877 0.81227 0
M  V30 3770 O 348.334 -1.82351 -0.222213 0
M  V30 3771 C 348.396 -1.5994 3.21962 0
M  V30 3772 C 348.06 -0.822925 4.4953 0
M  V30 3773 C 349.057 -0.135464 5.19723 0
M  V30 3774 C 346.742 -0.785666 4.96117 0
M  V30 3775 C 348.736 0.578861 6.34766 0
M  V30 3776 C 346.423 -0.0675784 6.11063 0
M  V30 3777 C 347.421 0.613471 6.80239 0
M  V30 3778 O 347.109 1.31996 7.92989 0
M  V30 3779 H 346.841 -0.221647 0.63863 0
M  V30 3780 H 349.395 -0.0268218 2.05382 0
M  V30 3781 H 347.625 -2.38026 3.04763 0
M  V30 3782 H 349.314 -2.18715 3.41934 0
M  V30 3783 H 350.08 -0.155458 4.84751 0
M  V30 3784 H 345.959 -1.30524 4.42136 0
M  V30 3785 H 349.503 1.111 6.88696 0
M  V30 3786 H 345.4 -0.0455636 6.45484 0
M  V30 3787 H 346.168 1.23077 8.09194 0
M  V30 3788 N 348.832 -1.54138 -0.328536 0
M  V30 3789 C 349.762 -1.86167 -1.40939 0
M  V30 3790 C 350.743 -0.718044 -1.54202 0
M  V30 3791 O 351.928 -0.971328 -1.68163 0
M  V30 3792 C 349.058 -2.08461 -2.77779 0
M  V30 3793 C 348.012 -3.24299 -2.7931 0
M  V30 3794 C 347.338 -3.31955 -4.19178 0
M  V30 3795 C 348.638 -4.62065 -2.43502 0
M  V30 3796 H 350.332 -2.76689 -1.14383 0
M  V30 3797 H 347.878 -1.33132 -0.548806 0
M  V30 3798 H 349.831 -2.29453 -3.53454 0
M  V30 3799 H 348.555 -1.14684 -3.05802 0
M  V30 3800 H 347.214 -3.03187 -2.0609 0
M  V30 3801 H 346.862 -2.35745 -4.44335 0
M  V30 3802 H 346.562 -4.09805 -4.2111 0
M  V30 3803 H 348.086 -3.55175 -4.96672 0
M  V30 3804 H 349.5 -4.8297 -3.08889 0
M  V30 3805 H 347.897 -5.42429 -2.56693 0
M  V30 3806 H 348.967 -4.64652 -1.38659 0
M  V30 3807 N 350.31 0.590341 -1.46126 0
M  V30 3808 C 351.258 1.72105 -1.5647 0
M  V30 3809 C 352.252 1.63756 -0.433612 0
M  V30 3810 O 353.458 1.69342 -0.610194 0
M  V30 3811 H 349.833 0.568889 -0.491802 0
M  V30 3812 H 351.804 1.6051 -2.51553 0
M  V30 3813 C 350.553 3.10493 -1.56491 0
M  V30 3814 H 349.876 3.17583 -2.4286 0
M  V30 3815 H 351.316 3.8939 -1.67785 0
M  V30 3816 C 349.775 3.3563 -0.292231 0
M  V30 3817 O 350.305 3.96875 0.620739 0
M  V30 3818 N 348.511 2.90026 -0.182523 0
M  V30 3819 H 348.058 2.40367 -0.926356 0
M  V30 3820 H 348.016 3.07218 0.668152 0
M  V30 3821 N 351.788 1.33704 0.83433 0
M  V30 3822 C 353.204 1.13137 1.12571 0
M  V30 3823 C 353.404 -0.0747261 2.01361 0
M  V30 3824 O 352.46 -0.753647 2.4099 0
M  V30 3825 C 353.773 2.42105 1.78342 0
M  V30 3826 C 355.321 2.48054 1.90888 0
M  V30 3827 C 355.796 3.76995 2.60075 0
M  V30 3828 N 357.287 3.78092 2.67584 0
M  V30 3829 C 358.022 4.74574 3.21818 0
M  V30 3830 N 357.518 5.81434 3.76705 0
M  V30 3831 N 359.311 4.62044 3.20112 0
M  V30 3832 H 351.462 2.11 0.243489 0
M  V30 3833 H 353.725 0.932532 0.17055 0
M  V30 3834 H 353.431 3.30391 1.20561 0
M  V30 3835 H 353.305 2.54594 2.7832 0
M  V30 3836 H 355.692 1.60215 2.47821 0
M  V30 3837 H 355.773 2.39502 0.898459 0
M  V30 3838 H 355.417 4.65219 2.03799 0
M  V30 3839 H 355.347 3.82825 3.61597 0
M  V30 3840 H 357.838 3.00865 2.28667 0
M  V30 3841 H 358.151 6.51084 4.16305 0
M  V30 3842 H 356.496 5.85163 3.7498 0
M  V30 3843 H 359.687 3.77716 2.76493 0
M  V30 3844 H 359.86 5.37406 3.62076 0
M  V30 3845 N 353.266 -1.05314 1.17247 0
M  V30 3846 C 354.491 -1.82509 0.985148 0
M  V30 3847 C 354.916 -1.82343 -0.461788 0
M  V30 3848 O 354.274 -1.23151 -1.33055 0
M  V30 3849 C 354.322 -3.26566 1.52929 0
M  V30 3850 O 353.426 -4.05666 0.742225 0
M  V30 3851 H 352.767 -0.564347 0.349869 0
M  V30 3852 H 355.297 -1.32718 1.55715 0
M  V30 3853 H 355.307 -3.77369 1.55103 0
M  V30 3854 H 353.982 -3.26001 2.58256 0
M  V30 3855 H 352.559 -3.64397 0.791794 0
M  V30 3856 N 354.744 -0.972509 -1.24016 0
M  V30 3857 C 355.99 -0.637978 -1.92504 0
M  V30 3858 C 356.323 0.825383 -1.75787 0
M  V30 3859 O 355.598 1.59442 -1.11393 0
M  V30 3860 C 355.881 -1.01942 -3.45369 0
M  V30 3861 C 355.734 -2.53983 -3.71231 0
M  V30 3862 C 357.053 -0.55751 -4.36555 0
M  V30 3863 H 354.172 -0.233248 -0.699117 0
M  V30 3864 H 356.814 -1.21238 -1.46292 0
M  V30 3865 H 354.964 -0.530656 -3.84859 0
M  V30 3866 H 356.636 -3.10374 -3.41271 0
M  V30 3867 H 354.879 -2.96968 -3.16216 0
M  V30 3868 H 355.55 -2.75723 -4.78206 0
M  V30 3869 H 358.026 -0.977029 -4.04467 0
M  V30 3870 H 356.902 -0.85292 -5.42233 0
M  V30 3871 H 357.163 0.542328 -4.38761 0
M  V30 3872 N 356.222 1.38976 -0.743202 0
M  V30 3873 C 357.185 2.28901 -0.117014 0
M  V30 3874 C 358.185 1.46698 0.658503 0
M  V30 3875 O 359.375 1.67274 0.486305 0
M  V30 3876 C 356.507 3.30309 0.84315 0
M  V30 3877 H 357.7 2.8578 -0.909373 0
M  V30 3878 H 355.253 1.47761 -0.509547 0
M  V30 3879 H 355.988 2.785 1.66157 0
M  V30 3880 H 355.773 3.91029 0.289594 0
M  V30 3881 H 357.263 3.97577 1.2776 0
M  V30 3882 N 357.7 0.491464 1.49741 0
M  V30 3883 C 358.928 -0.0535151 2.06831 0
M  V30 3884 C 359.343 -1.31683 1.35296 0
M  V30 3885 O 358.7 -1.77402 0.42836 0
M  V30 3886 C 358.751 -0.320835 3.60073 0
M  V30 3887 O 358.472 0.892394 4.28915 0
M  V30 3888 C 359.973 -0.910519 4.33848 0
M  V30 3889 H 357.193 0.0161909 0.670805 0
M  V30 3890 H 359.737 0.68609 1.92647 0
M  V30 3891 H 357.892 -1.0104 3.73991 0
M  V30 3892 H 358.306 0.649401 5.20464 0
M  V30 3893 H 359.78 -1.04721 5.41976 0
M  V30 3894 H 360.257 -1.90589 3.95692 0
M  V30 3895 H 360.863 -0.258712 4.24512 0
M  V30 3896 N 359.178 -1.55987 0.224894 0
M  V30 3897 C 360.108 -2.23426 -0.678457 0
M  V30 3898 C 361.089 -1.20709 -1.19847 0
M  V30 3899 O 362.274 -1.49304 -1.24186 0
M  V30 3900 C 359.404 -2.91676 -1.88527 0
M  V30 3901 C 358.358 -4.00893 -1.49896 0
M  V30 3902 C 357.684 -4.56455 -2.78483 0
M  V30 3903 C 358.984 -5.17769 -0.686461 0
M  V30 3904 H 360.678 -2.99175 -0.116173 0
M  V30 3905 H 358.224 -1.43897 -0.054436 0
M  V30 3906 H 360.177 -3.37547 -2.5227 0
M  V30 3907 H 358.901 -2.1338 -2.47258 0
M  V30 3908 H 357.56 -3.55758 -0.884985 0
M  V30 3909 H 357.208 -3.74886 -3.35365 0
M  V30 3910 H 356.908 -5.30169 -2.53368 0
M  V30 3911 H 358.432 -5.05047 -3.43162 0
M  V30 3912 H 359.846 -5.60001 -1.22767 0
M  V30 3913 H 358.243 -5.97735 -0.532259 0
M  V30 3914 H 359.313 -4.83932 0.306196 0
M  V30 3915 N 360.656 0.0484629 -1.57525 0
M  V30 3916 C 361.586 1.0549 -2.08313 0
M  V30 3917 C 362.567 1.38929 -0.981463 0
M  V30 3918 O 363.752 1.48151 -1.25558 0
M  V30 3919 C 360.882 2.36162 -2.54646 0
M  V30 3920 C 359.836 2.17016 -3.68901 0
M  V30 3921 C 359.162 3.53278 -4.01371 0
M  V30 3922 C 360.462 1.57219 -4.98076 0
M  V30 3923 H 362.156 0.632195 -2.92649 0
M  V30 3924 H 359.702 0.302654 -1.40784 0
M  V30 3925 H 361.655 3.06882 -2.88793 0
M  V30 3926 H 360.379 2.80456 -1.67368 0
M  V30 3927 H 359.038 1.48733 -3.35073 0
M  V30 3928 H 358.686 3.95185 -3.11188 0
M  V30 3929 H 358.386 3.41299 -4.78318 0
M  V30 3930 H 359.91 4.25391 -4.38035 0
M  V30 3931 H 361.324 2.17832 -5.30304 0
M  V30 3932 H 359.721 1.55871 -5.79503 0
M  V30 3933 H 360.791 0.535956 -4.81929 0
M  V30 3934 N 362.134 1.5431 0.320358 0
M  V30 3935 C 363.067 1.78769 1.41834 0
M  V30 3936 C 364.045 0.63783 1.49568 0
M  V30 3937 O 365.229 0.875628 1.66928 0
M  V30 3938 C 362.356 1.90712 2.79905 0
M  V30 3939 C 361.402 3.13023 2.89687 0
M  V30 3940 S 362.235 4.71554 2.53766 0
M  V30 3941 C 363.391 4.86408 3.93902 0
M  V30 3942 H 363.624 2.71619 1.20874 0
M  V30 3943 H 361.157 1.45474 0.517377 0
M  V30 3944 H 363.115 1.98279 3.59438 0
M  V30 3945 H 361.776 0.988343 2.98145 0
M  V30 3946 H 360.969 3.18124 3.90913 0
M  V30 3947 H 360.571 3.03803 2.18128 0
M  V30 3948 H 362.863 4.69241 4.88691 0
M  V30 3949 H 363.806 5.88508 3.93782 0
M  V30 3950 H 364.214 4.14689 3.83005 0
M  V30 3951 N 363.613 -0.582584 1.46437 0
M  V30 3952 C 364.563 -1.68654 1.53426 0
M  V30 3953 C 365.547 -1.55971 0.395194 0
M  V30 3954 O 366.739 -1.64884 0.643612 0
M  V30 3955 C 363.868 -3.07439 1.52762 0
M  V30 3956 C 362.954 -3.25418 2.71963 0
M  V30 3957 N 363.345 -3.13556 3.96883 0
M  V30 3958 C 361.643 -3.56357 2.68189 0
M  V30 3959 C 362.344 -3.33543 4.76575 0
M  V30 3960 N 361.32 -3.58704 4.08451 0
M  V30 3961 H 365.122 -1.58014 2.47808 0
M  V30 3962 H 362.636 -0.786617 1.42078 0
M  V30 3963 H 364.633 -3.86671 1.55857 0
M  V30 3964 H 363.293 -3.1921 0.594573 0
M  V30 3965 H 364.304 -2.9142 4.28129 0
M  V30 3966 H 360.981 -3.74812 1.83908 0
M  V30 3967 H 362.371 -3.29555 5.85528 0
M  V30 3968 N 365.091 -1.34144 -0.827227 0
M  V30 3969 C 366.024 -1.19707 -1.94282 0
M  V30 3970 C 367.002 -0.0897256 -1.62352 0
M  V30 3971 O 368.186 -0.254095 -1.8678 0
M  V30 3972 C 365.313 -0.838646 -3.28153 0
M  V30 3973 C 364.359 -1.95514 -3.79047 0
M  V30 3974 S 365.192 -3.56793 -3.99323 0
M  V30 3975 C 366.348 -3.22983 -5.36127 0
M  V30 3976 H 366.581 -2.1414 -2.06231 0
M  V30 3977 H 364.114 -1.19121 -0.982321 0
M  V30 3978 H 366.072 -0.638637 -4.05502 0
M  V30 3979 H 364.733 0.0872776 -3.13979 0
M  V30 3980 H 363.926 -1.658 -4.75948 0
M  V30 3981 H 363.528 -2.11241 -3.08631 0
M  V30 3982 H 365.82 -2.74531 -6.19386 0
M  V30 3983 H 366.763 -4.19008 -5.70822 0
M  V30 3984 H 367.171 -2.59276 -5.01434 0
M  V30 3985 N 366.569 1.04691 -1.17803 0
M  V30 3986 C 367.499 2.14494 -0.92275 0
M  V30 3987 C 368.48 1.69546 0.137179 0
M  V30 3988 O 369.665 1.94195 -0.0141108 0
M  V30 3989 C 366.795 3.44491 -0.440803 0
M  V30 3990 C 365.749 4.03031 -1.4405 0
M  V30 3991 C 365.075 5.28432 -0.81631 0
M  V30 3992 C 366.375 4.39932 -2.81527 0
M  V30 3993 H 368.069 2.36107 -1.84103 0
M  V30 3994 H 365.615 1.1347 -0.886599 0
M  V30 3995 H 367.568 4.2066 -0.249602 0
M  V30 3996 H 366.292 3.22546 0.513025 0
M  V30 3997 H 364.951 3.28937 -1.61853 0
M  V30 3998 H 364.599 5.02792 0.144511 0
M  V30 3999 H 364.299 5.68559 -1.48371 0
M  V30 4000 H 365.823 6.07284 -0.635496 0
M  V30 4001 H 367.237 5.07113 -2.67412 0
M  V30 4002 H 365.634 4.9109 -3.44892 0
M  V30 4003 H 366.704 3.50045 -3.35554 0
M  V30 4004 N 368.047 0.979072 1.23499 0
M  V30 4005 C 368.979 0.476271 2.24197 0
M  V30 4006 C 369.992 -0.421166 1.57258 0
M  V30 4007 O 371.181 -0.225515 1.7707 0
M  V30 4008 C 368.281 -0.330503 3.37285 0
M  V30 4009 C 367.454 0.559744 4.33804 0
M  V30 4010 C 366.513 -0.192954 5.25846 0
M  V30 4011 O 365.539 0.416978 5.67671 0
M  V30 4012 N 366.741 -1.47932 5.61334 0
M  V30 4013 H 369.506 1.34211 2.67969 0
M  V30 4014 H 367.067 0.852189 1.37657 0
M  V30 4015 H 369.059 -0.842361 3.95836 0
M  V30 4016 H 367.629 -1.09734 2.92707 0
M  V30 4017 H 366.849 1.25245 3.73775 0
M  V30 4018 H 368.137 1.1665 4.95248 0
M  V30 4019 H 367.535 -1.9964 5.29302 0
M  V30 4020 H 366.092 -1.93664 6.22364 0
M  V30 4021 N 369.525 -1.3858 0.750561 0
M  V30 4022 C 370.771 -2.00481 0.305825 0
M  V30 4023 C 371.104 -1.5944 -1.10872 0
M  V30 4024 O 370.379 -0.83052 -1.75877 0
M  V30 4025 C 370.662 -3.5758 0.425287 0
M  V30 4026 C 370.515 -4.08594 1.88072 0
M  V30 4027 C 371.834 -4.39719 -0.183122 0
M  V30 4028 H 368.953 -0.728348 0.112598 0
M  V30 4029 H 371.595 -1.64566 0.949638 0
M  V30 4030 H 369.745 -3.88306 -0.122828 0
M  V30 4031 H 371.417 -3.88523 2.48691 0
M  V30 4032 H 369.66 -3.61574 2.39681 0
M  V30 4033 H 370.331 -5.177 1.91548 0
M  V30 4034 H 372.807 -4.15128 0.284303 0
M  V30 4035 H 371.683 -5.48856 -0.0692757 0
M  V30 4036 H 371.944 -4.23434 -1.27106 0
M  V30 4037 N 371.003 -0.499398 -1.49478 0
M  V30 4038 C 372.28 0.108629 -1.95298 0
M  V30 4039 C 372.66 1.54282 -1.44084 0
M  V30 4040 O 372.008 2.18944 -0.653908 0
M  V30 4041 C 372.218 0.0229111 -3.48992 0
M  V30 4042 C 373.566 0.197643 -4.2414 0
M  V30 4043 O 374.59 0.0981735 -3.56065 0
M  V30 4044 O 373.449 0.401669 -5.45022 0
M  V30 4045 H 370.543 0.096181 -0.821388 0
M  V30 4046 H 373.089 -0.561822 -1.6013 0
M  V30 4047 H 371.861 -0.977321 -3.78899 0
M  V30 4048 H 371.484 0.733579 -3.90774 0
M  V30 4049 N 372.481 1.55866 -0.233164 0
M  V30 4050 C 373.892 1.847 0.272554 0
M  V30 4051 C 374.243 1.15477 1.58617 0
M  V30 4052 O 373.368 0.42841 2.12117 0
M  V30 4053 C 373.963 3.35071 0.501299 0
M  V30 4054 C 372.522 3.6418 0.951304 0
M  V30 4055 C 371.669 2.77292 0.0208209 0
M  V30 4056 H 374.62 1.52005 -0.456074 0
M  V30 4057 H 374.641 3.55906 1.34577 0
M  V30 4058 H 374.153 3.85424 -0.454936 0
M  V30 4059 H 372.254 3.19293 1.92049 0
M  V30 4060 H 372.367 4.72071 0.817675 0
M  V30 4061 H 370.731 2.49131 0.529723 0
M  V30 4062 H 371.514 3.30448 -0.93054 0
M  V30 4063 N 373.959 -0.0401083 1.57549 0
M  V30 4064 C 374.889 -1.04384 2.08869 0
M  V30 4065 C 375.87 -1.38407 0.988817 0
M  V30 4066 O 377.055 -1.47483 1.26342 0
M  V30 4067 C 374.185 -2.34808 2.55895 0
M  V30 4068 C 373.139 -2.15057 3.70047 0
M  V30 4069 C 372.465 -3.51145 4.03239 0
M  V30 4070 C 373.765 -1.54576 4.98902 0
M  V30 4071 H 375.459 -0.616666 2.92981 0
M  V30 4072 H 373.005 -0.295184 1.40942 0
M  V30 4073 H 374.958 -3.05346 2.90417 0
M  V30 4074 H 373.682 -2.79565 1.68853 0
M  V30 4075 H 372.341 -1.46954 3.35857 0
M  V30 4076 H 371.989 -3.93529 3.13279 0
M  V30 4077 H 371.689 -3.38758 4.80122 0
M  V30 4078 H 373.213 -4.23062 4.40285 0
M  V30 4079 H 374.627 -2.15017 5.31451 0
M  V30 4080 H 373.024 -1.52796 5.80322 0
M  V30 4081 H 374.094 -0.51039 4.82206 0
M  V30 4082 N 375.437 -1.54477 -0.31217 0
M  V30 4083 C 376.384 -1.84655 -1.38461 0
M  V30 4084 C 377.354 -0.694536 -1.50882 0
M  V30 4085 O 378.539 -0.942081 -1.6592 0
M  V30 4086 C 375.679 -2.0896 -2.74645 0
M  V30 4087 C 374.792 -3.36618 -2.70763 0
M  V30 4088 C 373.927 -3.50824 -3.98868 0
M  V30 4089 C 372.966 -4.72315 -3.89339 0
M  V30 4090 N 372.103 -4.83387 -5.09197 0
M  V30 4091 H 376.943 -2.76142 -1.12026 0
M  V30 4092 H 374.48 -1.36748 -0.542065 0
M  V30 4093 H 376.438 -2.21045 -3.53829 0
M  V30 4094 H 375.068 -1.20752 -2.99364 0
M  V30 4095 H 374.12 -3.33211 -1.83506 0
M  V30 4096 H 375.432 -4.25917 -2.59608 0
M  V30 4097 H 374.586 -3.62513 -4.86486 0
M  V30 4098 H 373.325 -2.59638 -4.12843 0
M  V30 4099 H 372.33 -4.6067 -3.00105 0
M  V30 4100 H 373.555 -5.64897 -3.76919 0
M  V30 4101 H 371.501 -3.9512 -5.23657 0
M  V30 4102 H 371.418 -5.66669 -5.00422 0
M  V30 4103 H 372.686 -4.9942 -5.98498 0
M  V30 4104 N 376.915 0.57481 -1.46744 0
M  V30 4105 C 378.331 0.898981 -1.31873 0
M  V30 4106 C 378.531 1.99313 -0.29605 0
M  V30 4107 O 377.587 2.50728 0.298621 0
M  V30 4108 C 378.9 1.30886 -2.7072 0
M  V30 4109 C 380.448 1.42127 -2.78871 0
M  V30 4110 C 380.923 1.86478 -4.18318 0
M  V30 4111 N 382.414 1.93658 -4.20774 0
M  V30 4112 C 383.149 2.29267 -5.2557 0
M  V30 4113 N 382.645 2.63612 -6.40688 0
M  V30 4114 N 384.438 2.29889 -5.1294 0
M  V30 4115 H 376.589 -0.147839 -2.11885 0
M  V30 4116 H 378.852 -0.00347013 -0.947994 0
M  V30 4117 H 378.558 0.578853 -3.46904 0
M  V30 4118 H 378.432 2.26874 -3.01343 0
M  V30 4119 H 380.819 2.14213 -2.0297 0
M  V30 4120 H 380.9 0.443705 -2.51922 0
M  V30 4121 H 380.544 1.14968 -4.94717 0
M  V30 4122 H 380.474 2.85207 -4.42679 0
M  V30 4123 H 382.965 1.69574 -3.37718 0
M  V30 4124 H 383.278 2.89759 -7.16421 0
M  V30 4125 H 381.623 2.61232 -6.44036 0
M  V30 4126 H 384.814 2.02485 -4.22039 0
M  V30 4127 H 384.987 2.57312 -5.94722 0
M  V30 4128 N 378.394 1.34581 0.820102 0
M  V30 4129 C 379.357 1.2628 1.91275 0
M  V30 4130 C 380.357 0.177344 1.59819 0
M  V30 4131 O 381.547 0.430156 1.68806 0
M  V30 4132 C 378.679 0.950327 3.27386 0
M  V30 4133 H 379.872 2.23421 2.00057 0
M  V30 4134 H 377.425 1.1891 1.0144 0
M  V30 4135 H 378.16 -0.0177938 3.24295 0
M  V30 4136 H 377.945 1.73549 3.51601 0
M  V30 4137 H 379.435 0.917492 4.07396 0
M  V30 4138 N 379.872 -1.04064 1.18357 0
M  V30 4139 C 381.1 -1.80916 1.00384 0
M  V30 4140 C 381.515 -1.83414 -0.447738 0
M  V30 4141 O 380.872 -1.26962 -1.31099 0
M  V30 4142 C 380.923 -3.26516 1.55144 0
M  V30 4143 O 380.644 -3.2424 2.94618 0
M  V30 4144 C 382.145 -4.20013 1.41789 0
M  V30 4145 H 379.365 -0.569728 0.354474 0
M  V30 4146 H 381.909 -1.31151 1.56906 0
M  V30 4147 H 380.064 -3.73512 1.02798 0
M  V30 4148 H 380.478 -4.15452 3.20156 0
M  V30 4149 H 381.952 -5.20111 1.84901 0
M  V30 4150 H 382.429 -4.37667 0.36661 0
M  V30 4151 H 383.035 -3.78881 1.93207 0
M  V30 4152 N 381.35 -0.985608 -1.22978 0
M  V30 4153 C 382.599 -0.652881 -1.90841 0
M  V30 4154 C 382.912 0.817842 -1.77681 0
M  V30 4155 O 384.118 1.26185 -2.40395 0
M  V30 4156 C 382.574 -1.11717 -3.42122 0
M  V30 4157 C 382.182 -2.6126 -3.63933 0
M  V30 4158 C 383.926 -0.85843 -4.1573 0
M  V30 4159 C 381.833 -3.0133 -5.08876 0
M  V30 4160 H 380.763 -0.240491 -0.714619 0
M  V30 4161 H 383.414 -1.1942 -1.39324 0
M  V30 4162 H 381.796 -0.504027 -3.92779 0
M  V30 4163 H 382.97 -3.27858 -3.23799 0
M  V30 4164 H 381.285 -2.84937 -3.03644 0
M  V30 4165 H 383.882 -1.13359 -5.22546 0
M  V30 4166 H 384.225 0.205461 -4.15793 0
M  V30 4167 H 384.758 -1.43341 -3.71077 0
M  V30 4168 H 381.497 -4.06864 -5.13947 0
M  V30 4169 H 381.017 -2.3943 -5.49939 0
M  V30 4170 H 382.696 -2.92224 -5.77247 0
M  V30 4171 N 382.828 1.3818 -0.7579 0
M  V30 4172 C 383.775 2.30416 -0.133057 0
M  V30 4173 C 384.745 1.50398 0.704957 0
M  V30 4174 O 385.93 1.79014 0.660192 0
M  V30 4175 C 383.07 3.36834 0.750813 0
M  V30 4176 C 382.183 4.31879 -0.102297 0
M  V30 4177 C 381.318 5.25368 0.784979 0
M  V30 4178 C 380.357 6.12058 -0.0715046 0
M  V30 4179 N 379.494 6.97832 0.772972 0
M  V30 4180 H 384.334 2.83274 -0.925186 0
M  V30 4181 H 381.871 1.39461 -0.467866 0
M  V30 4182 H 383.829 3.97145 1.27794 0
M  V30 4183 H 382.459 2.85374 1.50868 0
M  V30 4184 H 381.511 3.72991 -0.747095 0
M  V30 4185 H 382.823 4.92921 -0.763552 0
M  V30 4186 H 381.977 5.90818 1.37911 0
M  V30 4187 H 380.716 4.64703 1.47996 0
M  V30 4188 H 379.721 5.456 -0.678272 0
M  V30 4189 H 380.946 6.74793 -0.763606 0
M  V30 4190 H 378.892 6.3971 1.45282 0
M  V30 4191 H 378.809 7.55812 0.168709 0
M  V30 4192 H 380.077 7.67687 1.35194 0
M  V30 4193 N 384.306 0.507319 1.49211 0
M  V30 4194 C 385.583 -0.0982702 1.95353 0
M  V30 4195 C 385.963 -1.53516 1.449 0
M  V30 4196 O 385.311 -2.18594 0.66551 0
M  V30 4197 C 385.521 -0.00440283 3.49 0
M  V30 4198 C 386.869 -0.175147 4.24239 0
M  V30 4199 O 387.893 -0.0792891 3.56112 0
M  V30 4200 O 386.752 -0.37276 5.45227 0
M  V30 4201 H 383.846 -0.0918236 0.821887 0
M  V30 4202 H 386.392 0.570307 1.5983 0
M  V30 4203 H 385.164 0.997402 3.78375 0
M  V30 4204 H 384.787 -0.712845 3.91158 0
M  V30 4205 N 385.784 -1.5574 0.241426 0
M  V30 4206 C 387.033 -1.97986 -0.385295 0
M  V30 4207 C 387.346 -1.13267 -1.59468 0
M  V30 4208 O 388.552 -1.45501 -2.2922 0
M  V30 4209 C 387.008 -3.52275 -0.736884 0
M  V30 4210 C 386.616 -4.45726 0.450796 0
M  V30 4211 C 388.36 -4.03189 -1.3281 0
M  V30 4212 C 386.267 -5.91352 0.0756662 0
M  V30 4213 H 385.197 -0.739386 -0.147731 0
M  V30 4214 H 387.848 -1.80308 0.340779 0
M  V30 4215 H 386.23 -3.65628 -1.52094 0
M  V30 4216 H 387.404 -4.44131 1.22819 0
M  V30 4217 H 385.719 -4.05264 0.956573 0
M  V30 4218 H 388.316 -5.09505 -1.62201 0
M  V30 4219 H 388.659 -3.50212 -2.25071 0
M  V30 4220 H 389.192 -3.93141 -0.607069 0
M  V30 4221 H 385.931 -6.48354 0.965272 0
M  V30 4222 H 385.451 -5.96095 -0.665635 0
M  V30 4223 H 387.13 -6.46084 -0.344075 0
M  V30 4224 N 387.262 0.0317525 -1.57568 0
M  V30 4225 C 388.678 0.38735 -1.54828 0
M  V30 4226 C 388.878 1.7677 -0.967187 0
M  V30 4227 O 387.934 2.45581 -0.587063 0
M  V30 4228 C 389.247 0.291667 -2.99282 0
M  V30 4229 C 390.795 0.368946 -3.10818 0
M  V30 4230 C 391.27 0.302741 -4.56998 0
M  V30 4231 N 392.761 0.361617 -4.61786 0
M  V30 4232 C 393.496 0.333238 -5.72431 0
M  V30 4233 N 392.992 0.257308 -6.92322 0
M  V30 4234 N 394.785 0.382769 -5.60795 0
M  V30 4235 H 386.936 -0.871609 -1.93692 0
M  V30 4236 H 389.199 -0.331161 -0.888277 0
M  V30 4237 H 388.905 -0.656794 -3.45513 0
M  V30 4238 H 388.779 1.08638 -3.61217 0
M  V30 4239 H 391.166 1.30784 -2.64536 0
M  V30 4240 H 391.247 -0.455066 -2.5172 0
M  V30 4241 H 390.891 -0.632473 -5.03947 0
M  V30 4242 H 390.821 1.14482 -5.14005 0
M  V30 4243 H 393.312 0.422923 -3.75526 0
M  V30 4244 H 393.625 0.24068 -7.72425 0
M  V30 4245 H 391.97 0.223396 -6.94641 0
M  V30 4246 H 395.161 0.44006 -4.66027 0
M  V30 4247 H 395.334 0.357184 -6.47015 0
M  V30 4248 N 388.74 1.54641 0.303973 0
M  V30 4249 C 389.65 1.88439 1.39743 0
M  V30 4250 C 390.666 0.778239 1.55626 0
M  V30 4251 O 391.842 1.07442 1.70347 0
M  V30 4252 C 388.907 2.12212 2.74166 0
M  V30 4253 C 387.968 3.35936 2.67293 0
M  V30 4254 C 387.201 3.58566 3.95305 0
M  V30 4255 O 387.424 2.84263 4.9452 0
M  V30 4256 O 386.358 4.52078 3.97378 0
M  V30 4257 H 390.184 2.81458 1.14083 0
M  V30 4258 H 387.769 1.40793 0.499768 0
M  V30 4259 H 389.651 2.29067 3.53704 0
M  V30 4260 H 388.326 1.22379 2.99675 0
M  V30 4261 H 387.233 3.24448 1.86237 0
M  V30 4262 H 388.566 4.2589 2.46736 0
M  V30 4263 N 390.218 -0.567019 1.47046 0
M  V30 4264 C 391.168 -1.67018 1.55207 0
M  V30 4265 C 392.152 -1.55543 0.411714 0
M  V30 4266 O 393.344 -1.64192 0.661064 0
M  V30 4267 C 390.473 -3.05801 1.56014 0
M  V30 4268 C 389.559 -3.22515 2.75399 0
M  V30 4269 N 389.95 -3.09329 4.00186 0
M  V30 4270 C 388.248 -3.53493 2.71954 0
M  V30 4271 C 388.949 -3.2847 4.80086 0
M  V30 4272 N 387.925 -3.54352 4.12233 0
M  V30 4273 H 391.727 -1.55377 2.4947 0
M  V30 4274 H 389.241 -0.771503 1.42904 0
M  V30 4275 H 391.238 -3.84996 1.59949 0
M  V30 4276 H 389.898 -3.18561 0.628396 0
M  V30 4277 H 390.909 -2.86863 4.31196 0
M  V30 4278 H 387.586 -3.7284 1.87873 0
M  V30 4279 H 388.976 -3.23326 5.88991 0
M  V30 4280 N 391.696 -1.35014 -0.812953 0
M  V30 4281 C 392.606 -1.2951 -1.95613 0
M  V30 4282 C 393.622 -0.20107 -1.72834 0
M  V30 4283 O 394.798 -0.42932 -1.96771 0
M  V30 4284 C 391.863 -1.06033 -3.30088 0
M  V30 4285 C 390.924 -2.24688 -3.65805 0
M  V30 4286 C 390.157 -2.02322 -4.93864 0
M  V30 4287 O 390.38 -0.986464 -5.61805 0
M  V30 4288 O 389.314 -2.89525 -5.27692 0
M  V30 4289 H 393.14 -2.25705 -2.03202 0
M  V30 4290 H 390.725 -1.15321 -0.949811 0
M  V30 4291 H 392.607 -0.94763 -4.10607 0
M  V30 4292 H 391.282 -0.128852 -3.23443 0
M  V30 4293 H 390.189 -2.41521 -2.85689 0
M  V30 4294 H 391.522 -3.16261 -3.77147 0
M  V30 4295 N 393.175 1.03435 -1.18907 0
M  V30 4296 C 394.421 1.7713 -0.99982 0
M  V30 4297 C 394.776 1.86695 0.465049 0
M  V30 4298 O 394.069 1.36866 1.34083 0
M  V30 4299 C 394.263 3.19792 -1.59586 0
M  V30 4300 C 394.092 3.24134 -3.11717 0
M  V30 4301 C 392.862 3.32398 -3.80578 0
M  V30 4302 C 395.06 3.11625 -4.09138 0
M  V30 4303 N 393.042 3.26055 -5.20155 0
M  V30 4304 C 394.413 3.12855 -5.35277 0
M  V30 4305 C 396.468 2.95713 -4.00572 0
M  V30 4306 C 395.171 2.99805 -6.53842 0
M  V30 4307 C 397.197 2.84011 -5.1874 0
M  V30 4308 C 396.559 2.8589 -6.43775 0
M  V30 4309 H 392.658 0.659683 -0.419931 0
M  V30 4310 H 395.242 1.2317 -1.50789 0
M  V30 4311 H 393.413 3.72085 -1.11389 0
M  V30 4312 H 395.145 3.81819 -1.3415 0
M  V30 4313 H 391.9 3.38392 -3.31342 0
M  V30 4314 H 392.324 3.26307 -5.93172 0
M  V30 4315 H 396.966 2.93086 -3.0473 0
M  V30 4316 H 394.684 3.01184 -7.49876 0
M  V30 4317 H 398.27 2.72744 -5.13909 0
M  V30 4318 H 397.15 2.76931 -7.33675 0
M  V30 4319 N 394.653 0.992116 1.22453 0
M  V30 4320 C 395.9 0.667534 1.91181 0
M  V30 4321 C 396.228 -0.800317 1.77271 0
M  V30 4322 O 395.483 -1.59421 1.13505 0
M  V30 4323 C 395.782 1.01832 3.42586 0
M  V30 4324 C 395.448 2.47831 3.76684 0
M  V30 4325 C 394.11 2.87729 3.85701 0
M  V30 4326 C 396.462 3.42466 3.92895 0
M  V30 4327 C 393.79 4.21252 4.08367 0
M  V30 4328 C 396.142 4.75648 4.17064 0
M  V30 4329 C 394.806 5.15288 4.24305 0
M  V30 4330 H 394.076 0.244268 0.699581 0
M  V30 4331 H 396.723 1.24816 1.45235 0
M  V30 4332 H 395.028 0.355769 3.90181 0
M  V30 4333 H 396.725 0.745228 3.94014 0
M  V30 4334 H 393.315 2.15905 3.70247 0
M  V30 4335 H 397.499 3.12814 3.85307 0
M  V30 4336 H 392.755 4.51554 4.122 0
M  V30 4337 H 396.929 5.48924 4.2855 0
M  V30 4338 H 394.556 6.18769 4.41621 0
M  V30 4339 N 396.131 -1.37776 0.765217 0
M  V30 4340 C 397.078 -2.30342 0.145274 0
M  V30 4341 C 398.048 -1.5077 -0.696971 0
M  V30 4342 O 399.233 -1.79362 -0.650689 0
M  V30 4343 C 396.373 -3.37227 -0.732939 0
M  V30 4344 C 395.486 -4.31819 0.125199 0
M  V30 4345 C 394.621 -5.25777 -0.757107 0
M  V30 4346 C 393.66 -6.12012 0.103963 0
M  V30 4347 N 392.797 -6.98232 -0.735953 0
M  V30 4348 H 397.637 -2.8278 0.940195 0
M  V30 4349 H 395.174 -1.39211 0.475255 0
M  V30 4350 H 397.132 -3.97818 -1.25686 0
M  V30 4351 H 395.762 -2.86171 -1.49353 0
M  V30 4352 H 394.814 -3.7259 0.766865 0
M  V30 4353 H 396.126 -4.92509 0.789683 0
M  V30 4354 H 395.28 -5.91541 -1.34776 0
M  V30 4355 H 394.019 -4.65481 -1.45529 0
M  V30 4356 H 393.024 -5.45233 0.707197 0
M  V30 4357 H 394.249 -6.74379 0.799381 0
M  V30 4358 H 392.195 -6.40472 -1.41887 0
M  V30 4359 H 392.112 -7.55891 -0.128624 0
M  V30 4360 H 393.38 -7.68393 -1.31121 0
M  V30 4361 N 397.609 -0.515225 -1.4894 0
M  V30 4362 C 398.541 0.292481 -2.27326 0
M  V30 4363 C 399.554 0.917838 -1.3446 0
M  V30 4364 O 400.743 0.798772 -1.5963 0
M  V30 4365 C 397.843 1.42803 -3.07344 0
M  V30 4366 C 397.016 0.907347 -4.27885 0
M  V30 4367 C 396.075 1.92222 -4.89834 0
M  V30 4368 O 395.101 1.48506 -5.49486 0
M  V30 4369 N 396.303 3.25355 -4.80754 0
M  V30 4370 H 399.068 -0.379721 -2.97285 0
M  V30 4371 H 396.629 -0.348638 -1.58102 0
M  V30 4372 H 398.621 2.10481 -3.45658 0
M  V30 4373 H 397.191 2.00414 -2.39902 0
M  V30 4374 H 396.411 0.0550218 -3.94162 0
M  V30 4375 H 397.699 0.538108 -5.05946 0
M  V30 4376 H 397.097 3.6355 -4.33414 0
M  V30 4377 H 395.654 3.88707 -5.23211 0
M  V30 4378 N 399.087 1.5561 -0.249682 0
M  V30 4379 C 400.364 1.90932 0.424761 0
M  V30 4380 C 400.744 1.17078 1.75658 0
M  V30 4381 O 400.092 0.289176 2.26663 0
M  V30 4382 C 400.302 3.43975 0.590109 0
M  V30 4383 C 401.65 4.15281 0.884714 0
M  V30 4384 O 402.674 3.49729 0.67587 0
M  V30 4385 O 401.533 5.31236 1.28259 0
M  V30 4386 H 398.627 0.794815 0.228468 0
M  V30 4387 H 401.173 1.67135 -0.293954 0
M  V30 4388 H 399.945 3.89748 -0.34818 0
M  V30 4389 H 399.568 3.73644 1.35926 0
M  V30 4390 N 400.565 -0.0233959 1.57583 0
M  V30 4391 C 401.495 -1.02162 2.09965 0
M  V30 4392 C 402.476 -1.3735 1.00344 0
M  V30 4393 O 403.661 -1.46135 1.27899 0
M  V30 4394 C 400.791 -2.32081 2.58371 0
M  V30 4395 C 399.745 -2.1112 3.72307 0
M  V30 4396 C 399.071 -3.46848 4.06941 0
M  V30 4397 C 400.371 -1.49276 5.00514 0
M  V30 4398 H 402.065 -0.585557 2.93618 0
M  V30 4399 H 399.611 -0.280218 1.41247 0
M  V30 4400 H 401.564 -3.02249 2.93639 0
M  V30 4401 H 400.288 -2.77758 1.71808 0
M  V30 4402 H 398.947 -1.43384 3.37397 0
M  V30 4403 H 398.595 -3.90184 3.17436 0
M  V30 4404 H 398.295 -3.33646 4.83688 0
M  V30 4405 H 399.819 -4.18369 4.44747 0
M  V30 4406 H 401.233 -2.09368 5.33702 0
M  V30 4407 H 399.63 -1.46632 5.8191 0
M  V30 4408 H 400.7 -0.459217 4.82721 0
M  V30 4409 N 402.043 -1.548 -0.295768 0
M  V30 4410 C 403.454 -1.65274 -0.868411 0
M  V30 4411 C 403.805 -0.56481 -1.87894 0
M  V30 4412 O 402.93 0.29767 -2.14343 0
M  V30 4413 C 403.525 -2.99603 -1.58188 0
M  V30 4414 C 402.084 -3.12181 -2.10286 0
M  V30 4415 C 401.231 -2.6098 -0.93727 0
M  V30 4416 H 404.182 -1.58534 -0.0726422 0
M  V30 4417 H 404.203 -2.91319 -2.44772 0
M  V30 4418 H 403.715 -3.78764 -0.846151 0
M  V30 4419 H 401.816 -2.3775 -2.8689 0
M  V30 4420 H 401.929 -4.18415 -2.33379 0
M  V30 4421 H 400.293 -2.17564 -1.32431 0
M  V30 4422 H 401.076 -3.42623 -0.215414 0
M  V30 4423 N 403.521 0.559213 -1.47345 0
M  V30 4424 C 404.746 1.34676 -1.57725 0
M  V30 4425 C 405.171 1.86723 -0.227164 0
M  V30 4426 O 404.529 1.6286 0.796642 0
M  V30 4427 C 404.577 2.49399 -2.60447 0
M  V30 4428 O 403.681 3.51567 -2.15578 0
M  V30 4429 H 403.022 0.400115 -0.52991 0
M  V30 4430 H 405.552 0.676009 -1.93109 0
M  V30 4431 H 405.562 2.95996 -2.80803 0
M  V30 4432 H 404.237 2.10873 -3.58477 0
M  V30 4433 H 402.814 3.11289 -2.05313 0
M  V30 4434 N 404.999 1.35443 0.805782 0
M  V30 4435 C 406.229 1.31687 1.59192 0
M  V30 4436 C 406.637 -0.10756 1.88894 0
M  V30 4437 O 405.98 -1.07017 1.49309 0
M  V30 4438 C 406.042 2.05686 2.94845 0
M  V30 4439 C 405.706 3.54868 2.87954 0
M  V30 4440 C 406.703 4.49444 2.61335 0
M  V30 4441 C 404.388 3.97528 3.07046 0
M  V30 4442 C 406.382 5.84655 2.53885 0
M  V30 4443 C 404.069 5.32833 2.99219 0
M  V30 4444 C 405.067 6.26209 2.72674 0
M  V30 4445 O 404.755 7.59032 2.64811 0
M  V30 4446 H 404.487 0.453878 0.50097 0
M  V30 4447 H 407.041 1.78892 1.0093 0
M  V30 4448 H 405.271 1.5312 3.55093 0
M  V30 4449 H 406.96 1.94998 3.55993 0
M  V30 4450 H 407.726 4.17804 2.46303 0
M  V30 4451 H 403.605 3.25233 3.26718 0
M  V30 4452 H 407.149 6.57508 2.33086 0
M  V30 4453 H 403.046 5.64087 3.13809 0
M  V30 4454 H 403.814 7.68967 2.80413 0
M  V30 4455 N 406.477 -1.02803 1.19454 0
M  V30 4456 C 407.407 -2.12999 0.956758 0
M  V30 4457 C 408.388 -1.69743 -0.110188 0
M  V30 4458 O 409.573 -1.94148 0.0450038 0
M  V30 4459 C 406.703 -3.43746 0.495553 0
M  V30 4460 C 405.657 -4.00688 1.50443 0
M  V30 4461 C 404.983 -5.27067 0.900275 0
M  V30 4462 C 406.283 -4.35397 2.8849 0
M  V30 4463 H 407.977 -2.33148 1.87836 0
M  V30 4464 H 405.523 -1.12045 0.904539 0
M  V30 4465 H 407.476 -4.2021 0.316493 0
M  V30 4466 H 406.2 -3.23321 -0.461646 0
M  V30 4467 H 404.859 -3.2632 1.67065 0
M  V30 4468 H 404.507 -5.02959 -0.064503 0
M  V30 4469 H 404.207 -5.66127 1.57397 0
M  V30 4470 H 405.731 -6.06196 0.73203 0
M  V30 4471 H 407.145 -5.02795 2.75446 0
M  V30 4472 H 405.542 -4.85541 3.52661 0
M  V30 4473 H 406.612 -3.44662 3.41081 0
M  V30 4474 N 407.956 -0.998596 -1.21925 0
M  V30 4475 C 409.203 -0.677663 -1.90824 0
M  V30 4476 C 409.531 0.790905 -1.77693 0
M  V30 4477 O 408.786 1.58817 -1.14349 0
M  V30 4478 C 409.085 -1.03648 -3.42041 0
M  V30 4479 C 408.751 -2.49825 -3.75364 0
M  V30 4480 C 407.413 -2.8977 -3.8417 0
M  V30 4481 C 409.765 -3.44545 -3.91073 0
M  V30 4482 C 407.093 -4.23412 -4.06127 0
M  V30 4483 C 409.445 -4.77853 -4.14535 0
M  V30 4484 C 408.109 -5.17531 -4.21566 0
M  V30 4485 H 407.379 -0.247975 -0.698276 0
M  V30 4486 H 410.026 -1.25584 -1.44571 0
M  V30 4487 H 408.331 -0.376457 -3.89987 0
M  V30 4488 H 410.028 -0.766113 -3.93614 0
M  V30 4489 H 406.618 -2.17866 -3.69097 0
M  V30 4490 H 410.802 -3.14853 -3.83642 0
M  V30 4491 H 406.058 -4.53734 -4.09799 0
M  V30 4492 H 410.232 -5.51189 -4.25633 0
M  V30 4493 H 407.859 -6.21102 -4.38333 0
M  V30 4494 N 409.434 1.37368 -0.772513 0
M  V30 4495 C 410.845 1.8231 -0.402493 0
M  V30 4496 C 411.196 1.6436 1.07146 0
M  V30 4497 O 410.321 1.15514 1.82991 0
M  V30 4498 C 410.916 3.30979 -0.723776 0
M  V30 4499 C 409.475 3.74195 -0.406802 0
M  V30 4500 C 408.622 2.59885 -0.967218 0
M  V30 4501 H 411.573 1.25829 -0.967099 0
M  V30 4502 H 411.594 3.80499 -0.00870832 0
M  V30 4503 H 411.106 3.44011 -1.7966 0
M  V30 4504 H 409.207 3.66732 0.658673 0
M  V30 4505 H 409.32 4.7027 -0.915588 0
M  V30 4506 H 407.684 2.51674 -0.391416 0
M  V30 4507 H 408.467 2.7571 -2.04546 0
M  V30 4508 N 410.912 0.523116 1.48665 0
M  V30 4509 C 411.822 -0.247406 2.33292 0
M  V30 4510 C 412.838 -0.945769 1.46052 0
M  V30 4511 O 414.014 -0.922253 1.79043 0
M  V30 4512 C 411.079 -1.28487 3.22012 0
M  V30 4513 C 410.14 -0.597592 4.2512 0
M  V30 4514 C 409.373 -1.58563 5.09601 0
M  V30 4515 O 409.596 -2.81763 4.95949 0
M  V30 4516 O 408.53 -1.12879 5.91221 0
M  V30 4517 H 412.356 0.445869 3.00409 0
M  V30 4518 H 409.941 0.284128 1.46673 0
M  V30 4519 H 411.823 -1.88459 3.7691 0
M  V30 4520 H 410.498 -1.96068 2.57564 0
M  V30 4521 H 409.405 0.0424407 3.74076 0
M  V30 4522 H 410.738 0.0361517 4.92187 0
M  V30 4523 N 412.39 -1.55475 0.257931 0
M  V30 4524 C 413.667 -1.91155 -0.414629 0
M  V30 4525 C 414.047 -1.18008 -1.75035 0
M  V30 4526 O 413.395 -0.301193 -2.26506 0
M  V30 4527 C 413.605 -3.44283 -0.571859 0
M  V30 4528 C 414.953 -4.15744 -0.862678 0
M  V30 4529 O 415.977 -3.50083 -0.657314 0
M  V30 4530 O 414.836 -5.31909 -1.2544 0
M  V30 4531 H 411.93 -0.796016 -0.22425 0
M  V30 4532 H 414.476 -1.66976 0.302814 0
M  V30 4533 H 413.248 -3.89558 0.368844 0
M  V30 4534 H 412.871 -3.7436 -1.33943 0
M  V30 4535 N 413.868 0.0150385 -1.57593 0
M  V30 4536 C 415.279 0.559832 -1.78109 0
M  V30 4537 C 415.63 1.74814 -0.890756 0
M  V30 4538 O 414.755 2.16216 -0.0892482 0
M  V30 4539 C 415.35 1.02238 -3.23006 0
M  V30 4540 C 413.909 1.51258 -3.44671 0
M  V30 4541 C 413.056 0.456955 -2.73509 0
M  V30 4542 H 416.007 -0.211169 -1.57289 0
M  V30 4543 H 416.028 1.88912 -3.30292 0
M  V30 4544 H 415.54 0.157302 -3.87781 0
M  V30 4545 H 413.641 2.39905 -2.8509 0
M  V30 4546 H 413.754 1.55042 -4.5332 0
M  V30 4547 H 412.118 0.915196 -2.37689 0
M  V30 4548 H 412.901 -0.398896 -3.40975 0
M  V30 4549 N 415.346 1.54954 0.287554 0
M  V30 4550 C 416.571 1.79209 1.04397 0
M  V30 4551 C 416.996 0.556431 1.79682 0
M  V30 4552 O 416.354 -0.493518 1.74454 0
M  V30 4553 C 416.402 3.00739 1.98969 0
M  V30 4554 O 415.506 2.74805 3.075 0
M  V30 4555 H 414.847 0.592755 0.299227 0
M  V30 4556 H 417.377 2.02068 0.320886 0
M  V30 4557 H 417.387 3.29077 2.4119 0
M  V30 4558 H 416.062 3.90329 1.43582 0
M  V30 4559 H 414.639 2.57523 2.69697 0
M  V30 4560 N 416.824 -0.551391 1.4764 0
M  V30 4561 C 418.054 -1.33163 1.57959 0
M  V30 4562 C 418.462 -1.87785 0.23094 0
M  V30 4563 O 417.805 -1.65996 -0.786825 0
M  V30 4564 C 417.867 -2.53449 2.54958 0
M  V30 4565 C 417.531 -2.20071 4.00522 0
M  V30 4566 C 418.528 -1.77017 4.88836 0
M  V30 4567 C 416.213 -2.31252 4.45901 0
M  V30 4568 C 418.207 -1.4558 6.20552 0
M  V30 4569 C 415.894 -1.99427 5.77644 0
M  V30 4570 C 416.892 -1.56659 6.64791 0
M  V30 4571 O 416.58 -1.25242 7.94084 0
M  V30 4572 H 416.312 -0.412022 0.535923 0
M  V30 4573 H 418.866 -0.674186 1.9402 0
M  V30 4574 H 417.096 -3.22104 2.13976 0
M  V30 4575 H 418.785 -3.15523 2.55343 0
M  V30 4576 H 419.551 -1.67867 4.55023 0
M  V30 4577 H 415.43 -2.63498 3.78272 0
M  V30 4578 H 418.974 -1.12125 6.8853 0
M  V30 4579 H 414.871 -2.08211 6.10998 0
M  V30 4580 H 415.639 -1.38822 8.06642 0
M  V30 4581 N 418.302 -1.35869 -0.798587 0
M  V30 4582 C 419.579 -1.20145 -1.54352 0
M  V30 4583 C 419.959 0.216161 -2.0999 0
M  V30 4584 O 419.307 1.22068 -1.93162 0
M  V30 4585 C 419.517 -2.27602 -2.64572 0
M  V30 4586 C 420.865 -2.63811 -3.32699 0
M  V30 4587 O 421.889 -2.26576 -2.74849 0
M  V30 4588 O 420.748 -3.27866 -4.37226 0
M  V30 4589 H 417.842 -0.467248 -0.682355 0
M  V30 4590 H 420.388 -1.47574 -0.837859 0
M  V30 4591 H 419.16 -3.2265 -2.21388 0
M  V30 4592 H 418.783 -2.01488 -3.42766 0
M  V30 4593 N 419.78 1.02168 -1.19998 0
M  V30 4594 C 420.743 2.08765 -0.94604 0
M  V30 4595 C 421.743 1.60618 0.0763846 0
M  V30 4596 O 422.933 1.73472 -0.159135 0
M  V30 4597 C 420.065 3.38262 -0.423255 0
M  V30 4598 H 421.258 2.32726 -1.89153 0
M  V30 4599 H 418.811 1.1889 -1.01464 0
M  V30 4600 H 419.546 3.19974 0.527938 0
M  V30 4601 H 419.331 3.74532 -1.16053 0
M  V30 4602 H 420.821 4.16759 -0.264911 0
M  V30 4603 N 421.258 1.00505 1.21394 0
M  V30 4604 C 422.206 0.558623 2.25792 0
M  V30 4605 C 423.2 -0.396848 1.64686 0
M  V30 4606 O 424.406 -0.268035 1.77993 0
M  V30 4607 H 420.781 0.1623 0.734277 0
M  V30 4608 H 422.752 1.4503 2.60785 0
M  V30 4609 C 421.501 -0.0989574 3.47559 0
M  V30 4610 H 420.824 0.627225 3.94849 0
M  V30 4611 H 422.264 -0.3746 4.22342 0
M  V30 4612 C 420.723 -1.33817 3.09184 0
M  V30 4613 O 421.253 -2.43252 3.19674 0
M  V30 4614 N 419.459 -1.21793 2.63846 0
M  V30 4615 H 419.006 -0.32746 2.5551 0
M  V30 4616 H 418.964 -2.04809 2.38539 0
M  V30 4617 N 422.737 -1.36956 0.779787 0
M  V30 4618 C 423.983 -1.99787 0.348281 0
M  V30 4619 C 424.316 -1.61756 -1.07465 0
M  V30 4620 O 423.591 -0.867639 -1.74075 0
M  V30 4621 C 423.874 -3.56597 0.50104 0
M  V30 4622 C 423.727 -4.04513 1.96697 0
M  V30 4623 C 425.046 -4.40008 -0.0898097 0
M  V30 4624 H 422.165 -0.725796 0.128022 0
M  V30 4625 H 424.807 -1.62514 0.984331 0
M  V30 4626 H 422.957 -3.88479 -0.0404347 0
M  V30 4627 H 424.629 -3.83161 2.56876 0
M  V30 4628 H 422.872 -3.56408 2.47297 0
M  V30 4629 H 423.543 -5.1352 2.02486 0
M  V30 4630 H 426.019 -4.14431 0.372293 0
M  V30 4631 H 424.895 -5.4888 0.0471605 0
M  V30 4632 H 425.156 -4.26035 -1.18096 0
M  V30 4633 N 424.215 -0.530993 -1.48385 0
M  V30 4634 C 425.464 0.00474348 -2.01699 0
M  V30 4635 C 425.777 1.35227 -1.41325 0
M  V30 4636 O 426.983 1.97643 -1.86144 0
M  V30 4637 C 425.439 0.0588473 -3.59852 0
M  V30 4638 C 425.047 -1.28385 -4.2921 0
M  V30 4639 C 426.791 0.543358 -4.21008 0
M  V30 4640 C 424.698 -1.19028 -5.79298 0
M  V30 4641 H 423.628 0.00554317 -0.75398 0
M  V30 4642 H 426.279 -0.674924 -1.70637 0
M  V30 4643 H 424.661 0.803612 -3.8776 0
M  V30 4644 H 425.835 -2.04426 -4.12973 0
M  V30 4645 H 424.15 -1.70418 -3.7993 0
M  V30 4646 H 426.747 0.631351 -5.3096 0
M  V30 4647 H 427.09 1.54937 -3.86394 0
M  V30 4648 H 427.623 -0.145754 -3.97533 0
M  V30 4649 H 424.362 -2.17147 -6.18488 0
M  V30 4650 H 423.882 -0.471246 -5.97946 0
M  V30 4651 H 425.561 -0.881365 -6.40969 0
M  V30 4652 N 425.693 1.55336 -0.266172 0
M  V30 4653 C 426.97 1.91372 0.404486 0
M  V30 4654 C 427.35 1.18935 1.74407 0
M  V30 4655 O 426.698 0.3132 2.26343 0
M  V30 4656 C 426.908 3.44581 0.553593 0
M  V30 4657 C 428.256 4.16196 0.840618 0
M  V30 4658 O 429.28 3.50426 0.638739 0
M  V30 4659 O 428.139 5.32567 1.22618 0
M  V30 4660 H 425.233 0.797194 0.220025 0
M  V30 4661 H 427.779 1.66813 -0.311664 0
M  V30 4662 H 426.551 3.89357 -0.389498 0
M  V30 4663 H 426.174 3.75065 1.31955 0
M  V30 4664 N 427.171 -0.0066808 1.57599 0
M  V30 4665 C 428.448 -0.729586 1.81484 0
M  V30 4666 C 428.828 -1.92359 0.869558 0
M  V30 4667 O 428.176 -2.28348 -0.0832533 0
M  V30 4668 C 428.386 -1.1416 3.29801 0
M  V30 4669 C 429.734 -1.54823 3.95367 0
M  V30 4670 O 430.758 -1.23558 3.34084 0
M  V30 4671 O 429.617 -2.12937 5.03309 0
M  V30 4672 H 426.711 -0.354674 0.747085 0
M  V30 4673 H 429.257 0.0182609 1.6969 0
M  V30 4674 H 428.029 -0.290231 3.90222 0
M  V30 4675 H 427.652 -1.94876 3.46568 0
M  V30 4676 N 428.649 -1.55105 -0.279332 0
M  V30 4677 C 429.559 -1.90638 -1.36727 0
M  V30 4678 C 430.575 -0.802899 -1.54368 0
M  V30 4679 O 431.751 -1.10138 -1.68616 0
M  V30 4680 C 428.816 -2.16547 -2.70755 0
M  V30 4681 C 427.877 -3.40146 -2.61915 0
M  V30 4682 C 427.11 -3.6481 -3.8955 0
M  V30 4683 O 427.333 -2.92095 -4.89935 0
M  V30 4684 O 426.267 -4.58343 -3.90135 0
M  V30 4685 H 430.093 -2.83237 -1.09591 0
M  V30 4686 H 427.678 -1.4157 -0.477306 0
M  V30 4687 H 429.56 -2.34665 -3.50014 0
M  V30 4688 H 428.235 -1.27131 -2.9769 0
M  V30 4689 H 427.142 -3.2737 -1.81052 0
M  V30 4690 H 428.475 -4.29761 -2.3993 0
M  V30 4691 N 430.127 0.543554 -1.4793 0
M  V30 4692 C 431.09 1.63156 -1.60975 0
M  V30 4693 C 432.09 1.53346 -0.483899 0
M  V30 4694 O 433.28 1.5726 -0.749339 0
M  V30 4695 C 430.412 3.02743 -1.56716 0
M  V30 4696 H 431.605 1.52934 -2.57975 0
M  V30 4697 H 429.158 0.764557 -1.36324 0
M  V30 4698 H 429.893 3.18484 -0.611418 0
M  V30 4699 H 429.678 3.11272 -2.38438 0
M  V30 4700 H 431.168 3.81871 -1.6901 0
M  V30 4701 N 431.605 1.3629 0.791371 0
M  V30 4702 C 432.851 1.30605 1.55146 0
M  V30 4703 C 433.184 -0.115042 1.93859 0
M  V30 4704 O 432.459 -1.06798 1.62556 0
M  V30 4705 C 432.742 2.22692 2.82985 0
M  V30 4706 C 432.595 3.73489 2.50651 0
M  V30 4707 C 433.914 2.13588 3.84796 0
M  V30 4708 H 431.033 0.475761 0.562868 0
M  V30 4709 H 433.675 1.66825 0.909358 0
M  V30 4710 H 431.825 1.91933 3.37778 0
M  V30 4711 H 433.497 4.14758 2.01924 0
M  V30 4712 H 431.74 3.93021 1.83622 0
M  V30 4713 H 432.411 4.3333 3.41949 0
M  V30 4714 H 434.887 2.40659 3.39445 0
M  V30 4715 H 433.763 2.80195 4.71998 0
M  V30 4716 H 434.024 1.12256 4.27611 0
M  V30 4717 N 433.083 -1.0153 1.20538 0
M  V30 4718 C 434.03 -2.10098 0.955383 0
M  V30 4719 C 435 -1.65702 -0.114878 0
M  V30 4720 O 436.185 -1.90776 0.0301118 0
M  V30 4721 C 433.325 -3.41236 0.514969 0
M  V30 4722 C 432.438 -3.99102 1.65353 0
M  V30 4723 C 431.573 -5.18306 1.16329 0
M  V30 4724 C 430.612 -5.68258 2.27485 0
M  V30 4725 N 429.749 -6.78722 1.7967 0
M  V30 4726 H 434.589 -2.30818 1.88486 0
M  V30 4727 H 432.126 -1.13189 0.939499 0
M  V30 4728 H 434.084 -4.16504 0.240935 0
M  V30 4729 H 432.714 -3.20585 -0.377512 0
M  V30 4730 H 431.766 -3.20918 2.04245 0
M  V30 4731 H 433.078 -4.32177 2.49047 0
M  V30 4732 H 432.232 -6.00782 0.845302 0
M  V30 4733 H 430.971 -4.86799 0.296254 0
M  V30 4734 H 429.976 -4.84385 2.60099 0
M  V30 4735 H 431.201 -6.01798 3.14667 0
M  V30 4736 H 429.147 -6.49042 0.95295 0
M  V30 4737 H 429.064 -7.10996 2.56944 0
M  V30 4738 H 430.332 -7.64759 1.50875 0
M  V30 4739 N 434.561 -1.01147 -1.20859 0
M  V30 4740 C 435.471 -0.58686 -2.27141 0
M  V30 4741 C 436.487 0.373198 -1.69951 0
M  V30 4742 O 437.663 0.235423 -2.00019 0
M  V30 4743 C 434.728 0.0733602 -3.46622 0
M  V30 4744 C 433.789 -0.931995 -4.19061 0
M  V30 4745 C 433.022 -0.303186 -5.32838 0
M  V30 4746 O 433.245 0.898395 -5.63281 0
M  V30 4747 O 432.179 -1.01735 -5.9324 0
M  V30 4748 H 436.005 -1.47155 -2.65667 0
M  V30 4749 H 433.59 -0.780689 -1.2738 0
M  V30 4750 H 435.472 0.442333 -4.19072 0
M  V30 4751 H 434.147 0.932329 -3.09983 0
M  V30 4752 H 433.054 -1.35224 -3.48805 0
M  V30 4753 H 434.387 -1.76076 -4.59628 0
M  V30 4754 N 436.039 1.36541 -0.78704 0
M  V30 4755 C 437.285 1.99599 -0.358872 0
M  V30 4756 C 437.618 1.62323 1.06606 0
M  V30 4757 O 436.893 0.876858 1.73613 0
M  V30 4758 C 437.176 3.56327 -0.519944 0
M  V30 4759 C 437.029 4.03464 -1.98839 0
M  V30 4760 C 438.348 4.4005 0.0664737 0
M  V30 4761 H 435.467 0.725107 -0.131869 0
M  V30 4762 H 438.109 1.6199 -0.992936 0
M  V30 4763 H 436.259 3.88495 0.0198321 0
M  V30 4764 H 437.931 3.81793 -2.58905 0
M  V30 4765 H 436.174 3.55092 -2.49183 0
M  V30 4766 H 436.845 5.12439 -2.05207 0
M  V30 4767 H 439.321 4.14228 -0.394267 0
M  V30 4768 H 438.197 5.48847 -0.0762682 0
M  V30 4769 H 438.458 4.26655 1.15835 0
M  V30 4770 N 437.518 0.538854 1.48102 0
M  V30 4771 C 438.758 0.0101209 2.04397 0
M  V30 4772 C 439.122 -1.30741 1.40609 0
M  V30 4773 O 440.323 -1.92272 1.87843 0
M  V30 4774 C 438.594 -0.100232 3.57259 0
M  V30 4775 S 440.153 -0.577746 4.3498 0
M  V30 4776 H 436.971 0.0163171 0.710813 0
M  V30 4777 H 439.573 0.721429 1.81702 0
M  V30 4778 H 438.277 0.863351 4.01216 0
M  V30 4779 H 437.808 -0.835651 3.84422 0
M  V30 4780 H 439.823 -1.84073 4.60794 0
M  V30 4781 N 438.996 -1.55193 0.274407 0
M  V30 4782 C 439.906 -2.26164 -0.623473 0
M  V30 4783 C 440.922 -1.28729 -1.17068 0
M  V30 4784 O 442.098 -1.61663 -1.20112 0
M  V30 4785 C 439.163 -2.96833 -1.7914 0
M  V30 4786 C 438.224 -4.09745 -1.28093 0
M  V30 4787 C 437.457 -4.77034 -2.3932 0
M  V30 4788 O 437.68 -4.4353 -3.5866 0
M  V30 4789 O 436.614 -5.64996 -2.07516 0
M  V30 4790 H 440.44 -3.03661 -0.0485661 0
M  V30 4791 H 438.025 -1.49341 0.0418382 0
M  V30 4792 H 439.907 -3.41248 -2.4724 0
M  V30 4793 H 438.582 -2.22253 -2.35341 0
M  V30 4794 H 437.489 -3.69787 -0.566416 0
M  V30 4795 H 438.822 -4.86224 -0.764683 0
M  V30 4796 N 440.474 -0.00167713 -1.576 0
M  V30 4797 C 441.421 0.989195 -2.08527 0
M  V30 4798 C 442.391 1.34031 -0.981065 0
M  V30 4799 O 443.576 1.43839 -1.2536 0
M  V30 4800 C 440.716 2.27537 -2.59463 0
M  V30 4801 C 439.829 1.98314 -3.83791 0
M  V30 4802 C 438.964 3.21025 -4.23222 0
M  V30 4803 C 438.003 2.87495 -5.40382 0
M  V30 4804 N 437.14 4.02749 -5.75098 0
M  V30 4805 H 441.98 0.547973 -2.92919 0
M  V30 4806 H 439.517 0.258917 -1.44803 0
M  V30 4807 H 441.475 3.02729 -2.87073 0
M  V30 4808 H 440.105 2.69325 -1.77943 0
M  V30 4809 H 439.157 1.13482 -3.63078 0
M  V30 4810 H 440.469 1.69601 -4.69081 0
M  V30 4811 H 439.623 4.04561 -4.52123 0
M  V30 4812 H 438.362 3.52877 -3.36644 0
M  V30 4813 H 437.367 2.02367 -5.11202 0
M  V30 4814 H 438.592 2.56889 -6.28637 0
M  V30 4815 H 436.538 4.34494 -4.91478 0
M  V30 4816 H 436.455 3.77566 -6.54966 0
M  V30 4817 H 437.723 4.87068 -6.08592 0
M  V30 4818 N 441.952 1.55251 0.271103 0
M  V30 4819 C 443.199 1.75946 1.00245 0
M  V30 4820 C 443.527 0.561611 1.86215 0
M  V30 4821 O 442.782 -0.455832 1.90317 0
M  V30 4822 C 443.081 3.01879 1.91321 0
M  V30 4823 C 442.747 4.34337 1.21086 0
M  V30 4824 C 441.409 4.70338 1.01666 0
M  V30 4825 C 443.761 5.16325 0.71119 0
M  V30 4826 C 441.089 5.8588 0.310099 0
M  V30 4827 C 443.441 6.32597 0.0182157 0
M  V30 4828 C 442.105 6.67236 -0.18768 0
M  V30 4829 H 441.375 0.643833 0.366824 0
M  V30 4830 H 444.022 1.89521 0.27458 0
M  V30 4831 H 442.327 2.83212 2.70736 0
M  V30 4832 H 444.024 3.15088 2.48033 0
M  V30 4833 H 440.614 4.06043 1.37213 0
M  V30 4834 H 444.798 4.88987 0.848844 0
M  V30 4835 H 440.054 6.1124 0.139873 0
M  V30 4836 H 444.228 6.9538 -0.376711 0
M  V30 4837 H 441.855 7.56618 -0.73715 0
M  V30 4838 N 443.43 -0.535701 1.48216 0
M  V30 4839 C 444.34 -1.66785 1.64985 0
M  V30 4840 C 445.356 -1.65654 0.532414 0
M  V30 4841 O 446.532 -1.8471 0.80275 0
M  V30 4842 C 443.597 -3.0326 1.68031 0
M  V30 4843 C 442.658 -3.1529 2.9136 0
M  V30 4844 C 441.891 -4.45255 2.94252 0
M  V30 4845 O 442.114 -5.32011 2.05719 0
M  V30 4846 O 441.048 -4.6153 3.86359 0
M  V30 4847 H 444.874 -1.55576 2.60825 0
M  V30 4848 H 442.459 -0.70815 1.31551 0
M  V30 4849 H 444.341 -3.84436 1.72589 0
M  V30 4850 H 443.016 -3.14805 0.753628 0
M  V30 4851 H 441.923 -2.3343 2.92337 0
M  V30 4852 H 443.256 -3.08658 3.83394 0
M  V30 4853 N 444.908 -1.36708 -0.784132 0
M  V30 4854 C 446.148 -1.32618 -1.55537 0
M  V30 4855 C 446.512 0.0920681 -1.91779 0
M  V30 4856 O 447.713 0.257573 -2.67563 0
M  V30 4857 C 445.984 -2.22788 -2.79464 0
M  V30 4858 S 447.543 -2.36432 -3.69656 0
M  V30 4859 H 444.361 -0.470973 -0.53264 0
M  V30 4860 H 446.963 -1.72333 -0.92312 0
M  V30 4861 H 445.667 -3.24774 -2.50899 0
M  V30 4862 H 445.198 -1.84112 -3.47658 0
M  V30 4863 H 447.213 -1.56573 -4.7085 0
M  V30 4864 N 446.386 1.0089 -1.21074 0
M  V30 4865 C 447.614 1.78191 -1.05145 0
M  V30 4866 C 448.029 1.84537 0.398952 0
M  V30 4867 O 447.386 1.30393 1.27687 0
M  V30 4868 C 447.437 3.22288 -1.63746 0
M  V30 4869 O 447.158 3.16315 -3.03111 0
M  V30 4870 C 448.659 4.16106 -1.52875 0
M  V30 4871 H 445.879 0.560129 -0.369454 0
M  V30 4872 H 448.423 1.26945 -1.60328 0
M  V30 4873 H 446.578 3.70655 -1.12664 0
M  V30 4874 H 446.992 4.06817 -3.31059 0
M  V30 4875 H 448.466 5.15026 -1.98626 0
M  V30 4876 H 448.943 4.36541 -0.482521 0
M  V30 4877 H 449.549 3.73625 -2.03185 0
M  V30 4878 N 447.864 1.01787 1.20321 0
M  V30 4879 C 448.774 0.598898 2.26827 0
M  V30 4880 C 449.79 -0.36418 1.70146 0
M  V30 4881 O 450.966 -0.224812 2.00141 0
M  V30 4882 C 448.031 -0.0549769 3.46656 0
M  V30 4883 C 447.092 0.954205 4.18561 0
M  V30 4884 C 446.325 0.331439 5.3267 0
M  V30 4885 O 446.548 -0.86851 5.63749 0
M  V30 4886 O 445.482 1.0488 5.92692 0
M  V30 4887 H 449.308 1.48562 2.64883 0
M  V30 4888 H 446.893 0.787434 1.26964 0
M  V30 4889 H 448.775 -0.420102 4.19301 0
M  V30 4890 H 447.45 -0.915876 3.10473 0
M  V30 4891 H 446.357 1.37072 3.48083 0
M  V30 4892 H 447.69 1.78511 4.58688 0
M  V30 4893 N 449.342 -1.36122 0.79427 0
M  V30 4894 C 450.567 -2.03891 0.379871 0
M  V30 4895 C 450.992 -1.59488 -0.997251 0
M  V30 4896 O 450.35 -0.765652 -1.64339 0
M  V30 4897 C 450.398 -3.57687 0.457442 0
M  V30 4898 O 449.502 -4.08931 -0.5338 0
M  V30 4899 H 448.843 -0.6443 0.160541 0
M  V30 4900 H 451.373 -1.73976 1.07673 0
M  V30 4901 H 451.383 -4.06721 0.322792 0
M  V30 4902 H 450.058 -3.89357 1.46199 0
M  V30 4903 H 448.635 -3.71154 -0.360409 0
M  V30 4904 N 450.82 -0.546701 -1.47814 0
M  V30 4905 C 451.73 0.21026 -2.33656 0
M  V30 4906 C 452.746 0.922413 -1.47538 0
M  V30 4907 O 453.922 0.893652 -1.80488 0
M  V30 4908 C 450.987 1.23348 -3.24016 0
M  V30 4909 C 450.048 0.529883 -4.26017 0
M  V30 4910 C 449.281 1.50435 -5.12059 0
M  V30 4911 O 449.504 2.73837 -5.00369 0
M  V30 4912 O 448.438 1.03459 -5.92942 0
M  V30 4913 H 452.264 -0.493605 -2.99662 0
M  V30 4914 H 449.849 -0.307427 -1.46203 0
M  V30 4915 H 451.731 1.82438 -3.79861 0
M  V30 4916 H 450.406 1.91945 -2.60651 0
M  V30 4917 H 449.313 -0.101948 -3.73961 0
M  V30 4918 H 450.646 -0.11445 -4.92067 0
M  V30 4919 N 452.299 1.55045 -0.282633 0
M  V30 4920 C 453.545 2.00056 0.332481 0
M  V30 4921 C 453.878 1.1708 1.54939 0
M  V30 4922 O 453.153 0.2427 1.9298 0
M  V30 4923 C 453.436 3.53086 0.70725 0
M  V30 4924 C 453.289 4.46813 -0.517521 0
M  V30 4925 C 454.608 4.12245 1.54084 0
M  V30 4926 H 451.727 0.727268 0.119373 0
M  V30 4927 H 454.369 1.85932 -0.391076 0
M  V30 4928 H 452.519 3.65253 1.32372 0
M  V30 4929 H 454.191 4.46579 -1.15607 0
M  V30 4930 H 452.434 4.18163 -1.1542 0
M  V30 4931 H 453.105 5.51595 -0.211426 0
M  V30 4932 H 455.581 4.03401 1.02013 0
M  V30 4933 H 454.457 5.19515 1.77186 0
M  V30 4934 H 454.718 3.62951 2.52427 0
M  V30 4935 N 453.777 0.010035 1.57597 0
M  V30 4936 C 454.71 -1.01234 2.04516 0
M  V30 4937 C 455.688 -1.32886 0.937024 0
M  V30 4938 O 456.872 -1.44879 1.20592 0
M  V30 4939 C 453.999 -2.33738 2.45121 0
M  V30 4940 C 453.045 -2.17679 3.66767 0
M  V30 4941 S 453.878 -1.49343 5.14254 0
M  V30 4942 C 455.034 -2.83256 5.58137 0
M  V30 4943 H 455.267 -0.612866 2.90914 0
M  V30 4944 H 452.8 -0.201124 1.53084 0
M  V30 4945 H 454.758 -3.09922 2.69182 0
M  V30 4946 H 453.419 -2.70823 1.59103 0
M  V30 4947 H 452.612 -3.1559 3.92962 0
M  V30 4948 H 452.214 -1.4964 3.42759 0
M  V30 4949 H 454.506 -3.79538 5.6121 0
M  V30 4950 H 455.449 -2.61749 6.57946 0
M  V30 4951 H 455.857 -2.87627 4.85727 0
M  V30 4952 N 455.255 -1.55392 -0.262866 0
M  V30 4953 C 456.203 -1.8977 -1.345 0
M  V30 4954 C 457.197 -0.775063 -1.50629 0
M  V30 4955 O 458.403 -0.959519 -1.52293 0
M  V30 4956 H 454.778 -0.602467 -0.450041 0
M  V30 4957 H 456.749 -2.80147 -1.02762 0
M  V30 4958 C 455.498 -2.19501 -2.69657 0
M  V30 4959 H 454.821 -3.05378 -2.5804 0
M  V30 4960 H 456.261 -2.47469 -3.44289 0
M  V30 4961 C 454.72 -1.00597 -3.21531 0
M  V30 4962 O 455.25 -0.245768 -4.00947 0
M  V30 4963 N 453.456 -0.800911 -2.79345 0
M  V30 4964 H 453.003 -1.42079 -2.14875 0
M  V30 4965 H 452.961 -0.00697996 -3.14399 0
M  V30 4966 N 456.733 0.527833 -1.48498 0
M  V30 4967 C 457.958 1.313 -1.60546 0
M  V30 4968 C 458.383 1.86199 -0.26672 0
M  V30 4969 O 457.741 1.64513 0.761918 0
M  V30 4970 C 457.789 2.43818 -2.65678 0
M  V30 4971 O 456.893 3.46916 -2.22987 0
M  V30 4972 H 456.234 0.388784 -0.538277 0
M  V30 4973 H 458.764 0.634896 -1.945 0
M  V30 4974 H 458.774 2.89973 -2.87018 0
M  V30 4975 H 457.449 2.03222 -3.62869 0
M  V30 4976 H 456.026 3.06864 -2.11869 0
M  V30 4977 N 458.211 1.37122 0.776871 0
M  V30 4978 C 459.141 1.35164 1.90402 0
M  V30 4979 C 460.122 0.221069 1.68657 0
M  V30 4980 O 461.307 0.420642 1.8959 0
M  V30 4981 C 458.437 1.15274 3.27611 0
M  V30 4982 C 457.391 2.25289 3.63908 0
M  V30 4983 C 456.717 1.90527 4.99603 0
M  V30 4984 C 458.017 3.67446 3.71188 0
M  V30 4985 H 459.711 2.29482 1.92297 0
M  V30 4986 H 457.257 1.10465 0.923773 0
M  V30 4987 H 459.21 1.12536 4.06096 0
M  V30 4988 H 457.934 0.174102 3.26136 0
M  V30 4989 H 456.593 2.27174 2.87728 0
M  V30 4990 H 456.241 0.91206 4.94662 0
M  V30 4991 H 455.941 2.64193 5.24858 0
M  V30 4992 H 457.465 1.89367 5.80493 0
M  V30 4993 H 458.879 3.67719 4.39836 0
M  V30 4994 H 457.276 4.40123 4.07936 0
M  V30 4995 H 458.346 4.01443 2.71977 0
M  V30 4996 N 459.689 -1.00246 1.21608 0
M  V30 4997 C 460.919 -1.77373 1.05935 0
M  V30 4998 C 461.327 -1.85059 -0.393686 0
M  V30 4999 O 460.67 -1.31289 -1.28487 0
M  V30 5000 C 460.732 -3.22705 1.58435 0
M  V30 5001 C 460.396 -3.38591 3.06929 0
M  V30 5002 C 461.393 -3.2667 4.04454 0
M  V30 5003 C 459.078 -3.6395 3.46187 0
M  V30 5004 C 461.072 -3.39877 5.39224 0
M  V30 5005 C 458.759 -3.768 4.81108 0
M  V30 5006 C 459.757 -3.6477 5.77436 0
M  V30 5007 O 459.445 -3.77206 7.09909 0
M  V30 5008 H 459.177 -0.56419 0.372378 0
M  V30 5009 H 461.731 -1.26971 1.61454 0
M  V30 5010 H 459.961 -3.74255 0.973147 0
M  V30 5011 H 461.65 -3.81515 1.38568 0
M  V30 5012 H 462.416 -3.06999 3.75468 0
M  V30 5013 H 458.295 -3.72395 2.71741 0
M  V30 5014 H 461.839 -3.30404 6.14393 0
M  V30 5015 H 457.736 -3.95975 5.09779 0
M  V30 5016 H 458.504 -3.94138 7.17355 0
M  V30 5017 N 461.167 -1.02423 -1.1978 0
M  V30 5018 C 462.392 -0.7373 -1.93852 0
M  V30 5019 C 462.817 0.696923 -1.74713 0
M  V30 5020 O 462.175 1.48056 -1.04638 0
M  V30 5021 C 462.223 -1.08783 -3.438 0
M  V30 5022 O 461.327 -0.20383 -4.11896 0
M  V30 5023 H 460.668 -0.27284 -0.605355 0
M  V30 5024 H 463.198 -1.36966 -1.51992 0
M  V30 5025 H 463.208 -1.04276 -3.9445 0
M  V30 5026 H 461.883 -2.13274 -3.57053 0
M  V30 5027 H 460.46 -0.307091 -3.71633 0
M  V30 5028 N 462.645 1.35699 -0.801477 0
M  V30 5029 C 463.893 1.9852 -0.37871 0
M  V30 5030 C 464.214 1.63907 1.05638 0
M  V30 5031 O 463.484 0.919013 1.73006 0
M  V30 5032 H 462.064 0.734322 -0.137042 0
M  V30 5033 H 464.726 1.65697 -1.02619 0
M  V30 5034 H 463.822 3.08382 -0.480284 0
M  V30 5035 N 464.123 0.554532 1.47522 0
M  V30 5036 C 465.4 -0.0360704 1.95567 0
M  V30 5037 C 465.78 -1.48828 1.49711 0
M  V30 5038 O 465.128 -2.16366 0.734717 0
M  V30 5039 C 465.338 0.106631 3.48837 0
M  V30 5040 C 466.686 -0.0400899 4.24581 0
M  V30 5041 O 467.71 0.0340453 3.56184 0
M  V30 5042 O 466.569 -0.199111 5.46137 0
M  V30 5043 H 463.663 -0.0656294 0.824392 0
M  V30 5044 H 466.209 0.620867 1.57935 0
M  V30 5045 H 464.981 1.11727 3.7501 0
M  V30 5046 H 464.604 -0.58804 3.93227 0
M  V30 5047 N 465.601 -1.54893 0.290851 0
M  V30 5048 C 467.012 -1.85584 -0.203816 0
M  V30 5049 C 467.363 -1.21285 -1.54222 0
M  V30 5050 O 466.488 -0.506841 -2.10381 0
M  V30 5051 C 467.083 -3.367 -0.376595 0
M  V30 5052 C 465.642 -3.6746 -0.815485 0
M  V30 5053 C 464.789 -2.77178 0.0821087 0
M  V30 5054 H 467.74 -1.50208 0.512175 0
M  V30 5055 H 467.761 -3.60656 -1.21275 0
M  V30 5056 H 467.273 -3.8347 0.59767 0
M  V30 5057 H 465.374 -3.26201 -1.80066 0
M  V30 5058 H 465.487 -4.7478 -0.641905 0
M  V30 5059 H 463.851 -2.50925 -0.436895 0
M  V30 5060 H 464.634 -3.26767 1.05254 0
M  V30 5061 N 467.08 -0.0183926 -1.57589 0
M  V30 5062 C 468.012 0.995557 -2.06449 0
M  V30 5063 C 469.025 1.29556 -0.985849 0
M  V30 5064 O 470.214 1.2621 -1.26227 0
M  V30 5065 C 467.314 2.32572 -2.46502 0
M  V30 5066 C 466.487 2.21245 -3.77319 0
M  V30 5067 C 465.546 3.37104 -4.04039 0
M  V30 5068 O 464.572 3.14468 -4.74445 0
M  V30 5069 N 465.774 4.60553 -3.53372 0
M  V30 5070 H 468.539 0.578746 -2.94059 0
M  V30 5071 H 466.1 0.168603 -1.6102 0
M  V30 5072 H 468.092 3.08887 -2.61478 0
M  V30 5073 H 466.662 2.65931 -1.64315 0
M  V30 5074 H 465.882 1.29723 -3.72244 0
M  V30 5075 H 467.17 2.10868 -4.63047 0
M  V30 5076 H 466.568 4.81839 -2.96391 0
M  V30 5077 H 465.125 5.34072 -3.73644 0
M  V30 5078 N 468.558 1.5553 0.254621 0
M  V30 5079 C 469.835 1.6774 1.00611 0
M  V30 5080 C 470.215 0.555993 2.03647 0
M  V30 5081 O 469.563 -0.441583 2.24193 0
M  V30 5082 C 469.773 3.07725 1.6464 0
M  V30 5083 C 471.121 3.66074 2.15116 0
M  V30 5084 O 472.145 3.10476 1.74595 0
M  V30 5085 O 471.004 4.63526 2.89493 0
M  V30 5086 H 468.098 0.681958 0.467828 0
M  V30 5087 H 470.644 1.67863 0.24902 0
M  V30 5088 H 469.416 3.80792 0.900734 0
M  V30 5089 H 469.039 3.1158 2.46989 0
M  V30 5090 N 470.036 -0.519951 1.48776 0
M  V30 5091 C 470.968 -1.63973 1.60142 0
M  V30 5092 C 471.981 -1.55404 0.485117 0
M  V30 5093 O 473.17 -1.61682 0.756391 0
M  V30 5094 C 470.27 -3.02676 1.52449 0
M  V30 5095 C 469.443 -3.36624 2.79291 0
M  V30 5096 C 468.502 -4.54652 2.64912 0
M  V30 5097 O 467.528 -4.57374 3.38818 0
M  V30 5098 N 468.73 -5.53432 1.75195 0
M  V30 5099 H 471.495 -1.54656 2.56713 0
M  V30 5100 H 469.056 -0.707439 1.45626 0
M  V30 5101 H 471.048 -3.79525 1.4051 0
M  V30 5102 H 469.618 -3.06018 0.638125 0
M  V30 5103 H 468.838 -2.48855 3.0572 0
M  V30 5104 H 470.126 -3.56094 3.6342 0
M  V30 5105 H 469.524 -5.54018 1.14371 0
M  V30 5106 H 468.081 -6.29459 1.69189 0
M  V30 5107 N 471.514 -1.37532 -0.769588 0
M  V30 5108 C 472.444 -1.36172 -1.89682 0
M  V30 5109 C 473.425 -0.23001 -1.68538 0
M  V30 5110 O 474.61 -0.43069 -1.89364 0
M  V30 5111 C 471.74 -1.1701 -3.26995 0
M  V30 5112 C 470.694 -2.27216 -3.62708 0
M  V30 5113 C 470.02 -1.93174 -4.98586 0
M  V30 5114 C 471.32 -3.6941 -3.69234 0
M  V30 5115 H 473.014 -2.30499 -1.91078 0
M  V30 5116 H 470.56 -1.10953 -0.917902 0
M  V30 5117 H 472.513 -1.14688 -4.05493 0
M  V30 5118 H 471.237 -0.191395 -3.26039 0
M  V30 5119 H 469.896 -2.28697 -2.86519 0
M  V30 5120 H 469.544 -0.938281 -4.94171 0
M  V30 5121 H 469.244 -2.66973 -5.23449 0
M  V30 5122 H 470.768 -1.92443 -5.79481 0
M  V30 5123 H 472.182 -3.70047 -4.37879 0
M  V30 5124 H 470.579 -4.4228 -4.05597 0
M  V30 5125 H 471.649 -4.0288 -2.69844 0
M  V30 5126 N 472.992 0.995999 -1.22138 0
M  V30 5127 C 473.955 2.06711 -0.990109 0
M  V30 5128 C 474.955 1.60744 0.0422978 0
M  V30 5129 O 476.145 1.73095 -0.195895 0
M  V30 5130 C 473.277 3.37288 -0.49491 0
M  V30 5131 H 474.47 2.28661 -1.94047 0
M  V30 5132 H 472.023 1.16711 -1.03963 0
M  V30 5133 H 472.758 3.21022 0.459948 0
M  V30 5134 H 472.543 3.71986 -1.23971 0
M  V30 5135 H 474.033 4.16103 -0.353253 0
M  V30 5136 N 474.47 1.03057 1.19235 0
M  V30 5137 C 475.716 0.729098 1.89241 0
M  V30 5138 C 476.049 -0.740573 1.79525 0
M  V30 5139 O 475.324 -1.53946 1.18874 0
M  V30 5140 C 475.607 1.18304 3.40112 0
M  V30 5141 C 475.46 2.71406 3.5869 0
M  V30 5142 C 476.779 0.765161 4.33397 0
M  V30 5143 H 473.898 0.266338 0.687192 0
M  V30 5144 H 476.54 1.28079 1.40341 0
M  V30 5145 H 474.69 0.713672 3.81889 0
M  V30 5146 H 476.362 3.26303 3.26074 0
M  V30 5147 H 474.605 3.11717 3.01687 0
M  V30 5148 H 475.276 2.98225 4.64506 0
M  V30 5149 H 477.752 1.16889 3.99345 0
M  V30 5150 H 476.628 1.11065 5.37546 0
M  V30 5151 H 476.889 -0.332372 4.40849 0
M  V30 5152 N 475.948 -1.35272 0.808662 0
M  V30 5153 C 476.911 -2.28082 0.226093 0
M  V30 5154 C 477.911 -1.49673 -0.587762 0
M  V30 5155 O 479.101 -1.69404 -0.405943 0
M  V30 5156 C 476.233 -3.33955 -0.684596 0
M  V30 5157 H 477.426 -2.81116 1.04469 0
M  V30 5158 H 474.979 -1.45162 0.579466 0
M  V30 5159 H 475.714 -2.86111 -1.5268 0
M  V30 5160 H 475.499 -3.91965 -0.102699 0
M  V30 5161 H 476.989 -4.03219 -1.08646 0
M  V30 5162 N 477.426 -0.562348 -1.47226 0
M  V30 5163 C 478.656 -0.0451619 -2.06551 0
M  V30 5164 C 479.064 1.25626 -1.41473 0
M  V30 5165 O 478.407 1.76563 -0.507061 0
M  V30 5166 C 478.469 0.216068 -3.5885 0
M  V30 5167 C 478.133 -0.996691 -4.45999 0
M  V30 5168 C 479.13 -1.90358 -4.83797 0
M  V30 5169 C 476.815 -1.21281 -4.87438 0
M  V30 5170 C 478.809 -3.01023 -5.6184 0
M  V30 5171 C 476.496 -2.32255 -5.65244 0
M  V30 5172 C 477.494 -3.21956 -6.02356 0
M  V30 5173 O 477.182 -4.31005 -6.78594 0
M  V30 5174 H 476.914 -0.0451646 -0.67449 0
M  V30 5175 H 479.468 -0.776842 -1.90143 0
M  V30 5176 H 477.698 1.00212 -3.7349 0
M  V30 5177 H 479.387 0.679264 -4.00176 0
M  V30 5178 H 480.153 -1.74868 -4.52378 0
M  V30 5179 H 476.032 -0.523767 -4.58015 0
M  V30 5180 H 479.576 -3.71064 -5.90726 0
M  V30 5181 H 475.473 -2.47715 -5.96077 0
M  V30 5182 H 476.241 -4.29118 -6.96994 0
M  V30 5183 N 478.904 1.54736 -0.299062 0
M  V30 5184 C 479.854 2.20155 0.592932 0
M  V30 5185 C 480.838 1.1739 1.10038 0
M  V30 5186 O 482.03 1.43116 1.04147 0
M  V30 5187 C 479.159 2.94437 1.76527 0
M  V30 5188 C 478.245 4.04516 1.27388 0
M  V30 5189 N 478.636 5.03319 0.500339 0
M  V30 5190 C 476.934 4.18022 1.55478 0
M  V30 5191 C 477.635 5.81209 0.238909 0
M  V30 5192 N 476.611 5.37408 0.818163 0
M  V30 5193 H 480.413 2.93899 -0.00563596 0
M  V30 5194 H 477.927 1.62068 -0.103732 0
M  V30 5195 H 479.924 3.3977 2.41582 0
M  V30 5196 H 478.584 2.22209 2.36756 0
M  V30 5197 H 479.595 5.17696 0.145419 0
M  V30 5198 H 476.272 3.56998 2.16469 0
M  V30 5199 H 477.662 6.70812 -0.382223 0
M  V30 5200 N 480.382 0.0267497 1.57577 0
M  V30 5201 C 481.312 -0.954308 2.13108 0
M  V30 5202 C 482.293 -1.34088 1.04663 0
M  V30 5203 O 483.478 -1.41992 1.32484 0
M  V30 5204 C 480.608 -2.23744 2.65624 0
M  V30 5205 C 479.562 -1.99168 3.78835 0
M  V30 5206 C 478.888 -3.33726 4.17769 0
M  V30 5207 C 480.188 -1.33277 5.0501 0
M  V30 5208 H 481.882 -0.491848 2.95332 0
M  V30 5209 H 479.428 -0.23514 1.42067 0
M  V30 5210 H 481.381 -2.92754 3.03106 0
M  V30 5211 H 480.105 -2.72151 1.80558 0
M  V30 5212 H 478.764 -1.32577 3.41788 0
M  V30 5213 H 478.412 -3.79888 3.29688 0
M  V30 5214 H 478.112 -3.18089 4.94058 0
M  V30 5215 H 479.636 -4.04008 4.57832 0
M  V30 5216 H 481.05 -1.92283 5.40093 0
M  V30 5217 H 479.447 -1.28045 5.8628 0
M  V30 5218 H 480.517 -0.305411 4.83937 0
M  V30 5219 N 481.861 -1.55662 -0.24637 0
M  V30 5220 C 483.11 -1.7672 -0.972254 0
M  V30 5221 C 483.423 -0.59078 -1.86465 0
M  V30 5222 O 484.629 -0.684391 -2.62732 0
M  V30 5223 C 483.085 -3.12869 -1.7788 0
M  V30 5224 C 482.693 -4.38161 -0.933768 0
M  V30 5225 C 484.437 -3.43265 -2.49738 0
M  V30 5226 C 482.344 -5.6534 -1.73623 0
M  V30 5227 H 481.274 -0.658795 -0.366749 0
M  V30 5228 H 483.925 -1.82092 -0.226902 0
M  V30 5229 H 482.307 -3.01606 -2.56612 0
M  V30 5230 H 483.481 -4.60413 -0.188736 0
M  V30 5231 H 481.796 -4.15102 -0.328488 0
M  V30 5232 H 484.393 -4.35501 -3.10231 0
M  V30 5233 H 484.736 -2.64614 -3.2138 0
M  V30 5234 H 485.269 -3.55746 -1.78016 0
M  V30 5235 H 482.008 -6.46814 -1.06354 0
M  V30 5236 H 481.528 -5.47188 -2.45653 0
M  V30 5237 H 483.207 -6.04616 -2.30323 0
M  V30 5238 N 483.339 0.512053 -1.4905 0
M  V30 5239 C 484.588 1.26343 -1.57227 0
M  V30 5240 C 484.901 1.93876 -0.259155 0
M  V30 5241 O 486.107 2.70612 -0.219358 0
M  V30 5242 C 484.563 2.29343 -2.77362 0
M  V30 5243 C 484.171 1.67799 -4.15388 0
M  V30 5244 C 485.915 3.05378 -2.94864 0
M  V30 5245 C 483.822 2.68845 -5.2676 0
M  V30 5246 H 482.752 0.475231 -0.585382 0
M  V30 5247 H 485.403 0.53862 -1.75417 0
M  V30 5248 H 483.785 3.04938 -2.52643 0
M  V30 5249 H 484.959 0.982715 -4.50199 0
M  V30 5250 H 483.274 1.04194 -4.03153 0
M  V30 5251 H 485.871 3.80921 -3.75238 0
M  V30 5252 H 486.214 3.62327 -2.05 0
M  V30 5253 H 486.747 2.36898 -3.19569 0
M  V30 5254 H 483.486 2.16692 -6.18647 0
M  V30 5255 H 483.006 3.36647 -4.96416 0
M  V30 5256 H 484.685 3.31487 -5.5563 0
M  V30 5257 N 484.817 1.37938 0.762283 0
M  V30 5258 C 486.094 1.24196 1.51112 0
M  V30 5259 C 486.474 -0.160409 2.1049 0
M  V30 5260 O 485.822 -1.16904 1.96331 0
M  V30 5261 C 486.032 2.34537 2.58445 0
M  V30 5262 C 487.38 2.7254 3.25588 0
M  V30 5263 O 488.404 2.33783 2.68745 0
M  V30 5264 O 487.263 3.39343 4.28379 0
M  V30 5265 H 484.357 0.485175 0.669727 0
M  V30 5266 H 486.903 1.49743 0.798438 0
M  V30 5267 H 485.675 3.28406 2.12756 0
M  V30 5268 H 485.298 2.10505 3.37303 0
M  V30 5269 N 486.295 -0.989507 1.22664 0
M  V30 5270 C 487.243 -2.10148 0.997035 0
M  V30 5271 C 488.237 -1.6929 -0.0609783 0
M  V30 5272 O 489.443 -1.79766 0.0917523 0
M  V30 5273 H 485.818 -0.687256 0.305259 0
M  V30 5274 H 487.789 -2.26685 1.94053 0
M  V30 5275 C 486.538 -3.4257 0.595085 0
M  V30 5276 H 485.861 -3.74453 1.40089 0
M  V30 5277 H 487.301 -4.21344 0.473869 0
M  V30 5278 C 485.76 -3.29638 -0.695725 0
M  V30 5279 O 486.29 -3.61709 -1.74727 0
M  V30 5280 N 484.496 -2.82814 -0.668173 0
M  V30 5281 H 484.043 -2.56914 0.18787 0
M  V30 5282 H 484.001 -2.74544 -1.5321 0
M  V30 5283 N 487.773 -1.03688 -1.18687 0
M  V30 5284 C 489.189 -0.755413 -1.4059 0
M  V30 5285 C 489.389 0.656659 -1.905 0
M  V30 5286 O 488.445 1.42144 -2.08689 0
M  V30 5287 C 489.758 -1.7983 -2.41001 0
M  V30 5288 C 491.306 -1.81877 -2.54735 0
M  V30 5289 C 491.781 -2.85148 -3.58406 0
M  V30 5290 N 493.272 -2.84015 -3.6591 0
M  V30 5291 C 494.007 -3.60573 -4.45841 0
M  V30 5292 N 493.503 -4.46871 -5.29413 0
M  V30 5293 N 495.296 -3.49079 -4.40568 0
M  V30 5294 H 487.447 -1.94818 -0.846148 0
M  V30 5295 H 489.71 -0.842727 -0.434184 0
M  V30 5296 H 489.416 -2.81097 -2.1137 0
M  V30 5297 H 489.29 -1.62727 -3.40294 0
M  V30 5298 H 491.677 -0.812836 -2.83685 0
M  V30 5299 H 491.758 -2.03057 -1.55568 0
M  V30 5300 H 491.402 -3.85918 -3.30197 0
M  V30 5301 H 491.332 -2.61224 -4.57241 0
M  V30 5302 H 493.823 -2.21431 -3.0623 0
M  V30 5303 H 494.136 -5.02007 -5.87545 0
M  V30 5304 H 492.481 -4.5094 -5.28846 0
M  V30 5305 H 495.672 -2.81066 -3.74325 0
M  V30 5306 H 495.845 -4.08994 -5.02621 0
M  V30 5307 N 489.251 1.34841 -0.815825 0
M  V30 5308 C 490.667 1.51543 -0.500697 0
M  V30 5309 C 490.867 1.76261 0.976444 0
M  V30 5310 O 489.923 1.8094 1.76117 0
M  V30 5311 C 491.236 2.68487 -1.35407 0
M  V30 5312 C 492.784 2.82368 -1.35046 0
M  V30 5313 C 493.259 4.02347 -2.18816 0
M  V30 5314 N 494.75 4.09542 -2.16402 0
M  V30 5315 C 495.485 5.01517 -2.77971 0
M  V30 5316 N 494.981 5.98763 -3.48503 0
M  V30 5317 N 496.774 4.94334 -2.67563 0
M  V30 5318 H 488.925 1.17055 -1.77234 0
M  V30 5319 H 491.188 0.573481 -0.754866 0
M  V30 5320 H 490.894 2.56829 -2.40274 0
M  V30 5321 H 490.768 3.63321 -1.01377 0
M  V30 5322 H 493.155 2.93471 -0.309604 0
M  V30 5323 H 493.236 1.88363 -1.73069 0
M  V30 5324 H 492.88 3.92004 -3.22948 0
M  V30 5325 H 492.81 4.95551 -1.78148 0
M  V30 5326 H 495.301 3.39932 -1.65091 0
M  V30 5327 H 495.614 6.6556 -3.92747 0
M  V30 5328 H 493.959 5.98909 -3.52609 0
M  V30 5329 H 497.15 4.1732 -2.12041 0
M  V30 5330 H 497.323 5.6582 -3.15834 0
M  V30 5331 N 490.729 0.570148 1.46925 0
M  V30 5332 C 491.978 0.0487352 2.01641 0
M  V30 5333 C 492.291 -1.31433 1.44861 0
M  V30 5334 O 493.497 -1.92638 1.91318 0
M  V30 5335 C 491.953 0.0365817 3.59881 0
M  V30 5336 C 491.561 1.39719 4.25655 0
M  V30 5337 C 493.305 -0.431545 4.22301 0
M  V30 5338 C 491.212 1.34345 5.75939 0
M  V30 5339 H 490.142 0.0144492 0.753862 0
M  V30 5340 H 492.793 0.719928 1.68788 0
M  V30 5341 H 491.175 -0.700522 3.89755 0
M  V30 5342 H 492.349 2.15303 4.07408 0
M  V30 5343 H 490.664 1.80431 3.75278 0
M  V30 5344 H 493.261 -0.490354 5.32447 0
M  V30 5345 H 493.604 -1.44638 3.90366 0
M  V30 5346 H 494.137 0.251102 3.97007 0
M  V30 5347 H 490.876 2.33469 6.12513 0
M  V30 5348 H 490.396 0.629615 5.96486 0
M  V30 5349 H 492.075 1.051 6.38407 0
M  V30 5350 N 492.207 -1.54576 0.307264 0
M  V30 5351 C 493.14 -2.19946 -0.608195 0
M  V30 5352 C 494.118 -1.17096 -1.12815 0
M  V30 5353 O 495.302 -1.45766 -1.19518 0
M  V30 5354 C 492.429 -2.84826 -1.8328 0
M  V30 5355 C 491.475 -4.01256 -1.44554 0
M  V30 5356 S 492.308 -5.33197 -0.49612 0
M  V30 5357 C 493.464 -6.01563 -1.72838 0
M  V30 5358 H 493.697 -2.97253 -0.0528544 0
M  V30 5359 H 491.23 -1.54129 0.0913837 0
M  V30 5360 H 493.188 -3.22832 -2.53554 0
M  V30 5361 H 491.849 -2.07353 -2.35931 0
M  V30 5362 H 491.042 -4.45457 -2.35762 0
M  V30 5363 H 490.644 -3.6484 -0.822671 0
M  V30 5364 H 492.936 -6.22751 -2.6681 0
M  V30 5365 H 493.879 -6.9552 -1.32882 0
M  V30 5366 H 494.287 -5.31279 -1.90795 0
M  V30 5367 N 493.685 -0.035106 -1.57561 0
M  V30 5368 C 494.633 0.962707 -2.11742 0
M  V30 5369 C 495.627 1.33296 -1.0454 0
M  V30 5370 O 496.833 1.31449 -1.22968 0
M  V30 5371 H 493.208 0.32826 -0.676572 0
M  V30 5372 H 495.179 0.48048 -2.94506 0
M  V30 5373 C 493.928 2.23388 -2.66445 0
M  V30 5374 H 493.251 1.95774 -3.48587 0
M  V30 5375 H 494.691 2.91402 -3.07995 0
M  V30 5376 C 493.15 2.96769 -1.59467 0
M  V30 5377 O 493.68 3.89105 -0.998 0
M  V30 5378 N 491.886 2.59212 -1.31369 0
M  V30 5379 H 491.433 1.84202 -1.80076 0
M  V30 5380 H 491.391 3.08618 -0.600173 0
M  V30 5381 N 495.163 1.55791 0.238111 0
M  V30 5382 C 496.095 1.87513 1.31802 0
M  V30 5383 C 497.108 0.762053 1.43863 0
M  V30 5384 O 498.297 1.04024 1.45056 0
M  V30 5385 C 495.397 2.05402 2.69561 0
M  V30 5386 C 494.57 3.3632 2.79656 0
M  V30 5387 C 493.629 3.43844 3.98319 0
M  V30 5388 O 492.655 4.16994 3.87433 0
M  V30 5389 N 493.857 2.73777 5.11885 0
M  V30 5390 H 496.622 2.80734 1.04922 0
M  V30 5391 H 494.183 1.56135 0.428196 0
M  V30 5392 H 496.175 2.07769 3.47296 0
M  V30 5393 H 494.745 1.18884 2.89111 0
M  V30 5394 H 493.965 3.46195 1.88528 0
M  V30 5395 H 495.253 4.22594 2.83358 0
M  V30 5396 H 494.651 2.14094 5.23622 0
M  V30 5397 H 493.208 2.81825 5.87723 0
M  V30 5398 N 496.642 -0.504142 1.49319 0
M  V30 5399 C 497.605 -1.5883 1.65244 0
M  V30 5400 C 498.605 -1.52009 0.524386 0
M  V30 5401 O 499.795 -1.55218 0.79077 0
M  V30 5402 C 496.927 -2.98481 1.64687 0
M  V30 5403 H 498.12 -1.4604 2.61939 0
M  V30 5404 H 495.673 -0.728144 1.38303 0
M  V30 5405 H 496.408 -3.16751 0.695644 0
M  V30 5406 H 496.193 -3.0484 2.46607 0
M  V30 5407 H 497.683 -3.77256 1.79075 0
M  V30 5408 N 498.12 -1.38341 -0.754957 0
M  V30 5409 C 499.345 -1.37882 -1.5493 0
M  V30 5410 C 499.77 0.0296385 -1.88077 0
M  V30 5411 O 499.128 1.01133 -1.50472 0
M  V30 5412 C 499.176 -2.23996 -2.82592 0
M  V30 5413 O 498.28 -1.65612 -3.77686 0
M  V30 5414 H 497.621 -0.470384 -0.468652 0
M  V30 5415 H 500.151 -1.82084 -0.933082 0
M  V30 5416 H 500.161 -2.37806 -3.3153 0
M  V30 5417 H 498.836 -3.26365 -2.57796 0
M  V30 5418 H 497.413 -1.60936 -3.36384 0
M  V30 5419 N 499.598 0.982988 -1.23187 0
M  V30 5420 C 500.508 2.10907 -1.02739 0
M  V30 5421 C 501.524 1.73979 0.0273188 0
M  V30 5422 O 502.7 2.00702 -0.16757 0
M  V30 5423 C 499.765 3.41142 -0.618304 0
M  V30 5424 C 498.826 3.92112 -1.74777 0
M  V30 5425 C 498.059 5.16131 -1.3581 0
M  V30 5426 O 498.282 5.6989 -0.241201 0
M  V30 5427 O 497.216 5.61103 -2.17824 0
M  V30 5428 H 501.042 2.31046 -1.97108 0
M  V30 5429 H 498.627 1.09284 -1.01869 0
M  V30 5430 H 500.509 4.19488 -0.400982 0
M  V30 5431 H 499.184 3.2234 0.296421 0
M  V30 5432 H 498.091 3.14895 -2.0197 0
M  V30 5433 H 499.424 4.15364 -2.64071 0
M  V30 5434 N 501.076 1.04316 1.18135 0
M  V30 5435 C 502.323 0.74802 1.88178 0
M  V30 5436 C 502.651 -0.72441 1.80506 0
M  V30 5437 O 501.906 -1.54463 1.20165 0
M  V30 5438 C 502.205 1.16271 3.37958 0
M  V30 5439 C 501.871 2.63585 3.65833 0
M  V30 5440 C 500.533 3.03829 3.73151 0
M  V30 5441 C 502.885 3.58822 3.78016 0
M  V30 5442 C 500.213 4.38194 3.90132 0
M  V30 5443 C 502.565 4.92909 3.96514 0
M  V30 5444 C 501.229 5.3282 4.02068 0
M  V30 5445 H 500.499 0.27372 0.688592 0
M  V30 5446 H 503.146 1.30863 1.39811 0
M  V30 5447 H 501.451 0.520938 3.88321 0
M  V30 5448 H 503.148 0.911672 3.90499 0
M  V30 5449 H 499.738 2.31414 3.60757 0
M  V30 5450 H 503.922 3.28875 3.71692 0
M  V30 5451 H 499.178 4.68631 3.92677 0
M  V30 5452 H 503.352 5.66606 4.04883 0
M  V30 5453 H 500.979 6.36943 4.14979 0
M  V30 5454 N 502.554 -1.34406 0.822964 0
M  V30 5455 C 503.784 -2.02214 0.423424 0
M  V30 5456 C 504.192 -1.62124 -0.975322 0
M  V30 5457 O 503.535 -0.822452 -1.6426 0
M  V30 5458 C 503.597 -3.56721 0.446107 0
M  V30 5459 C 503.261 -4.20136 1.79819 0
M  V30 5460 C 504.258 -4.4065 2.75904 0
M  V30 5461 C 501.943 -4.56906 2.08669 0
M  V30 5462 C 503.937 -4.9706 3.99012 0
M  V30 5463 C 501.624 -5.13026 3.32036 0
M  V30 5464 C 502.622 -5.33047 4.27024 0
M  V30 5465 O 502.31 -5.87979 5.48211 0
M  V30 5466 H 502.042 -0.654748 0.168169 0
M  V30 5467 H 504.596 -1.72659 1.11257 0
M  V30 5468 H 502.826 -3.85537 -0.299734 0
M  V30 5469 H 504.515 -4.05845 0.0666114 0
M  V30 5470 H 505.281 -4.12607 2.54912 0
M  V30 5471 H 501.16 -4.40626 1.35535 0
M  V30 5472 H 504.704 -5.12603 4.73164 0
M  V30 5473 H 500.601 -5.40498 3.52891 0
M  V30 5474 H 501.369 -6.06413 5.49732 0
M  V30 5475 N 504.032 -0.577932 -1.46621 0
M  V30 5476 C 504.962 0.145917 -2.33044 0
M  V30 5477 C 505.943 0.888412 -1.45056 0
M  V30 5478 O 507.128 0.864812 -1.73881 0
M  V30 5479 C 504.258 1.16322 -3.27241 0
M  V30 5480 C 503.212 0.535868 -4.24632 0
M  V30 5481 C 502.538 1.65929 -5.08303 0
M  V30 5482 C 503.838 -0.523861 -5.19666 0
M  V30 5483 H 505.532 -0.575636 -2.93814 0
M  V30 5484 H 503.078 -0.278272 -1.41286 0
M  V30 5485 H 505.031 1.67793 -3.86553 0
M  V30 5486 H 503.755 1.91498 -2.64567 0
M  V30 5487 H 502.414 0.0422759 -3.66576 0
M  V30 5488 H 502.062 2.40061 -4.42018 0
M  V30 5489 H 501.762 1.2452 -5.74255 0
M  V30 5490 H 503.286 2.17686 -5.70478 0
M  V30 5491 H 504.7 -0.0944059 -5.73222 0
M  V30 5492 H 503.097 -0.858 -5.93935 0
M  V30 5493 H 504.167 -1.41197 -4.63887 0
M  V30 5494 N 505.51 1.54411 -0.315457 0
M  V30 5495 C 506.473 2.22713 0.54142 0
M  V30 5496 C 507.473 1.2179 1.04995 0
M  V30 5497 O 508.663 1.46426 0.943667 0
M  V30 5498 C 505.795 2.92485 1.75116 0
M  V30 5499 H 506.988 2.99849 -0.0555508 0
M  V30 5500 H 504.541 1.56159 -0.0664453 0
M  V30 5501 H 505.276 2.19466 2.38758 0
M  V30 5502 H 505.061 3.66483 1.39401 0
M  V30 5503 H 506.551 3.44548 2.35959 0
M  V30 5504 N 506.988 0.0434614 1.5754 0
M  V30 5505 C 508.213 -0.645358 1.97104 0
M  V30 5506 C 508.638 -1.64037 0.920521 0
M  V30 5507 O 507.996 -1.80922 -0.11708 0
M  V30 5508 C 508.044 -1.31547 3.35749 0
M  V30 5509 O 507.148 -2.43103 3.33129 0
M  V30 5510 H 506.489 -0.168403 0.64229 0
M  V30 5511 H 509.019 0.109573 2.04306 0
M  V30 5512 H 509.029 -1.66895 3.72304 0
M  V30 5513 H 507.704 -0.586205 4.11748 0
M  V30 5514 H 506.281 -2.0976 3.0831 0
M  V30 5515 N 508.466 -1.55915 -0.229846 0
M  V30 5516 C 509.691 -1.8296 -0.976743 0
M  V30 5517 C 510.116 -0.622735 -1.77493 0
M  V30 5518 O 509.474 0.428431 -1.76165 0
M  V30 5519 C 509.522 -3.07916 -1.8767 0
M  V30 5520 O 508.626 -2.86028 -2.97088 0
M  V30 5521 H 507.967 -0.603453 -0.277021 0
M  V30 5522 H 510.497 -2.0312 -0.245669 0
M  V30 5523 H 510.507 -3.37802 -2.2881 0
M  V30 5524 H 509.182 -3.95389 -1.28996 0
M  V30 5525 H 507.759 -2.67355 -2.59954 0
M  V30 5526 N 509.944 0.496216 -1.49584 0
M  V30 5527 C 511.355 1.07765 -1.52459 0
M  V30 5528 C 511.706 1.93679 -0.31353 0
M  V30 5529 O 510.831 2.08588 0.576186 0
M  V30 5530 C 511.426 1.96111 -2.76271 0
M  V30 5531 C 509.985 2.49409 -2.81908 0
M  V30 5532 C 509.132 1.27142 -2.46435 0
M  V30 5533 H 512.083 0.279914 -1.56212 0
M  V30 5534 H 512.104 2.80862 -2.56704 0
M  V30 5535 H 511.616 1.33555 -3.64396 0
M  V30 5536 H 509.717 3.1559 -1.98074 0
M  V30 5537 H 509.83 2.86234 -3.84196 0
M  V30 5538 H 508.194 1.59818 -1.98319 0
M  V30 5539 H 508.977 0.662866 -3.3684 0
M  V30 5540 N 511.423 1.38739 0.74761 0
M  V30 5541 C 512.834 1.31507 1.32524 0
M  V30 5542 C 513.185 -0.0263963 1.96182 0
M  V30 5543 O 512.31 -0.92849 1.95469 0
M  V30 5544 C 512.905 2.38162 2.40966 0
M  V30 5545 C 511.464 2.34489 2.94434 0
M  V30 5546 C 510.611 2.20712 1.67873 0
M  V30 5547 H 513.562 1.4901 0.546043 0
M  V30 5548 H 513.583 2.04222 3.21051 0
M  V30 5549 H 513.095 3.35783 1.94605 0
M  V30 5550 H 511.196 1.40467 3.45108 0
M  V30 5551 H 511.309 3.28861 3.48407 0
M  V30 5552 H 509.673 1.67667 1.91729 0
M  V30 5553 H 510.456 3.20285 1.23582 0
M  V30 5554 N 512.901 -0.976442 1.23707 0
M  V30 5555 C 514.126 -1.75875 1.09922 0
M  V30 5556 C 514.551 -1.84911 -0.34489 0
M  V30 5557 O 513.909 -1.31363 -1.24954 0
M  V30 5558 C 513.957 -3.16179 1.73388 0
M  V30 5559 O 513.061 -4.00124 0.99871 0
M  V30 5560 H 512.402 -0.540954 0.385052 0
M  V30 5561 H 514.932 -1.22546 1.6384 0
M  V30 5562 H 514.942 -3.66741 1.78788 0
M  V30 5563 H 513.617 -3.08917 2.78466 0
M  V30 5564 H 512.194 -3.58624 1.02193 0
M  V30 5565 N 514.379 -1.04941 -1.1758 0
M  V30 5566 C 515.627 -0.756492 -1.87408 0
M  V30 5567 C 515.948 0.718478 -1.81281 0
M  V30 5568 O 515.218 1.519 -1.23706 0
M  V30 5569 H 513.798 -0.276841 -0.693807 0
M  V30 5570 H 516.46 -1.32803 -1.42652 0
M  V30 5571 H 515.556 -1.06918 -2.93215 0
M  V30 5572 N 515.857 1.33968 -0.830081 0
M  V30 5573 C 517.082 2.02813 -0.433796 0
M  V30 5574 C 517.507 1.62076 0.954614 0
M  V30 5575 O 516.865 0.808955 1.62252 0
M  V30 5576 C 516.913 3.56348 -0.552115 0
M  V30 5577 O 516.017 4.10202 0.425191 0
M  V30 5578 H 515.358 0.639817 -0.177567 0
M  V30 5579 H 517.888 1.7106 -1.12248 0
M  V30 5580 H 517.898 4.05722 -0.430513 0
M  V30 5581 H 516.573 3.85344 -1.56471 0
M  V30 5582 H 515.15 3.71979 0.261878 0
M  V30 5583 N 517.335 0.585699 1.46312 0
M  V30 5584 C 518.582 0.0724211 2.0237 0
M  V30 5585 C 518.91 -1.28868 1.45683 0
M  V30 5586 O 518.165 -1.85853 0.612945 0
M  V30 5587 C 518.464 -0.0401312 3.57377 0
M  V30 5588 C 518.13 1.25376 4.33119 0
M  V30 5589 C 516.792 1.60824 4.5353 0
M  V30 5590 C 519.144 2.10987 4.76586 0
M  V30 5591 C 516.472 2.81676 5.14661 0
M  V30 5592 C 518.824 3.31068 5.39052 0
M  V30 5593 C 517.488 3.66794 5.5769 0
M  V30 5594 H 516.758 0.0265007 0.740526 0
M  V30 5595 H 519.405 0.762935 1.75646 0
M  V30 5596 H 517.71 -0.813791 3.83255 0
M  V30 5597 H 519.407 -0.453078 3.98432 0
M  V30 5598 H 515.997 0.967808 4.1753 0
M  V30 5599 H 520.181 1.84904 4.60569 0
M  V30 5600 H 515.437 3.0949 5.27282 0
M  V30 5601 H 519.611 3.97672 5.71691 0
M  V30 5602 H 517.238 4.60529 6.04828 0
M  V30 5603 N 518.813 -1.54241 0.323641 0
M  V30 5604 C 519.746 -2.20579 -0.584833 0
M  V30 5605 C 520.724 -1.18286 -1.11567 0
M  V30 5606 O 521.908 -1.47025 -1.17966 0
M  V30 5607 C 519.035 -2.86754 -1.80249 0
M  V30 5608 C 518.081 -4.02767 -1.4029 0
M  V30 5609 S 518.914 -5.33693 -0.439539 0
M  V30 5610 C 520.07 -6.03362 -1.66448 0
M  V30 5611 H 520.303 -2.97292 -0.0213238 0
M  V30 5612 H 517.836 -1.54024 0.107726 0
M  V30 5613 H 519.794 -3.25503 -2.50116 0
M  V30 5614 H 518.455 -2.09844 -2.33719 0
M  V30 5615 H 517.648 -4.47933 -2.31024 0
M  V30 5616 H 517.25 -3.65692 -0.783928 0
M  V30 5617 H 519.542 -6.25546 -2.6019 0
M  V30 5618 H 520.485 -6.9689 -1.25498 0
M  V30 5619 H 520.893 -5.33273 -1.85149 0
M  V30 5620 N 520.291 -0.0518155 -1.57515 0
M  V30 5621 C 521.568 0.661727 -1.84067 0
M  V30 5622 C 521.948 1.88999 -0.940351 0
M  V30 5623 O 521.296 2.285 -0.00155404 0
M  V30 5624 C 521.506 1.01841 -3.3381 0
M  V30 5625 C 522.854 1.40043 -4.00841 0
M  V30 5626 O 523.878 1.11073 -3.38439 0
M  V30 5627 O 522.737 1.94111 -5.10865 0
M  V30 5628 H 519.831 0.326702 -0.759733 0
M  V30 5629 H 522.377 -0.0812277 -1.69505 0
M  V30 5630 H 521.149 0.145202 -3.91031 0
M  V30 5631 H 520.772 1.81879 -3.53562 0
M  V30 5632 N 521.769 1.56035 0.221574 0
M  V30 5633 C 523.046 1.69837 0.970301 0
M  V30 5634 C 523.426 0.599065 2.02421 0
M  V30 5635 O 522.774 -0.393929 2.25079 0
M  V30 5636 C 522.984 3.11148 1.58076 0
M  V30 5637 C 524.332 3.70555 2.07302 0
M  V30 5638 O 525.356 3.14109 1.6797 0
M  V30 5639 O 524.215 4.69562 2.79596 0
M  V30 5640 H 521.309 0.691727 0.453257 0
M  V30 5641 H 523.855 1.68353 0.213358 0
M  V30 5642 H 522.627 3.82617 0.819759 0
M  V30 5643 H 522.25 3.16749 2.40324 0
M  V30 5644 N 523.247 -0.488276 1.49845 0
M  V30 5645 C 524.472 -1.26997 1.63971 0
M  V30 5646 C 524.897 -1.85427 0.315994 0
M  V30 5647 O 524.255 -1.66475 -0.718032 0
M  V30 5648 C 524.303 -2.36689 2.72049 0
M  V30 5649 O 523.407 -3.40882 2.32107 0
M  V30 5650 H 522.748 -0.374376 0.548396 0
M  V30 5651 H 525.278 -0.583104 1.96115 0
M  V30 5652 H 525.288 -2.82262 2.94605 0
M  V30 5653 H 523.963 -1.93529 3.68129 0
M  V30 5654 H 522.54 -3.01139 2.19931 0
M  V30 5655 N 524.725 -1.39134 -0.740242 0
M  V30 5656 C 525.688 -1.37217 -1.83587 0
M  V30 5657 C 526.688 -0.270221 -1.58513 0
M  V30 5658 O 527.878 -0.527843 -1.6601 0
M  V30 5659 C 525.01 -1.13959 -3.21288 0
M  V30 5660 H 526.203 -2.34705 -1.86691 0
M  V30 5661 H 523.756 -1.24622 -0.94335 0
M  V30 5662 H 524.491 -0.17131 -3.23847 0
M  V30 5663 H 524.276 -1.93754 -3.40884 0
M  V30 5664 H 525.766 -1.15346 -4.01354 0
M  V30 5665 N 526.204 0.969867 -1.24223 0
M  V30 5666 C 527.137 2.06279 -0.975926 0
M  V30 5667 C 528.115 1.62353 0.0895385 0
M  V30 5668 O 529.299 1.88442 -0.0469418 0
M  V30 5669 C 526.426 3.35391 -0.472315 0
M  V30 5670 C 525.472 3.98266 -1.526 0
M  V30 5671 S 526.305 4.36172 -3.10667 0
M  V30 5672 C 527.461 5.68423 -2.62003 0
M  V30 5673 H 527.694 2.28551 -1.90137 0
M  V30 5674 H 525.227 1.10748 -1.07584 0
M  V30 5675 H 527.185 4.10068 -0.188376 0
M  V30 5676 H 525.846 3.1111 0.432378 0
M  V30 5677 H 525.039 4.91307 -1.12399 0
M  V30 5678 H 524.641 3.30009 -1.75983 0
M  V30 5679 H 526.933 6.45842 -2.0468 0
M  V30 5680 H 527.876 6.13478 -3.53625 0
M  V30 5681 H 528.284 5.26928 -2.02502 0
M  V30 5682 N 527.682 1.05563 1.17022 0
M  V30 5683 C 528.632 0.630007 2.19123 0
M  V30 5684 C 529.616 -0.335472 1.57364 0
M  V30 5685 O 530.808 -0.1521 1.76345 0
M  V30 5686 C 527.937 0.0101676 3.43298 0
M  V30 5687 C 527.023 0.999698 4.12149 0
M  V30 5688 N 527.414 2.17251 4.56766 0
M  V30 5689 C 525.712 0.829 4.38228 0
M  V30 5690 C 526.413 2.79883 5.09942 0
M  V30 5691 N 525.389 2.07656 5.02374 0
M  V30 5692 H 529.191 1.52353 2.51328 0
M  V30 5693 H 526.705 0.926288 1.33393 0
M  V30 5694 H 528.702 -0.312541 4.15727 0
M  V30 5695 H 527.362 -0.878707 3.12584 0
M  V30 5696 H 528.373 2.55067 4.50734 0
M  V30 5697 H 525.05 -0.00850974 4.17499 0
M  V30 5698 H 526.44 3.79362 5.54558 0
M  V30 5699 N 529.16 -1.33526 0.837174 0
M  V30 5700 C 530.409 -1.97098 0.428387 0
M  V30 5701 C 530.722 -1.67062 -1.01734 0
M  V30 5702 O 531.928 -2.24235 -1.53072 0
M  V30 5703 C 530.384 -3.52725 0.715075 0
M  V30 5704 C 529.992 -3.9164 2.17537 0
M  V30 5705 C 531.736 -4.22857 0.373154 0
M  V30 5706 C 529.643 -5.40237 2.40619 0
M  V30 5707 H 528.573 -0.737589 0.156455 0
M  V30 5708 H 531.224 -1.52169 1.02552 0
M  V30 5709 H 529.606 -3.95971 0.0475904 0
M  V30 5710 H 530.78 -3.59456 2.88319 0
M  V30 5711 H 529.095 -3.34485 2.4801 0
M  V30 5712 H 531.692 -5.32133 0.523264 0
M  V30 5713 H 532.035 -4.10647 -0.683708 0
M  V30 5714 H 532.568 -3.85135 0.995801 0
M  V30 5715 H 529.307 -5.57449 3.44864 0
M  V30 5716 H 528.827 -5.73887 1.74396 0
M  V30 5717 H 530.506 -6.07102 2.23688 0
M  V30 5718 N 530.638 -0.59345 -1.46 0
M  V30 5719 C 532.049 -0.169801 -1.85926 0
M  V30 5720 C 532.4 1.26984 -1.49565 0
M  V30 5721 O 531.525 1.96076 -0.915602 0
M  V30 5722 C 532.12 -0.301385 -3.37457 0
M  V30 5723 C 530.679 0.0674684 -3.7634 0
M  V30 5724 C 529.826 -0.632383 -2.69993 0
M  V30 5725 H 532.777 -0.801014 -1.37002 0
M  V30 5726 H 532.798 0.470331 -3.77582 0
M  V30 5727 H 532.31 -1.34927 -3.63891 0
M  V30 5728 H 530.411 1.11507 -3.55523 0
M  V30 5729 H 530.524 -0.316332 -4.78055 0
M  V30 5730 H 528.888 -0.0714961 -2.546 0
M  V30 5731 H 529.671 -1.68212 -2.99265 0
M  V30 5732 N 532.116 1.54067 -0.331816 0
M  V30 5733 C 533.527 1.86059 0.15454 0
M  V30 5734 C 533.878 1.25331 1.50952 0
M  V30 5735 O 533.003 0.562441 2.08963 0
M  V30 5736 C 533.598 3.37581 0.287192 0
M  V30 5737 C 532.157 3.69493 0.717773 0
M  V30 5738 C 531.304 2.76863 -0.155569 0
M  V30 5739 H 534.255 1.48797 -0.55182 0
M  V30 5740 H 534.276 3.63744 1.11671 0
M  V30 5741 H 533.788 3.81751 -0.699131 0
M  V30 5742 H 531.889 3.3086 1.71354 0
M  V30 5743 H 532.002 4.76315 0.5158 0
M  V30 5744 H 530.366 2.51995 0.370213 0
M  V30 5745 H 531.149 3.23861 -1.13881 0
M  V30 5746 N 533.594 0.0601682 1.57485 0
M  V30 5747 C 534.842 -0.610386 1.92662 0
M  V30 5748 C 535.163 -1.70849 0.939981 0
M  V30 5749 O 534.433 -1.95895 -0.0137455 0
M  V30 5750 H 533.013 -0.228457 0.711208 0
M  V30 5751 H 535.675 0.115288 1.94559 0
M  V30 5752 H 534.771 -1.0432 2.94149 0
M  V30 5753 N 535.072 -1.5615 -0.213296 0
M  V30 5754 C 536.002 -1.96109 -1.26742 0
M  V30 5755 C 536.983 -0.830448 -1.48451 0
M  V30 5756 O 538.168 -1.09339 -1.60495 0
M  V30 5757 C 535.298 -2.28492 -2.61551 0
M  V30 5758 C 534.252 -3.44124 -2.54485 0
M  V30 5759 C 533.578 -3.62134 -3.93399 0
M  V30 5760 C 534.878 -4.78855 -2.08556 0
M  V30 5761 H 536.572 -2.84412 -0.935434 0
M  V30 5762 H 534.118 -1.36836 -0.44854 0
M  V30 5763 H 536.071 -2.55039 -3.3546 0
M  V30 5764 H 534.795 -1.37052 -2.96453 0
M  V30 5765 H 533.454 -3.17639 -1.83033 0
M  V30 5766 H 533.102 -2.68055 -4.25623 0
M  V30 5767 H 532.802 -4.39913 -3.89551 0
M  V30 5768 H 534.326 -3.91038 -4.68958 0
M  V30 5769 H 535.74 -5.04552 -2.72213 0
M  V30 5770 H 534.137 -5.59975 -2.1575 0
M  V30 5771 H 535.207 -4.73657 -1.03811 0
M  V30 5772 N 536.55 0.480323 -1.50102 0
M  V30 5773 C 537.497 1.57946 -1.6829 0
M  V30 5774 C 538.467 1.57611 -0.524223 0
M  V30 5775 O 539.652 1.75282 -0.753709 0
M  V30 5776 C 536.792 2.95978 -1.77457 0
M  V30 5777 C 535.905 3.06173 -3.04766 0
M  V30 5778 C 535.04 4.35063 -3.04784 0
M  V30 5779 C 534.079 4.38966 -4.26586 0
M  V30 5780 N 533.216 5.59314 -4.24396 0
M  V30 5781 H 538.056 1.41743 -2.62131 0
M  V30 5782 H 535.593 0.689304 -1.2995 0
M  V30 5783 H 537.551 3.76011 -1.80752 0
M  V30 5784 H 536.181 3.10837 -0.870637 0
M  V30 5785 H 535.233 2.19071 -3.10986 0
M  V30 5786 H 536.545 3.04916 -3.9475 0
M  V30 5787 H 535.699 5.23436 -3.06757 0
M  V30 5788 H 534.438 4.38915 -2.12614 0
M  V30 5789 H 533.443 3.48992 -4.24835 0
M  V30 5790 H 534.668 4.36813 -5.19972 0
M  V30 5791 H 532.614 5.63969 -3.35074 0
M  V30 5792 H 532.531 5.5976 -5.08138 0
M  V30 5793 H 533.799 6.49837 -4.30502 0
M  V30 5794 N 538.028 1.39524 0.732853 0
M  V30 5795 C 539.439 1.32905 1.31122 0
M  V30 5796 C 539.79 -0.00558708 1.96199 0
M  V30 5797 O 538.915 -0.907706 1.96443 0
M  V30 5798 C 539.51 2.40704 2.38426 0
M  V30 5799 C 538.069 2.37599 2.91931 0
M  V30 5800 C 537.216 2.2248 1.65523 0
M  V30 5801 H 540.167 1.49581 0.530207 0
M  V30 5802 H 540.188 2.07616 3.18867 0
M  V30 5803 H 539.7 3.37829 1.91033 0
M  V30 5804 H 537.801 1.44119 3.43599 0
M  V30 5805 H 537.914 3.32538 3.44899 0
M  V30 5806 H 536.278 1.69691 1.8994 0
M  V30 5807 H 537.061 3.21577 1.20178 0
M  V30 5808 N 539.506 -0.963266 1.24736 0
M  V30 5809 C 540.456 -2.0438 1.01058 0
M  V30 5810 C 541.44 -1.60824 -0.0495354 0
M  V30 5811 O 542.632 -1.76232 0.164741 0
M  V30 5812 C 539.761 -3.37617 0.622067 0
M  V30 5813 C 538.847 -3.87722 1.7185 0
M  V30 5814 N 539.238 -4.10715 2.95207 0
M  V30 5815 C 537.536 -4.16426 1.59703 0
M  V30 5816 C 538.237 -4.51872 3.66315 0
M  V30 5817 N 537.213 -4.57302 2.93897 0
M  V30 5818 H 541.015 -2.20138 1.94721 0
M  V30 5819 H 538.529 -1.14741 1.14927 0
M  V30 5820 H 540.526 -4.14638 0.43366 0
M  V30 5821 H 539.186 -3.23242 -0.307327 0
M  V30 5822 H 540.197 -3.98037 3.31341 0
M  V30 5823 H 536.874 -4.10962 0.73598 0
M  V30 5824 H 538.264 -4.78037 4.72155 0
M  V30 5825 N 540.985 -1.06182 -1.16461 0
M  V30 5826 C 542.396 -0.802426 -1.68576 0
M  V30 5827 C 542.747 0.67412 -1.84255 0
M  V30 5828 O 541.872 1.52303 -1.5373 0
M  V30 5829 C 542.467 -1.45002 -3.06202 0
M  V30 5830 C 541.026 -1.23843 -3.55443 0
M  V30 5831 C 540.173 -1.52724 -2.31454 0
M  V30 5832 H 543.124 -1.22545 -1.00839 0
M  V30 5833 H 543.145 -0.864731 -3.70544 0
M  V30 5834 H 542.657 -2.52466 -2.94759 0
M  V30 5835 H 540.758 -0.183487 -3.72148 0
M  V30 5836 H 540.871 -1.95036 -4.37604 0
M  V30 5837 H 539.235 -0.947726 -2.36411 0
M  V30 5838 H 540.018 -2.61343 -2.22609 0
M  V30 5839 N 542.463 1.3308 -0.844243 0
M  V30 5840 C 543.373 2.32876 -0.283922 0
M  V30 5841 C 544.389 1.63589 0.592846 0
M  V30 5842 O 545.565 1.95205 0.495693 0
M  V30 5843 C 542.63 3.42667 0.527283 0
M  V30 5844 C 541.691 4.27664 -0.374394 0
M  V30 5845 C 540.924 5.32212 0.39819 0
M  V30 5846 O 541.147 5.46635 1.62932 0
M  V30 5847 O 540.081 6.01458 -0.2306 0
M  V30 5848 H 543.907 2.82671 -1.11045 0
M  V30 5849 H 541.492 1.36518 -0.606903 0
M  V30 5850 H 543.374 4.09652 0.988078 0
M  V30 5851 H 542.049 2.95079 1.33078 0
M  V30 5852 H 540.956 3.63526 -0.883144 0
M  V30 5853 H 542.289 4.78749 -1.1428 0
M  V30 5854 N 543.941 0.601185 1.45683 0
M  V30 5855 C 545.357 0.264315 1.57396 0
M  V30 5856 C 545.557 -1.23324 1.59353 0
M  V30 5857 O 544.613 -2.01594 1.52039 0
M  V30 5858 C 545.926 0.929839 2.85962 0
M  V30 5859 C 547.474 0.905156 2.99626 0
M  V30 5860 C 547.949 1.55057 4.30954 0
M  V30 5861 N 549.44 1.51576 4.37697 0
M  V30 5862 C 550.175 1.98436 5.37969 0
M  V30 5863 N 549.671 2.53352 6.44813 0
M  V30 5864 N 551.464 1.89242 5.29286 0
M  V30 5865 H 543.615 1.57363 1.42656 0
M  V30 5866 H 545.878 0.658831 0.681649 0
M  V30 5867 H 545.584 1.98404 2.90394 0
M  V30 5868 H 545.458 0.449224 3.74515 0
M  V30 5869 H 547.845 -0.14048 2.94765 0
M  V30 5870 H 547.926 1.42397 2.12501 0
M  V30 5871 H 547.57 2.5955 4.36573 0
M  V30 5872 H 547.5 1.00682 5.16886 0
M  V30 5873 H 549.991 1.11452 3.61091 0
M  V30 5874 H 550.304 2.86918 7.17564 0
M  V30 5875 H 548.649 2.57388 6.45582 0
M  V30 5876 H 551.84 1.46083 4.44722 0
M  V30 5877 H 552.013 2.26075 6.07284 0
M  V30 5878 N 545.419 -1.53889 0.339982 0
M  V30 5879 C 546.352 -2.21187 -0.561405 0
M  V30 5880 C 547.33 -1.19463 -1.10306 0
M  V30 5881 O 548.514 -1.48268 -1.164 0
M  V30 5882 C 545.641 -2.8865 -1.77198 0
M  V30 5883 C 544.687 -4.04232 -1.3601 0
M  V30 5884 S 545.52 -5.34129 -0.382909 0
M  V30 5885 C 546.676 -6.05094 -1.60039 0
M  V30 5886 H 546.909 -2.97298 0.0102092 0
M  V30 5887 H 544.442 -1.53901 0.124056 0
M  V30 5888 H 546.4 -3.28138 -2.4665 0
M  V30 5889 H 545.061 -2.12311 -2.3148 0
M  V30 5890 H 544.254 -4.50358 -2.2626 0
M  V30 5891 H 543.856 -3.66503 -0.745098 0
M  V30 5892 H 546.148 -6.2827 -2.53541 0
M  V30 5893 H 547.091 -6.98182 -1.18099 0
M  V30 5894 H 547.499 -5.35207 -1.79483 0
M  V30 5895 N 546.897 -0.0685191 -1.57451 0
M  V30 5896 C 548.308 0.464634 -1.80826 0
M  V30 5897 C 548.659 1.69847 -0.982169 0
M  V30 5898 O 547.784 2.15439 -0.203734 0
M  V30 5899 C 548.379 0.849721 -3.27971 0
M  V30 5900 C 546.938 1.32776 -3.52204 0
M  V30 5901 C 546.085 0.311332 -2.75547 0
M  V30 5902 H 549.036 -0.294248 -1.55948 0
M  V30 5903 H 549.057 1.71138 -3.39841 0
M  V30 5904 H 548.569 -0.0484736 -3.8807 0
M  V30 5905 H 546.67 2.24456 -2.97406 0
M  V30 5906 H 546.783 1.30794 -4.60901 0
M  V30 5907 H 545.147 0.787915 -2.42206 0
M  V30 5908 H 545.93 -0.579078 -3.38381 0
M  V30 5909 N 548.375 1.56261 0.205012 0
M  V30 5910 C 549.786 1.70056 0.770574 0
M  V30 5911 C 550.137 0.673398 1.84282 0
M  V30 5912 O 549.262 -0.172196 2.15714 0
M  V30 5913 C 549.857 3.08316 1.40451 0
M  V30 5914 C 548.416 3.2391 1.91727 0
M  V30 5915 C 547.563 2.66001 0.783516 0
M  V30 5916 H 550.514 1.58688 -0.019911 0
M  V30 5917 H 550.535 3.05094 2.27371 0
M  V30 5918 H 550.047 3.83053 0.623882 0
M  V30 5919 H 548.148 2.54072 2.7254 0
M  V30 5920 H 548.261 4.3131 2.08588 0
M  V30 5921 H 546.625 2.24915 1.19521 0
M  V30 5922 H 547.408 3.43297 0.0152883 0
M  V30 5923 N 549.853 -0.472356 1.50355 0
M  V30 5924 C 550.783 -1.57859 1.72055 0
M  V30 5925 C 551.764 -1.60283 0.569505 0
M  V30 5926 O 552.949 -1.7657 0.808503 0
M  V30 5927 C 550.079 -2.96191 1.81351 0
M  V30 5928 C 549.033 -3.08633 2.96529 0
M  V30 5929 C 548.359 -4.486 2.90968 0
M  V30 5930 C 549.659 -2.85969 4.37057 0
M  V30 5931 H 551.353 -1.39953 2.64676 0
M  V30 5932 H 548.899 -0.671846 1.27367 0
M  V30 5933 H 550.852 -3.73507 1.95117 0
M  V30 5934 H 549.576 -3.15251 0.853502 0
M  V30 5935 H 548.235 -2.33749 2.82413 0
M  V30 5936 H 547.883 -4.64577 1.92815 0
M  V30 5937 H 547.583 -4.57861 3.68289 0
M  V30 5938 H 549.107 -5.27938 3.0678 0
M  V30 5939 H 550.521 -3.53036 4.51706 0
M  V30 5940 H 548.918 -3.06677 5.15819 0
M  V30 5941 H 549.988 -1.81838 4.49514 0
M  V30 5942 N 551.331 -1.39911 -0.725443 0
M  V30 5943 C 552.58 -1.36963 -1.48068 0
M  V30 5944 C 552.893 0.0284478 -1.95579 0
M  V30 5945 O 554.099 0.180535 -2.70899 0
M  V30 5946 C 552.555 -2.40664 -2.67598 0
M  V30 5947 C 552.163 -3.86234 -2.26997 0
M  V30 5948 C 553.907 -2.46807 -3.45379 0
M  V30 5949 C 551.814 -4.81554 -3.43307 0
M  V30 5950 H 550.744 -0.509223 -0.556065 0
M  V30 5951 H 553.395 -1.65602 -0.790454 0
M  V30 5952 H 551.777 -2.05109 -3.38742 0
M  V30 5953 H 552.951 -4.3088 -1.63337 0
M  V30 5954 H 551.266 -3.83475 -1.62284 0
M  V30 5955 H 553.863 -3.15213 -4.31909 0
M  V30 5956 H 554.206 -1.49552 -3.8851 0
M  V30 5957 H 554.739 -2.81303 -2.81271 0
M  V30 5958 H 551.478 -5.80106 -3.05217 0
M  V30 5959 H 550.998 -4.4158 -4.05915 0
M  V30 5960 H 552.677 -5.0091 -4.0951 0
M  V30 5961 N 552.809 0.956637 -1.25245 0
M  V30 5962 C 553.772 2.03457 -1.05537 0
M  V30 5963 C 554.772 1.60798 -0.00886317 0
M  V30 5964 O 555.962 1.72384 -0.250865 0
M  V30 5965 C 553.094 3.35543 -0.601965 0
M  V30 5966 H 554.287 2.22372 -2.01223 0
M  V30 5967 H 551.84 1.13344 -1.07623 0
M  V30 5968 H 552.575 3.22323 0.357584 0
M  V30 5969 H 552.36 3.67854 -1.35743 0
M  V30 5970 H 553.85 4.14769 -0.485454 0
M  V30 5971 N 554.287 1.06798 1.15896 0
M  V30 5972 C 555.564 0.701057 1.82605 0
M  V30 5973 C 555.944 -0.817066 1.94646 0
M  V30 5974 O 555.292 -1.72933 1.49353 0
M  V30 5975 C 555.502 1.40895 3.19296 0
M  V30 5976 C 556.85 1.55744 3.95005 0
M  V30 5977 O 557.874 1.36927 3.28831 0
M  V30 5978 O 556.733 1.86658 5.13635 0
M  V30 5979 H 553.827 0.248791 0.78869 0
M  V30 5980 H 556.373 1.16857 1.23055 0
M  V30 5981 H 555.145 2.4439 3.05596 0
M  V30 5982 H 554.768 0.931847 3.86526 0
M  V30 5983 N 555.766 -1.3263 0.851289 0
M  V30 5984 C 556.991 -2.02097 0.466006 0
M  V30 5985 C 557.416 -1.63574 -0.928709 0
M  V30 5986 O 556.774 -0.834665 -1.60944 0
M  V30 5987 C 556.822 -3.55425 0.608737 0
M  V30 5988 O 555.926 -4.10827 -0.359878 0
M  V30 5989 H 555.267 -0.636911 0.187724 0
M  V30 5990 H 557.797 -1.69253 1.14955 0
M  V30 5991 H 557.807 -4.04986 0.495006 0
M  V30 5992 H 556.482 -3.82806 1.62581 0
M  V30 5993 H 555.059 -3.72349 -0.202666 0
M  V30 5994 N 557.244 -0.608902 -1.45362 0
M  V30 5995 C 558.655 -0.189511 -1.85736 0
M  V30 5996 C 559.006 1.2539 -1.50903 0
M  V30 5997 O 558.131 1.95094 -0.936347 0
M  V30 5998 C 558.726 -0.33716 -3.37118 0
M  V30 5999 C 557.285 0.0275487 -3.7639 0
M  V30 6000 C 556.432 -0.660983 -2.69307 0
M  V30 6001 H 559.383 -0.815499 -1.36144 0
M  V30 6002 H 559.404 0.430257 -3.7806 0
M  V30 6003 H 558.916 -1.38779 -3.62439 0
M  V30 6004 H 557.017 1.0773 -3.56686 0
M  V30 6005 H 557.13 -0.367018 -4.77692 0
M  V30 6006 H 555.494 -0.0984958 -2.54509 0
M  V30 6007 H 556.277 -1.71377 -2.97464 0
M  V30 6008 N 558.722 1.53707 -0.348139 0
M  V30 6009 C 559.669 2.25173 0.506518 0
M  V30 6010 C 560.639 1.25174 1.09182 0
M  V30 6011 O 561.824 1.53917 1.12757 0
M  V30 6012 C 558.964 3.03141 1.64923 0
M  V30 6013 C 558.077 4.18002 1.0908 0
M  V30 6014 C 557.212 4.83447 2.20119 0
M  V30 6015 C 556.251 5.90369 1.61651 0
M  V30 6016 N 555.388 6.49575 2.66451 0
M  V30 6017 H 560.228 2.97799 -0.109452 0
M  V30 6018 H 557.765 1.46953 -0.0657866 0
M  V30 6019 H 559.723 3.46607 2.32205 0
M  V30 6020 H 558.353 2.32803 2.23612 0
M  V30 6021 H 557.405 3.79145 0.308783 0
M  V30 6022 H 558.717 4.94892 0.623178 0
M  V30 6023 H 557.871 5.30008 2.95257 0
M  V30 6024 H 556.61 4.05991 2.70227 0
M  V30 6025 H 555.615 5.43186 0.850209 0
M  V30 6026 H 556.84 6.69735 1.1239 0
M  V30 6027 H 554.786 5.74981 3.15805 0
M  V30 6028 H 554.703 7.21952 2.24325 0
M  V30 6029 H 555.971 7.00789 3.41344 0
M  V30 6030 N 560.2 0.0768682 1.57412 0
M  V30 6031 C 561.163 -0.873949 2.11884 0
M  V30 6032 C 562.163 -1.22301 1.04398 0
M  V30 6033 O 563.353 -1.15545 1.30365 0
M  V30 6034 C 560.485 -2.17575 2.62438 0
M  V30 6035 H 561.678 -0.401278 2.97203 0
M  V30 6036 H 559.231 -0.171904 1.55352 0
M  V30 6037 H 559.966 -2.69368 1.80587 0
M  V30 6038 H 559.751 -1.93534 3.41009 0
M  V30 6039 H 561.241 -2.85631 3.04639 0
M  V30 6040 N 561.678 -1.56367 -0.196722 0
M  V30 6041 C 563.094 -1.49916 -0.54749 0
M  V30 6042 C 563.294 -0.77659 -1.85934 0
M  V30 6043 O 562.35 -0.32644 -2.50381 0
M  V30 6044 C 563.663 -2.94577 -0.603734 0
M  V30 6045 C 565.211 -3.05239 -0.692677 0
M  V30 6046 C 565.686 -4.51308 -0.780046 0
M  V30 6047 N 567.177 -4.55453 -0.843616 0
M  V30 6048 C 567.912 -5.65786 -0.931358 0
M  V30 6049 N 567.408 -6.85812 -0.981503 0
M  V30 6050 N 569.201 -5.53695 -0.968421 0
M  V30 6051 H 561.352 -2.01761 0.663803 0
M  V30 6052 H 563.615 -0.918094 0.236238 0
M  V30 6053 H 563.321 -3.50494 0.29105 0
M  V30 6054 H 563.195 -3.47841 -1.45898 0
M  V30 6055 H 565.582 -2.49372 -1.57789 0
M  V30 6056 H 565.663 -2.55103 0.188736 0
M  V30 6057 H 565.307 -5.078 0.100811 0
M  V30 6058 H 565.237 -4.99176 -1.67724 0
M  V30 6059 H 567.728 -3.69025 -0.814176 0
M  V30 6060 H 568.041 -7.65648 -1.04892 0
M  V30 6061 H 566.386 -6.88474 -0.950208 0
M  V30 6062 H 569.577 -4.58848 -0.926072 0
M  V30 6063 H 569.75 -6.39708 -1.03334 0
M  V30 6064 N 563.156 0.464375 -1.50603 0
M  V30 6065 C 564.396 1.22573 -1.6357 0
M  V30 6066 C 564.76 1.89111 -0.331834 0
M  V30 6067 O 565.961 2.66679 -0.336999 0
M  V30 6068 C 564.232 2.23643 -2.7878 0
M  V30 6069 S 565.791 3.08628 -3.1192 0
M  V30 6070 H 562.609 0.416058 -0.576556 0
M  V30 6071 H 565.211 0.521637 -1.88412 0
M  V30 6072 H 563.915 1.73354 -3.7199 0
M  V30 6073 H 563.446 2.98672 -2.56044 0
M  V30 6074 H 565.461 4.24904 -2.56264 0
M  V30 6075 N 564.634 1.40294 0.718013 0
M  V30 6076 C 566.045 1.34289 1.29705 0
M  V30 6077 C 566.396 0.0152228 1.96194 0
M  V30 6078 O 565.521 -0.88682 1.97394 0
M  V30 6079 C 566.116 2.43219 2.3586 0
M  V30 6080 C 564.675 2.40682 2.89394 0
M  V30 6081 C 563.822 2.24223 1.63154 0
M  V30 6082 H 566.773 1.50135 0.514312 0
M  V30 6083 H 566.794 2.10986 3.16647 0
M  V30 6084 H 566.306 3.39836 1.87439 0
M  V30 6085 H 564.407 1.47756 3.42051 0
M  V30 6086 H 564.52 3.36177 3.41353 0
M  V30 6087 H 562.884 1.71696 1.88129 0
M  V30 6088 H 563.667 3.22834 1.16761 0
M  V30 6089 N 566.112 -0.949982 1.2575 0
M  V30 6090 C 567.042 -2.06483 1.09028 0
M  V30 6091 C 568.023 -1.701 -0.00201532 0
M  V30 6092 O 569.208 -1.93469 0.168383 0
M  V30 6093 C 566.338 -3.39899 0.71316 0
M  V30 6094 C 565.292 -3.90309 1.75621 0
M  V30 6095 C 564.618 -5.20274 1.23365 0
M  V30 6096 C 565.918 -4.16169 3.15596 0
M  V30 6097 H 567.612 -2.20731 2.02283 0
M  V30 6098 H 565.158 -1.06066 0.973964 0
M  V30 6099 H 567.111 -4.17346 0.58309 0
M  V30 6100 H 565.835 -3.25602 -0.255091 0
M  V30 6101 H 564.494 -3.15035 1.8748 0
M  V30 6102 H 564.142 -5.02351 0.255491 0
M  V30 6103 H 563.842 -5.54971 1.93082 0
M  V30 6104 H 565.366 -6.00314 1.11607 0
M  V30 6105 H 566.78 -4.84259 3.06864 0
M  V30 6106 H 565.177 -4.62131 3.82825 0
M  V30 6107 H 566.247 -3.22273 3.6231 0
M  V30 6108 N 567.59 -1.07411 -1.15328 0
M  V30 6109 C 568.867 -0.710732 -1.82231 0
M  V30 6110 C 569.247 0.806732 -1.95077 0
M  V30 6111 O 568.595 1.72139 -1.50268 0
M  V30 6112 C 568.805 -1.42586 -3.18544 0
M  V30 6113 C 570.153 -1.57836 -3.94174 0
M  V30 6114 O 571.177 -1.38669 -3.281 0
M  V30 6115 O 570.036 -1.8938 -5.12638 0
M  V30 6116 H 567.13 -0.25297 -0.78736 0
M  V30 6117 H 569.676 -1.17508 -1.22434 0
M  V30 6118 H 568.448 -2.46008 -3.04296 0
M  V30 6119 H 568.071 -0.952332 -3.86026 0
M  V30 6120 N 569.068 1.32177 -0.85831 0
M  V30 6121 C 570.031 2.27086 -0.310588 0
M  V30 6122 C 571.031 1.51751 0.531806 0
M  V30 6123 O 572.221 1.70794 0.34279 0
M  V30 6124 C 569.353 3.36266 0.560179 0
M  V30 6125 H 570.546 2.77045 -1.1483 0
M  V30 6126 H 568.099 1.42911 -0.632942 0
M  V30 6127 H 568.834 2.9158 1.41956 0
M  V30 6128 H 568.619 3.92077 -0.0428473 0
M  V30 6129 H 570.109 4.06974 0.936056 0
M  V30 6130 N 570.547 0.616602 1.45037 0
M  V30 6131 C 571.477 -0.0840787 2.33349 0
M  V30 6132 C 572.458 -0.849641 1.4736 0
M  V30 6133 O 573.643 -0.818407 1.76113 0
M  V30 6134 C 570.773 -1.07604 3.3021 0
M  V30 6135 C 569.727 -0.423096 4.25904 0
M  V30 6136 C 569.053 -1.52394 5.12523 0
M  V30 6137 C 570.353 0.661457 5.18095 0
M  V30 6138 H 572.047 0.653333 2.92185 0
M  V30 6139 H 569.593 0.315634 1.40498 0
M  V30 6140 H 571.546 -1.57485 3.90866 0
M  V30 6141 H 570.27 -1.84416 2.69552 0
M  V30 6142 H 568.929 0.05493 3.66559 0
M  V30 6143 H 568.577 -2.28257 4.48227 0
M  V30 6144 H 568.277 -1.09251 5.77354 0
M  V30 6145 H 569.801 -2.02485 5.76049 0
M  V30 6146 H 571.215 0.246353 5.7277 0
M  V30 6147 H 569.612 1.01517 5.91451 0
M  V30 6148 H 570.682 1.53446 4.59981 0
M  V30 6149 N 572.025 -1.5352 0.356285 0
M  V30 6150 C 572.973 -2.26945 -0.50978 0
M  V30 6151 C 573.967 -1.29569 -1.09125 0
M  V30 6152 O 575.173 -1.47231 -1.03552 0
M  V30 6153 H 571.548 -0.729368 -0.183102 0
M  V30 6154 H 573.519 -2.98111 0.131374 0
M  V30 6155 C 572.268 -3.06466 -1.64237 0
M  V30 6156 H 571.591 -3.81233 -1.20423 0
M  V30 6157 H 573.031 -3.61035 -2.22327 0
M  V30 6158 C 571.49 -2.16737 -2.57928 0
M  V30 6159 O 572.02 -1.77195 -3.60507 0
M  V30 6160 N 570.226 -1.81558 -2.26903 0
M  V30 6161 H 569.773 -2.13913 -1.43524 0
M  V30 6162 H 569.731 -1.21806 -2.89846 0
M  V30 6163 N 573.503 -0.0852151 -1.57369 0
M  V30 6164 C 574.731 0.58946 -1.98325 0
M  V30 6165 C 575.146 1.62333 -0.96403 0
M  V30 6166 O 574.503 1.82438 0.0476395 0
M  V30 6167 C 574.554 1.24604 -3.39347 0
M  V30 6168 O 574.275 0.253532 -4.37366 0
M  V30 6169 C 575.776 2.00726 -3.95252 0
M  V30 6170 H 572.996 0.158783 -0.651942 0
M  V30 6171 H 575.54 -0.161584 -2.03861 0
M  V30 6172 H 573.695 1.94808 -3.34856 0
M  V30 6173 H 574.109 0.726207 -5.19448 0
M  V30 6174 H 575.583 2.42039 -4.96106 0
M  V30 6175 H 576.06 2.86919 -3.32527 0
M  V30 6176 H 576.666 1.3536 -4.03185 0
M  V30 6177 N 574.981 1.5647 0.188427 0
M  V30 6178 C 576.209 1.85131 0.923803 0
M  V30 6179 C 576.624 0.668537 1.76567 0
M  V30 6180 O 575.981 -0.362662 1.7886 0
M  V30 6181 C 576.032 3.12661 1.81453 0
M  V30 6182 O 575.753 4.26378 1.00665 0
M  V30 6183 C 577.254 3.54548 2.66103 0
M  V30 6184 H 574.474 0.614624 0.269218 0
M  V30 6185 H 577.018 2.03581 0.193671 0
M  V30 6186 H 575.173 2.96088 2.49821 0
M  V30 6187 H 575.587 4.99041 1.61425 0
M  V30 6188 H 577.061 4.4673 3.24247 0
M  V30 6189 H 577.538 2.77853 3.40139 0
M  V30 6190 H 578.144 3.73674 2.03096 0
M  V30 6191 N 576.459 -0.456382 1.50847 0
M  V30 6192 C 577.406 -1.55249 1.70782 0
M  V30 6193 C 578.376 -1.56757 0.549231 0
M  V30 6194 O 579.561 -1.74061 0.7815 0
M  V30 6195 C 576.701 -2.93118 1.82143 0
M  V30 6196 C 575.814 -3.01285 3.09598 0
M  V30 6197 C 574.949 -4.30159 3.11667 0
M  V30 6198 C 573.988 -4.32124 4.33515 0
M  V30 6199 N 573.125 -5.52492 4.3324 0
M  V30 6200 H 577.965 -1.37555 2.64353 0
M  V30 6201 H 575.502 -0.668543 1.3103 0
M  V30 6202 H 577.46 -3.73088 1.86711 0
M  V30 6203 H 576.09 -3.09413 0.919978 0
M  V30 6204 H 575.142 -2.14096 3.14431 0
M  V30 6205 H 576.454 -2.98597 3.99551 0
M  V30 6206 H 575.608 -5.18489 3.15046 0
M  V30 6207 H 574.347 -4.35477 2.1957 0
M  V30 6208 H 573.352 -3.42189 4.30333 0
M  V30 6209 H 574.577 -4.28485 5.26856 0
M  V30 6210 H 572.523 -5.58567 3.44004 0
M  V30 6211 H 572.44 -5.51605 5.16979 0
M  V30 6212 H 573.708 -6.42906 4.40786 0
M  V30 6213 N 577.937 -1.40673 -0.710563 0
M  V30 6214 C 579.348 -1.34975 -1.28991 0
M  V30 6215 C 579.699 -0.0256272 -1.96183 0
M  V30 6216 O 578.824 0.876339 -1.97862 0
M  V30 6217 C 579.419 -2.44467 -2.34567 0
M  V30 6218 C 577.978 -2.42213 -2.88114 0
M  V30 6219 C 577.125 -2.25085 -1.61963 0
M  V30 6220 H 580.076 -1.50406 -0.506343 0
M  V30 6221 H 580.097 -2.12663 -3.15523 0
M  V30 6222 H 579.609 -3.40825 -1.85634 0
M  V30 6223 H 577.71 -1.49568 -3.41263 0
M  V30 6224 H 577.823 -3.37983 -3.39565 0
M  V30 6225 H 576.187 -1.72691 -1.87216 0
M  V30 6226 H 576.97 -3.23449 -1.15047 0
M  V30 6227 N 579.415 0.9433 -1.26252 0
M  V30 6228 C 580.362 2.0417 -1.07625 0
M  V30 6229 C 581.332 1.6609 0.0180738 0
M  V30 6230 O 582.517 1.90276 -0.141289 0
M  V30 6231 C 579.657 3.37653 -0.713043 0
M  V30 6232 C 578.77 3.88783 -1.8834 0
M  V30 6233 C 577.905 5.10642 -1.4635 0
M  V30 6234 C 576.944 5.54028 -2.60229 0
M  V30 6235 N 576.081 6.67092 -2.18936 0
M  V30 6236 H 580.921 2.19436 -2.01623 0
M  V30 6237 H 578.458 1.07519 -1.00389 0
M  V30 6238 H 580.416 4.14391 -0.483358 0
M  V30 6239 H 579.046 3.22241 0.18996 0
M  V30 6240 H 578.098 3.08464 -2.22608 0
M  V30 6241 H 579.41 4.16922 -2.73821 0
M  V30 6242 H 578.564 5.94832 -1.19414 0
M  V30 6243 H 577.303 4.84244 -0.579568 0
M  V30 6244 H 576.308 4.68396 -2.87898 0
M  V30 6245 H 577.533 5.82429 -3.49219 0
M  V30 6246 H 575.479 6.42381 -1.32974 0
M  V30 6247 H 575.396 6.94806 -2.97961 0
M  V30 6248 H 576.664 7.54662 -1.95206 0
M  V30 6249 N 580.893 1.08022 1.14757 0
M  V30 6250 C 582.118 0.82895 1.90114 0
M  V30 6251 C 582.543 -0.612772 1.77839 0
M  V30 6252 O 581.901 -1.42895 1.11583 0
M  V30 6253 C 581.949 1.25062 3.38219 0
M  V30 6254 O 581.053 0.400119 4.10454 0
M  V30 6255 H 580.394 0.301412 0.591648 0
M  V30 6256 H 582.924 1.44062 1.45284 0
M  V30 6257 H 582.934 1.22977 3.89025 0
M  V30 6258 H 581.609 2.30067 3.46471 0
M  V30 6259 H 580.186 0.484052 3.69745 0
M  V30 6260 N 582.371 -1.3172 0.865308 0
M  V30 6261 C 583.301 -2.31109 0.333302 0
M  V30 6262 C 584.282 -1.60148 -0.573301 0
M  V30 6263 O 585.467 -1.87882 -0.491305 0
M  V30 6264 C 582.597 -3.44104 -0.470078 0
M  V30 6265 C 581.551 -4.26623 0.343021 0
M  V30 6266 C 580.877 -5.31482 -0.585756 0
M  V30 6267 C 582.177 -4.98001 1.57456 0
M  V30 6268 H 583.871 -2.75855 1.1638 0
M  V30 6269 H 581.417 -1.3262 0.561069 0
M  V30 6270 H 583.37 -4.12682 -0.852752 0
M  V30 6271 H 582.094 -2.98112 -1.33404 0
M  V30 6272 H 580.753 -3.59707 0.707583 0
M  V30 6273 H 580.401 -4.81741 -1.44686 0
M  V30 6274 H 580.101 -5.87582 -0.0456494 0
M  V30 6275 H 581.625 -6.0292 -0.965375 0
M  V30 6276 H 583.039 -5.59201 1.26359 0
M  V30 6277 H 581.436 -5.63876 2.05339 0
M  V30 6278 H 582.506 -4.25253 2.32997 0
M  V30 6279 N 583.85 -0.624285 -1.44708 0
M  V30 6280 C 584.812 0.0749638 -2.29077 0
M  V30 6281 C 585.812 0.778965 -1.40673 0
M  V30 6282 O 587.003 0.624591 -1.62618 0
M  V30 6283 C 584.135 1.11663 -3.22094 0
M  V30 6284 H 585.327 -0.667013 -2.92388 0
M  V30 6285 H 582.88 -0.384098 -1.51507 0
M  V30 6286 H 583.615 1.88881 -2.63618 0
M  V30 6287 H 583.401 0.61583 -3.87234 0
M  V30 6288 H 584.891 1.60585 -3.8549 0
M  V30 6289 N 585.328 1.53329 -0.364422 0
M  V30 6290 C 586.574 2.01537 0.225969 0
M  V30 6291 C 586.907 1.25128 1.48515 0
M  V30 6292 O 586.182 0.344653 1.91422 0
M  V30 6293 C 586.465 3.56339 0.519092 0
M  V30 6294 C 586.318 4.43441 -0.753639 0
M  V30 6295 C 587.637 4.19833 1.32015 0
M  V30 6296 H 584.756 0.732573 0.0806548 0
M  V30 6297 H 587.398 1.83597 -0.489084 0
M  V30 6298 H 585.548 3.71756 1.12825 0
M  V30 6299 H 587.22 4.39823 -1.39116 0
M  V30 6300 H 585.463 4.11457 -1.37424 0
M  V30 6301 H 586.134 5.49699 -0.503517 0
M  V30 6302 H 588.61 4.08242 0.804859 0
M  V30 6303 H 587.486 5.28177 1.49399 0
M  V30 6304 H 587.747 3.75821 2.32832 0
M  V30 6305 N 586.806 0.0935595 1.57322 0
M  V30 6306 C 587.753 -0.865935 2.1394 0
M  V30 6307 C 588.723 -1.28083 1.05754 0
M  V30 6308 O 589.908 -1.36285 1.33533 0
M  V30 6309 C 587.048 -2.12023 2.72287 0
M  V30 6310 C 586.161 -1.756 3.94701 0
M  V30 6311 C 585.296 -2.95804 4.41218 0
M  V30 6312 C 584.335 -2.555 5.56225 0
M  V30 6313 N 583.472 -3.68534 5.97601 0
M  V30 6314 H 588.312 -0.376261 2.95615 0
M  V30 6315 H 585.849 -0.174052 1.46067 0
M  V30 6316 H 587.807 -2.85477 3.04235 0
M  V30 6317 H 586.437 -2.58492 1.93343 0
M  V30 6318 H 585.489 -0.921208 3.69077 0
M  V30 6319 H 586.801 -1.41964 4.78171 0
M  V30 6320 H 585.955 -3.77513 4.74941 0
M  V30 6321 H 584.694 -3.32649 3.56645 0
M  V30 6322 H 583.699 -1.72218 5.22131 0
M  V30 6323 H 584.924 -2.19801 6.42545 0
M  V30 6324 H 582.87 -4.051 5.15974 0
M  V30 6325 H 582.787 -3.38737 6.75865 0
M  V30 6326 H 584.055 -4.50757 6.35955 0
M  V30 6327 N 588.284 -1.56567 -0.180126 0
M  V30 6328 C 589.231 -1.95725 -1.22313 0
M  V30 6329 C 590.201 -0.819911 -1.44453 0
M  V30 6330 O 591.386 -1.07931 -1.57339 0
M  V30 6331 C 588.526 -2.31484 -2.55947 0
M  V30 6332 C 587.639 -3.58354 -2.4126 0
M  V30 6333 C 586.774 -3.83366 -3.67701 0
M  V30 6334 C 585.813 -5.03612 -3.47909 0
M  V30 6335 N 584.95 -5.24802 -4.66398 0
M  V30 6336 H 589.79 -2.84642 -0.882198 0
M  V30 6337 H 587.327 -1.4085 -0.42422 0
M  V30 6338 H 589.285 -2.50237 -3.33822 0
M  V30 6339 H 587.915 -1.45689 -2.88053 0
M  V30 6340 H 586.967 -3.47565 -1.54606 0
M  V30 6341 H 588.279 -4.46386 -2.22577 0
M  V30 6342 H 587.433 -4.02439 -4.54013 0
M  V30 6343 H 586.172 -2.93692 -3.89353 0
M  V30 6344 H 585.177 -4.84447 -2.59983 0
M  V30 6345 H 586.402 -5.94809 -3.27688 0
M  V30 6346 H 584.348 -4.38079 -4.88286 0
M  V30 6347 H 584.265 -6.07041 -4.50596 0
M  V30 6348 H 585.533 -5.48346 -5.54019 0
M  V30 6349 N 589.762 0.448376 -1.51087 0
M  V30 6350 C 590.725 1.52588 -1.71025 0
M  V30 6351 C 591.725 1.49958 -0.580442 0
M  V30 6352 O 592.915 1.52176 -0.847833 0
M  V30 6353 C 590.047 2.92163 -1.75652 0
M  V30 6354 H 591.24 1.36218 -2.67179 0
M  V30 6355 H 588.793 0.676313 -1.4091 0
M  V30 6356 H 589.528 3.13951 -0.812724 0
M  V30 6357 H 589.313 2.95478 -2.57751 0
M  V30 6358 H 590.803 3.70349 -1.92953 0
M  V30 6359 N 591.24 1.41047 0.703093 0
M  V30 6360 C 592.187 1.42302 1.81711 0
M  V30 6361 C 593.157 0.278336 1.63751 0
M  V30 6362 O 594.342 0.478266 1.84709 0
M  V30 6363 C 591.482 1.30362 3.19531 0
M  V30 6364 C 590.595 2.54638 3.48975 0
M  V30 6365 C 589.73 2.35047 4.76368 0
M  V30 6366 C 588.769 3.54837 4.98756 0
M  V30 6367 N 587.906 3.34363 6.1737 0
M  V30 6368 H 592.746 2.37516 1.79973 0
M  V30 6369 H 590.283 1.1795 0.878983 0
M  V30 6370 H 592.241 1.21443 3.99134 0
M  V30 6371 H 590.871 0.387602 3.20464 0
M  V30 6372 H 589.923 2.74037 2.63833 0
M  V30 6373 H 591.235 3.43766 3.61423 0
M  V30 6374 H 590.389 2.23552 5.64012 0
M  V30 6375 H 589.128 1.43363 4.66153 0
M  V30 6376 H 588.133 3.66795 4.09563 0
M  V30 6377 H 589.358 4.47464 5.10835 0
M  V30 6378 H 587.304 2.45373 6.08382 0
M  V30 6379 H 587.221 4.17063 6.30551 0
M  V30 6380 H 588.489 3.26626 7.07768 0
M  V30 6381 N 592.718 -0.936591 1.26751 0
M  V30 6382 C 593.964 -1.68625 1.13741 0
M  V30 6383 C 594.319 -1.898 -0.315221 0
M  V30 6384 O 593.612 -1.47088 -1.22783 0
M  V30 6385 C 593.806 -3.06099 1.84494 0
M  V30 6386 C 593.635 -2.98338 3.36488 0
M  V30 6387 C 592.405 -3.01104 4.05789 0
M  V30 6388 C 594.603 -2.78128 4.32608 0
M  V30 6389 N 592.585 -2.8369 5.4442 0
M  V30 6390 C 593.956 -2.69329 5.58446 0
M  V30 6391 C 596.011 -2.62946 4.22804 0
M  V30 6392 C 594.714 -2.46899 6.75598 0
M  V30 6393 C 596.74 -2.41892 5.39669 0
M  V30 6394 C 596.102 -2.33829 6.64457 0
M  V30 6395 H 592.201 -0.624227 0.471025 0
M  V30 6396 H 594.785 -1.10798 1.601 0
M  V30 6397 H 592.956 -3.62057 1.40604 0
M  V30 6398 H 594.688 -3.69951 1.64067 0
M  V30 6399 H 591.443 -3.10992 3.57185 0
M  V30 6400 H 591.867 -2.78138 6.17226 0
M  V30 6401 H 596.509 -2.67944 3.27056 0
M  V30 6402 H 594.227 -2.40642 7.71438 0
M  V30 6403 H 597.813 -2.31043 5.33957 0
M  V30 6404 H 596.693 -2.17754 7.53361 0
M  V30 6405 N 594.196 -1.08629 -1.14182 0
M  V30 6406 C 595.146 -0.687882 -2.17376 0
M  V30 6407 C 596.13 0.293632 -1.58198 0
M  V30 6408 O 597.322 0.105292 -1.76687 0
M  V30 6409 C 594.451 -0.101184 -3.43151 0
M  V30 6410 C 593.537 -1.10862 -4.09354 0
M  V30 6411 N 593.928 -2.29285 -4.50846 0
M  V30 6412 C 592.226 -0.944897 -4.35876 0
M  V30 6413 C 592.927 -2.93305 -5.02342 0
M  V30 6414 N 591.903 -2.20903 -4.96692 0
M  V30 6415 H 595.705 -1.58963 -2.472 0
M  V30 6416 H 593.219 -0.961329 -1.3089 0
M  V30 6417 H 595.216 0.202209 -4.16409 0
M  V30 6418 H 593.876 0.795522 -3.14804 0
M  V30 6419 H 594.887 -2.66927 -4.43813 0
M  V30 6420 H 591.564 -0.102186 -4.17375 0
M  V30 6421 H 592.954 -3.93932 -5.44304 0
M  V30 6422 N 595.674 1.31259 -0.872281 0
M  V30 6423 C 596.604 2.30929 -0.345554 0
M  V30 6424 C 597.585 1.60449 0.5648 0
M  V30 6425 O 598.77 1.8814 0.481335 0
M  V30 6426 C 595.9 3.44348 0.451823 0
M  V30 6427 C 594.854 4.26435 -0.365641 0
M  V30 6428 C 594.18 5.31785 0.557562 0
M  V30 6429 C 595.48 4.97159 -1.60095 0
M  V30 6430 H 597.174 2.75234 -1.17841 0
M  V30 6431 H 594.72 1.3232 -0.568094 0
M  V30 6432 H 596.673 4.13128 0.830854 0
M  V30 6433 H 595.397 2.98816 1.31821 0
M  V30 6434 H 594.056 3.59326 -0.726649 0
M  V30 6435 H 593.704 4.82502 1.4213 0
M  V30 6436 H 593.404 5.87598 0.0144878 0
M  V30 6437 H 594.928 6.03424 0.933387 0
M  V30 6438 H 596.342 5.58523 -1.29323 0
M  V30 6439 H 594.739 5.62779 -2.08327 0
M  V30 6440 H 595.809 4.24012 -2.35249 0
M  V30 6441 N 597.152 0.631951 1.44375 0
M  V30 6442 C 598.4 0.136497 2.01639 0
M  V30 6443 C 598.721 -1.24637 1.49969 0
M  V30 6444 O 597.991 -1.82827 0.70363 0
M  V30 6445 H 596.571 0.0474703 0.74549 0
M  V30 6446 H 599.233 0.818837 1.76865 0
M  V30 6447 H 598.329 0.104817 3.11924 0
M  V30 6448 N 598.631 -1.53133 0.372548 0
M  V30 6449 C 599.88 -2.00539 -0.216115 0
M  V30 6450 C 600.193 -1.26374 -1.49295 0
M  V30 6451 O 601.399 -1.64404 -2.16064 0
M  V30 6452 C 599.855 -3.57253 -0.435678 0
M  V30 6453 C 599.463 -4.40302 0.82693 0
M  V30 6454 C 601.207 -4.12995 -0.981618 0
M  V30 6455 C 599.114 -5.88583 0.576567 0
M  V30 6456 H 598.044 -0.749246 -0.084536 0
M  V30 6457 H 600.695 -1.76771 0.492364 0
M  V30 6458 H 599.077 -3.77202 -1.20559 0
M  V30 6459 H 600.251 -4.32124 1.60017 0
M  V30 6460 H 598.566 -3.95699 1.29659 0
M  V30 6461 H 601.163 -5.21418 -1.18436 0
M  V30 6462 H 601.506 -3.68027 -1.94581 0
M  V30 6463 H 602.039 -3.96871 -0.271696 0
M  V30 6464 H 598.778 -6.37841 1.51128 0
M  V30 6465 H 598.298 -5.99592 -0.158047 0
M  V30 6466 H 599.977 -6.46676 0.204722 0
M  V30 6467 N 600.109 -0.101901 -1.5727 0
M  V30 6468 C 601.525 0.254739 -1.57554 0
M  V30 6469 C 601.725 1.67937 -1.11352 0
M  V30 6470 O 600.781 2.39722 -0.793081 0
M  V30 6471 C 602.094 0.036975 -3.00677 0
M  V30 6472 C 603.642 0.104199 -3.12827 0
M  V30 6473 C 604.117 -0.0856565 -4.5792 0
M  V30 6474 N 605.608 -0.0310498 -4.6319 0
M  V30 6475 C 606.343 -0.153099 -5.73196 0
M  V30 6476 N 605.839 -0.330364 -6.92012 0
M  V30 6477 N 607.632 -0.0938854 -5.62022 0
M  V30 6478 H 599.783 -1.03263 -1.85609 0
M  V30 6479 H 602.046 -0.405251 -0.857016 0
M  V30 6480 H 601.752 -0.947254 -3.38703 0
M  V30 6481 H 601.626 0.776335 -3.69124 0
M  V30 6482 H 604.013 1.07894 -2.74669 0
M  V30 6483 H 604.094 -0.666762 -2.46957 0
M  V30 6484 H 603.738 -1.05729 -4.96773 0
M  V30 6485 H 603.668 0.705082 -5.21858 0
M  V30 6486 H 606.159 0.103141 -3.77759 0
M  V30 6487 H 606.472 -0.41482 -7.71686 0
M  V30 6488 H 604.817 -0.366119 -6.94035 0
M  V30 6489 H 608.008 0.0435168 -4.6808 0
M  V30 6490 H 608.181 -0.19245 -6.47714 0
M  V30 6491 N 601.587 1.56661 0.17182 0
M  V30 6492 C 602.812 1.86459 0.908165 0
M  V30 6493 C 603.237 0.688181 1.75059 0
M  V30 6494 O 602.595 -0.362753 1.77634 0
M  V30 6495 C 602.643 3.14669 1.76112 0
M  V30 6496 O 601.747 2.96858 2.86268 0
M  V30 6497 H 601.088 0.613318 0.254434 0
M  V30 6498 H 603.618 2.03892 0.170113 0
M  V30 6499 H 603.628 3.46061 2.16115 0
M  V30 6500 H 602.303 3.99905 1.14233 0
M  V30 6501 H 600.88 2.76819 2.49852 0
M  V30 6502 N 603.065 -0.440357 1.51323 0
M  V30 6503 C 603.997 -1.55254 1.68609 0
M  V30 6504 C 605.01 -1.52614 0.566812 0
M  V30 6505 O 606.199 -1.57445 0.841032 0
M  V30 6506 C 603.299 -2.94169 1.68279 0
M  V30 6507 C 602.472 -3.21346 2.96742 0
M  V30 6508 C 601.531 -4.3997 2.8864 0
M  V30 6509 O 600.557 -4.38771 3.62586 0
M  V30 6510 N 601.759 -5.43367 2.04285 0
M  V30 6511 H 604.524 -1.40831 2.6455 0
M  V30 6512 H 602.085 -0.629251 1.49171 0
M  V30 6513 H 604.077 -3.71543 1.60431 0
M  V30 6514 H 602.647 -3.02205 0.799441 0
M  V30 6515 H 601.867 -2.32299 3.18482 0
M  V30 6516 H 603.155 -3.3633 3.81785 0
M  V30 6517 H 602.553 -5.47176 1.43578 0
M  V30 6518 H 601.11 -6.19605 2.02318 0
M  V30 6519 N 604.543 -1.41418 -0.695603 0
M  V30 6520 C 605.768 -1.44329 -1.48942 0
M  V30 6521 C 606.193 -0.0501579 -1.88033 0
M  V30 6522 O 605.551 0.946598 -1.54626 0
M  V30 6523 C 605.599 -2.3578 -2.72837 0
M  V30 6524 O 604.703 -1.81482 -3.70322 0
M  V30 6525 H 604.044 -0.489838 -0.44828 0
M  V30 6526 H 606.574 -1.85878 -0.855014 0
M  V30 6527 H 606.584 -2.51654 -3.21145 0
M  V30 6528 H 605.259 -3.37005 -2.43722 0
M  V30 6529 H 603.836 -1.75058 -3.29255 0
M  V30 6530 N 606.021 0.929856 -1.27246 0
M  V30 6531 C 606.968 2.03017 -1.09785 0
M  V30 6532 C 607.938 1.661 0.000456744 0
M  V30 6533 O 609.123 1.90116 -0.161462 0
M  V30 6534 C 606.263 3.36878 -0.748816 0
M  V30 6535 C 605.376 3.86763 -1.92453 0
M  V30 6536 C 604.511 5.09061 -1.51758 0
M  V30 6537 C 603.55 5.51237 -2.66091 0
M  V30 6538 N 602.687 6.64732 -2.25999 0
M  V30 6539 H 607.527 2.17285 -2.03939 0
M  V30 6540 H 605.064 1.06448 -1.01524 0
M  V30 6541 H 607.022 4.13855 -0.527283 0
M  V30 6542 H 605.652 3.22424 0.155771 0
M  V30 6543 H 604.704 3.06086 -2.25867 0
M  V30 6544 H 606.016 4.13994 -2.78227 0
M  V30 6545 H 605.17 5.93532 -1.25716 0
M  V30 6546 H 603.909 4.83602 -0.630896 0
M  V30 6547 H 602.914 4.65316 -2.92849 0
M  V30 6548 H 604.139 5.78692 -3.55377 0
M  V30 6549 H 602.085 6.40935 -1.3978 0
M  V30 6550 H 602.002 6.91607 -3.05313 0
M  V30 6551 H 603.27 7.52549 -2.03199 0
M  V30 6552 N 607.499 1.09233 1.13605 0
M  V30 6553 C 608.91 0.846839 1.6639 0
M  V30 6554 C 609.261 -0.625031 1.85978 0
M  V30 6555 O 608.386 -1.48173 1.57714 0
M  V30 6556 C 608.981 1.5307 3.0225 0
M  V30 6557 C 607.54 1.33223 3.52035 0
M  V30 6558 C 606.687 1.58806 2.27323 0
M  V30 6559 H 609.638 1.25175 0.975541 0
M  V30 6560 H 609.659 0.96267 3.68121 0
M  V30 6561 H 609.171 2.60192 2.87961 0
M  V30 6562 H 607.272 0.282091 3.71531 0
M  V30 6563 H 607.385 2.0657 4.32279 0
M  V30 6564 H 605.749 1.01007 2.33815 0
M  V30 6565 H 606.532 2.67153 2.15602 0
M  V30 6566 N 608.977 -1.30795 0.87923 0
M  V30 6567 C 610.207 -2.00237 0.50881 0
M  V30 6568 C 610.615 -1.66115 -0.905682 0
M  V30 6569 O 609.958 -0.89138 -1.60624 0
M  V30 6570 C 610.02 -3.54508 0.597003 0
M  V30 6571 C 609.684 -4.12131 1.97477 0
M  V30 6572 C 610.681 -4.28552 2.94346 0
M  V30 6573 C 608.366 -4.47644 2.2786 0
M  V30 6574 C 610.36 -4.79689 4.19735 0
M  V30 6575 C 608.047 -4.98481 3.53496 0
M  V30 6576 C 609.045 -5.14456 4.49248 0
M  V30 6577 O 608.733 -5.64199 5.72656 0
M  V30 6578 H 608.465 -0.647026 0.195788 0
M  V30 6579 H 611.019 -1.67785 1.1848 0
M  V30 6580 H 609.249 -3.86461 -0.135945 0
M  V30 6581 H 610.938 -4.05198 0.238684 0
M  V30 6582 H 611.704 -4.01424 2.72183 0
M  V30 6583 H 607.583 -4.34481 1.54102 0
M  V30 6584 H 611.127 -4.92073 4.9448 0
M  V30 6585 H 607.024 -5.25044 3.75498 0
M  V30 6586 H 607.792 -5.82551 5.74957 0
M  V30 6587 N 610.455 -0.639598 -1.44038 0
M  V30 6588 C 611.732 -0.078012 -1.95444 0
M  V30 6589 C 612.112 1.39847 -1.58133 0
M  V30 6590 O 611.46 2.11714 -0.859614 0
M  V30 6591 C 611.67 -0.309832 -3.47622 0
M  V30 6592 C 613.018 -0.207521 -4.24093 0
M  V30 6593 O 614.042 -0.241653 -3.55379 0
M  V30 6594 O 612.901 -0.119641 -5.46369 0
M  V30 6595 H 609.995 0.0174534 -0.826816 0
M  V30 6596 H 612.541 -0.711891 -1.54046 0
M  V30 6597 H 611.313 -1.33401 -3.67858 0
M  V30 6598 H 610.936 0.357777 -3.95987 0
M  V30 6599 N 611.933 1.52934 -0.380664 0
M  V30 6600 C 613.182 2.00651 0.205477 0
M  V30 6601 C 613.495 1.27164 1.48623 0
M  V30 6602 O 614.701 1.65547 2.15189 0
M  V30 6603 C 613.157 3.57479 0.416726 0
M  V30 6604 C 612.765 4.39857 -0.850268 0
M  V30 6605 C 614.509 4.13509 0.959702 0
M  V30 6606 C 612.416 5.88269 -0.607773 0
M  V30 6607 H 611.346 0.749684 0.0805614 0
M  V30 6608 H 613.997 1.76508 -0.501732 0
M  V30 6609 H 612.379 3.77836 1.18557 0
M  V30 6610 H 613.553 4.31269 -1.62307 0
M  V30 6611 H 611.868 3.95005 -1.31756 0
M  V30 6612 H 614.465 5.22039 1.15669 0
M  V30 6613 H 614.808 3.69054 1.92626 0
M  V30 6614 H 615.341 3.9701 0.250645 0
M  V30 6615 H 612.08 6.3703 -1.54509 0
M  V30 6616 H 611.6 5.99667 0.126247 0
M  V30 6617 H 613.279 6.46558 -0.239014 0
M  V30 6618 N 613.412 0.11024 1.57214 0
M  V30 6619 C 614.345 -0.880224 2.1054 0
M  V30 6620 C 615.323 -1.26658 1.01964 0
M  V30 6621 O 616.507 -1.36917 1.29561 0
M  V30 6622 C 613.634 -2.17676 2.59489 0
M  V30 6623 C 612.68 -1.93914 3.79868 0
M  V30 6624 S 613.513 -1.16336 5.2271 0
M  V30 6625 C 614.669 -2.47188 5.75021 0
M  V30 6626 H 614.902 -0.426614 2.94223 0
M  V30 6627 H 612.435 -0.10336 1.54054 0
M  V30 6628 H 614.393 -2.92175 2.88347 0
M  V30 6629 H 613.054 -2.60156 1.76005 0
M  V30 6630 H 612.247 -2.8996 4.12236 0
M  V30 6631 H 611.849 -1.27539 3.51582 0
M  V30 6632 H 614.141 -3.43079 5.84211 0
M  V30 6633 H 615.084 -2.19377 6.7326 0
M  V30 6634 H 615.492 -2.56154 5.03036 0
M  V30 6635 N 614.89 -1.56749 -0.16351 0
M  V30 6636 C 615.853 -1.96121 -1.18613 0
M  V30 6637 C 616.853 -0.845765 -1.36761 0
M  V30 6638 O 618.043 -1.11268 -1.34033 0
M  V30 6639 C 615.175 -2.26282 -2.54969 0
M  V30 6640 H 616.368 -2.87639 -0.848764 0
M  V30 6641 H 613.921 -1.50928 -0.406251 0
M  V30 6642 H 614.656 -1.37504 -2.93706 0
M  V30 6643 H 614.441 -3.07595 -2.43162 0
M  V30 6644 H 615.931 -2.57638 -3.28653 0
M  V30 6645 N 616.368 0.432326 -1.51554 0
M  V30 6646 C 617.278 1.55023 -1.76082 0
M  V30 6647 C 618.294 1.61593 -0.645265 0
M  V30 6648 O 619.47 1.78742 -0.928086 0
M  V30 6649 C 616.535 2.90964 -1.88523 0
M  V30 6650 C 615.596 2.9447 -3.12388 0
M  V30 6651 C 614.829 4.23926 -3.24225 0
M  V30 6652 O 615.052 5.16576 -2.4188 0
M  V30 6653 O 613.986 4.33818 -4.17235 0
M  V30 6654 H 617.812 1.37238 -2.70923 0
M  V30 6655 H 615.397 0.615845 -1.36117 0
M  V30 6656 H 617.279 3.71633 -1.98662 0
M  V30 6657 H 615.954 3.08865 -0.9687 0
M  V30 6658 H 614.861 2.12737 -3.07723 0
M  V30 6659 H 616.194 2.81514 -4.03746 0
M  V30 6660 N 617.846 1.41785 0.688094 0
M  V30 6661 C 619.092 1.41753 1.4503 0
M  V30 6662 C 619.425 0.0290745 1.94178 0
M  V30 6663 O 618.7 -0.944456 1.7003 0
M  V30 6664 C 618.983 2.43069 2.65686 0
M  V30 6665 C 618.836 3.91053 2.22256 0
M  V30 6666 C 620.155 2.41543 3.67893 0
M  V30 6667 H 617.274 0.516202 0.526027 0
M  V30 6668 H 619.916 1.73111 0.783105 0
M  V30 6669 H 618.066 2.1646 3.2261 0
M  V30 6670 H 619.738 4.28594 1.70602 0
M  V30 6671 H 617.981 4.05559 1.53963 0
M  V30 6672 H 618.652 4.57501 3.08863 0
M  V30 6673 H 621.128 2.65175 3.20658 0
M  V30 6674 H 620.004 3.14434 4.49914 0
M  V30 6675 H 620.265 1.43666 4.18106 0
M  V30 6676 N 619.324 -0.923095 1.27737 0
M  V30 6677 C 620.554 -1.70277 1.17001 0
M  V30 6678 C 620.962 -1.87188 -0.275199 0
M  V30 6679 O 620.305 -1.39195 -1.19877 0
M  V30 6680 C 620.367 -3.11976 1.78637 0
M  V30 6681 C 620.031 -3.18386 3.27841 0
M  V30 6682 C 621.028 -3.00287 4.2441 0
M  V30 6683 C 618.713 -3.41198 3.68632 0
M  V30 6684 C 620.707 -3.04896 5.59747 0
M  V30 6685 C 618.394 -3.4544 5.04097 0
M  V30 6686 C 619.392 -3.27309 5.99465 0
M  V30 6687 O 619.08 -3.31295 7.32461 0
M  V30 6688 H 618.812 -0.539366 0.407505 0
M  V30 6689 H 621.366 -1.16446 1.69202 0
M  V30 6690 H 619.596 -3.67308 1.20919 0
M  V30 6691 H 621.285 -3.7193 1.6255 0
M  V30 6692 H 622.051 -2.825 3.94232 0
M  V30 6693 H 617.93 -3.54359 2.94873 0
M  V30 6694 H 621.474 -2.90662 6.34162 0
M  V30 6695 H 617.371 -3.62753 5.33929 0
M  V30 6696 H 618.139 -3.47719 7.40968 0
M  V30 6697 N 620.802 -1.09834 -1.13024 0
M  V30 6698 C 622.218 -0.828875 -1.36388 0
M  V30 6699 C 622.418 0.554756 -1.93713 0
M  V30 6700 O 621.474 1.30882 -2.15931 0
M  V30 6701 C 622.787 -1.92352 -2.3113 0
M  V30 6702 C 624.335 -1.95124 -2.44735 0
M  V30 6703 C 624.81 -3.03745 -3.42787 0
M  V30 6704 N 626.301 -3.03012 -3.5034 0
M  V30 6705 C 627.036 -3.83699 -4.26101 0
M  V30 6706 N 626.532 -4.74306 -5.04981 0
M  V30 6707 N 628.325 -3.71942 -4.21445 0
M  V30 6708 H 620.476 -1.99029 -0.74169 0
M  V30 6709 H 622.739 -0.864557 -0.388903 0
M  V30 6710 H 622.445 -2.91906 -1.96172 0
M  V30 6711 H 622.319 -1.80536 -3.3119 0
M  V30 6712 H 624.706 -0.962069 -2.78977 0
M  V30 6713 H 624.787 -2.11018 -1.44586 0
M  V30 6714 H 624.431 -4.02878 -3.09276 0
M  V30 6715 H 624.361 -2.85094 -4.42752 0
M  V30 6716 H 626.852 -2.37352 -2.94062 0
M  V30 6717 H 627.165 -5.32446 -5.60108 0
M  V30 6718 H 625.51 -4.78339 -5.04199 0
M  V30 6719 H 628.701 -3.00513 -3.589 0
M  V30 6720 H 628.874 -4.35062 -4.80235 0
M  V30 6721 N 622.28 1.30327 -0.886154 0
M  V30 6722 C 623.243 2.26376 -0.358687 0
M  V30 6723 C 624.243 1.52845 0.499498 0
M  V30 6724 O 625.433 1.71483 0.306485 0
M  V30 6725 C 622.565 3.37379 0.488726 0
M  V30 6726 H 623.758 2.74547 -1.20681 0
M  V30 6727 H 621.311 1.41536 -0.663113 0
M  V30 6728 H 622.046 2.94526 1.35739 0
M  V30 6729 H 621.831 3.91897 -0.126003 0
M  V30 6730 H 623.321 4.08868 0.84952 0
M  V30 6731 N 623.758 0.647228 1.43697 0
M  V30 6732 C 624.691 -0.097646 2.27991 0
M  V30 6733 C 625.669 -0.83571 1.3948 0
M  V30 6734 O 626.853 -0.836509 1.68922 0
M  V30 6735 C 623.98 -1.14484 3.18765 0
M  V30 6736 C 623.026 -0.505503 4.23494 0
M  V30 6737 S 623.859 0.716471 5.30685 0
M  V30 6738 C 625.015 -0.330339 6.25028 0
M  V30 6739 H 625.248 0.617417 2.90818 0
M  V30 6740 H 622.781 0.435881 1.4812 0
M  V30 6741 H 624.739 -1.74403 3.7161 0
M  V30 6742 H 623.4 -1.83219 2.55127 0
M  V30 6743 H 622.593 -1.29473 4.87086 0
M  V30 6744 H 622.195 0.0194377 3.73995 0
M  V30 6745 H 624.487 -1.19828 6.66819 0
M  V30 6746 H 625.43 0.270409 7.07583 0
M  V30 6747 H 625.838 -0.663459 5.60588 0
M  V30 6748 N 625.236 -1.5273 0.388769 0
M  V30 6749 C 626.183 -2.26437 -0.446639 0
M  V30 6750 C 627.153 -1.28025 -1.05824 0
M  V30 6751 O 628.338 -1.56852 -1.08637 0
M  V30 6752 C 625.478 -3.07407 -1.56828 0
M  V30 6753 C 624.591 -4.20747 -0.979589 0
M  V30 6754 C 623.726 -4.89113 -2.07224 0
M  V30 6755 C 622.765 -5.94447 -1.45942 0
M  V30 6756 N 621.902 -6.56411 -2.49135 0
M  V30 6757 H 626.742 -2.97404 0.18837 0
M  V30 6758 H 624.279 -1.46727 0.104725 0
M  V30 6759 H 626.237 -3.52642 -2.22934 0
M  V30 6760 H 624.867 -2.3865 -2.17361 0
M  V30 6761 H 623.919 -3.7983 -0.208151 0
M  V30 6762 H 625.231 -4.9637 -0.491747 0
M  V30 6763 H 624.385 -5.3765 -2.81101 0
M  V30 6764 H 623.124 -4.13013 -2.59368 0
M  V30 6765 H 622.129 -5.4525 -0.705894 0
M  V30 6766 H 623.354 -6.7248 -0.945932 0
M  V30 6767 H 621.3 -5.83152 -3.00449 0
M  V30 6768 H 621.217 -7.27645 -2.05105 0
M  V30 6769 H 622.485 -7.09592 -3.22644 0
M  V30 6770 N 626.714 -0.118576 -1.57153 0
M  V30 6771 C 627.646 0.862247 -2.12363 0
M  V30 6772 C 628.659 1.23025 -1.06625 0
M  V30 6773 O 629.848 1.17927 -1.33998 0
M  V30 6774 C 626.948 2.16425 -2.60794 0
M  V30 6775 C 626.121 1.96801 -3.90626 0
M  V30 6776 C 625.18 3.10726 -4.2466 0
M  V30 6777 O 624.206 2.83659 -4.93484 0
M  V30 6778 N 625.408 4.37147 -3.81946 0
M  V30 6779 H 628.173 0.390564 -2.97144 0
M  V30 6780 H 625.734 0.0658591 -1.61766 0
M  V30 6781 H 627.726 2.91633 -2.80593 0
M  V30 6782 H 626.296 2.54943 -1.80895 0
M  V30 6783 H 625.516 1.05787 -3.7974 0
M  V30 6784 H 626.804 1.80993 -4.7552 0
M  V30 6785 H 626.202 4.62014 -3.26435 0
M  V30 6786 H 624.759 5.09229 -4.06853 0
M  V30 6787 N 628.193 1.56834 0.155195 0
M  V30 6788 C 629.123 2.00678 1.19376 0
M  V30 6789 C 630.104 0.884973 1.45266 0
M  V30 6790 O 631.289 1.1522 1.56326 0
M  V30 6791 C 628.419 2.38042 2.5289 0
M  V30 6792 C 627.373 3.53332 2.41538 0
M  V30 6793 C 626.699 3.76485 3.79688 0
M  V30 6794 C 627.999 4.86265 1.9064 0
M  V30 6795 H 629.693 2.87688 0.829232 0
M  V30 6796 H 627.239 1.38407 0.397445 0
M  V30 6797 H 629.192 2.67314 3.25763 0
M  V30 6798 H 627.916 1.4796 2.91162 0
M  V30 6799 H 626.575 3.24213 1.71117 0
M  V30 6800 H 626.223 2.83667 4.15382 0
M  V30 6801 H 625.923 4.54068 3.72956 0
M  V30 6802 H 627.447 4.08174 4.54122 0
M  V30 6803 H 628.861 5.14308 2.53299 0
M  V30 6804 H 627.258 5.67597 1.94818 0
M  V30 6805 H 628.328 4.77184 0.861596 0
M  V30 6806 N 629.671 -0.424282 1.51781 0
M  V30 6807 C 630.948 -1.18464 1.55646 0
M  V30 6808 C 631.328 -2.08529 0.328438 0
M  V30 6809 O 630.676 -2.17969 -0.685693 0
M  V30 6810 C 630.886 -1.97514 2.87731 0
M  V30 6811 C 632.234 -2.54106 3.40169 0
M  V30 6812 O 633.258 -2.07711 2.89369 0
M  V30 6813 O 632.117 -3.38759 4.28841 0
M  V30 6814 H 629.211 -0.540055 0.626314 0
M  V30 6815 H 631.757 -0.432291 1.64102 0
M  V30 6816 H 630.529 -1.31444 3.68562 0
M  V30 6817 H 630.152 -2.79787 2.82498 0
M  V30 6818 N 631.149 -1.42148 -0.680565 0
M  V30 6819 C 632.396 -1.4231 -1.44063 0
M  V30 6820 C 632.724 -0.037488 -1.94464 0
M  V30 6821 O 631.979 0.953184 -1.70918 0
M  V30 6822 C 632.278 -2.38945 -2.65782 0
M  V30 6823 C 631.944 -3.85455 -2.33956 0
M  V30 6824 C 630.606 -4.25364 -2.24987 0
M  V30 6825 C 632.958 -4.77895 -2.08004 0
M  V30 6826 C 630.286 -5.55701 -1.88184 0
M  V30 6827 C 632.638 -6.08568 -1.72706 0
M  V30 6828 C 631.302 -6.47482 -1.62244 0
M  V30 6829 H 630.572 -0.520748 -0.527164 0
M  V30 6830 H 633.219 -1.7505 -0.776524 0
M  V30 6831 H 631.524 -1.99511 -3.37198 0
M  V30 6832 H 633.221 -2.36336 -3.23954 0
M  V30 6833 H 629.811 -3.53855 -2.41836 0
M  V30 6834 H 633.995 -4.47854 -2.1387 0
M  V30 6835 H 629.251 -5.84718 -1.78648 0
M  V30 6836 H 633.425 -6.79688 -1.5165 0
M  V30 6837 H 631.052 -7.48387 -1.33496 0
M  V30 6838 N 632.627 0.916307 -1.28225 0
M  V30 6839 C 633.537 2.05165 -1.13775 0
M  V30 6840 C 634.553 1.73879 -0.0649418 0
M  V30 6841 O 635.729 1.99531 -0.273722 0
M  V30 6842 C 632.794 3.37385 -0.798267 0
M  V30 6843 C 631.855 3.82296 -1.95316 0
M  V30 6844 C 631.088 5.08206 -1.62978 0
M  V30 6845 O 631.311 5.6781 -0.542948 0
M  V30 6846 O 630.245 5.48768 -2.47261 0
M  V30 6847 H 634.071 2.20273 -2.09078 0
M  V30 6848 H 631.656 1.0373 -1.07519 0
M  V30 6849 H 633.538 4.16773 -0.62278 0
M  V30 6850 H 632.213 3.23458 0.125139 0
M  V30 6851 H 631.12 3.03746 -2.18378 0
M  V30 6852 H 632.453 4.00782 -2.85718 0
M  V30 6853 N 634.105 1.10431 1.1244 0
M  V30 6854 C 635.351 0.857864 1.84424 0
M  V30 6855 C 635.706 -0.609995 1.82474 0
M  V30 6856 O 634.999 -1.44401 1.25932 0
M  V30 6857 C 635.193 1.34022 3.3132 0
M  V30 6858 C 635.022 2.85344 3.47576 0
M  V30 6859 C 633.792 3.53345 3.61213 0
M  V30 6860 C 635.99 3.83446 3.42744 0
M  V30 6861 N 633.972 4.92989 3.65834 0
M  V30 6862 C 635.343 5.09101 3.5386 0
M  V30 6863 C 637.398 3.76154 3.26209 0
M  V30 6864 C 636.101 6.28323 3.50146 0
M  V30 6865 C 638.127 4.94876 3.23809 0
M  V30 6866 C 637.489 6.19378 3.35485 0
M  V30 6867 H 633.588 0.366917 0.690577 0
M  V30 6868 H 636.172 1.40668 1.34613 0
M  V30 6869 H 634.343 0.818727 3.79673 0
M  V30 6870 H 636.075 1.03801 3.91162 0
M  V30 6871 H 632.83 3.03791 3.63329 0
M  V30 6872 H 633.254 5.65762 3.71809 0
M  V30 6873 H 637.896 2.80813 3.16076 0
M  V30 6874 H 635.614 7.23953 3.5905 0
M  V30 6875 H 639.2 4.90942 3.12197 0
M  V30 6876 H 638.08 7.09704 3.33602 0
M  V30 6877 N 635.583 -1.29855 0.893053 0
M  V30 6878 C 636.53 -2.27909 0.364161 0
M  V30 6879 C 637.5 -1.56726 -0.550093 0
M  V30 6880 O 638.685 -1.84747 -0.47677 0
M  V30 6881 C 635.825 -3.42678 -0.408178 0
M  V30 6882 C 634.938 -4.28659 0.536212 0
M  V30 6883 C 634.073 -5.30599 -0.252521 0
M  V30 6884 C 633.112 -6.08234 0.686822 0
M  V30 6885 N 632.249 -7.02068 -0.0670902 0
M  V30 6886 H 637.089 -2.72531 1.20544 0
M  V30 6887 H 634.626 -1.34047 0.605779 0
M  V30 6888 H 636.584 -4.07986 -0.871962 0
M  V30 6889 H 635.214 -2.99103 -1.21397 0
M  V30 6890 H 634.266 -3.63584 1.1185 0
M  V30 6891 H 635.578 -4.8274 1.25552 0
M  V30 6892 H 634.732 -6.01694 -0.777801 0
M  V30 6893 H 633.471 -4.77233 -1.005 0
M  V30 6894 H 632.476 -5.3601 1.22366 0
M  V30 6895 H 633.701 -6.63689 1.43852 0
M  V30 6896 H 631.647 -6.5108 -0.801955 0
M  V30 6897 H 631.564 -7.53675 0.59243 0
M  V30 6898 H 632.832 -7.77392 -0.572851 0
M  V30 6899 N 637.061 -0.65484 -1.43351 0
M  V30 6900 C 638.307 -0.169142 -2.02093 0
M  V30 6901 C 638.64 1.21431 -1.51553 0
M  V30 6902 O 637.915 1.81105 -0.709317 0
M  V30 6903 C 638.198 -0.181775 -3.59641 0
M  V30 6904 C 638.051 -1.59926 -4.20409 0
M  V30 6905 C 639.37 0.480945 -4.37464 0
M  V30 6906 H 636.489 -0.0629371 -0.734308 0
M  V30 6907 H 639.131 -0.835833 -1.70628 0
M  V30 6908 H 637.281 0.385918 -3.86578 0
M  V30 6909 H 638.953 -2.21766 -4.04497 0
M  V30 6910 H 637.196 -2.14605 -3.76998 0
M  V30 6911 H 637.867 -1.55994 -5.295 0
M  V30 6912 H 640.343 -0.00208273 -4.161 0
M  V30 6913 H 639.219 0.441384 -5.47122 0
M  V30 6914 H 639.48 1.55533 -4.13838 0
M  V30 6915 N 638.539 1.52521 -0.396863 0
M  V30 6916 C 639.785 2.01971 0.183169 0
M  V30 6917 C 640.118 1.2825 1.45827 0
M  V30 6918 O 639.393 0.385179 1.90648 0
M  V30 6919 C 639.676 3.5736 0.443391 0
M  V30 6920 C 639.529 4.41743 -0.84753 0
M  V30 6921 C 640.848 4.22539 1.2308 0
M  V30 6922 H 637.967 0.734119 0.0650976 0
M  V30 6923 H 640.609 1.82519 -0.527918 0
M  V30 6924 H 638.759 3.74066 1.04914 0
M  V30 6925 H 640.431 4.36773 -1.48414 0
M  V30 6926 H 638.674 4.0845 -1.4612 0
M  V30 6927 H 639.345 5.48507 -0.620003 0
M  V30 6928 H 641.821 4.09857 0.718084 0
M  V30 6929 H 640.697 5.31227 1.38162 0
M  V30 6930 H 640.958 3.80675 2.24808 0
M  V30 6931 N 640.017 0.126909 1.57088 0
M  V30 6932 C 640.965 -0.837618 2.16995 0
M  V30 6933 C 641.959 -1.26974 1.12133 0
M  V30 6934 O 643.165 -1.24056 1.30423 0
M  V30 6935 H 639.54 -0.288256 0.694559 0
M  V30 6936 H 641.511 -0.307957 2.96807 0
M  V30 6937 C 640.26 -2.07474 2.79016 0
M  V30 6938 H 639.583 -1.75117 3.59408 0
M  V30 6939 H 641.023 -2.72949 3.24461 0
M  V30 6940 C 639.482 -2.86967 1.76498 0
M  V30 6941 O 640.012 -3.82625 1.22316 0
M  V30 6942 N 638.218 -2.51111 1.46258 0
M  V30 6943 H 637.765 -1.73389 1.90509 0
M  V30 6944 H 637.723 -3.04594 0.779085 0
M  V30 6945 N 641.495 -1.56914 -0.146875 0
M  V30 6946 C 642.458 -1.97368 -1.16526 0
M  V30 6947 C 643.458 -0.860223 -1.35856 0
M  V30 6948 O 644.648 -1.12684 -1.32846 0
M  V30 6949 C 641.78 -2.28974 -2.52555 0
M  V30 6950 H 642.973 -2.88523 -0.818209 0
M  V30 6951 H 640.526 -1.5135 -0.390221 0
M  V30 6952 H 641.261 -1.40611 -2.92231 0
M  V30 6953 H 641.046 -3.10157 -2.39886 0
M  V30 6954 H 642.536 -2.61109 -3.25902 0
M  V30 6955 N 642.974 0.416227 -1.52004 0
M  V30 6956 C 644.204 1.18401 -1.69307 0
M  V30 6957 C 644.612 1.84943 -0.399072 0
M  V30 6958 O 643.955 1.72406 0.634177 0
M  V30 6959 C 644.017 2.29465 -2.76742 0
M  V30 6960 C 643.681 1.83117 -4.18709 0
M  V30 6961 C 644.678 1.32286 -5.02789 0
M  V30 6962 C 642.363 1.90167 -4.64911 0
M  V30 6963 C 644.357 0.891178 -6.31139 0
M  V30 6964 C 642.044 1.4661 -5.93253 0
M  V30 6965 C 643.042 0.961696 -6.76196 0
M  V30 6966 O 642.73 0.532388 -8.02135 0
M  V30 6967 H 642.462 0.362098 -0.570843 0
M  V30 6968 H 645.016 0.496764 -1.99302 0
M  V30 6969 H 643.246 3.01531 -2.42107 0
M  V30 6970 H 644.935 2.91252 -2.82713 0
M  V30 6971 H 645.701 1.26218 -4.68288 0
M  V30 6972 H 641.58 2.28371 -4.00459 0
M  V30 6973 H 645.124 0.496788 -6.95829 0
M  V30 6974 H 641.021 1.52355 -6.27263 0
M  V30 6975 H 641.789 0.656339 -8.15864 0
M  V30 6976 N 644.452 1.42507 0.673017 0
M  V30 6977 C 645.402 1.4258 1.77919 0
M  V30 6978 C 646.386 0.296885 1.58137 0
M  V30 6979 O 647.578 0.539243 1.68586 0
M  V30 6980 C 644.707 1.33238 3.1639 0
M  V30 6981 C 643.793 2.51081 3.41788 0
M  V30 6982 N 644.184 3.76498 3.37761 0
M  V30 6983 C 642.482 2.4538 3.72431 0
M  V30 6984 C 643.183 4.54784 3.62693 0
M  V30 6985 N 642.159 3.8522 3.83544 0
M  V30 6986 H 645.961 2.37442 1.73201 0
M  V30 6987 H 643.475 1.36881 0.873924 0
M  V30 6988 H 645.472 1.31372 3.9566 0
M  V30 6989 H 644.132 0.393794 3.22303 0
M  V30 6990 H 645.143 4.09068 3.17622 0
M  V30 6991 H 641.82 1.60109 3.85579 0
M  V30 6992 H 643.21 5.63774 3.65525 0
M  V30 6993 N 645.93 -0.909495 1.28709 0
M  V30 6994 C 646.86 -2.0291 1.15542 0
M  V30 6995 C 647.841 -1.7002 0.0521017 0
M  V30 6996 O 649.026 -1.92835 0.229849 0
M  V30 6997 C 646.156 -3.37458 0.820935 0
M  V30 6998 C 645.11 -3.84524 1.87949 0
M  V30 6999 C 644.436 -5.16086 1.39854 0
M  V30 7000 C 645.736 -4.05918 3.28676 0
M  V30 7001 H 647.43 -2.14183 2.09203 0
M  V30 7002 H 644.976 -1.02913 1.00722 0
M  V30 7003 H 646.929 -4.1528 0.715571 0
M  V30 7004 H 645.653 -3.26249 -0.151374 0
M  V30 7005 H 644.312 -3.08911 1.97408 0
M  V30 7006 H 643.96 -5.01284 0.41518 0
M  V30 7007 H 643.66 -5.48547 2.1064 0
M  V30 7008 H 645.184 -5.96459 1.30649 0
M  V30 7009 H 646.598 -4.74252 3.22115 0
M  V30 7010 H 644.995 -4.49717 3.97334 0
M  V30 7011 H 646.065 -3.10583 3.72379 0
M  V30 7012 N 647.408 -1.11026 -1.11852 0
M  V30 7013 C 648.824 -0.843294 -1.35502 0
M  V30 7014 C 649.024 0.534179 -1.9429 0
M  V30 7015 O 648.08 1.28585 -2.17307 0
M  V30 7016 C 649.393 -1.94793 -2.29077 0
M  V30 7017 C 650.941 -1.97709 -2.42652 0
M  V30 7018 C 651.416 -3.07364 -3.39546 0
M  V30 7019 N 652.907 -3.0671 -3.47107 0
M  V30 7020 C 653.642 -3.88197 -4.22008 0
M  V30 7021 N 653.138 -4.79635 -4.99922 0
M  V30 7022 N 654.931 -3.76391 -4.17476 0
M  V30 7023 H 647.082 -1.99805 -0.720538 0
M  V30 7024 H 649.345 -0.868633 -0.379711 0
M  V30 7025 H 649.051 -2.93971 -1.93065 0
M  V30 7026 H 648.925 -1.84039 -3.29256 0
M  V30 7027 H 651.312 -0.991604 -2.77941 0
M  V30 7028 H 651.393 -2.1254 -1.4234 0
M  V30 7029 H 651.037 -4.06136 -3.04985 0
M  V30 7030 H 650.967 -2.89774 -4.39703 0
M  V30 7031 H 653.458 -2.40457 -2.91528 0
M  V30 7032 H 653.771 -5.38357 -5.54429 0
M  V30 7033 H 652.116 -4.8366 -4.99097 0
M  V30 7034 H 655.307 -3.04303 -3.55693 0
M  V30 7035 H 655.48 -4.40131 -4.75593 0
M  V30 7036 N 648.886 1.2938 -0.899927 0
M  V30 7037 C 650.132 1.9584 -0.526742 0
M  V30 7038 C 650.465 1.70774 0.924651 0
M  V30 7039 O 649.74 1.02084 1.65557 0
M  V30 7040 C 650.023 3.50638 -0.820062 0
M  V30 7041 C 649.876 3.85161 -2.32317 0
M  V30 7042 C 651.195 4.3903 -0.30671 0
M  V30 7043 H 648.314 0.711322 -0.192848 0
M  V30 7044 H 650.956 1.52992 -1.12665 0
M  V30 7045 H 649.106 3.87265 -0.309491 0
M  V30 7046 H 650.778 3.58477 -2.9033 0
M  V30 7047 H 649.021 3.32696 -2.78381 0
M  V30 7048 H 649.692 4.93204 -2.47898 0
M  V30 7049 H 652.168 4.09396 -0.743908 0
M  V30 7050 H 651.044 5.46226 -0.541144 0
M  V30 7051 H 651.305 4.34937 0.792588 0
M  V30 7052 N 650.364 0.662433 1.43002 0
M  V30 7053 C 651.78 0.330835 1.56133 0
M  V30 7054 C 651.98 -1.16454 1.64441 0
M  V30 7055 O 651.036 -1.94964 1.60453 0
M  V30 7056 C 652.349 1.05029 2.81761 0
M  V30 7057 C 653.897 1.03142 2.95518 0
M  V30 7058 C 654.372 1.73196 4.2399 0
M  V30 7059 N 655.863 1.70004 4.30875 0
M  V30 7060 C 656.598 2.21074 5.29069 0
M  V30 7061 N 656.094 2.80473 6.33488 0
M  V30 7062 N 657.887 2.1152 5.20784 0
M  V30 7063 H 650.038 1.63272 1.35853 0
M  V30 7064 H 652.301 0.687149 0.653092 0
M  V30 7065 H 652.007 2.10542 2.81718 0
M  V30 7066 H 651.881 0.607664 3.72273 0
M  V30 7067 H 654.268 -0.0153339 2.95096 0
M  V30 7068 H 654.349 1.51282 2.0627 0
M  V30 7069 H 653.993 2.77833 4.25172 0
M  V30 7070 H 653.923 1.22515 5.1215 0
M  V30 7071 H 656.414 1.26667 3.56039 0
M  V30 7072 H 656.727 3.17094 7.04749 0
M  V30 7073 H 655.072 2.84538 6.34085 0
M  V30 7074 H 658.263 1.64814 4.38126 0
M  V30 7075 H 658.436 2.51629 5.97149 0
M  V30 7076 N 651.842 -1.52309 0.404946 0
M  V30 7077 C 653.258 -1.59503 0.0556255 0
M  V30 7078 C 653.458 -1.41805 -1.43156 0
M  V30 7079 O 652.514 -1.2429 -2.19792 0
M  V30 7080 C 653.827 -2.95687 0.546801 0
M  V30 7081 C 655.375 -3.08909 0.504413 0
M  V30 7082 C 655.85 -4.47566 0.97203 0
M  V30 7083 N 657.341 -4.53795 0.928679 0
M  V30 7084 C 658.076 -5.59346 1.26174 0
M  V30 7085 N 657.572 -6.72469 1.66604 0
M  V30 7086 N 659.365 -5.49532 1.18198 0
M  V30 7087 H 651.516 -1.6206 1.37296 0
M  V30 7088 H 653.779 -0.762161 0.563751 0
M  V30 7089 H 653.485 -3.13905 1.58609 0
M  V30 7090 H 653.359 -3.77172 -0.0457905 0
M  V30 7091 H 655.746 -2.90378 -0.525819 0
M  V30 7092 H 655.827 -2.2934 1.13301 0
M  V30 7093 H 655.471 -4.6684 2.00057 0
M  V30 7094 H 655.401 -5.25625 0.320292 0
M  V30 7095 H 657.892 -3.72588 0.631369 0
M  V30 7096 H 658.205 -7.48993 1.9034 0
M  V30 7097 H 656.55 -6.73761 1.70504 0
M  V30 7098 H 659.741 -4.60038 0.865011 0
M  V30 7099 H 659.914 -6.31687 1.44485 0
M  V30 7100 N 653.32 -0.135238 -1.57019 0
M  V30 7101 C 654.267 0.808908 -2.1616 0
M  V30 7102 C 655.237 1.25234 -1.09113 0
M  V30 7103 O 656.422 1.32697 -1.37099 0
M  V30 7104 C 653.562 2.04729 -2.77813 0
M  V30 7105 C 652.675 1.65074 -3.99218 0
M  V30 7106 C 651.81 2.84002 -4.48906 0
M  V30 7107 C 650.849 2.40663 -5.62803 0
M  V30 7108 N 649.986 3.5256 -6.07162 0
M  V30 7109 H 654.826 0.297751 -2.96509 0
M  V30 7110 H 652.363 0.135264 -1.46477 0
M  V30 7111 H 654.321 2.7731 -3.11697 0
M  V30 7112 H 652.951 2.53275 -2.00128 0
M  V30 7113 H 652.003 0.823029 -3.7139 0
M  V30 7114 H 653.315 1.29236 -4.81767 0
M  V30 7115 H 652.469 3.64788 -4.84783 0
M  V30 7116 H 651.208 3.23076 -3.65339 0
M  V30 7117 H 650.213 1.58314 -5.26514 0
M  V30 7118 H 651.438 2.02687 -6.48147 0
M  V30 7119 H 649.384 3.91278 -5.26534 0
M  V30 7120 H 649.301 3.20699 -6.84608 0
M  V30 7121 H 650.569 4.33738 -6.47682 0
M  V30 7122 N 654.798 1.5699 0.138552 0
M  V30 7123 C 655.746 1.99858 1.18994 0
M  V30 7124 C 656.74 0.89231 1.43994 0
M  V30 7125 O 657.946 1.0775 1.44187 0
M  V30 7126 H 654.321 0.636325 0.400743 0
M  V30 7127 H 656.292 2.87427 0.801755 0
M  V30 7128 C 655.041 2.40235 2.51361 0
M  V30 7129 H 654.364 3.24917 2.32957 0
M  V30 7130 H 655.804 2.74045 3.23535 0
M  V30 7131 C 654.263 1.25829 3.1252 0
M  V30 7132 O 654.793 0.563604 3.97727 0
M  V30 7133 N 652.999 1.02036 2.72097 0
M  V30 7134 H 652.546 1.58705 2.02905 0
M  V30 7135 H 652.504 0.256796 3.1335 0
M  V30 7136 N 656.276 -0.40816 1.52223 0
M  V30 7137 C 657.687 -0.986929 1.58482 0
M  V30 7138 C 658.038 -1.91521 0.425917 0
M  V30 7139 O 657.163 -2.11593 -0.453593 0
M  V30 7140 C 657.758 -1.7967 2.87235 0
M  V30 7141 C 656.317 -2.32549 2.9597 0
M  V30 7142 C 655.464 -1.12558 2.53428 0
M  V30 7143 H 658.415 -0.188362 1.57578 0
M  V30 7144 H 658.436 -2.65417 2.72642 0
M  V30 7145 H 657.948 -1.12082 3.71563 0
M  V30 7146 H 656.049 -3.03505 2.16137 0
M  V30 7147 H 656.162 -2.63348 4.00231 0
M  V30 7148 H 654.526 -1.47984 2.07299 0
M  V30 7149 H 655.309 -0.465351 3.40131 0
M  V30 7150 N 657.755 -1.42862 -0.66545 0
M  V30 7151 C 659.001 -1.44043 -1.42757 0
M  V30 7152 C 659.334 -0.0599629 -1.94107 0
M  V30 7153 O 658.609 0.917286 -1.71511 0
M  V30 7154 C 658.892 -2.47266 -2.61786 0
M  V30 7155 C 658.745 -3.94539 -2.16007 0
M  V30 7156 C 660.064 -2.47365 -3.64003 0
M  V30 7157 H 657.183 -0.524506 -0.517748 0
M  V30 7158 H 659.825 -1.74335 -0.755466 0
M  V30 7159 H 657.975 -2.21565 -3.19126 0
M  V30 7160 H 659.647 -4.31254 -1.63762 0
M  V30 7161 H 657.89 -4.07957 -1.47491 0
M  V30 7162 H 658.561 -4.62357 -3.01546 0
M  V30 7163 H 661.037 -2.70243 -3.16399 0
M  V30 7164 H 659.913 -3.21552 -4.44854 0
M  V30 7165 H 660.174 -1.50299 -4.15767 0
M  V30 7166 N 659.233 0.902656 -1.29189 0
M  V30 7167 C 660.461 1.68639 -1.19869 0
M  V30 7168 C 660.876 1.87254 0.241121 0
M  V30 7169 O 660.233 1.40745 1.16177 0
M  V30 7170 C 660.284 3.07251 -1.90471 0
M  V30 7171 O 660.005 2.89488 -3.28829 0
M  V30 7172 C 661.506 4.01653 -1.8759 0
M  V30 7173 H 658.726 0.526802 -0.415596 0
M  V30 7174 H 661.27 1.12901 -1.7051 0
M  V30 7175 H 659.425 3.59774 -1.43672 0
M  V30 7176 H 659.839 3.77296 -3.64346 0
M  V30 7177 H 661.313 4.96339 -2.4156 0
M  V30 7178 H 661.79 4.30881 -0.850756 0
M  V30 7179 H 662.396 3.55061 -2.34119 0
M  V30 7180 N 660.711 1.11618 1.11262 0
M  V30 7181 C 661.959 0.864469 1.82678 0
M  V30 7182 C 662.28 -0.611564 1.85162 0
M  V30 7183 O 661.55 -1.44429 1.32352 0
M  V30 7184 H 660.13 0.316821 0.676486 0
M  V30 7185 H 662.792 1.40894 1.34666 0
M  V30 7186 H 661.888 1.23832 2.86482 0
M  V30 7187 N 662.189 -1.289 0.906776 0
M  V30 7188 C 663.137 -2.29477 0.379873 0
M  V30 7189 C 664.131 -1.61068 -0.524747 0
M  V30 7190 O 665.337 -1.75344 -0.406765 0
M  V30 7191 H 661.712 -0.744742 0.10423 0
M  V30 7192 H 663.683 -2.71353 1.24137 0
M  V30 7193 C 662.432 -3.45713 -0.371154 0
M  V30 7194 H 661.755 -3.98551 0.315716 0
M  V30 7195 H 663.195 -4.18105 -0.704581 0
M  V30 7196 C 661.654 -2.9774 -1.57646 0
M  V30 7197 O 662.184 -2.99618 -2.67567 0
M  V30 7198 N 660.39 -2.53485 -1.42105 0
M  V30 7199 H 659.937 -2.52156 -0.526783 0
M  V30 7200 H 659.895 -2.21747 -2.22881 0
M  V30 7201 N 663.667 -0.670007 -1.42649 0
M  V30 7202 C 664.897 -0.198252 -2.05647 0
M  V30 7203 C 665.305 1.14786 -1.50402 0
M  V30 7204 O 664.648 1.72316 -0.636634 0
M  V30 7205 C 664.71 -0.0507132 -3.59464 0
M  V30 7206 C 664.374 -1.32478 -4.37377 0
M  V30 7207 C 665.371 -2.2572 -4.68344 0
M  V30 7208 C 663.056 -1.57104 -4.77099 0
M  V30 7209 C 665.05 -3.4187 -5.37963 0
M  V30 7210 C 662.737 -2.73543 -5.46459 0
M  V30 7211 C 663.735 -3.65751 -5.76815 0
M  V30 7212 O 663.423 -4.80154 -6.44753 0
M  V30 7213 H 663.155 -0.0950721 -0.669281 0
M  V30 7214 H 665.709 -0.915745 -1.83857 0
M  V30 7215 H 663.939 0.722314 -3.79894 0
M  V30 7216 H 665.628 0.380552 -4.04112 0
M  V30 7217 H 666.394 -2.07943 -4.38161 0
M  V30 7218 H 662.273 -0.862069 -4.52868 0
M  V30 7219 H 665.817 -4.13861 -5.61574 0
M  V30 7220 H 661.714 -2.91248 -5.7606 0
M  V30 7221 H 662.482 -4.79637 -6.63243 0
M  V30 7222 N 665.145 1.52092 -0.413018 0
M  V30 7223 C 666.391 2.02154 0.161737 0
M  V30 7224 C 666.724 1.29789 1.44459 0
M  V30 7225 O 665.999 0.405378 1.90229 0
M  V30 7226 C 666.282 3.5781 0.405463 0
M  V30 7227 C 666.135 4.40819 -0.894335 0
M  V30 7228 C 667.454 4.23821 1.18591 0
M  V30 7229 H 664.573 0.734769 0.0573077 0
M  V30 7230 H 667.215 1.81948 -0.547247 0
M  V30 7231 H 665.365 3.75158 1.0094 0
M  V30 7232 H 667.037 4.35175 -1.53039 0
M  V30 7233 H 665.28 4.06877 -1.50444 0
M  V30 7234 H 665.951 5.47819 -0.678144 0
M  V30 7235 H 668.427 4.10596 0.674573 0
M  V30 7236 H 667.303 5.32663 1.3252 0
M  V30 7237 H 667.564 3.83038 2.20758 0
M  V30 7238 N 666.623 0.143563 1.56945 0
M  V30 7239 C 667.57 -0.797433 2.16586 0
M  V30 7240 C 668.54 -1.24654 1.09775 0
M  V30 7241 O 669.725 -1.31968 1.37801 0
M  V30 7242 C 666.865 -2.03253 2.78895 0
M  V30 7243 C 665.978 -1.62954 4.00087 0
M  V30 7244 C 665.113 -2.81617 4.50406 0
M  V30 7245 C 664.152 -2.37675 5.64072 0
M  V30 7246 N 663.289 -3.49335 6.09023 0
M  V30 7247 H 668.129 -0.282023 2.96662 0
M  V30 7248 H 665.666 -0.127494 1.46546 0
M  V30 7249 H 667.624 -2.75653 3.13163 0
M  V30 7250 H 666.254 -2.52211 2.01469 0
M  V30 7251 H 665.306 -0.803322 3.71821 0
M  V30 7252 H 666.618 -1.26679 4.82446 0
M  V30 7253 H 665.772 -3.62212 4.86711 0
M  V30 7254 H 664.511 -3.21134 3.67048 0
M  V30 7255 H 663.516 -1.55519 5.27346 0
M  V30 7256 H 664.741 -1.99247 6.49213 0
M  V30 7257 H 662.687 -3.8848 5.28601 0
M  V30 7258 H 662.604 -3.17064 6.86299 0
M  V30 7259 H 663.872 -4.30297 6.49973 0
M  V30 7260 N 668.101 -1.57061 -0.130224 0
M  V30 7261 C 669.034 -1.94698 -1.19029 0
M  V30 7262 C 670.012 -0.815074 -1.40696 0
M  V30 7263 O 671.196 -1.07223 -1.55034 0
M  V30 7264 C 668.323 -2.23352 -2.5462 0
M  V30 7265 C 667.369 -3.45945 -2.49448 0
M  V30 7266 S 668.202 -4.98927 -1.94505 0
M  V30 7267 C 669.358 -5.30721 -3.31792 0
M  V30 7268 H 669.591 -2.84308 -0.869272 0
M  V30 7269 H 667.124 -1.50688 -0.336531 0
M  V30 7270 H 669.082 -2.40539 -3.32643 0
M  V30 7271 H 667.743 -1.34376 -2.83905 0
M  V30 7272 H 666.936 -3.63324 -3.49302 0
M  V30 7273 H 666.538 -3.28086 -1.79543 0
M  V30 7274 H 668.83 -5.25215 -4.27966 0
M  V30 7275 H 669.773 -6.32048 -3.19251 0
M  V30 7276 H 670.181 -4.5821 -3.29703 0
M  V30 7277 N 669.579 0.400081 -1.52437 0
M  V30 7278 C 670.804 1.17221 -1.71096 0
M  V30 7279 C 671.229 1.83269 -0.423565 0
M  V30 7280 O 670.587 1.70378 0.619751 0
M  V30 7281 C 670.635 2.20425 -2.85386 0
M  V30 7282 O 669.739 3.26769 -2.51586 0
M  V30 7283 H 669.08 0.341766 -0.569291 0
M  V30 7284 H 671.61 0.467772 -1.99181 0
M  V30 7285 H 671.62 2.64605 -3.10561 0
M  V30 7286 H 670.295 1.71737 -3.78786 0
M  V30 7287 H 668.872 2.87804 -2.37114 0
M  V30 7288 N 671.057 1.43213 0.657864 0
M  V30 7289 C 671.987 1.50815 1.78262 0
M  V30 7290 C 672.968 0.363211 1.66177 0
M  V30 7291 O 674.153 0.579806 1.85343 0
M  V30 7292 C 671.283 1.42625 3.16663 0
M  V30 7293 C 670.237 2.5532 3.43505 0
M  V30 7294 C 669.563 2.32184 4.81658 0
M  V30 7295 C 670.863 3.97583 3.38711 0
M  V30 7296 H 672.557 2.44954 1.72157 0
M  V30 7297 H 670.103 1.17896 0.82683 0
M  V30 7298 H 672.056 1.46548 3.95097 0
M  V30 7299 H 670.78 0.449877 3.23487 0
M  V30 7300 H 669.439 2.50742 2.6744 0
M  V30 7301 H 669.087 1.32801 4.85153 0
M  V30 7302 H 668.787 3.07724 5.00579 0
M  V30 7303 H 670.311 2.37883 5.62356 0
M  V30 7304 H 671.725 4.03673 4.07089 0
M  V30 7305 H 670.122 4.73112 3.69168 0
M  V30 7306 H 671.192 4.23049 2.36976 0
M  V30 7307 N 672.536 -0.895792 1.29666 0
M  V30 7308 C 673.468 -2.00563 1.10937 0
M  V30 7309 C 674.481 -1.62705 0.055734 0
M  V30 7310 O 675.67 -1.7595 0.300656 0
M  V30 7311 C 672.77 -3.32262 0.667448 0
M  V30 7312 C 671.943 -3.98625 1.80047 0
M  V30 7313 C 671.002 -5.08617 1.3489 0
M  V30 7314 O 670.028 -5.30837 2.05429 0
M  V30 7315 N 671.23 -5.80076 0.221937 0
M  V30 7316 H 673.995 -2.17184 2.06522 0
M  V30 7317 H 671.556 -1.06822 1.21658 0
M  V30 7318 H 673.548 -4.03196 0.348586 0
M  V30 7319 H 672.118 -3.11985 -0.196055 0
M  V30 7320 H 671.338 -3.21005 2.28801 0
M  V30 7321 H 672.626 -4.39704 2.56003 0
M  V30 7322 H 672.024 -5.64514 -0.366084 0
M  V30 7323 H 670.581 -6.51789 -0.0375346 0
M  V30 7324 N 674.014 -1.12206 -1.10668 0
M  V30 7325 C 674.944 -0.810086 -2.18997 0
M  V30 7326 C 675.925 0.225065 -1.68604 0
M  V30 7327 O 677.11 0.086783 -1.94006 0
M  V30 7328 C 674.24 -0.261262 -3.46316 0
M  V30 7329 C 673.194 -1.2292 -4.09969 0
M  V30 7330 C 672.52 -0.540713 -5.31959 0
M  V30 7331 C 673.82 -2.58295 -4.53962 0
M  V30 7332 H 675.514 -1.7159 -2.45352 0
M  V30 7333 H 673.06 -0.82646 -1.17922 0
M  V30 7334 H 675.013 -0.0307522 -4.21389 0
M  V30 7335 H 673.737 0.679879 -3.19445 0
M  V30 7336 H 672.396 -1.44548 -3.369 0
M  V30 7337 H 672.044 0.405492 -5.01363 0
M  V30 7338 H 671.744 -1.18637 -5.75499 0
M  V30 7339 H 673.268 -0.319184 -6.09765 0
M  V30 7340 H 674.682 -2.40709 -5.20319 0
M  V30 7341 H 673.079 -3.18916 -5.08343 0
M  V30 7342 H 674.149 -3.16918 -3.67002 0
M  V30 7343 N 675.492 1.28418 -0.913599 0
M  V30 7344 C 676.722 1.98817 -0.56172 0
M  V30 7345 C 677.13 1.68457 0.861321 0
M  V30 7346 O 676.473 0.933653 1.58204 0
M  V30 7347 C 676.535 3.52801 -0.690785 0
M  V30 7348 C 676.199 4.0675 -2.08334 0
M  V30 7349 C 677.196 4.20597 -3.05604 0
M  V30 7350 C 674.881 4.41445 -2.39648 0
M  V30 7351 C 676.875 4.68392 -4.32305 0
M  V30 7352 C 674.562 4.88934 -3.66588 0
M  V30 7353 C 675.56 5.02364 -4.6273 0
M  V30 7354 O 675.248 5.48817 -5.87414 0
M  V30 7355 H 674.98 0.641608 -0.212874 0
M  V30 7356 H 677.534 1.64584 -1.22887 0
M  V30 7357 H 675.764 3.86686 0.0334336 0
M  V30 7358 H 677.453 4.04422 -0.346031 0
M  V30 7359 H 678.219 3.94067 -2.8273 0
M  V30 7360 H 674.098 4.30242 -1.65567 0
M  V30 7361 H 677.642 4.7879 -5.07352 0
M  V30 7362 H 673.539 5.14904 -3.89287 0
M  V30 7363 H 674.307 5.67103 -5.90201 0
M  V30 7364 N 676.97 0.677563 1.42291 0
M  V30 7365 C 677.9 0.014968 2.33495 0
M  V30 7366 C 678.881 -0.786376 1.50831 0
M  V30 7367 O 680.066 -0.742975 1.79426 0
M  V30 7368 C 677.196 -0.935023 3.34477 0
M  V30 7369 C 676.15 -0.242074 4.27315 0
M  V30 7370 C 675.476 -1.30519 5.18526 0
M  V30 7371 C 676.776 0.880604 5.14823 0
M  V30 7372 H 678.47 0.776671 2.89151 0
M  V30 7373 H 676.016 0.37494 1.39033 0
M  V30 7374 H 677.969 -1.40766 3.97194 0
M  V30 7375 H 676.693 -1.72818 2.77131 0
M  V30 7376 H 675.352 0.210351 3.65996 0
M  V30 7377 H 675 -2.09041 4.57505 0
M  V30 7378 H 674.7 -0.846652 5.81468 0
M  V30 7379 H 676.224 -1.7787 5.84119 0
M  V30 7380 H 677.638 0.489062 5.7121 0
M  V30 7381 H 676.035 1.26511 5.86613 0
M  V30 7382 H 677.105 1.72818 4.53059 0
M  V30 7383 N 678.448 -1.51871 0.421078 0
M  V30 7384 C 679.694 -2.02237 -0.151014 0
M  V30 7385 C 680.027 -1.30554 -1.43768 0
M  V30 7386 O 679.302 -0.41546 -1.90011 0
M  V30 7387 C 679.585 -3.5802 -0.386482 0
M  V30 7388 C 679.438 -4.40339 0.9177 0
M  V30 7389 C 680.757 -4.24444 -1.16342 0
M  V30 7390 H 677.876 -0.735062 -0.0534102 0
M  V30 7391 H 680.518 -1.81656 0.556888 0
M  V30 7392 H 678.668 -3.75688 -0.989494 0
M  V30 7393 H 680.34 -4.34357 1.55344 0
M  V30 7394 H 678.583 -4.06073 1.526 0
M  V30 7395 H 679.254 -5.47451 0.707187 0
M  V30 7396 H 681.73 -4.10948 -0.652788 0
M  V30 7397 H 680.606 -5.33358 -1.29693 0
M  V30 7398 H 680.867 -3.84204 -2.18724 0
M  V30 7399 N 679.926 -0.151884 -1.56866 0
M  V30 7400 C 681.203 0.543328 -1.87902 0
M  V30 7401 C 681.583 1.82636 -1.05864 0
M  V30 7402 O 680.931 2.28028 -0.146868 0
M  V30 7403 C 681.141 0.804056 -3.39611 0
M  V30 7404 C 682.489 1.14267 -4.08935 0
M  V30 7405 O 683.513 0.893248 -3.44818 0
M  V30 7406 O 682.372 1.61229 -5.22176 0
M  V30 7407 H 679.466 0.277724 -0.778973 0
M  V30 7408 H 682.012 -0.188862 -1.68646 0
M  V30 7409 H 680.784 -0.103772 -3.91162 0
M  V30 7410 H 680.407 1.59025 -3.64413 0
M  V30 7411 N 681.404 1.57128 0.121893 0
M  V30 7412 C 682.352 2.01109 1.16868 0
M  V30 7413 C 683.346 0.907532 1.43039 0
M  V30 7414 O 684.552 1.09274 1.43036 0
M  V30 7415 H 680.927 0.640539 0.393971 0
M  V30 7416 H 682.898 2.88261 0.771224 0
M  V30 7417 C 681.647 2.42887 2.48799 0
M  V30 7418 H 680.97 3.2737 2.29498 0
M  V30 7419 H 682.41 2.77461 3.20611 0
M  V30 7420 C 680.869 1.29137 3.11168 0
M  V30 7421 O 681.399 0.605756 3.97106 0
M  V30 7422 N 679.605 1.04916 2.71 0
M  V30 7423 H 679.152 1.60848 2.01211 0
M  V30 7424 H 679.11 0.290016 3.1306 0
M  V30 7425 N 682.882 -0.391992 1.52647 0
M  V30 7426 C 684.298 -0.731848 1.41831 0
M  V30 7427 C 684.498 -1.9423 0.536361 0
M  V30 7428 O 683.554 -2.52499 0.00866571 0
M  V30 7429 C 684.867 -0.969743 2.84634 0
M  V30 7430 C 686.415 -1.0714 2.94092 0
M  V30 7431 C 686.89 -1.34195 4.37899 0
M  V30 7432 N 688.381 -1.41023 4.41211 0
M  V30 7433 C 689.116 -1.63616 5.49561 0
M  V30 7434 N 688.612 -1.83699 6.68002 0
M  V30 7435 N 690.405 -1.65771 5.371 0
M  V30 7436 H 682.556 0.404547 2.08512 0
M  V30 7437 H 684.819 0.11879 0.940528 0
M  V30 7438 H 684.525 -0.152465 3.51369 0
M  V30 7439 H 684.399 -1.88523 3.26709 0
M  V30 7440 H 686.786 -1.87925 2.27526 0
M  V30 7441 H 686.867 -0.133887 2.55449 0
M  V30 7442 H 686.511 -0.539207 5.0503 0
M  V30 7443 H 686.441 -2.29226 4.74092 0
M  V30 7444 H 688.932 -1.27223 3.55841 0
M  V30 7445 H 689.245 -2.00437 7.46354 0
M  V30 7446 H 687.59 -1.8093 6.71036 0
M  V30 7447 H 690.781 -1.4963 4.43541 0
M  V30 7448 H 690.954 -1.83038 6.21612 0
M  V30 7449 N 684.36 -1.4356 -0.65026 0
M  V30 7450 C 685.585 -1.48995 -1.44275 0
M  V30 7451 C 686.01 -0.109954 -1.87778 0
M  V30 7452 O 685.368 0.896926 -1.57559 0
M  V30 7453 C 685.416 -2.44341 -2.65198 0
M  V30 7454 O 684.52 -1.93172 -3.6436 0
M  V30 7455 H 683.861 -0.503852 -0.432469 0
M  V30 7456 H 686.391 -1.88504 -0.795446 0
M  V30 7457 H 686.401 -2.61743 -3.12977 0
M  V30 7458 H 685.076 -3.44588 -2.32877 0
M  V30 7459 H 683.653 -1.85445 -3.23519 0
M  V30 7460 N 685.838 0.888903 -1.30139 0
M  V30 7461 C 687.068 1.67115 -1.21474 0
M  V30 7462 C 687.476 1.87852 0.225472 0
M  V30 7463 O 686.819 1.42324 1.16145 0
M  V30 7464 C 686.881 3.0713 -1.86846 0
M  V30 7465 C 686.545 3.09582 -3.36167 0
M  V30 7466 C 687.542 2.88929 -4.32222 0
M  V30 7467 C 685.227 3.31304 -3.77549 0
M  V30 7468 C 687.221 2.89949 -5.67634 0
M  V30 7469 C 684.908 3.31954 -5.13079 0
M  V30 7470 C 685.906 3.113 -6.07932 0
M  V30 7471 O 685.594 3.11758 -7.40987 0
M  V30 7472 H 685.326 0.528372 -0.421662 0
M  V30 7473 H 687.88 1.11919 -1.7223 0
M  V30 7474 H 686.11 3.63973 -1.30615 0
M  V30 7475 H 687.799 3.6749 -1.72354 0
M  V30 7476 H 688.565 2.71948 -4.01584 0
M  V30 7477 H 684.444 3.46417 -3.04165 0
M  V30 7478 H 687.988 2.73746 -6.41645 0
M  V30 7479 H 683.885 3.48469 -5.43359 0
M  V30 7480 H 684.653 3.27951 -7.49927 0
M  V30 7481 N 687.317 1.12792 1.10072 0
M  V30 7482 C 688.247 0.821688 2.18565 0
M  V30 7483 C 689.228 -0.21612 1.68721 0
M  V30 7484 O 690.413 -0.0764932 1.94049 0
M  V30 7485 C 687.543 0.279624 3.46172 0
M  V30 7486 C 686.497 1.25092 4.09312 0
M  V30 7487 C 685.823 0.568916 5.31665 0
M  V30 7488 C 687.123 2.60699 4.52585 0
M  V30 7489 H 688.817 1.72888 2.44438 0
M  V30 7490 H 686.363 0.832702 1.17482 0
M  V30 7491 H 688.316 0.053099 4.21367 0
M  V30 7492 H 687.04 -0.662929 3.19801 0
M  V30 7493 H 685.699 1.46332 3.36129 0
M  V30 7494 H 685.347 -0.378898 5.01571 0
M  V30 7495 H 685.047 1.21687 5.74862 0
M  V30 7496 H 686.571 0.351517 6.09587 0
M  V30 7497 H 687.985 2.43465 5.19035 0
M  V30 7498 H 686.382 3.21608 5.06644 0
M  V30 7499 H 687.452 3.1886 3.65317 0
M  V30 7500 N 688.795 -1.27931 0.920396 0
M  V30 7501 C 689.725 -2.29487 0.431024 0
M  V30 7502 C 690.706 -1.62435 -0.504861 0
M  V30 7503 O 691.891 -1.89797 -0.411176 0
M  V30 7504 C 689.021 -3.45788 -0.323709 0
M  V30 7505 C 687.975 -4.24784 0.523658 0
M  V30 7506 C 687.301 -5.33488 -0.359809 0
M  V30 7507 C 688.601 -4.90874 1.78437 0
M  V30 7508 H 690.295 -2.70671 1.27975 0
M  V30 7509 H 687.841 -1.30121 0.616813 0
M  V30 7510 H 689.794 -4.15927 -0.676952 0
M  V30 7511 H 688.518 -3.03502 -1.2064 0
M  V30 7512 H 687.177 -3.56382 0.85951 0
M  V30 7513 H 686.825 -4.87445 -1.24124 0
M  V30 7514 H 686.525 -5.87247 0.203605 0
M  V30 7515 H 688.049 -6.06472 -0.708787 0
M  V30 7516 H 689.463 -5.53339 1.49963 0
M  V30 7517 H 687.86 -5.54659 2.29071 0
M  V30 7518 H 688.93 -4.14988 2.50824 0
M  V30 7519 N 690.273 -0.685099 -1.4193 0
M  V30 7520 C 691.55 -0.140152 -1.95097 0
M  V30 7521 C 691.93 1.34745 -1.62502 0
M  V30 7522 O 691.278 2.08872 -0.926534 0
M  V30 7523 C 691.488 -0.420268 -3.4646 0
M  V30 7524 C 692.836 -0.342338 -4.23218 0
M  V30 7525 O 693.86 -0.354592 -3.54431 0
M  V30 7526 O 692.719 -0.293404 -5.45712 0
M  V30 7527 H 689.813 -0.00885998 -0.826953 0
M  V30 7528 H 692.359 -0.760539 -1.51703 0
M  V30 7529 H 691.131 -1.45037 -3.63428 0
M  V30 7530 H 690.754 0.231616 -3.96925 0
M  V30 7531 N 691.751 1.51645 -0.429126 0
M  V30 7532 C 692.998 2.02015 0.140079 0
M  V30 7533 C 693.326 1.31374 1.43427 0
M  V30 7534 O 692.581 0.414779 1.91254 0
M  V30 7535 C 692.88 3.54989 0.414472 0
M  V30 7536 C 692.546 4.43874 -0.792911 0
M  V30 7537 C 691.208 4.67887 -1.12404 0
M  V30 7538 C 693.56 4.96074 -1.59875 0
M  V30 7539 C 690.888 5.41348 -2.26184 0
M  V30 7540 C 693.24 5.70782 -2.72747 0
M  V30 7541 C 691.904 5.93062 -3.06324 0
M  V30 7542 H 691.174 0.739225 0.0512585 0
M  V30 7543 H 693.821 1.82675 -0.574641 0
M  V30 7544 H 692.126 3.72615 1.21099 0
M  V30 7545 H 693.823 3.91489 0.868173 0
M  V30 7546 H 690.413 4.25374 -0.524871 0
M  V30 7547 H 694.597 4.77412 -1.35614 0
M  V30 7548 H 689.853 5.56815 -2.52522 0
M  V30 7549 H 694.027 6.10221 -3.35564 0
M  V30 7550 H 691.654 6.49764 -3.94602 0
M  V30 7551 N 693.229 0.160201 1.56784 0
M  V30 7552 C 694.176 -0.774416 2.1742 0
M  V30 7553 C 695.146 -1.23483 1.11091 0
M  V30 7554 O 696.331 -1.30499 1.39193 0
M  V30 7555 C 693.471 -2.00283 2.81035 0
M  V30 7556 C 692.584 -1.58701 4.01793 0
M  V30 7557 C 691.719 -2.76824 4.53367 0
M  V30 7558 C 690.758 -2.31679 5.66561 0
M  V30 7559 N 689.895 -3.42856 6.12694 0
M  V30 7560 H 694.735 -0.250542 2.96945 0
M  V30 7561 H 692.272 -0.111943 1.46673 0
M  V30 7562 H 694.23 -2.72316 3.16069 0
M  V30 7563 H 692.86 -2.5006 2.04132 0
M  V30 7564 H 691.912 -0.76384 3.72652 0
M  V30 7565 H 693.224 -1.21555 4.83762 0
M  V30 7566 H 692.378 -3.57029 4.90525 0
M  V30 7567 H 691.117 -3.17223 3.70433 0
M  V30 7568 H 690.122 -1.49917 5.28966 0
M  V30 7569 H 691.347 -1.9235 6.5129 0
M  V30 7570 H 689.293 -3.82852 5.32692 0
M  V30 7571 H 689.21 -3.09767 6.89624 0
M  V30 7572 H 690.478 -4.23379 6.545 0
M  V30 7573 N 694.707 -1.5719 -0.113559 0
M  V30 7574 C 695.932 -1.89702 -0.838336 0
M  V30 7575 C 696.357 -0.752679 -1.72384 0
M  V30 7576 O 695.715 0.296575 -1.78858 0
M  V30 7577 C 695.763 -3.20989 -1.64312 0
M  V30 7578 O 694.867 -3.07278 -2.75053 0
M  V30 7579 H 694.208 -0.622339 -0.231496 0
M  V30 7580 H 696.738 -2.04382 -0.0943228 0
M  V30 7581 H 696.748 -3.53843 -2.03123 0
M  V30 7582 H 695.423 -4.03869 -0.993119 0
M  V30 7583 H 694 -2.85901 -2.39406 0
M  V30 7584 N 696.185 0.383891 -1.52853 0
M  V30 7585 C 697.434 1.12563 -1.67369 0
M  V30 7586 C 697.747 1.90982 -0.422533 0
M  V30 7587 O 698.953 2.6778 -0.447914 0
M  V30 7588 C 697.409 2.05011 -2.95801 0
M  V30 7589 C 697.017 1.31991 -4.28115 0
M  V30 7590 C 698.761 2.79289 -3.19684 0
M  V30 7591 C 696.668 2.23235 -5.4765 0
M  V30 7592 H 695.598 0.42391 -0.623552 0
M  V30 7593 H 698.249 0.388016 -1.79351 0
M  V30 7594 H 696.631 2.82429 -2.77578 0
M  V30 7595 H 697.805 0.597633 -4.56908 0
M  V30 7596 H 696.12 0.696517 -4.10533 0
M  V30 7597 H 698.717 3.47749 -4.06171 0
M  V30 7598 H 699.06 3.43649 -2.3497 0
M  V30 7599 H 699.593 2.08962 -3.38496 0
M  V30 7600 H 696.332 1.63482 -6.34786 0
M  V30 7601 H 695.852 2.93364 -5.23161 0
M  V30 7602 H 697.531 2.83205 -5.81725 0
M  V30 7603 N 697.663 1.43903 0.642637 0
M  V30 7604 C 698.94 1.36556 1.40043 0
M  V30 7605 C 699.32 0.0185588 2.11092 0
M  V30 7606 O 698.668 -0.998438 2.05532 0
M  V30 7607 C 698.878 2.55596 2.37638 0
M  V30 7608 C 700.226 2.99153 3.01318 0
M  V30 7609 O 701.25 2.55719 2.47965 0
M  V30 7610 O 700.109 3.74427 3.98078 0
M  V30 7611 H 697.203 0.540189 0.626198 0
M  V30 7612 H 699.749 1.55971 0.668657 0
M  V30 7613 H 698.521 3.45256 1.84158 0
M  V30 7614 H 698.144 2.38334 3.18249 0
M  V30 7615 N 699.141 -0.881989 1.30609 0
M  V30 7616 C 700.418 -1.61563 1.10258 0
M  V30 7617 C 700.798 -2.08228 -0.347053 0
M  V30 7618 O 700.146 -1.85151 -1.33908 0
M  V30 7619 C 700.356 -2.78287 2.10612 0
M  V30 7620 C 701.704 -3.48545 2.4249 0
M  V30 7621 O 702.728 -2.88479 2.08945 0
M  V30 7622 O 701.587 -4.56873 2.99883 0
M  V30 7623 H 698.681 -0.710238 0.423663 0
M  V30 7624 H 701.227 -0.928503 1.42045 0
M  V30 7625 H 699.999 -2.41131 3.08174 0
M  V30 7626 H 699.622 -3.54695 1.79659 0
M  V30 7627 N 700.619 -1.13374 -1.09472 0
M  V30 7628 C 701.529 -0.824029 -2.19652 0
M  V30 7629 C 702.545 0.19118 -1.72947 0
M  V30 7630 O 703.721 0.0223464 -2.01388 0
M  V30 7631 C 700.786 -0.294009 -3.45451 0
M  V30 7632 C 699.847 -1.3704 -4.0684 0
M  V30 7633 C 699.08 -0.86558 -5.26634 0
M  V30 7634 O 699.303 0.29702 -5.69626 0
M  V30 7635 O 698.237 -1.63968 -5.79136 0
M  V30 7636 H 702.063 -1.74454 -2.48595 0
M  V30 7637 H 699.648 -0.911155 -1.18399 0
M  V30 7638 H 701.53 -0.00381039 -4.214 0
M  V30 7639 H 700.205 0.598921 -3.18111 0
M  V30 7640 H 699.112 -1.71391 -3.3253 0
M  V30 7641 H 700.445 -2.23746 -4.38405 0
M  V30 7642 N 702.098 1.27442 -0.927168 0
M  V30 7643 C 703.344 1.94679 -0.568164 0
M  V30 7644 C 703.677 1.72697 0.888219 0
M  V30 7645 O 702.952 1.05573 1.63354 0
M  V30 7646 C 703.235 3.4882 -0.894253 0
M  V30 7647 C 703.088 3.80146 -2.40435 0
M  V30 7648 C 704.407 4.38281 -0.399766 0
M  V30 7649 H 701.526 0.707071 -0.207892 0
M  V30 7650 H 704.168 1.50568 -1.15885 0
M  V30 7651 H 702.318 3.86522 -0.391566 0
M  V30 7652 H 703.99 3.52238 -2.97869 0
M  V30 7653 H 702.233 3.26716 -2.85375 0
M  V30 7654 H 702.904 4.87835 -2.58304 0
M  V30 7655 H 705.38 4.07726 -0.83058 0
M  V30 7656 H 704.256 5.44955 -0.656885 0
M  V30 7657 H 704.517 4.36521 0.700153 0
M  V30 7658 N 703.576 0.692616 1.41565 0
M  V30 7659 C 704.822 0.222664 2.01574 0
M  V30 7660 C 705.155 -1.1737 1.54719 0
M  V30 7661 O 704.43 -1.79161 0.757084 0
M  V30 7662 C 704.713 0.277064 3.59033 0
M  V30 7663 C 704.566 1.71016 4.16021 0
M  V30 7664 C 705.885 -0.36479 4.38586 0
M  V30 7665 H 703.004 0.0823839 0.732381 0
M  V30 7666 H 705.646 0.880778 1.68352 0
M  V30 7667 H 703.796 -0.283288 3.87466 0
M  V30 7668 H 705.468 2.32413 3.98475 0
M  V30 7669 H 703.711 2.24525 3.71175 0
M  V30 7670 H 704.382 1.69978 5.25178 0
M  V30 7671 H 706.858 0.112404 4.15948 0
M  V30 7672 H 705.734 -0.296169 5.481 0
M  V30 7673 H 705.995 -1.44506 4.17816 0
M  V30 7674 N 705.054 -1.51416 0.437162 0
M  V30 7675 C 705.964 -2.31493 -0.380537 0
M  V30 7676 C 706.98 -1.40399 -1.02782 0
M  V30 7677 O 708.156 -1.73471 -1.02323 0
M  V30 7678 C 705.221 -3.1413 -1.46709 0
M  V30 7679 C 704.282 -4.21003 -0.839953 0
M  V30 7680 C 703.515 -4.9969 -1.87473 0
M  V30 7681 O 703.738 -4.79008 -3.09689 0
M  V30 7682 O 702.672 -5.8379 -1.46536 0
M  V30 7683 H 706.498 -3.02469 0.273183 0
M  V30 7684 H 704.083 -1.48059 0.199706 0
M  V30 7685 H 705.965 -3.65505 -2.09724 0
M  V30 7686 H 704.64 -2.45919 -2.10489 0
M  V30 7687 H 703.547 -3.73706 -0.171752 0
M  V30 7688 H 704.88 -4.91587 -0.245638 0
M  V30 7689 N 706.532 -0.168513 -1.56696 0
M  V30 7690 C 707.464 0.794249 -2.14998 0
M  V30 7691 C 708.477 1.1957 -1.10485 0
M  V30 7692 O 709.666 1.13604 -1.37682 0
M  V30 7693 C 706.766 2.08018 -2.67547 0
M  V30 7694 C 705.939 1.84274 -3.96689 0
M  V30 7695 C 704.998 2.97059 -4.3433 0
M  V30 7696 O 704.024 2.67815 -5.02259 0
M  V30 7697 N 705.226 4.24775 -3.9566 0
M  V30 7698 H 707.991 0.295832 -2.98236 0
M  V30 7699 H 705.552 0.0143611 -1.61894 0
M  V30 7700 H 707.544 2.82559 -2.89729 0
M  V30 7701 H 706.114 2.49059 -1.88914 0
M  V30 7702 H 705.334 0.936528 -3.82914 0
M  V30 7703 H 706.622 1.65773 -4.81037 0
M  V30 7704 H 706.02 4.51395 -3.40968 0
M  V30 7705 H 704.577 4.96027 -4.22848 0
M  V30 7706 N 708.01 1.57248 0.105221 0
M  V30 7707 C 709.426 1.52853 0.459153 0
M  V30 7708 C 709.626 0.883674 1.8109 0
M  V30 7709 O 708.682 0.471864 2.48052 0
M  V30 7710 C 709.995 2.97596 0.43096 0
M  V30 7711 C 711.543 3.08758 0.513536 0
M  V30 7712 C 712.018 4.55089 0.515593 0
M  V30 7713 N 713.509 4.59597 0.576639 0
M  V30 7714 C 714.244 5.70253 0.599904 0
M  V30 7715 N 713.74 6.90368 0.579985 0
M  V30 7716 N 715.533 5.58399 0.643953 0
M  V30 7717 H 707.684 1.97547 -0.780306 0
M  V30 7718 H 709.947 0.902758 -0.289363 0
M  V30 7719 H 709.653 3.48201 -0.494903 0
M  V30 7720 H 709.527 3.55756 1.2537 0
M  V30 7721 H 711.914 2.58148 1.42982 0
M  V30 7722 H 711.995 2.53568 -0.337148 0
M  V30 7723 H 711.639 5.06348 -0.396701 0
M  V30 7724 H 711.569 5.08105 1.38335 0
M  V30 7725 H 714.06 3.73144 0.597639 0
M  V30 7726 H 714.373 7.70462 0.600741 0
M  V30 7727 H 712.718 6.92843 0.547191 0
M  V30 7728 H 715.909 4.63467 0.656975 0
M  V30 7729 H 716.082 6.44644 0.658616 0
M  V30 7730 N 709.488 -0.375779 1.53054 0
M  V30 7731 C 710.713 -1.14484 1.7294 0
M  V30 7732 C 711.138 -1.82572 0.452668 0
M  V30 7733 O 710.496 -1.71343 -0.592567 0
M  V30 7734 C 710.544 -2.15857 2.88857 0
M  V30 7735 O 709.648 -3.22725 2.56753 0
M  V30 7736 H 708.989 -0.332666 0.574656 0
M  V30 7737 H 711.519 -0.436025 1.999 0
M  V30 7738 H 711.529 -2.59631 3.14731 0
M  V30 7739 H 710.204 -1.65689 3.81471 0
M  V30 7740 H 708.781 -2.83996 2.41663 0
M  V30 7741 N 710.966 -1.44241 -0.634997 0
M  V30 7742 C 712.214 -1.46531 -1.39187 0
M  V30 7743 C 712.535 -0.0976441 -1.94755 0
M  V30 7744 O 711.805 0.869528 -1.75545 0
M  V30 7745 H 710.385 -0.539544 -0.516625 0
M  V30 7746 H 713.047 -1.79989 -0.747655 0
M  V30 7747 H 712.143 -2.18848 -2.22513 0
M  V30 7748 N 712.444 0.87505 -1.31075 0
M  V30 7749 C 713.669 1.66583 -1.23551 0
M  V30 7750 C 714.094 1.87067 0.19686 0
M  V30 7751 O 713.452 1.40877 1.1412 0
M  V30 7752 C 713.5 3.01401 -1.97965 0
M  V30 7753 O 712.604 3.90923 -1.31351 0
M  V30 7754 H 711.945 0.508645 -0.426821 0
M  V30 7755 H 714.475 1.09139 -1.7306 0
M  V30 7756 H 714.485 3.51374 -2.07366 0
M  V30 7757 H 713.16 2.85812 -3.02133 0
M  V30 7758 H 711.737 3.49369 -1.30368 0
M  V30 7759 N 713.922 1.13953 1.08869 0
M  V30 7760 C 715.147 0.928559 1.85452 0
M  V30 7761 C 715.572 -0.517642 1.80837 0
M  V30 7762 O 714.93 -1.36779 1.19001 0
M  V30 7763 C 714.978 1.42814 3.31114 0
M  V30 7764 O 714.082 0.617129 4.07756 0
M  V30 7765 H 713.423 0.33235 0.574839 0
M  V30 7766 H 715.953 1.5156 1.37443 0
M  V30 7767 H 715.963 1.43425 3.8196 0
M  V30 7768 H 714.638 2.48109 3.33788 0
M  V30 7769 H 713.215 0.679365 3.66659 0
M  V30 7770 N 715.4 -1.26948 0.933913 0
M  V30 7771 C 716.628 -1.98186 0.59414 0
M  V30 7772 C 717.043 -1.69614 -0.829257 0
M  V30 7773 O 716.4 -0.960213 -1.55197 0
M  V30 7774 C 716.451 -3.52123 0.818026 0
M  V30 7775 O 716.172 -3.79698 2.18543 0
M  V30 7776 C 717.673 -4.40608 0.48781 0
M  V30 7777 H 714.893 -0.632305 0.224569 0
M  V30 7778 H 717.437 -1.61646 1.25263 0
M  V30 7779 H 715.592 -3.86851 0.206246 0
M  V30 7780 H 716.006 -4.7426 2.24005 0
M  V30 7781 H 717.48 -5.47606 0.695126 0
M  V30 7782 H 717.957 -4.35394 -0.576913 0
M  V30 7783 H 718.563 -4.11411 1.078 0
M  V30 7784 N 716.879 -0.700114 -1.41195 0
M  V30 7785 C 718.29 -0.307249 -1.84154 0
M  V30 7786 C 718.641 1.15539 -1.58572 0
M  V30 7787 O 717.766 1.88744 -1.05852 0
M  V30 7788 C 718.361 -0.550872 -3.34292 0
M  V30 7789 C 716.92 -0.211877 -3.75803 0
M  V30 7790 C 716.067 -0.830915 -2.64558 0
M  V30 7791 H 719.018 -0.900431 -1.30683 0
M  V30 7792 H 719.039 0.188954 -3.80031 0
M  V30 7793 H 718.551 -1.61548 -3.5288 0
M  V30 7794 H 716.652 0.848283 -3.62815 0
M  V30 7795 H 716.765 -0.67007 -4.74391 0
M  V30 7796 H 715.129 -0.260155 -2.53368 0
M  V30 7797 H 715.912 -1.89948 -2.85963 0
M  V30 7798 N 718.357 1.51182 -0.445186 0
M  V30 7799 C 719.289 2.25714 0.398206 0
M  V30 7800 C 720.302 1.30032 0.979562 0
M  V30 7801 O 721.491 1.55731 0.872368 0
M  V30 7802 C 718.591 3.00348 1.56985 0
M  V30 7803 C 717.764 4.23187 1.10596 0
M  V30 7804 C 716.823 4.80334 2.14863 0
M  V30 7805 O 715.849 5.4196 1.73977 0
M  V30 7806 N 717.051 4.65053 3.47427 0
M  V30 7807 H 719.816 2.98732 -0.240629 0
M  V30 7808 H 717.377 1.59556 -0.274507 0
M  V30 7809 H 719.369 3.35464 2.26376 0
M  V30 7810 H 717.939 2.30291 2.11387 0
M  V30 7811 H 717.159 3.93476 0.238832 0
M  V30 7812 H 718.447 5.02886 0.773537 0
M  V30 7813 H 717.845 4.15984 3.83372 0
M  V30 7814 H 716.402 5.04509 4.12691 0
M  V30 7815 N 719.835 0.176821 1.56605 0
M  V30 7816 C 721.251 -0.179278 1.5859 0
M  V30 7817 C 721.451 -1.62433 1.19238 0
M  V30 7818 O 720.507 -2.35665 0.906552 0
M  V30 7819 C 721.82 0.106524 3.00511 0
M  V30 7820 C 723.368 0.0451731 3.12967 0
M  V30 7821 C 723.843 0.304038 4.5699 0
M  V30 7822 N 725.334 0.252008 4.62514 0
M  V30 7823 C 726.069 0.426404 5.71812 0
M  V30 7824 N 725.565 0.660155 6.89648 0
M  V30 7825 N 727.358 0.361926 5.60934 0
M  V30 7826 H 719.509 1.12001 1.8047 0
M  V30 7827 H 721.772 0.445679 0.836704 0
M  V30 7828 H 721.478 1.10778 3.33798 0
M  V30 7829 H 721.352 -0.599337 3.72408 0
M  V30 7830 H 723.739 -0.946662 2.79504 0
M  V30 7831 H 723.82 0.78383 2.43495 0
M  V30 7832 H 723.464 1.29311 4.91163 0
M  V30 7833 H 723.394 -0.455294 5.24628 0
M  V30 7834 H 725.885 0.0772102 3.77821 0
M  V30 7835 H 726.198 0.782529 7.68828 0
M  V30 7836 H 724.543 0.696835 6.91498 0
M  V30 7837 H 727.734 0.17986 4.67754 0
M  V30 7838 H 727.907 0.501263 6.46058 0
M  V30 7839 N 721.313 -1.57302 -0.09688 0
M  V30 7840 C 722.538 -1.9058 -0.818169 0
M  V30 7841 C 722.963 -0.770921 -1.71576 0
M  V30 7842 O 722.321 0.277588 -1.79162 0
M  V30 7843 C 722.369 -3.22714 -1.60898 0
M  V30 7844 O 721.473 -3.10178 -2.71779 0
M  V30 7845 H 720.814 -0.624759 -0.224882 0
M  V30 7846 H 723.344 -2.04471 -0.07264 0
M  V30 7847 H 723.354 -3.55978 -1.99358 0
M  V30 7848 H 722.029 -4.04899 -0.950227 0
M  V30 7849 H 720.606 -2.88424 -2.3636 0
M  V30 7850 N 722.791 0.367657 -1.53252 0
M  V30 7851 C 724.031 1.11923 -1.71034 0
M  V30 7852 C 724.395 1.86618 -0.45143 0
M  V30 7853 O 725.596 2.63996 -0.505915 0
M  V30 7854 C 723.867 2.05461 -2.92439 0
M  V30 7855 S 725.426 2.88167 -3.30916 0
M  V30 7856 H 722.244 0.378549 -0.601848 0
M  V30 7857 H 724.846 0.400757 -1.91348 0
M  V30 7858 H 723.55 1.49346 -3.82262 0
M  V30 7859 H 723.081 2.81784 -2.7452 0
M  V30 7860 H 725.096 4.07746 -2.82767 0
M  V30 7861 N 724.269 1.44576 0.627338 0
M  V30 7862 C 725.494 1.51271 1.41887 0
M  V30 7863 C 725.919 0.139814 1.8758 0
M  V30 7864 O 725.277 -0.871746 1.58966 0
M  V30 7865 C 725.325 2.48529 2.61277 0
M  V30 7866 O 724.429 1.98944 3.61241 0
M  V30 7867 H 723.77 0.510668 0.424399 0
M  V30 7868 H 726.3 1.89746 0.765356 0
M  V30 7869 H 726.31 2.66689 3.08773 0
M  V30 7870 H 724.985 3.48249 2.27366 0
M  V30 7871 H 723.562 1.90568 3.20528 0
M  V30 7872 N 725.747 -0.868086 1.31537 0
M  V30 7873 C 726.71 -1.95703 1.19302 0
M  V30 7874 C 727.71 -1.60355 0.119612 0
M  V30 7875 O 728.9 -1.70247 0.36902 0
M  V30 7876 C 726.032 -3.30599 0.831684 0
M  V30 7877 H 727.225 -2.07982 2.16064 0
M  V30 7878 H 724.778 -1.05661 1.15176 0
M  V30 7879 H 725.513 -3.2402 -0.134694 0
M  V30 7880 H 725.298 -3.57629 1.60761 0
M  V30 7881 H 726.788 -4.10439 0.770026 0
M  V30 7882 N 727.225 -1.14528 -1.08264 0
M  V30 7883 C 728.188 -0.83632 -2.13397 0
M  V30 7884 C 729.188 0.159715 -1.60005 0
M  V30 7885 O 730.378 -0.0688098 -1.74064 0
M  V30 7886 C 727.51 -0.246973 -3.40004 0
M  V30 7887 H 728.703 -1.76808 -2.42237 0
M  V30 7888 H 726.256 -0.951509 -1.24 0
M  V30 7889 H 726.991 0.693436 -3.168 0
M  V30 7890 H 726.776 -0.964412 -3.80055 0
M  V30 7891 H 728.266 -0.0480679 -4.17572 0
M  V30 7892 N 728.703 1.26451 -0.940633 0
M  V30 7893 C 729.951 1.93395 -0.586748 0
M  V30 7894 C 730.272 1.7417 0.876921 0
M  V30 7895 O 729.542 1.097 1.62304 0
M  V30 7896 H 728.122 0.715687 -0.214012 0
M  V30 7897 H 730.784 1.53902 -1.19584 0
M  V30 7898 H 729.88 3.01565 -0.804059 0
M  V30 7899 N 730.181 0.707592 1.40822 0
M  V30 7900 C 731.111 0.0644925 2.33411 0
M  V30 7901 C 732.092 -0.754205 1.52466 0
M  V30 7902 O 733.277 -0.704749 1.80961 0
M  V30 7903 C 730.407 -0.863865 3.36385 0
M  V30 7904 C 729.361 -0.15138 4.27732 0
M  V30 7905 C 728.687 -1.19491 5.21177 0
M  V30 7906 C 729.987 0.989607 5.12839 0
M  V30 7907 H 731.681 0.837829 2.87438 0
M  V30 7908 H 729.227 0.404346 1.38207 0
M  V30 7909 H 731.18 -1.32309 4.0009 0
M  V30 7910 H 729.904 -1.66901 2.80734 0
M  V30 7911 H 728.563 0.287937 3.65467 0
M  V30 7912 H 728.211 -1.9929 4.61836 0
M  V30 7913 H 727.911 -0.723123 5.83134 0
M  V30 7914 H 729.435 -1.6544 5.8776 0
M  V30 7915 H 730.849 0.610114 5.70044 0
M  V30 7916 H 729.246 1.38926 5.83798 0
M  V30 7917 H 730.316 1.82389 4.49291 0
M  V30 7918 N 731.66 -1.50943 0.453197 0
M  V30 7919 C 732.61 -2.25003 -0.368467 0
M  V30 7920 C 733.594 -1.27864 -0.976714 0
M  V30 7921 O 734.786 -1.52867 -0.892228 0
M  V30 7922 C 731.915 -3.10701 -1.46014 0
M  V30 7923 C 731.001 -4.15278 -0.860506 0
M  V30 7924 N 731.392 -5.05799 0.00849611 0
M  V30 7925 C 729.69 -4.31542 -1.1264 0
M  V30 7926 C 730.391 -5.80664 0.346951 0
M  V30 7927 N 729.367 -5.42912 -0.273426 0
M  V30 7928 H 733.169 -2.92352 0.301246 0
M  V30 7929 H 730.683 -1.60203 0.266233 0
M  V30 7930 H 732.68 -3.62348 -2.06179 0
M  V30 7931 H 731.34 -2.44898 -2.13202 0
M  V30 7932 H 732.351 -5.16533 0.376077 0
M  V30 7933 H 729.028 -3.76962 -1.7946 0
M  V30 7934 H 730.418 -6.63565 1.05507 0
M  V30 7935 N 733.138 -0.185124 -1.56509 0
M  V30 7936 C 734.554 0.170865 -1.58683 0
M  V30 7937 C 734.754 1.61799 -1.20098 0
M  V30 7938 O 733.81 2.35181 -0.919038 0
M  V30 7939 C 735.123 -0.122459 -3.00451 0
M  V30 7940 C 736.671 -0.0617699 -3.12939 0
M  V30 7941 C 737.146 -0.328269 -4.56822 0
M  V30 7942 N 738.637 -0.276533 -4.62374 0
M  V30 7943 C 739.372 -0.456722 -5.71578 0
M  V30 7944 N 738.868 -0.69672 -6.89288 0
M  V30 7945 N 740.661 -0.391669 -5.60734 0
M  V30 7946 H 732.812 -1.12956 -1.79874 0
M  V30 7947 H 735.075 -0.45011 -0.834329 0
M  V30 7948 H 734.781 -1.12546 -3.33206 0
M  V30 7949 H 734.655 0.579578 -3.72721 0
M  V30 7950 H 737.042 0.931826 -2.80002 0
M  V30 7951 H 737.123 -0.796732 -2.43076 0
M  V30 7952 H 736.767 -1.31914 -4.9047 0
M  V30 7953 H 736.697 0.427465 -5.24862 0
M  V30 7954 H 739.188 -0.0972458 -3.77775 0
M  V30 7955 H 739.501 -0.823291 -7.68402 0
M  V30 7956 H 737.846 -0.733497 -6.91119 0
M  V30 7957 H 741.037 -0.204663 -4.67652 0
M  V30 7958 H 741.21 -0.535518 -6.45783 0
M  V30 7959 N 734.616 1.57351 0.0885366 0
M  V30 7960 C 736.027 1.75303 0.642308 0
M  V30 7961 C 736.378 0.808238 1.78779 0
M  V30 7962 O 735.503 -0.01171 2.16397 0
M  V30 7963 C 736.098 3.17885 1.17194 0
M  V30 7964 C 734.657 3.37239 1.67172 0
M  V30 7965 C 733.804 2.7108 0.584045 0
M  V30 7966 H 736.755 1.58103 -0.137567 0
M  V30 7967 H 736.776 3.2112 2.04114 0
M  V30 7968 H 736.288 3.86625 0.338024 0
M  V30 7969 H 734.389 2.73588 2.52943 0
M  V30 7970 H 734.502 4.45594 1.76019 0
M  V30 7971 H 732.866 2.33161 1.02508 0
M  V30 7972 H 733.649 3.42464 -0.239403 0
M  V30 7973 N 736.094 -0.359525 1.53444 0
M  V30 7974 C 737.51 -0.701599 1.43352 0
M  V30 7975 C 737.71 -1.93049 0.577439 0
M  V30 7976 O 736.766 -2.52423 0.0622224 0
M  V30 7977 C 738.079 -0.90915 2.86627 0
M  V30 7978 C 739.627 -1.00878 2.96298 0
M  V30 7979 C 740.102 -1.24876 4.40647 0
M  V30 7980 N 741.593 -1.31632 4.44103 0
M  V30 7981 C 742.328 -1.51922 5.52908 0
M  V30 7982 N 741.824 -1.69489 6.71748 0
M  V30 7983 N 743.617 -1.54341 5.40496 0
M  V30 7984 H 735.768 0.448685 2.07607 0
M  V30 7985 H 738.031 0.138713 0.937797 0
M  V30 7986 H 737.737 -0.0778997 3.51614 0
M  V30 7987 H 737.611 -1.81551 3.30634 0
M  V30 7988 H 739.998 -1.83057 2.31461 0
M  V30 7989 H 740.079 -0.0796721 2.55676 0
M  V30 7990 H 739.723 -0.431961 5.0606 0
M  V30 7991 H 739.653 -2.19118 4.78848 0
M  V30 7992 H 742.144 -1.19646 3.5846 0
M  V30 7993 H 742.457 -1.84561 7.50438 0
M  V30 7994 H 740.802 -1.66655 6.74723 0
M  V30 7995 H 743.993 -1.40188 4.46615 0
M  V30 7996 H 744.166 -1.69812 6.25354 0
M  V30 7997 N 737.572 -1.44907 -0.619662 0
M  V30 7998 C 738.797 -1.52021 -1.41083 0
M  V30 7999 C 739.222 -0.14976 -1.87503 0
M  V30 8000 O 738.58 0.863303 -1.59426 0
M  V30 8001 C 738.628 -2.49911 -2.59955 0
M  V30 8002 O 737.732 -2.00857 -3.60181 0
M  V30 8003 H 737.073 -0.512912 -0.421684 0
M  V30 8004 H 739.603 -1.90149 -0.755282 0
M  V30 8005 H 739.613 -2.68323 -3.07354 0
M  V30 8006 H 738.288 -3.4945 -2.25516 0
M  V30 8007 H 736.865 -1.92265 -3.19513 0
M  V30 8008 N 739.05 0.861098 -1.31996 0
M  V30 8009 C 740.275 1.65264 -1.2531 0
M  V30 8010 C 740.7 1.87265 0.177007 0
M  V30 8011 O 740.058 1.4208 1.12619 0
M  V30 8012 C 740.106 2.99284 -2.0115 0
M  V30 8013 O 739.21 3.89508 -1.3549 0
M  V30 8014 H 738.551 0.50409 -0.432192 0
M  V30 8015 H 741.081 1.07297 -1.74208 0
M  V30 8016 H 741.091 3.49154 -2.11081 0
M  V30 8017 H 739.766 2.82591 -3.05148 0
M  V30 8018 H 738.343 3.47966 -1.34066 0
M  V30 8019 N 740.528 1.15101 1.07655 0
M  V30 8020 C 741.775 0.923974 1.80191 0
M  V30 8021 C 742.103 -0.549065 1.86589 0
M  V30 8022 O 741.358 -1.42307 1.3434 0
M  V30 8023 C 741.657 1.47954 3.25337 0
M  V30 8024 C 741.323 2.97253 3.39044 0
M  V30 8025 C 739.985 3.38012 3.42493 0
M  V30 8026 C 742.337 3.93219 3.42094 0
M  V30 8027 C 739.665 4.73384 3.4659 0
M  V30 8028 C 742.017 5.28458 3.47728 0
M  V30 8029 C 740.681 5.68717 3.49453 0
M  V30 8030 H 739.951 0.338106 0.659367 0
M  V30 8031 H 742.598 1.43594 1.26701 0
M  V30 8032 H 740.903 0.888691 3.81588 0
M  V30 8033 H 742.6 1.27972 3.80032 0
M  V30 8034 H 739.19 2.64746 3.37057 0
M  V30 8035 H 743.374 3.62805 3.38654 0
M  V30 8036 H 738.63 5.03925 3.46222 0
M  V30 8037 H 742.804 6.02618 3.49034 0
M  V30 8038 H 740.431 6.73596 3.5238 0
M  V30 8039 N 742.006 -1.2595 0.947325 0
M  V30 8040 C 743.283 -1.88676 0.515824 0
M  V30 8041 C 743.663 -1.85547 -1.00675 0
M  V30 8042 O 743.011 -1.31399 -1.8694 0
M  V30 8043 C 743.221 -3.31734 1.08415 0
M  V30 8044 C 744.569 -4.08545 1.15654 0
M  V30 8045 O 745.593 -3.40826 1.03517 0
M  V30 8046 O 744.452 -5.29663 1.34608 0
M  V30 8047 H 741.546 -0.809537 0.169055 0
M  V30 8048 H 744.092 -1.34075 1.04029 0
M  V30 8049 H 742.864 -3.28404 2.1276 0
M  V30 8050 H 742.487 -3.93882 0.542499 0
M  V30 8051 N 743.484 -0.715051 -1.40445 0
M  V30 8052 C 744.709 -0.26254 -2.05732 0
M  V30 8053 C 745.134 1.08691 -1.53519 0
M  V30 8054 O 744.492 1.68453 -0.670328 0
M  V30 8055 C 744.54 -0.25195 -3.59719 0
M  V30 8056 O 743.644 0.766998 -4.05205 0
M  V30 8057 H 742.985 -0.123398 -0.652433 0
M  V30 8058 H 745.515 -0.975382 -1.79854 0
M  V30 8059 H 745.525 -0.0894537 -4.07902 0
M  V30 8060 H 744.2 -1.23672 -3.97087 0
M  V30 8061 H 742.777 0.572269 -3.68483 0
M  V30 8062 N 744.962 1.50701 -0.461195 0
M  V30 8063 C 746.19 2.06681 0.0951756 0
M  V30 8064 C 746.605 1.32615 1.34382 0
M  V30 8065 O 745.962 0.392531 1.78229 0
M  V30 8066 C 746.013 3.59354 0.393316 0
M  V30 8067 O 745.734 4.30626 -0.805797 0
M  V30 8068 C 747.235 4.31926 0.997744 0
M  V30 8069 H 744.455 0.670995 -0.00267259 0
M  V30 8070 H 746.999 1.93991 -0.647137 0
M  V30 8071 H 745.154 3.7188 1.08555 0
M  V30 8072 H 745.568 5.21667 -0.544409 0
M  V30 8073 H 747.042 5.39756 1.15619 0
M  V30 8074 H 747.519 3.91772 1.98523 0
M  V30 8075 H 748.125 4.23905 0.344188 0
M  V30 8076 N 746.441 0.193421 1.56409 0
M  V30 8077 C 747.669 -0.451438 2.01915 0
M  V30 8078 C 748.084 -1.55306 1.07357 0
M  V30 8079 O 747.441 -1.82333 0.0781512 0
M  V30 8080 C 747.492 -1.00931 3.47124 0
M  V30 8081 O 747.213 0.0483623 4.38073 0
M  V30 8082 C 748.714 -1.73021 4.0814 0
M  V30 8083 H 745.934 -0.113495 0.661332 0
M  V30 8084 H 748.478 0.301636 2.02263 0
M  V30 8085 H 746.633 -1.71277 3.47481 0
M  V30 8086 H 747.047 -0.366644 5.23217 0
M  V30 8087 H 748.521 -2.07289 5.11601 0
M  V30 8088 H 748.998 -2.6333 3.51502 0
M  V30 8089 H 749.604 -1.07264 4.11551 0
M  V30 8090 N 747.919 -1.57396 -0.0801906 0
M  V30 8091 C 748.882 -2.02133 -1.0805 0
M  V30 8092 C 749.882 -0.91707 -1.32085 0
M  V30 8093 O 751.072 -1.18217 -1.27947 0
M  V30 8094 C 748.204 -2.39479 -2.42616 0
M  V30 8095 H 749.397 -2.91733 -0.6951 0
M  V30 8096 H 746.95 -1.52869 -0.325677 0
M  V30 8097 H 747.685 -1.52879 -2.86004 0
M  V30 8098 H 747.47 -3.20052 -2.26515 0
M  V30 8099 H 748.96 -2.74697 -3.14534 0
M  V30 8100 N 749.397 0.351382 -1.53633 0
M  V30 8101 C 750.307 1.45471 -1.84052 0
M  V30 8102 C 751.323 1.57945 -0.730015 0
M  V30 8103 O 752.499 1.73571 -1.02153 0
M  V30 8104 C 749.564 2.80562 -2.03681 0
M  V30 8105 C 748.625 2.77497 -3.27558 0
M  V30 8106 C 747.858 4.06144 -3.46241 0
M  V30 8107 O 748.081 5.03028 -2.68922 0
M  V30 8108 O 747.015 4.11092 -4.39645 0
M  V30 8109 H 750.841 1.22684 -2.77817 0
M  V30 8110 H 748.426 0.542827 -1.3919 0
M  V30 8111 H 750.308 3.6058 -2.18082 0
M  V30 8112 H 748.983 3.03296 -1.13106 0
M  V30 8113 H 747.89 1.96126 -3.18568 0
M  V30 8114 H 749.223 2.59716 -4.18101 0
M  V30 8115 N 750.875 1.45233 0.611969 0
M  V30 8116 C 752.1 1.52767 1.40274 0
M  V30 8117 C 752.525 0.159701 1.87421 0
M  V30 8118 O 751.883 -0.854837 1.59882 0
M  V30 8119 C 751.931 2.51286 2.58626 0
M  V30 8120 O 751.035 2.02764 3.59111 0
M  V30 8121 H 750.376 0.515141 0.418958 0
M  V30 8122 H 752.906 1.90547 0.745188 0
M  V30 8123 H 752.916 2.69949 3.05927 0
M  V30 8124 H 751.591 3.50641 2.23659 0
M  V30 8125 H 750.168 1.93957 3.18489 0
M  V30 8126 N 752.353 -0.854086 1.3245 0
M  V30 8127 C 753.303 -1.9508 1.18016 0
M  V30 8128 C 754.287 -1.60665 0.0869417 0
M  V30 8129 O 755.479 -1.74201 0.313505 0
M  V30 8130 C 752.608 -3.3113 0.905961 0
M  V30 8131 C 751.694 -3.71763 2.04091 0
M  V30 8132 N 752.085 -3.84218 3.28953 0
M  V30 8133 C 750.383 -4.01393 1.94421 0
M  V30 8134 C 751.084 -4.192 4.03294 0
M  V30 8135 N 750.06 -4.30749 3.31596 0
M  V30 8136 H 753.862 -2.02843 2.12678 0
M  V30 8137 H 751.376 -1.04588 1.24238 0
M  V30 8138 H 753.373 -4.09471 0.783508 0
M  V30 8139 H 752.033 -3.24684 -0.0322715 0
M  V30 8140 H 753.044 -3.68524 3.63883 0
M  V30 8141 H 749.721 -4.03246 1.08162 0
M  V30 8142 H 751.111 -4.36301 5.1097 0
M  V30 8143 N 753.831 -1.1567 -1.07043 0
M  V30 8144 C 755.056 -0.957946 -1.83952 0
M  V30 8145 C 755.481 0.488807 -1.81638 0
M  V30 8146 O 754.839 1.34869 -1.21162 0
M  V30 8147 C 754.887 -1.48064 -3.288 0
M  V30 8148 O 753.991 -0.681921 -4.06723 0
M  V30 8149 H 753.332 -0.341453 -0.569479 0
M  V30 8150 H 755.862 -1.53728 -1.35015 0
M  V30 8151 H 755.872 -1.49484 -3.7963 0
M  V30 8152 H 754.547 -2.53388 -3.29799 0
M  V30 8153 H 753.124 -0.737612 -3.65532 0
M  V30 8154 N 755.309 1.25446 -0.953992 0
M  V30 8155 C 756.239 2.28264 -0.491717 0
M  V30 8156 C 757.22 1.63717 0.461617 0
M  V30 8157 O 758.405 1.90821 0.36071 0
M  V30 8158 C 755.535 3.46525 0.231915 0
M  V30 8159 C 754.489 4.23247 -0.636098 0
M  V30 8160 C 753.815 5.34254 0.218238 0
M  V30 8161 C 755.115 4.85971 -1.91389 0
M  V30 8162 H 756.809 2.67183 -1.35106 0
M  V30 8163 H 754.355 1.2844 -0.651095 0
M  V30 8164 H 756.308 4.17576 0.566439 0
M  V30 8165 H 755.032 3.06594 1.12551 0
M  V30 8166 H 753.691 3.53978 -0.953696 0
M  V30 8167 H 753.339 4.90564 1.11156 0
M  V30 8168 H 753.039 5.86501 -0.359232 0
M  V30 8169 H 754.563 6.08138 0.547743 0
M  V30 8170 H 755.977 5.49168 -1.64581 0
M  V30 8171 H 754.374 5.48391 -2.43696 0
M  V30 8172 H 755.444 4.08192 -2.61738 0
M  V30 8173 N 756.787 0.722489 1.40064 0
M  V30 8174 C 758.012 0.273446 2.05589 0
M  V30 8175 C 758.437 -1.07875 1.54093 0
M  V30 8176 O 757.795 -1.68095 0.679252 0
M  V30 8177 C 757.843 0.271023 3.5958 0
M  V30 8178 O 756.947 -0.745499 4.05606 0
M  V30 8179 H 756.288 0.126856 0.65177 0
M  V30 8180 H 758.818 0.984906 1.79334 0
M  V30 8181 H 758.828 0.111084 4.07849 0
M  V30 8182 H 757.503 1.25776 3.96425 0
M  V30 8183 H 756.08 -0.552719 3.68781 0
M  V30 8184 N 758.265 -1.50454 0.469181 0
M  V30 8185 C 759.513 -2.01916 -0.0862982 0
M  V30 8186 C 759.834 -1.35337 -1.40388 0
M  V30 8187 O 759.104 -0.498096 -1.89462 0
M  V30 8188 H 757.684 -0.746185 -0.0348825 0
M  V30 8189 H 760.346 -1.84804 0.619167 0
M  V30 8190 H 759.442 -3.11182 -0.239189 0
M  V30 8191 N 759.743 -0.201713 -1.56304 0
M  V30 8192 C 760.968 0.443815 -2.02596 0
M  V30 8193 C 761.393 1.53945 -1.08086 0
M  V30 8194 O 760.751 1.81182 -0.0655056 0
M  V30 8195 C 760.799 0.971066 -3.47279 0
M  V30 8196 O 759.903 2.0836 -3.55893 0
M  V30 8197 H 759.244 0.10294 -0.655972 0
M  V30 8198 H 761.774 -0.314533 -2.02168 0
M  V30 8199 H 761.784 1.28598 -3.87204 0
M  V30 8200 H 760.459 0.169048 -4.15556 0
M  V30 8201 H 759.036 1.77683 -3.27846 0
M  V30 8202 N 761.222 1.57436 0.0718424 0
M  V30 8203 C 762.152 2.06724 1.08571 0
M  V30 8204 C 763.133 0.960731 1.40371 0
M  V30 8205 O 764.318 1.23345 1.49999 0
M  V30 8206 C 761.448 2.51112 2.39916 0
M  V30 8207 C 760.402 3.65639 2.22469 0
M  V30 8208 C 759.728 3.96082 3.59198 0
M  V30 8209 C 761.028 4.95687 1.64596 0
M  V30 8210 H 762.722 2.91679 0.675569 0
M  V30 8211 H 760.268 1.40319 0.32352 0
M  V30 8212 H 762.221 2.84206 3.11135 0
M  V30 8213 H 760.945 1.63186 2.8291 0
M  V30 8214 H 759.604 3.32828 1.53691 0
M  V30 8215 H 759.252 3.05287 3.99761 0
M  V30 8216 H 758.952 4.73199 3.48362 0
M  V30 8217 H 760.476 4.31672 4.31847 0
M  V30 8218 H 761.89 5.27011 2.25681 0
M  V30 8219 H 760.287 5.77126 1.64457 0
M  V30 8220 H 761.357 4.8108 0.60744 0
M  V30 8221 N 762.7 -0.34323 1.53817 0
M  V30 8222 C 763.928 -1.10348 1.75017 0
M  V30 8223 C 764.343 -1.82345 0.489475 0
M  V30 8224 O 763.7 -1.74362 -0.538886 0
M  V30 8225 C 763.751 -2.11672 2.93048 0
M  V30 8226 O 763.472 -1.42603 4.14241 0
M  V30 8227 C 764.973 -3.0007 3.26301 0
M  V30 8228 H 762.193 -0.329056 0.584776 0
M  V30 8229 H 764.737 -0.395339 2.00642 0
M  V30 8230 H 762.892 -2.78051 2.69753 0
M  V30 8231 H 763.306 -2.10294 4.80496 0
M  V30 8232 H 764.78 -3.67101 4.12239 0
M  V30 8233 H 765.257 -3.66105 2.42618 0
M  V30 8234 H 765.863 -2.3928 3.51604 0
M  V30 8235 N 764.178 -1.45556 -0.604258 0
M  V30 8236 C 765.426 -1.4945 -1.36048 0
M  V30 8237 C 765.747 -0.138933 -1.94504 0
M  V30 8238 O 765.017 0.832097 -1.7735 0
M  V30 8239 H 763.597 -0.550381 -0.505064 0
M  V30 8240 H 766.259 -1.81535 -0.709308 0
M  V30 8241 H 765.355 -2.23519 -2.17821 0
M  V30 8242 N 765.656 0.84705 -1.32902 0
M  V30 8243 C 766.881 1.63925 -1.27056 0
M  V30 8244 C 767.306 1.87443 0.157136 0
M  V30 8245 O 766.664 1.43266 1.11106 0
M  V30 8246 C 766.712 2.97134 -2.04313 0
M  V30 8247 O 765.816 3.88049 -1.39614 0
M  V30 8248 H 765.157 0.499477 -0.437514 0
M  V30 8249 H 767.687 1.05443 -1.75336 0
M  V30 8250 H 767.697 3.46896 -2.14772 0
M  V30 8251 H 766.372 2.79339 -3.08128 0
M  V30 8252 H 764.949 3.46525 -1.3775 0
M  V30 8253 N 767.134 1.16236 1.06428 0
M  V30 8254 C 768.064 0.890807 2.1584 0
M  V30 8255 C 769.045 -0.162333 1.69324 0
M  V30 8256 O 770.23 -0.0147191 1.94194 0
M  V30 8257 C 767.36 0.389615 3.45108 0
M  V30 8258 C 766.314 1.38051 4.05125 0
M  V30 8259 C 765.64 0.737773 5.29586 0
M  V30 8260 C 766.94 2.74965 4.44062 0
M  V30 8261 H 768.634 1.80577 2.38814 0
M  V30 8262 H 766.18 0.869657 1.14774 0
M  V30 8263 H 768.133 0.187127 4.20984 0
M  V30 8264 H 766.857 -0.560851 3.21748 0
M  V30 8265 H 765.516 1.56952 3.31303 0
M  V30 8266 H 765.164 -0.219135 5.02522 0
M  V30 8267 H 764.864 1.39914 5.70699 0
M  V30 8268 H 766.388 0.545275 6.0816 0
M  V30 8269 H 767.802 2.59855 5.11027 0
M  V30 8270 H 766.199 3.37563 4.96156 0
M  V30 8271 H 767.269 3.30321 3.54987 0
M  V30 8272 N 768.612 -1.24939 0.960631 0
M  V30 8273 C 769.84 -1.96881 0.636045 0
M  V30 8274 C 770.255 -1.71334 -0.793093 0
M  V30 8275 O 769.612 -0.992917 -1.53125 0
M  V30 8276 C 769.663 -3.50309 0.892533 0
M  V30 8277 O 769.384 -3.74977 2.26548 0
M  V30 8278 C 770.885 -4.39474 0.581159 0
M  V30 8279 H 768.105 -0.627399 0.237931 0
M  V30 8280 H 770.649 -1.58952 1.28664 0
M  V30 8281 H 768.804 -3.86326 0.288257 0
M  V30 8282 H 769.218 -4.69401 2.34014 0
M  V30 8283 H 770.692 -5.46008 0.811125 0
M  V30 8284 H 771.169 -4.3652 -0.48443 0
M  V30 8285 H 771.775 -4.09032 1.16502 0
M  V30 8286 N 770.09 -0.729906 -1.39679 0
M  V30 8287 C 771.338 -0.275077 -2.00219 0
M  V30 8288 C 771.659 1.1401 -1.58199 0
M  V30 8289 O 770.929 1.77546 -0.827904 0
M  V30 8290 H 769.509 -0.0987127 -0.740449 0
M  V30 8291 H 772.171 -0.93873 -1.70804 0
M  V30 8292 H 771.267 -0.319446 -3.10461 0
M  V30 8293 N 771.568 1.50203 -0.477153 0
M  V30 8294 C 772.793 2.07263 0.0754986 0
M  V30 8295 C 773.218 1.33801 1.32208 0
M  V30 8296 O 772.576 0.387482 1.77111 0
M  V30 8297 C 772.624 3.59028 0.336348 0
M  V30 8298 O 771.728 3.87339 1.4157 0
M  V30 8299 H 771.069 0.663815 -0.015662 0
M  V30 8300 H 773.599 1.93321 -0.669936 0
M  V30 8301 H 773.609 4.03927 0.575034 0
M  V30 8302 H 772.284 4.11912 -0.574551 0
M  V30 8303 H 770.861 3.54272 1.16385 0
M  V30 8304 N 773.046 0.209999 1.56195 0
M  V30 8305 C 774.274 -0.429996 2.02382 0
M  V30 8306 C 774.689 -1.54159 1.08998 0
M  V30 8307 O 774.046 -1.82239 0.0974856 0
M  V30 8308 C 774.097 -0.972433 3.48175 0
M  V30 8309 O 773.818 0.0948231 4.37997 0
M  V30 8310 C 775.319 -1.68683 4.09952 0
M  V30 8311 H 772.539 -0.106475 0.662498 0
M  V30 8312 H 775.083 0.323072 2.01932 0
M  V30 8313 H 773.238 -1.67582 3.49278 0
M  V30 8314 H 773.652 -0.31113 5.23576 0
M  V30 8315 H 775.126 -2.01851 5.13771 0
M  V30 8316 H 775.603 -2.59587 3.54276 0
M  V30 8317 H 776.209 -1.02893 4.12666 0
M  V30 8318 N 774.524 -1.57472 -0.0634922 0
M  V30 8319 C 775.454 -2.07297 -1.07473 0
M  V30 8320 C 776.435 -0.968162 -1.39859 0
M  V30 8321 O 777.62 -1.24139 -1.49343 0
M  V30 8322 C 774.75 -2.52381 -2.38581 0
M  V30 8323 C 773.704 -3.66813 -2.20526 0
M  V30 8324 C 773.03 -3.97982 -3.57092 0
M  V30 8325 C 774.33 -4.96553 -1.61965 0
M  V30 8326 H 776.024 -2.92033 -0.660092 0
M  V30 8327 H 773.57 -1.40488 -0.316074 0
M  V30 8328 H 775.523 -2.85852 -3.09624 0
M  V30 8329 H 774.247 -1.64684 -2.8204 0
M  V30 8330 H 772.906 -3.33639 -1.51924 0
M  V30 8331 H 772.554 -3.07403 -3.98136 0
M  V30 8332 H 772.254 -4.7504 -3.45848 0
M  V30 8333 H 773.778 -4.33956 -4.29552 0
M  V30 8334 H 775.192 -5.28201 -2.22883 0
M  V30 8335 H 773.589 -5.7799 -1.61394 0
M  V30 8336 H 774.659 -4.81396 -0.581918 0
M  V30 8337 N 776.003 0.335068 -1.53997 0
M  V30 8338 C 777.228 1.09859 -1.75914 0
M  V30 8339 C 777.653 1.81308 -0.500915 0
M  V30 8340 O 777.011 1.72854 0.54693 0
M  V30 8341 C 777.059 2.08122 -2.94478 0
M  V30 8342 O 776.163 3.15805 -2.65219 0
M  V30 8343 H 775.504 0.317313 -0.583274 0
M  V30 8344 H 778.034 0.382872 -2.00986 0
M  V30 8345 H 778.044 2.51195 -3.21504 0
M  V30 8346 H 776.719 1.55517 -3.8573 0
M  V30 8347 H 775.296 2.77489 -2.49107 0
M  V30 8348 N 777.481 1.45874 0.596531 0
M  V30 8349 C 778.706 1.54247 1.38646 0
M  V30 8350 C 779.131 0.179571 1.87241 0
M  V30 8351 O 778.489 -0.837831 1.6078 0
M  V30 8352 C 778.537 2.54015 2.55946 0
M  V30 8353 O 777.641 2.06561 3.5694 0
M  V30 8354 H 776.982 0.519555 0.413471 0
M  V30 8355 H 779.512 1.91327 0.724936 0
M  V30 8356 H 779.522 2.73179 3.03047 0
M  V30 8357 H 778.197 3.52994 2.19928 0
M  V30 8358 H 776.774 1.97324 3.16414 0
M  V30 8359 N 778.959 -0.83999 1.33349 0
M  V30 8360 C 780.205 -1.59753 1.24927 0
M  V30 8361 C 780.538 -1.93318 -0.184855 0
M  V30 8362 O 779.813 -1.586 -1.12589 0
M  V30 8363 C 780.096 -2.90829 2.12345 0
M  V30 8364 C 779.949 -2.63953 3.6421 0
M  V30 8365 C 781.268 -3.92246 1.99577 0
M  V30 8366 H 778.387 -0.579654 0.45516 0
M  V30 8367 H 781.029 -0.968909 1.63439 0
M  V30 8368 H 779.179 -3.44478 1.79631 0
M  V30 8369 H 780.851 -2.16745 4.07209 0
M  V30 8370 H 779.094 -1.97671 3.86146 0
M  V30 8371 H 779.765 -3.57348 4.20721 0
M  V30 8372 H 782.241 -3.479 2.28265 0
M  V30 8373 H 781.117 -4.81793 2.62996 0
M  V30 8374 H 781.378 -4.3138 0.967673 0
M  V30 8375 N 780.437 -1.16799 -1.0581 0
M  V30 8376 C 781.662 -0.977402 -1.82925 0
M  V30 8377 C 782.087 0.469514 -1.82146 0
M  V30 8378 O 781.445 1.33576 -1.22585 0
M  V30 8379 C 781.493 -1.51543 -3.27211 0
M  V30 8380 O 780.597 -0.725021 -4.05977 0
M  V30 8381 H 779.938 -0.347474 -0.565825 0
M  V30 8382 H 782.468 -1.55151 -1.33376 0
M  V30 8383 H 782.478 -1.53502 -3.78023 0
M  V30 8384 H 781.153 -2.56872 -3.27093 0
M  V30 8385 H 779.73 -0.77634 -3.64729 0
M  V30 8386 N 781.915 1.24427 -0.967243 0
M  V30 8387 C 783.326 1.74349 -0.667785 0
M  V30 8388 C 783.677 1.78403 0.816509 0
M  V30 8389 O 782.802 1.41315 1.63887 0
M  V30 8390 C 783.397 3.16628 -1.20548 0
M  V30 8391 C 781.956 3.64059 -0.955934 0
M  V30 8392 C 781.103 2.42715 -1.34106 0
M  V30 8393 H 784.054 1.10136 -1.14262 0
M  V30 8394 H 784.075 3.76183 -0.571547 0
M  V30 8395 H 783.587 3.13646 -2.28578 0
M  V30 8396 H 781.688 3.72441 0.108858 0
M  V30 8397 H 781.801 4.51549 -1.60126 0
M  V30 8398 H 780.165 2.43114 -0.759452 0
M  V30 8399 H 780.948 2.42414 -2.43085 0
M  V30 8400 N 783.393 0.737304 1.3929 0
M  V30 8401 C 784.809 0.413132 1.5416 0
M  V30 8402 C 785.009 -1.07574 1.70382 0
M  V30 8403 O 784.065 -1.86185 1.70562 0
M  V30 8404 C 785.378 1.19817 2.75798 0
M  V30 8405 C 786.926 1.18662 2.89635 0
M  V30 8406 C 787.401 1.95427 4.14213 0
M  V30 8407 N 788.892 1.92605 4.21257 0
M  V30 8408 C 789.627 2.48808 5.16606 0
M  V30 8409 N 789.123 3.13659 6.1773 0
M  V30 8410 N 790.916 2.38829 5.08839 0
M  V30 8411 H 783.067 1.70243 1.27008 0
M  V30 8412 H 785.33 0.720802 0.61575 0
M  V30 8413 H 785.036 2.25179 2.70161 0
M  V30 8414 H 784.91 0.804144 3.68529 0
M  V30 8415 H 787.297 0.141112 2.94762 0
M  V30 8416 H 787.378 1.62003 1.97961 0
M  V30 8417 H 787.022 2.9998 4.09847 0
M  V30 8418 H 786.952 1.4949 5.04936 0
M  V30 8419 H 789.443 1.45362 3.48824 0
M  V30 8420 H 789.756 3.54006 6.8695 0
M  V30 8421 H 788.101 3.17749 6.1811 0
M  V30 8422 H 791.292 1.87806 4.28773 0
M  V30 8423 H 791.465 2.82929 5.82971 0
M  V30 8424 N 784.871 -1.49948 0.485112 0
M  V30 8425 C 785.801 -2.31675 -0.291364 0
M  V30 8426 C 786.782 -1.39216 -0.977383 0
M  V30 8427 O 787.967 -1.68133 -0.971855 0
M  V30 8428 C 785.097 -3.19326 -1.36558 0
M  V30 8429 C 784.051 -4.2045 -0.800359 0
M  V30 8430 C 783.377 -4.96931 -1.97391 0
M  V30 8431 C 784.677 -5.21925 0.197867 0
M  V30 8432 H 786.371 -2.96839 0.390775 0
M  V30 8433 H 783.917 -1.42749 0.189375 0
M  V30 8434 H 785.87 -3.75304 -1.91638 0
M  V30 8435 H 784.594 -2.52074 -2.07668 0
M  V30 8436 H 783.253 -3.65594 -0.271428 0
M  V30 8437 H 782.901 -4.26141 -2.67232 0
M  V30 8438 H 782.601 -5.65344 -1.60187 0
M  V30 8439 H 784.125 -5.55749 -2.52935 0
M  V30 8440 H 785.539 -5.72691 -0.264239 0
M  V30 8441 H 783.936 -5.98138 0.484908 0
M  V30 8442 H 785.006 -4.71809 1.11912 0
M  V30 8443 N 786.349 -0.21828 -1.56081 0
M  V30 8444 C 787.597 0.413488 -1.97825 0
M  V30 8445 C 787.918 1.60527 -1.10707 0
M  V30 8446 O 787.188 1.9504 -0.183378 0
M  V30 8447 H 785.768 0.155757 -0.730581 0
M  V30 8448 H 788.43 -0.310413 -1.92412 0
M  V30 8449 H 787.526 0.742024 -3.03151 0
M  V30 8450 N 787.827 1.57504 0.0551401 0
M  V30 8451 C 789.052 1.92682 0.767352 0
M  V30 8452 C 789.477 0.81614 1.69472 0
M  V30 8453 O 788.835 -0.229989 1.79835 0
M  V30 8454 C 788.883 3.26866 1.52286 0
M  V30 8455 O 787.987 3.17274 2.63459 0
M  V30 8456 H 787.328 0.630502 0.208238 0
M  V30 8457 H 789.858 2.04592 0.0184026 0
M  V30 8458 H 789.868 3.61138 1.8985 0
M  V30 8459 H 788.543 4.07276 0.842541 0
M  V30 8460 H 787.12 2.94589 2.2863 0
M  V30 8461 N 789.305 -0.326896 1.54172 0
M  V30 8462 C 790.255 -1.40319 1.79707 0
M  V30 8463 C 791.239 -1.47056 0.652938 0
M  V30 8464 O 792.431 -1.51645 0.91284 0
M  V30 8465 C 789.56 -2.77222 2.02491 0
M  V30 8466 C 788.646 -2.74811 3.23016 0
M  V30 8467 N 789.037 -2.42022 4.44138 0
M  V30 8468 C 787.335 -3.05943 3.24522 0
M  V30 8469 C 788.036 -2.48263 5.26061 0
M  V30 8470 N 787.012 -2.84567 4.63166 0
M  V30 8471 H 790.814 -1.13892 2.70935 0
M  V30 8472 H 788.328 -0.53536 1.53322 0
M  V30 8473 H 790.325 -3.54793 2.18923 0
M  V30 8474 H 788.985 -3.04582 1.12515 0
M  V30 8475 H 789.996 -2.14926 4.71197 0
M  V30 8476 H 786.673 -3.38367 2.44569 0
M  V30 8477 H 788.063 -2.2593 6.32776 0
M  V30 8478 N 790.784 -1.46188 -0.588786 0
M  V30 8479 C 792.012 -1.54743 -1.37339 0
M  V30 8480 C 792.427 -0.186446 -1.87877 0
M  V30 8481 O 791.784 0.815247 -1.63279 0
M  V30 8482 C 791.835 -2.54727 -2.56508 0
M  V30 8483 O 791.556 -3.85539 -2.08066 0
M  V30 8484 C 793.057 -2.73163 -3.49137 0
M  V30 8485 H 790.277 -0.523484 -0.419768 0
M  V30 8486 H 792.821 -1.91543 -0.716345 0
M  V30 8487 H 790.976 -2.20948 -3.18215 0
M  V30 8488 H 791.39 -4.39905 -2.85629 0
M  V30 8489 H 792.864 -3.47057 -4.2925 0
M  V30 8490 H 793.341 -1.79856 -4.00685 0
M  V30 8491 H 793.947 -3.08014 -2.9327 0
M  V30 8492 N 792.262 0.832906 -1.33792 0
M  V30 8493 C 793.195 1.94788 -1.18882 0
M  V30 8494 C 794.173 1.62389 -0.0828426 0
M  V30 8495 O 795.357 1.86886 -0.246175 0
M  V30 8496 C 792.484 3.28506 -0.824728 0
M  V30 8497 C 791.53 3.79872 -1.93905 0
M  V30 8498 S 792.363 4.00832 -3.55097 0
M  V30 8499 C 793.519 5.37492 -3.20708 0
M  V30 8500 H 793.752 2.07137 -2.13264 0
M  V30 8501 H 791.285 0.987362 -1.18704 0
M  V30 8502 H 793.243 4.05769 -0.621442 0
M  V30 8503 H 791.904 3.13939 0.100587 0
M  V30 8504 H 791.097 4.76647 -1.6378 0
M  V30 8505 H 790.699 3.09524 -2.09931 0
M  V30 8506 H 792.991 6.20544 -2.71903 0
M  V30 8507 H 793.934 5.72593 -4.16584 0
M  V30 8508 H 794.342 5.02529 -2.57148 0
M  V30 8509 N 793.74 1.17359 1.05189 0
M  V30 8510 C 795.017 0.871914 1.75091 0
M  V30 8511 C 795.397 -0.627821 2.01548 0
M  V30 8512 O 794.745 -1.5791 1.65156 0
M  V30 8513 C 794.955 1.70687 3.04413 0
M  V30 8514 C 796.303 1.92684 3.78362 0
M  V30 8515 O 797.327 1.67645 3.14282 0
M  V30 8516 O 796.186 2.34765 4.93505 0
M  V30 8517 H 793.28 0.322831 0.761386 0
M  V30 8518 H 795.826 1.28054 1.11357 0
M  V30 8519 H 794.598 2.72405 2.80911 0
M  V30 8520 H 794.221 1.29602 3.75884 0
M  V30 8521 N 795.218 -1.23913 0.973828 0
M  V30 8522 C 796.465 -1.92151 0.639079 0
M  V30 8523 C 796.793 -1.76064 -0.826545 0
M  V30 8524 O 796.048 -1.11126 -1.61088 0
M  V30 8525 C 796.347 -3.4406 0.967356 0
M  V30 8526 C 796.013 -3.80321 2.42212 0
M  V30 8527 C 794.675 -3.8993 2.81971 0
M  V30 8528 C 797.027 -3.97935 3.36596 0
M  V30 8529 C 794.355 -4.14575 4.15144 0
M  V30 8530 C 796.707 -4.24079 4.69404 0
M  V30 8531 C 795.371 -4.31908 5.08932 0
M  V30 8532 H 794.641 -0.70313 0.233856 0
M  V30 8533 H 797.288 -1.47072 1.22646 0
M  V30 8534 H 795.593 -3.90667 0.297807 0
M  V30 8535 H 797.29 -3.95077 0.686654 0
M  V30 8536 H 793.88 -3.73411 2.10385 0
M  V30 8537 H 798.064 -3.89908 3.07059 0
M  V30 8538 H 793.32 -4.18858 4.45385 0
M  V30 8539 H 797.494 -4.36652 5.42502 0
M  V30 8540 H 795.121 -4.50758 6.12145 0
M  V30 8541 N 796.696 -0.74468 -1.38897 0
M  V30 8542 C 797.943 -0.296884 -2.00312 0
M  V30 8543 C 798.271 1.11878 -1.59102 0
M  V30 8544 O 797.526 1.7789 -0.815702 0
M  V30 8545 C 797.825 -0.357302 -3.55609 0
M  V30 8546 C 797.491 -1.72736 -4.16501 0
M  V30 8547 C 796.153 -2.10232 -4.32846 0
M  V30 8548 C 798.505 -2.62647 -4.50184 0
M  V30 8549 C 795.833 -3.3713 -4.80167 0
M  V30 8550 C 798.185 -3.88926 -4.98918 0
M  V30 8551 C 796.849 -4.26503 -5.1347 0
M  V30 8552 H 796.119 -0.108638 -0.732993 0
M  V30 8553 H 798.766 -0.953419 -1.66079 0
M  V30 8554 H 797.071 0.382805 -3.89925 0
M  V30 8555 H 798.768 0.0074596 -4.00999 0
M  V30 8556 H 795.358 -1.42585 -4.04187 0
M  V30 8557 H 799.542 -2.34945 -4.37166 0
M  V30 8558 H 794.798 -3.66174 -4.89619 0
M  V30 8559 H 798.972 -4.58745 -5.23952 0
M  V30 8560 H 796.599 -5.24896 -5.49898 0
M  V30 8561 N 798.174 1.49689 -0.493057 0
M  V30 8562 C 799.084 2.32746 0.294358 0
M  V30 8563 C 800.1 1.44117 0.975003 0
M  V30 8564 O 801.276 1.77149 0.958138 0
M  V30 8565 C 798.341 3.19358 1.34949 0
M  V30 8566 C 797.402 4.2383 0.683122 0
M  V30 8567 C 796.635 5.06303 1.68798 0
M  V30 8568 O 796.858 4.90172 2.91698 0
M  V30 8569 O 795.792 5.88826 1.24768 0
M  V30 8570 H 799.618 3.01247 -0.385254 0
M  V30 8571 H 797.203 1.47216 -0.254519 0
M  V30 8572 H 799.085 3.73037 1.96014 0
M  V30 8573 H 797.76 2.53561 2.01217 0
M  V30 8574 H 796.667 3.74086 0.0329351 0
M  V30 8575 H 798 4.9216 0.0630192 0
M  V30 8576 N 799.652 0.226554 1.55963 0
M  V30 8577 C 800.585 -0.721625 2.1649 0
M  V30 8578 C 801.563 -1.18745 1.11078 0
M  V30 8579 O 802.747 -1.26929 1.3936 0
M  V30 8580 C 799.874 -1.97828 2.74921 0
M  V30 8581 C 798.92 -1.65202 3.93206 0
M  V30 8582 S 799.753 -0.772419 5.299 0
M  V30 8583 C 800.909 -2.03853 5.91773 0
M  V30 8584 H 801.142 -0.207192 2.96577 0
M  V30 8585 H 798.675 0.0111976 1.54396 0
M  V30 8586 H 800.633 -2.69982 3.09225 0
M  V30 8587 H 799.294 -2.46384 1.94817 0
M  V30 8588 H 798.487 -2.58583 4.32609 0
M  V30 8589 H 798.089 -1.01108 3.60074 0
M  V30 8590 H 800.381 -2.98799 6.08051 0
M  V30 8591 H 801.324 -1.68831 6.87678 0
M  V30 8592 H 801.732 -2.18134 5.20651 0
M  V30 8593 N 801.13 -1.57531 -0.0467866 0
M  V30 8594 C 802.37 -1.90294 -0.746171 0
M  V30 8595 C 802.734 -0.823194 -1.73458 0
M  V30 8596 O 803.935 -1.03463 -2.48091 0
M  V30 8597 C 802.206 -3.28249 -1.41378 0
M  V30 8598 S 803.765 -3.82812 -2.14477 0
M  V30 8599 H 800.583 -0.666496 -0.247598 0
M  V30 8600 H 803.185 -1.955 -0.00135143 0
M  V30 8601 H 801.889 -4.04712 -0.680937 0
M  V30 8602 H 801.42 -3.26302 -2.19751 0
M  V30 8603 H 803.435 -3.60111 -3.41372 0
M  V30 8604 N 802.608 0.318715 -1.54344 0
M  V30 8605 C 803.571 1.37545 -1.83342 0
M  V30 8606 C 804.571 1.445 -0.705444 0
M  V30 8607 O 805.761 1.44443 -0.973752 0
M  V30 8608 C 802.893 2.76225 -1.99781 0
M  V30 8609 H 804.086 1.13084 -2.77762 0
M  V30 8610 H 801.639 0.554457 -1.46135 0
M  V30 8611 H 802.374 3.05934 -1.07588 0
M  V30 8612 H 802.159 2.7257 -2.81865 0
M  V30 8613 H 803.649 3.52664 -2.23647 0
M  V30 8614 N 804.086 1.46499 0.581025 0
M  V30 8615 C 805.311 1.55708 1.37002 0
M  V30 8616 C 805.736 0.19942 1.8704 0
M  V30 8617 O 805.094 -0.820731 1.61659 0
M  V30 8618 C 805.142 2.56716 2.53238 0
M  V30 8619 O 804.246 2.10336 3.54729 0
M  V30 8620 H 803.587 0.523912 0.407937 0
M  V30 8621 H 806.117 1.92085 0.704602 0
M  V30 8622 H 806.127 2.76378 3.00132 0
M  V30 8623 H 804.802 3.55307 2.16171 0
M  V30 8624 H 803.379 2.00669 3.14303 0
M  V30 8625 N 805.565 -0.825799 1.34232 0
M  V30 8626 C 806.495 -1.95151 1.28212 0
M  V30 8627 C 807.476 -1.69345 0.160123 0
M  V30 8628 O 808.661 -1.90983 0.352019 0
M  V30 8629 C 805.791 -3.31554 1.03388 0
M  V30 8630 C 804.745 -3.71793 2.12023 0
M  V30 8631 C 804.071 -5.06147 1.72392 0
M  V30 8632 C 805.371 -3.84193 3.53826 0
M  V30 8633 H 807.065 -2.00445 2.22401 0
M  V30 8634 H 804.611 -0.962996 1.07063 0
M  V30 8635 H 806.564 -4.09889 0.978225 0
M  V30 8636 H 805.288 -3.26551 0.0564142 0
M  V30 8637 H 803.947 -2.95731 2.16654 0
M  V30 8638 H 803.595 -4.97628 0.733137 0
M  V30 8639 H 803.295 -5.34041 2.451 0
M  V30 8640 H 804.819 -5.86943 1.68317 0
M  V30 8641 H 806.233 -4.52806 3.51624 0
M  V30 8642 H 804.63 -4.23538 4.2513 0
M  V30 8643 H 805.7 -2.86272 3.91377 0
M  V30 8644 N 807.043 -1.17915 -1.04565 0
M  V30 8645 C 808.292 -0.965816 -1.77073 0
M  V30 8646 C 808.605 0.506005 -1.88942 0
M  V30 8647 O 809.811 0.837717 -2.58253 0
M  V30 8648 C 808.267 -1.67894 -3.18339 0
M  V30 8649 C 807.875 -3.18972 -3.1458 0
M  V30 8650 C 809.619 -1.54823 -3.9526 0
M  V30 8651 C 807.526 -3.82946 -4.50674 0
M  V30 8652 H 806.456 -0.357729 -0.663736 0
M  V30 8653 H 809.107 -1.41235 -1.17153 0
M  V30 8654 H 807.489 -1.16016 -3.78624 0
M  V30 8655 H 808.663 -3.77835 -2.63776 0
M  V30 8656 H 806.978 -3.32127 -2.51159 0
M  V30 8657 H 809.575 -1.99984 -4.95894 0
M  V30 8658 H 809.918 -0.499727 -4.1329 0
M  V30 8659 H 810.451 -2.03953 -3.41538 0
M  V30 8660 H 807.19 -4.8782 -4.37849 0
M  V30 8661 H 806.71 -3.2887 -5.01602 0
M  V30 8662 H 808.389 -3.85518 -5.196 0
M  V30 8663 N 808.521 1.23394 -0.980386 0
M  V30 8664 C 809.749 1.95844 -0.667286 0
M  V30 8665 C 810.164 1.72574 0.765735 0
M  V30 8666 O 809.521 1.01715 1.51526 0
M  V30 8667 C 809.572 3.48844 -0.948151 0
M  V30 8668 O 809.293 3.71325 -2.32485 0
M  V30 8669 C 810.794 4.38494 -0.651002 0
M  V30 8670 H 808.014 0.623535 -0.247882 0
M  V30 8671 H 810.558 1.56885 -1.31176 0
M  V30 8672 H 808.713 3.85819 -0.349681 0
M  V30 8673 H 809.127 4.65619 -2.41452 0
M  V30 8674 H 810.601 5.44648 -0.897887 0
M  V30 8675 H 811.078 4.37236 0.414922 0
M  V30 8676 H 811.684 4.07127 -1.22995 0
M  V30 8677 N 809.999 0.752036 1.385 0
M  V30 8678 C 811.227 0.318274 2.04437 0
M  V30 8679 C 811.642 -1.05285 1.56718 0
M  V30 8680 O 810.999 -1.66844 0.73956 0
M  V30 8681 C 811.05 0.330106 3.5999 0
M  V30 8682 O 810.771 1.64712 4.05957 0
M  V30 8683 C 812.272 -0.117713 4.43144 0
M  V30 8684 H 809.492 0.136228 0.657026 0
M  V30 8685 H 812.036 1.02045 1.7722 0
M  V30 8686 H 810.191 -0.323323 3.86048 0
M  V30 8687 H 810.605 1.57225 5.0038 0
M  V30 8688 H 812.079 -0.0582735 5.51969 0
M  V30 8689 H 812.556 -1.16538 4.23457 0
M  V30 8690 H 813.162 0.506784 4.2227 0
M  V30 8691 N 811.477 -1.49425 0.500989 0
M  V30 8692 C 812.407 -2.31971 -0.266775 0
M  V30 8693 C 813.388 -1.40245 -0.962563 0
M  V30 8694 O 814.573 -1.69154 -0.953968 0
M  V30 8695 C 811.703 -3.20757 -1.33163 0
M  V30 8696 C 810.657 -4.21275 -0.75572 0
M  V30 8697 C 809.983 -4.98997 -1.92109 0
M  V30 8698 C 811.283 -5.21686 0.253213 0
M  V30 8699 H 812.977 -2.96408 0.422237 0
M  V30 8700 H 810.523 -1.4254 0.204505 0
M  V30 8701 H 812.476 -3.77315 -1.87646 0
M  V30 8702 H 811.2 -2.54263 -2.04983 0
M  V30 8703 H 809.859 -3.65861 -0.232637 0
M  V30 8704 H 809.507 -4.28951 -2.62698 0
M  V30 8705 H 809.207 -5.67011 -1.54182 0
M  V30 8706 H 810.731 -5.584 -2.47026 0
M  V30 8707 H 812.145 -5.72939 -0.203483 0
M  V30 8708 H 810.542 -5.9759 0.548322 0
M  V30 8709 H 811.612 -4.70596 1.16909 0
M  V30 8710 N 812.955 -0.234822 -1.55841 0
M  V30 8711 C 813.918 0.656378 -2.196 0
M  V30 8712 C 814.918 1.11179 -1.16171 0
M  V30 8713 O 816.108 1.01845 -1.41326 0
M  V30 8714 C 813.24 1.90072 -2.82993 0
M  V30 8715 H 814.433 0.100281 -2.99732 0
M  V30 8716 H 811.986 0.0147613 -1.56293 0
M  V30 8717 H 812.721 2.49836 -2.06767 0
M  V30 8718 H 812.506 1.5825 -3.58747 0
M  V30 8719 H 813.996 2.53538 -3.31826 0
M  V30 8720 N 814.433 1.57553 0.0384317 0
M  V30 8721 C 815.849 1.54663 0.39391 0
M  V30 8722 C 816.049 0.959685 1.77179 0
M  V30 8723 O 815.105 0.576647 2.45827 0
M  V30 8724 C 816.418 2.99156 0.304352 0
M  V30 8725 C 817.966 3.10659 0.382119 0
M  V30 8726 C 818.441 4.56866 0.322111 0
M  V30 8727 N 819.932 4.61629 0.38119 0
M  V30 8728 C 820.667 5.72284 0.357501 0
M  V30 8729 N 820.163 6.92207 0.286654 0
M  V30 8730 N 821.956 5.60628 0.406538 0
M  V30 8731 H 814.107 1.9406 -0.86339 0
M  V30 8732 H 816.37 0.889673 -0.327392 0
M  V30 8733 H 816.076 3.45788 -0.642141 0
M  V30 8734 H 815.95 3.60753 1.10168 0
M  V30 8735 H 818.337 2.6398 1.31904 0
M  V30 8736 H 818.418 2.5191 -0.444391 0
M  V30 8737 H 818.062 5.0421 -0.611104 0
M  V30 8738 H 817.992 5.13515 1.1666 0
M  V30 8739 H 820.483 3.75343 0.438838 0
M  V30 8740 H 820.796 7.72316 0.273421 0
M  V30 8741 H 819.141 6.9454 0.252841 0
M  V30 8742 H 822.332 4.65836 0.459812 0
M  V30 8743 H 822.505 6.46858 0.384608 0
M  V30 8744 O 815.95 -0.181452 1.60477 0
M  V30 8745 H 816.641 -0.819067 1.75531 0
M  V30 END ATOM
M  V30 BEGIN BOND
M  V30 END BOND
M  V30 END CTAB
M  END
$$$$
