drugbank_target|P54762 Ephrin type-B receptor 1 (DB12010)
 OpenBabel12092121153D

  0  0  0     0  0            999 V3000
M  V30 BEGIN CTAB
M  V30 COUNTS 15306 15480 0 0 0
M  V30 BEGIN ATOM
M  V30 1 H -0.908 1.98254 -0.117106 0
M  V30 2 N 0 1.576 0 0
M  V30 3 C 0.933 2.03868 1.02534 0
M  V30 4 C 1.911 0.928543 1.3348 0
M  V30 5 O 3.095 1.19667 1.45644 0
M  V30 6 C 0.222 2.43627 2.35294 0
M  V30 7 C -0.732 3.65373 2.2001 0
M  V30 8 S 0.101 5.13292 1.52614 0
M  V30 9 C 1.257 5.56322 2.86805 0
M  V30 10 H 1.49 2.90518 0.631377 0
M  V30 11 H -0.977 1.52953 0.210867 0
M  V30 12 H 0.981 2.67203 3.11629 0
M  V30 13 H -0.358 1.57376 2.7183 0
M  V30 14 H -1.165 3.90944 3.18086 0
M  V30 15 H -1.563 3.418 1.51819 0
M  V30 16 H 0.729 5.58782 3.83104 0
M  V30 17 H 1.672 6.56266 2.65933 0
M  V30 18 H 2.08 4.83886 2.90714 0
M  V30 19 N 1.4781 -0.272755 1.55222 0
M  V30 20 C 2.4411 -1.32041 1.87344 0
M  V30 21 C 3.4411 -1.42342 0.74803 0
M  V30 22 O 4.6311 -1.41488 1.0162 0
M  V30 23 C 1.7631 -2.70173 2.07893 0
M  V30 24 H 2.9561 -1.04789 2.80997 0
M  V30 25 H 0.5091 -0.51083 1.47717 0
M  V30 26 H 1.2441 -3.02605 1.16622 0
M  V30 27 H 1.0291 -2.64082 2.89833 0
M  V30 28 H 2.5191 -3.45869 2.34017 0
M  V30 29 N 2.9562 -1.48159 -0.537278 0
M  V30 30 C 3.8862 -1.65029 -1.6519 0
M  V30 31 C 4.8672 -0.499281 -1.62607 0
M  V30 32 O 6.0522 -0.730972 -1.79918 0
M  V30 33 C 3.1822 -1.68303 -3.03795 0
M  V30 34 C 2.1362 -2.8283 -3.21234 0
M  V30 35 C 1.4622 -2.71189 -4.60826 0
M  V30 36 C 2.7622 -4.24211 -3.04701 0
M  V30 37 H 4.4562 -2.58341 -1.51328 0
M  V30 38 H 2.0022 -1.24325 -0.726585 0
M  V30 39 H 3.9552 -1.78693 -3.81637 0
M  V30 40 H 2.6792 -0.715635 -3.18663 0
M  V30 41 H 1.3382 -2.71983 -2.45807 0
M  V30 42 H 0.9862 -1.72435 -4.7252 0
M  V30 43 H 0.6862 -3.48035 -4.7344 0
M  V30 44 H 2.2102 -2.83537 -5.40777 0
M  V30 45 H 3.6242 -4.3593 -3.72341 0
M  V30 46 H 2.0212 -5.01998 -3.28813 0
M  V30 47 H 3.0912 -4.41184 -2.01209 0
M  V30 48 N 4.4343 0.785586 -1.36625 0
M  V30 49 C 5.7113 1.53198 -1.21613 0
M  V30 50 C 6.0913 2.10187 0.196113 0
M  V30 51 O 5.4393 1.94318 1.20219 0
M  V30 52 C 5.6493 2.62388 -2.30116 0
M  V30 53 C 6.9973 3.30167 -2.66974 0
M  V30 54 O 8.0213 2.72674 -2.29188 0
M  V30 55 O 6.8803 4.34077 -3.32023 0
M  V30 56 H 3.9743 0.677865 -0.473738 0
M  V30 57 H 6.5203 0.823739 -1.48367 0
M  V30 58 H 5.2923 2.18299 -3.24748 0
M  V30 59 H 4.9153 3.40827 -2.0475 0
M  V30 60 N 5.9124 1.20967 1.01018 0
M  V30 61 C 7.1424 1.04803 1.78044 0
M  V30 62 C 7.5504 -0.405462 1.84804 0
M  V30 63 O 6.8934 -1.2932 1.30468 0
M  V30 64 C 6.9554 1.56377 3.23707 0
M  V30 65 C 6.6194 3.04767 3.40538 0
M  V30 66 C 7.6164 4.02366 3.29239 0
M  V30 67 C 5.3014 3.43862 3.66147 0
M  V30 68 C 7.2954 5.37049 3.43304 0
M  V30 69 C 4.9824 4.78699 3.79855 0
M  V30 70 C 5.9804 5.75101 3.68439 0
M  V30 71 O 5.6684 7.07493 3.81719 0
M  V30 72 H 5.4004 0.368778 0.56655 0
M  V30 73 H 7.9544 1.60642 1.27997 0
M  V30 74 H 6.1844 0.949297 3.74867 0
M  V30 75 H 7.8734 1.36136 3.8239 0
M  V30 76 H 8.6394 3.73506 3.09384 0
M  V30 77 H 4.5184 2.69364 3.74118 0
M  V30 78 H 8.0624 6.12277 3.34309 0
M  V30 79 H 3.9594 5.07247 3.99213 0
M  V30 80 H 4.7274 7.1483 3.98697 0
M  V30 81 N 7.3905 -1.2043 1.01659 0
M  V30 82 C 8.3205 -2.25466 0.607226 0
M  V30 83 C 9.3015 -1.65853 -0.377716 0
M  V30 84 O 10.4865 -1.92409 -0.263149 0
M  V30 85 C 7.6165 -3.47256 -0.0552949 0
M  V30 86 C 6.5705 -4.19462 0.850632 0
M  V30 87 C 5.8965 -5.34673 0.0538859 0
M  V30 88 C 7.1965 -4.75603 2.15868 0
M  V30 89 H 8.8905 -2.59962 1.48526 0
M  V30 90 H 6.4365 -1.2496 0.715605 0
M  V30 91 H 8.3895 -4.19917 -0.353233 0
M  V30 92 H 7.1135 -3.11924 -0.968045 0
M  V30 93 H 5.7725 -3.48667 1.13257 0
M  V30 94 H 5.4205 -4.95585 -0.860514 0
M  V30 95 H 5.1205 -5.83913 0.657192 0
M  V30 96 H 6.6445 -6.10138 -0.237598 0
M  V30 97 H 8.0585 -5.40083 1.92311 0
M  V30 98 H 6.4555 -5.3528 2.71284 0
M  V30 99 H 7.5255 -3.94346 2.82169 0
M  V30 100 N 8.8686 -0.792821 -1.36206 0
M  V30 101 C 9.7986 -0.207853 -2.32573 0
M  V30 102 C 10.7796 0.659055 -1.56813 0
M  V30 103 O 11.9646 0.592176 -1.84951 0
M  V30 104 C 9.0946 0.655449 -3.41059 0
M  V30 105 C 8.0486 -0.111842 -4.27854 0
M  V30 106 C 7.3746 0.872274 -5.27537 0
M  V30 107 C 8.6746 -1.30299 -5.05786 0
M  V30 108 H 10.3686 -1.01294 -2.81744 0
M  V30 109 H 7.9146 -0.48854 -1.3546 0
M  V30 110 H 9.8676 1.07464 -4.07467 0
M  V30 111 H 8.5916 1.49328 -2.90463 0
M  V30 112 H 7.2506 -0.512053 -3.63006 0
M  V30 113 H 6.8986 1.70523 -4.73214 0
M  V30 114 H 6.5986 0.363291 -5.86476 0
M  V30 115 H 8.1226 1.28996 -5.96818 0
M  V30 116 H 9.5366 -0.959379 -5.65216 0
M  V30 117 H 7.9336 -1.7455 -5.74154 0
M  V30 118 H 9.0036 -2.09663 -4.37229 0
M  V30 119 N 10.3467 1.47872 -0.545128 0
M  V30 120 C 11.2767 2.32661 0.197793 0
M  V30 121 C 12.2577 1.43041 0.920504 0
M  V30 122 O 13.4427 1.71912 0.90333 0
M  V30 123 C 10.5727 3.24569 1.23582 0
M  V30 124 C 9.5267 4.23333 0.630323 0
M  V30 125 C 8.8527 5.0448 1.77211 0
M  V30 126 C 10.1527 5.20704 -0.407974 0
M  V30 127 H 11.8467 2.95024 -0.510045 0
M  V30 128 H 9.3927 1.4187 -0.246731 0
M  V30 129 H 11.3457 3.8272 1.76362 0
M  V30 130 H 10.0697 2.60236 1.97344 0
M  V30 131 H 8.7287 3.6639 0.123922 0
M  V30 132 H 8.3767 4.36561 2.49847 0
M  V30 133 H 8.0767 5.71339 1.37281 0
M  V30 134 H 9.6007 5.65487 2.3034 0
M  V30 135 H 11.0147 5.7329 0.033305 0
M  V30 136 H 9.4117 5.95699 -0.725486 0
M  V30 137 H 10.4817 4.66917 -1.30828 0
M  V30 138 N 11.8248 0.280983 1.55075 0
M  V30 139 C 12.7548 -0.597469 2.25727 0
M  V30 140 C 13.7358 -1.15417 1.24952 0
M  V30 141 O 14.9208 -1.18722 1.53684 0
M  V30 142 C 12.0508 -1.7789 2.98283 0
M  V30 143 C 11.0048 -1.35347 4.06036 0
M  V30 144 C 10.3308 -2.61846 4.66198 0
M  V30 145 C 11.6308 -0.499354 5.19907 0
M  V30 146 H 13.3248 -0.00824265 2.99399 0
M  V30 147 H 10.8708 -0.0025244 1.44 0
M  V30 148 H 12.8238 -2.39937 3.46422 0
M  V30 149 H 11.5478 -2.39405 2.22155 0
M  V30 150 H 10.2068 -0.756156 3.58717 0
M  V30 151 H 9.8548 -3.21632 3.86732 0
M  V30 152 H 9.5548 -2.3409 5.38958 0
M  V30 153 H 11.0788 -3.24732 5.1709 0
M  V30 154 H 12.4928 -1.02498 5.64063 0
M  V30 155 H 10.8898 -0.316424 5.99265 0
M  V30 156 H 11.9598 0.480459 4.82514 0
M  V30 157 N 13.3029 -1.57598 0.00835791 0
M  V30 158 C 14.2329 -2.1198 -0.979113 0
M  V30 159 C 15.2139 -1.03091 -1.35301 0
M  V30 160 O 16.3989 -1.30818 -1.43528 0
M  V30 161 C 13.5289 -2.62995 -2.26828 0
M  V30 162 C 12.4829 -3.76485 -2.03576 0
M  V30 163 C 11.8089 -4.13846 -3.38579 0
M  V30 164 C 13.1089 -5.0342 -1.39161 0
M  V30 165 H 14.8029 -2.94738 -0.526281 0
M  V30 166 H 12.3489 -1.41783 -0.251704 0
M  V30 167 H 14.3019 -2.99669 -2.96271 0
M  V30 168 H 13.0259 -1.7737 -2.7424 0
M  V30 169 H 11.6849 -3.40217 -1.36557 0
M  V30 170 H 11.3329 -3.25232 -3.83709 0
M  V30 171 H 11.0329 -4.90312 -3.23834 0
M  V30 172 H 12.5569 -4.53086 -4.09323 0
M  V30 173 H 13.9709 -5.37812 -1.98573 0
M  V30 174 H 12.3679 -5.84746 -1.34878 0
M  V30 175 H 13.4379 -4.83548 -0.361868 0
M  V30 176 N 14.781 0.264519 -1.55364 0
M  V30 177 C 15.711 1.33121 -1.91836 0
M  V30 178 C 16.692 1.51101 -0.781192 0
M  V30 179 O 17.877 1.64003 -1.04003 0
M  V30 180 C 15.007 2.68921 -2.19769 0
M  V30 181 C 13.961 2.65661 -3.35571 0
M  V30 182 C 13.287 4.05093 -3.49004 0
M  V30 183 C 14.587 2.24187 -4.71739 0
M  V30 184 H 16.281 1.02844 -2.81182 0
M  V30 185 H 13.827 0.493286 -1.35287 0
M  V30 186 H 15.78 3.43663 -2.43872 0
M  V30 187 H 14.504 3.00799 -1.27231 0
M  V30 188 H 13.163 1.93377 -3.1145 0
M  V30 189 H 12.811 4.34206 -2.53917 0
M  V30 190 H 12.511 4.03804 -4.26868 0
M  V30 191 H 14.035 4.81561 -3.75408 0
M  V30 192 H 15.449 2.88654 -4.9533 0
M  V30 193 H 13.846 2.34044 -5.52579 0
M  V30 194 H 14.916 1.19327 -4.69988 0
M  V30 195 N 16.2591 1.48442 0.529413 0
M  V30 196 C 17.2221 1.62524 1.61612 0
M  V30 197 C 18.2221 0.498509 1.52877 0
M  V30 198 O 19.4121 0.76431 1.56537 0
M  V30 199 C 16.5441 1.59597 3.01233 0
M  V30 200 H 17.7371 2.59423 1.50465 0
M  V30 201 H 15.2901 1.37047 0.751514 0
M  V30 202 H 16.0251 0.641781 3.17886 0
M  V30 203 H 15.8101 2.41397 3.08982 0
M  V30 204 H 17.3001 1.72646 3.80241 0
M  V30 205 N 17.7372 -0.778329 1.37039 0
M  V30 206 C 18.9622 -1.57248 1.35233 0
M  V30 207 C 19.3872 -1.87999 -0.0615568 0
M  V30 208 O 18.7452 -1.48734 -1.03672 0
M  V30 209 C 18.7932 -2.86353 2.19167 0
M  V30 210 O 17.8972 -3.80442 1.59178 0
M  V30 211 H 17.2382 -0.476569 0.462362 0
M  V30 212 H 19.7682 -0.963853 1.80474 0
M  V30 213 H 19.7782 -3.35519 2.32145 0
M  V30 214 H 18.4532 -2.63299 3.21942 0
M  V30 215 H 17.0302 -3.39067 1.55203 0
M  V30 216 N 19.2153 -1.21501 -1.00376 0
M  V30 217 C 20.1783 -0.976927 -2.07337 0
M  V30 218 C 21.1783 0.0525322 -1.60714 0
M  V30 219 O 22.3683 -0.184869 -1.73216 0
M  V30 220 C 19.5003 -0.473423 -3.37597 0
M  V30 221 H 20.6933 -1.92587 -2.29892 0
M  V30 222 H 18.2463 -1.03217 -1.17371 0
M  V30 223 H 18.9813 0.480379 -3.20722 0
M  V30 224 H 18.7663 -1.216 -3.72768 0
M  V30 225 H 20.2563 -0.32675 -4.1632 0
M  V30 226 N 20.6934 1.19889 -1.02296 0
M  V30 227 C 21.9394 1.89701 -0.717033 0
M  V30 228 C 22.2724 1.7905 0.751989 0
M  V30 229 O 21.5474 1.17891 1.547 0
M  V30 230 C 21.8304 3.40858 -1.16136 0
M  V30 231 C 21.6834 3.60411 -2.69117 0
M  V30 232 C 23.0024 4.33876 -0.737549 0
M  V30 233 H 20.1214 0.688874 -0.261957 0
M  V30 234 H 22.7634 1.41154 -1.27183 0
M  V30 235 H 20.9134 3.82335 -0.689342 0
M  V30 236 H 22.5854 3.28145 -3.2422 0
M  V30 237 H 20.8284 3.03665 -3.0979 0
M  V30 238 H 21.4994 4.66396 -2.95261 0
M  V30 239 H 23.9754 4.00081 -1.14344 0
M  V30 240 H 22.8514 5.38242 -1.0764 0
M  V30 241 H 23.1124 4.40628 0.360436 0
M  V30 242 N 22.1715 0.800033 1.35784 0
M  V30 243 C 23.1345 0.211565 2.28221 0
M  V30 244 C 24.1345 -0.59728 1.49296 0
M  V30 245 O 25.3245 -0.416721 1.69142 0
M  V30 246 C 22.4565 -0.705846 3.33513 0
M  V30 247 H 23.6495 1.02677 2.81776 0
M  V30 248 H 21.2025 0.570211 1.45528 0
M  V30 249 H 21.9375 -1.54498 2.85133 0
M  V30 250 H 21.7225 -0.127655 3.91892 0
M  V30 251 H 23.2125 -1.11211 4.02519 0
M  V30 252 N 23.6496 -1.47581 0.552962 0
M  V30 253 C 24.6126 -2.28439 -0.186605 0
M  V30 254 C 25.6126 -1.36706 -0.84665 0
M  V30 255 O 26.8026 -1.59378 -0.703164 0
M  V30 256 C 23.9346 -3.16264 -1.2724 0
M  V30 257 H 25.1276 -2.95294 0.523609 0
M  V30 258 H 22.6806 -1.532 0.309745 0
M  V30 259 H 23.4156 -2.54091 -2.01514 0
M  V30 260 H 23.2006 -3.83769 -0.803968 0
M  V30 261 H 24.6906 -3.77198 -1.79196 0
M  V30 262 N 25.1277 -0.289203 -1.54924 0
M  V30 263 C 26.0607 0.633823 -2.19221 0
M  V30 264 C 27.0387 1.14174 -1.15772 0
M  V30 265 O 28.2227 1.21211 -1.44361 0
M  V30 266 C 25.3497 1.86592 -2.82668 0
M  V30 267 C 24.3957 1.49227 -3.99542 0
M  V30 268 S 25.2287 0.558312 -5.32582 0
M  V30 269 C 26.3847 1.79847 -5.99505 0
M  V30 270 H 26.6177 0.0875416 -2.97171 0
M  V30 271 H 24.1507 -0.0733899 -1.54225 0
M  V30 272 H 26.1087 2.57305 -3.19851 0
M  V30 273 H 24.7697 2.38335 -2.04585 0
M  V30 274 H 23.9627 2.40945 -4.42676 0
M  V30 275 H 23.5647 0.865193 -3.63855 0
M  V30 276 H 25.8567 2.7406 -6.19595 0
M  V30 277 H 26.7997 1.4099 -6.93922 0
M  V30 278 H 27.2077 1.96982 -5.29016 0
M  V30 279 N 26.6058 1.57591 -0.0167156 0
M  V30 280 C 27.5158 2.1291 0.98521 0
M  V30 281 C 28.5318 1.07834 1.36557 0
M  V30 282 O 29.7078 1.39826 1.44951 0
M  V30 283 C 26.7728 2.63512 2.25305 0
M  V30 284 C 25.8338 3.83256 1.93426 0
M  V30 285 C 25.0668 4.31435 3.14165 0
M  V30 286 O 25.2898 3.78851 4.26413 0
M  V30 287 O 24.2238 5.23416 2.97186 0
M  V30 288 H 28.0498 2.98772 0.544888 0
M  V30 289 H 25.6348 1.48012 0.203141 0
M  V30 290 H 27.5168 2.96183 2.99756 0
M  V30 291 H 26.1918 1.8074 2.68542 0
M  V30 292 H 25.0988 3.55531 1.16398 0
M  V30 293 H 26.4318 4.67153 1.55013 0
M  V30 294 N 28.0839 -0.256276 1.55502 0
M  V30 295 C 28.9939 -1.33882 1.92647 0
M  V30 296 C 30.0099 -1.53159 0.825727 0
M  V30 297 O 31.1859 -1.66963 1.12629 0
M  V30 298 C 28.2509 -2.6751 2.20543 0
M  V30 299 C 27.3119 -2.56836 3.43997 0
M  V30 300 C 26.5449 -3.84092 3.70553 0
M  V30 301 O 26.7679 -4.85545 2.99336 0
M  V30 302 O 25.7019 -3.83288 4.64084 0
M  V30 303 H 29.5279 -1.05374 2.84833 0
M  V30 304 H 27.1129 -0.456237 1.42263 0
M  V30 305 H 28.9949 -3.46492 2.39835 0
M  V30 306 H 27.6699 -2.9577 1.31536 0
M  V30 307 H 26.5769 -1.76172 3.30021 0
M  V30 308 H 27.9099 -2.33523 4.33275 0
M  V30 309 N 29.562 -1.4872 -0.521534 0
M  V30 310 C 30.79 -1.60843 -1.30142 0
M  V30 311 C 31.205 -0.271897 -1.86832 0
M  V30 312 O 30.562 0.739969 -1.66825 0
M  V30 313 C 30.613 -2.66155 -2.4463 0
M  V30 314 O 30.334 -3.94623 -1.90275 0
M  V30 315 C 31.835 -2.88795 -3.36322 0
M  V30 316 H 29.055 -0.542075 -0.395468 0
M  V30 317 H 31.599 -1.94609 -0.628285 0
M  V30 318 H 29.754 -2.35224 -3.07812 0
M  V30 319 H 30.168 -4.52468 -2.65279 0
M  V30 320 H 31.642 -3.66264 -4.12983 0
M  V30 321 H 32.119 -1.97934 -3.9207 0
M  V30 322 H 32.725 -3.21063 -2.78924 0
M  V30 323 N 31.0401 0.771051 -1.3745 0
M  V30 324 C 31.9701 1.89827 -1.3597 0
M  V30 325 C 32.9511 1.68562 -0.228216 0
M  V30 326 O 34.1361 1.8941 -0.428675 0
M  V30 327 C 31.2661 3.2712 -1.16662 0
M  V30 328 C 30.2201 3.6295 -2.2683 0
M  V30 329 C 29.5461 4.98791 -1.92644 0
M  V30 330 C 30.8461 3.69627 -3.69017 0
M  V30 331 H 32.5401 1.91323 -2.30295 0
M  V30 332 H 30.0861 0.919082 -1.10855 0
M  V30 333 H 32.0391 4.05615 -1.14256 0
M  V30 334 H 30.7631 3.26059 -0.187926 0
M  V30 335 H 29.4221 2.86763 -2.28392 0
M  V30 336 H 29.0701 4.94271 -0.933021 0
M  V30 337 H 28.7701 5.23733 -2.66416 0
M  V30 338 H 30.2941 5.79685 -1.91826 0
M  V30 339 H 31.7081 4.38273 -3.69581 0
M  V30 340 H 30.1051 4.06067 -4.41848 0
M  V30 341 H 31.1751 2.70273 -4.02592 0
M  V30 342 N 32.5182 1.22032 0.997298 0
M  V30 343 C 33.4512 0.929735 2.08401 0
M  V30 344 C 34.4292 -0.125681 1.62114 0
M  V30 345 O 35.6132 0.00495409 1.88499 0
M  V30 346 C 32.7402 0.397488 3.3636 0
M  V30 347 C 31.7862 1.4369 4.01566 0
M  V30 348 S 32.6192 3.00874 4.42984 0
M  V30 349 C 33.7752 2.49276 5.74119 0
M  V30 350 H 34.0082 1.84998 2.32729 0
M  V30 351 H 31.5412 1.0509 1.13117 0
M  V30 352 H 33.4992 0.0969846 4.10385 0
M  V30 353 H 32.1602 -0.501571 3.10069 0
M  V30 354 H 31.3532 1.01427 4.93689 0
M  V30 355 H 30.9552 1.68588 3.33847 0
M  V30 356 H 33.2472 1.90242 6.50242 0
M  V30 357 H 34.1902 3.39872 6.21203 0
M  V30 358 H 34.5982 1.90714 5.31308 0
M  V30 359 N 33.9963 -1.19345 1.0293 0
M  V30 360 C 35.2733 -1.84811 0.640642 0
M  V30 361 C 35.6533 -1.91855 -0.88062 0
M  V30 362 O 35.0013 -1.43587 -1.7775 0
M  V30 363 C 35.2113 -3.23755 1.30321 0
M  V30 364 C 36.5593 -3.99912 1.42673 0
M  V30 365 O 37.5833 -3.33155 1.26041 0
M  V30 366 O 36.4423 -5.19494 1.6967 0
M  V30 367 H 33.5363 -0.796443 0.222726 0
M  V30 368 H 36.0823 -1.26831 1.12748 0
M  V30 369 H 34.8543 -3.13466 2.34211 0
M  V30 370 H 34.4773 -3.89381 0.804261 0
M  V30 371 N 35.4744 -0.807222 -1.35358 0
M  V30 372 C 36.7024 -0.400377 -2.02989 0
M  V30 373 C 37.1174 0.988859 -1.60832 0
M  V30 374 O 36.4744 1.63729 -0.806175 0
M  V30 375 C 36.5254 -0.474867 -3.58368 0
M  V30 376 O 36.2464 -1.80933 -3.98992 0
M  V30 377 C 37.7474 -0.0609112 -4.43258 0
M  V30 378 H 34.9674 -0.162587 -0.651004 0
M  V30 379 H 37.5114 -1.09102 -1.72965 0
M  V30 380 H 35.6664 0.167534 -3.87038 0
M  V30 381 H 36.0804 -1.77256 -4.9364 0
M  V30 382 H 37.5544 -0.164145 -5.51756 0
M  V30 383 H 38.0314 0.993831 -4.27808 0
M  V30 384 H 38.6374 -0.676492 -4.19885 0
M  V30 385 N 36.9525 1.47285 -0.560781 0
M  V30 386 C 38.3685 1.58065 -0.22081 0
M  V30 387 C 38.5685 1.55892 1.27671 0
M  V30 388 O 37.6245 1.46422 2.0571 0
M  V30 389 C 38.9375 2.88418 -0.850625 0
M  V30 390 C 40.4855 3.02009 -0.822184 0
M  V30 391 C 40.9605 4.35066 -1.43113 0
M  V30 392 N 42.4515 4.41711 -1.39448 0
M  V30 393 C 43.1865 5.43237 -1.83525 0
M  V30 394 N 42.6825 6.51555 -2.35474 0
M  V30 395 N 44.4755 5.34304 -1.74574 0
M  V30 396 H 36.6265 1.46941 -1.53369 0
M  V30 397 H 38.8895 0.699558 -0.639783 0
M  V30 398 H 38.5955 2.95755 -1.9032 0
M  V30 399 H 38.4695 3.75612 -0.345773 0
M  V30 400 H 40.8565 2.94266 0.221714 0
M  V30 401 H 40.9375 2.16347 -1.36483 0
M  V30 402 H 40.5815 4.43565 -2.47412 0
M  V30 403 H 40.5115 5.19465 -0.863899 0
M  V30 404 H 43.0025 3.64027 -1.01452 0
M  V30 405 H 43.3155 7.25203 -2.67021 0
M  V30 406 H 41.6605 6.52435 -2.39487 0
M  V30 407 H 44.8515 4.48581 -1.33763 0
M  V30 408 H 45.0245 6.13288 -2.09242 0
M  V30 409 N 38.4306 0.297415 1.54768 0
M  V30 410 C 39.6586 -0.315623 2.04478 0
M  V30 411 C 40.0736 -1.47792 1.17486 0
M  V30 412 O 39.4306 -1.81404 0.19971 0
M  V30 413 C 39.4816 -0.7753 3.53088 0
M  V30 414 O 39.2026 0.340732 4.36773 0
M  V30 415 C 40.7036 -1.45386 4.18781 0
M  V30 416 H 37.9236 -0.0690887 0.667434 0
M  V30 417 H 40.4676 0.436003 1.99798 0
M  V30 418 H 38.6226 -1.47696 3.58141 0
M  V30 419 H 39.0366 -0.0165035 5.24497 0
M  V30 420 H 40.5106 -1.72669 5.24299 0
M  V30 421 H 40.9876 -2.39275 3.68299 0
M  V30 422 H 41.5936 -0.795475 4.17795 0
M  V30 423 N 39.9087 -1.5758 0.0250728 0
M  V30 424 C 40.8717 -2.08896 -0.943139 0
M  V30 425 C 41.8717 -1.00321 -1.25668 0
M  V30 426 O 43.0617 -1.26495 -1.19769 0
M  V30 427 C 40.1937 -2.55143 -2.26086 0
M  V30 428 H 41.3867 -2.95723 -0.498775 0
M  V30 429 H 38.9397 -1.54703 -0.222888 0
M  V30 430 H 39.6747 -1.71633 -2.75159 0
M  V30 431 H 39.4597 -3.34461 -2.04641 0
M  V30 432 H 40.9497 -2.95083 -2.95492 0
M  V30 433 N 41.3868 0.248026 -1.55636 0
M  V30 434 C 42.6148 0.993808 -1.81469 0
M  V30 435 C 43.0298 1.78991 -0.60064 0
M  V30 436 O 42.3868 1.77345 0.430682 0
M  V30 437 C 42.4378 1.93258 -3.05506 0
M  V30 438 O 42.1588 1.16869 -4.22224 0
M  V30 439 C 43.6598 2.79444 -3.4413 0
M  V30 440 H 40.8798 0.292486 -0.603898 0
M  V30 441 H 43.4238 0.271253 -2.02693 0
M  V30 442 H 41.5788 2.60943 -2.86335 0
M  V30 443 H 41.9928 1.80359 -4.92515 0
M  V30 444 H 43.4668 3.41066 -4.34026 0
M  V30 445 H 43.9438 3.50499 -2.64665 0
M  V30 446 H 44.5498 2.17214 -3.65648 0
M  V30 447 N 42.8649 1.48995 0.513639 0
M  V30 448 C 43.8279 1.64229 1.59879 0
M  V30 449 C 44.8279 0.514696 1.5234 0
M  V30 450 O 46.0179 0.78087 1.55718 0
M  V30 451 C 43.1499 1.62783 2.99524 0
M  V30 452 H 44.3429 2.61004 1.47705 0
M  V30 453 H 41.8959 1.37837 0.736936 0
M  V30 454 H 42.6309 0.675461 3.17188 0
M  V30 455 H 42.4159 2.4466 3.06404 0
M  V30 456 H 43.9059 1.76669 3.78388 0
M  V30 457 N 44.343 -0.763751 1.37857 0
M  V30 458 C 45.253 -1.90817 1.36478 0
M  V30 459 C 46.269 -1.71997 0.263248 0
M  V30 460 O 47.445 -1.95095 0.499979 0
M  V30 461 C 44.51 -3.2605 1.17864 0
M  V30 462 C 43.571 -3.57467 2.3773 0
M  V30 463 C 42.804 -4.86249 2.19995 0
M  V30 464 O 43.027 -5.57884 1.18836 0
M  V30 465 O 41.961 -5.16911 3.08361 0
M  V30 466 H 45.787 -1.94933 2.32884 0
M  V30 467 H 43.372 -0.907619 1.1867 0
M  V30 468 H 45.254 -4.06924 1.09504 0
M  V30 469 H 43.929 -3.22769 0.245372 0
M  V30 470 H 42.836 -2.76796 2.51664 0
M  V30 471 H 44.169 -3.655 3.29652 0
M  V30 472 N 45.8211 -1.22559 -0.990812 0
M  V30 473 C 46.7511 -1.0218 -2.09956 0
M  V30 474 C 47.7321 0.0579394 -1.70001 0
M  V30 475 O 48.9171 -0.104684 -1.93918 0
M  V30 476 C 46.0471 -0.601023 -3.4206 0
M  V30 477 C 45.0011 -1.62694 -3.95872 0
M  V30 478 C 44.3271 -1.06193 -5.24049 0
M  V30 479 C 45.6271 -3.01743 -4.2632 0
M  V30 480 H 47.3211 -1.94916 -2.27262 0
M  V30 481 H 44.8671 -0.938566 -1.09211 0
M  V30 482 H 46.8201 -0.445561 -4.19038 0
M  V30 483 H 45.5441 0.362005 -3.24588 0
M  V30 484 H 44.2031 -1.77021 -3.21028 0
M  V30 485 H 43.8511 -0.0901903 -5.02919 0
M  V30 486 H 43.5511 -1.74732 -5.61019 0
M  V30 487 H 45.0751 -0.918092 -6.03658 0
M  V30 488 H 46.4891 -2.90777 -4.94087 0
M  V30 489 H 44.8861 -3.67425 -4.74467 0
M  V30 490 H 45.9561 -3.51518 -3.34011 0
M  V30 491 N 47.2992 1.18797 -1.03562 0
M  V30 492 C 48.5472 1.88278 -0.734569 0
M  V30 493 C 48.8682 1.8043 0.739586 0
M  V30 494 O 48.1382 1.21925 1.53333 0
M  V30 495 H 46.7182 0.696991 -0.268725 0
M  V30 496 H 49.3802 1.44192 -1.31129 0
M  V30 497 H 48.4762 2.94443 -1.03489 0
M  V30 498 N 48.7773 0.814389 1.34928 0
M  V30 499 C 50.0233 0.408167 1.99263 0
M  V30 500 C 50.3783 -1.0154 1.63424 0
M  V30 501 O 49.6713 -1.69607 0.891289 0
M  V30 502 C 49.8653 0.537781 3.53331 0
M  V30 503 C 49.6943 1.9724 4.04137 0
M  V30 504 C 48.4643 2.60245 4.33129 0
M  V30 505 C 50.6623 2.93801 4.2212 0
M  V30 506 N 48.6443 3.95036 4.69914 0
M  V30 507 C 50.0153 4.1348 4.6199 0
M  V30 508 C 52.0703 2.9053 4.04348 0
M  V30 509 C 50.7733 5.3033 4.85945 0
M  V30 510 C 52.7993 4.06589 4.29464 0
M  V30 511 C 52.1613 5.25017 4.69613 0
M  V30 512 H 48.2603 0.197289 0.756704 0
M  V30 513 H 50.8443 1.05728 1.63492 0
M  V30 514 H 49.0153 -0.0813868 3.88315 0
M  V30 515 H 50.7473 0.105389 4.04563 0
M  V30 516 H 47.5023 2.11545 4.23728 0
M  V30 517 H 47.9263 4.64455 4.92555 0
M  V30 518 H 52.5683 2.00115 3.72443 0
M  V30 519 H 50.2863 6.21309 5.16721 0
M  V30 520 H 53.8723 4.05447 4.17257 0
M  V30 521 H 52.7523 6.1333 4.88667 0
M  V30 522 N 50.2554 -1.46986 0.568584 0
M  V30 523 C 51.4834 -2.0683 0.0539956 0
M  V30 524 C 51.8984 -1.41953 -1.24478 0
M  V30 525 O 51.2554 -0.519933 -1.74937 0
M  V30 526 C 51.3064 -3.61254 -0.133362 0
M  V30 527 O 51.0274 -4.237 1.11399 0
M  V30 528 C 52.5284 -4.37992 -0.683927 0
M  V30 529 H 49.7484 -0.669058 0.0510141 0
M  V30 530 H 52.2924 -1.88824 0.785234 0
M  V30 531 H 50.4474 -3.78735 -0.81477 0
M  V30 532 H 50.8614 -5.16388 0.91888 0
M  V30 533 H 52.3354 -5.46684 -0.764263 0
M  V30 534 H 52.8124 -4.05058 -1.69778 0
M  V30 535 H 53.4184 -4.25283 -0.0378494 0
M  V30 536 N 51.7335 -0.305618 -1.54608 0
M  V30 537 C 52.6965 0.555591 -2.22364 0
M  V30 538 C 53.6965 1.05768 -1.21119 0
M  V30 539 O 54.8865 0.952972 -1.45822 0
M  V30 540 C 52.0185 1.76974 -2.91364 0
M  V30 541 H 53.2115 -0.0364572 -2.99878 0
M  V30 542 H 50.7645 -0.0565007 -1.56198 0
M  V30 543 H 51.4995 2.40151 -2.17941 0
M  V30 544 H 51.2845 1.41732 -3.65588 0
M  V30 545 H 52.7745 2.38148 -3.43038 0
M  V30 546 N 53.2116 1.57565 -0.0334293 0
M  V30 547 C 54.1596 2.1164 0.96496 0
M  V30 548 C 55.1536 1.04398 1.33407 0
M  V30 549 O 56.3596 1.22828 1.3158 0
M  V30 550 H 52.7346 0.676222 0.32898 0
M  V30 551 H 54.7056 2.94455 0.483614 0
M  V30 552 C 53.4546 2.66207 2.23672 0
M  V30 553 H 52.7776 3.48378 1.96145 0
M  V30 554 H 54.2176 3.07685 2.9173 0
M  V30 555 C 52.6766 1.59151 2.96939 0
M  V30 556 O 53.2066 0.993858 3.89211 0
M  V30 557 N 51.4126 1.31093 2.59351 0
M  V30 558 H 50.9596 1.7988 1.84393 0
M  V30 559 H 50.9176 0.596889 3.08682 0
M  V30 560 N 54.6897 -0.239769 1.55765 0
M  V30 561 C 56.1007 -0.808263 1.68297 0
M  V30 562 C 56.4517 -1.85736 0.632181 0
M  V30 563 O 55.5767 -2.15277 -0.220204 0
M  V30 564 C 56.1717 -1.47284 3.05111 0
M  V30 565 C 54.7307 -1.98895 3.19559 0
M  V30 566 C 53.8777 -0.842575 2.64189 0
M  V30 567 H 56.8287 -0.0154422 1.58692 0
M  V30 568 H 56.8497 -2.34111 2.99954 0
M  V30 569 H 56.3617 -0.709053 3.81568 0
M  V30 570 H 54.4627 -2.78132 2.47938 0
M  V30 571 H 54.5757 -2.18143 4.26556 0
M  V30 572 H 52.9397 -1.24501 2.22197 0
M  V30 573 H 53.7227 -0.0917552 3.43177 0
M  V30 574 N 56.1678 -1.49265 -0.50573 0
M  V30 575 C 57.1308 -1.65075 -1.59006 0
M  V30 576 C 58.1308 -0.522768 -1.52065 0
M  V30 577 O 59.3208 -0.789117 -1.55302 0
M  V30 578 C 56.4528 -1.64369 -2.98656 0
M  V30 579 H 57.6458 -2.61784 -1.46319 0
M  V30 580 H 55.1988 -1.38226 -0.729616 0
M  V30 581 H 55.9338 -0.692272 -3.16825 0
M  V30 582 H 55.7188 -2.46282 -3.05103 0
M  V30 583 H 57.2088 -1.78674 -3.77446 0
M  V30 584 N 57.6459 0.756429 -1.3826 0
M  V30 585 C 58.8709 1.55077 -1.37717 0
M  V30 586 C 59.2959 1.88073 0.03164 0
M  V30 587 O 58.6539 1.50364 1.01293 0
M  V30 588 C 58.7019 2.8283 -2.23695 0
M  V30 589 O 57.8059 3.77862 -1.6521 0
M  V30 590 H 57.1469 0.469152 -0.469885 0
M  V30 591 H 59.6769 0.935019 -1.81985 0
M  V30 592 H 59.6869 3.31783 -2.37453 0
M  V30 593 H 58.3619 2.58144 -3.2609 0
M  V30 594 H 56.9389 3.36555 -1.60578 0
M  V30 595 N 59.124 1.23083 0.984299 0
M  V30 596 C 60.372 1.05848 1.72165 0
M  V30 597 C 60.693 -0.406049 1.90726 0
M  V30 598 O 59.963 -1.29139 1.47309 0
M  V30 599 H 58.543 0.388685 0.637913 0
M  V30 600 H 61.205 1.54736 1.18503 0
M  V30 601 H 60.301 1.54327 2.71274 0
M  V30 602 N 60.6021 -1.18246 1.0419 0
M  V30 603 C 61.8481 -1.88793 0.75689 0
M  V30 604 C 62.2031 -1.78909 -0.707767 0
M  V30 605 O 61.4961 -1.1794 -1.50999 0
M  V30 606 C 61.6901 -3.38082 1.15911 0
M  V30 607 C 61.5191 -3.62496 2.66133 0
M  V30 608 C 60.2891 -3.7979 3.33298 0
M  V30 609 C 62.4871 -3.62976 3.64353 0
M  V30 610 N 60.4691 -3.91955 4.72487 0
M  V30 611 C 61.8401 -3.80869 4.89222 0
M  V30 612 C 63.8951 -3.46071 3.57965 0
M  V30 613 C 62.5981 -3.83608 6.08471 0
M  V30 614 C 64.6241 -3.50093 4.76643 0
M  V30 615 C 63.9861 -3.68484 6.00332 0
M  V30 616 H 60.0851 -0.709406 0.32904 0
M  V30 617 H 62.6691 -1.42022 1.33183 0
M  V30 618 H 60.8401 -3.83544 0.612238 0
M  V30 619 H 62.5721 -3.96202 0.824989 0
M  V30 620 H 59.3271 -3.79224 2.83701 0
M  V30 621 H 59.7511 -4.01857 5.44831 0
M  V30 622 H 64.3931 -3.30797 2.63311 0
M  V30 623 H 62.1111 -3.97669 7.0348 0
M  V30 624 H 65.6971 -3.38285 4.73344 0
M  V30 625 H 64.5771 -3.71488 6.90627 0
M  V30 626 N 62.0802 -0.821533 -1.34494 0
M  V30 627 C 62.9902 -0.244355 -2.33324 0
M  V30 628 C 64.0062 0.620527 -1.62559 0
M  V30 629 O 65.1822 0.528754 -1.94335 0
M  V30 630 C 62.2472 0.585368 -3.41723 0
M  V30 631 C 61.3082 -0.301752 -4.28238 0
M  V30 632 C 60.5412 0.488466 -5.3146 0
M  V30 633 O 60.7642 1.72186 -5.4379 0
M  V30 634 O 59.6982 -0.12848 -6.01763 0
M  V30 635 H 63.5242 -1.06231 -2.84515 0
M  V30 636 H 61.1092 -0.583645 -1.37528 0
M  V30 637 H 62.9912 1.05747 -4.07916 0
M  V30 638 H 61.6662 1.38068 -2.92778 0
M  V30 639 H 60.5732 -0.821315 -3.64973 0
M  V30 640 H 61.9062 -1.06138 -4.8062 0
M  V30 641 N 63.5583 1.46682 -0.576371 0
M  V30 642 C 64.4683 2.34032 0.163141 0
M  V30 643 C 65.4843 1.49367 0.892501 0
M  V30 644 O 66.6603 1.82252 0.857106 0
M  V30 645 C 63.7253 3.26435 1.16795 0
M  V30 646 C 62.7863 4.26998 0.443944 0
M  V30 647 C 62.0193 5.14986 1.40088 0
M  V30 648 O 62.2423 5.05785 2.637 0
M  V30 649 O 61.1763 5.94906 0.914917 0
M  V30 650 H 65.0023 2.98607 -0.55388 0
M  V30 651 H 62.5873 1.45554 -0.336821 0
M  V30 652 H 64.4693 3.83459 1.74748 0
M  V30 653 H 63.1443 2.64465 1.86655 0
M  V30 654 H 62.0513 3.7368 -0.177271 0
M  V30 655 H 63.3843 4.91736 -0.213566 0
M  V30 656 N 65.0364 0.313813 1.54444 0
M  V30 657 C 66.2824 -0.292108 2.00685 0
M  V30 658 C 66.6154 -1.52548 1.20177 0
M  V30 659 O 65.8904 -1.92452 0.281531 0
M  V30 660 C 66.1734 -0.635968 3.5444 0
M  V30 661 C 66.0264 0.607437 4.4568 0
M  V30 662 C 67.3454 -1.45747 4.15266 0
M  V30 663 H 64.4644 -0.104697 0.729526 0
M  V30 664 H 67.1064 0.428457 1.85106 0
M  V30 665 H 65.2564 -1.24986 3.67846 0
M  V30 666 H 66.9284 1.24581 4.44159 0
M  V30 667 H 65.1714 1.23822 4.15753 0
M  V30 668 H 65.8424 0.322515 5.51057 0
M  V30 669 H 68.3184 -0.938645 4.05375 0
M  V30 670 H 67.1944 -1.66683 5.2298 0
M  V30 671 H 67.4554 -2.45063 3.67963 0
M  V30 672 N 66.5145 -1.57545 0.0417849 0
M  V30 673 C 67.7395 -1.97035 -0.647455 0
M  V30 674 C 68.1645 -0.918775 -1.64135 0
M  V30 675 O 67.5225 0.119006 -1.80909 0
M  V30 676 C 67.5705 -3.35609 -1.31905 0
M  V30 677 O 66.6745 -3.3287 -2.43457 0
M  V30 678 H 66.0155 -0.64211 -0.169086 0
M  V30 679 H 68.5455 -2.04318 0.107399 0
M  V30 680 H 68.5555 -3.72126 -1.67291 0
M  V30 681 H 67.2305 -4.11685 -0.590586 0
M  V30 682 H 65.8075 -3.08087 -2.10088 0
M  V30 683 N 67.9926 0.231505 -1.5589 0
M  V30 684 C 69.2406 0.955461 -1.78088 0
M  V30 685 C 69.5616 1.85262 -0.608533 0
M  V30 686 O 68.8316 1.92277 0.375035 0
M  V30 687 H 67.4116 0.355787 -0.656829 0
M  V30 688 H 70.0736 0.245751 -1.93344 0
M  V30 689 H 69.1696 1.56814 -2.69844 0
M  V30 690 N 69.4707 1.49531 0.497807 0
M  V30 691 C 70.7007 1.62657 1.27382 0
M  V30 692 C 71.1087 0.298488 1.86831 0
M  V30 693 O 70.4517 -0.72647 1.68725 0
M  V30 694 C 70.5137 2.6393 2.44093 0
M  V30 695 C 70.1777 4.08195 2.05489 0
M  V30 696 C 71.1747 4.949 1.59279 0
M  V30 697 C 68.8597 4.53948 2.15026 0
M  V30 698 C 70.8537 6.25397 1.23113 0
M  V30 699 C 68.5407 5.84458 1.78473 0
M  V30 700 C 69.5387 6.70006 1.32591 0
M  V30 701 O 69.2267 7.98083 0.965327 0
M  V30 702 H 68.9587 0.550429 0.392434 0
M  V30 703 H 71.5127 1.96325 0.603801 0
M  V30 704 H 69.7427 2.25449 3.14181 0
M  V30 705 H 71.4317 2.66552 3.06113 0
M  V30 706 H 72.1977 4.60779 1.51354 0
M  V30 707 H 68.0767 3.87525 2.4969 0
M  V30 708 H 71.6207 6.92125 0.872299 0
M  V30 709 H 67.5177 6.18107 1.86048 0
M  V30 710 H 68.2857 8.11122 1.09652 0
M  V30 711 N 70.9488 -0.749086 1.3866 0
M  V30 712 C 72.2258 -1.4992 1.25632 0
M  V30 713 C 72.6058 -2.10633 -0.140317 0
M  V30 714 O 71.9538 -1.97437 -1.15025 0
M  V30 715 C 72.1638 -2.56195 2.36992 0
M  V30 716 C 73.5118 -3.22972 2.75634 0
M  V30 717 O 74.5358 -2.66502 2.36337 0
M  V30 718 O 73.3948 -4.25122 3.43415 0
M  V30 719 H 70.4888 -0.665067 0.491544 0
M  V30 720 H 73.0348 -0.784113 1.50498 0
M  V30 721 H 71.8068 -2.09612 3.30422 0
M  V30 722 H 71.4298 -3.35279 2.13714 0
M  V30 723 N 72.4269 -1.23603 -0.977757 0
M  V30 724 C 73.3369 -1.03632 -2.1047 0
M  V30 725 C 74.3529 0.0199435 -1.73989 0
M  V30 726 O 75.5289 -0.176076 -2.00629 0
M  V30 727 C 72.5939 -0.63276 -3.40877 0
M  V30 728 C 71.6549 -1.76437 -3.91367 0
M  V30 729 C 70.8879 -1.37997 -5.15551 0
M  V30 730 O 71.1109 -0.265357 -5.69782 0
M  V30 731 O 70.0449 -2.20201 -5.60174 0
M  V30 732 H 73.8709 -1.98086 -2.30208 0
M  V30 733 H 71.4559 -1.02332 -1.08851 0
M  V30 734 H 73.3379 -0.418761 -4.19314 0
M  V30 735 H 72.0129 0.282754 -3.22463 0
M  V30 736 H 70.9199 -2.03304 -3.14036 0
M  V30 737 H 72.2529 -2.6583 -4.14241 0
M  V30 738 N 73.905 1.17692 -1.04816 0
M  V30 739 C 74.853 2.23632 -0.63966 0
M  V30 740 C 75.847 1.6601 0.337219 0
M  V30 741 O 77.053 1.78844 0.203693 0
M  V30 742 H 73.428 0.727949 -0.188665 0
M  V30 743 H 75.399 2.55387 -1.54337 0
M  V30 744 C 74.148 3.4769 -0.0264051 0
M  V30 745 H 73.471 3.92331 -0.769164 0
M  V30 746 H 74.911 4.23418 0.222098 0
M  V30 747 C 73.37 3.13807 1.22584 0
M  V30 748 O 73.9 3.28236 2.31569 0
M  V30 749 N 72.106 2.68065 1.12202 0
M  V30 750 H 71.653 2.56525 0.235133 0
M  V30 751 H 71.611 2.45767 1.96076 0
M  V30 752 N 75.3831 0.828654 1.34056 0
M  V30 753 C 76.3131 0.269443 2.3194 0
M  V30 754 C 77.2941 -0.617247 1.58506 0
M  V30 755 O 78.4791 -0.542931 1.86456 0
M  V30 756 C 75.6091 -0.564793 3.42677 0
M  V30 757 C 74.5631 0.225241 4.27407 0
M  V30 758 C 73.8891 -0.7321 5.29664 0
M  V30 759 C 75.1891 1.43663 5.02154 0
M  V30 760 H 76.8831 1.08728 2.7896 0
M  V30 761 H 74.4291 0.524283 1.34117 0
M  V30 762 H 76.3821 -0.966233 4.10173 0
M  V30 763 H 75.1061 -1.41574 2.9432 0
M  V30 764 H 73.7651 0.608117 3.61521 0
M  V30 765 H 73.4131 -1.57916 4.77568 0
M  V30 766 H 73.1131 -0.20767 5.87233 0
M  V30 767 H 74.6371 -1.13128 6.00029 0
M  V30 768 H 76.0511 1.1089 5.62473 0
M  V30 769 H 74.4481 1.89711 5.69324 0
M  V30 770 H 75.5181 2.21181 4.31517 0
M  V30 771 N 76.8612 -1.46375 0.584142 0
M  V30 772 C 77.8092 -2.32042 -0.161047 0
M  V30 773 C 78.8032 -1.44569 -0.882966 0
M  V30 774 O 80.0092 -1.61186 -0.801191 0
M  V30 775 H 76.3842 -0.748659 -0.0708033 0
M  V30 776 H 78.3552 -2.92704 0.580269 0
M  V30 777 C 77.1042 -3.27762 -1.1605 0
M  V30 778 H 76.4272 -3.95051 -0.614419 0
M  V30 779 H 77.8672 -3.90481 -1.65228 0
M  V30 780 C 76.3262 -2.53218 -2.22221 0
M  V30 781 O 76.8562 -2.29628 -3.29597 0
M  V30 782 N 75.0622 -2.13756 -1.96868 0
M  V30 783 H 74.6092 -2.33142 -1.09557 0
M  V30 784 H 74.5672 -1.642 -2.68115 0
M  V30 785 N 78.3393 -0.321999 -1.54275 0
M  V30 786 C 79.5673 0.283052 -2.04955 0
M  V30 787 C 79.9823 1.45904 -1.19823 0
M  V30 788 O 79.3393 1.81063 -0.228545 0
M  V30 789 C 79.3903 0.719028 -3.54277 0
M  V30 790 O 79.1113 -0.410175 -4.36176 0
M  V30 791 C 80.6123 1.38705 -4.21041 0
M  V30 792 H 77.8323 0.0584616 -0.668448 0
M  V30 793 H 80.3763 -0.467734 -1.99079 0
M  V30 794 H 78.5313 1.41979 -3.60445 0
M  V30 795 H 78.9453 -0.0669416 -5.24457 0
M  V30 796 H 80.4193 1.64306 -5.2698 0
M  V30 797 H 80.8963 2.33385 -3.72059 0
M  V30 798 H 81.5023 0.728906 -4.19007 0
M  V30 799 N 79.8174 1.5752 -0.0501392 0
M  V30 800 C 81.0664 1.91827 0.623328 0
M  V30 801 C 81.3794 0.930222 1.72065 0
M  V30 802 O 82.5854 1.1653 2.4522 0
M  V30 803 C 81.0414 3.40692 1.16003 0
M  V30 804 C 80.6494 4.479 0.0948811 0
M  V30 805 C 82.3934 3.84034 1.80881 0
M  V30 806 C 80.3004 5.87879 0.644411 0
M  V30 807 H 79.2304 0.715918 0.236596 0
M  V30 808 H 81.8814 1.83115 -0.118861 0
M  V30 809 H 80.2634 3.44405 1.9545 0
M  V30 810 H 81.4374 4.55775 -0.678675 0
M  V30 811 H 79.7524 4.13892 -0.45637 0
M  V30 812 H 82.3494 4.85984 2.22988 0
M  V30 813 H 82.6924 3.20225 2.6601 0
M  V30 814 H 83.2254 3.82833 1.0809 0
M  V30 815 H 79.9644 6.55282 -0.169229 0
M  V30 816 H 79.4844 5.83567 1.38598 0
M  V30 817 H 81.1634 6.37098 1.12763 0
M  V30 818 N 81.2955 -0.223234 1.56011 0
M  V30 819 C 82.7115 -0.572856 1.48965 0
M  V30 820 C 82.9115 -1.87225 0.74492 0
M  V30 821 O 81.9675 -2.50899 0.283896 0
M  V30 822 C 83.2805 -0.653646 2.9351 0
M  V30 823 C 84.8285 -0.744386 3.0402 0
M  V30 824 C 85.3035 -0.856535 4.49919 0
M  V30 825 N 86.7945 -0.9208 4.53955 0
M  V30 826 C 87.5295 -1.02726 5.64123 0
M  V30 827 N 87.0255 -1.09777 6.84047 0
M  V30 828 N 88.8185 -1.06226 5.51971 0
M  V30 829 H 80.9695 0.629462 2.02858 0
M  V30 830 H 83.2325 0.220621 0.921971 0
M  V30 831 H 82.9385 0.231518 3.50937 0
M  V30 832 H 82.8125 -1.51781 3.45315 0
M  V30 833 H 85.1995 -1.61999 2.46658 0
M  V30 834 H 85.2805 0.14541 2.55386 0
M  V30 835 H 84.9245 0.0146069 5.07898 0
M  V30 836 H 84.8545 -1.76172 4.96257 0
M  V30 837 H 87.3455 -0.876694 3.6759 0
M  V30 838 H 87.6585 -1.17872 7.63758 0
M  V30 839 H 86.0035 -1.06693 6.86762 0
M  V30 840 H 89.1945 -1.00382 4.5721 0
M  V30 841 H 89.3675 -1.14177 6.37862 0
M  V30 842 N 82.7736 -1.49793 -0.48987 0
M  V30 843 C 84.0016 -1.63568 -1.26701 0
M  V30 844 C 84.4166 -0.311465 -1.86213 0
M  V30 845 O 83.7736 0.704416 -1.68357 0
M  V30 846 C 83.8246 -2.71284 -2.38929 0
M  V30 847 O 83.5456 -3.9857 -1.81861 0
M  V30 848 C 85.0466 -2.95864 -3.3012 0
M  V30 849 H 82.2666 -0.550342 -0.383881 0
M  V30 850 H 84.8106 -1.95898 -0.586864 0
M  V30 851 H 82.9656 -2.417 -3.02753 0
M  V30 852 H 83.3796 -4.57993 -2.55622 0
M  V30 853 H 84.8536 -3.74941 -4.05121 0
M  V30 854 H 85.3306 -2.06206 -3.87783 0
M  V30 855 H 85.9366 -3.26907 -2.72051 0
M  V30 856 N 84.2517 0.741722 -1.39055 0
M  V30 857 C 85.4817 1.52876 -1.3897 0
M  V30 858 C 85.8897 1.8919 0.0193266 0
M  V30 859 O 85.2327 1.54138 0.999356 0
M  V30 860 C 85.2947 2.84929 -2.19216 0
M  V30 861 C 84.9587 2.71086 -3.67915 0
M  V30 862 C 85.9557 2.40084 -4.61146 0
M  V30 863 C 83.6407 2.88168 -4.11418 0
M  V30 864 C 85.6347 2.26335 -5.95862 0
M  V30 865 C 83.3217 2.74037 -5.46211 0
M  V30 866 C 84.3197 2.43166 -6.38247 0
M  V30 867 O 84.0077 2.29115 -7.70559 0
M  V30 868 H 83.7397 0.479252 -0.476753 0
M  V30 869 H 86.2937 0.924751 -1.83405 0
M  V30 870 H 84.5237 3.47564 -1.69518 0
M  V30 871 H 86.2127 3.46509 -2.11392 0
M  V30 872 H 86.9787 2.26545 -4.28838 0
M  V30 873 H 82.8577 3.11191 -3.40119 0
M  V30 874 H 86.4017 2.0216 -6.67665 0
M  V30 875 H 82.2987 2.87153 -5.78112 0
M  V30 876 H 83.0667 2.44237 -7.81211 0
M  V30 877 N 85.7298 1.2412 0.971189 0
M  V30 878 C 86.6618 0.988349 2.06795 0
M  V30 879 C 87.6748 -0.0409541 1.62748 0
M  V30 880 O 88.8638 0.195673 1.77424 0
M  V30 881 C 85.9638 0.469023 3.35639 0
M  V30 882 C 85.1368 1.56065 4.08611 0
M  V30 883 C 84.1958 1.04458 5.15728 0
M  V30 884 O 83.2218 1.73553 5.42096 0
M  V30 885 N 84.4238 -0.122817 5.8037 0
M  V30 886 H 87.1888 1.93265 2.29061 0
M  V30 887 H 84.7498 1.15102 1.13856 0
M  V30 888 H 86.7418 0.108613 4.04554 0
M  V30 889 H 85.3118 -0.380919 3.1027 0
M  V30 890 H 84.5318 2.09341 3.34021 0
M  V30 891 H 85.8198 2.29449 4.54126 0
M  V30 892 H 85.2178 -0.700563 5.61345 0
M  V30 893 H 83.7748 -0.424404 6.50417 0
M  V30 894 N 87.2079 -1.17134 1.05439 0
M  V30 895 C 88.4539 -1.87733 0.767077 0
M  V30 896 C 88.7869 -1.8098 -0.704253 0
M  V30 897 O 88.0619 -1.21951 -1.5152 0
M  V30 898 C 88.3449 -3.37659 1.25133 0
M  V30 899 C 88.1979 -3.53149 2.78578 0
M  V30 900 C 89.5169 -4.31768 0.852324 0
M  V30 901 H 86.6359 -0.681687 0.280129 0
M  V30 902 H 89.2779 -1.37732 1.30881 0
M  V30 903 H 87.4279 -3.80373 0.790469 0
M  V30 904 H 89.0999 -3.19434 3.32806 0
M  V30 905 H 87.3429 -2.95345 3.17732 0
M  V30 906 H 88.0139 -4.58403 3.07523 0
M  V30 907 H 90.4899 -3.96909 1.24911 0
M  V30 908 H 89.3659 -5.35199 1.21873 0
M  V30 909 H 89.6269 -4.41429 -0.243485 0
M  V30 910 N 88.686 -0.835752 -1.33615 0
M  V30 911 C 89.926 -0.43599 -1.99696 0
M  V30 912 C 90.29 0.98557 -1.64774 0
M  V30 913 O 91.491 1.48889 -2.23798 0
M  V30 914 C 89.762 -0.646721 -3.515 0
M  V30 915 S 91.321 -0.341715 -4.37467 0
M  V30 916 H 88.139 -0.164136 -0.691795 0
M  V30 917 H 90.741 -1.08436 -1.62671 0
M  V30 918 H 89.445 -1.68077 -3.74404 0
M  V30 919 H 88.976 0.0159173 -3.93397 0
M  V30 920 H 90.991 0.839708 -4.89043 0
M  V30 921 N 90.1641 1.46063 -0.591896 0
M  V30 922 C 91.1121 2.32124 0.148739 0
M  V30 923 C 92.1061 1.45035 0.875286 0
M  V30 924 O 93.3121 1.61609 0.792632 0
M  V30 925 H 89.6871 0.749024 0.066832 0
M  V30 926 H 91.6581 2.92392 -0.595783 0
M  V30 927 C 90.4071 3.28373 1.1431 0
M  V30 928 H 89.7301 3.95371 0.59346 0
M  V30 929 H 91.1701 3.91352 1.63155 0
M  V30 930 C 89.6291 2.54393 2.20875 0
M  V30 931 O 90.1591 2.31373 3.28374 0
M  V30 932 N 88.3651 2.14797 1.95731 0
M  V30 933 H 87.9121 2.33719 1.08319 0
M  V30 934 H 87.8701 1.65619 2.67241 0
M  V30 935 N 91.6422 0.330177 1.54103 0
M  V30 936 C 92.8882 -0.270806 2.00984 0
M  V30 937 C 93.2212 -1.51265 1.21789 0
M  V30 938 O 92.4962 -1.92142 0.301927 0
M  V30 939 C 92.7792 -0.598339 3.55094 0
M  V30 940 C 92.6322 0.654674 4.4501 0
M  V30 941 C 93.9512 -1.41334 4.16789 0
M  V30 942 H 91.0702 -0.0969531 0.730595 0
M  V30 943 H 93.7122 0.448066 1.84641 0
M  V30 944 H 91.8622 -1.21078 3.69151 0
M  V30 945 H 93.5342 1.29285 4.42813 0
M  V30 946 H 91.7772 1.28224 4.14416 0
M  V30 947 H 92.4482 0.380944 5.50684 0
M  V30 948 H 94.9242 -0.895597 4.06347 0
M  V30 949 H 93.8002 -1.61127 5.24718 0
M  V30 950 H 94.0612 -2.41146 3.70541 0
M  V30 951 N 93.1203 -1.57491 0.0584922 0
M  V30 952 C 94.3673 -1.92978 -0.613648 0
M  V30 953 C 94.6953 -0.937461 -1.70417 0
M  V30 954 O 93.9503 0.049078 -1.95638 0
M  V30 955 C 94.2493 -3.3513 -1.24188 0
M  V30 956 C 93.9153 -4.50037 -0.278826 0
M  V30 957 C 92.5773 -4.81198 -0.0138447 0
M  V30 958 C 94.9293 -5.19807 0.380777 0
M  V30 959 C 92.2573 -5.79473 0.918052 0
M  V30 960 C 94.6093 -6.19079 1.30091 0
M  V30 961 C 93.2733 -6.48665 1.57449 0
M  V30 962 H 92.5433 -0.706157 -0.22455 0
M  V30 963 H 95.1903 -1.91082 0.126533 0
M  V30 964 H 93.4953 -3.33429 -2.05749 0
M  V30 965 H 95.1923 -3.59871 -1.769 0
M  V30 966 H 91.7823 -4.25726 -0.495539 0
M  V30 967 H 95.9663 -4.95939 0.189158 0
M  V30 968 H 91.2223 -6.00727 1.1374 0
M  V30 969 H 95.3963 -6.7225 1.81804 0
M  V30 970 H 93.0233 -7.24628 2.29822 0
M  V30 971 N 94.5984 0.214957 -1.56127 0
M  V30 972 C 95.5084 1.28727 -1.96129 0
M  V30 973 C 96.5244 1.50916 -0.866044 0
M  V30 974 O 97.7004 1.63918 -1.17016 0
M  V30 975 C 94.7654 2.61569 -2.27558 0
M  V30 976 C 93.8264 2.47625 -3.50685 0
M  V30 977 C 93.0594 3.74132 -3.80606 0
M  V30 978 O 93.2824 4.77438 -3.12104 0
M  V30 979 O 92.2164 3.70849 -4.74083 0
M  V30 980 H 96.0424 0.977855 -2.87527 0
M  V30 981 H 93.6274 0.418358 -1.43423 0
M  V30 982 H 95.5094 3.40012 -2.48938 0
M  V30 983 H 94.1844 2.92178 -1.39332 0
M  V30 984 H 93.0914 1.67361 -3.34576 0
M  V30 985 H 94.4244 2.21954 -4.39315 0
M  V30 986 N 96.0765 1.50051 0.48192 0
M  V30 987 C 97.4875 1.5348 1.06305 0
M  V30 988 C 97.8385 0.331997 1.93371 0
M  V30 989 O 96.9635 -0.556256 2.09129 0
M  V30 990 C 97.5585 2.7813 1.93466 0
M  V30 991 C 96.1175 2.84275 2.46707 0
M  V30 992 C 95.2645 2.47637 1.24785 0
M  V30 993 H 98.2155 1.56472 0.264995 0
M  V30 994 H 98.2365 2.59372 2.78399 0
M  V30 995 H 97.7485 3.65654 1.30072 0
M  V30 996 H 95.8495 2.01077 3.13686 0
M  V30 997 H 95.9625 3.8691 2.82555 0
M  V30 998 H 94.3265 1.99835 1.57918 0
M  V30 999 H 95.1095 3.37457 0.630694 0
M  V30 1000 N 97.5546 -0.734337 1.39446 0
M  V30 1001 C 98.5026 -1.86971 1.38364 0
M  V30 1002 C 99.4966 -1.67288 0.266687 0
M  V30 1003 O 100.703 -1.74621 0.436755 0
M  V30 1004 H 97.0776 -0.615474 0.432082 0
M  V30 1005 H 99.0486 -1.85 2.34132 0
M  V30 1006 C 97.7976 -3.2466 1.24465 0
M  V30 1007 H 97.1206 -3.40402 2.09682 0
M  V30 1008 H 98.5606 -4.04292 1.27764 0
M  V30 1009 C 97.0196 -3.36867 -0.0468674 0
M  V30 1010 O 97.5496 -3.88618 -1.01681 0
M  V30 1011 N 95.7556 -2.90391 -0.110145 0
M  V30 1012 H 95.3026 -2.48466 0.679868 0
M  V30 1013 H 95.2606 -2.98939 -0.973799 0
M  V30 1014 N 99.0327 -1.24633 -0.964593 0
M  V30 1015 C 99.9647 -0.999302 -2.06268 0
M  V30 1016 C 100.978 0.0323226 -1.62768 0
M  V30 1017 O 102.167 -0.205079 -1.77318 0
M  V30 1018 C 99.2667 -0.486816 -3.35385 0
M  V30 1019 C 98.4397 -1.5823 -4.07777 0
M  V30 1020 C 97.4987 -1.07191 -5.15166 0
M  V30 1021 O 96.5247 -1.76426 -5.41168 0
M  V30 1022 N 97.7267 0.0920373 -5.80427 0
M  V30 1023 H 100.492 -1.94477 -2.28033 0
M  V30 1024 H 98.0527 -1.15704 -1.13244 0
M  V30 1025 H 100.045 -0.130066 -4.04491 0
M  V30 1026 H 98.6147 0.364459 -3.10468 0
M  V30 1027 H 97.8347 -2.11109 -3.32906 0
M  V30 1028 H 99.1227 -2.31854 -4.52903 0
M  V30 1029 H 98.5207 0.670784 -5.61709 0
M  V30 1030 H 97.0777 0.389905 -6.50633 0
M  V30 1031 N 100.511 1.16574 -1.06058 0
M  V30 1032 C 101.459 2.22941 -0.663343 0
M  V30 1033 C 102.453 1.66358 0.319593 0
M  V30 1034 O 103.659 1.7905 0.184713 0
M  V30 1035 H 100.034 0.725907 -0.196376 0
M  V30 1036 H 102.005 2.53736 -1.57037 0
M  V30 1037 C 100.754 3.47642 -0.0632808 0
M  V30 1038 H 100.077 3.91493 -0.810733 0
M  V30 1039 H 101.517 4.2363 0.177177 0
M  V30 1040 C 99.9758 3.1509 1.19248 0
M  V30 1041 O 100.506 3.30673 2.28075 0
M  V30 1042 N 98.7118 2.6924 1.09353 0
M  V30 1043 H 98.2588 2.5676 0.207912 0
M  V30 1044 H 98.2168 2.47833 1.93458 0
M  V30 1045 N 101.989 0.842826 1.3317 0
M  V30 1046 C 102.937 0.267495 2.31057 0
M  V30 1047 C 103.931 -0.602682 1.58316 0
M  V30 1048 O 105.137 -0.491803 1.73151 0
M  V30 1049 H 101.512 0.0677813 0.748939 0
M  V30 1050 H 103.483 1.10754 2.77085 0
M  V30 1051 C 102.232 -0.539331 3.43492 0
M  V30 1052 H 101.555 0.12095 3.99617 0
M  V30 1053 H 102.995 -0.90767 4.14171 0
M  V30 1054 C 101.454 -1.71981 2.89697 0
M  V30 1055 O 101.984 -2.81862 2.86211 0
M  V30 1056 N 100.19 -1.54299 2.46252 0
M  V30 1057 H 99.7369 -0.649143 2.49287 0
M  V30 1058 H 99.6949 -2.33431 2.10612 0
M  V30 1059 N 103.467 -1.45747 0.599634 0
M  V30 1060 C 104.713 -2.03153 0.100263 0
M  V30 1061 C 105.068 -1.46073 -1.25221 0
M  V30 1062 O 104.361 -0.622878 -1.81193 0
M  V30 1063 C 104.555 -3.57399 -0.00602758 0
M  V30 1064 C 104.384 -4.2944 1.3346 0
M  V30 1065 C 103.154 -4.6768 1.91321 0
M  V30 1066 C 105.352 -4.61905 2.2616 0
M  V30 1067 N 103.334 -5.24544 3.18946 0
M  V30 1068 C 104.705 -5.19518 3.3838 0
M  V30 1069 C 106.76 -4.43841 2.25631 0
M  V30 1070 C 105.463 -5.60972 4.50226 0
M  V30 1071 C 107.489 -4.86322 3.36518 0
M  V30 1072 C 106.851 -5.44021 4.4746 0
M  V30 1073 H 102.95 -0.777911 0.0798696 0
M  V30 1074 H 105.534 -1.77674 0.796244 0
M  V30 1075 H 103.705 -3.82556 -0.671212 0
M  V30 1076 H 105.437 -4.01457 -0.51133 0
M  V30 1077 H 102.192 -4.5098 1.44617 0
M  V30 1078 H 102.616 -5.57483 3.84112 0
M  V30 1079 H 107.258 -3.98552 1.41123 0
M  V30 1080 H 104.976 -6.0523 5.35464 0
M  V30 1081 H 108.562 -4.74084 3.37247 0
M  V30 1082 H 107.442 -5.76289 5.31846 0
M  V30 1083 N 104.945 -0.338344 -1.53925 0
M  V30 1084 C 105.875 0.51328 -2.27789 0
M  V30 1085 C 106.856 1.107 -1.29149 0
M  V30 1086 O 108.041 1.12937 -1.57984 0
M  V30 1087 C 105.171 1.66697 -3.04679 0
M  V30 1088 C 104.125 1.20183 -4.1078 0
M  V30 1089 C 103.451 2.44363 -4.75595 0
M  V30 1090 C 104.751 0.30605 -5.21403 0
M  V30 1091 H 106.445 -0.102883 -2.99223 0
M  V30 1092 H 103.991 -0.0509219 -1.4391 0
M  V30 1093 H 105.944 2.26915 -3.55088 0
M  V30 1094 H 104.668 2.30995 -2.30887 0
M  V30 1095 H 103.327 0.622499 -3.61276 0
M  V30 1096 H 102.975 3.07057 -3.98403 0
M  V30 1097 H 102.675 2.13925 -5.47275 0
M  V30 1098 H 104.199 3.05317 -5.28786 0
M  V30 1099 H 105.613 0.814929 -5.67478 0
M  V30 1100 H 104.01 0.0937929 -6.00027 0
M  V30 1101 H 105.08 -0.65921 -4.80398 0
M  V30 1102 N 106.423 1.57458 -0.0668435 0
M  V30 1103 C 107.353 2.15468 0.899764 0
M  V30 1104 C 108.334 1.08042 1.31381 0
M  V30 1105 O 109.519 1.36054 1.38574 0
M  V30 1106 C 106.649 2.71232 2.16911 0
M  V30 1107 C 105.603 3.83781 1.89463 0
M  V30 1108 C 104.929 4.26127 3.22986 0
M  V30 1109 C 106.229 5.08238 1.20381 0
M  V30 1110 H 107.923 2.96488 0.416529 0
M  V30 1111 H 105.469 1.4262 0.198908 0
M  V30 1112 H 107.422 3.10458 2.84945 0
M  V30 1113 H 106.146 1.87426 2.67468 0
M  V30 1114 H 104.805 3.45051 1.23836 0
M  V30 1115 H 104.453 3.39249 3.71374 0
M  V30 1116 H 104.153 5.01993 3.05413 0
M  V30 1117 H 105.677 4.67966 3.92225 0
M  V30 1118 H 107.091 5.44811 1.78475 0
M  V30 1119 H 105.488 5.89349 1.13083 0
M  V30 1120 H 106.558 4.84558 0.182153 0
M  V30 1121 N 107.901 -0.206675 1.56239 0
M  V30 1122 C 109.129 -0.945345 1.8404 0
M  V30 1123 C 109.544 -1.77336 0.647885 0
M  V30 1124 O 108.901 -1.78425 -0.383511 0
M  V30 1125 C 108.952 -1.8509 3.10522 0
M  V30 1126 O 108.673 -1.05634 4.25174 0
M  V30 1127 C 110.174 -2.70222 3.51418 0
M  V30 1128 H 107.394 -0.276372 0.61144 0
M  V30 1129 H 109.938 -0.217417 2.03341 0
M  V30 1130 H 108.093 -2.53259 2.93153 0
M  V30 1131 H 108.507 -1.67238 4.97124 0
M  V30 1132 H 109.981 -3.29438 4.42916 0
M  V30 1133 H 110.458 -3.43358 2.73864 0
M  V30 1134 H 111.064 -2.07443 3.71278 0
M  V30 1135 N 109.379 -1.50304 -0.473955 0
M  V30 1136 C 110.607 -1.64902 -1.24959 0
M  V30 1137 C 111.022 -0.331198 -1.85872 0
M  V30 1138 O 110.379 0.68652 -1.69095 0
M  V30 1139 C 110.43 -2.73803 -2.36038 0
M  V30 1140 O 110.151 -4.00477 -1.77624 0
M  V30 1141 C 111.652 -2.99349 -3.26964 0
M  V30 1142 H 108.872 -0.554383 -0.378022 0
M  V30 1143 H 111.416 -1.9651 -0.566054 0
M  V30 1144 H 109.571 -2.44898 -3.00173 0
M  V30 1145 H 109.985 -4.60678 -2.5075 0
M  V30 1146 H 111.459 -3.79217 -4.01121 0
M  V30 1147 H 111.936 -2.10307 -3.85574 0
M  V30 1148 H 112.542 -3.29774 -2.68569 0
M  V30 1149 N 110.857 0.726932 -1.39834 0
M  V30 1150 C 112.104 1.48664 -1.37496 0
M  V30 1151 C 112.432 1.94482 0.0264678 0
M  V30 1152 O 111.687 1.67692 1.00886 0
M  V30 1153 C 111.986 2.73495 -2.30077 0
M  V30 1154 C 111.652 2.46502 -3.77555 0
M  V30 1155 C 110.314 2.3885 -4.17737 0
M  V30 1156 C 112.666 2.23604 -4.70798 0
M  V30 1157 C 109.994 2.06352 -5.49214 0
M  V30 1158 C 112.346 1.92622 -6.02561 0
M  V30 1159 C 111.01 1.83444 -6.41798 0
M  V30 1160 H 110.28 0.544001 -0.503135 0
M  V30 1161 H 112.927 0.833657 -1.72402 0
M  V30 1162 H 111.232 3.43575 -1.88317 0
M  V30 1163 H 112.929 3.31549 -2.25558 0
M  V30 1164 H 109.519 2.5334 -3.45712 0
M  V30 1165 H 113.703 2.28479 -4.40581 0
M  V30 1166 H 108.959 1.97776 -5.78528 0
M  V30 1167 H 113.133 1.73914 -6.74334 0
M  V30 1168 H 110.76 1.58029 -7.43593 0
M  V30 1169 N 112.336 1.25143 0.95797 0
M  V30 1170 C 113.585 1.0909 1.69654 0
M  V30 1171 C 113.898 -0.368548 1.92097 0
M  V30 1172 O 115.104 -0.649455 2.63618 0
M  V30 1173 C 113.56 1.90395 3.05414 0
M  V30 1174 C 113.168 3.4081 2.90779 0
M  V30 1175 C 114.912 1.82901 3.83076 0
M  V30 1176 C 112.819 4.14423 4.21909 0
M  V30 1177 H 111.749 0.404625 0.636235 0
M  V30 1178 H 114.4 1.4931 1.06672 0
M  V30 1179 H 112.782 1.42996 3.69281 0
M  V30 1180 H 113.956 3.95859 2.35865 0
M  V30 1181 H 112.271 3.49361 2.26575 0
M  V30 1182 H 114.868 2.35196 4.80195 0
M  V30 1183 H 115.211 0.796224 4.08615 0
M  V30 1184 H 115.744 2.28033 3.25954 0
M  V30 1185 H 112.483 5.18102 4.01561 0
M  V30 1186 H 112.003 3.64159 4.76601 0
M  V30 1187 H 113.682 4.21956 4.90471 0
M  V30 1188 N 113.814 -1.1601 1.06675 0
M  V30 1189 C 114.762 -2.22586 0.675157 0
M  V30 1190 C 115.756 -1.66525 -0.310766 0
M  V30 1191 O 116.962 -1.79145 -0.175215 0
M  V30 1192 H 113.337 -0.724855 0.200223 0
M  V30 1193 H 115.308 -2.52899 1.58381 0
M  V30 1194 C 114.057 -3.47604 0.0817162 0
M  V30 1195 H 113.38 -3.91058 0.831484 0
M  V30 1196 H 114.82 -4.23718 -0.154708 0
M  V30 1197 C 113.279 -3.15718 -1.17576 0
M  V30 1198 O 113.809 -3.31878 -2.26318 0
M  V30 1199 N 112.015 -2.69816 -1.07923 0
M  V30 1200 H 111.562 -2.56866 -0.194293 0
M  V30 1201 H 111.52 -2.48855 -1.92141 0
M  V30 1202 N 115.292 -0.849877 -1.32721 0
M  V30 1203 C 116.708 -0.539102 -1.50219 0
M  V30 1204 C 116.908 0.931271 -1.78689 0
M  V30 1205 O 115.964 1.71455 -1.85363 0
M  V30 1206 C 117.277 -1.42196 -2.64954 0
M  V30 1207 C 118.825 -1.42189 -2.78839 0
M  V30 1208 C 119.3 -2.28985 -3.96648 0
M  V30 1209 N 120.791 -2.26754 -4.03902 0
M  V30 1210 C 121.526 -2.90644 -4.94281 0
M  V30 1211 N 121.022 -3.63629 -5.897 0
M  V30 1212 N 122.815 -2.80057 -4.87365 0
M  V30 1213 H 114.966 -1.80156 -1.12506 0
M  V30 1214 H 117.229 -0.769217 -0.554085 0
M  V30 1215 H 116.935 -2.46733 -2.50631 0
M  V30 1216 H 116.809 -1.10591 -3.60624 0
M  V30 1217 H 119.196 -0.38419 -2.92588 0
M  V30 1218 H 119.277 -1.77807 -1.83898 0
M  V30 1219 H 118.921 -3.32819 -3.83658 0
M  V30 1220 H 118.851 -1.90702 -4.90857 0
M  V30 1221 H 121.342 -1.73688 -3.3562 0
M  V30 1222 H 121.655 -4.09558 -6.55349 0
M  V30 1223 H 120 -3.67737 -5.89741 0
M  V30 1224 H 123.191 -2.22593 -4.11789 0
M  V30 1225 H 123.364 -3.30132 -5.57599 0
M  V30 1226 N 116.77 1.45427 -0.607355 0
M  V30 1227 C 118.186 1.57283 -0.270985 0
M  V30 1228 C 118.386 1.59875 1.22647 0
M  V30 1229 O 117.442 1.52893 2.00948 0
M  V30 1230 C 118.755 2.85566 -0.941952 0
M  V30 1231 C 120.303 2.9924 -0.917849 0
M  V30 1232 C 120.778 4.30293 -1.56882 0
M  V30 1233 N 122.269 4.37051 -1.5343 0
M  V30 1234 C 123.004 5.37123 -2.00715 0
M  V30 1235 N 122.5 6.43734 -2.56084 0
M  V30 1236 N 124.293 5.28479 -1.91484 0
M  V30 1237 H 116.444 1.41988 -1.57966 0
M  V30 1238 H 118.707 0.67885 -0.661715 0
M  V30 1239 H 118.413 2.8955 -1.99633 0
M  V30 1240 H 118.287 3.74322 -0.465096 0
M  V30 1241 H 120.674 2.94822 0.127984 0
M  V30 1242 H 120.755 2.11895 -1.43297 0
M  V30 1243 H 120.399 4.35469 -2.61398 0
M  V30 1244 H 120.329 5.16454 -1.02873 0
M  V30 1245 H 122.82 3.60615 -1.12982 0
M  V30 1246 H 123.133 7.16341 -2.89958 0
M  V30 1247 H 121.478 6.44485 -2.60122 0
M  V30 1248 H 124.669 4.44098 -1.47967 0
M  V30 1249 H 124.842 6.0632 -2.28648 0
M  V30 1250 N 118.248 0.346503 1.53744 0
M  V30 1251 C 119.496 -0.248612 2.00565 0
M  V30 1252 C 119.817 -1.5083 1.23593 0
M  V30 1253 O 119.087 -1.92858 0.343912 0
M  V30 1254 H 117.667 -0.0948564 0.740953 0
M  V30 1255 H 120.329 0.468341 1.89189 0
M  V30 1256 H 119.425 -0.488994 3.08245 0
M  V30 1257 N 119.726 -1.57421 0.075193 0
M  V30 1258 C 120.689 -2.11791 -0.876203 0
M  V30 1259 C 121.689 -1.04268 -1.22412 0
M  V30 1260 O 122.879 -1.30242 -1.15684 0
M  V30 1261 C 120.011 -2.62207 -2.17854 0
M  V30 1262 H 121.204 -2.9716 -0.40444 0
M  V30 1263 H 118.757 -1.55333 -0.173557 0
M  V30 1264 H 119.492 -1.803 -2.6956 0
M  V30 1265 H 119.277 -3.40802 -1.93897 0
M  V30 1266 H 120.767 -3.04335 -2.85955 0
M  V30 1267 N 121.204 0.198386 -1.56346 0
M  V30 1268 C 122.154 1.2499 -1.90687 0
M  V30 1269 C 123.138 1.41158 -0.772217 0
M  V30 1270 O 124.33 1.43584 -1.03502 0
M  V30 1271 C 121.459 2.59542 -2.24706 0
M  V30 1272 C 120.545 2.47181 -3.44619 0
M  V30 1273 N 120.936 2.04495 -4.62618 0
M  V30 1274 C 119.234 2.78082 -3.48692 0
M  V30 1275 C 119.935 2.03945 -5.44776 0
M  V30 1276 N 118.911 2.45323 -4.85095 0
M  V30 1277 H 122.713 0.911149 -2.7942 0
M  V30 1278 H 120.227 0.40684 -1.57221 0
M  V30 1279 H 122.224 3.3549 -2.47491 0
M  V30 1280 H 120.884 2.94244 -1.37298 0
M  V30 1281 H 121.895 1.75256 -4.87345 0
M  V30 1282 H 118.572 3.17002 -2.71691 0
M  V30 1283 H 119.962 1.72872 -6.4928 0
M  V30 1284 N 122.682 1.50554 0.465978 0
M  V30 1285 C 124.098 1.38093 0.800154 0
M  V30 1286 C 124.298 0.440988 1.96615 0
M  V30 1287 O 123.354 -0.114499 2.5224 0
M  V30 1288 C 124.667 2.79565 1.10742 0
M  V30 1289 C 126.215 2.88516 1.21357 0
M  V30 1290 C 126.69 4.30833 1.55393 0
M  V30 1291 N 128.181 4.33807 1.62375 0
M  V30 1292 C 128.916 5.40927 1.90225 0
M  V30 1293 N 128.412 6.58247 2.16062 0
M  V30 1294 N 130.205 5.28376 1.9177 0
M  V30 1295 H 122.356 2.10237 -0.302366 0
M  V30 1296 H 124.619 0.945203 -0.0727746 0
M  V30 1297 H 124.325 3.50208 0.323661 0
M  V30 1298 H 124.199 3.17125 2.04234 0
M  V30 1299 H 126.586 2.1809 1.98799 0
M  V30 1300 H 126.667 2.54492 0.258321 0
M  V30 1301 H 126.311 5.01799 0.784889 0
M  V30 1302 H 126.241 4.62347 2.52076 0
M  V30 1303 H 128.732 3.49212 1.44427 0
M  V30 1304 H 129.045 7.3569 2.36601 0
M  V30 1305 H 127.39 6.61413 2.13444 0
M  V30 1306 H 130.581 4.35715 1.71085 0
M  V30 1307 H 130.754 6.11944 2.13139 0
M  V30 1308 N 124.16 -0.719506 1.40217 0
M  V30 1309 C 125.409 -1.47486 1.37589 0
M  V30 1310 C 125.722 -1.9559 -0.0201568 0
M  V30 1311 O 126.928 -2.70973 -0.169049 0
M  V30 1312 C 125.384 -2.66575 2.41796 0
M  V30 1313 C 124.992 -2.25358 3.87192 0
M  V30 1314 C 126.736 -3.4433 2.48269 0
M  V30 1315 C 124.643 -3.41262 4.83005 0
M  V30 1316 H 123.573 -0.553901 0.511576 0
M  V30 1317 H 126.224 -0.783427 1.65936 0
M  V30 1318 H 124.606 -3.3787 2.06543 0
M  V30 1319 H 125.78 -1.61509 4.31569 0
M  V30 1320 H 124.095 -1.60657 3.84159 0
M  V30 1321 H 126.692 -4.30569 3.17041 0
M  V30 1322 H 127.035 -3.87872 1.51198 0
M  V30 1323 H 127.568 -2.80076 2.82493 0
M  V30 1324 H 124.307 -3.02755 5.81394 0
M  V30 1325 H 123.827 -4.0404 4.43297 0
M  V30 1326 H 125.506 -4.07383 5.02641 0
M  V30 1327 N 125.638 -1.25649 -0.95132 0
M  V30 1328 C 126.868 -1.13179 -1.72841 0
M  V30 1329 C 127.276 0.316827 -1.86528 0
M  V30 1330 O 126.619 1.22948 -1.3649 0
M  V30 1331 C 126.681 -1.71644 -3.15878 0
M  V30 1332 C 126.345 -3.20667 -3.25609 0
M  V30 1333 C 127.342 -4.17616 -3.09666 0
M  V30 1334 C 125.027 -3.6094 -3.49324 0
M  V30 1335 C 127.021 -5.52817 -3.17289 0
M  V30 1336 C 124.708 -4.96278 -3.56584 0
M  V30 1337 C 125.706 -5.92025 -3.40581 0
M  V30 1338 O 125.394 -7.24899 -3.47528 0
M  V30 1339 H 125.126 -0.395389 -0.54831 0
M  V30 1340 H 127.68 -1.66566 -1.20187 0
M  V30 1341 H 125.91 -1.12707 -3.69911 0
M  V30 1342 H 127.599 -1.54225 -3.75459 0
M  V30 1343 H 128.365 -3.87842 -2.91211 0
M  V30 1344 H 124.244 -2.86907 -3.6084 0
M  V30 1345 H 127.788 -6.2753 -3.04716 0
M  V30 1346 H 123.685 -5.25716 -3.74556 0
M  V30 1347 H 124.453 -7.33039 -3.64138 0
M  V30 1348 N 127.117 1.15442 -1.07289 0
M  V30 1349 C 128.345 1.90096 -0.81676 0
M  V30 1350 C 128.76 1.7798 0.629966 0
M  V30 1351 O 128.117 1.1313 1.43206 0
M  V30 1352 C 128.168 3.40466 -1.21512 0
M  V30 1353 O 127.889 3.52232 -2.60508 0
M  V30 1354 C 129.39 4.32145 -0.988198 0
M  V30 1355 H 126.61 0.602495 -0.295366 0
M  V30 1356 H 129.154 1.4627 -1.42918 0
M  V30 1357 H 127.309 3.81958 -0.647039 0
M  V30 1358 H 127.723 4.45549 -2.76742 0
M  V30 1359 H 129.197 5.36072 -1.31645 0
M  V30 1360 H 129.674 4.39135 0.0755063 0
M  V30 1361 H 130.28 3.96395 -1.54115 0
M  V30 1362 N 128.595 0.856903 1.32268 0
M  V30 1363 C 129.505 0.306131 2.32594 0
M  V30 1364 C 130.521 -0.577209 1.64147 0
M  V30 1365 O 131.697 -0.477043 1.95669 0
M  V30 1366 C 128.762 -0.494561 3.43154 0
M  V30 1367 C 127.823 0.415186 4.27288 0
M  V30 1368 C 127.056 -0.347387 5.32568 0
M  V30 1369 O 127.279 -1.57708 5.48165 0
M  V30 1370 O 126.213 0.287982 6.01211 0
M  V30 1371 H 130.039 1.13737 2.81598 0
M  V30 1372 H 127.624 0.619902 1.35932 0
M  V30 1373 H 129.506 -0.948944 4.10576 0
M  V30 1374 H 128.181 -1.30257 2.96336 0
M  V30 1375 H 127.088 0.917793 3.62667 0
M  V30 1376 H 128.421 1.18844 4.77637 0
M  V30 1377 N 130.073 -1.45103 0.615059 0
M  V30 1378 C 131.006 -2.27717 -0.148408 0
M  V30 1379 C 131.984 -1.37584 -0.866572 0
M  V30 1380 O 133.168 -1.67017 -0.87393 0
M  V30 1381 C 130.295 -3.16136 -1.21557 0
M  V30 1382 C 129.341 -4.22263 -0.599712 0
M  V30 1383 S 130.174 -5.3215 0.598081 0
M  V30 1384 C 131.33 -6.24137 -0.469484 0
M  V30 1385 H 131.563 -2.92121 0.552483 0
M  V30 1386 H 129.096 -1.49054 0.402778 0
M  V30 1387 H 131.054 -3.67633 -1.82638 0
M  V30 1388 H 129.715 -2.50982 -1.88857 0
M  V30 1389 H 128.908 -4.84081 -1.4029 0
M  V30 1390 H 128.51 -3.73945 -0.063876 0
M  V30 1391 H 130.802 -6.63984 -1.34652 0
M  V30 1392 H 131.745 -7.0801 0.112725 0
M  V30 1393 H 132.153 -5.58971 -0.788168 0
M  V30 1394 N 131.551 -0.354651 -1.53558 0
M  V30 1395 C 132.967 -0.00315426 -1.596 0
M  V30 1396 C 133.167 1.47741 -1.37021 0
M  V30 1397 O 132.223 2.23759 -1.16996 0
M  V30 1398 C 133.536 -0.44929 -2.97325 0
M  V30 1399 C 135.084 -0.402578 -3.104 0
M  V30 1400 C 135.559 -0.824355 -4.5052 0
M  V30 1401 N 137.05 -0.778979 -4.56603 0
M  V30 1402 C 137.785 -1.07715 -5.63192 0
M  V30 1403 N 137.281 -1.44405 -6.77583 0
M  V30 1404 N 139.074 -1.00066 -5.53121 0
M  V30 1405 H 131.225 -1.31893 -1.66487 0
M  V30 1406 H 133.488 -0.538388 -0.780284 0
M  V30 1407 H 133.194 -1.48202 -3.1895 0
M  V30 1408 H 133.068 0.169772 -3.76818 0
M  V30 1409 H 135.455 0.621004 -2.88492 0
M  V30 1410 H 135.536 -1.05699 -2.32941 0
M  V30 1411 H 135.18 -1.846 -4.73165 0
M  V30 1412 H 135.11 -0.147304 -5.26394 0
M  V30 1413 H 137.601 -0.508528 -3.74463 0
M  V30 1414 H 137.914 -1.65612 -7.54846 0
M  V30 1415 H 136.259 -1.4826 -6.79002 0
M  V30 1416 H 139.45 -0.713293 -4.62633 0
M  V30 1417 H 139.623 -1.23638 -6.36096 0
M  V30 1418 N 133.029 1.57378 -0.0835403 0
M  V30 1419 C 134.276 1.9393 0.58287 0
M  V30 1420 C 134.604 0.964455 1.68904 0
M  V30 1421 O 133.859 -0.0179474 1.95692 0
M  V30 1422 C 134.158 3.37063 1.1884 0
M  V30 1423 C 133.824 4.50424 0.207194 0
M  V30 1424 C 132.486 4.81159 -0.0627115 0
M  V30 1425 C 134.838 5.19136 -0.463426 0
M  V30 1426 C 132.166 5.77939 -1.01012 0
M  V30 1427 C 134.518 6.16931 -1.39924 0
M  V30 1428 C 133.182 6.46078 -1.67749 0
M  V30 1429 H 132.452 0.70964 0.213287 0
M  V30 1430 H 135.099 1.90856 -0.156916 0
M  V30 1431 H 133.404 3.3666 2.00418 0
M  V30 1432 H 135.101 3.6264 1.71153 0
M  V30 1433 H 131.691 4.2646 0.427747 0
M  V30 1434 H 135.875 4.95576 -0.268034 0
M  V30 1435 H 131.131 5.98842 -1.23283 0
M  V30 1436 H 135.305 6.69273 -1.92476 0
M  V30 1437 H 132.932 7.2088 -2.41321 0
M  V30 1438 N 134.507 -0.190092 1.56449 0
M  V30 1439 C 135.735 -0.925772 1.85033 0
M  V30 1440 C 136.15 -1.76638 0.666658 0
M  V30 1441 O 135.507 -1.78822 -0.364565 0
M  V30 1442 C 135.558 -1.81786 3.12468 0
M  V30 1443 O 135.279 -1.01118 4.26271 0
M  V30 1444 C 136.78 -2.6648 3.54265 0
M  V30 1445 H 134 -0.269872 0.614337 0
M  V30 1446 H 136.544 -0.195837 2.0356 0
M  V30 1447 H 134.699 -2.50136 2.95822 0
M  V30 1448 H 135.113 -1.61956 4.98869 0
M  V30 1449 H 136.587 -3.24722 4.46385 0
M  V30 1450 H 137.064 -3.40434 2.77491 0
M  V30 1451 H 137.67 -2.03493 3.73458 0
M  V30 1452 N 135.985 -1.50799 -0.457987 0
M  V30 1453 C 137.231 -1.62683 -1.21088 0
M  V30 1454 C 137.564 -0.332268 -1.91336 0
M  V30 1455 O 136.839 0.667043 -1.82704 0
M  V30 1456 C 137.122 -2.81615 -2.24422 0
M  V30 1457 C 136.975 -4.20989 -1.58392 0
M  V30 1458 C 138.294 -2.96085 -3.2561 0
M  V30 1459 H 135.413 -0.592087 -0.438864 0
M  V30 1460 H 138.055 -1.83225 -0.50286 0
M  V30 1461 H 136.205 -2.64231 -2.84806 0
M  V30 1462 H 137.877 -4.49994 -1.01504 0
M  V30 1463 H 136.12 -4.24641 -0.886704 0
M  V30 1464 H 136.791 -5.0016 -2.33547 0
M  V30 1465 H 139.267 -3.12042 -2.75262 0
M  V30 1466 H 138.143 -3.80902 -3.95228 0
M  V30 1467 H 138.404 -2.0726 -3.90507 0
M  V30 1468 N 137.463 0.71206 -1.40597 0
M  V30 1469 C 138.879 1.02058 -1.22704 0
M  V30 1470 C 139.079 2.01228 -0.104729 0
M  V30 1471 O 138.135 2.4674 0.53624 0
M  V30 1472 C 139.448 1.56094 -2.57012 0
M  V30 1473 C 140.996 1.6806 -2.64054 0
M  V30 1474 C 141.471 2.25501 -3.9864 0
M  V30 1475 N 142.962 2.32882 -4.004 0
M  V30 1476 C 143.697 2.78317 -5.01325 0
M  V30 1477 N 143.193 3.23478 -6.12645 0
M  V30 1478 N 144.986 2.77733 -4.88693 0
M  V30 1479 H 137.137 0.0547896 -2.12329 0
M  V30 1480 H 139.4 0.0869027 -0.944008 0
M  V30 1481 H 139.106 0.906865 -3.39807 0
M  V30 1482 H 138.98 2.54564 -2.78347 0
M  V30 1483 H 141.367 2.32583 -1.81629 0
M  V30 1484 H 141.448 0.681802 -2.46546 0
M  V30 1485 H 141.092 1.61598 -4.81506 0
M  V30 1486 H 141.022 3.26102 -4.13479 0
M  V30 1487 H 143.513 2.00991 -3.20017 0
M  V30 1488 H 143.826 3.56725 -6.85542 0
M  V30 1489 H 142.171 3.21429 -6.16205 0
M  V30 1490 H 145.362 2.4179 -4.00818 0
M  V30 1491 H 145.535 3.12826 -5.67489 0
M  V30 1492 N 138.941 1.26152 0.944643 0
M  V30 1493 C 140.218 1.02247 1.66748 0
M  V30 1494 C 140.598 -0.448202 2.06287 0
M  V30 1495 O 139.946 -1.42779 1.78399 0
M  V30 1496 C 140.156 1.96788 2.88228 0
M  V30 1497 C 141.504 2.25201 3.59958 0
M  V30 1498 O 142.528 1.94626 2.98327 0
M  V30 1499 O 141.387 2.77242 4.70956 0
M  V30 1500 H 138.481 0.388517 0.730057 0
M  V30 1501 H 141.027 1.37348 0.99668 0
M  V30 1502 H 139.799 2.96047 2.55875 0
M  V30 1503 H 139.422 1.62145 3.63035 0
M  V30 1504 N 140.419 -1.14872 1.07899 0
M  V30 1505 C 141.659 -1.8745 0.814965 0
M  V30 1506 C 142.023 -1.80758 -0.64733 0
M  V30 1507 O 143.224 -2.48422 -1.02664 0
M  V30 1508 C 141.495 -3.32286 1.31607 0
M  V30 1509 S 143.054 -4.22537 1.18357 0
M  V30 1510 H 139.872 -0.646833 0.295174 0
M  V30 1511 H 142.474 -1.38555 1.37923 0
M  V30 1512 H 141.178 -3.34703 2.37491 0
M  V30 1513 H 140.709 -3.86238 0.747261 0
M  V30 1514 H 142.724 -4.96044 0.124586 0
M  V30 1515 N 141.898 -0.863906 -1.31812 0
M  V30 1516 C 143.123 -0.48527 -2.01643 0
M  V30 1517 C 143.548 0.913058 -1.64453 0
M  V30 1518 O 142.906 1.6014 -0.849985 0
M  V30 1519 C 142.954 -0.642625 -3.54828 0
M  V30 1520 O 142.058 0.320659 -4.11151 0
M  V30 1521 H 141.399 -0.193793 -0.635091 0
M  V30 1522 H 143.929 -1.16565 -1.68148 0
M  V30 1523 H 143.939 -0.533628 -4.04495 0
M  V30 1524 H 142.614 -1.66227 -3.81237 0
M  V30 1525 H 141.191 0.167126 -3.72525 0
M  V30 1526 N 143.376 1.44774 -0.622745 0
M  V30 1527 C 144.601 2.06999 -0.128968 0
M  V30 1528 C 145.026 1.4617 1.1839 0
M  V30 1529 O 144.384 0.560007 1.72434 0
M  V30 1530 C 144.432 3.60595 -0.0188351 0
M  V30 1531 O 143.536 3.99398 1.02739 0
M  V30 1532 H 142.877 0.659047 -0.0809544 0
M  V30 1533 H 145.407 1.85784 -0.85705 0
M  V30 1534 H 145.417 4.07627 0.174476 0
M  V30 1535 H 144.092 4.04252 -0.977384 0
M  V30 1536 H 142.669 3.64011 0.809326 0
M  V30 1537 N 144.854 0.36279 1.53368 0
M  V30 1538 C 145.784 -0.476976 2.28576 0
M  V30 1539 C 146.765 -1.08631 1.30894 0
M  V30 1540 O 147.95 -1.10409 1.59761 0
M  V30 1541 C 145.08 -1.61828 3.07293 0
M  V30 1542 C 144.034 -1.13633 4.1264 0
M  V30 1543 C 143.36 -2.36766 4.79423 0
M  V30 1544 C 144.66 -0.223061 5.21823 0
M  V30 1545 H 146.354 0.150474 2.99022 0
M  V30 1546 H 143.9 0.0738103 1.43811 0
M  V30 1547 H 145.853 -2.21237 3.58653 0
M  V30 1548 H 144.577 -2.27292 2.34533 0
M  V30 1549 H 143.236 -0.564945 3.62221 0
M  V30 1550 H 142.884 -3.0068 4.03238 0
M  V30 1551 H 142.584 -2.05192 5.50609 0
M  V30 1552 H 144.108 -2.96865 5.33576 0
M  V30 1553 H 145.522 -0.724545 5.68703 0
M  V30 1554 H 143.919 0.001678 6.001 0
M  V30 1555 H 144.989 0.735553 4.79289 0
M  V30 1556 N 146.332 -1.57332 0.0918853 0
M  V30 1557 C 147.743 -1.81496 -0.437739 0
M  V30 1558 C 148.094 -1.00727 -1.6837 0
M  V30 1559 O 147.219 -0.235694 -2.15113 0
M  V30 1560 C 147.814 -3.29197 -0.800939 0
M  V30 1561 C 146.373 -3.54136 -1.27532 0
M  V30 1562 C 145.52 -2.75979 -0.270392 0
M  V30 1563 H 148.471 -1.55494 0.317366 0
M  V30 1564 H 148.492 -3.42344 -1.66074 0
M  V30 1565 H 148.004 -3.87955 0.106078 0
M  V30 1566 H 146.105 -3.00705 -2.20016 0
M  V30 1567 H 146.218 -4.62792 -1.23938 0
M  V30 1568 H 144.582 -2.43349 -0.751872 0
M  V30 1569 H 145.365 -3.37484 0.629248 0
M  V30 1570 N 147.81 0.181792 -1.56548 0
M  V30 1571 C 148.758 1.24461 -1.965 0
M  V30 1572 C 149.752 1.464 -0.852261 0
M  V30 1573 O 150.958 1.47103 -1.03733 0
M  V30 1574 H 147.333 0.418138 -0.625031 0
M  V30 1575 H 149.304 0.880714 -2.85107 0
M  V30 1576 C 148.053 2.57891 -2.33212 0
M  V30 1577 H 147.376 2.41829 -3.18369 0
M  V30 1578 H 148.816 3.3097 -2.65019 0
M  V30 1579 C 147.275 3.15871 -1.17163 0
M  V30 1580 O 147.805 3.9913 -0.453708 0
M  V30 1581 N 146.011 2.74808 -0.944936 0
M  V30 1582 H 145.558 2.07205 -1.53049 0
M  V30 1583 H 145.516 3.13939 -0.170286 0
M  V30 1584 N 149.288 1.51039 0.449983 0
M  V30 1585 C 150.534 1.63322 1.20223 0
M  V30 1586 C 150.867 0.34241 1.91158 0
M  V30 1587 O 150.142 -0.657344 1.83055 0
M  V30 1588 C 150.425 2.82801 2.22925 0
M  V30 1589 C 150.278 4.21823 1.56157 0
M  V30 1590 C 151.597 2.97807 3.24035 0
M  V30 1591 H 148.716 0.594407 0.435718 0
M  V30 1592 H 151.358 1.83489 0.493136 0
M  V30 1593 H 149.508 2.65738 2.834 0
M  V30 1594 H 151.18 4.50526 0.991162 0
M  V30 1595 H 149.423 4.25105 0.864172 0
M  V30 1596 H 150.094 5.01391 2.30891 0
M  V30 1597 H 152.57 3.13497 2.73603 0
M  V30 1598 H 151.446 3.82992 3.93202 0
M  V30 1599 H 151.707 2.09328 3.89402 0
M  V30 1600 N 150.766 -0.704594 1.40972 0
M  V30 1601 C 152.177 -1.28418 1.3552 0
M  V30 1602 C 152.528 -1.96171 0.0339434 0
M  V30 1603 O 151.653 -1.98231 -0.867944 0
M  V30 1604 C 152.248 -2.33528 2.45459 0
M  V30 1605 C 150.807 -2.87085 2.43433 0
M  V30 1606 C 149.954 -1.61007 2.2577 0
M  V30 1607 H 152.905 -0.499963 1.50619 0
M  V30 1608 H 152.926 -3.14619 2.13998 0
M  V30 1609 H 152.438 -1.84187 3.41609 0
M  V30 1610 H 150.539 -3.40626 1.51013 0
M  V30 1611 H 150.652 -3.3813 3.39419 0
M  V30 1612 H 149.016 -1.86482 1.73483 0
M  V30 1613 H 149.799 -1.13675 3.23933 0
M  V30 1614 N 152.244 -1.26651 -0.937939 0
M  V30 1615 C 153.492 -1.12165 -1.68118 0
M  V30 1616 C 153.813 0.334983 -1.92101 0
M  V30 1617 O 153.083 1.23583 -1.52 0
M  V30 1618 H 151.663 -0.412093 -0.623048 0
M  V30 1619 H 154.325 -1.59027 -1.12678 0
M  V30 1620 H 153.421 -1.64289 -2.6536 0
M  V30 1621 N 153.722 1.14298 -1.08507 0
M  V30 1622 C 154.947 1.8976 -0.837001 0
M  V30 1623 C 155.372 1.78097 0.605228 0
M  V30 1624 O 154.73 1.12188 1.4242 0
M  V30 1625 C 154.778 3.37685 -1.26495 0
M  V30 1626 O 153.882 4.10281 -0.417514 0
M  V30 1627 H 153.223 0.590365 -0.303917 0
M  V30 1628 H 155.753 1.44672 -1.44676 0
M  V30 1629 H 155.763 3.88501 -1.24625 0
M  V30 1630 H 154.438 3.45492 -2.31534 0
M  V30 1631 H 153.015 3.69536 -0.499722 0
M  V30 1632 N 155.201 0.870884 1.31352 0
M  V30 1633 C 156.441 0.488783 1.9847 0
M  V30 1634 C 156.805 -0.941536 1.67329 0
M  V30 1635 O 158.006 -1.42903 2.27667 0
M  V30 1636 C 156.277 0.739688 3.49662 0
M  V30 1637 S 157.836 0.457582 4.36408 0
M  V30 1638 H 154.654 0.18242 0.6872 0
M  V30 1639 H 157.256 1.12711 1.59739 0
M  V30 1640 H 155.96 1.77944 3.69816 0
M  V30 1641 H 155.491 0.0883905 3.93301 0
M  V30 1642 H 157.506 -0.709752 4.91098 0
M  V30 1643 N 156.679 -1.44442 0.630414 0
M  V30 1644 C 157.626 -2.30678 -0.0749355 0
M  V30 1645 C 158.596 -1.4344 -0.837502 0
M  V30 1646 O 159.781 -1.72343 -0.818684 0
M  V30 1647 C 156.921 -3.28706 -1.05103 0
M  V30 1648 C 156.034 -4.31046 -0.286954 0
M  V30 1649 C 155.169 -5.16167 -1.2548 0
M  V30 1650 C 154.208 -6.10216 -0.479843 0
M  V30 1651 N 153.345 -6.88039 -1.39811 0
M  V30 1652 H 158.185 -2.90454 0.666386 0
M  V30 1653 H 155.722 -1.43107 0.340404 0
M  V30 1654 H 157.68 -3.84027 -1.63031 0
M  V30 1655 H 156.31 -2.70632 -1.75949 0
M  V30 1656 H 155.362 -3.78203 0.408243 0
M  V30 1657 H 156.674 -4.97794 0.316657 0
M  V30 1658 H 155.828 -5.76002 -1.90544 0
M  V30 1659 H 154.567 -4.49491 -1.89233 0
M  V30 1660 H 153.572 -5.49491 0.184295 0
M  V30 1661 H 154.797 -6.78928 0.152965 0
M  V30 1662 H 152.743 -6.24032 -2.02287 0
M  V30 1663 H 152.66 -7.51223 -0.848508 0
M  V30 1664 H 153.928 -7.52397 -2.03762 0
M  V30 1665 N 158.157 -0.370918 -1.53173 0
M  V30 1666 C 159.067 0.480823 -2.2962 0
M  V30 1667 C 160.083 1.08789 -1.35798 0
M  V30 1668 O 161.259 1.09768 -1.68858 0
M  V30 1669 C 158.324 1.60227 -3.07454 0
M  V30 1670 C 157.385 1.0222 -4.16953 0
M  V30 1671 C 156.618 2.0902 -4.91066 0
M  V30 1672 O 156.841 3.30222 -4.65091 0
M  V30 1673 O 155.775 1.71778 -5.76867 0
M  V30 1674 H 159.601 -0.141421 -3.03371 0
M  V30 1675 H 157.186 -0.135146 -1.48787 0
M  V30 1676 H 159.068 2.25417 -3.56041 0
M  V30 1677 H 157.743 2.20982 -2.36535 0
M  V30 1678 H 156.65 0.334064 -3.72605 0
M  V30 1679 H 157.983 0.459131 -4.90054 0
M  V30 1680 N 159.635 1.57281 -0.100228 0
M  V30 1681 C 160.863 1.98879 0.570509 0
M  V30 1682 C 161.278 0.979476 1.61405 0
M  V30 1683 O 160.635 -0.0302288 1.82475 0
M  V30 1684 C 160.686 3.4052 1.2136 0
M  V30 1685 O 160.407 4.37588 0.211786 0
M  V30 1686 C 161.908 3.97149 1.96945 0
M  V30 1687 H 159.128 0.653428 0.152555 0
M  V30 1688 H 161.672 2.03697 -0.18103 0
M  V30 1689 H 159.827 3.367 1.91603 0
M  V30 1690 H 160.241 5.20118 0.676607 0
M  V30 1691 H 161.715 4.98393 2.37294 0
M  V30 1692 H 162.192 3.3525 2.83733 0
M  V30 1693 H 162.798 4.04458 1.31506 0
M  V30 1694 N 161.113 -0.173488 1.56642 0
M  V30 1695 C 162.36 -0.890465 1.81871 0
M  V30 1696 C 162.688 -1.82339 0.67696 0
M  V30 1697 O 161.943 -1.92795 -0.335926 0
M  V30 1698 C 162.242 -1.72069 3.13252 0
M  V30 1699 C 161.908 -0.936878 4.41059 0
M  V30 1700 C 160.57 -0.720545 4.75775 0
M  V30 1701 C 162.922 -0.386919 5.19762 0
M  V30 1702 C 160.25 0.0568829 5.86672 0
M  V30 1703 C 162.602 0.37741 6.31473 0
M  V30 1704 C 161.266 0.604563 6.64757 0
M  V30 1705 H 160.536 -0.325844 0.665512 0
M  V30 1706 H 163.183 -0.155527 1.90867 0
M  V30 1707 H 161.488 -2.52496 2.99588 0
M  V30 1708 H 163.185 -2.27844 3.29982 0
M  V30 1709 H 159.775 -1.11553 4.13828 0
M  V30 1710 H 163.959 -0.541398 4.93338 0
M  V30 1711 H 159.215 0.242635 6.10918 0
M  V30 1712 H 163.389 0.810825 6.91664 0
M  V30 1713 H 161.016 1.20885 7.50527 0
M  V30 1714 N 162.591 -1.51276 -0.441967 0
M  V30 1715 C 163.539 -1.72823 -1.55676 0
M  V30 1716 C 164.533 -0.59445 -1.58627 0
M  V30 1717 O 165.739 -0.775715 -1.62427 0
M  V30 1718 H 162.114 -0.545983 -0.517113 0
M  V30 1719 H 164.085 -2.6628 -1.34675 0
M  V30 1720 C 162.834 -1.86619 -2.93375 0
M  V30 1721 H 162.157 -2.73264 -2.91834 0
M  V30 1722 H 163.597 -2.05709 -3.70756 0
M  V30 1723 C 162.056 -0.624842 -3.31055 0
M  V30 1724 O 162.586 0.222636 -4.01083 0
M  V30 1725 N 160.792 -0.470288 -2.86769 0
M  V30 1726 H 160.339 -1.161 -2.29953 0
M  V30 1727 H 160.297 0.359051 -3.12343 0
M  V30 1728 N 164.069 0.697108 -1.41344 0
M  V30 1729 C 164.999 1.82353 -1.45841 0
M  V30 1730 C 165.98 1.67115 -0.317247 0
M  V30 1731 O 167.165 1.86871 -0.528474 0
M  V30 1732 C 164.295 3.20476 -1.33838 0
M  V30 1733 C 163.249 3.50415 -2.4575 0
M  V30 1734 C 162.575 4.87878 -2.18813 0
M  V30 1735 C 163.875 3.49546 -3.88091 0
M  V30 1736 H 165.569 1.78846 -2.40113 0
M  V30 1737 H 163.115 0.859028 -1.15571 0
M  V30 1738 H 165.068 3.98988 -1.35596 0
M  V30 1739 H 163.792 3.24604 -0.360498 0
M  V30 1740 H 162.451 2.74253 -2.43271 0
M  V30 1741 H 162.099 4.8863 -1.19371 0
M  V30 1742 H 161.799 5.08875 -2.93803 0
M  V30 1743 H 163.323 5.68702 -2.22284 0
M  V30 1744 H 164.737 4.18066 -3.92293 0
M  V30 1745 H 163.134 3.82075 -4.62751 0
M  V30 1746 H 164.204 2.48552 -4.16353 0
M  V30 1747 N 165.547 1.27147 0.931209 0
M  V30 1748 C 166.777 1.15914 1.71019 0
M  V30 1749 C 167.185 -0.287112 1.87009 0
M  V30 1750 O 166.528 -1.20761 1.38429 0
M  V30 1751 C 166.59 1.76647 3.13107 0
M  V30 1752 C 166.254 3.25807 3.20467 0
M  V30 1753 C 167.251 4.22489 3.02983 0
M  V30 1754 C 164.936 3.66452 3.43538 0
M  V30 1755 C 166.93 5.57794 3.08454 0
M  V30 1756 C 164.617 5.01888 3.48643 0
M  V30 1757 C 165.615 5.97369 3.31119 0
M  V30 1758 O 165.303 7.30337 3.35952 0
M  V30 1759 H 165.035 0.404062 0.54195 0
M  V30 1760 H 167.589 1.68457 1.17521 0
M  V30 1761 H 165.819 1.18578 3.68071 0
M  V30 1762 H 167.508 1.60179 3.72958 0
M  V30 1763 H 168.274 3.92425 2.85004 0
M  V30 1764 H 164.153 2.92611 3.5623 0
M  V30 1765 H 167.697 6.32298 2.94694 0
M  V30 1766 H 163.594 5.31609 3.66145 0
M  V30 1767 H 164.362 7.38739 3.5243 0
M  V30 1768 N 167.025 -1.13721 1.09112 0
M  V30 1769 C 168.255 -1.88499 0.845671 0
M  V30 1770 C 168.663 -1.79218 -0.606432 0
M  V30 1771 O 168.006 -1.1544 -1.42896 0
M  V30 1772 C 168.068 -3.38954 1.19793 0
M  V30 1773 C 167.732 -3.72018 2.65428 0
M  V30 1774 C 168.729 -3.7153 3.63677 0
M  V30 1775 C 166.414 -4.01775 3.01467 0
M  V30 1776 C 168.408 -4.00336 4.95994 0
M  V30 1777 C 166.095 -4.30243 4.33975 0
M  V30 1778 C 167.093 -4.29508 5.31048 0
M  V30 1779 O 166.781 -4.5728 6.61173 0
M  V30 1780 H 166.513 -0.603702 0.304171 0
M  V30 1781 H 169.067 -1.44903 1.45576 0
M  V30 1782 H 167.297 -3.83039 0.530871 0
M  V30 1783 H 168.986 -3.95052 0.932146 0
M  V30 1784 H 169.752 -3.4862 3.37179 0
M  V30 1785 H 165.631 -4.01496 2.26544 0
M  V30 1786 H 169.175 -3.99678 5.71755 0
M  V30 1787 H 165.072 -4.52625 4.60219 0
M  V30 1788 H 165.84 -4.74964 6.66597 0
M  V30 1789 N 168.503 -0.877838 -1.30888 0
M  V30 1790 C 169.733 -0.506678 -2.00291 0
M  V30 1791 C 170.141 0.907449 -1.66018 0
M  V30 1792 O 169.484 1.60719 -0.88967 0
M  V30 1793 C 169.546 -0.59323 -3.54572 0
M  V30 1794 C 169.21 -1.97038 -4.12341 0
M  V30 1795 C 170.207 -2.93889 -4.28865 0
M  V30 1796 C 167.892 -2.27383 -4.47886 0
M  V30 1797 C 169.886 -4.19224 -4.80136 0
M  V30 1798 C 167.573 -3.52965 -4.98857 0
M  V30 1799 C 168.571 -4.48701 -5.14934 0
M  V30 1800 O 168.259 -5.72056 -5.64808 0
M  V30 1801 H 167.991 -0.1951 -0.647234 0
M  V30 1802 H 170.545 -1.18301 -1.6791 0
M  V30 1803 H 168.775 0.140057 -3.86446 0
M  V30 1804 H 170.464 -0.234372 -4.05223 0
M  V30 1805 H 171.23 -2.71756 -4.01714 0
M  V30 1806 H 167.109 -1.53639 -4.34645 0
M  V30 1807 H 170.653 -4.93956 -4.92599 0
M  V30 1808 H 166.55 -3.74939 -5.25443 0
M  V30 1809 H 167.318 -5.74337 -5.83163 0
M  V30 1810 N 169.982 1.44106 -0.638065 0
M  V30 1811 C 170.892 2.34513 0.0637334 0
M  V30 1812 C 171.908 1.53018 0.828346 0
M  V30 1813 O 173.084 1.85723 0.779036 0
M  V30 1814 C 170.149 3.31095 1.02844 0
M  V30 1815 C 169.21 4.28497 0.26244 0
M  V30 1816 C 168.443 5.20465 1.1812 0
M  V30 1817 O 168.666 5.16514 2.42011 0
M  V30 1818 O 167.6 5.98251 0.661774 0
M  V30 1819 H 171.426 2.95989 -0.68003 0
M  V30 1820 H 169.011 1.43994 -0.398252 0
M  V30 1821 H 170.893 3.90526 1.58327 0
M  V30 1822 H 169.568 2.72144 1.7527 0
M  V30 1823 H 168.475 3.72592 -0.335602 0
M  V30 1824 H 169.808 4.90388 -0.421936 0
M  V30 1825 N 171.46 0.379036 1.52974 0
M  V30 1826 C 172.688 -0.20679 2.05864 0
M  V30 1827 C 173.103 -1.41356 1.25155 0
M  V30 1828 O 172.46 -1.8009 0.295588 0
M  V30 1829 C 172.511 -0.587045 3.56702 0
M  V30 1830 O 172.232 0.571776 4.34353 0
M  V30 1831 C 173.733 -1.22983 4.25899 0
M  V30 1832 H 170.953 -0.0336123 0.670158 0
M  V30 1833 H 173.497 0.541298 1.97206 0
M  V30 1834 H 171.652 -1.28504 3.65466 0
M  V30 1835 H 172.066 0.261544 5.23847 0
M  V30 1836 H 173.54 -1.44635 5.32715 0
M  V30 1837 H 174.017 -2.19416 3.80465 0
M  V30 1838 H 174.623 -0.572892 4.21424 0
M  V30 1839 N 172.938 -1.57226 0.108567 0
M  V30 1840 C 174.215 -1.86333 -0.594939 0
M  V30 1841 C 174.595 -1.00788 -1.85486 0
M  V30 1842 O 173.943 -0.0839293 -2.28346 0
M  V30 1843 C 174.153 -3.37265 -0.897405 0
M  V30 1844 C 175.501 -4.05629 -1.25501 0
M  V30 1845 O 176.525 -3.42224 -0.987998 0
M  V30 1846 O 175.384 -5.17531 -1.75567 0
M  V30 1847 H 172.478 -0.771018 -0.2991 0
M  V30 1848 H 175.024 -1.69102 0.142283 0
M  V30 1849 H 173.796 -3.913 -0.00413806 0
M  V30 1850 H 173.419 -3.59889 -1.69014 0
M  V30 1851 N 174.416 0.165178 -1.56732 0
M  V30 1852 C 175.641 0.900253 -1.86843 0
M  V30 1853 C 176.066 1.74766 -0.695596 0
M  V30 1854 O 175.424 1.77786 0.35522 0
M  V30 1855 C 175.472 1.74777 -3.15413 0
M  V30 1856 O 174.576 2.85007 -2.98068 0
M  V30 1857 H 173.917 0.251832 -0.614391 0
M  V30 1858 H 176.447 0.161468 -2.03962 0
M  V30 1859 H 176.457 2.14646 -3.46974 0
M  V30 1860 H 175.132 1.12537 -4.00385 0
M  V30 1861 H 173.709 2.48676 -2.77875 0
M  V30 1862 N 175.894 1.51508 0.433938 0
M  V30 1863 C 177.14 1.64588 1.18484 0
M  V30 1864 C 177.473 0.362666 1.90784 0
M  V30 1865 O 176.748 -0.637892 1.83742 0
M  V30 1866 C 177.031 2.85149 2.19913 0
M  V30 1867 C 176.884 4.23456 1.51674 0
M  V30 1868 C 178.203 3.01227 3.20858 0
M  V30 1869 H 175.322 0.598994 0.429389 0
M  V30 1870 H 177.964 1.84002 0.473647 0
M  V30 1871 H 176.114 2.68729 2.80566 0
M  V30 1872 H 177.786 4.51552 0.943322 0
M  V30 1873 H 176.029 4.25998 0.819035 0
M  V30 1874 H 176.7 5.03812 2.2556 0
M  V30 1875 H 179.176 3.16382 2.70263 0
M  V30 1876 H 178.052 3.87141 3.89118 0
M  V30 1877 H 178.313 2.13447 3.8716 0
M  V30 1878 N 177.372 -0.689602 1.41712 0
M  V30 1879 C 178.621 -1.44534 1.40686 0
M  V30 1880 C 178.934 -1.95588 0.0213352 0
M  V30 1881 O 180.14 -2.71271 -0.111534 0
M  V30 1882 C 178.596 -2.61387 2.47396 0
M  V30 1883 C 178.204 -2.17094 3.91885 0
M  V30 1884 C 179.948 -3.38986 2.55517 0
M  V30 1885 C 177.855 -3.3094 4.90135 0
M  V30 1886 H 176.785 -0.542925 0.52321 0
M  V30 1887 H 179.436 -0.748054 1.6756 0
M  V30 1888 H 177.818 -3.33412 2.13664 0
M  V30 1889 H 178.992 -1.52318 4.34897 0
M  V30 1890 H 177.307 -1.52473 3.8748 0
M  V30 1891 H 179.904 -4.23747 3.26102 0
M  V30 1892 H 180.247 -3.84578 1.59391 0
M  V30 1893 H 180.78 -2.74021 2.8837 0
M  V30 1894 H 177.519 -2.90355 5.87685 0
M  V30 1895 H 177.039 -3.94546 4.51767 0
M  V30 1896 H 178.718 -3.9663 5.11169 0
M  V30 1897 N 178.85 -1.27639 -0.924453 0
M  V30 1898 C 179.813 -1.10681 -2.00705 0
M  V30 1899 C 180.813 -0.0497823 -1.60723 0
M  V30 1900 O 182.003 -0.294654 -1.7169 0
M  V30 1901 C 179.135 -0.687164 -3.33902 0
M  V30 1902 H 180.328 -2.06817 -2.17179 0
M  V30 1903 H 177.881 -1.10473 -1.10569 0
M  V30 1904 H 178.616 0.275439 -3.23128 0
M  V30 1905 H 178.401 -1.45061 -3.6428 0
M  V30 1906 H 179.891 -0.590853 -4.13399 0
M  V30 1907 N 180.328 1.1314 -1.09713 0
M  V30 1908 C 181.556 1.88321 -0.856898 0
M  V30 1909 C 181.971 1.79276 0.592073 0
M  V30 1910 O 181.328 1.16142 1.40774 0
M  V30 1911 C 181.379 3.37812 -1.28706 0
M  V30 1912 O 181.1 3.46627 -2.67921 0
M  V30 1913 C 182.601 4.29952 -1.07964 0
M  V30 1914 H 179.821 0.596094 -0.308079 0
M  V30 1915 H 182.365 1.43205 -1.45988 0
M  V30 1916 H 180.52 3.805 -0.727912 0
M  V30 1917 H 180.934 4.39579 -2.8613 0
M  V30 1918 H 182.408 5.33159 -1.42986 0
M  V30 1919 H 182.885 4.39196 -0.0176577 0
M  V30 1920 H 183.491 3.93036 -1.62489 0
M  V30 1921 N 181.806 0.884767 1.30421 0
M  V30 1922 C 182.753 0.349642 2.28136 0
M  V30 1923 C 183.723 -0.560061 1.56373 0
M  V30 1924 O 184.908 -0.488524 1.8444 0
M  V30 1925 C 182.048 -0.42999 3.42411 0
M  V30 1926 C 181.161 0.508907 4.28992 0
M  V30 1927 C 180.296 -0.286301 5.30428 0
M  V30 1928 C 179.335 0.648079 6.08659 0
M  V30 1929 N 178.472 -0.111792 7.02011 0
M  V30 1930 H 183.312 1.18807 2.73293 0
M  V30 1931 H 180.849 0.597231 1.3443 0
M  V30 1932 H 182.807 -0.897923 4.07423 0
M  V30 1933 H 181.437 -1.23299 2.98324 0
M  V30 1934 H 180.489 1.09533 3.64289 0
M  V30 1935 H 181.801 1.22475 4.8353 0
M  V30 1936 H 180.955 -0.816098 6.01186 0
M  V30 1937 H 179.694 -1.03536 4.76583 0
M  V30 1938 H 178.699 1.18951 5.36778 0
M  V30 1939 H 179.924 1.39623 6.64592 0
M  V30 1940 H 177.87 -0.843395 6.50556 0
M  V30 1941 H 177.787 0.544429 7.54037 0
M  V30 1942 H 179.055 -0.622339 7.77012 0
M  V30 1943 N 183.284 -1.43765 0.645699 0
M  V30 1944 C 184.231 -2.30745 -0.0504648 0
M  V30 1945 C 185.201 -1.4432 -0.822241 0
M  V30 1946 O 186.386 -1.73202 -0.800358 0
M  V30 1947 C 183.526 -3.29802 -1.0161 0
M  V30 1948 C 182.639 -4.31326 -0.241219 0
M  V30 1949 C 181.774 -5.17469 -1.19998 0
M  V30 1950 C 180.813 -6.10691 -0.415094 0
M  V30 1951 N 179.95 -6.89483 -1.32506 0
M  V30 1952 H 184.79 -2.8973 0.697155 0
M  V30 1953 H 182.327 -1.42738 0.355563 0
M  V30 1954 H 184.285 -3.85734 -1.58949 0
M  V30 1955 H 182.915 -2.72483 -1.73069 0
M  V30 1956 H 181.967 -3.77749 0.448334 0
M  V30 1957 H 183.279 -4.9743 0.369437 0
M  V30 1958 H 182.433 -5.7799 -1.84424 0
M  V30 1959 H 181.172 -4.51473 -1.84455 0
M  V30 1960 H 180.177 -5.49265 0.242565 0
M  V30 1961 H 181.402 -6.78727 0.224966 0
M  V30 1962 H 179.348 -6.26142 -1.95657 0
M  V30 1963 H 179.265 -7.52081 -0.768783 0
M  V30 1964 H 180.533 -7.54516 -1.9577 0
M  V30 1965 N 184.763 -0.387143 -1.52771 0
M  V30 1966 C 185.988 0.198407 -2.06449 0
M  V30 1967 C 186.413 1.39918 -1.25716 0
M  V30 1968 O 185.771 1.79099 -0.281657 0
M  V30 1969 C 185.819 0.548893 -3.56398 0
M  V30 1970 O 184.923 1.64315 -3.78252 0
M  V30 1971 H 184.264 0.0237731 -0.663574 0
M  V30 1972 H 186.794 -0.553989 -1.96957 0
M  V30 1973 H 186.804 0.813812 -3.99801 0
M  V30 1974 H 185.479 -0.329005 -4.14597 0
M  V30 1975 H 184.056 1.37211 -3.46738 0
M  V30 1976 N 186.241 1.57166 -0.116904 0
M  V30 1977 C 187.204 2.14039 0.819742 0
M  V30 1978 C 188.204 1.07477 1.19605 0
M  V30 1979 O 189.394 1.33263 1.1219 0
M  V30 1980 C 186.526 2.67891 2.10826 0
M  V30 1981 H 187.719 2.98128 0.325511 0
M  V30 1982 H 185.272 1.55739 0.132312 0
M  V30 1983 H 186.007 1.87384 2.64685 0
M  V30 1984 H 185.792 3.45823 1.84793 0
M  V30 1985 H 187.282 3.11809 2.77785 0
M  V30 1986 N 187.719 -0.156864 1.56817 0
M  V30 1987 C 188.966 -0.871125 1.82805 0
M  V30 1988 C 189.294 -1.81611 0.696262 0
M  V30 1989 O 188.549 -1.93141 -0.315459 0
M  V30 1990 C 188.848 -1.68737 3.1506 0
M  V30 1991 C 188.514 -0.890045 4.42028 0
M  V30 1992 C 187.176 -0.670042 4.76512 0
M  V30 1993 C 189.528 -0.331769 5.20143 0
M  V30 1994 C 186.856 0.119104 5.86579 0
M  V30 1995 C 189.208 0.444365 6.31037 0
M  V30 1996 C 187.872 0.675035 6.64078 0
M  V30 1997 H 187.142 -0.318767 0.668931 0
M  V30 1998 H 189.789 -0.135274 1.91022 0
M  V30 1999 H 188.094 -2.49304 3.0225 0
M  V30 2000 H 189.791 -2.24331 3.3238 0
M  V30 2001 H 186.381 -1.07157 4.14988 0
M  V30 2002 H 190.565 -0.489043 4.93885 0
M  V30 2003 H 185.821 0.307417 6.10627 0
M  V30 2004 H 189.995 0.884139 6.90765 0
M  V30 2005 H 187.622 1.28839 7.49203 0
M  V30 2006 N 189.197 -1.51736 -0.425897 0
M  V30 2007 C 190.443 -1.66174 -1.17294 0
M  V30 2008 C 190.798 -0.37876 -1.88635 0
M  V30 2009 O 190.091 0.626021 -1.81084 0
M  V30 2010 C 190.285 -2.81103 -2.20717 0
M  V30 2011 C 190.114 -4.20453 -1.59529 0
M  V30 2012 C 188.884 -4.86225 -1.37525 0
M  V30 2013 C 191.082 -5.03146 -1.06528 0
M  V30 2014 N 189.064 -6.09657 -0.720537 0
M  V30 2015 C 190.435 -6.17674 -0.536506 0
M  V30 2016 C 192.49 -4.88594 -0.958127 0
M  V30 2017 C 191.193 -7.19245 0.0888917 0
M  V30 2018 C 193.219 -5.90383 -0.346608 0
M  V30 2019 C 192.581 -7.04191 0.171564 0
M  V30 2020 H 188.68 -0.661871 -0.416475 0
M  V30 2021 H 191.264 -1.88997 -0.467801 0
M  V30 2022 H 189.435 -2.59924 -2.88607 0
M  V30 2023 H 191.167 -2.84662 -2.87663 0
M  V30 2024 H 187.922 -4.44293 -1.64015 0
M  V30 2025 H 188.346 -6.75756 -0.410292 0
M  V30 2026 H 192.988 -4.0085 -1.34459 0
M  V30 2027 H 190.706 -8.06628 0.48746 0
M  V30 2028 H 194.292 -5.81194 -0.265451 0
M  V30 2029 H 193.172 -7.81606 0.637309 0
M  V30 2030 N 190.675 0.682077 -1.42076 0
M  V30 2031 C 191.9 1.47558 -1.45744 0
M  V30 2032 C 192.325 1.87977 -0.0680981 0
M  V30 2033 O 191.683 1.55522 0.9318 0
M  V30 2034 C 191.731 2.70575 -2.38373 0
M  V30 2035 O 190.835 3.68573 -1.85007 0
M  V30 2036 H 190.176 0.443585 -0.494093 0
M  V30 2037 H 192.706 0.837238 -1.86686 0
M  V30 2038 H 192.716 3.18729 -2.54707 0
M  V30 2039 H 191.391 2.40495 -3.39315 0
M  V30 2040 H 189.968 3.2757 -1.78192 0
M  V30 2041 N 192.153 1.28127 0.917671 0
M  V30 2042 C 193.063 1.13556 2.05286 0
M  V30 2043 C 194.079 0.0630914 1.73886 0
M  V30 2044 O 195.255 0.271598 1.9956 0
M  V30 2045 C 192.32 0.794676 3.3747 0
M  V30 2046 C 191.381 1.94909 3.82504 0
M  V30 2047 C 190.614 1.62437 5.0838 0
M  V30 2048 O 190.837 0.536905 5.67867 0
M  V30 2049 O 189.771 2.46677 5.4903 0
M  V30 2050 H 193.597 2.08844 2.20495 0
M  V30 2051 H 191.182 1.07409 1.03845 0
M  V30 2052 H 193.064 0.618344 4.16839 0
M  V30 2053 H 191.739 -0.128581 3.23445 0
M  V30 2054 H 190.646 2.18055 3.03978 0
M  V30 2055 H 191.979 2.85291 4.01086 0
M  V30 2056 N 193.631 -1.12557 1.10312 0
M  V30 2057 C 194.594 -2.16434 0.75424 0
M  V30 2058 C 195.594 -1.59278 -0.220685 0
M  V30 2059 O 196.784 -1.742 0.00230591 0
M  V30 2060 C 193.916 -3.40699 0.116987 0
M  V30 2061 H 195.109 -2.48811 1.67431 0
M  V30 2062 H 192.662 -1.27542 0.903475 0
M  V30 2063 H 193.397 -3.13921 -0.813877 0
M  V30 2064 H 193.182 -3.83459 0.818613 0
M  V30 2065 H 194.672 -4.17451 -0.111387 0
M  V30 2066 N 195.109 -0.891671 -1.2995 0
M  V30 2067 C 196.52 -0.563104 -1.78006 0
M  V30 2068 C 196.871 0.920978 -1.73241 0
M  V30 2069 O 195.996 1.71987 -1.31337 0
M  V30 2070 C 196.591 -1.01539 -3.23226 0
M  V30 2071 C 195.15 -0.738124 -3.69092 0
M  V30 2072 C 194.297 -1.19461 -2.50249 0
M  V30 2073 H 197.248 -1.07522 -1.16725 0
M  V30 2074 H 197.269 -0.347217 -3.78912 0
M  V30 2075 H 196.781 -2.09555 -3.26662 0
M  V30 2076 H 194.882 0.329766 -3.71138 0
M  V30 2077 H 194.995 -1.33037 -4.60259 0
M  V30 2078 H 193.359 -0.613787 -2.47194 0
M  V30 2079 H 194.142 -2.28265 -2.56417 0
M  V30 2080 N 196.587 1.43421 -0.653314 0
M  V30 2081 C 197.817 2.05864 -0.174238 0
M  V30 2082 C 198.225 1.49052 1.16534 0
M  V30 2083 O 197.568 0.616481 1.73047 0
M  V30 2084 C 197.63 3.59499 -0.00875873 0
M  V30 2085 C 197.294 4.38893 -1.27364 0
M  V30 2086 C 198.291 4.70947 -2.20239 0
M  V30 2087 C 195.976 4.789 -1.51525 0
M  V30 2088 C 197.97 5.41916 -3.35568 0
M  V30 2089 C 195.657 5.49614 -2.67147 0
M  V30 2090 C 196.655 5.81044 -3.58994 0
M  V30 2091 O 196.343 6.50313 -4.72597 0
M  V30 2092 H 196.075 0.670345 -0.0872549 0
M  V30 2093 H 198.629 1.84913 -0.894226 0
M  V30 2094 H 196.859 3.79025 0.7666 0
M  V30 2095 H 198.548 4.0364 0.427687 0
M  V30 2096 H 199.314 4.40558 -2.02815 0
M  V30 2097 H 195.193 4.53843 -0.809158 0
M  V30 2098 H 198.737 5.66365 -4.07279 0
M  V30 2099 H 194.634 5.79419 -2.84505 0
M  V30 2100 H 195.402 6.68795 -4.71864 0
M  V30 2101 N 198.065 0.39524 1.52563 0
M  V30 2102 C 198.995 -0.428384 2.29537 0
M  V30 2103 C 199.976 -1.05831 1.33169 0
M  V30 2104 O 201.161 -1.06995 1.62067 0
M  V30 2105 C 198.291 -1.55274 3.10656 0
M  V30 2106 C 197.245 -1.04855 4.14957 0
M  V30 2107 C 196.571 -2.26543 4.84337 0
M  V30 2108 C 197.871 -0.112324 5.22179 0
M  V30 2109 H 199.565 0.213867 2.98635 0
M  V30 2110 H 197.111 0.104298 1.43622 0
M  V30 2111 H 199.064 -2.1358 3.63265 0
M  V30 2112 H 197.788 -2.22266 2.39302 0
M  V30 2113 H 196.447 -0.487985 3.63338 0
M  V30 2114 H 196.095 -2.92059 4.09525 0
M  V30 2115 H 195.795 -1.93466 5.54837 0
M  V30 2116 H 197.319 -2.85481 5.39753 0
M  V30 2117 H 198.733 -0.603752 5.70112 0
M  V30 2118 H 197.13 0.128968 5.99961 0
M  V30 2119 H 198.2 0.837052 4.77621 0
M  V30 2120 N 199.544 -1.57102 0.125237 0
M  V30 2121 C 200.491 -2.15641 -0.822655 0
M  V30 2122 C 201.461 -1.08313 -1.25927 0
M  V30 2123 O 202.646 -1.36251 -1.33567 0
M  V30 2124 C 199.786 -2.76504 -2.06494 0
M  V30 2125 C 198.899 -3.98158 -1.67612 0
M  V30 2126 C 198.034 -4.47088 -2.86854 0
M  V30 2127 C 197.073 -5.6126 -2.44242 0
M  V30 2128 N 196.21 -6.04905 -3.56419 0
M  V30 2129 H 201.05 -2.96313 -0.316625 0
M  V30 2130 H 198.587 -1.46388 -0.144588 0
M  V30 2131 H 200.545 -3.09925 -2.79289 0
M  V30 2132 H 199.175 -1.98512 -2.54545 0
M  V30 2133 H 198.227 -3.70858 -0.846661 0
M  V30 2134 H 199.539 -4.80934 -1.32301 0
M  V30 2135 H 198.693 -4.82451 -3.67867 0
M  V30 2136 H 197.432 -3.63275 -3.25396 0
M  V30 2137 H 196.437 -5.25495 -1.61663 0
M  V30 2138 H 197.662 -6.46843 -2.0681 0
M  V30 2139 H 195.608 -5.24032 -3.94623 0
M  V30 2140 H 195.525 -6.82552 -3.25051 0
M  V30 2141 H 196.793 -6.44907 -4.37853 0
M  V30 2142 N 201.022 0.148545 -1.56898 0
M  V30 2143 C 202.268 0.862694 -1.83536 0
M  V30 2144 C 202.601 1.80889 -0.706604 0
M  V30 2145 O 201.876 1.92328 0.289885 0
M  V30 2146 C 202.159 1.63853 -3.20662 0
M  V30 2147 C 202.012 0.713925 -4.44098 0
M  V30 2148 C 203.331 2.60133 -3.54991 0
M  V30 2149 H 200.45 0.312179 -0.667618 0
M  V30 2150 H 203.092 0.127953 -1.89569 0
M  V30 2151 H 201.242 2.26489 -3.1565 0
M  V30 2152 H 202.914 0.098686 -4.61194 0
M  V30 2153 H 201.157 0.0234019 -4.33794 0
M  V30 2154 H 201.828 1.29278 -5.36648 0
M  V30 2155 H 204.304 2.07616 -3.60603 0
M  V30 2156 H 203.18 3.11468 -4.51972 0
M  V30 2157 H 203.441 3.41417 -2.80868 0
M  V30 2158 N 202.5 1.5196 0.417844 0
M  V30 2159 C 203.777 1.56146 1.17803 0
M  V30 2160 C 204.157 0.337275 2.08388 0
M  V30 2161 O 203.505 -0.676447 2.18258 0
M  V30 2162 C 203.715 2.88566 1.96293 0
M  V30 2163 C 205.063 3.41244 2.52662 0
M  V30 2164 O 206.087 2.90247 2.06483 0
M  V30 2165 O 204.946 4.30273 3.36938 0
M  V30 2166 H 202.04 0.628598 0.537395 0
M  V30 2167 H 204.586 1.64283 0.425331 0
M  V30 2168 H 203.358 3.69116 1.2988 0
M  V30 2169 H 202.981 2.83681 2.78587 0
M  V30 2170 N 203.978 -0.674533 1.42435 0
M  V30 2171 C 205.206 -1.46283 1.46317 0
M  V30 2172 C 205.621 -1.88653 0.0745836 0
M  V30 2173 O 204.978 -1.58151 -0.91074 0
M  V30 2174 C 205.029 -2.71178 2.3905 0
M  V30 2175 O 204.75 -2.30586 3.72507 0
M  V30 2176 C 206.251 -3.64738 2.51955 0
M  V30 2177 H 203.471 -0.450104 0.497642 0
M  V30 2178 H 206.015 -0.828792 1.86953 0
M  V30 2179 H 204.17 -3.3077 2.01667 0
M  V30 2180 H 204.584 -3.11241 4.22172 0
M  V30 2181 H 206.058 -4.49096 3.20962 0
M  V30 2182 H 206.535 -4.10656 1.55752 0
M  V30 2183 H 207.141 -3.11038 2.90061 0
M  V30 2184 N 205.456 -1.28612 -0.910864 0
M  V30 2185 C 206.705 -1.15311 -1.65488 0
M  V30 2186 C 207.018 0.296999 -1.93332 0
M  V30 2187 O 208.224 0.551168 -2.65847 0
M  V30 2188 C 206.68 -2.01599 -2.98137 0
M  V30 2189 C 206.288 -3.51367 -2.7793 0
M  V30 2190 C 208.032 -1.96993 -3.76024 0
M  V30 2191 C 205.939 -4.29797 -4.06237 0
M  V30 2192 H 204.869 -0.42796 -0.620779 0
M  V30 2193 H 207.52 -1.53166 -1.01057 0
M  V30 2194 H 205.902 -1.56603 -3.63719 0
M  V30 2195 H 207.076 -4.0434 -2.21011 0
M  V30 2196 H 205.391 -3.57529 -2.13452 0
M  V30 2197 H 207.988 -2.52856 -4.71135 0
M  V30 2198 H 208.331 -0.94733 -4.05378 0
M  V30 2199 H 208.864 -2.39973 -3.17266 0
M  V30 2200 H 205.603 -5.32648 -3.82055 0
M  V30 2201 H 205.123 -3.81596 -4.62757 0
M  V30 2202 H 206.802 -4.39869 -4.74473 0
M  V30 2203 N 206.934 1.1197 -1.10907 0
M  V30 2204 C 207.897 2.16031 -0.765707 0
M  V30 2205 C 208.897 1.59393 0.212235 0
M  V30 2206 O 210.087 1.74196 -0.0115441 0
M  V30 2207 C 207.219 3.40632 -0.135053 0
M  V30 2208 H 208.412 2.47919 -1.68748 0
M  V30 2209 H 205.965 1.27061 -0.910226 0
M  V30 2210 H 206.7 3.14348 0.797218 0
M  V30 2211 H 206.485 3.8302 -0.838937 0
M  V30 2212 H 207.975 4.17505 0.0892469 0
M  V30 2213 N 208.412 0.89855 1.29475 0
M  V30 2214 C 209.375 0.380272 2.26023 0
M  V30 2215 C 210.375 -0.484891 1.53315 0
M  V30 2216 O 211.565 -0.290108 1.71767 0
M  V30 2217 C 208.697 -0.45651 3.3783 0
M  V30 2218 H 209.89 1.23295 2.73383 0
M  V30 2219 H 207.443 0.676589 1.40897 0
M  V30 2220 H 208.178 -1.32922 2.95808 0
M  V30 2221 H 207.963 0.163393 3.91759 0
M  V30 2222 H 209.453 -0.810466 4.0966 0
M  V30 2223 N 209.89 -1.43072 0.660911 0
M  V30 2224 C 211.167 -1.95307 0.107017 0
M  V30 2225 C 211.547 -1.60192 -1.37484 0
M  V30 2226 O 210.895 -0.890949 -2.10415 0
M  V30 2227 C 211.105 -3.47124 0.361402 0
M  V30 2228 C 212.453 -4.23738 0.270455 0
M  V30 2229 O 213.477 -3.54981 0.294382 0
M  V30 2230 O 212.336 -5.46131 0.200737 0
M  V30 2231 H 209.43 -0.826984 -0.00517729 0
M  V30 2232 H 211.976 -1.52972 0.734681 0
M  V30 2233 H 210.748 -3.65837 1.38848 0
M  V30 2234 H 210.371 -3.96475 -0.298953 0
M  V30 2235 N 211.368 -0.403325 -1.52352 0
M  V30 2236 C 212.278 0.432009 -2.30588 0
M  V30 2237 C 213.294 1.05884 -1.38075 0
M  V30 2238 O 214.47 1.06161 -1.71148 0
M  V30 2239 C 211.535 1.53669 -3.10784 0
M  V30 2240 C 210.596 0.933525 -4.19027 0
M  V30 2241 C 209.829 1.98557 -4.9539 0
M  V30 2242 O 210.052 3.20283 -4.71991 0
M  V30 2243 O 208.986 1.59504 -5.80381 0
M  V30 2244 H 212.812 -0.205739 -3.03002 0
M  V30 2245 H 210.397 -0.166675 -1.48467 0
M  V30 2246 H 212.279 2.17814 -3.60742 0
M  V30 2247 H 210.954 2.15915 -2.41169 0
M  V30 2248 H 209.861 0.254954 -3.7323 0
M  V30 2249 H 211.194 0.35508 -4.90918 0
M  V30 2250 N 212.846 1.57033 -0.133567 0
M  V30 2251 C 214.071 2.00475 0.531477 0
M  V30 2252 C 214.496 1.01291 1.58499 0
M  V30 2253 O 213.854 -0.0133279 1.81295 0
M  V30 2254 C 213.902 3.42729 1.12113 0
M  V30 2255 O 213.006 3.46498 2.23636 0
M  V30 2256 H 212.347 0.650876 0.131362 0
M  V30 2257 H 214.877 2.03344 -0.22634 0
M  V30 2258 H 214.887 3.81246 1.4531 0
M  V30 2259 H 213.562 4.14428 0.349557 0
M  V30 2260 H 212.139 3.19811 1.91769 0
M  V30 2261 N 214.325 -0.140222 1.56975 0
M  V30 2262 C 215.572 -0.851687 1.83719 0
M  V30 2263 C 215.9 -1.80862 0.715485 0
M  V30 2264 O 215.155 -1.93464 -0.294956 0
M  V30 2265 C 215.454 -1.65386 3.16832 0
M  V30 2266 C 215.12 -0.843112 4.42947 0
M  V30 2267 C 213.782 -0.619464 4.77196 0
M  V30 2268 C 216.134 -0.276582 5.20466 0
M  V30 2269 C 213.462 0.181312 5.8642 0
M  V30 2270 C 215.814 0.51127 6.30531 0
M  V30 2271 C 214.478 0.745432 6.63325 0
M  V30 2272 H 213.748 -0.311654 0.672274 0
M  V30 2273 H 216.395 -0.115006 1.91154 0
M  V30 2274 H 214.7 -2.46084 3.04877 0
M  V30 2275 H 216.397 -2.20793 3.34741 0
M  V30 2276 H 212.987 -1.0275 4.16101 0
M  V30 2277 H 217.171 -0.436632 4.94376 0
M  V30 2278 H 212.427 0.372165 6.10266 0
M  V30 2279 H 216.601 0.957354 6.89788 0
M  V30 2280 H 214.228 1.36778 7.47794 0
M  V30 2281 N 215.803 -1.52179 -0.40978 0
M  V30 2282 C 217.028 -1.70347 -1.18308 0
M  V30 2283 C 217.453 -0.411887 -1.83535 0
M  V30 2284 O 216.811 0.630587 -1.6998 0
M  V30 2285 C 216.859 -2.83977 -2.22238 0
M  V30 2286 O 215.963 -2.495 -3.28365 0
M  V30 2287 H 215.304 -0.567103 -0.345384 0
M  V30 2288 H 217.834 -1.98879 -0.480445 0
M  V30 2289 H 217.844 -3.0887 -2.66577 0
M  V30 2290 H 216.519 -3.77685 -1.74146 0
M  V30 2291 H 215.096 -2.35277 -2.89308 0
M  V30 2292 N 217.281 0.66697 -1.42791 0
M  V30 2293 C 218.213 1.7925 -1.42836 0
M  V30 2294 C 219.226 1.59496 -0.326333 0
M  V30 2295 O 220.415 1.6847 -0.589916 0
M  V30 2296 C 217.515 3.16476 -1.21229 0
M  V30 2297 C 216.688 3.63011 -2.44013 0
M  V30 2298 C 215.747 4.78993 -2.17834 0
M  V30 2299 O 214.773 4.89137 -2.91091 0
M  V30 2300 N 215.975 5.68248 -1.18635 0
M  V30 2301 H 218.74 1.79695 -2.39854 0
M  V30 2302 H 216.301 0.850338 -1.37771 0
M  V30 2303 H 218.293 3.91734 -1.01621 0
M  V30 2304 H 216.863 3.10884 -0.32706 0
M  V30 2305 H 216.083 2.78346 -2.79137 0
M  V30 2306 H 217.371 3.90845 -3.25757 0
M  V30 2307 H 216.769 5.62712 -0.580615 0
M  V30 2308 H 215.326 6.43285 -1.05013 0
M  V30 2309 N 218.759 1.29093 0.90403 0
M  V30 2310 C 220.005 1.16986 1.65656 0
M  V30 2311 C 220.338 -0.278925 1.92186 0
M  V30 2312 O 219.613 -1.2019 1.5292 0
M  V30 2313 C 219.896 1.97908 3.0084 0
M  V30 2314 C 219.749 3.50903 2.81403 0
M  V30 2315 C 221.068 1.80208 4.01513 0
M  V30 2316 H 218.187 0.426346 0.601164 0
M  V30 2317 H 220.829 1.58518 1.04747 0
M  V30 2318 H 218.979 1.62616 3.52829 0
M  V30 2319 H 220.651 3.96153 2.36348 0
M  V30 2320 H 218.894 3.76045 2.1627 0
M  V30 2321 H 219.565 4.02791 3.77443 0
M  V30 2322 H 222.041 2.11025 3.58619 0
M  V30 2323 H 220.917 2.39184 4.94047 0
M  V30 2324 H 221.178 0.756119 4.35586 0
M  V30 2325 N 220.237 -1.11381 1.11499 0
M  V30 2326 C 221.514 -1.7955 0.775965 0
M  V30 2327 C 221.894 -1.97859 -0.73588 0
M  V30 2328 O 221.242 -1.56376 -1.66609 0
M  V30 2329 C 221.452 -3.13196 1.53977 0
M  V30 2330 C 222.8 -3.88227 1.71944 0
M  V30 2331 O 223.824 -3.22887 1.50407 0
M  V30 2332 O 222.683 -5.05477 2.07738 0
M  V30 2333 H 219.777 -0.777728 0.28119 0
M  V30 2334 H 222.323 -1.18118 1.21845 0
M  V30 2335 H 221.095 -2.95229 2.56818 0
M  V30 2336 H 220.718 -3.82342 1.09088 0
M  V30 2337 N 221.715 -0.905404 -1.28997 0
M  V30 2338 C 222.962 -0.534248 -1.95325 0
M  V30 2339 C 223.29 0.920535 -1.71337 0
M  V30 2340 O 222.545 1.66861 -1.02254 0
M  V30 2341 C 222.844 -0.779906 -3.48787 0
M  V30 2342 C 222.51 -2.21293 -3.92861 0
M  V30 2343 C 221.172 -2.60475 -4.04606 0
M  V30 2344 C 223.524 -3.14587 -4.15553 0
M  V30 2345 C 220.852 -3.9212 -4.36416 0
M  V30 2346 C 223.204 -4.45787 -4.48839 0
M  V30 2347 C 221.868 -4.84834 -4.58794 0
M  V30 2348 H 221.138 -0.195495 -0.714747 0
M  V30 2349 H 223.785 -1.14514 -1.53488 0
M  V30 2350 H 222.09 -0.0861365 -3.91705 0
M  V30 2351 H 223.787 -0.472029 -3.98212 0
M  V30 2352 H 220.377 -1.89887 -3.84241 0
M  V30 2353 H 224.561 -2.85528 -4.0594 0
M  V30 2354 H 219.817 -4.22086 -4.42327 0
M  V30 2355 H 223.991 -5.18098 -4.65346 0
M  V30 2356 H 221.618 -5.86877 -4.83197 0
M  V30 2357 N 223.193 1.4272 -0.668489 0
M  V30 2358 C 224.441 2.01226 -0.187769 0
M  V30 2359 C 224.762 1.53092 1.2078 0
M  V30 2360 O 224.032 0.74993 1.80977 0
M  V30 2361 H 222.612 0.744041 -0.0664272 0
M  V30 2362 H 225.274 1.74723 -0.863583 0
M  V30 2363 H 224.37 3.11556 -0.184166 0
M  V30 2364 N 224.671 0.411399 1.52136 0
M  V30 2365 C 225.919 -0.163322 2.01439 0
M  V30 2366 C 226.24 -1.45453 1.29879 0
M  V30 2367 O 225.51 -1.91225 0.4254 0
M  V30 2368 H 224.09 -0.0633447 0.744309 0
M  V30 2369 H 226.752 0.548161 1.87033 0
M  V30 2370 H 225.848 -0.357817 3.10042 0
M  V30 2371 N 226.149 -1.5696 0.141893 0
M  V30 2372 C 227.565 -1.58151 -0.21456 0
M  V30 2373 C 227.765 -1.1559 -1.65049 0
M  V30 2374 O 226.821 -0.853832 -2.37626 0
M  V30 2375 C 228.134 -3.00674 0.0395576 0
M  V30 2376 C 229.682 -3.1299 -0.0245529 0
M  V30 2377 C 230.157 -4.57554 0.202167 0
M  V30 2378 N 231.648 -4.62961 0.148919 0
M  V30 2379 C 232.383 -5.7262 0.298924 0
M  V30 2380 N 231.879 -6.90947 0.50637 0
M  V30 2381 N 233.672 -5.61601 0.236886 0
M  V30 2382 H 225.823 -1.8292 1.07953 0
M  V30 2383 H 228.086 -0.846425 0.42693 0
M  V30 2384 H 227.792 -3.36183 1.03315 0
M  V30 2385 H 227.666 -3.70981 -0.682143 0
M  V30 2386 H 230.053 -2.77326 -1.00869 0
M  V30 2387 H 230.134 -2.4518 0.729396 0
M  V30 2388 H 229.778 -4.93922 1.18338 0
M  V30 2389 H 229.708 -5.23484 -0.572044 0
M  V30 2390 H 232.199 -3.77899 -0.00697015 0
M  V30 2391 H 232.512 -7.7038 0.611076 0
M  V30 2392 H 230.857 -6.92878 0.542628 0
M  V30 2393 H 234.048 -4.68039 0.0756209 0
M  V30 2394 H 234.221 -6.47015 0.357227 0
M  V30 2395 N 227.627 0.131896 -1.57047 0
M  V30 2396 C 228.557 1.16384 -2.02428 0
M  V30 2397 C 229.538 1.43936 -0.90644 0
M  V30 2398 O 230.723 1.54599 -1.17528 0
M  V30 2399 C 227.853 2.49328 -2.4177 0
M  V30 2400 C 226.807 2.36266 -3.56879 0
M  V30 2401 C 226.133 3.74057 -3.8208 0
M  V30 2402 C 227.433 1.834 -4.89042 0
M  V30 2403 H 229.127 0.786433 -2.88887 0
M  V30 2404 H 226.673 0.376855 -1.38981 0
M  V30 2405 H 228.626 3.21759 -2.7212 0
M  V30 2406 H 227.35 2.88934 -1.52266 0
M  V30 2407 H 226.009 1.66286 -3.26718 0
M  V30 2408 H 225.657 4.11125 -2.89803 0
M  V30 2409 H 225.357 3.66174 -4.59554 0
M  V30 2410 H 226.881 4.48012 -4.1487 0
M  V30 2411 H 228.295 2.45636 -5.18011 0
M  V30 2412 H 226.692 1.8637 -5.70426 0
M  V30 2413 H 227.762 0.790662 -4.7841 0
M  V30 2414 N 229.106 1.52395 0.401703 0
M  V30 2415 C 230.039 1.70999 1.51111 0
M  V30 2416 C 231.017 0.55765 1.52738 0
M  V30 2417 O 232.201 0.785912 1.71335 0
M  V30 2418 C 229.328 1.75607 2.8962 0
M  V30 2419 C 228.374 2.97227 3.05873 0
M  V30 2420 S 229.207 4.57439 2.78405 0
M  V30 2421 C 230.363 4.64844 4.19131 0
M  V30 2422 H 230.596 2.6483 1.35102 0
M  V30 2423 H 228.129 1.42527 0.593762 0
M  V30 2424 H 230.087 1.78947 3.69443 0
M  V30 2425 H 228.748 0.828914 3.02965 0
M  V30 2426 H 227.941 2.96955 4.07227 0
M  V30 2427 H 227.543 2.91813 2.33925 0
M  V30 2428 H 229.835 4.42677 5.12877 0
M  V30 2429 H 230.778 5.66807 4.24424 0
M  V30 2430 H 231.186 3.93804 4.04448 0
M  V30 2431 N 230.584 -0.659388 1.43143 0
M  V30 2432 C 231.531 -1.77249 1.47822 0
M  V30 2433 C 232.501 -1.62818 0.328558 0
M  V30 2434 O 233.686 -1.83151 0.534838 0
M  V30 2435 C 230.826 -3.15371 1.40126 0
M  V30 2436 C 229.939 -3.4098 2.65249 0
M  V30 2437 C 229.074 -4.68915 2.49584 0
M  V30 2438 C 228.113 -4.87608 3.70006 0
M  V30 2439 N 227.25 -6.06796 3.53189 0
M  V30 2440 H 232.09 -1.72584 2.42938 0
M  V30 2441 H 229.627 -0.842297 1.20598 0
M  V30 2442 H 231.585 -3.9521 1.33659 0
M  V30 2443 H 230.215 -3.19121 0.485964 0
M  V30 2444 H 229.267 -2.55282 2.8202 0
M  V30 2445 H 230.579 -3.50681 3.54717 0
M  V30 2446 H 229.733 -5.56871 2.4079 0
M  V30 2447 H 228.472 -4.61524 1.5763 0
M  V30 2448 H 227.477 -3.9809 3.79215 0
M  V30 2449 H 228.702 -4.96834 4.62961 0
M  V30 2450 H 226.648 -6.00549 2.63965 0
M  V30 2451 H 226.565 -6.17428 4.36255 0
M  V30 2452 H 227.833 -6.9739 3.48236 0
M  V30 2453 N 232.062 -1.29571 -0.897171 0
M  V30 2454 C 233.308 -1.17863 -1.65034 0
M  V30 2455 C 233.641 0.268729 -1.92332 0
M  V30 2456 O 232.916 1.19378 -1.53555 0
M  V30 2457 C 233.199 -1.995 -2.99786 0
M  V30 2458 C 233.052 -3.5239 -2.79538 0
M  V30 2459 C 234.371 -1.82335 -4.00552 0
M  V30 2460 H 231.49 -0.429528 -0.598895 0
M  V30 2461 H 234.132 -1.59072 -1.03905 0
M  V30 2462 H 232.282 -1.64485 -3.51962 0
M  V30 2463 H 233.954 -3.97401 -2.34244 0
M  V30 2464 H 232.197 -3.77187 -2.14273 0
M  V30 2465 H 232.868 -4.04787 -3.75302 0
M  V30 2466 H 235.344 -2.12924 -3.57495 0
M  V30 2467 H 234.22 -2.41801 -4.92771 0
M  V30 2468 H 234.481 -0.779209 -4.35179 0
M  V30 2469 N 233.54 1.10788 -1.12088 0
M  V30 2470 C 234.488 2.19111 -0.780587 0
M  V30 2471 C 235.482 1.67818 0.230961 0
M  V30 2472 O 236.688 1.79777 0.0895427 0
M  V30 2473 H 233.063 0.714477 -0.234578 0
M  V30 2474 H 235.034 2.45055 -1.70266 0
M  V30 2475 C 233.783 3.46818 -0.24747 0
M  V30 2476 H 233.106 3.86646 -1.01712 0
M  V30 2477 H 234.546 4.23973 -0.0476291 0
M  V30 2478 C 233.005 3.20968 1.02378 0
M  V30 2479 O 233.535 3.42298 2.10226 0
M  V30 2480 N 231.741 2.74658 0.949271 0
M  V30 2481 H 231.288 2.57501 0.0715173 0
M  V30 2482 H 231.246 2.57739 1.80049 0
M  V30 2483 N 235.018 0.912232 1.28515 0
M  V30 2484 C 236.246 0.560416 1.99166 0
M  V30 2485 C 236.661 -0.857927 1.68182 0
M  V30 2486 O 236.018 -1.56805 0.933733 0
M  V30 2487 C 236.069 0.758142 3.53461 0
M  V30 2488 O 235.79 2.12067 3.83352 0
M  V30 2489 C 237.291 0.412954 4.41372 0
M  V30 2490 H 234.511 0.213805 0.636026 0
M  V30 2491 H 237.055 1.22502 1.63749 0
M  V30 2492 H 235.21 0.140556 3.87145 0
M  V30 2493 H 235.624 2.15923 4.77993 0
M  V30 2494 H 237.098 0.60208 5.48707 0
M  V30 2495 H 237.575 -0.65073 4.34353 0
M  V30 2496 H 238.181 1.00802 4.13182 0
M  V30 2497 N 236.496 -1.42363 0.676048 0
M  V30 2498 C 237.406 -2.346 -0.00153389 0
M  V30 2499 C 238.422 -1.5516 -0.787485 0
M  V30 2500 O 239.598 -1.87723 -0.729521 0
M  V30 2501 C 236.663 -3.33705 -0.940298 0
M  V30 2502 C 235.724 -4.29042 -0.148739 0
M  V30 2503 C 234.957 -5.23413 -1.04279 0
M  V30 2504 O 235.18 -5.22749 -2.28232 0
M  V30 2505 O 234.114 -5.99795 -0.502925 0
M  V30 2506 H 237.94 -2.94082 0.758268 0
M  V30 2507 H 235.525 -1.42888 0.436289 0
M  V30 2508 H 237.407 -3.94586 -1.47917 0
M  V30 2509 H 236.082 -2.76695 -1.67993 0
M  V30 2510 H 234.989 -3.71571 0.43427 0
M  V30 2511 H 236.322 -4.89097 0.551805 0
M  V30 2512 N 237.974 -0.419461 -1.51915 0
M  V30 2513 C 239.22 0.153166 -2.02221 0
M  V30 2514 C 239.553 1.43907 -1.30401 0
M  V30 2515 O 238.828 1.90055 -0.413438 0
M  V30 2516 C 239.111 0.390291 -3.57979 0
M  V30 2517 C 238.964 -0.913014 -4.40436 0
M  V30 2518 C 240.283 1.16794 -4.2432 0
M  V30 2519 H 237.402 0.0541924 -0.735005 0
M  V30 2520 H 240.044 -0.554955 -1.81715 0
M  V30 2521 H 238.194 0.993491 -3.75582 0
M  V30 2522 H 239.866 -1.54882 -4.34522 0
M  V30 2523 H 238.109 -1.52168 -4.06236 0
M  V30 2524 H 238.78 -0.701361 -5.47526 0
M  V30 2525 H 241.256 0.657161 -4.10878 0
M  V30 2526 H 240.132 1.3026 -5.3322 0
M  V30 2527 H 240.393 2.19132 -3.83971 0
M  V30 2528 N 239.452 1.56882 -0.150215 0
M  V30 2529 C 240.868 1.58263 0.20617 0
M  V30 2530 C 241.068 1.16464 1.64434 0
M  V30 2531 O 240.124 0.866422 2.3717 0
M  V30 2532 C 241.437 3.00649 -0.0555025 0
M  V30 2533 C 242.985 3.12999 0.00795388 0
M  V30 2534 C 243.46 4.5744 -0.226429 0
M  V30 2535 N 244.951 4.62875 -0.173469 0
M  V30 2536 C 245.686 5.72454 -0.329288 0
M  V30 2537 N 245.182 6.90669 -0.543005 0
M  V30 2538 N 246.975 5.61467 -0.266666 0
M  V30 2539 H 239.126 1.82345 -1.08922 0
M  V30 2540 H 241.389 0.844149 -0.431413 0
M  V30 2541 H 241.095 3.3563 -1.05096 0
M  V30 2542 H 240.969 3.71337 0.66246 0
M  V30 2543 H 243.356 2.77857 0.993966 0
M  V30 2544 H 243.437 2.4479 -0.742388 0
M  V30 2545 H 243.081 4.93287 -1.20956 0
M  V30 2546 H 243.011 5.2378 0.544274 0
M  V30 2547 H 245.502 3.77898 -0.0130709 0
M  V30 2548 H 245.815 7.70045 -0.651922 0
M  V30 2549 H 244.16 6.92581 -0.579366 0
M  V30 2550 H 247.351 4.67992 -0.100441 0
M  V30 2551 H 247.524 6.46816 -0.391535 0
M  V30 2552 N 240.93 -0.123565 1.57115 0
M  V30 2553 C 242.155 -0.850398 1.89164 0
M  V30 2554 C 242.58 -1.7286 0.741688 0
M  V30 2555 O 241.938 -1.78665 -0.307958 0
M  V30 2556 C 241.986 -1.66353 3.19936 0
M  V30 2557 O 241.09 -2.77004 3.0552 0
M  V30 2558 H 240.431 -0.235454 0.620852 0
M  V30 2559 H 242.961 -0.107335 2.04318 0
M  V30 2560 H 242.971 -2.05372 3.52543 0
M  V30 2561 H 241.646 -1.01881 4.03228 0
M  V30 2562 H 240.223 -2.41221 2.84371 0
M  V30 2563 N 242.408 -1.52605 -0.393616 0
M  V30 2564 C 243.655 -1.67424 -1.1391 0
M  V30 2565 C 243.983 -0.411859 -1.90089 0
M  V30 2566 O 243.238 0.605626 -1.86093 0
M  V30 2567 C 243.537 -2.85721 -2.14705 0
M  V30 2568 C 243.203 -4.23342 -1.55218 0
M  V30 2569 C 241.865 -4.60771 -1.3872 0
M  V30 2570 C 244.217 -5.09041 -1.11924 0
M  V30 2571 C 241.545 -5.81563 -0.774689 0
M  V30 2572 C 243.897 -6.30452 -0.520853 0
M  V30 2573 C 242.561 -6.66617 -0.343134 0
M  V30 2574 H 241.831 -0.612648 -0.416826 0
M  V30 2575 H 244.478 -1.8674 -0.424315 0
M  V30 2576 H 242.783 -2.60803 -2.92385 0
M  V30 2577 H 244.48 -2.94382 -2.72288 0
M  V30 2578 H 241.07 -3.93855 -1.69045 0
M  V30 2579 H 245.254 -4.80695 -1.23473 0
M  V30 2580 H 240.51 -6.08196 -0.625154 0
M  V30 2581 H 244.684 -6.96175 -0.177065 0
M  V30 2582 H 242.311 -7.60083 0.133571 0
M  V30 2583 N 243.887 0.651787 -1.4349 0
M  V30 2584 C 245.135 1.40888 -1.44897 0
M  V30 2585 C 245.456 1.94856 -0.0749086 0
M  V30 2586 O 244.726 1.74518 0.889956 0
M  V30 2587 H 243.306 0.522887 -0.533478 0
M  V30 2588 H 245.968 0.768609 -1.79104 0
M  V30 2589 H 245.064 2.25052 -2.16236 0
M  V30 2590 N 245.365 1.30045 0.890287 0
M  V30 2591 C 246.776 1.16738 1.45702 0
M  V30 2592 C 247.127 -0.233939 1.948 0
M  V30 2593 O 246.252 -1.13021 1.84541 0
M  V30 2594 C 246.847 2.11313 2.64825 0
M  V30 2595 C 245.406 2.02001 3.17604 0
M  V30 2596 C 244.553 2.01699 1.90296 0
M  V30 2597 H 247.504 1.42392 0.700726 0
M  V30 2598 H 247.525 1.69086 3.40867 0
M  V30 2599 H 247.037 3.13294 2.2906 0
M  V30 2600 H 245.138 1.03142 3.5804 0
M  V30 2601 H 245.251 2.90128 3.81264 0
M  V30 2602 H 243.615 1.46427 2.08402 0
M  V30 2603 H 244.398 3.05402 1.56795 0
M  V30 2604 N 246.843 -1.10192 1.12674 0
M  V30 2605 C 247.773 -2.18652 0.819362 0
M  V30 2606 C 248.754 -1.68698 -0.217915 0
M  V30 2607 O 249.939 -1.94041 -0.0785581 0
M  V30 2608 C 247.069 -3.46202 0.27594 0
M  V30 2609 C 246.023 -4.09444 1.24656 0
M  V30 2610 C 245.349 -5.31725 0.563258 0
M  V30 2611 C 246.649 -4.52863 2.60217 0
M  V30 2612 H 248.343 -2.44622 1.72628 0
M  V30 2613 H 245.889 -1.17571 0.831451 0
M  V30 2614 H 247.842 -4.21372 0.0486149 0
M  V30 2615 H 246.566 -3.1973 -0.666331 0
M  V30 2616 H 245.225 -3.36284 1.45974 0
M  V30 2617 H 244.873 -5.0153 -0.384235 0
M  V30 2618 H 244.573 -5.74991 1.21075 0
M  V30 2619 H 246.097 -6.09624 0.34503 0
M  V30 2620 H 247.511 -5.19294 2.42913 0
M  V30 2621 H 245.908 -5.06986 3.21068 0
M  V30 2622 H 246.978 -3.65656 3.18471 0
M  V30 2623 N 248.321 -0.919034 -1.28029 0
M  V30 2624 C 249.549 -0.570971 -1.98866 0
M  V30 2625 C 249.964 0.848996 -1.68634 0
M  V30 2626 O 249.321 1.56307 -0.942036 0
M  V30 2627 C 249.372 -0.776876 -3.53054 0
M  V30 2628 O 249.093 -2.14097 -3.82222 0
M  V30 2629 C 250.594 -0.436356 -4.41147 0
M  V30 2630 H 247.814 -0.217175 -0.634883 0
M  V30 2631 H 250.358 -1.23368 -1.63097 0
M  V30 2632 H 248.513 -0.161085 -3.87065 0
M  V30 2633 H 248.927 -2.18455 -4.76841 0
M  V30 2634 H 250.401 -0.63117 -5.4838 0
M  V30 2635 H 250.878 0.627686 -4.34692 0
M  V30 2636 H 251.484 -1.02991 -4.12641 0
M  V30 2637 N 249.799 1.42003 -0.683588 0
M  V30 2638 C 251.215 1.55625 -0.353976 0
M  V30 2639 C 251.415 1.66151 1.14 0
M  V30 2640 O 250.471 1.63329 1.92561 0
M  V30 2641 C 251.784 2.80171 -1.092 0
M  V30 2642 C 253.332 2.93954 -1.07518 0
M  V30 2643 C 253.807 4.21372 -1.79471 0
M  V30 2644 N 255.298 4.28303 -1.76381 0
M  V30 2645 C 256.033 5.25729 -2.28904 0
M  V30 2646 N 255.529 6.29254 -2.89846 0
M  V30 2647 N 257.322 5.17586 -2.19228 0
M  V30 2648 H 249.473 1.33415 -1.6527 0
M  V30 2649 H 251.736 0.64282 -0.696769 0
M  V30 2650 H 251.442 2.78561 -2.14701 0
M  V30 2651 H 251.316 3.7133 -0.662862 0
M  V30 2652 H 253.703 2.95086 -0.028475 0
M  V30 2653 H 253.784 2.04002 -1.54328 0
M  V30 2654 H 253.428 4.21001 -2.84114 0
M  V30 2655 H 253.358 5.10275 -1.30104 0
M  V30 2656 H 255.849 3.54119 -1.31939 0
M  V30 2657 H 256.162 6.99964 -3.27522 0
M  V30 2658 H 254.507 6.29791 -2.93919 0
M  V30 2659 H 257.698 4.35631 -1.71299 0
M  V30 2660 H 257.871 5.93348 -2.60466 0
M  V30 2661 N 251.277 0.427512 1.51691 0
M  V30 2662 C 252.225 -0.403359 2.29076 0
M  V30 2663 C 253.219 -1.02962 1.34518 0
M  V30 2664 O 254.425 -0.965715 1.51901 0
M  V30 2665 H 250.8 -0.148879 0.737115 0
M  V30 2666 H 252.771 0.270295 2.97173 0
M  V30 2667 C 251.52 -1.49763 3.13794 0
M  V30 2668 H 250.843 -1.02508 3.86435 0
M  V30 2669 H 252.283 -2.05244 3.71014 0
M  V30 2670 C 250.742 -2.47536 2.28533 0
M  V30 2671 O 251.272 -3.51848 1.93819 0
M  V30 2672 N 249.478 -2.18187 1.91945 0
M  V30 2673 H 249.025 -1.33389 2.20375 0
M  V30 2674 H 248.983 -2.83848 1.35195 0
M  V30 2675 N 252.755 -1.56801 0.158532 0
M  V30 2676 C 254.003 -1.96102 -0.488712 0
M  V30 2677 C 254.324 -1.04498 -1.64636 0
M  V30 2678 O 253.594 -0.108783 -1.95598 0
M  V30 2679 H 252.174 -0.724102 -0.183535 0
M  V30 2680 H 254.836 -1.93457 0.236728 0
M  V30 2681 H 253.932 -3.00097 -0.857219 0
M  V30 2682 N 254.233 0.115231 -1.57178 0
M  V30 2683 C 255.48 0.822351 -1.8505 0
M  V30 2684 C 255.808 1.79701 -0.744168 0
M  V30 2685 O 255.063 1.93909 0.26414 0
M  V30 2686 C 255.362 1.60324 -3.19423 0
M  V30 2687 C 255.028 0.772536 -4.44233 0
M  V30 2688 C 253.69 0.543468 -4.78121 0
M  V30 2689 C 256.042 0.193746 -5.2084 0
M  V30 2690 C 253.37 -0.274583 -5.86057 0
M  V30 2691 C 255.722 -0.611517 -6.29637 0
M  V30 2692 C 254.386 -0.850867 -6.62055 0
M  V30 2693 H 253.656 0.30092 -0.677147 0
M  V30 2694 H 256.303 0.0845802 -1.91313 0
M  V30 2695 H 254.608 2.41203 -3.08753 0
M  V30 2696 H 256.305 2.1544 -3.38211 0
M  V30 2697 H 252.895 0.96117 -4.17683 0
M  V30 2698 H 257.079 0.357926 -4.95008 0
M  V30 2699 H 252.335 -0.469206 -6.09597 0
M  V30 2700 H 256.509 -1.06697 -6.88178 0
M  V30 2701 H 254.136 -1.48657 -7.45523 0
M  V30 2702 N 255.711 1.52812 0.385517 0
M  V30 2703 C 256.941 1.71658 1.14966 0
M  V30 2704 C 257.349 0.436253 1.84102 0
M  V30 2705 O 256.692 -0.599313 1.73649 0
M  V30 2706 C 256.754 2.81309 2.23843 0
M  V30 2707 C 256.418 4.22313 1.74644 0
M  V30 2708 C 257.415 5.05352 1.22129 0
M  V30 2709 C 255.1 4.68648 1.80761 0
M  V30 2710 C 257.094 6.32807 0.763838 0
M  V30 2711 C 254.781 5.96086 1.34627 0
M  V30 2712 C 255.779 6.77996 0.825264 0
M  V30 2713 O 255.467 8.03045 0.370669 0
M  V30 2714 H 255.199 0.578022 0.350523 0
M  V30 2715 H 257.753 2.00263 0.456509 0
M  V30 2716 H 255.983 2.48133 2.96592 0
M  V30 2717 H 257.672 2.88524 2.85497 0
M  V30 2718 H 258.438 4.70736 1.16758 0
M  V30 2719 H 254.317 4.04979 2.20256 0
M  V30 2720 H 257.861 6.96689 0.356494 0
M  V30 2721 H 253.758 6.30205 1.39686 0
M  V30 2722 H 254.526 8.17021 0.491829 0
M  V30 2723 N 257.189 -0.644168 1.43834 0
M  V30 2724 C 258.119 -1.76814 1.52509 0
M  V30 2725 C 259.1 -1.65823 0.379052 0
M  V30 2726 O 260.285 -1.84781 0.597466 0
M  V30 2727 C 257.415 -3.15288 1.4564 0
M  V30 2728 C 256.369 -3.41053 2.58586 0
M  V30 2729 C 255.695 -4.79421 2.36769 0
M  V30 2730 C 256.995 -3.34902 4.00797 0
M  V30 2731 H 258.689 -1.69812 2.46586 0
M  V30 2732 H 256.235 -0.815542 1.1868 0
M  V30 2733 H 258.188 -3.93681 1.50311 0
M  V30 2734 H 256.912 -3.23043 0.480725 0
M  V30 2735 H 255.571 -2.65035 2.53282 0
M  V30 2736 H 255.219 -4.83863 1.37424 0
M  V30 2737 H 254.919 -4.9762 3.12487 0
M  V30 2738 H 256.443 -5.6006 2.43238 0
M  V30 2739 H 257.857 -4.03218 4.07539 0
M  V30 2740 H 256.254 -3.64637 4.76613 0
M  V30 2741 H 257.324 -2.32928 4.25291 0
M  V30 2742 N 258.668 -1.30515 -0.883378 0
M  V30 2743 C 259.631 -1.1701 -1.97082 0
M  V30 2744 C 260.631 -0.10089 -1.60483 0
M  V30 2745 O 261.821 -0.349127 -1.70666 0
M  V30 2746 C 258.953 -0.793045 -3.31547 0
M  V30 2747 H 260.146 -2.13622 -2.10489 0
M  V30 2748 H 257.699 -1.13935 -1.06998 0
M  V30 2749 H 258.434 0.172499 -3.23841 0
M  V30 2750 H 258.219 -1.56576 -3.5948 0
M  V30 2751 H 259.709 -0.722073 -4.1131 0
M  V30 2752 N 260.146 1.09593 -1.13257 0
M  V30 2753 C 261.393 1.81734 -0.893257 0
M  V30 2754 C 261.721 1.8563 0.580656 0
M  V30 2755 O 260.976 1.31906 1.44566 0
M  V30 2756 C 261.275 3.27802 -1.42411 0
M  V30 2757 C 260.941 3.44041 -2.91456 0
M  V30 2758 C 259.603 3.48181 -3.3215 0
M  V30 2759 C 261.955 3.48719 -3.87356 0
M  V30 2760 C 259.283 3.54575 -4.67433 0
M  V30 2761 C 261.635 3.56648 -5.2248 0
M  V30 2762 C 260.299 3.59055 -5.62704 0
M  V30 2763 H 259.569 0.665011 -0.326866 0
M  V30 2764 H 262.216 1.2912 -1.41422 0
M  V30 2765 H 260.521 3.83042 -0.823795 0
M  V30 2766 H 262.218 3.82149 -1.21503 0
M  V30 2767 H 258.808 3.41502 -2.58987 0
M  V30 2768 H 262.992 3.44763 -3.57004 0
M  V30 2769 H 258.248 3.54725 -4.97976 0
M  V30 2770 H 262.422 3.59212 -5.96607 0
M  V30 2771 H 260.049 3.63763 -6.67518 0
M  V30 2772 N 261.624 0.925811 1.2754 0
M  V30 2773 C 262.556 0.380753 2.26015 0
M  V30 2774 C 263.569 -0.487485 1.5533 0
M  V30 2775 O 264.758 -0.300413 1.75954 0
M  V30 2776 C 261.858 -0.473259 3.35579 0
M  V30 2777 C 261.031 0.375249 4.35787 0
M  V30 2778 C 260.09 -0.415809 5.24555 0
M  V30 2779 O 259.116 0.175834 5.68928 0
M  V30 2780 N 260.318 -1.71607 5.54555 0
M  V30 2781 H 263.083 1.22725 2.73421 0
M  V30 2782 H 260.644 0.793037 1.41147 0
M  V30 2783 H 262.636 -1.00949 3.91907 0
M  V30 2784 H 261.206 -1.2205 2.87789 0
M  V30 2785 H 260.426 1.09279 3.7875 0
M  V30 2786 H 261.714 0.955399 4.99749 0
M  V30 2787 H 261.112 -2.2191 5.20358 0
M  V30 2788 H 259.669 -2.19887 6.1359 0
M  V30 2789 N 263.102 -1.41638 0.69111 0
M  V30 2790 C 264.379 -1.95036 0.148421 0
M  V30 2791 C 264.759 -1.63072 -1.34055 0
M  V30 2792 O 264.107 -0.93538 -2.08478 0
M  V30 2793 C 264.317 -3.46279 0.434951 0
M  V30 2794 C 265.665 -4.23069 0.360275 0
M  V30 2795 O 266.689 -3.54277 0.369613 0
M  V30 2796 O 265.548 -5.45583 0.316534 0
M  V30 2797 H 262.642 -0.826908 0.0123654 0
M  V30 2798 H 265.188 -1.5138 0.766963 0
M  V30 2799 H 263.96 -3.6281 1.46576 0
M  V30 2800 H 263.583 -3.97019 -0.214787 0
M  V30 2801 N 264.58 -0.43555 -1.51462 0
M  V30 2802 C 265.81 0.130053 -2.0619 0
M  V30 2803 C 266.218 1.37164 -1.30317 0
M  V30 2804 O 265.561 1.80225 -0.355598 0
M  V30 2805 C 265.623 0.519418 -3.55728 0
M  V30 2806 C 265.287 -0.615119 -4.52841 0
M  V30 2807 C 266.284 -1.48671 -4.9819 0
M  V30 2808 C 263.969 -0.795341 -4.95963 0
M  V30 2809 C 265.963 -2.52324 -5.8533 0
M  V30 2810 C 263.65 -1.83514 -5.82894 0
M  V30 2811 C 264.648 -2.69748 -6.27475 0
M  V30 2812 O 264.336 -3.71944 -7.1268 0
M  V30 2813 H 264.068 0.0121612 -0.675891 0
M  V30 2814 H 266.622 -0.6129 -1.96043 0
M  V30 2815 H 264.852 1.31505 -3.63653 0
M  V30 2816 H 266.541 1.01597 -3.92979 0
M  V30 2817 H 267.307 -1.359 -4.65571 0
M  V30 2818 H 263.186 -0.133713 -4.60806 0
M  V30 2819 H 266.73 -3.19665 -6.20048 0
M  V30 2820 H 262.627 -1.96306 -6.14926 0
M  V30 2821 H 263.395 -3.68503 -7.30854 0
M  V30 2822 N 266.058 1.56714 -0.166846 0
M  V30 2823 C 267.306 1.96358 0.478305 0
M  V30 2824 C 267.627 1.0537 1.6408 0
M  V30 2825 O 266.897 0.119154 1.95537 0
M  V30 2826 H 265.477 0.725065 0.179692 0
M  V30 2827 H 268.139 1.93329 -0.246985 0
M  V30 2828 H 267.235 3.00547 0.841292 0
M  V30 2829 N 267.536 -0.106894 1.57237 0
M  V30 2830 C 268.499 -1.11466 2.0027 0
M  V30 2831 C 269.499 -1.33623 0.894519 0
M  V30 2832 O 270.689 -1.29935 1.16028 0
M  V30 2833 C 267.821 -2.46646 2.35327 0
M  V30 2834 H 269.014 -0.744516 2.90512 0
M  V30 2835 H 266.567 -0.351576 1.52295 0
M  V30 2836 H 267.302 -2.88558 1.48003 0
M  V30 2837 H 267.087 -2.31915 3.16161 0
M  V30 2838 H 268.577 -3.19151 2.69318 0
M  V30 2839 N 269.014 -1.53014 -0.377408 0
M  V30 2840 C 270.254 -1.70318 -1.1301 0
M  V30 2841 C 270.618 -0.439538 -1.86901 0
M  V30 2842 O 271.819 -0.489095 -2.64313 0
M  V30 2843 C 270.09 -2.91125 -2.07319 0
M  V30 2844 S 271.649 -3.29075 -2.90268 0
M  V30 2845 H 268.467 -0.599426 -0.382374 0
M  V30 2846 H 271.069 -1.91089 -0.412933 0
M  V30 2847 H 269.773 -3.81303 -1.51777 0
M  V30 2848 H 269.304 -2.7272 -2.83526 0
M  V30 2849 H 271.319 -2.80165 -4.09539 0
M  V30 2850 N 270.492 0.636531 -1.44174 0
M  V30 2851 C 271.425 1.76139 -1.45087 0
M  V30 2852 C 272.403 1.59611 -0.310326 0
M  V30 2853 O 273.587 1.81568 -0.506477 0
M  V30 2854 C 270.714 3.13648 -1.27839 0
M  V30 2855 C 269.76 3.48838 -2.45386 0
M  V30 2856 S 270.593 3.46927 -4.07924 0
M  V30 2857 C 271.749 4.87064 -3.9309 0
M  V30 2858 H 271.982 1.75096 -2.40268 0
M  V30 2859 H 269.515 0.810666 -1.31406 0
M  V30 2860 H 271.473 3.93002 -1.18575 0
M  V30 2861 H 270.134 3.12235 -0.341787 0
M  V30 2862 H 269.327 4.48886 -2.29167 0
M  V30 2863 H 268.929 2.76935 -2.51362 0
M  V30 2864 H 271.221 5.76153 -3.56446 0
M  V30 2865 H 272.164 5.08337 -4.92949 0
M  V30 2866 H 272.572 4.61384 -3.25246 0
M  V30 2867 N 271.97 1.30982 0.876444 0
M  V30 2868 C 273.195 1.23373 1.66715 0
M  V30 2869 C 273.62 -0.19885 1.87046 0
M  V30 2870 O 272.978 -1.1427 1.40756 0
M  V30 2871 C 273.026 1.97644 3.01611 0
M  V30 2872 O 272.13 1.30935 3.91062 0
M  V30 2873 H 271.471 0.426279 0.509099 0
M  V30 2874 H 274.001 1.72944 1.09323 0
M  V30 2875 H 274.011 2.06992 3.51594 0
M  V30 2876 H 272.686 3.01829 2.86133 0
M  V30 2877 H 271.263 1.29996 3.49507 0
M  V30 2878 N 273.449 -1.08991 1.13837 0
M  V30 2879 C 274.379 -2.17771 0.842507 0
M  V30 2880 C 275.36 -1.6892 -0.20001 0
M  V30 2881 O 276.545 -1.94113 -0.0579731 0
M  V30 2882 C 273.675 -3.4589 0.312644 0
M  V30 2883 C 272.629 -4.08099 1.28992 0
M  V30 2884 C 271.955 -5.31098 0.619623 0
M  V30 2885 C 273.255 -4.50077 2.65005 0
M  V30 2886 H 274.949 -2.42777 1.75213 0
M  V30 2887 H 272.495 -1.16682 0.843875 0
M  V30 2888 H 274.448 -4.21297 0.0933043 0
M  V30 2889 H 273.172 -3.20419 -0.632382 0
M  V30 2890 H 271.831 -3.34717 1.49533 0
M  V30 2891 H 271.479 -5.0191 -0.33102 0
M  V30 2892 H 271.179 -5.73674 1.27167 0
M  V30 2893 H 272.703 -6.09224 0.409669 0
M  V30 2894 H 274.117 -5.16688 2.48407 0
M  V30 2895 H 272.514 -5.03553 3.26427 0
M  V30 2896 H 273.584 -3.62257 3.22332 0
M  V30 2897 N 274.927 -0.932562 -1.27047 0
M  V30 2898 C 275.857 -0.452902 -2.29066 0
M  V30 2899 C 276.838 0.489338 -1.62909 0
M  V30 2900 O 278.023 0.393046 -1.90181 0
M  V30 2901 C 275.153 0.290698 -3.46081 0
M  V30 2902 C 274.107 -0.564168 -4.24265 0
M  V30 2903 C 273.433 0.308886 -5.33807 0
M  V30 2904 C 274.733 -1.83112 -4.89149 0
M  V30 2905 H 276.427 -1.30552 -2.69437 0
M  V30 2906 H 273.973 -0.629201 -1.29526 0
M  V30 2907 H 275.926 0.637233 -4.16554 0
M  V30 2908 H 274.65 1.17738 -3.0464 0
M  V30 2909 H 273.309 -0.893477 -3.55545 0
M  V30 2910 H 272.957 1.19467 -4.88607 0
M  V30 2911 H 272.657 -0.259633 -5.87026 0
M  V30 2912 H 274.181 0.650884 -6.07121 0
M  V30 2913 H 275.595 -1.55236 -5.51883 0
M  V30 2914 H 273.992 -2.34353 -5.52448 0
M  V30 2915 H 275.062 -2.54772 -4.12576 0
M  V30 2916 N 276.405 1.4127 -0.698611 0
M  V30 2917 C 277.63 2.06024 -0.238512 0
M  V30 2918 C 278.055 1.5224 1.10475 0
M  V30 2919 O 277.413 0.650623 1.69223 0
M  V30 2920 C 277.461 3.59988 -0.209952 0
M  V30 2921 O 276.565 4.04282 0.814235 0
M  V30 2922 H 275.906 0.653829 -0.115775 0
M  V30 2923 H 278.436 1.8098 -0.954326 0
M  V30 2924 H 278.446 4.07979 -0.0418436 0
M  V30 2925 H 277.121 3.98503 -1.1903 0
M  V30 2926 H 275.698 3.6779 0.615234 0
M  V30 2927 N 277.883 0.443576 1.51229 0
M  V30 2928 C 279.129 -0.120975 2.02439 0
M  V30 2929 C 279.462 -1.41815 1.32674 0
M  V30 2930 O 278.737 -1.89373 0.443622 0
M  V30 2931 C 279.02 -0.333291 3.58554 0
M  V30 2932 C 278.873 0.982968 4.38928 0
M  V30 2933 C 280.192 -1.10028 4.26124 0
M  V30 2934 H 277.311 -0.0424923 0.735774 0
M  V30 2935 H 279.953 0.583794 1.80809 0
M  V30 2936 H 278.103 -0.933614 3.77115 0
M  V30 2937 H 279.775 1.61775 4.32003 0
M  V30 2938 H 278.018 1.58611 4.03763 0
M  V30 2939 H 278.689 0.788379 5.46341 0
M  V30 2940 H 281.165 -0.591711 4.11871 0
M  V30 2941 H 280.041 -1.21761 5.35225 0
M  V30 2942 H 280.302 -2.12996 3.87408 0
M  V30 2943 N 279.361 -1.56624 0.175154 0
M  V30 2944 C 280.777 -1.58571 -0.180966 0
M  V30 2945 C 280.977 -1.19065 -1.6256 0
M  V30 2946 O 280.033 -0.904044 -2.35761 0
M  V30 2947 C 281.346 -3.00522 0.103326 0
M  V30 2948 C 282.894 -3.12972 0.0418426 0
M  V30 2949 C 283.369 -4.57022 0.299175 0
M  V30 2950 N 284.86 -4.62541 0.247086 0
M  V30 2951 C 285.595 -5.71857 0.420318 0
M  V30 2952 N 285.091 -6.89717 0.652816 0
M  V30 2953 N 286.884 -5.60972 0.355957 0
M  V30 2954 H 279.035 -1.80589 1.11809 0
M  V30 2955 H 281.298 -0.837178 0.444788 0
M  V30 2956 H 281.004 -3.33916 1.10422 0
M  V30 2957 H 280.878 -3.72344 -0.603299 0
M  V30 2958 H 283.265 -2.79403 -0.949636 0
M  V30 2959 H 283.346 -2.43578 0.781238 0
M  V30 2960 H 282.99 -4.913 1.28788 0
M  V30 2961 H 282.92 -5.24579 -0.460876 0
M  V30 2962 H 285.411 -3.77829 0.0731895 0
M  V30 2963 H 285.724 -7.68911 0.774347 0
M  V30 2964 H 284.069 -6.91572 0.689476 0
M  V30 2965 H 287.26 -4.67773 0.174882 0
M  V30 2966 H 287.433 -6.46111 0.494388 0
M  V30 2967 N 280.839 0.0985539 -1.57292 0
M  V30 2968 C 282.085 0.803867 -1.86188 0
M  V30 2969 C 282.418 1.78549 -0.763794 0
M  V30 2970 O 281.693 1.93153 0.22855 0
M  V30 2971 C 281.976 1.53568 -3.25713 0
M  V30 2972 C 281.829 0.572277 -4.46145 0
M  V30 2973 C 283.148 2.48708 -3.63087 0
M  V30 2974 H 280.267 0.290781 -0.677211 0
M  V30 2975 H 282.909 0.0675783 -1.8988 0
M  V30 2976 H 281.059 2.16332 -3.22696 0
M  V30 2977 H 282.731 -0.0480894 -4.61275 0
M  V30 2978 H 280.974 -0.114618 -4.33649 0
M  V30 2979 H 281.645 1.12139 -5.40489 0
M  V30 2980 H 284.121 1.96039 -3.67026 0
M  V30 2981 H 282.997 2.96932 -4.61652 0
M  V30 2982 H 283.258 3.32309 -2.91588 0
M  V30 2983 N 282.317 1.53212 0.369288 0
M  V30 2984 C 283.564 1.69215 1.11232 0
M  V30 2985 C 283.892 0.442048 1.8941 0
M  V30 2986 O 283.147 -0.575944 1.87033 0
M  V30 2987 C 283.446 2.89101 2.10132 0
M  V30 2988 C 283.112 4.25758 1.48463 0
M  V30 2989 C 281.774 4.6292 1.31372 0
M  V30 2990 C 284.126 5.10757 1.03811 0
M  V30 2991 C 281.454 5.82722 0.68207 0
M  V30 2992 C 283.806 6.31201 0.420487 0
M  V30 2993 C 282.47 6.67079 0.237038 0
M  V30 2994 H 281.74 0.619201 0.407027 0
M  V30 2995 H 284.387 1.87391 0.394552 0
M  V30 2996 H 282.692 2.65421 2.88199 0
M  V30 2997 H 284.389 2.98676 2.6757 0
M  V30 2998 H 280.979 3.96494 1.62758 0
M  V30 2999 H 285.163 4.82599 1.1581 0
M  V30 3000 H 280.419 6.09113 0.528316 0
M  V30 3001 H 284.593 6.96368 0.0662874 0
M  V30 3002 H 282.22 7.59774 -0.254477 0
M  V30 3003 N 283.795 -0.628877 1.44509 0
M  V30 3004 C 285.042 -1.38839 1.47411 0
M  V30 3005 C 285.37 -1.94202 0.10757 0
M  V30 3006 O 284.625 -1.74243 -0.890947 0
M  V30 3007 C 284.924 -2.56995 2.48371 0
M  V30 3008 C 284.59 -2.19908 3.93639 0
M  V30 3009 C 283.252 -2.09506 4.33198 0
M  V30 3010 C 285.604 -1.9064 4.85083 0
M  V30 3011 C 282.932 -1.68028 5.62124 0
M  V30 3012 C 285.284 -1.50655 6.14399 0
M  V30 3013 C 283.948 -1.38796 6.5291 0
M  V30 3014 H 283.218 -0.508048 0.539414 0
M  V30 3015 H 285.865 -0.712913 1.77735 0
M  V30 3016 H 284.17 -3.29786 2.11538 0
M  V30 3017 H 285.867 -3.15223 2.47861 0
M  V30 3018 H 282.457 -2.28922 3.62343 0
M  V30 3019 H 286.641 -1.97585 4.55273 0
M  V30 3020 H 281.897 -1.57452 5.90778 0
M  V30 3021 H 286.071 -1.27048 6.84713 0
M  V30 3022 H 283.698 -1.06429 7.52713 0
M  V30 3023 N 285.273 -1.31445 -0.869486 0
M  V30 3024 C 286.22 -1.19135 -1.97675 0
M  V30 3025 C 287.19 -0.0770266 -1.65921 0
M  V30 3026 O 288.375 -0.249972 -1.89155 0
M  V30 3027 C 285.515 -0.905149 -3.33018 0
M  V30 3028 C 284.628 -2.10285 -3.77365 0
M  V30 3029 C 283.763 -1.75339 -5.01427 0
M  V30 3030 C 282.802 -2.91515 -5.38224 0
M  V30 3031 N 281.939 -2.56762 -6.53466 0
M  V30 3032 H 286.779 -2.13853 -2.07535 0
M  V30 3033 H 284.316 -1.06379 -1.01597 0
M  V30 3034 H 286.274 -0.719765 -4.10944 0
M  V30 3035 H 284.904 0.00519624 -3.228 0
M  V30 3036 H 283.956 -2.39899 -2.95216 0
M  V30 3037 H 285.268 -2.97237 -4.00564 0
M  V30 3038 H 284.422 -1.53266 -5.87022 0
M  V30 3039 H 283.161 -0.855801 -4.80133 0
M  V30 3040 H 282.166 -3.14237 -4.51149 0
M  V30 3041 H 283.391 -3.81985 -5.61484 0
M  V30 3042 H 281.337 -1.69526 -6.33717 0
M  V30 3043 H 281.254 -3.37243 -6.76612 0
M  V30 3044 H 282.522 -2.38083 -7.42251 0
M  V30 3045 N 286.751 1.08385 -1.14413 0
M  V30 3046 C 287.698 2.15311 -0.831265 0
M  V30 3047 C 288.668 1.64751 0.211292 0
M  V30 3048 O 289.853 1.90627 0.0811674 0
M  V30 3049 C 286.993 3.43658 -0.315143 0
M  V30 3050 C 286.106 4.08064 -1.41802 0
M  V30 3051 C 285.241 5.24207 -0.859126 0
M  V30 3052 C 284.28 5.80554 -1.93967 0
M  V30 3053 N 283.417 6.88042 -1.39793 0
M  V30 3054 H 288.257 2.41415 -1.74708 0
M  V30 3055 H 285.794 1.18474 -0.871909 0
M  V30 3056 H 287.752 4.172 0.00230884 0
M  V30 3057 H 286.382 3.17839 0.56378 0
M  V30 3058 H 285.434 3.3228 -1.85187 0
M  V30 3059 H 286.746 4.45962 -2.23427 0
M  V30 3060 H 285.9 6.04689 -0.49359 0
M  V30 3061 H 284.639 4.87699 -0.011932 0
M  V30 3062 H 283.644 4.98725 -2.31415 0
M  V30 3063 H 284.869 6.19121 -2.79046 0
M  V30 3064 H 282.815 6.53493 -0.572919 0
M  V30 3065 H 282.732 7.24767 -2.15054 0
M  V30 3066 H 284 7.72255 -1.0603 0
M  V30 3067 N 288.23 0.939286 1.26551 0
M  V30 3068 C 289.47 0.5933 1.956 0
M  V30 3069 C 289.834 -0.851515 1.72085 0
M  V30 3070 O 291.035 -1.30634 2.34921 0
M  V30 3071 C 289.306 0.923996 3.45249 0
M  V30 3072 S 290.865 0.688269 4.33369 0
M  V30 3073 H 287.683 0.218591 0.676564 0
M  V30 3074 H 290.285 1.2102 1.5354 0
M  V30 3075 H 288.989 1.97297 3.59864 0
M  V30 3076 H 288.52 0.296746 3.92279 0
M  V30 3077 H 290.535 -0.448434 4.9417 0
M  V30 3078 N 289.708 -1.40897 0.706093 0
M  V30 3079 C 291.119 -1.84023 0.315052 0
M  V30 3080 C 291.47 -1.5906 -1.14866 0
M  V30 3081 O 290.595 -1.06651 -1.88293 0
M  V30 3082 C 291.19 -3.34055 0.565038 0
M  V30 3083 C 289.749 -3.7571 0.227806 0
M  V30 3084 C 288.896 -2.64204 0.842122 0
M  V30 3085 H 291.847 -1.303 0.905963 0
M  V30 3086 H 291.868 -3.80107 -0.172843 0
M  V30 3087 H 291.38 -3.52192 1.63042 0
M  V30 3088 H 289.481 -3.63172 -0.832895 0
M  V30 3089 H 289.594 -4.74103 0.690174 0
M  V30 3090 H 287.958 -2.53255 0.270893 0
M  V30 3091 H 288.741 -2.85155 1.91158 0
M  V30 3092 N 291.186 -0.45159 -1.50991 0
M  V30 3093 C 292.411 0.110667 -2.07105 0
M  V30 3094 C 292.836 1.3446 -1.31538 0
M  V30 3095 O 292.194 1.77743 -0.357365 0
M  V30 3096 C 292.242 0.397238 -3.58405 0
M  V30 3097 O 291.346 1.48124 -3.84881 0
M  V30 3098 H 290.687 -0.00439271 -0.663985 0
M  V30 3099 H 293.217 -0.637026 -1.9443 0
M  V30 3100 H 293.227 0.64351 -4.02893 0
M  V30 3101 H 291.902 -0.504553 -4.12828 0
M  V30 3102 H 290.479 1.22381 -3.52246 0
M  V30 3103 N 292.664 1.56529 -0.183458 0
M  V30 3104 C 293.913 1.96419 0.458511 0
M  V30 3105 C 294.226 1.0727 1.63562 0
M  V30 3106 O 295.432 1.36893 2.34462 0
M  V30 3107 C 293.888 3.49298 0.867122 0
M  V30 3108 C 293.496 4.47092 -0.285057 0
M  V30 3109 C 295.24 3.97983 1.47683 0
M  V30 3110 C 293.147 5.91225 0.143862 0
M  V30 3111 H 292.077 0.733394 0.175071 0
M  V30 3112 H 294.728 1.81448 -0.273624 0
M  V30 3113 H 293.11 3.59731 1.65559 0
M  V30 3114 H 294.284 4.48383 -1.0625 0
M  V30 3115 H 292.599 4.08535 -0.805503 0
M  V30 3116 H 295.196 5.03134 1.80999 0
M  V30 3117 H 295.539 3.41618 2.37914 0
M  V30 3118 H 296.072 3.90617 0.752562 0
M  V30 3119 H 292.811 6.5149 -0.723974 0
M  V30 3120 H 292.331 5.93214 0.886413 0
M  V30 3121 H 294.01 6.44362 0.583628 0
M  V30 3122 N 294.142 -0.090211 1.57342 0
M  V30 3123 C 295.388 -0.793982 1.86611 0
M  V30 3124 C 295.721 -1.78142 0.773252 0
M  V30 3125 O 294.996 -1.93271 -0.218304 0
M  V30 3126 C 295.279 -1.51839 3.26523 0
M  V30 3127 C 295.132 -0.548609 4.46442 0
M  V30 3128 C 296.451 -2.46779 3.64401 0
M  V30 3129 H 293.57 -0.287186 0.678744 0
M  V30 3130 H 296.212 -0.0575076 1.89913 0
M  V30 3131 H 294.362 -2.14617 3.23839 0
M  V30 3132 H 296.034 0.0725513 4.61243 0
M  V30 3133 H 294.277 0.137614 4.33582 0
M  V30 3134 H 294.948 -1.09271 5.41076 0
M  V30 3135 H 297.424 -1.94089 3.68061 0
M  V30 3136 H 296.3 -2.94479 4.63221 0
M  V30 3137 H 296.561 -3.30758 2.93346 0
M  V30 3138 N 295.62 -1.53406 -0.361157 0
M  V30 3139 C 296.552 -1.76446 -1.46286 0
M  V30 3140 C 297.565 -0.645322 -1.49464 0
M  V30 3141 O 298.754 -0.921681 -1.52864 0
M  V30 3142 C 295.854 -1.83332 -2.85031 0
M  V30 3143 C 295.027 -3.13033 -3.05498 0
M  V30 3144 C 294.086 -3.11104 -4.24383 0
M  V30 3145 O 293.112 -3.84888 -4.19344 0
M  V30 3146 N 294.314 -2.32234 -5.32022 0
M  V30 3147 H 297.079 -2.71508 -1.26899 0
M  V30 3148 H 294.64 -1.52238 -0.550915 0
M  V30 3149 H 296.632 -1.79514 -3.62708 0
M  V30 3150 H 295.202 -0.955342 -2.97644 0
M  V30 3151 H 294.422 -3.30119 -2.15442 0
M  V30 3152 H 295.71 -3.9874 -3.16044 0
M  V30 3153 H 295.108 -1.71807 -5.38979 0
M  V30 3154 H 293.665 -2.3423 -6.08259 0
M  V30 3155 N 297.098 0.621204 -1.44841 0
M  V30 3156 C 298.046 1.75385 -1.52784 0
M  V30 3157 C 299.04 1.64639 -0.398779 0
M  V30 3158 O 300.246 1.70598 -0.574137 0
M  V30 3159 H 296.621 0.579193 -0.479625 0
M  V30 3160 H 298.592 1.6581 -2.48092 0
M  V30 3161 C 297.341 3.13742 -1.4987 0
M  V30 3162 H 296.664 3.22663 -2.36069 0
M  V30 3163 H 298.104 3.92861 -1.59487 0
M  V30 3164 C 296.563 3.36175 -0.220973 0
M  V30 3165 O 297.093 3.95469 0.704782 0
M  V30 3166 N 295.299 2.90348 -0.120963 0
M  V30 3167 H 294.846 2.42278 -0.875162 0
M  V30 3168 H 294.804 3.05732 0.733168 0
M  V30 3169 N 298.576 1.31904 0.862503 0
M  V30 3170 C 299.823 1.22017 1.61611 0
M  V30 3171 C 300.151 -0.21991 1.93253 0
M  V30 3172 O 299.406 -1.17076 1.56817 0
M  V30 3173 C 299.705 2.01713 2.95037 0
M  V30 3174 C 299.371 3.51145 2.82857 0
M  V30 3175 C 298.033 3.91889 2.79243 0
M  V30 3176 C 300.385 4.46204 2.69353 0
M  V30 3177 C 297.713 5.25947 2.59993 0
M  V30 3178 C 300.065 5.80397 2.5164 0
M  V30 3179 C 298.729 6.20352 2.46413 0
M  V30 3180 H 297.999 0.44649 0.591378 0
M  V30 3181 H 300.646 1.63248 1.00111 0
M  V30 3182 H 298.951 1.53185 3.60613 0
M  V30 3183 H 300.648 1.91437 3.52353 0
M  V30 3184 H 297.238 3.1878 2.86491 0
M  V30 3185 H 301.422 4.15652 2.71196 0
M  V30 3186 H 296.678 5.5597 2.54376 0
M  V30 3187 H 300.852 6.53676 2.40169 0
M  V30 3188 H 298.479 7.24172 2.31256 0
M  V30 3189 N 300.054 -1.07777 1.14986 0
M  V30 3190 C 301.017 -2.13041 0.845358 0
M  V30 3191 C 302.017 -1.60071 -0.152931 0
M  V30 3192 O 303.207 -1.74033 0.0761879 0
M  V30 3193 C 300.339 -3.39896 0.261383 0
M  V30 3194 H 301.532 -2.41485 1.77834 0
M  V30 3195 H 299.085 -1.23595 0.956757 0
M  V30 3196 H 299.82 -3.17091 -0.68 0
M  V30 3197 H 299.605 -3.79642 0.980514 0
M  V30 3198 H 301.095 -4.17548 0.0657687 0
M  V30 3199 N 301.532 -0.945985 -1.26051 0
M  V30 3200 C 302.778 -0.597002 -1.93814 0
M  V30 3201 C 303.111 0.862484 -1.73997 0
M  V30 3202 O 302.386 1.61769 -1.07986 0
M  V30 3203 C 302.669 -0.945937 -3.47454 0
M  V30 3204 C 302.522 -2.46052 -3.76535 0
M  V30 3205 C 303.841 -0.464785 -4.37639 0
M  V30 3206 H 300.96 -0.218366 -0.703907 0
M  V30 3207 H 303.602 -1.18107 -1.48831 0
M  V30 3208 H 301.752 -0.448902 -3.85898 0
M  V30 3209 H 303.424 -3.03065 -3.47778 0
M  V30 3210 H 301.667 -2.90194 -3.22444 0
M  V30 3211 H 302.338 -2.65517 -4.83947 0
M  V30 3212 H 304.814 -0.891016 -4.06448 0
M  V30 3213 H 303.69 -0.737712 -5.4392 0
M  V30 3214 H 303.951 0.635274 -4.37512 0
M  V30 3215 N 303.011 1.40521 -0.713556 0
M  V30 3216 C 304.258 2.00923 -0.25219 0
M  V30 3217 C 304.586 1.56571 1.15395 0
M  V30 3218 O 303.841 0.775874 1.79663 0
M  V30 3219 C 304.14 3.56317 -0.278 0
M  V30 3220 C 303.806 4.20246 -1.63415 0
M  V30 3221 C 302.468 4.37422 -2.00538 0
M  V30 3222 C 304.82 4.55923 -2.52554 0
M  V30 3223 C 302.148 4.87558 -3.2635 0
M  V30 3224 C 304.5 5.07458 -3.77716 0
M  V30 3225 C 303.164 5.22843 -4.14959 0
M  V30 3226 H 302.434 0.735231 -0.0922829 0
M  V30 3227 H 305.081 1.68161 -0.916188 0
M  V30 3228 H 303.386 3.88976 0.469567 0
M  V30 3229 H 305.083 4.00883 0.0967819 0
M  V30 3230 H 301.673 4.07263 -1.33546 0
M  V30 3231 H 305.857 4.42291 -2.25149 0
M  V30 3232 H 301.113 4.97654 -3.55176 0
M  V30 3233 H 305.287 5.34041 -4.4696 0
M  V30 3234 H 302.914 5.61454 -5.12516 0
M  V30 3235 N 304.489 0.459591 1.5075 0
M  V30 3236 C 305.9 0.00171547 1.867 0
M  V30 3237 C 306.251 -1.39934 1.37525 0
M  V30 3238 O 305.376 -2.03523 0.735349 0
M  V30 3239 C 305.971 -0.00366298 3.388 0
M  V30 3240 C 304.53 -0.406026 3.74204 0
M  V30 3241 C 303.677 0.38673 2.7459 0
M  V30 3242 H 306.628 0.674413 1.43657 0
M  V30 3243 H 306.649 -0.808371 3.71814 0
M  V30 3244 H 306.161 1.01617 3.74561 0
M  V30 3245 H 304.262 -1.43063 3.4404 0
M  V30 3246 H 304.375 -0.115362 4.78961 0
M  V30 3247 H 302.739 -0.158019 2.54209 0
M  V30 3248 H 303.522 1.40585 3.13194 0
M  V30 3249 N 305.967 -1.56429 0.191757 0
M  V30 3250 C 306.877 -2.22541 -0.742481 0
M  V30 3251 C 307.893 -1.22342 -1.23727 0
M  V30 3252 O 309.069 -1.55069 -1.28513 0
M  V30 3253 C 306.134 -2.8692 -1.94623 0
M  V30 3254 C 305.195 -4.02378 -1.49633 0
M  V30 3255 C 304.428 -4.63678 -2.6427 0
M  V30 3256 O 304.651 -4.23895 -3.81666 0
M  V30 3257 O 303.585 -5.53202 -2.37174 0
M  V30 3258 H 307.411 -3.02977 -0.209462 0
M  V30 3259 H 304.996 -1.49353 -0.0373832 0
M  V30 3260 H 306.878 -3.27663 -2.64982 0
M  V30 3261 H 305.553 -2.09466 -2.46791 0
M  V30 3262 H 304.46 -3.66265 -0.761636 0
M  V30 3263 H 305.793 -4.81487 -1.02134 0
M  V30 3264 N 307.445 0.0818655 -1.57387 0
M  V30 3265 C 308.673 0.796108 -1.9097 0
M  V30 3266 C 309.088 1.71626 -0.786757 0
M  V30 3267 O 308.445 1.80908 0.240513 0
M  V30 3268 C 308.496 1.59829 -3.24248 0
M  V30 3269 O 308.217 0.715131 -4.32224 0
M  V30 3270 C 309.718 2.41442 -3.7178 0
M  V30 3271 H 306.938 0.22691 -0.631469 0
M  V30 3272 H 309.482 0.0551439 -2.04426 0
M  V30 3273 H 307.637 2.29163 -3.12351 0
M  V30 3274 H 308.051 1.27205 -5.08841 0
M  V30 3275 H 309.525 2.932 -4.67694 0
M  V30 3276 H 310.002 3.2051 -3.00283 0
M  V30 3277 H 310.608 1.77283 -3.86589 0
M  V30 3278 N 308.923 1.53595 0.353017 0
M  V30 3279 C 309.856 1.7572 1.45594 0
M  V30 3280 C 310.834 0.605961 1.50887 0
M  V30 3281 O 312.018 0.840023 1.68748 0
M  V30 3282 C 309.145 1.84732 2.83887 0
M  V30 3283 C 308.191 3.06808 2.96262 0
M  V30 3284 S 309.024 4.66065 2.63711 0
M  V30 3285 C 310.18 4.77943 4.04131 0
M  V30 3286 H 310.413 2.68994 1.26608 0
M  V30 3287 H 307.946 1.44343 0.548117 0
M  V30 3288 H 309.904 1.9061 3.63563 0
M  V30 3289 H 308.565 0.92488 3.00175 0
M  V30 3290 H 307.758 3.09761 3.97573 0
M  V30 3291 H 307.36 2.99108 2.24523 0
M  V30 3292 H 309.652 4.5877 4.98534 0
M  V30 3293 H 310.595 5.80022 4.06177 0
M  V30 3294 H 311.003 4.06472 3.91715 0
M  V30 3295 N 310.401 -0.613514 1.45168 0
M  V30 3296 C 311.629 -1.39946 1.5239 0
M  V30 3297 C 312.044 -1.88167 0.154531 0
M  V30 3298 O 311.401 -1.61872 -0.842843 0
M  V30 3299 C 311.452 -2.60795 2.50337 0
M  V30 3300 O 311.173 -2.1458 3.81952 0
M  V30 3301 C 312.674 -3.53723 2.67198 0
M  V30 3302 H 309.894 -0.428593 0.516284 0
M  V30 3303 H 312.438 -0.748753 1.903 0
M  V30 3304 H 310.593 -3.21919 2.15515 0
M  V30 3305 H 311.007 -2.93055 4.34993 0
M  V30 3306 H 312.481 -4.35079 3.39721 0
M  V30 3307 H 312.958 -4.0368 1.73029 0
M  V30 3308 H 313.564 -2.98456 3.02992 0
M  V30 3309 N 311.879 -1.3236 -0.855495 0
M  V30 3310 C 313.127 -1.22629 -1.60644 0
M  V30 3311 C 313.448 0.212136 -1.93843 0
M  V30 3312 O 312.718 1.13666 -1.59552 0
M  V30 3313 H 311.298 -0.450882 -0.595579 0
M  V30 3314 H 313.96 -1.65871 -1.02337 0
M  V30 3315 H 313.056 -1.80832 -2.54374 0
M  V30 3316 N 313.357 1.07166 -1.15556 0
M  V30 3317 C 314.32 2.12589 -0.856644 0
M  V30 3318 C 315.32 1.6015 0.14444 0
M  V30 3319 O 316.51 1.7399 -0.0854163 0
M  V30 3320 C 313.642 3.39753 -0.279405 0
M  V30 3321 H 314.835 2.40539 -1.79112 0
M  V30 3322 H 312.388 1.23086 -0.963298 0
M  V30 3323 H 313.123 3.17447 0.663174 0
M  V30 3324 H 312.908 3.79117 -1.00063 0
M  V30 3325 H 314.398 4.17507 -0.0879113 0
M  V30 3326 N 314.835 0.952656 1.25548 0
M  V30 3327 C 315.745 0.47782 2.29682 0
M  V30 3328 C 316.761 -0.453859 1.67977 0
M  V30 3329 O 317.937 -0.330587 1.98668 0
M  V30 3330 C 315.002 -0.238655 3.45878 0
M  V30 3331 C 314.063 0.730994 4.23031 0
M  V30 3332 C 313.296 0.0486165 5.33678 0
M  V30 3333 O 313.519 -1.16612 5.58353 0
M  V30 3334 O 312.453 0.733152 5.97418 0
M  V30 3335 H 316.279 1.34312 2.72386 0
M  V30 3336 H 313.864 0.719026 1.30959 0
M  V30 3337 H 315.746 -0.641774 4.16484 0
M  V30 3338 H 314.421 -1.07916 3.05181 0
M  V30 3339 H 313.328 1.18428 3.5486 0
M  V30 3340 H 314.661 1.53946 4.67506 0
M  V30 3341 N 316.313 -1.40141 0.720998 0
M  V30 3342 C 317.538 -2.05618 0.271258 0
M  V30 3343 C 317.963 -1.53978 -1.08039 0
M  V30 3344 O 317.321 -0.677463 -1.68167 0
M  V30 3345 C 317.369 -3.59609 0.267197 0
M  V30 3346 O 316.473 -4.05526 -0.749814 0
M  V30 3347 H 315.814 -0.651904 0.126162 0
M  V30 3348 H 318.344 -1.79439 0.982997 0
M  V30 3349 H 318.354 -4.0786 0.106744 0
M  V30 3350 H 317.029 -3.96559 1.25354 0
M  V30 3351 H 315.606 -3.68722 -0.556644 0
M  V30 3352 N 317.792 -0.46758 -1.50504 0
M  V30 3353 C 319.02 0.0864133 -2.06719 0
M  V30 3354 C 319.435 1.33819 -1.33184 0
M  V30 3355 O 318.792 1.78061 -0.400083 0
M  V30 3356 C 318.843 0.378079 -3.59517 0
M  V30 3357 O 318.564 -0.824044 -4.3028 0
M  V30 3358 C 320.065 0.979426 -4.32345 0
M  V30 3359 H 317.285 -0.00551697 -0.670977 0
M  V30 3360 H 319.829 -0.655354 -1.93715 0
M  V30 3361 H 317.984 1.06977 -3.72337 0
M  V30 3362 H 318.398 -0.566518 -5.21432 0
M  V30 3363 H 319.872 1.1333 -5.40241 0
M  V30 3364 H 320.349 1.9686 -3.9261 0
M  V30 3365 H 320.955 0.326216 -4.24047 0
M  V30 3366 N 319.27 1.56325 -0.20005 0
M  V30 3367 C 320.495 2.02548 0.44597 0
M  V30 3368 C 320.92 1.07922 1.5406 0
M  V30 3369 O 320.278 0.0635775 1.81188 0
M  V30 3370 C 320.326 3.47175 0.974761 0
M  V30 3371 O 319.43 3.55671 2.08739 0
M  V30 3372 H 318.771 0.655862 0.103638 0
M  V30 3373 H 321.301 2.02201 -0.312381 0
M  V30 3374 H 321.311 3.87067 1.2901 0
M  V30 3375 H 319.986 4.15538 0.17347 0
M  V30 3376 H 318.563 3.27657 1.78032 0
M  V30 3377 N 320.748 -0.0735177 1.57428 0
M  V30 3378 C 321.678 -1.0879 2.06608 0
M  V30 3379 C 322.659 -1.40473 0.959237 0
M  V30 3380 O 323.844 -1.5013 1.23185 0
M  V30 3381 C 320.974 -2.40183 2.50857 0
M  V30 3382 C 319.928 -2.22858 3.65402 0
M  V30 3383 C 319.254 -3.59619 3.957 0
M  V30 3384 C 320.554 -1.65123 4.95511 0
M  V30 3385 H 322.248 -0.678673 2.91607 0
M  V30 3386 H 319.794 -0.325013 1.40284 0
M  V30 3387 H 321.747 -3.11437 2.83874 0
M  V30 3388 H 320.471 -2.83083 1.62885 0
M  V30 3389 H 319.13 -1.54045 3.32664 0
M  V30 3390 H 318.778 -4.00086 3.04861 0
M  V30 3391 H 318.478 -3.48866 4.72828 0
M  V30 3392 H 320.002 -4.32306 4.31212 0
M  V30 3393 H 321.416 -2.26241 5.26771 0
M  V30 3394 H 319.813 -1.65071 5.7695 0
M  V30 3395 H 320.883 -0.612559 4.81015 0
M  V30 3396 N 322.226 -1.5378 -0.344866 0
M  V30 3397 C 323.472 -1.71216 -1.08687 0
M  V30 3398 C 323.805 -0.473281 -1.88345 0
M  V30 3399 O 323.08 0.52968 -1.87149 0
M  V30 3400 C 323.363 -2.97486 -2.02914 0
M  V30 3401 C 323.216 -4.31579 -1.26727 0
M  V30 3402 C 324.535 -3.19422 -3.0275 0
M  V30 3403 H 321.654 -0.62301 -0.393735 0
M  V30 3404 H 324.296 -1.8645 -0.365563 0
M  V30 3405 H 322.446 -2.84629 -2.64421 0
M  V30 3406 H 324.118 -4.56284 -0.67845 0
M  V30 3407 H 322.361 -4.30049 -0.569273 0
M  V30 3408 H 323.032 -5.16106 -1.95803 0
M  V30 3409 H 325.508 -3.316 -2.51357 0
M  V30 3410 H 324.384 -4.09169 -3.65885 0
M  V30 3411 H 324.645 -2.35656 -3.74057 0
M  V30 3412 N 323.704 0.605807 -1.45491 0
M  V30 3413 C 324.953 1.36086 -1.48874 0
M  V30 3414 C 325.266 1.95131 -0.135333 0
M  V30 3415 O 326.472 2.7146 -0.0468144 0
M  V30 3416 C 324.928 2.46518 -2.62215 0
M  V30 3417 C 324.536 1.93877 -4.03876 0
M  V30 3418 C 326.28 3.23512 -2.74846 0
M  V30 3419 C 324.187 3.01801 -5.08596 0
M  V30 3420 H 323.117 0.511497 -0.553974 0
M  V30 3421 H 325.768 0.649089 -1.71636 0
M  V30 3422 H 324.15 3.20388 -2.32739 0
M  V30 3423 H 325.324 1.26704 -4.43038 0
M  V30 3424 H 323.639 1.29622 -3.95711 0
M  V30 3425 H 326.236 4.04013 -3.50253 0
M  V30 3426 H 326.579 3.74631 -1.81542 0
M  V30 3427 H 327.112 2.56742 -3.03856 0
M  V30 3428 H 323.851 2.55597 -6.03614 0
M  V30 3429 H 323.371 3.67535 -4.74002 0
M  V30 3430 H 325.05 3.66152 -5.33424 0
M  V30 3431 N 325.182 1.32811 0.848464 0
M  V30 3432 C 326.145 1.22194 1.9391 0
M  V30 3433 C 327.145 0.143404 1.60159 0
M  V30 3434 O 328.335 0.394253 1.6968 0
M  V30 3435 C 325.467 0.88067 3.29328 0
M  V30 3436 H 326.66 2.19127 2.04752 0
M  V30 3437 H 324.213 1.16731 1.0394 0
M  V30 3438 H 324.948 -0.0865776 3.24184 0
M  V30 3439 H 324.733 1.66052 3.55203 0
M  V30 3440 H 326.223 0.830871 4.09251 0
M  V30 3441 N 326.66 -1.06551 1.16123 0
M  V30 3442 C 328.076 -1.3142 0.905585 0
M  V30 3443 C 328.276 -1.96571 -0.442964 0
M  V30 3444 O 327.332 -2.23068 -1.18308 0
M  V30 3445 C 328.645 -2.19741 2.05267 0
M  V30 3446 C 330.193 -2.33165 2.08813 0
M  V30 3447 C 330.668 -3.24838 3.22868 0
M  V30 3448 N 332.159 -3.32421 3.22568 0
M  V30 3449 C 332.894 -4.0344 4.0746 0
M  V30 3450 N 332.39 -4.77003 5.02434 0
M  V30 3451 N 334.183 -3.99464 3.95456 0
M  V30 3452 H 326.334 -0.626548 2.02949 0
M  V30 3453 H 328.597 -0.338777 0.8854 0
M  V30 3454 H 328.303 -1.79142 3.02657 0
M  V30 3455 H 328.177 -3.20313 1.99198 0
M  V30 3456 H 330.564 -2.73013 1.12018 0
M  V30 3457 H 330.645 -1.3227 2.18948 0
M  V30 3458 H 330.289 -2.85708 4.19921 0
M  V30 3459 H 330.219 -4.25707 3.0997 0
M  V30 3460 H 332.71 -2.79994 2.53795 0
M  V30 3461 H 333.023 -5.28712 5.63634 0
M  V30 3462 H 331.368 -4.75992 5.06415 0
M  V30 3463 H 334.559 -3.4111 3.20564 0
M  V30 3464 H 334.732 -4.54544 4.61837 0
M  V30 3465 N 328.138 -0.959301 -1.25041 0
M  V30 3466 C 329.386 -0.615393 -1.92503 0
M  V30 3467 C 329.707 0.850969 -1.75452 0
M  V30 3468 O 328.977 1.60658 -1.12098 0
M  V30 3469 H 327.557 -0.224613 -0.712431 0
M  V30 3470 H 330.219 -1.21855 -1.5211 0
M  V30 3471 H 329.315 -0.848738 -3.00338 0
M  V30 3472 N 329.616 1.39756 -0.72842 0
M  V30 3473 C 330.844 2.04948 -0.283528 0
M  V30 3474 C 331.259 1.54908 1.0793 0
M  V30 3475 O 330.616 0.711135 1.68075 0
M  V30 3476 C 330.667 3.60498 -0.268957 0
M  V30 3477 O 330.388 4.08695 -1.57798 0
M  V30 3478 C 331.889 4.4288 0.192912 0
M  V30 3479 H 329.109 0.659243 -0.125056 0
M  V30 3480 H 331.653 1.78927 -0.990226 0
M  V30 3481 H 329.808 3.85444 0.388801 0
M  V30 3482 H 330.222 5.02977 -1.48709 0
M  V30 3483 H 331.696 5.51791 0.151952 0
M  V30 3484 H 332.173 4.21418 1.23708 0
M  V30 3485 H 332.779 4.23069 -0.435039 0
M  V30 3486 N 331.094 0.475555 1.50254 0
M  V30 3487 C 332.334 -0.0765802 2.04256 0
M  V30 3488 C 332.698 -1.36587 1.34937 0
M  V30 3489 O 333.899 -2.00066 1.79519 0
M  V30 3490 C 332.17 -0.251668 3.56513 0
M  V30 3491 S 333.729 -0.761716 4.32138 0
M  V30 3492 H 330.547 -0.0138456 0.710865 0
M  V30 3493 H 333.149 0.643714 1.84598 0
M  V30 3494 H 331.853 0.692404 4.04517 0
M  V30 3495 H 331.384 -0.997946 3.80532 0
M  V30 3496 H 333.399 -2.03451 4.52573 0
M  V30 3497 N 332.573 -1.56217 0.208337 0
M  V30 3498 C 333.822 -1.97124 -0.427204 0
M  V30 3499 C 334.135 -1.09859 -1.61835 0
M  V30 3500 O 335.341 -1.40606 -2.32255 0
M  V30 3501 C 333.797 -3.50633 -0.811442 0
M  V30 3502 C 333.405 -4.46582 0.35615 0
M  V30 3503 C 335.149 -4.00282 -1.41332 0
M  V30 3504 C 333.056 -5.91379 -0.0497852 0
M  V30 3505 H 331.986 -0.736086 -0.163381 0
M  V30 3506 H 334.637 -1.8099 0.302456 0
M  V30 3507 H 333.019 -3.62319 -1.59815 0
M  V30 3508 H 334.193 -4.46636 1.1337 0
M  V30 3509 H 332.508 -4.07202 0.870396 0
M  V30 3510 H 335.105 -5.0595 -1.72972 0
M  V30 3511 H 335.448 -3.45359 -2.32449 0
M  V30 3512 H 335.981 -3.91764 -0.690323 0
M  V30 3513 H 332.72 -6.50255 0.827529 0
M  V30 3514 H 332.24 -5.94549 -0.791926 0
M  V30 3515 H 333.919 -6.45209 -0.481042 0
M  V30 3516 N 334.051 0.0651679 -1.57465 0
M  V30 3517 C 335.462 0.616213 -1.76238 0
M  V30 3518 C 335.813 1.7756 -0.834689 0
M  V30 3519 O 334.938 2.1639 -0.0204156 0
M  V30 3520 C 335.533 1.12462 -3.1959 0
M  V30 3521 C 334.092 1.62147 -3.39684 0
M  V30 3522 C 333.239 0.543739 -2.71917 0
M  V30 3523 H 336.19 -0.161022 -1.57881 0
M  V30 3524 H 336.211 1.99324 -3.24114 0
M  V30 3525 H 335.723 0.280592 -3.87084 0
M  V30 3526 H 333.824 2.48854 -2.77313 0
M  V30 3527 H 333.937 1.69385 -4.48158 0
M  V30 3528 H 332.301 0.990352 -2.34657 0
M  V30 3529 H 333.084 -0.290216 -3.42071 0
M  V30 3530 N 335.529 1.53961 0.336706 0
M  V30 3531 C 336.477 1.83136 1.43401 0
M  V30 3532 C 337.471 0.702313 1.54156 0
M  V30 3533 O 338.677 0.885765 1.56698 0
M  V30 3534 H 335.052 0.580309 0.478273 0
M  V30 3535 H 337.023 2.74925 1.16012 0
M  V30 3536 C 335.772 2.06385 2.79822 0
M  V30 3537 H 335.095 2.92718 2.72316 0
M  V30 3538 H 336.535 2.30761 3.55704 0
M  V30 3539 C 334.994 0.851414 3.25964 0
M  V30 3540 O 335.524 0.0541904 4.01663 0
M  V30 3541 N 333.73 0.66672 2.82848 0
M  V30 3542 H 333.277 1.31665 2.21409 0
M  V30 3543 H 333.235 -0.143032 3.14074 0
M  V30 3544 N 337.007 -0.598083 1.45811 0
M  V30 3545 C 337.97 -1.69018 1.54808 0
M  V30 3546 C 338.97 -1.55037 0.426652 0
M  V30 3547 O 340.16 -1.59932 0.690456 0
M  V30 3548 C 337.292 -3.0835 1.45371 0
M  V30 3549 H 338.485 -1.62403 2.52121 0
M  V30 3550 H 336.038 -0.814626 1.33392 0
M  V30 3551 H 336.773 -3.20534 0.492793 0
M  V30 3552 H 336.558 -3.19907 2.26721 0
M  V30 3553 H 338.048 -3.8788 1.54721 0
M  V30 3554 N 338.485 -1.33259 -0.841409 0
M  V30 3555 C 339.395 -1.25332 -1.98316 0
M  V30 3556 C 340.411 -0.164364 -1.73222 0
M  V30 3557 O 341.587 -0.387486 -1.97637 0
M  V30 3558 C 338.652 -0.990078 -3.32262 0
M  V30 3559 C 337.713 -2.16879 -3.70489 0
M  V30 3560 C 336.946 -1.91801 -4.98044 0
M  V30 3561 O 337.169 -0.867075 -5.63771 0
M  V30 3562 O 336.103 -2.78267 -5.33714 0
M  V30 3563 H 339.929 -2.21344 -2.07944 0
M  V30 3564 H 337.514 -1.1328 -0.974058 0
M  V30 3565 H 339.396 -0.860321 -4.12524 0
M  V30 3566 H 338.071 -0.0602155 -3.23644 0
M  V30 3567 H 336.978 -2.35407 -2.90748 0
M  V30 3568 H 338.311 -3.0819 -3.8377 0
M  V30 3569 N 339.963 1.05934 -1.16686 0
M  V30 3570 C 340.873 2.17014 -0.891183 0
M  V30 3571 C 341.889 1.73453 0.137907 0
M  V30 3572 O 343.065 2.01361 -0.039592 0
M  V30 3573 C 340.13 3.44384 -0.400099 0
M  V30 3574 C 339.191 4.02433 -1.49486 0
M  V30 3575 C 338.424 5.23723 -1.02711 0
M  V30 3576 O 338.647 5.7027 0.121716 0
M  V30 3577 O 337.581 5.7382 -1.81699 0
M  V30 3578 H 341.407 2.43113 -1.82015 0
M  V30 3579 H 338.992 1.15541 -0.947132 0
M  V30 3580 H 340.874 4.21189 -0.133392 0
M  V30 3581 H 339.549 3.19802 0.500817 0
M  V30 3582 H 338.456 3.27102 -1.81535 0
M  V30 3583 H 339.789 4.31317 -2.37121 0
M  V30 3584 N 341.441 0.965919 1.2453 0
M  V30 3585 C 342.687 0.62776 1.92839 0
M  V30 3586 C 343.02 -0.834694 1.75347 0
M  V30 3587 O 342.295 -1.60031 1.10546 0
M  V30 3588 C 342.578 1.00109 3.45905 0
M  V30 3589 C 342.431 2.52011 3.72573 0
M  V30 3590 C 343.75 0.53435 4.36844 0
M  V30 3591 H 340.869 0.229537 0.700344 0
M  V30 3592 H 343.511 1.2046 1.46933 0
M  V30 3593 H 341.661 0.510238 3.85135 0
M  V30 3594 H 343.333 3.08559 3.42912 0
M  V30 3595 H 341.576 2.95287 3.17786 0
M  V30 3596 H 342.247 2.73183 4.79661 0
M  V30 3597 H 344.723 0.955565 4.04979 0
M  V30 3598 H 343.599 0.824152 5.42678 0
M  V30 3599 H 343.86 -0.565589 4.38467 0
M  V30 3600 N 342.919 -1.39368 0.735821 0
M  V30 3601 C 344.196 -1.94465 0.210395 0
M  V30 3602 C 344.576 -1.67254 -1.28799 0
M  V30 3603 O 343.924 -1.00123 -2.05396 0
M  V30 3604 C 344.134 -3.4472 0.544897 0
M  V30 3605 C 345.482 -4.21708 0.494689 0
M  V30 3606 O 346.506 -3.52922 0.482136 0
M  V30 3607 O 345.365 -5.44299 0.489947 0
M  V30 3608 H 342.459 -0.826096 0.0386666 0
M  V30 3609 H 345.005 -1.48863 0.814735 0
M  V30 3610 H 343.777 -3.57963 1.58045 0
M  V30 3611 H 343.4 -3.97502 -0.08837 0
M  V30 3612 N 344.397 -0.483516 -1.5 0
M  V30 3613 C 345.643 0.0672592 -2.02688 0
M  V30 3614 C 345.976 1.38247 -1.36387 0
M  V30 3615 O 345.251 1.88131 -0.493675 0
M  V30 3616 C 345.534 0.238109 -3.59312 0
M  V30 3617 C 345.387 -1.099 -4.36168 0
M  V30 3618 C 346.706 0.986916 -4.28892 0
M  V30 3619 H 343.825 0.0229696 -0.736642 0
M  V30 3620 H 346.467 -0.631527 -1.79197 0
M  V30 3621 H 344.617 0.8333 -3.79458 0
M  V30 3622 H 346.289 -1.73172 -4.27562 0
M  V30 3623 H 344.532 -1.69261 -3.99416 0
M  V30 3624 H 345.203 -0.932954 -5.44059 0
M  V30 3625 H 347.679 0.482302 -4.13295 0
M  V30 3626 H 346.555 1.07527 -5.38265 0
M  V30 3627 H 346.816 2.0265 -3.92919 0
M  V30 3628 N 345.875 1.56104 -0.216619 0
M  V30 3629 C 347.286 1.844 0.292128 0
M  V30 3630 C 347.637 1.13788 1.59833 0
M  V30 3631 O 346.762 0.405888 2.12559 0
M  V30 3632 C 347.357 3.3452 0.53681 0
M  V30 3633 C 345.916 3.63151 0.989876 0
M  V30 3634 C 345.063 2.77255 0.0502302 0
M  V30 3635 H 348.014 1.52481 -0.439926 0
M  V30 3636 H 348.035 3.54459 1.38345 0
M  V30 3637 H 347.547 3.85885 -0.414031 0
M  V30 3638 H 345.648 3.17238 1.95425 0
M  V30 3639 H 345.761 4.71177 0.867698 0
M  V30 3640 H 344.125 2.48555 0.556117 0
M  V30 3641 H 344.908 3.31416 -0.89544 0
M  V30 3642 N 347.353 -0.0568162 1.57498 0
M  V30 3643 C 348.602 -0.752001 1.87157 0
M  V30 3644 C 348.915 -1.77978 0.811375 0
M  V30 3645 O 350.121 -2.52559 0.996293 0
M  V30 3646 C 348.577 -1.38844 3.3204 0
M  V30 3647 C 348.185 -0.398456 4.46225 0
M  V30 3648 C 349.929 -2.06512 3.70882 0
M  V30 3649 C 347.836 -1.04166 5.82154 0
M  V30 3650 H 346.766 -0.28461 0.698222 0
M  V30 3651 H 349.417 -0.00561272 1.83499 0
M  V30 3652 H 347.799 -2.1836 3.30356 0
M  V30 3653 H 348.973 0.367977 4.59328 0
M  V30 3654 H 347.288 0.174592 4.16034 0
M  V30 3655 H 349.885 -2.55437 4.6974 0
M  V30 3656 H 350.228 -2.87117 3.01445 0
M  V30 3657 H 350.761 -1.33808 3.7462 0
M  V30 3658 H 347.5 -0.275614 6.5492 0
M  V30 3659 H 347.02 -1.7786 5.72823 0
M  V30 3660 H 348.699 -1.55715 6.27982 0
M  V30 3661 N 348.832 -1.54138 -0.328536 0
M  V30 3662 C 349.779 -1.83176 -1.40411 0
M  V30 3663 C 350.749 -0.678494 -1.5161 0
M  V30 3664 O 351.934 -0.92443 -1.6691 0
M  V30 3665 C 349.074 -2.06035 -2.76846 0
M  V30 3666 C 348.187 -3.33727 -2.74318 0
M  V30 3667 C 347.322 -3.46574 -4.02567 0
M  V30 3668 C 346.361 -4.68159 -3.94327 0
M  V30 3669 N 345.498 -4.77959 -5.14296 0
M  V30 3670 H 350.338 -2.74938 -1.14948 0
M  V30 3671 H 347.875 -1.36166 -0.556538 0
M  V30 3672 H 349.833 -2.1728 -3.56153 0
M  V30 3673 H 348.463 -1.1757 -3.00628 0
M  V30 3674 H 347.515 -3.31246 -1.8703 0
M  V30 3675 H 348.827 -4.23139 -2.64111 0
M  V30 3676 H 347.981 -3.57333 -4.90304 0
M  V30 3677 H 346.72 -2.55245 -4.15574 0
M  V30 3678 H 345.725 -4.57461 -3.04974 0
M  V30 3679 H 346.95 -5.60868 -3.82889 0
M  V30 3680 H 344.896 -3.89544 -5.27818 0
M  V30 3681 H 344.813 -5.6133 -5.06404 0
M  V30 3682 H 346.081 -4.93044 -6.03761 0
M  V30 3683 N 350.31 0.590341 -1.46126 0
M  V30 3684 C 351.24 1.71032 -1.58966 0
M  V30 3685 C 352.221 1.64302 -0.440335 0
M  V30 3686 O 353.406 1.82436 -0.665634 0
M  V30 3687 C 350.536 3.09665 -1.57241 0
M  V30 3688 C 349.49 3.31221 -2.71066 0
M  V30 3689 C 348.816 4.70303 -2.54399 0
M  V30 3690 C 350.116 3.19796 -4.1295 0
M  V30 3691 H 351.81 1.60543 -2.52718 0
M  V30 3692 H 349.356 0.770933 -1.21625 0
M  V30 3693 H 351.309 3.87831 -1.64819 0
M  V30 3694 H 350.033 3.21036 -0.600289 0
M  V30 3695 H 348.692 2.55452 -2.62944 0
M  V30 3696 H 348.34 4.78429 -1.55288 0
M  V30 3697 H 348.04 4.85679 -3.30741 0
M  V30 3698 H 349.564 5.50647 -2.63857 0
M  V30 3699 H 350.978 3.87815 -4.22223 0
M  V30 3700 H 349.375 3.46696 -4.89818 0
M  V30 3701 H 350.445 2.16983 -4.33643 0
M  V30 3702 N 351.788 1.33704 0.83433 0
M  V30 3703 C 353.018 1.28281 1.6195 0
M  V30 3704 C 353.426 -0.147603 1.88623 0
M  V30 3705 O 352.769 -1.1016 1.47005 0
M  V30 3706 C 352.831 1.99386 2.99141 0
M  V30 3707 C 352.495 3.48681 2.95416 0
M  V30 3708 C 353.492 4.438 2.70809 0
M  V30 3709 C 351.177 3.90925 3.15409 0
M  V30 3710 C 353.171 5.79138 2.66229 0
M  V30 3711 C 350.858 5.26366 3.10454 0
M  V30 3712 C 351.856 6.20284 2.85895 0
M  V30 3713 O 351.544 7.53245 2.80852 0
M  V30 3714 H 351.276 0.44315 0.510484 0
M  V30 3715 H 353.83 1.76711 1.04702 0
M  V30 3716 H 352.06 1.45554 3.58261 0
M  V30 3717 H 353.749 1.87403 3.60049 0
M  V30 3718 H 354.515 4.12485 2.5511 0
M  V30 3719 H 350.394 3.18229 3.33543 0
M  V30 3720 H 353.938 6.52416 2.4698 0
M  V30 3721 H 349.835 5.57304 3.25703 0
M  V30 3722 H 350.603 7.62846 2.96661 0
M  V30 3723 N 353.266 -1.05314 1.17247 0
M  V30 3724 C 354.506 -1.79869 0.970898 0
M  V30 3725 C 354.87 -1.85594 -0.491808 0
M  V30 3726 O 356.071 -2.56229 -0.812409 0
M  V30 3727 C 354.342 -3.19937 1.59295 0
M  V30 3728 S 355.901 -4.10986 1.53741 0
M  V30 3729 H 352.719 -0.61949 0.348931 0
M  V30 3730 H 355.321 -1.26368 1.49169 0
M  V30 3731 H 354.025 -3.13372 2.65003 0
M  V30 3732 H 353.556 -3.78515 1.07191 0
M  V30 3733 H 355.571 -4.93203 0.544537 0
M  V30 3734 N 354.744 -0.972509 -1.24016 0
M  V30 3735 C 355.692 -0.498562 -2.27194 0
M  V30 3736 C 356.686 0.440372 -1.63576 0
M  V30 3737 O 357.892 0.315133 -1.7722 0
M  V30 3738 H 354.267 -0.142775 -0.738322 0
M  V30 3739 H 356.238 -1.38065 -2.64539 0
M  V30 3740 C 354.987 0.191072 -3.47175 0
M  V30 3741 H 354.31 -0.522318 -3.96373 0
M  V30 3742 H 355.75 0.486445 -4.212 0
M  V30 3743 C 354.209 1.41967 -3.05527 0
M  V30 3744 O 354.739 2.51642 -3.13112 0
M  V30 3745 N 352.945 1.28746 -2.60524 0
M  V30 3746 H 352.492 0.395089 -2.54552 0
M  V30 3747 H 352.45 2.11061 -2.33025 0
M  V30 3748 N 356.222 1.38976 -0.743202 0
M  V30 3749 C 357.47 1.99948 -0.29417 0
M  V30 3750 C 357.791 1.59279 1.12495 0
M  V30 3751 O 357.061 0.844808 1.76748 0
M  V30 3752 H 355.641 0.739473 -0.105774 0
M  V30 3753 H 358.303 1.699 -0.954986 0
M  V30 3754 H 357.399 3.10142 -0.349056 0
M  V30 3755 N 357.7 0.491464 1.49741 0
M  V30 3756 C 358.977 -0.118984 1.95238 0
M  V30 3757 C 359.357 -1.55044 1.43264 0
M  V30 3758 O 358.705 -2.19287 0.642287 0
M  V30 3759 C 358.915 -0.0414187 3.48975 0
M  V30 3760 C 360.263 -0.220133 4.24029 0
M  V30 3761 O 361.287 -0.117055 3.56008 0
M  V30 3762 O 360.146 -0.430567 5.44801 0
M  V30 3763 H 357.24 -0.100536 0.820866 0
M  V30 3764 H 359.786 0.553322 1.60426 0
M  V30 3765 H 358.558 0.957214 3.79412 0
M  V30 3766 H 358.181 -0.754292 3.9038 0
M  V30 3767 N 359.178 -1.55987 0.224894 0
M  V30 3768 C 360.426 -1.97998 -0.405099 0
M  V30 3769 C 360.747 -1.11387 -1.60056 0
M  V30 3770 O 360.017 -0.191645 -1.9496 0
M  V30 3771 H 358.597 -0.731235 -0.152658 0
M  V30 3772 H 361.259 -1.92279 0.318567 0
M  V30 3773 H 360.355 -3.03463 -0.729167 0
M  V30 3774 N 360.656 0.0484629 -1.57525 0
M  V30 3775 C 361.566 1.07241 -2.08654 0
M  V30 3776 C 362.582 1.409 -1.02095 0
M  V30 3777 O 363.758 1.50609 -1.33712 0
M  V30 3778 C 360.823 2.36008 -2.5397 0
M  V30 3779 C 359.884 2.09108 -3.7493 0
M  V30 3780 C 359.117 3.31736 -4.18075 0
M  V30 3781 O 359.34 4.41714 -3.60895 0
M  V30 3782 O 358.274 3.18576 -5.10679 0
M  V30 3783 H 362.1 0.667965 -2.96263 0
M  V30 3784 H 359.685 0.26417 -1.47046 0
M  V30 3785 H 361.567 3.11747 -2.83535 0
M  V30 3786 H 360.242 2.75786 -1.69481 0
M  V30 3787 H 359.149 1.31 -3.50414 0
M  V30 3788 H 360.482 1.74198 -4.60343 0
M  V30 3789 N 362.134 1.5431 0.320358 0
M  V30 3790 C 363.38 1.73859 1.05568 0
M  V30 3791 C 363.735 0.507807 1.85578 0
M  V30 3792 O 363.028 -0.499789 1.84967 0
M  V30 3793 C 363.222 2.95639 2.00828 0
M  V30 3794 C 363.051 4.30444 1.30186 0
M  V30 3795 C 361.821 4.94544 1.03703 0
M  V30 3796 C 364.019 5.0929 0.716138 0
M  V30 3797 N 362.001 6.13172 0.298846 0
M  V30 3798 C 363.372 6.19903 0.109729 0
M  V30 3799 C 365.427 4.94034 0.619269 0
M  V30 3800 C 364.13 7.16924 -0.584153 0
M  V30 3801 C 366.156 5.91369 -0.0609184 0
M  V30 3802 C 365.518 7.01336 -0.656258 0
M  V30 3803 H 361.617 0.688988 0.36989 0
M  V30 3804 H 364.201 1.9177 0.336494 0
M  V30 3805 H 362.372 2.79188 2.70016 0
M  V30 3806 H 364.104 3.03802 2.6737 0
M  V30 3807 H 360.859 4.54536 1.33019 0
M  V30 3808 H 361.283 6.76977 -0.0561964 0
M  V30 3809 H 365.925 4.0916 1.06526 0
M  V30 3810 H 363.643 8.01354 -1.04197 0
M  V30 3811 H 367.229 5.81642 -0.135552 0
M  V30 3812 H 366.109 7.75359 -1.17423 0
M  V30 3813 N 363.613 -0.582584 1.46437 0
M  V30 3814 C 364.546 -1.70633 1.51524 0
M  V30 3815 C 365.524 -1.58349 0.369351 0
M  V30 3816 O 366.708 -1.79563 0.573516 0
M  V30 3817 C 363.835 -3.08687 1.39392 0
M  V30 3818 C 362.881 -3.3949 2.58164 0
M  V30 3819 S 363.714 -3.31548 4.20519 0
M  V30 3820 C 364.87 -4.72139 4.10896 0
M  V30 3821 H 365.103 -1.66058 2.46601 0
M  V30 3822 H 362.636 -0.761337 1.34324 0
M  V30 3823 H 364.594 -3.8833 1.33079 0
M  V30 3824 H 363.255 -3.10751 0.457436 0
M  V30 3825 H 362.448 -4.40071 2.45669 0
M  V30 3826 H 362.05 -2.67415 2.61468 0
M  V30 3827 H 364.342 -5.62527 3.77584 0
M  V30 3828 H 365.285 -4.89692 5.11476 0
M  V30 3829 H 365.693 -4.48995 3.42146 0
M  V30 3830 N 365.091 -1.34144 -0.827227 0
M  V30 3831 C 366.337 -1.26446 -1.58554 0
M  V30 3832 C 366.67 0.1664 -1.93486 0
M  V30 3833 O 365.945 1.1107 -1.59667 0
M  V30 3834 C 366.228 -2.15111 -2.8879 0
M  V30 3835 C 366.081 -3.66712 -2.60465 0
M  V30 3836 C 367.4 -2.03311 -3.90324 0
M  V30 3837 H 364.519 -0.46067 -0.575284 0
M  V30 3838 H 367.161 -1.64356 -0.953269 0
M  V30 3839 H 365.311 -1.8291 -3.42748 0
M  V30 3840 H 366.983 -4.09259 -2.1285 0
M  V30 3841 H 365.226 -3.88014 -1.93978 0
M  V30 3842 H 365.897 -4.24112 -3.53317 0
M  V30 3843 H 368.373 -2.31574 -3.45706 0
M  V30 3844 H 367.249 -2.67582 -4.79261 0
M  V30 3845 H 367.51 -1.00879 -4.30437 0
M  V30 3846 N 366.569 1.04691 -1.17803 0
M  V30 3847 C 367.98 1.59238 -0.974689 0
M  V30 3848 C 368.331 1.90306 0.477292 0
M  V30 3849 O 367.456 1.68846 1.35352 0
M  V30 3850 C 368.051 2.89318 -1.76296 0
M  V30 3851 C 366.61 3.40506 -1.60414 0
M  V30 3852 C 365.757 2.14172 -1.76141 0
M  V30 3853 H 368.708 0.874395 -1.32439 0
M  V30 3854 H 368.729 3.5944 -1.24833 0
M  V30 3855 H 368.241 2.66675 -2.81968 0
M  V30 3856 H 366.342 3.68175 -0.572519 0
M  V30 3857 H 366.455 4.14753 -2.39827 0
M  V30 3858 H 364.819 2.25176 -1.19028 0
M  V30 3859 H 365.602 1.93992 -2.83235 0
M  V30 3860 N 368.047 0.979072 1.23499 0
M  V30 3861 C 369.296 0.642751 1.91185 0
M  V30 3862 C 369.609 -0.827253 1.77245 0
M  V30 3863 O 370.815 -1.27458 2.39722 0
M  V30 3864 C 369.271 1.09901 3.42709 0
M  V30 3865 C 368.879 2.59327 3.65313 0
M  V30 3866 C 370.623 0.836371 4.16179 0
M  V30 3867 C 368.53 2.98627 5.10467 0
M  V30 3868 H 367.46 0.236698 0.715884 0
M  V30 3869 H 370.111 1.1868 1.39955 0
M  V30 3870 H 368.493 0.48319 3.93041 0
M  V30 3871 H 369.667 3.26136 3.25533 0
M  V30 3872 H 367.982 2.83323 3.05151 0
M  V30 3873 H 370.579 1.10586 5.23139 0
M  V30 3874 H 370.922 -0.227509 4.15678 0
M  V30 3875 H 371.455 1.41371 3.71832 0
M  V30 3876 H 368.194 4.04133 5.16098 0
M  V30 3877 H 367.714 2.3651 5.51201 0
M  V30 3878 H 369.393 2.89159 5.78788 0
M  V30 3879 N 369.525 -1.3858 0.750561 0
M  V30 3880 C 370.773 -1.99789 0.30477 0
M  V30 3881 C 371.094 -1.59874 -1.11649 0
M  V30 3882 O 370.364 -0.85417 -1.76297 0
M  V30 3883 H 368.944 -0.738902 0.109694 0
M  V30 3884 H 371.606 -1.69391 0.963983 0
M  V30 3885 H 370.702 -3.09952 0.365499 0
M  V30 3886 N 371.003 -0.499398 -1.49478 0
M  V30 3887 C 372.419 -0.155261 -1.58843 0
M  V30 3888 C 372.619 1.34008 -1.50479 0
M  V30 3889 O 371.675 2.11589 -1.37791 0
M  V30 3890 C 372.988 -0.730636 -2.91689 0
M  V30 3891 C 374.536 -0.696599 -3.0515 0
M  V30 3892 C 375.011 -1.25001 -4.40612 0
M  V30 3893 N 376.502 -1.21064 -4.47099 0
M  V30 3894 C 377.237 -1.60905 -5.50361 0
M  V30 3895 N 376.733 -2.08331 -6.60735 0
M  V30 3896 N 378.526 -1.52331 -5.41065 0
M  V30 3897 H 370.677 -1.47162 -1.53158 0
M  V30 3898 H 372.94 -0.610309 -0.725415 0
M  V30 3899 H 372.646 -1.77928 -3.03372 0
M  V30 3900 H 372.52 -0.190161 -3.7672 0
M  V30 3901 H 374.907 0.343204 -2.93097 0
M  V30 3902 H 374.988 -1.2742 -2.21806 0
M  V30 3903 H 374.632 -2.28859 -4.53416 0
M  V30 3904 H 374.562 -0.64836 -5.22593 0
M  V30 3905 H 377.053 -0.863128 -3.67911 0
M  V30 3906 H 377.366 -2.36805 -7.35624 0
M  V30 3907 H 375.711 -2.12304 -6.6178 0
M  V30 3908 H 378.902 -1.151 -4.53729 0
M  V30 3909 H 379.075 -1.83704 -6.21415 0
M  V30 3910 N 372.481 1.55866 -0.233164 0
M  V30 3911 C 373.721 2.00506 0.397078 0
M  V30 3912 C 374.085 1.1176 1.56121 0
M  V30 3913 O 375.286 1.45796 2.25825 0
M  V30 3914 C 373.557 3.4811 0.809601 0
M  V30 3915 S 375.116 4.14765 1.43231 0
M  V30 3916 H 371.934 0.699828 0.125547 0
M  V30 3917 H 374.536 1.92429 -0.345177 0
M  V30 3918 H 373.24 4.10373 -0.0471601 0
M  V30 3919 H 372.771 3.60085 1.58438 0
M  V30 3920 H 374.786 4.14914 2.7214 0
M  V30 3921 N 373.959 -0.0401083 1.57549 0
M  V30 3922 C 375.187 -0.745196 1.93014 0
M  V30 3923 C 375.602 -1.6948 0.831984 0
M  V30 3924 O 374.959 -1.81482 -0.192463 0
M  V30 3925 C 375.01 -1.51176 3.28372 0
M  V30 3926 O 374.731 -0.600284 4.33968 0
M  V30 3927 C 376.232 -2.315 3.78051 0
M  V30 3928 H 373.452 -0.210088 0.637263 0
M  V30 3929 H 375.996 -0.000924689 2.045 0
M  V30 3930 H 374.151 -2.20801 3.18317 0
M  V30 3931 H 374.565 -1.13669 5.12035 0
M  V30 3932 H 376.039 -2.80697 4.75303 0
M  V30 3933 H 376.516 -3.12436 3.08675 0
M  V30 3934 H 377.122 -1.66971 3.91153 0
M  V30 3935 N 375.437 -1.54477 -0.31217 0
M  V30 3936 C 376.677 -1.74958 -1.05684 0
M  V30 3937 C 377.041 -0.518414 -1.84869 0
M  V30 3938 O 378.242 -0.600759 -2.62001 0
M  V30 3939 C 376.513 -2.99656 -1.94785 0
M  V30 3940 S 378.072 -3.4109 -2.76049 0
M  V30 3941 H 374.89 -0.615104 -0.356606 0
M  V30 3942 H 377.492 -1.92669 -0.331514 0
M  V30 3943 H 376.196 -3.87397 -1.35468 0
M  V30 3944 H 375.727 -2.845 -2.71704 0
M  V30 3945 H 377.742 -2.97283 -3.97287 0
M  V30 3946 N 376.915 0.57481 -1.46744 0
M  V30 3947 C 377.862 1.68329 -1.57905 0
M  V30 3948 C 378.832 1.60625 -0.422927 0
M  V30 3949 O 380.017 1.79721 -0.640711 0
M  V30 3950 C 377.157 3.06665 -1.58274 0
M  V30 3951 C 376.27 3.24935 -2.84678 0
M  V30 3952 C 375.405 4.53566 -2.76499 0
M  V30 3953 C 374.444 4.65207 -3.97806 0
M  V30 3954 N 373.581 5.85172 -3.87967 0
M  V30 3955 H 378.421 1.58127 -2.52587 0
M  V30 3956 H 375.958 0.770552 -1.25303 0
M  V30 3957 H 377.916 3.86745 -1.56473 0
M  V30 3958 H 376.546 3.15745 -0.671194 0
M  V30 3959 H 375.598 2.38405 -2.96424 0
M  V30 3960 H 376.91 3.29403 -3.7456 0
M  V30 3961 H 376.064 5.41885 -2.72848 0
M  V30 3962 H 374.803 4.51548 -1.8427 0
M  V30 3963 H 373.808 3.75304 -4.0178 0
M  V30 3964 H 375.033 4.68997 -4.9114 0
M  V30 3965 H 372.979 5.84137 -2.98529 0
M  V30 3966 H 372.896 5.90943 -4.71511 0
M  V30 3967 H 374.164 6.759 -3.88303 0
M  V30 3968 N 378.394 1.34581 0.820102 0
M  V30 3969 C 379.805 1.24298 1.39309 0
M  V30 3970 C 380.156 -0.130351 1.95767 0
M  V30 3971 O 379.281 -1.0308 1.90272 0
M  V30 3972 C 379.876 2.25054 2.53251 0
M  V30 3973 C 378.435 2.18552 3.0645 0
M  V30 3974 C 377.582 2.11503 1.79337 0
M  V30 3975 H 380.533 1.45906 0.624262 0
M  V30 3976 H 380.554 1.86917 3.31425 0
M  V30 3977 H 380.066 3.24996 2.1213 0
M  V30 3978 H 378.167 1.21976 3.52069 0
M  V30 3979 H 378.28 3.0993 3.65349 0
M  V30 3980 H 376.644 1.57268 2.00347 0
M  V30 3981 H 377.427 3.13284 1.40386 0
M  V30 3982 N 379.872 -1.04064 1.18357 0
M  V30 3983 C 381.12 -1.76915 0.977013 0
M  V30 3984 C 381.441 -1.88624 -0.494577 0
M  V30 3985 O 380.711 -1.41125 -1.3587 0
M  V30 3986 H 379.291 -0.65535 0.358504 0
M  V30 3987 H 381.953 -1.25592 1.49039 0
M  V30 3988 H 381.049 -2.78178 1.41504 0
M  V30 3989 N 381.35 -0.985608 -1.22978 0
M  V30 3990 C 382.58 -0.674603 -1.95276 0
M  V30 3991 C 382.988 0.763483 -1.73111 0
M  V30 3992 O 382.331 1.52601 -1.02268 0
M  V30 3993 C 382.393 -0.891597 -3.48268 0
M  V30 3994 C 382.057 -2.31275 -3.94158 0
M  V30 3995 C 383.054 -3.29179 -4.02415 0
M  V30 3996 C 380.739 -2.64524 -4.27004 0
M  V30 3997 C 382.733 -4.58407 -4.42879 0
M  V30 3998 C 380.42 -3.93974 -4.67149 0
M  V30 3999 C 381.418 -4.90727 -4.75053 0
M  V30 4000 O 381.106 -6.17865 -5.14294 0
M  V30 4001 H 380.838 -0.249251 -0.628371 0
M  V30 4002 H 383.392 -1.32106 -1.5728 0
M  V30 4003 H 381.622 -0.187962 -3.86243 0
M  V30 4004 H 383.311 -0.576957 -4.01779 0
M  V30 4005 H 384.077 -3.04823 -3.77237 0
M  V30 4006 H 379.956 -1.89923 -4.2006 0
M  V30 4007 H 383.5 -5.33926 -4.48964 0
M  V30 4008 H 379.397 -4.18122 -4.91777 0
M  V30 4009 H 380.165 -6.21694 -5.32389 0
M  V30 4010 N 382.828 1.3818 -0.7579 0
M  V30 4011 C 383.738 2.3421 -0.135247 0
M  V30 4012 C 384.754 1.59487 0.695683 0
M  V30 4013 O 385.93 1.91657 0.618832 0
M  V30 4014 C 382.995 3.3862 0.744139 0
M  V30 4015 C 382.056 4.2918 -0.101658 0
M  V30 4016 C 381.289 5.28603 0.735851 0
M  V30 4017 O 381.512 5.35166 1.97366 0
M  V30 4018 O 380.446 6.01707 0.152372 0
M  V30 4019 H 384.272 2.8916 -0.928436 0
M  V30 4020 H 381.857 1.40101 -0.518855 0
M  V30 4021 H 383.739 4.02539 1.2466 0
M  V30 4022 H 382.414 2.86019 1.51575 0
M  V30 4023 H 381.321 3.68407 -0.650167 0
M  V30 4024 H 382.654 4.85048 -0.836024 0
M  V30 4025 N 384.306 0.507319 1.49211 0
M  V30 4026 C 385.717 0.0611118 1.866 0
M  V30 4027 C 386.068 -1.35488 1.41907 0
M  V30 4028 O 385.193 -2.0108 0.799726 0
M  V30 4029 C 385.788 0.104125 3.3864 0
M  V30 4030 C 384.347 -0.28677 3.75306 0
M  V30 4031 C 383.494 0.473893 2.73221 0
M  V30 4032 H 386.445 0.719775 1.41439 0
M  V30 4033 H 386.466 -0.689672 3.74198 0
M  V30 4034 H 385.978 1.13482 3.71138 0
M  V30 4035 H 384.079 -1.32046 3.48417 0
M  V30 4036 H 384.192 0.0370745 4.79086 0
M  V30 4037 H 382.556 -0.0770644 2.54583 0
M  V30 4038 H 383.339 1.50478 3.08563 0
M  V30 4039 N 385.784 -1.5574 0.241426 0
M  V30 4040 C 386.694 -2.2479 -0.671305 0
M  V30 4041 C 387.71 -1.26217 -1.19772 0
M  V30 4042 O 388.886 -1.59079 -1.23514 0
M  V30 4043 C 385.951 -2.92966 -1.85396 0
M  V30 4044 C 385.012 -4.06935 -1.36756 0
M  V30 4045 C 384.245 -4.71851 -2.49384 0
M  V30 4046 O 384.468 -4.35823 -3.67987 0
M  V30 4047 O 383.402 -5.60467 -2.19454 0
M  V30 4048 H 387.228 -3.0349 -0.112966 0
M  V30 4049 H 384.813 -1.49397 0.0101513 0
M  V30 4050 H 386.695 -3.35927 -2.54423 0
M  V30 4051 H 385.37 -2.17211 -2.40002 0
M  V30 4052 H 384.277 -3.68503 -0.644726 0
M  V30 4053 H 385.61 -4.84492 -0.867647 0
M  V30 4054 N 387.262 0.0317525 -1.57568 0
M  V30 4055 C 388.21 1.05165 -2.07468 0
M  V30 4056 C 389.204 1.3761 -0.98792 0
M  V30 4057 O 390.41 1.36546 -1.17282 0
M  V30 4058 H 386.785 0.35666 -0.66204 0
M  V30 4059 H 388.756 0.604958 -2.92203 0
M  V30 4060 C 387.505 2.34488 -2.56731 0
M  V30 4061 H 386.828 2.10383 -3.39969 0
M  V30 4062 H 388.268 3.04203 -2.95358 0
M  V30 4063 C 386.727 3.03266 -1.46736 0
M  V30 4064 O 387.257 3.92988 -0.832069 0
M  V30 4065 N 385.463 2.6455 -1.20256 0
M  V30 4066 H 385.01 1.91674 -1.72102 0
M  V30 4067 H 384.968 3.10886 -0.468737 0
M  V30 4068 N 388.74 1.54641 0.303973 0
M  V30 4069 C 389.965 1.78092 1.06292 0
M  V30 4070 C 390.39 0.537342 1.80262 0
M  V30 4071 O 389.748 -0.511993 1.7392 0
M  V30 4072 C 389.796 2.98612 2.02147 0
M  V30 4073 O 388.9 2.71528 3.10397 0
M  V30 4074 H 388.241 0.589548 0.305497 0
M  V30 4075 H 390.771 2.01716 0.3423 0
M  V30 4076 H 390.781 3.265 2.44667 0
M  V30 4077 H 389.456 3.88785 1.47714 0
M  V30 4078 H 388.033 2.54648 2.72413 0
M  V30 4079 N 390.218 -0.567019 1.47046 0
M  V30 4080 C 391.464 -1.32658 1.53394 0
M  V30 4081 C 391.797 -1.93254 0.19148 0
M  V30 4082 O 391.072 -1.77338 -0.798844 0
M  V30 4083 C 391.355 -2.44412 2.64452 0
M  V30 4084 C 391.208 -1.88749 4.08282 0
M  V30 4085 C 392.527 -3.46387 2.71485 0
M  V30 4086 H 389.646 -0.48098 0.558415 0
M  V30 4087 H 392.288 -0.635481 1.79058 0
M  V30 4088 H 390.438 -3.03363 2.427 0
M  V30 4089 H 392.11 -1.34134 4.41368 0
M  V30 4090 H 390.353 -1.19481 4.17021 0
M  V30 4091 H 391.024 -2.69491 4.81745 0
M  V30 4092 H 393.5 -2.9734 2.91081 0
M  V30 4093 H 392.376 -4.2202 3.50985 0
M  V30 4094 H 392.637 -4.04616 1.78153 0
M  V30 4095 N 391.696 -1.35014 -0.812953 0
M  V30 4096 C 392.659 -1.27292 -1.90602 0
M  V30 4097 C 393.659 -0.185817 -1.59723 0
M  V30 4098 O 394.849 -0.439102 -1.68575 0
M  V30 4099 C 391.981 -0.967676 -3.26877 0
M  V30 4100 H 393.174 -2.24479 -1.9887 0
M  V30 4101 H 390.727 -1.19446 -1.00808 0
M  V30 4102 H 391.462 0.0005954 -3.243 0
M  V30 4103 H 391.247 -1.75412 -3.50675 0
M  V30 4104 H 392.737 -0.939085 -4.06904 0
M  V30 4105 N 393.175 1.03435 -1.18907 0
M  V30 4106 C 394.415 1.78302 -0.999391 0
M  V30 4107 C 394.779 1.86353 0.462219 0
M  V30 4108 O 395.98 2.57489 0.771543 0
M  V30 4109 C 394.251 3.17362 -1.64365 0
M  V30 4110 S 395.81 4.08488 -1.6026 0
M  V30 4111 H 392.628 0.613861 -0.358742 0
M  V30 4112 H 395.23 1.23979 -1.51161 0
M  V30 4113 H 393.934 3.09116 -2.69955 0
M  V30 4114 H 393.465 3.76762 -1.13199 0
M  V30 4115 H 395.48 4.92274 -0.622932 0
M  V30 4116 N 394.653 0.992116 1.22453 0
M  V30 4117 C 395.6 0.541731 2.24352 0
M  V30 4118 C 396.57 -0.425519 1.60557 0
M  V30 4119 O 397.755 -0.330453 1.87917 0
M  V30 4120 C 394.895 -0.138248 3.44823 0
M  V30 4121 C 394.008 0.870649 4.23136 0
M  V30 4122 C 393.143 0.164269 5.30946 0
M  V30 4123 C 392.182 1.16159 6.00977 0
M  V30 4124 N 391.319 0.483568 7.00433 0
M  V30 4125 H 396.159 1.41541 2.62241 0
M  V30 4126 H 393.696 0.709013 1.28885 0
M  V30 4127 H 395.654 -0.5494 4.13567 0
M  V30 4128 H 394.284 -0.975721 3.077 0
M  V30 4129 H 393.336 1.40013 3.53696 0
M  V30 4130 H 394.648 1.63014 4.7141 0
M  V30 4131 H 393.802 -0.303653 6.0594 0
M  V30 4132 H 392.541 -0.627733 4.83643 0
M  V30 4133 H 391.546 1.64015 5.24766 0
M  V30 4134 H 392.771 1.95445 6.50368 0
M  V30 4135 H 390.717 -0.289012 6.55363 0
M  V30 4136 H 390.634 1.18152 7.4671 0
M  V30 4137 H 391.902 0.0384219 7.79491 0
M  V30 4138 N 396.131 -1.37776 0.765217 0
M  V30 4139 C 397.094 -2.28686 0.153416 0
M  V30 4140 C 398.094 -1.47727 -0.635081 0
M  V30 4141 O 399.284 -1.68027 -0.459632 0
M  V30 4142 C 396.416 -3.31608 -0.790495 0
M  V30 4143 H 397.609 -2.84297 0.954723 0
M  V30 4144 H 395.162 -1.46932 0.53299 0
M  V30 4145 H 395.897 -2.81109 -1.61705 0
M  V30 4146 H 395.682 -3.9144 -0.227348 0
M  V30 4147 H 397.172 -3.99559 -1.21419 0
M  V30 4148 N 397.609 -0.515225 -1.4894 0
M  V30 4149 C 398.849 0.0223983 -2.04388 0
M  V30 4150 C 399.213 1.32961 -1.38511 0
M  V30 4151 O 400.414 1.95236 -1.8476 0
M  V30 4152 C 398.685 0.157056 -3.57055 0
M  V30 4153 S 400.244 0.646875 -4.34006 0
M  V30 4154 H 397.062 -0.00500662 -0.710982 0
M  V30 4155 H 399.664 -0.69243 -1.82827 0
M  V30 4156 H 398.368 -0.799412 -4.02539 0
M  V30 4157 H 397.899 0.896704 -3.83044 0
M  V30 4158 H 399.914 1.91381 -4.57808 0
M  V30 4159 N 399.087 1.5561 -0.249682 0
M  V30 4160 C 400.498 1.84979 0.252949 0
M  V30 4161 C 400.849 1.17153 1.57384 0
M  V30 4162 O 399.974 0.450884 2.11651 0
M  V30 4163 C 400.569 3.35584 0.465732 0
M  V30 4164 C 399.128 3.65169 0.912624 0
M  V30 4165 C 398.275 2.77299 -0.00859085 0
M  V30 4166 H 401.226 1.51513 -0.47217 0
M  V30 4167 H 401.247 3.57313 1.30795 0
M  V30 4168 H 400.759 3.8492 -0.49579 0
M  V30 4169 H 398.86 3.21312 1.88652 0
M  V30 4170 H 398.973 4.72912 0.767559 0
M  V30 4171 H 397.337 2.49678 0.50327 0
M  V30 4172 H 398.12 3.29442 -0.965537 0
M  V30 4173 N 400.565 -0.0233959 1.57583 0
M  V30 4174 C 401.528 -1.00693 2.05897 0
M  V30 4175 C 402.528 -1.28693 0.964092 0
M  V30 4176 O 403.718 -1.23602 1.22753 0
M  V30 4177 C 400.85 -2.33825 2.4807 0
M  V30 4178 H 402.043 -0.589476 2.9405 0
M  V30 4179 H 399.596 -0.270354 1.53944 0
M  V30 4180 H 400.331 -2.80307 1.6309 0
M  V30 4181 H 400.116 -2.1483 3.2801 0
M  V30 4182 H 401.606 -3.04426 2.85857 0
M  V30 4183 N 402.043 -1.548 -0.295768 0
M  V30 4184 C 403.291 -1.73985 -1.02828 0
M  V30 4185 C 403.612 -0.531406 -1.87619 0
M  V30 4186 O 402.882 0.454221 -1.90561 0
M  V30 4187 H 401.462 -0.641556 -0.382642 0
M  V30 4188 H 404.124 -1.92163 -0.325489 0
M  V30 4189 H 403.22 -2.63129 -1.67838 0
M  V30 4190 N 403.521 0.559213 -1.47345 0
M  V30 4191 C 404.749 1.34194 -1.57479 0
M  V30 4192 C 405.164 1.87463 -0.224261 0
M  V30 4193 O 404.521 1.64888 0.782185 0
M  V30 4194 C 404.572 2.51324 -2.59843 0
M  V30 4195 O 404.293 2.00256 -3.89653 0
M  V30 4196 C 405.794 3.43563 -2.80142 0
M  V30 4197 H 403.014 0.409136 -0.531835 0
M  V30 4198 H 405.558 0.677609 -1.92947 0
M  V30 4199 H 403.713 3.13699 -2.27314 0
M  V30 4200 H 404.127 2.76708 -4.4557 0
M  V30 4201 H 405.601 4.2217 -3.55635 0
M  V30 4202 H 406.078 3.9698 -1.87892 0
M  V30 4203 H 406.684 2.87005 -3.1386 0
M  V30 4204 N 404.999 1.35443 0.805782 0
M  V30 4205 C 406.246 1.28761 1.56291 0
M  V30 4206 C 406.574 -0.137747 1.94012 0
M  V30 4207 O 405.829 -1.1032 1.61642 0
M  V30 4208 C 406.128 2.14045 2.86216 0
M  V30 4209 C 405.794 3.62826 2.67709 0
M  V30 4210 C 404.456 4.0338 2.6237 0
M  V30 4211 C 406.808 4.57227 2.50186 0
M  V30 4212 C 404.136 5.36501 2.37451 0
M  V30 4213 C 406.488 5.90547 2.26797 0
M  V30 4214 C 405.152 6.30245 2.1988 0
M  V30 4215 H 404.422 0.471171 0.571908 0
M  V30 4216 H 407.069 1.67347 0.930974 0
M  V30 4217 H 405.374 1.68342 3.53791 0
M  V30 4218 H 407.071 2.0621 3.43917 0
M  V30 4219 H 403.661 3.30644 2.72713 0
M  V30 4220 H 407.845 4.2678 2.53323 0
M  V30 4221 H 403.101 5.66259 2.30567 0
M  V30 4222 H 407.275 6.63274 2.12228 0
M  V30 4223 H 404.902 7.33328 2.00333 0
M  V30 4224 N 406.477 -1.02803 1.19454 0
M  V30 4225 C 407.424 -2.11099 0.933046 0
M  V30 4226 C 408.394 -1.65571 -0.132447 0
M  V30 4227 O 409.579 -1.90797 0.00987576 0
M  V30 4228 C 406.719 -3.41763 0.478747 0
M  V30 4229 C 405.832 -4.00833 1.6111 0
M  V30 4230 C 404.967 -5.19511 1.10825 0
M  V30 4231 C 404.006 -5.70639 2.21445 0
M  V30 4232 N 403.143 -6.80589 1.72461 0
M  V30 4233 H 407.983 -2.32804 1.86028 0
M  V30 4234 H 405.52 -1.14179 0.927441 0
M  V30 4235 H 407.478 -4.16736 0.196745 0
M  V30 4236 H 406.108 -3.20166 -0.411493 0
M  V30 4237 H 405.16 -3.23066 2.00829 0
M  V30 4238 H 406.472 -4.34794 2.4445 0
M  V30 4239 H 405.626 -6.01645 0.781533 0
M  V30 4240 H 404.365 -4.87086 0.244606 0
M  V30 4241 H 403.37 -4.87116 2.54947 0
M  V30 4242 H 404.595 -6.05102 3.08267 0
M  V30 4243 H 402.541 -6.50016 0.884056 0
M  V30 4244 H 402.458 -7.13681 2.49389 0
M  V30 4245 H 403.726 -7.66317 1.42755 0
M  V30 4246 N 407.956 -0.998596 -1.21925 0
M  V30 4247 C 408.919 -0.558679 -2.22287 0
M  V30 4248 C 409.919 0.361525 -1.56683 0
M  V30 4249 O 411.109 0.152695 -1.73529 0
M  V30 4250 C 408.241 0.18661 -3.40389 0
M  V30 4251 H 409.434 -1.4463 -2.62721 0
M  V30 4252 H 406.987 -0.786413 -1.35075 0
M  V30 4253 H 407.722 1.08996 -3.05435 0
M  V30 4254 H 407.507 -0.474188 -3.89222 0
M  V30 4255 H 408.997 0.482367 -4.14805 0
M  V30 4256 N 409.434 1.37368 -0.772513 0
M  V30 4257 C 410.659 2.0447 -0.347386 0
M  V30 4258 C 411.084 1.57882 1.0225 0
M  V30 4259 O 410.442 0.73941 1.65537 0
M  V30 4260 C 410.49 3.58369 -0.400479 0
M  V30 4261 O 409.594 4.0803 0.598789 0
M  V30 4262 H 408.935 0.646773 -0.15027 0
M  V30 4263 H 411.465 1.75667 -1.04892 0
M  V30 4264 H 411.475 4.07183 -0.258045 0
M  V30 4265 H 410.15 3.91633 -1.39986 0
M  V30 4266 H 408.727 3.70534 0.419411 0
M  V30 4267 N 410.912 0.523116 1.48665 0
M  V30 4268 C 411.844 -0.280421 2.27478 0
M  V30 4269 C 412.857 -0.910694 1.34945 0
M  V30 4270 O 414.046 -0.790295 1.60052 0
M  V30 4271 C 411.146 -1.41171 3.08097 0
M  V30 4272 C 410.319 -0.884642 4.28361 0
M  V30 4273 C 409.378 -1.89622 4.90846 0
M  V30 4274 O 408.404 -1.4559 5.50265 0
M  V30 4275 N 409.606 -3.22801 4.82472 0
M  V30 4276 H 412.371 0.395481 2.97079 0
M  V30 4277 H 409.932 0.357018 1.57915 0
M  V30 4278 H 411.924 -2.08645 3.4677 0
M  V30 4279 H 410.494 -1.99139 2.40961 0
M  V30 4280 H 409.714 -0.0341177 3.94185 0
M  V30 4281 H 411.002 -0.511268 5.06225 0
M  V30 4282 H 410.4 -3.61246 4.35336 0
M  V30 4283 H 408.957 -3.85927 5.25265 0
M  V30 4284 N 412.39 -1.55475 0.257931 0
M  V30 4285 C 413.3 -2.2549 -0.647425 0
M  V30 4286 C 414.316 -1.2748 -1.18427 0
M  V30 4287 O 415.492 -1.6038 -1.2182 0
M  V30 4288 C 412.557 -2.94916 -1.82278 0
M  V30 4289 C 411.618 -4.08363 -1.32432 0
M  V30 4290 C 410.851 -4.74469 -2.44366 0
M  V30 4291 O 411.074 -4.39701 -3.63344 0
M  V30 4292 O 410.008 -5.62763 -2.13497 0
M  V30 4293 H 413.834 -3.03593 -0.0807707 0
M  V30 4294 H 411.419 -1.49377 0.0259962 0
M  V30 4295 H 413.301 -3.38606 -2.50846 0
M  V30 4296 H 411.976 -2.19744 -2.37685 0
M  V30 4297 H 410.883 -3.69166 -0.605605 0
M  V30 4298 H 412.216 -4.85385 -0.816211 0
M  V30 4299 N 413.868 0.0150385 -1.57593 0
M  V30 4300 C 414.831 0.995996 -2.06428 0
M  V30 4301 C 415.831 1.2818 -0.970903 0
M  V30 4302 O 417.021 1.22949 -1.23406 0
M  V30 4303 C 414.153 2.32506 -2.49307 0
M  V30 4304 H 415.346 0.573873 -2.94358 0
M  V30 4305 H 412.899 0.262186 -1.54085 0
M  V30 4306 H 413.634 2.79438 -1.64575 0
M  V30 4307 H 413.419 2.13087 -3.29145 0
M  V30 4308 H 414.909 3.02906 -2.87468 0
M  V30 4309 N 415.346 1.54954 0.287554 0
M  V30 4310 C 416.256 1.8991 1.37736 0
M  V30 4311 C 417.272 0.794701 1.54792 0
M  V30 4312 O 418.448 1.09243 1.69198 0
M  V30 4313 C 415.513 2.15108 2.71899 0
M  V30 4314 C 414.574 3.38752 2.63715 0
M  V30 4315 C 413.807 3.62739 3.91479 0
M  V30 4316 O 414.03 2.89492 4.91478 0
M  V30 4317 O 412.964 4.56267 3.92561 0
M  V30 4318 H 416.79 2.82652 1.11092 0
M  V30 4319 H 414.375 1.41315 0.484807 0
M  V30 4320 H 416.257 2.32806 3.51254 0
M  V30 4321 H 414.932 1.25551 2.9836 0
M  V30 4322 H 413.839 3.26405 1.82786 0
M  V30 4323 H 415.172 4.28483 2.42205 0
M  V30 4324 N 416.824 -0.551391 1.4764 0
M  V30 4325 C 418.072 -1.30572 1.54258 0
M  V30 4326 C 418.393 -1.93877 0.208963 0
M  V30 4327 O 417.663 -1.80234 -0.767619 0
M  V30 4328 H 416.243 -0.484894 0.568231 0
M  V30 4329 H 418.905 -0.643402 1.83974 0
M  V30 4330 H 418.001 -2.09621 2.31226 0
M  V30 4331 N 418.302 -1.35869 -0.798587 0
M  V30 4332 C 419.542 -1.30961 -1.56935 0
M  V30 4333 C 419.906 0.112404 -1.91671 0
M  V30 4334 O 421.107 0.285937 -2.67275 0
M  V30 4335 C 419.378 -2.19811 -2.81811 0
M  V30 4336 S 420.937 -2.32498 -3.72143 0
M  V30 4337 H 417.755 -0.465297 -0.537606 0
M  V30 4338 H 420.357 -1.71344 -0.941346 0
M  V30 4339 H 419.061 -3.22095 -2.54329 0
M  V30 4340 H 418.592 -1.80415 -3.49591 0
M  V30 4341 H 420.607 -1.5157 -4.72484 0
M  V30 4342 N 419.78 1.02168 -1.19998 0
M  V30 4343 C 421.005 1.79833 -1.03319 0
M  V30 4344 C 421.43 1.83504 0.413281 0
M  V30 4345 O 420.788 1.26635 1.29743 0
M  V30 4346 C 420.836 3.22396 -1.61533 0
M  V30 4347 O 419.94 4.03555 -0.849519 0
M  V30 4348 H 419.281 0.554872 -0.364709 0
M  V30 4349 H 421.811 1.28542 -1.59179 0
M  V30 4350 H 421.821 3.73124 -1.65054 0
M  V30 4351 H 420.496 3.19039 -2.66809 0
M  V30 4352 H 419.073 3.62169 -0.888129 0
M  V30 4353 N 421.258 1.00505 1.21394 0
M  V30 4354 C 422.208 0.536503 2.21598 0
M  V30 4355 C 423.192 -0.401914 1.55799 0
M  V30 4356 O 424.384 -0.226757 1.75541 0
M  V30 4357 C 421.513 -0.135446 3.43033 0
M  V30 4358 C 420.599 0.823992 4.16018 0
M  V30 4359 N 420.99 1.97683 4.6557 0
M  V30 4360 C 419.288 0.642387 4.4135 0
M  V30 4361 C 419.989 2.58003 5.21354 0
M  V30 4362 N 418.965 1.86162 5.1073 0
M  V30 4363 H 422.767 1.41557 2.57563 0
M  V30 4364 H 420.281 0.868878 1.37202 0
M  V30 4365 H 422.278 -0.488584 4.14027 0
M  V30 4366 H 420.938 -1.01049 3.08576 0
M  V30 4367 H 421.949 2.3572 4.61147 0
M  V30 4368 H 418.626 -0.185578 4.17087 0
M  V30 4369 H 420.016 3.555 5.70149 0
M  V30 4370 N 422.737 -1.36956 0.779787 0
M  V30 4371 C 423.977 -2.01328 0.353043 0
M  V30 4372 C 424.341 -1.60558 -1.05286 0
M  V30 4373 O 425.542 -2.1745 -1.58016 0
M  V30 4374 C 423.813 -3.53874 0.500822 0
M  V30 4375 S 425.372 -4.38506 0.16053 0
M  V30 4376 H 422.19 -0.69799 0.13539 0
M  V30 4377 H 424.792 -1.67016 1.01617 0
M  V30 4378 H 423.496 -3.81034 1.52451 0
M  V30 4379 H 423.027 -3.92994 -0.178574 0
M  V30 4380 H 425.042 -4.85153 -1.04121 0
M  V30 4381 N 424.215 -0.530993 -1.48385 0
M  V30 4382 C 425.626 -0.0907905 -1.86479 0
M  V30 4383 C 425.977 1.33213 -1.44044 0
M  V30 4384 O 425.102 1.99783 -0.831615 0
M  V30 4385 C 425.697 -0.157987 -3.38431 0
M  V30 4386 C 424.256 0.227026 -3.75715 0
M  V30 4387 C 423.403 -0.5173 -2.72432 0
M  V30 4388 H 426.354 -0.742186 -1.40276 0
M  V30 4389 H 426.375 0.630053 -3.75247 0
M  V30 4390 H 425.887 -1.19372 -3.69286 0
M  V30 4391 H 423.988 1.26486 -3.50474 0
M  V30 4392 H 424.101 -0.113288 -4.78966 0
M  V30 4393 H 422.465 0.0365527 -2.54674 0
M  V30 4394 H 423.248 -1.55368 -3.0613 0
M  V30 4395 N 425.693 1.55336 -0.266172 0
M  V30 4396 C 426.918 2.04258 0.359661 0
M  V30 4397 C 427.343 1.14359 1.49344 0
M  V30 4398 O 426.701 0.140369 1.80756 0
M  V30 4399 C 426.749 3.50997 0.826635 0
M  V30 4400 O 425.853 3.64204 1.93466 0
M  V30 4401 H 425.194 0.659668 0.075727 0
M  V30 4402 H 427.724 2.00694 -0.39786 0
M  V30 4403 H 427.734 3.9219 1.12477 0
M  V30 4404 H 426.409 4.159 -0.00293032 0
M  V30 4405 H 424.986 3.34913 1.63974 0
M  V30 4406 N 427.171 -0.0066808 1.57599 0
M  V30 4407 C 428.119 -1.01851 2.09115 0
M  V30 4408 C 429.113 -1.36021 1.00969 0
M  V30 4409 O 430.319 -1.34663 1.19439 0
M  V30 4410 H 426.694 -0.346083 0.667631 0
M  V30 4411 H 428.665 -0.558394 2.93129 0
M  V30 4412 C 427.414 -2.30374 2.60429 0
M  V30 4413 H 426.737 -2.04947 3.43273 0
M  V30 4414 H 428.177 -2.99466 3.00161 0
M  V30 4415 C 426.636 -3.00893 1.51542 0
M  V30 4416 O 427.166 -3.91614 0.894484 0
M  V30 4417 N 425.372 -2.62603 1.2445 0
M  V30 4418 H 424.919 -1.88911 1.75129 0
M  V30 4419 H 424.877 -3.10101 0.518137 0
M  V30 4420 N 428.649 -1.55105 -0.279332 0
M  V30 4421 C 429.874 -1.7976 -1.03446 0
M  V30 4422 C 430.299 -0.565952 -1.79384 0
M  V30 4423 O 429.657 0.484259 -1.74713 0
M  V30 4424 C 429.705 -3.0179 -1.97371 0
M  V30 4425 O 428.809 -2.76432 -3.06038 0
M  V30 4426 H 428.15 -0.594334 -0.29608 0
M  V30 4427 H 430.68 -2.02235 -0.310165 0
M  V30 4428 H 430.69 -3.30351 -2.39441 0
M  V30 4429 H 429.365 -3.91085 -1.4151 0
M  V30 4430 H 427.942 -2.58949 -2.68328 0
M  V30 4431 N 430.127 0.543554 -1.4793 0
M  V30 4432 C 431.543 0.870806 -1.3375 0
M  V30 4433 C 431.743 1.9864 -0.338261 0
M  V30 4434 O 430.799 2.51305 0.245371 0
M  V30 4435 C 432.112 1.25114 -2.73435 0
M  V30 4436 C 433.66 1.3618 -2.81823 0
M  V30 4437 C 434.135 1.77563 -4.22179 0
M  V30 4438 N 435.626 1.8469 -4.24787 0
M  V30 4439 C 436.361 2.18067 -5.30315 0
M  V30 4440 N 435.857 2.49963 -6.46135 0
M  V30 4441 N 437.65 2.18958 -5.17701 0
M  V30 4442 H 429.801 -0.19275 -2.11524 0
M  V30 4443 H 432.064 -0.0235777 -0.947707 0
M  V30 4444 H 431.77 0.50514 -3.48053 0
M  V30 4445 H 431.644 2.20431 -3.06088 0
M  V30 4446 H 434.031 2.09859 -2.07468 0
M  V30 4447 H 434.112 0.390169 -2.52807 0
M  V30 4448 H 433.756 1.04449 -4.97044 0
M  V30 4449 H 433.686 2.75753 -4.48629 0
M  V30 4450 H 436.177 1.62372 -3.41239 0
M  V30 4451 H 436.49 2.74497 -7.22406 0
M  V30 4452 H 434.835 2.47513 -6.49432 0
M  V30 4453 H 438.026 1.93488 -4.2624 0
M  V30 4454 H 438.199 2.44639 -6.00047 0
M  V30 4455 N 431.605 1.3629 0.791371 0
M  V30 4456 C 432.83 1.33726 1.58531 0
M  V30 4457 C 433.255 -0.0794933 1.87932 0
M  V30 4458 O 432.613 -1.05087 1.47738 0
M  V30 4459 C 432.661 2.16425 2.88431 0
M  V30 4460 O 431.765 1.5554 3.81944 0
M  V30 4461 H 431.106 0.457793 0.480959 0
M  V30 4462 H 433.636 1.79547 0.981031 0
M  V30 4463 H 433.646 2.28933 3.37718 0
M  V30 4464 H 432.321 3.19415 2.66359 0
M  V30 4465 H 430.898 1.51961 3.40532 0
M  V30 4466 N 433.083 -1.0153 1.20538 0
M  V30 4467 C 434.494 -1.56598 1.01657 0
M  V30 4468 C 434.845 -1.91505 -0.426668 0
M  V30 4469 O 433.97 -1.72375 -1.30827 0
M  V30 4470 C 434.565 -2.84542 1.83905 0
M  V30 4471 C 433.124 -3.36133 1.69386 0
M  V30 4472 C 432.271 -2.09427 1.81757 0
M  V30 4473 H 435.222 -0.838974 1.34711 0
M  V30 4474 H 435.243 -3.56004 1.34319 0
M  V30 4475 H 434.755 -2.59105 2.8894 0
M  V30 4476 H 432.856 -3.66528 0.669933 0
M  V30 4477 H 432.969 -4.08248 2.50739 0
M  V30 4478 H 431.333 -2.21941 1.24957 0
M  V30 4479 H 432.116 -1.86414 2.88279 0
M  V30 4480 N 434.561 -1.01147 -1.20859 0
M  V30 4481 C 435.524 -0.582224 -2.21682 0
M  V30 4482 C 436.524 0.344887 -1.57058 0
M  V30 4483 O 437.714 0.134281 -1.73682 0
M  V30 4484 C 434.846 0.150496 -3.40568 0
M  V30 4485 H 436.039 -1.47408 -2.61172 0
M  V30 4486 H 433.592 -0.800695 -1.34233 0
M  V30 4487 H 434.327 1.0575 -3.06574 0
M  V30 4488 H 434.112 -0.515444 -3.88697 0
M  V30 4489 H 435.602 0.438344 -4.15293 0
M  V30 4490 N 436.039 1.36541 -0.78704 0
M  V30 4491 C 436.949 2.3387 -0.184896 0
M  V30 4492 C 437.965 1.60927 0.661697 0
M  V30 4493 O 439.141 1.92927 0.57804 0
M  V30 4494 C 436.206 3.40122 0.672145 0
M  V30 4495 C 435.267 4.28867 -0.19267 0
M  V30 4496 C 434.5 5.30045 0.623561 0
M  V30 4497 O 434.723 5.39232 1.8597 0
M  V30 4498 O 433.657 6.01895 0.0247068 0
M  V30 4499 H 437.483 2.87126 -0.989562 0
M  V30 4500 H 435.068 1.38969 -0.548455 0
M  V30 4501 H 436.95 4.05093 1.16094 0
M  V30 4502 H 435.625 2.89169 1.45474 0
M  V30 4503 H 434.532 3.66945 -0.728166 0
M  V30 4504 H 435.865 4.83165 -0.938722 0
M  V30 4505 N 437.518 0.538854 1.48102 0
M  V30 4506 C 438.481 -0.208395 2.28251 0
M  V30 4507 C 439.481 -0.859656 1.35892 0
M  V30 4508 O 440.671 -0.71834 1.58699 0
M  V30 4509 C 437.803 -1.30252 3.15035 0
M  V30 4510 H 438.996 0.495407 2.9578 0
M  V30 4511 H 436.549 0.295112 1.53489 0
M  V30 4512 H 437.284 -2.0393 2.52157 0
M  V30 4513 H 437.069 -0.840551 3.82985 0
M  V30 4514 H 438.559 -1.82787 3.75471 0
M  V30 4515 N 438.996 -1.55193 0.274407 0
M  V30 4516 C 440.221 -2.04446 -0.348824 0
M  V30 4517 C 440.646 -1.15149 -1.48735 0
M  V30 4518 O 440.004 -0.149952 -1.80679 0
M  V30 4519 C 440.052 -3.51431 -0.808009 0
M  V30 4520 O 439.156 -3.65225 -1.91531 0
M  V30 4521 H 438.497 -0.66006 -0.0722276 0
M  V30 4522 H 441.027 -2.00481 0.408498 0
M  V30 4523 H 441.037 -3.92781 -1.10395 0
M  V30 4524 H 439.712 -4.15892 0.0249865 0
M  V30 4525 H 438.289 -3.35778 -1.62196 0
M  V30 4526 N 440.474 -0.00167713 -1.576 0
M  V30 4527 C 441.885 0.54091 -1.78693 0
M  V30 4528 C 442.236 1.7386 -0.909247 0
M  V30 4529 O 441.361 2.16109 -0.112176 0
M  V30 4530 C 441.956 0.98806 -3.24072 0
M  V30 4531 C 440.515 1.47594 -3.46256 0
M  V30 4532 C 439.662 0.42792 -2.73978 0
M  V30 4533 H 442.613 -0.22784 -1.57056 0
M  V30 4534 H 442.634 1.85398 -3.32277 0
M  V30 4535 H 442.146 0.116164 -3.87926 0
M  V30 4536 H 440.247 2.36868 -2.87618 0
M  V30 4537 H 440.36 1.50225 -4.54939 0
M  V30 4538 H 438.724 0.889934 -2.38647 0
M  V30 4539 H 439.507 -0.435038 -3.40532 0
M  V30 4540 N 441.952 1.55251 0.271103 0
M  V30 4541 C 443.201 1.75151 1.00025 0
M  V30 4542 C 443.514 0.561041 1.87381 0
M  V30 4543 O 444.72 0.642506 2.63788 0
M  V30 4544 C 443.176 3.09999 1.82835 0
M  V30 4545 C 442.784 4.3662 1.00336 0
M  V30 4546 C 444.528 3.39249 2.55168 0
M  V30 4547 C 442.435 5.62506 1.82595 0
M  V30 4548 H 441.365 0.652877 0.377183 0
M  V30 4549 H 444.016 1.81708 0.255843 0
M  V30 4550 H 442.398 2.97485 2.61378 0
M  V30 4551 H 443.572 4.60055 0.261959 0
M  V30 4552 H 441.887 4.14527 0.394486 0
M  V30 4553 H 444.484 4.3051 3.1712 0
M  V30 4554 H 444.827 2.59467 3.2555 0
M  V30 4555 H 445.36 3.52869 1.83653 0
M  V30 4556 H 442.099 6.45041 1.16631 0
M  V30 4557 H 441.619 5.43211 2.54327 0
M  V30 4558 H 443.298 6.00875 2.39913 0
M  V30 4559 N 443.43 -0.535701 1.48216 0
M  V30 4560 C 444.67 -1.30238 1.57536 0
M  V30 4561 C 445.034 -1.90479 0.241229 0
M  V30 4562 O 446.235 -2.67983 0.20938 0
M  V30 4563 C 444.506 -2.3669 2.67792 0
M  V30 4564 S 446.065 -3.23159 2.9684 0
M  V30 4565 H 442.883 -0.443093 0.556048 0
M  V30 4566 H 445.485 -0.610937 1.85709 0
M  V30 4567 H 444.189 -1.90905 3.63296 0
M  V30 4568 H 443.72 -3.10548 2.41502 0
M  V30 4569 H 445.735 -4.36647 2.35699 0
M  V30 4570 N 444.908 -1.36708 -0.784132 0
M  V30 4571 C 446.136 -1.34398 -1.57305 0
M  V30 4572 C 446.551 0.0735577 -1.88657 0
M  V30 4573 O 445.908 1.03193 -1.50524 0
M  V30 4574 C 445.959 -2.17053 -2.89085 0
M  V30 4575 O 445.68 -3.53281 -2.59083 0
M  V30 4576 C 447.181 -2.22583 -3.83369 0
M  V30 4577 H 444.401 -0.460819 -0.487736 0
M  V30 4578 H 446.945 -1.79879 -0.972819 0
M  V30 4579 H 445.1 -1.75113 -3.45564 0
M  V30 4580 H 445.514 -3.9647 -3.43383 0
M  V30 4581 H 446.988 -2.84763 -4.72878 0
M  V30 4582 H 447.465 -1.23075 -4.21603 0
M  V30 4583 H 448.071 -2.64781 -3.32823 0
M  V30 4584 N 446.386 1.0089 -1.21074 0
M  V30 4585 C 447.626 1.76142 -1.03699 0
M  V30 4586 C 447.99 1.87292 0.422587 0
M  V30 4587 O 449.191 2.59068 0.716752 0
M  V30 4588 C 447.462 3.13805 -1.7106 0
M  V30 4589 S 449.021 4.04996 -1.68889 0
M  V30 4590 H 445.839 0.606113 -0.371683 0
M  V30 4591 H 448.441 1.20744 -1.53756 0
M  V30 4592 H 447.145 3.0332 -2.76451 0
M  V30 4593 H 446.676 3.74276 -1.21166 0
M  V30 4594 H 448.691 4.90842 -0.727211 0
M  V30 4595 N 447.864 1.01787 1.20321 0
M  V30 4596 C 449.28 0.732951 1.41774 0
M  V30 4597 C 449.48 -0.686883 1.89431 0
M  V30 4598 O 448.536 -1.45446 2.06402 0
M  V30 4599 C 449.849 1.75973 2.43832 0
M  V30 4600 C 451.397 1.77802 2.57596 0
M  V30 4601 C 451.872 2.7941 3.62897 0
M  V30 4602 N 453.363 2.78157 3.70382 0
M  V30 4603 C 454.098 3.53434 4.51521 0
M  V30 4604 N 453.594 4.38392 5.36455 0
M  V30 4605 N 455.387 3.42026 4.46066 0
M  V30 4606 H 447.538 1.93447 0.877035 0
M  V30 4607 H 449.801 0.835712 0.447536 0
M  V30 4608 H 449.507 2.77699 2.15815 0
M  V30 4609 H 449.381 1.57292 3.4284 0
M  V30 4610 H 451.768 0.767602 2.84942 0
M  V30 4611 H 451.849 2.00557 1.58779 0
M  V30 4612 H 451.493 3.80616 3.36295 0
M  V30 4613 H 451.423 2.53916 4.61339 0
M  V30 4614 H 453.914 2.16531 3.09714 0
M  V30 4615 H 454.227 4.92596 5.95457 0
M  V30 4616 H 452.572 4.4247 5.35953 0
M  V30 4617 H 455.763 2.75075 3.78749 0
M  V30 4618 H 455.936 4.00946 5.09064 0
M  V30 4619 N 449.342 -1.36122 0.79427 0
M  V30 4620 C 450.57 -2.03362 0.380989 0
M  V30 4621 C 450.985 -1.59881 -1.00416 0
M  V30 4622 O 450.342 -0.790515 -1.6449 0
M  V30 4623 C 450.393 -3.58804 0.440649 0
M  V30 4624 O 450.114 -4.007 1.77118 0
M  V30 4625 C 451.615 -4.43296 0.0186117 0
M  V30 4626 H 448.835 -0.652526 0.156367 0
M  V30 4627 H 451.379 -1.73998 1.07447 0
M  V30 4628 H 449.534 -3.8686 -0.204458 0
M  V30 4629 H 449.948 -4.95309 1.72538 0
M  V30 4630 H 451.422 -5.51887 0.111488 0
M  V30 4631 H 451.899 -4.2684 -1.03461 0
M  V30 4632 H 452.505 -4.20512 0.636395 0
M  V30 4633 N 450.82 -0.546701 -1.47814 0
M  V30 4634 C 452.068 -0.0187037 -2.02091 0
M  V30 4635 C 452.389 1.33168 -1.42447 0
M  V30 4636 O 451.659 1.86619 -0.595839 0
M  V30 4637 H 450.239 -0.00392531 -0.74699 0
M  V30 4638 H 452.901 -0.714327 -1.81338 0
M  V30 4639 H 451.997 0.0772219 -3.12004 0
M  V30 4640 N 452.299 1.55045 -0.282633 0
M  V30 4641 C 453.529 2.03872 0.334635 0
M  V30 4642 C 453.937 1.16018 1.49454 0
M  V30 4643 O 453.28 0.174449 1.8287 0
M  V30 4644 C 453.342 3.48791 0.870905 0
M  V30 4645 C 453.006 4.56715 -0.161338 0
M  V30 4646 C 454.003 5.10513 -0.983466 0
M  V30 4647 C 451.688 5.01417 -0.297745 0
M  V30 4648 C 453.682 6.07538 -1.92811 0
M  V30 4649 C 451.369 5.98265 -1.24586 0
M  V30 4650 C 452.367 6.51208 -2.05954 0
M  V30 4651 O 452.055 7.46162 -2.99162 0
M  V30 4652 H 451.787 0.671324 0.0793742 0
M  V30 4653 H 454.341 2.01169 -0.41473 0
M  V30 4654 H 452.571 3.48758 1.67047 0
M  V30 4655 H 454.26 3.80916 1.40207 0
M  V30 4656 H 455.026 4.76785 -0.888856 0
M  V30 4657 H 450.905 4.59849 0.325604 0
M  V30 4658 H 454.449 6.48787 -2.56363 0
M  V30 4659 H 450.346 6.31412 -1.34126 0
M  V30 4660 H 451.114 7.63903 -2.93929 0
M  V30 4661 N 453.777 0.010035 1.57597 0
M  V30 4662 C 455.007 -0.682422 1.95004 0
M  V30 4663 C 455.415 -1.67278 0.884014 0
M  V30 4664 O 454.758 -1.83129 -0.144672 0
M  V30 4665 C 454.82 -1.46141 3.28456 0
M  V30 4666 C 454.484 -0.631523 4.52615 0
M  V30 4667 C 455.481 0.0850905 5.1983 0
M  V30 4668 C 453.166 -0.574539 4.99003 0
M  V30 4669 C 455.16 0.847566 6.3174 0
M  V30 4670 C 452.847 0.191655 6.10799 0
M  V30 4671 C 453.845 0.901432 6.77025 0
M  V30 4672 O 453.533 1.65511 7.86677 0
M  V30 4673 H 453.265 -0.194361 0.647456 0
M  V30 4674 H 455.819 0.060312 2.05311 0
M  V30 4675 H 454.049 -2.24885 3.14585 0
M  V30 4676 H 455.738 -2.04016 3.50902 0
M  V30 4677 H 456.504 0.0502812 4.84974 0
M  V30 4678 H 452.383 -1.11654 4.47274 0
M  V30 4679 H 455.927 1.4021 6.83364 0
M  V30 4680 H 451.824 0.228249 6.45096 0
M  V30 4681 H 452.592 1.57287 8.03245 0
M  V30 4682 N 455.255 -1.55392 -0.262866 0
M  V30 4683 C 456.671 -1.47459 -0.610582 0
M  V30 4684 C 456.871 -0.697031 -1.8906 0
M  V30 4685 O 455.927 -0.219952 -2.5154 0
M  V30 4686 C 457.24 -2.91751 -0.728131 0
M  V30 4687 C 458.788 -3.02027 -0.821517 0
M  V30 4688 C 459.263 -4.47594 -0.97076 0
M  V30 4689 N 460.754 -4.51465 -1.03603 0
M  V30 4690 C 461.489 -5.61326 -1.17049 0
M  V30 4691 N 460.985 -6.81032 -1.2715 0
M  V30 4692 N 462.778 -5.49089 -1.20239 0
M  V30 4693 H 454.929 -2.04395 0.577632 0
M  V30 4694 H 457.192 -0.927287 0.197086 0
M  V30 4695 H 456.898 -3.51413 0.142132 0
M  V30 4696 H 456.772 -3.4134 -1.6052 0
M  V30 4697 H 459.159 -2.42456 -1.68224 0
M  V30 4698 H 459.24 -2.55674 0.0803688 0
M  V30 4699 H 458.884 -5.07771 -0.114655 0
M  V30 4700 H 458.814 -4.91613 -1.88745 0
M  V30 4701 H 461.305 -3.6524 -0.96996 0
M  V30 4702 H 461.618 -7.60511 -1.37271 0
M  V30 4703 H 459.963 -6.83824 -1.24136 0
M  V30 4704 H 463.154 -4.54507 -1.11985 0
M  V30 4705 H 463.327 -6.34749 -1.30373 0
M  V30 4706 N 456.733 0.527833 -1.48498 0
M  V30 4707 C 457.696 1.61439 -1.62696 0
M  V30 4708 C 458.696 1.52824 -0.500136 0
M  V30 4709 O 459.886 1.56456 -0.765976 0
M  V30 4710 C 457.018 3.01063 -1.59918 0
M  V30 4711 H 458.211 1.50189 -2.59583 0
M  V30 4712 H 455.764 0.750055 -1.37127 0
M  V30 4713 H 456.499 3.17818 -0.645163 0
M  V30 4714 H 456.284 3.08725 -2.41726 0
M  V30 4715 H 457.774 3.80057 -1.73051 0
M  V30 4716 N 458.211 1.37122 0.776871 0
M  V30 4717 C 459.488 1.22586 1.52421 0
M  V30 4718 C 459.868 -0.182726 2.10308 0
M  V30 4719 O 459.216 -1.18979 1.9508 0
M  V30 4720 C 459.426 2.31782 2.60918 0
M  V30 4721 C 460.774 2.69071 3.2846 0
M  V30 4722 O 461.798 2.3092 2.71209 0
M  V30 4723 O 460.657 3.3478 4.31954 0
M  V30 4724 H 457.751 0.478045 0.674835 0
M  V30 4725 H 460.297 1.48888 0.814275 0
M  V30 4726 H 459.069 3.26131 2.16227 0
M  V30 4727 H 458.692 2.06916 3.39517 0
M  V30 4728 N 459.689 -1.00246 1.21608 0
M  V30 4729 C 460.936 -1.74061 1.03485 0
M  V30 4730 C 461.264 -1.89658 -0.431308 0
M  V30 4731 O 460.519 -1.42976 -1.33627 0
M  V30 4732 C 460.818 -3.15448 1.68009 0
M  V30 4733 C 460.484 -3.19792 3.17874 0
M  V30 4734 C 459.146 -3.20685 3.58768 0
M  V30 4735 C 461.498 -3.16835 4.13842 0
M  V30 4736 C 458.826 -3.16309 4.94131 0
M  V30 4737 C 461.178 -3.14001 5.49169 0
M  V30 4738 C 459.842 -3.13204 5.89457 0
M  V30 4739 H 459.112 -0.636934 0.378677 0
M  V30 4740 H 461.759 -1.17473 1.51236 0
M  V30 4741 H 460.064 -3.75284 1.12557 0
M  V30 4742 H 461.761 -3.71285 1.51487 0
M  V30 4743 H 458.351 -3.19842 2.85305 0
M  V30 4744 H 462.535 -3.15303 3.83272 0
M  V30 4745 H 457.791 -3.14032 5.24589 0
M  V30 4746 H 461.965 -3.10667 6.23265 0
M  V30 4747 H 459.592 -3.09568 6.94314 0
M  V30 4748 N 461.167 -1.02423 -1.1978 0
M  V30 4749 C 462.444 -0.632802 -1.85081 0
M  V30 4750 C 462.824 0.888745 -1.9148 0
M  V30 4751 O 462.172 1.78357 -1.42832 0
M  V30 4752 C 462.382 -1.28947 -3.24305 0
M  V30 4753 C 463.73 -1.40976 -4.00513 0
M  V30 4754 O 464.754 -1.24628 -3.33686 0
M  V30 4755 O 463.613 -1.67467 -5.20209 0
M  V30 4756 H 460.707 -0.219348 -0.79738 0
M  V30 4757 H 463.253 -1.12209 -1.27307 0
M  V30 4758 H 462.025 -2.3288 -3.14456 0
M  V30 4759 H 461.648 -0.787748 -3.89718 0
M  V30 4760 N 462.645 1.35699 -0.801477 0
M  V30 4761 C 464.056 1.81415 -0.441073 0
M  V30 4762 C 464.407 1.66595 1.03636 0
M  V30 4763 O 463.532 1.19369 1.80499 0
M  V30 4764 C 464.127 3.29369 -0.793819 0
M  V30 4765 C 462.686 3.73248 -0.486083 0
M  V30 4766 C 461.833 2.57775 -1.02213 0
M  V30 4767 H 464.784 1.23749 -0.993572 0
M  V30 4768 H 464.805 3.80395 -0.0894158 0
M  V30 4769 H 464.317 3.40123 -1.86917 0
M  V30 4770 H 462.418 3.68046 0.580735 0
M  V30 4771 H 462.531 4.68222 -1.01513 0
M  V30 4772 H 460.895 2.50788 -0.444712 0
M  V30 4773 H 461.678 2.71309 -2.10348 0
M  V30 4774 N 464.123 0.554532 1.47522 0
M  V30 4775 C 465.534 0.120446 1.86311 0
M  V30 4776 C 465.885 -1.30904 1.46145 0
M  V30 4777 O 465.01 -1.98434 0.863294 0
M  V30 4778 C 465.605 0.211808 3.38137 0
M  V30 4779 C 464.164 -0.167224 3.76028 0
M  V30 4780 C 463.311 0.560576 2.71575 0
M  V30 4781 H 466.262 0.764408 1.39077 0
M  V30 4782 H 466.283 -0.570275 3.76202 0
M  V30 4783 H 465.795 1.25232 3.6734 0
M  V30 4784 H 463.896 -1.20894 3.52442 0
M  V30 4785 H 464.009 0.189473 4.78725 0
M  V30 4786 H 462.373 0.00396836 2.547 0
M  V30 4787 H 463.156 1.60219 3.0362 0
M  V30 4788 N 465.601 -1.54893 0.290851 0
M  V30 4789 C 466.511 -2.26812 -0.59945 0
M  V30 4790 C 467.527 -1.29963 -1.15696 0
M  V30 4791 O 468.703 -1.62928 -1.18391 0
M  V30 4792 C 465.768 -2.98716 -1.75982 0
M  V30 4793 C 464.829 -4.1108 -1.2374 0
M  V30 4794 C 464.062 -4.79546 -2.34246 0
M  V30 4795 O 464.285 -4.47309 -3.53936 0
M  V30 4796 O 463.219 -5.67165 -2.01512 0
M  V30 4797 H 467.045 -3.03696 -0.0163561 0
M  V30 4798 H 464.63 -1.49289 0.0576755 0
M  V30 4799 H 466.512 -3.43851 -2.43607 0
M  V30 4800 H 465.187 -2.24737 -2.3297 0
M  V30 4801 H 464.094 -3.70367 -0.527163 0
M  V30 4802 H 465.427 -4.87007 -0.71307 0
M  V30 4803 N 467.08 -0.0183926 -1.57589 0
M  V30 4804 C 468.326 0.663543 -1.91638 0
M  V30 4805 C 468.659 1.72392 -0.894134 0
M  V30 4806 O 467.934 1.94316 0.0846449 0
M  V30 4807 C 468.217 1.28984 -3.36207 0
M  V30 4808 C 468.07 0.239761 -4.49161 0
M  V30 4809 C 469.389 2.2109 -3.80536 0
M  V30 4810 H 466.508 0.239746 -0.696915 0
M  V30 4811 H 469.15 -0.073456 -1.89858 0
M  V30 4812 H 467.3 1.91799 -3.37854 0
M  V30 4813 H 468.972 -0.390119 -4.59647 0
M  V30 4814 H 467.215 -0.435972 -4.31604 0
M  V30 4815 H 467.886 0.717383 -5.47319 0
M  V30 4816 H 470.362 1.68273 -3.80557 0
M  V30 4817 H 469.238 2.61869 -4.82406 0
M  V30 4818 H 469.499 3.09764 -3.15434 0
M  V30 4819 N 468.558 1.5553 0.254621 0
M  V30 4820 C 469.521 1.88872 1.29846 0
M  V30 4821 C 470.521 0.764591 1.41459 0
M  V30 4822 O 471.711 1.03265 1.40293 0
M  V30 4823 C 468.843 2.11032 2.67728 0
M  V30 4824 H 470.036 2.82201 1.01502 0
M  V30 4825 H 467.589 1.48303 0.493556 0
M  V30 4826 H 468.324 1.20146 3.01223 0
M  V30 4827 H 468.109 2.92895 2.60682 0
M  V30 4828 H 469.599 2.38038 3.43115 0
M  V30 4829 N 470.036 -0.519951 1.48776 0
M  V30 4830 C 471.276 -1.2856 1.58908 0
M  V30 4831 C 471.64 -1.90212 0.261418 0
M  V30 4832 O 472.841 -2.67746 0.237791 0
M  V30 4833 C 471.112 -2.33836 2.70288 0
M  V30 4834 S 472.671 -3.19992 3.0025 0
M  V30 4835 H 469.489 -0.43717 0.560717 0
M  V30 4836 H 472.091 -0.591205 1.86346 0
M  V30 4837 H 470.795 -1.87041 3.653 0
M  V30 4838 H 470.326 -3.07969 2.44783 0
M  V30 4839 H 472.341 -4.34122 2.40317 0
M  V30 4840 N 471.514 -1.37532 -0.769588 0
M  V30 4841 C 472.742 -1.36059 -1.55871 0
M  V30 4842 C 473.157 0.053544 -1.88724 0
M  V30 4843 O 472.514 1.01591 -1.5161 0
M  V30 4844 C 472.565 -2.20107 -2.86767 0
M  V30 4845 O 472.286 -3.56009 -2.55321 0
M  V30 4846 C 473.787 -2.26636 -3.80987 0
M  V30 4847 H 471.007 -0.465967 -0.482821 0
M  V30 4848 H 473.551 -1.80901 -0.953686 0
M  V30 4849 H 471.706 -1.78768 -3.43687 0
M  V30 4850 H 472.12 -4.0009 -3.39158 0
M  V30 4851 H 473.594 -2.89763 -4.69831 0
M  V30 4852 H 474.071 -1.2754 -4.20274 0
M  V30 4853 H 474.677 -2.68296 -3.29996 0
M  V30 4854 N 472.992 0.995999 -1.22138 0
M  V30 4855 C 474.217 1.77601 -1.0711 0
M  V30 4856 C 474.642 1.84339 0.374264 0
M  V30 4857 O 474 1.29359 1.27028 0
M  V30 4858 C 474.048 3.18897 -1.68336 0
M  V30 4859 O 473.152 4.01663 -0.934928 0
M  V30 4860 H 472.493 0.547011 -0.376397 0
M  V30 4861 H 475.023 1.25137 -1.6187 0
M  V30 4862 H 475.033 3.69539 -1.72931 0
M  V30 4863 H 473.708 3.13308 -2.73516 0
M  V30 4864 H 472.285 3.60204 -0.964751 0
M  V30 4865 N 474.47 1.03057 1.19235 0
M  V30 4866 C 475.716 0.729098 1.89241 0
M  V30 4867 C 476.049 -0.740573 1.79525 0
M  V30 4868 O 475.324 -1.53946 1.18874 0
M  V30 4869 C 475.607 1.18304 3.40112 0
M  V30 4870 C 475.46 2.71406 3.5869 0
M  V30 4871 C 476.779 0.765161 4.33397 0
M  V30 4872 H 473.898 0.266338 0.687192 0
M  V30 4873 H 476.54 1.28079 1.40341 0
M  V30 4874 H 474.69 0.713672 3.81889 0
M  V30 4875 H 476.362 3.26303 3.26074 0
M  V30 4876 H 474.605 3.11717 3.01687 0
M  V30 4877 H 475.276 2.98225 4.64506 0
M  V30 4878 H 477.752 1.16889 3.99345 0
M  V30 4879 H 476.628 1.11065 5.37546 0
M  V30 4880 H 476.889 -0.332372 4.40849 0
M  V30 4881 N 475.948 -1.35272 0.808662 0
M  V30 4882 C 477.359 -1.81179 0.450688 0
M  V30 4883 C 477.71 -1.67143 -1.02751 0
M  V30 4884 O 476.835 -1.20325 -1.79864 0
M  V30 4885 C 477.43 -3.28943 0.811275 0
M  V30 4886 C 475.989 -3.72985 0.505871 0
M  V30 4887 C 475.136 -2.57229 1.03578 0
M  V30 4888 H 478.087 -1.2322 1.00012 0
M  V30 4889 H 478.108 -3.80342 0.109588 0
M  V30 4890 H 477.62 -3.39127 1.88718 0
M  V30 4891 H 475.721 -3.68349 -0.561209 0
M  V30 4892 H 475.834 -4.67677 1.03995 0
M  V30 4893 H 474.198 -2.50548 0.458005 0
M  V30 4894 H 474.981 -2.7019 2.11784 0
M  V30 4895 N 477.426 -0.562348 -1.47226 0
M  V30 4896 C 478.651 -0.0432632 -2.07355 0
M  V30 4897 C 479.076 1.24332 -1.41149 0
M  V30 4898 O 478.434 1.74603 -0.488226 0
M  V30 4899 C 478.482 0.130288 -3.60365 0
M  V30 4900 O 477.586 1.19166 -3.94808 0
M  V30 4901 H 476.927 -0.0536334 -0.66183 0
M  V30 4902 H 479.457 -0.779495 -1.89169 0
M  V30 4903 H 479.467 0.342881 -4.06557 0
M  V30 4904 H 478.142 -0.809389 -4.07948 0
M  V30 4905 H 476.719 0.959153 -3.60354 0
M  V30 4906 N 478.904 1.54736 -0.299062 0
M  V30 4907 C 480.152 1.99706 0.31017 0
M  V30 4908 C 480.473 1.18896 1.54559 0
M  V30 4909 O 479.743 0.284445 1.93824 0
M  V30 4910 H 478.323 0.737686 0.117596 0
M  V30 4911 H 480.985 1.9054 -0.409943 0
M  V30 4912 H 480.081 3.06596 0.58355 0
M  V30 4913 N 480.382 0.0267497 1.57577 0
M  V30 4914 C 481.793 -0.512413 1.79531 0
M  V30 4915 C 482.144 -1.72391 0.936791 0
M  V30 4916 O 481.269 -2.15903 0.146543 0
M  V30 4917 C 481.864 -0.936378 3.25603 0
M  V30 4918 C 480.423 -1.42067 3.4856 0
M  V30 4919 C 479.57 -0.384278 2.74624 0
M  V30 4920 H 482.521 0.252797 1.56674 0
M  V30 4921 H 482.542 -1.80088 3.35184 0
M  V30 4922 H 482.054 -0.0544332 3.88062 0
M  V30 4923 H 480.155 -2.32262 2.9135 0
M  V30 4924 H 480.268 -1.42968 4.57271 0
M  V30 4925 H 478.632 -0.851855 2.40032 0
M  V30 4926 H 479.415 0.489159 3.39797 0
M  V30 4927 N 481.861 -1.55662 -0.24637 0
M  V30 4928 C 483.277 -1.48098 -0.594907 0
M  V30 4929 C 483.477 -0.717044 -1.8831 0
M  V30 4930 O 482.533 -0.246618 -2.51293 0
M  V30 4931 C 483.846 -2.92507 -0.697146 0
M  V30 4932 C 485.394 -3.02881 -0.789436 0
M  V30 4933 C 485.869 -4.48598 -0.923232 0
M  V30 4934 N 487.36 -4.52538 -0.988088 0
M  V30 4935 C 488.095 -5.62536 -1.11089 0
M  V30 4936 N 487.591 -6.82342 -1.19919 0
M  V30 4937 N 489.384 -5.50334 -1.14408 0
M  V30 4938 H 481.535 -2.0377 0.599278 0
M  V30 4939 H 483.798 -0.925145 0.20691 0
M  V30 4940 H 483.504 -3.51242 0.179396 0
M  V30 4941 H 483.378 -3.43024 -1.5689 0
M  V30 4942 H 485.765 -2.44226 -1.65643 0
M  V30 4943 H 485.846 -2.55574 0.107482 0
M  V30 4944 H 485.49 -5.07864 -0.0607927 0
M  V30 4945 H 485.42 -4.93587 -1.8352 0
M  V30 4946 H 487.911 -3.66248 -0.931167 0
M  V30 4947 H 488.224 -7.61924 -1.29197 0
M  V30 4948 H 486.569 -6.85102 -1.16876 0
M  V30 4949 H 489.76 -4.5567 -1.07158 0
M  V30 4950 H 489.933 -6.36096 -1.23634 0
M  V30 4951 N 483.339 0.512053 -1.4905 0
M  V30 4952 C 484.287 1.63568 -1.65373 0
M  V30 4953 C 485.281 1.61228 -0.519806 0
M  V30 4954 O 486.487 1.65869 -0.699101 0
M  V30 4955 H 482.862 0.542019 -0.521267 0
M  V30 4956 H 484.833 1.4695 -2.59708 0
M  V30 4957 C 483.582 3.01761 -1.7273 0
M  V30 4958 H 482.905 3.04263 -2.59353 0
M  V30 4959 H 484.345 3.79948 -1.8819 0
M  V30 4960 C 482.804 3.33609 -0.46973 0
M  V30 4961 O 483.334 3.99607 0.409492 0
M  V30 4962 N 481.54 2.88651 -0.336003 0
M  V30 4963 H 481.087 2.35119 -1.05247 0
M  V30 4964 H 481.045 3.10328 0.504363 0
M  V30 4965 N 484.817 1.37938 0.762283 0
M  V30 4966 C 486.063 1.33866 1.52341 0
M  V30 4967 C 486.396 -0.0738961 1.94059 0
M  V30 4968 O 485.671 -1.03326 1.64785 0
M  V30 4969 C 485.954 2.28644 2.78197 0
M  V30 4970 C 485.807 3.78722 2.42672 0
M  V30 4971 C 487.126 2.21702 3.80179 0
M  V30 4972 H 484.245 0.487593 0.55265 0
M  V30 4973 H 486.887 1.68717 0.873767 0
M  V30 4974 H 485.037 1.99055 3.33631 0
M  V30 4975 H 486.709 4.18948 1.93081 0
M  V30 4976 H 484.952 3.96827 1.75244 0
M  V30 4977 H 485.623 4.40486 3.3268 0
M  V30 4978 H 488.099 2.47805 3.34263 0
M  V30 4979 H 486.975 2.90143 4.65949 0
M  V30 4980 H 487.236 1.21301 4.25133 0
M  V30 4981 N 486.295 -0.989507 1.22664 0
M  V30 4982 C 487.544 -1.72375 1.04737 0
M  V30 4983 C 487.857 -1.91096 -0.417316 0
M  V30 4984 O 489.063 -2.6188 -0.716334 0
M  V30 4985 C 487.519 -3.10161 1.82561 0
M  V30 4986 C 487.127 -2.99358 3.333 0
M  V30 4987 C 488.871 -3.87607 1.73093 0
M  V30 4988 C 486.778 -4.32319 4.03552 0
M  V30 4989 H 485.708 -0.646326 0.388302 0
M  V30 4990 H 488.359 -1.10437 1.46546 0
M  V30 4991 H 486.741 -3.728 1.33552 0
M  V30 4992 H 487.915 -2.45863 3.89728 0
M  V30 4993 H 486.23 -2.35392 3.43481 0
M  V30 4994 H 488.827 -4.86025 2.22899 0
M  V30 4995 H 489.17 -4.10509 0.691976 0
M  V30 4996 H 489.703 -3.31652 2.19663 0
M  V30 4997 H 486.442 -4.14616 5.07714 0
M  V30 4998 H 485.962 -4.85714 3.51911 0
M  V30 4999 H 487.641 -5.01051 4.09337 0
M  V30 5000 N 487.773 -1.03688 -1.18687 0
M  V30 5001 C 488.998 -0.757819 -1.93059 0
M  V30 5002 C 489.423 0.678353 -1.75442 0
M  V30 5003 O 488.781 1.46938 -1.06203 0
M  V30 5004 C 488.829 -1.12423 -3.42627 0
M  V30 5005 O 487.933 -0.247505 -4.11657 0
M  V30 5006 H 487.274 -0.279245 -0.602427 0
M  V30 5007 H 489.804 -1.3857 -1.5053 0
M  V30 5008 H 489.814 -1.08454 -3.93322 0
M  V30 5009 H 488.489 -2.17049 -3.54771 0
M  V30 5010 H 487.066 -0.34649 -3.71287 0
M  V30 5011 N 489.251 1.34841 -0.815825 0
M  V30 5012 C 490.5 1.97755 -0.396976 0
M  V30 5013 C 490.813 1.65422 1.04379 0
M  V30 5014 O 492.019 2.21771 1.5662 0
M  V30 5015 C 490.475 3.53818 -0.658869 0
M  V30 5016 C 490.083 3.95051 -2.11278 0
M  V30 5017 C 491.827 4.23397 -0.305834 0
M  V30 5018 C 489.734 5.43997 -2.31994 0
M  V30 5019 H 488.664 0.739985 -0.1447 0
M  V30 5020 H 491.315 1.53781 -1.00118 0
M  V30 5021 H 489.697 3.95997 0.0154112 0
M  V30 5022 H 490.871 3.63998 -2.82564 0
M  V30 5023 H 489.186 3.38388 -2.42657 0
M  V30 5024 H 491.783 5.32899 -0.43854 0
M  V30 5025 H 492.126 4.09508 0.748952 0
M  V30 5026 H 492.659 3.8667 -0.934403 0
M  V30 5027 H 489.398 5.62865 -3.35952 0
M  V30 5028 H 488.918 5.76589 -1.65244 0
M  V30 5029 H 490.597 6.10584 -2.14001 0
M  V30 5030 N 490.729 0.570148 1.46925 0
M  V30 5031 C 491.975 0.0510284 2.02736 0
M  V30 5032 C 492.308 -1.3006 1.44215 0
M  V30 5033 O 491.583 -1.84932 0.602521 0
M  V30 5034 C 491.866 -0.028215 3.60089 0
M  V30 5035 C 491.719 1.35142 4.29018 0
M  V30 5036 C 493.038 -0.735181 4.33916 0
M  V30 5037 H 490.157 0.0200178 0.736728 0
M  V30 5038 H 492.799 0.73493 1.75211 0
M  V30 5039 H 490.949 -0.610648 3.83671 0
M  V30 5040 H 492.621 1.97806 4.16738 0
M  V30 5041 H 490.864 1.9226 3.88868 0
M  V30 5042 H 491.535 1.24857 5.37694 0
M  V30 5043 H 494.011 -0.240519 4.15404 0
M  V30 5044 H 492.887 -0.759622 5.43618 0
M  V30 5045 H 493.148 -1.79397 4.04066 0
M  V30 5046 N 492.207 -1.54576 0.307264 0
M  V30 5047 C 493.155 -2.25208 -0.581723 0
M  V30 5048 C 494.149 -1.26031 -1.13192 0
M  V30 5049 O 495.355 -1.43862 -1.08184 0
M  V30 5050 H 491.73 -0.723173 -0.206214 0
M  V30 5051 H 493.701 -2.98378 0.0364663 0
M  V30 5052 C 492.45 -3.01086 -1.73904 0
M  V30 5053 H 491.773 -3.77208 -1.32491 0
M  V30 5054 H 493.213 -3.5378 -2.33701 0
M  V30 5055 C 491.672 -2.08422 -2.64692 0
M  V30 5056 O 492.202 -1.65636 -3.65961 0
M  V30 5057 N 490.408 -1.74247 -2.32564 0
M  V30 5058 H 489.955 -2.09238 -1.50257 0
M  V30 5059 H 489.913 -1.12524 -2.93574 0
M  V30 5060 N 493.685 -0.035106 -1.57561 0
M  V30 5061 C 494.595 0.960295 -2.14046 0
M  V30 5062 C 495.611 1.3529 -1.0942 0
M  V30 5063 O 496.787 1.43309 -1.41508 0
M  V30 5064 C 493.852 2.22214 -2.66124 0
M  V30 5065 C 492.913 1.8894 -3.85487 0
M  V30 5066 C 492.146 3.09109 -4.35072 0
M  V30 5067 O 492.369 4.21963 -3.83802 0
M  V30 5068 O 491.303 2.91058 -5.26848 0
M  V30 5069 H 495.129 0.509983 -2.99387 0
M  V30 5070 H 492.714 0.185853 -1.48239 0
M  V30 5071 H 494.596 2.96279 -2.99661 0
M  V30 5072 H 493.271 2.66414 -1.83862 0
M  V30 5073 H 492.178 1.12241 -3.56865 0
M  V30 5074 H 493.511 1.49551 -4.6893 0
M  V30 5075 N 495.163 1.55791 0.238111 0
M  V30 5076 C 496.391 1.82098 0.982233 0
M  V30 5077 C 496.806 0.612025 1.78605 0
M  V30 5078 O 496.163 -0.419381 1.77616 0
M  V30 5079 C 496.214 3.0673 1.91309 0
M  V30 5080 O 495.935 4.2296 1.14179 0
M  V30 5081 C 497.436 3.45903 2.77248 0
M  V30 5082 H 494.656 0.605748 0.288635 0
M  V30 5083 H 497.2 2.02862 0.258341 0
M  V30 5084 H 495.355 2.87991 2.59114 0
M  V30 5085 H 495.769 4.93653 1.7722 0
M  V30 5086 H 497.243 4.36189 3.38295 0
M  V30 5087 H 497.72 2.66891 3.48806 0
M  V30 5088 H 498.326 3.67024 2.14881 0
M  V30 5089 N 496.642 -0.504142 1.49319 0
M  V30 5090 C 497.867 -1.28729 1.62615 0
M  V30 5091 C 498.292 -1.85752 0.296309 0
M  V30 5092 O 497.65 -1.65704 -0.735649 0
M  V30 5093 C 497.698 -2.39561 2.69524 0
M  V30 5094 O 496.802 -3.43324 2.28478 0
M  V30 5095 H 496.143 -0.380172 0.544395 0
M  V30 5096 H 498.673 -0.603872 1.95485 0
M  V30 5097 H 498.683 -2.8537 2.91595 0
M  V30 5098 H 497.358 -1.97423 3.66056 0
M  V30 5099 H 495.935 -3.03455 2.16725 0
M  V30 5100 N 498.12 -1.38341 -0.754957 0
M  V30 5101 C 499.369 -1.33791 -1.5094 0
M  V30 5102 C 499.682 0.0699267 -1.95475 0
M  V30 5103 O 500.888 0.237956 -2.70455 0
M  V30 5104 C 499.344 -2.34934 -2.72643 0
M  V30 5105 C 498.952 -3.81332 -2.35138 0
M  V30 5106 C 500.696 -2.39425 -3.50536 0
M  V30 5107 C 498.603 -4.74164 -3.53444 0
M  V30 5108 H 497.533 -0.497314 -0.566741 0
M  V30 5109 H 500.184 -1.63888 -0.825403 0
M  V30 5110 H 498.566 -1.97878 -3.43017 0
M  V30 5111 H 499.74 -4.27319 -1.7244 0
M  V30 5112 H 498.055 -3.79946 -1.70382 0
M  V30 5113 H 500.652 -3.0598 -4.38498 0
M  V30 5114 H 500.995 -1.41278 -3.91594 0
M  V30 5115 H 501.528 -2.75274 -2.87174 0
M  V30 5116 H 498.267 -5.73501 -3.17453 0
M  V30 5117 H 497.787 -4.3287 -4.15191 0
M  V30 5118 H 499.466 -4.92111 -4.20043 0
M  V30 5119 N 499.598 0.982988 -1.23187 0
M  V30 5120 C 500.847 1.71817 -1.05649 0
M  V30 5121 C 501.16 1.91315 0.407176 0
M  V30 5122 O 502.366 2.62256 0.702436 0
M  V30 5123 C 500.822 3.09188 -1.84203 0
M  V30 5124 C 500.43 2.97586 -3.34882 0
M  V30 5125 C 502.174 3.86684 -1.75146 0
M  V30 5126 C 500.081 4.30173 -4.05839 0
M  V30 5127 H 499.011 0.644258 -0.391724 0
M  V30 5128 H 501.662 1.09659 -1.4713 0
M  V30 5129 H 500.044 3.72087 -1.35527 0
M  V30 5130 H 501.218 2.43793 -3.91026 0
M  V30 5131 H 499.533 2.33567 -3.44725 0
M  V30 5132 H 502.13 4.84836 -2.25473 0
M  V30 5133 H 502.473 4.10136 -0.713737 0
M  V30 5134 H 503.006 3.30482 -2.21419 0
M  V30 5135 H 499.745 4.11918 -5.09906 0
M  V30 5136 H 499.265 4.83841 -3.54482 0
M  V30 5137 H 500.944 4.98873 -4.11989 0
M  V30 5138 N 501.076 1.04316 1.18135 0
M  V30 5139 C 502.006 0.657299 2.24058 0
M  V30 5140 C 502.987 -0.340678 1.66654 0
M  V30 5141 O 504.172 -0.220223 1.92947 0
M  V30 5142 C 501.302 0.0220715 3.47293 0
M  V30 5143 C 500.256 0.943857 4.17463 0
M  V30 5144 C 499.582 0.172973 5.3442 0
M  V30 5145 C 500.882 2.26409 4.70677 0
M  V30 5146 H 502.576 1.5428 2.56589 0
M  V30 5147 H 500.122 0.743263 1.23335 0
M  V30 5148 H 502.075 -0.259607 4.206 0
M  V30 5149 H 500.799 -0.898323 3.14003 0
M  V30 5150 H 499.458 1.20996 3.46057 0
M  V30 5151 H 499.106 -0.749907 4.97379 0
M  V30 5152 H 498.806 0.787098 5.82304 0
M  V30 5153 H 500.33 -0.101628 6.10515 0
M  V30 5154 H 501.744 2.04294 5.35665 0
M  V30 5155 H 500.141 2.8314 5.29105 0
M  V30 5156 H 501.211 2.90883 3.87962 0
M  V30 5157 N 502.554 -1.34406 0.822964 0
M  V30 5158 C 503.464 -2.33298 0.246838 0
M  V30 5159 C 504.48 -1.62625 -0.618797 0
M  V30 5160 O 505.656 -1.94391 -0.526685 0
M  V30 5161 C 502.721 -3.41785 -0.581731 0
M  V30 5162 C 501.782 -4.28206 0.306309 0
M  V30 5163 C 501.015 -5.31512 -0.48281 0
M  V30 5164 O 501.238 -5.43973 -1.71607 0
M  V30 5165 O 500.172 -6.01749 0.134884 0
M  V30 5166 H 503.998 -2.84401 1.06534 0
M  V30 5167 H 501.583 -1.37466 0.585108 0
M  V30 5168 H 503.465 -4.08028 -1.05313 0
M  V30 5169 H 502.14 -2.92925 -1.37756 0
M  V30 5170 H 501.047 -3.64885 0.825199 0
M  V30 5171 H 502.38 -4.80507 1.06649 0
M  V30 5172 N 504.032 -0.577932 -1.46621 0
M  V30 5173 C 505.278 -0.0700937 -2.03279 0
M  V30 5174 C 505.633 1.27376 -1.44198 0
M  V30 5175 O 504.926 1.82097 -0.595911 0
M  V30 5176 C 505.12 0.0590832 -3.57351 0
M  V30 5177 C 504.949 -1.2707 -4.31374 0
M  V30 5178 C 503.719 -1.84357 -4.70469 0
M  V30 5179 C 505.917 -2.19278 -4.65211 0
M  V30 5180 N 503.899 -3.11124 -5.29221 0
M  V30 5181 C 505.27 -3.30631 -5.24484 0
M  V30 5182 C 507.325 -2.19018 -4.47142 0
M  V30 5183 C 506.028 -4.41849 -5.67593 0
M  V30 5184 C 508.054 -3.29262 -4.91264 0
M  V30 5185 C 507.416 -4.39335 -5.50604 0
M  V30 5186 H 503.515 -0.0683127 -0.779011 0
M  V30 5187 H 506.099 -0.76978 -1.78836 0
M  V30 5188 H 504.27 0.727929 -3.81518 0
M  V30 5189 H 506.002 0.57087 -4.00653 0
M  V30 5190 H 502.757 -1.37906 -4.53077 0
M  V30 5191 H 503.181 -3.75794 -5.63123 0
M  V30 5192 H 507.823 -1.35191 -4.00604 0
M  V30 5193 H 505.541 -5.26421 -6.13112 0
M  V30 5194 H 509.127 -3.30172 -4.79038 0
M  V30 5195 H 508.007 -5.23233 -5.84121 0
M  V30 5196 N 505.51 1.54411 -0.315457 0
M  V30 5197 C 506.46 2.20772 0.569549 0
M  V30 5198 C 507.444 1.18551 1.08787 0
M  V30 5199 O 508.636 1.44213 1.02624 0
M  V30 5200 C 505.765 2.96293 1.73394 0
M  V30 5201 C 504.851 4.05844 1.2309 0
M  V30 5202 N 505.242 5.03822 0.446927 0
M  V30 5203 C 503.54 4.19648 1.51035 0
M  V30 5204 C 504.241 5.8143 0.17725 0
M  V30 5205 N 503.217 5.38245 0.761118 0
M  V30 5206 H 507.019 2.93877 -0.0368076 0
M  V30 5207 H 504.533 1.61949 -0.120915 0
M  V30 5208 H 506.53 3.42313 2.37965 0
M  V30 5209 H 505.19 2.24708 2.34386 0
M  V30 5210 H 506.201 5.17821 0.0905027 0
M  V30 5211 H 502.878 3.59274 2.1267 0
M  V30 5212 H 504.268 6.70369 -0.45335 0
M  V30 5213 N 506.988 0.0434614 1.5754 0
M  V30 5214 C 508.399 -0.493343 1.80064 0
M  V30 5215 C 508.75 -1.71388 0.955023 0
M  V30 5216 O 507.875 -2.15736 0.169434 0
M  V30 5217 C 508.47 -0.90179 3.26578 0
M  V30 5218 C 507.029 -1.38362 3.50047 0
M  V30 5219 C 506.176 -0.355129 2.75017 0
M  V30 5220 H 509.127 0.2694 1.56397 0
M  V30 5221 H 509.148 -1.76523 3.37075 0
M  V30 5222 H 508.66 -0.013271 3.88098 0
M  V30 5223 H 506.761 -2.29159 2.93798 0
M  V30 5224 H 506.874 -1.3811 4.58762 0
M  V30 5225 H 505.238 -0.826348 2.40922 0
M  V30 5226 H 506.021 0.525172 3.39259 0
M  V30 5227 N 508.466 -1.55915 -0.229846 0
M  V30 5228 C 509.877 -1.68809 -0.797531 0
M  V30 5229 C 510.228 -0.643995 -1.8533 0
M  V30 5230 O 509.353 0.206492 -2.15413 0
M  V30 5231 C 509.948 -3.06043 -1.45338 0
M  V30 5232 C 508.507 -3.20819 -1.96856 0
M  V30 5233 C 507.654 -2.6472 -0.825736 0
M  V30 5234 H 510.605 -1.58699 -0.00533733 0
M  V30 5235 H 510.626 -3.01438 -2.32196 0
M  V30 5236 H 510.138 -3.82012 -0.684743 0
M  V30 5237 H 508.239 -2.49704 -2.76548 0
M  V30 5238 H 508.352 -4.27937 -2.15423 0
M  V30 5239 H 506.716 -2.22985 -1.23084 0
M  V30 5240 H 507.499 -3.43229 -0.0699019 0
M  V30 5241 N 509.944 0.496216 -1.49584 0
M  V30 5242 C 511.36 0.827814 -1.36453 0
M  V30 5243 C 511.56 1.97464 -0.401285 0
M  V30 5244 O 510.616 2.51958 0.165296 0
M  V30 5245 C 511.929 1.16352 -2.77277 0
M  V30 5246 C 513.477 1.27145 -2.86013 0
M  V30 5247 C 513.952 1.64042 -4.27615 0
M  V30 5248 N 515.443 1.71082 -4.30448 0
M  V30 5249 C 516.178 2.01085 -5.36984 0
M  V30 5250 N 515.674 2.2928 -6.5376 0
M  V30 5251 N 517.467 2.02376 -5.24405 0
M  V30 5252 H 509.618 -0.259947 -2.10803 0
M  V30 5253 H 511.881 -0.0537163 -0.946477 0
M  V30 5254 H 511.587 0.394153 -3.49484 0
M  V30 5255 H 511.461 2.10582 -3.12946 0
M  V30 5256 H 513.848 2.03152 -2.1404 0
M  V30 5257 H 513.929 0.309542 -2.5392 0
M  V30 5258 H 513.573 0.88583 -5.00115 0
M  V30 5259 H 513.503 2.6134 -4.57175 0
M  V30 5260 H 515.994 1.51434 -3.46232 0
M  V30 5261 H 516.307 2.51376 -7.30774 0
M  V30 5262 H 514.652 2.26726 -6.56978 0
M  V30 5263 H 517.843 1.79829 -4.32179 0
M  V30 5264 H 518.016 2.25425 -6.07526 0
M  V30 5265 N 511.423 1.38739 0.74761 0
M  V30 5266 C 512.333 1.38696 1.89211 0
M  V30 5267 C 513.349 0.283303 1.71678 0
M  V30 5268 O 514.525 0.522713 1.94498 0
M  V30 5269 C 511.59 1.21662 3.24653 0
M  V30 5270 C 510.651 2.41886 3.54669 0
M  V30 5271 C 509.884 2.25655 4.83648 0
M  V30 5272 O 510.107 1.25339 5.56459 0
M  V30 5273 O 509.041 3.14372 5.13277 0
M  V30 5274 H 512.867 2.35143 1.92202 0
M  V30 5275 H 510.452 1.19721 0.893708 0
M  V30 5276 H 512.334 1.14246 4.05618 0
M  V30 5277 H 511.009 0.283024 3.2246 0
M  V30 5278 H 509.916 2.54877 2.73841 0
M  V30 5279 H 511.249 3.33895 3.61628 0
M  V30 5280 N 512.901 -0.976442 1.23707 0
M  V30 5281 C 514.129 -1.75341 1.09833 0
M  V30 5282 C 514.544 -1.8553 -0.349885 0
M  V30 5283 O 513.901 -1.33732 -1.24185 0
M  V30 5284 C 513.952 -3.17833 1.72233 0
M  V30 5285 O 513.673 -3.08167 3.11391 0
M  V30 5286 C 515.174 -4.11906 1.63853 0
M  V30 5287 H 512.394 -0.550137 0.384175 0
M  V30 5288 H 514.938 -1.2265 1.63638 0
M  V30 5289 H 513.093 -3.67538 1.22452 0
M  V30 5290 H 513.507 -3.97897 3.41729 0
M  V30 5291 H 514.981 -5.09579 2.12211 0
M  V30 5292 H 515.458 -4.35109 0.598092 0
M  V30 5293 H 516.064 -3.68107 2.13019 0
M  V30 5294 N 514.379 -1.04941 -1.1758 0
M  V30 5295 C 515.627 -0.756492 -1.87408 0
M  V30 5296 C 515.948 0.718478 -1.81281 0
M  V30 5297 O 515.218 1.519 -1.23706 0
M  V30 5298 H 513.798 -0.276841 -0.693807 0
M  V30 5299 H 516.46 -1.32803 -1.42652 0
M  V30 5300 H 515.556 -1.06918 -2.93215 0
M  V30 5301 N 515.857 1.33968 -0.830081 0
M  V30 5302 C 517.105 1.97672 -0.420734 0
M  V30 5303 C 517.426 1.66111 1.02138 0
M  V30 5304 O 516.696 0.955503 1.71017 0
M  V30 5305 H 515.276 0.73125 -0.152587 0
M  V30 5306 H 517.938 1.63483 -1.0611 0
M  V30 5307 H 517.034 3.07294 -0.545588 0
M  V30 5308 N 517.335 0.585699 1.46312 0
M  V30 5309 C 518.751 0.247607 1.57668 0
M  V30 5310 C 518.951 -1.25007 1.58037 0
M  V30 5311 O 518.007 -2.03196 1.49893 0
M  V30 5312 C 519.32 0.899456 2.86933 0
M  V30 5313 C 520.868 0.873326 3.00569 0
M  V30 5314 C 521.343 1.50477 4.32574 0
M  V30 5315 N 522.834 1.46925 4.3928 0
M  V30 5316 C 523.569 1.92719 5.40044 0
M  V30 5317 N 523.065 2.46499 6.47464 0
M  V30 5318 N 524.858 1.83617 5.31264 0
M  V30 5319 H 517.009 1.55841 1.44317 0
M  V30 5320 H 519.272 0.651564 0.688599 0
M  V30 5321 H 518.978 1.95313 2.92482 0
M  V30 5322 H 518.852 0.409476 3.74971 0
M  V30 5323 H 521.239 -0.171736 2.946 0
M  V30 5324 H 521.32 1.40136 2.13999 0
M  V30 5325 H 520.964 2.54905 4.39302 0
M  V30 5326 H 520.894 0.951944 5.17924 0
M  V30 5327 H 523.385 1.07616 3.62253 0
M  V30 5328 H 523.698 2.79291 7.20567 0
M  V30 5329 H 522.043 2.50526 6.48276 0
M  V30 5330 H 525.234 1.41358 4.46246 0
M  V30 5331 H 525.407 2.19622 6.09648 0
M  V30 5332 N 518.813 -1.54241 0.323641 0
M  V30 5333 C 520.09 -1.92741 -0.333181 0
M  V30 5334 C 520.47 -1.25326 -1.69872 0
M  V30 5335 O 519.818 -0.396991 -2.25025 0
M  V30 5336 C 520.028 -3.46399 -0.425322 0
M  V30 5337 C 521.376 -4.19029 -0.68557 0
M  V30 5338 O 522.4 -3.52555 -0.50824 0
M  V30 5339 O 521.259 -5.36751 -1.02767 0
M  V30 5340 H 518.353 -0.804811 -0.190286 0
M  V30 5341 H 520.899 -1.65542 0.373361 0
M  V30 5342 H 519.671 -3.87643 0.533737 0
M  V30 5343 H 519.294 -3.79704 -1.17944 0
M  V30 5344 N 520.291 -0.0518155 -1.57515 0
M  V30 5345 C 521.568 0.661727 -1.84067 0
M  V30 5346 C 521.948 1.88999 -0.940351 0
M  V30 5347 O 521.296 2.285 -0.00155404 0
M  V30 5348 C 521.506 1.01841 -3.3381 0
M  V30 5349 C 522.854 1.40043 -4.00841 0
M  V30 5350 O 523.878 1.11073 -3.38439 0
M  V30 5351 O 522.737 1.94111 -5.10865 0
M  V30 5352 H 519.831 0.326702 -0.759733 0
M  V30 5353 H 522.377 -0.0812277 -1.69505 0
M  V30 5354 H 521.149 0.145202 -3.91031 0
M  V30 5355 H 520.772 1.81879 -3.53562 0
M  V30 5356 N 521.769 1.56035 0.221574 0
M  V30 5357 C 523.015 1.79312 0.947372 0
M  V30 5358 C 523.348 0.621453 1.83988 0
M  V30 5359 O 522.623 -0.379287 1.90766 0
M  V30 5360 C 522.906 3.1267 1.78633 0
M  V30 5361 C 522.759 4.40284 0.920312 0
M  V30 5362 C 524.078 3.4247 2.7641 0
M  V30 5363 H 521.197 0.652328 0.342982 0
M  V30 5364 H 523.839 1.88765 0.216244 0
M  V30 5365 H 521.989 3.04741 2.40967 0
M  V30 5366 H 523.661 4.60232 0.313718 0
M  V30 5367 H 521.904 4.33212 0.225734 0
M  V30 5368 H 522.575 5.30033 1.54171 0
M  V30 5369 H 525.051 3.50526 2.24211 0
M  V30 5370 H 523.927 4.3695 3.32213 0
M  V30 5371 H 524.188 2.64635 3.54148 0
M  V30 5372 N 523.247 -0.488276 1.49845 0
M  V30 5373 C 524.475 -1.26527 1.63702 0
M  V30 5374 C 524.89 -1.8618 0.313447 0
M  V30 5375 O 524.247 -1.68432 -0.702624 0
M  V30 5376 C 524.298 -2.3864 2.71538 0
M  V30 5377 O 524.019 -1.81437 3.98763 0
M  V30 5378 C 525.52 -3.29805 2.96215 0
M  V30 5379 H 522.74 -0.383295 0.55075 0
M  V30 5380 H 525.284 -0.584779 1.95961 0
M  V30 5381 H 523.439 -3.02496 2.42023 0
M  V30 5382 H 523.853 -2.55135 4.58265 0
M  V30 5383 H 525.327 -4.04722 3.75372 0
M  V30 5384 H 525.804 -3.87563 2.06619 0
M  V30 5385 H 526.41 -2.71703 3.27196 0
M  V30 5386 N 524.725 -1.39134 -0.740242 0
M  V30 5387 C 525.955 -1.39132 -1.52728 0
M  V30 5388 C 526.363 0.0173133 -1.89192 0
M  V30 5389 O 525.706 0.997715 -1.54244 0
M  V30 5390 C 525.768 -2.1952 -2.84695 0
M  V30 5391 C 525.432 -3.68203 -2.70695 0
M  V30 5392 C 526.429 -4.61401 -2.39593 0
M  V30 5393 C 524.114 -4.11724 -2.8773 0
M  V30 5394 C 526.108 -5.96102 -2.25701 0
M  V30 5395 C 523.795 -5.46503 -2.73456 0
M  V30 5396 C 524.793 -6.38506 -2.42486 0
M  V30 5397 O 524.481 -7.70803 -2.28295 0
M  V30 5398 H 524.213 -0.477263 -0.478744 0
M  V30 5399 H 526.767 -1.83504 -0.922799 0
M  V30 5400 H 524.997 -1.69888 -3.47383 0
M  V30 5401 H 526.686 -2.1176 -3.46284 0
M  V30 5402 H 527.452 -4.29079 -2.26088 0
M  V30 5403 H 523.331 -3.4045 -3.10829 0
M  V30 5404 H 526.875 -6.6788 -2.0145 0
M  V30 5405 H 522.772 -5.78417 -2.86538 0
M  V30 5406 H 523.54 -7.8147 -2.43405 0
M  V30 5407 N 526.204 0.969867 -1.24223 0
M  V30 5408 C 527.152 2.08535 -1.03034 0
M  V30 5409 C 528.146 1.69366 0.0340379 0
M  V30 5410 O 529.352 1.79597 -0.12034 0
M  V30 5411 H 525.727 0.682313 -0.316154 0
M  V30 5412 H 527.698 2.23569 -1.97635 0
M  V30 5413 C 526.447 3.4158 -0.649509 0
M  V30 5414 H 525.77 3.72177 -1.46028 0
M  V30 5415 H 527.21 4.20536 -0.540841 0
M  V30 5416 C 525.669 3.30703 0.643194 0
M  V30 5417 O 526.199 3.64443 1.68951 0
M  V30 5418 N 524.405 2.83841 0.623095 0
M  V30 5419 H 523.952 2.56583 -0.228719 0
M  V30 5420 H 523.91 2.76946 1.48823 0
M  V30 5421 N 527.682 1.05563 1.17022 0
M  V30 5422 C 528.931 0.763036 1.8671 0
M  V30 5423 C 529.244 -0.712857 1.82147 0
M  V30 5424 O 530.45 -1.11955 2.47343 0
M  V30 5425 C 528.906 1.31474 3.35026 0
M  V30 5426 C 528.514 2.82034 3.48081 0
M  V30 5427 C 530.258 1.09935 4.10018 0
M  V30 5428 C 528.165 3.30486 4.90442 0
M  V30 5429 H 527.095 0.281747 0.699382 0
M  V30 5430 H 529.746 1.2734 1.32124 0
M  V30 5431 H 528.128 0.732171 3.89173 0
M  V30 5432 H 529.302 3.46178 3.04133 0
M  V30 5433 H 527.617 3.02156 2.86515 0
M  V30 5434 H 530.214 1.43632 5.15048 0
M  V30 5435 H 530.557 0.0373072 4.16283 0
M  V30 5436 H 531.09 1.64732 3.62089 0
M  V30 5437 H 527.829 4.36137 4.89352 0
M  V30 5438 H 527.349 2.71086 5.35044 0
M  V30 5439 H 529.028 3.25382 5.59227 0
M  V30 5440 N 529.16 -1.33526 0.837174 0
M  V30 5441 C 530.409 -1.97098 0.428387 0
M  V30 5442 C 530.722 -1.67062 -1.01734 0
M  V30 5443 O 531.928 -2.24235 -1.53072 0
M  V30 5444 C 530.384 -3.52725 0.715075 0
M  V30 5445 C 529.992 -3.9164 2.17537 0
M  V30 5446 C 531.736 -4.22857 0.373154 0
M  V30 5447 C 529.643 -5.40237 2.40619 0
M  V30 5448 H 528.573 -0.737589 0.156455 0
M  V30 5449 H 531.224 -1.52169 1.02552 0
M  V30 5450 H 529.606 -3.95971 0.0475904 0
M  V30 5451 H 530.78 -3.59456 2.88319 0
M  V30 5452 H 529.095 -3.34485 2.4801 0
M  V30 5453 H 531.692 -5.32133 0.523264 0
M  V30 5454 H 532.035 -4.10647 -0.683708 0
M  V30 5455 H 532.568 -3.85135 0.995801 0
M  V30 5456 H 529.307 -5.57449 3.44864 0
M  V30 5457 H 528.827 -5.73887 1.74396 0
M  V30 5458 H 530.506 -6.07102 2.23688 0
M  V30 5459 N 530.638 -0.59345 -1.46 0
M  V30 5460 C 531.878 -0.0859747 -2.04219 0
M  V30 5461 C 532.242 1.25432 -1.45364 0
M  V30 5462 O 533.443 1.85168 -1.9485 0
M  V30 5463 C 531.714 -0.0324314 -3.57385 0
M  V30 5464 S 533.273 0.415908 -4.36824 0
M  V30 5465 H 530.091 -0.0426872 -0.709717 0
M  V30 5466 H 532.693 -0.788369 -1.78899 0
M  V30 5467 H 531.397 -1.01166 -3.97735 0
M  V30 5468 H 530.928 0.6924 -3.87259 0
M  V30 5469 H 532.943 1.66844 -4.67309 0
M  V30 5470 N 532.116 1.54067 -0.331816 0
M  V30 5471 C 533.063 2.24623 0.530372 0
M  V30 5472 C 534.033 1.24009 1.10503 0
M  V30 5473 O 535.218 1.52712 1.14384 0
M  V30 5474 C 532.358 3.01374 1.68129 0
M  V30 5475 C 531.471 4.16821 1.13507 0
M  V30 5476 C 530.606 4.81085 2.25234 0
M  V30 5477 C 529.645 5.88621 1.67903 0
M  V30 5478 N 528.782 6.46713 2.73326 0
M  V30 5479 H 533.622 2.97898 -0.0778607 0
M  V30 5480 H 531.159 1.47014 -0.0501965 0
M  V30 5481 H 533.117 3.44125 2.35868 0
M  V30 5482 H 531.747 2.30419 2.26069 0
M  V30 5483 H 530.799 3.78796 0.348979 0
M  V30 5484 H 532.111 4.94203 0.675633 0
M  V30 5485 H 531.265 5.26846 3.00862 0
M  V30 5486 H 530.004 4.03102 2.74518 0
M  V30 5487 H 529.009 5.42254 0.907773 0
M  V30 5488 H 530.234 6.68506 1.19487 0
M  V30 5489 H 528.18 5.71599 3.21886 0
M  V30 5490 H 528.097 7.19532 2.3197 0
M  V30 5491 H 529.365 6.97129 3.48758 0
M  V30 5492 N 533.594 0.0601682 1.57485 0
M  V30 5493 C 534.541 -0.91112 2.12055 0
M  V30 5494 C 535.511 -1.30298 1.03013 0
M  V30 5495 O 536.696 -1.39087 1.30612 0
M  V30 5496 C 533.836 -2.1775 2.67729 0
M  V30 5497 C 532.949 -1.83933 3.90887 0
M  V30 5498 C 532.084 -3.05096 4.34845 0
M  V30 5499 C 531.123 -2.67241 5.5068 0
M  V30 5500 N 530.26 -3.81127 5.8965 0
M  V30 5501 H 535.1 -0.43888 2.9475 0
M  V30 5502 H 532.637 -0.204995 1.45665 0
M  V30 5503 H 534.595 -2.91866 2.98111 0
M  V30 5504 H 533.225 -2.62535 1.87816 0
M  V30 5505 H 532.277 -0.999287 3.6704 0
M  V30 5506 H 533.589 -1.52074 4.75052 0
M  V30 5507 H 532.743 -3.87502 4.66827 0
M  V30 5508 H 531.482 -3.40139 3.49509 0
M  V30 5509 H 530.487 -1.83254 5.18361 0
M  V30 5510 H 531.712 -2.3338 6.37738 0
M  V30 5511 H 529.658 -4.15954 5.07266 0
M  V30 5512 H 529.575 -3.52997 6.68528 0
M  V30 5513 H 530.843 -4.64145 6.2625 0
M  V30 5514 N 535.072 -1.5615 -0.213296 0
M  V30 5515 C 536.312 -1.81325 -0.943435 0
M  V30 5516 C 536.676 -0.634934 -1.81198 0
M  V30 5517 O 537.877 -0.766166 -2.5765 0
M  V30 5518 C 536.148 -3.11437 -1.75334 0
M  V30 5519 S 537.707 -3.57955 -2.53799 0
M  V30 5520 H 534.525 -0.636538 -0.316766 0
M  V30 5521 H 537.127 -1.94387 -0.208313 0
M  V30 5522 H 535.831 -3.95228 -1.10556 0
M  V30 5523 H 535.362 -3.01204 -2.53061 0
M  V30 5524 H 537.377 -3.21947 -3.77577 0
M  V30 5525 N 536.55 0.480323 -1.50102 0
M  V30 5526 C 537.966 0.813295 -1.37323 0
M  V30 5527 C 538.166 1.97027 -0.422206 0
M  V30 5528 O 537.222 2.5212 0.138563 0
M  V30 5529 C 538.535 1.13404 -2.78496 0
M  V30 5530 C 540.083 1.24104 -2.87345 0
M  V30 5531 C 540.558 1.59497 -4.29331 0
M  V30 5532 N 542.049 1.66507 -4.32238 0
M  V30 5533 C 542.784 1.95378 -5.39087 0
M  V30 5534 N 542.28 2.22333 -6.56155 0
M  V30 5535 N 544.073 1.96803 -5.26522 0
M  V30 5536 H 536.224 -0.282291 -2.10516 0
M  V30 5537 H 538.487 -0.063752 -0.945854 0
M  V30 5538 H 538.193 0.357064 -3.49883 0
M  V30 5539 H 538.067 2.07251 -3.15162 0
M  V30 5540 H 540.454 2.00871 -2.16183 0
M  V30 5541 H 540.535 0.282593 -2.54234 0
M  V30 5542 H 540.179 0.832736 -5.01027 0
M  V30 5543 H 540.109 2.56477 -4.59921 0
M  V30 5544 H 542.6 1.47753 -3.47818 0
M  V30 5545 H 542.913 2.43611 -7.33399 0
M  V30 5546 H 541.258 2.19745 -6.59346 0
M  V30 5547 H 544.449 1.75235 -4.34062 0
M  V30 5548 H 544.622 2.18969 -6.09883 0
M  V30 5549 N 538.028 1.39524 0.732853 0
M  V30 5550 C 538.991 1.38189 1.82857 0
M  V30 5551 C 539.991 0.278624 1.58368 0
M  V30 5552 O 541.181 0.536639 1.65728 0
M  V30 5553 C 538.313 1.15661 3.2068 0
M  V30 5554 H 539.506 2.35692 1.85444 0
M  V30 5555 H 537.059 1.2512 0.936728 0
M  V30 5556 H 537.794 0.188482 3.23752 0
M  V30 5557 H 537.579 1.95559 3.39852 0
M  V30 5558 H 539.069 1.17472 4.00737 0
M  V30 5559 N 539.506 -0.963266 1.24736 0
M  V30 5560 C 540.783 -1.68248 0.9976 0
M  V30 5561 C 541.163 -2.05599 -0.478776 0
M  V30 5562 O 540.511 -1.7626 -1.45412 0
M  V30 5563 C 540.721 -2.91118 1.92487 0
M  V30 5564 C 542.069 -3.63261 2.19833 0
M  V30 5565 O 543.093 -3.01184 1.90176 0
M  V30 5566 O 541.952 -4.75019 2.7022 0
M  V30 5567 H 539.046 -0.735744 0.377637 0
M  V30 5568 H 541.592 -1.01696 1.35853 0
M  V30 5569 H 540.364 -2.60242 2.92215 0
M  V30 5570 H 539.987 -3.65402 1.56738 0
M  V30 5571 N 540.985 -1.06182 -1.16461 0
M  V30 5572 C 542.401 -0.785065 -1.38956 0
M  V30 5573 C 542.601 0.616103 -1.9185 0
M  V30 5574 O 541.657 1.37686 -2.11657 0
M  V30 5575 C 542.97 -1.84902 -2.37132 0
M  V30 5576 C 544.518 -1.8724 -2.50819 0
M  V30 5577 C 544.993 -2.92686 -3.52277 0
M  V30 5578 N 546.484 -2.91712 -3.59803 0
M  V30 5579 C 547.219 -3.69949 -4.38093 0
M  V30 5580 N 546.715 -4.58 -5.19815 0
M  V30 5581 N 548.508 -3.58346 -4.33064 0
M  V30 5582 H 540.659 -1.96569 -0.804634 0
M  V30 5583 H 542.922 -0.851747 -0.416211 0
M  V30 5584 H 542.628 -2.85518 -2.0536 0
M  V30 5585 H 542.502 -1.69908 -3.36766 0
M  V30 5586 H 544.889 -0.872827 -2.81897 0
M  V30 5587 H 544.97 -2.06311 -1.51226 0
M  V30 5588 H 544.614 -3.92835 -3.21937 0
M  V30 5589 H 544.544 -2.70864 -4.51598 0
M  V30 5590 H 547.035 -2.27876 -3.01464 0
M  V30 5591 H 547.348 -5.14357 -5.76764 0
M  V30 5592 H 545.693 -4.62056 -5.19162 0
M  V30 5593 H 548.884 -2.88943 -3.68279 0
M  V30 5594 H 549.057 -4.19563 -4.93833 0
M  V30 5595 N 542.463 1.3308 -0.844243 0
M  V30 5596 C 543.879 1.50447 -0.532729 0
M  V30 5597 C 544.079 1.78292 0.938837 0
M  V30 5598 O 543.135 1.84635 1.72239 0
M  V30 5599 C 544.448 2.65555 -1.41072 0
M  V30 5600 C 545.996 2.7944 -1.41005 0
M  V30 5601 C 546.471 3.97616 -2.27301 0
M  V30 5602 N 547.962 4.0486 -2.2504 0
M  V30 5603 C 548.697 4.95508 -2.88547 0
M  V30 5604 N 548.193 5.91236 -3.61126 0
M  V30 5605 N 549.986 4.88548 -2.77989 0
M  V30 5606 H 542.137 1.13269 -1.79677 0
M  V30 5607 H 544.4 0.55734 -0.766861 0
M  V30 5608 H 544.106 2.51675 -2.45668 0
M  V30 5609 H 543.98 3.61089 -1.09061 0
M  V30 5610 H 546.367 2.92749 -0.371784 0
M  V30 5611 H 546.448 1.8465 -1.77026 0
M  V30 5612 H 546.092 3.85066 -3.3119 0
M  V30 5613 H 546.022 4.91661 -1.88619 0
M  V30 5614 H 548.513 3.36353 -1.72264 0
M  V30 5615 H 548.826 6.57079 -4.06776 0
M  V30 5616 H 547.171 5.91295 -3.65234 0
M  V30 5617 H 550.362 4.12729 -2.20846 0
M  V30 5618 H 550.535 5.58994 -3.27765 0
M  V30 5619 N 543.941 0.601185 1.45683 0
M  V30 5620 C 545.166 0.0982245 2.07167 0
M  V30 5621 C 545.591 -1.20546 1.44396 0
M  V30 5622 O 544.949 -1.73247 0.534347 0
M  V30 5623 C 544.997 -0.0346976 3.60583 0
M  V30 5624 O 544.101 -1.08657 3.97828 0
M  V30 5625 H 543.442 0.0711618 0.660176 0
M  V30 5626 H 545.972 0.829376 1.87036 0
M  V30 5627 H 545.982 -0.234969 4.07323 0
M  V30 5628 H 544.657 0.917265 4.05659 0
M  V30 5629 H 543.234 -0.863275 3.6277 0
M  V30 5630 N 545.419 -1.53889 0.339982 0
M  V30 5631 C 546.659 -2.02765 -0.258011 0
M  V30 5632 C 547.023 -1.22249 -1.48051 0
M  V30 5633 O 548.224 -1.61007 -2.15245 0
M  V30 5634 C 546.495 -3.5286 -0.567872 0
M  V30 5635 S 548.054 -4.23647 -1.14318 0
M  V30 5636 H 544.872 -0.706814 -0.0770389 0
M  V30 5637 H 547.474 -1.89594 0.476917 0
M  V30 5638 H 546.178 -4.09073 0.329745 0
M  V30 5639 H 545.709 -3.70144 -1.33256 0
M  V30 5640 H 547.724 -4.32676 -2.42911 0
M  V30 5641 N 546.897 -0.0685191 -1.57451 0
M  V30 5642 C 548.122 0.613919 -1.98106 0
M  V30 5643 C 548.547 1.62551 -0.946501 0
M  V30 5644 O 547.905 1.81085 0.0882824 0
M  V30 5645 C 547.953 1.26189 -3.378 0
M  V30 5646 O 547.057 2.37773 -3.36954 0
M  V30 5647 H 546.398 0.158163 -0.644888 0
M  V30 5648 H 548.928 -0.142063 -2.04106 0
M  V30 5649 H 548.938 1.60951 -3.74912 0
M  V30 5650 H 547.613 0.520625 -4.12629 0
M  V30 5651 H 546.19 2.04829 -3.11608 0
M  V30 5652 N 548.375 1.56261 0.205012 0
M  V30 5653 C 549.791 1.49623 0.555433 0
M  V30 5654 C 549.991 0.766719 1.86343 0
M  V30 5655 O 549.047 0.313158 2.50551 0
M  V30 5656 C 550.36 2.94253 0.619347 0
M  V30 5657 C 551.908 3.04868 0.708855 0
M  V30 5658 C 552.383 4.50888 0.803969 0
M  V30 5659 N 553.874 4.54999 0.867758 0
M  V30 5660 C 554.609 5.65284 0.96135 0
M  V30 5661 N 554.105 6.85282 1.01786 0
M  V30 5662 N 555.898 5.53174 0.997771 0
M  V30 5663 H 548.049 2.0211 -0.653094 0
M  V30 5664 H 550.312 0.919333 -0.231366 0
M  V30 5665 H 550.018 3.50643 -0.272458 0
M  V30 5666 H 549.892 3.47063 1.47741 0
M  V30 5667 H 552.279 2.48532 1.5911 0
M  V30 5668 H 552.36 2.55199 -0.175205 0
M  V30 5669 H 552.004 5.07846 -0.0738798 0
M  V30 5670 H 551.934 4.98279 1.70369 0
M  V30 5671 H 554.425 3.68588 0.833735 0
M  V30 5672 H 554.738 7.65081 1.08951 0
M  V30 5673 H 553.083 6.8796 0.986706 0
M  V30 5674 H 556.274 4.5835 0.950392 0
M  V30 5675 H 556.447 6.39151 1.06725 0
M  V30 5676 N 549.853 -0.472356 1.50355 0
M  V30 5677 C 551.093 -1.23439 1.62918 0
M  V30 5678 C 551.457 -1.89284 0.321801 0
M  V30 5679 O 552.658 -2.66854 0.322852 0
M  V30 5680 C 550.929 -2.25119 2.7759 0
M  V30 5681 S 552.488 -3.10278 3.10279 0
M  V30 5682 H 549.306 -0.41911 0.574341 0
M  V30 5683 H 551.908 -0.531621 1.88133 0
M  V30 5684 H 550.612 -1.75324 3.71066 0
M  V30 5685 H 550.143 -3.00026 2.54457 0
M  V30 5686 H 552.158 -4.26257 2.54007 0
M  V30 5687 N 551.331 -1.39911 -0.725443 0
M  V30 5688 C 552.608 -1.28158 -1.47766 0
M  V30 5689 C 552.988 0.104545 -2.10841 0
M  V30 5690 O 552.336 1.11657 -1.99361 0
M  V30 5691 C 552.546 -2.41306 -2.52135 0
M  V30 5692 C 553.894 -2.81076 -3.18247 0
M  V30 5693 O 554.918 -2.40827 -2.62452 0
M  V30 5694 O 553.777 -3.50581 -4.19231 0
M  V30 5695 H 550.871 -0.502761 -0.656628 0
M  V30 5696 H 553.417 -1.51808 -0.758456 0
M  V30 5697 H 552.189 -3.33932 -2.03974 0
M  V30 5698 H 551.812 -2.19374 -3.31603 0
M  V30 5699 N 552.809 0.956637 -1.25245 0
M  V30 5700 C 554.086 1.67716 -1.00651 0
M  V30 5701 C 554.466 2.0585 0.467866 0
M  V30 5702 O 553.814 1.77029 1.44475 0
M  V30 5703 C 554.024 2.90093 -1.94028 0
M  V30 5704 C 555.372 3.6209 -2.21756 0
M  V30 5705 O 556.396 3.00171 -1.9177 0
M  V30 5706 O 555.255 4.7358 -2.72735 0
M  V30 5707 H 552.349 0.733731 -0.381533 0
M  V30 5708 H 554.895 1.00974 -1.3639 0
M  V30 5709 H 553.667 2.58689 -2.93591 0
M  V30 5710 H 553.29 3.64566 -1.58674 0
M  V30 5711 N 554.287 1.06798 1.15896 0
M  V30 5712 C 555.235 0.677525 2.22514 0
M  V30 5713 C 556.229 -0.308994 1.66558 0
M  V30 5714 O 557.435 -0.173308 1.79164 0
M  V30 5715 H 553.81 0.200994 0.724642 0
M  V30 5716 H 555.781 1.5865 2.52731 0
M  V30 5717 C 554.53 0.0854153 3.47595 0
M  V30 5718 H 553.853 0.835645 3.90969 0
M  V30 5719 H 555.293 -0.150199 4.23734 0
M  V30 5720 C 553.752 -1.1724 3.15843 0
M  V30 5721 O 554.282 -2.25965 3.32119 0
M  V30 5722 N 552.488 -1.07636 2.69931 0
M  V30 5723 H 552.035 -0.191559 2.56887 0
M  V30 5724 H 551.993 -1.91876 2.4906 0
M  V30 5725 N 555.766 -1.3263 0.851289 0
M  V30 5726 C 557.012 -1.9766 0.453694 0
M  V30 5727 C 557.345 -1.67225 -0.987396 0
M  V30 5728 O 556.62 -0.958693 -1.69232 0
M  V30 5729 C 556.903 -3.5344 0.68936 0
M  V30 5730 C 556.756 -3.93517 2.17862 0
M  V30 5731 C 558.075 -4.39866 0.143555 0
M  V30 5732 H 555.194 -0.717989 0.166314 0
M  V30 5733 H 557.836 -1.57068 1.06909 0
M  V30 5734 H 555.986 -3.88147 0.165546 0
M  V30 5735 H 557.658 -3.69006 2.76826 0
M  V30 5736 H 555.901 -3.42798 2.65841 0
M  V30 5737 H 556.572 -5.02065 2.29422 0
M  V30 5738 H 559.048 -4.11875 0.591451 0
M  V30 5739 H 557.924 -5.47858 0.338043 0
M  V30 5740 H 558.185 -4.31696 -0.953466 0
M  V30 5741 N 557.244 -0.608902 -1.45362 0
M  V30 5742 C 558.154 0.110969 -2.34337 0
M  V30 5743 C 559.17 0.859007 -1.51318 0
M  V30 5744 O 560.346 0.816296 -1.84116 0
M  V30 5745 C 557.411 1.09494 -3.28956 0
M  V30 5746 C 556.472 0.348718 -4.27881 0
M  V30 5747 C 555.705 1.28582 -5.17979 0
M  V30 5748 O 555.928 2.52369 -5.11533 0
M  V30 5749 O 554.862 0.782172 -5.96796 0
M  V30 5750 H 558.688 -0.620258 -2.97299 0
M  V30 5751 H 556.273 -0.36916 -1.44767 0
M  V30 5752 H 558.155 1.66163 -3.87257 0
M  V30 5753 H 556.83 1.80717 -2.68557 0
M  V30 5754 H 555.737 -0.260465 -3.73192 0
M  V30 5755 H 557.07 -0.323049 -4.91139 0
M  V30 5756 N 558.722 1.53707 -0.348139 0
M  V30 5757 C 559.969 2.00988 0.246966 0
M  V30 5758 C 560.297 1.23586 1.50189 0
M  V30 5759 O 559.552 0.312817 1.93184 0
M  V30 5760 C 559.851 3.52292 0.602061 0
M  V30 5761 C 559.517 4.47453 -0.556509 0
M  V30 5762 C 558.179 4.73188 -0.874446 0
M  V30 5763 C 560.531 5.03851 -1.33354 0
M  V30 5764 C 557.859 5.52577 -1.9717 0
M  V30 5765 C 560.211 5.84437 -2.42108 0
M  V30 5766 C 558.875 6.08465 -2.74456 0
M  V30 5767 H 558.145 0.735469 0.0903712 0
M  V30 5768 H 560.792 1.85464 -0.477001 0
M  V30 5769 H 559.097 3.65672 1.40681 0
M  V30 5770 H 560.794 3.86337 1.07447 0
M  V30 5771 H 557.384 4.27558 -0.298652 0
M  V30 5772 H 561.568 4.8393 -1.10117 0
M  V30 5773 H 556.824 5.69418 -2.22651 0
M  V30 5774 H 560.998 6.27151 -3.02745 0
M  V30 5775 H 558.625 6.69768 -3.59604 0
M  V30 5776 N 560.2 0.0768682 1.57412 0
M  V30 5777 C 561.446 -0.591961 1.93968 0
M  V30 5778 C 561.779 -1.68954 0.9575 0
M  V30 5779 O 561.054 -1.94496 -0.0124675 0
M  V30 5780 C 561.337 -1.16418 3.40762 0
M  V30 5781 C 561.19 -0.0728933 4.49741 0
M  V30 5782 C 562.509 -2.06814 3.88479 0
M  V30 5783 H 559.628 -0.213716 0.705333 0
M  V30 5784 H 562.27 0.14387 1.89455 0
M  V30 5785 H 560.42 -1.79128 3.4474 0
M  V30 5786 H 562.092 0.560446 4.57883 0
M  V30 5787 H 560.335 0.595859 4.29688 0
M  V30 5788 H 561.006 -0.513755 5.49604 0
M  V30 5789 H 563.482 -1.54033 3.8654 0
M  V30 5790 H 562.358 -2.43785 4.91793 0
M  V30 5791 H 562.619 -2.97844 3.26713 0
M  V30 5792 N 561.678 -1.56367 -0.196722 0
M  V30 5793 C 563.089 -1.70462 -0.761545 0
M  V30 5794 C 563.44 -0.683161 -1.83922 0
M  V30 5795 O 562.565 0.160753 -2.15802 0
M  V30 5796 C 563.16 -3.09057 -1.38814 0
M  V30 5797 C 561.719 -3.24922 -1.90007 0
M  V30 5798 C 560.866 -2.66412 -0.769399 0
M  V30 5799 H 563.817 -1.58675 0.0283263 0
M  V30 5800 H 563.838 -3.06296 -2.2575 0
M  V30 5801 H 563.35 -3.83378 -0.603559 0
M  V30 5802 H 561.451 -2.55514 -2.71189 0
M  V30 5803 H 561.564 -4.3241 -2.06297 0
M  V30 5804 H 559.928 -2.25546 -1.18326 0
M  V30 5805 H 560.711 -3.433 0.00291773 0
M  V30 5806 N 563.156 0.464375 -1.50603 0
M  V30 5807 C 564.572 0.798684 -1.38178 0
M  V30 5808 C 564.772 1.96568 -0.44308 0
M  V30 5809 O 563.828 2.52252 0.111814 0
M  V30 5810 C 565.141 1.10444 -2.79683 0
M  V30 5811 C 566.689 1.2105 -2.88645 0
M  V30 5812 C 567.164 1.54934 -4.30998 0
M  V30 5813 N 568.655 1.61913 -4.3398 0
M  V30 5814 C 569.39 1.8965 -5.41129 0
M  V30 5815 N 568.886 2.15361 -6.58477 0
M  V30 5816 N 570.679 1.91207 -5.28579 0
M  V30 5817 H 562.83 -0.304603 -2.10204 0
M  V30 5818 H 565.093 -0.0737804 -0.945125 0
M  V30 5819 H 564.799 0.319934 -3.50242 0
M  V30 5820 H 564.673 2.03896 -3.17342 0
M  V30 5821 H 567.06 1.98567 -2.18301 0
M  V30 5822 H 567.141 0.255613 -2.5452 0
M  V30 5823 H 566.785 0.779549 -5.01882 0
M  V30 5824 H 566.715 2.51584 -4.62615 0
M  V30 5825 H 569.206 1.44055 -3.49366 0
M  V30 5826 H 569.519 2.35818 -7.35941 0
M  V30 5827 H 567.864 2.1274 -6.6164 0
M  V30 5828 H 571.055 1.70622 -4.35897 0
M  V30 5829 H 571.228 2.12488 -6.12171 0
M  V30 5830 N 564.634 1.40294 0.718013 0
M  V30 5831 C 565.566 1.36281 1.84283 0
M  V30 5832 C 566.579 0.268621 1.60569 0
M  V30 5833 O 567.768 0.528798 1.70487 0
M  V30 5834 C 564.868 1.09741 3.2064 0
M  V30 5835 C 564.041 2.30767 3.71571 0
M  V30 5836 C 563.1 2.00424 4.86535 0
M  V30 5837 O 562.126 2.73268 4.99313 0
M  V30 5838 N 563.328 0.980724 5.72156 0
M  V30 5839 H 566.093 2.3322 1.88225 0
M  V30 5840 H 563.654 1.34616 0.899453 0
M  V30 5841 H 565.646 0.874322 3.95143 0
M  V30 5842 H 564.216 0.214771 3.11861 0
M  V30 5843 H 563.436 2.68921 2.88228 0
M  V30 5844 H 564.724 3.11455 4.02335 0
M  V30 5845 H 564.122 0.377375 5.6444 0
M  V30 5846 H 562.679 0.817538 6.46653 0
M  V30 5847 N 566.112 -0.949982 1.2575 0
M  V30 5848 C 567.042 -2.06483 1.09028 0
M  V30 5849 C 568.023 -1.701 -0.00201532 0
M  V30 5850 O 569.208 -1.93469 0.168383 0
M  V30 5851 C 566.338 -3.39899 0.71316 0
M  V30 5852 C 565.292 -3.90309 1.75621 0
M  V30 5853 C 564.618 -5.20274 1.23365 0
M  V30 5854 C 565.918 -4.16169 3.15596 0
M  V30 5855 H 567.612 -2.20731 2.02283 0
M  V30 5856 H 565.158 -1.06066 0.973964 0
M  V30 5857 H 567.111 -4.17346 0.58309 0
M  V30 5858 H 565.835 -3.25602 -0.255091 0
M  V30 5859 H 564.494 -3.15035 1.8748 0
M  V30 5860 H 564.142 -5.02351 0.255491 0
M  V30 5861 H 563.842 -5.54971 1.93082 0
M  V30 5862 H 565.366 -6.00314 1.11607 0
M  V30 5863 H 566.78 -4.84259 3.06864 0
M  V30 5864 H 565.177 -4.62131 3.82825 0
M  V30 5865 H 566.247 -3.22273 3.6231 0
M  V30 5866 N 567.59 -1.07411 -1.15328 0
M  V30 5867 C 568.838 -0.796073 -1.85761 0
M  V30 5868 C 569.159 0.679864 -1.82764 0
M  V30 5869 O 568.429 1.49242 -1.269 0
M  V30 5870 H 567.009 -0.291495 -0.687779 0
M  V30 5871 H 569.671 -1.35799 -1.39802 0
M  V30 5872 H 568.767 -1.13114 -2.90881 0
M  V30 5873 N 569.068 1.32177 -0.85831 0
M  V30 5874 C 569.998 2.31282 -0.321041 0
M  V30 5875 C 570.979 1.59841 0.581786 0
M  V30 5876 O 572.164 1.87619 0.501262 0
M  V30 5877 C 569.294 3.4385 0.48832 0
M  V30 5878 C 568.248 4.26799 -0.320391 0
M  V30 5879 C 567.574 5.31164 0.613934 0
M  V30 5880 C 568.874 4.98829 -1.54813 0
M  V30 5881 H 570.568 2.76469 -1.14915 0
M  V30 5882 H 568.114 1.32916 -0.554028 0
M  V30 5883 H 570.067 4.12224 0.874626 0
M  V30 5884 H 568.791 2.97401 1.34983 0
M  V30 5885 H 567.45 3.60077 -0.688497 0
M  V30 5886 H 567.098 4.80967 1.47239 0
M  V30 5887 H 566.798 5.8755 0.0768097 0
M  V30 5888 H 568.322 6.024 0.997336 0
M  V30 5889 H 569.736 5.59864 -1.23392 0
M  V30 5890 H 568.133 5.64957 -2.02346 0
M  V30 5891 H 569.203 4.26483 -2.30739 0
M  V30 5892 N 570.547 0.616602 1.45037 0
M  V30 5893 C 571.775 0.121968 2.0654 0
M  V30 5894 C 572.19 -1.19743 1.45969 0
M  V30 5895 O 571.547 -1.73133 0.577168 0
M  V30 5896 C 571.598 -0.0145171 3.61497 0
M  V30 5897 O 571.319 1.25269 4.19809 0
M  V30 5898 C 572.82 -0.539555 4.40004 0
M  V30 5899 H 570.04 0.0729837 0.667019 0
M  V30 5900 H 572.584 0.846891 1.8614 0
M  V30 5901 H 570.739 -0.689809 3.81209 0
M  V30 5902 H 571.153 1.08816 5.13088 0
M  V30 5903 H 572.627 -0.584112 5.48901 0
M  V30 5904 H 573.104 -1.56368 4.10421 0
M  V30 5905 H 573.71 0.101995 4.25178 0
M  V30 5906 N 572.025 -1.5352 0.356285 0
M  V30 5907 C 572.935 -2.29151 -0.502712 0
M  V30 5908 C 573.951 -1.34753 -1.1008 0
M  V30 5909 O 575.127 -1.67803 -1.11374 0
M  V30 5910 C 572.192 -3.05911 -1.63154 0
M  V30 5911 C 571.253 -4.15958 -1.06194 0
M  V30 5912 C 570.486 -4.8905 -2.13696 0
M  V30 5913 O 570.709 -4.61919 -3.34645 0
M  V30 5914 O 569.643 -5.75202 -1.77275 0
M  V30 5915 H 573.469 -3.03492 0.112466 0
M  V30 5916 H 571.054 -1.4891 0.120942 0
M  V30 5917 H 572.936 -3.53874 -2.28804 0
M  V30 5918 H 571.611 -2.34415 -2.23229 0
M  V30 5919 H 570.518 -3.7227 -0.369603 0
M  V30 5920 H 571.851 -4.89593 -0.505872 0
M  V30 5921 N 573.503 -0.0852151 -1.57369 0
M  V30 5922 C 574.743 0.584297 -1.95871 0
M  V30 5923 C 575.107 1.6596 -0.965473 0
M  V30 5924 O 576.308 2.38561 -1.23862 0
M  V30 5925 C 574.579 1.13411 -3.38929 0
M  V30 5926 S 576.138 1.81687 -3.99419 0
M  V30 5927 H 572.956 0.19095 -0.684879 0
M  V30 5928 H 575.558 -0.162267 -1.94825 0
M  V30 5929 H 574.262 0.339845 -4.0899 0
M  V30 5930 H 573.793 1.91672 -3.43548 0
M  V30 5931 H 575.808 3.10037 -3.87417 0
M  V30 5932 N 574.981 1.5647 0.188427 0
M  V30 5933 C 576.397 1.50204 0.539532 0
M  V30 5934 C 576.597 0.78644 1.85519 0
M  V30 5935 O 575.653 0.339714 2.50204 0
M  V30 5936 C 576.966 2.94893 0.588103 0
M  V30 5937 C 578.514 3.05602 0.67648 0
M  V30 5938 C 578.989 4.51716 0.756101 0
M  V30 5939 N 580.48 4.55894 0.819451 0
M  V30 5940 C 581.215 5.66272 0.90134 0
M  V30 5941 N 580.711 6.86323 0.945118 0
M  V30 5942 N 582.504 5.54201 0.939043 0
M  V30 5943 H 574.655 2.01406 -0.674493 0
M  V30 5944 H 576.918 0.916828 -0.241103 0
M  V30 5945 H 576.624 3.50334 -0.309633 0
M  V30 5946 H 576.498 3.4861 1.44051 0
M  V30 5947 H 578.885 2.50206 1.56465 0
M  V30 5948 H 578.966 2.54999 -0.202262 0
M  V30 5949 H 578.61 5.07739 -0.12774 0
M  V30 5950 H 578.54 5.00058 1.65074 0
M  V30 5951 H 581.031 3.69452 0.794594 0
M  V30 5952 H 581.344 7.66194 1.0083 0
M  V30 5953 H 579.689 6.88968 0.913683 0
M  V30 5954 H 582.88 4.59333 0.901725 0
M  V30 5955 H 583.053 6.40247 0.999402 0
M  V30 5956 N 576.459 -0.456382 1.50847 0
M  V30 5957 C 577.705 -1.20914 1.62811 0
M  V30 5958 C 578.038 -1.91301 0.334304 0
M  V30 5959 O 577.313 -1.82775 -0.665098 0
M  V30 5960 C 577.596 -2.24122 2.81853 0
M  V30 5961 C 577.449 -1.57944 4.21158 0
M  V30 5962 C 578.768 -3.25295 2.96431 0
M  V30 5963 H 575.887 -0.438233 0.592554 0
M  V30 5964 H 578.529 -0.50091 1.83278 0
M  V30 5965 H 576.679 -2.84524 2.64534 0
M  V30 5966 H 578.351 -1.01025 4.50102 0
M  V30 5967 H 576.594 -0.882185 4.24735 0
M  V30 5968 H 577.265 -2.33014 5.00408 0
M  V30 5969 H 579.741 -2.7493 3.12335 0
M  V30 5970 H 578.617 -3.94822 3.81322 0
M  V30 5971 H 578.878 -3.90286 2.07676 0
M  V30 5972 N 577.937 -1.40673 -0.710563 0
M  V30 5973 C 579.162 -1.42741 -1.50465 0
M  V30 5974 C 579.587 -0.0302116 -1.88076 0
M  V30 5975 O 578.945 0.962945 -1.53613 0
M  V30 5976 C 578.993 -2.32873 -2.75322 0
M  V30 5977 O 578.097 -1.77544 -3.72226 0
M  V30 5978 H 577.438 -0.485056 -0.45345 0
M  V30 5979 H 579.968 -1.84961 -0.874681 0
M  V30 5980 H 579.978 -2.48233 -3.23797 0
M  V30 5981 H 578.653 -3.34401 -2.47283 0
M  V30 5982 H 577.23 -1.71556 -3.31093 0
M  V30 5983 N 579.415 0.9433 -1.26252 0
M  V30 5984 C 580.664 1.68369 -1.11062 0
M  V30 5985 C 580.977 1.92514 0.346104 0
M  V30 5986 O 582.183 2.64358 0.618646 0
M  V30 5987 C 580.639 3.03171 -1.93946 0
M  V30 5988 C 580.247 2.86782 -3.4418 0
M  V30 5989 C 581.991 3.80916 -1.87359 0
M  V30 5990 C 579.898 4.17044 -4.19319 0
M  V30 5991 H 578.828 0.631469 -0.412023 0
M  V30 5992 H 581.479 1.04922 -1.50544 0
M  V30 5993 H 579.861 3.67587 -1.47296 0
M  V30 5994 H 581.035 2.31229 -3.98585 0
M  V30 5995 H 579.35 2.22482 -3.51981 0
M  V30 5996 H 581.947 4.77417 -2.40784 0
M  V30 5997 H 582.29 4.07658 -0.843857 0
M  V30 5998 H 582.823 3.2327 -2.31821 0
M  V30 5999 H 579.562 3.95487 -5.22753 0
M  V30 6000 H 579.082 4.72319 -3.69696 0
M  V30 6001 H 580.761 4.85513 -4.27651 0
M  V30 6002 N 580.893 1.08022 1.14757 0
M  V30 6003 C 582.118 0.82895 1.90114 0
M  V30 6004 C 582.543 -0.612772 1.77839 0
M  V30 6005 O 581.901 -1.42895 1.11583 0
M  V30 6006 C 581.949 1.25062 3.38219 0
M  V30 6007 O 581.053 0.400119 4.10454 0
M  V30 6008 H 580.394 0.301412 0.591648 0
M  V30 6009 H 582.924 1.44062 1.45284 0
M  V30 6010 H 582.934 1.22977 3.89025 0
M  V30 6011 H 581.609 2.30067 3.46471 0
M  V30 6012 H 580.186 0.484052 3.69745 0
M  V30 6013 N 582.371 -1.3172 0.865308 0
M  V30 6014 C 583.596 -2.01591 0.487415 0
M  V30 6015 C 584.021 -1.6455 -0.911307 0
M  V30 6016 O 583.379 -0.851689 -1.6005 0
M  V30 6017 C 583.427 -3.54759 0.646401 0
M  V30 6018 O 582.531 -4.11185 -0.316284 0
M  V30 6019 H 581.872 -0.634884 0.194468 0
M  V30 6020 H 584.402 -1.68024 1.16744 0
M  V30 6021 H 584.412 -4.04438 0.537932 0
M  V30 6022 H 583.087 -3.8106 1.66632 0
M  V30 6023 H 581.664 -3.72543 -0.163162 0
M  V30 6024 N 583.85 -0.624285 -1.44708 0
M  V30 6025 C 584.779 0.0717025 -2.3339 0
M  V30 6026 C 585.76 0.841814 -1.47809 0
M  V30 6027 O 586.946 0.809056 -1.76544 0
M  V30 6028 C 584.076 1.05852 -3.30776 0
M  V30 6029 C 583.029 0.400503 -4.26122 0
M  V30 6030 C 582.356 1.49674 -5.13324 0
M  V30 6031 C 583.656 -0.688924 -5.17737 0
M  V30 6032 H 585.35 -0.668819 -2.91834 0
M  V30 6033 H 582.896 -0.32308 -1.40329 0
M  V30 6034 H 584.849 1.5541 -3.91696 0
M  V30 6035 H 583.572 1.82984 -2.70526 0
M  V30 6036 H 582.231 -0.0743687 -3.66525 0
M  V30 6037 H 581.88 2.25877 -4.49431 0
M  V30 6038 H 581.58 1.06188 -5.77926 0
M  V30 6039 H 583.104 1.99427 -5.77115 0
M  V30 6040 H 584.518 -0.276724 -5.72632 0
M  V30 6041 H 582.915 -1.04652 -5.90904 0
M  V30 6042 H 583.985 -1.55884 -4.5916 0
M  V30 6043 N 585.328 1.53329 -0.364422 0
M  V30 6044 C 586.574 2.02222 0.21855 0
M  V30 6045 C 586.929 1.24702 1.46517 0
M  V30 6046 O 586.222 0.331969 1.88702 0
M  V30 6047 C 586.416 3.52911 0.564661 0
M  V30 6048 C 586.245 4.45023 -0.646862 0
M  V30 6049 C 585.015 4.91838 -1.15858 0
M  V30 6050 C 587.213 4.91581 -1.51172 0
M  V30 6051 N 585.195 5.67955 -2.33025 0
M  V30 6052 C 586.566 5.66028 -2.53006 0
M  V30 6053 C 588.621 4.73656 -1.53473 0
M  V30 6054 C 587.324 6.24457 -3.56996 0
M  V30 6055 C 589.35 5.3295 -2.56356 0
M  V30 6056 C 588.712 6.07282 -3.56914 0
M  V30 6057 H 584.811 0.780832 0.0427199 0
M  V30 6058 H 587.395 1.87937 -0.508704 0
M  V30 6059 H 585.566 3.6736 1.26099 0
M  V30 6060 H 587.298 3.88528 1.13262 0
M  V30 6061 H 584.053 4.68043 -0.723393 0
M  V30 6062 H 584.477 6.10675 -2.92241 0
M  V30 6063 H 589.119 4.15714 -0.770842 0
M  V30 6064 H 586.837 6.81496 -4.34268 0
M  V30 6065 H 590.423 5.20976 -2.58989 0
M  V30 6066 H 589.303 6.52345 -4.35218 0
M  V30 6067 N 586.806 0.0935595 1.57322 0
M  V30 6068 C 587.769 -0.851426 2.12799 0
M  V30 6069 C 588.769 -1.21187 1.0569 0
M  V30 6070 O 589.959 -1.14156 1.31583 0
M  V30 6071 C 587.091 -2.14779 2.64731 0
M  V30 6072 H 588.284 -0.369733 2.97612 0
M  V30 6073 H 585.837 -0.155417 1.55525 0
M  V30 6074 H 586.572 -2.67437 1.83434 0
M  V30 6075 H 586.357 -1.89907 3.43042 0
M  V30 6076 H 587.847 -2.82383 3.07651 0
M  V30 6077 N 588.284 -1.56567 -0.180126 0
M  V30 6078 C 589.234 -1.92132 -1.22756 0
M  V30 6079 C 590.218 -0.788639 -1.40247 0
M  V30 6080 O 591.41 -1.05171 -1.42366 0
M  V30 6081 C 588.539 -2.27719 -2.56902 0
M  V30 6082 C 587.625 -3.47481 -2.43142 0
M  V30 6083 N 588.016 -4.64973 -1.99082 0
M  V30 6084 C 586.314 -3.51914 -2.73994 0
M  V30 6085 C 587.015 -5.47119 -1.97574 0
M  V30 6086 N 585.991 -4.87925 -2.39645 0
M  V30 6087 H 589.793 -2.80464 -0.878478 0
M  V30 6088 H 587.307 -1.57686 -0.388463 0
M  V30 6089 H 589.304 -2.51389 -3.32579 0
M  V30 6090 H 587.964 -1.40722 -2.92621 0
M  V30 6091 H 588.975 -4.89358 -1.69557 0
M  V30 6092 H 585.652 -2.75372 -3.13809 0
M  V30 6093 H 587.042 -6.51254 -1.65282 0
M  V30 6094 N 589.762 0.448376 -1.51087 0
M  V30 6095 C 590.99 1.22143 -1.66999 0
M  V30 6096 C 591.405 1.85283 -0.362699 0
M  V30 6097 O 590.762 1.70236 0.65772 0
M  V30 6098 C 590.813 2.31357 -2.7777 0
M  V30 6099 O 590.534 1.70801 -4.03434 0
M  V30 6100 C 592.035 3.21836 -3.04855 0
M  V30 6101 H 589.255 0.368558 -0.560719 0
M  V30 6102 H 591.799 0.532618 -1.97442 0
M  V30 6103 H 589.954 2.95973 -2.49958 0
M  V30 6104 H 590.368 2.42895 -4.64868 0
M  V30 6105 H 591.842 3.94627 -3.85971 0
M  V30 6106 H 592.319 3.81949 -2.16821 0
M  V30 6107 H 592.925 2.62933 -3.34285 0
M  V30 6108 N 591.24 1.41047 0.703093 0
M  V30 6109 C 592.651 1.35657 1.28274 0
M  V30 6110 C 593.002 0.0360309 1.96167 0
M  V30 6111 O 592.127 -0.865833 1.98324 0
M  V30 6112 C 592.722 2.45707 2.33267 0
M  V30 6113 C 591.281 2.43738 2.86825 0
M  V30 6114 C 590.428 2.25941 1.60767 0
M  V30 6115 H 593.379 1.50672 0.49836 0
M  V30 6116 H 593.4 2.14333 3.14391 0
M  V30 6117 H 592.912 3.41805 1.83824 0
M  V30 6118 H 591.013 1.51375 3.40465 0
M  V30 6119 H 591.126 3.39779 3.37768 0
M  V30 6120 H 589.49 1.73681 1.86298 0
M  V30 6121 H 590.273 3.24054 1.1333 0
M  V30 6122 N 592.718 -0.936591 1.26751 0
M  V30 6123 C 593.948 -1.71509 1.15188 0
M  V30 6124 C 594.356 -1.86885 -0.295037 0
M  V30 6125 O 593.699 -1.37915 -1.21347 0
M  V30 6126 C 593.761 -3.13853 1.75318 0
M  V30 6127 C 593.425 -3.21845 3.24445 0
M  V30 6128 C 594.422 -3.04771 4.21201 0
M  V30 6129 C 592.107 -3.45088 3.64992 0
M  V30 6130 C 594.101 -3.10816 5.56482 0
M  V30 6131 C 591.788 -3.50767 5.00405 0
M  V30 6132 C 592.786 -3.33648 5.9596 0
M  V30 6133 O 592.474 -3.39045 7.28906 0
M  V30 6134 H 592.206 -0.543658 0.401761 0
M  V30 6135 H 594.76 -1.18234 1.67958 0
M  V30 6136 H 592.99 -3.6857 1.17016 0
M  V30 6137 H 594.679 -3.73634 1.58596 0
M  V30 6138 H 595.445 -2.86665 3.91214 0
M  V30 6139 H 591.324 -3.57467 2.91098 0
M  V30 6140 H 594.868 -2.97372 6.31043 0
M  V30 6141 H 590.765 -3.68396 5.30052 0
M  V30 6142 H 591.533 -3.55558 7.37238 0
M  V30 6143 N 594.196 -1.08629 -1.14182 0
M  V30 6144 C 595.424 -0.838889 -1.8913 0
M  V30 6145 C 595.839 0.609153 -1.78703 0
M  V30 6146 O 595.196 1.41876 -1.14794 0
M  V30 6147 C 595.247 -1.25477 -3.39025 0
M  V30 6148 O 594.968 -2.64601 -3.49167 0
M  V30 6149 C 596.469 -1.03856 -4.30963 0
M  V30 6150 H 593.689 -0.302377 -0.599007 0
M  V30 6151 H 596.233 -1.44615 -1.44592 0
M  V30 6152 H 594.388 -0.691571 -3.81177 0
M  V30 6153 H 594.802 -2.81922 -4.42289 0
M  V30 6154 H 596.276 -1.37892 -5.345 0
M  V30 6155 H 596.753 0.0242522 -4.39193 0
M  V30 6156 H 597.359 -1.58731 -3.94569 0
M  V30 6157 N 595.674 1.31259 -0.872281 0
M  V30 6158 C 596.921 1.96622 -0.484365 0
M  V30 6159 C 597.249 1.68939 0.963841 0
M  V30 6160 O 596.504 0.97974 1.6941 0
M  V30 6161 C 596.803 3.50659 -0.690889 0
M  V30 6162 C 596.469 3.98366 -2.11224 0
M  V30 6163 C 595.131 4.11104 -2.50094 0
M  V30 6164 C 597.483 4.23425 -3.0391 0
M  V30 6165 C 594.811 4.46254 -3.80887 0
M  V30 6166 C 597.163 4.60039 -4.3422 0
M  V30 6167 C 595.827 4.70984 -4.73001 0
M  V30 6168 H 595.097 0.71949 -0.177242 0
M  V30 6169 H 597.744 1.56353 -1.10571 0
M  V30 6170 H 596.049 3.91798 0.0135782 0
M  V30 6171 H 597.746 3.99284 -0.370534 0
M  V30 6172 H 594.336 3.88949 -1.80047 0
M  V30 6173 H 598.52 4.13075 -2.75104 0
M  V30 6174 H 593.776 4.52926 -4.10692 0
M  V30 6175 H 597.95 4.78381 -5.06088 0
M  V30 6176 H 595.577 4.97977 -5.7439 0
M  V30 6177 N 597.152 0.631951 1.44375 0
M  V30 6178 C 598.429 0.067646 1.95483 0
M  V30 6179 C 598.809 -1.40683 1.57389 0
M  V30 6180 O 598.157 -2.12167 0.848375 0
M  V30 6181 C 598.367 0.291392 3.47781 0
M  V30 6182 C 599.715 0.185028 4.24197 0
M  V30 6183 O 600.739 0.222803 3.55503 0
M  V30 6184 O 599.598 0.0906642 5.46425 0
M  V30 6185 H 596.692 -0.0218379 0.826712 0
M  V30 6186 H 599.238 0.703711 1.54421 0
M  V30 6187 H 598.01 1.31449 3.68561 0
M  V30 6188 H 597.633 -0.378772 3.95792 0
M  V30 6189 N 598.631 -1.53133 0.372548 0
M  V30 6190 C 599.88 -2.00539 -0.216115 0
M  V30 6191 C 600.193 -1.26374 -1.49295 0
M  V30 6192 O 601.399 -1.64404 -2.16064 0
M  V30 6193 C 599.855 -3.57253 -0.435678 0
M  V30 6194 C 599.463 -4.40302 0.82693 0
M  V30 6195 C 601.207 -4.12995 -0.981618 0
M  V30 6196 C 599.114 -5.88583 0.576567 0
M  V30 6197 H 598.044 -0.749246 -0.084536 0
M  V30 6198 H 600.695 -1.76771 0.492364 0
M  V30 6199 H 599.077 -3.77202 -1.20559 0
M  V30 6200 H 600.251 -4.32124 1.60017 0
M  V30 6201 H 598.566 -3.95699 1.29659 0
M  V30 6202 H 601.163 -5.21418 -1.18436 0
M  V30 6203 H 601.506 -3.68027 -1.94581 0
M  V30 6204 H 602.039 -3.96871 -0.271696 0
M  V30 6205 H 598.778 -6.37841 1.51128 0
M  V30 6206 H 598.298 -5.99592 -0.158047 0
M  V30 6207 H 599.977 -6.46676 0.204722 0
M  V30 6208 N 600.109 -0.101901 -1.5727 0
M  V30 6209 C 601.041 0.884723 -2.11436 0
M  V30 6210 C 602.054 1.24149 -1.05314 0
M  V30 6211 O 603.243 1.19341 -1.3274 0
M  V30 6212 C 600.343 2.19179 -2.58484 0
M  V30 6213 C 599.516 2.00933 -3.88516 0
M  V30 6214 C 598.575 3.15213 -4.2134 0
M  V30 6215 O 597.601 2.88877 -4.90448 0
M  V30 6216 N 598.803 4.41174 -3.77288 0
M  V30 6217 H 601.568 0.422058 -2.96713 0
M  V30 6218 H 599.129 0.0830128 -1.61687 0
M  V30 6219 H 601.121 2.94593 -2.77484 0
M  V30 6220 H 599.691 2.56847 -1.7818 0
M  V30 6221 H 598.911 1.09809 -3.78597 0
M  V30 6222 H 600.199 1.86026 -4.73573 0
M  V30 6223 H 599.597 4.6545 -3.21516 0
M  V30 6224 H 598.154 5.13515 -4.01429 0
M  V30 6225 N 601.587 1.56661 0.17182 0
M  V30 6226 C 602.55 1.9549 1.19651 0
M  V30 6227 C 603.55 0.838501 1.37207 0
M  V30 6228 O 604.74 1.10556 1.34622 0
M  V30 6229 C 601.872 2.24927 2.56166 0
M  V30 6230 H 603.065 2.87184 0.864007 0
M  V30 6231 H 600.618 1.50711 0.41425 0
M  V30 6232 H 601.353 1.35944 2.94431 0
M  V30 6233 H 601.138 3.06301 2.4479 0
M  V30 6234 H 602.628 2.55891 3.30014 0
M  V30 6235 N 603.065 -0.440357 1.51323 0
M  V30 6236 C 604.314 -1.18697 1.63076 0
M  V30 6237 C 604.627 -1.92418 0.35136 0
M  V30 6238 O 605.833 -2.69258 0.348221 0
M  V30 6239 C 604.289 -2.15849 2.87988 0
M  V30 6240 C 603.897 -1.47789 4.22921 0
M  V30 6241 C 605.641 -2.90962 3.09098 0
M  V30 6242 C 603.548 -2.43407 5.38987 0
M  V30 6243 H 602.478 -0.44676 0.607389 0
M  V30 6244 H 605.129 -0.454313 1.77787 0
M  V30 6245 H 603.511 -2.92537 2.66905 0
M  V30 6246 H 604.685 -0.7668 4.54375 0
M  V30 6247 H 603 -0.848404 4.07665 0
M  V30 6248 H 605.597 -3.62584 3.92985 0
M  V30 6249 H 605.94 -3.52133 2.22053 0
M  V30 6250 H 606.473 -2.21381 3.30507 0
M  V30 6251 H 603.212 -1.86929 6.28282 0
M  V30 6252 H 602.732 -3.12579 5.11913 0
M  V30 6253 H 604.411 -3.046 5.70813 0
M  V30 6254 N 604.543 -1.41418 -0.695603 0
M  V30 6255 C 605.491 -1.43467 -1.83084 0
M  V30 6256 C 606.485 -0.312719 -1.66489 0
M  V30 6257 O 607.691 -0.484744 -1.7335 0
M  V30 6258 H 604.066 -0.448891 -0.603325 0
M  V30 6259 H 606.037 -2.39144 -1.78473 0
M  V30 6260 C 604.786 -1.3337 -3.21104 0
M  V30 6261 H 604.109 -2.18989 -3.3449 0
M  V30 6262 H 605.549 -1.38865 -4.00615 0
M  V30 6263 C 604.008 -0.0460484 -3.36869 0
M  V30 6264 O 604.538 0.909258 -3.91274 0
M  V30 6265 N 602.744 0.0300222 -2.90584 0
M  V30 6266 H 602.291 -0.748129 -2.46497 0
M  V30 6267 H 602.249 0.890991 -3.01511 0
M  V30 6268 N 606.021 0.929856 -1.27246 0
M  V30 6269 C 607.269 1.674 -1.13233 0
M  V30 6270 C 607.59 1.92311 0.322744 0
M  V30 6271 O 606.86 1.52784 1.22612 0
M  V30 6272 H 605.44 0.620411 -0.416052 0
M  V30 6273 H 608.102 1.11663 -1.59741 0
M  V30 6274 H 607.198 2.64308 -1.65975 0
M  V30 6275 N 607.499 1.09233 1.13605 0
M  V30 6276 C 608.745 0.828385 1.8511 0
M  V30 6277 C 609.078 -0.64437 1.83198 0
M  V30 6278 O 608.353 -1.47428 1.26867 0
M  V30 6279 C 608.636 1.36167 3.33363 0
M  V30 6280 C 608.489 2.90038 3.438 0
M  V30 6281 C 609.808 0.993819 4.28732 0
M  V30 6282 H 606.927 0.30239 0.672108 0
M  V30 6283 H 609.569 1.35339 1.33355 0
M  V30 6284 H 607.719 0.9151 3.77569 0
M  V30 6285 H 609.391 3.43128 3.08319 0
M  V30 6286 H 607.634 3.27271 2.84739 0
M  V30 6287 H 608.305 3.22428 4.48045 0
M  V30 6288 H 610.781 1.37893 3.92587 0
M  V30 6289 H 609.657 1.39403 5.30903 0
M  V30 6290 H 609.918 -0.0982206 4.41991 0
M  V30 6291 N 608.977 -1.30795 0.87923 0
M  V30 6292 C 610.202 -2.01063 0.508769 0
M  V30 6293 C 610.627 -1.65508 -0.893803 0
M  V30 6294 O 609.985 -0.868616 -1.59138 0
M  V30 6295 C 610.033 -3.54054 0.683991 0
M  V30 6296 O 609.137 -4.11498 -0.272654 0
M  V30 6297 H 608.478 -0.632786 0.201191 0
M  V30 6298 H 611.008 -1.66776 1.18519 0
M  V30 6299 H 611.018 -4.03845 0.580798 0
M  V30 6300 H 609.693 -3.79271 1.70665 0
M  V30 6301 H 608.27 -3.72695 -0.12364 0
M  V30 6302 N 610.455 -0.639598 -1.44038 0
M  V30 6303 C 611.68 -0.153117 -2.06834 0
M  V30 6304 C 612.105 1.16676 -1.47541 0
M  V30 6305 O 611.463 1.71769 -0.580093 0
M  V30 6306 C 611.511 -0.0609169 -3.60549 0
M  V30 6307 O 610.615 0.98071 -4.00569 0
M  V30 6308 H 609.956 -0.0886402 -0.658057 0
M  V30 6309 H 612.486 -0.878674 -1.84771 0
M  V30 6310 H 612.496 0.126892 -4.07803 0
M  V30 6311 H 611.171 -1.0245 -4.03084 0
M  V30 6312 H 609.748 0.766789 -3.64931 0
M  V30 6313 N 611.933 1.52934 -0.380664 0
M  V30 6314 C 612.88 2.26197 0.458641 0
M  V30 6315 C 613.85 1.27462 1.06502 0
M  V30 6316 O 615.035 1.56274 1.09467 0
M  V30 6317 C 612.175 3.06571 1.58456 0
M  V30 6318 C 611.288 4.20222 1.00189 0
M  V30 6319 C 610.423 4.88007 2.09815 0
M  V30 6320 C 609.462 5.93665 1.49092 0
M  V30 6321 N 608.599 6.55081 2.52613 0
M  V30 6322 H 613.439 2.975 -0.172595 0
M  V30 6323 H 610.976 1.4678 -0.0969426 0
M  V30 6324 H 612.934 3.51455 2.24801 0
M  V30 6325 H 611.564 2.37494 2.18624 0
M  V30 6326 H 610.616 3.79714 0.228292 0
M  V30 6327 H 611.928 4.96102 0.518064 0
M  V30 6328 H 611.082 5.36151 2.83948 0
M  V30 6329 H 609.821 4.11632 2.61555 0
M  V30 6330 H 608.826 5.44868 0.7348 0
M  V30 6331 H 610.051 6.71969 0.981582 0
M  V30 6332 H 607.997 5.8155 3.03538 0
M  V30 6333 H 607.914 7.26548 2.08961 0
M  V30 6334 H 609.182 7.07871 3.26402 0
M  V30 6335 N 613.412 0.11024 1.57214 0
M  V30 6336 C 614.637 -0.561179 1.99664 0
M  V30 6337 C 615.062 -1.59985 0.989266 0
M  V30 6338 O 614.42 -1.81255 -0.0402399 0
M  V30 6339 C 614.468 -1.17189 3.41027 0
M  V30 6340 O 613.572 -2.28755 3.4314 0
M  V30 6341 H 612.913 -0.14101 0.648855 0
M  V30 6342 H 615.443 0.196128 2.03658 0
M  V30 6343 H 615.453 -1.50954 3.79047 0
M  V30 6344 H 614.128 -0.411041 4.13864 0
M  V30 6345 H 612.705 -1.96495 3.16929 0
M  V30 6346 N 614.89 -1.56749 -0.16351 0
M  V30 6347 C 616.301 -1.72039 -0.725216 0
M  V30 6348 C 616.652 -0.72202 -1.82432 0
M  V30 6349 O 615.777 0.114942 -2.16095 0
M  V30 6350 C 616.372 -3.11932 -1.32227 0
M  V30 6351 C 614.931 -3.28879 -1.83072 0
M  V30 6352 C 614.078 -2.67984 -0.712716 0
M  V30 6353 H 617.029 -1.58579 0.0619772 0
M  V30 6354 H 617.05 -3.11015 -2.19202 0
M  V30 6355 H 616.562 -3.84572 -0.522103 0
M  V30 6356 H 614.663 -2.61209 -2.65708 0
M  V30 6357 H 614.776 -4.36688 -1.97079 0
M  V30 6358 H 613.14 -2.28005 -1.13515 0
M  V30 6359 H 613.923 -3.43216 0.0757361 0
M  V30 6360 N 616.368 0.432326 -1.51554 0
M  V30 6361 C 617.615 1.18134 -1.64471 0
M  V30 6362 C 617.943 1.91076 -0.363349 0
M  V30 6363 O 617.198 1.84492 0.65279 0
M  V30 6364 C 617.497 2.21907 -2.80164 0
M  V30 6365 C 617.163 1.65941 -4.19255 0
M  V30 6366 C 615.825 1.50401 -4.57092 0
M  V30 6367 C 618.177 1.24843 -5.06027 0
M  V30 6368 C 615.505 0.922443 -5.79403 0
M  V30 6369 C 617.857 0.68113 -6.28922 0
M  V30 6370 C 616.521 0.512673 -6.65528 0
M  V30 6371 H 615.791 0.432283 -0.601841 0
M  V30 6372 H 618.438 0.471701 -1.856 0
M  V30 6373 H 616.743 2.98928 -2.53277 0
M  V30 6374 H 618.44 2.79691 -2.87357 0
M  V30 6375 H 615.03 1.79014 -3.89425 0
M  V30 6376 H 619.214 1.35667 -4.77397 0
M  V30 6377 H 614.47 0.779733 -6.06408 0
M  V30 6378 H 618.644 0.35418 -6.95499 0
M  V30 6379 H 616.271 0.0599084 -7.60176 0
M  V30 6380 N 617.846 1.41785 0.688094 0
M  V30 6381 C 619.257 1.3701 1.26828 0
M  V30 6382 C 619.608 0.056835 1.96118 0
M  V30 6383 O 618.733 -0.84475 1.99231 0
M  V30 6384 C 619.328 2.48168 2.30648 0
M  V30 6385 C 617.887 2.46766 2.84224 0
M  V30 6386 C 617.034 2.27633 1.58361 0
M  V30 6387 H 619.985 1.51192 0.482351 0
M  V30 6388 H 620.006 2.17655 3.121 0
M  V30 6389 H 619.518 3.43735 1.80188 0
M  V30 6390 H 617.619 1.54978 3.3884 0
M  V30 6391 H 617.732 3.43342 3.34145 0
M  V30 6392 H 616.096 1.75648 1.84445 0
M  V30 6393 H 616.879 3.25238 1.09887 0
M  V30 6394 N 619.324 -0.923095 1.27737 0
M  V30 6395 C 620.735 -1.48626 1.12993 0
M  V30 6396 C 621.086 -1.94142 -0.283439 0
M  V30 6397 O 620.211 -1.81605 -1.17681 0
M  V30 6398 C 620.806 -2.70117 2.04505 0
M  V30 6399 C 619.365 -3.22642 1.93853 0
M  V30 6400 C 618.512 -1.95368 1.96791 0
M  V30 6401 H 621.463 -0.736737 1.40563 0
M  V30 6402 H 621.484 -3.4506 1.60356 0
M  V30 6403 H 620.996 -2.36959 3.07363 0
M  V30 6404 H 619.097 -3.60549 0.939968 0
M  V30 6405 H 619.21 -3.88525 2.80331 0
M  V30 6406 H 617.574 -2.12061 1.41076 0
M  V30 6407 H 618.357 -1.64517 3.01312 0
M  V30 6408 N 620.802 -1.09834 -1.13024 0
M  V30 6409 C 621.734 -0.699379 -2.18269 0
M  V30 6410 C 622.747 0.260841 -1.60697 0
M  V30 6411 O 623.936 0.0462538 -1.7844 0
M  V30 6412 C 621.036 -0.0104537 -3.38898 0
M  V30 6413 C 620.209 -0.993275 -4.25973 0
M  V30 6414 C 619.268 -0.336982 -5.2512 0
M  V30 6415 O 618.294 -0.985892 -5.60597 0
M  V30 6416 N 619.496 0.90716 -5.73368 0
M  V30 6417 H 622.261 -1.60486 -2.5311 0
M  V30 6418 H 619.822 -0.986337 -1.28386 0
M  V30 6419 H 621.814 0.43991 -4.02302 0
M  V30 6420 H 620.384 0.797335 -3.0226 0
M  V30 6421 H 619.604 -1.62208 -3.5928 0
M  V30 6422 H 620.892 -1.65876 -4.81002 0
M  V30 6423 H 620.29 1.45384 -5.46699 0
M  V30 6424 H 618.847 1.30077 -6.38689 0
M  V30 6425 N 622.28 1.30327 -0.886154 0
M  V30 6426 C 623.23 2.25668 -0.325248 0
M  V30 6427 C 624.214 1.51318 0.546972 0
M  V30 6428 O 625.406 1.72623 0.391203 0
M  V30 6429 C 622.535 3.40229 0.458167 0
M  V30 6430 C 621.621 4.21933 -0.428208 0
M  V30 6431 N 622.012 4.82129 -1.52921 0
M  V30 6432 C 620.31 4.45439 -0.223535 0
M  V30 6433 C 621.011 5.43351 -2.07714 0
M  V30 6434 N 619.987 5.26002 -1.37195 0
M  V30 6435 H 623.789 2.69759 -1.1665 0
M  V30 6436 H 621.303 1.4478 -0.735691 0
M  V30 6437 H 623.3 4.07579 0.876648 0
M  V30 6438 H 621.96 2.97678 1.29684 0
M  V30 6439 H 622.971 4.81312 -1.91205 0
M  V30 6440 H 619.648 4.13481 0.577875 0
M  V30 6441 H 621.038 6.01118 -3.00178 0
M  V30 6442 N 623.758 0.647228 1.43697 0
M  V30 6443 C 625.004 0.158422 2.0218 0
M  V30 6444 C 625.337 -1.22233 1.50907 0
M  V30 6445 O 624.612 -1.81478 0.699702 0
M  V30 6446 C 624.895 0.1627 3.59732 0
M  V30 6447 C 624.748 1.57694 4.21251 0
M  V30 6448 C 626.067 -0.504138 4.37203 0
M  V30 6449 H 623.186 0.059042 0.734631 0
M  V30 6450 H 625.828 0.826772 1.71069 0
M  V30 6451 H 623.978 -0.406414 3.86368 0
M  V30 6452 H 625.65 2.19618 4.05667 0
M  V30 6453 H 623.893 2.12603 3.7813 0
M  V30 6454 H 624.564 1.53183 5.3032 0
M  V30 6455 H 627.04 -0.0199841 4.16095 0
M  V30 6456 H 625.916 -0.470394 5.46881 0
M  V30 6457 H 626.177 -1.57726 4.13007 0
M  V30 6458 N 625.236 -1.5273 0.388769 0
M  V30 6459 C 626.461 -2.0647 -0.19621 0
M  V30 6460 C 626.886 -1.25865 -1.39784 0
M  V30 6461 O 626.244 -0.283562 -1.79069 0
M  V30 6462 C 626.292 -3.56456 -0.5451 0
M  V30 6463 O 625.396 -3.78426 -1.63912 0
M  V30 6464 H 624.737 -0.663599 -0.023067 0
M  V30 6465 H 627.267 -1.96898 0.556084 0
M  V30 6466 H 627.277 -3.99888 -0.809557 0
M  V30 6467 H 625.952 -4.14561 0.333417 0
M  V30 6468 H 624.529 -3.46884 -1.36842 0
M  V30 6469 N 626.714 -0.118576 -1.57153 0
M  V30 6470 C 627.96 0.540326 -1.95469 0
M  V30 6471 C 628.293 1.66356 -1.00196 0
M  V30 6472 O 627.568 1.94461 -0.039104 0
M  V30 6473 C 627.851 1.07342 -3.43729 0
M  V30 6474 C 627.704 -0.0463732 -4.49776 0
M  V30 6475 C 629.023 1.96442 -3.93826 0
M  V30 6476 H 626.142 0.19494 -0.710751 0
M  V30 6477 H 628.784 -0.19405 -1.89006 0
M  V30 6478 H 626.934 1.69925 -3.49368 0
M  V30 6479 H 628.606 -0.681648 -4.56236 0
M  V30 6480 H 626.849 -0.709574 -4.27957 0
M  V30 6481 H 627.52 0.367856 -5.50773 0
M  V30 6482 H 629.996 1.43731 -3.90488 0
M  V30 6483 H 628.872 2.3066 -4.98084 0
M  V30 6484 H 629.133 2.89077 -3.34495 0
M  V30 6485 N 628.193 1.56834 0.155195 0
M  V30 6486 C 629.141 1.98584 1.21107 0
M  V30 6487 C 630.135 0.876987 1.44932 0
M  V30 6488 O 631.341 1.06215 1.45322 0
M  V30 6489 H 627.716 0.632039 0.407469 0
M  V30 6490 H 629.687 2.86561 0.832195 0
M  V30 6491 C 628.436 2.37555 2.53895 0
M  V30 6492 H 627.759 3.22428 2.3639 0
M  V30 6493 H 629.199 2.70598 3.26424 0
M  V30 6494 C 627.658 1.22507 3.13837 0
M  V30 6495 O 628.188 0.521388 3.98302 0
M  V30 6496 N 626.394 0.991444 2.73164 0
M  V30 6497 H 625.941 1.56544 2.04577 0
M  V30 6498 H 625.899 0.223546 3.13604 0
M  V30 6499 N 629.671 -0.424282 1.51781 0
M  V30 6500 C 630.92 -1.16961 1.64326 0
M  V30 6501 C 631.233 -1.92035 0.371749 0
M  V30 6502 O 632.439 -2.68873 0.37676 0
M  V30 6503 C 630.895 -2.12782 2.90262 0
M  V30 6504 C 630.503 -1.43295 4.24465 0
M  V30 6505 C 632.247 -2.87667 3.12166 0
M  V30 6506 C 630.154 -2.37676 5.41538 0
M  V30 6507 H 629.084 -0.440293 0.612093 0
M  V30 6508 H 631.735 -0.435431 1.78259 0
M  V30 6509 H 630.117 -2.8969 2.69992 0
M  V30 6510 H 631.291 -0.718564 4.55163 0
M  V30 6511 H 629.606 -0.805118 4.08542 0
M  V30 6512 H 632.203 -3.58395 3.96808 0
M  V30 6513 H 632.546 -3.49758 2.25776 0
M  V30 6514 H 633.079 -2.17863 3.32837 0
M  V30 6515 H 629.818 -1.80255 6.30229 0
M  V30 6516 H 629.338 -3.07132 5.15199 0
M  V30 6517 H 631.017 -2.98529 5.74012 0
M  V30 6518 N 631.149 -1.42148 -0.680565 0
M  V30 6519 C 632.377 -1.45696 -1.46902 0
M  V30 6520 C 632.792 -0.0665858 -1.88683 0
M  V30 6521 O 632.149 0.917436 -1.57764 0
M  V30 6522 C 632.2 -2.37898 -2.72188 0
M  V30 6523 O 631.921 -3.71526 -2.32163 0
M  V30 6524 C 633.422 -2.50407 -3.65802 0
M  V30 6525 H 630.642 -0.495729 -0.45221 0
M  V30 6526 H 633.186 -1.866 -0.836709 0
M  V30 6527 H 631.341 -2.00263 -3.31622 0
M  V30 6528 H 631.755 -4.20849 -3.13027 0
M  V30 6529 H 633.229 -3.19056 -4.50452 0
M  V30 6530 H 633.706 -1.5401 -4.11312 0
M  V30 6531 H 634.312 -2.8874 -3.12265 0
M  V30 6532 N 632.627 0.916307 -1.28225 0
M  V30 6533 C 633.855 1.69901 -1.18073 0
M  V30 6534 C 634.27 1.86988 0.260968 0
M  V30 6535 O 633.627 1.39505 1.17663 0
M  V30 6536 C 633.678 3.09254 -1.87201 0
M  V30 6537 O 633.399 2.92959 -3.2574 0
M  V30 6538 C 634.9 4.0362 -1.83319 0
M  V30 6539 H 632.12 0.531181 -0.409985 0
M  V30 6540 H 634.664 1.14703 -1.69303 0
M  V30 6541 H 632.819 3.61277 -1.39848 0
M  V30 6542 H 633.233 3.81139 -3.60324 0
M  V30 6543 H 634.707 4.98873 -2.36282 0
M  V30 6544 H 635.184 4.3176 -0.805007 0
M  V30 6545 H 635.79 3.57524 -2.3034 0
M  V30 6546 N 634.105 1.10431 1.1244 0
M  V30 6547 C 635.053 0.747974 2.20246 0
M  V30 6548 C 636.047 -0.255848 1.67457 0
M  V30 6549 O 637.253 -0.116221 1.79624 0
M  V30 6550 H 633.628 0.223946 0.71788 0
M  V30 6551 H 635.599 1.6661 2.47556 0
M  V30 6552 C 634.348 0.195957 3.47147 0
M  V30 6553 H 633.671 0.959606 3.88113 0
M  V30 6554 H 635.111 -0.0153154 4.23997 0
M  V30 6555 C 633.57 -1.07132 3.19413 0
M  V30 6556 O 634.1 -2.15284 3.3914 0
M  V30 6557 N 632.306 -0.98994 2.73219 0
M  V30 6558 H 631.853 -0.109736 2.57366 0
M  V30 6559 H 631.811 -1.83856 2.55038 0
M  V30 6560 N 635.583 -1.29855 0.893053 0
M  V30 6561 C 636.515 -2.26911 0.32311 0
M  V30 6562 C 637.528 -1.54039 -0.526858 0
M  V30 6563 O 638.717 -1.75132 -0.345095 0
M  V30 6564 C 635.817 -3.34266 -0.558509 0
M  V30 6565 C 634.99 -4.36601 0.264222 0
M  V30 6566 C 634.049 -5.23326 -0.549171 0
M  V30 6567 O 633.075 -5.69192 0.0309883 0
M  V30 6568 N 634.277 -5.50008 -1.85664 0
M  V30 6569 H 637.042 -2.76455 1.15726 0
M  V30 6570 H 634.603 -1.4312 0.756859 0
M  V30 6571 H 636.595 -3.89211 -1.1089 0
M  V30 6572 H 635.165 -2.8459 -1.29334 0
M  V30 6573 H 634.385 -3.81409 0.996046 0
M  V30 6574 H 635.673 -5.02019 0.827906 0
M  V30 6575 H 635.071 -5.14542 -2.35081 0
M  V30 6576 H 633.628 -6.07796 -2.35431 0
M  V30 6577 N 637.061 -0.65484 -1.43351 0
M  V30 6578 C 638.024 0.0263562 -2.29185 0
M  V30 6579 C 639.024 0.748951 -1.42293 0
M  V30 6580 O 640.214 0.589957 -1.63906 0
M  V30 6581 C 637.346 1.04806 -3.2439 0
M  V30 6582 H 638.539 -0.728883 -2.90908 0
M  V30 6583 H 636.092 -0.416149 -1.50658 0
M  V30 6584 H 636.827 1.83247 -2.67565 0
M  V30 6585 H 636.612 0.533554 -3.88453 0
M  V30 6586 H 638.102 1.52372 -3.88809 0
M  V30 6587 N 638.539 1.52521 -0.396863 0
M  V30 6588 C 639.502 2.2527 0.422604 0
M  V30 6589 C 640.502 1.27184 0.983913 0
M  V30 6590 O 641.692 1.51222 0.864723 0
M  V30 6591 C 638.824 3.01356 1.59365 0
M  V30 6592 H 640.017 2.99133 -0.214416 0
M  V30 6593 H 637.57 1.55587 -0.149128 0
M  V30 6594 H 638.305 2.31813 2.26789 0
M  V30 6595 H 638.09 3.73357 1.19779 0
M  V30 6596 H 639.58 3.56571 2.17363 0
M  V30 6597 N 640.017 0.126909 1.57088 0
M  V30 6598 C 641.428 -0.397201 1.82426 0
M  V30 6599 C 641.779 -1.66084 1.04453 0
M  V30 6600 O 640.904 -2.14534 0.283552 0
M  V30 6601 C 641.499 -0.727411 3.30899 0
M  V30 6602 C 640.058 -1.19612 3.56889 0
M  V30 6603 C 639.205 -0.20885 2.76512 0
M  V30 6604 H 642.156 0.351924 1.54749 0
M  V30 6605 H 642.177 -1.58407 3.45959 0
M  V30 6606 H 641.689 0.19247 3.87622 0
M  V30 6607 H 639.79 -2.13263 3.05532 0
M  V30 6608 H 639.903 -1.13598 4.65438 0
M  V30 6609 H 638.267 -0.697479 2.44964 0
M  V30 6610 H 639.05 0.704267 3.35998 0
M  V30 6611 N 641.495 -1.56914 -0.146875 0
M  V30 6612 C 642.72 -1.87881 -0.878386 0
M  V30 6613 C 643.145 -0.715945 -1.73942 0
M  V30 6614 O 642.503 0.334447 -1.78189 0
M  V30 6615 C 642.551 -3.17431 -1.71084 0
M  V30 6616 O 641.655 -3.01374 -2.81509 0
M  V30 6617 H 640.996 -0.617289 -0.244644 0
M  V30 6618 H 643.526 -2.04136 -0.137654 0
M  V30 6619 H 643.536 -3.49455 -2.10582 0
M  V30 6620 H 642.211 -4.01671 -1.07856 0
M  V30 6621 H 640.788 -2.80758 -2.45416 0
M  V30 6622 N 642.974 0.416227 -1.52004 0
M  V30 6623 C 644.202 1.18573 -1.69553 0
M  V30 6624 C 644.617 1.84472 -0.401919 0
M  V30 6625 O 643.974 1.71593 0.621463 0
M  V30 6626 C 644.025 2.25413 -2.82615 0
M  V30 6627 O 643.746 1.62205 -4.06966 0
M  V30 6628 C 645.247 3.15297 -3.11613 0
M  V30 6629 H 642.467 0.356582 -0.56841 0
M  V30 6630 H 645.011 0.490618 -1.98528 0
M  V30 6631 H 643.166 2.90604 -2.56179 0
M  V30 6632 H 643.58 2.3298 -4.69916 0
M  V30 6633 H 645.054 3.86351 -3.94255 0
M  V30 6634 H 645.531 3.77264 -2.24874 0
M  V30 6635 H 646.137 2.55783 -3.39787 0
M  V30 6636 N 644.452 1.42507 0.673017 0
M  V30 6637 C 645.698 1.43284 1.43519 0
M  V30 6638 C 646.031 0.049668 1.94136 0
M  V30 6639 O 645.306 -0.926369 1.71022 0
M  V30 6640 C 645.589 2.45874 2.63093 0
M  V30 6641 C 645.442 3.93388 2.18096 0
M  V30 6642 C 646.761 2.45431 3.6531 0
M  V30 6643 H 643.88 0.521752 0.520522 0
M  V30 6644 H 646.522 1.73932 0.764701 0
M  V30 6645 H 644.672 2.19869 3.20296 0
M  V30 6646 H 646.344 4.30379 1.66046 0
M  V30 6647 H 644.587 4.07169 1.49652 0
M  V30 6648 H 645.258 4.60752 3.03993 0
M  V30 6649 H 647.734 2.68561 3.17827 0
M  V30 6650 H 646.61 3.19189 4.46553 0
M  V30 6651 H 646.871 1.48092 4.16559 0
M  V30 6652 N 645.93 -0.909495 1.28709 0
M  V30 6653 C 647.341 -1.47419 1.14563 0
M  V30 6654 C 647.692 -1.94432 -0.262832 0
M  V30 6655 O 646.817 -1.82842 -1.15748 0
M  V30 6656 C 647.412 -2.67933 2.07358 0
M  V30 6657 C 645.971 -3.20568 1.97264 0
M  V30 6658 C 645.118 -1.93269 1.98852 0
M  V30 6659 H 648.069 -0.721787 1.41336 0
M  V30 6660 H 648.09 -3.43339 1.64007 0
M  V30 6661 H 647.602 -2.33685 3.09859 0
M  V30 6662 H 645.703 -3.59531 0.978157 0
M  V30 6663 H 645.816 -3.85529 2.84436 0
M  V30 6664 H 644.18 -2.10553 1.43317 0
M  V30 6665 H 644.963 -1.61312 3.0304 0
M  V30 6666 N 647.408 -1.11026 -1.11852 0
M  V30 6667 C 648.657 -0.851249 -1.82857 0
M  V30 6668 C 648.97 0.62514 -1.85341 0
M  V30 6669 O 650.176 1.00026 -2.52403 0
M  V30 6670 C 648.632 -1.47309 -3.28372 0
M  V30 6671 C 648.24 -2.9832 -3.34229 0
M  V30 6672 C 649.984 -1.29373 -4.04306 0
M  V30 6673 C 647.891 -3.53509 -4.74115 0
M  V30 6674 H 646.821 -0.314794 -0.685143 0
M  V30 6675 H 649.472 -1.33499 -1.25898 0
M  V30 6676 H 647.854 -0.917017 -3.85236 0
M  V30 6677 H 649.028 -3.60295 -2.87271 0
M  V30 6678 H 647.343 -3.15482 -2.71772 0
M  V30 6679 H 649.94 -1.68042 -5.07608 0
M  V30 6680 H 650.283 -0.235879 -4.15631 0
M  V30 6681 H 650.816 -1.8182 -3.53817 0
M  V30 6682 H 647.555 -4.58987 -4.67986 0
M  V30 6683 H 647.075 -2.96305 -5.21501 0
M  V30 6684 H 648.754 -3.51693 -5.43066 0
M  V30 6685 N 648.886 1.2938 -0.899927 0
M  V30 6686 C 649.819 2.25911 -0.322386 0
M  V30 6687 C 650.797 1.52447 0.565567 0
M  V30 6688 O 651.981 1.81404 0.512324 0
M  V30 6689 C 649.108 3.3436 0.540455 0
M  V30 6690 C 648.154 4.25579 -0.280211 0
M  V30 6691 S 648.987 5.08526 -1.67814 0
M  V30 6692 C 650.143 6.20476 -0.822224 0
M  V30 6693 H 650.376 2.7455 -1.1406 0
M  V30 6694 H 647.909 1.37606 -0.700285 0
M  V30 6695 H 649.867 3.97303 1.0325 0
M  V30 6696 H 648.528 2.84416 1.33291 0
M  V30 6697 H 647.721 5.02574 0.378915 0
M  V30 6698 H 647.323 3.67287 -0.705405 0
M  V30 6699 H 649.615 6.77485 -0.0457138 0
M  V30 6700 H 650.558 6.90606 -1.56426 0
M  V30 6701 H 650.966 5.63243 -0.37651 0
M  V30 6702 N 650.364 0.662433 1.43002 0
M  V30 6703 C 651.314 -0.0460442 2.27954 0
M  V30 6704 C 652.298 -0.785753 1.40409 0
M  V30 6705 O 653.49 -0.666701 1.63964 0
M  V30 6706 C 650.619 -1.00532 3.2825 0
M  V30 6707 C 649.705 -0.263604 4.2328 0
M  V30 6708 N 650.096 0.724855 5.00579 0
M  V30 6709 C 648.394 -0.503778 4.43146 0
M  V30 6710 C 649.095 1.16594 5.69895 0
M  V30 6711 N 648.071 0.498345 5.41311 0
M  V30 6712 H 651.873 0.712314 2.85137 0
M  V30 6713 H 649.387 0.490469 1.54817 0
M  V30 6714 H 651.384 -1.52775 3.87899 0
M  V30 6715 H 650.044 -1.76364 2.72628 0
M  V30 6716 H 651.055 1.10393 5.05998 0
M  V30 6717 H 647.732 -1.24255 3.98581 0
M  V30 6718 H 649.122 1.98434 6.4193 0
M  V30 6719 N 651.842 -1.52309 0.404946 0
M  V30 6720 C 652.774 -2.24579 -0.45791 0
M  V30 6721 C 653.787 -1.2739 -1.01369 0
M  V30 6722 O 654.976 -1.53363 -0.91335 0
M  V30 6723 C 652.076 -2.9608 -1.64893 0
M  V30 6724 C 651.249 -4.20106 -1.21777 0
M  V30 6725 C 650.308 -4.74468 -2.27523 0
M  V30 6726 O 649.334 -5.37157 -1.88285 0
M  V30 6727 N 650.536 -4.55678 -3.59635 0
M  V30 6728 H 653.301 -2.99265 0.161341 0
M  V30 6729 H 650.862 -1.60228 0.232107 0
M  V30 6730 H 652.854 -3.29344 -2.35191 0
M  V30 6731 H 651.424 -2.24606 -2.17419 0
M  V30 6732 H 650.644 -3.92704 -0.343071 0
M  V30 6733 H 651.932 -5.00658 -0.906596 0
M  V30 6734 H 651.33 -4.05673 -3.94266 0
M  V30 6735 H 649.887 -4.9339 -4.25922 0
M  V30 6736 N 653.32 -0.135238 -1.57019 0
M  V30 6737 C 654.566 0.519563 -1.96032 0
M  V30 6738 C 654.899 1.65284 -1.01955 0
M  V30 6739 O 654.174 1.94408 -0.059727 0
M  V30 6740 C 654.457 1.0369 -3.44848 0
M  V30 6741 C 654.31 -0.0940754 -4.49702 0
M  V30 6742 C 655.629 1.92254 -3.95887 0
M  V30 6743 H 652.748 0.18739 -0.712779 0
M  V30 6744 H 655.39 -0.214086 -1.8879 0
M  V30 6745 H 653.54 1.66209 -3.5115 0
M  V30 6746 H 655.212 -0.73 -4.55487 0
M  V30 6747 H 653.455 -0.754924 -4.27181 0
M  V30 6748 H 654.126 0.309419 -5.51132 0
M  V30 6749 H 656.602 1.39581 -3.9199 0
M  V30 6750 H 655.478 2.25364 -5.00502 0
M  V30 6751 H 655.739 2.85513 -3.37543 0
M  V30 6752 N 654.798 1.5699 0.138552 0
M  V30 6753 C 656.023 1.88344 0.86841 0
M  V30 6754 C 656.448 0.725159 1.7356 0
M  V30 6755 O 655.806 -0.324992 1.78363 0
M  V30 6756 C 655.854 3.18334 1.69398 0
M  V30 6757 O 654.958 3.02863 2.79907 0
M  V30 6758 H 654.299 0.618577 0.241367 0
M  V30 6759 H 656.829 2.04207 0.126826 0
M  V30 6760 H 656.839 3.50567 2.08726 0
M  V30 6761 H 655.514 4.02238 1.05725 0
M  V30 6762 H 654.091 2.82056 2.43924 0
M  V30 6763 N 656.276 -0.40816 1.52223 0
M  V30 6764 C 657.239 -1.48 1.7501 0
M  V30 6765 C 658.239 -1.48367 0.619996 0
M  V30 6766 O 659.429 -1.49874 0.887881 0
M  V30 6767 C 656.561 -2.87403 1.83336 0
M  V30 6768 H 657.754 -1.29086 2.70697 0
M  V30 6769 H 655.307 -0.638715 1.42654 0
M  V30 6770 H 656.042 -3.11686 0.895677 0
M  V30 6771 H 655.827 -2.8854 2.65494 0
M  V30 6772 H 657.317 -3.65103 2.02705 0
M  V30 6773 N 657.755 -1.42862 -0.66545 0
M  V30 6774 C 658.983 -1.47246 -1.45349 0
M  V30 6775 C 659.398 -0.0865944 -1.88601 0
M  V30 6776 O 658.755 0.900652 -1.58728 0
M  V30 6777 C 658.806 -2.40772 -2.6965 0
M  V30 6778 O 658.527 -3.73968 -2.2821 0
M  V30 6779 C 660.028 -2.54272 -3.63126 0
M  V30 6780 H 657.248 -0.500497 -0.446927 0
M  V30 6781 H 659.792 -1.87477 -0.816871 0
M  V30 6782 H 657.947 -2.0377 -3.29479 0
M  V30 6783 H 658.361 -4.24146 -3.08546 0
M  V30 6784 H 659.835 -3.23815 -4.47043 0
M  V30 6785 H 660.312 -1.58364 -4.09656 0
M  V30 6786 H 660.918 -2.92036 -3.09185 0
M  V30 6787 N 659.233 0.902656 -1.29189 0
M  V30 6788 C 660.166 2.00816 -1.0839 0
M  V30 6789 C 661.144 1.626 0.00335266 0
M  V30 6790 O 662.328 1.87928 -0.146765 0
M  V30 6791 C 659.455 3.32415 -0.649435 0
M  V30 6792 C 658.501 3.89617 -1.73496 0
M  V30 6793 S 659.334 4.19091 -3.33351 0
M  V30 6794 C 660.49 5.53736 -2.91766 0
M  V30 6795 H 660.723 2.18151 -2.01984 0
M  V30 6796 H 658.256 1.0489 -1.13303 0
M  V30 6797 H 660.214 4.08492 -0.405479 0
M  V30 6798 H 658.875 3.12964 0.266857 0
M  V30 6799 H 658.068 4.84658 -1.38284 0
M  V30 6800 H 657.67 3.20217 -1.93229 0
M  V30 6801 H 659.962 6.34085 -2.38627 0
M  V30 6802 H 660.905 5.93871 -3.85647 0
M  V30 6803 H 661.313 5.15453 -2.30149 0
M  V30 6804 N 660.711 1.11618 1.11262 0
M  V30 6805 C 662.127 0.850468 1.35053 0
M  V30 6806 C 662.327 -0.523868 1.94571 0
M  V30 6807 O 661.383 -1.2743 2.17986 0
M  V30 6808 C 662.696 1.96005 2.28041 0
M  V30 6809 C 664.244 1.98993 2.416 0
M  V30 6810 C 664.719 3.0916 3.37911 0
M  V30 6811 N 666.21 3.08547 3.45475 0
M  V30 6812 C 666.945 3.9043 4.19943 0
M  V30 6813 N 666.441 4.8228 4.97371 0
M  V30 6814 N 668.234 3.786 4.15474 0
M  V30 6815 H 660.385 2.00184 0.709932 0
M  V30 6816 H 662.648 0.870635 0.375099 0
M  V30 6817 H 662.354 2.9499 1.91503 0
M  V30 6818 H 662.228 1.85782 3.28275 0
M  V30 6819 H 664.615 1.00633 2.77411 0
M  V30 6820 H 664.696 2.13292 1.4121 0
M  V30 6821 H 664.34 4.07748 3.02827 0
M  V30 6822 H 664.27 2.92102 4.3816 0
M  V30 6823 H 666.761 2.42 2.90249 0
M  V30 6824 H 667.074 5.41289 5.51567 0
M  V30 6825 H 665.419 4.863 4.96525 0
M  V30 6826 H 668.61 3.06185 3.54074 0
M  V30 6827 H 668.783 4.42647 4.73253 0
M  V30 6828 N 662.189 -1.289 0.906776 0
M  V30 6829 C 663.414 -1.99939 0.551303 0
M  V30 6830 C 663.839 -1.67366 -0.858496 0
M  V30 6831 O 663.197 -0.902176 -1.57259 0
M  V30 6832 C 663.245 -3.52523 0.758937 0
M  V30 6833 O 662.349 -4.11983 -0.185308 0
M  V30 6834 H 661.69 -0.628376 0.214568 0
M  V30 6835 H 664.22 -1.64225 1.2203 0
M  V30 6836 H 664.23 -4.02522 0.666329 0
M  V30 6837 H 662.905 -3.75566 1.78671 0
M  V30 6838 H 661.482 -3.72873 -0.0445577 0
M  V30 6839 N 663.667 -0.670007 -1.42649 0
M  V30 6840 C 664.916 -0.187526 -2.00826 0
M  V30 6841 C 665.229 1.21142 -1.53571 0
M  V30 6842 O 666.435 1.79001 -2.04134 0
M  V30 6843 C 664.891 -0.284409 -3.58774 0
M  V30 6844 C 664.499 -1.6871 -4.15019 0
M  V30 6845 C 666.243 0.139605 -4.2427 0
M  V30 6846 C 664.15 -1.73701 -5.65316 0
M  V30 6847 H 663.08 -0.0663468 -0.751075 0
M  V30 6848 H 665.731 -0.834492 -1.63427 0
M  V30 6849 H 664.113 0.430364 -3.93655 0
M  V30 6850 H 665.287 -2.42857 -3.91608 0
M  V30 6851 H 663.602 -2.05855 -3.61957 0
M  V30 6852 H 666.199 0.122398 -5.3456 0
M  V30 6853 H 666.542 1.17403 -3.99402 0
M  V30 6854 H 667.075 -0.523995 -3.94334 0
M  V30 6855 H 663.814 -2.75109 -5.94975 0
M  V30 6856 H 663.334 -1.03903 -5.90732 0
M  V30 6857 H 665.013 -1.48829 -6.2965 0
M  V30 6858 N 665.145 1.52092 -0.413018 0
M  V30 6859 C 666.373 2.06274 0.160881 0
M  V30 6860 C 666.788 1.28273 1.38533 0
M  V30 6861 O 666.145 0.33563 1.79387 0
M  V30 6862 C 666.196 3.57921 0.507443 0
M  V30 6863 O 665.917 4.32971 -0.668388 0
M  V30 6864 C 667.418 4.28533 1.13465 0
M  V30 6865 H 664.638 0.67074 0.0186759 0
M  V30 6866 H 667.182 1.95951 -0.585092 0
M  V30 6867 H 665.337 3.68238 1.20331 0
M  V30 6868 H 665.751 5.23135 -0.378169 0
M  V30 6869 H 667.225 5.35804 1.32732 0
M  V30 6870 H 667.702 3.85258 2.10886 0
M  V30 6871 H 668.308 4.22595 0.478876 0
M  V30 6872 N 666.623 0.143563 1.56945 0
M  V30 6873 C 667.553 -0.7936 2.196 0
M  V30 6874 C 668.534 -1.25955 1.14321 0
M  V30 6875 O 669.719 -1.31773 1.42651 0
M  V30 6876 C 666.849 -2.03424 2.81489 0
M  V30 6877 C 665.803 -1.70519 3.92565 0
M  V30 6878 C 665.129 -3.01817 4.41373 0
M  V30 6879 C 666.429 -0.95449 5.13504 0
M  V30 6880 H 668.123 -0.271423 2.98167 0
M  V30 6881 H 665.669 -0.12911 1.4342 0
M  V30 6882 H 667.622 -2.69463 3.23987 0
M  V30 6883 H 666.346 -2.58008 2.00248 0
M  V30 6884 H 665.005 -1.06859 3.5068 0
M  V30 6885 H 664.653 -3.54386 3.56959 0
M  V30 6886 H 664.353 -2.80565 5.16292 0
M  V30 6887 H 665.877 -3.68934 4.86539 0
M  V30 6888 H 667.291 -1.5169 5.52868 0
M  V30 6889 H 665.688 -0.842035 5.94163 0
M  V30 6890 H 666.758 0.0544033 4.84869 0
M  V30 6891 N 668.101 -1.57061 -0.130224 0
M  V30 6892 C 669.326 -1.88802 -0.858409 0
M  V30 6893 C 669.751 -0.734353 -1.73173 0
M  V30 6894 O 669.109 0.315529 -1.78533 0
M  V30 6895 C 669.157 -3.19228 -1.67708 0
M  V30 6896 O 668.261 -3.04343 -2.78297 0
M  V30 6897 H 667.602 -0.619849 -0.238083 0
M  V30 6898 H 670.132 -2.04271 -0.115995 0
M  V30 6899 H 670.142 -3.51669 -2.06864 0
M  V30 6900 H 668.817 -4.02793 -1.0359 0
M  V30 6901 H 667.394 -2.83346 -2.42425 0
M  V30 6902 N 669.579 0.400081 -1.52437 0
M  V30 6903 C 670.825 1.14456 -1.68141 0
M  V30 6904 C 671.18 1.87965 -0.410722 0
M  V30 6905 O 670.473 1.82121 0.595195 0
M  V30 6906 C 670.667 2.15914 -2.84808 0
M  V30 6907 C 670.496 1.5237 -4.231 0
M  V30 6908 C 669.266 1.29252 -4.8849 0
M  V30 6909 C 671.464 0.979722 -5.04882 0
M  V30 6910 N 669.446 0.616955 -6.10792 0
M  V30 6911 C 670.817 0.43159 -6.18496 0
M  V30 6912 C 672.872 0.875059 -4.9015 0
M  V30 6913 C 671.575 -0.210958 -7.18991 0
M  V30 6914 C 673.601 0.246351 -5.90887 0
M  V30 6915 C 672.963 -0.291062 -7.03798 0
M  V30 6916 H 669.062 0.405181 -0.668844 0
M  V30 6917 H 671.646 0.435655 -1.89763 0
M  V30 6918 H 669.817 2.84154 -2.64785 0
M  V30 6919 H 671.549 2.8279 -2.89503 0
M  V30 6920 H 668.304 1.56451 -4.47012 0
M  V30 6921 H 668.728 0.295536 -6.76355 0
M  V30 6922 H 673.37 1.27636 -4.03074 0
M  V30 6923 H 671.088 -0.6243 -8.05685 0
M  V30 6924 H 674.674 0.166765 -5.81561 0
M  V30 6925 H 673.554 -0.76988 -7.80412 0
M  V30 6926 N 671.057 1.43213 0.657864 0
M  V30 6927 C 672.468 1.39669 1.23893 0
M  V30 6928 C 672.819 0.0984217 1.95953 0
M  V30 6929 O 671.944 -0.8023 2.00978 0
M  V30 6930 C 672.539 2.53004 2.25332 0
M  V30 6931 C 671.098 2.5274 2.78926 0
M  V30 6932 C 670.245 2.30941 1.53497 0
M  V30 6933 H 673.196 1.52181 0.450172 0
M  V30 6934 H 673.217 2.24226 3.07413 0
M  V30 6935 H 672.729 3.4748 1.72856 0
M  V30 6936 H 670.83 1.6213 3.35477 0
M  V30 6937 H 670.943 3.50352 3.26787 0
M  V30 6938 H 669.307 1.7952 1.80678 0
M  V30 6939 H 670.09 3.27496 1.02963 0
M  V30 6940 N 672.536 -0.895792 1.29666 0
M  V30 6941 C 673.468 -2.00563 1.10937 0
M  V30 6942 C 674.481 -1.62705 0.055734 0
M  V30 6943 O 675.67 -1.7595 0.300656 0
M  V30 6944 C 672.77 -3.32262 0.667448 0
M  V30 6945 C 671.943 -3.98625 1.80047 0
M  V30 6946 C 671.002 -5.08617 1.3489 0
M  V30 6947 O 670.028 -5.30837 2.05429 0
M  V30 6948 N 671.23 -5.80076 0.221937 0
M  V30 6949 H 673.995 -2.17184 2.06522 0
M  V30 6950 H 671.556 -1.06822 1.21658 0
M  V30 6951 H 673.548 -4.03196 0.348586 0
M  V30 6952 H 672.118 -3.11985 -0.196055 0
M  V30 6953 H 671.338 -3.21005 2.28801 0
M  V30 6954 H 672.626 -4.39704 2.56003 0
M  V30 6955 H 672.024 -5.64514 -0.366084 0
M  V30 6956 H 670.581 -6.51789 -0.0375346 0
M  V30 6957 N 674.014 -1.12206 -1.10668 0
M  V30 6958 C 675.425 -0.890657 -1.64086 0
M  V30 6959 C 675.776 0.575502 -1.8757 0
M  V30 6960 O 674.901 1.4394 -1.61587 0
M  V30 6961 C 675.496 -1.61029 -2.98085 0
M  V30 6962 C 674.055 -1.4251 -3.48379 0
M  V30 6963 C 673.202 -1.64778 -2.23033 0
M  V30 6964 H 676.153 -1.27718 -0.94201 0
M  V30 6965 H 676.174 -1.05993 -3.65439 0
M  V30 6966 H 675.686 -2.67735 -2.80962 0
M  V30 6967 H 673.787 -0.380497 -3.70652 0
M  V30 6968 H 673.9 -2.17959 -4.26651 0
M  V30 6969 H 672.264 -1.07171 -2.31055 0
M  V30 6970 H 673.047 -2.72776 -2.08443 0
M  V30 6971 N 675.492 1.28418 -0.913599 0
M  V30 6972 C 676.402 2.31043 -0.406965 0
M  V30 6973 C 677.418 1.66501 0.505298 0
M  V30 6974 O 678.594 1.97558 0.391522 0
M  V30 6975 C 675.659 3.4498 0.344901 0
M  V30 6976 C 674.72 4.25078 -0.600563 0
M  V30 6977 C 673.953 5.33575 0.115516 0
M  V30 6978 O 674.176 5.54503 1.33727 0
M  V30 6979 O 673.11 5.9939 -0.549095 0
M  V30 6980 H 676.936 2.76387 -1.25873 0
M  V30 6981 H 674.521 1.33109 -0.678415 0
M  V30 6982 H 676.403 4.14314 0.769542 0
M  V30 6983 H 675.078 3.01719 1.1725 0
M  V30 6984 H 673.985 3.58334 -1.0746 0
M  V30 6985 H 675.318 4.72018 -1.39497 0
M  V30 6986 N 676.97 0.677563 1.42291 0
M  V30 6987 C 677.902 -0.0380218 2.29168 0
M  V30 6988 C 678.915 -0.762714 1.43828 0
M  V30 6989 O 680.104 -0.616413 1.67519 0
M  V30 6990 C 677.204 -1.07761 3.21311 0
M  V30 6991 C 676.377 -0.42618 4.35319 0
M  V30 6992 C 675.436 -1.36592 5.08162 0
M  V30 6993 O 674.462 -0.865174 5.62586 0
M  V30 6994 N 675.664 -2.69909 5.13935 0
M  V30 6995 H 678.429 0.707766 2.91223 0
M  V30 6996 H 675.99 0.52219 1.53247 0
M  V30 6997 H 677.982 -1.70761 3.6691 0
M  V30 6998 H 676.552 -1.72511 2.60689 0
M  V30 6999 H 675.772 0.383385 3.92331 0
M  V30 7000 H 677.06 0.0275277 5.08793 0
M  V30 7001 H 676.458 -3.13129 4.71134 0
M  V30 7002 H 675.015 -3.2815 5.6317 0
M  V30 7003 N 678.448 -1.51871 0.421078 0
M  V30 7004 C 679.859 -1.86644 -0.0457991 0
M  V30 7005 C 680.21 -1.33919 -1.43388 0
M  V30 7006 O 679.335 -0.683316 -2.05328 0
M  V30 7007 C 679.93 -3.38681 -0.0898844 0
M  V30 7008 C 678.489 -3.73049 -0.501127 0
M  V30 7009 C 677.636 -2.75485 0.316723 0
M  V30 7010 H 680.587 -1.45327 0.637635 0
M  V30 7011 H 680.608 -3.69636 -0.902734 0
M  V30 7012 H 680.12 -3.77025 0.920513 0
M  V30 7013 H 678.221 -3.40288 -1.51773 0
M  V30 7014 H 678.334 -4.78512 -0.237217 0
M  V30 7015 H 676.698 -2.53725 -0.222663 0
M  V30 7016 H 677.481 -3.16671 1.32569 0
M  V30 7017 N 679.926 -0.151884 -1.56866 0
M  V30 7018 C 680.874 0.80299 -2.183 0
M  V30 7019 C 681.868 1.25174 -1.14139 0
M  V30 7020 O 683.074 1.21966 -1.3238 0
M  V30 7021 H 679.449 0.277169 -0.699057 0
M  V30 7022 H 681.42 0.260699 -2.97259 0
M  V30 7023 C 680.169 2.03009 -2.82281 0
M  V30 7024 H 679.492 1.69377 -3.62148 0
M  V30 7025 H 680.932 2.67753 -3.28762 0
M  V30 7026 C 679.391 2.84123 -1.81041 0
M  V30 7027 O 679.921 3.8063 -1.28388 0
M  V30 7028 N 678.127 2.48753 -1.50234 0
M  V30 7029 H 677.674 1.70337 -1.93244 0
M  V30 7030 H 677.632 3.03316 -0.827445 0
M  V30 7031 N 681.404 1.57128 0.121893 0
M  V30 7032 C 682.652 1.84335 0.828548 0
M  V30 7033 C 682.973 0.736632 1.80551 0
M  V30 7034 O 682.243 -0.23962 1.94429 0
M  V30 7035 H 680.823 0.680108 0.30897 0
M  V30 7036 H 683.485 1.9459 0.109906 0
M  V30 7037 H 682.581 2.80152 1.37554 0
M  V30 7038 N 682.882 -0.391992 1.52647 0
M  V30 7039 C 684.131 -1.13449 1.6677 0
M  V30 7040 C 684.444 -1.91203 0.412399 0
M  V30 7041 O 685.65 -2.68013 0.433707 0
M  V30 7042 C 684.106 -2.06577 2.9471 0
M  V30 7043 C 683.714 -1.3426 4.27409 0
M  V30 7044 C 685.458 -2.80981 3.18198 0
M  V30 7045 C 683.365 -2.26136 5.46458 0
M  V30 7046 H 682.295 -0.427211 0.621295 0
M  V30 7047 H 684.946 -0.397522 1.79142 0
M  V30 7048 H 683.328 -2.83898 2.76076 0
M  V30 7049 H 684.502 -0.621856 4.56585 0
M  V30 7050 H 682.817 -0.718279 4.10158 0
M  V30 7051 H 685.414 -3.49898 4.04321 0
M  V30 7052 H 685.757 -3.44891 2.33144 0
M  V30 7053 H 686.29 -2.10754 3.37383 0
M  V30 7054 H 683.029 -1.66846 6.33911 0
M  V30 7055 H 682.549 -2.96134 5.21598 0
M  V30 7056 H 684.228 -2.86286 5.80215 0
M  V30 7057 N 684.36 -1.4356 -0.65026 0
M  V30 7058 C 685.609 -1.44619 -1.406 0
M  V30 7059 C 685.922 -0.0752645 -1.95455 0
M  V30 7060 O 687.128 0.0366832 -2.71475 0
M  V30 7061 C 685.584 -2.54511 -2.54465 0
M  V30 7062 C 685.192 -3.97723 -2.06204 0
M  V30 7063 C 686.936 -2.64768 -3.31811 0
M  V30 7064 C 684.843 -4.99075 -3.17298 0
M  V30 7065 H 683.773 -0.537983 -0.52829 0
M  V30 7066 H 686.424 -1.69559 -0.701561 0
M  V30 7067 H 684.806 -2.22777 -3.27393 0
M  V30 7068 H 685.98 -4.38932 -1.40267 0
M  V30 7069 H 684.295 -3.91538 -1.41729 0
M  V30 7070 H 686.892 -3.37664 -4.14593 0
M  V30 7071 H 687.235 -1.69936 -3.80036 0
M  V30 7072 H 687.768 -2.95817 -2.65964 0
M  V30 7073 H 684.507 -5.95469 -2.74038 0
M  V30 7074 H 684.027 -4.62476 -3.81937 0
M  V30 7075 H 685.706 -5.21913 -3.82382 0
M  V30 7076 N 685.838 0.888903 -1.30139 0
M  V30 7077 C 686.768 2.01046 -1.18755 0
M  V30 7078 C 687.749 1.69916 -0.0791438 0
M  V30 7079 O 688.934 1.92445 -0.260498 0
M  V30 7080 C 686.064 3.36109 -0.874518 0
M  V30 7081 C 685.018 3.81486 -1.94043 0
M  V30 7082 C 684.344 5.13796 -1.48047 0
M  V30 7083 C 685.644 4.00637 -3.35093 0
M  V30 7084 H 687.338 2.10828 -2.12584 0
M  V30 7085 H 684.884 1.01298 -1.02346 0
M  V30 7086 H 686.837 4.14089 -0.781548 0
M  V30 7087 H 685.561 3.26449 0.0994519 0
M  V30 7088 H 684.22 3.05731 -2.02297 0
M  V30 7089 H 683.868 5.0056 -0.494878 0
M  V30 7090 H 683.568 5.45127 -2.19341 0
M  V30 7091 H 685.092 5.94305 -1.40121 0
M  V30 7092 H 686.506 4.69067 -3.2962 0
M  V30 7093 H 684.903 4.43339 -4.04438 0
M  V30 7094 H 685.973 3.0462 -3.77273 0
M  V30 7095 N 687.317 1.12792 1.10072 0
M  V30 7096 C 688.594 0.796867 1.78632 0
M  V30 7097 C 688.974 -0.712739 1.98704 0
M  V30 7098 O 688.322 -1.64773 1.5831 0
M  V30 7099 C 688.532 1.57622 3.11378 0
M  V30 7100 C 689.88 1.76463 3.86194 0
M  V30 7101 O 690.904 1.54165 3.2111 0
M  V30 7102 O 689.763 2.13623 5.03018 0
M  V30 7103 H 686.857 0.290248 0.774394 0
M  V30 7104 H 689.403 1.23215 1.16688 0
M  V30 7105 H 688.175 2.60246 2.92212 0
M  V30 7106 H 687.798 1.13543 3.81043 0
M  V30 7107 N 688.795 -1.27931 0.920396 0
M  V30 7108 C 690.025 -1.98516 0.572256 0
M  V30 7109 C 690.433 -1.68912 -0.852375 0
M  V30 7110 O 689.776 -0.94203 -1.57707 0
M  V30 7111 C 689.838 -3.5243 0.709485 0
M  V30 7112 C 689.502 -4.0564 2.10489 0
M  V30 7113 C 690.499 -4.1897 3.07831 0
M  V30 7114 C 688.184 -4.40168 2.41986 0
M  V30 7115 C 690.178 -4.66093 4.34783 0
M  V30 7116 C 687.865 -4.86983 3.69176 0
M  V30 7117 C 688.863 -4.99903 4.65388 0
M  V30 7118 O 688.551 -5.45694 5.90316 0
M  V30 7119 H 688.283 -0.64047 0.216274 0
M  V30 7120 H 690.837 -1.6393 1.23758 0
M  V30 7121 H 689.067 -3.86698 -0.0129263 0
M  V30 7122 H 690.756 -4.04233 0.367474 0
M  V30 7123 H 691.522 -3.92562 2.84816 0
M  V30 7124 H 687.401 -4.29358 1.67846 0
M  V30 7125 H 690.945 -4.76092 5.09884 0
M  V30 7126 H 686.842 -5.12832 3.92012 0
M  V30 7127 H 687.61 -5.63965 5.932 0
M  V30 7128 N 690.273 -0.685099 -1.4193 0
M  V30 7129 C 691.183 -0.013404 -2.34596 0
M  V30 7130 C 692.199 0.777589 -1.55658 0
M  V30 7131 O 693.375 0.717553 -1.88184 0
M  V30 7132 C 690.44 0.919031 -3.34297 0
M  V30 7133 C 689.501 0.121417 -4.29128 0
M  V30 7134 C 688.734 1.00944 -5.24067 0
M  V30 7135 O 688.957 2.24898 -5.24192 0
M  V30 7136 O 687.891 0.464724 -6.00103 0
M  V30 7137 H 691.717 -0.776978 -2.93593 0
M  V30 7138 H 689.302 -0.445379 -1.42607 0
M  V30 7139 H 691.184 1.45402 -3.9552 0
M  V30 7140 H 689.859 1.66228 -2.77759 0
M  V30 7141 H 688.766 -0.45792 -3.71287 0
M  V30 7142 H 690.099 -0.582937 -4.88736 0
M  V30 7143 N 691.751 1.51645 -0.429126 0
M  V30 7144 C 693 2.01203 0.141538 0
M  V30 7145 C 693.313 1.31828 1.44502 0
M  V30 7146 O 694.519 1.7231 2.09813 0
M  V30 7147 C 692.975 3.58624 0.302786 0
M  V30 7148 C 692.583 4.3693 -0.989775 0
M  V30 7149 C 694.327 4.16353 0.827661 0
M  V30 7150 C 692.234 5.86037 -0.794619 0
M  V30 7151 H 691.164 0.751867 0.05667 0
M  V30 7152 H 693.815 1.74822 -0.557633 0
M  V30 7153 H 692.197 3.81417 1.06476 0
M  V30 7154 H 693.371 4.25887 -1.75945 0
M  V30 7155 H 691.686 3.90614 -1.44256 0
M  V30 7156 H 694.283 5.25455 0.990026 0
M  V30 7157 H 694.626 3.74995 1.80787 0
M  V30 7158 H 695.159 3.97606 0.124213 0
M  V30 7159 H 691.898 6.31792 -1.74697 0
M  V30 7160 H 691.418 5.99765 -0.0645968 0
M  V30 7161 H 693.097 6.45471 -0.444591 0
M  V30 7162 N 693.229 0.160201 1.56784 0
M  V30 7163 C 694.645 -0.196089 1.58391 0
M  V30 7164 C 694.845 -1.63689 1.17508 0
M  V30 7165 O 693.901 -2.36613 0.881506 0
M  V30 7166 C 695.214 0.0746449 3.00607 0
M  V30 7167 C 696.762 0.0119762 3.12998 0
M  V30 7168 C 697.237 0.255551 4.57286 0
M  V30 7169 N 698.728 0.202938 4.62755 0
M  V30 7170 C 699.463 0.365731 5.72232 0
M  V30 7171 N 698.959 0.586972 6.90309 0
M  V30 7172 N 700.752 0.302411 5.61286 0
M  V30 7173 H 692.903 1.1008 1.81648 0
M  V30 7174 H 695.166 0.436779 0.841384 0
M  V30 7175 H 694.872 1.07231 3.34954 0
M  V30 7176 H 694.746 -0.638802 3.71751 0
M  V30 7177 H 697.133 -0.976254 2.78484 0
M  V30 7178 H 697.214 0.75796 2.44313 0
M  V30 7179 H 696.858 1.24094 4.92507 0
M  V30 7180 H 696.788 -0.510912 5.24116 0
M  V30 7181 H 699.279 0.0371328 3.77882 0
M  V30 7182 H 699.592 0.700941 7.69615 0
M  V30 7183 H 697.937 0.623453 6.92198 0
M  V30 7184 H 701.128 0.130238 4.67919 0
M  V30 7185 H 701.301 0.432712 6.46554 0
M  V30 7186 N 694.707 -1.5719 -0.113559 0
M  V30 7187 C 695.937 -1.89053 -0.833212 0
M  V30 7188 C 696.345 -0.750139 -1.73694 0
M  V30 7189 O 695.688 0.287808 -1.81431 0
M  V30 7190 C 695.75 -3.15986 -1.71443 0
M  V30 7191 C 695.414 -4.46271 -0.984449 0
M  V30 7192 C 696.411 -5.18897 -0.322741 0
M  V30 7193 C 694.096 -4.92963 -0.964011 0
M  V30 7194 C 696.09 -6.3644 0.349646 0
M  V30 7195 C 693.777 -6.10422 -0.287828 0
M  V30 7196 C 694.775 -6.82009 0.36784 0
M  V30 7197 O 694.463 -7.97233 1.03322 0
M  V30 7198 H 694.195 -0.630225 -0.244526 0
M  V30 7199 H 696.749 -2.05152 -0.100847 0
M  V30 7200 H 694.979 -2.95984 -2.48858 0
M  V30 7201 H 696.668 -3.33826 -2.309 0
M  V30 7202 H 697.434 -4.83875 -0.330114 0
M  V30 7203 H 693.313 -4.37143 -1.46379 0
M  V30 7204 H 696.857 -6.92254 0.861996 0
M  V30 7205 H 692.754 -6.449 -0.278237 0
M  V30 7206 H 693.522 -8.13105 0.938247 0
M  V30 7207 N 696.185 0.383891 -1.52853 0
M  V30 7208 C 697.415 1.14783 -1.7178 0
M  V30 7209 C 697.823 1.84055 -0.438211 0
M  V30 7210 O 697.166 1.73713 0.597465 0
M  V30 7211 C 697.228 2.23543 -2.81547 0
M  V30 7212 C 696.892 1.74195 -4.22499 0
M  V30 7213 C 697.889 1.21591 -5.05481 0
M  V30 7214 C 695.574 1.80262 -4.6884 0
M  V30 7215 C 697.568 0.757104 -6.32888 0
M  V30 7216 C 695.255 1.33993 -5.96229 0
M  V30 7217 C 696.253 0.818049 -6.78083 0
M  V30 7218 O 695.941 0.362123 -8.03084 0
M  V30 7219 H 695.673 0.349908 -0.578395 0
M  V30 7220 H 698.227 0.454377 -2.00311 0
M  V30 7221 H 696.457 2.96328 -2.48449 0
M  V30 7222 H 698.146 2.8519 -2.88828 0
M  V30 7223 H 698.912 1.16257 -4.7086 0
M  V30 7224 H 694.791 2.19825 -4.05213 0
M  V30 7225 H 698.335 0.34908 -6.96726 0
M  V30 7226 H 694.232 1.39015 -6.30353 0
M  V30 7227 H 695 0.483134 -8.17073 0
M  V30 7228 N 697.663 1.43903 0.642637 0
M  V30 7229 C 698.573 1.52349 1.78401 0
M  V30 7230 C 699.589 0.409869 1.69104 0
M  V30 7231 O 700.765 0.665548 1.90085 0
M  V30 7232 C 697.83 1.45408 3.14734 0
M  V30 7233 C 696.891 2.67528 3.35749 0
M  V30 7234 C 696.124 2.60909 4.65577 0
M  V30 7235 O 696.347 1.6627 5.45628 0
M  V30 7236 O 695.281 3.5158 4.88544 0
M  V30 7237 H 699.107 2.48752 1.7423 0
M  V30 7238 H 696.692 1.26021 0.802439 0
M  V30 7239 H 698.574 1.44019 3.96026 0
M  V30 7240 H 697.249 0.521437 3.19473 0
M  V30 7241 H 696.156 2.74487 2.5418 0
M  V30 7242 H 697.489 3.598 3.35864 0
M  V30 7243 N 699.141 -0.881989 1.30609 0
M  V30 7244 C 700.088 -1.98803 1.17244 0
M  V30 7245 C 701.058 -1.65987 0.0611905 0
M  V30 7246 O 702.243 -1.89385 0.231911 0
M  V30 7247 C 699.383 -3.33867 0.87333 0
M  V30 7248 C 698.496 -3.79354 2.06675 0
M  V30 7249 C 697.631 -5.03078 1.70547 0
M  V30 7250 C 696.67 -5.40981 2.86366 0
M  V30 7251 N 695.807 -6.55886 2.50514 0
M  V30 7252 H 700.647 -2.09566 2.11863 0
M  V30 7253 H 698.184 -1.02607 1.05405 0
M  V30 7254 H 700.142 -4.11612 0.680519 0
M  V30 7255 H 698.772 -3.2278 -0.0359983 0
M  V30 7256 H 697.824 -2.97492 2.37071 0
M  V30 7257 H 699.136 -4.03382 2.93401 0
M  V30 7258 H 698.29 -5.88457 1.47658 0
M  V30 7259 H 697.029 -4.80927 0.809947 0
M  V30 7260 H 696.034 -4.54127 3.09917 0
M  V30 7261 H 697.259 -5.65104 3.76609 0
M  V30 7262 H 695.205 -6.35306 1.63471 0
M  V30 7263 H 695.122 -6.79799 3.30771 0
M  V30 7264 H 696.39 -7.44489 2.30989 0
M  V30 7265 N 700.619 -1.13374 -1.09472 0
M  V30 7266 C 701.529 -0.824029 -2.19652 0
M  V30 7267 C 702.545 0.19118 -1.72947 0
M  V30 7268 O 703.721 0.0223464 -2.01388 0
M  V30 7269 C 700.786 -0.294009 -3.45451 0
M  V30 7270 C 699.847 -1.3704 -4.0684 0
M  V30 7271 C 699.08 -0.86558 -5.26634 0
M  V30 7272 O 699.303 0.29702 -5.69626 0
M  V30 7273 O 698.237 -1.63968 -5.79136 0
M  V30 7274 H 702.063 -1.74454 -2.48595 0
M  V30 7275 H 699.648 -0.911155 -1.18399 0
M  V30 7276 H 701.53 -0.00381039 -4.214 0
M  V30 7277 H 700.205 0.598921 -3.18111 0
M  V30 7278 H 699.112 -1.71391 -3.3253 0
M  V30 7279 H 700.445 -2.23746 -4.38405 0
M  V30 7280 N 702.098 1.27442 -0.927168 0
M  V30 7281 C 703.048 2.24519 -0.396878 0
M  V30 7282 C 704.032 1.52981 0.498555 0
M  V30 7283 O 705.224 1.7378 0.336087 0
M  V30 7284 C 702.353 3.41514 0.349694 0
M  V30 7285 C 701.439 4.20357 -0.562226 0
M  V30 7286 N 701.83 4.7702 -1.68182 0
M  V30 7287 C 700.128 4.44503 -0.365135 0
M  V30 7288 C 700.829 5.36467 -2.24895 0
M  V30 7289 N 699.805 5.21371 -1.5386 0
M  V30 7290 H 703.607 2.65911 -1.25173 0
M  V30 7291 H 701.121 1.42366 -0.78138 0
M  V30 7292 H 703.118 4.10161 0.746536 0
M  V30 7293 H 701.778 3.01653 1.20148 0
M  V30 7294 H 702.789 4.74985 -2.06421 0
M  V30 7295 H 699.466 4.15111 0.446037 0
M  V30 7296 H 700.856 5.91264 -3.1915 0
M  V30 7297 N 703.576 0.692616 1.41565 0
M  V30 7298 C 704.524 0.0139952 2.32596 0
M  V30 7299 C 705.518 -0.771691 1.50802 0
M  V30 7300 O 706.724 -0.677646 1.66757 0
M  V30 7301 H 703.099 -0.0142745 0.751865 0
M  V30 7302 H 705.07 0.798851 2.87508 0
M  V30 7303 C 703.819 -0.910602 3.35564 0
M  V30 7304 H 703.142 -0.315446 3.98554 0
M  V30 7305 H 704.582 -1.3538 4.01806 0
M  V30 7306 C 703.041 -2.02539 2.6922 0
M  V30 7307 O 703.571 -3.11386 2.53775 0
M  V30 7308 N 701.777 -1.80227 2.27962 0
M  V30 7309 H 701.324 -0.917054 2.40724 0
M  V30 7310 H 701.282 -2.55001 1.83907 0
M  V30 7311 N 705.054 -1.51416 0.437162 0
M  V30 7312 C 705.964 -2.31493 -0.380537 0
M  V30 7313 C 706.98 -1.40399 -1.02782 0
M  V30 7314 O 708.156 -1.73471 -1.02323 0
M  V30 7315 C 705.221 -3.1413 -1.46709 0
M  V30 7316 C 704.282 -4.21003 -0.839953 0
M  V30 7317 C 703.515 -4.9969 -1.87473 0
M  V30 7318 O 703.738 -4.79008 -3.09689 0
M  V30 7319 O 702.672 -5.8379 -1.46536 0
M  V30 7320 H 706.498 -3.02469 0.273183 0
M  V30 7321 H 704.083 -1.48059 0.199706 0
M  V30 7322 H 705.965 -3.65505 -2.09724 0
M  V30 7323 H 704.64 -2.45919 -2.10489 0
M  V30 7324 H 703.547 -3.73706 -0.171752 0
M  V30 7325 H 704.88 -4.91587 -0.245638 0
M  V30 7326 N 706.532 -0.168513 -1.56696 0
M  V30 7327 C 707.779 0.477158 -1.96798 0
M  V30 7328 C 708.107 1.63442 -1.05437 0
M  V30 7329 O 707.362 1.95503 -0.0878903 0
M  V30 7330 C 707.661 1.00441 -3.42996 0
M  V30 7331 C 707.327 -0.0366556 -4.50885 0
M  V30 7332 C 705.989 -0.322785 -4.80116 0
M  V30 7333 C 708.341 -0.743447 -5.1587 0
M  V30 7334 C 705.669 -1.32114 -5.71632 0
M  V30 7335 C 708.021 -1.73077 -6.08463 0
M  V30 7336 C 706.685 -2.02437 -6.36062 0
M  V30 7337 H 705.955 0.174604 -0.720135 0
M  V30 7338 H 708.602 -0.259884 -1.89728 0
M  V30 7339 H 706.907 1.81922 -3.47004 0
M  V30 7340 H 708.604 1.51294 -3.71364 0
M  V30 7341 H 705.194 0.196532 -4.28149 0
M  V30 7342 H 709.378 -0.535602 -4.93401 0
M  V30 7343 H 704.634 -1.55482 -5.913 0
M  V30 7344 H 708.808 -2.28382 -6.57886 0
M  V30 7345 H 706.435 -2.79946 -7.06777 0
M  V30 7346 N 708.01 1.57248 0.105221 0
M  V30 7347 C 708.958 2.02337 1.14728 0
M  V30 7348 C 709.952 0.922652 1.42069 0
M  V30 7349 O 711.158 1.10785 1.41869 0
M  V30 7350 H 707.533 0.644682 0.387155 0
M  V30 7351 H 709.504 2.89063 0.740607 0
M  V30 7352 C 708.253 2.45513 2.46209 0
M  V30 7353 H 707.576 3.29785 2.26013 0
M  V30 7354 H 709.016 2.80846 3.1765 0
M  V30 7355 C 707.475 1.3243 3.09781 0
M  V30 7356 O 708.005 0.647841 3.96442 0
M  V30 7357 N 706.211 1.07785 2.69872 0
M  V30 7358 H 705.758 1.62973 1.99493 0
M  V30 7359 H 705.716 0.323204 3.12734 0
M  V30 7360 N 709.488 -0.375779 1.53054 0
M  V30 7361 C 710.713 -1.14484 1.7294 0
M  V30 7362 C 711.138 -1.82572 0.452668 0
M  V30 7363 O 710.496 -1.71343 -0.592567 0
M  V30 7364 C 710.544 -2.15857 2.88857 0
M  V30 7365 O 709.648 -3.22725 2.56753 0
M  V30 7366 H 708.989 -0.332666 0.574656 0
M  V30 7367 H 711.519 -0.436025 1.999 0
M  V30 7368 H 711.529 -2.59631 3.14731 0
M  V30 7369 H 710.204 -1.65689 3.81471 0
M  V30 7370 H 708.781 -2.83996 2.41663 0
M  V30 7371 N 710.966 -1.44241 -0.634997 0
M  V30 7372 C 712.191 -1.50516 -1.42687 0
M  V30 7373 C 712.616 -0.129864 -1.87651 0
M  V30 7374 O 711.974 0.880164 -1.58502 0
M  V30 7375 C 712.022 -2.4714 -2.62591 0
M  V30 7376 O 711.126 -1.97025 -3.62291 0
M  V30 7377 H 710.467 -0.50841 -0.427101 0
M  V30 7378 H 712.997 -1.89337 -0.775408 0
M  V30 7379 H 713.007 -2.65048 -3.10183 0
M  V30 7380 H 711.682 -3.47039 -2.29209 0
M  V30 7381 H 710.259 -1.88866 -3.21534 0
M  V30 7382 N 712.444 0.87505 -1.31075 0
M  V30 7383 C 713.377 1.98471 -1.12625 0
M  V30 7384 C 714.355 1.6257 -0.0311379 0
M  V30 7385 O 715.539 1.87574 -0.186594 0
M  V30 7386 C 712.666 3.30963 -0.719799 0
M  V30 7387 C 711.712 3.85849 -1.81722 0
M  V30 7388 S 712.545 4.11926 -3.42165 0
M  V30 7389 C 713.701 5.47423 -3.03445 0
M  V30 7390 H 713.934 2.13817 -2.06566 0
M  V30 7391 H 711.467 1.02463 -1.15502 0
M  V30 7392 H 713.425 4.07541 -0.492035 0
M  V30 7393 H 712.086 3.1346 0.200413 0
M  V30 7394 H 711.279 4.81616 -1.48533 0
M  V30 7395 H 710.881 3.16046 -1.99977 0
M  V30 7396 H 713.173 6.28881 -2.52023 0
M  V30 7397 H 714.116 5.85557 -3.98157 0
M  V30 7398 H 714.524 5.10455 -2.41031 0
M  V30 7399 N 713.922 1.13953 1.08869 0
M  V30 7400 C 714.885 0.824991 2.13838 0
M  V30 7401 C 715.885 -0.168198 1.59918 0
M  V30 7402 O 717.075 0.0595778 1.74098 0
M  V30 7403 C 714.207 0.228938 3.4013 0
M  V30 7404 H 715.4 1.75521 2.43171 0
M  V30 7405 H 712.953 0.94492 1.24503 0
M  V30 7406 H 713.688 -0.710227 3.16427 0
M  V30 7407 H 713.473 0.944243 3.80561 0
M  V30 7408 H 714.963 0.0259223 4.17592 0
M  V30 7409 N 715.4 -1.26948 0.933913 0
M  V30 7410 C 716.816 -1.46419 0.635103 0
M  V30 7411 C 717.016 -1.84336 -0.813785 0
M  V30 7412 O 716.072 -1.96061 -1.59111 0
M  V30 7413 C 717.385 -2.55206 1.5903 0
M  V30 7414 C 718.933 -2.69062 1.5992 0
M  V30 7415 C 719.408 -3.81013 2.54152 0
M  V30 7416 N 720.899 -3.88395 2.52395 0
M  V30 7417 C 721.634 -4.74454 3.21996 0
M  V30 7418 N 721.13 -5.64954 4.00997 0
M  V30 7419 N 722.923 -4.68237 3.10983 0
M  V30 7420 H 715.074 -1.00622 1.87053 0
M  V30 7421 H 717.337 -0.503189 0.803433 0
M  V30 7422 H 717.043 -2.34153 2.62422 0
M  V30 7423 H 716.917 -3.52719 1.33677 0
M  V30 7424 H 719.304 -2.89492 0.572569 0
M  V30 7425 H 719.385 -1.72016 1.89325 0
M  V30 7426 H 719.029 -3.61336 3.5693 0
M  V30 7427 H 718.959 -4.77499 2.22041 0
M  V30 7428 H 721.45 -3.23687 1.95025 0
M  V30 7429 H 721.763 -6.27496 4.51074 0
M  V30 7430 H 720.108 -5.6473 4.05099 0
M  V30 7431 H 723.299 -3.96535 2.48753 0
M  V30 7432 H 723.472 -5.35087 3.65494 0
M  V30 7433 N 716.879 -0.700114 -1.41195 0
M  V30 7434 C 718.104 -0.240704 -2.05998 0
M  V30 7435 C 718.529 1.10313 -1.52357 0
M  V30 7436 O 717.887 1.69154 -0.652424 0
M  V30 7437 C 717.935 -0.213783 -3.59966 0
M  V30 7438 O 717.039 0.809933 -4.04368 0
M  V30 7439 H 716.38 -0.116471 -0.653705 0
M  V30 7440 H 718.91 -0.956251 -1.80878 0
M  V30 7441 H 718.92 -0.0461852 -4.07974 0
M  V30 7442 H 717.595 -1.19454 -3.98376 0
M  V30 7443 H 716.172 0.611319 -3.67855 0
M  V30 7444 N 718.357 1.51182 -0.445186 0
M  V30 7445 C 719.289 2.25714 0.398206 0
M  V30 7446 C 720.302 1.30032 0.979562 0
M  V30 7447 O 721.491 1.55731 0.872368 0
M  V30 7448 C 718.591 3.00348 1.56985 0
M  V30 7449 C 717.764 4.23187 1.10596 0
M  V30 7450 C 716.823 4.80334 2.14863 0
M  V30 7451 O 715.849 5.4196 1.73977 0
M  V30 7452 N 717.051 4.65053 3.47427 0
M  V30 7453 H 719.816 2.98732 -0.240629 0
M  V30 7454 H 717.377 1.59556 -0.274507 0
M  V30 7455 H 719.369 3.35464 2.26376 0
M  V30 7456 H 717.939 2.30291 2.11387 0
M  V30 7457 H 717.159 3.93476 0.238832 0
M  V30 7458 H 718.447 5.02886 0.773537 0
M  V30 7459 H 717.845 4.15984 3.83372 0
M  V30 7460 H 716.402 5.04509 4.12691 0
M  V30 7461 N 719.835 0.176821 1.56605 0
M  V30 7462 C 721.063 -0.472828 2.01425 0
M  V30 7463 C 721.478 -1.56436 1.05703 0
M  V30 7464 O 720.835 -1.82405 0.058808 0
M  V30 7465 C 720.886 -1.04607 3.46034 0
M  V30 7466 O 720.607 0.00189608 4.381 0
M  V30 7467 C 722.108 -1.7734 4.06282 0
M  V30 7468 H 719.328 -0.120503 0.660091 0
M  V30 7469 H 721.872 0.280166 2.02572 0
M  V30 7470 H 720.027 -1.74953 3.45645 0
M  V30 7471 H 720.441 -0.422118 5.22799 0
M  V30 7472 H 721.915 -2.12703 5.09374 0
M  V30 7473 H 722.392 -2.67043 3.4869 0
M  V30 7474 H 722.998 -1.11623 4.10391 0
M  V30 7475 N 721.313 -1.57302 -0.09688 0
M  V30 7476 C 722.261 -2.02942 -1.13654 0
M  V30 7477 C 723.255 -0.930173 -1.41577 0
M  V30 7478 O 724.461 -1.11535 -1.41279 0
M  V30 7479 H 720.836 -0.646726 -0.383731 0
M  V30 7480 H 722.807 -2.89452 -0.725267 0
M  V30 7481 C 721.556 -2.46815 -2.44903 0
M  V30 7482 H 720.879 -3.30979 -2.24261 0
M  V30 7483 H 722.319 -2.82527 -3.16156 0
M  V30 7484 C 720.778 -1.34071 -3.09074 0
M  V30 7485 O 721.308 -0.668856 -3.96092 0
M  V30 7486 N 719.514 -1.09214 -2.69296 0
M  V30 7487 H 719.061 -1.64029 -1.98626 0
M  V30 7488 H 719.019 -0.339785 -3.12559 0
M  V30 7489 N 722.791 0.367657 -1.53252 0
M  V30 7490 C 724.019 1.13119 -1.73239 0
M  V30 7491 C 724.434 1.831 -0.460404 0
M  V30 7492 O 723.791 1.73483 0.566557 0
M  V30 7493 C 723.842 2.16308 -2.89643 0
M  V30 7494 O 723.563 1.49175 -4.1192 0
M  V30 7495 C 725.064 3.05224 -3.21486 0
M  V30 7496 H 722.284 0.338318 -0.579467 0
M  V30 7497 H 724.828 0.42721 -1.99988 0
M  V30 7498 H 722.983 2.82307 -2.65295 0
M  V30 7499 H 723.397 2.17912 -4.7709 0
M  V30 7500 H 724.871 3.73613 -4.06346 0
M  V30 7501 H 725.348 3.69919 -2.36763 0
M  V30 7502 H 725.954 2.44843 -3.47753 0
M  V30 7503 N 724.269 1.44576 0.627338 0
M  V30 7504 C 725.232 1.51372 1.72102 0
M  V30 7505 C 726.232 0.395329 1.55865 0
M  V30 7506 O 727.422 0.658094 1.61291 0
M  V30 7507 C 724.554 1.39129 3.11217 0
M  V30 7508 H 725.747 2.48798 1.6745 0
M  V30 7509 H 723.3 1.31724 0.841336 0
M  V30 7510 H 724.035 0.428114 3.21462 0
M  V30 7511 H 723.82 2.20229 3.24409 0
M  V30 7512 H 725.31 1.46874 3.90919 0
M  V30 7513 N 725.747 -0.868086 1.31537 0
M  V30 7514 C 727.163 -1.15414 1.10235 0
M  V30 7515 C 727.363 -2.01106 -0.125947 0
M  V30 7516 O 726.419 -2.38994 -0.814734 0
M  V30 7517 C 727.732 -1.84445 2.37488 0
M  V30 7518 C 729.28 -1.97139 2.43116 0
M  V30 7519 C 729.755 -2.69585 3.70254 0
M  V30 7520 N 731.246 -2.77119 3.71159 0
M  V30 7521 C 731.981 -3.33791 4.6623 0
M  V30 7522 N 731.477 -3.9138 5.71659 0
M  V30 7523 N 733.27 -3.31767 4.53747 0
M  V30 7524 H 725.421 -0.297109 2.10312 0
M  V30 7525 H 727.684 -0.194227 0.92789 0
M  V30 7526 H 727.39 -1.2893 3.27215 0
M  V30 7527 H 727.264 -2.84709 2.47428 0
M  V30 7528 H 729.651 -2.51818 1.53856 0
M  V30 7529 H 729.732 -0.95912 2.37138 0
M  V30 7530 H 729.376 -2.15572 4.59881 0
M  V30 7531 H 729.306 -3.71223 3.73499 0
M  V30 7532 H 731.797 -2.3625 2.94948 0
M  V30 7533 H 732.11 -4.3274 6.40278 0
M  V30 7534 H 730.455 -3.8975 5.7543 0
M  V30 7535 H 733.646 -2.86016 3.70557 0
M  V30 7536 H 733.819 -3.75636 5.28017 0
M  V30 7537 N 727.225 -1.14528 -1.08264 0
M  V30 7538 C 728.474 -0.908992 -1.80056 0
M  V30 7539 C 728.787 0.565859 -1.87236 0
M  V30 7540 O 729.993 0.919454 -2.55457 0
M  V30 7541 C 728.449 -1.57681 -3.23519 0
M  V30 7542 C 728.057 -3.08803 -3.24569 0
M  V30 7543 C 729.801 -1.4217 -3.99985 0
M  V30 7544 C 727.708 -3.68414 -4.62629 0
M  V30 7545 H 726.638 -0.336432 -0.674781 0
M  V30 7546 H 729.289 -1.37437 -1.21587 0
M  V30 7547 H 727.671 -1.03911 -3.82124 0
M  V30 7548 H 728.845 -3.69252 -2.75663 0
M  V30 7549 H 727.16 -3.23968 -2.61598 0
M  V30 7550 H 729.757 -1.84106 -5.02005 0
M  V30 7551 H 730.1 -0.367989 -4.1467 0
M  V30 7552 H 730.633 -1.92984 -3.47853 0
M  V30 7553 H 727.372 -4.73644 -4.53147 0
M  V30 7554 H 726.892 -3.12746 -5.11811 0
M  V30 7555 H 728.571 -3.68793 -5.31602 0
M  V30 7556 N 728.703 1.26451 -0.940633 0
M  V30 7557 C 729.98 1.88947 -0.505811 0
M  V30 7558 C 730.36 1.85011 1.01657 0
M  V30 7559 O 729.708 1.30406 1.87634 0
M  V30 7560 C 729.918 3.32304 -1.06654 0
M  V30 7561 C 731.266 4.09153 -1.13486 0
M  V30 7562 O 732.29 3.41371 -1.01708 0
M  V30 7563 O 731.149 5.30369 -1.31797 0
M  V30 7564 H 728.243 0.810422 -0.164759 0
M  V30 7565 H 730.789 1.34625 -1.03316 0
M  V30 7566 H 729.561 3.29527 -2.11015 0
M  V30 7567 H 729.184 3.94164 -0.521603 0
M  V30 7568 N 730.181 0.707592 1.40822 0
M  V30 7569 C 731.429 0.243189 2.00632 0
M  V30 7570 C 731.75 -1.16512 1.56365 0
M  V30 7571 O 731.02 -1.78841 0.799553 0
M  V30 7572 H 729.6 0.0869203 0.741926 0
M  V30 7573 H 732.262 0.911438 1.72275 0
M  V30 7574 H 731.358 0.270014 3.1093 0
M  V30 7575 N 731.66 -1.50943 0.453197 0
M  V30 7576 C 732.59 -2.31005 -0.34044 0
M  V30 7577 C 733.571 -1.37112 -1.00669 0
M  V30 7578 O 734.756 -1.66033 -1.0073 0
M  V30 7579 C 731.886 -3.16358 -1.433 0
M  V30 7580 C 730.84 -4.18658 -0.889363 0
M  V30 7581 C 730.166 -4.92633 -2.07887 0
M  V30 7582 C 731.466 -5.22227 0.0871142 0
M  V30 7583 H 733.16 -2.97601 0.327723 0
M  V30 7584 H 730.706 -1.43119 0.159054 0
M  V30 7585 H 732.659 -3.71155 -1.99555 0
M  V30 7586 H 731.383 -2.47613 -2.12968 0
M  V30 7587 H 730.042 -3.64936 -0.348915 0
M  V30 7588 H 729.69 -4.20376 -2.76211 0
M  V30 7589 H 729.39 -5.61819 -1.72143 0
M  V30 7590 H 730.914 -5.50258 -2.64666 0
M  V30 7591 H 732.328 -5.72001 -0.385656 0
M  V30 7592 H 730.725 -5.99032 0.357926 0
M  V30 7593 H 731.795 -4.74077 1.01879 0
M  V30 7594 N 733.138 -0.185124 -1.56509 0
M  V30 7595 C 734.554 0.170865 -1.58683 0
M  V30 7596 C 734.754 1.61799 -1.20098 0
M  V30 7597 O 733.81 2.35181 -0.919038 0
M  V30 7598 C 735.123 -0.122459 -3.00451 0
M  V30 7599 C 736.671 -0.0617699 -3.12939 0
M  V30 7600 C 737.146 -0.328269 -4.56822 0
M  V30 7601 N 738.637 -0.276533 -4.62374 0
M  V30 7602 C 739.372 -0.456722 -5.71578 0
M  V30 7603 N 738.868 -0.69672 -6.89288 0
M  V30 7604 N 740.661 -0.391669 -5.60734 0
M  V30 7605 H 732.812 -1.12956 -1.79874 0
M  V30 7606 H 735.075 -0.45011 -0.834329 0
M  V30 7607 H 734.781 -1.12546 -3.33206 0
M  V30 7608 H 734.655 0.579578 -3.72721 0
M  V30 7609 H 737.042 0.931826 -2.80002 0
M  V30 7610 H 737.123 -0.796732 -2.43076 0
M  V30 7611 H 736.767 -1.31914 -4.9047 0
M  V30 7612 H 736.697 0.427465 -5.24862 0
M  V30 7613 H 739.188 -0.0972458 -3.77775 0
M  V30 7614 H 739.501 -0.823291 -7.68402 0
M  V30 7615 H 737.846 -0.733497 -6.91119 0
M  V30 7616 H 741.037 -0.204663 -4.67652 0
M  V30 7617 H 741.21 -0.535518 -6.45783 0
M  V30 7618 N 734.616 1.57351 0.0885366 0
M  V30 7619 C 736.027 1.75303 0.642308 0
M  V30 7620 C 736.378 0.808238 1.78779 0
M  V30 7621 O 735.503 -0.01171 2.16397 0
M  V30 7622 C 736.098 3.17885 1.17194 0
M  V30 7623 C 734.657 3.37239 1.67172 0
M  V30 7624 C 733.804 2.7108 0.584045 0
M  V30 7625 H 736.755 1.58103 -0.137567 0
M  V30 7626 H 736.776 3.2112 2.04114 0
M  V30 7627 H 736.288 3.86625 0.338024 0
M  V30 7628 H 734.389 2.73588 2.52943 0
M  V30 7629 H 734.502 4.45594 1.76019 0
M  V30 7630 H 732.866 2.33161 1.02508 0
M  V30 7631 H 733.649 3.42464 -0.239403 0
M  V30 7632 N 736.094 -0.359525 1.53444 0
M  V30 7633 C 737.342 -1.09935 1.69584 0
M  V30 7634 C 737.663 -1.89656 0.453371 0
M  V30 7635 O 736.933 -1.8852 -0.53263 0
M  V30 7636 H 735.513 -0.408843 0.625185 0
M  V30 7637 H 738.175 -0.40467 1.90653 0
M  V30 7638 H 737.271 -1.78575 2.55964 0
M  V30 7639 N 737.572 -1.44907 -0.619662 0
M  V30 7640 C 738.505 -1.47133 -1.74434 0
M  V30 7641 C 739.483 -0.328933 -1.59238 0
M  V30 7642 O 740.667 -0.527632 -1.80965 0
M  V30 7643 C 737.794 -1.31491 -3.12134 0
M  V30 7644 C 736.84 -2.49441 -3.4595 0
M  V30 7645 S 737.673 -4.11945 -3.42142 0
M  V30 7646 C 738.829 -3.98747 -4.82443 0
M  V30 7647 H 739.062 -2.42295 -1.7228 0
M  V30 7648 H 736.595 -1.32343 -0.795276 0
M  V30 7649 H 738.553 -1.23153 -3.91591 0
M  V30 7650 H 737.214 -0.378203 -3.11815 0
M  V30 7651 H 736.407 -2.3439 -4.46181 0
M  V30 7652 H 736.009 -2.54577 -2.73982 0
M  V30 7653 H 738.301 -3.63145 -5.71954 0
M  V30 7654 H 739.244 -4.98848 -5.0255 0
M  V30 7655 H 739.652 -3.30608 -4.57557 0
M  V30 7656 N 739.05 0.861098 -1.31996 0
M  V30 7657 C 740.296 1.61721 -1.22369 0
M  V30 7658 C 740.629 1.93 0.215587 0
M  V30 7659 O 739.904 1.56789 1.15098 0
M  V30 7660 C 740.187 2.9417 -2.07691 0
M  V30 7661 C 740.04 2.69714 -3.59965 0
M  V30 7662 C 741.359 3.95372 -1.93312 0
M  V30 7663 H 738.478 0.586822 -0.44588 0
M  V30 7664 H 741.12 0.994788 -1.61876 0
M  V30 7665 H 739.27 3.47292 -1.74128 0
M  V30 7666 H 740.942 2.23196 -4.03709 0
M  V30 7667 H 739.185 2.03789 -3.82952 0
M  V30 7668 H 739.856 3.63996 -4.14983 0
M  V30 7669 H 742.332 3.51487 -2.22701 0
M  V30 7670 H 741.208 4.85916 -2.55298 0
M  V30 7671 H 741.469 4.32865 -0.898922 0
M  V30 7672 N 740.528 1.15101 1.07655 0
M  V30 7673 C 741.758 0.946357 1.83651 0
M  V30 7674 C 742.166 -0.508641 1.82235 0
M  V30 7675 O 741.509 -1.36445 1.22997 0
M  V30 7676 C 741.571 1.37945 3.31981 0
M  V30 7677 C 741.235 2.85155 3.57122 0
M  V30 7678 C 742.232 3.83234 3.51323 0
M  V30 7679 C 739.917 3.2275 3.84887 0
M  V30 7680 C 741.911 5.16914 3.72932 0
M  V30 7681 C 739.598 4.56604 4.06148 0
M  V30 7682 C 740.596 5.53495 4.00165 0
M  V30 7683 O 740.284 6.84931 4.20861 0
M  V30 7684 H 740.016 0.336368 0.586372 0
M  V30 7685 H 742.57 1.53198 1.36819 0
M  V30 7686 H 740.8 0.737205 3.79608 0
M  V30 7687 H 742.489 1.14439 3.89434 0
M  V30 7688 H 743.255 3.55535 3.29878 0
M  V30 7689 H 739.134 2.47921 3.88659 0
M  V30 7690 H 742.678 5.92529 3.68178 0
M  V30 7691 H 738.575 4.84019 4.27078 0
M  V30 7692 H 739.343 6.91304 4.38226 0
M  V30 7693 N 742.006 -1.2595 0.947325 0
M  V30 7694 C 743.252 -1.9375 0.599064 0
M  V30 7695 C 743.585 -1.74088 -0.860632 0
M  V30 7696 O 742.86 -1.08158 -1.61654 0
M  V30 7697 C 743.143 -3.47353 0.949634 0
M  V30 7698 C 742.996 -3.76273 2.46452 0
M  V30 7699 C 744.315 -4.37589 0.469442 0
M  V30 7700 H 741.434 -0.703674 0.219115 0
M  V30 7701 H 744.076 -1.48705 1.18266 0
M  V30 7702 H 742.226 -3.8585 0.453008 0
M  V30 7703 H 743.898 -3.47455 3.03435 0
M  V30 7704 H 742.141 -3.22135 2.90537 0
M  V30 7705 H 742.812 -4.83664 2.66032 0
M  V30 7706 H 745.288 -4.06353 0.89534 0
M  V30 7707 H 744.164 -5.43841 0.7435 0
M  V30 7708 H 744.425 -4.37579 -0.630618 0
M  V30 7709 N 743.484 -0.715051 -1.40445 0
M  V30 7710 C 744.73 -0.254705 -2.01194 0
M  V30 7711 C 745.063 1.14894 -1.56567 0
M  V30 7712 O 744.338 1.77933 -0.785491 0
M  V30 7713 C 744.621 -0.334148 -3.58546 0
M  V30 7714 C 744.474 -1.77613 -4.13248 0
M  V30 7715 C 745.793 0.294968 -4.3911 0
M  V30 7716 H 742.912 -0.094025 -0.730978 0
M  V30 7717 H 745.554 -0.907449 -1.66929 0
M  V30 7718 H 743.704 0.221609 -3.87867 0
M  V30 7719 H 745.376 -2.38723 -3.94727 0
M  V30 7720 H 743.619 -2.30402 -3.67556 0
M  V30 7721 H 744.29 -1.78311 -5.22407 0
M  V30 7722 H 746.766 -0.178563 -4.15717 0
M  V30 7723 H 745.642 0.208934 -5.48502 0
M  V30 7724 H 745.903 1.37841 -4.20062 0
M  V30 7725 N 744.962 1.50701 -0.461195 0
M  V30 7726 C 745.894 2.26124 0.374244 0
M  V30 7727 C 746.907 1.31064 0.965715 0
M  V30 7728 O 748.096 1.56647 0.855801 0
M  V30 7729 C 745.196 3.01996 1.5379 0
M  V30 7730 C 744.369 4.24336 1.06101 0
M  V30 7731 C 743.428 4.82585 2.09756 0
M  V30 7732 O 742.454 5.43775 1.68219 0
M  V30 7733 N 743.656 4.68712 3.42475 0
M  V30 7734 H 746.421 2.9846 -0.2723 0
M  V30 7735 H 743.982 1.59256 -0.291415 0
M  V30 7736 H 745.974 3.37846 2.22806 0
M  V30 7737 H 744.544 2.32521 2.08933 0
M  V30 7738 H 743.764 3.93707 0.197085 0
M  V30 7739 H 745.052 5.03678 0.720156 0
M  V30 7740 H 744.45 4.20026 3.78938 0
M  V30 7741 H 743.007 5.08858 4.07317 0
M  V30 7742 N 746.441 0.193421 1.56409 0
M  V30 7743 C 747.687 -0.446449 1.97825 0
M  V30 7744 C 748.02 -1.61386 1.08019 0
M  V30 7745 O 747.295 -1.94053 0.131839 0
M  V30 7746 C 747.578 -0.908199 3.48459 0
M  V30 7747 C 747.431 0.260914 4.49043 0
M  V30 7748 C 748.75 -1.77428 4.0275 0
M  V30 7749 H 745.869 -0.160807 0.719243 0
M  V30 7750 H 748.511 0.284006 1.87865 0
M  V30 7751 H 746.661 -1.53062 3.57077 0
M  V30 7752 H 748.333 0.898548 4.52464 0
M  V30 7753 H 746.576 0.912949 4.24085 0
M  V30 7754 H 747.247 -0.104657 5.51901 0
M  V30 7755 H 749.723 -1.24936 3.96901 0
M  V30 7756 H 748.599 -2.06633 5.08521 0
M  V30 7757 H 748.86 -2.72788 3.47907 0
M  V30 7758 N 747.919 -1.57396 -0.0801906 0
M  V30 7759 C 749.335 -1.53564 -0.434778 0
M  V30 7760 C 749.535 -0.912372 -1.79661 0
M  V30 7761 O 748.591 -0.511268 -2.4727 0
M  V30 7762 C 749.904 -2.98244 -0.383561 0
M  V30 7763 C 751.452 -3.09536 -0.46435 0
M  V30 7764 C 751.927 -4.55851 -0.443128 0
M  V30 7765 N 753.418 -4.60456 -0.503448 0
M  V30 7766 C 754.153 -5.71135 -0.509106 0
M  V30 7767 N 753.649 -6.91203 -0.47008 0
M  V30 7768 N 755.442 -5.59353 -0.555035 0
M  V30 7769 H 747.593 -1.96281 0.811635 0
M  V30 7770 H 749.856 -0.898041 0.303689 0
M  V30 7771 H 749.562 -3.47369 0.550236 0
M  V30 7772 H 749.436 -3.57705 -1.19694 0
M  V30 7773 H 751.823 -2.6039 -1.38857 0
M  V30 7774 H 751.904 -2.53 0.377445 0
M  V30 7775 H 751.548 -5.05653 0.477207 0
M  V30 7776 H 751.478 -5.10242 -1.30234 0
M  V30 7777 H 753.969 -3.74048 -0.538199 0
M  V30 7778 H 754.282 -7.7132 -0.478091 0
M  V30 7779 H 752.627 -6.93625 -0.436897 0
M  V30 7780 H 755.818 -4.64453 -0.583158 0
M  V30 7781 H 755.991 -6.4561 -0.555976 0
M  V30 7782 N 749.397 0.351382 -1.53633 0
M  V30 7783 C 750.36 1.41403 -1.80383 0
M  V30 7784 C 751.36 1.45963 -0.674635 0
M  V30 7785 O 752.55 1.46476 -0.942895 0
M  V30 7786 C 749.682 2.80401 -1.93876 0
M  V30 7787 H 750.875 1.18951 -2.75301 0
M  V30 7788 H 748.428 0.58533 -1.44926 0
M  V30 7789 H 749.163 3.08147 -1.01074 0
M  V30 7790 H 748.948 2.78488 -2.7602 0
M  V30 7791 H 750.438 3.57329 -2.16116 0
M  V30 7792 N 750.875 1.45233 0.611969 0
M  V30 7793 C 752.291 1.29542 0.932251 0
M  V30 7794 C 752.491 0.24523 2.00002 0
M  V30 7795 O 751.547 -0.362333 2.49887 0
M  V30 7796 C 752.86 2.67301 1.37733 0
M  V30 7797 C 754.408 2.75163 1.49178 0
M  V30 7798 C 754.883 4.13437 1.97064 0
M  V30 7799 N 756.374 4.15709 2.04304 0
M  V30 7800 C 757.109 5.19566 2.42568 0
M  V30 7801 N 756.605 6.33771 2.79832 0
M  V30 7802 N 758.398 5.06923 2.42869 0
M  V30 7803 H 750.549 2.12192 -0.0938679 0
M  V30 7804 H 752.812 0.947775 0.0206569 0
M  V30 7805 H 752.518 3.45318 0.666951 0
M  V30 7806 H 752.392 2.95472 2.3447 0
M  V30 7807 H 754.779 1.97453 2.19309 0
M  V30 7808 H 754.86 2.50712 0.507674 0
M  V30 7809 H 754.504 4.91631 1.27521 0
M  V30 7810 H 754.434 4.35277 2.9638 0
M  V30 7811 H 756.925 3.33293 1.78113 0
M  V30 7812 H 757.238 7.08815 3.07898 0
M  V30 7813 H 755.583 6.37179 2.77538 0
M  V30 7814 H 758.774 4.1675 2.1316 0
M  V30 7815 H 758.947 5.87981 2.72364 0
M  V30 7816 N 752.353 -0.854086 1.3245 0
M  V30 7817 C 753.581 -1.64074 1.26045 0
M  V30 7818 C 753.996 -1.8802 -0.171456 0
M  V30 7819 O 753.353 -1.4496 -1.10873 0
M  V30 7820 C 753.404 -2.9997 2.01743 0
M  V30 7821 O 753.125 -2.77084 3.39346 0
M  V30 7822 C 754.626 -3.94414 2.02368 0
M  V30 7823 H 751.846 -0.511015 0.434862 0
M  V30 7824 H 754.39 -1.06494 1.74583 0
M  V30 7825 H 752.545 -3.54193 1.56926 0
M  V30 7826 H 752.959 -3.63514 3.78098 0
M  V30 7827 H 754.433 -4.87032 2.59815 0
M  V30 7828 H 754.91 -4.27427 1.01009 0
M  V30 7829 H 755.516 -3.46127 2.47135 0
M  V30 7830 N 753.831 -1.1567 -1.07043 0
M  V30 7831 C 755.077 -0.9349 -1.79965 0
M  V30 7832 C 755.41 0.536464 -1.86643 0
M  V30 7833 O 754.685 1.39781 -1.35247 0
M  V30 7834 C 754.968 -1.55371 -3.24857 0
M  V30 7835 C 754.821 -3.09589 -3.26305 0
M  V30 7836 C 756.14 -1.24209 -4.22209 0
M  V30 7837 H 753.259 -0.341061 -0.653335 0
M  V30 7838 H 755.901 -1.42883 -1.25237 0
M  V30 7839 H 754.051 -1.13368 -3.71591 0
M  V30 7840 H 755.723 -3.60521 -2.87789 0
M  V30 7841 H 753.966 -3.43315 -2.65174 0
M  V30 7842 H 754.637 -3.48002 -4.28484 0
M  V30 7843 H 757.113 -1.60548 -3.8388 0
M  V30 7844 H 755.989 -1.70119 -5.21872 0
M  V30 7845 H 756.25 -0.15964 -4.41812 0
M  V30 7846 N 755.309 1.25446 -0.953992 0
M  V30 7847 C 756.272 2.24156 -0.478179 0
M  V30 7848 C 757.272 1.55278 0.417776 0
M  V30 7849 O 758.462 1.72866 0.215155 0
M  V30 7850 C 755.594 3.39495 0.309202 0
M  V30 7851 H 756.787 2.67764 -1.35064 0
M  V30 7852 H 754.34 1.37822 -0.737206 0
M  V30 7853 H 755.075 3.01307 1.19936 0
M  V30 7854 H 754.86 3.90679 -0.333562 0
M  V30 7855 H 756.35 4.12796 0.631594 0
M  V30 7856 N 756.787 0.722489 1.40064 0
M  V30 7857 C 758.035 0.264455 2.00362 0
M  V30 7858 C 758.356 -1.14847 1.57592 0
M  V30 7859 O 757.626 -1.77982 0.818477 0
M  V30 7860 H 756.206 0.0947846 0.740962 0
M  V30 7861 H 758.868 0.929659 1.71299 0
M  V30 7862 H 757.964 0.302977 3.10626 0
M  V30 7863 N 758.265 -1.50454 0.469181 0
M  V30 7864 C 759.495 -2.06429 -0.0840913 0
M  V30 7865 C 759.903 -1.3334 -1.34227 0
M  V30 7866 O 759.246 -0.395656 -1.79389 0
M  V30 7867 C 759.308 -3.56797 -0.440049 0
M  V30 7868 C 758.972 -4.51359 0.715838 0
M  V30 7869 C 759.969 -4.94754 1.59732 0
M  V30 7870 C 757.654 -4.94069 0.905621 0
M  V30 7871 C 759.648 -5.79564 2.653 0
M  V30 7872 C 757.335 -5.78662 1.96453 0
M  V30 7873 C 758.333 -6.21311 2.83658 0
M  V30 7874 O 758.021 -7.04218 3.87727 0
M  V30 7875 H 757.753 -0.675994 0.00289751 0
M  V30 7876 H 760.307 -1.94629 0.656417 0
M  V30 7877 H 758.537 -3.66492 -1.23372 0
M  V30 7878 H 760.226 -3.95145 -0.928181 0
M  V30 7879 H 760.992 -4.62428 1.46237 0
M  V30 7880 H 756.871 -4.60394 0.236326 0
M  V30 7881 H 760.415 -6.12774 3.33398 0
M  V30 7882 H 756.312 -6.10401 2.09955 0
M  V30 7883 H 757.08 -7.22464 3.84692 0
M  V30 7884 N 759.743 -0.201713 -1.56304 0
M  V30 7885 C 760.991 0.434447 -1.97375 0
M  V30 7886 C 761.312 1.61692 -1.08998 0
M  V30 7887 O 760.582 1.95223 -0.162682 0
M  V30 7888 H 759.162 0.163497 -0.728888 0
M  V30 7889 H 761.824 -0.289988 -1.92731 0
M  V30 7890 H 760.92 0.774136 -3.02347 0
M  V30 7891 N 761.222 1.57436 0.0718424 0
M  V30 7892 C 762.169 2.03686 1.08539 0
M  V30 7893 C 763.139 0.917474 1.38462 0
M  V30 7894 O 764.324 1.18513 1.4953 0
M  V30 7895 C 761.464 2.48566 2.39393 0
M  V30 7896 C 760.577 3.74122 2.16001 0
M  V30 7897 C 759.712 4.07786 3.40418 0
M  V30 7898 C 758.751 5.26383 3.1239 0
M  V30 7899 N 757.888 5.55685 4.29138 0
M  V30 7900 H 762.728 2.90043 0.684018 0
M  V30 7901 H 760.265 1.43438 0.326183 0
M  V30 7902 H 762.223 2.72639 3.15791 0
M  V30 7903 H 760.853 1.65186 2.77333 0
M  V30 7904 H 759.905 3.57389 1.30296 0
M  V30 7905 H 761.217 4.60659 1.91298 0
M  V30 7906 H 760.371 4.32759 4.25211 0
M  V30 7907 H 759.11 3.19817 3.68197 0
M  V30 7908 H 758.115 5.01206 2.25993 0
M  V30 7909 H 759.34 6.1597 2.85934 0
M  V30 7910 H 757.286 4.70675 4.56948 0
M  V30 7911 H 757.203 6.3664 4.07708 0
M  V30 7912 H 758.471 5.85209 5.14928 0
M  V30 7913 N 762.7 -0.34323 1.53817 0
M  V30 7914 C 763.947 -1.08344 1.71079 0
M  V30 7915 C 764.275 -1.88633 0.474133 0
M  V30 7916 O 763.53 -1.87984 -0.544116 0
M  V30 7917 C 763.829 -2.05195 2.92626 0
M  V30 7918 C 763.495 -1.41215 4.28216 0
M  V30 7919 C 762.157 -1.23495 4.65083 0
M  V30 7920 C 764.509 -0.951273 5.12445 0
M  V30 7921 C 761.837 -0.583065 5.83796 0
M  V30 7922 C 764.189 -0.313292 6.31824 0
M  V30 7923 C 762.853 -0.123779 6.67385 0
M  V30 7924 H 762.123 -0.396458 0.626021 0
M  V30 7925 H 764.77 -0.362689 1.88034 0
M  V30 7926 H 763.075 -2.83653 2.70275 0
M  V30 7927 H 764.772 -2.62462 3.03175 0
M  V30 7928 H 761.362 -1.56005 3.992 0
M  V30 7929 H 765.546 -1.07602 4.84495 0
M  V30 7930 H 760.802 -0.424854 6.09922 0
M  V30 7931 H 764.976 0.0519179 6.96381 0
M  V30 7932 H 762.603 0.383398 7.59233 0
M  V30 7933 N 764.178 -1.45556 -0.604258 0
M  V30 7934 C 765.403 -1.53509 -1.39462 0
M  V30 7935 C 765.828 -0.169638 -1.87333 0
M  V30 7936 O 765.186 0.846346 -1.60333 0
M  V30 7937 C 765.234 -2.52654 -2.5729 0
M  V30 7938 O 764.338 -2.04666 -3.5803 0
M  V30 7939 H 763.679 -0.517355 -0.416221 0
M  V30 7940 H 766.209 -1.90939 -0.735072 0
M  V30 7941 H 766.219 -2.71568 -3.04491 0
M  V30 7942 H 764.894 -3.51823 -2.21797 0
M  V30 7943 H 763.471 -1.95643 -3.17456 0
M  V30 7944 N 765.656 0.84705 -1.32902 0
M  V30 7945 C 766.904 1.5986 -1.2365 0
M  V30 7946 C 767.225 1.93974 0.199789 0
M  V30 7947 O 766.495 1.60273 1.12648 0
M  V30 7948 H 765.075 0.592696 -0.454665 0
M  V30 7949 H 767.737 1.01278 -1.66519 0
M  V30 7950 H 766.833 2.53218 -1.82448 0
M  V30 7951 N 767.134 1.16236 1.06428 0
M  V30 7952 C 768.081 0.86769 2.13869 0
M  V30 7953 C 769.051 -0.183298 1.65086 0
M  V30 7954 O 770.236 -0.0488002 1.90738 0
M  V30 7955 C 767.376 0.373427 3.43074 0
M  V30 7956 C 766.489 1.48708 4.05598 0
M  V30 7957 C 765.624 0.947977 5.22673 0
M  V30 7958 C 764.663 2.03793 5.77178 0
M  V30 7959 N 763.8 1.51451 6.85571 0
M  V30 7960 H 768.64 1.78781 2.38414 0
M  V30 7961 H 766.177 0.891892 1.16977 0
M  V30 7962 H 768.135 0.0685035 4.17144 0
M  V30 7963 H 766.765 -0.509752 3.1875 0
M  V30 7964 H 765.817 1.908 3.29089 0
M  V30 7965 H 767.129 2.30964 4.42105 0
M  V30 7966 H 766.283 0.596154 6.03764 0
M  V30 7967 H 765.022 0.0947081 4.87608 0
M  V30 7968 H 764.027 2.39847 4.94726 0
M  V30 7969 H 765.252 2.89514 6.14295 0
M  V30 7970 H 763.198 0.683755 6.52427 0
M  V30 7971 H 763.115 2.27325 7.21013 0
M  V30 7972 H 764.383 1.19123 7.70344 0
M  V30 7973 N 768.612 -1.24939 0.960631 0
M  V30 7974 C 769.545 -2.24116 0.429804 0
M  V30 7975 C 770.523 -1.54972 -0.492188 0
M  V30 7976 O 771.707 -1.83642 -0.42519 0
M  V30 7977 C 768.834 -3.36558 -0.380312 0
M  V30 7978 C 767.88 -4.23757 0.482941 0
M  V30 7979 S 768.713 -4.9994 1.91885 0
M  V30 7980 C 769.869 -6.15846 1.11732 0
M  V30 7981 H 770.102 -2.68795 1.27029 0
M  V30 7982 H 767.635 -1.34108 0.765141 0
M  V30 7983 H 769.593 -4.01777 -0.841764 0
M  V30 7984 H 768.254 -2.90451 -1.19569 0
M  V30 7985 H 767.447 -5.03809 -0.138699 0
M  V30 7986 H 767.049 -3.63504 0.879839 0
M  V30 7987 H 769.341 -6.76495 0.368898 0
M  V30 7988 H 770.284 -6.82356 1.89198 0
M  V30 7989 H 770.692 -5.60805 0.644812 0
M  V30 7990 N 770.09 -0.729906 -1.39679 0
M  V30 7991 C 771.33 -0.280232 -2.0247 0
M  V30 7992 C 771.694 1.11006 -1.56658 0
M  V30 7993 O 772.895 1.65753 -2.11612 0
M  V30 7994 C 771.166 -0.372922 -3.55449 0
M  V30 7995 S 772.725 -0.00233974 -4.388 0
M  V30 7996 H 769.543 -0.110139 -0.702418 0
M  V30 7997 H 772.145 -0.955296 -1.70571 0
M  V30 7998 H 770.849 -1.38616 -3.86282 0
M  V30 7999 H 770.38 0.320136 -3.92095 0
M  V30 8000 H 772.395 1.21544 -4.81084 0
M  V30 8001 N 771.568 1.50203 -0.477153 0
M  V30 8002 C 772.815 2.02358 0.0757385 0
M  V30 8003 C 773.143 1.3587 1.39174 0
M  V30 8004 O 772.398 0.475415 1.89838 0
M  V30 8005 C 772.697 3.56127 0.301325 0
M  V30 8006 C 772.363 4.41126 -0.933725 0
M  V30 8007 C 771.025 4.64075 -1.27233 0
M  V30 8008 C 773.377 4.90737 -1.75576 0
M  V30 8009 C 770.705 5.33878 -2.43292 0
M  V30 8010 C 773.057 5.61816 -2.90768 0
M  V30 8011 C 771.721 5.83016 -3.25036 0
M  V30 8012 H 770.991 0.740482 0.0277147 0
M  V30 8013 H 773.638 1.80754 -0.632467 0
M  V30 8014 H 771.943 3.76279 1.09183 0
M  V30 8015 H 773.64 3.94053 0.743184 0
M  V30 8016 H 770.23 4.23489 -0.659935 0
M  V30 8017 H 774.414 4.72856 -1.50734 0
M  V30 8018 H 769.67 5.48499 -2.70109 0
M  V30 8019 H 773.844 5.99237 -3.54807 0
M  V30 8020 H 771.471 6.36881 -4.15074 0
M  V30 8021 N 773.046 0.209999 1.56195 0
M  V30 8022 C 773.978 -0.736967 2.17029 0
M  V30 8023 C 774.991 -1.16599 1.13616 0
M  V30 8024 O 776.18 -1.09914 1.40646 0
M  V30 8025 C 773.28 -2.00852 2.72969 0
M  V30 8026 C 772.453 -1.73691 4.01435 0
M  V30 8027 C 771.512 -2.85439 4.42053 0
M  V30 8028 O 770.538 -2.54405 5.09183 0
M  V30 8029 N 771.74 -4.14135 4.06783 0
M  V30 8030 H 774.505 -0.216656 2.98916 0
M  V30 8031 H 772.066 0.0285672 1.61875 0
M  V30 8032 H 774.058 -2.74778 2.97118 0
M  V30 8033 H 772.628 -2.43963 1.95451 0
M  V30 8034 H 771.848 -0.834676 3.85262 0
M  V30 8035 H 773.136 -1.52961 4.85263 0
M  V30 8036 H 772.534 -4.42196 3.52816 0
M  V30 8037 H 771.091 -4.84642 4.35851 0
M  V30 8038 N 774.524 -1.57472 -0.0634922 0
M  V30 8039 C 775.752 -1.91887 -0.773767 0
M  V30 8040 C 776.167 -0.806733 -1.70696 0
M  V30 8041 O 775.524 0.219383 -1.81177 0
M  V30 8042 C 775.575 -3.26092 -1.56034 0
M  V30 8043 O 775.296 -4.33029 -0.66464 0
M  V30 8044 C 776.797 -3.74573 -2.37087 0
M  V30 8045 H 774.017 -0.634074 -0.219525 0
M  V30 8046 H 776.561 -2.04476 -0.0312828 0
M  V30 8047 H 774.716 -3.15004 -2.25502 0
M  V30 8048 H 775.13 -5.10291 -1.21258 0
M  V30 8049 H 776.604 -4.71084 -2.87722 0
M  V30 8050 H 777.081 -3.04003 -3.16984 0
M  V30 8051 H 777.687 -3.88631 -1.72759 0
M  V30 8052 N 776.003 0.335068 -1.53997 0
M  V30 8053 C 776.933 1.41727 -1.85568 0
M  V30 8054 C 777.914 1.54505 -0.7115 0
M  V30 8055 O 779.099 1.68573 -0.964191 0
M  V30 8056 C 776.229 2.7866 -2.07282 0
M  V30 8057 C 775.183 2.80682 -3.23112 0
M  V30 8058 C 774.509 4.20581 -3.30175 0
M  V30 8059 C 775.809 2.45458 -4.61029 0
M  V30 8060 H 777.503 1.15555 -2.76202 0
M  V30 8061 H 775.049 0.554445 -1.32898 0
M  V30 8062 H 777.002 3.54423 -2.27952 0
M  V30 8063 H 775.726 3.06286 -1.13387 0
M  V30 8064 H 774.385 2.07373 -3.02311 0
M  V30 8065 H 774.033 4.4533 -2.33859 0
M  V30 8066 H 773.733 4.22843 -4.08016 0
M  V30 8067 H 775.257 4.98174 -3.53066 0
M  V30 8068 H 776.671 3.10934 -4.81656 0
M  V30 8069 H 775.068 2.5899 -5.41336 0
M  V30 8070 H 776.138 1.40628 -4.6406 0
M  V30 8071 N 777.481 1.45874 0.596531 0
M  V30 8072 C 778.709 1.54013 1.38158 0
M  V30 8073 C 779.124 0.17648 1.87973 0
M  V30 8074 O 778.481 -0.823895 1.62844 0
M  V30 8075 C 778.532 2.53363 2.57855 0
M  V30 8076 O 778.253 3.8443 2.10108 0
M  V30 8077 C 779.754 2.71308 3.50581 0
M  V30 8078 H 776.974 0.521251 0.422538 0
M  V30 8079 H 779.518 1.9116 0.726493 0
M  V30 8080 H 777.673 2.19257 3.19382 0
M  V30 8081 H 778.087 4.38384 2.87958 0
M  V30 8082 H 779.561 3.44776 4.31084 0
M  V30 8083 H 780.038 1.77728 4.01633 0
M  V30 8084 H 780.644 3.06455 2.94899 0
M  V30 8085 N 778.959 -0.83999 1.33349 0
M  V30 8086 C 780.236 -1.57973 1.15342 0
M  V30 8087 C 780.616 -2.09226 -0.280632 0
M  V30 8088 O 779.964 -1.89317 -1.2795 0
M  V30 8089 C 780.174 -2.71446 2.19359 0
M  V30 8090 C 781.522 -3.40654 2.53456 0
M  V30 8091 O 782.546 -2.81686 2.18017 0
M  V30 8092 O 781.405 -4.47101 3.14266 0
M  V30 8093 H 778.499 -0.6964 0.446044 0
M  V30 8094 H 781.045 -0.882843 1.44927 0
M  V30 8095 H 779.817 -2.31205 3.1569 0
M  V30 8096 H 779.44 -3.488 1.90852 0
M  V30 8097 N 780.437 -1.16799 -1.0581 0
M  V30 8098 C 781.714 -0.862616 -1.75551 0
M  V30 8099 C 782.094 0.6385 -2.01212 0
M  V30 8100 O 781.442 1.58784 -1.64317 0
M  V30 8101 C 781.652 -1.6907 -3.05314 0
M  V30 8102 C 783 -1.90675 -3.79379 0
M  V30 8103 O 784.024 -1.65976 -3.15167 0
M  V30 8104 O 782.883 -2.32145 -4.94743 0
M  V30 8105 H 779.977 -0.318789 -0.763088 0
M  V30 8106 H 782.523 -1.27461 -1.12034 0
M  V30 8107 H 781.295 -2.70912 -2.82352 0
M  V30 8108 H 780.918 -1.27606 -3.76567 0
M  V30 8109 N 781.915 1.24427 -0.967243 0
M  V30 8110 C 783.192 1.87831 -0.545776 0
M  V30 8111 C 783.572 1.87126 0.977099 0
M  V30 8112 O 782.92 1.34357 1.84826 0
M  V30 8113 C 783.13 3.29967 -1.13679 0
M  V30 8114 C 784.478 4.06654 -1.22139 0
M  V30 8115 O 785.502 3.39136 -1.08926 0
M  V30 8116 O 784.361 5.27455 -1.43017 0
M  V30 8117 H 781.455 0.806745 -0.181912 0
M  V30 8118 H 784.001 1.32403 -1.06148 0
M  V30 8119 H 782.773 3.24977 -2.17958 0
M  V30 8120 H 782.396 3.92969 -0.605093 0
M  V30 8121 N 783.393 0.737304 1.3929 0
M  V30 8122 C 784.623 0.296143 2.04467 0
M  V30 8123 C 785.031 -1.0748 1.55707 0
M  V30 8124 O 784.374 -1.69082 0.718123 0
M  V30 8125 C 784.436 0.222161 3.58813 0
M  V30 8126 C 784.1 1.53195 4.30558 0
M  V30 8127 C 785.097 2.47809 4.57041 0
M  V30 8128 C 782.782 1.79688 4.6906 0
M  V30 8129 C 784.776 3.67147 5.21039 0
M  V30 8130 C 782.463 2.99304 5.32785 0
M  V30 8131 C 783.461 3.92855 5.58708 0
M  V30 8132 O 783.149 5.1037 6.2111 0
M  V30 8133 H 782.881 0.126896 0.663983 0
M  V30 8134 H 785.435 1.00242 1.79278 0
M  V30 8135 H 783.665 -0.540239 3.82908 0
M  V30 8136 H 785.354 -0.187311 4.05468 0
M  V30 8137 H 786.12 2.28611 4.2774 0
M  V30 8138 H 781.999 1.07716 4.48239 0
M  V30 8139 H 785.543 4.40183 5.41188 0
M  V30 8140 H 781.44 3.18401 5.61508 0
M  V30 8141 H 782.208 5.10735 6.39603 0
M  V30 8142 N 784.871 -1.49948 0.485112 0
M  V30 8143 C 785.818 -2.28819 -0.301729 0
M  V30 8144 C 786.788 -1.34496 -0.974683 0
M  V30 8145 O 787.973 -1.63444 -0.984418 0
M  V30 8146 C 785.113 -3.16758 -1.36961 0
M  V30 8147 C 784.226 -4.26125 -0.710027 0
M  V30 8148 C 783.361 -5.01302 -1.75699 0
M  V30 8149 C 782.4 -6.02525 -1.07841 0
M  V30 8150 N 781.537 -6.70927 -2.06886 0
M  V30 8151 H 786.377 -2.95604 0.377127 0
M  V30 8152 H 783.914 -1.45764 0.197826 0
M  V30 8153 H 785.872 -3.66106 -2.00056 0
M  V30 8154 H 784.502 -2.51991 -2.01744 0
M  V30 8155 H 783.554 -3.80385 0.0338278 0
M  V30 8156 H 784.866 -4.98493 -0.175079 0
M  V30 8157 H 784.02 -5.54438 -2.46339 0
M  V30 8158 H 782.759 -4.28672 -2.32577 0
M  V30 8159 H 781.764 -5.48635 -0.357706 0
M  V30 8160 H 782.989 -6.77134 -0.516345 0
M  V30 8161 H 780.935 -6.01079 -2.62755 0
M  V30 8162 H 780.852 -7.39216 -1.58414 0
M  V30 8163 H 782.12 -7.28675 -2.76863 0
M  V30 8164 N 786.349 -0.21828 -1.56081 0
M  V30 8165 C 787.574 0.422302 -2.03055 0
M  V30 8166 C 787.999 1.5279 -1.09713 0
M  V30 8167 O 787.357 1.81102 -0.0847187 0
M  V30 8168 C 787.405 0.934177 -3.48289 0
M  V30 8169 O 786.509 2.04574 -3.58083 0
M  V30 8170 H 785.85 0.0959764 -0.657027 0
M  V30 8171 H 788.38 -0.335958 -2.01823 0
M  V30 8172 H 788.39 1.24484 -3.88546 0
M  V30 8173 H 787.065 0.124963 -4.15712 0
M  V30 8174 H 785.642 1.74196 -3.29712 0
M  V30 8175 N 787.827 1.57504 0.0551401 0
M  V30 8176 C 788.737 2.08198 1.08124 0
M  V30 8177 C 789.753 1.01496 1.41331 0
M  V30 8178 O 790.929 1.33073 1.51174 0
M  V30 8179 C 787.994 2.52968 2.37083 0
M  V30 8180 C 787.055 3.7404 2.10696 0
M  V30 8181 C 786.288 4.16665 3.33505 0
M  V30 8182 O 786.511 3.59019 4.4324 0
M  V30 8183 O 785.445 5.09324 3.20737 0
M  V30 8184 H 789.271 2.95977 0.680518 0
M  V30 8185 H 786.856 1.46933 0.270401 0
M  V30 8186 H 788.738 2.82211 3.12946 0
M  V30 8187 H 787.413 1.6831 2.76502 0
M  V30 8188 H 786.32 3.49855 1.32484 0
M  V30 8189 H 787.653 4.59601 1.76148 0
M  V30 8190 N 789.305 -0.326896 1.54172 0
M  V30 8191 C 790.235 -1.40741 1.86317 0
M  V30 8192 C 791.216 -1.54125 0.719684 0
M  V30 8193 O 792.401 -1.6806 0.973117 0
M  V30 8194 C 789.531 -2.77557 2.08757 0
M  V30 8195 C 788.485 -2.78965 3.24596 0
M  V30 8196 C 787.811 -4.18824 3.32401 0
M  V30 8197 C 789.111 -2.4301 4.62324 0
M  V30 8198 H 790.805 -1.14088 2.76811 0
M  V30 8199 H 788.351 -0.547389 1.3319 0
M  V30 8200 H 790.304 -3.53209 2.29829 0
M  V30 8201 H 789.028 -3.0568 1.15009 0
M  V30 8202 H 787.687 -2.05767 3.03406 0
M  V30 8203 H 787.335 -4.44083 2.36218 0
M  V30 8204 H 787.035 -4.20673 4.10253 0
M  V30 8205 H 788.559 -4.96294 3.55703 0
M  V30 8206 H 789.973 -3.08375 4.83299 0
M  V30 8207 H 788.37 -2.56116 5.42701 0
M  V30 8208 H 789.44 -1.38165 4.64799 0
M  V30 8209 N 790.784 -1.46188 -0.588786 0
M  V30 8210 C 792.2 -1.31009 -0.911524 0
M  V30 8211 C 792.4 -0.277017 -1.99587 0
M  V30 8212 O 791.456 0.322532 -2.50432 0
M  V30 8213 C 792.769 -2.69459 -1.33463 0
M  V30 8214 C 794.317 -2.77502 -1.44782 0
M  V30 8215 C 794.792 -4.1652 -1.90461 0
M  V30 8216 N 796.283 -4.18907 -1.97665 0
M  V30 8217 C 797.018 -5.23359 -2.34271 0
M  V30 8218 N 796.514 -6.38143 -2.69714 0
M  V30 8219 N 798.307 -5.10723 -2.34774 0
M  V30 8220 H 790.458 -2.12016 0.127614 0
M  V30 8221 H 792.721 -0.947984 -0.00557599 0
M  V30 8222 H 792.427 -3.46336 -0.611929 0
M  V30 8223 H 792.301 -2.99165 -2.2974 0
M  V30 8224 H 794.688 -2.00917 -2.1614 0
M  V30 8225 H 794.769 -2.51488 -0.467724 0
M  V30 8226 H 794.413 -4.93597 -1.19684 0
M  V30 8227 H 794.343 -4.39937 -2.89418 0
M  V30 8228 H 796.834 -3.36084 -1.72789 0
M  V30 8229 H 797.147 -7.13624 -2.96582 0
M  V30 8230 H 795.492 -6.41514 -2.67366 0
M  V30 8231 H 798.683 -4.20088 -2.06503 0
M  V30 8232 H 798.856 -5.9224 -2.62975 0
M  V30 8233 N 792.262 0.832906 -1.33792 0
M  V30 8234 C 793.172 1.97514 -1.26592 0
M  V30 8235 C 794.188 1.73114 -0.175391 0
M  V30 8236 O 795.364 1.97387 -0.400062 0
M  V30 8237 C 792.429 3.31625 -1.01121 0
M  V30 8238 C 791.49 3.69101 -2.19233 0
M  V30 8239 C 790.723 4.96813 -1.94968 0
M  V30 8240 O 790.946 5.63208 -0.902955 0
M  V30 8241 O 789.88 5.31932 -2.8166 0
M  V30 8242 H 793.706 2.0653 -2.22664 0
M  V30 8243 H 791.291 0.966826 -1.13898 0
M  V30 8244 H 793.173 4.11968 -0.886571 0
M  V30 8245 H 791.848 3.23599 -0.080822 0
M  V30 8246 H 790.755 2.89243 -2.37253 0
M  V30 8247 H 792.088 3.818 -3.10628 0
M  V30 8248 N 793.74 1.17359 1.05189 0
M  V30 8249 C 794.672 0.848078 2.12933 0
M  V30 8250 C 795.685 -0.149521 1.62112 0
M  V30 8251 O 796.874 0.0767797 1.78335 0
M  V30 8252 C 793.974 0.243889 3.38021 0
M  V30 8253 C 793.147 1.28436 4.18118 0
M  V30 8254 C 792.206 0.697926 5.21551 0
M  V30 8255 O 791.232 1.36973 5.52473 0
M  V30 8256 N 792.434 -0.510024 5.78255 0
M  V30 8257 H 795.199 1.7754 2.41453 0
M  V30 8258 H 792.76 1.07244 1.21286 0
M  V30 8259 H 794.752 -0.161727 4.04377 0
M  V30 8260 H 793.322 -0.58722 3.07035 0
M  V30 8261 H 792.542 1.86573 3.47252 0
M  V30 8262 H 793.83 1.98617 4.68432 0
M  V30 8263 H 793.228 -1.07378 5.55416 0
M  V30 8264 H 791.785 -0.857705 6.46132 0
M  V30 8265 N 795.218 -1.23913 0.973828 0
M  V30 8266 C 796.148 -2.27453 0.527969 0
M  V30 8267 C 797.129 -1.6443 -0.435513 0
M  V30 8268 O 798.314 -1.9137 -0.330306 0
M  V30 8269 C 795.444 -3.4685 -0.176757 0
M  V30 8270 C 794.398 -4.22181 0.703352 0
M  V30 8271 C 793.724 -5.34534 -0.133215 0
M  V30 8272 C 795.024 -4.82865 1.99096 0
M  V30 8273 H 796.718 -2.65 1.3934 0
M  V30 8274 H 794.264 -1.27388 0.671446 0
M  V30 8275 H 796.217 -4.18424 -0.499934 0
M  V30 8276 H 794.941 -3.08346 -1.07659 0
M  V30 8277 H 793.6 -3.52416 1.00989 0
M  V30 8278 H 793.248 -4.92271 -1.03338 0
M  V30 8279 H 792.948 -5.85855 0.452494 0
M  V30 8280 H 794.472 -6.08933 -0.450924 0
M  V30 8281 H 795.886 -5.46481 1.73297 0
M  V30 8282 H 794.283 -5.44444 2.52389 0
M  V30 8283 H 795.353 -4.03977 2.68199 0
M  V30 8284 N 796.696 -0.74468 -1.38897 0
M  V30 8285 C 798.107 -0.36568 -1.83084 0
M  V30 8286 C 798.458 1.10436 -1.62168 0
M  V30 8287 O 797.583 1.85281 -1.11804 0
M  V30 8288 C 798.178 -0.656946 -3.3237 0
M  V30 8289 C 796.737 -0.331329 -3.74939 0
M  V30 8290 C 795.884 -0.914661 -2.61781 0
M  V30 8291 H 798.835 -0.941551 -1.27752 0
M  V30 8292 H 798.856 0.0679546 -3.80439 0
M  V30 8293 H 798.368 -1.72693 -3.47561 0
M  V30 8294 H 796.469 0.732426 -3.6533 0
M  V30 8295 H 796.582 -0.820655 -4.72019 0
M  V30 8296 H 794.946 -0.34063 -2.52412 0
M  V30 8297 H 795.729 -1.98949 -2.79775 0
M  V30 8298 N 798.174 1.49689 -0.493057 0
M  V30 8299 C 799.104 2.31826 0.279073 0
M  V30 8300 C 800.085 1.39733 0.969987 0
M  V30 8301 O 801.27 1.68646 0.962925 0
M  V30 8302 C 798.4 3.20046 1.34862 0
M  V30 8303 C 797.354 4.20869 0.77805 0
M  V30 8304 C 796.68 4.97971 1.94753 0
M  V30 8305 C 797.98 5.21813 -0.225543 0
M  V30 8306 H 799.674 2.96627 -0.406512 0
M  V30 8307 H 797.22 1.42647 -0.196943 0
M  V30 8308 H 799.173 3.76315 1.89645 0
M  V30 8309 H 797.897 2.53172 2.06328 0
M  V30 8310 H 796.556 3.65733 0.252036 0
M  V30 8311 H 796.204 4.27552 2.64969 0
M  V30 8312 H 795.904 5.66186 1.57187 0
M  V30 8313 H 797.428 5.57082 2.49984 0
M  V30 8314 H 798.842 5.72823 0.233864 0
M  V30 8315 H 797.239 5.97872 -0.516622 0
M  V30 8316 H 798.309 4.71209 -1.14412 0
M  V30 8317 N 799.652 0.226554 1.55963 0
M  V30 8318 C 800.901 -0.40417 1.97609 0
M  V30 8319 C 801.214 -1.60541 1.1174 0
M  V30 8320 O 802.42 -2.30598 1.43307 0
M  V30 8321 C 800.876 -0.770466 3.51556 0
M  V30 8322 C 800.484 0.408244 4.46136 0
M  V30 8323 C 802.228 -1.36651 4.01904 0
M  V30 8324 C 800.135 0.0192347 5.91397 0
M  V30 8325 H 799.065 -0.15478 0.737943 0
M  V30 8326 H 801.716 0.323558 1.80625 0
M  V30 8327 H 800.098 -1.55575 3.6416 0
M  V30 8328 H 801.272 1.18575 4.45283 0
M  V30 8329 H 799.587 0.917859 4.06158 0
M  V30 8330 H 802.184 -1.67055 5.07934 0
M  V30 8331 H 802.527 -2.28403 3.48049 0
M  V30 8332 H 803.06 -0.644556 3.92543 0
M  V30 8333 H 799.799 0.90336 6.49245 0
M  V30 8334 H 799.319 -0.722485 5.95433 0
M  V30 8335 H 800.998 -0.405711 6.45727 0
M  V30 8336 N 801.13 -1.57531 -0.0467866 0
M  V30 8337 C 802.093 -2.04379 -1.03738 0
M  V30 8338 C 803.093 -0.944881 -1.3011 0
M  V30 8339 O 804.283 -1.20904 -1.25411 0
M  V30 8340 C 801.415 -2.44572 -2.37482 0
M  V30 8341 H 802.608 -2.93142 -0.633063 0
M  V30 8342 H 800.161 -1.53526 -0.293177 0
M  V30 8343 H 800.896 -1.58911 -2.82697 0
M  V30 8344 H 800.681 -3.24785 -2.19675 0
M  V30 8345 H 802.171 -2.81307 -3.08636 0
M  V30 8346 N 802.608 0.318715 -1.54344 0
M  V30 8347 C 803.856 1.054 -1.72439 0
M  V30 8348 C 804.177 1.88388 -0.503495 0
M  V30 8349 O 803.447 1.89866 0.48246 0
M  V30 8350 H 802.027 0.392124 -0.635805 0
M  V30 8351 H 804.689 0.35398 -1.91659 0
M  V30 8352 H 803.785 1.71726 -2.60608 0
M  V30 8353 N 804.086 1.46499 0.581025 0
M  V30 8354 C 805.311 1.55708 1.37002 0
M  V30 8355 C 805.736 0.19942 1.8704 0
M  V30 8356 O 805.094 -0.820731 1.61659 0
M  V30 8357 C 805.142 2.56716 2.53238 0
M  V30 8358 O 804.246 2.10336 3.54729 0
M  V30 8359 H 803.587 0.523912 0.407937 0
M  V30 8360 H 806.117 1.92085 0.704602 0
M  V30 8361 H 806.127 2.76378 3.00132 0
M  V30 8362 H 804.802 3.55307 2.16171 0
M  V30 8363 H 803.379 2.00669 3.14303 0
M  V30 8364 N 805.565 -0.825799 1.34232 0
M  V30 8365 C 806.528 -1.91808 1.25468 0
M  V30 8366 C 807.528 -1.59893 0.170567 0
M  V30 8367 O 808.718 -1.68986 0.422996 0
M  V30 8368 C 805.85 -3.27786 0.93644 0
M  V30 8369 H 807.043 -2.01003 2.22571 0
M  V30 8370 H 804.596 -1.01944 1.18479 0
M  V30 8371 H 805.331 -3.24285 -0.0315408 0
M  V30 8372 H 805.116 -3.52333 1.72057 0
M  V30 8373 H 806.606 -4.07782 0.900214 0
M  V30 8374 N 807.043 -1.17915 -1.04565 0
M  V30 8375 C 808.006 -0.903787 -2.10628 0
M  V30 8376 C 809.006 0.10873 -1.60432 0
M  V30 8377 O 810.196 -0.124152 -1.73757 0
M  V30 8378 C 807.328 -0.355017 -3.39046 0
M  V30 8379 H 808.521 -1.84425 -2.3649 0
M  V30 8380 H 806.074 -0.990477 -1.2091 0
M  V30 8381 H 806.809 0.592297 -3.18845 0
M  V30 8382 H 806.594 -1.08484 -3.76794 0
M  V30 8383 H 808.084 -0.180891 -4.17208 0
M  V30 8384 N 808.521 1.23394 -0.980386 0
M  V30 8385 C 809.484 2.23092 -0.525619 0
M  V30 8386 C 810.484 1.56129 0.384745 0
M  V30 8387 O 811.674 1.73284 0.178439 0
M  V30 8388 C 808.806 3.40074 0.23712 0
M  V30 8389 H 809.999 2.64839 -1.40714 0
M  V30 8390 H 807.552 1.36227 -0.766275 0
M  V30 8391 H 808.287 3.03783 1.13518 0
M  V30 8392 H 808.072 3.89883 -0.416356 0
M  V30 8393 H 809.562 4.14043 0.543892 0
M  V30 8394 N 809.999 0.752036 1.385 0
M  V30 8395 C 811.247 0.306895 1.99756 0
M  V30 8396 C 811.568 -1.11478 1.59992 0
M  V30 8397 O 810.838 -1.76206 0.856045 0
M  V30 8398 H 809.418 0.11048 0.738785 0
M  V30 8399 H 812.08 0.965785 1.69289 0
M  V30 8400 H 811.176 0.368797 3.09913 0
M  V30 8401 N 811.477 -1.49425 0.500989 0
M  V30 8402 C 812.723 -2.02753 -0.0436 0
M  V30 8403 C 813.056 -1.37991 -1.36646 0
M  V30 8404 O 812.331 -0.515597 -1.87542 0
M  V30 8405 C 812.614 -3.59565 -0.19616 0
M  V30 8406 C 812.467 -4.34855 1.14982 0
M  V30 8407 C 813.786 -4.30014 -0.936795 0
M  V30 8408 H 810.905 -0.73686 -0.0143711 0
M  V30 8409 H 813.547 -1.78448 0.652397 0
M  V30 8410 H 811.697 -3.80405 -0.788959 0
M  V30 8411 H 813.369 -4.25512 1.7815 0
M  V30 8412 H 811.612 -3.97414 1.73911 0
M  V30 8413 H 812.283 -5.42933 0.996385 0
M  V30 8414 H 814.759 -4.1383 -0.434036 0
M  V30 8415 H 813.635 -5.39483 -1.01238 0
M  V30 8416 H 813.896 -3.95257 -1.9805 0
M  V30 8417 N 812.955 -0.234822 -1.55841 0
M  V30 8418 C 814.201 0.393843 -1.98939 0
M  V30 8419 C 814.534 1.58466 -1.1226 0
M  V30 8420 O 813.809 1.93635 -0.183242 0
M  V30 8421 C 814.092 0.815492 -3.50745 0
M  V30 8422 C 813.945 -0.379878 -4.48193 0
M  V30 8423 C 815.264 1.66687 -4.07312 0
M  V30 8424 H 812.383 0.141681 -0.723253 0
M  V30 8425 H 815.025 -0.333716 -1.87046 0
M  V30 8426 H 813.175 1.43541 -3.6101 0
M  V30 8427 H 814.847 -1.0182 -4.49923 0
M  V30 8428 H 813.09 -1.02507 -4.21515 0
M  V30 8429 H 813.761 -0.0417069 -5.51984 0
M  V30 8430 H 816.237 1.14369 -4.00074 0
M  V30 8431 H 815.113 1.93078 -5.13821 0
M  V30 8432 H 815.374 2.63468 -3.55017 0
M  V30 8433 N 814.433 1.57553 0.0384317 0
M  V30 8434 C 815.68 1.88841 0.731116 0
M  V30 8435 C 816.008 0.83093 1.75857 0
M  V30 8436 O 815.263 -0.169248 1.94967 0
M  V30 8437 C 815.562 3.26862 1.44554 0
M  V30 8438 C 815.228 4.47472 0.554946 0
M  V30 8439 C 813.89 4.80203 0.309621 0
M  V30 8440 C 816.242 5.21165 -0.0605204 0
M  V30 8441 C 813.57 5.8402 -0.560101 0
M  V30 8442 C 815.922 6.25905 -0.91789 0
M  V30 8443 C 814.586 6.57117 -1.17277 0
M  V30 8444 H 813.856 0.691018 0.267534 0
M  V30 8445 H 816.503 1.91498 -0.00883195 0
M  V30 8446 H 814.808 3.2015 2.25856 0
M  V30 8447 H 816.505 3.48316 1.98688 0
M  V30 8448 H 813.095 4.21874 0.756304 0
M  V30 8449 H 817.279 4.96164 0.116064 0
M  V30 8450 H 812.535 6.06583 -0.765974 0
M  V30 8451 H 816.709 6.82155 -1.40136 0
M  V30 8452 H 814.336 7.37385 -1.84843 0
M  V30 8453 N 815.911 -0.310526 1.54511 0
M  V30 8454 C 817.157 -1.04846 1.73595 0
M  V30 8455 C 817.49 -1.87244 0.515118 0
M  V30 8456 O 816.765 -1.88282 -0.48786 0
M  V30 8457 C 817.048 -1.96237 3.01932 0
M  V30 8458 C 816.901 -1.17082 4.34295 0
M  V30 8459 C 818.22 -2.9556 3.26086 0
M  V30 8460 H 815.339 -0.37976 0.631626 0
M  V30 8461 H 817.981 -0.32394 1.87218 0
M  V30 8462 H 816.131 -2.58015 2.90449 0
M  V30 8463 H 817.803 -0.576643 4.57682 0
M  V30 8464 H 816.046 -0.473336 4.3121 0
M  V30 8465 H 816.717 -1.84257 5.20339 0
M  V30 8466 H 819.193 -2.43908 3.37117 0
M  V30 8467 H 818.069 -3.5668 4.17218 0
M  V30 8468 H 818.33 -3.68715 2.4393 0
M  V30 8469 N 817.389 -1.46805 -0.573248 0
M  V30 8470 C 818.635 -1.5283 -1.33307 0
M  V30 8471 C 818.968 -0.183287 -1.93333 0
M  V30 8472 O 818.243 0.806354 -1.76998 0
M  V30 8473 C 818.526 -2.63414 -2.45531 0
M  V30 8474 C 818.379 -4.07478 -1.90478 0
M  V30 8475 C 819.698 -2.70014 -3.47535 0
M  V30 8476 H 816.817 -0.556371 -0.483343 0
M  V30 8477 H 819.459 -1.78787 -0.643066 0
M  V30 8478 H 817.609 -2.41412 -3.04389 0
M  V30 8479 H 819.281 -4.40795 -1.36004 0
M  V30 8480 H 817.524 -4.16511 -1.21248 0
M  V30 8481 H 818.195 -4.80598 -2.71531 0
M  V30 8482 H 820.671 -2.89817 -2.98572 0
M  V30 8483 H 819.547 -3.49192 -4.23504 0
M  V30 8484 H 819.808 -1.76436 -4.05367 0
M  V30 8485 N 818.867 0.818669 -1.34668 0
M  V30 8486 C 820.092 1.61193 -1.30505 0
M  V30 8487 C 820.517 1.87734 0.117341 0
M  V30 8488 O 819.875 1.45591 1.08042 0
M  V30 8489 C 819.923 2.92733 -2.1057 0
M  V30 8490 O 819.027 3.85 -1.47813 0
M  V30 8491 H 818.368 0.490085 -0.44801 0
M  V30 8492 H 820.898 1.01701 -1.77534 0
M  V30 8493 H 820.908 3.42262 -2.22082 0
M  V30 8494 H 819.583 2.7274 -3.13984 0
M  V30 8495 H 818.16 3.43525 -1.45069 0
M  V30 8496 N 820.346 1.18468 1.03938 0
M  V30 8497 C 821.276 0.936389 2.13902 0
M  V30 8498 C 822.257 -0.126381 1.6963 0
M  V30 8499 O 823.442 0.0264757 1.94182 0
M  V30 8500 C 820.572 0.462729 3.44204 0
M  V30 8501 C 819.526 1.46613 4.02105 0
M  V30 8502 C 818.852 0.84994 5.27902 0
M  V30 8503 C 820.152 2.84323 4.3813 0
M  V30 8504 H 821.846 1.85602 2.3493 0
M  V30 8505 H 819.392 0.893806 1.12903 0
M  V30 8506 H 821.345 0.276382 4.20493 0
M  V30 8507 H 820.069 -0.492477 3.22866 0
M  V30 8508 H 818.728 1.63944 3.27899 0
M  V30 8509 H 818.376 -0.112493 5.02874 0
M  V30 8510 H 818.076 1.51988 5.67603 0
M  V30 8511 H 819.6 0.674152 6.06867 0
M  V30 8512 H 821.014 2.70636 5.054 0
M  V30 8513 H 819.411 3.48012 4.88884 0
M  V30 8514 H 820.481 3.37776 3.47901 0
M  V30 8515 N 821.824 -1.22873 0.986916 0
M  V30 8516 C 823.07 -1.91746 0.660401 0
M  V30 8517 C 823.403 -1.76738 -0.804812 0
M  V30 8518 O 822.678 -1.13246 -1.58131 0
M  V30 8519 C 822.961 -3.44156 1.05966 0
M  V30 8520 C 822.814 -3.68242 2.58298 0
M  V30 8521 C 824.133 -4.35874 0.60842 0
M  V30 8522 H 821.252 -0.696347 0.241391 0
M  V30 8523 H 823.894 -1.44867 1.22937 0
M  V30 8524 H 822.044 -3.84213 0.575534 0
M  V30 8525 H 823.716 -3.37626 3.14335 0
M  V30 8526 H 821.959 -3.12728 3.00638 0
M  V30 8527 H 822.63 -4.74956 2.81285 0
M  V30 8528 H 825.106 -4.03299 1.02417 0
M  V30 8529 H 823.982 -5.41201 0.916142 0
M  V30 8530 H 824.243 -4.39364 -0.491086 0
M  V30 8531 N 823.302 -0.75937 -1.38099 0
M  V30 8532 C 824.265 -0.14372 -2.28749 0
M  V30 8533 C 825.265 0.641338 -1.47457 0
M  V30 8534 O 826.455 0.466751 -1.67831 0
M  V30 8535 C 823.587 0.804545 -3.3127 0
M  V30 8536 H 824.78 -0.942663 -2.847 0
M  V30 8537 H 822.333 -0.526757 -1.47156 0
M  V30 8538 H 823.068 1.62895 -2.80421 0
M  V30 8539 H 822.853 0.243939 -3.9134 0
M  V30 8540 H 824.343 1.23111 -3.99041 0
M  V30 8541 N 824.78 1.49157 -0.508906 0
M  V30 8542 C 826.029 2.0167 0.0346854 0
M  V30 8543 C 826.342 1.39302 1.37311 0
M  V30 8544 O 827.548 1.83189 2.00385 0
M  V30 8545 C 826.004 3.59725 0.112261 0
M  V30 8546 C 825.612 4.31069 -1.21999 0
M  V30 8547 C 827.356 4.20155 0.605798 0
M  V30 8548 C 825.263 5.81001 -1.10415 0
M  V30 8549 H 824.193 0.753814 0.0167355 0
M  V30 8550 H 826.844 1.7162 -0.649518 0
M  V30 8551 H 825.226 3.86525 0.861087 0
M  V30 8552 H 826.4 4.15962 -1.98273 0
M  V30 8553 H 824.715 3.82418 -1.64759 0
M  V30 8554 H 827.312 5.29964 0.710102 0
M  V30 8555 H 827.655 3.84051 1.60656 0
M  V30 8556 H 828.188 3.97705 -0.0867239 0
M  V30 8557 H 824.927 6.21643 -2.07941 0
M  V30 8558 H 824.447 5.9858 -0.382428 0
M  V30 8559 H 826.126 6.42207 -0.786116 0
M  V30 8560 N 826.258 0.243083 1.55714 0
M  V30 8561 C 827.483 -0.389944 2.03701 0
M  V30 8562 C 827.908 -1.51025 1.12129 0
M  V30 8563 O 827.266 -1.80944 0.11352 0
M  V30 8564 C 827.314 -0.878649 3.49731 0
M  V30 8565 O 826.418 -1.98851 3.61292 0
M  V30 8566 H 825.759 -0.0855115 0.658471 0
M  V30 8567 H 828.289 0.368023 2.01263 0
M  V30 8568 H 828.299 -1.18287 3.90477 0
M  V30 8569 H 826.974 -0.0588107 4.15858 0
M  V30 8570 H 825.551 -1.68928 3.32442 0
M  V30 8571 N 827.736 -1.57571 -0.0300757 0
M  V30 8572 C 828.985 -1.88407 -0.720126 0
M  V30 8573 C 829.298 -0.841466 -1.76575 0
M  V30 8574 O 830.504 -1.03902 -2.50832 0
M  V30 8575 C 828.96 -3.34348 -1.33188 0
M  V30 8576 C 828.568 -4.46837 -0.32266 0
M  V30 8577 C 830.312 -3.74333 -2.00187 0
M  V30 8578 C 828.219 -5.83838 -0.942703 0
M  V30 8579 H 827.149 -0.702952 -0.272718 0
M  V30 8580 H 829.8 -1.83482 0.0255337 0
M  V30 8581 H 828.182 -3.34014 -2.12721 0
M  V30 8582 H 829.356 -4.58638 0.445887 0
M  V30 8583 H 827.671 -4.15678 0.245181 0
M  V30 8584 H 830.268 -4.74008 -2.47428 0
M  V30 8585 H 830.611 -3.06275 -2.81959 0
M  V30 8586 H 831.144 -3.76837 -1.2743 0
M  V30 8587 H 827.883 -6.55294 -0.164413 0
M  V30 8588 H 827.403 -5.75759 -1.68111 0
M  V30 8589 H 829.082 -6.30535 -1.45034 0
M  V30 8590 N 829.214 0.302327 -1.54673 0
M  V30 8591 C 830.46 1.03924 -1.74149 0
M  V30 8592 C 830.793 1.86968 -0.525041 0
M  V30 8593 O 830.068 1.88538 0.477868 0
M  V30 8594 C 830.351 1.94633 -3.02969 0
M  V30 8595 C 830.204 1.14778 -4.34909 0
M  V30 8596 C 831.523 2.93826 -3.27649 0
M  V30 8597 H 828.642 0.376405 -0.633631 0
M  V30 8598 H 831.284 0.314007 -1.87387 0
M  V30 8599 H 829.434 2.56471 -2.91813 0
M  V30 8600 H 831.106 0.552363 -4.57981 0
M  V30 8601 H 829.349 0.450462 -4.31455 0
M  V30 8602 H 830.02 1.81495 -5.21309 0
M  V30 8603 H 832.496 2.42117 -3.38406 0
M  V30 8604 H 831.372 3.54462 -4.19104 0
M  V30 8605 H 831.633 3.67416 -2.45882 0
M  V30 8606 N 830.692 1.47107 0.565454 0
M  V30 8607 C 831.932 1.5488 1.33385 0
M  V30 8608 C 832.296 0.202804 1.90926 0
M  V30 8609 O 833.497 0.155345 2.68351 0
M  V30 8610 C 831.768 2.62969 2.42037 0
M  V30 8611 S 833.327 2.90269 3.29074 0
M  V30 8612 H 830.145 0.547008 0.454206 0
M  V30 8613 H 832.747 1.8444 0.648228 0
M  V30 8614 H 831.451 3.59376 1.98185 0
M  V30 8615 H 830.982 2.35197 3.15351 0
M  V30 8616 H 832.997 2.26854 4.41307 0
M  V30 8617 N 832.17 -0.811516 1.35101 0
M  V30 8618 C 833.395 -1.60499 1.31358 0
M  V30 8619 C 833.82 -1.87793 -0.107383 0
M  V30 8620 O 833.178 -1.46161 -1.07268 0
M  V30 8621 C 833.226 -2.91612 2.12119 0
M  V30 8622 O 832.33 -3.84211 1.49853 0
M  V30 8623 H 831.671 -0.487702 0.450603 0
M  V30 8624 H 834.201 -1.00758 1.7807 0
M  V30 8625 H 834.211 -3.4108 2.23894 0
M  V30 8626 H 832.886 -2.71071 3.15426 0
M  V30 8627 H 831.463 -3.42751 1.46889 0
M  V30 8628 N 833.648 -1.19017 -1.03309 0
M  V30 8629 C 835.064 -0.941483 -1.28873 0
M  V30 8630 C 835.264 0.388587 -1.97718 0
M  V30 8631 O 834.32 1.12111 -2.26246 0
M  V30 8632 C 835.633 -2.11249 -2.13996 0
M  V30 8633 C 837.181 -2.15164 -2.27318 0
M  V30 8634 C 837.656 -3.31704 -3.15811 0
M  V30 8635 N 839.147 -3.31613 -3.23399 0
M  V30 8636 C 839.882 -4.18431 -3.9205 0
M  V30 8637 N 839.378 -5.15397 -4.62966 0
M  V30 8638 N 841.171 -4.06321 -3.88406 0
M  V30 8639 H 833.322 -2.04599 -0.570343 0
M  V30 8640 H 835.585 -0.894406 -0.314232 0
M  V30 8641 H 835.291 -3.07482 -1.70727 0
M  V30 8642 H 835.165 -2.07955 -3.14697 0
M  V30 8643 H 837.552 -1.19504 -2.6982 0
M  V30 8644 H 837.633 -2.22513 -1.26182 0
M  V30 8645 H 837.277 -4.2764 -2.74019 0
M  V30 8646 H 837.207 -3.21592 -4.16997 0
M  V30 8647 H 839.698 -2.6142 -2.72888 0
M  V30 8648 H 840.011 -5.78 -5.12968 0
M  V30 8649 H 838.356 -5.19349 -4.61846 0
M  V30 8650 H 841.547 -3.29849 -3.3214 0
M  V30 8651 H 841.72 -4.74196 -4.41635 0
M  V30 8652 N 835.127 1.22348 -0.993418 0
M  V30 8653 C 836.074 2.24294 -0.544118 0
M  V30 8654 C 837.044 1.60602 0.42381 0
M  V30 8655 O 838.229 1.87952 0.328453 0
M  V30 8656 C 835.369 3.44837 0.134578 0
M  V30 8657 C 834.482 4.23043 -0.875151 0
M  V30 8658 C 833.617 5.30928 -0.169919 0
M  V30 8659 C 832.656 6.00853 -1.16798 0
M  V30 8660 N 831.793 7.00381 -0.491021 0
M  V30 8661 H 836.633 2.6209 -1.4182 0
M  V30 8662 H 834.17 1.2881 -0.710384 0
M  V30 8663 H 836.128 4.13625 0.544998 0
M  V30 8664 H 834.758 3.07804 0.972446 0
M  V30 8665 H 833.81 3.53546 -1.40389 0
M  V30 8666 H 835.122 4.71237 -1.63516 0
M  V30 8667 H 834.276 6.05972 0.297205 0
M  V30 8668 H 833.015 4.8371 0.622586 0
M  V30 8669 H 832.02 5.24591 -1.64573 0
M  V30 8670 H 833.245 6.50159 -1.96137 0
M  V30 8671 H 831.191 6.55393 0.282037 0
M  V30 8672 H 831.108 7.46584 -1.18947 0
M  V30 8673 H 832.376 7.79486 -0.0467169 0
M  V30 8674 N 836.605 0.766683 1.37694 0
M  V30 8675 C 838.021 0.445739 1.53249 0
M  V30 8676 C 838.221 -1.03935 1.72626 0
M  V30 8677 O 837.277 -1.82525 1.74473 0
M  V30 8678 C 838.59 1.2564 2.73194 0
M  V30 8679 C 840.138 1.24779 2.87053 0
M  V30 8680 C 840.613 2.04169 4.09974 0
M  V30 8681 N 842.104 2.01497 4.17077 0
M  V30 8682 C 842.839 2.5971 5.11212 0
M  V30 8683 N 842.335 3.26691 6.10938 0
M  V30 8684 N 844.128 2.49568 5.03659 0
M  V30 8685 H 836.279 1.72899 1.23368 0
M  V30 8686 H 838.542 0.733701 0.600322 0
M  V30 8687 H 838.248 2.30859 2.65324 0
M  V30 8688 H 838.122 0.882133 3.6674 0
M  V30 8689 H 840.509 0.203603 2.94397 0
M  V30 8690 H 840.59 1.66166 1.9448 0
M  V30 8691 H 840.234 3.08606 4.03392 0
M  V30 8692 H 840.164 1.60167 5.01651 0
M  V30 8693 H 842.655 1.52728 3.45662 0
M  V30 8694 H 842.968 3.68497 6.79286 0
M  V30 8695 H 841.313 3.30789 6.11231 0
M  V30 8696 H 844.504 1.96859 4.24693 0
M  V30 8697 H 844.677 2.95231 5.76839 0
M  V30 8698 N 838.083 -1.48885 0.516809 0
M  V30 8699 C 839.046 -2.27916 -0.242256 0
M  V30 8700 C 840.046 -1.34601 -0.879735 0
M  V30 8701 O 841.236 -1.57616 -0.74182 0
M  V30 8702 C 838.368 -3.13067 -1.34914 0
M  V30 8703 H 839.561 -2.96483 0.451444 0
M  V30 8704 H 837.114 -1.5391 0.272294 0
M  V30 8705 H 837.849 -2.49102 -2.07651 0
M  V30 8706 H 837.634 -3.81695 -0.897313 0
M  V30 8707 H 839.124 -3.72716 -1.88341 0
M  V30 8708 N 839.561 -0.251338 -1.55583 0
M  V30 8709 C 840.791 0.375642 -2.03156 0
M  V30 8710 C 841.199 1.51761 -1.12983 0
M  V30 8711 O 840.542 1.83184 -0.13757 0
M  V30 8712 C 840.604 0.941001 -3.46966 0
M  V30 8713 C 840.268 -0.0692886 -4.56947 0
M  V30 8714 C 841.265 -0.88041 -5.12391 0
M  V30 8715 C 838.95 -0.196661 -5.01915 0
M  V30 8716 C 840.944 -1.80532 -6.11299 0
M  V30 8717 C 838.631 -1.12507 -6.00654 0
M  V30 8718 C 839.629 -1.92792 -6.55225 0
M  V30 8719 O 839.317 -2.84067 -7.52038 0
M  V30 8720 H 839.049 0.0928836 -0.669588 0
M  V30 8721 H 841.603 -0.374115 -2.01964 0
M  V30 8722 H 839.833 1.7404 -3.45322 0
M  V30 8723 H 841.522 1.47853 -3.78014 0
M  V30 8724 H 842.288 -0.792615 -4.78479 0
M  V30 8725 H 838.167 0.418187 -4.59099 0
M  V30 8726 H 841.711 -2.43239 -6.5382 0
M  V30 8727 H 837.608 -1.21377 -6.33986 0
M  V30 8728 H 838.376 -2.78479 -7.6967 0
M  V30 8729 N 841.039 1.57585 0.0217189 0
M  V30 8730 C 842.264 1.94267 0.726309 0
M  V30 8731 C 842.689 0.851904 1.67703 0
M  V30 8732 O 842.047 -0.191792 1.80283 0
M  V30 8733 C 842.095 3.30023 1.45318 0
M  V30 8734 O 841.199 3.22791 2.5667 0
M  V30 8735 H 840.54 0.634777 0.194818 0
M  V30 8736 H 843.07 2.04585 -0.0249985 0
M  V30 8737 H 843.08 3.65084 1.82147 0
M  V30 8738 H 841.755 4.08972 0.755962 0
M  V30 8739 H 840.332 2.99373 2.2233 0
M  V30 8740 N 842.517 -0.29412 1.54831 0
M  V30 8741 C 843.464 -1.36296 1.86258 0
M  V30 8742 C 844.434 -1.50061 0.712097 0
M  V30 8743 O 845.619 -1.64809 0.961381 0
M  V30 8744 C 842.759 -2.72187 2.12151 0
M  V30 8745 C 841.872 -2.66816 3.39755 0
M  V30 8746 C 841.007 -3.94747 3.55455 0
M  V30 8747 C 840.046 -3.838 4.76827 0
M  V30 8748 N 839.183 -5.03521 4.89296 0
M  V30 8749 H 844.023 -1.08796 2.7743 0
M  V30 8750 H 841.56 -0.526069 1.37371 0
M  V30 8751 H 843.518 -3.51225 2.25159 0
M  V30 8752 H 842.148 -2.97934 1.24237 0
M  V30 8753 H 841.2 -1.79605 3.3533 0
M  V30 8754 H 842.512 -2.5462 4.28917 0
M  V30 8755 H 841.666 -4.82223 3.68166 0
M  V30 8756 H 840.405 -4.09785 2.64438 0
M  V30 8757 H 839.41 -2.94708 4.64141 0
M  V30 8758 H 840.635 -3.70301 5.69258 0
M  V30 8759 H 838.581 -5.1901 4.01204 0
M  V30 8760 H 838.498 -4.93775 5.72471 0
M  V30 8761 H 839.766 -5.92629 5.06371 0
M  V30 8762 N 843.995 -1.47404 -0.557645 0
M  V30 8763 C 844.905 -1.62491 -1.69216 0
M  V30 8764 C 845.921 -0.507764 -1.66426 0
M  V30 8765 O 847.097 -0.775241 -1.85882 0
M  V30 8766 C 844.162 -1.63511 -3.05721 0
M  V30 8767 C 843.223 -2.86648 -3.1958 0
M  V30 8768 C 842.456 -2.87609 -4.49574 0
M  V30 8769 O 842.679 -1.97799 -5.35006 0
M  V30 8770 O 841.613 -3.79465 -4.67215 0
M  V30 8771 H 845.439 -2.58487 -1.59431 0
M  V30 8772 H 843.024 -1.30485 -0.7276 0
M  V30 8773 H 844.906 -1.66863 -3.86956 0
M  V30 8774 H 843.581 -0.706812 -3.15889 0
M  V30 8775 H 842.488 -2.8884 -2.37744 0
M  V30 8776 H 843.821 -3.7877 -3.14316 0
M  V30 8777 N 845.473 0.80434 -1.35529 0
M  V30 8778 C 846.436 1.89788 -1.28503 0
M  V30 8779 C 847.436 1.59601 -0.195983 0
M  V30 8780 O 848.626 1.68292 -0.449827 0
M  V30 8781 C 845.758 3.26255 -0.98847 0
M  V30 8782 H 846.951 1.97436 -2.25741 0
M  V30 8783 H 844.504 1.00046 -1.20086 0
M  V30 8784 H 845.239 3.24294 -0.0200541 0
M  V30 8785 H 845.024 3.49551 -1.77641 0
M  V30 8786 H 846.514 4.06298 -0.964975 0
M  V30 8787 N 846.951 1.19563 1.02676 0
M  V30 8788 C 848.197 1.00105 1.76371 0
M  V30 8789 C 848.53 -0.466823 1.88506 0
M  V30 8790 O 847.805 -1.34665 1.40341 0
M  V30 8791 C 848.088 1.67321 3.18866 0
M  V30 8792 C 847.941 3.21486 3.1459 0
M  V30 8793 C 849.26 1.39794 4.17308 0
M  V30 8794 H 846.379 0.365075 0.640226 0
M  V30 8795 H 849.021 1.47433 1.19848 0
M  V30 8796 H 847.171 1.27081 3.67128 0
M  V30 8797 H 848.843 3.70953 2.7421 0
M  V30 8798 H 847.086 3.5292 2.52249 0
M  V30 8799 H 847.757 3.63665 4.15273 0
M  V30 8800 H 850.233 1.74685 3.77657 0
M  V30 8801 H 849.109 1.89371 5.15199 0
M  V30 8802 H 849.37 0.323505 4.40915 0
M  V30 8803 N 848.429 -1.21819 0.999893 0
M  V30 8804 C 849.659 -1.94475 0.697346 0
M  V30 8805 C 850.067 -1.73991 -0.743228 0
M  V30 8806 O 849.41 -1.04042 -1.51397 0
M  V30 8807 C 849.472 -3.47204 0.932181 0
M  V30 8808 C 849.136 -3.91432 2.3586 0
M  V30 8809 C 850.133 -3.98545 3.33853 0
M  V30 8810 C 847.818 -4.23888 2.69489 0
M  V30 8811 C 849.812 -4.37499 4.63545 0
M  V30 8812 C 847.499 -4.62519 3.99399 0
M  V30 8813 C 848.497 -4.69294 4.96238 0
M  V30 8814 O 848.185 -5.07048 6.23825 0
M  V30 8815 H 847.917 -0.625419 0.256567 0
M  V30 8816 H 850.471 -1.55728 1.33933 0
M  V30 8817 H 848.701 -3.85997 0.233025 0
M  V30 8818 H 850.39 -4.01078 0.623807 0
M  V30 8819 H 851.156 -3.73654 3.09205 0
M  V30 8820 H 847.035 -4.17815 1.94812 0
M  V30 8821 H 850.579 -4.42702 5.3913 0
M  V30 8822 H 846.476 -4.86864 4.23833 0
M  V30 8823 H 847.244 -5.25098 6.27865 0
M  V30 8824 N 849.908 -0.773975 -1.37286 0
M  V30 8825 C 851.133 -0.349561 -2.04433 0
M  V30 8826 C 851.558 1.02082 -1.5799 0
M  V30 8827 O 850.916 1.65458 -0.741172 0
M  V30 8828 C 850.964 -0.404292 -3.58326 0
M  V30 8829 O 850.068 0.594447 -4.08093 0
M  V30 8830 H 849.409 -0.150959 -0.646612 0
M  V30 8831 H 851.939 -1.05079 -1.75555 0
M  V30 8832 H 851.949 -0.262378 -4.07155 0
M  V30 8833 H 850.624 -1.40403 -3.91484 0
M  V30 8834 H 849.201 0.415468 -3.70578 0
M  V30 8835 N 851.386 1.48609 -0.524698 0
M  V30 8836 C 852.663 1.95454 0.075465 0
M  V30 8837 C 853.043 1.46682 1.51814 0
M  V30 8838 O 852.391 0.690975 2.17802 0
M  V30 8839 C 852.601 3.48981 -0.0363273 0
M  V30 8840 C 853.949 4.24414 0.125624 0
M  V30 8841 O 854.973 3.5618 0.0377239 0
M  V30 8842 O 853.832 5.45625 0.309104 0
M  V30 8843 H 850.926 0.822902 0.0822256 0
M  V30 8844 H 853.472 1.59153 -0.588921 0
M  V30 8845 H 852.244 3.77185 -1.04149 0
M  V30 8846 H 851.867 3.91963 0.667146 0
M  V30 8847 N 852.864 0.259585 1.55447 0
M  V30 8848 C 853.811 -0.634578 2.21905 0
M  V30 8849 C 854.781 -1.16168 1.18719 0
M  V30 8850 O 855.966 -1.21383 1.4721 0
M  V30 8851 C 853.106 -1.82005 2.93203 0
M  V30 8852 C 852.219 -1.32828 4.11073 0
M  V30 8853 C 851.354 -2.47431 4.70055 0
M  V30 8854 C 850.393 -1.95179 5.80148 0
M  V30 8855 N 849.53 -3.03197 6.33258 0
M  V30 8856 H 854.37 -0.0611886 2.97937 0
M  V30 8857 H 851.907 -0.0184378 1.47088 0
M  V30 8858 H 853.865 -2.51664 3.32748 0
M  V30 8859 H 852.495 -2.36571 2.19622 0
M  V30 8860 H 851.547 -0.525301 3.76756 0
M  V30 8861 H 852.859 -0.905435 4.90513 0
M  V30 8862 H 852.013 -3.25111 5.12238 0
M  V30 8863 H 850.752 -2.93023 3.89857 0
M  V30 8864 H 849.757 -1.15974 5.37429 0
M  V30 8865 H 850.982 -1.50541 6.62204 0
M  V30 8866 H 848.928 -3.48199 5.55961 0
M  V30 8867 H 848.845 -2.65282 7.07928 0
M  V30 8868 H 850.113 -3.80898 6.80101 0
M  V30 8869 N 854.342 -1.57594 -0.0133615 0
M  V30 8870 C 855.272 -2.10611 -1.00823 0
M  V30 8871 C 856.253 -1.01217 -1.36708 0
M  V30 8872 O 857.438 -1.28827 -1.45318 0
M  V30 8873 C 854.568 -2.59844 -2.30431 0
M  V30 8874 C 853.522 -3.73644 -2.08745 0
M  V30 8875 C 852.848 -4.09141 -3.4425 0
M  V30 8876 C 854.148 -5.01454 -1.46086 0
M  V30 8877 H 855.842 -2.93985 -0.566849 0
M  V30 8878 H 853.388 -1.41423 -0.271219 0
M  V30 8879 H 855.341 -2.95557 -3.00373 0
M  V30 8880 H 854.065 -1.73573 -2.76658 0
M  V30 8881 H 852.724 -3.38303 -1.41232 0
M  V30 8882 H 852.372 -3.19914 -3.88155 0
M  V30 8883 H 852.072 -4.85802 -3.3056 0
M  V30 8884 H 853.596 -4.47402 -4.15528 0
M  V30 8885 H 855.01 -5.35024 -2.05966 0
M  V30 8886 H 853.407 -5.82832 -1.42924 0
M  V30 8887 H 854.477 -4.83003 -0.428471 0
M  V30 8888 N 855.82 0.285905 -1.54985 0
M  V30 8889 C 856.752 1.37505 -1.83371 0
M  V30 8890 C 857.765 1.46138 -0.717454 0
M  V30 8891 O 858.954 1.48186 -0.995142 0
M  V30 8892 C 856.054 2.7575 -1.97016 0
M  V30 8893 C 855.227 2.89866 -3.27561 0
M  V30 8894 C 854.286 4.08704 -3.31433 0
M  V30 8895 O 853.312 4.00073 -4.04883 0
M  V30 8896 N 854.514 5.20062 -2.57907 0
M  V30 8897 H 857.279 1.13505 -2.77375 0
M  V30 8898 H 854.84 0.476006 -1.54744 0
M  V30 8899 H 856.832 3.5352 -1.96991 0
M  V30 8900 H 855.402 2.9263 -1.09938 0
M  V30 8901 H 854.622 1.99085 -3.40234 0
M  V30 8902 H 855.91 2.96219 -4.13681 0
M  V30 8903 H 855.308 5.29958 -1.97891 0
M  V30 8904 H 853.865 5.96111 -2.63619 0
M  V30 8905 N 857.298 1.47698 0.54982 0
M  V30 8906 C 858.248 1.57145 1.65195 0
M  V30 8907 C 859.232 0.429839 1.55052 0
M  V30 8908 O 860.424 0.68018 1.63409 0
M  V30 8909 C 857.553 1.59573 3.0396 0
M  V30 8910 C 856.639 2.79144 3.19279 0
M  V30 8911 N 857.03 4.03769 3.04638 0
M  V30 8912 C 855.328 2.76061 3.50295 0
M  V30 8913 C 856.029 4.83887 3.22845 0
M  V30 8914 N 855.005 4.1634 3.49517 0
M  V30 8915 H 858.807 2.51266 1.52455 0
M  V30 8916 H 856.321 1.43795 0.754773 0
M  V30 8917 H 858.318 1.64431 3.83103 0
M  V30 8918 H 856.978 0.66553 3.17806 0
M  V30 8919 H 857.989 4.34515 2.81811 0
M  V30 8920 H 854.666 1.92211 3.70622 0
M  V30 8921 H 856.056 5.92724 3.1643 0
M  V30 8922 N 858.776 -0.797141 1.35954 0
M  V30 8923 C 860.006 -1.5835 1.32698 0
M  V30 8924 C 860.414 -1.88959 -0.0955298 0
M  V30 8925 O 859.757 -1.49987 -1.06064 0
M  V30 8926 C 859.819 -2.93529 2.0756 0
M  V30 8927 C 859.483 -2.85688 3.56695 0
M  V30 8928 C 860.48 -2.58467 4.51099 0
M  V30 8929 C 858.165 -3.04508 3.99475 0
M  V30 8930 C 860.159 -2.50157 5.8626 0
M  V30 8931 C 857.846 -2.9582 5.34728 0
M  V30 8932 C 858.844 -2.68681 6.27933 0
M  V30 8933 O 858.532 -2.59973 7.60703 0
M  V30 8934 H 858.264 -0.49807 0.457059 0
M  V30 8935 H 860.818 -0.997889 1.79531 0
M  V30 8936 H 859.048 -3.54111 1.55378 0
M  V30 8937 H 860.737 -3.54744 1.9726 0
M  V30 8938 H 861.503 -2.43638 4.19363 0
M  V30 8939 H 857.382 -3.24641 3.27306 0
M  V30 8940 H 860.926 -2.28894 6.58979 0
M  V30 8941 H 856.823 -3.10211 5.66074 0
M  V30 8942 H 857.591 -2.75511 7.70737 0
M  V30 8943 N 860.254 -1.20106 -1.0204 0
M  V30 8944 C 861.479 -1.0351 -1.79723 0
M  V30 8945 C 861.904 0.411328 -1.83548 0
M  V30 8946 O 861.262 1.29608 -1.26773 0
M  V30 8947 C 861.31 -1.61876 -3.22224 0
M  V30 8948 O 860.414 -0.853813 -4.03465 0
M  V30 8949 H 859.755 -0.365299 -0.554484 0
M  V30 8950 H 862.285 -1.59316 -1.28373 0
M  V30 8951 H 862.295 -1.65451 -3.72948 0
M  V30 8952 H 860.97 -2.67148 -3.18755 0
M  V30 8953 H 859.547 -0.891983 -3.62075 0
M  V30 8954 N 861.732 1.21287 -1.00634 0
M  V30 8955 C 862.96 1.94385 -0.708678 0
M  V30 8956 C 863.375 1.7416 0.728957 0
M  V30 8957 O 862.732 1.04906 1.49335 0
M  V30 8958 C 862.783 3.46755 -1.02193 0
M  V30 8959 O 862.504 3.6631 -2.40309 0
M  V30 8960 C 864.005 4.37014 -0.743867 0
M  V30 8961 H 861.225 0.618136 -0.261052 0
M  V30 8962 H 863.769 1.54067 -1.34475 0
M  V30 8963 H 861.924 3.8499 -0.431441 0
M  V30 8964 H 862.338 4.60393 -2.51274 0
M  V30 8965 H 863.812 5.42621 -1.01321 0
M  V30 8966 H 864.289 4.38017 0.322084 0
M  V30 8967 H 864.895 4.04426 -1.31603 0
M  V30 8968 N 863.21 0.781244 1.36873 0
M  V30 8969 C 864.458 0.349198 1.9906 0
M  V30 8970 C 864.779 -1.0806 1.62321 0
M  V30 8971 O 864.049 -1.74351 0.893229 0
M  V30 8972 H 862.629 0.126126 0.736275 0
M  V30 8973 H 865.291 1.00148 1.67202 0
M  V30 8974 H 864.387 0.434451 3.09061 0
M  V30 8975 N 864.689 -1.48329 0.532571 0
M  V30 8976 C 866.105 -1.58458 0.190605 0
M  V30 8977 C 866.305 -1.53427 -1.30623 0
M  V30 8978 O 865.361 -1.4247 -2.08467 0
M  V30 8979 C 866.674 -2.89989 0.79543 0
M  V30 8980 C 868.222 -3.03523 0.7644 0
M  V30 8981 C 868.697 -4.37718 1.34785 0
M  V30 8982 N 870.188 -4.44292 1.30993 0
M  V30 8983 C 870.923 -5.4664 1.73124 0
M  V30 8984 N 870.419 -6.5593 2.22997 0
M  V30 8985 N 872.212 -5.37538 1.64346 0
M  V30 8986 H 864.363 -1.49842 1.50537 0
M  V30 8987 H 866.626 -0.71164 0.626316 0
M  V30 8988 H 866.332 -2.99333 1.84642 0
M  V30 8989 H 866.206 -3.76203 0.27403 0
M  V30 8990 H 868.593 -2.93789 -0.277831 0
M  V30 8991 H 868.674 -2.18912 1.3233 0
M  V30 8992 H 868.318 -4.48206 2.38902 0
M  V30 8993 H 868.248 -5.21019 0.764609 0
M  V30 8994 H 870.739 -3.65897 0.944868 0
M  V30 8995 H 871.052 -7.30167 2.53133 0
M  V30 8996 H 869.397 -6.56886 2.26992 0
M  V30 8997 H 872.588 -4.51052 1.25178 0
M  V30 8998 H 872.761 -6.17169 1.97501 0
M  V30 8999 N 866.167 -0.267825 -1.55308 0
M  V30 9000 C 867.415 0.350343 -1.9904 0
M  V30 9001 C 867.736 1.56924 -1.15758 0
M  V30 9002 O 867.006 1.94358 -0.245336 0
M  V30 9003 H 865.586 0.132435 -0.735167 0
M  V30 9004 H 868.248 -0.371471 -1.91327 0
M  V30 9005 H 867.344 0.645203 -3.05358 0
M  V30 9006 N 867.645 1.57599 0.00500368 0
M  V30 9007 C 868.87 1.95026 0.705663 0
M  V30 9008 C 869.295 0.869643 1.6679 0
M  V30 9009 O 868.653 -0.172659 1.80476 0
M  V30 9010 C 868.701 3.31545 1.4181 0
M  V30 9011 O 867.805 3.25495 2.53232 0
M  V30 9012 H 867.146 0.636808 0.188074 0
M  V30 9013 H 869.676 2.04547 -0.046696 0
M  V30 9014 H 869.686 3.66996 1.78265 0
M  V30 9015 H 868.361 4.09751 0.712543 0
M  V30 9016 H 866.938 3.01714 2.19142 0
M  V30 9017 N 869.123 -0.277682 1.55134 0
M  V30 9018 C 870.534 -0.849063 1.66276 0
M  V30 9019 C 870.885 -1.87223 0.5867 0
M  V30 9020 O 870.01 -2.14676 -0.272635 0
M  V30 9021 C 870.605 -1.54681 3.01429 0
M  V30 9022 C 869.164 -2.06628 3.14614 0
M  V30 9023 C 868.311 -0.906748 2.62056 0
M  V30 9024 H 871.262 -0.0541357 1.58608 0
M  V30 9025 H 871.283 -2.41356 2.94156 0
M  V30 9026 H 870.795 -0.80189 3.79725 0
M  V30 9027 H 868.896 -2.84095 2.41082 0
M  V30 9028 H 869.009 -2.2848 4.2111 0
M  V30 9029 H 867.373 -1.29882 2.19095 0
M  V30 9030 H 868.156 -0.175414 3.42852 0
M  V30 9031 N 870.601 -1.47988 -0.541979 0
M  V30 9032 C 871.849 -1.55086 -1.29587 0
M  V30 9033 C 872.17 -0.221304 -1.9374 0
M  V30 9034 O 871.44 0.756128 -1.80719 0
M  V30 9035 H 870.02 -0.571307 -0.481266 0
M  V30 9036 H 872.682 -1.8438 -0.631675 0
M  V30 9037 H 871.778 -2.32556 -2.08144 0
M  V30 9038 N 872.079 0.78992 -1.36375 0
M  V30 9039 C 873.012 1.90907 -1.25019 0
M  V30 9040 C 873.99 1.62043 -0.134463 0
M  V30 9041 O 875.174 1.86008 -0.305506 0
M  V30 9042 C 872.301 3.25716 -0.928822 0
M  V30 9043 C 871.347 3.73511 -2.05892 0
M  V30 9044 S 872.18 3.89332 -3.6767 0
M  V30 9045 C 873.336 5.27017 -3.37645 0
M  V30 9046 H 873.569 2.00247 -2.19746 0
M  V30 9047 H 871.102 0.949097 -1.21785 0
M  V30 9048 H 873.06 4.03586 -0.750219 0
M  V30 9049 H 871.721 3.141 0.000658424 0
M  V30 9050 H 870.914 4.71195 -1.78862 0
M  V30 9051 H 870.516 3.02688 -2.19672 0
M  V30 9052 H 872.808 6.1158 -2.91507 0
M  V30 9053 H 873.751 5.5905 -4.3459 0
M  V30 9054 H 874.159 4.94093 -2.73006 0
M  V30 9055 N 873.557 1.20646 1.01402 0
M  V30 9056 C 874.504 0.957618 2.09996 0
M  V30 9057 C 875.474 -0.113115 1.65714 0
M  V30 9058 O 876.659 0.032142 1.90773 0
M  V30 9059 C 873.799 0.5186 3.41181 0
M  V30 9060 C 872.912 1.65777 3.98926 0
M  V30 9061 C 872.047 1.16881 5.18182 0
M  V30 9062 C 871.086 2.2809 5.68015 0
M  V30 9063 N 870.223 1.80392 6.7853 0
M  V30 9064 H 875.063 1.88732 2.30617 0
M  V30 9065 H 872.6 0.940703 1.13089 0
M  V30 9066 H 874.558 0.245367 4.16478 0
M  V30 9067 H 873.188 -0.3741 3.20625 0
M  V30 9068 H 872.24 2.04586 3.207 0
M  V30 9069 H 873.552 2.49507 4.31912 0
M  V30 9070 H 872.706 0.851694 6.00692 0
M  V30 9071 H 871.445 0.301434 4.86768 0
M  V30 9072 H 870.45 2.60614 4.84108 0
M  V30 9073 H 871.675 3.15308 6.01463 0
M  V30 9074 H 869.621 0.959856 6.4894 0
M  V30 9075 H 869.538 2.57701 7.10722 0
M  V30 9076 H 870.806 1.51688 7.64598 0
M  V30 9077 N 875.035 -1.20752 1.01276 0
M  V30 9078 C 876.284 -1.8934 0.695229 0
M  V30 9079 C 876.597 -1.79459 -0.77806 0
M  V30 9080 O 877.803 -2.43146 -1.20799 0
M  V30 9081 C 876.259 -3.39548 1.1931 0
M  V30 9082 C 875.867 -3.58023 2.69302 0
M  V30 9083 C 877.611 -4.13714 0.950823 0
M  V30 9084 C 875.518 -5.02037 3.1259 0
M  V30 9085 H 874.448 -0.709084 0.25635 0
M  V30 9086 H 877.099 -1.36629 1.22494 0
M  V30 9087 H 875.481 -3.91559 0.591395 0
M  V30 9088 H 876.655 -3.16416 3.34989 0
M  V30 9089 H 874.97 -2.97222 2.9163 0
M  V30 9090 H 877.567 -5.19891 1.24971 0
M  V30 9091 H 877.91 -4.16147 -0.112791 0
M  V30 9092 H 878.443 -3.67792 1.51571 0
M  V30 9093 H 875.182 -5.04757 4.18211 0
M  V30 9094 H 874.702 -5.44469 2.51621 0
M  V30 9095 H 876.381 -5.70594 3.0501 0
M  V30 9096 N 876.513 -0.788492 -1.36457 0
M  V30 9097 C 877.743 -0.371825 -2.03227 0
M  V30 9098 C 878.151 1.01627 -1.59589 0
M  V30 9099 O 877.494 1.663 -0.780382 0
M  V30 9100 C 877.556 -0.355179 -3.57741 0
M  V30 9101 C 877.22 -1.69069 -4.24576 0
M  V30 9102 C 878.217 -2.64601 -4.47529 0
M  V30 9103 C 875.902 -1.96973 -4.62068 0
M  V30 9104 C 877.896 -3.86232 -5.07054 0
M  V30 9105 C 875.583 -3.18872 -5.2131 0
M  V30 9106 C 876.581 -4.1332 -5.43742 0
M  V30 9107 O 876.269 -5.3307 -6.0174 0
M  V30 9108 H 876.001 -0.151452 -0.658816 0
M  V30 9109 H 878.555 -1.06827 -1.75434 0
M  V30 9110 H 876.785 0.397753 -3.84649 0
M  V30 9111 H 878.474 0.0366955 -4.05883 0
M  V30 9112 H 879.24 -2.44329 -4.18961 0
M  V30 9113 H 875.119 -1.24277 -4.43933 0
M  V30 9114 H 878.663 -4.59965 -5.24478 0
M  V30 9115 H 874.56 -3.39022 -5.49304 0
M  V30 9116 H 875.328 -5.34121 -6.20207 0
M  V30 9117 N 877.991 1.48044 -0.54043 0
M  V30 9118 C 879.24 2.01698 -0.00809961 0
M  V30 9119 C 879.553 1.42184 1.34325 0
M  V30 9120 O 880.759 1.87398 1.96454 0
M  V30 9121 C 879.215 3.59882 0.035933 0
M  V30 9122 C 878.823 4.28384 -1.31115 0
M  V30 9123 C 880.567 4.21346 0.51654 0
M  V30 9124 C 878.474 5.78529 -1.22714 0
M  V30 9125 H 877.404 0.754 0.000742174 0
M  V30 9126 H 880.055 1.70204 -0.685775 0
M  V30 9127 H 878.437 3.88264 0.778906 0
M  V30 9128 H 879.611 4.11663 -2.07051 0
M  V30 9129 H 877.926 3.78837 -1.72834 0
M  V30 9130 H 880.523 5.31351 0.597529 0
M  V30 9131 H 880.866 3.87373 1.52473 0
M  V30 9132 H 881.399 3.97432 -0.171064 0
M  V30 9133 H 878.138 6.17093 -2.21081 0
M  V30 9134 H 877.658 5.97634 -0.50931 0
M  V30 9135 H 879.337 6.40395 -0.92216 0
M  V30 9136 N 879.47 0.276058 1.55163 0
M  V30 9137 C 880.747 -0.392292 1.91626 0
M  V30 9138 C 881.127 -1.73646 1.20043 0
M  V30 9139 O 880.475 -2.26139 0.327606 0
M  V30 9140 C 880.685 -0.531641 3.44927 0
M  V30 9141 C 882.033 -0.8141 4.16722 0
M  V30 9142 O 883.057 -0.616413 3.50826 0
M  V30 9143 O 881.916 -1.19224 5.33337 0
M  V30 9144 H 879.01 -0.214945 0.798579 0
M  V30 9145 H 881.556 0.32228 1.66612 0
M  V30 9146 H 880.328 0.414282 3.89101 0
M  V30 9147 H 879.951 -1.29564 3.75897 0
M  V30 9148 N 880.948 -1.576 0.00335426 0
M  V30 9149 C 882.359 -1.7875 -0.539008 0
M  V30 9150 C 882.71 -0.911097 -1.73763 0
M  V30 9151 O 881.835 -0.114476 -2.16097 0
M  V30 9152 C 882.43 -3.24177 -0.984611 0
M  V30 9153 C 880.989 -3.46412 -1.47226 0
M  V30 9154 C 880.136 -2.74024 -0.425004 0
M  V30 9155 H 883.087 -1.57032 0.229511 0
M  V30 9156 H 883.108 -3.32474 -1.85044 0
M  V30 9157 H 882.62 -3.87938 -0.112035 0
M  V30 9158 H 880.721 -2.8787 -2.36562 0
M  V30 9159 H 880.834 -4.55098 -1.49741 0
M  V30 9160 H 879.198 -2.38741 -0.887394 0
M  V30 9161 H 879.981 -3.40486 0.438662 0
M  V30 9162 N 882.426 0.269451 -1.5528 0
M  V30 9163 C 883.673 1.00058 -1.76053 0
M  V30 9164 C 884.001 1.86156 -0.563592 0
M  V30 9165 O 883.256 1.90366 0.453806 0
M  V30 9166 C 883.555 1.91 -3.02082 0
M  V30 9167 C 883.221 1.20623 -4.34466 0
M  V30 9168 C 881.883 1.01165 -4.70446 0
M  V30 9169 C 884.235 0.705695 -5.164 0
M  V30 9170 C 881.563 0.303865 -5.85913 0
M  V30 9171 C 883.915 0.0114838 -6.32599 0
M  V30 9172 C 882.579 -0.19478 -6.67216 0
M  V30 9173 H 881.849 0.366138 -0.644223 0
M  V30 9174 H 884.496 0.272563 -1.8955 0
M  V30 9175 H 882.801 2.70435 -2.835 0
M  V30 9176 H 884.498 2.47698 -3.15352 0
M  V30 9177 H 881.088 1.36781 -4.06188 0
M  V30 9178 H 885.272 0.84364 -4.89077 0
M  V30 9179 H 880.528 0.133368 -6.11255 0
M  V30 9180 H 884.702 -0.384111 -6.9534 0
M  V30 9181 H 882.329 -0.745201 -7.56539 0
M  V30 9182 N 883.904 1.48273 0.534124 0
M  V30 9183 C 885.132 1.59734 1.31501 0
M  V30 9184 C 885.547 0.256047 1.87056 0
M  V30 9185 O 884.904 -0.754086 1.66192 0
M  V30 9186 C 884.955 2.64072 2.46877 0
M  V30 9187 O 884.676 3.92995 1.93613 0
M  V30 9188 C 886.177 2.85933 3.38758 0
M  V30 9189 H 883.397 0.538703 0.40005 0
M  V30 9190 H 885.941 1.9407 0.644762 0
M  V30 9191 H 884.096 2.32606 3.09795 0
M  V30 9192 H 884.51 4.50203 2.69106 0
M  V30 9193 H 885.984 3.62749 4.16073 0
M  V30 9194 H 886.461 1.94603 3.93734 0
M  V30 9195 H 887.067 3.18687 2.81636 0
M  V30 9196 N 885.382 -0.782676 1.36792 0
M  V30 9197 C 886.612 -1.56934 1.3437 0
M  V30 9198 C 887.02 -1.89049 -0.0754828 0
M  V30 9199 O 886.363 -1.51103 -1.04467 0
M  V30 9200 C 886.425 -2.91311 2.10661 0
M  V30 9201 C 886.089 -2.81889 3.59705 0
M  V30 9202 C 887.086 -2.53668 4.53815 0
M  V30 9203 C 884.771 -3.00254 4.02682 0
M  V30 9204 C 886.765 -2.43925 5.8888 0
M  V30 9205 C 884.452 -2.90132 5.37835 0
M  V30 9206 C 885.45 -2.62006 6.30747 0
M  V30 9207 O 885.138 -2.5189 7.63418 0
M  V30 9208 H 884.87 -0.493194 0.462316 0
M  V30 9209 H 887.424 -0.978791 1.80579 0
M  V30 9210 H 885.654 -3.52443 1.59125 0
M  V30 9211 H 887.343 -3.52632 2.01012 0
M  V30 9212 H 888.109 -2.39176 4.21924 0
M  V30 9213 H 883.988 -3.21151 3.30731 0
M  V30 9214 H 887.532 -2.21892 6.6137 0
M  V30 9215 H 883.429 -3.04189 5.69332 0
M  V30 9216 H 884.197 -2.67321 7.73616 0
M  V30 9217 N 886.86 -1.21182 -1.00761 0
M  V30 9218 C 887.77 -0.984691 -2.12934 0
M  V30 9219 C 888.786 0.0623657 -1.73888 0
M  V30 9220 O 889.962 -0.1271 -2.00999 0
M  V30 9221 C 887.027 -0.549447 -3.42319 0
M  V30 9222 C 886.088 -1.66841 -3.95553 0
M  V30 9223 C 885.321 -1.25384 -5.18763 0
M  V30 9224 O 885.544 -0.126333 -5.7026 0
M  V30 9225 O 884.478 -2.06475 -5.65377 0
M  V30 9226 H 888.304 -1.92413 -2.3497 0
M  V30 9227 H 885.889 -0.99647 -1.11314 0
M  V30 9228 H 887.771 -0.316384 -4.20211 0
M  V30 9229 H 886.446 0.361304 -3.21677 0
M  V30 9230 H 885.353 -1.95585 -3.189 0
M  V30 9231 H 886.686 -2.55649 -4.206 0
M  V30 9232 N 888.338 1.20213 -1.01915 0
M  V30 9233 C 889.615 1.85348 -0.62495 0
M  V30 9234 C 889.995 1.91101 0.896854 0
M  V30 9235 O 889.343 1.42075 1.78961 0
M  V30 9236 C 889.553 3.24849 -1.27571 0
M  V30 9237 C 890.901 4.01107 -1.39277 0
M  V30 9238 O 891.925 3.34211 -1.23212 0
M  V30 9239 O 890.784 5.20914 -1.6526 0
M  V30 9240 H 887.878 0.798303 -0.215965 0
M  V30 9241 H 890.424 1.27782 -1.11669 0
M  V30 9242 H 889.196 3.1544 -2.31545 0
M  V30 9243 H 888.819 3.90049 -0.77122 0
M  V30 9244 N 889.816 0.795718 1.36037 0
M  V30 9245 C 891.227 0.433379 1.816 0
M  V30 9246 C 891.578 -1.04341 1.66155 0
M  V30 9247 O 890.703 -1.81004 1.18603 0
M  V30 9248 C 891.298 0.77985 3.29703 0
M  V30 9249 C 889.857 0.470256 3.73451 0
M  V30 9250 C 889.004 1.01119 2.58206 0
M  V30 9251 H 891.955 0.988317 1.24169 0
M  V30 9252 H 891.976 0.0732898 3.80429 0
M  V30 9253 H 891.488 1.85473 3.40913 0
M  V30 9254 H 889.589 -0.596332 3.67797 0
M  V30 9255 H 889.702 0.995276 4.68648 0
M  V30 9256 H 888.066 0.434077 2.50974 0
M  V30 9257 H 888.849 2.09196 2.72198 0
M  V30 9258 N 891.294 -1.47756 0.548274 0
M  V30 9259 C 892.242 -2.3158 -0.217584 0
M  V30 9260 C 893.236 -1.42372 -0.917957 0
M  V30 9261 O 894.442 -1.59184 -0.840259 0
M  V30 9262 H 890.817 -0.74671 -0.0890388 0
M  V30 9263 H 892.788 -2.94032 0.508719 0
M  V30 9264 C 891.537 -3.24834 -1.24008 0
M  V30 9265 H 890.86 -3.93435 -0.710572 0
M  V30 9266 H 892.3 -3.86336 -1.74701 0
M  V30 9267 C 890.759 -2.47724 -2.2833 0
M  V30 9268 O 891.289 -2.21522 -3.35098 0
M  V30 9269 N 889.495 -2.08891 -2.02022 0
M  V30 9270 H 889.042 -2.30401 -1.1521 0
M  V30 9271 H 889 -1.57613 -2.7204 0
M  V30 9272 N 892.772 -0.284283 -1.55015 0
M  V30 9273 C 893.682 0.60906 -2.26556 0
M  V30 9274 C 894.698 1.16246 -1.29472 0
M  V30 9275 O 895.874 1.1908 -1.62425 0
M  V30 9276 C 892.939 1.77246 -2.97968 0
M  V30 9277 C 892 1.25482 -4.10552 0
M  V30 9278 C 891.233 2.36277 -4.78549 0
M  V30 9279 O 891.456 3.55829 -4.45805 0
M  V30 9280 O 890.39 2.03914 -5.66306 0
M  V30 9281 H 894.216 0.0292298 -3.03686 0
M  V30 9282 H 891.801 -0.0513466 -1.49312 0
M  V30 9283 H 893.683 2.45062 -3.42815 0
M  V30 9284 H 892.358 2.33921 -2.23747 0
M  V30 9285 H 891.265 0.542859 -3.7014 0
M  V30 9286 H 892.598 0.733708 -4.86701 0
M  V30 9287 N 894.251 1.57596 -0.0117121 0
M  V30 9288 C 895.214 2.08089 0.960816 0
M  V30 9289 C 896.214 0.992519 1.26514 0
M  V30 9290 O 897.404 1.25475 1.20837 0
M  V30 9291 C 894.536 2.53217 2.28241 0
M  V30 9292 H 895.729 2.9529 0.523829 0
M  V30 9293 H 893.282 1.54508 0.235995 0
M  V30 9294 H 894.017 1.69294 2.76604 0
M  V30 9295 H 893.802 3.32714 2.0747 0
M  V30 9296 H 895.292 2.92568 2.97983 0
M  V30 9297 N 895.729 -0.261212 1.5542 0
M  V30 9298 C 896.975 -0.992699 1.76843 0
M  V30 9299 C 897.308 -1.8551 0.574428 0
M  V30 9300 O 896.583 -1.89739 -0.427713 0
M  V30 9301 C 896.866 -1.86532 3.08022 0
M  V30 9302 C 896.719 -1.03206 4.378 0
M  V30 9303 C 898.038 -2.85036 3.35324 0
M  V30 9304 H 895.157 -0.359473 0.643388 0
M  V30 9305 H 897.799 -0.264214 1.88154 0
M  V30 9306 H 895.949 -2.48644 2.9851 0
M  V30 9307 H 897.621 -0.430743 4.59285 0
M  V30 9308 H 895.864 -0.335911 4.32497 0
M  V30 9309 H 896.535 -1.6761 5.25938 0
M  V30 9310 H 899.011 -2.3306 3.44706 0
M  V30 9311 H 897.887 -3.43226 4.28354 0
M  V30 9312 H 898.148 -3.60768 2.55537 0
M  V30 9313 N 897.207 -1.48554 -0.526253 0
M  V30 9314 C 898.623 -1.34757 -0.855138 0
M  V30 9315 C 898.823 -0.36142 -1.98232 0
M  V30 9316 O 897.879 0.216026 -2.51574 0
M  V30 9317 C 899.192 -2.74877 -1.21915 0
M  V30 9318 C 900.74 -2.83393 -1.32882 0
M  V30 9319 C 901.215 -4.24223 -1.72624 0
M  V30 9320 N 902.706 -4.26913 -1.7972 0
M  V30 9321 C 903.441 -5.32824 -2.11863 0
M  V30 9322 N 902.937 -6.49008 -2.42405 0
M  V30 9323 N 904.73 -5.20221 -2.12901 0
M  V30 9324 H 896.881 -2.11284 0.217422 0
M  V30 9325 H 899.144 -0.947367 0.0346362 0
M  V30 9326 H 898.85 -3.48619 -0.464486 0
M  V30 9327 H 898.724 -3.0864 -2.16844 0
M  V30 9328 H 901.111 -2.09904 -2.07424 0
M  V30 9329 H 901.192 -2.53245 -0.360638 0
M  V30 9330 H 900.836 -4.98229 -0.986411 0
M  V30 9331 H 900.766 -4.51817 -2.70498 0
M  V30 9332 H 903.257 -3.4311 -1.58379 0
M  V30 9333 H 903.57 -7.25561 -2.66048 0
M  V30 9334 H 901.915 -6.52277 -2.39917 0
M  V30 9335 H 905.106 -4.28469 -1.885 0
M  V30 9336 H 905.279 -6.02861 -2.37619 0
M  V30 9337 N 898.685 0.775411 -1.37205 0
M  V30 9338 C 899.595 1.91967 -1.34855 0
M  V30 9339 C 900.611 1.72214 -0.248656 0
M  V30 9340 O 901.787 1.95512 -0.483421 0
M  V30 9341 C 898.852 3.27038 -1.15096 0
M  V30 9342 C 897.913 3.5947 -2.34691 0
M  V30 9343 C 897.146 4.88097 -2.15865 0
M  V30 9344 O 897.369 5.58871 -1.14102 0
M  V30 9345 O 896.303 5.19507 -3.03967 0
M  V30 9346 H 900.129 1.969 -2.31223 0
M  V30 9347 H 897.714 0.917647 -1.17897 0
M  V30 9348 H 899.596 4.07837 -1.0605 0
M  V30 9349 H 898.271 3.22965 -0.217999 0
M  V30 9350 H 897.178 2.7892 -2.49308 0
M  V30 9351 H 898.511 3.68282 -3.26541 0
M  V30 9352 N 900.163 1.21714 1.00117 0
M  V30 9353 C 901.41 1.0367 1.73951 0
M  V30 9354 C 901.738 -0.429289 1.89703 0
M  V30 9355 O 900.993 -1.33475 1.43119 0
M  V30 9356 C 901.292 1.68345 3.15269 0
M  V30 9357 C 900.958 3.18214 3.19454 0
M  V30 9358 C 899.62 3.59109 3.20303 0
M  V30 9359 C 901.972 4.14179 3.16394 0
M  V30 9360 C 899.3 4.94467 3.15783 0
M  V30 9361 C 901.652 5.49502 3.13416 0
M  V30 9362 C 900.316 5.8979 3.12577 0
M  V30 9363 H 899.586 0.379355 0.63653 0
M  V30 9364 H 902.233 1.51361 1.17312 0
M  V30 9365 H 900.538 1.12957 3.75164 0
M  V30 9366 H 902.235 1.51882 3.71124 0
M  V30 9367 H 898.825 2.85646 3.19538 0
M  V30 9368 H 903.009 3.83607 3.14895 0
M  V30 9369 H 898.265 5.24923 3.13473 0
M  V30 9370 H 902.439 6.23595 3.10003 0
M  V30 9371 H 900.066 6.94643 3.08829 0
M  V30 9372 N 901.641 -1.19671 1.02551 0
M  V30 9373 C 902.604 -2.20987 0.608055 0
M  V30 9374 C 903.604 -1.5745 -0.326534 0
M  V30 9375 O 904.794 -1.73827 -0.114003 0
M  V30 9376 C 901.926 -3.4072 -0.11074 0
M  V30 9377 H 903.119 -2.59434 1.50446 0
M  V30 9378 H 900.672 -1.3329 0.816307 0
M  V30 9379 H 901.407 -3.07787 -1.02165 0
M  V30 9380 H 901.192 -3.88069 0.560772 0
M  V30 9381 H 902.682 -4.15776 -0.389848 0
M  V30 9382 N 903.119 -0.802921 -1.35613 0
M  V30 9383 C 904.066 -0.20874 -2.29854 0
M  V30 9384 C 905.036 0.655128 -1.52634 0
M  V30 9385 O 906.221 0.600979 -1.81088 0
M  V30 9386 C 903.361 0.639663 -3.3912 0
M  V30 9387 C 902.474 -0.244234 -4.31309 0
M  V30 9388 C 901.609 0.611825 -5.27665 0
M  V30 9389 C 900.648 -0.272698 -6.11492 0
M  V30 9390 N 899.785 0.543122 -6.99996 0
M  V30 9391 H 904.625 -1.01782 -2.80079 0
M  V30 9392 H 902.162 -0.513465 -1.37848 0
M  V30 9393 H 904.12 1.14668 -4.01132 0
M  V30 9394 H 902.75 1.41404 -2.9018 0
M  V30 9395 H 901.802 -0.869322 -3.70334 0
M  V30 9396 H 903.114 -0.925202 -4.90144 0
M  V30 9397 H 902.268 1.18412 -5.95032 0
M  V30 9398 H 901.007 1.32637 -4.69317 0
M  V30 9399 H 900.012 -0.857287 -5.43075 0
M  V30 9400 H 901.237 -0.985051 -6.71918 0
M  V30 9401 H 899.183 1.24171 -6.44141 0
M  V30 9402 H 899.1 -0.0798767 -7.55958 0
M  V30 9403 H 900.368 1.09881 -7.71717 0
M  V30 9404 N 904.597 1.47463 -0.556102 0
M  V30 9405 C 905.507 2.33785 0.195378 0
M  V30 9406 C 906.523 1.48123 0.913 0
M  V30 9407 O 907.699 1.81053 0.882141 0
M  V30 9408 C 904.764 3.24795 1.21282 0
M  V30 9409 C 903.825 4.26346 0.502747 0
M  V30 9410 C 903.058 5.13007 1.47172 0
M  V30 9411 O 903.281 5.02103 2.70646 0
M  V30 9412 O 902.215 5.93588 0.996814 0
M  V30 9413 H 906.041 2.99341 -0.512676 0
M  V30 9414 H 903.626 1.46004 -0.31673 0
M  V30 9415 H 905.508 3.81015 1.80016 0
M  V30 9416 H 904.183 2.61868 1.90282 0
M  V30 9417 H 903.09 3.73889 -0.125757 0
M  V30 9418 H 904.423 4.91984 -0.145779 0
M  V30 9419 N 906.075 0.2925 1.54862 0
M  V30 9420 C 907.324 -0.319994 1.99146 0
M  V30 9421 C 907.637 -1.55658 1.18448 0
M  V30 9422 O 908.843 -2.24312 1.52959 0
M  V30 9423 C 907.299 -0.620665 3.54508 0
M  V30 9424 C 906.907 0.597098 4.44003 0
M  V30 9425 C 908.651 -1.19482 4.07338 0
M  V30 9426 C 906.558 0.270049 5.90783 0
M  V30 9427 H 905.488 -0.123342 0.743843 0
M  V30 9428 H 908.139 0.399876 1.7909 0
M  V30 9429 H 906.521 -1.3999 3.7043 0
M  V30 9430 H 907.695 1.37354 4.39853 0
M  V30 9431 H 906.01 1.0893 4.019 0
M  V30 9432 H 908.607 -1.45362 5.14562 0
M  V30 9433 H 908.95 -2.13435 3.57423 0
M  V30 9434 H 909.483 -0.477485 3.94924 0
M  V30 9435 H 906.222 1.17791 6.4483 0
M  V30 9436 H 905.742 -0.469292 5.97961 0
M  V30 9437 H 907.421 -0.131471 6.46866 0
M  V30 9438 N 907.553 -1.57587 0.0200696 0
M  V30 9439 C 908.83 -1.82696 -0.698677 0
M  V30 9440 C 909.21 -0.902082 -1.90855 0
M  V30 9441 O 908.558 0.0444834 -2.28457 0
M  V30 9442 C 908.768 -3.31691 -1.08546 0
M  V30 9443 C 910.116 -3.97938 -1.4809 0
M  V30 9444 O 911.14 -3.36133 -1.17869 0
M  V30 9445 O 909.999 -5.06851 -2.04364 0
M  V30 9446 H 907.093 -0.752997 -0.341942 0
M  V30 9447 H 909.639 -1.69635 0.04706 0
M  V30 9448 H 908.411 -3.90659 -0.223956 0
M  V30 9449 H 908.034 -3.49825 -1.88965 0
M  V30 9450 N 909.032 0.252966 -1.55557 0
M  V30 9451 C 910.278 0.983306 -1.77367 0
M  V30 9452 C 910.611 1.85203 -0.584258 0
M  V30 9453 O 909.886 1.89963 0.417644 0
M  V30 9454 C 910.169 1.84896 -3.09007 0
M  V30 9455 C 910.022 1.00883 -4.38341 0
M  V30 9456 C 911.341 2.83254 -3.36831 0
M  V30 9457 H 908.46 0.356056 -0.645286 0
M  V30 9458 H 911.102 0.254232 -1.88291 0
M  V30 9459 H 909.252 2.47058 -2.99825 0
M  V30 9460 H 910.924 0.40638 -4.59507 0
M  V30 9461 H 909.167 0.31297 -4.3267 0
M  V30 9462 H 909.838 1.64818 -5.2682 0
M  V30 9463 H 912.314 2.31228 -3.45937 0
M  V30 9464 H 911.19 3.40949 -4.30169 0
M  V30 9465 H 911.451 3.59407 -2.57447 0
M  V30 9466 N 910.51 1.48831 0.518367 0
M  V30 9467 C 911.735 1.61379 1.30275 0
M  V30 9468 C 912.16 0.278571 1.86026 0
M  V30 9469 O 911.518 -0.751427 1.64995 0
M  V30 9470 C 911.566 2.67225 2.42122 0
M  V30 9471 O 910.67 2.25192 3.45489 0
M  V30 9472 H 910.011 0.540742 0.385349 0
M  V30 9473 H 912.541 1.949 0.622498 0
M  V30 9474 H 912.551 2.88859 2.8814 0
M  V30 9475 H 911.226 3.64155 2.00907 0
M  V30 9476 H 909.803 2.13819 3.05509 0
M  V30 9477 N 911.988 -0.768124 1.37614 0
M  V30 9478 C 913.235 -1.5268 1.33022 0
M  V30 9479 C 913.563 -1.94318 -0.0841918 0
M  V30 9480 O 912.818 -1.64623 -1.0582 0
M  V30 9481 C 913.117 -2.80204 2.21856 0
M  V30 9482 C 912.783 -2.57602 3.7007 0
M  V30 9483 C 911.445 -2.51146 4.10462 0
M  V30 9484 C 913.797 -2.37482 4.63952 0
M  V30 9485 C 911.125 -2.22566 5.42846 0
M  V30 9486 C 913.477 -2.10425 5.96577 0
M  V30 9487 C 912.141 -2.02416 6.36069 0
M  V30 9488 H 911.411 -0.558697 0.486763 0
M  V30 9489 H 914.058 -0.88447 1.69851 0
M  V30 9490 H 912.363 -3.49014 1.78034 0
M  V30 9491 H 914.06 -3.38099 2.15615 0
M  V30 9492 H 910.65 -2.63491 3.38039 0
M  V30 9493 H 914.834 -2.41457 4.33604 0
M  V30 9494 H 910.09 -2.14863 5.72402 0
M  V30 9495 H 914.264 -1.93857 6.68874 0
M  V30 9496 H 911.891 -1.80034 7.38574 0
M  V30 9497 N 913.466 -1.22244 -0.994698 0
M  V30 9498 C 914.712 -1.04746 -1.73655 0
M  V30 9499 C 915.045 0.41668 -1.89677 0
M  V30 9500 O 914.32 1.30897 -1.43862 0
M  V30 9501 C 914.603 -1.75716 -3.14318 0
M  V30 9502 C 914.456 -3.29714 -3.05955 0
M  V30 9503 C 915.775 -1.50809 -4.13455 0
M  V30 9504 H 912.894 -0.381921 -0.630322 0
M  V30 9505 H 915.536 -1.50559 -1.15897 0
M  V30 9506 H 913.686 -1.3677 -3.63629 0
M  V30 9507 H 915.358 -3.78093 -2.64279 0
M  V30 9508 H 913.601 -3.59484 -2.42804 0
M  V30 9509 H 914.272 -3.74547 -4.05485 0
M  V30 9510 H 916.748 -1.84636 -3.72892 0
M  V30 9511 H 915.624 -2.02964 -5.09997 0
M  V30 9512 H 915.885 -0.440292 -4.39902 0
M  V30 9513 N 914.944 1.19125 -1.03184 0
M  V30 9514 C 915.891 2.2245 -0.6152 0
M  V30 9515 C 916.861 1.61869 0.372502 0
M  V30 9516 O 918.046 1.88901 0.268491 0
M  V30 9517 C 915.186 3.45091 0.0248027 0
M  V30 9518 C 914.299 4.20044 -1.0093 0
M  V30 9519 C 913.434 5.30119 -0.338744 0
M  V30 9520 C 912.473 5.96833 -1.35855 0
M  V30 9521 N 911.61 6.98464 -0.713594 0
M  V30 9522 H 916.45 2.57445 -1.50086 0
M  V30 9523 H 913.987 1.26485 -0.751005 0
M  V30 9524 H 915.945 4.15149 0.413131 0
M  V30 9525 H 914.575 3.10742 0.874028 0
M  V30 9526 H 913.627 3.48901 -1.51566 0
M  V30 9527 H 914.939 4.65796 -1.78425 0
M  V30 9528 H 914.093 6.0661 0.104269 0
M  V30 9529 H 912.832 4.85446 0.468382 0
M  V30 9530 H 911.837 5.1909 -1.81179 0
M  V30 9531 H 913.062 6.4359 -2.16722 0
M  V30 9532 H 911.008 6.55959 0.0733863 0
M  V30 9533 H 910.925 7.42422 -1.42638 0
M  V30 9534 H 912.193 7.78943 -0.294681 0
M  V30 9535 N 916.422 0.810101 1.35185 0
M  V30 9536 C 917.671 0.388589 1.97921 0
M  V30 9537 C 917.984 -1.05079 1.64978 0
M  V30 9538 O 919.19 -1.57559 2.21105 0
M  V30 9539 C 917.646 0.643864 3.54094 0
M  V30 9540 C 917.254 2.09602 3.95943 0
M  V30 9541 C 918.998 0.287883 4.23523 0
M  V30 9542 C 916.905 2.29686 5.44976 0
M  V30 9543 H 915.835 0.141562 0.740592 0
M  V30 9544 H 918.486 0.994653 1.54204 0
M  V30 9545 H 916.868 -0.0321978 3.95987 0
M  V30 9546 H 918.042 2.81018 3.65192 0
M  V30 9547 H 916.357 2.4122 3.39414 0
M  V30 9548 H 918.954 0.415946 5.3308 0
M  V30 9549 H 919.297 -0.766305 4.09186 0
M  V30 9550 H 919.83 0.918004 3.87063 0
M  V30 9551 H 916.569 3.33563 5.64284 0
M  V30 9552 H 916.089 1.62798 5.77284 0
M  V30 9553 H 917.768 2.11411 6.11485 0
M  V30 9554 N 917.9 -1.47166 0.563914 0
M  V30 9555 C 918.81 -2.33885 -0.182977 0
M  V30 9556 C 919.826 -1.48605 -0.905132 0
M  V30 9557 O 921.002 -1.81518 -0.872527 0
M  V30 9558 C 918.067 -3.25433 -1.19558 0
M  V30 9559 C 917.128 -4.26607 -0.480129 0
M  V30 9560 C 916.361 -5.1378 -1.44449 0
M  V30 9561 O 916.584 -5.03531 -2.67979 0
M  V30 9562 O 915.518 -5.94109 -0.965321 0
M  V30 9563 H 919.344 -2.99065 0.528544 0
M  V30 9564 H 916.929 -1.45834 0.324468 0
M  V30 9565 H 918.811 -3.81964 -1.77993 0
M  V30 9566 H 917.486 -2.62873 -1.8889 0
M  V30 9567 H 916.393 -3.73817 0.145583 0
M  V30 9568 H 917.726 -4.919 0.171868 0
M  V30 9569 N 919.378 -0.300708 -1.54705 0
M  V30 9570 C 920.288 0.584996 -2.27189 0
M  V30 9571 C 921.304 1.14866 -1.30697 0
M  V30 9572 O 922.48 1.17351 -1.63679 0
M  V30 9573 C 919.545 1.74076 -2.99831 0
M  V30 9574 C 918.606 1.2112 -4.1186 0
M  V30 9575 C 917.839 2.31188 -4.81028 0
M  V30 9576 O 918.062 3.5108 -4.49554 0
M  V30 9577 O 916.996 1.97897 -5.68437 0
M  V30 9578 H 920.822 -0.00298177 -3.037 0
M  V30 9579 H 918.407 -0.0671802 -1.49249 0
M  V30 9580 H 920.289 2.41413 -3.45395 0
M  V30 9581 H 918.964 2.31535 -2.26215 0
M  V30 9582 H 917.871 0.50357 -3.70695 0
M  V30 9583 H 919.204 0.682046 -4.87452 0
M  V30 9584 N 920.856 1.57574 -0.0284266 0
M  V30 9585 C 922.102 1.92056 0.651327 0
M  V30 9586 C 922.435 0.905092 1.71819 0
M  V30 9587 O 921.71 -0.0722703 1.94366 0
M  V30 9588 C 921.993 3.37021 1.26841 0
M  V30 9589 C 921.846 4.49304 0.211157 0
M  V30 9590 C 923.165 3.81936 2.18662 0
M  V30 9591 H 920.284 0.698428 0.235304 0
M  V30 9592 H 922.926 1.89807 -0.0855435 0
M  V30 9593 H 921.076 3.39068 1.89644 0
M  V30 9594 H 922.748 4.5939 -0.419379 0
M  V30 9595 H 920.991 4.31317 -0.463445 0
M  V30 9596 H 921.662 5.47764 0.682518 0
M  V30 9597 H 924.138 3.8162 1.65847 0
M  V30 9598 H 923.014 4.84064 2.58792 0
M  V30 9599 H 923.275 3.174 3.07749 0
M  V30 9600 N 922.334 -0.244713 1.55689 0
M  V30 9601 C 923.583 -0.970373 1.76824 0
M  V30 9602 C 923.896 -1.86402 0.592764 0
M  V30 9603 O 925.102 -2.62659 0.687186 0
M  V30 9604 C 923.558 -1.77547 3.13058 0
M  V30 9605 C 923.166 -0.929104 4.3826 0
M  V30 9606 C 924.91 -2.49373 3.43531 0
M  V30 9607 C 922.817 -1.73021 5.65524 0
M  V30 9608 H 921.747 -0.366048 0.659185 0
M  V30 9609 H 924.398 -0.224964 1.82116 0
M  V30 9610 H 922.78 -2.56291 3.01879 0
M  V30 9611 H 923.954 -0.183836 4.60433 0
M  V30 9612 H 922.269 -0.324071 4.15137 0
M  V30 9613 H 924.866 -3.09767 4.35831 0
M  V30 9614 H 925.209 -3.21099 2.64955 0
M  V30 9615 H 925.742 -1.77637 3.55935 0
M  V30 9616 H 922.481 -1.05666 6.46927 0
M  V30 9617 H 922.001 -2.45071 5.47449 0
M  V30 9618 H 923.68 -2.2968 6.0486 0
M  V30 9619 N 923.813 -1.49104 -0.510467 0
M  V30 9620 C 925.061 -1.578 -1.26268 0
M  V30 9621 C 925.382 -0.262349 -1.93227 0
M  V30 9622 O 924.652 0.717624 -1.82283 0
M  V30 9623 H 923.232 -0.581387 -0.46904 0
M  V30 9624 H 925.894 -1.85678 -0.592423 0
M  V30 9625 H 924.99 -2.36919 -2.03165 0
M  V30 9626 N 925.291 0.760815 -1.38019 0
M  V30 9627 C 926.254 1.85604 -1.34476 0
M  V30 9628 C 927.254 1.58897 -0.24666 0
M  V30 9629 O 928.444 1.66776 -0.50314 0
M  V30 9630 C 925.576 3.22945 -1.09176 0
M  V30 9631 H 926.769 1.90155 -2.31908 0
M  V30 9632 H 924.322 0.961746 -1.23208 0
M  V30 9633 H 925.057 3.24066 -0.123216 0
M  V30 9634 H 924.842 3.43723 -1.88672 0
M  V30 9635 H 926.332 4.03022 -1.09375 0
M  V30 9636 N 926.769 1.22769 0.988202 0
M  V30 9637 C 928.017 1.05301 1.725 0
M  V30 9638 C 928.338 -0.412103 1.90596 0
M  V30 9639 O 927.608 -1.29606 1.46898 0
M  V30 9640 H 926.188 0.386658 0.639144 0
M  V30 9641 H 928.85 1.54359 1.18993 0
M  V30 9642 H 927.946 1.53465 2.71763 0
M  V30 9643 N 928.247 -1.18576 1.03814 0
M  V30 9644 C 929.157 -2.25778 0.637311 0
M  V30 9645 C 930.173 -1.7074 -0.335248 0
M  V30 9646 O 931.349 -2.00494 -0.19081 0
M  V30 9647 C 928.414 -3.467 0.00386953 0
M  V30 9648 C 927.475 -4.16881 1.02511 0
M  V30 9649 C 926.708 -5.32031 0.421802 0
M  V30 9650 O 926.931 -5.65142 -0.772699 0
M  V30 9651 O 925.865 -5.90826 1.14925 0
M  V30 9652 H 929.691 -2.62323 1.53037 0
M  V30 9653 H 927.276 -1.25609 0.80887 0
M  V30 9654 H 929.158 -4.19953 -0.348873 0
M  V30 9655 H 927.833 -3.11983 -0.863047 0
M  V30 9656 H 926.74 -3.45707 1.4296 0
M  V30 9657 H 928.073 -4.55592 1.86271 0
M  V30 9658 N 929.725 -0.817259 -1.34754 0
M  V30 9659 C 930.972 -0.402648 -1.98457 0
M  V30 9660 C 931.3 1.03287 -1.64809 0
M  V30 9661 O 930.555 1.73316 -0.908851 0
M  V30 9662 C 930.854 -0.5453 -3.53216 0
M  V30 9663 C 930.52 -1.9457 -4.06759 0
M  V30 9664 C 929.182 -2.32881 -4.21094 0
M  V30 9665 C 931.534 -2.86141 -4.35629 0
M  V30 9666 C 928.862 -3.62108 -4.61622 0
M  V30 9667 C 931.214 -4.14826 -4.776 0
M  V30 9668 C 929.878 -4.53121 -4.9014 0
M  V30 9669 H 929.148 -0.147339 -0.726204 0
M  V30 9670 H 931.795 -1.04011 -1.60791 0
M  V30 9671 H 930.1 0.175576 -3.91406 0
M  V30 9672 H 931.797 -0.205112 -4.00475 0
M  V30 9673 H 928.387 -1.6381 -3.96061 0
M  V30 9674 H 932.571 -2.57788 -4.24098 0
M  V30 9675 H 927.827 -3.91613 -4.69521 0
M  V30 9676 H 932.001 -4.85874 -4.98899 0
M  V30 9677 H 929.628 -5.53307 -5.21302 0
M  V30 9678 N 931.203 1.46865 -0.571711 0
M  V30 9679 C 932.451 2.0203 -0.0530022 0
M  V30 9680 C 932.772 1.44687 1.30731 0
M  V30 9681 O 932.042 0.627429 1.85581 0
M  V30 9682 H 930.622 0.746815 -0.0166035 0
M  V30 9683 H 933.284 1.80099 -0.745003 0
M  V30 9684 H 932.38 3.12091 0.0242538 0
M  V30 9685 N 932.681 0.308908 1.54543 0
M  V30 9686 C 933.591 -0.572939 2.27496 0
M  V30 9687 C 934.607 -1.14171 1.31305 0
M  V30 9688 O 935.783 -1.16481 1.64299 0
M  V30 9689 C 932.848 -1.72483 3.0075 0
M  V30 9690 C 931.909 -1.18934 4.12496 0
M  V30 9691 C 931.142 -2.28634 4.82247 0
M  V30 9692 O 931.365 -3.48691 4.5141 0
M  V30 9693 O 930.299 -1.94879 5.69478 0
M  V30 9694 H 934.125 0.0190877 3.03694 0
M  V30 9695 H 931.71 0.0750943 1.49211 0
M  V30 9696 H 933.592 -2.39578 3.46671 0
M  V30 9697 H 932.267 -2.30332 2.2744 0
M  V30 9698 H 931.174 -0.483904 3.70957 0
M  V30 9699 H 932.507 -0.656185 4.87806 0
M  V30 9700 N 934.159 -1.57557 0.0367827 0
M  V30 9701 C 935.405 -1.92399 -0.641133 0
M  V30 9702 C 935.738 -0.914191 -1.71336 0
M  V30 9703 O 935.013 0.0619616 -1.94401 0
M  V30 9704 C 935.296 -3.37689 -1.25052 0
M  V30 9705 C 935.149 -4.4941 -0.187326 0
M  V30 9706 C 936.468 -3.8309 -2.16634 0
M  V30 9707 H 933.587 -0.699666 -0.231597 0
M  V30 9708 H 936.229 -1.89759 0.0956083 0
M  V30 9709 H 934.379 -3.40069 -1.87843 0
M  V30 9710 H 936.051 -4.59161 0.443736 0
M  V30 9711 H 934.294 -4.31065 0.486313 0
M  V30 9712 H 934.965 -5.48119 -0.653459 0
M  V30 9713 H 937.441 -3.82494 -1.63821 0
M  V30 9714 H 936.317 -4.85429 -2.56222 0
M  V30 9715 H 936.578 -3.19028 -3.06062 0
M  V30 9716 N 935.637 0.236453 -1.55816 0
M  V30 9717 C 936.867 0.978873 -1.81939 0
M  V30 9718 C 937.275 1.79041 -0.611647 0
M  V30 9719 O 936.618 1.78616 0.429172 0
M  V30 9720 C 936.68 1.9569 -3.01572 0
M  V30 9721 C 936.344 1.33131 -4.37178 0
M  V30 9722 C 937.341 0.728585 -5.1477 0
M  V30 9723 C 935.026 1.34755 -4.83887 0
M  V30 9724 C 937.02 0.150427 -6.37222 0
M  V30 9725 C 934.707 0.765539 -6.06286 0
M  V30 9726 C 935.705 0.168017 -6.82793 0
M  V30 9727 O 935.393 -0.404976 -8.02879 0
M  V30 9728 H 935.125 0.293186 -0.609113 0
M  V30 9729 H 937.679 0.261384 -2.0373 0
M  V30 9730 H 935.909 2.71298 -2.75562 0
M  V30 9731 H 937.598 2.56362 -3.14695 0
M  V30 9732 H 938.364 0.708477 -4.79797 0
M  V30 9733 H 934.243 1.80202 -4.24321 0
M  V30 9734 H 937.787 -0.316586 -6.96881 0
M  V30 9735 H 933.684 0.78301 -6.40733 0
M  V30 9736 H 934.452 -0.29785 -8.17958 0
M  V30 9737 N 937.115 1.49373 0.502552 0
M  V30 9738 C 938.062 1.65927 1.60427 0
M  V30 9739 C 939.032 0.500768 1.58371 0
M  V30 9740 O 940.217 0.727606 1.76382 0
M  V30 9741 C 937.357 1.73043 2.9858 0
M  V30 9742 C 936.47 3.00187 3.10663 0
M  V30 9743 C 935.605 2.98292 4.3954 0
M  V30 9744 C 934.644 4.20022 4.4525 0
M  V30 9745 N 933.781 4.16046 5.65553 0
M  V30 9746 H 938.621 2.59998 1.45619 0
M  V30 9747 H 936.158 1.28912 0.708519 0
M  V30 9748 H 938.116 1.7515 3.78653 0
M  V30 9749 H 936.746 0.824397 3.12095 0
M  V30 9750 H 935.798 3.07699 2.23663 0
M  V30 9751 H 937.11 3.9018 3.10742 0
M  V30 9752 H 936.264 2.98953 5.27932 0
M  V30 9753 H 935.003 2.06075 4.42023 0
M  V30 9754 H 934.008 4.19607 3.5526 0
M  V30 9755 H 935.233 5.13431 4.44484 0
M  V30 9756 H 933.179 3.26665 5.68881 0
M  V30 9757 H 933.096 4.99773 5.67242 0
M  V30 9758 H 934.364 4.20807 6.56156 0
M  V30 9759 N 938.594 -0.753485 1.38421 0
M  V30 9760 C 939.842 -1.50962 1.34368 0
M  V30 9761 C 940.163 -1.94889 -0.0656895 0
M  V30 9762 O 939.433 -1.67652 -1.01339 0
M  V30 9763 H 938.013 -0.559967 0.494415 0
M  V30 9764 H 940.675 -0.895665 1.73101 0
M  V30 9765 H 939.771 -2.40048 1.99458 0
M  V30 9766 N 940.072 -1.23292 -0.981677 0
M  V30 9767 C 941.488 -0.995295 -1.24764 0
M  V30 9768 C 941.688 0.304379 -1.99188 0
M  V30 9769 O 940.744 1.02414 -2.30798 0
M  V30 9770 C 942.057 -2.20135 -2.04844 0
M  V30 9771 C 943.605 -2.24612 -2.17988 0
M  V30 9772 C 944.08 -3.448 -3.01458 0
M  V30 9773 N 945.571 -3.45031 -3.09044 0
M  V30 9774 C 946.306 -4.34683 -3.7395 0
M  V30 9775 N 945.802 -5.34569 -4.4069 0
M  V30 9776 N 947.595 -4.22429 -3.70823 0
M  V30 9777 H 939.746 -2.06834 -0.483052 0
M  V30 9778 H 942.009 -0.906929 -0.276014 0
M  V30 9779 H 941.715 -3.14446 -1.57532 0
M  V30 9780 H 941.589 -2.21115 -3.05594 0
M  V30 9781 H 943.976 -1.30841 -2.64508 0
M  V30 9782 H 944.057 -2.27664 -1.16631 0
M  V30 9783 H 943.701 -4.38877 -2.55635 0
M  V30 9784 H 943.631 -3.38988 -4.02982 0
M  V30 9785 H 946.122 -2.72759 -2.61555 0
M  V30 9786 H 946.435 -5.99236 -4.87991 0
M  V30 9787 H 944.78 -5.3847 -4.39403 0
M  V30 9788 H 947.971 -3.43639 -3.17851 0
M  V30 9789 H 948.144 -4.92501 -4.21126 0
M  V30 9790 N 941.55 1.18024 -1.04442 0
M  V30 9791 C 942.48 2.23988 -0.659683 0
M  V30 9792 C 943.461 1.6669 0.338904 0
M  V30 9793 O 944.646 1.92971 0.21817 0
M  V30 9794 C 941.776 3.4729 -0.0257672 0
M  V30 9795 C 940.73 4.17362 -0.948299 0
M  V30 9796 C 940.056 5.34401 -0.17866 0
M  V30 9797 C 941.356 4.70435 -2.26909 0
M  V30 9798 H 943.05 2.56425 -1.54553 0
M  V30 9799 H 940.596 1.23256 -0.744575 0
M  V30 9800 H 942.549 4.20627 0.255131 0
M  V30 9801 H 941.273 3.14098 0.894981 0
M  V30 9802 H 939.932 3.45928 -1.21364 0
M  V30 9803 H 939.58 4.97458 0.744614 0
M  V30 9804 H 939.28 5.8222 -0.793294 0
M  V30 9805 H 940.804 6.10526 0.0951315 0
M  V30 9806 H 942.218 5.35447 -2.04864 0
M  V30 9807 H 940.615 5.28803 -2.83703 0
M  V30 9808 H 941.685 3.87653 -2.91296 0
M  V30 9809 N 943.028 0.824394 1.34319 0
M  V30 9810 C 943.975 0.245282 2.29493 0
M  V30 9811 C 944.945 -0.630762 1.53657 0
M  V30 9812 O 946.13 -0.572094 1.82021 0
M  V30 9813 C 943.27 -0.585631 3.40095 0
M  V30 9814 C 942.383 0.312821 4.30866 0
M  V30 9815 C 941.518 -0.527801 5.28571 0
M  V30 9816 C 940.557 0.369946 6.10981 0
M  V30 9817 N 939.694 -0.43169 7.00772 0
M  V30 9818 H 944.534 1.06225 2.78425 0
M  V30 9819 H 942.071 0.53533 1.37013 0
M  V30 9820 H 944.029 -1.08271 4.02906 0
M  V30 9821 H 942.659 -1.3677 2.92393 0
M  V30 9822 H 941.711 0.928129 3.68904 0
M  V30 9823 H 943.023 1.00306 4.8861 0
M  V30 9824 H 942.177 -1.0893 5.96841 0
M  V30 9825 H 940.916 -1.25154 4.71368 0
M  V30 9826 H 939.921 0.943577 5.41643 0
M  V30 9827 H 941.146 1.09182 6.70266 0
M  V30 9828 H 939.092 -1.13908 6.46035 0
M  V30 9829 H 939.009 0.200133 7.55735 0
M  V30 9830 H 940.277 -0.975894 7.73367 0
M  V30 9831 N 944.506 -1.46559 0.579492 0
M  V30 9832 C 945.436 -2.33059 -0.143437 0
M  V30 9833 C 946.417 -1.4515 -0.886868 0
M  V30 9834 O 947.602 -1.73973 -0.862961 0
M  V30 9835 C 944.732 -3.27364 -1.15973 0
M  V30 9836 C 943.686 -4.24689 -0.531348 0
M  V30 9837 C 943.012 -5.08479 -1.65388 0
M  V30 9838 C 944.312 -5.1961 0.529391 0
M  V30 9839 H 946.006 -2.93753 0.578762 0
M  V30 9840 H 943.552 -1.41256 0.279775 0
M  V30 9841 H 945.505 -3.86732 -1.67382 0
M  V30 9842 H 944.229 -2.64771 -1.91217 0
M  V30 9843 H 942.888 -3.6658 -0.0383749 0
M  V30 9844 H 942.536 -4.42273 -2.3959 0
M  V30 9845 H 942.236 -5.74387 -1.23909 0
M  V30 9846 H 943.76 -5.70709 -2.17079 0
M  V30 9847 H 945.174 -5.73212 0.100506 0
M  V30 9848 H 943.571 -5.93843 0.86432 0
M  V30 9849 H 944.641 -4.63737 1.4169 0
M  V30 9850 N 945.984 -0.3171 -1.54377 0
M  V30 9851 C 947.395 0.172287 -1.85903 0
M  V30 9852 C 947.746 1.52141 -1.23885 0
M  V30 9853 O 946.871 2.0949 -0.542476 0
M  V30 9854 C 947.466 0.319392 -3.37291 0
M  V30 9855 C 946.025 0.752998 -3.68791 0
M  V30 9856 C 945.172 -0.129143 -2.76999 0
M  V30 9857 H 948.123 -0.537597 -1.49317 0
M  V30 9858 H 948.144 1.15137 -3.62662 0
M  V30 9859 H 947.656 -0.662671 -3.82401 0
M  V30 9860 H 945.757 1.74504 -3.2921 0
M  V30 9861 H 945.87 0.561228 -4.75801 0
M  V30 9862 H 944.234 0.394242 -2.5163 0
M  V30 9863 H 945.017 -1.10785 -3.24933 0
M  V30 9864 N 947.462 1.57535 -0.0451378 0
M  V30 9865 C 948.71 1.92071 0.628743 0
M  V30 9866 C 949.031 0.923635 1.71738 0
M  V30 9867 O 948.301 -0.0324376 1.95873 0
M  V30 9868 H 946.881 0.708995 0.235233 0
M  V30 9869 H 949.543 1.9466 -0.0967177 0
M  V30 9870 H 948.639 2.9314 1.07123 0
M  V30 9871 N 948.94 -0.228186 1.55939 0
M  V30 9872 C 949.887 -1.28274 1.91871 0
M  V30 9873 C 950.857 -1.46906 0.775103 0
M  V30 9874 O 952.042 -1.60583 1.03042 0
M  V30 9875 C 949.182 -2.62945 2.23504 0
M  V30 9876 C 948.295 -2.52166 3.50766 0
M  V30 9877 C 947.43 -3.79316 3.71878 0
M  V30 9878 C 946.469 -3.63231 4.92676 0
M  V30 9879 N 945.606 -4.82315 5.10212 0
M  V30 9880 H 950.446 -0.96931 2.81795 0
M  V30 9881 H 947.983 -0.467331 1.39479 0
M  V30 9882 H 949.941 -3.41359 2.39854 0
M  V30 9883 H 948.571 -2.92397 1.36762 0
M  V30 9884 H 947.623 -1.65221 3.42646 0
M  V30 9885 H 948.935 -2.36199 4.39331 0
M  V30 9886 H 948.089 -4.66173 3.88288 0
M  V30 9887 H 946.828 -3.982 2.81581 0
M  V30 9888 H 945.833 -2.74757 4.76223 0
M  V30 9889 H 947.058 -3.45823 5.84451 0
M  V30 9890 H 945.004 -5.01526 4.22856 0
M  V30 9891 H 944.921 -4.6905 5.92898 0
M  V30 9892 H 946.189 -5.70618 5.31051 0
M  V30 9893 N 950.418 -1.49637 -0.494624 0
M  V30 9894 C 951.834 -1.36541 -0.826361 0
M  V30 9895 C 952.034 -0.403386 -1.97421 0
M  V30 9896 O 951.09 0.162614 -2.51976 0
M  V30 9897 C 952.403 -2.77401 -1.16057 0
M  V30 9898 C 953.951 -2.86148 -1.26841 0
M  V30 9899 C 954.426 -4.27789 -1.63587 0
M  V30 9900 N 955.917 -4.3063 -1.70624 0
M  V30 9901 C 956.652 -5.37198 -2.00514 0
M  V30 9902 N 956.148 -6.54004 -2.28584 0
M  V30 9903 N 957.941 -5.2462 -2.01818 0
M  V30 9904 H 950.092 -2.10776 0.26219 0
M  V30 9905 H 952.355 -0.946419 0.0547235 0
M  V30 9906 H 952.061 -3.49526 -0.390434 0
M  V30 9907 H 951.935 -3.1317 -2.10249 0
M  V30 9908 H 954.322 -2.14256 -2.02925 0
M  V30 9909 H 954.403 -2.53953 -0.30684 0
M  V30 9910 H 954.047 -5.00209 -0.880507 0
M  V30 9911 H 953.977 -4.57453 -2.60854 0
M  V30 9912 H 956.468 -3.46393 -1.51065 0
M  V30 9913 H 956.781 -7.31041 -2.50598 0
M  V30 9914 H 955.126 -6.57219 -2.26027 0
M  V30 9915 H 958.317 -4.32371 -1.79369 0
M  V30 9916 H 958.49 -6.07765 -2.24778 0
M  V30 9917 N 951.896 0.746133 -1.38819 0
M  V30 9918 C 952.806 1.89063 -1.38897 0
M  V30 9919 C 953.822 1.71648 -0.28513 0
M  V30 9920 O 954.998 1.94443 -0.524783 0
M  V30 9921 C 952.063 3.24523 -1.22007 0
M  V30 9922 C 951.124 3.54411 -2.42263 0
M  V30 9923 C 950.357 4.83408 -2.26169 0
M  V30 9924 O 950.58 5.56325 -1.25931 0
M  V30 9925 O 949.514 5.12943 -3.14918 0
M  V30 9926 H 953.34 1.91951 -2.35347 0
M  V30 9927 H 950.925 0.892433 -1.19816 0
M  V30 9928 H 952.807 4.05496 -1.14677 0
M  V30 9929 H 951.482 3.2243 -0.286455 0
M  V30 9930 H 950.389 2.73569 -2.55168 0
M  V30 9931 H 951.722 3.61273 -3.3428 0
M  V30 9932 N 953.375 1.23811 0.975125 0
M  V30 9933 C 954.624 1.06741 1.71141 0
M  V30 9934 C 954.937 -0.394986 1.9157 0
M  V30 9935 O 956.143 -0.685723 2.62698 0
M  V30 9936 C 954.599 1.86168 3.08009 0
M  V30 9937 C 954.207 3.36771 2.95448 0
M  V30 9938 C 955.951 1.77604 3.85561 0
M  V30 9939 C 953.858 4.0857 4.2758 0
M  V30 9940 H 952.788 0.395819 0.64175 0
M  V30 9941 H 955.439 1.47825 1.0872 0
M  V30 9942 H 953.821 1.37893 3.71216 0
M  V30 9943 H 954.995 3.92571 2.41298 0
M  V30 9944 H 953.31 3.46205 2.31368 0
M  V30 9945 H 955.907 2.28556 4.83391 0
M  V30 9946 H 956.25 0.739837 4.09673 0
M  V30 9947 H 956.783 2.23519 3.29065 0
M  V30 9948 H 953.522 5.12518 4.08663 0
M  V30 9949 H 953.042 3.57556 4.81574 0
M  V30 9950 H 954.721 4.15157 4.9624 0
M  V30 9951 N 954.853 -1.17469 1.05066 0
M  V30 9952 C 956.083 -1.91343 0.779202 0
M  V30 9953 C 956.491 -1.76986 -0.668764 0
M  V30 9954 O 955.834 -1.1037 -1.46848 0
M  V30 9955 C 955.896 -3.42938 1.0786 0
M  V30 9956 C 955.56 -3.81076 2.52249 0
M  V30 9957 C 956.557 -3.84027 3.50456 0
M  V30 9958 C 954.242 -4.12076 2.87225 0
M  V30 9959 C 956.236 -4.17445 4.81683 0
M  V30 9960 C 953.923 -4.45163 4.18656 0
M  V30 9961 C 954.921 -4.47825 5.15696 0
M  V30 9962 O 954.609 -4.80133 6.44769 0
M  V30 9963 H 954.341 -0.613974 0.282863 0
M  V30 9964 H 956.895 -1.49907 1.40417 0
M  V30 9965 H 955.125 -3.84662 0.39653 0
M  V30 9966 H 956.814 -3.98071 0.793357 0
M  V30 9967 H 957.58 -3.60203 3.24775 0
M  V30 9968 H 953.459 -4.09176 2.12358 0
M  V30 9969 H 957.003 -4.19437 5.57421 0
M  V30 9970 H 952.9 -4.68449 4.44101 0
M  V30 9971 H 953.668 -4.97995 6.49571 0
M  V30 9972 N 956.331 -0.831506 -1.3388 0
M  V30 9973 C 957.577 -0.424302 -1.98312 0
M  V30 9974 C 957.91 1.01211 -1.65741 0
M  V30 9975 O 957.185 1.70636 -0.933464 0
M  V30 9976 C 957.468 -0.636815 -3.54424 0
M  V30 9977 C 957.321 -2.11997 -3.96708 0
M  V30 9978 C 958.64 -0.0782411 -4.4003 0
M  V30 9979 H 955.759 -0.155637 -0.720379 0
M  V30 9980 H 958.401 -1.04566 -1.58638 0
M  V30 9981 H 956.551 -0.107907 -3.8835 0
M  V30 9982 H 958.223 -2.71317 -3.73075 0
M  V30 9983 H 956.466 -2.60723 -3.46707 0
M  V30 9984 H 957.137 -2.21944 -5.05416 0
M  V30 9985 H 959.613 -0.530243 -4.12708 0
M  V30 9986 H 958.489 -0.256676 -5.483 0
M  V30 9987 H 958.75 1.01745 -4.30233 0
M  V30 9988 N 957.809 1.4625 -0.587256 0
M  V30 9989 C 958.772 2.28812 0.133238 0
M  V30 9990 C 959.772 1.38645 0.814513 0
M  V30 9991 O 960.962 1.60975 0.665774 0
M  V30 9992 C 958.094 3.19147 1.19824 0
M  V30 9993 H 959.287 2.93991 -0.592386 0
M  V30 9994 H 956.84 1.52435 -0.345416 0
M  V30 9995 H 957.575 2.58725 1.95529 0
M  V30 9996 H 957.36 3.85541 0.71418 0
M  V30 9997 H 958.85 3.81278 1.70344 0
M  V30 9998 N 959.287 0.325282 1.54207 0
M  V30 9999 C 960.536 -0.27768 1.99779 0
M  V30 10000 C 960.849 -1.5311 1.21723 0
M  V30 10001 O 962.055 -2.21017 1.57682 0
M  V30 10002 C 960.511 -0.545329 3.55745 0
M  V30 10003 C 960.119 0.691143 4.42637 0
M  V30 10004 C 961.863 -1.10815 4.09781 0
M  V30 10005 C 959.77 0.395302 5.90077 0
M  V30 10006 H 958.7 -0.107536 0.746292 0
M  V30 10007 H 961.351 0.437773 1.78202 0
M  V30 10008 H 959.733 -1.32101 3.73317 0
M  V30 10009 H 960.907 1.46653 4.3684 0
M  V30 10010 H 959.222 1.1743 3.99499 0
M  V30 10011 H 961.819 -1.34414 5.1753 0
M  V30 10012 H 962.162 -2.05806 3.6187 0
M  V30 10013 H 962.695 -0.393608 3.95848 0
M  V30 10014 H 959.434 1.31443 6.42186 0
M  V30 10015 H 958.954 -0.34235 5.98822 0
M  V30 10016 H 960.633 0.00576877 6.47 0
M  V30 10017 N 960.765 -1.57509 0.0534917 0
M  V30 10018 C 961.712 -2.11667 -0.920101 0
M  V30 10019 C 962.682 -1.0246 -1.30733 0
M  V30 10020 O 963.867 -1.30021 -1.39639 0
M  V30 10021 C 961.007 -2.66803 -2.18883 0
M  V30 10022 C 960.12 -3.90104 -1.85588 0
M  V30 10023 C 959.255 -4.33547 -3.06937 0
M  V30 10024 C 958.294 -5.49542 -2.69573 0
M  V30 10025 N 957.431 -5.88029 -3.83623 0
M  V30 10026 H 962.271 -2.94562 -0.451371 0
M  V30 10027 H 959.808 -1.45576 -0.211168 0
M  V30 10028 H 961.766 -2.96871 -2.93127 0
M  V30 10029 H 960.396 -1.86702 -2.63329 0
M  V30 10030 H 959.448 -3.66613 -1.01484 0
M  V30 10031 H 960.76 -4.74404 -1.54087 0
M  V30 10032 H 959.914 -4.6518 -3.89477 0
M  V30 10033 H 958.653 -3.48064 -3.41618 0
M  V30 10034 H 957.658 -5.17579 -1.8545 0
M  V30 10035 H 958.883 -6.36743 -2.36082 0
M  V30 10036 H 956.829 -5.05498 -4.181 0
M  V30 10037 H 956.746 -6.67025 -3.55828 0
M  V30 10038 H 958.014 -6.24277 -4.66796 0
M  V30 10039 N 962.243 0.219913 -1.56058 0
M  V30 10040 C 963.471 0.960915 -1.83232 0
M  V30 10041 C 963.886 1.77878 -0.632828 0
M  V30 10042 O 963.243 1.78093 0.398624 0
M  V30 10043 C 963.294 1.87716 -3.08942 0
M  V30 10044 O 963.015 1.09235 -4.24263 0
M  V30 10045 C 964.516 2.73192 -3.49115 0
M  V30 10046 H 961.736 0.281546 -0.609075 0
M  V30 10047 H 964.28 0.234648 -2.03149 0
M  V30 10048 H 962.435 2.55736 -2.90995 0
M  V30 10049 H 962.849 1.71446 -4.95688 0
M  V30 10050 H 964.323 3.33181 -4.40107 0
M  V30 10051 H 964.8 3.45668 -2.70943 0
M  V30 10052 H 965.406 2.10583 -3.69506 0
M  V30 10053 N 963.721 1.49897 0.486681 0
M  V30 10054 C 964.651 1.7054 1.59494 0
M  V30 10055 C 965.632 0.554184 1.60819 0
M  V30 10056 O 966.817 0.791617 1.77333 0
M  V30 10057 C 963.947 1.78517 2.97908 0
M  V30 10058 C 962.901 2.93571 3.11449 0
M  V30 10059 C 962.227 2.86674 4.51356 0
M  V30 10060 C 963.527 4.34308 2.90127 0
M  V30 10061 H 965.221 2.63329 1.42472 0
M  V30 10062 H 962.767 1.2672 0.683969 0
M  V30 10063 H 964.72 1.91544 3.75352 0
M  V30 10064 H 963.444 0.823381 3.16051 0
M  V30 10065 H 962.103 2.80169 2.36433 0
M  V30 10066 H 961.751 1.88373 4.66395 0
M  V30 10067 H 961.451 3.63903 4.61355 0
M  V30 10068 H 962.975 3.01728 5.30841 0
M  V30 10069 H 964.389 4.48317 3.57331 0
M  V30 10070 H 962.786 5.12869 3.11585 0
M  V30 10071 H 963.856 4.47759 1.86119 0
M  V30 10072 N 965.199 -0.738761 1.39212 0
M  V30 10073 C 966.146 -1.85273 1.37631 0
M  V30 10074 C 967.116 -1.64407 0.236572 0
M  V30 10075 O 968.301 -1.85866 0.431104 0
M  V30 10076 C 965.441 -3.22745 1.22188 0
M  V30 10077 C 964.554 -3.55342 2.45674 0
M  V30 10078 C 963.689 -4.82195 2.22847 0
M  V30 10079 C 962.728 -5.07625 3.42029 0
M  V30 10080 N 961.865 -6.25679 3.18543 0
M  V30 10081 H 966.705 -1.85959 2.32859 0
M  V30 10082 H 964.242 -0.908716 1.15675 0
M  V30 10083 H 966.2 -4.02095 1.11245 0
M  V30 10084 H 964.83 -3.21347 0.30592 0
M  V30 10085 H 963.882 -2.70722 2.67233 0
M  V30 10086 H 965.194 -3.70054 3.34457 0
M  V30 10087 H 964.348 -5.69518 2.09126 0
M  V30 10088 H 963.087 -4.6965 1.31454 0
M  V30 10089 H 962.092 -4.18765 3.56253 0
M  V30 10090 H 963.317 -5.22058 4.34319 0
M  V30 10091 H 961.263 -6.14429 2.2981 0
M  V30 10092 H 961.18 -6.40961 4.0088 0
M  V30 10093 H 962.448 -7.15851 3.08508 0
M  V30 10094 N 966.677 -1.24326 -0.968545 0
M  V30 10095 C 967.64 -1.03591 -2.04454 0
M  V30 10096 C 968.64 0.0064809 -1.60799 0
M  V30 10097 O 969.83 -0.234404 -1.72616 0
M  V30 10098 C 966.962 -0.56992 -3.36102 0
M  V30 10099 H 968.155 -1.99092 -2.24282 0
M  V30 10100 H 965.708 -1.06537 -1.14366 0
M  V30 10101 H 966.443 0.388325 -3.21967 0
M  V30 10102 H 966.228 -1.32227 -3.69132 0
M  V30 10103 H 967.718 -0.445854 -4.15213 0
M  V30 10104 N 968.156 1.1691 -1.05688 0
M  V30 10105 C 969.404 1.86922 -0.768409 0
M  V30 10106 C 969.725 1.81735 0.706921 0
M  V30 10107 O 968.995 1.24671 1.51109 0
M  V30 10108 H 967.575 0.69203 -0.281253 0
M  V30 10109 H 970.237 1.41803 -1.33708 0
M  V30 10110 H 969.333 2.92528 -1.08783 0
M  V30 10111 N 969.634 0.838594 1.33437 0
M  V30 10112 C 970.864 0.446995 2.01707 0
M  V30 10113 C 971.272 -0.956335 1.63251 0
M  V30 10114 O 970.615 -1.63289 0.841566 0
M  V30 10115 C 970.677 0.487707 3.56176 0
M  V30 10116 C 970.341 1.8471 4.18009 0
M  V30 10117 C 971.338 2.81028 4.374 0
M  V30 10118 C 969.023 2.13987 4.54439 0
M  V30 10119 C 971.017 4.04785 4.92369 0
M  V30 10120 C 968.704 3.38 5.09116 0
M  V30 10121 C 969.702 4.33216 5.28027 0
M  V30 10122 O 969.39 5.55036 5.81541 0
M  V30 10123 H 969.122 0.175799 0.652741 0
M  V30 10124 H 971.676 1.13265 1.71348 0
M  V30 10125 H 969.906 -0.254719 3.8586 0
M  V30 10126 H 971.595 0.113971 4.0574 0
M  V30 10127 H 972.361 2.5971 4.09604 0
M  V30 10128 H 968.24 1.40668 4.39014 0
M  V30 10129 H 971.784 4.79114 5.07046 0
M  V30 10130 H 967.681 3.59175 5.36343 0
M  V30 10131 H 968.449 5.56772 5.99956 0
M  V30 10132 N 971.112 -1.45937 0.595003 0
M  V30 10133 C 972.337 -2.07207 0.0894416 0
M  V30 10134 C 972.762 -1.43884 -1.21157 0
M  V30 10135 O 972.12 -0.526998 -1.73472 0
M  V30 10136 C 972.168 -3.60565 -0.0499828 0
M  V30 10137 O 971.272 -3.97364 -1.10342 0
M  V30 10138 H 970.613 -0.660471 0.0683627 0
M  V30 10139 H 973.143 -1.87386 0.82144 0
M  V30 10140 H 973.153 -4.0722 -0.252234 0
M  V30 10141 H 971.828 -4.06044 0.90006 0
M  V30 10142 H 970.405 -3.62401 -0.878645 0
M  V30 10143 N 972.59 -0.333456 -1.54032 0
M  V30 10144 C 973.5 0.536674 -2.28379 0
M  V30 10145 C 974.516 1.12068 -1.33104 0
M  V30 10146 O 975.692 1.13853 -1.66131 0
M  V30 10147 C 972.757 1.67677 -3.03456 0
M  V30 10148 C 971.818 1.12357 -4.14336 0
M  V30 10149 C 971.051 2.20933 -4.85823 0
M  V30 10150 O 971.274 3.41466 -4.569 0
M  V30 10151 O 970.208 1.85795 -5.72507 0
M  V30 10152 H 974.034 -0.0674003 -3.03625 0
M  V30 10153 H 971.619 -0.098823 -1.49073 0
M  V30 10154 H 973.501 2.34032 -3.50438 0
M  V30 10155 H 972.176 2.26684 -2.31076 0
M  V30 10156 H 971.083 0.424827 -3.7168 0
M  V30 10157 H 972.416 0.578497 -4.88789 0
M  V30 10158 N 974.068 1.57479 -0.061844 0
M  V30 10159 C 975.015 2.12152 0.908862 0
M  V30 10160 C 975.985 1.03152 1.30188 0
M  V30 10161 O 977.17 1.3076 1.38948 0
M  V30 10162 C 974.31 2.6796 2.17465 0
M  V30 10163 C 973.423 3.91083 1.83517 0
M  V30 10164 C 972.558 4.35169 3.04633 0
M  V30 10165 C 971.597 5.50964 2.66655 0
M  V30 10166 N 970.734 5.90055 3.80499 0
M  V30 10167 H 975.574 2.94797 0.435743 0
M  V30 10168 H 973.111 1.45686 0.203445 0
M  V30 10169 H 975.069 2.98421 2.91548 0
M  V30 10170 H 973.699 1.88096 2.62335 0
M  V30 10171 H 972.751 3.67146 0.995381 0
M  V30 10172 H 974.063 4.75214 1.51569 0
M  V30 10173 H 973.217 4.67239 3.87005 0
M  V30 10174 H 971.956 3.49871 3.39767 0
M  V30 10175 H 970.961 5.18556 1.82703 0
M  V30 10176 H 972.186 6.37986 2.32702 0
M  V30 10177 H 970.132 5.07708 4.15414 0
M  V30 10178 H 970.049 6.68903 3.52285 0
M  V30 10179 H 971.317 6.26744 4.63479 0
M  V30 10180 N 975.546 -0.211634 1.56173 0
M  V30 10181 C 976.478 -1.286 1.89723 0
M  V30 10182 C 977.491 -1.42549 0.786361 0
M  V30 10183 O 978.68 -1.4327 1.06471 0
M  V30 10184 C 975.78 -2.66036 2.09948 0
M  V30 10185 C 974.953 -2.73908 3.41018 0
M  V30 10186 C 974.012 -3.92425 3.50555 0
M  V30 10187 O 973.038 -3.803 4.2351 0
M  V30 10188 N 974.24 -5.07165 2.82426 0
M  V30 10189 H 977.005 -1.00142 2.82474 0
M  V30 10190 H 974.566 -0.401633 1.56839 0
M  V30 10191 H 976.558 -3.43719 2.13634 0
M  V30 10192 H 975.128 -2.87052 1.23774 0
M  V30 10193 H 974.348 -1.82625 3.49345 0
M  V30 10194 H 975.636 -2.76145 4.27342 0
M  V30 10195 H 975.034 -5.19913 2.2295 0
M  V30 10196 H 973.591 -5.82855 2.9176 0
M  V30 10197 N 977.024 -1.50153 -0.478725 0
M  V30 10198 C 978.44 -1.3741 -0.811833 0
M  V30 10199 C 978.64 -0.424303 -1.96982 0
M  V30 10200 O 977.696 0.13588 -2.52134 0
M  V30 10201 C 979.009 -2.78616 -1.13108 0
M  V30 10202 C 980.557 -2.87477 -1.23798 0
M  V30 10203 C 981.032 -4.295 -1.5904 0
M  V30 10204 N 982.523 -4.32415 -1.66047 0
M  V30 10205 C 983.258 -5.39295 -1.94805 0
M  V30 10206 N 982.754 -6.56392 -2.21635 0
M  V30 10207 N 984.547 -5.26731 -1.96243 0
M  V30 10208 H 976.698 -2.10486 0.284531 0
M  V30 10209 H 978.961 -0.945786 0.0647585 0
M  V30 10210 H 978.667 -3.49921 -0.35334 0
M  V30 10211 H 978.541 -3.15382 -2.06915 0
M  V30 10212 H 980.928 -2.16396 -2.00641 0
M  V30 10213 H 981.009 -2.54264 -0.279888 0
M  V30 10214 H 980.653 -5.01115 -0.827404 0
M  V30 10215 H 980.583 -4.60194 -2.55987 0
M  V30 10216 H 983.074 -3.47975 -1.47383 0
M  V30 10217 H 983.387 -7.33658 -2.4283 0
M  V30 10218 H 981.732 -6.59579 -2.19043 0
M  V30 10219 H 984.923 -4.34249 -1.74773 0
M  V30 10220 H 985.096 -6.10115 -2.1832 0
M  V30 10221 N 978.502 0.731368 -1.39602 0
M  V30 10222 C 979.918 1.03739 -1.21286 0
M  V30 10223 C 980.118 2.01353 -0.0769875 0
M  V30 10224 O 979.174 2.45978 0.570193 0
M  V30 10225 C 980.487 1.59621 -2.54837 0
M  V30 10226 C 982.035 1.71683 -2.61713 0
M  V30 10227 C 982.51 2.30973 -3.95494 0
M  V30 10228 N 984.001 2.38378 -3.97153 0
M  V30 10229 C 984.736 2.852 -4.97442 0
M  V30 10230 N 984.232 3.31891 -6.08129 0
M  V30 10231 N 986.025 2.84441 -4.84819 0
M  V30 10232 H 978.176 0.0840456 -2.12234 0
M  V30 10233 H 980.439 0.0999038 -0.942721 0
M  V30 10234 H 980.145 0.953608 -3.38525 0
M  V30 10235 H 980.019 2.58375 -2.74813 0
M  V30 10236 H 982.406 2.35064 -1.78406 0
M  V30 10237 H 982.487 0.715714 -2.45583 0
M  V30 10238 H 982.131 1.68219 -4.79234 0
M  V30 10239 H 982.061 3.31769 -4.08946 0
M  V30 10240 H 984.552 2.05382 -3.17217 0
M  V30 10241 H 984.865 3.66138 -6.8056 0
M  V30 10242 H 983.21 3.2989 -6.11717 0
M  V30 10243 H 986.401 2.4729 -3.97448 0
M  V30 10244 H 986.574 3.20616 -5.63124 0
M  V30 10245 N 979.98 1.24838 0.961938 0
M  V30 10246 C 981.257 0.99939 1.68141 0
M  V30 10247 C 981.637 -0.476588 2.0565 0
M  V30 10248 O 980.985 -1.45224 1.76415 0
M  V30 10249 C 981.195 1.92797 2.90913 0
M  V30 10250 C 982.543 2.20219 3.63027 0
M  V30 10251 O 983.567 1.90496 3.00981 0
M  V30 10252 O 982.426 2.70725 4.74731 0
M  V30 10253 H 979.52 0.37842 0.735342 0
M  V30 10254 H 982.066 1.35961 1.01551 0
M  V30 10255 H 980.838 2.92492 2.59931 0
M  V30 10256 H 980.461 1.57127 3.65235 0
M  V30 10257 N 981.458 -1.16348 1.06306 0
M  V30 10258 C 982.705 -1.86881 0.779852 0
M  V30 10259 C 983.033 -1.8171 -0.693668 0
M  V30 10260 O 982.288 -1.22769 -1.52401 0
M  V30 10261 C 982.587 -3.35936 1.21991 0
M  V30 10262 C 982.253 -3.61307 2.69756 0
M  V30 10263 C 980.915 -3.6794 3.10119 0
M  V30 10264 C 983.267 -3.71871 3.65187 0
M  V30 10265 C 980.595 -3.82639 4.44752 0
M  V30 10266 C 982.947 -3.88091 4.99568 0
M  V30 10267 C 981.611 -3.92967 5.39568 0
M  V30 10268 H 980.881 -0.683847 0.285368 0
M  V30 10269 H 983.528 -1.37569 1.33218 0
M  V30 10270 H 981.833 -3.87381 0.586774 0
M  V30 10271 H 983.53 -3.88895 0.977821 0
M  V30 10272 H 980.12 -3.56777 2.37504 0
M  V30 10273 H 984.304 -3.66057 3.35136 0
M  V30 10274 H 979.56 -3.84666 4.75228 0
M  V30 10275 H 983.734 -3.95207 5.73397 0
M  V30 10276 H 981.361 -4.04109 6.43895 0
M  V30 10277 N 982.937 -0.845659 -1.3299 0
M  V30 10278 C 983.867 -0.298957 -2.31578 0
M  V30 10279 C 984.848 0.597012 -1.59279 0
M  V30 10280 O 986.033 0.519142 -1.87132 0
M  V30 10281 C 983.163 0.521109 -3.43368 0
M  V30 10282 C 982.117 -0.279651 -4.27085 0
M  V30 10283 C 981.443 0.664591 -5.30554 0
M  V30 10284 C 982.743 -1.50046 -5.00283 0
M  V30 10285 H 984.437 -1.12272 -2.77552 0
M  V30 10286 H 981.983 -0.54132 -1.33438 0
M  V30 10287 H 983.936 0.913921 -4.1137 0
M  V30 10288 H 982.66 1.37815 -2.96099 0
M  V30 10289 H 981.319 -0.654106 -3.60717 0
M  V30 10290 H 980.967 1.51822 -4.79541 0
M  V30 10291 H 980.667 0.132871 -5.8745 0
M  V30 10292 H 982.191 1.05477 -6.01421 0
M  V30 10293 H 983.605 -1.18044 -5.61016 0
M  V30 10294 H 982.002 -1.96946 -5.66862 0
M  V30 10295 H 983.072 -2.26659 -4.28665 0
M  V30 10296 N 984.415 1.45619 -0.602734 0
M  V30 10297 C 985.64 2.07157 -0.100429 0
M  V30 10298 C 986.065 1.44524 1.20393 0
M  V30 10299 O 985.423 0.536191 1.7319 0
M  V30 10300 C 985.471 3.60587 0.0308604 0
M  V30 10301 O 984.575 3.97944 1.08234 0
M  V30 10302 H 983.916 0.6601 -0.0718643 0
M  V30 10303 H 986.446 1.86948 -0.831366 0
M  V30 10304 H 986.456 4.07348 0.230634 0
M  V30 10305 H 985.131 4.05561 -0.921581 0
M  V30 10306 H 983.708 3.62862 0.859414 0
M  V30 10307 N 985.893 0.34162 1.53853 0
M  V30 10308 C 986.803 -0.524555 2.2866 0
M  V30 10309 C 987.819 -1.1136 1.33697 0
M  V30 10310 O 988.995 -1.1297 1.66732 0
M  V30 10311 C 986.06 -1.66065 3.04341 0
M  V30 10312 C 985.121 -1.10158 4.14926 0
M  V30 10313 C 984.354 -2.18353 4.86988 0
M  V30 10314 O 984.577 -3.39038 4.58704 0
M  V30 10315 O 983.511 -1.82756 5.73484 0
M  V30 10316 H 987.337 0.0835014 3.03585 0
M  V30 10317 H 984.922 0.106727 1.49018 0
M  V30 10318 H 986.804 -2.3217 3.51674 0
M  V30 10319 H 985.479 -2.25456 2.32275 0
M  V30 10320 H 984.386 -0.405109 3.719 0
M  V30 10321 H 985.719 -0.552567 4.89088 0
M  V30 10322 N 987.371 -1.57444 0.0701946 0
M  V30 10323 C 988.334 -2.11511 -0.882923 0
M  V30 10324 C 989.334 -1.03879 -1.22743 0
M  V30 10325 O 990.524 -1.29874 -1.16097 0
M  V30 10326 C 987.656 -2.61514 -2.18686 0
M  V30 10327 H 988.849 -2.9703 -0.413873 0
M  V30 10328 H 986.402 -1.55278 -0.178488 0
M  V30 10329 H 987.137 -1.79443 -2.70131 0
M  V30 10330 H 986.922 -3.40185 -1.94978 0
M  V30 10331 H 988.412 -3.03425 -2.86919 0
M  V30 10332 N 988.849 0.203349 -1.56283 0
M  V30 10333 C 990.074 0.945548 -1.84592 0
M  V30 10334 C 990.499 1.7641 -0.652772 0
M  V30 10335 O 989.857 1.76867 0.398468 0
M  V30 10336 C 989.905 1.82416 -3.11057 0
M  V30 10337 O 989.009 2.92191 -2.9103 0
M  V30 10338 H 988.35 0.266739 -0.608068 0
M  V30 10339 H 990.88 0.211158 -2.03507 0
M  V30 10340 H 990.89 2.23044 -3.41636 0
M  V30 10341 H 989.565 1.22267 -3.97522 0
M  V30 10342 H 988.142 2.55378 -2.71728 0
M  V30 10343 N 990.327 1.50405 0.470755 0
M  V30 10344 C 991.576 1.60652 1.21959 0
M  V30 10345 C 991.889 0.312521 1.93087 0
M  V30 10346 O 993.095 0.293901 2.69905 0
M  V30 10347 C 991.551 2.83581 2.21607 0
M  V30 10348 C 991.159 4.19858 1.5628 0
M  V30 10349 C 992.903 3.03173 2.9713 0
M  V30 10350 C 990.81 5.33974 2.54217 0
M  V30 10351 H 989.74 0.598264 0.458907 0
M  V30 10352 H 992.391 1.76836 0.490041 0
M  V30 10353 H 990.773 2.60957 2.97855 0
M  V30 10354 H 991.947 4.52738 0.85819 0
M  V30 10355 H 990.262 4.05873 0.930366 0
M  V30 10356 H 992.859 3.856 3.70428 0
M  V30 10357 H 993.202 2.14914 3.56536 0
M  V30 10358 H 993.735 3.2598 2.27995 0
M  V30 10359 H 990.474 6.24388 1.99549 0
M  V30 10360 H 989.994 5.05511 3.22829 0
M  V30 10361 H 991.673 5.64561 3.16039 0
M  V30 10362 N 991.805 -0.723954 1.39988 0
M  V30 10363 C 992.738 -1.84725 1.33985 0
M  V30 10364 C 993.716 -1.61217 0.211623 0
M  V30 10365 O 994.9 -1.84338 0.393905 0
M  V30 10366 C 992.027 -3.20913 1.08317 0
M  V30 10367 C 991.073 -3.63262 2.23478 0
M  V30 10368 S 991.906 -3.71346 3.85827 0
M  V30 10369 C 993.062 -5.10307 3.62405 0
M  V30 10370 H 993.295 -1.89535 2.2905 0
M  V30 10371 H 990.828 -0.889911 1.26174 0
M  V30 10372 H 992.786 -3.99547 0.941921 0
M  V30 10373 H 991.447 -3.13745 0.149203 0
M  V30 10374 H 990.64 -4.62124 2.01139 0
M  V30 10375 H 990.242 -2.91863 2.33863 0
M  V30 10376 H 992.534 -5.96975 3.20354 0
M  V30 10377 H 993.477 -5.37679 4.60768 0
M  V30 10378 H 993.885 -4.80505 2.96269 0
M  V30 10379 N 993.283 -1.25346 -0.955304 0
M  V30 10380 C 994.531 -1.09837 -1.69647 0
M  V30 10381 C 994.852 0.361425 -1.91621 0
M  V30 10382 O 994.122 1.25666 -1.50283 0
M  V30 10383 H 992.702 -0.403467 -0.628668 0
M  V30 10384 H 995.364 -1.57459 -1.14859 0
M  V30 10385 H 994.46 -1.60616 -2.67598 0
M  V30 10386 N 994.761 1.15782 -1.06922 0
M  V30 10387 C 995.693 2.19978 -0.643604 0
M  V30 10388 C 996.706 1.59981 0.301653 0
M  V30 10389 O 997.895 1.78265 0.0916508 0
M  V30 10390 C 994.995 3.38815 0.0757973 0
M  V30 10391 C 994.168 4.28363 -0.884545 0
M  V30 10392 C 993.227 5.25807 -0.203233 0
M  V30 10393 O 992.253 5.62924 -0.842904 0
M  V30 10394 N 993.455 5.70874 1.05279 0
M  V30 10395 H 996.22 2.57112 -1.53992 0
M  V30 10396 H 993.781 1.30855 -0.953344 0
M  V30 10397 H 995.773 4.01052 0.542151 0
M  V30 10398 H 994.343 3.00133 0.874 0
M  V30 10399 H 993.563 3.63292 -1.53012 0
M  V30 10400 H 994.851 4.85067 -1.53581 0
M  V30 10401 H 994.249 5.42822 1.5925 0
M  V30 10402 H 992.806 6.35171 1.46289 0
M  V30 10403 N 996.239 0.8527 1.3254 0
M  V30 10404 C 997.486 0.455123 1.97319 0
M  V30 10405 C 997.814 -0.988814 1.67489 0
M  V30 10406 O 997.069 -1.70845 0.954483 0
M  V30 10407 C 997.368 0.638757 3.51646 0
M  V30 10408 C 997.034 2.05287 4.01458 0
M  V30 10409 C 995.696 2.43963 4.14771 0
M  V30 10410 C 998.048 2.9759 4.27889 0
M  V30 10411 C 995.376 3.7422 4.51859 0
M  V30 10412 C 997.728 4.27343 4.66434 0
M  V30 10413 C 996.392 4.65957 4.77954 0
M  V30 10414 H 995.662 0.166541 0.722042 0
M  V30 10415 H 998.309 1.08238 1.57977 0
M  V30 10416 H 996.614 -0.0717394 3.91734 0
M  V30 10417 H 998.311 0.311219 3.9979 0
M  V30 10418 H 994.901 1.74253 3.91579 0
M  V30 10419 H 999.085 2.68942 4.17114 0
M  V30 10420 H 994.341 4.03923 4.58973 0
M  V30 10421 H 998.515 4.9893 4.85841 0
M  V30 10422 H 996.142 5.66934 5.06449 0
M  V30 10423 N 997.718 -1.45297 0.610449 0
M  V30 10424 C 998.995 -1.95562 0.0386189 0
M  V30 10425 C 999.375 -1.55284 -1.43004 0
M  V30 10426 O 998.723 -0.816785 -2.13403 0
M  V30 10427 C 998.933 -3.48176 0.239731 0
M  V30 10428 C 1000.28 -4.24425 0.122035 0
M  V30 10429 O 1001.3 -3.55794 0.170003 0
M  V30 10430 O 1000.16 -5.46499 0.00953695 0
M  V30 10431 H 997.258 -0.826296 -0.0341081 0
M  V30 10432 H 999.804 -1.55449 0.68071 0
M  V30 10433 H 998.576 -3.70471 1.25963 0
M  V30 10434 H 998.199 -3.95186 -0.437486 0
M  V30 10435 N 999.196 -0.349774 -1.5367 0
M  V30 10436 C 1000.15 0.52023 -2.21986 0
M  V30 10437 C 1001.13 1.06119 -1.20944 0
M  V30 10438 O 1002.32 0.993857 -1.46463 0
M  V30 10439 C 999.451 1.66751 -3.00082 0
M  V30 10440 C 998.537 1.14019 -4.08486 0
M  V30 10441 N 998.928 0.334588 -5.04692 0
M  V30 10442 C 997.226 1.4165 -4.22908 0
M  V30 10443 C 997.927 0.0476906 -5.8168 0
M  V30 10444 N 996.903 0.641032 -5.39807 0
M  V30 10445 H 1000.7 -0.102261 -2.93722 0
M  V30 10446 H 998.219 -0.15696 -1.6164 0
M  V30 10447 H 1000.22 2.30281 -3.47529 0
M  V30 10448 H 998.876 2.29322 -2.29873 0
M  V30 10449 H 999.887 -0.0248665 -5.17894 0
M  V30 10450 H 996.564 2.04615 -3.63922 0
M  V30 10451 H 997.954 -0.602565 -6.69193 0
M  V30 10452 N 1000.67 1.57404 -0.0785433 0
M  V30 10453 C 1002.08 1.81118 0.45311 0
M  V30 10454 C 1002.44 0.992963 1.69218 0
M  V30 10455 O 1001.56 0.217448 2.15305 0
M  V30 10456 C 1002.16 3.28506 0.82882 0
M  V30 10457 C 1000.71 3.53042 1.3053 0
M  V30 10458 C 999.862 2.75739 0.29378 0
M  V30 10459 H 1002.81 1.55758 -0.304171 0
M  V30 10460 H 1002.83 3.40924 1.68971 0
M  V30 10461 H 1002.35 3.88031 -0.0731826 0
M  V30 10462 H 1000.45 2.98829 2.22558 0
M  V30 10463 H 1000.56 4.61724 1.27857 0
M  V30 10464 H 998.924 2.42703 0.772477 0
M  V30 10465 H 999.707 3.38005 -0.600613 0
M  V30 10466 N 1002.15 -0.195058 1.56388 0
M  V30 10467 C 1003.1 -1.26122 1.95438 0
M  V30 10468 C 1004.09 -1.47117 0.839818 0
M  V30 10469 O 1005.3 -1.47978 1.02482 0
M  V30 10470 H 1001.67 -0.423422 0.621464 0
M  V30 10471 H 1003.65 -0.904854 2.8435 0
M  V30 10472 C 1002.39 -2.59858 2.31017 0
M  V30 10473 H 1001.72 -2.44519 3.16308 0
M  V30 10474 H 1003.16 -3.33205 2.62203 0
M  V30 10475 C 1001.62 -3.16853 1.14481 0
M  V30 10476 O 1002.15 -3.995 0.419853 0
M  V30 10477 N 1000.35 -2.75599 0.921604 0
M  V30 10478 H 999.9 -2.08495 1.51287 0
M  V30 10479 H 999.858 -3.14072 0.143663 0
M  V30 10480 N 1003.63 -1.50653 -0.462772 0
M  V30 10481 C 1004.88 -1.61296 -1.21105 0
M  V30 10482 C 1005.19 -0.322757 -1.92919 0
M  V30 10483 O 1006.4 -0.308211 -2.69745 0
M  V30 10484 C 1004.85 -2.84752 -2.201 0
M  V30 10485 C 1004.46 -4.20681 -1.54051 0
M  V30 10486 C 1006.21 -3.04744 -2.95518 0
M  V30 10487 C 1004.11 -5.35314 -2.51381 0
M  V30 10488 H 1003.04 -0.60069 -0.455728 0
M  V30 10489 H 1005.69 -1.77093 -0.480656 0
M  V30 10490 H 1004.08 -2.62532 -2.96467 0
M  V30 10491 H 1005.25 -4.53187 -0.834168 0
M  V30 10492 H 1003.56 -4.06361 -0.908828 0
M  V30 10493 H 1006.16 -3.87559 -3.68378 0
M  V30 10494 H 1006.5 -2.16802 -3.55391 0
M  V30 10495 H 1007.04 -3.27185 -2.26263 0
M  V30 10496 H 1003.78 -6.25437 -1.96235 0
M  V30 10497 H 1003.3 -5.07216 -3.20144 0
M  V30 10498 H 1004.98 -5.66229 -3.1304 0
M  V30 10499 N 1005.11 0.71652 -1.4037 0
M  V30 10500 C 1006.36 1.47193 -1.37903 0
M  V30 10501 C 1006.67 1.95593 0.0159939 0
M  V30 10502 O 1007.88 2.71009 0.163282 0
M  V30 10503 C 1006.33 2.6606 -2.42363 0
M  V30 10504 C 1005.94 2.24533 -3.87671 0
M  V30 10505 C 1007.68 3.438 -2.49001 0
M  V30 10506 C 1005.59 3.40234 -4.8373 0
M  V30 10507 H 1004.52 0.552811 -0.512753 0
M  V30 10508 H 1007.17 0.779894 -1.66102 0
M  V30 10509 H 1005.55 3.37429 -2.07262 0
M  V30 10510 H 1006.73 1.6059 -4.31911 0
M  V30 10511 H 1005.04 1.59839 -3.845 0
M  V30 10512 H 1007.64 4.29893 -3.17956 0
M  V30 10513 H 1007.98 3.8755 -1.52023 0
M  V30 10514 H 1008.52 2.79474 -2.83088 0
M  V30 10515 H 1005.26 3.01517 -5.82037 0
M  V30 10516 H 1004.78 4.03095 -4.44156 0
M  V30 10517 H 1006.45 4.06312 -5.03507 0
M  V30 10518 N 1006.59 1.25851 0.948643 0
M  V30 10519 C 1008 1.02802 1.22081 0
M  V30 10520 C 1008.2 -0.251461 1.99925 0
M  V30 10521 O 1007.26 -0.962592 2.33432 0
M  V30 10522 C 1008.57 2.25489 1.98936 0
M  V30 10523 C 1010.12 2.30312 2.11956 0
M  V30 10524 C 1010.59 3.52671 2.92211 0
M  V30 10525 N 1012.09 3.53103 2.99787 0
M  V30 10526 C 1012.82 4.44445 3.62294 0
M  V30 10527 N 1012.32 5.46065 4.26362 0
M  V30 10528 N 1014.11 4.32113 3.59493 0
M  V30 10529 H 1006.26 2.08042 0.428044 0
M  V30 10530 H 1008.52 0.913928 0.251872 0
M  V30 10531 H 1008.23 3.18513 1.4914 0
M  V30 10532 H 1008.1 2.2914 2.99624 0
M  V30 10533 H 1010.49 1.37808 2.60946 0
M  V30 10534 H 1010.57 2.30676 1.10554 0
M  V30 10535 H 1010.22 4.45501 2.43909 0
M  V30 10536 H 1010.15 3.49554 3.93853 0
M  V30 10537 H 1012.64 2.79597 2.54232 0
M  V30 10538 H 1012.95 6.11964 4.71932 0
M  V30 10539 H 1011.29 5.49931 4.24972 0
M  V30 10540 H 1014.49 3.51946 3.08629 0
M  V30 10541 H 1014.66 5.03493 4.0792 0
M  V30 10542 N 1008.06 -1.15214 1.07534 0
M  V30 10543 C 1008.99 -2.2216 0.718837 0
M  V30 10544 C 1009.98 -1.6753 -0.29459 0
M  V30 10545 O 1011.16 -1.93481 -0.166931 0
M  V30 10546 C 1008.29 -3.471 0.117836 0
M  V30 10547 C 1007.24 -4.14701 1.05862 0
M  V30 10548 C 1006.57 -5.3374 0.320284 0
M  V30 10549 C 1007.87 -4.64254 2.39302 0
M  V30 10550 H 1009.56 -2.52237 1.61297 0
M  V30 10551 H 1007.11 -1.21239 0.776992 0
M  V30 10552 H 1009.06 -4.21156 -0.143519 0
M  V30 10553 H 1007.79 -3.16361 -0.811389 0
M  V30 10554 H 1006.45 -3.42589 1.30493 0
M  V30 10555 H 1006.09 -4.99257 -0.61246 0
M  V30 10556 H 1005.79 -5.79912 0.947381 0
M  V30 10557 H 1007.32 -6.10563 0.0667721 0
M  V30 10558 H 1008.73 -5.29827 2.18988 0
M  V30 10559 H 1007.13 -5.21095 2.97623 0
M  V30 10560 H 1008.2 -3.79793 3.01472 0
M  V30 10561 N 1009.54 -0.859717 -1.32086 0
M  V30 10562 C 1010.45 -0.31108 -2.32528 0
M  V30 10563 C 1011.47 0.573714 -1.6427 0
M  V30 10564 O 1012.64 0.472878 -1.9577 0
M  V30 10565 C 1009.71 0.487256 -3.43259 0
M  V30 10566 C 1008.77 -0.424279 -4.27198 0
M  V30 10567 C 1008 0.336051 -5.32641 0
M  V30 10568 O 1008.23 1.56541 -5.48499 0
M  V30 10569 O 1007.16 -0.300777 -6.01148 0
M  V30 10570 H 1010.99 -1.14336 -2.81355 0
M  V30 10571 H 1008.57 -0.622794 -1.358 0
M  V30 10572 H 1010.45 0.940203 -4.10777 0
M  V30 10573 H 1009.13 1.29626 -2.96612 0
M  V30 10574 H 1008.04 -0.925509 -3.62471 0
M  V30 10575 H 1009.37 -1.1986 -4.77383 0
M  V30 10576 N 1011.02 1.44971 -0.618145 0
M  V30 10577 C 1012.27 2.0176 -0.11725 0
M  V30 10578 C 1012.59 1.48773 1.26062 0
M  V30 10579 O 1011.86 0.686152 1.83491 0
M  V30 10580 H 1010.44 0.745909 -0.0403545 0
M  V30 10581 H 1013.1 1.77638 -0.801923 0
M  V30 10582 H 1012.2 3.1201 -0.0750477 0
M  V30 10583 N 1012.5 0.357919 1.53482 0
M  V30 10584 C 1013.74 -0.23451 2.0144 0
M  V30 10585 C 1014.08 -1.49044 1.24497 0
M  V30 10586 O 1013.35 -1.91566 0.336535 0
M  V30 10587 C 1013.64 -0.534193 3.56116 0
M  V30 10588 C 1013.49 0.734834 4.43757 0
M  V30 10589 C 1014.81 -1.33793 4.1927 0
M  V30 10590 H 1011.93 -0.0837595 0.732225 0
M  V30 10591 H 1014.57 0.481297 1.83803 0
M  V30 10592 H 1012.72 -1.144 3.71275 0
M  V30 10593 H 1014.39 1.37251 4.40409 0
M  V30 10594 H 1012.63 1.35678 4.12036 0
M  V30 10595 H 1013.3 0.48021 5.49907 0
M  V30 10596 H 1015.78 -0.822158 4.07897 0
M  V30 10597 H 1014.66 -1.51636 5.27539 0
M  V30 10598 H 1014.92 -2.34423 3.74831 0
M  V30 10599 N 1013.98 -1.5736 0.0868897 0
M  V30 10600 C 1015.22 -1.94341 -0.579598 0
M  V30 10601 C 1015.56 -0.968238 -1.68341 0
M  V30 10602 O 1014.83 8.29649e-05 -1.945 0
M  V30 10603 C 1015.11 -3.41497 -1.14245 0
M  V30 10604 C 1014.97 -4.49778 -0.044255 0
M  V30 10605 C 1016.29 -3.89788 -2.04336 0
M  V30 10606 H 1013.4 -0.70668 -0.20922 0
M  V30 10607 H 1016.05 -1.89359 0.15593 0
M  V30 10608 H 1014.2 -3.45873 -1.76929 0
M  V30 10609 H 1015.87 -4.57517 0.58959 0
M  V30 10610 H 1014.11 -4.293 0.623207 0
M  V30 10611 H 1014.78 -5.4992 -0.478749 0
M  V30 10612 H 1017.26 -3.87513 -1.51569 0
M  V30 10613 H 1016.13 -4.93335 -2.40648 0
M  V30 10614 H 1016.4 -3.28603 -2.95757 0
M  V30 10615 N 1015.45 0.186762 -1.56489 0
M  V30 10616 C 1016.68 0.921832 -1.85229 0
M  V30 10617 C 1017.1 1.76496 -0.670416 0
M  V30 10618 O 1016.45 1.78899 0.360758 0
M  V30 10619 C 1016.51 1.81121 -3.12854 0
M  V30 10620 O 1016.23 1.00211 -4.26485 0
M  V30 10621 C 1017.73 2.65725 -3.54831 0
M  V30 10622 H 1014.95 0.268563 -0.61491 0
M  V30 10623 H 1017.49 0.191505 -2.03601 0
M  V30 10624 H 1015.65 2.49506 -2.96354 0
M  V30 10625 H 1016.06 1.60893 -4.99213 0
M  V30 10626 H 1017.53 3.23771 -4.47075 0
M  V30 10627 H 1018.01 3.39843 -2.78215 0
M  V30 10628 H 1018.62 2.02698 -3.7389 0
M  V30 10629 N 1016.93 1.50896 0.454776 0
M  V30 10630 C 1017.88 1.70947 1.55067 0
M  V30 10631 C 1018.85 0.550899 1.56698 0
M  V30 10632 O 1020.03 0.783352 1.73978 0
M  V30 10633 C 1017.17 1.82455 2.92924 0
M  V30 10634 C 1016.29 3.09919 3.00956 0
M  V30 10635 C 1015.42 3.12125 4.29827 0
M  V30 10636 C 1014.46 4.33975 4.31662 0
M  V30 10637 N 1013.6 4.33828 5.5203 0
M  V30 10638 H 1018.44 2.645 1.37273 0
M  V30 10639 H 1015.98 1.31101 0.667148 0
M  V30 10640 H 1017.93 1.87108 3.72889 0
M  V30 10641 H 1016.56 0.92327 3.09315 0
M  V30 10642 H 1015.62 3.14659 2.13761 0
M  V30 10643 H 1016.93 3.99869 2.98172 0
M  V30 10644 H 1016.08 3.15598 5.18154 0
M  V30 10645 H 1014.82 2.20033 4.35243 0
M  V30 10646 H 1013.83 4.30697 3.41731 0
M  V30 10647 H 1015.05 5.27312 4.27924 0
M  V30 10648 H 1013 3.44598 5.58201 0
M  V30 10649 H 1012.91 5.17566 5.51055 0
M  V30 10650 H 1014.18 4.4147 6.42437 0
M  V30 10651 N 1018.41 -0.709066 1.40748 0
M  V30 10652 C 1019.64 -1.50313 1.42901 0
M  V30 10653 C 1020.06 -1.88072 0.032213 0
M  V30 10654 O 1019.42 -1.53716 -0.96131 0
M  V30 10655 C 1019.47 -2.75074 2.33166 0
M  V30 10656 O 1018.57 -3.72036 1.7794 0
M  V30 10657 H 1017.91 -0.452934 0.485538 0
M  V30 10658 H 1020.44 -0.872712 1.85054 0
M  V30 10659 H 1020.45 -3.23532 2.48578 0
M  V30 10660 H 1019.13 -2.46927 3.34664 0
M  V30 10661 H 1017.7 -3.30911 1.71908 0
M  V30 10662 N 1019.89 -1.26353 -0.941956 0
M  V30 10663 C 1021.31 -1.03448 -1.21534 0
M  V30 10664 C 1021.51 0.240855 -2.00055 0
M  V30 10665 O 1020.56 0.950199 -2.33939 0
M  V30 10666 C 1021.87 -2.2654 -1.97737 0
M  V30 10667 C 1023.42 -2.31433 -2.10731 0
M  V30 10668 C 1023.9 -3.54216 -2.90336 0
M  V30 10669 N 1025.39 -3.54688 -2.9791 0
M  V30 10670 C 1026.12 -4.4636 -3.59931 0
M  V30 10671 N 1025.62 -5.48319 -4.2346 0
M  V30 10672 N 1027.41 -4.34013 -3.57196 0
M  V30 10673 H 1019.56 -2.08266 -0.417005 0
M  V30 10674 H 1021.83 -0.915251 -0.247021 0
M  V30 10675 H 1021.53 -3.19299 -1.47449 0
M  V30 10676 H 1021.41 -2.30726 -2.98405 0
M  V30 10677 H 1023.79 -1.3919 -2.60212 0
M  V30 10678 H 1023.87 -2.31259 -1.09329 0
M  V30 10679 H 1023.52 -4.46788 -2.41543 0
M  V30 10680 H 1023.45 -3.51637 -3.91993 0
M  V30 10681 H 1025.94 -2.80942 -2.52745 0
M  V30 10682 H 1026.25 -6.14458 -4.6868 0
M  V30 10683 H 1024.6 -5.52177 -4.22049 0
M  V30 10684 H 1027.79 -3.53578 -3.06758 0
M  V30 10685 H 1027.96 -5.0565 -4.05244 0
M  V30 10686 N 1021.37 1.14642 -1.08144 0
M  V30 10687 C 1022.78 1.6719 -0.830923 0
M  V30 10688 C 1023.13 1.85373 0.642749 0
M  V30 10689 O 1022.25 1.56293 1.49671 0
M  V30 10690 C 1022.85 3.03697 -1.50179 0
M  V30 10691 C 1021.41 3.5329 -1.29858 0
M  V30 10692 C 1020.56 2.28828 -1.5663 0
M  V30 10693 H 1023.51 0.987441 -1.24239 0
M  V30 10694 H 1023.53 3.69023 -0.9275 0
M  V30 10695 H 1023.04 2.90431 -2.57432 0
M  V30 10696 H 1021.14 3.71783 -0.246626 0
M  V30 10697 H 1021.25 4.34231 -2.02436 0
M  V30 10698 H 1019.62 2.34769 -0.987716 0
M  V30 10699 H 1020.4 2.18141 -2.65084 0
M  V30 10700 N 1022.85 0.866709 1.31628 0
M  V30 10701 C 1024.09 0.476731 1.97117 0
M  V30 10702 C 1024.42 -0.967813 1.68366 0
M  V30 10703 O 1023.7 -1.68101 0.978377 0
M  V30 10704 C 1023.98 0.730561 3.52611 0
M  V30 10705 C 1023.84 2.2244 3.90948 0
M  V30 10706 C 1025.15 0.19488 4.39668 0
M  V30 10707 H 1022.27 0.174682 0.715999 0
M  V30 10708 H 1024.92 1.08735 1.5581 0
M  V30 10709 H 1023.07 0.210834 3.87927 0
M  V30 10710 H 1024.74 2.81113 3.6575 0
M  V30 10711 H 1022.98 2.69824 3.39673 0
M  V30 10712 H 1023.65 2.35266 4.99353 0
M  V30 10713 H 1026.13 0.639478 4.11157 0
M  V30 10714 H 1025 0.401958 5.47426 0
M  V30 10715 H 1025.26 -0.90302 4.32779 0
M  V30 10716 N 1024.32 -1.44642 0.625825 0
M  V30 10717 C 1025.26 -2.27821 -0.131481 0
M  V30 10718 C 1026.23 -1.38224 -0.856324 0
M  V30 10719 O 1027.42 -1.67662 -0.861493 0
M  V30 10720 C 1024.55 -3.1703 -1.19204 0
M  V30 10721 C 1023.59 -4.22697 -0.568315 0
M  V30 10722 S 1024.42 -5.3169 0.637612 0
M  V30 10723 C 1025.58 -6.24468 -0.423088 0
M  V30 10724 H 1025.81 -2.91703 0.574177 0
M  V30 10725 H 1023.35 -1.4875 0.413844 0
M  V30 10726 H 1025.3 -3.6898 -1.79901 0
M  V30 10727 H 1023.97 -2.52379 -1.86986 0
M  V30 10728 H 1023.16 -4.8511 -1.36689 0
M  V30 10729 H 1022.76 -3.73983 -0.0360843 0
M  V30 10730 H 1025.05 -6.64967 -1.29713 0
M  V30 10731 H 1026 -7.07907 0.165338 0
M  V30 10732 H 1026.4 -5.59541 -0.746606 0
M  V30 10733 N 1025.8 -0.366053 -1.5329 0
M  V30 10734 C 1027.05 0.224614 -2.00445 0
M  V30 10735 C 1027.36 1.49829 -1.2574 0
M  V30 10736 O 1028.57 2.16759 -1.63487 0
M  V30 10737 C 1027.03 0.450818 -3.57065 0
M  V30 10738 C 1026.63 -0.808257 -4.40649 0
M  V30 10739 C 1028.38 0.999116 -4.12575 0
M  V30 10740 C 1026.28 -0.551612 -5.88822 0
M  V30 10741 H 1025.21 0.0877114 -0.748881 0
M  V30 10742 H 1027.87 -0.484866 -1.76978 0
M  V30 10743 H 1026.25 1.22157 -3.76688 0
M  V30 10744 H 1027.42 -1.58184 -4.32798 0
M  V30 10745 H 1025.74 -1.27981 -3.96245 0
M  V30 10746 H 1028.33 1.20646 -5.20911 0
M  V30 10747 H 1028.68 1.96139 -3.67199 0
M  V30 10748 H 1029.21 0.288518 -3.96752 0
M  V30 10749 H 1025.95 -1.48423 -6.38475 0
M  V30 10750 H 1025.47 0.183462 -5.99519 0
M  V30 10751 H 1027.15 -0.177307 -6.46757 0
M  V30 10752 N 1027.28 1.57312 -0.0952337 0
M  V30 10753 C 1028.53 1.93533 0.568131 0
M  V30 10754 C 1028.84 0.979121 1.6933 0
M  V30 10755 O 1030.05 1.23506 2.41782 0
M  V30 10756 C 1028.5 3.43875 1.06198 0
M  V30 10757 C 1028.11 4.47988 -0.0334397 0
M  V30 10758 C 1029.86 3.89057 1.69807 0
M  V30 10759 C 1027.76 5.89483 0.475774 0
M  V30 10760 H 1026.69 0.7224 0.215995 0
M  V30 10761 H 1029.34 1.82699 -0.171257 0
M  V30 10762 H 1027.73 3.49862 1.85506 0
M  V30 10763 H 1028.9 4.53644 -0.808934 0
M  V30 10764 H 1027.21 4.12415 -0.574725 0
M  V30 10765 H 1029.81 4.92171 2.08978 0
M  V30 10766 H 1030.15 3.27713 2.5673 0
M  V30 10767 H 1030.69 3.85772 0.970815 0
M  V30 10768 H 1027.43 6.54528 -0.356837 0
M  V30 10769 H 1026.95 5.87297 1.21827 0
M  V30 10770 H 1028.63 6.40066 0.944697 0
M  V30 10771 N 1028.76 -0.17846 1.56586 0
M  V30 10772 C 1029.99 -0.911996 1.85715 0
M  V30 10773 C 1030.4 -1.76138 0.679766 0
M  V30 10774 O 1029.76 -1.79088 -0.351266 0
M  V30 10775 C 1029.81 -1.79459 3.1381 0
M  V30 10776 O 1029.53 -0.979476 4.2701 0
M  V30 10777 C 1031.03 -2.6384 3.56235 0
M  V30 10778 H 1028.25 -0.265299 0.616326 0
M  V30 10779 H 1030.79 -0.180704 2.037 0
M  V30 10780 H 1028.95 -2.4793 2.97673 0
M  V30 10781 H 1029.36 -1.58244 5.00059 0
M  V30 10782 H 1030.84 -3.21396 4.48786 0
M  V30 10783 H 1031.31 -3.38363 2.80013 0
M  V30 10784 H 1031.92 -2.00712 3.7496 0
M  V30 10785 N 1030.24 -1.51135 -0.446768 0
M  V30 10786 C 1031.15 -1.74595 -1.56696 0
M  V30 10787 C 1032.16 -0.629816 -1.62201 0
M  V30 10788 O 1033.34 -0.910987 -1.79619 0
M  V30 10789 C 1030.4 -1.85738 -2.9275 0
M  V30 10790 C 1029.46 -3.09564 -2.97437 0
M  V30 10791 C 1028.7 -3.20165 -4.27001 0
M  V30 10792 O 1028.92 -2.36939 -5.1886 0
M  V30 10793 O 1027.85 -4.13077 -4.3778 0
M  V30 10794 H 1031.68 -2.69601 -1.39817 0
M  V30 10795 H 1029.26 -1.35523 -0.628805 0
M  V30 10796 H 1031.15 -1.95107 -3.73512 0
M  V30 10797 H 1029.82 -0.939184 -3.09776 0
M  V30 10798 H 1028.73 -3.05679 -2.15664 0
M  V30 10799 H 1030.06 -4.01041 -2.85353 0
M  V30 10800 N 1031.71 0.701592 -1.41122 0
M  V30 10801 C 1032.96 1.4616 -1.40155 0
M  V30 10802 C 1033.29 1.94498 -0.00861553 0
M  V30 10803 O 1032.54 1.69484 0.978452 0
M  V30 10804 C 1032.84 2.693 -2.34973 0
M  V30 10805 C 1032.51 2.39652 -3.81939 0
M  V30 10806 C 1031.17 2.31277 -4.21977 0
M  V30 10807 C 1033.52 2.15076 -4.74755 0
M  V30 10808 C 1030.85 1.96413 -5.52846 0
M  V30 10809 C 1033.2 1.81722 -6.05937 0
M  V30 10810 C 1031.87 1.71838 -6.45002 0
M  V30 10811 H 1031.14 0.534837 -0.512865 0
M  V30 10812 H 1033.78 0.802425 -1.73878 0
M  V30 10813 H 1032.09 3.40123 -1.94484 0
M  V30 10814 H 1033.79 3.27427 -2.31501 0
M  V30 10815 H 1030.38 2.47063 -3.50226 0
M  V30 10816 H 1034.56 2.20495 -4.4463 0
M  V30 10817 H 1029.82 1.87308 -5.82001 0
M  V30 10818 H 1033.99 1.61723 -6.77362 0
M  V30 10819 H 1031.62 1.44591 -7.46323 0
M  V30 10820 N 1033.19 1.2685 0.935242 0
M  V30 10821 C 1034.12 1.03244 2.03509 0
M  V30 10822 C 1035.1 -0.0447323 1.62538 0
M  V30 10823 O 1036.29 0.0988905 1.8824 0
M  V30 10824 C 1033.41 0.564626 3.33961 0
M  V30 10825 C 1032.46 1.63524 3.93906 0
M  V30 10826 S 1033.29 3.22577 4.27439 0
M  V30 10827 C 1034.45 2.77579 5.60982 0
M  V30 10828 H 1034.68 1.96367 2.2322 0
M  V30 10829 H 1032.21 1.10597 1.07739 0
M  V30 10830 H 1034.17 0.301388 4.09392 0
M  V30 10831 H 1032.83 -0.346419 3.12184 0
M  V30 10832 H 1032.03 1.25905 4.8802 0
M  V30 10833 H 1031.63 1.85017 3.25031 0
M  V30 10834 H 1033.92 2.22412 6.39952 0
M  V30 10835 H 1034.86 3.70408 6.03493 0
M  V30 10836 H 1035.27 2.16956 5.21143 0
M  V30 10837 N 1034.67 -1.14067 1.0875 0
M  V30 10838 C 1035.58 -2.22871 0.732498 0
M  V30 10839 C 1036.6 -1.72008 -0.26253 0
M  V30 10840 O 1037.77 -2.01123 -0.105601 0
M  V30 10841 C 1034.84 -3.46371 0.150913 0
M  V30 10842 C 1033.9 -4.12158 1.201 0
M  V30 10843 C 1033.13 -5.29763 0.647075 0
M  V30 10844 O 1033.35 -5.67911 -0.532307 0
M  V30 10845 O 1032.29 -5.8542 1.3988 0
M  V30 10846 H 1036.11 -2.55596 1.64025 0
M  V30 10847 H 1033.7 -1.22065 0.861417 0
M  V30 10848 H 1035.58 -4.21055 -0.170442 0
M  V30 10849 H 1034.26 -3.15362 -0.729948 0
M  V30 10850 H 1033.16 -3.39332 1.57494 0
M  V30 10851 H 1034.5 -4.47282 2.05426 0
M  V30 10852 N 1036.15 -0.873678 -1.31166 0
M  V30 10853 C 1037.1 -0.321349 -2.3037 0
M  V30 10854 C 1038.09 0.565568 -1.5968 0
M  V30 10855 O 1039.3 0.451257 -1.74252 0
M  V30 10856 H 1035.67 -0.0852425 -0.747153 0
M  V30 10857 H 1037.64 -1.17191 -2.74425 0
M  V30 10858 C 1036.39 0.459016 -3.44657 0
M  V30 10859 H 1035.71 -0.214185 -3.99226 0
M  V30 10860 H 1037.15 0.810758 -4.16176 0
M  V30 10861 C 1035.61 1.65173 -2.93632 0
M  V30 10862 O 1036.14 2.75105 -2.92711 0
M  V30 10863 N 1034.35 1.4851 -2.49786 0
M  V30 10864 H 1033.9 0.590785 -2.50734 0
M  V30 10865 H 1033.85 2.28452 -2.16002 0
M  V30 10866 N 1037.63 1.44308 -0.633487 0
M  V30 10867 C 1038.87 2.01624 -0.138643 0
M  V30 10868 C 1039.2 1.50101 1.24477 0
M  V30 10869 O 1038.47 0.705575 1.82752 0
M  V30 10870 H 1037.05 0.745439 -0.0482636 0
M  V30 10871 H 1039.71 1.76777 -0.820719 0
M  V30 10872 H 1038.8 3.11913 -0.108136 0
M  V30 10873 N 1039.1 0.374177 1.53094 0
M  V30 10874 C 1040.07 -0.455999 2.24618 0
M  V30 10875 C 1041.07 -1.00269 1.25709 0
M  V30 10876 O 1042.26 -0.887077 1.49922 0
M  V30 10877 C 1039.39 -1.63822 2.98957 0
M  V30 10878 H 1040.58 0.169986 2.99418 0
M  V30 10879 H 1038.14 0.126015 1.55791 0
M  V30 10880 H 1038.87 -2.30205 2.28421 0
M  V30 10881 H 1038.66 -1.25308 3.71538 0
M  V30 10882 H 1040.15 -2.22633 3.53305 0
M  V30 10883 N 1040.58 -1.57259 0.103575 0
M  V30 10884 C 1041.51 -2.17509 -0.84923 0
M  V30 10885 C 1042.49 -1.11079 -1.28824 0
M  V30 10886 O 1043.68 -1.39252 -1.35361 0
M  V30 10887 C 1040.81 -2.76221 -2.10522 0
M  V30 10888 C 1039.76 -3.88098 -1.80454 0
M  V30 10889 C 1039.09 -4.33549 -3.12952 0
M  V30 10890 C 1040.39 -5.10909 -1.08486 0
M  V30 10891 H 1042.08 -2.9738 -0.347217 0
M  V30 10892 H 1039.63 -1.43045 -0.165568 0
M  V30 10893 H 1041.58 -3.17024 -2.77621 0
M  V30 10894 H 1040.31 -1.93617 -2.63021 0
M  V30 10895 H 1038.96 -3.47847 -1.15749 0
M  V30 10896 H 1038.61 -3.47825 -3.63355 0
M  V30 10897 H 1038.31 -5.08984 -2.93614 0
M  V30 10898 H 1039.84 -4.76992 -3.81196 0
M  V30 10899 H 1041.25 -5.48828 -1.65711 0
M  V30 10900 H 1039.65 -5.91828 -0.992973 0
M  V30 10901 H 1040.72 -4.84851 -0.0690108 0
M  V30 10902 N 1042.06 0.170153 -1.56679 0
M  V30 10903 C 1043.34 0.913938 -1.72935 0
M  V30 10904 C 1043.72 2.00342 -0.665293 0
M  V30 10905 O 1043.07 2.26252 0.319715 0
M  V30 10906 C 1043.28 1.47761 -3.16177 0
M  V30 10907 C 1044.62 1.95007 -3.7717 0
M  V30 10908 O 1045.65 1.57552 -3.19462 0
M  V30 10909 O 1044.51 2.64007 -4.78501 0
M  V30 10910 H 1041.6 0.43027 -0.706256 0
M  V30 10911 H 1044.15 0.157891 -1.68964 0
M  V30 10912 H 1042.92 0.69352 -3.85105 0
M  V30 10913 H 1042.54 2.2978 -3.24479 0
M  V30 10914 N 1043.54 1.5137 0.438746 0
M  V30 10915 C 1044.76 1.68058 1.21537 0
M  V30 10916 C 1045.19 0.376787 1.84288 0
M  V30 10917 O 1044.55 -0.662911 1.68746 0
M  V30 10918 C 1044.59 2.79684 2.27616 0
M  V30 10919 O 1043.7 2.43189 3.33066 0
M  V30 10920 H 1043.04 0.560408 0.356144 0
M  V30 10921 H 1045.57 1.97926 0.518311 0
M  V30 10922 H 1045.58 3.03726 2.72423 0
M  V30 10923 H 1044.25 3.74293 1.81321 0
M  V30 10924 H 1042.83 2.29713 2.93746 0
M  V30 10925 N 1045.02 -0.694098 1.41492 0
M  V30 10926 C 1046.26 -1.45415 1.40929 0
M  V30 10927 C 1046.59 -1.94491 0.0189301 0
M  V30 10928 O 1045.85 -1.7 -0.96945 0
M  V30 10929 C 1046.15 -2.6805 2.36398 0
M  V30 10930 C 1045.81 -2.37623 3.83205 0
M  V30 10931 C 1044.47 -2.29035 4.23198 0
M  V30 10932 C 1046.83 -2.12555 4.75888 0
M  V30 10933 C 1044.15 -1.93478 5.5388 0
M  V30 10934 C 1046.51 -1.78506 6.06892 0
M  V30 10935 C 1045.17 -1.68415 6.45905 0
M  V30 10936 H 1044.44 -0.53211 0.515694 0
M  V30 10937 H 1047.09 -0.793193 1.74301 0
M  V30 10938 H 1045.39 -3.39086 1.96285 0
M  V30 10939 H 1047.09 -3.26194 2.33234 0
M  V30 10940 H 1043.68 -2.45202 3.51531 0
M  V30 10941 H 1047.86 -2.18133 4.45793 0
M  V30 10942 H 1043.12 -1.84219 5.82986 0
M  V30 10943 H 1047.29 -1.58128 6.7821 0
M  V30 10944 H 1044.92 -1.40631 7.47079 0
M  V30 10945 N 1046.49 -1.27344 -0.928501 0
M  V30 10946 C 1047.42 -1.12517 -2.04602 0
M  V30 10947 C 1048.41 -0.0268563 -1.70079 0
M  V30 10948 O 1049.59 -0.201197 -1.93155 0
M  V30 10949 C 1046.72 -0.770749 -3.3864 0
M  V30 10950 C 1045.67 -1.8222 -3.87272 0
M  V30 10951 C 1045 -1.32178 -5.18105 0
M  V30 10952 C 1046.3 -3.22614 -4.10752 0
M  V30 10953 H 1047.99 -2.06 -2.17265 0
M  V30 10954 H 1045.54 -0.991827 -1.04397 0
M  V30 10955 H 1047.49 -0.653843 -4.16297 0
M  V30 10956 H 1046.22 0.19979 -3.25988 0
M  V30 10957 H 1044.88 -1.928 -3.11807 0
M  V30 10958 H 1044.52 -0.340719 -5.01845 0
M  V30 10959 H 1044.22 -2.02474 -5.51614 0
M  V30 10960 H 1045.75 -1.2178 -5.98333 0
M  V30 10961 H 1047.16 -3.1504 -4.78981 0
M  V30 10962 H 1045.56 -3.90614 -4.55566 0
M  V30 10963 H 1046.63 -3.67727 -3.16077 0
M  V30 10964 N 1047.97 1.13488 -1.09353 0
M  V30 10965 C 1049.39 1.36739 -0.823086 0
M  V30 10966 C 1049.59 1.93476 0.562963 0
M  V30 10967 O 1048.64 2.15374 1.31796 0
M  V30 10968 C 1049.96 2.31943 -1.91371 0
M  V30 10969 C 1051.51 2.4556 -1.94085 0
M  V30 10970 C 1051.98 3.44072 -3.02289 0
M  V30 10971 N 1053.47 3.51622 -3.01524 0
M  V30 10972 C 1054.21 4.27724 -3.8189 0
M  V30 10973 N 1053.7 5.06987 -4.72161 0
M  V30 10974 N 1055.5 4.23018 -3.70152 0
M  V30 10975 H 1047.65 0.75012 -1.98713 0
M  V30 10976 H 1049.91 0.392564 -0.862901 0
M  V30 10977 H 1049.62 1.97408 -2.91072 0
M  V30 10978 H 1049.49 3.31952 -1.79131 0
M  V30 10979 H 1051.88 2.79382 -0.950234 0
M  V30 10980 H 1051.96 1.45479 -2.10403 0
M  V30 10981 H 1051.6 3.10981 -4.01564 0
M  V30 10982 H 1051.53 4.43956 -2.83214 0
M  V30 10983 H 1054.02 2.95066 -2.36103 0
M  V30 10984 H 1054.34 5.6236 -5.30067 0
M  V30 10985 H 1052.68 5.06222 -4.76197 0
M  V30 10986 H 1055.87 3.60171 -2.98989 0
M  V30 10987 H 1056.04 4.82075 -4.33022 0
M  V30 10988 N 1049.45 0.880621 1.30701 0
M  V30 10989 C 1050.38 0.301443 2.27209 0
M  V30 10990 C 1051.4 -0.541533 1.53529 0
M  V30 10991 O 1052.59 -0.361791 1.74795 0
M  V30 10992 C 1049.69 -0.59038 3.33718 0
M  V30 10993 C 1048.86 0.222549 4.36833 0
M  V30 10994 C 1047.92 -0.599083 5.22779 0
M  V30 10995 O 1046.94 -0.0233267 5.69195 0
M  V30 10996 N 1048.15 -1.90904 5.48211 0
M  V30 10997 H 1050.91 1.13083 2.77547 0
M  V30 10998 H 1048.47 0.743168 1.43835 0
M  V30 10999 H 1050.46 -1.14599 3.88135 0
M  V30 11000 H 1049.03 -1.32044 2.83343 0
M  V30 11001 H 1048.25 0.959606 3.82342 0
M  V30 11002 H 1049.54 0.779965 5.02786 0
M  V30 11003 H 1048.94 -2.3998 5.12275 0
M  V30 11004 H 1047.5 -2.4122 6.05521 0
M  V30 11005 N 1050.93 -1.4397 0.641131 0
M  V30 11006 C 1051.88 -2.32495 -0.0698668 0
M  V30 11007 C 1052.87 -1.47922 -0.825555 0
M  V30 11008 O 1054.08 -1.64206 -0.737323 0
M  V30 11009 H 1050.45 -0.750861 -0.0413706 0
M  V30 11010 H 1052.42 -2.90201 0.694682 0
M  V30 11011 C 1051.17 -3.32063 -1.03098 0
M  V30 11012 H 1050.5 -3.97157 -0.458923 0
M  V30 11013 H 1051.94 -3.96664 -1.49778 0
M  V30 11014 C 1050.39 -2.61743 -2.12113 0
M  V30 11015 O 1050.92 -2.42385 -3.20332 0
M  V30 11016 N 1049.13 -2.21316 -1.88328 0
M  V30 11017 H 1048.68 -2.37261 -1.00324 0
M  V30 11018 H 1048.64 -1.74594 -2.61465 0
M  V30 11019 N 1052.41 -0.382291 -1.52893 0
M  V30 11020 C 1053.68 0.259354 -1.93873 0
M  V30 11021 C 1054.06 1.64964 -1.3172 0
M  V30 11022 O 1053.41 2.23345 -0.482611 0
M  V30 11023 C 1053.62 0.292765 -3.4777 0
M  V30 11024 C 1054.97 0.525095 -4.21341 0
M  V30 11025 O 1055.99 0.373272 -3.54239 0
M  V30 11026 O 1054.85 0.822004 -5.40283 0
M  V30 11027 H 1051.95 0.159422 -0.811489 0
M  V30 11028 H 1054.49 -0.436289 -1.63996 0
M  V30 11029 H 1053.27 -0.681341 -3.85323 0
M  V30 11030 H 1052.89 1.03362 -3.8393 0
M  V30 11031 N 1053.89 1.57202 -0.111913 0
M  V30 11032 C 1055.13 1.94565 0.546713 0
M  V30 11033 C 1055.45 0.995644 1.67666 0
M  V30 11034 O 1054.72 0.0506681 1.95834 0
M  V30 11035 H 1053.3 0.718334 0.204951 0
M  V30 11036 H 1055.97 1.94074 -0.179193 0
M  V30 11037 H 1055.06 2.9742 0.945931 0
M  V30 11038 N 1055.36 -0.161842 1.56767 0
M  V30 11039 C 1056.3 -1.22499 1.93718 0
M  V30 11040 C 1057.31 -1.39975 0.831314 0
M  V30 11041 O 1058.5 -1.3981 1.10975 0
M  V30 11042 C 1055.6 -2.59222 2.18306 0
M  V30 11043 C 1054.77 -2.6292 3.4956 0
M  V30 11044 C 1053.83 -3.81074 3.62863 0
M  V30 11045 O 1052.86 -3.66633 4.35395 0
M  V30 11046 N 1054.06 -4.97923 2.98418 0
M  V30 11047 H 1056.82 -0.911043 2.85517 0
M  V30 11048 H 1054.38 -0.351533 1.58038 0
M  V30 11049 H 1056.38 -3.36749 2.24461 0
M  V30 11050 H 1054.95 -2.82969 1.32844 0
M  V30 11051 H 1054.17 -1.71418 3.54978 0
M  V30 11052 H 1055.45 -2.62409 4.35911 0
M  V30 11053 H 1054.85 -5.12557 2.39378 0
M  V30 11054 H 1053.41 -5.73277 3.10155 0
M  V30 11055 N 1056.84 -1.516 -0.430713 0
M  V30 11056 C 1058.09 -1.64596 -1.17959 0
M  V30 11057 C 1058.42 -0.365382 -1.91037 0
M  V30 11058 O 1057.67 0.650826 -1.84561 0
M  V30 11059 C 1057.97 -2.804 -2.21609 0
M  V30 11060 C 1057.64 -4.19431 -1.65495 0
M  V30 11061 C 1056.3 -4.57252 -1.49915 0
M  V30 11062 C 1058.65 -5.0616 -1.24304 0
M  V30 11063 C 1055.98 -5.79501 -0.916276 0
M  V30 11064 C 1058.33 -6.28995 -0.674437 0
M  V30 11065 C 1056.99 -6.65582 -0.505591 0
M  V30 11066 H 1056.26 -0.602301 -0.431642 0
M  V30 11067 H 1058.91 -1.8565 -0.469726 0
M  V30 11068 H 1057.22 -2.53595 -2.98658 0
M  V30 11069 H 1058.91 -2.87654 -2.79385 0
M  V30 11070 H 1055.5 -3.89615 -1.78599 0
M  V30 11071 H 1059.69 -4.77541 -1.35159 0
M  V30 11072 H 1054.94 -6.0649 -0.77328 0
M  V30 11073 H 1059.12 -6.95536 -0.346779 0
M  V30 11074 H 1056.74 -7.60182 -0.0518188 0
M  V30 11075 N 1058.32 0.686584 -1.41858 0
M  V30 11076 C 1059.55 1.47519 -1.45072 0
M  V30 11077 C 1059.96 1.88709 -0.0585868 0
M  V30 11078 O 1059.32 1.57373 0.924116 0
M  V30 11079 C 1059.37 2.73195 -2.36742 0
M  V30 11080 O 1059.09 2.33736 -3.70539 0
M  V30 11081 C 1060.59 3.66861 -2.48854 0
M  V30 11082 H 1057.81 0.454307 -0.493808 0
M  V30 11083 H 1060.36 0.844612 -1.86243 0
M  V30 11084 H 1058.51 3.32468 -1.98856 0
M  V30 11085 H 1058.93 3.14809 -4.19518 0
M  V30 11086 H 1060.4 4.51801 -3.17143 0
M  V30 11087 H 1060.88 4.11961 -1.52265 0
M  V30 11088 H 1061.48 3.13486 -2.87414 0
M  V30 11089 N 1059.8 1.27835 0.921735 0
M  V30 11090 C 1061.04 1.14692 1.67253 0
M  V30 11091 C 1061.38 -0.305384 1.91784 0
M  V30 11092 O 1060.65 -1.22286 1.51249 0
M  V30 11093 C 1060.93 1.93743 3.03539 0
M  V30 11094 C 1060.79 3.46991 2.86212 0
M  V30 11095 C 1062.11 1.74658 4.03959 0
M  V30 11096 H 1059.23 0.418021 0.606983 0
M  V30 11097 H 1061.87 1.5706 1.06922 0
M  V30 11098 H 1060.02 1.57738 3.55037 0
M  V30 11099 H 1061.69 3.92858 2.41785 0
M  V30 11100 H 1059.93 3.73029 2.21432 0
M  V30 11101 H 1060.6 3.97551 3.82958 0
M  V30 11102 H 1063.08 2.06063 3.61493 0
M  V30 11103 H 1061.96 2.32353 4.97296 0
M  V30 11104 H 1062.22 0.696019 4.36587 0
M  V30 11105 N 1061.28 -1.12907 1.09954 0
M  V30 11106 C 1062.52 -1.83661 0.833761 0
M  V30 11107 C 1062.84 -1.84736 -0.642798 0
M  V30 11108 O 1064.04 -2.51437 -1.0243 0
M  V30 11109 C 1062.5 -3.29763 1.44168 0
M  V30 11110 C 1062.11 -3.3706 2.95118 0
M  V30 11111 C 1063.85 -4.05522 1.25509 0
M  V30 11112 C 1061.76 -4.77467 3.48969 0
M  V30 11113 H 1060.69 -0.688115 0.308242 0
M  V30 11114 H 1063.34 -1.27166 1.32291 0
M  V30 11115 H 1061.72 -3.86094 0.880215 0
M  V30 11116 H 1062.9 -2.90695 3.57537 0
M  V30 11117 H 1061.21 -2.7477 3.12874 0
M  V30 11118 H 1063.81 -5.09188 1.63191 0
M  V30 11119 H 1064.15 -4.15837 0.196208 0
M  V30 11120 H 1064.68 -3.55536 1.78435 0
M  V30 11121 H 1061.42 -4.72344 4.54501 0
M  V30 11122 H 1060.94 -5.24305 2.91315 0
M  V30 11123 H 1062.62 -5.46397 3.46495 0
M  V30 11124 N 1062.75 -0.88754 -1.30232 0
M  V30 11125 C 1063.69 -0.313488 -2.27046 0
M  V30 11126 C 1064.7 0.533383 -1.53814 0
M  V30 11127 O 1065.89 0.352516 -1.74984 0
M  V30 11128 C 1062.99 0.572674 -3.34026 0
M  V30 11129 C 1062.16 -0.245712 -4.36709 0
M  V30 11130 C 1061.22 0.57135 -5.23089 0
M  V30 11131 O 1060.25 -0.00685948 -5.692 0
M  V30 11132 N 1061.45 1.87994 -5.49216 0
M  V30 11133 H 1064.21 -1.14553 -2.76943 0
M  V30 11134 H 1061.77 -0.750785 -1.43439 0
M  V30 11135 H 1063.77 1.12539 -3.88738 0
M  V30 11136 H 1062.34 1.3054 -2.84039 0
M  V30 11137 H 1061.56 -0.979869 -3.81827 0
M  V30 11138 H 1062.84 -0.806618 -5.02366 0
M  V30 11139 H 1062.24 2.3726 -5.13541 0
M  V30 11140 H 1060.8 2.38005 -6.06792 0
M  V30 11141 N 1064.23 1.43628 -0.648757 0
M  V30 11142 C 1065.16 2.33478 0.0320785 0
M  V30 11143 C 1066.14 1.49217 0.816605 0
M  V30 11144 O 1067.33 1.77892 0.778974 0
M  V30 11145 C 1064.46 3.32525 1.00222 0
M  V30 11146 C 1063.41 4.2674 0.328119 0
M  V30 11147 C 1062.74 5.15791 1.4094 0
M  V30 11148 C 1064.04 5.16493 -0.776701 0
M  V30 11149 H 1065.73 2.90657 -0.718257 0
M  V30 11150 H 1063.28 1.3976 -0.346852 0
M  V30 11151 H 1065.23 3.94277 1.4874 0
M  V30 11152 H 1063.96 2.73593 1.78366 0
M  V30 11153 H 1062.61 3.66346 -0.136569 0
M  V30 11154 H 1062.26 4.53201 2.18216 0
M  V30 11155 H 1061.96 5.79645 0.963631 0
M  V30 11156 H 1063.49 5.80416 1.89603 0
M  V30 11157 H 1064.9 5.7208 -0.373878 0
M  V30 11158 H 1063.3 5.89043 -1.14667 0
M  V30 11159 H 1064.37 4.56448 -1.63654 0
M  V30 11160 N 1065.71 0.390394 1.52688 0
M  V30 11161 C 1066.96 -0.191729 2.01892 0
M  V30 11162 C 1067.29 -1.4637 1.27631 0
M  V30 11163 O 1066.56 -1.90809 0.377094 0
M  V30 11164 C 1066.85 -0.458535 3.57169 0
M  V30 11165 C 1066.7 0.828796 4.42098 0
M  V30 11166 C 1068.02 -1.2487 4.22014 0
M  V30 11167 H 1065.14 -0.0682091 0.733837 0
M  V30 11168 H 1067.78 0.520176 1.82741 0
M  V30 11169 H 1065.93 -1.06498 3.73618 0
M  V30 11170 H 1067.6 1.46562 4.37398 0
M  V30 11171 H 1065.85 1.44388 4.09066 0
M  V30 11172 H 1066.52 0.596746 5.48765 0
M  V30 11173 H 1068.99 -0.735452 4.09549 0
M  V30 11174 H 1067.87 -1.40412 5.30637 0
M  V30 11175 H 1068.13 -2.2642 3.79719 0
M  V30 11176 N 1067.19 -1.57141 0.120249 0
M  V30 11177 C 1068.44 -1.94852 -0.536387 0
M  V30 11178 C 1068.76 -1.00452 -1.67136 0
M  V30 11179 O 1068.03 -0.061053 -1.95805 0
M  V30 11180 H 1066.61 -0.719411 -0.201138 0
M  V30 11181 H 1069.27 -1.93977 0.189482 0
M  V30 11182 H 1068.37 -2.97917 -0.930145 0
M  V30 11183 N 1068.67 0.153526 -1.5685 0
M  V30 11184 C 1069.6 1.21906 -1.9291 0
M  V30 11185 C 1070.58 1.4189 -0.794098 0
M  V30 11186 O 1071.76 1.56609 -1.0491 0
M  V30 11187 C 1068.89 2.57908 -2.19548 0
M  V30 11188 C 1067.93 2.54557 -3.42203 0
M  V30 11189 S 1068.77 2.01891 -4.95984 0
M  V30 11190 C 1069.92 3.39635 -5.25737 0
M  V30 11191 H 1070.16 0.911382 -2.82986 0
M  V30 11192 H 1067.69 0.358863 -1.50172 0
M  V30 11193 H 1069.65 3.36177 -2.35575 0
M  V30 11194 H 1068.31 2.85868 -1.30147 0
M  V30 11195 H 1067.5 3.54657 -3.58098 0
M  V30 11196 H 1067.1 1.84393 -3.25385 0
M  V30 11197 H 1069.4 4.35716 -5.18804 0
M  V30 11198 H 1070.34 3.28599 -6.27239 0
M  V30 11199 H 1070.75 3.36469 -4.53265 0
M  V30 11200 N 1070.14 1.51827 0.422667 0
M  V30 11201 C 1071.07 1.77152 1.52117 0
M  V30 11202 C 1072.06 0.621895 1.58324 0
M  V30 11203 O 1073.24 0.866118 1.73816 0
M  V30 11204 C 1070.37 1.90991 2.90068 0
M  V30 11205 C 1069.32 3.06516 2.98717 0
M  V30 11206 C 1068.65 3.05559 4.38791 0
M  V30 11207 C 1069.95 4.46223 2.71445 0
M  V30 11208 H 1071.64 2.69135 1.31175 0
M  V30 11209 H 1069.19 1.29507 0.629607 0
M  V30 11210 H 1071.14 2.07291 3.6689 0
M  V30 11211 H 1069.87 0.956688 3.12274 0
M  V30 11212 H 1068.53 2.89945 2.24338 0
M  V30 11213 H 1068.17 2.07985 4.57986 0
M  V30 11214 H 1067.87 3.83144 4.45505 0
M  V30 11215 H 1069.4 3.23971 5.17566 0
M  V30 11216 H 1070.81 4.63069 3.37994 0
M  V30 11217 H 1069.21 5.25623 2.89552 0
M  V30 11218 H 1070.28 4.5525 1.6696 0
M  V30 11219 N 1071.62 -0.679052 1.4222 0
M  V30 11220 C 1073.04 -0.991665 1.25053 0
M  V30 11221 C 1073.24 -2.00928 0.151665 0
M  V30 11222 O 1072.29 -2.47925 -0.478507 0
M  V30 11223 C 1073.61 -1.50053 2.60585 0
M  V30 11224 C 1075.16 -1.61852 2.67905 0
M  V30 11225 C 1075.63 -2.16135 4.03794 0
M  V30 11226 N 1077.12 -2.23474 4.05726 0
M  V30 11227 C 1077.86 -2.66541 5.07685 0
M  V30 11228 N 1077.35 -3.09092 6.20028 0
M  V30 11229 N 1079.15 -2.66252 4.95042 0
M  V30 11230 H 1071.3 -0.00521851 2.12399 0
M  V30 11231 H 1073.56 -0.0648465 0.94578 0
M  V30 11232 H 1073.27 -0.82731 3.41831 0
M  V30 11233 H 1073.14 -2.47998 2.84213 0
M  V30 11234 H 1075.53 -2.28281 1.87008 0
M  V30 11235 H 1075.61 -0.624074 2.4807 0
M  V30 11236 H 1075.25 -1.50316 4.85147 0
M  V30 11237 H 1075.18 -3.16363 4.20978 0
M  V30 11238 H 1077.67 -1.93467 3.24621 0
M  V30 11239 H 1077.99 -3.40627 6.93681 0
M  V30 11240 H 1076.33 -3.06959 6.23539 0
M  V30 11241 H 1079.52 -2.32369 4.06352 0
M  V30 11242 H 1079.69 -2.99496 5.74636 0
M  V30 11243 N 1073.1 -1.28322 -0.914942 0
M  V30 11244 C 1074.35 -1.15179 -1.66067 0
M  V30 11245 C 1074.67 0.300279 -1.92674 0
M  V30 11246 O 1073.94 1.20821 -1.54205 0
M  V30 11247 H 1072.52 -0.423264 -0.615513 0
M  V30 11248 H 1075.18 -1.61034 -1.09791 0
M  V30 11249 H 1074.28 -1.69048 -2.62353 0
M  V30 11250 N 1074.58 1.12322 -1.10551 0
M  V30 11251 C 1075.83 1.83216 -0.84349 0
M  V30 11252 C 1076.14 1.85075 0.632992 0
M  V30 11253 O 1077.35 2.51976 1.01095 0
M  V30 11254 C 1075.8 3.28994 -1.45915 0
M  V30 11255 C 1075.41 3.3549 -2.96901 0
M  V30 11256 C 1077.15 4.0485 -1.27657 0
M  V30 11257 C 1075.06 4.7561 -3.51496 0
M  V30 11258 H 1073.99 0.686471 -0.311887 0
M  V30 11259 H 1076.64 1.26463 -1.32964 0
M  V30 11260 H 1075.02 3.85621 -0.900678 0
M  V30 11261 H 1076.2 2.88795 -3.59074 0
M  V30 11262 H 1074.51 2.73107 -3.14327 0
M  V30 11263 H 1077.11 5.08316 -1.65889 0
M  V30 11264 H 1077.45 4.15727 -0.218258 0
M  V30 11265 H 1077.99 3.54584 -1.80318 0
M  V30 11266 H 1074.73 4.69927 -4.56999 0
M  V30 11267 H 1074.25 5.22753 -2.94091 0
M  V30 11268 H 1075.92 5.44552 -3.49388 0
M  V30 11269 N 1076.06 0.894434 1.2976 0
M  V30 11270 C 1077.02 0.373094 2.26143 0
M  V30 11271 C 1078.02 -0.489756 1.5316 0
M  V30 11272 O 1079.21 -0.29556 1.71674 0
M  V30 11273 C 1076.34 -0.467234 3.37683 0
M  V30 11274 H 1077.53 1.22427 2.73773 0
M  V30 11275 H 1075.09 0.672112 1.41111 0
M  V30 11276 H 1075.82 -1.33861 2.95384 0
M  V30 11277 H 1075.61 0.150954 3.91809 0
M  V30 11278 H 1077.1 -0.823469 4.094 0
M  V30 11279 N 1077.53 -1.43282 0.656365 0
M  V30 11280 C 1078.5 -2.29188 -0.0239173 0
M  V30 11281 C 1079.5 -1.42373 -0.747436 0
M  V30 11282 O 1080.69 -1.63969 -0.588213 0
M  V30 11283 C 1077.82 -3.24501 -1.0446 0
M  V30 11284 H 1079.01 -2.9083 0.731978 0
M  V30 11285 H 1076.57 -1.50614 0.417752 0
M  V30 11286 H 1077.3 -2.6776 -1.82962 0
M  V30 11287 H 1077.09 -3.88509 -0.52942 0
M  V30 11288 H 1078.58 -3.88971 -1.51958 0
M  V30 11289 N 1079.01 -0.398486 -1.52479 0
M  V30 11290 C 1080.26 0.180394 -2.01293 0
M  V30 11291 C 1080.58 1.46548 -1.28641 0
M  V30 11292 O 1079.85 1.91579 -0.409173 0
M  V30 11293 H 1078.43 0.0696528 -0.743746 0
M  V30 11294 H 1081.09 -0.532285 -1.87491 0
M  V30 11295 H 1080.19 0.38409 -3.09728 0
M  V30 11296 N 1080.49 1.57075 -0.12858 0
M  V30 11297 C 1081.42 2.11553 0.855593 0
M  V30 11298 C 1082.4 1.03435 1.25459 0
M  V30 11299 O 1083.59 1.3115 1.35395 0
M  V30 11300 C 1080.71 2.62012 2.14633 0
M  V30 11301 C 1079.76 3.82105 1.89467 0
M  V30 11302 S 1080.59 5.24033 1.10228 0
M  V30 11303 C 1081.75 5.77867 2.4046 0
M  V30 11304 H 1081.98 2.94701 0.392248 0
M  V30 11305 H 1079.51 1.54164 0.0853746 0
M  V30 11306 H 1081.47 2.91737 2.8879 0
M  V30 11307 H 1080.13 1.79029 2.58084 0
M  V30 11308 H 1079.33 4.15592 2.8513 0
M  V30 11309 H 1078.93 3.53047 1.23427 0
M  V30 11310 H 1081.22 5.88175 3.36238 0
M  V30 11311 H 1082.16 6.75775 2.11504 0
M  V30 11312 H 1082.57 5.05991 2.50266 0
M  V30 11313 N 1081.97 -0.145205 1.5693 0
M  V30 11314 C 1082.92 -1.17923 1.98401 0
M  V30 11315 C 1083.89 -1.42591 0.851885 0
M  V30 11316 O 1085.07 -1.54896 1.11409 0
M  V30 11317 C 1082.21 -2.50727 2.37128 0
M  V30 11318 C 1081.32 -2.33218 3.63639 0
M  V30 11319 C 1080.46 -3.5907 3.91462 0
M  V30 11320 C 1079.5 -3.36605 5.11237 0
M  V30 11321 N 1078.64 -4.54592 5.35061 0
M  V30 11322 H 1083.48 -0.818573 2.86537 0
M  V30 11323 H 1081.01 -0.392739 1.4176 0
M  V30 11324 H 1082.97 -3.28165 2.57611 0
M  V30 11325 H 1081.6 -2.84736 1.52069 0
M  V30 11326 H 1080.65 -1.46826 3.50922 0
M  V30 11327 H 1081.96 -2.12579 4.51234 0
M  V30 11328 H 1081.12 -4.44936 4.12453 0
M  V30 11329 H 1079.86 -3.82715 3.02293 0
M  V30 11330 H 1078.86 -2.49127 4.90118 0
M  V30 11331 H 1080.09 -3.14357 6.01961 0
M  V30 11332 H 1078.03 -4.78406 4.48847 0
M  V30 11333 H 1077.95 -4.36962 6.16928 0
M  V30 11334 H 1079.22 -5.41666 5.60551 0
M  V30 11335 N 1083.45 -1.52049 -0.414609 0
M  V30 11336 C 1084.68 -1.69433 -1.18221 0
M  V30 11337 C 1085.09 -0.40104 -1.84901 0
M  V30 11338 O 1084.43 0.632342 -1.72474 0
M  V30 11339 C 1084.49 -2.76986 -2.2917 0
M  V30 11340 C 1084.15 -4.18903 -1.82671 0
M  V30 11341 C 1085.15 -5.02929 -1.31751 0
M  V30 11342 C 1082.84 -4.65113 -1.89672 0
M  V30 11343 C 1084.83 -6.31234 -0.884461 0
M  V30 11344 C 1082.52 -5.93408 -1.45978 0
M  V30 11345 C 1083.52 -6.76297 -0.9545 0
M  V30 11346 O 1083.2 -8.02191 -0.523852 0
M  V30 11347 H 1082.94 -0.571228 -0.36149 0
M  V30 11348 H 1085.49 -1.99355 -0.494643 0
M  V30 11349 H 1083.72 -2.42428 -3.01273 0
M  V30 11350 H 1085.41 -2.83023 -2.90951 0
M  V30 11351 H 1086.17 -4.68422 -1.2572 0
M  V30 11352 H 1082.05 -4.00702 -2.27945 0
M  V30 11353 H 1085.6 -6.95881 -0.489383 0
M  V30 11354 H 1081.49 -6.27424 -1.51687 0
M  V30 11355 H 1082.26 -8.15934 -0.647656 0
M  V30 11356 N 1084.93 0.6715 -1.42579 0
M  V30 11357 C 1085.86 1.79693 -1.49107 0
M  V30 11358 C 1086.84 1.66516 -0.347338 0
M  V30 11359 O 1088.02 1.85887 -0.562094 0
M  V30 11360 C 1085.15 3.1801 -1.39596 0
M  V30 11361 C 1084.11 3.45926 -2.5203 0
M  V30 11362 C 1083.43 4.83852 -2.27577 0
M  V30 11363 C 1084.73 3.4249 -3.94333 0
M  V30 11364 H 1086.43 1.74486 -2.433 0
M  V30 11365 H 1083.97 0.838042 -1.17102 0
M  V30 11366 H 1085.92 3.96478 -1.42771 0
M  V30 11367 H 1084.65 3.23901 -0.418989 0
M  V30 11368 H 1083.31 2.6982 -2.48178 0
M  V30 11369 H 1082.96 4.86398 -1.28165 0
M  V30 11370 H 1082.66 5.03493 -3.02934 0
M  V30 11371 H 1084.18 5.646 -2.32506 0
M  V30 11372 H 1085.59 4.10922 -3.9977 0
M  V30 11373 H 1083.99 3.73666 -4.69568 0
M  V30 11374 H 1085.06 2.41002 -4.20768 0
M  V30 11375 N 1086.4 1.28806 0.908124 0
M  V30 11376 C 1087.37 1.13228 1.99279 0
M  V30 11377 C 1088.37 0.0702456 1.60646 0
M  V30 11378 O 1089.56 0.316494 1.71301 0
M  V30 11379 C 1086.69 0.729629 3.33 0
M  V30 11380 H 1087.88 2.09566 2.14528 0
M  V30 11381 H 1085.43 1.11872 1.09153 0
M  V30 11382 H 1086.17 -0.234268 3.23453 0
M  V30 11383 H 1085.95 1.49688 3.62403 0
M  V30 11384 H 1087.44 0.643449 4.12613 0
M  V30 11385 N 1087.88 -1.11734 1.11145 0
M  V30 11386 C 1088.79 -2.21267 0.779607 0
M  V30 11387 C 1089.81 -1.72526 -0.225986 0
M  V30 11388 O 1090.98 -2.01302 -0.0629166 0
M  V30 11389 C 1088.05 -3.45973 0.22435 0
M  V30 11390 C 1087.11 -4.09518 1.28816 0
M  V30 11391 C 1086.34 -5.28271 0.7593 0
M  V30 11392 O 1086.57 -5.68912 -0.411725 0
M  V30 11393 O 1085.5 -5.82322 1.52266 0
M  V30 11394 H 1089.33 -2.5206 1.6941 0
M  V30 11395 H 1086.91 -1.20211 0.887115 0
M  V30 11396 H 1088.79 -4.21322 -0.0810921 0
M  V30 11397 H 1087.47 -3.1684 -0.662891 0
M  V30 11398 H 1086.37 -3.35915 1.64657 0
M  V30 11399 H 1087.71 -4.42824 2.14868 0
M  V30 11400 N 1089.36 -0.901303 -1.29284 0
M  V30 11401 C 1090.29 -0.32479 -2.25877 0
M  V30 11402 C 1091.27 0.563944 -1.52507 0
M  V30 11403 O 1092.45 0.510393 -1.81459 0
M  V30 11404 C 1089.58 0.536897 -3.34418 0
M  V30 11405 C 1088.63 -0.28474 -4.25548 0
M  V30 11406 S 1089.46 -1.68355 -5.08347 0
M  V30 11407 C 1090.62 -0.828826 -6.20388 0
M  V30 11408 H 1090.85 -1.14352 -2.74428 0
M  V30 11409 H 1088.38 -0.701749 -1.37531 0
M  V30 11410 H 1090.34 1.02827 -3.97413 0
M  V30 11411 H 1089 1.32988 -2.84558 0
M  V30 11412 H 1088.19 0.373566 -5.02614 0
M  V30 11413 H 1087.8 -0.709313 -3.67212 0
M  V30 11414 H 1090.09 -0.0529234 -6.77479 0
M  V30 11415 H 1091.03 -1.57161 -6.90439 0
M  V30 11416 H 1091.44 -0.382503 -5.63203 0
M  V30 11417 N 1090.84 1.42931 -0.663954 0
M  V30 11418 C 1091.79 2.32577 0.03287 0
M  V30 11419 C 1092.78 1.49217 0.801918 0
M  V30 11420 O 1093.99 1.65358 0.711106 0
M  V30 11421 H 1090.36 0.751424 0.0294198 0
M  V30 11422 H 1092.33 2.89059 -0.740763 0
M  V30 11423 C 1091.08 3.33661 0.978025 0
M  V30 11424 H 1090.4 3.97837 0.395681 0
M  V30 11425 H 1091.84 3.98997 1.43448 0
M  V30 11426 C 1090.3 2.65085 2.07922 0
M  V30 11427 O 1090.83 2.4745 3.16435 0
M  V30 11428 N 1089.04 2.24285 1.84783 0
M  V30 11429 H 1088.59 2.38827 0.965368 0
M  V30 11430 H 1088.54 1.78732 2.58655 0
M  V30 11431 N 1092.32 0.406567 1.52266 0
M  V30 11432 C 1093.55 -0.169378 2.05905 0
M  V30 11433 C 1093.95 -1.39626 1.27676 0
M  V30 11434 O 1093.3 -1.80871 0.32114 0
M  V30 11435 C 1093.36 -0.587209 3.54672 0
M  V30 11436 C 1093.02 0.528588 4.53933 0
M  V30 11437 C 1094.02 1.39137 5.00936 0
M  V30 11438 C 1091.7 0.700549 4.97391 0
M  V30 11439 C 1093.7 2.41108 5.90039 0
M  V30 11440 C 1091.39 1.72357 5.8629 0
M  V30 11441 C 1092.38 2.57725 6.32509 0
M  V30 11442 O 1092.07 3.58275 7.19649 0
M  V30 11443 H 1091.8 -0.0250574 0.675535 0
M  V30 11444 H 1094.36 0.575377 1.97177 0
M  V30 11445 H 1092.59 -1.38421 3.61077 0
M  V30 11446 H 1094.28 -1.09078 3.90969 0
M  V30 11447 H 1095.04 1.26991 4.68079 0
M  V30 11448 H 1090.92 0.0457503 4.60977 0
M  V30 11449 H 1094.47 3.07774 6.26036 0
M  V30 11450 H 1090.36 1.84535 6.1856 0
M  V30 11451 H 1091.13 3.54489 7.37753 0
M  V30 11452 N 1093.79 -1.57004 0.136909 0
M  V30 11453 C 1095.04 -1.96087 -0.517477 0
M  V30 11454 C 1095.37 -1.0213 -1.65176 0
M  V30 11455 O 1094.65 -0.0617958 -1.94402 0
M  V30 11456 C 1094.93 -3.44958 -1.03323 0
M  V30 11457 C 1094.78 -4.49691 0.0988609 0
M  V30 11458 C 1096.1 -3.96091 -1.91832 0
M  V30 11459 H 1093.22 -0.712978 -0.186632 0
M  V30 11460 H 1095.86 -1.88767 0.216095 0
M  V30 11461 H 1094.01 -3.51327 -1.65836 0
M  V30 11462 H 1095.69 -4.55409 0.734847 0
M  V30 11463 H 1093.93 -4.271 0.75947 0
M  V30 11464 H 1094.6 -5.51165 -0.303554 0
M  V30 11465 H 1097.08 -3.92139 -1.39164 0
M  V30 11466 H 1095.95 -5.00742 -2.24831 0
M  V30 11467 H 1096.21 -3.37846 -2.85153 0
M  V30 11468 N 1095.27 0.136881 -1.57004 0
M  V30 11469 C 1096.22 1.17411 -1.95445 0
M  V30 11470 C 1097.21 1.38019 -0.827015 0
M  V30 11471 O 1098.4 1.39412 -1.09057 0
M  V30 11472 C 1095.53 2.50525 -2.34717 0
M  V30 11473 C 1094.61 2.33467 -3.54054 0
M  V30 11474 N 1095 1.86184 -4.70286 0
M  V30 11475 C 1093.3 2.64185 -3.59336 0
M  V30 11476 C 1094 1.82411 -5.5236 0
M  V30 11477 N 1092.98 2.26098 -4.94349 0
M  V30 11478 H 1096.78 0.8008 -2.8278 0
M  V30 11479 H 1094.3 0.344831 -1.58697 0
M  V30 11480 H 1096.29 3.2552 -2.60465 0
M  V30 11481 H 1094.95 2.8863 -1.48738 0
M  V30 11482 H 1095.96 1.55998 -4.93847 0
M  V30 11483 H 1092.64 3.06096 -2.83922 0
M  V30 11484 H 1094.03 1.4726 -6.55564 0
M  V30 11485 N 1096.75 1.52266 0.40654 0
M  V30 11486 C 1098.17 1.41127 0.745348 0
M  V30 11487 C 1098.37 0.517802 1.94733 0
M  V30 11488 O 1097.42 -0.0154286 2.52495 0
M  V30 11489 C 1098.74 2.83696 0.996859 0
M  V30 11490 C 1100.28 2.93056 1.09942 0
M  V30 11491 C 1100.76 4.36599 1.38367 0
M  V30 11492 N 1102.25 4.39845 1.45226 0
M  V30 11493 C 1102.98 5.47975 1.68852 0
M  V30 11494 N 1102.48 6.66219 1.90065 0
M  V30 11495 N 1104.27 5.35494 1.70888 0
M  V30 11496 H 1096.42 2.08888 -0.384632 0
M  V30 11497 H 1098.69 0.941619 -0.109809 0
M  V30 11498 H 1098.39 3.51208 0.185986 0
M  V30 11499 H 1098.27 3.24895 1.91632 0
M  V30 11500 H 1100.65 2.25723 1.90088 0
M  V30 11501 H 1100.74 2.5531 0.158256 0
M  V30 11502 H 1100.38 5.04492 0.587373 0
M  V30 11503 H 1100.31 4.71883 2.33739 0
M  V30 11504 H 1102.8 3.54611 1.30612 0
M  V30 11505 H 1103.11 7.44408 2.0755 0
M  V30 11506 H 1101.46 6.69279 1.87325 0
M  V30 11507 H 1104.65 4.42093 1.53856 0
M  V30 11508 H 1104.82 6.19837 1.88962 0
M  V30 11509 N 1098.23 -0.663929 1.42933 0
M  V30 11510 C 1099.51 -1.42054 1.34462 0
M  V30 11511 C 1099.89 -2.11096 -0.0127801 0
M  V30 11512 O 1099.23 -2.04027 -1.02884 0
M  V30 11513 C 1099.44 -2.41406 2.5204 0
M  V30 11514 C 1100.79 -3.05726 2.94647 0
M  V30 11515 O 1101.82 -2.51733 2.52009 0
M  V30 11516 O 1100.67 -4.03593 3.68477 0
M  V30 11517 H 1097.77 -0.634149 0.530834 0
M  V30 11518 H 1100.31 -0.691738 1.54962 0
M  V30 11519 H 1099.09 -1.89263 3.42484 0
M  V30 11520 H 1098.71 -3.21752 2.33584 0
M  V30 11521 N 1099.71 -1.29285 -0.901281 0
M  V30 11522 C 1100.64 -1.16832 -2.0217 0
M  V30 11523 C 1101.62 -0.0629265 -1.69984 0
M  V30 11524 O 1102.8 -0.242123 -1.92685 0
M  V30 11525 C 1099.93 -0.842406 -3.36929 0
M  V30 11526 C 1098.89 -1.90394 -3.8332 0
M  V30 11527 C 1098.21 -1.43138 -5.15185 0
M  V30 11528 C 1099.51 -3.31254 -4.03817 0
M  V30 11529 H 1101.21 -2.10562 -2.12847 0
M  V30 11530 H 1098.75 -1.01375 -1.0227 0
M  V30 11531 H 1100.71 -0.741999 -4.14816 0
M  V30 11532 H 1099.43 0.130598 -3.26339 0
M  V30 11533 H 1098.09 -1.99371 -3.07647 0
M  V30 11534 H 1097.74 -0.447091 -5.01009 0
M  V30 11535 H 1097.44 -2.14129 -5.47195 0
M  V30 11536 H 1098.96 -1.34444 -5.95615 0
M  V30 11537 H 1100.37 -3.25129 -4.72191 0
M  V30 11538 H 1098.77 -4.00189 -4.47178 0
M  V30 11539 H 1099.84 -3.74349 -3.08206 0
M  V30 11540 N 1101.18 1.11143 -1.11736 0
M  V30 11541 C 1102.15 2.15456 -0.78174 0
M  V30 11542 C 1103.15 1.59547 0.200383 0
M  V30 11543 O 1104.34 1.74183 -0.0244893 0
M  V30 11544 C 1101.47 3.40523 -0.160364 0
M  V30 11545 H 1102.66 2.46658 -1.70586 0
M  V30 11546 H 1100.22 1.26381 -0.919644 0
M  V30 11547 H 1100.95 3.14932 0.773835 0
M  V30 11548 H 1100.74 3.82386 -0.867378 0
M  V30 11549 H 1102.23 4.17559 0.0582175 0
M  V30 11550 N 1102.66 0.908147 1.28804 0
M  V30 11551 C 1103.63 0.397058 2.25735 0
M  V30 11552 C 1104.63 -0.473483 1.53671 0
M  V30 11553 O 1105.82 -0.277335 1.71978 0
M  V30 11554 C 1102.95 -0.431392 3.38159 0
M  V30 11555 H 1104.14 1.25323 2.72459 0
M  V30 11556 H 1101.69 0.687041 1.4039 0
M  V30 11557 H 1102.43 -1.3072 2.96787 0
M  V30 11558 H 1102.21 0.192502 3.91627 0
M  V30 11559 H 1103.7 -0.78 4.10251 0
M  V30 11560 N 1104.14 -1.42577 0.671525 0
M  V30 11561 C 1105.56 -1.5592 0.340769 0
M  V30 11562 C 1105.76 -1.65179 -1.15405 0
M  V30 11563 O 1104.81 -1.61691 -1.93939 0
M  V30 11564 C 1106.13 -2.81087 1.06821 0
M  V30 11565 C 1107.67 -2.94855 1.05022 0
M  V30 11566 C 1108.15 -4.22878 1.75892 0
M  V30 11567 N 1109.64 -4.29783 1.72744 0
M  V30 11568 C 1110.37 -5.2765 2.24439 0
M  V30 11569 N 1109.87 -6.31689 2.84501 0
M  V30 11570 N 1111.66 -5.19426 2.14832 0
M  V30 11571 H 1103.81 -1.34811 1.64133 0
M  V30 11572 H 1106.08 -0.648704 0.691294 0
M  V30 11573 H 1105.78 -2.80371 2.12332 0
M  V30 11574 H 1105.66 -3.71879 0.631356 0
M  V30 11575 H 1108.04 -2.951 0.00345633 0
M  V30 11576 H 1108.13 -2.05303 1.52592 0
M  V30 11577 H 1107.77 -4.23394 2.80535 0
M  V30 11578 H 1107.7 -5.1136 1.25773 0
M  V30 11579 H 1110.19 -3.55225 1.28932 0
M  V30 11580 H 1110.5 -7.02715 3.21575 0
M  V30 11581 H 1108.85 -6.3226 2.88569 0
M  V30 11582 H 1112.04 -4.37067 1.676 0
M  V30 11583 H 1112.21 -5.95535 2.55426 0
M  V30 11584 N 1105.62 -0.414636 -1.52048 0
M  V30 11585 C 1106.57 0.422766 -2.28726 0
M  V30 11586 C 1107.56 1.04099 -1.3364 0
M  V30 11587 O 1108.77 0.978559 -1.51077 0
M  V30 11588 H 1105.14 0.155123 -0.735827 0
M  V30 11589 H 1107.11 -0.245091 -2.97392 0
M  V30 11590 C 1105.86 1.52418 -3.12513 0
M  V30 11591 H 1105.18 1.05781 -3.85552 0
M  V30 11592 H 1106.62 2.08382 -3.6926 0
M  V30 11593 C 1105.08 2.49465 -2.26426 0
M  V30 11594 O 1105.61 3.53479 -1.90829 0
M  V30 11595 N 1103.82 2.19806 -1.90088 0
M  V30 11596 H 1103.37 1.35253 -2.19236 0
M  V30 11597 H 1103.32 2.84984 -1.32783 0
M  V30 11598 N 1107.1 1.56929 -0.145233 0
M  V30 11599 C 1108.35 1.95243 0.506273 0
M  V30 11600 C 1108.66 1.0325 1.66129 0
M  V30 11601 O 1109.86 1.31135 2.37731 0
M  V30 11602 C 1108.32 3.47079 0.952042 0
M  V30 11603 C 1107.93 4.47654 -0.175947 0
M  V30 11604 C 1109.67 3.94263 1.57344 0
M  V30 11605 C 1107.58 5.90698 0.287993 0
M  V30 11606 H 1106.51 0.728906 0.192903 0
M  V30 11607 H 1109.16 1.82062 -0.229295 0
M  V30 11608 H 1107.54 3.55587 1.74282 0
M  V30 11609 H 1108.72 4.50841 -0.952848 0
M  V30 11610 H 1107.03 4.10377 -0.70564 0
M  V30 11611 H 1109.63 4.9857 1.93214 0
M  V30 11612 H 1109.97 3.35714 2.46174 0
M  V30 11613 H 1110.5 3.88665 0.847593 0
M  V30 11614 H 1107.24 6.53061 -0.564889 0
M  V30 11615 H 1106.76 5.90876 1.03081 0
M  V30 11616 H 1108.44 6.42747 0.740586 0
M  V30 11617 N 1108.58 -0.128553 1.57075 0
M  V30 11618 C 1109.51 -1.15953 2.02675 0
M  V30 11619 C 1110.49 -1.43743 0.909501 0
M  V30 11620 O 1111.67 -1.54348 1.17857 0
M  V30 11621 C 1108.8 -2.48813 2.423 0
M  V30 11622 C 1107.76 -2.35506 3.57381 0
M  V30 11623 C 1107.08 -3.73243 3.82875 0
M  V30 11624 C 1108.38 -1.82359 4.89431 0
M  V30 11625 H 1110.08 -0.780283 2.89054 0
M  V30 11626 H 1107.62 -0.373896 1.39061 0
M  V30 11627 H 1109.57 -3.21179 2.72804 0
M  V30 11628 H 1108.3 -2.88609 1.52881 0
M  V30 11629 H 1106.96 -1.6559 3.27071 0
M  V30 11630 H 1106.61 -4.10507 2.90677 0
M  V30 11631 H 1106.31 -3.65195 4.60333 0
M  V30 11632 H 1107.83 -4.47128 4.15823 0
M  V30 11633 H 1109.24 -2.44533 5.18533 0
M  V30 11634 H 1107.64 -1.85156 5.70822 0
M  V30 11635 H 1108.71 -0.780478 4.78578 0
M  V30 11636 N 1110.05 -1.5248 -0.398459 0
M  V30 11637 C 1111.3 -1.67309 -1.1461 0
M  V30 11638 C 1111.63 -0.407095 -1.89885 0
M  V30 11639 O 1110.91 0.594834 -1.85181 0
M  V30 11640 C 1111.19 -2.90204 -2.13198 0
M  V30 11641 C 1111.04 -4.26881 -1.4175 0
M  V30 11642 C 1112.36 -3.08634 -3.13741 0
M  V30 11643 H 1109.48 -0.608853 -0.415292 0
M  V30 11644 H 1112.12 -1.85057 -0.430573 0
M  V30 11645 H 1110.27 -2.75204 -2.74218 0
M  V30 11646 H 1111.95 -4.53631 -0.837676 0
M  V30 11647 H 1110.19 -4.27793 -0.719387 0
M  V30 11648 H 1110.86 -5.08939 -2.1374 0
M  V30 11649 H 1113.34 -3.22603 -2.62805 0
M  V30 11650 H 1112.21 -3.96117 -3.79977 0
M  V30 11651 H 1112.47 -2.22425 -3.82073 0
M  V30 11652 N 1111.53 0.65634 -1.43283 0
M  V30 11653 C 1112.48 1.79058 -1.48462 0
M  V30 11654 C 1113.47 1.65563 -0.358512 0
M  V30 11655 O 1114.68 1.71947 -0.532365 0
M  V30 11656 H 1111.05 0.590716 -0.465358 0
M  V30 11657 H 1113.03 1.7181 -2.43975 0
M  V30 11658 C 1111.77 3.17304 -1.42175 0
M  V30 11659 H 1111.1 3.28324 -2.2813 0
M  V30 11660 H 1112.54 3.96633 -1.4986 0
M  V30 11661 C 1111 3.36613 -0.138929 0
M  V30 11662 O 1111.53 3.93633 0.80101 0
M  V30 11663 N 1109.73 2.90557 -0.0501237 0
M  V30 11664 H 1109.28 2.4434 -0.815821 0
M  V30 11665 H 1109.24 3.03853 0.807504 0
M  V30 11666 N 1113.01 1.29761 0.894412 0
M  V30 11667 C 1114.23 1.21064 1.68399 0
M  V30 11668 C 1114.66 -0.224608 1.86754 0
M  V30 11669 O 1114.02 -1.16199 1.39167 0
M  V30 11670 C 1114.07 1.93468 3.04306 0
M  V30 11671 O 1113.17 1.25533 3.9283 0
M  V30 11672 H 1112.51 0.419223 0.514925 0
M  V30 11673 H 1115.04 1.71421 1.11696 0
M  V30 11674 H 1115.05 2.02127 3.54413 0
M  V30 11675 H 1113.73 2.97857 2.90265 0
M  V30 11676 H 1112.3 1.25168 3.51266 0
M  V30 11677 N 1114.49 -1.10549 1.12324 0
M  V30 11678 C 1115.44 -2.18944 0.785248 0
M  V30 11679 C 1116.43 -1.67867 -0.227389 0
M  V30 11680 O 1117.64 -1.79796 -0.0857162 0
M  V30 11681 H 1114.01 -0.713976 0.236098 0
M  V30 11682 H 1115.98 -2.44692 1.70788 0
M  V30 11683 C 1114.73 -3.46765 0.25485 0
M  V30 11684 H 1114.05 -3.86428 1.02534 0
M  V30 11685 H 1115.49 -4.23962 0.0566526 0
M  V30 11686 C 1113.95 -3.21185 -1.01695 0
M  V30 11687 O 1114.48 -3.42745 -2.09497 0
M  V30 11688 N 1112.69 -2.7486 -0.943423 0
M  V30 11689 H 1112.24 -2.57515 -0.0660366 0
M  V30 11690 H 1112.19 -2.58122 -1.795 0
M  V30 11691 N 1115.97 -0.914965 -1.28321 0
M  V30 11692 C 1116.9 -0.421292 -2.29668 0
M  V30 11693 C 1117.88 0.511743 -1.6222 0
M  V30 11694 O 1119.06 0.419218 -1.89621 0
M  V30 11695 C 1116.19 0.338364 -3.45648 0
M  V30 11696 C 1115.15 -0.505646 -4.25003 0
M  V30 11697 C 1114.47 0.382421 -5.33331 0
M  V30 11698 C 1115.77 -1.76354 -4.91626 0
M  V30 11699 H 1117.47 -1.26826 -2.71211 0
M  V30 11700 H 1115.01 -0.611291 -1.30381 0
M  V30 11701 H 1116.96 0.694578 -4.15636 0
M  V30 11702 H 1115.69 1.21925 -3.02988 0
M  V30 11703 H 1114.35 -0.844395 -3.56743 0
M  V30 11704 H 1114 1.26189 -4.86914 0
M  V30 11705 H 1113.7 -0.17871 -5.87328 0
M  V30 11706 H 1115.22 0.73449 -6.06166 0
M  V30 11707 H 1116.63 -1.47616 -5.5397 0
M  V30 11708 H 1115.03 -2.26717 -5.55625 0
M  V30 11709 H 1116.1 -2.49063 -4.16048 0
M  V30 11710 N 1117.44 1.42219 -0.679077 0
M  V30 11711 C 1118.69 2.01777 -0.20342 0
M  V30 11712 C 1119.02 1.53592 1.18841 0
M  V30 11713 O 1118.3 0.739954 1.79875 0
M  V30 11714 C 1118.58 3.59281 -0.242791 0
M  V30 11715 C 1118.43 4.17634 -1.67038 0
M  V30 11716 C 1119.75 4.38218 0.406624 0
M  V30 11717 H 1116.87 0.733134 -0.0753916 0
M  V30 11718 H 1119.51 1.69185 -0.864673 0
M  V30 11719 H 1117.66 3.87178 0.320248 0
M  V30 11720 H 1119.34 4.00674 -2.286 0
M  V30 11721 H 1117.58 3.73301 -2.20973 0
M  V30 11722 H 1118.25 5.26776 -1.64958 0
M  V30 11723 H 1120.73 4.16036 -0.0727077 0
M  V30 11724 H 1119.6 5.47793 0.348457 0
M  V30 11725 H 1119.86 4.16418 1.48487 0
M  V30 11726 N 1118.92 0.422693 1.51826 0
M  V30 11727 C 1120.16 -0.147997 2.03864 0
M  V30 11728 C 1120.53 -1.41224 1.30076 0
M  V30 11729 O 1121.73 -2.06224 1.72409 0
M  V30 11730 C 1120 -0.376248 3.55414 0
M  V30 11731 S 1121.56 -0.912444 4.29208 0
M  V30 11732 H 1118.37 -0.0387084 0.709946 0
M  V30 11733 H 1120.98 0.578733 1.86738 0
M  V30 11734 H 1119.68 0.550451 4.06692 0
M  V30 11735 H 1119.21 -1.13047 3.76807 0
M  V30 11736 H 1121.23 -2.19161 4.45177 0
M  V30 11737 N 1120.4 -1.5685 0.153553 0
M  V30 11738 C 1121.35 -2.1709 -0.783626 0
M  V30 11739 C 1122.32 -1.10567 -1.23952 0
M  V30 11740 O 1123.5 -1.38638 -1.31088 0
M  V30 11741 C 1120.64 -2.80183 -2.01473 0
M  V30 11742 C 1119.75 -4.01117 -1.60403 0
M  V30 11743 C 1118.89 -4.5219 -2.78743 0
M  V30 11744 C 1117.93 -5.65574 -2.34079 0
M  V30 11745 N 1117.07 -6.11235 -3.4545 0
M  V30 11746 H 1121.91 -2.96836 -0.263127 0
M  V30 11747 H 1119.44 -1.46625 -0.11816 0
M  V30 11748 H 1121.4 -3.14912 -2.73654 0
M  V30 11749 H 1120.03 -2.03071 -2.50923 0
M  V30 11750 H 1119.08 -3.72325 -0.779631 0
M  V30 11751 H 1120.39 -4.83243 -1.23605 0
M  V30 11752 H 1119.55 -4.89008 -3.59105 0
M  V30 11753 H 1118.29 -3.69085 -3.18791 0
M  V30 11754 H 1117.29 -5.28326 -1.52158 0
M  V30 11755 H 1118.52 -6.50468 -1.95109 0
M  V30 11756 H 1116.46 -5.31064 -3.85106 0
M  V30 11757 H 1116.38 -6.88304 -3.12687 0
M  V30 11758 H 1117.65 -6.527 -4.26149 0
M  V30 11759 N 1121.88 0.120221 -1.57141 0
M  V30 11760 C 1123.12 0.829449 -1.85062 0
M  V30 11761 C 1123.46 1.79585 -0.739116 0
M  V30 11762 O 1122.73 1.92819 0.255147 0
M  V30 11763 C 1123.01 1.58042 -3.23566 0
M  V30 11764 C 1122.87 0.633706 -4.45314 0
M  V30 11765 C 1124.19 2.53688 -3.59625 0
M  V30 11766 H 1121.31 0.300086 -0.67314 0
M  V30 11767 H 1123.95 0.0937393 -1.89769 0
M  V30 11768 H 1122.1 2.20758 -3.19684 0
M  V30 11769 H 1123.77 0.0154836 -4.61297 0
M  V30 11770 H 1122.01 -0.054846 -4.33765 0
M  V30 11771 H 1122.68 1.19577 -5.38893 0
M  V30 11772 H 1125.16 2.01078 -3.6429 0
M  V30 11773 H 1124.04 3.03265 -4.57516 0
M  V30 11774 H 1124.3 3.36296 -2.8698 0
M  V30 11775 N 1123.36 1.52689 0.390367 0
M  V30 11776 C 1124.58 1.71839 1.16129 0
M  V30 11777 C 1125.01 0.435226 1.82996 0
M  V30 11778 O 1124.36 -0.60889 1.70769 0
M  V30 11779 C 1124.41 2.86784 2.18603 0
M  V30 11780 O 1123.52 2.53662 3.25161 0
M  V30 11781 H 1122.86 0.571455 0.338135 0
M  V30 11782 H 1125.39 1.99475 0.45508 0
M  V30 11783 H 1125.4 3.12239 2.62622 0
M  V30 11784 H 1124.07 3.79872 1.69322 0
M  V30 11785 H 1122.65 2.38942 2.86289 0
M  V30 11786 N 1124.83 -0.648732 1.43629 0
M  V30 11787 C 1126.11 -1.4062 1.35961 0
M  V30 11788 C 1126.49 -2.11098 0.00961023 0
M  V30 11789 O 1125.84 -2.05107 -1.00714 0
M  V30 11790 C 1126.05 -2.38719 2.54586 0
M  V30 11791 C 1127.4 -3.02584 2.97873 0
M  V30 11792 O 1128.42 -2.49046 2.54665 0
M  V30 11793 O 1127.28 -3.99662 3.72736 0
M  V30 11794 H 1124.37 -0.628483 0.53753 0
M  V30 11795 H 1126.92 -0.675263 1.55687 0
M  V30 11796 H 1125.69 -1.85619 3.44472 0
M  V30 11797 H 1125.32 -3.19257 2.36983 0
M  V30 11798 N 1126.31 -1.30234 -0.887518 0
M  V30 11799 C 1127.56 -1.1891 -1.6391 0
M  V30 11800 C 1127.89 0.256749 -1.92798 0
M  V30 11801 O 1127.14 1.20047 -1.54555 0
M  V30 11802 C 1127.44 -1.96046 -2.98832 0
M  V30 11803 C 1127.11 -3.45683 -2.89507 0
M  V30 11804 C 1125.77 -3.86489 -2.8667 0
M  V30 11805 C 1128.12 -4.40983 -2.7782 0
M  V30 11806 C 1125.45 -5.2089 -2.69982 0
M  V30 11807 C 1127.8 -5.75489 -2.6267 0
M  V30 11808 C 1126.47 -6.15537 -2.58207 0
M  V30 11809 H 1125.74 -0.435123 -0.599791 0
M  V30 11810 H 1128.38 -1.61308 -1.03209 0
M  V30 11811 H 1126.69 -1.46275 -3.6347 0
M  V30 11812 H 1128.38 -1.84678 -3.55942 0
M  V30 11813 H 1124.97 -3.13255 -2.92523 0
M  V30 11814 H 1129.16 -4.10401 -2.79079 0
M  V30 11815 H 1124.41 -5.51014 -2.6494 0
M  V30 11816 H 1128.59 -6.48973 -2.526 0
M  V30 11817 H 1126.22 -7.19627 -2.45034 0
M  V30 11818 N 1127.79 1.09952 -1.12909 0
M  V30 11819 C 1129.04 1.81657 -0.885729 0
M  V30 11820 C 1129.36 1.85863 0.589913 0
M  V30 11821 O 1128.63 1.34028 1.42875 0
M  V30 11822 H 1127.21 0.672743 -0.324694 0
M  V30 11823 H 1129.87 1.33013 -1.42456 0
M  V30 11824 H 1128.97 2.85018 -1.27167 0
M  V30 11825 N 1129.27 0.921757 1.27833 0
M  V30 11826 C 1130.2 0.433466 2.29441 0
M  V30 11827 C 1131.18 -0.503133 1.62489 0
M  V30 11828 O 1132.36 -0.409156 1.89841 0
M  V30 11829 C 1129.49 -0.320029 3.45822 0
M  V30 11830 C 1128.45 0.528178 4.24728 0
M  V30 11831 C 1127.77 -0.354132 5.33526 0
M  V30 11832 C 1129.07 1.78959 4.90684 0
M  V30 11833 H 1130.77 1.28263 2.70535 0
M  V30 11834 H 1128.31 0.618197 1.30055 0
M  V30 11835 H 1130.27 -0.672526 4.15999 0
M  V30 11836 H 1128.99 -1.20317 3.0363 0
M  V30 11837 H 1127.65 0.863302 3.5629 0
M  V30 11838 H 1127.3 -1.23605 4.87576 0
M  V30 11839 H 1127 0.209855 5.87225 0
M  V30 11840 H 1128.52 -0.702333 6.06547 0
M  V30 11841 H 1129.94 1.50552 5.53179 0
M  V30 11842 H 1128.33 2.29661 5.54415 0
M  V30 11843 H 1129.4 2.51265 4.14721 0
M  V30 11844 N 1130.75 -1.41857 0.686609 0
M  V30 11845 C 1131.97 -2.06219 0.221037 0
M  V30 11846 C 1132.4 -1.51298 -1.11762 0
M  V30 11847 O 1131.75 -0.636253 -1.69769 0
M  V30 11848 C 1131.8 -3.60153 0.179425 0
M  V30 11849 O 1130.91 -4.03577 -0.848481 0
M  V30 11850 H 1130.25 -0.654787 0.110228 0
M  V30 11851 H 1132.78 -1.81783 0.938948 0
M  V30 11852 H 1132.79 -4.07999 0.00725332 0
M  V30 11853 H 1131.46 -3.99498 1.15647 0
M  V30 11854 H 1130.04 -3.67255 -0.646393 0
M  V30 11855 N 1132.22 -0.430739 -1.51599 0
M  V30 11856 C 1133.64 -0.0826902 -1.59386 0
M  V30 11857 C 1133.84 1.40729 -1.44214 0
M  V30 11858 O 1132.9 2.1765 -1.28002 0
M  V30 11859 C 1134.21 -0.59691 -2.94716 0
M  V30 11860 C 1135.76 -0.556772 -3.08008 0
M  V30 11861 C 1136.23 -1.04786 -4.45852 0
M  V30 11862 N 1137.72 -1.00557 -4.52153 0
M  V30 11863 C 1138.46 -1.35649 -5.57124 0
M  V30 11864 N 1137.95 -1.77994 -6.69545 0
M  V30 11865 N 1139.75 -1.27508 -5.47447 0
M  V30 11866 H 1131.9 -1.40027 -1.59707 0
M  V30 11867 H 1134.16 -0.576606 -0.752482 0
M  V30 11868 H 1133.87 -1.63914 -3.11167 0
M  V30 11869 H 1133.74 -0.0182342 -3.77196 0
M  V30 11870 H 1136.13 0.476457 -2.91228 0
M  V30 11871 H 1136.21 -1.17177 -2.27383 0
M  V30 11872 H 1135.85 -2.07952 -4.63377 0
M  V30 11873 H 1135.78 -0.409461 -5.25006 0
M  V30 11874 H 1138.27 -0.694518 -3.71463 0
M  V30 11875 H 1138.59 -2.03026 -7.45654 0
M  V30 11876 H 1136.93 -1.81916 -6.70769 0
M  V30 11877 H 1140.12 -0.942969 -4.58504 0
M  V30 11878 H 1140.3 -1.55185 -6.29143 0
M  V30 11879 N 1133.7 1.56767 -0.161869 0
M  V30 11880 C 1134.93 2.00673 0.491314 0
M  V30 11881 C 1135.34 1.04111 1.5798 0
M  V30 11882 O 1134.68 0.0324889 1.83671 0
M  V30 11883 C 1134.75 3.41011 1.13806 0
M  V30 11884 C 1134.41 4.56595 0.192384 0
M  V30 11885 C 1135.41 5.16591 -0.585671 0
M  V30 11886 C 1133.09 5.02218 0.0909594 0
M  V30 11887 C 1135.09 6.20631 -1.45245 0
M  V30 11888 C 1132.77 6.06109 -0.77941 0
M  V30 11889 C 1133.77 6.65187 -1.54971 0
M  V30 11890 O 1133.46 7.67065 -2.40555 0
M  V30 11891 H 1133.19 0.663174 0.131059 0
M  V30 11892 H 1135.74 2.03775 -0.257896 0
M  V30 11893 H 1133.97 3.34793 1.93521 0
M  V30 11894 H 1135.66 3.68931 1.69248 0
M  V30 11895 H 1136.43 4.82232 -0.517432 0
M  V30 11896 H 1132.31 4.55953 0.680292 0
M  V30 11897 H 1135.85 6.66671 -2.05415 0
M  V30 11898 H 1131.75 6.39894 -0.848887 0
M  V30 11899 H 1132.52 7.84348 -2.33966 0
M  V30 11900 N 1135.18 -0.111886 1.57202 0
M  V30 11901 C 1136.11 -1.13796 2.03894 0
M  V30 11902 C 1137.09 -1.4277 0.924696 0
M  V30 11903 O 1138.28 -1.53089 1.19488 0
M  V30 11904 C 1135.41 -2.46229 2.44925 0
M  V30 11905 C 1134.36 -2.31702 3.59859 0
M  V30 11906 C 1133.69 -3.69161 3.86813 0
M  V30 11907 C 1134.99 -1.77158 4.91337 0
M  V30 11908 H 1136.68 -0.749581 2.89865 0
M  V30 11909 H 1134.23 -0.359126 1.3945 0
M  V30 11910 H 1136.18 -3.18267 2.76195 0
M  V30 11911 H 1134.9 -2.86971 1.55933 0
M  V30 11912 H 1133.56 -1.62112 3.28809 0
M  V30 11913 H 1133.21 -4.07401 2.95015 0
M  V30 11914 H 1132.91 -3.60292 4.6418 0
M  V30 11915 H 1134.43 -4.42693 4.20542 0
M  V30 11916 H 1135.85 -2.3902 5.21097 0
M  V30 11917 H 1134.25 -1.79091 5.72753 0
M  V30 11918 H 1135.32 -0.729675 4.79379 0
M  V30 11919 N 1136.66 -1.52894 -0.382264 0
M  V30 11920 C 1137.59 -1.74413 -1.48703 0
M  V30 11921 C 1138.6 -0.624663 -1.50339 0
M  V30 11922 O 1139.79 -0.900527 -1.54119 0
M  V30 11923 C 1136.89 -1.79387 -2.8753 0
M  V30 11924 C 1136.07 -3.08794 -3.09783 0
M  V30 11925 C 1135.12 -3.05226 -4.2863 0
M  V30 11926 O 1134.15 -3.79073 -4.24609 0
M  V30 11927 N 1135.35 -2.2488 -5.35172 0
M  V30 11928 H 1138.12 -2.69734 -1.30628 0
M  V30 11929 H 1135.68 -1.51465 -0.571842 0
M  V30 11930 H 1137.67 -1.74498 -3.65147 0
M  V30 11931 H 1136.24 -0.914233 -2.98932 0
M  V30 11932 H 1135.46 -3.27118 -2.19971 0
M  V30 11933 H 1136.75 -3.94347 -3.21509 0
M  V30 11934 H 1136.15 -1.64363 -5.41296 0
M  V30 11935 H 1134.7 -2.25825 -6.1143 0
M  V30 11936 N 1138.14 0.641106 -1.43971 0
M  V30 11937 C 1139.41 1.39897 -1.36704 0
M  V30 11938 C 1139.79 2.1109 -0.0208051 0
M  V30 11939 O 1139.14 2.05638 0.99625 0
M  V30 11940 C 1139.35 2.37366 -2.55849 0
M  V30 11941 C 1140.7 3.01 -2.99473 0
M  V30 11942 O 1141.72 2.47692 -2.55982 0
M  V30 11943 O 1140.58 3.9768 -3.74851 0
M  V30 11944 H 1137.68 0.625623 -0.540855 0
M  V30 11945 H 1140.22 0.666997 -1.56042 0
M  V30 11946 H 1139 1.8379 -3.45452 0
M  V30 11947 H 1138.62 3.17995 -2.38673 0
M  V30 11948 N 1139.62 1.30703 0.880598 0
M  V30 11949 C 1140.89 1.1043 1.61445 0
M  V30 11950 C 1141.27 -0.344837 2.08264 0
M  V30 11951 O 1140.62 -1.33711 1.85293 0
M  V30 11952 C 1140.83 2.10908 2.78063 0
M  V30 11953 C 1142.18 2.42861 3.48287 0
M  V30 11954 O 1143.2 2.09252 2.88257 0
M  V30 11955 O 1142.06 3.00369 4.56553 0
M  V30 11956 H 1139.16 0.424419 0.709787 0
M  V30 11957 H 1141.7 1.42144 0.926991 0
M  V30 11958 H 1140.47 3.08431 2.40803 0
M  V30 11959 H 1140.1 1.80036 3.54503 0
M  V30 11960 N 1141.09 -1.09351 1.1349 0
M  V30 11961 C 1142.32 -1.85304 0.920324 0
M  V30 11962 C 1142.74 -1.81182 -0.530883 0
M  V30 11963 O 1142.09 -1.20853 -1.36751 0
M  V30 11964 C 1142.14 -3.33249 1.40098 0
M  V30 11965 O 1141.87 -3.37333 2.79531 0
M  V30 11966 C 1143.37 -4.2604 1.22495 0
M  V30 11967 H 1140.59 -0.585294 0.328134 0
M  V30 11968 H 1143.13 -1.38168 1.50765 0
M  V30 11969 H 1141.29 -3.7781 0.85664 0
M  V30 11970 H 1141.7 -4.29614 3.00885 0
M  V30 11971 H 1143.17 -5.27999 1.61 0
M  V30 11972 H 1143.65 -4.38883 0.166717 0
M  V30 11973 H 1144.26 -3.87295 1.75735 0
M  V30 11974 N 1142.57 -0.928524 -1.27343 0
M  V30 11975 C 1143.8 -0.58516 -1.98974 0
M  V30 11976 C 1144.22 0.829964 -1.68799 0
M  V30 11977 O 1143.58 1.55705 -0.928738 0
M  V30 11978 C 1143.63 -0.818662 -3.51184 0
M  V30 11979 O 1142.73 0.115355 -4.12239 0
M  V30 11980 H 1142.07 -0.225203 -0.624644 0
M  V30 11981 H 1144.6 -1.248 -1.6213 0
M  V30 11982 H 1144.61 -0.734554 -4.01333 0
M  V30 11983 H 1143.29 -1.8502 -3.72479 0
M  V30 11984 H 1141.86 -0.0187371 -3.72895 0
M  V30 11985 N 1144.05 1.41491 -0.694123 0
M  V30 11986 C 1145.33 1.95004 -0.152571 0
M  V30 11987 C 1145.71 1.63357 1.33707 0
M  V30 11988 O 1145.05 0.939815 2.08278 0
M  V30 11989 C 1145.26 3.46186 -0.44232 0
M  V30 11990 C 1146.61 4.22991 -0.369279 0
M  V30 11991 O 1147.64 3.54198 -0.377152 0
M  V30 11992 O 1146.5 5.45514 -0.328145 0
M  V30 11993 H 1143.59 0.826879 -0.0141253 0
M  V30 11994 H 1146.14 1.51216 -0.770183 0
M  V30 11995 H 1144.91 3.62497 -1.47348 0
M  V30 11996 H 1144.53 3.97064 0.206337 0
M  V30 11997 N 1145.53 0.438773 1.51369 0
M  V30 11998 C 1146.94 -0.0240139 1.86685 0
M  V30 11999 C 1147.29 -1.41816 1.35583 0
M  V30 12000 O 1146.41 -2.04517 0.707232 0
M  V30 12001 C 1147.01 -0.0503527 3.38763 0
M  V30 12002 C 1145.57 -0.457556 3.73609 0
M  V30 12003 C 1144.72 0.348852 2.75097 0
M  V30 12004 H 1147.67 0.654552 1.44573 0
M  V30 12005 H 1147.69 -0.859534 3.70665 0
M  V30 12006 H 1147.2 0.964451 3.75925 0
M  V30 12007 H 1145.3 -1.47791 3.42036 0
M  V30 12008 H 1145.41 -0.181357 4.78757 0
M  V30 12009 H 1143.78 -0.193037 2.53967 0
M  V30 12010 H 1144.56 1.36256 3.15102 0
M  V30 12011 N 1147.01 -1.56678 0.170181 0
M  V30 12012 C 1148.23 -2.01223 -0.481362 0
M  V30 12013 C 1148.65 -1.05039 -1.56883 0
M  V30 12014 O 1148.01 -0.0510751 -1.82429 0
M  V30 12015 C 1148.06 -3.45588 -1.06073 0
M  V30 12016 O 1147.78 -4.38097 -0.0166754 0
M  V30 12017 C 1149.28 -4.05527 -1.79061 0
M  V30 12018 H 1146.5 -0.659574 -0.1233 0
M  V30 12019 H 1149.04 -2.02689 0.271576 0
M  V30 12020 H 1147.2 -3.449 -1.76417 0
M  V30 12021 H 1147.61 -5.22615 -0.444276 0
M  V30 12022 H 1149.09 -5.08467 -2.1486 0
M  V30 12023 H 1149.56 -3.47554 -2.68519 0
M  V30 12024 H 1150.17 -4.09914 -1.13361 0
M  V30 12025 N 1148.48 0.103547 -1.57259 0
M  V30 12026 C 1149.71 0.821158 -1.8958 0
M  V30 12027 C 1150.12 1.73213 -0.761184 0
M  V30 12028 O 1149.46 1.81611 0.27625 0
M  V30 12029 C 1149.53 1.69428 -3.17072 0
M  V30 12030 C 1149.19 0.956014 -4.46889 0
M  V30 12031 C 1150.19 0.289694 -5.19092 0
M  V30 12032 C 1147.87 0.932602 -4.93566 0
M  V30 12033 C 1149.87 -0.390164 -6.36205 0
M  V30 12034 C 1147.55 0.248954 -6.10593 0
M  V30 12035 C 1148.55 -0.411259 -6.81761 0
M  V30 12036 O 1148.24 -1.08396 -7.96559 0
M  V30 12037 H 1147.97 0.240508 -0.631769 0
M  V30 12038 H 1150.53 0.0877817 -2.05212 0
M  V30 12039 H 1148.76 2.46968 -2.97563 0
M  V30 12040 H 1150.44 2.28769 -3.3529 0
M  V30 12041 H 1151.21 0.299297 -4.84076 0
M  V30 12042 H 1147.09 1.43592 -4.38067 0
M  V30 12043 H 1150.63 -0.906057 -6.91691 0
M  V30 12044 H 1146.53 0.237168 -6.45064 0
M  V30 12045 H 1147.3 -0.990002 -8.12491 0
M  V30 12046 N 1149.96 1.53094 0.37415 0
M  V30 12047 C 1151.19 1.72758 1.13852 0
M  V30 12048 C 1151.6 0.452638 1.83294 0
M  V30 12049 O 1150.96 -0.573906 1.73241 0
M  V30 12050 C 1151.01 2.88724 2.17534 0
M  V30 12051 O 1150.73 4.11284 1.5092 0
M  V30 12052 C 1152.23 3.2019 3.06584 0
M  V30 12053 H 1149.45 0.578028 0.340771 0
M  V30 12054 H 1152 1.99805 0.435683 0
M  V30 12055 H 1150.15 2.64096 2.83429 0
M  V30 12056 H 1150.57 4.76162 2.19932 0
M  V30 12057 H 1152.04 4.04759 3.75332 0
M  V30 12058 H 1152.52 2.35193 3.70919 0
M  V30 12059 H 1153.12 3.46712 2.46315 0
M  V30 12060 N 1151.44 -0.633461 1.44309 0
M  V30 12061 C 1152.66 -1.42527 1.50668 0
M  V30 12062 C 1153.09 -1.87637 0.131861 0
M  V30 12063 O 1152.45 -1.58595 -0.878477 0
M  V30 12064 C 1152.5 -2.62328 2.47419 0
M  V30 12065 O 1151.6 -3.62081 1.97411 0
M  V30 12066 H 1150.94 -0.426559 0.508864 0
M  V30 12067 H 1153.47 -0.773392 1.8942 0
M  V30 12068 H 1153.48 -3.09901 2.65378 0
M  V30 12069 H 1152.16 -2.2884 3.47283 0
M  V30 12070 H 1150.73 -3.21333 1.89208 0
M  V30 12071 N 1152.92 -1.31168 -0.873655 0
M  V30 12072 C 1154.14 -1.23728 -1.66452 0
M  V30 12073 C 1154.57 0.194869 -1.87088 0
M  V30 12074 O 1153.93 1.1397 -1.40998 0
M  V30 12075 C 1153.97 -1.98285 -3.0119 0
M  V30 12076 O 1153.08 -1.31767 -3.90783 0
M  V30 12077 H 1152.42 -0.427362 -0.508191 0
M  V30 12078 H 1154.95 -1.73176 -1.08955 0
M  V30 12079 H 1154.96 -2.0774 -3.51153 0
M  V30 12080 H 1153.63 -3.02437 -2.8549 0
M  V30 12081 H 1152.21 -1.3074 -3.4923 0
M  V30 12082 N 1154.4 1.08748 -1.14068 0
M  V30 12083 C 1155.33 2.17591 -0.84714 0
M  V30 12084 C 1156.31 1.68962 0.196415 0
M  V30 12085 O 1157.49 1.94125 0.0538415 0
M  V30 12086 C 1154.62 3.45823 -0.320005 0
M  V30 12087 C 1153.58 4.07824 -1.2986 0
M  V30 12088 C 1152.9 5.30965 -0.630925 0
M  V30 12089 C 1154.2 4.49512 -2.65963 0
M  V30 12090 H 1155.9 2.42404 -1.75729 0
M  V30 12091 H 1153.44 1.16502 -0.846356 0
M  V30 12092 H 1155.4 4.21276 -0.102271 0
M  V30 12093 H 1154.12 3.20553 0.625561 0
M  V30 12094 H 1152.78 3.34398 -1.50245 0
M  V30 12095 H 1152.43 5.01979 0.320337 0
M  V30 12096 H 1152.13 5.73402 -1.28388 0
M  V30 12097 H 1153.65 6.09136 -0.422635 0
M  V30 12098 H 1155.06 5.16159 -2.49506 0
M  V30 12099 H 1153.46 5.02857 -3.27498 0
M  V30 12100 H 1154.53 3.6157 -3.23102 0
M  V30 12101 N 1155.87 0.935264 1.26849 0
M  V30 12102 C 1157.12 0.578545 1.93642 0
M  V30 12103 C 1157.44 -0.884296 1.73796 0
M  V30 12104 O 1156.71 -1.62768 1.09011 0
M  V30 12105 H 1155.29 0.210976 0.716588 0
M  V30 12106 H 1157.96 1.1893 1.54407 0
M  V30 12107 H 1157.05 0.791268 3.01903 0
M  V30 12108 N 1157.35 -1.41121 0.701616 0
M  V30 12109 C 1158.6 -2.00733 0.234682 0
M  V30 12110 C 1158.92 -1.55869 -1.17174 0
M  V30 12111 O 1158.19 -0.791965 -1.79178 0
M  V30 12112 H 1156.77 -0.742288 0.0837745 0
M  V30 12113 H 1159.43 -1.7266 0.904127 0
M  V30 12114 H 1158.53 -3.11041 0.256831 0
M  V30 12115 N 1158.83 -0.446794 -1.51134 0
M  V30 12116 C 1159.78 0.359865 -2.27977 0
M  V30 12117 C 1160.75 1.0086 -1.31972 0
M  V30 12118 O 1161.93 1.02569 -1.60886 0
M  V30 12119 C 1159.07 1.44978 -3.1317 0
M  V30 12120 C 1158.19 0.818243 -4.2418 0
M  V30 12121 C 1157.32 1.884 -4.96668 0
M  V30 12122 C 1156.36 1.2314 -5.99586 0
M  V30 12123 N 1155.5 2.23894 -6.65444 0
M  V30 12124 H 1160.34 -0.301775 -2.96468 0
M  V30 12125 H 1157.87 -0.160666 -1.4622 0
M  V30 12126 H 1159.83 2.09308 -3.60896 0
M  V30 12127 H 1158.46 2.08092 -2.46775 0
M  V30 12128 H 1157.51 0.0629889 -3.80348 0
M  V30 12129 H 1158.83 0.301885 -4.97886 0
M  V30 12130 H 1157.98 2.6037 -5.4799 0
M  V30 12131 H 1156.72 2.43411 -4.22614 0
M  V30 12132 H 1155.72 0.497215 -5.47547 0
M  V30 12133 H 1156.95 0.688505 -6.75601 0
M  V30 12134 H 1154.89 2.77967 -5.94197 0
M  V30 12135 H 1154.81 1.77176 -7.34945 0
M  V30 12136 H 1156.08 2.95318 -7.21393 0
M  V30 12137 N 1160.31 1.56586 -0.178487 0
M  V30 12138 C 1161.56 1.96273 0.464745 0
M  V30 12139 C 1161.87 1.0675 1.63902 0
M  V30 12140 O 1163.08 1.36148 2.34896 0
M  V30 12141 C 1161.53 3.49021 0.878207 0
M  V30 12142 C 1161.14 4.4718 -0.270861 0
M  V30 12143 C 1162.88 3.97512 1.48946 0
M  V30 12144 C 1160.79 5.91176 0.162632 0
M  V30 12145 H 1159.72 0.732834 0.177398 0
M  V30 12146 H 1162.37 1.81534 -0.267861 0
M  V30 12147 H 1160.75 3.59203 1.667 0
M  V30 12148 H 1161.93 4.48718 -1.04826 0
M  V30 12149 H 1160.24 4.08788 -0.792529 0
M  V30 12150 H 1162.84 5.02556 1.82595 0
M  V30 12151 H 1163.18 3.40861 2.38997 0
M  V30 12152 H 1163.72 3.90376 0.76496 0
M  V30 12153 H 1160.46 6.51716 -0.703286 0
M  V30 12154 H 1159.98 5.9293 0.905243 0
M  V30 12155 H 1161.65 6.44174 0.604084 0
M  V30 12156 N 1161.79 -0.095206 1.57312 0
M  V30 12157 C 1163.2 -0.649733 1.7503 0
M  V30 12158 C 1163.55 -1.7912 0.800652 0
M  V30 12159 O 1162.67 -2.1639 -0.0208831 0
M  V30 12160 C 1163.27 -1.18541 3.17386 0
M  V30 12161 C 1161.83 -1.686 3.36528 0
M  V30 12162 C 1160.97 -0.595531 2.7083 0
M  V30 12163 H 1163.93 0.130863 1.5816 0
M  V30 12164 H 1163.95 -2.05473 3.20252 0
M  V30 12165 H 1163.46 -0.35441 3.86478 0
M  V30 12166 H 1161.56 -2.541 2.72514 0
M  V30 12167 H 1161.67 -1.77907 4.44844 0
M  V30 12168 H 1160.04 -1.03495 2.32725 0
M  V30 12169 H 1160.82 0.224883 3.42563 0
M  V30 12170 N 1163.26 -1.53291 -0.366026 0
M  V30 12171 C 1164.51 -1.69702 -1.11036 0
M  V30 12172 C 1164.84 -0.44728 -1.88979 0
M  V30 12173 O 1164.12 0.55542 -1.86401 0
M  V30 12174 C 1164.4 -2.94661 -2.06995 0
M  V30 12175 C 1164.25 -4.29791 -1.32663 0
M  V30 12176 C 1165.57 -3.15219 -3.07123 0
M  V30 12177 H 1162.69 -0.617525 -0.402284 0
M  V30 12178 H 1165.33 -1.85929 -0.391223 0
M  V30 12179 H 1163.48 -2.80958 -2.68318 0
M  V30 12180 H 1165.16 -4.55305 -0.741266 0
M  V30 12181 H 1163.4 -4.29223 -0.628484 0
M  V30 12182 H 1164.07 -5.13359 -2.02896 0
M  V30 12183 H 1166.55 -3.28105 -2.55903 0
M  V30 12184 H 1165.42 -4.04088 -3.71489 0
M  V30 12185 H 1165.68 -2.30479 -3.77269 0
M  V30 12186 N 1164.74 0.6258 -1.44643 0
M  V30 12187 C 1166.16 0.944569 -1.28647 0
M  V30 12188 C 1166.36 2.00227 -0.226134 0
M  V30 12189 O 1165.41 2.4953 0.386161 0
M  V30 12190 C 1166.73 1.40278 -2.65975 0
M  V30 12191 C 1168.28 1.51797 -2.73727 0
M  V30 12192 C 1168.75 2.01 -4.11537 0
M  V30 12193 N 1170.24 2.08262 -4.13741 0
M  V30 12194 C 1170.98 2.47515 -5.17227 0
M  V30 12195 N 1170.47 2.85867 -6.31072 0
M  V30 12196 N 1172.27 2.47695 -5.04583 0
M  V30 12197 H 1164.42 -0.0736157 -2.12272 0
M  V30 12198 H 1166.68 0.0296998 -0.947535 0
M  V30 12199 H 1166.39 0.699871 -3.44666 0
M  V30 12200 H 1166.26 2.37279 -2.93221 0
M  V30 12201 H 1168.65 2.21183 -1.95351 0
M  V30 12202 H 1168.73 0.531574 -2.50216 0
M  V30 12203 H 1168.37 1.32207 -4.90391 0
M  V30 12204 H 1168.3 3.0052 -4.32429 0
M  V30 12205 H 1170.79 1.81286 -3.31578 0
M  V30 12206 H 1171.11 3.14647 -7.05845 0
M  V30 12207 H 1169.45 2.83605 -6.34502 0
M  V30 12208 H 1172.64 2.17127 -4.14697 0
M  V30 12209 H 1172.81 2.77962 -5.85356 0
M  V30 12210 N 1166.22 1.31629 0.866686 0
M  V30 12211 C 1167.47 1.22693 1.62228 0
M  V30 12212 C 1167.82 -0.212134 1.91227 0
M  V30 12213 O 1167.11 -1.1465 1.53512 0
M  V30 12214 C 1167.31 2.00775 2.95676 0
M  V30 12215 C 1167.14 3.52128 2.79708 0
M  V30 12216 C 1165.91 4.21476 2.78722 0
M  V30 12217 C 1168.11 4.47013 2.5433 0
M  V30 12218 N 1166.09 5.58963 2.53838 0
M  V30 12219 C 1167.46 5.72192 2.3874 0
M  V30 12220 C 1169.51 4.36404 2.39701 0
M  V30 12221 C 1168.22 6.8796 2.10008 0
M  V30 12222 C 1170.24 5.51959 2.12358 0
M  V30 12223 C 1169.6 6.76129 1.97559 0
M  V30 12224 H 1165.7 0.504088 0.597845 0
M  V30 12225 H 1168.29 1.65856 1.01979 0
M  V30 12226 H 1166.46 1.59975 3.53924 0
M  V30 12227 H 1168.19 1.83831 3.60539 0
M  V30 12228 H 1164.95 3.73478 2.91224 0
M  V30 12229 H 1165.37 6.31362 2.44358 0
M  V30 12230 H 1170.01 3.41066 2.49868 0
M  V30 12231 H 1167.73 7.83321 1.98578 0
M  V30 12232 H 1171.32 5.45669 2.01834 0
M  V30 12233 H 1170.2 7.64033 1.76701 0
M  V30 12234 N 1167.7 -1.08142 1.14644 0
M  V30 12235 C 1168.93 -1.84318 0.939926 0
M  V30 12236 C 1169.34 -1.81735 -0.511636 0
M  V30 12237 O 1168.7 -1.22297 -1.35461 0
M  V30 12238 C 1168.75 -3.31744 1.43625 0
M  V30 12239 O 1168.47 -3.3435 2.83094 0
M  V30 12240 C 1169.97 -4.24717 1.27007 0
M  V30 12241 H 1167.19 -0.581781 0.334323 0
M  V30 12242 H 1169.74 -1.36561 1.52221 0
M  V30 12243 H 1167.89 -3.7688 0.896664 0
M  V30 12244 H 1168.31 -4.26399 3.05425 0
M  V30 12245 H 1169.78 -5.26262 1.66591 0
M  V30 12246 H 1170.26 -4.38682 0.213257 0
M  V30 12247 H 1170.86 -3.85409 1.79833 0
M  V30 12248 N 1169.18 -0.941978 -1.26351 0
M  V30 12249 C 1170.14 -0.456768 -2.24602 0
M  V30 12250 C 1171.14 0.432574 -1.54872 0
M  V30 12251 O 1172.33 0.23164 -1.72653 0
M  V30 12252 C 1169.46 0.341583 -3.39184 0
M  V30 12253 H 1170.66 -1.32503 -2.69041 0
M  V30 12254 H 1168.21 -0.724021 -1.38519 0
M  V30 12255 H 1168.94 1.22806 -3.00149 0
M  V30 12256 H 1168.73 -0.296268 -3.90979 0
M  V30 12257 H 1170.22 0.670955 -4.12175 0
M  V30 12258 N 1170.66 1.40747 -0.709091 0
M  V30 12259 C 1172.07 1.83955 -0.318968 0
M  V30 12260 C 1172.42 1.59304 1.14527 0
M  V30 12261 O 1171.54 1.07052 1.88066 0
M  V30 12262 C 1172.14 3.33934 -0.572147 0
M  V30 12263 C 1170.7 3.75661 -0.235802 0
M  V30 12264 C 1169.84 2.64024 -0.847743 0
M  V30 12265 H 1172.79 1.30107 -0.908734 0
M  V30 12266 H 1172.82 3.80143 0.164752 0
M  V30 12267 H 1172.33 3.51844 -1.63791 0
M  V30 12268 H 1170.43 3.63348 0.825164 0
M  V30 12269 H 1170.54 4.73955 -0.700263 0
M  V30 12270 H 1168.91 2.53197 -0.276283 0
M  V30 12271 H 1169.69 2.84748 -1.91765 0
M  V30 12272 N 1172.13 0.454803 1.50895 0
M  V30 12273 C 1173.04 -0.353495 2.31921 0
M  V30 12274 C 1174.06 -1.01136 1.41589 0
M  V30 12275 O 1175.24 -1.00291 1.74653 0
M  V30 12276 C 1172.3 -1.43032 3.15821 0
M  V30 12277 C 1171.36 -0.790763 4.21954 0
M  V30 12278 C 1170.59 -1.81628 5.01843 0
M  V30 12279 O 1170.82 -3.04078 4.8259 0
M  V30 12280 O 1169.75 -1.39713 5.8546 0
M  V30 12281 H 1173.58 0.308463 3.02129 0
M  V30 12282 H 1171.16 0.216971 1.47816 0
M  V30 12283 H 1173.04 -2.05444 3.67927 0
M  V30 12284 H 1171.72 -2.07605 2.48358 0
M  V30 12285 H 1170.63 -0.128127 3.73881 0
M  V30 12286 H 1171.96 -0.188251 4.9184 0
M  V30 12287 N 1173.61 -1.56489 0.186789 0
M  V30 12288 C 1174.57 -2.17478 -0.723596 0
M  V30 12289 C 1175.57 -1.12698 -1.14699 0
M  V30 12290 O 1176.76 -1.38128 -1.06143 0
M  V30 12291 C 1173.9 -2.77015 -1.98685 0
M  V30 12292 H 1175.09 -2.99282 -0.192403 0
M  V30 12293 H 1172.64 -1.56174 -0.0628153 0
M  V30 12294 H 1173.38 -1.98987 -2.56076 0
M  V30 12295 H 1173.16 -3.53711 -1.69207 0
M  V30 12296 H 1174.65 -3.23872 -2.63622 0
M  V30 12297 N 1175.09 0.086862 -1.5736 0
M  V30 12298 C 1176.34 0.787581 -1.85688 0
M  V30 12299 C 1176.65 1.79494 -0.777263 0
M  V30 12300 O 1177.86 2.54415 -0.947914 0
M  V30 12301 C 1176.31 1.45155 -3.2933 0
M  V30 12302 C 1175.92 0.483539 -4.45383 0
M  V30 12303 C 1177.67 2.13552 -3.66873 0
M  V30 12304 C 1175.57 1.15257 -5.8006 0
M  V30 12305 H 1174.5 0.297882 -0.692663 0
M  V30 12306 H 1177.15 0.0406299 -1.83455 0
M  V30 12307 H 1175.54 2.24625 -3.26128 0
M  V30 12308 H 1176.71 -0.280254 -4.59947 0
M  V30 12309 H 1175.02 -0.0951664 -4.16291 0
M  V30 12310 H 1177.62 2.64355 -4.6478 0
M  V30 12311 H 1177.96 2.92818 -2.95911 0
M  V30 12312 H 1178.5 1.40932 -3.71999 0
M  V30 12313 H 1175.24 0.400546 -6.54275 0
M  V30 12314 H 1174.76 1.88759 -5.69324 0
M  V30 12315 H 1176.44 1.67671 -6.24896 0
M  V30 12316 N 1176.57 1.53483 0.357892 0
M  V30 12317 C 1177.53 1.79782 1.42166 0
M  V30 12318 C 1178.53 0.668441 1.46248 0
M  V30 12319 O 1179.72 0.936677 1.46874 0
M  V30 12320 C 1176.85 1.92686 2.8122 0
M  V30 12321 H 1178.05 2.74794 1.20117 0
M  V30 12322 H 1175.6 1.44677 0.591468 0
M  V30 12323 H 1176.33 0.997669 3.08573 0
M  V30 12324 H 1176.12 2.74837 2.79655 0
M  V30 12325 H 1177.61 2.14599 3.58242 0
M  V30 12326 N 1178.05 -0.61812 1.44973 0
M  V30 12327 C 1179.28 -1.40225 1.51725 0
M  V30 12328 C 1179.68 -1.88643 0.145098 0
M  V30 12329 O 1179.03 -1.62237 -0.861677 0
M  V30 12330 C 1179.09 -2.64808 2.4314 0
M  V30 12331 C 1178.75 -2.381 3.90073 0
M  V30 12332 C 1179.75 -1.99116 4.80259 0
M  V30 12333 C 1177.43 -2.51338 4.34896 0
M  V30 12334 C 1179.43 -1.73716 6.13271 0
M  V30 12335 C 1177.12 -2.25552 5.67952 0
M  V30 12336 C 1178.11 -1.86801 6.56958 0
M  V30 12337 O 1177.8 -1.6131 7.8755 0
M  V30 12338 H 1177.53 -0.436024 0.516584 0
M  V30 12339 H 1180.09 -0.761929 1.90745 0
M  V30 12340 H 1178.32 -3.31524 1.9907 0
M  V30 12341 H 1180.01 -3.26835 2.40694 0
M  V30 12342 H 1180.77 -1.88435 4.46897 0
M  V30 12343 H 1176.65 -2.80468 3.65867 0
M  V30 12344 H 1180.2 -1.43395 6.82703 0
M  V30 12345 H 1176.09 -2.35847 6.00872 0
M  V30 12346 H 1176.86 -1.75449 7.99475 0
M  V30 12347 N 1179.52 -1.32087 -0.859693 0
M  V30 12348 C 1180.94 -1.10968 -1.14709 0
M  V30 12349 C 1181.14 0.113139 -2.01182 0
M  V30 12350 O 1180.2 0.799499 -2.39508 0
M  V30 12351 C 1181.51 -2.38657 -1.8293 0
M  V30 12352 C 1183.06 -2.44366 -1.95587 0
M  V30 12353 C 1183.53 -3.71963 -2.67222 0
M  V30 12354 N 1185.02 -3.72916 -2.7475 0
M  V30 12355 C 1185.76 -4.68346 -3.30816 0
M  V30 12356 N 1185.25 -5.74139 -3.87732 0
M  V30 12357 N 1187.05 -4.55851 -3.28872 0
M  V30 12358 H 1179.2 -2.10497 -0.283711 0
M  V30 12359 H 1181.46 -0.929108 -0.188315 0
M  V30 12360 H 1181.17 -3.2803 -1.26844 0
M  V30 12361 H 1181.04 -2.49236 -2.83128 0
M  V30 12362 H 1183.43 -1.55456 -2.50833 0
M  V30 12363 H 1183.51 -2.37744 -0.944001 0
M  V30 12364 H 1183.15 -4.61245 -2.1264 0
M  V30 12365 H 1183.08 -3.75855 -3.68837 0
M  V30 12366 H 1185.57 -2.96447 -2.34367 0
M  V30 12367 H 1185.89 -6.43021 -4.28654 0
M  V30 12368 H 1184.23 -5.779 -3.86078 0
M  V30 12369 H 1187.42 -3.72371 -2.83651 0
M  V30 12370 H 1187.6 -5.30398 -3.72266 0
M  V30 12371 N 1181 1.07532 -1.15215 0
M  V30 12372 C 1181.95 2.14687 -0.847243 0
M  V30 12373 C 1182.92 1.64903 0.199043 0
M  V30 12374 O 1184.1 1.90682 0.0669986 0
M  V30 12375 C 1181.24 3.43414 -0.340673 0
M  V30 12376 C 1180.36 4.06999 -1.44831 0
M  V30 12377 C 1179.49 5.23554 -0.898059 0
M  V30 12378 C 1178.53 5.79097 -1.98276 0
M  V30 12379 N 1177.67 6.86985 -1.44902 0
M  V30 12380 H 1182.51 2.4011 -1.76498 0
M  V30 12381 H 1180.04 1.17823 -0.880689 0
M  V30 12382 H 1182 4.1719 -0.0286956 0
M  V30 12383 H 1180.63 3.18249 0.540144 0
M  V30 12384 H 1179.68 3.30895 -1.87651 0
M  V30 12385 H 1181 4.44289 -2.26735 0
M  V30 12386 H 1180.15 6.04305 -0.538514 0
M  V30 12387 H 1178.89 4.87676 -0.0481752 0
M  V30 12388 H 1177.89 4.96992 -2.35115 0
M  V30 12389 H 1179.12 6.1703 -2.83639 0
M  V30 12390 H 1177.07 6.5305 -0.621468 0
M  V30 12391 H 1176.98 7.23149 -2.20434 0
M  V30 12392 H 1178.25 7.71446 -1.11767 0
M  V30 12393 N 1182.48 0.948665 1.2585 0
M  V30 12394 C 1183.73 0.600236 1.934 0
M  V30 12395 C 1184.06 -0.86185 1.74363 0
M  V30 12396 O 1183.31 -1.63294 1.07858 0
M  V30 12397 C 1183.61 0.89784 3.45939 0
M  V30 12398 C 1183.28 2.345 3.85124 0
M  V30 12399 C 1181.94 2.74058 3.95532 0
M  V30 12400 C 1184.29 3.2851 4.04636 0
M  V30 12401 C 1181.62 4.06707 4.22855 0
M  V30 12402 C 1183.97 4.60764 4.3345 0
M  V30 12403 C 1182.63 5.00127 4.42074 0
M  V30 12404 H 1181.9 0.219642 0.707699 0
M  V30 12405 H 1184.55 1.19658 1.49513 0
M  V30 12406 H 1182.86 0.219037 3.91187 0
M  V30 12407 H 1184.55 0.606916 3.96381 0
M  V30 12408 H 1181.14 2.02819 3.77574 0
M  V30 12409 H 1185.33 2.99141 3.96015 0
M  V30 12410 H 1180.58 4.36856 4.27746 0
M  V30 12411 H 1184.76 5.33594 4.47493 0
M  V30 12412 H 1182.38 6.02939 4.63 0
M  V30 12413 N 1183.96 -1.40369 0.716545 0
M  V30 12414 C 1185.19 -2.05181 0.266143 0
M  V30 12415 C 1185.6 -1.53988 -1.09239 0
M  V30 12416 O 1184.96 -0.696859 -1.68672 0
M  V30 12417 C 1185.01 -3.60713 0.238384 0
M  V30 12418 O 1184.73 -4.10018 1.54328 0
M  V30 12419 C 1186.23 -4.42701 -0.230453 0
M  V30 12420 H 1183.45 -0.66028 0.119463 0
M  V30 12421 H 1186 -1.7976 0.97502 0
M  V30 12422 H 1184.15 -3.85101 -0.421466 0
M  V30 12423 H 1184.56 -5.0422 1.4444 0
M  V30 12424 H 1186.04 -5.51642 -0.198728 0
M  V30 12425 H 1186.52 -4.20354 -1.27276 0
M  V30 12426 H 1187.12 -4.23423 0.399155 0
M  V30 12427 N 1185.44 -0.462799 -1.50652 0
M  V30 12428 C 1186.66 0.0952726 -2.07181 0
M  V30 12429 C 1187.09 1.33479 -1.32533 0
M  V30 12430 O 1186.44 1.77473 -0.370564 0
M  V30 12431 C 1186.49 0.370592 -3.58691 0
M  V30 12432 O 1185.6 1.4526 -3.85971 0
M  V30 12433 H 1184.94 -0.00932702 -0.663934 0
M  V30 12434 H 1187.47 -0.651458 -1.93951 0
M  V30 12435 H 1187.48 0.613551 -4.0336 0
M  V30 12436 H 1186.15 -0.535219 -4.12442 0
M  V30 12437 H 1184.73 1.1976 -3.53146 0
M  V30 12438 N 1186.91 1.56388 -0.195085 0
M  V30 12439 C 1187.88 2.17859 0.712053 0
M  V30 12440 C 1188.88 1.13304 1.141 0
M  V30 12441 O 1190.07 1.38689 1.05409 0
M  V30 12442 C 1187.2 2.78065 1.97213 0
M  V30 12443 H 1188.39 2.9938 0.176529 0
M  V30 12444 H 1185.95 1.56205 0.0545322 0
M  V30 12445 H 1186.68 2.00342 2.55017 0
M  V30 12446 H 1186.47 3.54603 1.67329 0
M  V30 12447 H 1187.96 3.25266 2.619 0
M  V30 12448 N 1188.39 -0.0785156 1.57404 0
M  V30 12449 C 1189.62 -0.795871 1.91522 0
M  V30 12450 C 1190.04 -1.70665 0.790892 0
M  V30 12451 O 1189.4 -1.79474 -0.25666 0
M  V30 12452 C 1189.45 -1.57121 3.24569 0
M  V30 12453 O 1188.55 -2.6814 3.13328 0
M  V30 12454 H 1187.89 -0.217575 0.627341 0
M  V30 12455 H 1190.42 -0.0487724 2.04542 0
M  V30 12456 H 1190.43 -1.9519 3.5828 0
M  V30 12457 H 1189.11 -0.902909 4.05981 0
M  V30 12458 H 1187.69 -2.32978 2.91163 0
M  V30 12459 N 1189.87 -1.5367 -0.349747 0
M  V30 12460 C 1191.15 -1.61238 -1.10732 0
M  V30 12461 C 1191.53 -0.429756 -2.06679 0
M  V30 12462 O 1190.88 0.578564 -2.21054 0
M  V30 12463 C 1191.09 -2.97022 -1.83245 0
M  V30 12464 C 1192.43 -3.52158 -2.37212 0
M  V30 12465 O 1193.46 -2.99156 -1.9335 0
M  V30 12466 O 1192.32 -4.44853 -3.1744 0
M  V30 12467 H 1189.41 -0.65191 -0.508864 0
M  V30 12468 H 1191.96 -1.66015 -0.351738 0
M  V30 12469 H 1190.73 -3.74535 -1.13311 0
M  V30 12470 H 1190.35 -2.95808 -2.65675 0
M  V30 12471 N 1191.35 0.610423 -1.45298 0
M  V30 12472 C 1192.59 1.37154 -1.49388 0
M  V30 12473 C 1192.93 1.93737 -0.134025 0
M  V30 12474 O 1192.2 1.74888 0.851138 0
M  V30 12475 C 1192.49 2.52155 -2.5708 0
M  V30 12476 C 1192.34 2.00786 -4.02498 0
M  V30 12477 C 1193.66 3.54294 -2.61082 0
M  V30 12478 H 1190.78 0.497346 -0.54389 0
M  V30 12479 H 1193.42 0.688358 -1.77092 0
M  V30 12480 H 1191.57 3.10434 -2.33587 0
M  V30 12481 H 1193.24 1.47178 -4.37191 0
M  V30 12482 H 1191.48 1.31809 -4.1329 0
M  V30 12483 H 1192.15 2.83674 -4.73533 0
M  V30 12484 H 1194.63 3.05851 -2.82125 0
M  V30 12485 H 1193.51 4.32254 -3.38301 0
M  V30 12486 H 1193.77 4.09726 -1.66063 0
M  V30 12487 N 1192.83 1.32541 0.852676 0
M  V30 12488 C 1194.07 1.24406 1.60918 0
M  V30 12489 C 1194.43 -0.19184 1.91441 0
M  V30 12490 O 1193.72 -1.13016 1.54719 0
M  V30 12491 C 1193.91 2.039 2.9353 0
M  V30 12492 C 1193.74 3.55074 2.75957 0
M  V30 12493 C 1192.51 4.24409 2.74236 0
M  V30 12494 C 1194.71 4.49686 2.49574 0
M  V30 12495 N 1192.69 5.61624 2.47895 0
M  V30 12496 C 1194.06 5.74692 2.32658 0
M  V30 12497 C 1196.12 4.38921 2.35058 0
M  V30 12498 C 1194.82 6.90149 2.027 0
M  V30 12499 C 1196.85 5.5418 2.06491 0
M  V30 12500 C 1196.21 6.78186 1.90377 0
M  V30 12501 H 1192.31 0.510401 0.592465 0
M  V30 12502 H 1194.89 1.66929 1.00214 0
M  V30 12503 H 1193.06 1.6372 3.52208 0
M  V30 12504 H 1194.8 1.87644 3.58569 0
M  V30 12505 H 1191.55 3.76546 2.87246 0
M  V30 12506 H 1191.98 6.33918 2.37648 0
M  V30 12507 H 1196.62 3.43697 2.46236 0
M  V30 12508 H 1194.34 7.85383 1.90259 0
M  V30 12509 H 1197.92 5.47779 1.96035 0
M  V30 12510 H 1196.8 7.65864 1.68587 0
M  V30 12511 N 1194.3 -1.0692 1.15784 0
M  V30 12512 C 1195.53 -1.83849 0.959903 0
M  V30 12513 C 1195.95 -1.8169 -0.486873 0
M  V30 12514 O 1195.31 -1.21305 -1.34739 0
M  V30 12515 C 1195.36 -3.28642 1.48414 0
M  V30 12516 O 1194.46 -4.0665 0.686249 0
M  V30 12517 H 1193.81 -0.569115 0.342059 0
M  V30 12518 H 1196.34 -1.34851 1.53871 0
M  V30 12519 H 1196.35 -3.7947 1.49888 0
M  V30 12520 H 1195.02 -3.29529 2.53739 0
M  V30 12521 H 1193.6 -3.65453 0.741501 0
M  V30 12522 N 1195.78 -0.955326 -1.25345 0
M  V30 12523 C 1197.01 -0.626783 -1.96863 0
M  V30 12524 C 1197.42 0.80547 -1.71198 0
M  V30 12525 O 1196.76 1.55049 -0.985163 0
M  V30 12526 C 1196.83 -0.806404 -3.50339 0
M  V30 12527 C 1196.49 -2.21595 -3.99681 0
M  V30 12528 C 1197.49 -3.19268 -4.10322 0
M  V30 12529 C 1195.17 -2.54032 -4.33328 0
M  V30 12530 C 1197.17 -4.47471 -4.53926 0
M  V30 12531 C 1194.85 -3.82465 -4.76617 0
M  V30 12532 C 1195.85 -4.78997 -4.86879 0
M  V30 12533 O 1195.54 -6.0514 -5.29208 0
M  V30 12534 H 1195.27 -0.233854 -0.634262 0
M  V30 12535 H 1197.82 -1.28232 -1.60455 0
M  V30 12536 H 1196.05 -0.0937184 -3.86586 0
M  V30 12537 H 1197.74 -0.47881 -4.03066 0
M  V30 12538 H 1198.51 -2.95534 -3.84558 0
M  V30 12539 H 1194.39 -1.79623 -4.24566 0
M  V30 12540 H 1197.93 -5.22819 -4.6185 0
M  V30 12541 H 1193.83 -4.06005 -5.01827 0
M  V30 12542 H 1194.6 -6.08527 -5.47392 0
M  V30 12543 N 1197.26 1.39987 -0.723979 0
M  V30 12544 C 1198.51 2.00334 -0.266587 0
M  V30 12545 C 1198.83 1.57714 1.14679 0
M  V30 12546 O 1198.1 0.82037 1.77895 0
M  V30 12547 H 1196.68 0.740861 -0.095573 0
M  V30 12548 H 1199.34 1.712 -0.931481 0
M  V30 12549 H 1198.44 3.10594 -0.306282 0
M  V30 12550 N 1198.74 0.470782 1.50404 0
M  V30 12551 C 1199.99 -0.0859981 2.01517 0
M  V30 12552 C 1200.3 -1.40811 1.35763 0
M  V30 12553 O 1201.51 -2.04982 1.7803 0
M  V30 12554 C 1199.96 -0.203773 3.59323 0
M  V30 12555 C 1199.57 1.10989 4.34034 0
M  V30 12556 C 1201.32 -0.712528 4.18477 0
M  V30 12557 C 1199.22 0.955928 5.83623 0
M  V30 12558 H 1198.15 -0.0359142 0.753144 0
M  V30 12559 H 1200.8 0.605631 1.73218 0
M  V30 12560 H 1199.19 -0.959177 3.84208 0
M  V30 12561 H 1200.36 1.87623 4.20873 0
M  V30 12562 H 1198.67 1.54973 3.86487 0
M  V30 12563 H 1201.27 -0.844745 5.27985 0
M  V30 12564 H 1201.61 -1.70377 3.79838 0
M  V30 12565 H 1202.15 -0.0145179 3.97797 0
M  V30 12566 H 1198.89 1.92054 6.26734 0
M  V30 12567 H 1198.41 0.22997 5.99359 0
M  V30 12568 H 1200.09 0.622423 6.43999 0
M  V30 12569 N 1200.22 -1.56282 0.203376 0
M  V30 12570 C 1201.46 -1.98105 -0.433844 0
M  V30 12571 C 1201.8 -1.09044 -1.60695 0
M  V30 12572 O 1201.07 -0.144193 -1.93965 0
M  V30 12573 C 1201.35 -3.4903 -0.885992 0
M  V30 12574 C 1201.21 -4.48867 0.289501 0
M  V30 12575 C 1202.53 -4.03871 -1.7486 0
M  V30 12576 H 1199.65 -0.720252 -0.156224 0
M  V30 12577 H 1202.29 -1.87681 0.295963 0
M  V30 12578 H 1200.44 -3.58045 -1.50785 0
M  V30 12579 H 1202.11 -4.51883 0.92734 0
M  V30 12580 H 1200.35 -4.23495 0.939934 0
M  V30 12581 H 1201.02 -5.51956 -0.0695128 0
M  V30 12582 H 1203.5 -3.97688 -1.22407 0
M  V30 12583 H 1202.38 -5.09827 -2.03391 0
M  V30 12584 H 1202.64 -3.49637 -2.70567 0
M  V30 12585 N 1201.7 0.070167 -1.57444 0
M  V30 12586 C 1202.63 1.11509 -1.991 0
M  V30 12587 C 1203.61 1.37481 -0.868194 0
M  V30 12588 O 1204.79 1.50827 -1.13064 0
M  V30 12589 C 1201.92 2.45908 -2.3291 0
M  V30 12590 C 1200.96 2.36059 -3.55216 0
M  V30 12591 S 1201.8 1.75316 -5.05989 0
M  V30 12592 C 1202.95 3.11289 -5.43001 0
M  V30 12593 H 1203.19 0.760096 -2.87419 0
M  V30 12594 H 1200.72 0.278756 -1.51863 0
M  V30 12595 H 1202.68 3.23217 -2.53063 0
M  V30 12596 H 1201.34 2.78567 -1.45117 0
M  V30 12597 H 1200.53 3.35176 -3.76395 0
M  V30 12598 H 1200.13 1.66886 -3.34701 0
M  V30 12599 H 1202.42 4.07603 -5.41171 0
M  V30 12600 H 1203.37 2.94888 -6.43775 0
M  V30 12601 H 1203.78 3.11969 -4.70463 0
M  V30 12602 N 1203.17 1.53854 0.341593 0
M  V30 12603 C 1204.42 1.72388 1.07954 0
M  V30 12604 C 1204.77 0.482184 1.8626 0
M  V30 12605 O 1204.07 -0.525232 1.8426 0
M  V30 12606 C 1204.26 2.92844 2.04884 0
M  V30 12607 C 1204.09 4.28609 1.36105 0
M  V30 12608 C 1202.86 4.93068 1.10508 0
M  V30 12609 C 1205.06 5.08254 0.786255 0
M  V30 12610 N 1203.04 6.12702 0.383319 0
M  V30 12611 C 1204.41 6.19693 0.195147 0
M  V30 12612 C 1206.47 4.93134 0.687293 0
M  V30 12613 C 1205.17 7.17661 -0.485298 0
M  V30 12614 C 1207.2 5.91396 0.0205841 0
M  V30 12615 C 1206.56 7.02174 -0.559545 0
M  V30 12616 H 1202.66 0.683826 0.37935 0
M  V30 12617 H 1205.24 1.91288 0.36289 0
M  V30 12618 H 1203.41 2.7544 2.73838 0
M  V30 12619 H 1205.14 3.00088 2.71531 0
M  V30 12620 H 1201.9 4.52659 1.39271 0
M  V30 12621 H 1202.32 6.7699 0.0371033 0
M  V30 12622 H 1206.96 4.07653 1.12155 0
M  V30 12623 H 1204.68 8.02714 -0.931438 0
M  V30 12624 H 1208.27 5.81774 -0.0553832 0
M  V30 12625 H 1207.15 7.76904 -1.06726 0
M  V30 12626 N 1204.65 -0.602709 1.4562 0
M  V30 12627 C 1205.56 -1.74132 1.5721 0
M  V30 12628 C 1206.58 -1.67909 0.456347 0
M  V30 12629 O 1207.75 -1.88178 0.717714 0
M  V30 12630 C 1204.82 -3.10604 1.54032 0
M  V30 12631 C 1203.88 -3.28244 2.76685 0
M  V30 12632 C 1203.11 -4.58205 2.73649 0
M  V30 12633 O 1203.34 -5.40836 1.81254 0
M  V30 12634 O 1202.27 -4.78663 3.64919 0
M  V30 12635 H 1206.1 -1.67304 2.53462 0
M  V30 12636 H 1203.68 -0.767381 1.28186 0
M  V30 12637 H 1205.56 -3.91904 1.54885 0
M  V30 12638 H 1204.24 -3.17913 0.60934 0
M  V30 12639 H 1203.14 -2.46514 2.81393 0
M  V30 12640 H 1204.48 -3.25814 3.68925 0
M  V30 12641 N 1206.13 -1.32992 -0.845635 0
M  V30 12642 C 1207.38 -1.24249 -1.60281 0
M  V30 12643 C 1207.71 0.193049 -1.93238 0
M  V30 12644 O 1206.98 1.1326 -1.58122 0
M  V30 12645 C 1207.27 -2.1111 -2.91727 0
M  V30 12646 C 1207.12 -3.63088 -2.65494 0
M  V30 12647 C 1208.44 -1.97913 -3.93089 0
M  V30 12648 H 1205.56 -0.452698 -0.581578 0
M  V30 12649 H 1208.2 -1.63026 -0.975828 0
M  V30 12650 H 1206.35 -1.78169 -3.45236 0
M  V30 12651 H 1208.02 -4.06287 -2.18469 0
M  V30 12652 H 1206.26 -3.85304 -1.99306 0
M  V30 12653 H 1206.94 -4.19202 -3.59129 0
M  V30 12654 H 1209.41 -2.26788 -3.48864 0
M  V30 12655 H 1208.29 -2.60952 -4.82903 0
M  V30 12656 H 1208.55 -0.949378 -4.31786 0
M  V30 12657 N 1207.61 1.06304 -1.1635 0
M  V30 12658 C 1208.54 2.13209 -0.81346 0
M  V30 12659 C 1209.52 1.61174 0.21484 0
M  V30 12660 O 1210.7 1.8824 0.0989458 0
M  V30 12661 C 1207.83 3.38039 -0.211498 0
M  V30 12662 C 1206.88 4.08875 -1.21339 0
M  V30 12663 S 1207.71 4.58894 -2.76001 0
M  V30 12664 C 1208.86 5.86985 -2.17254 0
M  V30 12665 H 1209.1 2.42572 -1.7189 0
M  V30 12666 H 1206.63 1.18737 -0.986957 0
M  V30 12667 H 1208.59 4.10296 0.129349 0
M  V30 12668 H 1207.25 3.06834 0.671705 0
M  V30 12669 H 1206.44 4.98528 -0.740631 0
M  V30 12670 H 1206.04 3.42632 -1.49932 0
M  V30 12671 H 1208.34 6.59738 -1.54115 0
M  V30 12672 H 1209.28 6.38991 -3.05117 0
M  V30 12673 H 1209.69 5.41012 -1.61141 0
M  V30 12674 N 1209.09 0.96196 1.24836 0
M  V30 12675 C 1210.31 0.637709 1.97353 0
M  V30 12676 C 1210.74 -0.784919 1.7094 0
M  V30 12677 O 1210.09 -1.53188 0.969694 0
M  V30 12678 C 1210.14 0.911485 3.4889 0
M  V30 12679 O 1209.25 -0.00601668 4.124 0
M  V30 12680 H 1208.59 0.241685 0.618453 0
M  V30 12681 H 1211.12 1.29055 1.58764 0
M  V30 12682 H 1211.13 0.840702 3.99245 0
M  V30 12683 H 1209.8 1.9483 3.67442 0
M  V30 12684 H 1208.38 0.117597 3.72715 0
M  V30 12685 N 1210.56 -1.39601 0.731392 0
M  V30 12686 C 1211.81 -2.00586 0.277756 0
M  V30 12687 C 1212.14 -1.58027 -1.13391 0
M  V30 12688 O 1211.39 -0.798691 -1.7866 0
M  V30 12689 C 1211.69 -3.55934 0.323352 0
M  V30 12690 C 1211.36 -4.18131 1.68753 0
M  V30 12691 C 1210.02 -4.34833 2.06092 0
M  V30 12692 C 1212.37 -4.5267 2.58339 0
M  V30 12693 C 1209.7 -4.83362 3.32532 0
M  V30 12694 C 1212.05 -5.02607 3.84148 0
M  V30 12695 C 1210.72 -5.17517 4.21584 0
M  V30 12696 H 1209.99 -0.733996 0.101638 0
M  V30 12697 H 1212.63 -1.66981 0.937528 0
M  V30 12698 H 1210.94 -3.89542 -0.419995 0
M  V30 12699 H 1212.64 -4.00974 -0.0457235 0
M  V30 12700 H 1209.23 -4.0553 1.38722 0
M  V30 12701 H 1213.41 -4.39388 2.30763 0
M  V30 12702 H 1208.67 -4.93091 3.61485 0
M  V30 12703 H 1212.84 -5.28306 4.53724 0
M  V30 12704 H 1210.47 -5.54882 5.19625 0
M  V30 12705 N 1212.04 -0.478751 -1.50152 0
M  V30 12706 C 1213.29 0.0734397 -2.01967 0
M  V30 12707 C 1213.61 1.39523 -1.36229 0
M  V30 12708 O 1212.88 1.89141 -0.510149 0
M  V30 12709 H 1211.46 0.0301305 -0.746392 0
M  V30 12710 H 1214.12 -0.630921 -1.84406 0
M  V30 12711 H 1213.22 0.21937 -3.11328 0
M  V30 12712 N 1213.52 1.56172 -0.211661 0
M  V30 12713 C 1214.43 2.23468 0.714081 0
M  V30 12714 C 1215.45 1.23908 1.22159 0
M  V30 12715 O 1216.62 1.56693 1.26528 0
M  V30 12716 C 1213.69 2.89375 1.90953 0
M  V30 12717 C 1212.75 4.04251 1.44497 0
M  V30 12718 C 1211.98 4.67006 2.58343 0
M  V30 12719 O 1212.2 4.28721 3.76237 0
M  V30 12720 O 1211.14 5.56177 2.3011 0
M  V30 12721 H 1214.96 3.03219 0.170862 0
M  V30 12722 H 1212.55 1.49389 0.0183607 0
M  V30 12723 H 1214.43 3.3101 2.60787 0
M  V30 12724 H 1213.11 2.12591 2.44104 0
M  V30 12725 H 1212.01 3.67205 0.714932 0
M  V30 12726 H 1213.35 4.82748 0.959947 0
M  V30 12727 N 1215 -0.0618163 1.57479 0
M  V30 12728 C 1216.41 -0.416827 1.54061 0
M  V30 12729 C 1216.61 -1.78584 0.933277 0
M  V30 12730 O 1215.67 -2.46656 0.54009 0
M  V30 12731 C 1216.98 -0.348728 2.98671 0
M  V30 12732 C 1218.53 -0.428194 3.10057 0
M  V30 12733 C 1219.01 -0.389898 4.56337 0
M  V30 12734 N 1220.5 -0.449677 4.61012 0
M  V30 12735 C 1221.23 -0.442418 5.71691 0
M  V30 12736 N 1220.73 -0.389381 6.91705 0
M  V30 12737 N 1222.52 -0.489719 5.59963 0
M  V30 12738 H 1214.67 0.834487 1.9532 0
M  V30 12739 H 1216.94 0.314149 0.894435 0
M  V30 12740 H 1216.64 0.590738 3.46703 0
M  V30 12741 H 1216.52 -1.15511 3.59078 0
M  V30 12742 H 1218.9 -1.35808 2.61992 0
M  V30 12743 H 1218.98 0.406946 2.52542 0
M  V30 12744 H 1218.63 0.536186 5.05062 0
M  V30 12745 H 1218.56 -1.24271 5.11727 0
M  V30 12746 H 1221.05 -0.49451 3.74651 0
M  V30 12747 H 1221.36 -0.388042 7.71825 0
M  V30 12748 H 1219.71 -0.355918 6.94088 0
M  V30 12749 H 1222.9 -0.528915 4.65102 0
M  V30 12750 H 1223.07 -0.480592 6.46215 0
M  V30 12751 N 1216.48 -1.54033 -0.333429 0
M  V30 12752 C 1217.89 -1.63107 -0.908455 0
M  V30 12753 C 1218.24 -0.518823 -1.89216 0
M  V30 12754 O 1217.36 0.34985 -2.13553 0
M  V30 12755 C 1217.96 -2.95657 -1.65447 0
M  V30 12756 C 1216.52 -3.0696 -2.17836 0
M  V30 12757 C 1215.66 -2.58617 -1.00063 0
M  V30 12758 H 1218.62 -1.58309 -0.11128 0
M  V30 12759 H 1218.64 -2.85263 -2.51804 0
M  V30 12760 H 1218.15 -3.76588 -0.938263 0
M  V30 12761 H 1216.25 -2.30683 -2.92602 0
M  V30 12762 H 1216.36 -4.12599 -2.43513 0
M  V30 12763 H 1214.73 -2.1427 -1.37697 0
M  V30 12764 H 1215.51 -3.41996 -0.298901 0
M  V30 12765 N 1217.95 0.594978 -1.45938 0
M  V30 12766 C 1219.18 1.37794 -1.53936 0
M  V30 12767 C 1219.59 1.88388 -0.175091 0
M  V30 12768 O 1218.94 1.63587 0.835757 0
M  V30 12769 C 1219 2.60906 -2.47322 0
M  V30 12770 C 1218.66 2.31865 -3.93812 0
M  V30 12771 C 1219.66 1.91451 -4.83366 0
M  V30 12772 C 1217.34 2.44387 -4.3884 0
M  V30 12773 C 1219.34 1.63938 -6.15957 0
M  V30 12774 C 1217.02 2.16487 -5.71469 0
M  V30 12775 C 1218.02 1.76326 -6.59847 0
M  V30 12776 O 1217.71 1.4876 -7.90016 0
M  V30 12777 H 1217.44 0.42775 -0.523456 0
M  V30 12778 H 1220 0.731487 -1.91933 0
M  V30 12779 H 1218.23 3.28315 -2.04319 0
M  V30 12780 H 1219.92 3.22964 -2.45863 0
M  V30 12781 H 1220.68 1.81301 -4.49839 0
M  V30 12782 H 1216.56 2.74612 -3.70283 0
M  V30 12783 H 1220.1 1.32516 -6.84898 0
M  V30 12784 H 1216 2.26257 -6.04548 0
M  V30 12785 H 1216.77 1.62708 -8.02165 0
M  V30 12786 N 1219.43 1.33438 0.838571 0
M  V30 12787 C 1220.68 1.26106 1.59589 0
M  V30 12788 C 1221.03 -0.171524 1.91634 0
M  V30 12789 O 1220.33 -1.11368 1.55909 0
M  V30 12790 C 1220.52 2.07002 2.9135 0
M  V30 12791 C 1220.35 3.57981 2.72175 0
M  V30 12792 C 1219.12 4.27293 2.69719 0
M  V30 12793 C 1221.32 4.52308 2.4479 0
M  V30 12794 N 1219.3 5.64221 2.41925 0
M  V30 12795 C 1220.67 5.77127 2.26549 0
M  V30 12796 C 1222.73 4.4139 2.3039 0
M  V30 12797 C 1221.43 6.9226 1.95368 0
M  V30 12798 C 1223.45 5.56339 2.00602 0
M  V30 12799 C 1222.82 6.80167 1.83173 0
M  V30 12800 H 1218.92 0.516656 0.587018 0
M  V30 12801 H 1221.5 1.67982 0.984382 0
M  V30 12802 H 1219.67 1.67446 3.50452 0
M  V30 12803 H 1221.4 1.91437 3.56558 0
M  V30 12804 H 1218.16 3.79571 2.83236 0
M  V30 12805 H 1218.58 6.36403 2.30911 0
M  V30 12806 H 1223.22 3.46289 2.42577 0
M  V30 12807 H 1220.94 7.87357 1.81918 0
M  V30 12808 H 1224.53 5.49827 1.90214 0
M  V30 12809 H 1223.41 7.67609 1.60455 0
M  V30 12810 N 1220.91 -1.05686 1.16912 0
M  V30 12811 C 1222.19 -1.7546 0.864483 0
M  V30 12812 C 1222.57 -2.0128 -0.636359 0
M  V30 12813 O 1221.92 -1.64485 -1.58609 0
M  V30 12814 C 1222.13 -3.05134 1.69395 0
M  V30 12815 C 1223.47 -3.79176 1.91079 0
M  V30 12816 O 1224.5 -3.1499 1.66312 0
M  V30 12817 O 1223.36 -4.94496 2.32671 0
M  V30 12818 H 1220.45 -0.762748 0.319601 0
M  V30 12819 H 1223 -1.11899 1.27581 0
M  V30 12820 H 1221.77 -2.82063 2.71212 0
M  V30 12821 H 1221.39 -3.76431 1.28007 0
M  V30 12822 N 1222.39 -0.968567 -1.24324 0
M  V30 12823 C 1223.32 -0.444065 -2.23838 0
M  V30 12824 C 1224.3 0.482311 -1.55282 0
M  V30 12825 O 1225.48 0.413489 -1.83909 0
M  V30 12826 C 1222.61 0.358874 -3.36793 0
M  V30 12827 C 1221.66 -0.509913 -4.23441 0
M  V30 12828 S 1222.49 -1.95064 -4.98708 0
M  V30 12829 C 1223.65 -1.15652 -6.15122 0
M  V30 12830 H 1223.88 -1.28738 -2.67981 0
M  V30 12831 H 1221.41 -0.773665 -1.33618 0
M  V30 12832 H 1223.37 0.816164 -4.02305 0
M  V30 12833 H 1222.03 1.17717 -2.91207 0
M  V30 12834 H 1221.22 0.106617 -5.03887 0
M  V30 12835 H 1220.83 -0.902967 -3.62936 0
M  V30 12836 H 1223.12 -0.411966 -6.76246 0
M  V30 12837 H 1224.06 -1.93539 -6.81137 0
M  V30 12838 H 1224.47 -0.680507 -5.60383 0
M  V30 12839 N 1223.87 1.39211 -0.738786 0
M  V30 12840 C 1225.09 2.05256 -0.297421 0
M  V30 12841 C 1225.52 1.55341 1.06069 0
M  V30 12842 O 1224.87 0.698823 1.67291 0
M  V30 12843 C 1224.92 3.59239 -0.312969 0
M  V30 12844 O 1224.03 4.06448 0.698112 0
M  V30 12845 H 1223.37 0.650245 -0.134454 0
M  V30 12846 H 1225.9 1.78173 -1.00577 0
M  V30 12847 H 1225.91 4.07691 -0.158675 0
M  V30 12848 H 1224.58 3.94931 -1.30394 0
M  V30 12849 H 1223.16 3.69401 0.509643 0
M  V30 12850 N 1225.34 0.486708 1.49896 0
M  V30 12851 C 1226.29 -0.313156 2.30482 0
M  V30 12852 C 1227.29 -0.976043 1.38455 0
M  V30 12853 O 1228.49 -0.905364 1.55574 0
M  V30 12854 H 1224.87 -0.119839 0.74239 0
M  V30 12855 H 1226.84 0.386701 2.95884 0
M  V30 12856 C 1225.59 -1.37334 3.19429 0
M  V30 12857 H 1224.91 -0.87265 3.9016 0
M  V30 12858 H 1226.35 -1.90526 3.78782 0
M  V30 12859 C 1224.81 -2.38378 2.38071 0
M  V30 12860 O 1225.34 -3.43972 2.07476 0
M  V30 12861 N 1223.55 -2.10486 2.00359 0
M  V30 12862 H 1223.09 -1.24638 2.2544 0
M  V30 12863 H 1223.05 -2.78324 1.46229 0
M  V30 12864 N 1226.82 -1.56058 0.219941 0
M  V30 12865 C 1227.76 -2.17494 -0.723133 0
M  V30 12866 C 1228.77 -1.14356 -1.15873 0
M  V30 12867 O 1229.96 -1.41343 -1.09016 0
M  V30 12868 C 1227.06 -2.74242 -1.99109 0
M  V30 12869 C 1226.23 -4.02533 -1.71132 0
M  V30 12870 C 1225.29 -4.43862 -2.82618 0
M  V30 12871 O 1224.32 -5.10792 -2.51157 0
M  V30 12872 N 1225.52 -4.09412 -4.11537 0
M  V30 12873 H 1228.28 -2.99048 -0.197619 0
M  V30 12874 H 1225.84 -1.61853 0.0388738 0
M  V30 12875 H 1227.84 -2.98862 -2.7288 0
M  V30 12876 H 1226.41 -1.97 -2.42713 0
M  V30 12877 H 1225.63 -3.85786 -0.810128 0
M  V30 12878 H 1226.91 -4.86227 -1.49868 0
M  V30 12879 H 1226.31 -3.55624 -4.39941 0
M  V30 12880 H 1224.87 -4.38928 -4.81857 0
M  V30 12881 N 1228.3 0.053464 -1.57509 0
M  V30 12882 C 1229.58 0.783141 -1.79238 0
M  V30 12883 C 1229.96 1.94855 -0.812069 0
M  V30 12884 O 1229.31 2.28 0.151006 0
M  V30 12885 C 1229.52 1.239 -3.26266 0
M  V30 12886 C 1230.86 1.66492 -3.90596 0
M  V30 12887 O 1231.89 1.33421 -3.30269 0
M  V30 12888 O 1230.75 2.27785 -4.96766 0
M  V30 12889 H 1227.84 0.376696 -0.736226 0
M  V30 12890 H 1230.39 0.0321229 -1.6967 0
M  V30 12891 H 1229.16 0.405948 -3.89189 0
M  V30 12892 H 1228.78 2.05078 -3.4063 0
M  V30 12893 N 1229.78 1.54207 0.325255 0
M  V30 12894 C 1231.03 1.72587 1.06497 0
M  V30 12895 C 1231.36 0.497228 1.87727 0
M  V30 12896 O 1230.63 -0.505804 1.87808 0
M  V30 12897 C 1230.92 3.00046 1.99109 0
M  V30 12898 C 1230.77 4.33158 1.21221 0
M  V30 12899 C 1232.09 3.23251 2.98658 0
M  V30 12900 H 1229.21 0.627974 0.38577 0
M  V30 12901 H 1231.85 1.869 0.34179 0
M  V30 12902 H 1230 2.87973 2.60775 0
M  V30 12903 H 1231.67 4.57111 0.620289 0
M  V30 12904 H 1229.91 4.30739 0.514462 0
M  V30 12905 H 1230.59 5.18558 1.89214 0
M  V30 12906 H 1233.06 3.34774 2.47114 0
M  V30 12907 H 1231.94 4.13796 3.60645 0
M  V30 12908 H 1232.2 2.40401 3.71026 0
M  V30 12909 N 1231.26 -0.58723 1.46251 0
M  V30 12910 C 1232.51 -1.34179 1.50595 0
M  V30 12911 C 1232.82 -1.94943 0.160171 0
M  V30 12912 O 1234.03 -2.71378 0.0813797 0
M  V30 12913 C 1232.48 -2.43159 2.65333 0
M  V30 12914 C 1232.09 -1.88718 4.06312 0
M  V30 12915 C 1233.83 -3.19986 2.78943 0
M  V30 12916 C 1231.74 -2.953 5.12398 0
M  V30 12917 H 1230.67 -0.504401 0.560442 0
M  V30 12918 H 1233.32 -0.627179 1.72449 0
M  V30 12919 H 1231.7 -3.17398 2.368 0
M  V30 12920 H 1232.88 -1.21051 4.44616 0
M  V30 12921 H 1231.19 -1.24572 3.97329 0
M  V30 12922 H 1233.79 -3.9952 3.5537 0
M  V30 12923 H 1234.13 -3.72288 1.86298 0
M  V30 12924 H 1234.67 -2.52852 3.07101 0
M  V30 12925 H 1231.4 -2.4789 6.0682 0
M  V30 12926 H 1230.92 -3.61469 4.78644 0
M  V30 12927 H 1232.6 -3.5933 5.38044 0
M  V30 12928 N 1232.74 -1.33881 -0.831482 0
M  V30 12929 C 1233.68 -1.24741 -1.96322 0
M  V30 12930 C 1234.68 -0.147251 -1.68759 0
M  V30 12931 O 1235.88 -0.311684 -1.77281 0
M  V30 12932 H 1232.26 -0.387298 -0.644596 0
M  V30 12933 H 1234.23 -2.20407 -2.01155 0
M  V30 12934 C 1232.98 -1.01102 -3.32677 0
M  V30 12935 H 1232.3 -1.84986 -3.54429 0
M  V30 12936 H 1233.74 -0.987398 -4.12343 0
M  V30 12937 C 1232.2 0.285903 -3.35685 0
M  V30 12938 O 1232.73 1.29014 -3.80419 0
M  V30 12939 N 1230.94 0.316026 -2.88877 0
M  V30 12940 H 1230.48 -0.501758 -2.52666 0
M  V30 12941 H 1230.44 1.18357 -2.91271 0
M  V30 12942 N 1234.21 1.05064 -1.1747 0
M  V30 12943 C 1235.18 2.1101 -0.89485 0
M  V30 12944 C 1236.18 1.60384 0.11553 0
M  V30 12945 O 1237.37 1.73808 -0.116785 0
M  V30 12946 C 1234.5 3.39194 -0.340642 0
M  V30 12947 H 1235.69 2.37269 -1.83421 0
M  V30 12948 H 1233.24 1.21329 -0.985343 0
M  V30 12949 H 1233.98 3.18591 0.605808 0
M  V30 12950 H 1233.76 3.77251 -1.06885 0
M  V30 12951 H 1235.25 4.17281 -0.163204 0
M  V30 12952 N 1235.69 0.975146 1.23809 0
M  V30 12953 C 1236.94 0.636678 1.91388 0
M  V30 12954 C 1237.25 -0.832876 1.76982 0
M  V30 12955 O 1238.46 -1.28218 2.39316 0
M  V30 12956 C 1236.92 1.08813 3.43057 0
M  V30 12957 C 1236.52 2.58165 3.66135 0
M  V30 12958 C 1238.27 0.823154 4.16443 0
M  V30 12959 C 1236.17 2.97004 5.11412 0
M  V30 12960 H 1235.1 0.234424 0.716632 0
M  V30 12961 H 1237.76 1.18235 1.40331 0
M  V30 12962 H 1236.14 0.470709 3.93192 0
M  V30 12963 H 1237.31 3.25101 3.26567 0
M  V30 12964 H 1235.63 2.82353 3.06049 0
M  V30 12965 H 1238.22 1.08925 5.23488 0
M  V30 12966 H 1238.57 -0.240705 4.15604 0
M  V30 12967 H 1239.1 1.4019 3.72279 0
M  V30 12968 H 1235.84 4.02492 5.17378 0
M  V30 12969 H 1235.36 2.34759 5.51949 0
M  V30 12970 H 1237.04 2.8732 5.79704 0
M  V30 12971 N 1237.17 -1.38817 0.746158 0
M  V30 12972 C 1238.08 -2.34316 0.115386 0
M  V30 12973 C 1239.1 -1.58892 -0.709179 0
M  V30 12974 O 1240.27 -1.91126 -0.635059 0
M  V30 12975 C 1237.34 -3.37977 -0.772821 0
M  V30 12976 C 1236.4 -4.2925 0.0652679 0
M  V30 12977 C 1235.63 -5.2796 -0.78064 0
M  V30 12978 O 1235.85 -5.33474 -2.01896 0
M  V30 12979 O 1234.79 -6.01556 -0.20338 0
M  V30 12980 H 1238.61 -2.89937 0.903887 0
M  V30 12981 H 1236.2 -1.40536 0.506958 0
M  V30 12982 H 1238.08 -4.01468 -1.28068 0
M  V30 12983 H 1236.76 -2.84723 -1.53994 0
M  V30 12984 H 1235.66 -3.68945 0.61891 0
M  V30 12985 H 1237 -4.85739 0.794871 0
M  V30 12986 N 1238.65 -0.49465 -1.49636 0
M  V30 12987 C 1239.58 0.323781 -2.26902 0
M  V30 12988 C 1240.59 0.936281 -1.33183 0
M  V30 12989 O 1241.78 0.820695 -1.58514 0
M  V30 12990 C 1238.88 1.47025 -3.05347 0
M  V30 12991 C 1238.05 0.966228 -4.26594 0
M  V30 12992 C 1237.11 1.98955 -4.87138 0
M  V30 12993 O 1236.14 1.56065 -5.47387 0
M  V30 12994 N 1237.34 3.3195 -4.76224 0
M  V30 12995 H 1240.11 -0.338716 -2.9778 0
M  V30 12996 H 1237.67 -0.326817 -1.58567 0
M  V30 12997 H 1239.66 2.15225 -3.42725 0
M  V30 12998 H 1238.23 2.03702 -2.37117 0
M  V30 12999 H 1237.45 0.109336 -3.94048 0
M  V30 13000 H 1238.74 0.607781 -5.05157 0
M  V30 13001 H 1238.14 3.69488 -4.28363 0
M  V30 13002 H 1236.69 3.95881 -5.17805 0
M  V30 13003 N 1240.13 1.55939 -0.228214 0
M  V30 13004 C 1241.4 1.90329 0.451033 0
M  V30 13005 C 1241.78 1.14646 1.77255 0
M  V30 13006 O 1241.13 0.257912 2.2704 0
M  V30 13007 C 1241.34 3.43129 0.637456 0
M  V30 13008 C 1242.69 4.14022 0.94186 0
M  V30 13009 O 1243.71 3.48764 0.724002 0
M  V30 13010 O 1242.57 5.29418 1.35568 0
M  V30 13011 H 1239.67 0.791591 0.2394 0
M  V30 13012 H 1242.21 1.67524 -0.270893 0
M  V30 13013 H 1240.98 3.90191 -0.294435 0
M  V30 13014 H 1240.61 3.71735 1.41062 0
M  V30 13015 N 1241.6 -0.0451101 1.57535 0
M  V30 13016 C 1242.83 -0.750231 1.92497 0
M  V30 13017 C 1243.24 -1.70268 0.824946 0
M  V30 13018 O 1242.59 -1.82511 -0.208656 0
M  V30 13019 C 1242.65 -1.57543 3.23141 0
M  V30 13020 C 1242.31 -0.789495 4.50129 0
M  V30 13021 C 1243.31 -0.0968367 5.1981 0
M  V30 13022 C 1240.99 -0.748776 4.96688 0
M  V30 13023 C 1242.99 0.626018 6.34318 0
M  V30 13024 C 1240.67 -0.0221652 6.11096 0
M  V30 13025 C 1241.67 0.664006 6.79765 0
M  V30 13026 O 1241.36 1.37885 7.91987 0
M  V30 13027 H 1241.09 -0.216895 0.64026 0
M  V30 13028 H 1243.65 -0.011558 2.05397 0
M  V30 13029 H 1241.88 -2.35754 3.06524 0
M  V30 13030 H 1243.57 -2.16168 3.4355 0
M  V30 13031 H 1244.33 -0.119429 4.84853 0
M  V30 13032 H 1240.21 -1.27235 4.43094 0
M  V30 13033 H 1243.75 1.16215 6.87852 0
M  V30 13034 H 1239.65 0.00240707 6.455 0
M  V30 13035 H 1240.42 1.29087 8.08257 0
M  V30 13036 N 1243.08 -1.54377 -0.317073 0
M  V30 13037 C 1244.5 -1.45232 -0.6618 0
M  V30 13038 C 1244.7 -0.630457 -1.91383 0
M  V30 13039 O 1243.75 -0.13181 -2.52156 0
M  V30 13040 C 1245.07 -2.89025 -0.829761 0
M  V30 13041 C 1246.62 -2.98967 -0.926685 0
M  V30 13042 C 1247.09 -4.43923 -1.12677 0
M  V30 13043 N 1248.58 -4.47564 -1.19335 0
M  V30 13044 C 1249.32 -5.56887 -1.36617 0
M  V30 13045 N 1248.81 -6.76167 -1.50899 0
M  V30 13046 N 1250.61 -5.44546 -1.39377 0
M  V30 13047 H 1242.76 -2.0629 0.505766 0
M  V30 13048 H 1245.02 -0.933615 0.164522 0
M  V30 13049 H 1244.73 -3.51695 0.0190945 0
M  V30 13050 H 1244.6 -3.35515 -1.72364 0
M  V30 13051 H 1246.99 -2.36421 -1.76604 0
M  V30 13052 H 1247.07 -2.55798 -0.00913402 0
M  V30 13053 H 1246.71 -5.07059 -0.29224 0
M  V30 13054 H 1246.64 -4.84708 -2.05829 0
M  V30 13055 H 1249.13 -3.61623 -1.09715 0
M  V30 13056 H 1249.45 -7.55242 -1.63796 0
M  V30 13057 H 1247.79 -6.79062 -1.47985 0
M  V30 13058 H 1250.98 -4.50311 -1.27819 0
M  V30 13059 H 1251.15 -6.29799 -1.52502 0
M  V30 13060 N 1244.56 0.579466 -1.4656 0
M  V30 13061 C 1245.49 1.69846 -1.60233 0
M  V30 13062 C 1246.47 1.6397 -0.452533 0
M  V30 13063 O 1247.66 1.81936 -0.679174 0
M  V30 13064 C 1244.79 3.08488 -1.59538 0
M  V30 13065 C 1243.74 3.29197 -2.7352 0
M  V30 13066 C 1243.07 4.684 -2.57887 0
M  V30 13067 C 1244.37 3.16718 -4.15315 0
M  V30 13068 H 1246.06 1.5866 -2.53904 0
M  V30 13069 H 1243.61 0.761873 -1.22194 0
M  V30 13070 H 1245.56 3.86595 -1.67696 0
M  V30 13071 H 1244.28 3.20581 -0.62413 0
M  V30 13072 H 1242.94 2.53491 -2.64836 0
M  V30 13073 H 1242.59 4.77262 -1.58839 0
M  V30 13074 H 1242.29 4.83208 -3.34341 0
M  V30 13075 H 1243.81 5.48671 -2.67942 0
M  V30 13076 H 1245.23 3.84666 -4.25094 0
M  V30 13077 H 1243.63 3.43047 -4.92381 0
M  V30 13078 H 1244.7 2.13755 -4.35244 0
M  V30 13079 N 1246.04 1.3432 0.824371 0
M  V30 13080 C 1247.45 1.23855 1.39703 0
M  V30 13081 C 1247.8 -0.136566 1.95724 0
M  V30 13082 O 1246.93 -1.03683 1.89944 0
M  V30 13083 C 1247.52 2.24249 2.53965 0
M  V30 13084 C 1246.08 2.17578 3.07143 0
M  V30 13085 C 1245.23 2.10933 1.80008 0
M  V30 13086 H 1248.18 1.45707 0.628891 0
M  V30 13087 H 1248.2 1.85864 3.32016 0
M  V30 13088 H 1247.71 3.24321 2.13161 0
M  V30 13089 H 1245.81 1.20858 3.52455 0
M  V30 13090 H 1245.92 3.08769 3.66331 0
M  V30 13091 H 1244.29 1.56631 2.00845 0
M  V30 13092 H 1245.07 3.12836 1.4138 0
M  V30 13093 N 1247.52 -1.0444 1.18026 0
M  V30 13094 C 1248.93 -1.5903 0.978076 0
M  V30 13095 C 1249.28 -1.90407 -0.473241 0
M  V30 13096 O 1248.4 -1.69133 -1.34992 0
M  V30 13097 C 1249 -2.88942 1.76912 0
M  V30 13098 C 1247.56 -3.40164 1.61139 0
M  V30 13099 C 1246.7 -2.13797 1.76596 0
M  V30 13100 H 1249.66 -0.871574 1.32625 0
M  V30 13101 H 1249.68 -3.59173 1.25598 0
M  V30 13102 H 1249.19 -2.66074 2.82535 0
M  V30 13103 H 1247.29 -3.68053 0.580353 0
M  V30 13104 H 1247.4 -4.14241 2.40709 0
M  V30 13105 H 1245.77 -2.24922 1.19507 0
M  V30 13106 H 1246.55 -1.93389 2.83647 0
M  V30 13107 N 1248.99 -0.981699 -1.2329 0
M  V30 13108 C 1250.41 -0.688087 -1.73558 0
M  V30 13109 C 1250.76 0.795633 -1.79344 0
M  V30 13110 O 1249.88 1.62227 -1.43218 0
M  V30 13111 C 1250.48 -1.24235 -3.152 0
M  V30 13112 C 1249.04 -0.998356 -3.62918 0
M  V30 13113 C 1248.18 -1.3693 -2.41134 0
M  V30 13114 H 1251.13 -1.15539 -1.08795 0
M  V30 13115 H 1251.15 -0.61541 -3.7549 0
M  V30 13116 H 1250.67 -2.32223 -3.10957 0
M  V30 13117 H 1248.77 0.0653847 -3.72543 0
M  V30 13118 H 1248.88 -1.65385 -4.49649 0
M  V30 13119 H 1247.24 -0.787773 -2.42211 0
M  V30 13120 H 1248.03 -2.45898 -2.39561 0
M  V30 13121 N 1250.47 1.3842 -0.753509 0
M  V30 13122 C 1251.41 2.28079 -0.0741683 0
M  V30 13123 C 1252.38 1.45372 0.728398 0
M  V30 13124 O 1253.57 1.74737 0.707043 0
M  V30 13125 C 1250.69 3.26475 0.901764 0
M  V30 13126 C 1249.74 4.26097 0.185438 0
M  V30 13127 S 1250.57 5.23791 -1.11372 0
M  V30 13128 C 1251.73 6.25741 -0.140861 0
M  V30 13129 H 1251.96 2.85349 -0.834475 0
M  V30 13130 H 1249.5 1.4442 -0.546089 0
M  V30 13131 H 1251.45 3.83678 1.4595 0
M  V30 13132 H 1250.11 2.68189 1.63504 0
M  V30 13133 H 1249.31 4.95447 0.924578 0
M  V30 13134 H 1248.91 3.72789 -0.300772 0
M  V30 13135 H 1251.2 6.73945 0.693174 0
M  V30 13136 H 1252.14 7.03543 -0.80202 0
M  V30 13137 H 1252.55 5.6399 0.2398 0
M  V30 13138 N 1251.95 0.502579 1.49372 0
M  V30 13139 C 1253.23 -0.104472 1.95321 0
M  V30 13140 C 1253.61 -1.53975 1.44412 0
M  V30 13141 O 1252.96 -2.18804 0.658566 0
M  V30 13142 C 1253.17 -0.0154833 3.48997 0
M  V30 13143 C 1254.51 -0.188615 4.24181 0
M  V30 13144 O 1255.54 -0.090595 3.56085 0
M  V30 13145 O 1254.4 -0.390068 5.45106 0
M  V30 13146 H 1251.49 -0.0944325 0.821591 0
M  V30 13147 H 1254.04 0.565229 1.6001 0
M  V30 13148 H 1252.81 0.985383 3.7869 0
M  V30 13149 H 1252.43 -0.72526 3.90929 0
M  V30 13150 N 1253.43 -1.55816 0.23648 0
M  V30 13151 C 1254.67 -2.0059 -0.39281 0
M  V30 13152 C 1255.03 -1.12092 -1.55883 0
M  V30 13153 O 1256.23 -1.46277 -2.25514 0
M  V30 13154 C 1254.5 -3.48281 -0.80219 0
M  V30 13155 S 1256.06 -4.15069 -1.42348 0
M  V30 13156 H 1252.88 -0.700093 -0.124057 0
M  V30 13157 H 1255.48 -1.92355 0.349272 0
M  V30 13158 H 1254.19 -4.10362 0.0558941 0
M  V30 13159 H 1253.72 -3.60421 -1.57671 0
M  V30 13160 H 1255.73 -4.15493 -2.71257 0
M  V30 13161 N 1254.91 0.036755 -1.57557 0
M  V30 13162 C 1256.32 0.584324 -1.7732 0
M  V30 13163 C 1256.67 1.76025 -0.86658 0
M  V30 13164 O 1255.79 2.16318 -0.059443 0
M  V30 13165 C 1256.39 1.06679 -3.21566 0
M  V30 13166 C 1254.95 1.55994 -3.42553 0
M  V30 13167 C 1254.09 0.494604 -2.72853 0
M  V30 13168 H 1257.05 -0.189473 -1.57565 0
M  V30 13169 H 1257.07 1.93446 -3.27657 0
M  V30 13170 H 1256.58 0.210727 -3.87527 0
M  V30 13171 H 1254.68 2.43811 -2.81757 0
M  V30 13172 H 1254.79 1.61274 -4.5114 0
M  V30 13173 H 1253.16 0.947865 -2.36406 0
M  V30 13174 H 1253.94 -0.351868 -3.41492 0
M  V30 13175 N 1256.39 1.54543 0.308881 0
M  V30 13176 C 1257.35 1.84214 1.36374 0
M  V30 13177 C 1258.35 0.71463 1.44047 0
M  V30 13178 O 1259.54 0.98293 1.4382 0
M  V30 13179 C 1256.67 2.01535 2.74948 0
M  V30 13180 H 1257.86 2.78477 1.11314 0
M  V30 13181 H 1255.42 1.46485 0.545141 0
M  V30 13182 H 1256.15 1.09533 3.05242 0
M  V30 13183 H 1255.94 2.83595 2.7077 0
M  V30 13184 H 1257.43 2.25888 3.51233 0
M  V30 13185 N 1257.86 -0.571685 1.46866 0
M  V30 13186 C 1258.83 -1.66198 1.57832 0
M  V30 13187 C 1259.83 -1.54242 0.454547 0
M  V30 13188 O 1261.02 -1.58661 0.719191 0
M  V30 13189 C 1258.15 -3.05678 1.5091 0
M  V30 13190 H 1259.34 -1.57829 2.5501 0
M  V30 13191 H 1256.89 -0.790433 1.3484 0
M  V30 13192 H 1257.63 -3.19593 0.550529 0
M  V30 13193 H 1257.41 -3.15765 2.32454 0
M  V30 13194 H 1258.9 -3.85027 1.61692 0
M  V30 13195 N 1259.34 -1.34755 -0.817236 0
M  V30 13196 C 1260.27 -1.29452 -1.94331 0
M  V30 13197 C 1261.25 -0.170902 -1.69239 0
M  V30 13198 O 1262.44 -0.364173 -1.90755 0
M  V30 13199 C 1259.57 -1.05497 -3.30889 0
M  V30 13200 C 1258.52 -2.14386 -3.70436 0
M  V30 13201 C 1257.85 -1.75612 -5.05039 0
M  V30 13202 C 1259.15 -3.56265 -3.81933 0
M  V30 13203 H 1260.84 -2.23672 -1.99025 0
M  V30 13204 H 1258.39 -1.07674 -0.956159 0
M  V30 13205 H 1260.34 -1.0043 -4.09257 0
M  V30 13206 H 1259.06 -0.0772059 -3.26509 0
M  V30 13207 H 1257.72 -2.18532 -2.94345 0
M  V30 13208 H 1257.37 -0.764809 -4.97152 0
M  V30 13209 H 1257.07 -2.48495 -5.3247 0
M  V30 13210 H 1258.6 -1.72051 -5.85859 0
M  V30 13211 H 1260.01 -3.545 -4.50558 0
M  V30 13212 H 1258.41 -4.27818 -4.20822 0
M  V30 13213 H 1259.48 -3.93192 -2.83775 0
M  V30 13214 N 1260.82 1.03812 -1.18578 0
M  V30 13215 C 1261.77 2.10206 -0.883037 0
M  V30 13216 C 1262.75 1.60215 0.148303 0
M  V30 13217 O 1263.95 1.76911 -0.0560957 0
M  V30 13218 C 1261.07 3.40802 -0.41335 0
M  V30 13219 C 1260.16 3.97553 -1.47691 0
M  V30 13220 N 1260.55 4.28085 -2.69401 0
M  V30 13221 C 1258.85 4.25456 -1.33802 0
M  V30 13222 C 1259.55 4.73535 -3.37845 0
M  V30 13223 N 1258.53 4.74504 -2.6523 0
M  V30 13224 H 1262.33 2.31692 -1.80821 0
M  V30 13225 H 1259.84 1.21589 -1.07656 0
M  V30 13226 H 1261.84 4.1652 -0.177953 0
M  V30 13227 H 1260.5 3.20742 0.505449 0
M  V30 13228 H 1261.51 4.17653 -3.06246 0
M  V30 13229 H 1258.19 4.14709 -0.481961 0
M  V30 13230 H 1259.58 5.06157 -4.41876 0
M  V30 13231 N 1262.3 0.988223 1.22768 0
M  V30 13232 C 1263.23 0.492919 2.23837 0
M  V30 13233 C 1264.24 -0.409467 1.57567 0
M  V30 13234 O 1265.43 -0.21235 1.77232 0
M  V30 13235 C 1262.53 -0.305428 3.37521 0
M  V30 13236 C 1261.7 0.591966 4.33376 0
M  V30 13237 C 1260.76 -0.15387 5.25975 0
M  V30 13238 O 1259.79 0.459153 5.67345 0
M  V30 13239 N 1260.99 -1.43756 5.62418 0
M  V30 13240 H 1263.76 1.36199 2.66965 0
M  V30 13241 H 1261.32 0.862395 1.3702 0
M  V30 13242 H 1263.31 -0.812921 3.96451 0
M  V30 13243 H 1261.88 -1.07556 2.93514 0
M  V30 13244 H 1261.1 1.28019 3.72833 0
M  V30 13245 H 1262.39 1.20327 4.94367 0
M  V30 13246 H 1261.79 -1.95701 5.30771 0
M  V30 13247 H 1260.34 -1.89034 6.23786 0
M  V30 13248 N 1263.78 -1.38018 0.760839 0
M  V30 13249 C 1264.71 -2.32995 0.153557 0
M  V30 13250 C 1265.69 -1.55234 -0.695448 0
M  V30 13251 O 1266.87 -1.8352 -0.635148 0
M  V30 13252 C 1264 -3.39437 -0.734811 0
M  V30 13253 C 1262.96 -4.27998 0.0120287 0
M  V30 13254 C 1262.28 -5.25359 -0.995067 0
M  V30 13255 C 1263.58 -5.08687 1.18468 0
M  V30 13256 H 1265.28 -2.8403 0.946956 0
M  V30 13257 H 1262.82 -1.36562 0.456816 0
M  V30 13258 H 1264.77 -4.0485 -1.16938 0
M  V30 13259 H 1263.5 -2.86901 -1.56061 0
M  V30 13260 H 1262.16 -3.64102 0.427254 0
M  V30 13261 H 1261.81 -4.69108 -1.81512 0
M  V30 13262 H 1261.51 -5.85469 -0.499969 0
M  V30 13263 H 1263.03 -5.93648 -1.4288 0
M  V30 13264 H 1264.44 -5.67299 0.8273 0
M  V30 13265 H 1262.84 -5.78068 1.61112 0
M  V30 13266 H 1263.91 -4.42 1.99409 0
M  V30 13267 N 1265.25 -0.510493 -1.49103 0
M  V30 13268 C 1266.19 0.309697 -2.26089 0
M  V30 13269 C 1267.16 0.962061 -1.31084 0
M  V30 13270 O 1268.35 0.990296 -1.60391 0
M  V30 13271 C 1265.48 1.43693 -3.06708 0
M  V30 13272 C 1264.52 0.897978 -4.1694 0
M  V30 13273 S 1265.35 -0.218781 -5.35053 0
M  V30 13274 C 1266.51 0.911396 -6.19229 0
M  V30 13275 H 1266.74 -0.343702 -2.95307 0
M  V30 13276 H 1264.28 -0.295944 -1.51537 0
M  V30 13277 H 1266.23 2.08277 -3.53739 0
M  V30 13278 H 1264.9 2.06198 -2.36941 0
M  V30 13279 H 1264.09 1.74303 -4.729 0
M  V30 13280 H 1263.69 0.329192 -3.72548 0
M  V30 13281 H 1265.98 1.8145 -6.5275 0
M  V30 13282 H 1266.93 0.390201 -7.07024 0
M  V30 13283 H 1267.33 1.18301 -5.51965 0
M  V30 13284 N 1266.73 1.55688 -0.24474 0
M  V30 13285 C 1267.66 2.24272 0.64995 0
M  V30 13286 C 1268.64 1.22226 1.183 0
M  V30 13287 O 1269.83 1.50873 1.22274 0
M  V30 13288 C 1266.96 2.94053 1.84798 0
M  V30 13289 C 1265.91 4.02769 1.44779 0
M  V30 13290 C 1265.24 4.59965 2.72647 0
M  V30 13291 C 1266.54 5.18601 0.62047 0
M  V30 13292 H 1268.23 2.99298 0.0780654 0
M  V30 13293 H 1265.78 1.43955 0.0361069 0
M  V30 13294 H 1267.73 3.40732 2.47951 0
M  V30 13295 H 1266.45 2.16511 2.44521 0
M  V30 13296 H 1265.11 3.56856 0.839609 0
M  V30 13297 H 1264.76 3.79126 3.30564 0
M  V30 13298 H 1264.46 5.33352 2.46596 0
M  V30 13299 H 1265.99 5.09376 3.36703 0
M  V30 13300 H 1267.4 5.61519 1.15625 0
M  V30 13301 H 1265.8 5.98364 0.456097 0
M  V30 13302 H 1266.87 4.83503 -0.367798 0
M  V30 13303 N 1268.21 -0.0283989 1.57574 0
M  V30 13304 C 1269.49 -0.754527 1.80461 0
M  V30 13305 C 1269.87 -1.93539 0.842966 0
M  V30 13306 O 1269.21 -2.28212 -0.114714 0
M  V30 13307 C 1269.42 -1.18694 3.28196 0
M  V30 13308 C 1270.77 -1.60257 3.93196 0
M  V30 13309 O 1271.8 -1.2815 3.32349 0
M  V30 13310 O 1270.66 -2.19853 5.00327 0
M  V30 13311 H 1267.75 -0.364936 0.742126 0
M  V30 13312 H 1270.3 -0.00512589 1.69699 0
M  V30 13313 H 1269.07 -0.34398 3.89785 0
M  V30 13314 H 1268.69 -1.99633 3.43849 0
M  V30 13315 N 1269.69 -1.54705 -0.300681 0
M  V30 13316 C 1270.93 -1.75738 -1.04381 0
M  V30 13317 C 1271.29 -0.532138 -1.84478 0
M  V30 13318 O 1272.49 -0.620213 -2.61547 0
M  V30 13319 C 1270.76 -3.01095 -1.92553 0
M  V30 13320 S 1272.32 -3.43132 -2.73507 0
M  V30 13321 H 1269.14 -0.617737 -0.352025 0
M  V30 13322 H 1271.74 -1.9291 -0.317187 0
M  V30 13323 H 1270.45 -3.88393 -1.32585 0
M  V30 13324 H 1269.98 -2.86512 -2.69582 0
M  V30 13325 H 1271.99 -3.00227 -3.95067 0
M  V30 13326 N 1271.17 0.563888 -1.47167 0
M  V30 13327 C 1272.41 1.32105 -1.5466 0
M  V30 13328 C 1272.77 1.91322 -0.203349 0
M  V30 13329 O 1272.06 1.74546 0.790201 0
M  V30 13330 C 1272.25 2.45678 -2.59571 0
M  V30 13331 C 1272.08 1.97589 -4.03966 0
M  V30 13332 C 1270.85 1.81738 -4.71486 0
M  V30 13333 C 1273.05 1.52432 -4.91191 0
M  V30 13334 N 1271.03 1.27918 -6.00425 0
M  V30 13335 C 1272.4 1.10332 -6.10104 0
M  V30 13336 C 1274.46 1.40422 -4.77688 0
M  V30 13337 C 1273.16 0.574166 -7.17005 0
M  V30 13338 C 1275.19 0.889086 -5.84679 0
M  V30 13339 C 1274.55 0.477976 -7.02776 0
M  V30 13340 H 1270.65 0.475685 -0.620683 0
M  V30 13341 H 1273.23 0.639944 -1.83883 0
M  V30 13342 H 1271.4 3.11328 -2.32227 0
M  V30 13343 H 1273.14 3.12667 -2.56947 0
M  V30 13344 H 1269.89 2.04253 -4.27291 0
M  V30 13345 H 1270.32 1.03116 -6.69101 0
M  V30 13346 H 1274.96 1.7082 -3.86756 0
M  V30 13347 H 1272.68 0.257804 -8.07689 0
M  V30 13348 H 1276.26 0.799807 -5.76276 0
M  V30 13349 H 1275.14 0.0855381 -7.84153 0
M  V30 13350 N 1272.64 1.35187 0.810078 0
M  V30 13351 C 1273.58 1.23673 1.92971 0
M  V30 13352 C 1274.59 0.160819 1.62004 0
M  V30 13353 O 1275.78 0.413793 1.73638 0
M  V30 13354 C 1272.88 0.880887 3.27252 0
M  V30 13355 C 1272.05 2.05444 3.86149 0
M  V30 13356 C 1271.11 1.67494 4.98831 0
M  V30 13357 O 1270.14 2.39322 5.16443 0
M  V30 13358 N 1271.34 0.596539 5.77427 0
M  V30 13359 H 1274.1 2.20133 2.03376 0
M  V30 13360 H 1271.66 1.2831 0.987322 0
M  V30 13361 H 1273.66 0.608556 4.00098 0
M  V30 13362 H 1272.23 0.00607926 3.12599 0
M  V30 13363 H 1271.45 2.49077 3.05539 0
M  V30 13364 H 1272.73 2.83898 4.22231 0
M  V30 13365 H 1272.13 -0.000312591 5.657 0
M  V30 13366 H 1270.69 0.383979 6.50668 0
M  V30 13367 N 1274.12 -1.03182 1.19127 0
M  V30 13368 C 1275.07 -2.11394 0.926339 0
M  V30 13369 C 1276.04 -1.65528 -0.137703 0
M  V30 13370 O 1277.22 -1.908 0.00381804 0
M  V30 13371 C 1274.36 -3.41913 0.467894 0
M  V30 13372 C 1273.48 -4.01343 1.59837 0
M  V30 13373 C 1272.61 -5.1986 1.09175 0
M  V30 13374 C 1271.65 -5.71339 2.19632 0
M  V30 13375 N 1270.79 -6.81133 1.703 0
M  V30 13376 H 1275.63 -2.33393 1.85288 0
M  V30 13377 H 1273.17 -1.14473 0.923811 0
M  V30 13378 H 1275.12 -4.16796 0.183513 0
M  V30 13379 H 1273.75 -3.20034 -0.421656 0
M  V30 13380 H 1272.81 -3.23702 1.99803 0
M  V30 13381 H 1274.12 -4.35568 2.43068 0
M  V30 13382 H 1273.27 -6.0189 0.762427 0
M  V30 13383 H 1272.01 -4.87161 0.22914 0
M  V30 13384 H 1271.02 -4.87923 2.53399 0
M  V30 13385 H 1272.24 -6.06078 3.06344 0
M  V30 13386 H 1270.19 -6.50293 0.863415 0
M  V30 13387 H 1270.1 -7.1447 2.47122 0
M  V30 13388 H 1271.37 -7.66766 1.40321 0
M  V30 13389 N 1275.6 -0.99472 -1.22242 0
M  V30 13390 C 1276.88 -0.587481 -1.86569 0
M  V30 13391 C 1277.26 0.935174 -1.89256 0
M  V30 13392 O 1276.61 1.81787 -1.3844 0
M  V30 13393 C 1276.82 -1.21001 -3.27353 0
M  V30 13394 C 1278.16 -1.31167 -4.03832 0
M  V30 13395 O 1279.19 -1.16454 -3.36626 0
M  V30 13396 O 1278.05 -1.54731 -5.24138 0
M  V30 13397 H 1275.14 -0.199838 -0.802492 0
M  V30 13398 H 1277.69 -1.09071 -1.30006 0
M  V30 13399 H 1276.46 -2.25143 -3.20041 0
M  V30 13400 H 1276.08 -0.692479 -3.91523 0
M  V30 13401 N 1277.08 1.37613 -0.768148 0
M  V30 13402 C 1278.49 1.53202 -0.44737 0
M  V30 13403 C 1278.69 1.72736 1.03752 0
M  V30 13404 O 1277.75 1.74667 1.8234 0
M  V30 13405 C 1279.06 2.7306 -1.25931 0
M  V30 13406 C 1280.61 2.8692 -1.25084 0
M  V30 13407 C 1281.09 4.09757 -2.04605 0
M  V30 13408 N 1282.58 4.16862 -2.0194 0
M  V30 13409 C 1283.31 5.10936 -2.60254 0
M  V30 13410 N 1282.81 6.1059 -3.27341 0
M  V30 13411 N 1284.6 5.03393 -2.50104 0
M  V30 13412 H 1276.75 1.23184 -1.7303 0
M  V30 13413 H 1279.02 0.599541 -0.73434 0
M  V30 13414 H 1278.72 2.65078 -2.31141 0
M  V30 13415 H 1278.6 3.66646 -0.886036 0
M  V30 13416 H 1280.98 2.94375 -0.206736 0
M  V30 13417 H 1281.06 1.94303 -1.66373 0
M  V30 13418 H 1280.71 4.03063 -3.09035 0
M  V30 13419 H 1280.64 5.01481 -1.60701 0
M  V30 13420 H 1283.13 3.455 -1.53096 0
M  V30 13421 H 1283.44 6.78893 -3.6922 0
M  V30 13422 H 1281.79 6.10879 -3.31439 0
M  V30 13423 H 1284.98 4.24483 -1.9731 0
M  V30 13424 H 1285.15 5.76524 -2.95844 0
M  V30 13425 N 1278.56 0.518393 1.4883 0
M  V30 13426 C 1279.5 -0.264197 2.31095 0
M  V30 13427 C 1280.5 -0.946455 1.40494 0
M  V30 13428 O 1281.7 -0.872161 1.57459 0
M  V30 13429 H 1278.08 -0.104065 0.744765 0
M  V30 13430 H 1280.05 0.449375 2.94997 0
M  V30 13431 C 1278.8 -1.30527 3.2227 0
M  V30 13432 H 1278.12 -0.789695 3.91923 0
M  V30 13433 H 1279.56 -1.82449 3.82738 0
M  V30 13434 C 1278.02 -2.33274 2.43073 0
M  V30 13435 O 1278.55 -3.39493 2.14726 0
M  V30 13436 N 1276.76 -2.06189 2.04779 0
M  V30 13437 H 1276.3 -1.19829 2.28033 0
M  V30 13438 H 1276.26 -2.7516 1.521 0
M  V30 13439 N 1280.03 -1.55556 0.252993 0
M  V30 13440 C 1281.26 -2.03945 -0.376965 0
M  V30 13441 C 1281.68 -1.13089 -1.50308 0
M  V30 13442 O 1281.04 -0.125039 -1.80868 0
M  V30 13443 C 1281.09 -3.50284 -0.856363 0
M  V30 13444 O 1280.19 -3.62551 -1.96546 0
M  V30 13445 H 1279.54 -0.659002 -0.081317 0
M  V30 13446 H 1282.07 -2.01024 0.380831 0
M  V30 13447 H 1282.08 -3.91222 -1.15798 0
M  V30 13448 H 1280.75 -4.15887 -0.0323302 0
M  V30 13449 H 1279.33 -3.33511 -1.66808 0
M  V30 13450 N 1281.51 0.0200419 -1.57587 0
M  V30 13451 C 1282.93 0.375834 -1.55112 0
M  V30 13452 C 1283.13 1.76047 -0.980297 0
M  V30 13453 O 1282.18 2.45138 -0.605297 0
M  V30 13454 C 1283.5 0.269418 -2.99491 0
M  V30 13455 C 1285.05 0.345838 -3.11084 0
M  V30 13456 C 1285.52 0.268771 -4.57211 0
M  V30 13457 N 1287.01 0.32729 -4.62042 0
M  V30 13458 C 1287.75 0.290688 -5.72663 0
M  V30 13459 N 1287.24 0.205851 -6.92494 0
M  V30 13460 N 1289.04 0.341082 -5.61064 0
M  V30 13461 H 1281.19 -0.885979 -1.93039 0
M  V30 13462 H 1283.45 -0.337753 -0.885792 0
M  V30 13463 H 1283.16 -0.682452 -3.45015 0
M  V30 13464 H 1283.03 1.0595 -3.62014 0
M  V30 13465 H 1285.42 1.28814 -2.65501 0
M  V30 13466 H 1285.5 -0.47376 -2.51375 0
M  V30 13467 H 1285.14 -0.669906 -5.03463 0
M  V30 13468 H 1285.07 1.10659 -5.14842 0
M  V30 13469 H 1287.56 0.395004 -3.7583 0
M  V30 13470 H 1287.88 0.18327 -7.72583 0
M  V30 13471 H 1286.22 0.171768 -6.94788 0
M  V30 13472 H 1289.41 0.405415 -4.66341 0
M  V30 13473 H 1289.58 0.309091 -6.47262 0
M  V30 13474 N 1282.99 1.54862 0.292472 0
M  V30 13475 C 1284.4 1.65459 0.864891 0
M  V30 13476 C 1284.75 0.568808 1.87774 0
M  V30 13477 O 1283.88 -0.293107 2.14406 0
M  V30 13478 C 1284.47 2.99939 1.5755 0
M  V30 13479 C 1283.03 3.12628 2.09621 0
M  V30 13480 C 1282.18 2.61179 0.931713 0
M  V30 13481 H 1285.13 1.58549 0.0692679 0
M  V30 13482 H 1285.15 2.91839 2.44152 0
M  V30 13483 H 1284.66 3.78943 0.838088 0
M  V30 13484 H 1282.76 2.3836 2.86383 0
M  V30 13485 H 1282.88 4.18911 2.32488 0
M  V30 13486 H 1281.24 2.17846 1.31967 0
M  V30 13487 H 1282.02 3.42669 0.208121 0
M  V30 13488 N 1284.47 -0.556076 1.47464 0
M  V30 13489 C 1285.88 -0.882115 1.33007 0
M  V30 13490 C 1286.08 -1.9892 0.321407 0
M  V30 13491 O 1285.14 -2.51088 -0.266668 0
M  V30 13492 C 1286.45 -1.27428 2.72365 0
M  V30 13493 C 1288 -1.38564 2.80658 0
M  V30 13494 C 1288.48 -1.81136 4.20659 0
M  V30 13495 N 1289.97 -1.88284 4.23206 0
M  V30 13496 C 1290.7 -2.22555 5.28447 0
M  V30 13497 N 1290.2 -2.55432 6.43993 0
M  V30 13498 N 1291.99 -2.23339 5.15826 0
M  V30 13499 H 1284.14 0.17481 2.11679 0
M  V30 13500 H 1286.41 0.0155421 0.947873 0
M  V30 13501 H 1286.11 -0.53463 3.47613 0
M  V30 13502 H 1285.99 -2.23019 3.04208 0
M  V30 13503 H 1288.37 -2.1161 2.05682 0
M  V30 13504 H 1288.45 -0.411588 2.52467 0
M  V30 13505 H 1288.1 -1.08659 4.96141 0
M  V30 13506 H 1288.03 -2.79546 4.46275 0
M  V30 13507 H 1290.52 -1.65259 3.3985 0
M  V30 13508 H 1290.83 -2.80612 7.20053 0
M  V30 13509 H 1289.18 -2.5301 6.47311 0
M  V30 13510 H 1292.37 -1.97094 4.24584 0
M  V30 13511 H 1292.54 -2.49717 5.97951 0
M  V30 13512 N 1285.95 -1.35615 -0.802897 0
M  V30 13513 C 1287.19 -1.29094 -1.56016 0
M  V30 13514 C 1287.52 0.133617 -1.9404 0
M  V30 13515 O 1286.78 1.09975 -1.61876 0
M  V30 13516 C 1287.08 -2.14653 -2.8576 0
M  V30 13517 C 1286.74 -3.63395 -2.66936 0
M  V30 13518 C 1285.4 -4.03937 -2.61511 0
M  V30 13519 C 1287.76 -4.57758 -2.49212 0
M  V30 13520 C 1285.08 -5.37006 -2.36309 0
M  V30 13521 C 1287.44 -5.91029 -2.25539 0
M  V30 13522 C 1286.1 -6.30712 -2.18538 0
M  V30 13523 H 1285.37 -0.472387 -0.570904 0
M  V30 13524 H 1288.02 -1.67545 -0.92741 0
M  V30 13525 H 1286.32 -1.69095 -3.53432 0
M  V30 13526 H 1288.02 -2.06941 -3.43477 0
M  V30 13527 H 1284.61 -3.31224 -2.72009 0
M  V30 13528 H 1288.79 -4.27318 -2.52414 0
M  V30 13529 H 1284.05 -5.66748 -2.29361 0
M  V30 13530 H 1288.22 -6.63724 -2.10816 0
M  V30 13531 H 1285.85 -7.33753 -1.98772 0
M  V30 13532 N 1287.43 1.02549 -1.19673 0
M  V30 13533 C 1288.39 2.09064 -0.939407 0
M  V30 13534 C 1289.39 1.60593 0.0814837 0
M  V30 13535 O 1290.58 1.73521 -0.153626 0
M  V30 13536 C 1287.71 3.38395 -0.412513 0
M  V30 13537 H 1288.9 2.33325 -1.88413 0
M  V30 13538 H 1286.46 1.19211 -1.01086 0
M  V30 13539 H 1287.19 3.19805 0.538094 0
M  V30 13540 H 1286.98 3.74898 -1.14863 0
M  V30 13541 H 1288.47 4.16841 -0.251678 0
M  V30 13542 N 1288.9 1.00119 1.21713 0
M  V30 13543 C 1289.81 0.567582 2.27631 0
M  V30 13544 C 1290.83 -0.387593 1.69628 0
M  V30 13545 O 1292.01 -0.252372 1.99813 0
M  V30 13546 C 1289.07 -0.102745 3.46548 0
M  V30 13547 C 1288.13 0.896433 4.19836 0
M  V30 13548 C 1287.36 0.258 5.33076 0
M  V30 13549 O 1287.59 -0.946118 5.62499 0
M  V30 13550 O 1286.52 0.967021 5.94081 0
M  V30 13551 H 1290.35 1.44898 2.66905 0
M  V30 13552 H 1287.93 0.769862 1.28037 0
M  V30 13553 H 1289.81 -0.477846 4.18682 0
M  V30 13554 H 1288.49 -0.958576 3.09181 0
M  V30 13555 H 1287.4 1.32262 3.49939 0
M  V30 13556 H 1288.73 1.72173 4.61104 0
M  V30 13557 N 1290.38 -1.37203 0.775435 0
M  V30 13558 C 1291.63 -1.98846 0.338093 0
M  V30 13559 C 1291.94 -1.6225 -1.09244 0
M  V30 13560 O 1293.15 -2.17024 -1.63135 0
M  V30 13561 C 1291.61 -3.55618 0.553541 0
M  V30 13562 C 1291.21 -4.01149 1.99457 0
M  V30 13563 C 1292.96 -4.24118 0.180006 0
M  V30 13564 C 1290.86 -5.50644 2.15742 0
M  V30 13565 H 1289.79 -0.743955 0.122669 0
M  V30 13566 H 1292.45 -1.56685 0.955087 0
M  V30 13567 H 1290.83 -3.95777 -0.132964 0
M  V30 13568 H 1292 -3.72226 2.71633 0
M  V30 13569 H 1290.32 -3.45443 2.32504 0
M  V30 13570 H 1292.91 -5.33966 0.280145 0
M  V30 13571 H 1293.26 -4.07104 -0.870192 0
M  V30 13572 H 1293.79 -3.89274 0.819201 0
M  V30 13573 H 1290.53 -5.7259 3.19094 0
M  V30 13574 H 1290.05 -5.8124 1.48054 0
M  V30 13575 H 1291.73 -6.16668 1.95781 0
M  V30 13576 N 1291.86 -0.526279 -1.48553 0
M  V30 13577 C 1293.11 0.00918008 -2.02798 0
M  V30 13578 C 1293.44 1.34284 -1.4029 0
M  V30 13579 O 1292.71 1.86639 -0.547355 0
M  V30 13580 C 1293 0.135102 -3.59846 0
M  V30 13581 C 1292.85 -1.22347 -4.32841 0
M  V30 13582 C 1294.17 0.863673 -4.31542 0
M  V30 13583 H 1291.29 0.00186216 -0.736998 0
M  V30 13584 H 1293.93 -0.682591 -1.77315 0
M  V30 13585 H 1292.08 0.724279 -3.81689 0
M  V30 13586 H 1293.75 -1.85347 -4.22427 0
M  V30 13587 H 1291.99 -1.80631 -3.94405 0
M  V30 13588 H 1292.67 -1.08839 -5.41164 0
M  V30 13589 H 1295.14 0.363734 -4.14507 0
M  V30 13590 H 1294.02 0.92067 -5.41124 0
M  V30 13591 H 1294.28 1.91313 -3.98562 0
M  V30 13592 N 1293.34 1.5542 -0.261239 0
M  V30 13593 C 1294.29 2.23382 0.648324 0
M  V30 13594 C 1295.28 1.22615 1.16884 0
M  V30 13595 O 1296.49 1.40587 1.12407 0
M  V30 13596 H 1292.86 0.716733 0.227592 0
M  V30 13597 H 1294.83 2.98354 0.0521289 0
M  V30 13598 C 1293.58 2.9579 1.82766 0
M  V30 13599 H 1292.9 3.73109 1.4363 0
M  V30 13600 H 1294.34 3.46686 2.441 0
M  V30 13601 C 1292.8 2.00472 2.70763 0
M  V30 13602 O 1293.33 1.54698 3.70717 0
M  V30 13603 N 1291.54 1.67267 2.37635 0
M  V30 13604 H 1291.09 2.04685 1.56402 0
M  V30 13605 H 1291.04 1.03759 2.96785 0
M  V30 13606 N 1294.82 -0.0116844 1.57596 0
M  V30 13607 C 1296.04 -0.71026 1.94327 0
M  V30 13608 C 1296.46 -1.67952 0.862418 0
M  V30 13609 O 1295.82 -1.818 -0.159698 0
M  V30 13610 C 1295.87 -1.45228 3.31045 0
M  V30 13611 O 1295.59 -0.52191 4.3498 0
M  V30 13612 C 1297.09 -2.24644 3.82165 0
M  V30 13613 H 1294.31 -0.198559 0.640949 0
M  V30 13614 H 1296.85 0.0359615 2.04468 0
M  V30 13615 H 1295.01 -2.15023 3.22248 0
M  V30 13616 H 1295.42 -1.04415 5.14002 0
M  V30 13617 H 1296.9 -2.72078 4.80289 0
M  V30 13618 H 1297.37 -3.06817 3.14261 0
M  V30 13619 H 1297.98 -1.59888 3.94101 0
M  V30 13620 N 1296.29 -1.55015 -0.284256 0
M  V30 13621 C 1297.22 -1.90128 -1.3555 0
M  V30 13622 C 1298.2 -0.761914 -1.52082 0
M  V30 13623 O 1299.39 -1.01909 -1.65312 0
M  V30 13624 C 1296.52 -2.16332 -2.71695 0
M  V30 13625 C 1295.47 -3.32166 -2.69907 0
M  V30 13626 C 1294.8 -3.43824 -4.09498 0
M  V30 13627 C 1296.1 -4.6885 -2.30168 0
M  V30 13628 H 1297.79 -2.79852 -1.06411 0
M  V30 13629 H 1295.34 -1.34649 -0.510451 0
M  V30 13630 H 1297.29 -2.39482 -3.46737 0
M  V30 13631 H 1296.02 -1.23395 -3.02392 0
M  V30 13632 H 1294.68 -3.08965 -1.97322 0
M  V30 13633 H 1294.32 -2.48375 -4.374 0
M  V30 13634 H 1294.02 -4.21698 -4.092 0
M  V30 13635 H 1295.55 -3.69254 -4.86296 0
M  V30 13636 H 1296.96 -4.91619 -2.9493 0
M  V30 13637 H 1295.36 -5.49558 -2.41052 0
M  V30 13638 H 1296.43 -4.68433 -1.25294 0
M  V30 13639 N 1297.77 0.548248 -1.47757 0
M  V30 13640 C 1299.05 1.3092 -1.45325 0
M  V30 13641 C 1299.43 2.1053 -0.155008 0
M  V30 13642 O 1298.78 2.11558 0.863455 0
M  V30 13643 C 1298.99 2.20614 -2.70426 0
M  V30 13644 C 1300.33 2.81345 -3.18009 0
M  V30 13645 O 1301.36 2.30911 -2.71216 0
M  V30 13646 O 1300.22 3.73036 -3.99383 0
M  V30 13647 H 1297.31 0.58996 -0.579548 0
M  V30 13648 H 1299.86 0.56641 -1.59968 0
M  V30 13649 H 1298.63 1.61449 -3.56441 0
M  V30 13650 H 1298.25 3.02173 -2.58413 0
M  V30 13651 N 1299.25 1.36039 0.795694 0
M  V30 13652 C 1300.2 1.29853 1.90806 0
M  V30 13653 C 1301.17 0.168387 1.65244 0
M  V30 13654 O 1302.35 0.353879 1.8749 0
M  V30 13655 C 1299.49 1.08737 3.27521 0
M  V30 13656 C 1298.6 2.30771 3.65197 0
M  V30 13657 C 1297.74 2.02718 4.90998 0
M  V30 13658 C 1296.78 3.20746 5.21333 0
M  V30 13659 N 1295.92 2.92399 6.38316 0
M  V30 13660 H 1300.76 2.2497 1.95429 0
M  V30 13661 H 1298.29 1.11819 0.955771 0
M  V30 13662 H 1300.25 0.945236 4.06351 0
M  V30 13663 H 1298.88 0.172781 3.22337 0
M  V30 13664 H 1297.93 2.5581 2.81541 0
M  V30 13665 H 1299.24 3.18869 3.83568 0
M  V30 13666 H 1298.4 1.85398 5.77679 0
M  V30 13667 H 1297.14 1.11921 4.74684 0
M  V30 13668 H 1296.14 3.38632 4.33138 0
M  V30 13669 H 1297.37 4.1236 5.3957 0
M  V30 13670 H 1295.31 2.04207 6.23406 0
M  V30 13671 H 1295.23 3.74034 6.56989 0
M  V30 13672 H 1296.5 2.78643 7.27996 0
M  V30 13673 N 1300.73 -1.01913 1.20215 0
M  V30 13674 C 1301.66 -2.10043 0.89203 0
M  V30 13675 C 1302.64 -1.61861 -0.154873 0
M  V30 13676 O 1303.82 -1.88478 -0.0290135 0
M  V30 13677 C 1300.95 -3.37021 0.336813 0
M  V30 13678 C 1300 -4.0409 1.36431 0
M  V30 13679 S 1300.83 -4.48334 2.92843 0
M  V30 13680 C 1301.99 -5.78517 2.3889 0
M  V30 13681 H 1302.22 -2.36025 1.80775 0
M  V30 13682 H 1299.75 -1.14992 1.03035 0
M  V30 13683 H 1301.71 -4.10494 0.0230191 0
M  V30 13684 H 1300.37 -3.09115 -0.557363 0
M  V30 13685 H 1299.56 -4.95436 0.925147 0
M  V30 13686 H 1299.17 -3.36831 1.62545 0
M  V30 13687 H 1301.46 -6.53564 1.78494 0
M  V30 13688 H 1302.4 -6.27226 3.28623 0
M  V30 13689 H 1302.81 -5.34658 1.8111 0
M  V30 13690 N 1302.21 -1.00763 -1.2118 0
M  V30 13691 C 1303.46 -0.687197 -1.89633 0
M  V30 13692 C 1303.77 0.78566 -1.79128 0
M  V30 13693 O 1304.97 1.21828 -2.42632 0
M  V30 13694 C 1303.43 -1.1787 -3.40051 0
M  V30 13695 C 1303.04 -2.67782 -3.59161 0
M  V30 13696 C 1304.78 -0.933277 -4.14114 0
M  V30 13697 C 1302.69 -3.10459 -5.03358 0
M  V30 13698 H 1301.62 -0.253342 -0.710165 0
M  V30 13699 H 1304.27 -1.21914 -1.37147 0
M  V30 13700 H 1302.65 -0.574791 -3.91806 0
M  V30 13701 H 1303.83 -3.33645 -3.17833 0
M  V30 13702 H 1302.14 -2.90368 -2.98455 0
M  V30 13703 H 1304.74 -1.22766 -5.20416 0
M  V30 13704 H 1305.08 0.130431 -4.16096 0
M  V30 13705 H 1305.61 -1.50011 -3.68431 0
M  V30 13706 H 1302.35 -4.16068 -5.06525 0
M  V30 13707 H 1301.87 -2.4931 -5.45531 0
M  V30 13708 H 1303.55 -3.02589 -5.71882 0
M  V30 13709 N 1303.68 1.3679 -0.7827 0
M  V30 13710 C 1305.1 1.52719 -0.463594 0
M  V30 13711 C 1305.3 1.73827 1.01914 0
M  V30 13712 O 1304.36 1.76591 1.80477 0
M  V30 13713 C 1305.67 2.71709 -1.2882 0
M  V30 13714 C 1307.22 2.85577 -1.2812 0
M  V30 13715 C 1307.69 4.07564 -2.0894 0
M  V30 13716 N 1309.18 4.14697 -2.0635 0
M  V30 13717 C 1309.92 5.08147 -2.65659 0
M  V30 13718 N 1309.41 6.07083 -3.33799 0
M  V30 13719 N 1311.21 5.00712 -2.55429 0
M  V30 13720 H 1303.36 1.21342 -1.74327 0
M  V30 13721 H 1305.62 0.591719 -0.740657 0
M  V30 13722 H 1305.33 2.62612 -2.3394 0
M  V30 13723 H 1305.2 3.65686 -0.924873 0
M  V30 13724 H 1307.59 2.94139 -0.237947 0
M  V30 13725 H 1307.67 1.92528 -1.68424 0
M  V30 13726 H 1307.31 3.99763 -3.13293 0
M  V30 13727 H 1307.24 4.99748 -1.66011 0
M  V30 13728 H 1309.73 3.43856 -1.56752 0
M  V30 13729 H 1310.05 6.74939 -3.764 0
M  V30 13730 H 1308.39 6.07329 -3.379 0
M  V30 13731 H 1311.58 4.22367 -2.01802 0
M  V30 13732 H 1311.76 5.73354 -3.01943 0
M  V30 13733 N 1305.16 0.53415 1.48272 0
M  V30 13734 C 1306.11 -0.239672 2.31362 0
M  V30 13735 C 1307.1 -0.931501 1.4149 0
M  V30 13736 O 1308.31 -0.855411 1.58375 0
M  V30 13737 H 1304.69 -0.09616 0.745827 0
M  V30 13738 H 1306.66 0.480638 2.94504 0
M  V30 13739 C 1305.41 -1.27102 3.23636 0
M  V30 13740 H 1304.73 -0.748082 3.92739 0
M  V30 13741 H 1306.17 -1.78379 3.84652 0
M  V30 13742 C 1304.63 -2.30683 2.45534 0
M  V30 13743 O 1305.16 -3.37197 2.18314 0
M  V30 13744 N 1303.36 -2.04006 2.06954 0
M  V30 13745 H 1302.91 -1.17403 2.29291 0
M  V30 13746 H 1302.87 -2.73531 1.5501 0
M  V30 13747 N 1306.64 -1.55279 0.269478 0
M  V30 13748 C 1308.05 -1.85286 -0.229372 0
M  V30 13749 C 1308.4 -1.19148 -1.55879 0
M  V30 13750 O 1307.53 -0.4778 -2.11059 0
M  V30 13751 C 1308.12 -3.3615 -0.42296 0
M  V30 13752 C 1306.68 -3.66301 -0.866047 0
M  V30 13753 C 1305.83 -2.77265 0.0439028 0
M  V30 13754 H 1308.78 -1.509 0.491427 0
M  V30 13755 H 1308.8 -3.5895 -1.26234 0
M  V30 13756 H 1308.31 -3.84258 0.544768 0
M  V30 13757 H 1306.41 -3.23688 -1.84545 0
M  V30 13758 H 1306.53 -4.73851 -0.707274 0
M  V30 13759 H 1304.89 -2.50299 -0.471433 0
M  V30 13760 H 1305.67 -3.28186 1.00741 0
M  V30 13761 N 1308.12 0.00332656 -1.576 0
M  V30 13762 C 1309.08 0.980628 -2.07163 0
M  V30 13763 C 1310.08 1.27455 -0.980402 0
M  V30 13764 O 1311.27 1.22029 -1.24317 0
M  V30 13765 C 1308.4 2.30647 -2.51028 0
M  V30 13766 H 1309.6 0.551982 -2.94776 0
M  V30 13767 H 1307.15 0.250728 -1.54276 0
M  V30 13768 H 1307.88 2.78207 -1.66647 0
M  V30 13769 H 1307.67 2.10635 -3.30719 0
M  V30 13770 H 1309.16 3.00761 -2.89711 0
M  V30 13771 N 1309.6 1.55164 0.276031 0
M  V30 13772 C 1310.82 1.7998 1.03063 0
M  V30 13773 C 1311.25 0.569769 1.79263 0
M  V30 13774 O 1310.6 -0.48054 1.74816 0
M  V30 13775 C 1310.65 3.02209 1.96728 0
M  V30 13776 O 1309.76 2.77083 3.05449 0
M  V30 13777 H 1309.1 0.594963 0.294814 0
M  V30 13778 H 1311.63 2.02301 0.305861 0
M  V30 13779 H 1311.64 3.3086 2.38738 0
M  V30 13780 H 1310.31 3.91386 1.40677 0
M  V30 13781 H 1308.89 2.5952 2.67776 0
M  V30 13782 N 1311.07 -0.540404 1.48045 0
M  V30 13783 C 1312 -1.65538 1.6468 0
M  V30 13784 C 1312.99 -1.62713 0.495847 0
M  V30 13785 O 1314.17 -1.80072 0.727172 0
M  V30 13786 C 1311.3 -3.0415 1.67661 0
M  V30 13787 C 1310.25 -3.2183 2.82152 0
M  V30 13788 C 1309.58 -4.61397 2.70216 0
M  V30 13789 C 1310.88 -3.05596 4.23567 0
M  V30 13790 H 1312.57 -1.51873 2.58021 0
M  V30 13791 H 1310.12 -0.729208 1.24171 0
M  V30 13792 H 1312.07 -3.82013 1.77887 0
M  V30 13793 H 1310.8 -3.18814 0.708907 0
M  V30 13794 H 1309.46 -2.4638 2.71463 0
M  V30 13795 H 1309.1 -4.72883 1.71437 0
M  V30 13796 H 1308.8 -4.74174 3.47035 0
M  V30 13797 H 1310.33 -5.41374 2.82395 0
M  V30 13798 H 1311.74 -3.73261 4.35143 0
M  V30 13799 H 1310.14 -3.29871 5.01303 0
M  V30 13800 H 1311.21 -2.0214 4.40758 0
M  V30 13801 N 1312.55 -1.36459 -0.788468 0
M  V30 13802 C 1313.5 -1.30863 -1.90115 0
M  V30 13803 C 1314.47 -0.177148 -1.65153 0
M  V30 13804 O 1315.65 -0.363817 -1.87299 0
M  V30 13805 C 1312.79 -1.10473 -3.2694 0
M  V30 13806 C 1311.91 -2.32704 -3.63968 0
M  V30 13807 C 1311.04 -2.05319 -4.89916 0
M  V30 13808 C 1310.08 -3.23506 -5.19625 0
M  V30 13809 N 1309.22 -2.9578 -6.36756 0
M  V30 13810 H 1314.06 -2.26003 -1.94233 0
M  V30 13811 H 1311.6 -1.12324 -0.949827 0
M  V30 13812 H 1313.55 -0.966773 -4.05844 0
M  V30 13813 H 1312.18 -0.189873 -3.22241 0
M  V30 13814 H 1311.24 -2.573 -2.8018 0
M  V30 13815 H 1312.55 -3.20899 -3.81871 0
M  V30 13816 H 1311.7 -1.88459 -5.76687 0
M  V30 13817 H 1310.44 -1.14437 -4.74084 0
M  V30 13818 H 1309.45 -3.40924 -4.31336 0
M  V30 13819 H 1310.67 -4.15216 -5.37376 0
M  V30 13820 H 1308.62 -2.0751 -6.22315 0
M  V30 13821 H 1308.53 -3.77513 -6.54996 0
M  V30 13822 H 1309.8 -2.825 -7.26508 0
M  V30 13823 N 1314.03 1.01274 -1.20754 0
M  V30 13824 C 1315.26 1.78524 -1.04579 0
M  V30 13825 C 1315.67 1.84409 0.404809 0
M  V30 13826 O 1315.03 1.29987 1.281 0
M  V30 13827 C 1315.08 3.22806 -1.62722 0
M  V30 13828 O 1314.8 3.17276 -3.02106 0
M  V30 13829 C 1316.3 4.16589 -1.51553 0
M  V30 13830 H 1313.52 0.561299 -0.367674 0
M  V30 13831 H 1316.07 1.27454 -1.59924 0
M  V30 13832 H 1314.22 3.71011 -1.11487 0
M  V30 13833 H 1314.64 4.07866 -3.29766 0
M  V30 13834 H 1316.11 5.15654 -1.9699 0
M  V30 13835 H 1316.59 4.36692 -0.468659 0
M  V30 13836 H 1317.19 3.74269 -2.01998 0
M  V30 13837 N 1315.51 1.01404 1.20644 0
M  V30 13838 C 1316.76 0.702949 1.90227 0
M  V30 13839 C 1317.09 -0.765243 1.78487 0
M  V30 13840 O 1316.36 -1.55569 1.16741 0
M  V30 13841 C 1316.65 1.13606 3.4171 0
M  V30 13842 C 1316.5 2.66437 3.62397 0
M  V30 13843 C 1317.82 0.705361 4.34411 0
M  V30 13844 H 1314.94 0.256842 0.690797 0
M  V30 13845 H 1317.58 1.26133 1.42093 0
M  V30 13846 H 1315.73 0.660977 3.82836 0
M  V30 13847 H 1317.4 3.21778 3.3054 0
M  V30 13848 H 1315.64 3.0753 3.05954 0
M  V30 13849 H 1316.32 2.91795 4.68572 0
M  V30 13850 H 1318.79 1.11375 4.00918 0
M  V30 13851 H 1317.67 1.03647 5.39026 0
M  V30 13852 H 1317.93 -0.393094 4.40349 0
M  V30 13853 N 1316.99 -1.36373 0.789944 0
M  V30 13854 C 1317.95 -2.28372 0.194639 0
M  V30 13855 C 1318.95 -1.48849 -0.608332 0
M  V30 13856 O 1320.14 -1.68829 -0.42925 0
M  V30 13857 C 1317.27 -3.3298 -0.730553 0
M  V30 13858 H 1318.47 -2.82529 1.00585 0
M  V30 13859 H 1316.02 -1.45946 0.559406 0
M  V30 13860 H 1316.75 -2.8398 -1.56608 0
M  V30 13861 H 1316.54 -3.91787 -0.156706 0
M  V30 13862 H 1318.03 -4.01684 -1.14192 0
M  V30 13863 N 1318.47 -0.542005 -1.47987 0
M  V30 13864 C 1319.69 -0.016717 -2.06893 0
M  V30 13865 C 1320.11 1.27015 -1.39687 0
M  V30 13866 O 1319.47 1.75845 -0.488326 0
M  V30 13867 C 1319.52 0.198437 -3.60955 0
M  V30 13868 O 1319.24 -1.03746 -4.25639 0
M  V30 13869 C 1320.74 0.762741 -4.36689 0
M  V30 13870 H 1317.96 -0.0389497 -0.669869 0
M  V30 13871 H 1320.5 -0.751082 -1.90208 0
M  V30 13872 H 1318.66 0.882884 -3.77205 0
M  V30 13873 H 1319.07 -0.82568 -5.1796 0
M  V30 13874 H 1320.55 0.862649 -5.45218 0
M  V30 13875 H 1321.02 1.77049 -4.01933 0
M  V30 13876 H 1321.63 0.114478 -4.25146 0
M  V30 13877 N 1319.94 1.55134 -0.277709 0
M  V30 13878 C 1321.19 1.98831 0.338982 0
M  V30 13879 C 1321.51 1.16958 1.56781 0
M  V30 13880 O 1322.71 1.50811 2.25762 0
M  V30 13881 C 1321.17 3.53899 0.654465 0
M  V30 13882 C 1320.78 4.44553 -0.554703 0
M  V30 13883 C 1322.52 4.06179 1.23364 0
M  V30 13884 C 1320.43 5.91014 -0.213663 0
M  V30 13885 H 1319.36 0.742632 0.130434 0
M  V30 13886 H 1322.01 1.79463 -0.382768 0
M  V30 13887 H 1320.39 3.69078 1.43519 0
M  V30 13888 H 1321.56 4.41143 -1.33151 0
M  V30 13889 H 1319.88 4.02921 -1.0509 0
M  V30 13890 H 1322.48 5.13152 1.50265 0
M  V30 13891 H 1322.82 3.5537 2.16836 0
M  V30 13892 H 1323.35 3.9445 0.515147 0
M  V30 13893 H 1320.09 6.45924 -1.11633 0
M  V30 13894 H 1319.61 5.97486 0.526329 0
M  V30 13895 H 1321.29 6.46712 0.19319 0
M  V30 13896 N 1321.42 0.00503138 1.57599 0
M  V30 13897 C 1322.65 -0.689609 1.95069 0
M  V30 13898 C 1323.06 -1.67028 0.880183 0
M  V30 13899 O 1322.42 -1.81959 -0.140406 0
M  V30 13900 C 1322.47 -1.41709 3.32567 0
M  V30 13901 O 1322.19 -0.475746 4.35509 0
M  V30 13902 C 1323.69 -2.20578 3.84526 0
M  V30 13903 H 1320.91 -0.19175 0.643019 0
M  V30 13904 H 1323.46 0.057646 2.04419 0
M  V30 13905 H 1321.61 -2.11593 3.2451 0
M  V30 13906 H 1322.03 -0.989573 5.1508 0
M  V30 13907 H 1323.5 -2.66969 4.83148 0
M  V30 13908 H 1323.98 -3.03467 3.17497 0
M  V30 13909 H 1324.58 -1.557 3.95775 0
M  V30 13910 N 1322.9 -1.55308 -0.267798 0
M  V30 13911 C 1323.86 -1.87765 -1.31442 0
M  V30 13912 C 1324.86 -0.752571 -1.42102 0
M  V30 13913 O 1326.05 -1.02072 -1.41163 0
M  V30 13914 C 1323.18 -2.08754 -2.69508 0
M  V30 13915 H 1324.38 -2.8133 -1.03891 0
M  V30 13916 H 1321.93 -1.47879 -0.506111 0
M  V30 13917 H 1322.67 -1.17588 -3.02231 0
M  V30 13918 H 1322.45 -2.90674 -2.63156 0
M  V30 13919 H 1323.94 -2.3512 -3.4512 0
M  V30 13920 N 1324.38 0.532545 -1.4833 0
M  V30 13921 C 1325.62 1.29042 -1.56448 0
M  V30 13922 C 1325.96 1.92754 -0.236532 0
M  V30 13923 O 1325.23 1.79154 0.757237 0
M  V30 13924 C 1325.51 2.38173 -2.70084 0
M  V30 13925 C 1325.37 1.79169 -4.12576 0
M  V30 13926 C 1326.69 3.39957 -2.79495 0
M  V30 13927 H 1323.81 0.467816 -0.569488 0
M  V30 13928 H 1326.45 0.593517 -1.80492 0
M  V30 13929 H 1324.6 2.97616 -2.49714 0
M  V30 13930 H 1326.27 1.23797 -4.44378 0
M  V30 13931 H 1324.51 1.09716 -4.19696 0
M  V30 13932 H 1325.18 2.58174 -4.87904 0
M  V30 13933 H 1327.66 2.90466 -2.97941 0
M  V30 13934 H 1326.54 4.13714 -3.60739 0
M  V30 13935 H 1326.8 4.00347 -1.87548 0
M  V30 13936 N 1325.86 1.36875 0.78122 0
M  V30 13937 C 1327.27 1.28236 1.35692 0
M  V30 13938 C 1327.62 -0.0742286 1.9606 0
M  V30 13939 O 1326.74 -0.97588 1.93146 0
M  V30 13940 C 1327.34 2.32215 2.46702 0
M  V30 13941 C 1325.9 2.2724 3.00065 0
M  V30 13942 C 1325.04 2.16553 1.73206 0
M  V30 13943 H 1327.99 1.47634 0.582217 0
M  V30 13944 H 1328.02 1.96333 3.25935 0
M  V30 13945 H 1327.53 3.30938 2.02735 0
M  V30 13946 H 1325.63 1.3201 3.48431 0
M  V30 13947 H 1325.74 3.20267 3.56323 0
M  V30 13948 H 1324.11 1.62941 1.95761 0
M  V30 13949 H 1324.89 3.17176 1.31356 0
M  V30 13950 N 1327.33 -1.00632 1.21289 0
M  V30 13951 C 1328.56 -1.78503 1.05601 0
M  V30 13952 C 1328.98 -1.84015 -0.389879 0
M  V30 13953 O 1328.34 -1.28277 -1.2812 0
M  V30 13954 C 1328.39 -3.20313 1.65626 0
M  V30 13955 O 1327.49 -4.02441 0.900841 0
M  V30 13956 H 1326.83 -0.550183 0.371746 0
M  V30 13957 H 1329.36 -1.26505 1.60803 0
M  V30 13958 H 1329.37 -3.70992 1.69792 0
M  V30 13959 H 1328.05 -3.15616 2.7085 0
M  V30 13960 H 1326.63 -3.61009 0.934178 0
M  V30 13961 N 1328.81 -1.02043 -1.20104 0
M  V30 13962 C 1329.74 -0.552093 -2.22451 0
M  V30 13963 C 1330.76 0.367547 -1.58597 0
M  V30 13964 O 1331.95 0.165285 -1.77733 0
M  V30 13965 C 1329.05 0.215833 -3.38212 0
M  V30 13966 C 1328.22 -0.70666 -4.31654 0
M  V30 13967 C 1327.28 0.0143628 -5.26198 0
M  V30 13968 O 1326.3 -0.609413 -5.65928 0
M  V30 13969 N 1327.51 1.28794 -5.66032 0
M  V30 13970 H 1330.27 -1.43229 -2.6326 0
M  V30 13971 H 1327.83 -0.89842 -1.34685 0
M  V30 13972 H 1329.82 0.707523 -3.98467 0
M  V30 13973 H 1328.39 0.997358 -2.96263 0
M  V30 13974 H 1327.61 -1.37859 -3.69308 0
M  V30 13975 H 1328.9 -1.33392 -4.91003 0
M  V30 13976 H 1328.3 1.8156 -5.35773 0
M  V30 13977 H 1326.86 1.72429 -6.28579 0
M  V30 13978 N 1330.29 1.35952 -0.797165 0
M  V30 13979 C 1331.7 1.81554 -0.435311 0
M  V30 13980 C 1332.05 1.66266 1.04164 0
M  V30 13981 O 1331.18 1.18796 1.80877 0
M  V30 13982 C 1331.77 3.29619 -0.783358 0
M  V30 13983 C 1330.33 3.73401 -0.47423 0
M  V30 13984 C 1329.48 2.58098 -1.01394 0
M  V30 13985 H 1332.43 1.24064 -0.989638 0
M  V30 13986 H 1332.45 3.80421 -0.0773381 0
M  V30 13987 H 1331.96 3.40715 -1.85836 0
M  V30 13988 H 1330.06 3.6786 0.592418 0
M  V30 13989 H 1330.18 4.68542 -1.00026 0
M  V30 13990 H 1328.54 2.50927 -0.436747 0
M  V30 13991 H 1329.32 2.71976 -2.09485 0
M  V30 13992 N 1331.77 0.549846 1.47697 0
M  V30 13993 C 1332.7 -0.190364 2.32723 0
M  V30 13994 C 1333.68 -0.915933 1.43334 0
M  V30 13995 O 1334.86 -0.897838 1.72199 0
M  V30 13996 C 1331.99 -1.22545 3.24961 0
M  V30 13997 C 1330.95 -0.616805 4.23532 0
M  V30 13998 C 1330.27 -1.75599 5.05044 0
M  V30 13999 C 1331.57 0.424595 5.20571 0
M  V30 14000 H 1333.27 0.519461 2.94859 0
M  V30 14001 H 1330.81 0.251259 1.41791 0
M  V30 14002 H 1332.77 -1.75139 3.83281 0
M  V30 14003 H 1331.49 -1.96512 2.60865 0
M  V30 14004 H 1330.15 -0.112224 3.66428 0
M  V30 14005 H 1329.8 -2.48453 4.37356 0
M  V30 14006 H 1329.5 -1.35456 5.71774 0
M  V30 14007 H 1331.02 -2.28533 5.6622 0
M  V30 14008 H 1332.44 -0.0150025 5.73298 0
M  V30 14009 H 1330.83 0.7445 5.95464 0
M  V30 14010 H 1331.9 1.32318 4.66497 0
M  V30 14011 N 1333.25 -1.54984 0.285932 0
M  V30 14012 C 1334.18 -2.25916 -0.590259 0
M  V30 14013 C 1335.16 -1.25319 -1.15018 0
M  V30 14014 O 1336.34 -1.54062 -1.18231 0
M  V30 14015 C 1333.47 -2.98849 -1.76936 0
M  V30 14016 C 1332.43 -4.06466 -1.3405 0
M  V30 14017 C 1331.75 -4.67032 -2.60356 0
M  V30 14018 C 1333.05 -5.20064 -0.482754 0
M  V30 14019 H 1334.75 -2.994 0.00131571 0
M  V30 14020 H 1332.29 -1.44 0.00207281 0
M  V30 14021 H 1334.25 -3.47186 -2.3883 0
M  V30 14022 H 1332.97 -2.22918 -2.38694 0
M  V30 14023 H 1331.63 -3.58957 -0.7447 0
M  V30 14024 H 1331.28 -3.87757 -3.20396 0
M  V30 14025 H 1330.98 -5.39703 -2.32368 0
M  V30 14026 H 1332.5 -5.18124 -3.23079 0
M  V30 14027 H 1333.91 -5.64387 -1.00697 0
M  V30 14028 H 1332.31 -5.99363 -0.297291 0
M  V30 14029 H 1333.38 -4.82358 0.495861 0
M  V30 14030 N 1334.72 -0.0133892 -1.57594 0
M  V30 14031 C 1336 0.706416 -1.82398 0
M  V30 14032 C 1336.38 1.91236 -0.893983 0
M  V30 14033 O 1335.73 2.28436 0.0541675 0
M  V30 14034 C 1335.94 1.09951 -3.31228 0
M  V30 14035 C 1337.29 1.49776 -3.97306 0
M  V30 14036 O 1338.31 1.19293 -3.3563 0
M  V30 14037 O 1337.17 2.06511 -5.0598 0
M  V30 14038 H 1334.26 0.345131 -0.751541 0
M  V30 14039 H 1336.81 -0.0398687 -1.69653 0
M  V30 14040 H 1335.58 0.240514 -3.9056 0
M  V30 14041 H 1335.21 1.90447 -3.49021 0
M  V30 14042 N 1336.2 1.55448 0.259558 0
M  V30 14043 C 1337.62 1.47588 0.607442 0
M  V30 14044 C 1337.82 0.701053 1.88911 0
M  V30 14045 O 1336.87 0.225305 2.51493 0
M  V30 14046 C 1338.19 2.91905 0.72192 0
M  V30 14047 C 1339.74 3.02201 0.815087 0
M  V30 14048 C 1340.21 4.47799 0.961231 0
M  V30 14049 N 1341.7 4.51684 1.02642 0
M  V30 14050 C 1342.44 5.61574 1.15854 0
M  V30 14051 N 1341.93 6.81301 1.257 0
M  V30 14052 N 1343.73 5.49344 1.1907 0
M  V30 14053 H 1335.88 2.04271 -0.581981 0
M  V30 14054 H 1338.14 0.926865 -0.199059 0
M  V30 14055 H 1337.85 3.51382 -0.149611 0
M  V30 14056 H 1337.72 3.41681 1.59793 0
M  V30 14057 H 1340.11 2.42813 1.67708 0
M  V30 14058 H 1340.19 2.55656 -0.0858102 0
M  V30 14059 H 1339.83 5.07794 0.103848 0
M  V30 14060 H 1339.76 4.92013 1.87698 0
M  V30 14061 H 1342.25 3.65446 0.962184 0
M  V30 14062 H 1342.57 7.60801 1.35652 0
M  V30 14063 H 1340.91 6.84087 1.2268 0
M  V30 14064 H 1344.1 4.54745 1.11018 0
M  V30 14065 H 1344.27 6.35025 1.29022 0
M  V30 14066 N 1337.68 -0.524672 1.4861 0
M  V30 14067 C 1338.91 -1.30958 1.60825 0
M  V30 14068 C 1339.33 -1.86142 0.270682 0
M  V30 14069 O 1338.69 -1.64675 -0.758415 0
M  V30 14070 C 1338.74 -2.43252 2.66197 0
M  V30 14071 O 1337.84 -3.4644 2.23725 0
M  V30 14072 H 1337.18 -0.387638 0.539104 0
M  V30 14073 H 1339.71 -0.630755 1.94635 0
M  V30 14074 H 1339.72 -2.89362 2.87635 0
M  V30 14075 H 1338.4 -2.02449 3.63301 0
M  V30 14076 H 1336.97 -3.06413 2.12522 0
M  V30 14077 N 1339.16 -1.37287 -0.77395 0
M  V30 14078 C 1340.41 -1.31698 -1.52769 0
M  V30 14079 C 1340.72 0.0968585 -1.9536 0
M  V30 14080 O 1341.93 0.275205 -2.70102 0
M  V30 14081 C 1340.38 -2.31154 -2.75854 0
M  V30 14082 C 1339.99 -3.78055 -2.40371 0
M  V30 14083 C 1341.73 -2.34572 -3.53803 0
M  V30 14084 C 1339.64 -4.69248 -3.59945 0
M  V30 14085 H 1338.57 -0.489456 -0.573541 0
M  V30 14086 H 1341.22 -1.62735 -0.84791 0
M  V30 14087 H 1339.6 -1.93132 -3.45711 0
M  V30 14088 H 1340.78 -4.24902 -1.78312 0
M  V30 14089 H 1339.09 -3.77562 -1.75602 0
M  V30 14090 H 1341.69 -2.99908 -4.42673 0
M  V30 14091 H 1342.03 -1.35868 -3.93504 0
M  V30 14092 H 1342.57 -2.7129 -2.90941 0
M  V30 14093 H 1339.31 -5.69072 -3.25327 0
M  V30 14094 H 1338.83 -4.27108 -4.21117 0
M  V30 14095 H 1340.5 -4.86275 -4.26785 0
M  V30 14096 N 1340.64 0.999871 -1.21821 0
M  V30 14097 C 1342.05 1.5529 -1.03642 0
M  V30 14098 C 1342.4 1.92032 0.402246 0
M  V30 14099 O 1341.52 1.74027 1.28622 0
M  V30 14100 C 1342.12 2.82177 -1.87514 0
M  V30 14101 C 1340.68 3.33949 -1.73653 0
M  V30 14102 C 1339.82 2.07095 -1.84409 0
M  V30 14103 H 1342.78 0.821751 -1.35768 0
M  V30 14104 H 1342.8 3.54264 -1.38842 0
M  V30 14105 H 1342.31 2.55405 -2.92216 0
M  V30 14106 H 1340.41 3.65645 -0.716554 0
M  V30 14107 H 1340.52 4.05022 -2.55918 0
M  V30 14108 H 1338.89 2.20332 -1.27773 0
M  V30 14109 H 1339.67 1.82728 -2.90629 0
M  V30 14110 N 1342.11 1.02678 1.19562 0
M  V30 14111 C 1343.39 0.63674 1.84946 0
M  V30 14112 C 1343.77 -0.884667 1.91669 0
M  V30 14113 O 1343.12 -1.78053 1.43211 0
M  V30 14114 C 1343.33 1.29637 3.2403 0
M  V30 14115 C 1344.68 1.41828 4.00212 0
M  V30 14116 O 1345.7 1.25338 3.3342 0
M  V30 14117 O 1344.56 1.68573 5.19851 0
M  V30 14118 H 1341.65 0.221044 0.796912 0
M  V30 14119 H 1344.2 1.1248 1.27068 0
M  V30 14120 H 1342.97 2.33549 3.1396 0
M  V30 14121 H 1342.6 0.796041 3.8955 0
M  V30 14122 N 1343.59 -1.35528 0.804364 0
M  V30 14123 C 1344.84 -1.98832 0.383692 0
M  V30 14124 C 1345.17 -1.63816 -1.04855 0
M  V30 14125 O 1344.42 -0.892272 -1.74175 0
M  V30 14126 C 1344.72 -3.5372 0.511571 0
M  V30 14127 C 1344.39 -4.08597 1.9068 0
M  V30 14128 C 1343.05 -4.23297 2.28852 0
M  V30 14129 C 1345.4 -4.3834 2.81971 0
M  V30 14130 C 1342.73 -4.65056 3.57687 0
M  V30 14131 C 1345.08 -4.81537 4.1025 0
M  V30 14132 C 1343.75 -4.94442 4.48423 0
M  V30 14133 H 1343.02 -0.727577 0.140403 0
M  V30 14134 H 1345.66 -1.61777 1.02472 0
M  V30 14135 H 1343.97 -3.91221 -0.212916 0
M  V30 14136 H 1345.66 -4.00653 0.166888 0
M  V30 14137 H 1342.25 -3.97606 1.60023 0
M  V30 14138 H 1346.44 -4.26538 2.5373 0
M  V30 14139 H 1341.69 -4.73236 3.87115 0
M  V30 14140 H 1345.87 -5.03512 4.81091 0
M  V30 14141 H 1343.5 -5.26558 5.48307 0
M  V30 14142 N 1345.07 -0.557671 -1.47404 0
M  V30 14143 C 1346.3 -0.0386599 -2.06864 0
M  V30 14144 C 1346.71 1.25527 -1.41027 0
M  V30 14145 O 1346.07 1.75318 -0.506949 0
M  V30 14146 C 1346.12 0.160141 -3.61145 0
M  V30 14147 O 1345.84 -1.08255 -4.24515 0
M  V30 14148 C 1347.34 0.716381 -4.37473 0
M  V30 14149 H 1344.56 -0.0460523 -0.669418 0
M  V30 14150 H 1347.11 -0.771214 -1.894 0
M  V30 14151 H 1345.26 0.842826 -3.78121 0
M  V30 14152 H 1345.68 -0.88057 -5.17055 0
M  V30 14153 H 1347.15 0.804773 -5.46102 0
M  V30 14154 H 1347.63 1.72776 -4.03788 0
M  V30 14155 H 1348.23 0.0693787 -4.25243 0
M  V30 14156 N 1346.55 1.54831 -0.294147 0
M  V30 14157 C 1347.51 2.21946 0.572061 0
M  V30 14158 C 1348.51 1.20331 1.06663 0
M  V30 14159 O 1349.7 1.45112 0.963757 0
M  V30 14160 C 1346.83 2.90044 1.7913 0
M  V30 14161 H 1348.03 2.99897 -0.0142234 0
M  V30 14162 H 1345.58 1.56235 -0.0449187 0
M  V30 14163 H 1346.32 2.16154 2.4176 0
M  V30 14164 H 1346.1 3.64527 1.44439 0
M  V30 14165 H 1347.59 3.41263 2.40684 0
M  V30 14166 N 1348.03 0.0217466 1.57585 0
M  V30 14167 C 1349.27 -0.658487 1.91495 0
M  V30 14168 C 1349.6 -1.72557 0.897462 0
M  V30 14169 O 1348.86 -1.95471 -0.0946909 0
M  V30 14170 C 1349.16 -1.3197 3.32143 0
M  V30 14171 C 1348.82 -0.383706 4.49264 0
M  V30 14172 C 1347.48 -0.126065 4.81035 0
M  V30 14173 C 1349.84 0.259445 5.20554 0
M  V30 14174 C 1347.16 0.782659 5.81456 0
M  V30 14175 C 1349.52 1.15618 6.21945 0
M  V30 14176 C 1348.18 1.42278 6.5216 0
M  V30 14177 H 1347.45 -0.240958 0.700729 0
M  V30 14178 H 1350.1 0.0819351 1.91325 0
M  V30 14179 H 1348.4 -2.13469 3.28539 0
M  V30 14180 H 1350.1 -1.85245 3.55648 0
M  V30 14181 H 1346.69 -0.59469 4.24454 0
M  V30 14182 H 1350.87 0.073445 4.96246 0
M  V30 14183 H 1346.13 0.996995 6.03216 0
M  V30 14184 H 1350.3 1.66077 6.76307 0
M  V30 14185 H 1347.93 2.1286 7.29791 0
M  V30 14186 N 1349.51 -1.55583 -0.251311 0
M  V30 14187 C 1350.73 -1.81259 -0.997636 0
M  V30 14188 C 1351.15 -0.596861 -1.79117 0
M  V30 14189 O 1350.51 0.434425 -1.77254 0
M  V30 14190 C 1350.56 -3.05097 -1.93902 0
M  V30 14191 O 1350.28 -4.21976 -1.1776 0
M  V30 14192 C 1351.78 -3.4354 -2.8017 0
M  V30 14193 H 1349 -0.603279 -0.29376 0
M  V30 14194 H 1351.54 -2.02635 -0.27553 0
M  V30 14195 H 1349.7 -2.85784 -2.61546 0
M  V30 14196 H 1350.11 -4.92133 -1.81398 0
M  V30 14197 H 1351.59 -4.33305 -3.41981 0
M  V30 14198 H 1352.06 -2.63924 -3.51057 0
M  V30 14199 H 1352.67 -3.65189 -2.17985 0
M  V30 14200 N 1350.98 0.516783 -1.48886 0
M  V30 14201 C 1352.21 1.29628 -1.61258 0
M  V30 14202 C 1352.63 1.86744 -0.27786 0
M  V30 14203 O 1351.98 1.67061 0.734639 0
M  V30 14204 C 1352.03 2.43779 -2.66935 0
M  V30 14205 O 1351.76 1.89014 -3.95228 0
M  V30 14206 C 1353.26 3.35398 -2.89867 0
M  V30 14207 H 1350.48 0.393736 -0.543335 0
M  V30 14208 H 1353.02 0.622069 -1.94809 0
M  V30 14209 H 1351.18 3.0706 -2.36206 0
M  V30 14210 H 1351.59 2.63833 -4.53312 0
M  V30 14211 H 1353.06 4.11812 -3.6758 0
M  V30 14212 H 1353.54 3.91436 -1.99185 0
M  V30 14213 H 1354.15 2.77898 -3.21952 0
M  V30 14214 N 1352.46 1.37696 0.766659 0
M  V30 14215 C 1353.71 1.33382 1.52765 0
M  V30 14216 C 1354.04 -0.0800569 1.94035 0
M  V30 14217 O 1353.32 -1.03848 1.64456 0
M  V30 14218 C 1353.6 2.2776 2.78922 0
M  V30 14219 C 1353.45 3.77949 2.43874 0
M  V30 14220 C 1354.77 2.20494 3.80881 0
M  V30 14221 H 1351.89 0.485836 0.554195 0
M  V30 14222 H 1354.53 1.68438 0.879119 0
M  V30 14223 H 1352.68 1.97994 3.34261 0
M  V30 14224 H 1354.35 4.18333 1.9441 0
M  V30 14225 H 1352.6 3.96269 1.76503 0
M  V30 14226 H 1353.27 4.39428 3.34077 0
M  V30 14227 H 1355.74 2.46742 3.35048 0
M  V30 14228 H 1354.62 2.88663 4.66867 0
M  V30 14229 H 1354.88 1.19951 4.25516 0
M  V30 14230 N 1353.94 -0.993397 1.22349 0
M  V30 14231 C 1355.22 -1.7063 0.956275 0
M  V30 14232 C 1355.6 -2.0437 -0.52877 0
M  V30 14233 O 1354.94 -1.72662 -1.49667 0
M  V30 14234 C 1355.15 -2.95725 1.85331 0
M  V30 14235 C 1356.5 -3.68514 2.10909 0
M  V30 14236 O 1357.53 -3.05732 1.82775 0
M  V30 14237 O 1356.39 -4.81468 2.58556 0
M  V30 14238 H 1353.48 -0.744734 0.359583 0
M  V30 14239 H 1356.03 -1.04979 1.33333 0
M  V30 14240 H 1354.8 -2.6729 2.85782 0
M  V30 14241 H 1354.42 -3.69116 1.47781 0
M  V30 14242 N 1355.42 -1.03311 -1.19015 0
M  V30 14243 C 1356.69 -0.646539 -1.84606 0
M  V30 14244 C 1357.07 0.87449 -1.92135 0
M  V30 14245 O 1356.42 1.77291 -1.44154 0
M  V30 14246 C 1356.63 -1.31354 -3.23338 0
M  V30 14247 C 1357.98 -1.43949 -3.99455 0
M  V30 14248 O 1359 -1.27104 -3.32751 0
M  V30 14249 O 1357.86 -1.71328 -5.1895 0
M  V30 14250 H 1354.96 -0.225267 -0.795728 0
M  V30 14251 H 1357.5 -1.13152 -1.2647 0
M  V30 14252 H 1356.28 -2.3521 -3.12717 0
M  V30 14253 H 1355.9 -0.816688 -3.89122 0
M  V30 14254 N 1356.9 1.35099 -0.81154 0
M  V30 14255 C 1358.14 1.99348 -0.403961 0
M  V30 14256 C 1358.5 1.63209 1.01885 0
M  V30 14257 O 1357.79 0.887707 1.69795 0
M  V30 14258 C 1357.98 3.53444 -0.530322 0
M  V30 14259 C 1357.81 4.04552 -1.96387 0
M  V30 14260 C 1356.58 4.33677 -2.5933 0
M  V30 14261 C 1358.78 4.2274 -2.92909 0
M  V30 14262 N 1356.76 4.70747 -3.94043 0
M  V30 14263 C 1358.13 4.62862 -4.12503 0
M  V30 14264 C 1360.19 4.0496 -2.89675 0
M  V30 14265 C 1358.89 4.87064 -5.29303 0
M  V30 14266 C 1360.92 4.30321 -4.05682 0
M  V30 14267 C 1360.28 4.7072 -5.24025 0
M  V30 14268 H 1356.38 0.757119 -0.195692 0
M  V30 14269 H 1358.96 1.63715 -1.05383 0
M  V30 14270 H 1357.13 3.88297 0.089583 0
M  V30 14271 H 1358.87 4.04584 -0.0968489 0
M  V30 14272 H 1355.62 4.24174 -2.1065 0
M  V30 14273 H 1356.04 4.93534 -4.63414 0
M  V30 14274 H 1360.69 3.72864 -1.99329 0
M  V30 14275 H 1358.4 5.18031 -6.20217 0
M  V30 14276 H 1361.99 4.18112 -4.04566 0
M  V30 14277 H 1360.87 4.89961 -6.12298 0
M  V30 14278 N 1358.37 0.56548 1.47106 0
M  V30 14279 C 1359.3 -0.16567 2.32912 0
M  V30 14280 C 1360.28 -0.900678 1.44298 0
M  V30 14281 O 1361.47 -0.879523 1.73142 0
M  V30 14282 C 1358.6 -1.19092 3.26243 0
M  V30 14283 C 1357.55 -0.571849 4.24163 0
M  V30 14284 C 1356.88 -1.70233 5.06878 0
M  V30 14285 C 1358.18 0.479785 5.20092 0
M  V30 14286 H 1359.87 0.550705 2.94292 0
M  V30 14287 H 1357.42 0.266284 1.41517 0
M  V30 14288 H 1359.37 -1.71064 3.85117 0
M  V30 14289 H 1358.1 -1.93734 2.62934 0
M  V30 14290 H 1356.76 -0.073353 3.66527 0
M  V30 14291 H 1356.4 -2.438 4.39967 0
M  V30 14292 H 1356.1 -1.29384 5.73178 0
M  V30 14293 H 1357.63 -2.22515 5.68612 0
M  V30 14294 H 1359.04 0.0458042 5.73282 0
M  V30 14295 H 1357.44 0.807615 5.94641 0
M  V30 14296 H 1358.51 1.37259 4.65068 0
M  V30 14297 N 1359.85 -1.54672 0.302354 0
M  V30 14298 C 1361.08 -2.05041 -0.311891 0
M  V30 14299 C 1361.5 -1.17814 -1.46634 0
M  V30 14300 O 1360.86 -0.182517 -1.80379 0
M  V30 14301 C 1360.91 -3.52831 -0.744489 0
M  V30 14302 O 1360.01 -3.68621 -1.84913 0
M  V30 14303 H 1359.35 -0.661255 -0.0603102 0
M  V30 14304 H 1361.88 -1.99711 0.444593 0
M  V30 14305 H 1361.89 -3.94708 -1.03293 0
M  V30 14306 H 1360.57 -4.1578 0.0999976 0
M  V30 14307 H 1359.15 -3.38649 -1.56113 0
M  V30 14308 N 1361.33 -0.0301034 -1.57571 0
M  V30 14309 C 1362.29 0.936465 -2.09196 0
M  V30 14310 C 1363.29 1.25347 -1.00722 0
M  V30 14311 O 1364.48 1.19364 -1.26877 0
M  V30 14312 C 1361.62 2.2527 -2.55864 0
M  V30 14313 H 1362.81 0.489332 -2.95881 0
M  V30 14314 H 1360.36 0.217948 -1.54773 0
M  V30 14315 H 1361.1 2.7461 -1.72511 0
M  V30 14316 H 1360.88 2.03573 -3.35113 0
M  V30 14317 H 1362.37 2.94549 -2.96025 0
M  V30 14318 N 1362.81 1.55714 0.243056 0
M  V30 14319 C 1364.06 1.76927 0.96849 0
M  V30 14320 C 1364.37 0.594748 1.86339 0
M  V30 14321 O 1365.58 0.689981 2.62586 0
M  V30 14322 C 1364.03 3.13246 1.77214 0
M  V30 14323 C 1363.64 4.38358 0.92444 0
M  V30 14324 C 1365.38 3.43796 2.49007 0
M  V30 14325 C 1363.29 5.65708 1.7242 0
M  V30 14326 H 1362.22 0.659574 0.365346 0
M  V30 14327 H 1364.87 1.8214 0.223026 0
M  V30 14328 H 1363.25 3.02151 2.5597 0
M  V30 14329 H 1364.43 4.60452 0.178936 0
M  V30 14330 H 1362.74 4.15171 0.319653 0
M  V30 14331 H 1365.34 4.3616 3.09303 0
M  V30 14332 H 1365.68 2.65297 3.20817 0
M  V30 14333 H 1366.22 3.56124 1.77259 0
M  V30 14334 H 1362.96 6.47039 1.04978 0
M  V30 14335 H 1362.48 5.4771 2.44488 0
M  V30 14336 H 1364.15 6.05105 2.29036 0
M  V30 14337 N 1364.29 -0.50888 1.49158 0
M  V30 14338 C 1365.23 -1.61129 1.65246 0
M  V30 14339 C 1366.2 -1.58582 0.49405 0
M  V30 14340 O 1367.39 -1.76689 0.720122 0
M  V30 14341 C 1364.53 -2.99311 1.71776 0
M  V30 14342 C 1363.64 -3.11933 2.98868 0
M  V30 14343 C 1362.78 -4.408 2.96426 0
M  V30 14344 C 1361.82 -4.47027 4.18131 0
M  V30 14345 N 1360.95 -5.67311 4.13645 0
M  V30 14346 H 1365.79 -1.4672 2.59379 0
M  V30 14347 H 1363.33 -0.713978 1.28611 0
M  V30 14348 H 1365.29 -3.79392 1.73543 0
M  V30 14349 H 1363.92 -3.12442 0.811159 0
M  V30 14350 H 1362.97 -2.24966 3.06748 0
M  V30 14351 H 1364.28 -3.12393 3.8886 0
M  V30 14352 H 1363.44 -5.29194 2.96712 0
M  V30 14353 H 1362.17 -4.42893 2.04199 0
M  V30 14354 H 1361.18 -3.57036 4.18097 0
M  V30 14355 H 1362.4 -4.46656 5.11542 0
M  V30 14356 H 1360.35 -5.70261 3.2425 0
M  V30 14357 H 1360.27 -5.69355 4.97364 0
M  V30 14358 H 1361.54 -6.57934 4.18022 0
M  V30 14359 N 1365.76 -1.381 -0.759346 0
M  V30 14360 C 1366.7 -1.29241 -1.88075 0
M  V30 14361 C 1367.68 -0.170526 -1.61703 0
M  V30 14362 O 1368.86 -0.346865 -1.85281 0
M  V30 14363 C 1365.99 -1.00115 -3.23566 0
M  V30 14364 C 1365.03 -2.14161 -3.68832 0
M  V30 14365 S 1365.87 -3.76251 -3.81045 0
M  V30 14366 C 1367.02 -3.49301 -5.19365 0
M  V30 14367 H 1367.25 -2.24152 -1.95303 0
M  V30 14368 H 1364.79 -1.23869 -0.921734 0
M  V30 14369 H 1366.75 -0.839934 -4.01815 0
M  V30 14370 H 1365.41 -0.0693088 -3.14024 0
M  V30 14371 H 1364.6 -1.89313 -4.67094 0
M  V30 14372 H 1364.2 -2.2636 -2.9772 0
M  V30 14373 H 1366.49 -3.05058 -6.04935 0
M  V30 14374 H 1367.44 -4.46935 -5.49231 0
M  V30 14375 H 1367.84 -2.83944 -4.87889 0
M  V30 14376 N 1367.24 0.986894 -1.22875 0
M  V30 14377 C 1368.49 1.72985 -1.05849 0
M  V30 14378 C 1368.82 1.89939 0.404594 0
M  V30 14379 O 1368.1 1.44693 1.29978 0
M  V30 14380 C 1368.38 3.13193 -1.77714 0
M  V30 14381 C 1368.23 3.0385 -3.31655 0
M  V30 14382 C 1369.55 4.12486 -1.53438 0
M  V30 14383 H 1366.67 0.627877 -0.385926 0
M  V30 14384 H 1369.31 1.14936 -1.51294 0
M  V30 14385 H 1367.46 3.62751 -1.39083 0
M  V30 14386 H 1369.13 2.61866 -3.79768 0
M  V30 14387 H 1367.38 2.4051 -3.61023 0
M  V30 14388 H 1368.05 4.03092 -3.77122 0
M  V30 14389 H 1370.52 3.71709 -1.87007 0
M  V30 14390 H 1369.4 5.08694 -2.06207 0
M  V30 14391 H 1369.66 4.39613 -0.468294 0
M  V30 14392 N 1368.72 1.0394 1.18466 0
M  V30 14393 C 1369.65 0.587413 2.21545 0
M  V30 14394 C 1370.67 -0.34227 1.59161 0
M  V30 14395 O 1371.85 -0.136988 1.77974 0
M  V30 14396 C 1368.95 -0.161999 3.38513 0
M  V30 14397 C 1368.13 0.775243 4.30475 0
M  V30 14398 C 1367.19 0.0693526 5.26154 0
M  V30 14399 O 1366.21 0.69937 5.64887 0
M  V30 14400 N 1367.41 -1.19773 5.68009 0
M  V30 14401 H 1370.18 1.47399 2.60948 0
M  V30 14402 H 1367.74 0.919734 1.33239 0
M  V30 14403 H 1369.73 -0.644041 3.99542 0
M  V30 14404 H 1368.3 -0.950099 2.97812 0
M  V30 14405 H 1367.52 1.43717 3.67068 0
M  V30 14406 H 1368.81 1.41187 4.88819 0
M  V30 14407 H 1368.21 -1.73013 5.38593 0
M  V30 14408 H 1366.77 -1.62407 6.31243 0
M  V30 14409 N 1370.2 -1.34667 0.818693 0
M  V30 14410 C 1371.43 -2.02348 0.417002 0
M  V30 14411 C 1371.84 -1.61813 -0.980464 0
M  V30 14412 O 1371.18 -0.817232 -1.64521 0
M  V30 14413 C 1371.24 -3.56861 0.434779 0
M  V30 14414 C 1370.91 -4.20704 1.78485 0
M  V30 14415 C 1371.9 -4.41524 2.74504 0
M  V30 14416 C 1369.59 -4.57566 2.07217 0
M  V30 14417 C 1371.58 -4.98324 3.97431 0
M  V30 14418 C 1369.27 -5.14078 3.30405 0
M  V30 14419 C 1370.27 -5.344 4.2533 0
M  V30 14420 O 1369.95 -5.89717 5.46342 0
M  V30 14421 H 1369.69 -0.655279 0.16609 0
M  V30 14422 H 1372.24 -1.73011 1.10708 0
M  V30 14423 H 1370.47 -3.8544 -0.311973 0
M  V30 14424 H 1372.16 -4.05864 0.0537258 0
M  V30 14425 H 1372.93 -4.13414 2.53601 0
M  V30 14426 H 1368.8 -4.41054 1.34135 0
M  V30 14427 H 1372.35 -5.14102 4.71534 0
M  V30 14428 H 1368.25 -5.41616 3.51174 0
M  V30 14429 H 1369.01 -6.08155 5.47804 0
M  V30 14430 N 1371.68 -0.573274 -1.46804 0
M  V30 14431 C 1373.09 -0.23423 -1.57872 0
M  V30 14432 C 1373.29 1.26342 -1.56971 0
M  V30 14433 O 1372.35 2.04459 -1.48165 0
M  V30 14434 C 1373.66 -0.875097 -2.87685 0
M  V30 14435 C 1375.21 -0.847812 -3.01299 0
M  V30 14436 C 1375.68 -1.46804 -4.33835 0
M  V30 14437 N 1377.18 -1.43196 -4.4051 0
M  V30 14438 C 1377.91 -1.88133 -5.41658 0
M  V30 14439 N 1377.41 -2.41001 -6.49531 0
M  V30 14440 N 1379.2 -1.79107 -5.32801 0
M  V30 14441 H 1371.35 -1.54612 -1.45633 0
M  V30 14442 H 1373.61 -0.645703 -0.694098 0
M  V30 14443 H 1373.32 -1.92826 -2.94127 0
M  V30 14444 H 1373.19 -0.377671 -3.75305 0
M  V30 14445 H 1375.58 0.196707 -2.94444 0
M  V30 14446 H 1375.66 -1.38316 -2.1518 0
M  V30 14447 H 1375.31 -2.51171 -4.41447 0
M  V30 14448 H 1375.24 -0.908 -5.18713 0
M  V30 14449 H 1377.73 -1.04541 -3.63152 0
M  V30 14450 H 1378.04 -2.73172 -7.22908 0
M  V30 14451 H 1376.38 -2.45021 -6.50377 0
M  V30 14452 H 1379.58 -1.37569 -4.47429 0
M  V30 14453 H 1379.75 -2.14445 -6.11488 0
M  V30 14454 N 1373.15 1.5451 -0.310553 0
M  V30 14455 C 1374.43 1.92452 0.34951 0
M  V30 14456 C 1374.81 1.23881 1.70929 0
M  V30 14457 O 1374.16 0.377898 2.25353 0
M  V30 14458 C 1374.37 3.46026 0.454675 0
M  V30 14459 C 1375.72 4.18432 0.721071 0
M  V30 14460 O 1376.74 3.52112 0.538112 0
M  V30 14461 O 1375.6 5.3586 1.07314 0
M  V30 14462 H 1372.69 0.803168 0.197103 0
M  V30 14463 H 1375.24 1.65852 -0.359313 0
M  V30 14464 H 1374.01 3.88081 -0.500853 0
M  V30 14465 H 1373.64 3.7869 1.21159 0
M  V30 14466 N 1374.63 0.0384594 1.57553 0
M  V30 14467 C 1375.86 -0.651613 1.96898 0
M  V30 14468 C 1376.28 -1.64328 0.915308 0
M  V30 14469 O 1375.64 -1.80883 -0.122824 0
M  V30 14470 C 1375.69 -1.32613 3.3533 0
M  V30 14471 O 1374.79 -2.44159 3.32355 0
M  V30 14472 H 1374.13 -0.170441 0.641752 0
M  V30 14473 H 1376.66 0.103086 2.0434 0
M  V30 14474 H 1376.67 -1.68076 3.71772 0
M  V30 14475 H 1375.35 -0.599275 4.1156 0
M  V30 14476 H 1373.93 -2.10738 3.07642 0
M  V30 14477 N 1376.11 -1.55841 -0.234795 0
M  V30 14478 C 1377.36 -1.78238 -0.961116 0
M  V30 14479 C 1377.69 -0.604919 -1.84854 0
M  V30 14480 O 1376.94 0.411289 -1.91329 0
M  V30 14481 C 1377.24 -3.06262 -1.84223 0
M  V30 14482 C 1376.91 -4.37045 -1.10916 0
M  V30 14483 C 1375.57 -4.72582 -0.906606 0
M  V30 14484 C 1377.92 -5.17844 -0.59049 0
M  V30 14485 C 1375.25 -5.86444 -0.173275 0
M  V30 14486 C 1377.6 -6.32468 0.129433 0
M  V30 14487 C 1376.26 -6.66616 0.343357 0
M  V30 14488 H 1375.53 -0.652219 -0.351697 0
M  V30 14489 H 1378.18 -1.9011 -0.230272 0
M  V30 14490 H 1376.49 -2.89454 -2.64052 0
M  V30 14491 H 1378.18 -3.20791 -2.40612 0
M  V30 14492 H 1374.77 -4.09134 -1.27699 0
M  V30 14493 H 1378.96 -4.90835 -0.734487 0
M  V30 14494 H 1374.21 -6.114 0.00282409 0
M  V30 14495 H 1378.39 -6.94312 0.538905 0
M  V30 14496 H 1376.01 -7.54691 0.913538 0
M  V30 14497 N 1377.59 0.500963 -1.49426 0
M  V30 14498 C 1378.52 1.61114 -1.69011 0
M  V30 14499 C 1379.5 1.61341 -0.538813 0
M  V30 14500 O 1380.69 1.78081 -0.77466 0
M  V30 14501 C 1377.82 2.99598 -1.75666 0
M  V30 14502 C 1376.77 3.14236 -2.90585 0
M  V30 14503 C 1376.1 4.54071 -2.82354 0
M  V30 14504 C 1377.4 2.94258 -4.3152 0
M  V30 14505 H 1379.09 1.44978 -2.61957 0
M  V30 14506 H 1376.64 0.69603 -1.26061 0
M  V30 14507 H 1378.59 3.77163 -1.87953 0
M  V30 14508 H 1377.31 3.16822 -0.793186 0
M  V30 14509 H 1375.97 2.39096 -2.779 0
M  V30 14510 H 1375.62 4.68172 -1.83914 0
M  V30 14511 H 1375.32 4.64806 -3.59485 0
M  V30 14512 H 1376.84 5.33696 -2.96649 0
M  V30 14513 H 1378.26 3.61592 -4.44886 0
M  V30 14514 H 1376.65 3.16464 -5.09873 0
M  V30 14515 H 1377.72 1.90383 -4.45962 0
M  V30 14516 N 1379.07 1.38501 0.752011 0
M  V30 14517 C 1380.3 1.38032 1.54125 0
M  V30 14518 C 1380.71 -0.0295066 1.88777 0
M  V30 14519 O 1380.07 -0.996522 1.52891 0
M  V30 14520 C 1380.12 2.23741 2.83941 0
M  V30 14521 O 1379.84 3.59232 2.50767 0
M  V30 14522 C 1381.34 2.31469 3.7807 0
M  V30 14523 H 1378.56 0.472077 0.476848 0
M  V30 14524 H 1381.1 1.82101 0.930572 0
M  V30 14525 H 1379.26 1.8313 3.41383 0
M  V30 14526 H 1379.67 4.04376 3.34036 0
M  V30 14527 H 1381.15 2.95722 4.66103 0
M  V30 14528 H 1381.62 1.32882 4.18616 0
M  V30 14529 H 1382.23 2.72477 3.26552 0
M  V30 14530 N 1380.55 -0.980364 1.23396 0
M  V30 14531 C 1381.51 -2.05433 1.01635 0
M  V30 14532 C 1382.51 -1.60785 -0.0218244 0
M  V30 14533 O 1383.7 -1.72832 0.217922 0
M  V30 14534 C 1380.83 -3.36631 0.537822 0
M  V30 14535 H 1382.02 -2.26172 1.96943 0
M  V30 14536 H 1379.58 -1.15378 1.05441 0
M  V30 14537 H 1380.31 -3.21581 -0.41903 0
M  V30 14538 H 1380.1 -3.70377 1.28698 0
M  V30 14539 H 1381.59 -4.1562 0.406213 0
M  V30 14540 N 1382.02 -1.04567 -1.17913 0
M  V30 14541 C 1383.27 -0.750538 -1.87647 0
M  V30 14542 C 1383.59 0.72423 -1.81052 0
M  V30 14543 O 1382.86 1.52292 -1.23223 0
M  V30 14544 H 1381.44 -0.274636 -0.694683 0
M  V30 14545 H 1384.1 -1.32349 -1.43072 0
M  V30 14546 H 1383.2 -1.05987 -2.93553 0
M  V30 14547 N 1383.5 1.34231 -0.825823 0
M  V30 14548 C 1384.75 1.98196 -0.415276 0
M  V30 14549 C 1385.08 1.65463 1.02236 0
M  V30 14550 O 1384.33 0.919868 1.72734 0
M  V30 14551 C 1384.63 3.52861 -0.56778 0
M  V30 14552 C 1384.3 4.05512 -1.97157 0
M  V30 14553 C 1382.96 4.19602 -2.35557 0
M  V30 14554 C 1385.31 4.33798 -2.88909 0
M  V30 14555 C 1382.64 4.59307 -3.6504 0
M  V30 14556 C 1384.99 4.74949 -4.17859 0
M  V30 14557 C 1383.65 4.87245 -4.56233 0
M  V30 14558 H 1382.92 0.725251 -0.15196 0
M  V30 14559 H 1385.57 1.60126 -1.05033 0
M  V30 14560 H 1383.88 3.9151 0.15065 0
M  V30 14561 H 1385.57 4.00336 -0.230608 0
M  V30 14562 H 1382.16 3.9501 -1.66328 0
M  V30 14563 H 1386.35 4.22448 -2.60483 0
M  V30 14564 H 1381.6 4.67017 -3.94594 0
M  V30 14565 H 1385.78 4.95795 -4.8904 0
M  V30 14566 H 1383.4 5.17768 -5.56615 0
M  V30 14567 N 1384.98 0.581051 1.46498 0
M  V30 14568 C 1386.21 0.0715652 2.06776 0
M  V30 14569 C 1386.62 -1.23267 1.43006 0
M  V30 14570 O 1385.98 -1.74489 0.534776 0
M  V30 14571 C 1386.03 -0.102666 3.61354 0
M  V30 14572 O 1385.75 1.14995 4.22739 0
M  V30 14573 C 1387.25 -0.646692 4.38558 0
M  V30 14574 H 1384.47 0.0566964 0.6686 0
M  V30 14575 H 1387.02 0.801248 1.8815 0
M  V30 14576 H 1385.17 -0.782564 3.79414 0
M  V30 14577 H 1385.59 0.962718 5.15589 0
M  V30 14578 H 1387.06 -0.717791 5.47313 0
M  V30 14579 H 1387.54 -1.6633 4.06486 0
M  V30 14580 H 1388.14 -0.00171739 4.253 0
M  V30 14581 N 1386.46 -1.54343 0.318742 0
M  V30 14582 C 1387.68 -2.05361 -0.290126 0
M  V30 14583 C 1388.11 -1.19362 -1.45376 0
M  V30 14584 O 1387.47 -0.201639 -1.80175 0
M  V30 14585 C 1387.51 -3.53601 -0.707025 0
M  V30 14586 O 1386.62 -3.70561 -1.80992 0
M  V30 14587 H 1385.96 -0.661858 -0.0532933 0
M  V30 14588 H 1388.49 -1.99228 0.46575 0
M  V30 14589 H 1388.5 -3.95782 -0.991005 0
M  V30 14590 H 1387.17 -4.1565 0.144091 0
M  V30 14591 H 1385.75 -3.40286 -1.52513 0
M  V30 14592 N 1387.94 -0.0468143 -1.5753 0
M  V30 14593 C 1388.87 0.927092 -2.14306 0
M  V30 14594 C 1389.85 1.32745 -1.06362 0
M  V30 14595 O 1391.03 1.40293 -1.34281 0
M  V30 14596 C 1388.16 2.20343 -2.68452 0
M  V30 14597 C 1387.12 1.94328 -3.81341 0
M  V30 14598 C 1386.44 3.28379 -4.21985 0
M  V30 14599 C 1387.74 1.26835 -5.06666 0
M  V30 14600 H 1389.44 0.454199 -2.95935 0
M  V30 14601 H 1386.98 0.217029 -1.42355 0
M  V30 14602 H 1388.93 2.8887 -3.0681 0
M  V30 14603 H 1387.66 2.6983 -1.84009 0
M  V30 14604 H 1386.32 1.28214 -3.43448 0
M  V30 14605 H 1385.97 3.75658 -3.34499 0
M  V30 14606 H 1385.67 3.11772 -4.98068 0
M  V30 14607 H 1387.19 3.98145 -4.6294 0
M  V30 14608 H 1388.6 1.85389 -5.42498 0
M  V30 14609 H 1387 1.20569 -5.87863 0
M  V30 14610 H 1388.07 0.243759 -4.84287 0
M  V30 14611 N 1389.41 1.55964 0.226527 0
M  V30 14612 C 1390.35 1.88487 1.30405 0
M  V30 14613 C 1391.36 0.772723 1.43293 0
M  V30 14614 O 1392.55 1.05099 1.44279 0
M  V30 14615 C 1389.65 2.074 2.68027 0
M  V30 14616 C 1388.82 3.38389 2.77149 0
M  V30 14617 C 1387.88 3.46795 3.95752 0
M  V30 14618 O 1386.91 4.19862 3.84323 0
M  V30 14619 N 1388.11 2.77573 5.09836 0
M  V30 14620 H 1390.87 2.81506 1.02833 0
M  V30 14621 H 1388.43 1.56449 0.416581 0
M  V30 14622 H 1390.43 2.10344 3.45742 0
M  V30 14623 H 1389 1.2103 2.8822 0
M  V30 14624 H 1388.22 3.47586 1.8595 0
M  V30 14625 H 1389.5 4.24688 2.8021 0
M  V30 14626 H 1388.9 2.17979 5.22017 0
M  V30 14627 H 1387.46 2.86185 5.85612 0
M  V30 14628 N 1390.89 -0.493031 1.4969 0
M  V30 14629 C 1391.82 -1.60215 1.69863 0
M  V30 14630 C 1392.8 -1.61053 0.547362 0
M  V30 14631 O 1393.99 -1.77667 0.784093 0
M  V30 14632 C 1391.12 -2.98662 1.77252 0
M  V30 14633 C 1390.07 -3.1269 2.92248 0
M  V30 14634 C 1389.4 -4.52567 2.84758 0
M  V30 14635 C 1390.7 -2.91965 4.33074 0
M  V30 14636 H 1392.39 -1.43587 2.62723 0
M  V30 14637 H 1389.94 -0.689334 1.26429 0
M  V30 14638 H 1391.89 -3.7616 1.89951 0
M  V30 14639 H 1390.62 -3.16397 0.809976 0
M  V30 14640 H 1389.27 -2.37619 2.79164 0
M  V30 14641 H 1388.92 -4.6719 1.86394 0
M  V30 14642 H 1388.62 -4.62893 3.61944 0
M  V30 14643 H 1390.15 -5.32116 2.99475 0
M  V30 14644 H 1391.56 -3.59228 4.46798 0
M  V30 14645 H 1389.96 -3.13756 5.11544 0
M  V30 14646 H 1391.03 -1.88015 4.46966 0
M  V30 14647 N 1392.37 -1.38898 -0.744656 0
M  V30 14648 C 1393.62 -1.35795 -1.50623 0
M  V30 14649 C 1393.95 0.0491775 -1.94138 0
M  V30 14650 O 1393.22 1.01219 -1.66087 0
M  V30 14651 C 1393.51 -2.32168 -2.75263 0
M  V30 14652 C 1393.36 -3.81781 -2.3783 0
M  V30 14653 C 1394.68 -2.26526 -3.77325 0
M  V30 14654 H 1391.8 -0.494591 -0.546396 0
M  V30 14655 H 1394.44 -1.69816 -0.852211 0
M  V30 14656 H 1392.59 -2.03287 -3.31069 0
M  V30 14657 H 1394.26 -4.21373 -1.8773 0
M  V30 14658 H 1392.51 -3.99027 -1.70176 0
M  V30 14659 H 1393.18 -4.44687 -3.27044 0
M  V30 14660 H 1395.65 -2.52041 -3.31081 0
M  V30 14661 H 1394.53 -2.96053 -4.62216 0
M  V30 14662 H 1394.79 -1.26705 -4.23554 0
M  V30 14663 N 1393.85 0.973806 -1.23914 0
M  V30 14664 C 1395.08 1.75107 -1.10206 0
M  V30 14665 C 1395.49 1.85604 0.345935 0
M  V30 14666 O 1394.85 1.33996 1.239 0
M  V30 14667 C 1394.9 3.17466 -1.72909 0
M  V30 14668 O 1394.62 3.07504 -3.12047 0
M  V30 14669 C 1396.12 4.11557 -1.6473 0
M  V30 14670 H 1393.34 0.549318 -0.385345 0
M  V30 14671 H 1395.89 1.22301 -1.63898 0
M  V30 14672 H 1394.04 3.67277 -1.23234 0
M  V30 14673 H 1394.45 3.97169 -3.42575 0
M  V30 14674 H 1395.93 5.09126 -2.13295 0
M  V30 14675 H 1396.41 4.3498 -0.607352 0
M  V30 14676 H 1397.01 3.67653 -2.13802 0
M  V30 14677 N 1395.33 1.05191 1.17357 0
M  V30 14678 C 1396.26 0.610878 2.20909 0
M  V30 14679 C 1397.27 -0.325369 1.59515 0
M  V30 14680 O 1398.46 -0.118104 1.78109 0
M  V30 14681 C 1395.56 -0.126086 3.38665 0
M  V30 14682 C 1394.73 0.820857 4.29629 0
M  V30 14683 C 1393.79 0.125154 5.26051 0
M  V30 14684 O 1392.82 0.759245 5.64114 0
M  V30 14685 N 1394.02 -1.13742 5.69248 0
M  V30 14686 H 1396.79 1.50158 2.5937 0
M  V30 14687 H 1394.35 0.933814 1.32256 0
M  V30 14688 H 1396.34 -0.601627 4.00203 0
M  V30 14689 H 1394.91 -0.918459 2.98803 0
M  V30 14690 H 1394.13 1.47602 3.65523 0
M  V30 14691 H 1395.42 1.46363 4.87294 0
M  V30 14692 H 1394.81 -1.67291 5.40398 0
M  V30 14693 H 1393.37 -1.55703 6.3293 0
M  V30 14694 N 1396.8 -1.33791 0.83293 0
M  V30 14695 C 1397.74 -2.27259 0.207019 0
M  V30 14696 C 1398.72 -1.49372 -0.642403 0
M  V30 14697 O 1399.9 -1.78562 -0.603963 0
M  V30 14698 C 1397.03 -3.31177 -0.709885 0
M  V30 14699 C 1396.07 -4.26453 0.0633036 0
M  V30 14700 S 1396.91 -5.16406 1.41721 0
M  V30 14701 C 1398.06 -6.23856 0.505446 0
M  V30 14702 H 1398.29 -2.79998 0.999422 0
M  V30 14703 H 1395.83 -1.40991 0.629361 0
M  V30 14704 H 1397.79 -3.91535 -1.23332 0
M  V30 14705 H 1396.45 -2.77265 -1.4759 0
M  V30 14706 H 1395.64 -4.99995 -0.634145 0
M  V30 14707 H 1395.24 -3.70401 0.517607 0
M  V30 14708 H 1397.53 -6.7684 -0.299066 0
M  V30 14709 H 1398.48 -6.97671 1.21084 0
M  V30 14710 H 1398.88 -5.64429 0.0894308 0
M  V30 14711 N 1398.28 -0.588812 -1.46187 0
M  V30 14712 C 1399.51 -0.0825301 -2.06735 0
M  V30 14713 C 1399.93 1.22507 -1.43658 0
M  V30 14714 O 1399.28 1.74203 -0.544022 0
M  V30 14715 C 1399.33 0.083501 -3.61404 0
M  V30 14716 O 1399.05 -1.17235 -4.22123 0
M  V30 14717 C 1400.56 0.623425 -4.38894 0
M  V30 14718 H 1397.78 -0.0602413 -0.66829 0
M  V30 14719 H 1400.32 -0.811215 -1.87722 0
M  V30 14720 H 1398.47 0.762432 -3.79823 0
M  V30 14721 H 1398.89 -0.990047 -5.15071 0
M  V30 14722 H 1400.36 0.688755 -5.47686 0
M  V30 14723 H 1400.84 1.64172 -4.07362 0
M  V30 14724 H 1401.45 -0.0208373 -4.25295 0
M  V30 14725 N 1399.76 1.54172 -0.326923 0
M  V30 14726 C 1400.99 2.05512 0.279231 0
M  V30 14727 C 1401.41 1.20131 1.44741 0
M  V30 14728 O 1400.77 0.211191 1.80066 0
M  V30 14729 C 1400.82 3.53971 0.688263 0
M  V30 14730 O 1399.92 3.71516 1.79025 0
M  V30 14731 H 1399.26 0.662131 0.0497826 0
M  V30 14732 H 1401.79 1.98979 -0.476309 0
M  V30 14733 H 1401.8 3.96302 0.970002 0
M  V30 14734 H 1400.48 4.15568 -0.166132 0
M  V30 14735 H 1399.05 3.4109 1.50706 0
M  V30 14736 N 1401.24 0.0551678 1.57503 0
M  V30 14737 C 1402.15 -0.932959 2.15251 0
M  V30 14738 C 1403.16 -1.33885 1.11134 0
M  V30 14739 O 1404.34 -1.41495 1.43321 0
M  V30 14740 C 1401.41 -2.18807 2.68932 0
M  V30 14741 C 1400.47 -1.84016 3.87862 0
M  V30 14742 C 1399.7 -3.03543 4.38973 0
M  V30 14743 O 1399.92 -4.17041 3.89144 0
M  V30 14744 O 1398.86 -2.84325 5.30512 0
M  V30 14745 H 1402.68 -0.471816 3.00013 0
M  V30 14746 H 1400.27 -0.16696 1.48464 0
M  V30 14747 H 1402.15 -2.92439 3.0341 0
M  V30 14748 H 1400.82 -2.64051 1.87239 0
M  V30 14749 H 1399.73 -1.07687 3.58266 0
M  V30 14750 H 1401.06 -1.43567 4.70796 0
M  V30 14751 N 1402.72 -1.56081 -0.218252 0
M  V30 14752 C 1403.99 -1.70043 -0.966684 0
M  V30 14753 C 1404.37 -0.603372 -2.02293 0
M  V30 14754 O 1403.72 0.389138 -2.25162 0
M  V30 14755 C 1403.93 -3.11484 -1.57413 0
M  V30 14756 C 1405.28 -3.70995 -2.06513 0
M  V30 14757 O 1406.3 -3.14466 -1.67301 0
M  V30 14758 O 1405.16 -4.70156 -2.78596 0
M  V30 14759 H 1402.26 -0.692691 -0.451784 0
M  V30 14760 H 1404.8 -1.68398 -0.209774 0
M  V30 14761 H 1403.57 -3.8279 -0.811614 0
M  V30 14762 H 1403.2 -3.1726 -2.3965 0
M  V30 14763 N 1404.2 0.485086 -1.49949 0
M  V30 14764 C 1405.13 1.59312 -1.7071 0
M  V30 14765 C 1406.11 1.6076 -0.555896 0
M  V30 14766 O 1407.29 1.77249 -0.793504 0
M  V30 14767 C 1404.42 2.97718 -1.78834 0
M  V30 14768 C 1403.38 3.11136 -2.93902 0
M  V30 14769 C 1402.7 4.51051 -2.87154 0
M  V30 14770 C 1404 2.89665 -4.34617 0
M  V30 14771 H 1405.7 1.42192 -2.6348 0
M  V30 14772 H 1403.24 0.68262 -1.26792 0
M  V30 14773 H 1405.19 3.75148 -1.91943 0
M  V30 14774 H 1403.92 3.15963 -0.826744 0
M  V30 14775 H 1402.58 2.36135 -2.80421 0
M  V30 14776 H 1402.23 4.66195 -1.88869 0
M  V30 14777 H 1401.93 4.60967 -3.64394 0
M  V30 14778 H 1403.45 5.3052 -3.02293 0
M  V30 14779 H 1404.86 3.56853 -4.48697 0
M  V30 14780 H 1403.26 3.11039 -5.13201 0
M  V30 14781 H 1404.33 1.85642 -4.47956 0
M  V30 14782 N 1405.67 1.39291 0.737279 0
M  V30 14783 C 1406.6 1.40562 1.86452 0
M  V30 14784 C 1407.58 0.269283 1.67955 0
M  V30 14785 O 1408.77 0.474769 1.88307 0
M  V30 14786 C 1405.9 1.2461 3.24175 0
M  V30 14787 C 1404.85 2.35619 3.57306 0
M  V30 14788 C 1404.18 2.04758 4.93941 0
M  V30 14789 C 1405.48 3.77927 3.60512 0
M  V30 14790 H 1407.17 2.34896 1.85646 0
M  V30 14791 H 1404.72 1.13065 0.891756 0
M  V30 14792 H 1406.67 1.2412 4.02706 0
M  V30 14793 H 1405.4 0.267438 3.25503 0
M  V30 14794 H 1404.06 2.35322 2.81104 0
M  V30 14795 H 1403.7 1.05336 4.91847 0
M  V30 14796 H 1403.4 2.79117 5.17076 0
M  V30 14797 H 1404.93 2.05915 5.74832 0
M  V30 14798 H 1406.34 3.80166 4.29123 0
M  V30 14799 H 1404.74 4.51626 3.95164 0
M  V30 14800 H 1405.81 4.09068 2.60368 0
M  V30 14801 N 1407.15 -0.967221 1.24429 0
M  V30 14802 C 1408.57 -1.23594 1.00979 0
M  V30 14803 C 1408.77 -1.99529 -0.281112 0
M  V30 14804 O 1407.82 -2.31977 -0.997139 0
M  V30 14805 C 1409.14 -2.02261 2.22511 0
M  V30 14806 C 1410.68 -2.15352 2.2714 0
M  V30 14807 C 1411.16 -2.97414 3.48294 0
M  V30 14808 N 1412.65 -3.04996 3.48614 0
M  V30 14809 C 1413.39 -3.68851 4.39017 0
M  V30 14810 N 1412.88 -4.34421 5.39676 0
M  V30 14811 N 1414.67 -3.65868 4.26728 0
M  V30 14812 H 1406.83 -0.458881 2.07384 0
M  V30 14813 H 1409.09 -0.265411 0.910088 0
M  V30 14814 H 1408.79 -1.53852 3.16263 0
M  V30 14815 H 1408.67 -3.02993 2.24667 0
M  V30 14816 H 1411.06 -2.62964 1.33919 0
M  V30 14817 H 1411.14 -1.13966 2.2901 0
M  V30 14818 H 1410.78 -2.50495 4.41831 0
M  V30 14819 H 1410.71 -3.98998 3.43668 0
M  V30 14820 H 1413.2 -2.58354 2.75793 0
M  V30 14821 H 1413.51 -4.80965 6.04891 0
M  V30 14822 H 1411.86 -4.33089 5.43562 0
M  V30 14823 H 1415.05 -3.13819 3.47325 0
M  V30 14824 H 1415.22 -4.15349 4.97382 0
M  V30 14825 N 1408.63 -1.05812 -1.16797 0
M  V30 14826 C 1409.88 -0.767008 -1.86547 0
M  V30 14827 C 1410.19 0.708979 -1.82299 0
M  V30 14828 O 1411.4 1.11428 -2.4758 0
M  V30 14829 C 1409.85 -1.32186 -3.34746 0
M  V30 14830 C 1409.46 -2.82774 -3.4748 0
M  V30 14831 C 1411.21 -1.10808 -4.09783 0
M  V30 14832 C 1409.11 -3.31529 -4.89737 0
M  V30 14833 H 1408.04 -0.283235 -0.698781 0
M  V30 14834 H 1410.69 -1.27621 -1.31853 0
M  V30 14835 H 1409.08 -0.740453 -3.89016 0
M  V30 14836 H 1410.25 -3.46825 -3.03396 0
M  V30 14837 H 1408.56 -3.02765 -2.85871 0
M  V30 14838 H 1411.16 -1.44728 -5.14741 0
M  V30 14839 H 1411.5 -0.046167 -4.16274 0
M  V30 14840 H 1412.04 -1.65502 -3.61737 0
M  V30 14841 H 1408.78 -4.37177 -4.88422 0
M  V30 14842 H 1408.3 -2.72224 -5.34466 0
M  V30 14843 H 1409.98 -3.26572 -5.58534 0
M  V30 14844 N 1410.11 1.33347 -0.840014 0
M  V30 14845 C 1411.36 1.97354 -0.435412 0
M  V30 14846 C 1411.68 1.66866 1.009 0
M  V30 14847 O 1410.95 0.968186 1.70303 0
M  V30 14848 H 1409.53 0.730096 -0.158017 0
M  V30 14849 H 1412.19 1.6269 -1.07322 0
M  V30 14850 H 1411.28 3.0688 -0.56841 0
M  V30 14851 N 1411.59 0.596556 1.45873 0
M  V30 14852 C 1412.83 0.0850976 2.0152 0
M  V30 14853 C 1413.15 -1.28799 1.47208 0
M  V30 14854 O 1414.35 -1.89156 1.94762 0
M  V30 14855 C 1412.81 0.101488 3.59757 0
M  V30 14856 C 1412.42 1.47374 4.23066 0
M  V30 14857 C 1414.16 -0.355303 4.2301 0
M  V30 14858 C 1412.07 1.44711 5.73422 0
M  V30 14859 H 1411 0.0280444 0.753478 0
M  V30 14860 H 1413.65 0.750255 1.67462 0
M  V30 14861 H 1412.03 -0.630108 3.90955 0
M  V30 14862 H 1413.21 2.22617 4.03458 0
M  V30 14863 H 1411.52 1.87171 3.71962 0
M  V30 14864 H 1414.12 -0.394236 5.33245 0
M  V30 14865 H 1414.46 -1.37573 3.92911 0
M  V30 14866 H 1414.99 0.32267 3.96489 0
M  V30 14867 H 1411.73 2.44479 6.08203 0
M  V30 14868 H 1411.25 0.737102 5.95254 0
M  V30 14869 H 1412.93 1.16598 6.36407 0
M  V30 14870 N 1413.06 -1.53996 0.335095 0
M  V30 14871 C 1414.29 -2.05188 -0.26563 0
M  V30 14872 C 1414.71 -1.21058 -1.44881 0
M  V30 14873 O 1414.06 -0.243919 -1.80863 0
M  V30 14874 C 1414.11 -3.54875 -0.688904 0
M  V30 14875 O 1413.84 -4.35811 0.447217 0
M  V30 14876 C 1415.34 -4.22204 -1.35123 0
M  V30 14877 H 1412.56 -0.668921 -0.0527806 0
M  V30 14878 H 1415.1 -1.98675 0.48463 0
M  V30 14879 H 1413.26 -3.61638 -1.38912 0
M  V30 14880 H 1413.67 -5.24381 0.111495 0
M  V30 14881 H 1415.14 -5.28356 -1.59823 0
M  V30 14882 H 1415.62 -3.74029 -2.30216 0
M  V30 14883 H 1416.23 -4.19611 -0.693283 0
M  V30 14884 N 1414.54 -0.0635198 -1.57472 0
M  V30 14885 C 1415.47 0.90431 -2.15278 0
M  V30 14886 C 1416.45 1.31609 -1.07764 0
M  V30 14887 O 1417.64 1.38861 -1.35762 0
M  V30 14888 C 1414.77 2.17483 -2.70774 0
M  V30 14889 C 1413.72 1.90272 -3.8338 0
M  V30 14890 C 1413.05 3.23885 -4.25444 0
M  V30 14891 C 1414.35 1.21454 -5.07983 0
M  V30 14892 H 1416.04 0.422786 -2.964 0
M  V30 14893 H 1413.59 0.201918 -1.42577 0
M  V30 14894 H 1415.54 2.856 -3.09856 0
M  V30 14895 H 1414.26 2.67863 -1.86861 0
M  V30 14896 H 1412.92 1.24564 -3.44789 0
M  V30 14897 H 1412.57 3.72089 -3.38465 0
M  V30 14898 H 1412.27 3.06472 -5.01347 0
M  V30 14899 H 1413.8 3.93212 -4.67137 0
M  V30 14900 H 1415.21 1.79625 -5.44433 0
M  V30 14901 H 1413.61 1.14327 -5.89109 0
M  V30 14902 H 1414.68 0.19238 -4.84518 0
M  V30 14903 N 1416.02 1.56195 0.209972 0
M  V30 14904 C 1416.98 1.92514 1.24383 0
M  V30 14905 C 1417.98 0.804793 1.39211 0
M  V30 14906 O 1419.17 1.0724 1.37278 0
M  V30 14907 C 1416.3 2.18613 2.61574 0
M  V30 14908 H 1417.5 2.84992 0.933781 0
M  V30 14909 H 1415.05 1.49656 0.450878 0
M  V30 14910 H 1415.79 1.28724 2.97659 0
M  V30 14911 H 1415.57 3.00241 2.52186 0
M  V30 14912 H 1417.06 2.47767 3.36156 0
M  V30 14913 N 1417.5 -0.477127 1.50204 0
M  V30 14914 C 1418.75 -1.22722 1.60573 0
M  V30 14915 C 1419.07 -1.92595 0.305326 0
M  V30 14916 O 1418.34 -1.83836 -0.676842 0
M  V30 14917 H 1416.92 -0.455973 0.591691 0
M  V30 14918 H 1419.58 -0.550915 1.86952 0
M  V30 14919 H 1418.67 -1.97837 2.41385 0
M  V30 14920 N 1418.98 -1.3968 -0.729882 0
M  V30 14921 C 1419.93 -1.35296 -1.83518 0
M  V30 14922 C 1420.91 -0.232935 -1.59205 0
M  V30 14923 O 1422.1 -0.470887 -1.70621 0
M  V30 14924 C 1419.23 -1.20383 -3.21501 0
M  V30 14925 C 1418.32 -2.37108 -3.51626 0
M  V30 14926 N 1418.71 -3.62585 -3.52655 0
M  V30 14927 C 1417.01 -2.30177 -3.82014 0
M  V30 14928 C 1417.71 -4.39803 -3.8072 0
M  V30 14929 N 1416.68 -3.69456 -3.98752 0
M  V30 14930 H 1420.49 -2.30271 -1.82627 0
M  V30 14931 H 1418 -1.33249 -0.92836 0
M  V30 14932 H 1420 -1.15325 -4.00632 0
M  V30 14933 H 1418.66 -0.263628 -3.23628 0
M  V30 14934 H 1419.67 -3.9594 -3.33845 0
M  V30 14935 H 1416.34 -1.44446 -3.91716 0
M  V30 14936 H 1417.73 -5.4859 -3.87941 0
M  V30 14937 N 1420.45 0.960609 -1.2494 0
M  V30 14938 C 1421.39 2.05948 -1.00588 0
M  V30 14939 C 1422.4 1.62777 0.0271261 0
M  V30 14940 O 1423.59 1.77252 -0.210739 0
M  V30 14941 C 1420.69 3.35228 -0.497521 0
M  V30 14942 C 1419.86 4.0727 -1.59531 0
M  V30 14943 C 1418.92 5.14822 -1.08836 0
M  V30 14944 O 1417.95 5.40602 -1.78153 0
M  V30 14945 N 1419.15 5.80453 0.0735067 0
M  V30 14946 H 1421.91 2.27411 -1.95204 0
M  V30 14947 H 1419.47 1.12874 -1.16065 0
M  V30 14948 H 1421.47 4.04447 -0.142979 0
M  V30 14949 H 1420.04 3.10583 0.354546 0
M  V30 14950 H 1419.26 3.32231 -2.12171 0
M  V30 14951 H 1420.54 4.52161 -2.33299 0
M  V30 14952 H 1419.94 5.6192 0.652848 0
M  V30 14953 H 1418.5 6.50754 0.369132 0
M  V30 14954 N 1421.93 1.0643 1.16234 0
M  V30 14955 C 1422.88 0.676311 2.20669 0
M  V30 14956 C 1423.85 -0.327721 1.62835 0
M  V30 14957 O 1425.03 -0.216296 1.8957 0
M  V30 14958 C 1422.17 0.0703726 3.45028 0
M  V30 14959 C 1421.29 1.12475 4.17101 0
M  V30 14960 C 1420.42 0.484806 5.28983 0
M  V30 14961 C 1419.46 1.52262 5.9286 0
M  V30 14962 N 1418.6 0.905938 6.96231 0
M  V30 14963 H 1423.44 1.57129 2.53209 0
M  V30 14964 H 1420.98 0.7856 1.24365 0
M  V30 14965 H 1422.93 -0.298488 4.16131 0
M  V30 14966 H 1421.56 -0.788002 3.13034 0
M  V30 14967 H 1420.62 1.6113 3.44589 0
M  V30 14968 H 1421.93 1.91202 4.60698 0
M  V30 14969 H 1421.08 0.0630553 6.06667 0
M  V30 14970 H 1419.82 -0.334332 4.86553 0
M  V30 14971 H 1418.83 1.95425 5.13896 0
M  V30 14972 H 1420.05 2.34388 6.37369 0
M  V30 14973 H 1418 0.107536 6.55912 0
M  V30 14974 H 1417.91 1.63058 7.38206 0
M  V30 14975 H 1419.18 0.509378 7.77834 0
M  V30 14976 N 1423.41 -1.329 0.847073 0
M  V30 14977 C 1424.36 -2.29044 0.284199 0
M  V30 14978 C 1425.33 -1.54706 -0.604591 0
M  V30 14979 O 1426.51 -1.82966 -0.541116 0
M  V30 14980 C 1423.65 -3.4104 -0.527822 0
M  V30 14981 C 1422.77 -4.30273 0.385907 0
M  V30 14982 C 1421.9 -5.29391 -0.438009 0
M  V30 14983 C 1420.94 -6.10265 0.473596 0
M  V30 14984 N 1420.08 -7.01403 -0.312684 0
M  V30 14985 H 1424.92 -2.76582 1.10935 0
M  V30 14986 H 1422.45 -1.36085 0.558508 0
M  V30 14987 H 1424.41 -4.04686 -1.01417 0
M  V30 14988 H 1423.04 -2.94673 -1.31787 0
M  V30 14989 H 1422.09 -3.67275 0.99061 0
M  V30 14990 H 1423.41 -4.86837 1.08585 0
M  V30 14991 H 1422.56 -5.98604 -0.987842 0
M  V30 14992 H 1421.3 -4.73424 -1.17135 0
M  V30 14993 H 1420.3 -5.39963 1.03537 0
M  V30 14994 H 1421.53 -6.68316 1.20543 0
M  V30 14995 H 1419.47 -6.47875 -1.02926 0
M  V30 14996 H 1419.39 -7.55286 0.328376 0
M  V30 14997 H 1420.66 -7.74912 -0.844489 0
M  V30 14998 N 1424.89 -0.604284 -1.45555 0
M  V30 14999 C 1426.14 -0.0957836 -2.01472 0
M  V30 15000 C 1426.45 1.28016 -1.47889 0
M  V30 15001 O 1427.66 1.88121 -1.95762 0
M  V30 15002 C 1426.11 -0.120566 -3.59698 0
M  V30 15003 C 1425.72 -1.49616 -4.22278 0
M  V30 15004 C 1427.46 0.332865 -4.23193 0
M  V30 15005 C 1425.37 -1.4775 -5.72646 0
M  V30 15006 H 1424.3 -0.0320399 -0.753319 0
M  V30 15007 H 1426.95 -0.759125 -1.67061 0
M  V30 15008 H 1425.33 0.609365 -3.91283 0
M  V30 15009 H 1426.51 -2.24753 -4.02272 0
M  V30 15010 H 1424.82 -1.89141 -3.70965 0
M  V30 15011 H 1427.42 0.365951 -5.33446 0
M  V30 15012 H 1427.76 1.35487 -3.93635 0
M  V30 15013 H 1428.3 -0.343692 -3.96313 0
M  V30 15014 H 1425.04 -2.47701 -6.06898 0
M  V30 15015 H 1424.56 -0.768659 -5.94854 0
M  V30 15016 H 1426.23 -1.19971 -6.3578 0
M  V30 15017 N 1426.37 1.53816 -0.343257 0
M  V30 15018 C 1427.3 2.27951 0.506005 0
M  V30 15019 C 1428.28 1.29502 1.10287 0
M  V30 15020 O 1429.46 1.58344 1.12432 0
M  V30 15021 C 1426.59 3.0521 1.65723 0
M  V30 15022 C 1425.55 4.11161 1.18871 0
M  V30 15023 C 1424.87 4.76373 2.42843 0
M  V30 15024 C 1426.17 5.21498 0.289403 0
M  V30 15025 H 1427.87 2.99189 -0.112435 0
M  V30 15026 H 1425.41 1.43893 -0.055516 0
M  V30 15027 H 1427.37 3.55811 2.2578 0
M  V30 15028 H 1426.09 2.31624 2.30256 0
M  V30 15029 H 1424.75 3.61473 0.610962 0
M  V30 15030 H 1424.4 3.99381 3.05784 0
M  V30 15031 H 1424.1 5.47955 2.12177 0
M  V30 15032 H 1425.62 5.29758 3.03627 0
M  V30 15033 H 1427.03 5.67736 0.796808 0
M  V30 15034 H 1425.43 6.00054 0.0746366 0
M  V30 15035 H 1426.5 4.80185 -0.674543 0
M  V30 15036 N 1427.84 0.0718701 1.57436 0
M  V30 15037 C 1428.79 -0.913026 2.13931 0
M  V30 15038 C 1429.79 -1.3082 1.07622 0
M  V30 15039 O 1430.99 -1.28544 1.26002 0
M  V30 15040 H 1427.37 -0.31238 0.684049 0
M  V30 15041 H 1429.34 -0.411613 2.95547 0
M  V30 15042 C 1428.09 -2.17109 2.71586 0
M  V30 15043 H 1427.41 -1.87585 3.53061 0
M  V30 15044 H 1428.85 -2.84134 3.14712 0
M  V30 15045 C 1427.31 -2.92967 1.6635 0
M  V30 15046 O 1427.84 -3.8667 1.08854 0
M  V30 15047 N 1426.05 -2.56075 1.37383 0
M  V30 15048 H 1425.59 -1.79949 1.84326 0
M  V30 15049 H 1425.55 -3.07134 0.672039 0
M  V30 15050 N 1429.32 -1.56304 -0.201686 0
M  V30 15051 C 1430.55 -1.84692 -0.943583 0
M  V30 15052 C 1430.97 -0.654649 -1.7634 0
M  V30 15053 O 1430.33 0.396586 -1.76909 0
M  V30 15054 C 1430.38 -3.11251 -1.82085 0
M  V30 15055 O 1429.48 -2.9134 -2.91881 0
M  V30 15056 H 1428.82 -0.608351 -0.266092 0
M  V30 15057 H 1431.35 -2.0353 -0.208992 0
M  V30 15058 H 1431.36 -3.41874 -2.2268 0
M  V30 15059 H 1430.04 -3.97652 -1.21844 0
M  V30 15060 H 1428.62 -2.72 -2.55089 0
M  V30 15061 N 1430.8 0.469154 -1.50455 0
M  V30 15062 C 1432.05 1.21788 -1.60781 0
M  V30 15063 C 1432.36 1.93054 -0.314576 0
M  V30 15064 O 1433.57 2.69873 -0.296773 0
M  V30 15065 C 1432.02 2.21305 -2.83817 0
M  V30 15066 C 1431.63 1.55833 -4.20024 0
M  V30 15067 C 1433.38 2.96808 -3.03489 0
M  V30 15068 C 1431.28 2.53648 -5.34244 0
M  V30 15069 H 1430.21 0.45827 -0.598752 0
M  V30 15070 H 1432.86 0.488159 -1.76888 0
M  V30 15071 H 1431.25 2.97577 -2.61273 0
M  V30 15072 H 1432.42 0.853371 -4.52829 0
M  V30 15073 H 1430.74 0.926046 -4.05972 0
M  V30 15074 H 1433.33 3.70017 -3.85994 0
M  V30 15075 H 1433.68 3.56307 -2.15293 0
M  V30 15076 H 1434.21 2.27648 -3.26223 0
M  V30 15077 H 1430.95 1.98885 -6.246 0
M  V30 15078 H 1430.47 3.22291 -5.05854 0
M  V30 15079 H 1432.15 3.15438 -5.64897 0
M  V30 15080 N 1432.28 1.40065 0.722464 0
M  V30 15081 C 1433.23 1.36267 1.82798 0
M  V30 15082 C 1434.21 0.241375 1.59079 0
M  V30 15083 O 1435.4 0.479929 1.70369 0
M  V30 15084 C 1432.53 1.22086 3.20858 0
M  V30 15085 C 1431.62 2.38969 3.50364 0
M  V30 15086 N 1432.01 3.6445 3.50727 0
M  V30 15087 C 1430.31 2.32199 3.80788 0
M  V30 15088 C 1431.01 4.41816 3.78383 0
M  V30 15089 N 1429.99 3.71565 3.96787 0
M  V30 15090 H 1433.79 2.31236 1.81403 0
M  V30 15091 H 1431.3 1.33739 0.92128 0
M  V30 15092 H 1433.3 1.17448 4.00014 0
M  V30 15093 H 1431.96 0.280787 3.23484 0
M  V30 15094 H 1432.97 3.97705 3.3174 0
M  V30 15095 H 1429.65 1.46521 3.90945 0
M  V30 15096 H 1431.04 5.5064 3.85027 0
M  V30 15097 N 1433.76 -0.95397 1.25448 0
M  V30 15098 C 1434.98 -1.73863 1.13077 0
M  V30 15099 C 1435.41 -1.85503 -0.311481 0
M  V30 15100 O 1434.77 -1.33596 -1.22564 0
M  V30 15101 C 1434.81 -3.13 1.79062 0
M  V30 15102 O 1433.92 -3.98258 1.07072 0
M  V30 15103 H 1433.26 -0.533921 0.394746 0
M  V30 15104 H 1435.79 -1.19571 1.66024 0
M  V30 15105 H 1435.8 -3.63456 1.85374 0
M  V30 15106 H 1434.47 -3.03844 2.83992 0
M  V30 15107 H 1433.05 -3.56722 1.08645 0
M  V30 15108 N 1435.24 -1.07045 -1.15668 0
M  V30 15109 C 1436.17 -0.632171 -2.19269 0
M  V30 15110 C 1437.15 0.348973 -1.58811 0
M  V30 15111 O 1438.33 0.256137 -1.86752 0
M  V30 15112 C 1435.46 0.0721491 -3.38623 0
M  V30 15113 C 1434.5 -0.866947 -4.17596 0
M  V30 15114 S 1435.34 -2.36628 -4.80382 0
M  V30 15115 C 1436.49 -1.67367 -6.03108 0
M  V30 15116 H 1436.73 -1.50986 -2.56106 0
M  V30 15117 H 1434.26 -0.884123 -1.2658 0
M  V30 15118 H 1436.22 0.472272 -4.07774 0
M  V30 15119 H 1434.88 0.926138 -3.00136 0
M  V30 15120 H 1434.07 -0.320814 -5.02978 0
M  V30 15121 H 1433.67 -1.20731 -3.53977 0
M  V30 15122 H 1435.96 -0.983606 -6.70322 0
M  V30 15123 H 1436.91 -2.50569 -6.62284 0
M  V30 15124 H 1437.32 -1.15299 -5.526 0
M  V30 15125 N 1436.71 1.32449 -0.85411 0
M  V30 15126 C 1438.13 1.50046 -0.543895 0
M  V30 15127 C 1438.33 1.78985 0.925561 0
M  V30 15128 O 1437.39 1.85909 1.70862 0
M  V30 15129 C 1438.7 2.64499 -1.43041 0
M  V30 15130 C 1440.25 2.78384 -1.43078 0
M  V30 15131 C 1440.72 3.95915 -2.3025 0
M  V30 15132 N 1442.21 4.03176 -2.28043 0
M  V30 15133 C 1442.95 4.9335 -2.92221 0
M  V30 15134 N 1442.44 5.88536 -3.6551 0
M  V30 15135 N 1444.24 4.86468 -2.81612 0
M  V30 15136 H 1436.39 1.11931 -1.80514 0
M  V30 15137 H 1438.65 0.551626 -0.770982 0
M  V30 15138 H 1438.36 2.49842 -2.47532 0
M  V30 15139 H 1438.23 3.60269 -1.11742 0
M  V30 15140 H 1440.62 2.92464 -0.393529 0
M  V30 15141 H 1440.7 1.83329 -1.78393 0
M  V30 15142 H 1440.34 3.82594 -3.34043 0
M  V30 15143 H 1440.27 4.90245 -1.92268 0
M  V30 15144 H 1442.76 3.35064 -1.74759 0
M  V30 15145 H 1443.08 6.54038 -4.11648 0
M  V30 15146 H 1441.42 5.88564 -3.69618 0
M  V30 15147 H 1444.61 4.11076 -2.23907 0
M  V30 15148 H 1444.79 5.56542 -3.3191 0
M  V30 15149 N 1438.19 0.611994 1.45232 0
M  V30 15150 C 1439.44 0.109073 2.02506 0
M  V30 15151 C 1439.77 -1.25876 1.47881 0
M  V30 15152 O 1439.05 -1.83131 0.65524 0
M  V30 15153 C 1439.33 0.0749288 3.60022 0
M  V30 15154 C 1439.18 1.47374 4.24972 0
M  V30 15155 C 1440.5 -0.610602 4.35844 0
M  V30 15156 H 1437.62 0.0411101 0.735853 0
M  V30 15157 H 1440.26 0.78481 1.73034 0
M  V30 15158 H 1438.41 -0.500511 3.85262 0
M  V30 15159 H 1440.08 2.0966 4.10902 0
M  V30 15160 H 1438.33 2.03319 3.83202 0
M  V30 15161 H 1439 1.40206 5.33897 0
M  V30 15162 H 1441.47 -0.121445 4.15923 0
M  V30 15163 H 1440.35 -0.603614 5.45571 0
M  V30 15164 H 1440.61 -1.6775 4.09038 0
M  V30 15165 N 1439.67 -1.53632 0.351409 0
M  V30 15166 C 1440.6 -2.2284 -0.536204 0
M  V30 15167 C 1441.61 -1.23765 -1.05764 0
M  V30 15168 O 1442.8 -1.50073 -0.966449 0
M  V30 15169 C 1439.9 -2.9013 -1.75151 0
M  V30 15170 C 1439.08 -4.15588 -1.36401 0
M  V30 15171 C 1438.14 -4.66217 -2.43984 0
M  V30 15172 O 1437.16 -5.3024 -2.06964 0
M  V30 15173 N 1438.36 -4.42817 -3.75358 0
M  V30 15174 H 1441.13 -2.99647 0.0565368 0
M  V30 15175 H 1438.69 -1.60942 0.175905 0
M  V30 15176 H 1440.68 -3.20913 -2.4657 0
M  V30 15177 H 1439.25 -2.16862 -2.25144 0
M  V30 15178 H 1438.47 -3.91264 -0.480258 0
M  V30 15179 H 1439.76 -4.97179 -1.08121 0
M  V30 15180 H 1439.16 -3.9163 -4.08218 0
M  V30 15181 H 1437.71 -4.78186 -4.42924 0
M  V30 15182 N 1441.15 -0.0802183 -1.57396 0
M  V30 15183 C 1442.4 0.586573 -1.92982 0
M  V30 15184 C 1442.71 1.70256 -0.962918 0
M  V30 15185 O 1443.92 2.4295 -1.21193 0
M  V30 15186 C 1442.37 1.09475 -3.42846 0
M  V30 15187 C 1441.98 0.0093098 -4.47999 0
M  V30 15188 C 1443.72 1.73512 -3.87419 0
M  V30 15189 C 1441.63 0.532002 -5.89002 0
M  V30 15190 H 1440.56 0.222878 -0.720306 0
M  V30 15191 H 1443.21 -0.153816 -1.82854 0
M  V30 15192 H 1441.59 1.88836 -3.48076 0
M  V30 15193 H 1442.77 -0.765609 -4.54395 0
M  V30 15194 H 1441.08 -0.535345 -4.12944 0
M  V30 15195 H 1443.68 2.13665 -4.90154 0
M  V30 15196 H 1444.02 2.59845 -3.25248 0
M  V30 15197 H 1444.56 1.00758 -3.84828 0
M  V30 15198 H 1441.29 -0.294364 -6.54839 0
M  V30 15199 H 1440.81 1.27425 -5.86108 0
M  V30 15200 H 1442.49 1.00573 -6.39135 0
M  V30 15201 N 1442.63 1.56409 0.193394 0
M  V30 15202 C 1443.85 1.8519 0.933775 0
M  V30 15203 C 1444.28 0.663991 1.75991 0
M  V30 15204 O 1443.63 -0.387198 1.77117 0
M  V30 15205 C 1443.68 3.12212 1.80432 0
M  V30 15206 O 1442.79 2.92884 2.90332 0
M  V30 15207 H 1442.13 0.609754 0.262862 0
M  V30 15208 H 1444.66 2.03638 0.198195 0
M  V30 15209 H 1444.67 3.4305 2.20864 0
M  V30 15210 H 1443.34 3.98292 1.19733 0
M  V30 15211 H 1441.92 2.73349 2.53643 0
M  V30 15212 N 1444.1 -0.461169 1.50702 0
M  V30 15213 C 1445.04 -1.57562 1.66453 0
M  V30 15214 C 1446.05 -1.53381 0.545726 0
M  V30 15215 O 1447.24 -1.58589 0.819254 0
M  V30 15216 C 1444.34 -2.9646 1.64209 0
M  V30 15217 C 1443.51 -3.25405 2.92285 0
M  V30 15218 C 1442.57 -4.43906 2.82549 0
M  V30 15219 O 1441.6 -4.43726 3.56505 0
M  V30 15220 N 1442.8 -5.46131 1.96777 0
M  V30 15221 H 1445.56 -1.44463 2.62584 0
M  V30 15222 H 1443.12 -0.649749 1.4829 0
M  V30 15223 H 1445.12 -3.73719 1.55295 0
M  V30 15224 H 1443.69 -3.03278 0.757718 0
M  V30 15225 H 1442.91 -2.36666 3.1525 0
M  V30 15226 H 1444.19 -3.41559 3.77114 0
M  V30 15227 H 1443.59 -5.49103 1.36023 0
M  V30 15228 H 1442.15 -6.22335 1.9376 0
M  V30 15229 N 1445.58 -1.40446 -0.715026 0
M  V30 15230 C 1446.81 -1.42263 -1.50917 0
M  V30 15231 C 1447.23 -0.0242402 -1.88084 0
M  V30 15232 O 1446.59 0.967817 -1.53307 0
M  V30 15233 C 1446.64 -2.31998 -2.7606 0
M  V30 15234 O 1445.74 -1.76361 -3.72787 0
M  V30 15235 H 1445.08 -0.483614 -0.454988 0
M  V30 15236 H 1447.61 -1.84682 -0.880549 0
M  V30 15237 H 1447.62 -2.47204 -3.24583 0
M  V30 15238 H 1446.3 -3.33614 -2.48343 0
M  V30 15239 H 1444.87 -1.70504 -3.31636 0
M  V30 15240 N 1447.06 0.947303 -1.25952 0
M  V30 15241 C 1448.47 1.50755 -1.10136 0
M  V30 15242 C 1448.82 1.93566 0.320437 0
M  V30 15243 O 1447.95 1.79326 1.21125 0
M  V30 15244 C 1448.54 2.7397 -1.99313 0
M  V30 15245 C 1447.1 3.26283 -1.8766 0
M  V30 15246 C 1446.25 1.99088 -1.93027 0
M  V30 15247 H 1449.2 0.763427 -1.39131 0
M  V30 15248 H 1449.22 3.48057 -1.53742 0
M  V30 15249 H 1448.73 2.42781 -3.02785 0
M  V30 15250 H 1446.83 3.62277 -0.870992 0
M  V30 15251 H 1446.95 3.93803 -2.72866 0
M  V30 15252 H 1445.31 2.14714 -1.37003 0
M  V30 15253 H 1446.09 1.70237 -2.98118 0
M  V30 15254 N 1448.54 1.07657 1.15099 0
M  V30 15255 C 1449.77 0.822825 1.89835 0
M  V30 15256 C 1450.18 -0.624281 1.7818 0
M  V30 15257 O 1449.54 -1.42844 1.13587 0
M  V30 15258 C 1449.59 1.22598 3.40076 0
M  V30 15259 O 1449.31 2.61631 3.51398 0
M  V30 15260 C 1450.81 1.00199 4.31828 0
M  V30 15261 H 1448.03 0.297288 0.601549 0
M  V30 15262 H 1450.58 1.43384 1.45813 0
M  V30 15263 H 1448.73 0.65923 3.8175 0
M  V30 15264 H 1449.14 2.78163 4.44664 0
M  V30 15265 H 1450.62 1.33355 5.35649 0
M  V30 15266 H 1451.1 -0.0614865 4.39157 0
M  V30 15267 H 1451.7 1.5538 3.959 0
M  V30 15268 N 1450.02 -1.31994 0.861122 0
M  V30 15269 C 1450.98 -2.27019 0.315421 0
M  V30 15270 C 1451.98 -1.51864 -0.528575 0
M  V30 15271 O 1453.17 -1.70867 -0.339154 0
M  V30 15272 C 1450.3 -3.36384 -0.553021 0
M  V30 15273 H 1451.49 -2.768 1.1542 0
M  V30 15274 H 1449.05 -1.42776 0.635982 0
M  V30 15275 H 1449.78 -2.91882 -1.41335 0
M  V30 15276 H 1449.57 -3.92067 0.0511919 0
M  V30 15277 H 1451.06 -4.07172 -0.927392 0
M  V30 15278 N 1451.49 -0.619688 -1.44906 0
M  V30 15279 C 1452.43 0.141137 -2.27763 0
M  V30 15280 C 1453.41 0.862176 -1.3786 0
M  V30 15281 O 1454.59 0.868593 -1.67295 0
M  V30 15282 C 1451.72 1.20547 -3.16522 0
M  V30 15283 C 1450.76 0.586228 -4.22452 0
M  V30 15284 S 1451.6 -0.615067 -5.31956 0
M  V30 15285 C 1452.75 0.449556 -6.24283 0
M  V30 15286 H 1452.98 -0.561806 -2.91944 0
M  V30 15287 H 1450.52 -0.407535 -1.48925 0
M  V30 15288 H 1452.48 1.81463 -3.68214 0
M  V30 15289 H 1451.14 1.88054 -2.51584 0
M  V30 15290 H 1450.33 1.38744 -4.84527 0
M  V30 15291 H 1449.93 0.0519375 -3.73964 0
M  V30 15292 H 1452.22 1.32531 -6.64411 0
M  V30 15293 H 1453.17 -0.135328 -7.07971 0
M  V30 15294 H 1453.57 0.770319 -5.59219 0
M  V30 15295 N 1452.97 1.53444 -0.359552 0
M  V30 15296 C 1453.94 2.24173 0.477412 0
M  V30 15297 C 1454.94 1.24747 1.01464 0
M  V30 15298 O 1456.13 1.49069 0.901343 0
M  V30 15299 C 1453.26 2.9738 1.66667 0
M  V30 15300 H 1454.45 2.99566 -0.141407 0
M  V30 15301 H 1452 1.55904 -0.111143 0
M  V30 15302 H 1452.74 2.26214 2.32374 0
M  V30 15303 H 1452.52 3.70325 1.28848 0
M  V30 15304 H 1454.01 3.51165 2.25994 0
M  V30 15305 O 1454.49 0.228504 1.59875 0
M  V30 15306 H 1455.18 -0.350657 1.905 0
M  V30 END ATOM
M  V30 BEGIN BOND
M  V30 END BOND
M  V30 END CTAB
M  END
$$$$
