drugbank_target|P54710 Sodium/potassium-transporting ATPase subunit gamma (DB00606; DB11590)
 OpenBabel12092119273D

  0  0  0     0  0            999 V3000
M  V30 BEGIN CTAB
M  V30 COUNTS 1022 1031 0 0 0
M  V30 BEGIN ATOM
M  V30 1 H -0.908 1.98254 -0.117106 0
M  V30 2 N 0 1.576 0 0
M  V30 3 C 0.933 2.03868 1.02534 0
M  V30 4 C 1.911 0.928543 1.3348 0
M  V30 5 O 3.095 1.19667 1.45644 0
M  V30 6 C 0.222 2.43627 2.35294 0
M  V30 7 C -0.732 3.65373 2.2001 0
M  V30 8 S 0.101 5.13292 1.52614 0
M  V30 9 C 1.257 5.56322 2.86805 0
M  V30 10 H 1.49 2.90518 0.631377 0
M  V30 11 H -0.977 1.52953 0.210867 0
M  V30 12 H 0.981 2.67203 3.11629 0
M  V30 13 H -0.358 1.57376 2.7183 0
M  V30 14 H -1.165 3.90944 3.18086 0
M  V30 15 H -1.563 3.418 1.51819 0
M  V30 16 H 0.729 5.58782 3.83104 0
M  V30 17 H 1.672 6.56266 2.65933 0
M  V30 18 H 2.08 4.83886 2.90714 0
M  V30 19 N 1.4781 -0.272755 1.55222 0
M  V30 20 C 2.7061 -1.02255 1.79865 0
M  V30 21 C 3.1211 -1.79924 0.572088 0
M  V30 22 O 2.4781 -1.76638 -0.458842 0
M  V30 23 C 2.5291 -1.98094 3.02392 0
M  V30 24 O 2.2501 -1.23572 4.20311 0
M  V30 25 C 3.7511 -2.84884 3.39641 0
M  V30 26 H 0.9711 -0.302057 0.599168 0
M  V30 27 H 3.5151 -0.303465 2.02236 0
M  V30 28 H 1.6701 -2.65465 2.82147 0
M  V30 29 H 2.0841 -1.88172 4.89583 0
M  V30 30 H 3.5581 -3.47927 4.28545 0
M  V30 31 H 4.0351 -3.54665 2.59055 0
M  V30 32 H 4.6411 -2.23003 3.62146 0
M  V30 33 N 2.9562 -1.48159 -0.537278 0
M  V30 34 C 4.2042 -1.55497 -1.29094 0
M  V30 35 C 4.5252 -0.227454 -1.93669 0
M  V30 36 O 3.7952 0.750386 -1.80959 0
M  V30 37 H 2.3752 -0.572832 -0.47945 0
M  V30 38 H 5.0372 -1.84579 -0.625818 0
M  V30 39 H 4.1332 -2.33216 -2.07405 0
M  V30 40 N 4.4343 0.785586 -1.36625 0
M  V30 41 C 5.3643 1.91259 -1.33949 0
M  V30 42 C 6.3453 1.68795 -0.210325 0
M  V30 43 O 7.5303 1.89854 -0.408561 0
M  V30 44 C 4.6603 3.28339 -1.13186 0
M  V30 45 C 3.6143 3.65335 -2.22967 0
M  V30 46 C 2.9403 5.00806 -1.87342 0
M  V30 47 C 4.2403 3.7352 -3.65075 0
M  V30 48 H 5.9343 1.93755 -2.28253 0
M  V30 49 H 3.4803 0.930788 -1.09874 0
M  V30 50 H 5.4333 4.06804 -1.09948 0
M  V30 51 H 4.1573 3.2624 -0.153332 0
M  V30 52 H 2.8163 2.89169 -2.25337 0
M  V30 53 H 2.4643 4.95233 -0.880545 0
M  V30 54 H 2.1643 5.26529 -2.60846 0
M  V30 55 H 3.6883 5.81687 -1.85667 0
M  V30 56 H 5.1023 4.42168 -3.64911 0
M  V30 57 H 3.4993 4.10731 -4.37516 0
M  V30 58 H 4.5693 2.74527 -3.99703 0
M  V30 59 N 5.9124 1.20967 1.01018 0
M  V30 60 C 7.1374 1.0503 1.78839 0
M  V30 61 C 7.5624 -0.395752 1.8389 0
M  V30 62 O 6.9204 -1.28529 1.27867 0
M  V30 63 C 6.9684 1.64602 3.2084 0
M  V30 64 O 6.0724 0.887988 4.02726 0
M  V30 65 H 5.4134 0.369987 0.551367 0
M  V30 66 H 7.9434 1.60399 1.27018 0
M  V30 67 H 7.9534 1.68607 3.71532 0
M  V30 68 H 6.6284 2.69841 3.16479 0
M  V30 69 H 5.2054 0.922648 3.61305 0
M  V30 70 N 7.3905 -1.2043 1.01659 0
M  V30 71 C 8.3235 -2.21924 0.531521 0
M  V30 72 C 9.3015 -1.57054 -0.421032 0
M  V30 73 O 10.4855 -1.85389 -0.341035 0
M  V30 74 C 7.6125 -3.37942 -0.226496 0
M  V30 75 C 6.6585 -4.21115 0.67561 0
M  V30 76 S 7.4915 -4.90674 2.14475 0
M  V30 77 C 8.6475 -6.10113 1.3969 0
M  V30 78 H 8.8805 -2.62725 1.3915 0
M  V30 79 H 6.4135 -1.30481 0.825479 0
M  V30 80 H 8.3715 -4.05196 -0.657738 0
M  V30 81 H 7.0325 -2.956 -1.06205 0
M  V30 82 H 6.2255 -5.03918 0.091108 0
M  V30 83 H 5.8275 -3.59115 1.04463 0
M  V30 84 H 8.1195 -6.7411 0.676897 0
M  V30 85 H 9.0625 -6.73022 2.20107 0
M  V30 86 H 9.4705 -5.57283 0.899786 0
M  V30 87 N 8.8686 -0.792821 -1.36206 0
M  V30 88 C 10.1456 -0.290627 -1.93429 0
M  V30 89 C 10.5256 1.21773 -1.72437 0
M  V30 90 O 9.8736 2.0108 -1.08531 0
M  V30 91 C 10.0836 -0.686973 -3.42172 0
M  V30 92 C 11.4316 -0.668643 -4.19302 0
M  V30 93 O 12.4556 -0.627658 -3.50626 0
M  V30 94 O 11.3146 -0.714597 -5.41808 0
M  V30 95 H 8.4086 -0.0727927 -0.82379 0
M  V30 96 H 10.9546 -0.875593 -1.45367 0
M  V30 97 H 9.7266 -1.72711 -3.51122 0
M  V30 98 H 9.3496 -0.0760733 -3.97527 0
M  V30 99 N 10.3467 1.47872 -0.545128 0
M  V30 100 C 11.5947 2.02093 -0.016553 0
M  V30 101 C 11.9157 1.42305 1.3332 0
M  V30 102 O 11.1857 0.593853 1.86682 0
M  V30 103 H 9.7657 0.746993 -0.00313038 0
M  V30 104 H 12.4277 1.81414 -0.712397 0
M  V30 105 H 11.5237 3.11996 0.0805422 0
M  V30 106 N 11.8248 0.280983 1.55075 0
M  V30 107 C 13.0728 -0.333455 1.9933 0
M  V30 108 C 13.3938 -1.55937 1.17085 0
M  V30 109 O 12.6638 -1.94143 0.261805 0
M  V30 110 H 11.2438 -0.126197 0.736263 0
M  V30 111 H 13.9058 0.387678 1.91005 0
M  V30 112 H 13.0018 -0.619292 3.05894 0
M  V30 113 N 13.3029 -1.57598 0.00835791 0
M  V30 114 C 14.5509 -1.90551 -0.6734 0
M  V30 115 C 14.8719 -0.883301 -1.73847 0
M  V30 116 O 14.1419 0.0781442 -1.95744 0
M  V30 117 H 12.7219 -0.703312 -0.251717 0
M  V30 118 H 15.3839 -1.94833 0.0512592 0
M  V30 119 H 14.4799 -2.9056 -1.13935 0
M  V30 120 N 14.781 0.264519 -1.55364 0
M  V30 121 C 16.006 1.01726 -1.80739 0
M  V30 122 C 16.431 1.78836 -0.583044 0
M  V30 123 O 15.789 1.75167 0.467566 0
M  V30 124 C 15.837 1.94482 -3.03659 0
M  V30 125 O 14.941 3.03386 -2.7934 0
M  V30 126 H 14.282 0.290395 -0.597132 0
M  V30 127 H 16.812 0.290854 -2.02522 0
M  V30 128 H 16.822 2.36278 -3.32621 0
M  V30 129 H 15.497 1.37772 -3.92418 0
M  V30 130 H 14.074 2.65844 -2.61498 0
M  V30 131 N 16.2591 1.48442 0.529413 0
M  V30 132 C 17.6701 1.5002 1.11134 0
M  V30 133 C 18.0211 0.27031 1.94329 0
M  V30 134 O 17.1461 -0.622507 2.07253 0
M  V30 135 C 17.7411 2.71834 2.02217 0
M  V30 136 C 16.3001 2.76283 2.55627 0
M  V30 137 C 15.4471 2.43542 1.326 0
M  V30 138 H 18.3981 1.5555 0.314641 0
M  V30 139 H 18.4191 2.50384 2.8651 0
M  V30 140 H 17.9311 3.61331 1.41639 0
M  V30 141 H 16.0321 1.90995 3.19924 0
M  V30 142 H 16.1451 3.77725 2.94721 0
M  V30 143 H 14.5091 1.94709 1.64196 0
M  V30 144 H 15.2921 3.3528 0.737734 0
M  V30 145 N 17.7372 -0.778329 1.37039 0
M  V30 146 C 18.6842 -1.89139 1.32269 0
M  V30 147 C 19.6542 -1.65017 0.189387 0
M  V30 148 O 20.8392 -1.87024 0.377693 0
M  V30 149 C 17.9792 -3.26112 1.12894 0
M  V30 150 C 17.0922 -3.62233 2.35396 0
M  V30 151 C 16.2272 -4.8838 2.08946 0
M  V30 152 C 15.2662 -5.17212 3.2735 0
M  V30 153 N 14.4032 -6.34546 3.00492 0
M  V30 154 H 19.2432 -1.92552 2.27437 0
M  V30 155 H 16.7802 -0.941473 1.13025 0
M  V30 156 H 18.7382 -4.05116 0.996835 0
M  V30 157 H 17.3682 -3.22091 0.213758 0
M  V30 158 H 16.4202 -2.78265 2.5937 0
M  V30 159 H 17.7322 -3.79481 3.23721 0
M  V30 160 H 16.8862 -5.75274 1.92729 0
M  V30 161 H 15.6252 -4.73222 1.17949 0
M  V30 162 H 14.6302 -4.28796 3.44113 0
M  V30 163 H 15.8552 -5.34283 4.19188 0
M  V30 164 H 13.8012 -6.20759 2.12118 0
M  V30 165 H 13.7182 -6.52179 3.82358 0
M  V30 166 H 14.9862 -7.24394 2.87879 0
M  V30 167 N 19.2153 -1.21501 -1.00376 0
M  V30 168 C 20.4633 -1.03095 -1.73827 0
M  V30 169 C 20.7843 0.436341 -1.90055 0
M  V30 170 O 20.0543 1.31466 -1.45236 0
M  V30 171 H 18.6343 -0.378487 -0.644016 0
M  V30 172 H 21.2963 -1.52831 -1.20949 0
M  V30 173 H 20.3923 -1.49991 -2.73695 0
M  V30 174 N 20.6934 1.19889 -1.02296 0
M  V30 175 C 21.9704 1.85148 -0.630832 0
M  V30 176 C 22.3504 1.91385 0.890782 0
M  V30 177 O 21.6984 1.42642 1.78509 0
M  V30 178 C 21.9084 3.24442 -1.28602 0
M  V30 179 C 23.2564 4.00663 -1.4055 0
M  V30 180 O 24.2804 3.33818 -1.24273 0
M  V30 181 O 23.1394 5.20387 -1.66913 0
M  V30 182 H 20.2334 0.797613 -0.218499 0
M  V30 183 H 22.7794 1.27427 -1.12074 0
M  V30 184 H 21.5514 3.14704 -2.32545 0
M  V30 185 H 21.1744 3.89802 -0.7836 0
M  V30 186 N 22.1715 0.800033 1.35784 0
M  V30 187 C 23.4175 0.377901 1.99248 0
M  V30 188 C 23.7505 -1.05052 1.63333 0
M  V30 189 O 23.0255 -1.72768 0.893385 0
M  V30 190 C 23.3085 0.553922 3.55814 0
M  V30 191 C 23.1615 2.0268 4.01548 0
M  V30 192 C 24.4805 -0.0244802 4.40093 0
M  V30 193 H 21.5995 0.138782 0.723815 0
M  V30 194 H 24.2415 1.00835 1.61035 0
M  V30 195 H 22.3915 0.0172398 3.88496 0
M  V30 196 H 24.0635 2.62536 3.79305 0
M  V30 197 H 22.3065 2.5256 3.52698 0
M  V30 198 H 22.9775 2.10087 5.10458 0
M  V30 199 H 25.4535 0.433775 4.13833 0
M  V30 200 H 24.3295 0.128637 5.48749 0
M  V30 201 H 24.5905 -1.11758 4.27741 0
M  V30 202 N 23.6496 -1.47581 0.552962 0
M  V30 203 C 24.9266 -1.95563 -0.0381515 0
M  V30 204 C 25.3066 -1.49552 -1.48988 0
M  V30 205 O 24.6546 -0.732414 -2.16444 0
M  V30 206 C 24.8646 -3.48848 0.102919 0
M  V30 207 C 26.2126 -4.24577 -0.0446082 0
M  V30 208 O 27.2366 -3.56187 0.0302548 0
M  V30 209 O 26.0956 -5.46116 -0.204923 0
M  V30 210 H 23.1896 -0.824321 -0.0665067 0
M  V30 211 H 25.7356 -1.58001 0.619186 0
M  V30 212 H 24.5076 -3.75129 1.11328 0
M  V30 213 H 24.1306 -3.93165 -0.592224 0
M  V30 214 N 25.1277 -0.289203 -1.54924 0
M  V30 215 C 26.5387 0.205791 -1.85562 0
M  V30 216 C 26.8897 1.54351 -1.2112 0
M  V30 217 O 26.0147 2.10435 -0.504601 0
M  V30 218 C 26.6097 0.380177 -3.3666 0
M  V30 219 C 25.1687 0.819395 -3.67373 0
M  V30 220 C 24.3157 -0.079159 -2.77187 0
M  V30 221 H 27.2667 -0.510577 -1.50262 0
M  V30 222 H 27.2877 1.21659 -3.60526 0
M  V30 223 H 26.7997 -0.593589 -3.83534 0
M  V30 224 H 24.9007 1.80413 -3.26009 0
M  V30 225 H 25.0137 0.646957 -4.74712 0
M  V30 226 H 23.3777 0.439565 -2.50878 0
M  V30 227 H 24.1607 -1.04906 -3.26878 0
M  V30 228 N 26.6058 1.57591 -0.0167156 0
M  V30 229 C 27.8528 1.91283 0.664597 0
M  V30 230 C 28.1808 0.891949 1.72842 0
M  V30 231 O 27.4358 -0.100931 1.9544 0
M  V30 232 C 27.7348 3.3172 1.33029 0
M  V30 233 C 27.4008 4.4914 0.398047 0
M  V30 234 C 26.0628 4.80992 0.141421 0
M  V30 235 C 28.4148 5.20634 -0.242825 0
M  V30 236 C 25.7428 5.81703 -0.764092 0
M  V30 237 C 28.0948 6.22311 -1.13632 0
M  V30 238 C 26.7588 6.52611 -1.40196 0
M  V30 239 H 26.0288 0.699956 0.243193 0
M  V30 240 H 28.6758 1.9135 -0.0758267 0
M  V30 241 H 26.9808 3.27856 2.14517 0
M  V30 242 H 28.6778 3.55055 1.86379 0
M  V30 243 H 25.2678 4.24262 0.608238 0
M  V30 244 H 29.4518 4.96267 -0.0576019 0
M  V30 245 H 24.7078 6.03532 -0.977732 0
M  V30 246 H 28.8818 6.76834 -1.63917 0
M  V30 247 H 26.5088 7.30467 -2.10529 0
M  V30 248 N 28.0839 -0.256276 1.55502 0
M  V30 249 C 29.3139 -1.00196 1.80677 0
M  V30 250 C 29.7219 -1.79805 0.588797 0
M  V30 251 O 29.0649 -1.78055 -0.451883 0
M  V30 252 C 29.1269 -1.99515 2.99055 0
M  V30 253 C 28.7909 -1.38688 4.35448 0
M  V30 254 C 29.7879 -0.794079 5.138 0
M  V30 255 C 27.4729 -1.40906 4.82132 0
M  V30 256 C 29.4669 -0.231562 6.36979 0
M  V30 257 C 27.1539 -0.842684 6.05262 0
M  V30 258 C 28.1519 -0.254953 6.82524 0
M  V30 259 O 27.8399 0.3027 8.0333 0
M  V30 260 H 27.5719 -0.300919 0.60533 0
M  V30 261 H 30.1259 -0.287307 2.03381 0
M  V30 262 H 28.3559 -2.74785 2.72084 0
M  V30 263 H 30.0449 -2.60349 3.11405 0
M  V30 264 H 30.8109 -0.769519 4.78856 0
M  V30 265 H 26.6899 -1.85591 4.21992 0
M  V30 266 H 30.2339 0.227816 6.97228 0
M  V30 267 H 26.1309 -0.86454 6.39684 0
M  V30 268 H 26.8989 0.193662 8.18271 0
M  V30 269 N 29.562 -1.4872 -0.521534 0
M  V30 270 C 30.792 -1.6061 -1.29954 0
M  V30 271 C 31.2 -0.268728 -1.87282 0
M  V30 272 O 30.543 0.753221 -1.67548 0
M  V30 273 C 30.605 -2.60013 -2.48261 0
M  V30 274 C 30.269 -4.04874 -2.11957 0
M  V30 275 C 31.266 -4.92304 -1.67132 0
M  V30 276 C 28.951 -4.5047 -2.22221 0
M  V30 277 C 30.945 -6.2336 -1.33047 0
M  V30 278 C 28.632 -5.81544 -1.87748 0
M  V30 279 C 29.63 -6.67812 -1.43234 0
M  V30 280 O 29.318 -7.96446 -1.09217 0
M  V30 281 H 29.05 -0.544116 -0.401141 0
M  V30 282 H 31.604 -1.95339 -0.634958 0
M  V30 283 H 29.834 -2.20422 -3.17728 0
M  V30 284 H 31.523 -2.61648 -3.10315 0
M  V30 285 H 32.289 -4.58312 -1.58665 0
M  V30 286 H 28.168 -3.83504 -2.55823 0
M  V30 287 H 31.712 -6.90649 -0.982299 0
M  V30 288 H 27.609 -6.15069 -1.95858 0
M  V30 289 H 28.377 -8.09275 -1.22542 0
M  V30 290 N 31.0401 0.771051 -1.3745 0
M  V30 291 C 32.3171 1.519 -1.23231 0
M  V30 292 C 32.6971 2.10383 0.173809 0
M  V30 293 O 32.0451 1.95583 1.18151 0
M  V30 294 C 32.2551 2.59933 -2.32886 0
M  V30 295 C 33.6031 3.27316 -2.70461 0
M  V30 296 O 34.6271 2.70228 -2.32068 0
M  V30 297 O 33.4861 4.30531 -3.36608 0
M  V30 298 H 30.5801 0.672803 -0.480901 0
M  V30 299 H 33.1261 0.807957 -1.49232 0
M  V30 300 H 31.8981 2.14842 -3.27045 0
M  V30 301 H 31.5211 3.38637 -2.08353 0
M  V30 302 N 32.5182 1.22032 0.997298 0
M  V30 303 C 33.7482 1.06686 1.76923 0
M  V30 304 C 34.1562 -0.385838 1.85224 0
M  V30 305 O 33.4992 -1.27929 1.31833 0
M  V30 306 C 33.5612 1.59802 3.22031 0
M  V30 307 C 33.2252 3.08362 3.37286 0
M  V30 308 C 34.2222 4.05835 3.24952 0
M  V30 309 C 31.9072 3.47727 3.6248 0
M  V30 310 C 33.9012 5.4066 3.37588 0
M  V30 311 C 31.5882 4.82701 3.74757 0
M  V30 312 C 32.5862 5.78977 3.62319 0
M  V30 313 O 32.2742 7.11502 3.74193 0
M  V30 314 H 32.0062 0.374767 0.562606 0
M  V30 315 H 34.5602 1.61991 1.26286 0
M  V30 316 H 32.7902 0.989003 3.73839 0
M  V30 317 H 34.4792 1.40184 3.80924 0
M  V30 318 H 35.2452 3.76766 3.05405 0
M  V30 319 H 31.1242 2.73317 3.7124 0
M  V30 320 H 34.6682 6.15788 3.27796 0
M  V30 321 H 30.5652 5.11453 3.9381 0
M  V30 322 H 31.3332 7.19019 3.91093 0
M  V30 323 N 33.9963 -1.19345 1.0293 0
M  V30 324 C 34.9063 -2.26245 0.620515 0
M  V30 325 C 35.9223 -1.70486 -0.347928 0
M  V30 326 O 37.0983 -2.00347 -0.205704 0
M  V30 327 C 34.1633 -3.46693 -0.0218957 0
M  V30 328 C 33.2243 -4.17632 0.994102 0
M  V30 329 C 32.4573 -5.32329 0.382253 0
M  V30 330 O 32.6803 -5.64552 -0.814676 0
M  V30 331 O 31.6143 -5.91664 1.10531 0
M  V30 332 H 35.4403 -2.63453 1.51083 0
M  V30 333 H 33.0253 -1.26207 0.799513 0
M  V30 334 H 34.9073 -4.19683 -0.380072 0
M  V30 335 H 33.5823 -3.11333 -0.886209 0
M  V30 336 H 32.4893 -3.4676 1.40387 0
M  V30 337 H 33.8223 -4.56964 1.8288 0
M  V30 338 N 35.4744 -0.807222 -1.35358 0
M  V30 339 C 36.7024 -0.400377 -2.02989 0
M  V30 340 C 37.1174 0.988859 -1.60832 0
M  V30 341 O 36.4744 1.63729 -0.806175 0
M  V30 342 C 36.5254 -0.474867 -3.58368 0
M  V30 343 O 36.2464 -1.80933 -3.98992 0
M  V30 344 C 37.7474 -0.0609112 -4.43258 0
M  V30 345 H 34.9674 -0.162587 -0.651004 0
M  V30 346 H 37.5114 -1.09102 -1.72965 0
M  V30 347 H 35.6664 0.167534 -3.87038 0
M  V30 348 H 36.0804 -1.77256 -4.9364 0
M  V30 349 H 37.5544 -0.164145 -5.51756 0
M  V30 350 H 38.0314 0.993831 -4.27808 0
M  V30 351 H 38.6374 -0.676492 -4.19885 0
M  V30 352 N 36.9525 1.47285 -0.560781 0
M  V30 353 C 38.1985 2.02764 -0.0381184 0
M  V30 354 C 38.5315 1.43384 1.30976 0
M  V30 355 O 37.8065 0.590733 1.85312 0
M  V30 356 C 38.0895 3.60064 0.0511427 0
M  V30 357 C 37.9425 4.2987 -1.32408 0
M  V30 358 C 39.2615 4.33439 0.762795 0
M  V30 359 H 36.3805 0.736841 -0.0153264 0
M  V30 360 H 39.0225 1.75675 -0.723759 0
M  V30 361 H 37.1725 3.83274 0.635065 0
M  V30 362 H 38.8445 4.17989 -1.95148 0
M  V30 363 H 37.0875 3.90085 -1.8978 0
M  V30 364 H 37.7585 5.38478 -1.21431 0
M  V30 365 H 40.2345 4.15243 0.266965 0
M  V30 366 H 39.1105 5.43124 0.794221 0
M  V30 367 H 39.3715 4.02915 1.81966 0
M  V30 368 N 38.4306 0.297415 1.54768 0
M  V30 369 C 39.8466 -0.0560823 1.59501 0
M  V30 370 C 40.0466 -1.52725 1.31444 0
M  V30 371 O 39.1026 -2.27947 1.08611 0
M  V30 372 C 40.4156 0.338631 2.98787 0
M  V30 373 C 41.9636 0.287097 3.11681 0
M  V30 374 C 42.4386 0.656579 4.53269 0
M  V30 375 N 43.9296 0.608977 4.59179 0
M  V30 376 C 44.6646 0.867385 5.66802 0
M  V30 377 N 44.1606 1.19157 6.82476 0
M  V30 378 N 45.9536 0.794687 5.56454 0
M  V30 379 H 38.1046 1.25624 1.71267 0
M  V30 380 H 40.3676 0.509057 0.799728 0
M  V30 381 H 40.0736 1.36263 3.2423 0
M  V30 382 H 39.9476 -0.309508 3.75928 0
M  V30 383 H 42.3346 -0.727649 2.85988 0
M  V30 384 H 42.4156 0.969809 2.36703 0
M  V30 385 H 42.0596 1.66912 4.7969 0
M  V30 386 H 41.9896 -0.0481649 5.26578 0
M  V30 387 H 44.4806 0.369198 3.76092 0
M  V30 388 H 44.7936 1.37482 7.60473 0
M  V30 389 H 43.1386 1.22958 6.84037 0
M  V30 390 H 46.3296 0.541098 4.64962 0
M  V30 391 H 46.5026 0.999445 6.40246 0
M  V30 392 N 39.9087 -1.5758 0.0250728 0
M  V30 393 C 40.8567 -2.11125 -0.97617 0
M  V30 394 C 41.8507 -1.03689 -1.33959 0
M  V30 395 O 43.0567 -1.22128 -1.3223 0
M  V30 396 H 39.4317 -0.674468 -0.332561 0
M  V30 397 H 41.4027 -2.94194 -0.499223 0
M  V30 398 C 40.1517 -2.65017 -2.2508 0
M  V30 399 H 39.4747 -3.47333 -1.9799 0
M  V30 400 H 40.9147 -3.06133 -2.93357 0
M  V30 401 C 39.3737 -1.57574 -2.97779 0
M  V30 402 O 39.9037 -0.973203 -3.89733 0
M  V30 403 N 38.1097 -1.29716 -2.60043 0
M  V30 404 H 37.6567 -1.789 -1.85345 0
M  V30 405 H 37.6147 -0.58051 -3.08994 0
M  V30 406 N 41.3868 0.248026 -1.55636 0
M  V30 407 C 42.6348 0.974295 -1.77065 0
M  V30 408 C 42.9558 1.85897 -0.588849 0
M  V30 409 O 42.2258 1.91868 0.395407 0
M  V30 410 H 40.8058 0.362733 -0.653019 0
M  V30 411 H 43.4678 0.266244 -1.93073 0
M  V30 412 H 42.5638 1.59667 -2.68166 0
M  V30 413 N 42.8649 1.48995 0.513639 0
M  V30 414 C 44.1129 1.57531 1.26604 0
M  V30 415 C 44.4339 0.258236 1.93283 0
M  V30 416 O 43.7039 -0.721502 1.8213 0
M  V30 417 H 42.2839 0.580387 0.470276 0
M  V30 418 H 44.9459 1.85552 0.596373 0
M  V30 419 H 44.0419 2.36486 2.03669 0
M  V30 420 N 44.343 -0.763751 1.37857 0
M  V30 421 C 45.273 -1.89103 1.36975 0
M  V30 422 C 46.254 -1.68439 0.237152 0
M  V30 423 O 47.439 -1.8918 0.438713 0
M  V30 424 C 44.569 -3.26496 1.18395 0
M  V30 425 C 43.523 -3.61741 2.28751 0
M  V30 426 C 42.849 -4.97762 1.95286 0
M  V30 427 C 44.149 -3.67665 3.70972 0
M  V30 428 H 45.843 -1.90099 2.31307 0
M  V30 429 H 43.389 -0.91319 1.11341 0
M  V30 430 H 45.342 -4.05003 1.16406 0
M  V30 431 H 44.066 -3.25955 0.205215 0
M  V30 432 H 42.725 -2.85547 2.29909 0
M  V30 433 H 42.373 -4.93769 0.959221 0
M  V30 434 H 42.073 -5.22313 2.69189 0
M  V30 435 H 43.597 -5.7866 1.94898 0
M  V30 436 H 45.011 -4.36307 3.719 0
M  V30 437 H 43.408 -4.03718 4.43995 0
M  V30 438 H 44.478 -2.68134 4.0402 0
M  V30 439 N 45.8211 -1.22559 -0.990812 0
M  V30 440 C 47.0701 -1.04553 -1.72486 0
M  V30 441 C 47.3831 0.419349 -1.91052 0
M  V30 442 O 48.5891 0.719121 -2.61803 0
M  V30 443 C 47.0451 -1.82231 -3.10355 0
M  V30 444 C 46.6531 -3.32981 -2.99713 0
M  V30 445 C 48.3971 -1.7268 -3.87791 0
M  V30 446 C 46.3041 -4.03091 -4.32748 0
M  V30 447 H 45.2341 -0.387614 -0.646739 0
M  V30 448 H 47.8851 -1.46429 -1.10593 0
M  V30 449 H 46.2671 -1.33155 -3.72942 0
M  V30 450 H 47.4411 -3.89466 -2.46278 0
M  V30 451 H 45.7561 -3.43231 -2.35758 0
M  V30 452 H 48.3531 -2.22381 -4.86262 0
M  V30 453 H 48.6961 -0.687607 -4.10582 0
M  V30 454 H 49.2291 -2.1931 -3.31885 0
M  V30 455 H 45.9681 -5.07273 -4.15156 0
M  V30 456 H 45.4881 -3.51394 -4.86089 0
M  V30 457 H 47.1671 -4.08804 -5.01486 0
M  V30 458 N 47.2992 1.18797 -1.03562 0
M  V30 459 C 48.5462 1.8865 -0.736023 0
M  V30 460 C 48.8742 1.80041 0.735889 0
M  V30 461 O 48.1292 1.19179 1.55225 0
M  V30 462 C 48.4282 3.38692 -1.14117 0
M  V30 463 C 48.0942 3.67504 -2.6125 0
M  V30 464 C 46.7562 3.75078 -3.01447 0
M  V30 465 C 49.1082 3.80293 -3.56408 0
M  V30 466 C 46.4362 3.92915 -4.35701 0
M  V30 467 C 48.7882 3.99645 -4.90374 0
M  V30 468 C 47.4522 4.05453 -5.30249 0
M  V30 469 H 46.7222 0.690321 -0.26933 0
M  V30 470 H 49.3692 1.40641 -1.29971 0
M  V30 471 H 47.6742 3.88645 -0.496202 0
M  V30 472 H 49.3712 3.91072 -0.886789 0
M  V30 473 H 45.9612 3.62223 -2.29113 0
M  V30 474 H 50.1452 3.73779 -3.26501 0
M  V30 475 H 45.4012 3.95653 -4.66121 0
M  V30 476 H 49.5752 4.08482 -5.64017 0
M  V30 477 H 47.2022 4.19027 -6.34288 0
M  V30 478 N 48.7773 0.814389 1.34928 0
M  V30 479 C 49.7403 0.235759 2.27984 0
M  V30 480 C 50.7403 -0.581412 1.49921 0
M  V30 481 O 51.9303 -0.398758 1.69575 0
M  V30 482 C 49.0623 -0.670433 3.34242 0
M  V30 483 H 50.2553 1.05659 2.80671 0
M  V30 484 H 47.8083 0.585614 1.44915 0
M  V30 485 H 48.5433 -1.51466 2.86755 0
M  V30 486 H 48.3283 -0.0860822 3.92005 0
M  V30 487 H 49.8183 -1.06935 4.03676 0
M  V30 488 N 50.2554 -1.46986 0.568584 0
M  V30 489 C 51.5034 -2.02041 0.0487022 0
M  V30 490 C 51.8244 -1.44408 -1.31039 0
M  V30 491 O 51.0944 -0.623477 -1.85714 0
M  V30 492 H 49.6744 -0.746849 0.015014 0
M  V30 493 H 52.3364 -1.80257 0.741168 0
M  V30 494 H 51.4324 -3.12085 -0.0308961 0
M  V30 495 N 51.7335 -0.305618 -1.54608 0
M  V30 496 C 52.6635 0.561482 -2.26649 0
M  V30 497 C 53.6445 1.13415 -1.26772 0
M  V30 498 O 54.8295 1.16262 -1.55553 0
M  V30 499 C 51.9595 1.73122 -3.01075 0
M  V30 500 C 50.9135 1.2887 -4.08138 0
M  V30 501 C 50.2395 2.54396 -4.70305 0
M  V30 502 C 51.5395 0.416578 -5.20636 0
M  V30 503 H 53.2335 -0.0393902 -2.99374 0
M  V30 504 H 50.7795 -0.020385 -1.43986 0
M  V30 505 H 52.7325 2.34396 -3.50195 0
M  V30 506 H 51.4565 2.3584 -2.25936 0
M  V30 507 H 50.1155 0.698991 -3.59875 0
M  V30 508 H 49.7635 3.15439 -3.918 0
M  V30 509 H 49.4635 2.25486 -5.42614 0
M  V30 510 H 50.9875 3.16464 -5.2219 0
M  V30 511 H 52.4015 0.935116 -5.65622 0
M  V30 512 H 50.7985 0.221046 -5.99693 0
M  V30 513 H 51.8685 -0.557162 -4.81688 0
M  V30 514 N 53.2116 1.57565 -0.0334293 0
M  V30 515 C 54.1746 2.09393 0.932048 0
M  V30 516 C 55.1746 1.00986 1.25134 0
M  V30 517 O 56.3646 1.27129 1.19096 0
M  V30 518 C 53.4966 2.56338 2.2473 0
M  V30 519 H 54.6896 2.95984 0.483085 0
M  V30 520 H 52.2426 1.54819 0.21468 0
M  V30 521 H 52.9776 1.7309 2.74245 0
M  V30 522 H 52.7626 3.35542 2.02865 0
M  V30 523 H 54.2526 2.96646 2.93923 0
M  V30 524 N 54.6897 -0.239769 1.55765 0
M  V30 525 C 55.9367 -0.966801 1.7793 0
M  V30 526 C 56.2647 -1.85046 0.599015 0
M  V30 527 O 55.5197 -1.91197 -0.417395 0
M  V30 528 C 55.8187 -1.852 3.05672 0
M  V30 529 C 55.4847 -1.1231 4.36689 0
M  V30 530 C 54.1467 -0.921689 4.72291 0
M  V30 531 C 56.4987 -0.607019 5.17653 0
M  V30 532 C 53.8267 -0.191996 5.86386 0
M  V30 533 C 56.1787 0.109241 6.32506 0
M  V30 534 C 54.8427 0.322073 6.66723 0
M  V30 535 H 54.1127 -0.353778 0.651093 0
M  V30 536 H 56.7597 -0.23634 1.90036 0
M  V30 537 H 55.0647 -2.64975 2.8861 0
M  V30 538 H 56.7617 -2.41635 3.20021 0
M  V30 539 H 53.3517 -1.29004 4.08725 0
M  V30 540 H 57.5357 -0.750153 4.90598 0
M  V30 541 H 52.7917 -0.0166949 6.11398 0
M  V30 542 H 56.9657 0.516737 6.9448 0
M  V30 543 H 54.5927 0.88944 7.54979 0
M  V30 544 N 56.1678 -1.49265 -0.50573 0
M  V30 545 C 57.4168 -1.57761 -1.25675 0
M  V30 546 C 57.7298 -0.267371 -1.93764 0
M  V30 547 O 58.9358 -0.230827 -2.70517 0
M  V30 548 C 57.3918 -2.78332 -2.28165 0
M  V30 549 C 56.9998 -4.16096 -1.66037 0
M  V30 550 C 58.7438 -2.96155 -3.04125 0
M  V30 551 C 56.6508 -5.27895 -2.6661 0
M  V30 552 H 55.5808 -0.587391 -0.472745 0
M  V30 553 H 58.2318 -1.75644 -0.53118 0
M  V30 554 H 56.6138 -2.53934 -3.03865 0
M  V30 555 H 57.7878 -4.50612 -0.963622 0
M  V30 556 H 56.1028 -4.03591 -1.02484 0
M  V30 557 H 58.6998 -3.76849 -3.79327 0
M  V30 558 H 59.0428 -2.06534 -3.61455 0
M  V30 559 H 59.5758 -3.2057 -2.35541 0
M  V30 560 H 56.3148 -6.1956 -2.14068 0
M  V30 561 H 55.8348 -4.97839 -3.34539 0
M  V30 562 H 57.5138 -5.57031 -3.29129 0
M  V30 563 N 57.6459 0.756429 -1.3826 0
M  V30 564 C 58.8919 1.51772 -1.34511 0
M  V30 565 C 59.2249 1.94089 0.0656691 0
M  V30 566 O 58.4999 1.65221 1.02626 0
M  V30 567 C 58.7829 2.77226 -2.29821 0
M  V30 568 C 58.6359 2.41065 -3.79747 0
M  V30 569 C 59.9549 3.79236 -2.23312 0
M  V30 570 H 57.0739 0.550578 -0.489931 0
M  V30 571 H 59.7159 0.866607 -1.69086 0
M  V30 572 H 57.8659 3.32784 -2.00467 0
M  V30 573 H 59.5379 1.91303 -4.19763 0
M  V30 574 H 57.7809 1.7356 -3.97567 0
M  V30 575 H 58.4519 3.3081 -4.41892 0
M  V30 576 H 60.9279 3.3321 -2.49219 0
M  V30 577 H 59.8039 4.64714 -2.92116 0
M  V30 578 H 60.0649 4.24615 -1.23102 0
M  V30 579 N 59.124 1.23083 0.984299 0
M  V30 580 C 60.372 1.05848 1.72165 0
M  V30 581 C 60.693 -0.406049 1.90726 0
M  V30 582 O 59.963 -1.29139 1.47309 0
M  V30 583 H 58.543 0.388685 0.637913 0
M  V30 584 H 61.205 1.54736 1.18503 0
M  V30 585 H 60.301 1.54327 2.71274 0
M  V30 586 N 60.6021 -1.18246 1.0419 0
M  V30 587 C 61.5321 -2.24127 0.654914 0
M  V30 588 C 62.5131 -1.66617 -0.342451 0
M  V30 589 O 63.6981 -1.92924 -0.222277 0
M  V30 590 C 60.8281 -3.47295 0.0183757 0
M  V30 591 C 59.7821 -4.17563 0.939414 0
M  V30 592 C 59.1081 -5.34438 0.167286 0
M  V30 593 C 60.4081 -4.70917 2.25908 0
M  V30 594 H 62.1021 -2.56753 1.54007 0
M  V30 595 H 59.6481 -1.23414 0.74195 0
M  V30 596 H 61.6011 -4.20572 -0.264082 0
M  V30 597 H 60.3251 -3.13907 -0.901664 0
M  V30 598 H 58.9841 -3.46186 1.20628 0
M  V30 599 H 58.6321 -4.97298 -0.7552 0
M  V30 600 H 58.3321 -5.82388 0.780901 0
M  V30 601 H 59.8561 -6.10504 -0.108125 0
M  V30 602 H 61.2701 -5.35882 2.03724 0
M  V30 603 H 59.6671 -5.29406 2.82577 0
M  V30 604 H 60.7371 -3.88272 2.9047 0
M  V30 605 N 62.0802 -0.821533 -1.34494 0
M  V30 606 C 63.0102 -0.257138 -2.3208 0
M  V30 607 C 63.9912 0.625645 -1.58176 0
M  V30 608 O 65.1762 0.552811 -1.86166 0
M  V30 609 C 62.3062 0.582958 -3.42372 0
M  V30 610 C 61.2602 -0.202571 -4.2752 0
M  V30 611 C 60.5862 0.760179 -5.29269 0
M  V30 612 C 61.8862 -1.40998 -5.02908 0
M  V30 613 H 63.5802 -1.07247 -2.79532 0
M  V30 614 H 61.1262 -0.517163 -1.34393 0
M  V30 615 H 63.0792 0.987972 -4.09655 0
M  V30 616 H 61.8032 1.43133 -2.93565 0
M  V30 617 H 60.4622 -0.588936 -3.61838 0
M  V30 618 H 60.1102 1.60447 -4.76724 0
M  V30 619 H 59.8102 0.238809 -5.87115 0
M  V30 620 H 61.3342 1.16308 -5.9942 0
M  V30 621 H 62.7482 -1.07905 -5.63054 0
M  V30 622 H 61.1452 -1.86689 -5.70322 0
M  V30 623 H 62.2152 -2.1889 -4.32684 0
M  V30 624 N 63.5583 1.46682 -0.576371 0
M  V30 625 C 64.8073 2.01619 -0.0572825 0
M  V30 626 C 65.1203 1.45417 1.30818 0
M  V30 627 O 66.3263 1.92133 1.91825 0
M  V30 628 C 64.7823 3.59863 -0.0518371 0
M  V30 629 C 64.3903 4.25059 -1.41523 0
M  V30 630 C 66.1343 4.2248 0.413639 0
M  V30 631 C 64.0413 5.75364 -1.36785 0
M  V30 632 H 62.9713 0.753794 -0.0176448 0
M  V30 633 H 65.6223 1.68481 -0.727076 0
M  V30 634 H 64.0043 3.90048 0.683994 0
M  V30 635 H 65.1783 4.06491 -2.17029 0
M  V30 636 H 63.4933 3.7451 -1.8202 0
M  V30 637 H 66.0903 5.3265 0.467779 0
M  V30 638 H 66.4333 3.90976 1.42982 0
M  V30 639 H 66.9663 3.96897 -0.267929 0
M  V30 640 H 63.7053 6.11518 -2.36063 0
M  V30 641 H 63.2253 5.96214 -0.654895 0
M  V30 642 H 64.9043 6.37955 -1.07805 0
M  V30 643 N 65.0364 0.313813 1.54444 0
M  V30 644 C 65.9664 -0.549454 2.26943 0
M  V30 645 C 66.9474 -1.12741 1.27372 0
M  V30 646 O 68.1324 -1.15436 1.56167 0
M  V30 647 C 65.2624 -1.71523 3.01989 0
M  V30 648 C 64.2164 -1.26703 4.08816 0
M  V30 649 C 63.5424 -2.51898 4.71647 0
M  V30 650 C 64.8424 -0.388962 5.2085 0
M  V30 651 H 66.5364 0.0552661 2.99349 0
M  V30 652 H 64.0824 0.0280207 1.43973 0
M  V30 653 H 66.0354 -2.32535 3.51433 0
M  V30 654 H 64.7594 -2.34639 2.27183 0
M  V30 655 H 63.4184 -0.679896 3.6024 0
M  V30 656 H 63.0664 -3.13356 3.93468 0
M  V30 657 H 62.7664 -2.22605 5.43802 0
M  V30 658 H 64.2904 -3.1369 5.23861 0
M  V30 659 H 65.7044 -0.905107 5.6611 0
M  V30 660 H 64.1014 -0.18924 5.99802 0
M  V30 661 H 65.1714 0.582699 4.81386 0
M  V30 662 N 66.5145 -1.57545 0.0417849 0
M  V30 663 C 67.4445 -2.14009 -0.933929 0
M  V30 664 C 68.4255 -1.05938 -1.33083 0
M  V30 665 O 69.6105 -1.33833 -1.40721 0
M  V30 666 C 66.7405 -2.67747 -2.21199 0
M  V30 667 C 65.6945 -3.80718 -1.95544 0
M  V30 668 C 65.0205 -4.20935 -3.29724 0
M  V30 669 C 66.3205 -5.06258 -1.28452 0
M  V30 670 H 68.0145 -2.95788 -0.463645 0
M  V30 671 H 65.5605 -1.42285 -0.221573 0
M  V30 672 H 67.5135 -3.05886 -2.89848 0
M  V30 673 H 66.2375 -1.83147 -2.70416 0
M  V30 674 H 64.8965 -3.43037 -1.2931 0
M  V30 675 H 64.5445 -3.33298 -3.76724 0
M  V30 676 H 64.2445 -4.9707 -3.13361 0
M  V30 677 H 65.7685 -4.61666 -3.9962 0
M  V30 678 H 67.1825 -5.41903 -1.8712 0
M  V30 679 H 65.5795 -5.87475 -1.22445 0
M  V30 680 H 66.6495 -4.84207 -0.259219 0
M  V30 681 N 67.9926 0.231505 -1.5589 0
M  V30 682 C 69.2176 0.978689 -1.82856 0
M  V30 683 C 69.6426 1.77559 -0.620846 0
M  V30 684 O 69.0006 1.76119 0.430305 0
M  V30 685 C 69.0486 1.87997 -3.07716 0
M  V30 686 O 68.1526 2.97393 -2.85712 0
M  V30 687 H 67.4936 0.277663 -0.603158 0
M  V30 688 H 70.0236 0.24783 -2.03093 0
M  V30 689 H 70.0336 2.2917 -3.37558 0
M  V30 690 H 68.7086 1.29417 -3.95252 0
M  V30 691 H 67.2856 2.60238 -2.67078 0
M  V30 692 N 69.4707 1.49531 0.497807 0
M  V30 693 C 70.8867 1.36365 0.829266 0
M  V30 694 C 71.0867 0.399184 1.97506 0
M  V30 695 O 70.1427 -0.167977 2.51941 0
M  V30 696 C 71.4557 2.77153 1.16647 0
M  V30 697 C 73.0037 2.85877 1.27449 0
M  V30 698 C 73.4787 4.2744 1.64497 0
M  V30 699 N 74.9697 4.30265 1.7154 0
M  V30 700 C 75.7047 5.3677 2.01656 0
M  V30 701 N 75.2007 6.53516 2.29976 0
M  V30 702 N 76.9937 5.24189 2.02934 0
M  V30 703 H 69.1447 2.10831 -0.257703 0
M  V30 704 H 71.4077 0.946534 -0.0527091 0
M  V30 705 H 71.1137 3.49442 0.397872 0
M  V30 706 H 70.9877 3.12722 2.10915 0
M  V30 707 H 73.3747 2.13824 2.0338 0
M  V30 708 H 73.4557 2.53887 0.312244 0
M  V30 709 H 73.0997 5.00021 0.891151 0
M  V30 710 H 73.0297 4.56896 2.61827 0
M  V30 711 H 75.5207 3.4607 1.51802 0
M  V30 712 H 75.8337 7.30506 2.52153 0
M  V30 713 H 74.1787 6.56737 2.27425 0
M  V30 714 H 77.3697 4.31988 1.80289 0
M  V30 715 H 77.5427 6.07286 2.26071 0
M  V30 716 N 70.9488 -0.749086 1.3866 0
M  V30 717 C 72.3648 -1.05276 1.19955 0
M  V30 718 C 72.5648 -2.01435 0.05134 0
M  V30 719 O 71.6208 -2.45232 -0.60147 0
M  V30 720 C 72.9338 -1.62853 2.52783 0
M  V30 721 C 74.4818 -1.75002 2.59506 0
M  V30 722 C 74.9568 -2.35991 3.92521 0
M  V30 723 N 76.4478 -2.43416 3.94085 0
M  V30 724 C 77.1828 -2.91511 4.9377 0
M  V30 725 N 76.6788 -3.39608 6.03853 0
M  V30 726 N 78.4718 -2.90592 4.81157 0
M  V30 727 H 70.6228 -0.111066 2.12109 0
M  V30 728 H 72.8858 -0.111901 0.941373 0
M  V30 729 H 72.5918 -0.99664 3.37283 0
M  V30 730 H 72.4658 -2.61854 2.715 0
M  V30 731 H 74.8528 -2.37317 1.75398 0
M  V30 732 H 74.9338 -0.74693 2.44652 0
M  V30 733 H 74.5778 -1.74308 4.77053 0
M  V30 734 H 74.5078 -3.3695 4.04688 0
M  V30 735 H 76.9988 -2.09405 3.14576 0
M  V30 736 H 77.3118 -3.74775 6.75843 0
M  V30 737 H 75.6568 -3.37653 6.07466 0
M  V30 738 H 78.8478 -2.52332 3.94267 0
M  V30 739 H 79.0208 -3.27762 5.58996 0
M  V30 740 N 72.4269 -1.23603 -0.977757 0
M  V30 741 C 73.6739 -1.06971 -1.71941 0
M  V30 742 C 74.0019 0.393009 -1.90488 0
M  V30 743 O 73.2569 1.30719 -1.4564 0
M  V30 744 C 73.5559 -1.7433 -3.11999 0
M  V30 745 C 73.2219 -3.24252 -3.13323 0
M  V30 746 C 71.8839 -3.65156 -3.13392 0
M  V30 747 C 74.2359 -4.20141 -3.08433 0
M  V30 748 C 71.5639 -5.00403 -3.0629 0
M  V30 749 C 73.9159 -5.55384 -3.02873 0
M  V30 750 C 72.5799 -5.95647 -3.01265 0
M  V30 751 H 71.8499 -0.391433 -0.629175 0
M  V30 752 H 74.4969 -1.53572 -1.14403 0
M  V30 753 H 72.8019 -1.20096 -3.7294 0
M  V30 754 H 74.4989 -1.58936 -3.68158 0
M  V30 755 H 71.0889 -2.91692 -3.14029 0
M  V30 756 H 75.2729 -3.89547 -3.07517 0
M  V30 757 H 70.5289 -5.3081 -3.03399 0
M  V30 758 H 74.7029 -6.29398 -2.98046 0
M  V30 759 H 72.3299 -7.0041 -2.95516 0
M  V30 760 N 73.905 1.17692 -1.04816 0
M  V30 761 C 75.321 1.39863 -0.768794 0
M  V30 762 C 75.521 1.91118 0.638451 0
M  V30 763 O 74.577 2.10036 1.40146 0
M  V30 764 C 75.89 2.39274 -1.82122 0
M  V30 765 C 77.438 2.52987 -1.843 0
M  V30 766 C 77.913 3.55669 -2.88555 0
M  V30 767 N 79.404 3.63183 -2.87493 0
M  V30 768 C 80.139 4.42381 -3.64811 0
M  V30 769 N 79.635 5.25125 -4.51903 0
M  V30 770 N 81.428 4.37217 -3.53267 0
M  V30 771 H 73.579 0.82752 -1.95617 0
M  V30 772 H 75.842 0.426123 -0.846831 0
M  V30 773 H 75.548 2.08678 -2.83102 0
M  V30 774 H 75.422 3.38725 -1.65967 0
M  V30 775 H 77.809 2.82896 -0.839869 0
M  V30 776 H 77.89 1.53623 -2.04532 0
M  V30 777 H 77.534 3.26499 -3.89051 0
M  V30 778 H 77.464 4.54728 -2.65575 0
M  V30 779 H 79.955 3.04103 -2.24343 0
M  V30 780 H 80.268 5.82728 -5.07591 0
M  V30 781 H 78.613 5.24519 -4.55966 0
M  V30 782 H 81.804 3.71626 -2.84625 0
M  V30 783 H 81.977 4.98696 -4.13771 0
M  V30 784 N 75.3831 0.828654 1.34056 0
M  V30 785 C 76.6231 0.425394 1.99924 0
M  V30 786 C 76.9871 -0.994294 1.64249 0
M  V30 787 O 78.1881 -1.50074 2.23005 0
M  V30 788 C 76.4591 0.628071 3.51838 0
M  V30 789 S 78.0181 0.318511 4.37642 0
M  V30 790 H 74.8361 0.160465 0.692656 0
M  V30 791 H 77.4381 1.07572 1.63244 0
M  V30 792 H 76.1421 1.66089 3.7529 0
M  V30 793 H 75.6731 -0.0367799 3.93383 0
M  V30 794 H 77.6881 -0.865632 4.88591 0
M  V30 795 N 76.8612 -1.46375 0.584142 0
M  V30 796 C 78.1092 -2.01978 0.0701287 0
M  V30 797 C 78.4302 -1.4579 -1.295 0
M  V30 798 O 77.7002 -0.64314 -1.85042 0
M  V30 799 H 76.2802 -0.746648 0.0229345 0
M  V30 800 H 78.9422 -1.79461 0.760245 0
M  V30 801 H 78.0382 -3.121 0.0022064 0
M  V30 802 N 78.3393 -0.321999 -1.54275 0
M  V30 803 C 79.5873 0.280489 -2.00144 0
M  V30 804 C 79.9083 1.52777 -1.21178 0
M  V30 805 O 79.1783 1.9338 -0.313187 0
M  V30 806 H 77.7583 0.106632 -0.73935 0
M  V30 807 H 80.4203 -0.438184 -1.8991 0
M  V30 808 H 79.5163 0.537972 -3.07428 0
M  V30 809 N 79.8174 1.5752 -0.0501392 0
M  V30 810 C 80.7654 2.12651 0.942459 0
M  V30 811 C 81.7594 1.05807 1.32292 0
M  V30 812 O 82.9654 1.24217 1.3027 0
M  V30 813 H 79.3404 0.679673 0.321789 0
M  V30 814 H 81.3114 2.94951 0.452356 0
M  V30 815 C 80.0604 2.68565 2.20836 0
M  V30 816 H 79.3834 3.50439 1.92439 0
M  V30 817 H 80.8234 3.10761 2.8845 0
M  V30 818 C 79.2824 1.62291 2.95234 0
M  V30 819 O 79.8124 1.03508 3.88135 0
M  V30 820 N 78.0184 1.33836 2.57946 0
M  V30 821 H 77.5654 1.81826 1.82475 0
M  V30 822 H 77.5234 0.629595 3.08032 0
M  V30 823 N 81.2955 -0.223234 1.56011 0
M  V30 824 C 82.2425 -1.27664 1.92277 0
M  V30 825 C 83.2125 -1.46659 0.779763 0
M  V30 826 O 84.3975 -1.60256 1.03551 0
M  V30 827 C 81.5375 -2.62234 2.24338 0
M  V30 828 C 80.6505 -2.51051 3.51564 0
M  V30 829 C 79.7855 -3.78133 3.7308 0
M  V30 830 C 78.8245 -3.61665 4.93827 0
M  V30 831 N 77.9615 -4.80693 5.11741 0
M  V30 832 H 82.8015 -0.960358 2.82101 0
M  V30 833 H 80.3385 -0.462901 1.39627 0
M  V30 834 H 82.2965 -3.40596 2.40936 0
M  V30 835 H 80.9265 -2.91961 1.3769 0
M  V30 836 H 79.9785 -1.64132 3.43169 0
M  V30 837 H 81.2905 -2.34803 4.40079 0
M  V30 838 H 80.4445 -4.64938 3.89766 0
M  V30 839 H 79.1835 -3.97304 2.82844 0
M  V30 840 H 78.1885 -2.73244 4.77093 0
M  V30 841 H 79.4135 -3.43966 5.85546 0
M  V30 842 H 77.3595 -5.00181 4.24446 0
M  V30 843 H 77.2765 -4.67165 5.94384 0
M  V30 844 H 78.5445 -5.6893 5.3286 0
M  V30 845 N 82.7736 -1.49793 -0.48987 0
M  V30 846 C 83.7206 -1.67281 -1.59014 0
M  V30 847 C 84.6906 -0.514177 -1.57941 0
M  V30 848 O 85.8756 -0.742533 -1.75759 0
M  V30 849 C 83.0156 -1.75569 -2.97102 0
M  V30 850 C 82.1286 -3.0281 -3.08107 0
M  V30 851 C 81.2636 -3.02008 -4.36995 0
M  V30 852 C 80.3026 -4.23782 -4.41673 0
M  V30 853 N 79.4396 -4.20826 -5.62005 0
M  V30 854 H 84.2796 -2.61224 -1.43409 0
M  V30 855 H 81.8166 -1.29508 -0.697565 0
M  V30 856 H 83.7746 -1.78354 -3.77155 0
M  V30 857 H 82.4046 -0.850827 -3.11385 0
M  V30 858 H 81.4566 -3.09584 -2.21047 0
M  V30 859 H 82.7686 -3.92801 -3.07423 0
M  V30 860 H 81.9226 -3.03418 -5.25378 0
M  V30 861 H 80.6616 -2.09815 -4.4026 0
M  V30 862 H 79.6666 -4.22604 -3.5169 0
M  V30 863 H 80.8916 -5.17181 -4.40115 0
M  V30 864 H 78.8376 -3.31476 -5.66091 0
M  V30 865 H 78.7546 -5.04564 -5.62984 0
M  V30 866 H 80.0226 -4.26355 -6.52565 0
M  V30 867 N 84.2517 0.741722 -1.39055 0
M  V30 868 C 85.6677 1.04638 -1.20512 0
M  V30 869 C 85.8677 2.01405 -0.0620218 0
M  V30 870 O 84.9237 2.45547 0.588457 0
M  V30 871 C 86.2367 1.6151 -2.53643 0
M  V30 872 C 87.7847 1.73623 -2.6043 0
M  V30 873 C 88.2597 2.33906 -3.93767 0
M  V30 874 N 89.7507 2.41323 -3.9537 0
M  V30 875 C 90.4857 2.88888 -4.95309 0
M  V30 876 N 89.9817 3.36401 -6.05645 0
M  V30 877 N 91.7747 2.88037 -4.82692 0
M  V30 878 H 83.9257 0.0998155 -2.12165 0
M  V30 879 H 86.1887 0.106907 -0.941953 0
M  V30 880 H 85.8947 0.978739 -3.37807 0
M  V30 881 H 85.7687 2.60411 -2.72885 0
M  V30 882 H 88.1557 2.36384 -1.76655 0
M  V30 883 H 88.2367 0.733945 -2.45045 0
M  V30 884 H 87.8807 1.71776 -4.7797 0
M  V30 885 H 87.8107 3.34799 -4.06469 0
M  V30 886 H 90.3017 2.07734 -3.15682 0
M  V30 887 H 90.6147 3.71186 -6.77821 0
M  V30 888 H 88.9597 3.34427 -6.09248 0
M  V30 889 H 92.1507 2.50237 -3.95599 0
M  V30 890 H 92.3237 3.24792 -5.60726 0
M  V30 891 N 85.7298 1.2412 0.971189 0
M  V30 892 C 87.1458 1.00584 1.23916 0
M  V30 893 C 87.3458 -0.287481 1.99439 0
M  V30 894 O 86.4018 -1.00454 2.31658 0
M  V30 895 C 87.7148 2.21864 2.0297 0
M  V30 896 C 89.2628 2.26452 2.16076 0
M  V30 897 C 89.7378 3.47343 2.98524 0
M  V30 898 N 91.2288 3.47639 3.06107 0
M  V30 899 C 91.9638 4.37837 3.70251 0
M  V30 900 N 91.4598 5.38286 4.36142 0
M  V30 901 N 93.2528 4.25558 3.67228 0
M  V30 902 H 85.4038 2.07236 0.465499 0
M  V30 903 H 87.6668 0.909236 0.268315 0
M  V30 904 H 87.3728 3.15771 1.54861 0
M  V30 905 H 87.2468 2.23698 3.03709 0
M  V30 906 H 89.6338 1.33078 2.6339 0
M  V30 907 H 89.7148 2.28645 1.14696 0
M  V30 908 H 89.3588 4.41029 2.51905 0
M  V30 909 H 89.2888 3.42393 4.00093 0
M  V30 910 H 91.7798 2.74966 2.59233 0
M  V30 911 H 92.0928 6.03352 4.82894 0
M  V30 912 H 90.4378 5.42176 4.34822 0
M  V30 913 H 93.6288 3.46322 3.14927 0
M  V30 914 H 93.8018 4.96054 4.16935 0
M  V30 915 N 87.2079 -1.17134 1.05439 0
M  V30 916 C 88.1399 -2.2078 0.615539 0
M  V30 917 C 89.1529 -1.59584 -0.322001 0
M  V30 918 O 90.3419 -1.78133 -0.114344 0
M  V30 919 C 87.4419 -3.38691 -0.118938 0
M  V30 920 C 86.6149 -4.29454 0.829924 0
M  V30 921 C 85.6739 -5.26024 0.136258 0
M  V30 922 O 84.6999 -5.63952 0.77115 0
M  V30 923 N 85.9019 -5.69487 -1.1254 0
M  V30 924 H 88.6669 -2.59052 1.50705 0
M  V30 925 H 86.2279 -1.32058 0.936603 0
M  V30 926 H 88.2199 -4.00329 -0.593179 0
M  V30 927 H 86.7899 -2.98996 -0.91215 0
M  V30 928 H 86.0099 -3.65211 1.48373 0
M  V30 929 H 87.2979 -4.86984 1.47392 0
M  V30 930 H 86.6959 -5.4075 -1.6615 0
M  V30 931 H 85.2529 -6.33257 -1.54366 0
M  V30 932 N 88.686 -0.835752 -1.33615 0
M  V30 933 C 89.935 -0.426289 -1.97144 0
M  V30 934 C 90.248 1.01912 -1.66953 0
M  V30 935 O 91.454 1.53311 -2.24072 0
M  V30 936 C 89.91 -0.711321 -3.52801 0
M  V30 937 C 89.518 -2.1712 -3.91871 0
M  V30 938 C 91.262 -0.368654 -4.22896 0
M  V30 939 C 89.169 -2.40044 -5.40493 0
M  V30 940 H 88.099 -0.15567 -0.737755 0
M  V30 941 H 90.75 -1.0239 -1.52278 0
M  V30 942 H 89.132 -0.0433766 -3.95976 0
M  V30 943 H 90.306 -2.87936 -3.59763 0
M  V30 944 H 88.621 -2.47654 -3.34749 0
M  V30 945 H 91.218 -0.517601 -5.32189 0
M  V30 946 H 91.561 0.688078 -4.10574 0
M  V30 947 H 92.094 -0.991702 -3.8524 0
M  V30 948 H 88.833 -3.44271 -5.57815 0
M  V30 949 H 88.353 -1.73785 -5.74072 0
M  V30 950 H 90.032 -2.23042 -6.0734 0
M  V30 951 N 90.1641 1.46063 -0.591896 0
M  V30 952 C 91.1121 2.32124 0.148739 0
M  V30 953 C 92.1061 1.45035 0.875286 0
M  V30 954 O 93.3121 1.61609 0.792632 0
M  V30 955 H 89.6871 0.749024 0.066832 0
M  V30 956 H 91.6581 2.92392 -0.595783 0
M  V30 957 C 90.4071 3.28373 1.1431 0
M  V30 958 H 89.7301 3.95371 0.59346 0
M  V30 959 H 91.1701 3.91352 1.63155 0
M  V30 960 C 89.6291 2.54393 2.20875 0
M  V30 961 O 90.1591 2.31373 3.28374 0
M  V30 962 N 88.3651 2.14797 1.95731 0
M  V30 963 H 87.9121 2.33719 1.08319 0
M  V30 964 H 87.8701 1.65619 2.67241 0
M  V30 965 N 91.6422 0.330177 1.54103 0
M  V30 966 C 92.5522 -0.541534 2.28264 0
M  V30 967 C 93.5682 -1.12351 1.32866 0
M  V30 968 O 94.7442 -1.14206 1.65888 0
M  V30 969 C 91.8092 -1.68322 3.03098 0
M  V30 970 C 90.8702 -1.13238 4.14096 0
M  V30 971 C 90.1032 -2.21966 4.85352 0
M  V30 972 O 90.3262 -3.42437 4.56172 0
M  V30 973 O 89.2602 -1.87013 5.7211 0
M  V30 974 H 93.0862 0.060938 3.03639 0
M  V30 975 H 90.6712 0.09565 1.49093 0
M  V30 976 H 92.5532 -2.34777 3.49939 0
M  V30 977 H 91.2282 -2.27176 2.30593 0
M  V30 978 H 90.1352 -0.432736 3.71589 0
M  V30 979 H 91.4682 -0.588898 4.88664 0
M  V30 980 N 93.1203 -1.57491 0.0584922 0
M  V30 981 C 94.3973 -1.84346 -0.653918 0
M  V30 982 C 94.7773 -0.948355 -1.88599 0
M  V30 983 O 94.1253 -0.0112403 -2.28497 0
M  V30 984 C 94.3353 -3.34239 -1.00425 0
M  V30 985 C 95.6833 -4.01431 -1.38342 0
M  V30 986 O 96.7073 -3.38907 -1.09637 0
M  V30 987 O 95.5663 -5.11683 -1.91943 0
M  V30 988 H 92.6603 -0.761112 -0.323478 0
M  V30 989 H 95.2063 -1.6947 0.0884125 0
M  V30 990 H 93.9783 -3.91089 -0.128625 0
M  V30 991 H 93.6013 -3.54329 -1.80378 0
M  V30 992 N 94.5984 0.214957 -1.56127 0
M  V30 993 C 95.5084 1.28727 -1.96129 0
M  V30 994 C 96.5244 1.50916 -0.866044 0
M  V30 995 O 97.7004 1.63918 -1.17016 0
M  V30 996 C 94.7654 2.61569 -2.27558 0
M  V30 997 C 93.8264 2.47625 -3.50685 0
M  V30 998 C 93.0594 3.74132 -3.80606 0
M  V30 999 O 93.2824 4.77438 -3.12104 0
M  V30 1000 O 92.2164 3.70849 -4.74083 0
M  V30 1001 H 96.0424 0.977855 -2.87527 0
M  V30 1002 H 93.6274 0.418358 -1.43423 0
M  V30 1003 H 95.5094 3.40012 -2.48938 0
M  V30 1004 H 94.1844 2.92178 -1.39332 0
M  V30 1005 H 93.0914 1.67361 -3.34576 0
M  V30 1006 H 94.4244 2.21954 -4.39315 0
M  V30 1007 N 96.0765 1.50051 0.48192 0
M  V30 1008 C 97.4875 1.5348 1.06305 0
M  V30 1009 C 97.8385 0.331997 1.93371 0
M  V30 1010 O 96.9635 -0.556256 2.09129 0
M  V30 1011 C 97.5585 2.7813 1.93466 0
M  V30 1012 C 96.1175 2.84275 2.46707 0
M  V30 1013 C 95.2645 2.47637 1.24785 0
M  V30 1014 H 98.2155 1.56472 0.264995 0
M  V30 1015 H 98.2365 2.59372 2.78399 0
M  V30 1016 H 97.7485 3.65654 1.30072 0
M  V30 1017 H 95.8495 2.01077 3.13686 0
M  V30 1018 H 95.9625 3.8691 2.82555 0
M  V30 1019 H 94.3265 1.99835 1.57918 0
M  V30 1020 H 95.1095 3.37457 0.630694 0
M  V30 1021 O 97.5935 -0.627375 1.48816 0
M  V30 1022 H 98.2845 -1.28154 1.45245 0
M  V30 END ATOM
M  V30 BEGIN BOND
M  V30 END BOND
M  V30 END CTAB
M  END
$$$$
