drugbank_target|P54886 Delta-1-pyrroline-5-carboxylate synthase (DB00142)
 OpenBabel12092119403D

  0  0  0     0  0            999 V3000
M  V30 BEGIN CTAB
M  V30 COUNTS 12364 12466 0 0 0
M  V30 BEGIN ATOM
M  V30 1 H -0.908 1.98254 -0.117106 0
M  V30 2 N 0 1.576 0 0
M  V30 3 C 0.933 2.03868 1.02534 0
M  V30 4 C 1.911 0.928543 1.3348 0
M  V30 5 O 3.095 1.19667 1.45644 0
M  V30 6 C 0.222 2.43627 2.35294 0
M  V30 7 C -0.732 3.65373 2.2001 0
M  V30 8 S 0.101 5.13292 1.52614 0
M  V30 9 C 1.257 5.56322 2.86805 0
M  V30 10 H 1.49 2.90518 0.631377 0
M  V30 11 H -0.977 1.52953 0.210867 0
M  V30 12 H 0.981 2.67203 3.11629 0
M  V30 13 H -0.358 1.57376 2.7183 0
M  V30 14 H -1.165 3.90944 3.18086 0
M  V30 15 H -1.563 3.418 1.51819 0
M  V30 16 H 0.729 5.58782 3.83104 0
M  V30 17 H 1.672 6.56266 2.65933 0
M  V30 18 H 2.08 4.83886 2.90714 0
M  V30 19 N 1.4781 -0.272755 1.55222 0
M  V30 20 C 2.4081 -1.34136 1.91127 0
M  V30 21 C 3.3891 -1.51513 0.773168 0
M  V30 22 O 4.5741 -1.64552 1.03132 0
M  V30 23 C 1.7041 -2.70083 2.1834 0
M  V30 24 C 0.6581 -2.67437 3.34158 0
M  V30 25 C -0.0159 -4.06938 3.46851 0
M  V30 26 C 1.2841 -2.26686 4.70543 0
M  V30 27 H 2.9781 -1.04333 2.80633 0
M  V30 28 H 0.5241 -0.500454 1.35024 0
M  V30 29 H 2.4771 -3.44952 2.42046 0
M  V30 30 H 1.2011 -3.01469 1.25634 0
M  V30 31 H -0.1399 -1.95026 3.1042 0
M  V30 32 H -0.4919 -4.35547 2.51611 0
M  V30 33 H -0.7919 -4.06062 4.2472 0
M  V30 34 H 0.7321 -4.83545 3.72849 0
M  V30 35 H 2.1461 -2.91277 4.93792 0
M  V30 36 H 0.5431 -2.36971 5.5133 0
M  V30 37 H 1.6131 -1.21818 4.69349 0
M  V30 38 N 2.9562 -1.48159 -0.537278 0
M  V30 39 C 4.1812 -1.59707 -1.32319 0
M  V30 40 C 4.6062 -0.254859 -1.86365 0
M  V30 41 O 3.9642 0.772378 -1.64024 0
M  V30 42 C 4.0122 -2.6412 -2.45505 0
M  V30 43 O 3.1162 -2.20774 -3.48328 0
M  V30 44 H 2.4572 -0.535791 -0.392204 0
M  V30 45 H 4.9872 -1.94092 -0.647268 0
M  V30 46 H 4.9972 -2.85166 -2.91795 0
M  V30 47 H 3.6722 -3.61567 -2.05528 0
M  V30 48 H 2.2492 -2.09911 -3.08207 0
M  V30 49 N 4.4343 0.785586 -1.36625 0
M  V30 50 C 5.3663 1.90711 -1.2713 0
M  V30 51 C 6.3793 1.61688 -0.189986 0
M  V30 52 O 7.5683 1.72864 -0.445014 0
M  V30 53 C 4.6683 3.25611 -0.939713 0
M  V30 54 C 3.8413 3.82385 -2.12369 0
M  V30 55 C 2.9003 4.95732 -1.76456 0
M  V30 56 O 1.9263 5.12047 -2.48589 0
M  V30 57 N 3.1283 5.76258 -0.700492 0
M  V30 58 H 5.8933 1.99376 -2.23762 0
M  V30 59 H 3.4543 0.964041 -1.30069 0
M  V30 60 H 5.4463 3.98937 -0.680554 0
M  V30 61 H 4.0163 3.12538 -0.0624074 0
M  V30 62 H 3.2363 3.01001 -2.54543 0
M  V30 63 H 4.5243 4.17047 -2.9146 0
M  V30 64 H 3.9223 5.65609 -0.101624 0
M  V30 65 H 2.4793 6.4987 -0.501165 0
M  V30 66 N 5.9124 1.20967 1.01018 0
M  V30 67 C 7.1584 1.02526 1.74975 0
M  V30 68 C 7.4914 -0.4408 1.89131 0
M  V30 69 O 6.7664 -1.32718 1.42184 0
M  V30 70 C 7.0494 1.71699 3.1653 0
M  V30 71 C 6.9024 3.25791 3.10129 0
M  V30 72 C 8.2214 1.45531 4.15342 0
M  V30 73 H 5.3404 0.373863 0.635134 0
M  V30 74 H 7.9824 1.49071 1.17805 0
M  V30 75 H 6.1324 1.32128 3.65341 0
M  V30 76 H 7.8044 3.74697 2.69072 0
M  V30 77 H 6.0474 3.56363 2.47362 0
M  V30 78 H 6.7184 3.69353 4.10222 0
M  V30 79 H 9.1944 1.79872 3.75213 0
M  V30 80 H 8.0704 1.96453 5.1254 0
M  V30 81 H 8.3314 0.384237 4.40427 0
M  V30 82 N 7.3905 -1.2043 1.01659 0
M  V30 83 C 8.6205 -1.93496 0.724081 0
M  V30 84 C 9.0285 -1.74998 -0.71918 0
M  V30 85 O 8.3715 -1.06118 -1.49949 0
M  V30 86 C 8.4335 -3.45886 0.97994 0
M  V30 87 C 8.0975 -3.88145 2.41232 0
M  V30 88 C 9.0945 -3.93907 3.39313 0
M  V30 89 C 6.7795 -4.20134 2.75305 0
M  V30 90 C 8.7735 -4.31069 4.6953 0
M  V30 91 C 6.4605 -4.56971 4.05735 0
M  V30 92 C 7.4585 -4.62411 5.02658 0
M  V30 93 O 7.1465 -4.98403 6.30754 0
M  V30 94 H 6.8785 -0.621824 0.265162 0
M  V30 95 H 9.4325 -1.53867 1.36066 0
M  V30 96 H 7.6625 -3.85639 0.286198 0
M  V30 97 H 9.3515 -4.0018 0.679021 0
M  V30 98 H 10.1175 -3.69357 3.14325 0
M  V30 99 H 5.9965 -4.1509 2.00551 0
M  V30 100 H 9.5405 -4.3523 5.45179 0
M  V30 101 H 5.4375 -4.80977 4.30502 0
M  V30 102 H 6.2055 -5.16395 6.35042 0
M  V30 103 N 8.8686 -0.792821 -1.36206 0
M  V30 104 C 10.2846 -0.474903 -1.52371 0
M  V30 105 C 10.4846 1.00622 -1.74578 0
M  V30 106 O 9.5406 1.79162 -1.77924 0
M  V30 107 C 10.8536 -1.3083 -2.70747 0
M  V30 108 C 12.4016 -1.30234 -2.84619 0
M  V30 109 C 12.8766 -2.11956 -4.06004 0
M  V30 110 N 14.3676 -2.09419 -4.13156 0
M  V30 111 C 15.1026 -2.69419 -5.06163 0
M  V30 112 N 14.5986 -3.3829 -6.04592 0
M  V30 113 N 16.3916 -2.59134 -4.98804 0
M  V30 114 H 8.5426 -1.75222 -1.20046 0
M  V30 115 H 10.8056 -0.745024 -0.586211 0
M  V30 116 H 10.5116 -2.35881 -2.6087 0
M  V30 117 H 10.3856 -0.95196 -3.6499 0
M  V30 118 H 12.7726 -0.259748 -2.93955 0
M  V30 119 H 12.8536 -1.69847 -1.91274 0
M  V30 120 H 12.4976 -3.16248 -3.97429 0
M  V30 121 H 12.4276 -1.69711 -4.98503 0
M  V30 122 H 14.9186 -1.59297 -3.42685 0
M  V30 123 H 15.2316 -3.81394 -6.7213 0
M  V30 124 H 13.5766 -3.42393 -6.04807 0
M  V30 125 H 16.7676 -2.04927 -4.20859 0
M  V30 126 H 16.9406 -3.06185 -5.711 0
M  V30 127 N 10.3467 1.47872 -0.545128 0
M  V30 128 C 11.5867 2.04391 -0.0187854 0
M  V30 129 C 11.9507 1.41162 1.30144 0
M  V30 130 O 13.1517 1.88656 1.91474 0
M  V30 131 C 11.4227 3.57299 0.0850867 0
M  V30 132 S 12.9817 4.35221 0.559302 0
M  V30 133 H 9.7997 0.710737 -0.0193301 0
M  V30 134 H 12.4017 1.81395 -0.729125 0
M  V30 135 H 11.1057 4.00847 -0.880351 0
M  V30 136 H 10.6367 3.84773 0.819348 0
M  V30 137 H 12.6517 4.61571 1.82118 0
M  V30 138 N 11.8248 0.280983 1.55075 0
M  V30 139 C 13.0728 -0.333455 1.9933 0
M  V30 140 C 13.3938 -1.55937 1.17085 0
M  V30 141 O 12.6638 -1.94143 0.261805 0
M  V30 142 H 11.2438 -0.126197 0.736263 0
M  V30 143 H 13.9058 0.387678 1.91005 0
M  V30 144 H 13.0018 -0.619292 3.05894 0
M  V30 145 N 13.3029 -1.57598 0.00835791 0
M  V30 146 C 14.5499 -1.90928 -0.674732 0
M  V30 147 C 14.8779 -0.88277 -1.73313 0
M  V30 148 O 14.1329 0.111294 -1.95383 0
M  V30 149 C 14.4319 -3.3101 -1.34787 0
M  V30 150 C 14.0979 -4.48922 -0.421861 0
M  V30 151 C 12.7599 -4.8091 -0.166927 0
M  V30 152 C 15.1119 -5.20755 0.215211 0
M  V30 153 C 12.4399 -5.821 0.733232 0
M  V30 154 C 14.7919 -6.22905 1.1033 0
M  V30 155 C 13.4559 -6.53346 1.36733 0
M  V30 156 H 12.7259 -0.698656 -0.246902 0
M  V30 157 H 15.3729 -1.91387 0.0656779 0
M  V30 158 H 13.6779 -3.26714 -2.16253 0
M  V30 159 H 15.3749 -3.54061 -1.8826 0
M  V30 160 H 11.9649 -4.23934 -0.630729 0
M  V30 161 H 16.1489 -4.9629 0.0312829 0
M  V30 162 H 11.4049 -6.04042 0.945712 0
M  V30 163 H 15.5789 -6.77694 1.60325 0
M  V30 164 H 13.2059 -7.31573 2.06652 0
M  V30 165 N 14.781 0.264519 -1.55364 0
M  V30 166 C 15.713 1.34965 -1.85248 0
M  V30 167 C 16.726 1.45136 -0.737525 0
M  V30 168 O 17.915 1.46801 -1.01547 0
M  V30 169 C 15.015 2.73008 -2.00797 0
M  V30 170 C 14.188 2.85324 -3.31525 0
M  V30 171 C 13.247 4.04097 -3.37034 0
M  V30 172 O 12.273 3.94455 -4.10358 0
M  V30 173 N 13.475 5.16458 -2.65049 0
M  V30 174 H 16.24 1.09672 -2.78913 0
M  V30 175 H 13.801 0.454635 -1.55386 0
M  V30 176 H 15.793 3.50772 -2.01844 0
M  V30 177 H 14.363 2.91087 -1.1396 0
M  V30 178 H 13.583 1.94377 -3.42945 0
M  V30 179 H 14.871 2.9049 -4.17724 0
M  V30 180 H 14.269 5.27181 -2.05175 0
M  V30 181 H 12.826 5.92422 -2.71809 0
M  V30 182 N 16.2591 1.48442 0.529413 0
M  V30 183 C 17.6701 1.5002 1.11134 0
M  V30 184 C 18.0211 0.27031 1.94329 0
M  V30 185 O 17.1461 -0.622507 2.07253 0
M  V30 186 C 17.7411 2.71834 2.02217 0
M  V30 187 C 16.3001 2.76283 2.55627 0
M  V30 188 C 15.4471 2.43542 1.326 0
M  V30 189 H 18.3981 1.5555 0.314641 0
M  V30 190 H 18.4191 2.50384 2.8651 0
M  V30 191 H 17.9311 3.61331 1.41639 0
M  V30 192 H 16.0321 1.90995 3.19924 0
M  V30 193 H 16.1451 3.77725 2.94721 0
M  V30 194 H 14.5091 1.94709 1.64196 0
M  V30 195 H 15.2921 3.3528 0.737734 0
M  V30 196 N 17.7372 -0.778329 1.37039 0
M  V30 197 C 18.9842 -1.53665 1.31884 0
M  V30 198 C 19.3122 -1.9425 -0.0986303 0
M  V30 199 O 18.5672 -1.63832 -1.07041 0
M  V30 200 C 18.8662 -2.81845 2.19768 0
M  V30 201 C 18.5322 -2.60345 3.68146 0
M  V30 202 C 17.1942 -2.5419 4.08584 0
M  V30 203 C 19.5462 -2.40923 4.62175 0
M  V30 204 C 16.8742 -2.26594 5.41177 0
M  V30 205 C 19.2262 -2.14852 5.94997 0
M  V30 206 C 17.8902 -2.07137 6.34547 0
M  V30 207 H 17.1602 -0.562299 0.482598 0
M  V30 208 H 19.8072 -0.897069 1.69189 0
M  V30 209 H 18.1122 -3.50328 1.75436 0
M  V30 210 H 19.8092 -3.39692 2.13097 0
M  V30 211 H 16.3992 -2.65996 3.36072 0
M  V30 212 H 20.5832 -2.44673 4.31797 0
M  V30 213 H 15.8392 -2.19111 5.70789 0
M  V30 214 H 20.0132 -1.98822 6.67415 0
M  V30 215 H 17.6402 -1.85518 7.37216 0
M  V30 216 N 19.2153 -1.21501 -1.00376 0
M  V30 217 C 20.1633 -0.972442 -2.11297 0
M  V30 218 C 21.1573 0.080731 -1.69208 0
M  V30 219 O 22.3633 -0.0707666 -1.79861 0
M  V30 220 H 18.7383 -0.297218 -0.690772 0
M  V30 221 H 20.7093 -1.91394 -2.28934 0
M  V30 222 C 19.4583 -0.555065 -3.43241 0
M  V30 223 H 18.7813 -1.35709 -3.76062 0
M  V30 224 H 20.2213 -0.424664 -4.21868 0
M  V30 225 C 18.6803 0.734147 -3.28804 0
M  V30 226 O 19.2103 1.78937 -3.59645 0
M  V30 227 N 17.4163 0.701133 -2.82015 0
M  V30 228 H 16.9633 -0.157874 -2.57116 0
M  V30 229 H 16.9213 1.56403 -2.72737 0
M  V30 230 N 20.6934 1.19889 -1.02296 0
M  V30 231 C 21.6254 2.22334 -0.556787 0
M  V30 232 C 22.6384 1.58674 0.364199 0
M  V30 233 O 23.8274 1.77768 0.161533 0
M  V30 234 C 20.9274 3.38257 0.208694 0
M  V30 235 C 20.1004 4.31504 -0.71577 0
M  V30 236 C 19.1594 5.262 0.00325597 0
M  V30 237 O 18.1854 5.65798 -0.621357 0
M  V30 238 N 19.3874 5.66303 1.27599 0
M  V30 239 H 22.1524 2.62957 -1.43784 0
M  V30 240 H 19.7134 1.34495 -0.901261 0
M  V30 241 H 21.7054 3.98616 0.699111 0
M  V30 242 H 20.2754 2.96472 0.991102 0
M  V30 243 H 19.4954 3.69016 -1.38638 0
M  V30 244 H 20.7834 4.9072 -1.34428 0
M  V30 245 H 20.1814 5.36155 1.80429 0
M  V30 246 H 18.7384 6.28942 1.71102 0
M  V30 247 N 22.1715 0.800033 1.35784 0
M  V30 248 C 23.1215 0.178654 2.27299 0
M  V30 249 C 24.1055 -0.643667 1.47464 0
M  V30 250 O 25.2975 -0.502 1.69732 0
M  V30 251 C 22.4265 -0.677194 3.36555 0
M  V30 252 C 21.5125 0.154497 4.23818 0
M  V30 253 N 21.9035 1.21427 4.91008 0
M  V30 254 C 20.2015 -0.0649462 4.45953 0
M  V30 255 C 20.9025 1.72147 5.55644 0
M  V30 256 N 19.8785 1.02897 5.33773 0
M  V30 257 H 23.6805 0.989637 2.76737 0
M  V30 258 H 21.1945 0.64054 1.49234 0
M  V30 259 H 23.1915 -1.13835 4.01058 0
M  V30 260 H 21.8515 -1.4866 2.8867 0
M  V30 261 H 22.8625 1.59684 4.92668 0
M  V30 262 H 19.5395 -0.844016 4.0888 0
M  V30 263 H 20.9295 2.60683 6.19269 0
M  V30 264 N 23.6496 -1.47581 0.552962 0
M  V30 265 C 24.5796 -2.32762 -0.185451 0
M  V30 266 C 25.5606 -1.43527 -0.912905 0
M  V30 267 O 26.7456 -1.72388 -0.894201 0
M  V30 268 C 23.8756 -3.25219 -1.21859 0
M  V30 269 C 22.8296 -4.23661 -0.607864 0
M  V30 270 C 22.1556 -5.05413 -1.74533 0
M  V30 271 C 23.4556 -5.20481 0.435582 0
M  V30 272 H 25.1496 -2.94749 0.525684 0
M  V30 273 H 22.6956 -1.41738 0.254251 0
M  V30 274 H 24.6486 -3.8365 -1.7433 0
M  V30 275 H 23.3726 -2.61279 -1.95961 0
M  V30 276 H 22.0316 -3.66451 -0.104489 0
M  V30 277 H 21.6796 -4.3788 -2.47529 0
M  V30 278 H 21.3796 -5.72059 -1.34249 0
M  V30 279 H 22.9036 -5.66701 -2.27338 0
M  V30 280 H 24.3176 -5.733 -0.00290157 0
M  V30 281 H 22.7146 -5.95305 0.757067 0
M  V30 282 H 23.7846 -4.66217 1.33303 0
M  V30 283 N 25.1277 -0.289203 -1.54924 0
M  V30 284 C 26.0577 0.58549 -2.2604 0
M  V30 285 C 27.0387 1.14753 -1.25562 0
M  V30 286 O 28.2237 1.17906 -1.54311 0
M  V30 287 C 25.3537 1.76305 -2.99222 0
M  V30 288 C 24.3077 1.33191 -4.06748 0
M  V30 289 C 23.6337 2.5937 -4.6758 0
M  V30 290 C 24.9337 0.471775 -5.20165 0
M  V30 291 H 26.6277 -0.00763532 -2.99399 0
M  V30 292 H 24.1737 -0.00511229 -1.43999 0
M  V30 293 H 26.1267 2.38097 -3.47689 0
M  V30 294 H 24.8507 2.38223 -2.23422 0
M  V30 295 H 23.5097 0.737121 -3.59113 0
M  V30 296 H 23.1577 3.19576 -3.88433 0
M  V30 297 H 22.8577 2.31228 -5.40192 0
M  V30 298 H 24.3817 3.21985 -5.18804 0
M  V30 299 H 25.7957 0.995056 -5.64599 0
M  V30 300 H 24.1927 0.284639 -5.99425 0
M  V30 301 H 25.2627 -0.506041 -4.82252 0
M  V30 302 N 26.6058 1.57591 -0.0167156 0
M  V30 303 C 28.0168 1.79201 0.523834 0
M  V30 304 C 28.3678 0.925796 1.72984 0
M  V30 305 O 27.4928 0.132792 2.15992 0
M  V30 306 C 28.0878 3.25 0.957091 0
M  V30 307 C 26.6468 3.47648 1.44283 0
M  V30 308 C 25.7938 2.74374 0.401757 0
M  V30 309 H 28.7448 1.56831 -0.242816 0
M  V30 310 H 28.7658 3.34031 1.82219 0
M  V30 311 H 28.2778 3.88019 0.0791415 0
M  V30 312 H 26.3788 2.89866 2.34113 0
M  V30 313 H 26.4918 4.56352 1.45877 0
M  V30 314 H 24.8558 2.39485 0.867121 0
M  V30 315 H 25.6388 3.40102 -0.467513 0
M  V30 316 N 28.0839 -0.256276 1.55502 0
M  V30 317 C 29.3299 -0.982884 1.78076 0
M  V30 318 C 29.6849 -1.83319 0.584109 0
M  V30 319 O 28.9779 -1.86875 -0.422877 0
M  V30 320 C 29.1719 -1.88432 3.03691 0
M  V30 321 C 29.0009 -1.12276 4.35459 0
M  V30 322 C 27.7709 -0.831647 4.98409 0
M  V30 323 C 29.9689 -0.504933 5.11815 0
M  V30 324 N 27.9509 -0.0450423 6.13883 0
M  V30 325 C 29.3219 0.146696 6.19826 0
M  V30 326 C 31.3769 -0.414455 4.96172 0
M  V30 327 C 30.0799 0.880103 7.13895 0
M  V30 328 C 32.1059 0.305398 5.90611 0
M  V30 329 C 31.4679 0.945701 6.98023 0
M  V30 330 H 27.5669 -0.341084 0.703694 0
M  V30 331 H 30.1509 -0.256909 1.92998 0
M  V30 332 H 28.3219 -2.58241 2.90114 0
M  V30 333 H 30.0539 -2.54579 3.14598 0
M  V30 334 H 26.8089 -1.14111 4.59647 0
M  V30 335 H 27.2329 0.336079 6.76165 0
M  V30 336 H 31.8749 -0.895163 4.13215 0
M  V30 337 H 29.5929 1.37244 7.9636 0
M  V30 338 H 33.1789 0.375946 5.80584 0
M  V30 339 H 32.0589 1.49383 7.6984 0
M  V30 340 N 29.562 -1.4872 -0.521534 0
M  V30 341 C 30.808 -1.574 -1.27879 0
M  V30 342 C 31.141 -0.250817 -1.92573 0
M  V30 343 O 30.416 0.743934 -1.79711 0
M  V30 344 C 30.699 -2.71843 -2.36164 0
M  V30 345 C 30.552 -4.13893 -1.76105 0
M  V30 346 C 31.871 -2.82008 -3.37875 0
M  V30 347 H 28.99 -0.572941 -0.463581 0
M  V30 348 H 31.632 -1.80927 -0.580119 0
M  V30 349 H 29.782 -2.51914 -2.95756 0
M  V30 350 H 31.454 -4.45284 -1.20499 0
M  V30 351 H 29.697 -4.20498 -1.06601 0
M  V30 352 H 30.368 -4.89804 -2.5455 0
M  V30 353 H 32.844 -3.00086 -2.88249 0
M  V30 354 H 31.72 -3.63796 -4.11028 0
M  V30 355 H 31.981 -1.90511 -3.98946 0
M  V30 356 N 31.0401 0.771051 -1.3745 0
M  V30 357 C 31.9871 1.88435 -1.3327 0
M  V30 358 C 32.9571 1.64914 -0.198136 0
M  V30 359 O 34.1421 1.86821 -0.387606 0
M  V30 360 C 31.2821 3.25509 -1.14622 0
M  V30 361 C 30.3951 3.60979 -2.37314 0
M  V30 362 C 29.5301 4.87265 -2.11533 0
M  V30 363 C 28.5691 5.15469 -3.30088 0
M  V30 364 N 27.7061 6.32944 -3.03853 0
M  V30 365 H 32.5461 1.91344 -2.28455 0
M  V30 366 H 30.0831 0.935466 -1.13523 0
M  V30 367 H 32.0411 4.04582 -1.01831 0
M  V30 368 H 30.6711 3.21974 -0.230837 0
M  V30 369 H 29.7231 2.76885 -2.60842 0
M  V30 370 H 31.0351 3.77759 -3.25729 0
M  V30 371 H 30.1891 5.74244 -1.95777 0
M  V30 372 H 28.9281 4.7259 -1.20457 0
M  V30 373 H 27.9331 4.26966 -3.46382 0
M  V30 374 H 29.1581 5.32052 -4.22016 0
M  V30 375 H 27.1041 6.19625 -2.15407 0
M  V30 376 H 27.0211 6.50143 -3.85812 0
M  V30 377 H 28.2891 7.22857 -2.91716 0
M  V30 378 N 32.5182 1.22032 0.997298 0
M  V30 379 C 33.7582 1.05375 1.75144 0
M  V30 380 C 34.1222 -0.404696 1.87686 0
M  V30 381 O 35.3232 -0.691998 2.5974 0
M  V30 382 C 33.5942 1.74046 3.12158 0
M  V30 383 S 35.1532 1.72745 4.03366 0
M  V30 384 H 31.9712 0.377449 0.602539 0
M  V30 385 H 34.5732 1.54902 1.19272 0
M  V30 386 H 33.2772 2.79332 3.00669 0
M  V30 387 H 32.8082 1.24731 3.73103 0
M  V30 388 H 34.8232 0.774015 4.90126 0
M  V30 389 N 33.9963 -1.19345 1.0293 0
M  V30 390 C 35.2243 -1.92997 0.745644 0
M  V30 391 C 35.6393 -1.75519 -0.695589 0
M  V30 392 O 34.9963 -1.07737 -1.47306 0
M  V30 393 C 35.0473 -3.44741 1.08792 0
M  V30 394 O 34.7683 -3.61658 2.47256 0
M  V30 395 C 36.2693 -4.35515 0.827129 0
M  V30 396 H 33.4893 -0.613042 0.272801 0
M  V30 397 H 36.0333 -1.51473 1.3739 0
M  V30 398 H 34.1883 -3.84097 0.504832 0
M  V30 399 H 34.6023 -4.55514 2.60015 0
M  V30 400 H 36.0763 -5.40589 1.11658 0
M  V30 401 H 36.5533 -4.38552 -0.238436 0
M  V30 402 H 37.1593 -4.01841 1.39297 0
M  V30 403 N 35.4744 -0.807222 -1.35358 0
M  V30 404 C 36.7024 -0.400377 -2.02989 0
M  V30 405 C 37.1174 0.988859 -1.60832 0
M  V30 406 O 36.4744 1.63729 -0.806175 0
M  V30 407 C 36.5254 -0.474867 -3.58368 0
M  V30 408 O 36.2464 -1.80933 -3.98992 0
M  V30 409 C 37.7474 -0.0609112 -4.43258 0
M  V30 410 H 34.9674 -0.162587 -0.651004 0
M  V30 411 H 37.5114 -1.09102 -1.72965 0
M  V30 412 H 35.6664 0.167534 -3.87038 0
M  V30 413 H 36.0804 -1.77256 -4.9364 0
M  V30 414 H 37.5544 -0.164145 -5.51756 0
M  V30 415 H 38.0314 0.993831 -4.27808 0
M  V30 416 H 38.6374 -0.676492 -4.19885 0
M  V30 417 N 36.9525 1.47285 -0.560781 0
M  V30 418 C 38.1985 2.02764 -0.0381184 0
M  V30 419 C 38.5315 1.43384 1.30976 0
M  V30 420 O 37.8065 0.590733 1.85312 0
M  V30 421 C 38.0895 3.60064 0.0511427 0
M  V30 422 C 37.9425 4.2987 -1.32408 0
M  V30 423 C 39.2615 4.33439 0.762795 0
M  V30 424 H 36.3805 0.736841 -0.0153264 0
M  V30 425 H 39.0225 1.75675 -0.723759 0
M  V30 426 H 37.1725 3.83274 0.635065 0
M  V30 427 H 38.8445 4.17989 -1.95148 0
M  V30 428 H 37.0875 3.90085 -1.8978 0
M  V30 429 H 37.7585 5.38478 -1.21431 0
M  V30 430 H 40.2345 4.15243 0.266965 0
M  V30 431 H 39.1105 5.43124 0.794221 0
M  V30 432 H 39.3715 4.02915 1.81966 0
M  V30 433 N 38.4306 0.297415 1.54768 0
M  V30 434 C 39.6776 -0.312913 2.00068 0
M  V30 435 C 40.0056 -1.54171 1.18582 0
M  V30 436 O 39.2606 -1.94108 0.249133 0
M  V30 437 C 39.5596 -0.717561 3.50123 0
M  V30 438 C 39.2256 0.409095 4.4904 0
M  V30 439 C 37.8876 0.718399 4.75807 0
M  V30 440 C 40.2396 1.16717 5.07963 0
M  V30 441 C 37.5676 1.78896 5.5876 0
M  V30 442 C 39.9196 2.22762 5.92081 0
M  V30 443 C 38.5836 2.54303 6.1716 0
M  V30 444 H 37.8536 -0.114503 0.7321 0
M  V30 445 H 40.5006 0.415767 1.86932 0
M  V30 446 H 38.8056 -1.52627 3.60849 0
M  V30 447 H 40.5026 -1.20091 3.82595 0
M  V30 448 H 37.0926 0.157918 4.28309 0
M  V30 449 H 41.2766 0.941466 4.87289 0
M  V30 450 H 36.5326 2.0381 5.7643 0
M  V30 451 H 40.7066 2.81962 6.36765 0
M  V30 452 H 38.3336 3.3739 6.81229 0
M  V30 453 N 39.9087 -1.5758 0.0250728 0
M  V30 454 C 41.3247 -1.56124 -0.331282 0
M  V30 455 C 41.5247 -1.03029 -1.73169 0
M  V30 456 O 40.5807 -0.675215 -2.43305 0
M  V30 457 C 41.8937 -3.00139 -0.183584 0
M  V30 458 C 43.4417 -3.11946 -0.256654 0
M  V30 459 C 43.9167 -4.57793 -0.137792 0
M  V30 460 N 45.4077 -4.6279 -0.194904 0
M  V30 461 C 46.1427 -5.7326 -0.126655 0
M  V30 462 N 45.6387 -6.928 -0.00755288 0
M  V30 463 N 47.4317 -5.61811 -0.180348 0
M  V30 464 H 39.5827 -1.90424 0.94087 0
M  V30 465 H 41.8457 -0.875761 0.362968 0
M  V30 466 H 41.5517 -3.4292 0.780927 0
M  V30 467 H 41.4257 -3.64899 -0.955448 0
M  V30 468 H 43.8127 -2.69079 -1.21162 0
M  V30 469 H 43.8937 -2.49915 0.545517 0
M  V30 470 H 43.5377 -5.01339 0.813739 0
M  V30 471 H 43.4677 -5.17798 -0.958775 0
M  V30 472 H 45.9587 -3.76807 -0.287267 0
M  V30 473 H 46.2717 -7.72791 0.0379428 0
M  V30 474 H 44.6167 -6.94995 0.0271731 0
M  V30 475 H 47.8077 -4.6731 -0.271767 0
M  V30 476 H 47.9807 -6.47882 -0.123697 0
M  V30 477 N 41.3868 0.248026 -1.55636 0
M  V30 478 C 42.6118 0.998028 -1.81808 0
M  V30 479 C 43.0368 1.78207 -0.601979 0
M  V30 480 O 42.3948 1.75653 0.448961 0
M  V30 481 C 42.4428 1.9125 -3.05705 0
M  V30 482 O 41.5468 3.00406 -2.82542 0
M  V30 483 H 40.8878 0.284045 -0.600179 0
M  V30 484 H 43.4178 0.269357 -2.02819 0
M  V30 485 H 43.4278 2.32737 -3.35108 0
M  V30 486 H 42.1028 1.33602 -3.93857 0
M  V30 487 H 40.6798 2.63056 -2.64303 0
M  V30 488 N 42.8649 1.48995 0.513639 0
M  V30 489 C 43.8149 1.61127 1.61314 0
M  V30 490 C 44.7989 0.467521 1.53958 0
M  V30 491 O 45.9909 0.719826 1.61702 0
M  V30 492 C 43.1199 1.66937 2.99978 0
M  V30 493 C 42.2059 2.86847 3.12377 0
M  V30 494 N 42.5969 4.11078 2.94701 0
M  V30 495 C 40.8949 2.84521 3.43459 0
M  V30 496 C 41.5959 4.91615 3.10949 0
M  V30 497 N 40.5719 4.24739 3.3926 0
M  V30 498 H 44.3739 2.54909 1.46282 0
M  V30 499 H 41.8879 1.45593 0.719483 0
M  V30 500 H 43.8849 1.73725 3.78979 0
M  V30 501 H 42.5449 0.742831 3.16089 0
M  V30 502 H 43.5559 4.41258 2.71131 0
M  V30 503 H 40.2329 2.01192 3.65825 0
M  V30 504 H 41.6229 6.00264 3.01882 0
M  V30 505 N 44.343 -0.763751 1.37857 0
M  V30 506 C 45.583 -1.53551 1.34913 0
M  V30 507 C 45.947 -1.91895 -0.0635882 0
M  V30 508 O 47.148 -2.67916 -0.217825 0
M  V30 509 C 45.419 -2.76126 2.26912 0
M  V30 510 S 46.978 -3.66105 2.41893 0
M  V30 511 H 43.796 -0.52559 0.478828 0
M  V30 512 H 46.398 -0.897435 1.73685 0
M  V30 513 H 45.102 -2.4605 3.28463 0
M  V30 514 H 44.633 -3.44887 1.89253 0
M  V30 515 H 46.648 -4.68473 1.63545 0
M  V30 516 N 45.8211 -1.22559 -0.990812 0
M  V30 517 C 47.0701 -1.04553 -1.72486 0
M  V30 518 C 47.3831 0.419349 -1.91052 0
M  V30 519 O 48.5891 0.719121 -2.61803 0
M  V30 520 C 47.0451 -1.82231 -3.10355 0
M  V30 521 C 46.6531 -3.32981 -2.99713 0
M  V30 522 C 48.3971 -1.7268 -3.87791 0
M  V30 523 C 46.3041 -4.03091 -4.32748 0
M  V30 524 H 45.2341 -0.387614 -0.646739 0
M  V30 525 H 47.8851 -1.46429 -1.10593 0
M  V30 526 H 46.2671 -1.33155 -3.72942 0
M  V30 527 H 47.4411 -3.89466 -2.46278 0
M  V30 528 H 45.7561 -3.43231 -2.35758 0
M  V30 529 H 48.3531 -2.22381 -4.86262 0
M  V30 530 H 48.6961 -0.687607 -4.10582 0
M  V30 531 H 49.2291 -2.1931 -3.31885 0
M  V30 532 H 45.9681 -5.07273 -4.15156 0
M  V30 533 H 45.4881 -3.51394 -4.86089 0
M  V30 534 H 47.1671 -4.08804 -5.01486 0
M  V30 535 N 47.2992 1.18797 -1.03562 0
M  V30 536 C 48.2312 2.21731 -0.580337 0
M  V30 537 C 49.2442 1.59051 0.347349 0
M  V30 538 O 50.4332 1.77929 0.142669 0
M  V30 539 C 47.5332 3.38459 0.172805 0
M  V30 540 C 46.7062 4.3072 -0.761496 0
M  V30 541 C 45.7652 5.26174 -0.0525547 0
M  V30 542 O 44.7912 5.65108 -0.681333 0
M  V30 543 N 45.9932 5.67624 1.21586 0
M  V30 544 H 48.7582 2.61417 -1.46565 0
M  V30 545 H 46.3192 1.33531 -0.915476 0
M  V30 546 H 48.3112 3.99335 0.656793 0
M  V30 547 H 46.8812 2.97507 0.959602 0
M  V30 548 H 46.1012 3.67525 -1.42544 0
M  V30 549 H 47.3892 4.89267 -1.39626 0
M  V30 550 H 46.7872 5.38038 1.74732 0
M  V30 551 H 45.3442 6.30721 1.64421 0
M  V30 552 N 48.7773 0.814389 1.34928 0
M  V30 553 C 50.1883 0.458364 1.80986 0
M  V30 554 C 50.5393 -1.02042 1.67577 0
M  V30 555 O 49.6643 -1.79352 1.21086 0
M  V30 556 C 50.2593 0.825212 3.28597 0
M  V30 557 C 48.8183 0.521677 3.72767 0
M  V30 558 C 47.9653 1.04668 2.56788 0
M  V30 559 H 50.9163 1.00533 1.22795 0
M  V30 560 H 50.9373 0.12571 3.80292 0
M  V30 561 H 50.4493 1.90154 3.38324 0
M  V30 562 H 48.5503 -0.545589 3.68584 0
M  V30 563 H 48.6633 1.05977 4.67232 0
M  V30 564 H 47.0273 0.468622 2.50352 0
M  V30 565 H 47.8103 2.12927 2.6929 0
M  V30 566 N 50.2554 -1.46986 0.568584 0
M  V30 567 C 51.4804 -2.07335 0.0520528 0
M  V30 568 C 51.9054 -1.41675 -1.23733 0
M  V30 569 O 51.2634 -0.495623 -1.74394 0
M  V30 570 C 51.3114 -3.60417 -0.11501 0
M  V30 571 O 50.4154 -3.95309 -1.17492 0
M  V30 572 H 49.7564 -0.661597 0.0564385 0
M  V30 573 H 52.2864 -1.88837 0.787507 0
M  V30 574 H 52.2964 -4.06698 -0.325644 0
M  V30 575 H 50.9714 -4.07601 0.826675 0
M  V30 576 H 49.5484 -3.60757 -0.943869 0
M  V30 577 N 51.7335 -0.305618 -1.54608 0
M  V30 578 C 52.9795 0.302746 -2.00528 0
M  V30 579 C 53.3125 1.53184 -1.19367 0
M  V30 580 O 52.5875 1.92598 -0.271321 0
M  V30 581 C 52.8705 0.654756 -3.54097 0
M  V30 582 C 52.7235 -0.583793 -4.45995 0
M  V30 583 C 54.0425 1.47947 -4.14487 0
M  V30 584 H 51.1615 0.108564 -0.72896 0
M  V30 585 H 53.8035 -0.418634 -1.85331 0
M  V30 586 H 51.9535 1.26935 -3.67178 0
M  V30 587 H 53.6255 -1.22224 -4.44814 0
M  V30 588 H 51.8685 -1.21615 -4.16404 0
M  V30 589 H 52.5395 -0.293287 -5.5122 0
M  V30 590 H 55.0155 0.96013 -4.04871 0
M  V30 591 H 53.8915 1.69454 -5.22088 0
M  V30 592 H 54.1525 2.47011 -3.66658 0
M  V30 593 N 53.2116 1.57565 -0.0334293 0
M  V30 594 C 54.4606 1.91155 0.643639 0
M  V30 595 C 54.7736 0.91192 1.73042 0
M  V30 596 O 55.9796 1.13923 2.46442 0
M  V30 597 C 54.4356 3.39443 1.1961 0
M  V30 598 C 54.0436 4.47774 0.142381 0
M  V30 599 C 55.7876 3.82094 1.84944 0
M  V30 600 C 53.6946 5.87162 0.706727 0
M  V30 601 H 52.6246 0.713368 0.244176 0
M  V30 602 H 55.2756 1.8323 -0.0994323 0
M  V30 603 H 53.6576 3.42313 1.99092 0
M  V30 604 H 54.8316 4.56469 -0.630296 0
M  V30 605 H 53.1466 4.14352 -0.412446 0
M  V30 606 H 55.7436 4.83591 2.2813 0
M  V30 607 H 56.0866 3.17386 2.69392 0
M  V30 608 H 56.6196 3.81665 1.12145 0
M  V30 609 H 53.3586 6.55424 -0.0997178 0
M  V30 610 H 52.8786 5.82064 1.44779 0
M  V30 611 H 54.5576 6.35866 1.19514 0
M  V30 612 N 54.6897 -0.239769 1.55765 0
M  V30 613 C 56.1057 -0.588624 1.48349 0
M  V30 614 C 56.3057 -1.88005 0.72502 0
M  V30 615 O 55.3617 -2.51186 0.257269 0
M  V30 616 C 56.6747 -0.68474 2.928 0
M  V30 617 C 58.2227 -0.77659 3.03213 0
M  V30 618 C 58.6977 -0.904207 4.48986 0
M  V30 619 N 60.1887 -0.968896 4.52953 0
M  V30 620 C 60.9237 -1.08703 5.63002 0
M  V30 621 N 60.4197 -1.17026 6.82845 0
M  V30 622 N 62.2127 -1.12074 5.50814 0
M  V30 623 H 54.3637 0.607911 2.03515 0
M  V30 624 H 56.6267 0.21083 0.924259 0
M  V30 625 H 56.3327 0.194284 3.51163 0
M  V30 626 H 56.2067 -1.55435 3.43686 0
M  V30 627 H 58.5937 -1.64606 2.44926 0
M  V30 628 H 58.6747 0.118315 2.55526 0
M  V30 629 H 58.3187 -0.0392633 5.07885 0
M  V30 630 H 58.2487 -1.81426 4.9436 0
M  V30 631 H 60.7397 -0.915633 3.6664 0
M  V30 632 H 61.0527 -1.25966 7.62465 0
M  V30 633 H 59.3977 -1.13971 6.85591 0
M  V30 634 H 62.5887 -1.05226 4.5612 0
M  V30 635 H 62.7617 -1.20936 6.36615 0
M  V30 636 N 56.1678 -1.49265 -0.50573 0
M  V30 637 C 57.1178 -1.6198 -1.60457 0
M  V30 638 C 58.1018 -0.47568 -1.53708 0
M  V30 639 O 59.2938 -0.728392 -1.61318 0
M  V30 640 C 56.4228 -1.68526 -2.99089 0
M  V30 641 C 55.5088 -2.885 -3.10852 0
M  V30 642 N 55.8998 -4.12635 -2.92517 0
M  V30 643 C 54.1978 -2.86338 -3.41945 0
M  V30 644 C 54.8988 -4.93258 -3.08337 0
M  V30 645 N 53.8748 -4.26533 -3.37003 0
M  V30 646 H 57.6768 -2.55681 -1.44928 0
M  V30 647 H 55.1908 -1.45972 -0.711752 0
M  V30 648 H 57.1878 -1.75732 -3.78053 0
M  V30 649 H 55.8478 -0.759584 -3.1569 0
M  V30 650 H 56.8588 -4.42689 -2.68787 0
M  V30 651 H 53.5358 -2.03129 -3.64753 0
M  V30 652 H 54.9258 -6.01856 -2.98695 0
M  V30 653 N 57.6459 0.756429 -1.3826 0
M  V30 654 C 58.8919 1.51772 -1.34511 0
M  V30 655 C 59.2249 1.94089 0.0656691 0
M  V30 656 O 58.4999 1.65221 1.02626 0
M  V30 657 C 58.7829 2.77226 -2.29821 0
M  V30 658 C 58.6359 2.41065 -3.79747 0
M  V30 659 C 59.9549 3.79236 -2.23312 0
M  V30 660 H 57.0739 0.550578 -0.489931 0
M  V30 661 H 59.7159 0.866607 -1.69086 0
M  V30 662 H 57.8659 3.32784 -2.00467 0
M  V30 663 H 59.5379 1.91303 -4.19763 0
M  V30 664 H 57.7809 1.7356 -3.97567 0
M  V30 665 H 58.4519 3.3081 -4.41892 0
M  V30 666 H 60.9279 3.3321 -2.49219 0
M  V30 667 H 59.8039 4.64714 -2.92116 0
M  V30 668 H 60.0649 4.24615 -1.23102 0
M  V30 669 N 59.124 1.23083 0.984299 0
M  V30 670 C 60.54 0.992637 1.24975 0
M  V30 671 C 60.74 -0.308618 1.99123 0
M  V30 672 O 59.796 -1.02905 2.30579 0
M  V30 673 C 61.109 2.19698 2.05312 0
M  V30 674 C 62.657 2.24147 2.18465 0
M  V30 675 C 63.132 3.44157 3.02192 0
M  V30 676 N 64.623 3.44372 3.09777 0
M  V30 677 C 65.358 4.33886 3.74874 0
M  V30 678 N 64.854 5.3363 4.41827 0
M  V30 679 N 66.647 4.21639 3.71721 0
M  V30 680 H 58.798 2.06731 0.487453 0
M  V30 681 H 61.061 0.906339 0.277944 0
M  V30 682 H 60.767 3.1411 1.58201 0
M  V30 683 H 60.641 2.20465 3.06064 0
M  V30 684 H 63.028 1.30277 2.64786 0
M  V30 685 H 63.109 2.27415 1.17115 0
M  V30 686 H 62.753 4.38332 2.56568 0
M  V30 687 H 62.683 3.3813 4.03702 0
M  V30 688 H 65.174 2.72201 2.62135 0
M  V30 689 H 65.487 5.98196 4.89266 0
M  V30 690 H 63.832 5.37534 4.40548 0
M  V30 691 H 67.023 3.42962 3.18582 0
M  V30 692 H 67.196 4.91604 4.22173 0
M  V30 693 N 60.6021 -1.18246 1.0419 0
M  V30 694 C 61.8271 -1.92736 0.765996 0
M  V30 695 C 62.2521 -1.75728 -0.67091 0
M  V30 696 O 61.6101 -1.06825 -1.46486 0
M  V30 697 C 61.6581 -3.42148 1.13875 0
M  V30 698 O 60.7621 -4.11548 0.264954 0
M  V30 699 H 60.1031 -0.601238 0.281797 0
M  V30 700 H 62.6331 -1.49942 1.39207 0
M  V30 701 H 62.6431 -3.92858 1.1012 0
M  V30 702 H 61.3181 -3.53848 2.18551 0
M  V30 703 H 59.8951 -3.71137 0.362226 0
M  V30 704 N 62.0802 -0.821533 -1.34494 0
M  V30 705 C 63.3262 -0.418729 -1.99043 0
M  V30 706 C 63.6812 1.00672 -1.6396 0
M  V30 707 O 62.9742 1.69132 -0.900271 0
M  V30 708 C 63.1682 -0.556512 -3.53041 0
M  V30 709 C 62.9972 -1.9938 -4.03085 0
M  V30 710 C 61.7672 -2.62539 -4.31742 0
M  V30 711 C 63.9652 -2.96035 -4.20556 0
M  V30 712 N 61.9472 -3.97523 -4.67813 0
M  V30 713 C 63.3182 -4.15924 -4.59791 0
M  V30 714 C 65.3732 -2.9267 -4.02801 0
M  V30 715 C 64.0762 -5.32899 -4.83126 0
M  V30 716 C 66.1022 -4.08861 -4.27302 0
M  V30 717 C 65.4642 -5.275 -4.66822 0
M  V30 718 H 61.5632 -0.201299 -0.755647 0
M  V30 719 H 64.1472 -1.06594 -1.62929 0
M  V30 720 H 62.3182 0.0607924 -3.88352 0
M  V30 721 H 64.0502 -0.126842 -4.04501 0
M  V30 722 H 60.8052 -2.13789 -4.22601 0
M  V30 723 H 61.2292 -4.67061 -4.90085 0
M  V30 724 H 65.8712 -2.02088 -3.71376 0
M  V30 725 H 63.5892 -6.24041 -5.13418 0
M  V30 726 H 67.1752 -4.07654 -4.15101 0
M  V30 727 H 66.0552 -6.15913 -4.85408 0
M  V30 728 N 63.5583 1.46682 -0.576371 0
M  V30 729 C 64.7833 2.07304 -0.0630475 0
M  V30 730 C 65.2083 1.42329 1.2298 0
M  V30 731 O 64.5663 0.504865 1.74129 0
M  V30 732 C 64.6143 3.60472 0.095895 0
M  V30 733 O 63.7183 3.95927 1.15394 0
M  V30 734 H 63.0593 0.661288 -0.0599463 0
M  V30 735 H 65.5893 1.88417 -0.797511 0
M  V30 736 H 65.5993 4.06865 0.304071 0
M  V30 737 H 64.2743 4.07157 -0.84828 0
M  V30 738 H 62.8513 3.61252 0.924724 0
M  V30 739 N 65.0364 0.313813 1.54444 0
M  V30 740 C 65.9844 -0.572171 2.25453 0
M  V30 741 C 66.9784 -1.12657 1.2651 0
M  V30 742 O 68.1844 -1.07573 1.44319 0
M  V30 743 H 64.5594 -0.203146 0.724041 0
M  V30 744 H 66.5304 0.0491145 2.9836 0
M  V30 745 C 65.2794 -1.72626 3.0182 0
M  V30 746 H 64.6024 -1.30891 3.77767 0
M  V30 747 H 66.0424 -2.32199 3.54767 0
M  V30 748 C 64.5014 -2.63806 2.09542 0
M  V30 749 O 65.0314 -3.65256 1.67185 0
M  V30 750 N 63.2374 -2.31824 1.75232 0
M  V30 751 H 62.7844 -1.49368 2.09873 0
M  V30 752 H 62.7424 -2.93095 1.13767 0
M  V30 753 N 66.5145 -1.57545 0.0417849 0
M  V30 754 C 67.7635 -1.91494 -0.633492 0
M  V30 755 C 68.0765 -0.921084 -1.72556 0
M  V30 756 O 69.2825 -1.15228 -2.45835 0
M  V30 757 C 67.7385 -3.40072 -1.17808 0
M  V30 758 C 67.3465 -4.47843 -0.118633 0
M  V30 759 C 69.0905 -3.8307 -1.82915 0
M  V30 760 C 66.9975 -5.87529 -0.675578 0
M  V30 761 H 65.9275 -0.714653 -0.24039 0
M  V30 762 H 68.5785 -1.83175 0.109148 0
M  V30 763 H 66.9605 -3.43364 -1.97274 0
M  V30 764 H 68.1345 -4.56128 0.654494 0
M  V30 765 H 66.4495 -4.14128 0.434414 0
M  V30 766 H 69.0465 -4.84794 -2.25563 0
M  V30 767 H 69.3895 -3.1881 -2.67705 0
M  V30 768 H 69.9225 -3.82255 -1.10119 0
M  V30 769 H 66.6615 -6.55362 0.134475 0
M  V30 770 H 66.1815 -5.82824 -1.4169 0
M  V30 771 H 67.8605 -6.36491 -1.1614 0
M  V30 772 N 67.9926 0.231505 -1.5589 0
M  V30 773 C 69.4036 0.799327 -1.68724 0
M  V30 774 C 69.7546 1.85398 -0.642022 0
M  V30 775 O 68.8796 2.1539 0.208784 0
M  V30 776 C 69.4746 1.45664 -3.05888 0
M  V30 777 C 68.0336 1.97197 -3.20609 0
M  V30 778 C 67.1806 0.828552 -2.64632 0
M  V30 779 H 70.1316 0.00702616 -1.58698 0
M  V30 780 H 70.1526 2.32517 -3.01191 0
M  V30 781 H 69.6646 0.688808 -3.81939 0
M  V30 782 H 67.7656 2.76813 -2.4941 0
M  V30 783 H 67.8786 2.15878 -4.27707 0
M  V30 784 H 66.2426 1.23321 -2.22854 0
M  V30 785 H 67.0256 0.0735544 -3.43221 0
M  V30 786 N 69.4707 1.49531 0.497807 0
M  V30 787 C 70.7177 1.59179 1.25173 0
M  V30 788 C 71.0457 0.279932 1.92475 0
M  V30 789 O 70.3007 -0.732383 1.81479 0
M  V30 790 C 70.5997 2.70252 2.33878 0
M  V30 791 C 70.2657 4.11644 1.84012 0
M  V30 792 C 68.9277 4.50121 1.70132 0
M  V30 793 C 71.2797 5.00121 1.46725 0
M  V30 794 C 68.6077 5.74845 1.17348 0
M  V30 795 C 70.9597 6.25366 0.95392 0
M  V30 796 C 69.6237 6.6267 0.801538 0
M  V30 797 H 68.8937 0.582478 0.45804 0
M  V30 798 H 71.5407 1.83373 0.551948 0
M  V30 799 H 69.8457 2.40041 3.09657 0
M  V30 800 H 71.5427 2.74925 2.9192 0
M  V30 801 H 68.1327 3.81274 1.95775 0
M  V30 802 H 72.3167 4.71048 1.56294 0
M  V30 803 H 67.5727 6.02444 1.04264 0
M  V30 804 H 71.7467 6.93301 0.656225 0
M  V30 805 H 69.3737 7.59197 0.390351 0
M  V30 806 N 70.9488 -0.749086 1.3866 0
M  V30 807 C 72.1978 -1.50371 1.3443 0
M  V30 808 C 72.5108 -1.95503 -0.0616397 0
M  V30 809 O 73.7168 -2.70554 -0.226489 0
M  V30 810 C 72.1728 -2.71644 2.36088 0
M  V30 811 C 71.7808 -2.3352 3.82325 0
M  V30 812 C 73.5248 -3.49518 2.40909 0
M  V30 813 C 71.4318 -3.51431 4.75658 0
M  V30 814 H 70.3618 -0.564628 0.499712 0
M  V30 815 H 73.0128 -0.818449 1.64237 0
M  V30 816 H 71.3948 -3.42175 1.9933 0
M  V30 817 H 72.5688 -1.70627 4.28046 0
M  V30 818 H 70.8838 -1.6877 3.80665 0
M  V30 819 H 73.4808 -4.37197 3.07836 0
M  V30 820 H 73.8238 -3.90992 1.42937 0
M  V30 821 H 74.3568 -2.86005 2.76489 0
M  V30 822 H 71.0958 -3.15019 5.74842 0
M  V30 823 H 70.6158 -4.13352 4.34627 0
M  V30 824 H 72.2948 -4.17953 4.93887 0
M  V30 825 N 72.4269 -1.23603 -0.977757 0
M  V30 826 C 73.6549 -1.09646 -1.75458 0
M  V30 827 C 74.0699 0.351859 -1.85492 0
M  V30 828 O 73.4269 1.24327 -1.336 0
M  V30 829 C 73.4779 -1.71895 -3.18016 0
M  V30 830 O 73.1989 -3.11063 -3.08498 0
M  V30 831 C 74.6999 -1.63415 -4.12081 0
M  V30 832 H 71.9199 -0.38359 -0.550545 0
M  V30 833 H 74.4639 -1.63507 -1.22824 0
M  V30 834 H 72.6189 -1.22061 -3.67668 0
M  V30 835 H 73.0329 -3.41305 -3.9826 0
M  V30 836 H 74.5069 -2.11669 -5.09804 0
M  V30 837 H 74.9839 -0.593462 -4.35172 0
M  V30 838 H 75.5899 -2.12628 -3.68334 0
M  V30 839 N 73.905 1.17692 -1.04816 0
M  V30 840 C 75.151 1.88137 -0.75711 0
M  V30 841 C 75.484 1.80604 0.713841 0
M  V30 842 O 74.759 1.21146 1.52164 0
M  V30 843 C 75.042 3.38318 -1.2334 0
M  V30 844 C 74.895 3.54622 -2.76701 0
M  V30 845 C 76.214 4.32214 -0.829415 0
M  V30 846 H 73.333 0.683163 -0.27651 0
M  V30 847 H 75.975 1.38424 -1.30149 0
M  V30 848 H 74.125 3.80787 -0.770286 0
M  V30 849 H 75.797 3.21194 -3.31107 0
M  V30 850 H 74.04 2.97026 -3.16161 0
M  V30 851 H 74.711 4.60028 -3.05088 0
M  V30 852 H 77.187 3.97565 -1.22805 0
M  V30 853 H 76.063 5.35838 -1.19033 0
M  V30 854 H 76.324 4.41294 0.266891 0
M  V30 855 N 75.3831 0.828654 1.34056 0
M  V30 856 C 76.7941 0.477534 1.8049 0
M  V30 857 C 77.1451 -1.00258 1.6865 0
M  V30 858 O 76.2701 -1.78057 1.22982 0
M  V30 859 C 76.8651 0.860018 3.27703 0
M  V30 860 C 75.4241 0.561185 3.72193 0
M  V30 861 C 74.5711 1.07385 2.55663 0
M  V30 862 H 77.5221 1.0183 1.21722 0
M  V30 863 H 77.5431 0.166038 3.80138 0
M  V30 864 H 77.0551 1.93731 3.36288 0
M  V30 865 H 75.1561 -0.506465 3.69142 0
M  V30 866 H 75.2691 1.10926 4.66082 0
M  V30 867 H 73.6331 0.495149 2.49841 0
M  V30 868 H 74.4161 2.15771 2.67016 0
M  V30 869 N 76.8612 -1.46375 0.584142 0
M  V30 870 C 77.7912 -2.33103 -0.136037 0
M  V30 871 C 78.7722 -1.45431 -0.882255 0
M  V30 872 O 79.9572 -1.74246 -0.857434 0
M  V30 873 C 77.0872 -3.27731 -1.14933 0
M  V30 874 C 76.0412 -4.24855 -0.517862 0
M  V30 875 C 75.3672 -5.09001 -1.63773 0
M  V30 876 C 76.6672 -5.19439 0.545886 0
M  V30 877 H 78.3612 -2.93568 0.588086 0
M  V30 878 H 75.9072 -1.41166 0.284259 0
M  V30 879 H 77.8602 -3.87261 -1.66153 0
M  V30 880 H 76.5842 -2.65377 -1.90375 0
M  V30 881 H 75.2432 -3.6659 -0.0267361 0
M  V30 882 H 74.8912 -4.43031 -2.38185 0
M  V30 883 H 74.5912 -5.74777 -1.22085 0
M  V30 884 H 76.1152 -5.71396 -2.15266 0
M  V30 885 H 77.5292 -5.73177 0.118704 0
M  V30 886 H 75.9262 -5.93566 0.88317 0
M  V30 887 H 76.9962 -4.63285 1.43162 0
M  V30 888 N 78.3393 -0.321999 -1.54275 0
M  V30 889 C 79.5643 0.285791 -2.05422 0
M  V30 890 C 79.9893 1.45124 -1.19669 0
M  V30 891 O 79.3473 1.80132 -0.205441 0
M  V30 892 C 79.3953 0.69956 -3.53749 0
M  V30 893 O 78.4993 1.8021 -3.70942 0
M  V30 894 H 77.8403 0.0518962 -0.661969 0
M  V30 895 H 80.3703 -0.469954 -1.9913 0
M  V30 896 H 80.3803 0.982649 -3.9599 0
M  V30 897 H 79.0553 -0.152864 -4.15619 0
M  V30 898 H 77.6323 1.51794 -3.40607 0
M  V30 899 N 79.8174 1.5752 -0.0501392 0
M  V30 900 C 81.2334 1.56631 0.306402 0
M  V30 901 C 81.4334 1.0577 1.71508 0
M  V30 902 O 80.4894 0.713837 2.422 0
M  V30 903 C 81.8024 3.00393 0.135811 0
M  V30 904 C 83.3504 3.12315 0.206993 0
M  V30 905 C 83.8254 4.57954 0.064944 0
M  V30 906 N 85.3164 4.63041 0.121254 0
M  V30 907 C 86.0514 5.73389 0.0354381 0
M  V30 908 N 85.5474 6.92724 -0.102666 0
M  V30 909 N 87.3404 5.62026 0.090946 0
M  V30 910 H 79.4914 1.88903 -0.971046 0
M  V30 911 H 81.7544 0.869876 -0.376855 0
M  V30 912 H 81.4604 3.41635 -0.835384 0
M  V30 913 H 81.3344 3.66373 0.897275 0
M  V30 914 H 83.7214 2.70973 1.16866 0
M  V30 915 H 83.8024 2.49016 -0.585208 0
M  V30 916 H 83.4464 4.99981 -0.893394 0
M  V30 917 H 83.3764 5.19258 0.876277 0
M  V30 918 H 85.8674 3.77216 0.227284 0
M  V30 919 H 86.1804 7.72633 -0.160882 0
M  V30 920 H 84.5254 6.94864 -0.137737 0
M  V30 921 H 87.7164 4.67684 0.197388 0
M  V30 922 H 87.8894 6.47997 0.0206089 0
M  V30 923 N 81.2955 -0.223234 1.56011 0
M  V30 924 C 82.5235 -0.964812 1.83027 0
M  V30 925 C 82.9385 -1.78013 0.62904 0
M  V30 926 O 82.2955 -1.78008 -0.402414 0
M  V30 927 C 82.3465 -1.88373 3.08542 0
M  V30 928 O 82.0675 -1.10137 4.2403 0
M  V30 929 C 83.5685 -2.73934 3.48533 0
M  V30 930 H 80.7885 -0.282842 0.608475 0
M  V30 931 H 83.3325 -0.238971 2.03099 0
M  V30 932 H 81.4875 -2.56354 2.9045 0
M  V30 933 H 81.9015 -1.72501 4.95322 0
M  V30 934 H 83.3755 -3.34117 4.39397 0
M  V30 935 H 83.8525 -3.46244 2.70207 0
M  V30 936 H 84.4585 -2.11369 3.69057 0
M  V30 937 N 82.7736 -1.49793 -0.48987 0
M  V30 938 C 83.7236 -1.63673 -1.5873 0
M  V30 939 C 84.7076 -0.491956 -1.53195 0
M  V30 940 O 85.8996 -0.745461 -1.60536 0
M  V30 941 C 83.0286 -1.71689 -2.97284 0
M  V30 942 C 82.1146 -2.91781 -3.07774 0
M  V30 943 N 82.5056 -4.15714 -2.88124 0
M  V30 944 C 80.8036 -2.89949 -3.38889 0
M  V30 945 C 81.5046 -4.965 -3.03088 0
M  V30 946 N 80.4806 -4.30083 -3.3246 0
M  V30 947 H 84.2826 -2.57204 -1.42208 0
M  V30 948 H 81.7966 -1.46719 -0.69623 0
M  V30 949 H 83.7936 -1.79732 -3.76168 0
M  V30 950 H 82.4536 -0.793024 -3.14867 0
M  V30 951 H 83.4646 -4.45515 -2.64077 0
M  V30 952 H 80.1416 -2.06987 -3.62578 0
M  V30 953 H 81.5316 -6.04991 -2.92294 0
M  V30 954 N 84.2517 0.741722 -1.39055 0
M  V30 955 C 85.4997 1.49818 -1.35643 0
M  V30 956 C 85.8207 1.94938 0.0491642 0
M  V30 957 O 85.0907 1.68505 0.999141 0
M  V30 958 H 83.6707 0.555755 -0.499144 0
M  V30 959 H 86.3327 0.880957 -1.73854 0
M  V30 960 H 85.4287 2.38348 -2.01486 0
M  V30 961 N 85.7298 1.2412 0.971189 0
M  V30 962 C 86.6768 1.0305 2.06517 0
M  V30 963 C 87.6468 -0.0550666 1.66009 0
M  V30 964 O 88.8318 0.0988688 1.90544 0
M  V30 965 C 85.9718 0.637653 3.39158 0
M  V30 966 C 85.0848 1.79633 3.92882 0
M  V30 967 C 84.2198 1.34939 5.13775 0
M  V30 968 C 83.2588 2.47823 5.59687 0
M  V30 969 N 82.3958 2.04022 6.71803 0
M  V30 970 H 87.2358 1.96685 2.23873 0
M  V30 971 H 84.7728 0.979694 1.09729 0
M  V30 972 H 86.7308 0.390931 4.15364 0
M  V30 973 H 85.3608 -0.261693 3.21737 0
M  V30 974 H 84.4128 2.15681 3.13346 0
M  V30 975 H 85.7248 2.64466 4.22918 0
M  V30 976 H 84.8788 1.06134 5.97345 0
M  V30 977 H 83.6178 0.471557 4.85415 0
M  V30 978 H 82.6228 2.77392 4.74693 0
M  V30 979 H 83.8478 3.36158 5.90063 0
M  V30 980 H 81.7938 1.18632 6.45184 0
M  V30 981 H 81.7108 2.82409 7.01271 0
M  V30 982 H 82.9788 1.78347 7.58823 0
M  V30 983 N 87.2079 -1.17134 1.05439 0
M  V30 984 C 88.4329 -1.91913 0.786396 0
M  V30 985 C 88.8579 -1.7643 -0.652234 0
M  V30 986 O 88.2159 -1.08372 -1.45345 0
M  V30 987 C 88.2639 -3.40921 1.17497 0
M  V30 988 O 87.3679 -4.11244 0.308589 0
M  V30 989 H 86.7089 -0.598215 0.288158 0
M  V30 990 H 89.2389 -1.48457 1.4079 0
M  V30 991 H 89.2489 -3.91668 1.14281 0
M  V30 992 H 87.9239 -3.5151 2.22292 0
M  V30 993 H 86.5009 -3.70731 0.40157 0
M  V30 994 N 88.686 -0.835752 -1.33615 0
M  V30 995 C 89.933 -0.429959 -1.97883 0
M  V30 996 C 90.261 1.01006 -1.66217 0
M  V30 997 O 89.516 1.72047 -0.93265 0
M  V30 998 C 89.815 -0.593925 -3.52431 0
M  V30 999 C 89.481 -2.00158 -4.04039 0
M  V30 1000 C 88.143 -2.38662 -4.17844 0
M  V30 1001 C 90.495 -2.92117 -4.31644 0
M  V30 1002 C 87.823 -3.68435 -4.56588 0
M  V30 1003 C 90.175 -4.21368 -4.71838 0
M  V30 1004 C 88.839 -4.59833 -4.83849 0
M  V30 1005 H 88.109 -0.157333 -0.724104 0
M  V30 1006 H 90.756 -1.06217 -1.59343 0
M  V30 1007 H 89.061 0.121619 -3.91611 0
M  V30 1008 H 90.758 -0.260282 -4.00154 0
M  V30 1009 H 87.348 -1.69252 -3.93766 0
M  V30 1010 H 91.532 -2.63608 -4.20505 0
M  V30 1011 H 86.788 -3.98046 -4.64079 0
M  V30 1012 H 90.962 -4.92703 -4.92155 0
M  V30 1013 H 88.589 -5.60438 -5.13627 0
M  V30 1014 N 90.1641 1.46063 -0.591896 0
M  V30 1015 C 91.1271 2.28854 0.125973 0
M  V30 1016 C 92.1271 1.38903 0.810107 0
M  V30 1017 O 93.3171 1.61186 0.66066 0
M  V30 1018 C 90.4491 3.19526 1.1881 0
M  V30 1019 H 91.6421 2.93802 -0.601717 0
M  V30 1020 H 89.1951 1.52325 -0.350254 0
M  V30 1021 H 89.9301 2.59345 1.94707 0
M  V30 1022 H 89.7151 3.85766 0.701936 0
M  V30 1023 H 91.2051 3.81817 1.69132 0
M  V30 1024 N 91.6422 0.330177 1.54103 0
M  V30 1025 C 92.5922 -0.548456 2.21305 0
M  V30 1026 C 93.5762 -1.07651 1.19583 0
M  V30 1027 O 94.7682 -1.01243 1.45186 0
M  V30 1028 C 91.8972 -1.70559 2.97934 0
M  V30 1029 C 90.9832 -1.19212 4.07 0
M  V30 1030 N 91.3742 -0.398831 5.04225 0
M  V30 1031 C 89.6722 -1.47024 4.2107 0
M  V30 1032 C 90.3732 -0.121761 5.81573 0
M  V30 1033 N 89.3492 -0.709722 5.38947 0
M  V30 1034 H 93.1512 0.0648483 2.93828 0
M  V30 1035 H 90.6652 0.136363 1.61826 0
M  V30 1036 H 92.6622 -2.34688 3.44568 0
M  V30 1037 H 91.3222 -2.32231 2.26934 0
M  V30 1038 H 92.3332 -0.0410869 5.17884 0
M  V30 1039 H 89.0102 -2.09232 3.61287 0
M  V30 1040 H 90.4002 0.517298 6.69906 0
M  V30 1041 N 93.1203 -1.57491 0.0584922 0
M  V30 1042 C 94.5363 -1.56792 -0.298091 0
M  V30 1043 C 94.7363 -1.06679 -1.70944 0
M  V30 1044 O 93.7923 -0.726672 -2.41818 0
M  V30 1045 C 95.1053 -3.00461 -0.119879 0
M  V30 1046 C 96.6533 -3.1242 -0.190428 0
M  V30 1047 C 97.1283 -4.57982 -0.0406567 0
M  V30 1048 N 98.6193 -4.63099 -0.0966958 0
M  V30 1049 C 99.3543 -5.734 -0.00502943 0
M  V30 1050 N 98.8503 -6.9266 0.139402 0
M  V30 1051 N 100.643 -5.62067 -0.0611391 0
M  V30 1052 H 92.7943 -1.88386 0.98105 0
M  V30 1053 H 95.0573 -0.867865 0.381463 0
M  V30 1054 H 94.7633 -3.41187 0.85349 0
M  V30 1055 H 94.6373 -3.66843 -0.877833 0
M  V30 1056 H 97.0243 -2.71589 -1.15427 0
M  V30 1057 H 97.1053 -2.48702 0.598405 0
M  V30 1058 H 96.7493 -4.995 0.919897 0
M  V30 1059 H 96.6793 -5.19715 -0.848727 0
M  V30 1060 H 99.1703 -3.77331 -0.207277 0
M  V30 1061 H 99.4833 -7.72536 0.201855 0
M  V30 1062 H 97.8283 -6.94781 0.174586 0
M  V30 1063 H 101.019 -4.67782 -0.172583 0
M  V30 1064 H 101.192 -6.47999 0.0137562 0
M  V30 1065 N 94.5984 0.214957 -1.56127 0
M  V30 1066 C 95.8234 0.95924 -1.83884 0
M  V30 1067 C 96.2484 1.7689 -0.639644 0
M  V30 1068 O 95.6064 1.76566 0.411601 0
M  V30 1069 C 95.6544 1.84723 -3.09693 0
M  V30 1070 O 94.7584 2.94346 -2.8885 0
M  V30 1071 H 94.0994 0.27125 -0.606069 0
M  V30 1072 H 96.6294 0.226276 -2.03345 0
M  V30 1073 H 96.6394 2.25576 -3.39969 0
M  V30 1074 H 95.3144 1.25218 -3.96602 0
M  V30 1075 H 93.8914 2.57391 -2.69823 0
M  V30 1076 N 96.0765 1.50051 0.48192 0
M  V30 1077 C 96.9865 1.7089 1.60728 0
M  V30 1078 C 98.0025 0.591788 1.63627 0
M  V30 1079 O 99.1785 0.868817 1.81696 0
M  V30 1080 C 96.2435 1.78855 2.97005 0
M  V30 1081 C 95.3045 3.02537 3.04581 0
M  V30 1082 C 94.5375 3.10112 4.34357 0
M  V30 1083 O 94.7605 2.24765 5.24249 0
M  V30 1084 O 93.6945 4.02747 4.47301 0
M  V30 1085 H 97.5205 2.66264 1.46072 0
M  V30 1086 H 95.1055 1.34018 0.660264 0
M  V30 1087 H 96.9875 1.86336 3.77964 0
M  V30 1088 H 95.6625 0.866628 3.11883 0
M  V30 1089 H 94.5695 3.00563 2.22739 0
M  V30 1090 H 95.9025 3.94272 2.94636 0
M  V30 1091 N 97.5546 -0.734337 1.39446 0
M  V30 1092 C 98.4846 -1.86155 1.40955 0
M  V30 1093 C 99.4656 -1.67898 0.272827 0
M  V30 1094 O 100.651 -1.88207 0.478743 0
M  V30 1095 C 97.7806 -3.23912 1.25294 0
M  V30 1096 C 96.7346 -3.56808 2.36373 0
M  V30 1097 C 96.0606 -4.93508 2.058 0
M  V30 1098 C 97.3606 -3.59713 3.78687 0
M  V30 1099 H 99.0546 -1.8515 2.35287 0
M  V30 1100 H 96.6006 -0.889367 1.13253 0
M  V30 1101 H 98.5536 -4.02443 1.2497 0
M  V30 1102 H 97.2776 -3.25446 0.274308 0
M  V30 1103 H 95.9366 -2.80606 2.35914 0
M  V30 1104 H 95.5846 -4.91623 1.06374 0
M  V30 1105 H 95.2846 -5.16486 2.80208 0
M  V30 1106 H 96.8086 -5.74396 2.07128 0
M  V30 1107 H 98.2226 -4.2832 3.81071 0
M  V30 1108 H 96.6196 -3.94209 4.52459 0
M  V30 1109 H 97.6896 -2.59504 4.09617 0
M  V30 1110 N 99.0327 -1.24633 -0.964593 0
M  V30 1111 C 99.9797 -1.04144 -2.05968 0
M  V30 1112 C 100.95 0.046262 -1.66036 0
M  V30 1113 O 102.135 -0.108972 -1.90489 0
M  V30 1114 C 99.2747 -0.65563 -3.38815 0
M  V30 1115 C 98.3877 -1.81714 -3.91923 0
M  V30 1116 C 97.5227 -1.37662 -5.13052 0
M  V30 1117 C 96.5617 -2.50788 -5.58365 0
M  V30 1118 N 95.6987 -2.07582 -6.70712 0
M  V30 1119 H 100.539 -1.9787 -2.22827 0
M  V30 1120 H 98.0757 -0.9855 -1.09208 0
M  V30 1121 H 100.034 -0.412954 -4.15151 0
M  V30 1122 H 98.6637 0.244627 -3.21872 0
M  V30 1123 H 97.7157 -2.1734 -3.12198 0
M  V30 1124 H 99.0277 -2.66705 -4.21509 0
M  V30 1125 H 98.1817 -1.093 -5.96773 0
M  V30 1126 H 96.9207 -0.497293 -4.85158 0
M  V30 1127 H 95.9257 -2.79906 -4.73215 0
M  V30 1128 H 97.1507 -3.39283 -5.88272 0
M  V30 1129 H 95.0967 -1.22051 -6.44546 0
M  V30 1130 H 95.0137 -2.86125 -6.99763 0
M  V30 1131 H 96.2817 -1.82369 -7.57867 0
M  V30 1132 N 100.511 1.16574 -1.06058 0
M  V30 1133 C 101.461 2.18854 -0.63929 0
M  V30 1134 C 102.445 1.57505 0.328798 0
M  V30 1135 O 103.637 1.76408 0.144623 0
M  V30 1136 C 100.766 3.43291 -0.0247203 0
M  V30 1137 C 99.8518 4.11722 -1.01716 0
M  V30 1138 N 100.243 4.55841 -2.19186 0
M  V30 1139 C 98.5408 4.37872 -0.847569 0
M  V30 1140 C 99.2418 5.08751 -2.82042 0
M  V30 1141 N 98.2178 5.01489 -2.09784 0
M  V30 1142 H 102.02 2.5068 -1.53417 0
M  V30 1143 H 99.5338 1.32999 -0.931935 0
M  V30 1144 H 101.531 4.15856 0.294915 0
M  V30 1145 H 100.191 3.12954 0.865448 0
M  V30 1146 H 101.202 4.49649 -2.56975 0
M  V30 1147 H 97.8788 4.17499 -0.00918848 0
M  V30 1148 H 99.2688 5.52944 -3.81709 0
M  V30 1149 N 101.989 0.842826 1.3317 0
M  V30 1150 C 102.952 0.284065 2.27433 0
M  V30 1151 C 103.952 -0.54948 1.5112 0
M  V30 1152 O 105.142 -0.362699 1.70382 0
M  V30 1153 C 102.274 -0.599384 3.35589 0
M  V30 1154 H 103.467 1.11589 2.78366 0
M  V30 1155 H 101.02 0.616221 1.4364 0
M  V30 1156 H 101.755 -1.45349 2.89904 0
M  V30 1157 H 101.54 -0.00291266 3.921 0
M  V30 1158 H 103.03 -0.983488 4.05854 0
M  V30 1159 N 103.467 -1.45747 0.599634 0
M  V30 1160 C 104.414 -2.30467 -0.123849 0
M  V30 1161 C 105.384 -1.41632 -0.86774 0
M  V30 1162 O 106.569 -1.70568 -0.855056 0
M  V30 1163 C 103.709 -3.26402 -1.12051 0
M  V30 1164 C 102.822 -4.3034 -0.37832 0
M  V30 1165 C 101.957 -5.13389 -1.364 0
M  V30 1166 C 100.996 -6.09061 -0.609171 0
M  V30 1167 N 100.133 -6.84918 -1.54374 0
M  V30 1168 H 104.973 -2.91802 0.604627 0
M  V30 1169 H 102.51 -1.43797 0.309972 0
M  V30 1170 H 104.468 -3.80482 -1.7114 0
M  V30 1171 H 103.098 -2.66839 -1.8165 0
M  V30 1172 H 102.15 -3.78984 0.327929 0
M  V30 1173 H 103.462 -4.98354 0.210997 0
M  V30 1174 H 102.616 -5.7183 -2.02719 0
M  V30 1175 H 101.355 -4.45376 -1.98725 0
M  V30 1176 H 100.36 -5.49758 0.0676979 0
M  V30 1177 H 101.585 -6.79099 0.00891991 0
M  V30 1178 H 99.531 -6.19601 -2.15478 0
M  V30 1179 H 99.448 -7.49254 -1.00766 0
M  V30 1180 H 100.716 -7.47906 -2.19676 0
M  V30 1181 N 104.945 -0.338344 -1.53925 0
M  V30 1182 C 106.361 0.0137736 -1.59594 0
M  V30 1183 C 106.561 1.49186 -1.35447 0
M  V30 1184 O 105.617 2.24987 -1.14616 0
M  V30 1185 C 106.93 -0.41773 -2.97784 0
M  V30 1186 C 108.478 -0.369633 -3.1081 0
M  V30 1187 C 108.953 -0.776524 -4.51369 0
M  V30 1188 N 110.444 -0.730506 -4.57403 0
M  V30 1189 C 111.179 -1.01736 -5.64303 0
M  V30 1190 N 110.675 -1.3721 -6.79077 0
M  V30 1191 N 112.468 -0.941942 -5.54151 0
M  V30 1192 H 104.619 -1.3012 -1.67876 0
M  V30 1193 H 106.882 -0.530082 -0.78595 0
M  V30 1194 H 106.588 -1.44811 -3.20504 0
M  V30 1195 H 106.462 0.209729 -3.76616 0
M  V30 1196 H 108.849 0.651568 -2.87817 0
M  V30 1197 H 108.93 -1.03223 -2.34049 0
M  V30 1198 H 108.574 -1.79571 -4.75096 0
M  V30 1199 H 108.504 -0.0914649 -5.26521 0
M  V30 1200 H 110.995 -0.468783 -3.74981 0
M  V30 1201 H 111.308 -1.57597 -7.5656 0
M  V30 1202 H 109.653 -1.4105 -6.80536 0
M  V30 1203 H 112.844 -0.664184 -4.63364 0
M  V30 1204 H 113.017 -1.16884 -6.37371 0
M  V30 1205 N 106.423 1.57458 -0.0668435 0
M  V30 1206 C 107.672 1.92477 0.602947 0
M  V30 1207 C 107.985 0.948419 1.71068 0
M  V30 1208 O 109.191 1.19124 2.43971 0
M  V30 1209 C 107.647 3.41903 1.12383 0
M  V30 1210 C 107.255 4.47975 0.04737 0
M  V30 1211 C 108.999 3.85931 1.76797 0
M  V30 1212 C 106.906 5.88529 0.582022 0
M  V30 1213 H 105.836 0.718387 0.22899 0
M  V30 1214 H 108.487 1.82978 -0.138276 0
M  V30 1215 H 106.869 3.46459 1.91787 0
M  V30 1216 H 108.043 4.55029 -0.726978 0
M  V30 1217 H 106.358 4.13384 -0.500243 0
M  V30 1218 H 108.955 4.88322 2.17821 0
M  V30 1219 H 109.298 3.23029 2.62599 0
M  V30 1220 H 109.831 3.83958 1.04024 0
M  V30 1221 H 106.57 6.55065 -0.238721 0
M  V30 1222 H 106.09 5.85004 1.324 0
M  V30 1223 H 107.769 6.38258 1.05999 0
M  V30 1224 N 107.901 -0.206675 1.56239 0
M  V30 1225 C 109.147 -0.930218 1.80208 0
M  V30 1226 C 109.48 -1.83387 0.638981 0
M  V30 1227 O 108.755 -1.91119 -0.361066 0
M  V30 1228 C 109.038 -1.75641 3.1436 0
M  V30 1229 C 108.891 -0.878257 4.41142 0
M  V30 1230 C 110.21 -2.73129 3.45092 0
M  V30 1231 H 107.329 -0.336742 0.655571 0
M  V30 1232 H 109.971 -0.198222 1.88963 0
M  V30 1233 H 108.121 -2.38048 3.07027 0
M  V30 1234 H 109.793 -0.269787 4.6051 0
M  V30 1235 H 108.036 -0.184385 4.33408 0
M  V30 1236 H 108.707 -1.49106 5.3148 0
M  V30 1237 H 111.183 -2.20856 3.52649 0
M  V30 1238 H 110.059 -3.28028 4.40101 0
M  V30 1239 H 110.32 -3.51606 2.68003 0
M  V30 1240 N 109.379 -1.50304 -0.473955 0
M  V30 1241 C 110.625 -1.61389 -1.22806 0
M  V30 1242 C 110.958 -0.311955 -1.91678 0
M  V30 1243 O 110.233 0.686384 -1.81986 0
M  V30 1244 C 110.516 -2.79219 -2.27396 0
M  V30 1245 C 110.369 -4.19286 -1.62848 0
M  V30 1246 C 111.688 -2.92614 -3.28732 0
M  V30 1247 H 108.807 -0.587399 -0.445119 0
M  V30 1248 H 111.449 -1.82681 -0.522265 0
M  V30 1249 H 109.599 -2.61195 -2.87592 0
M  V30 1250 H 111.271 -4.48892 -1.06271 0
M  V30 1251 H 109.514 -4.23677 -0.931693 0
M  V30 1252 H 110.185 -4.97655 -2.38838 0
M  V30 1253 H 112.661 -3.09105 -2.78556 0
M  V30 1254 H 111.537 -3.76688 -3.99246 0
M  V30 1255 H 111.798 -2.03107 -3.92683 0
M  V30 1256 N 110.857 0.726932 -1.39834 0
M  V30 1257 C 111.804 1.841 -1.39197 0
M  V30 1258 C 112.774 1.642 -0.250502 0
M  V30 1259 O 113.959 1.85494 -0.446846 0
M  V30 1260 C 111.099 3.21697 -1.24919 0
M  V30 1261 C 110.212 3.53247 -2.48678 0
M  V30 1262 C 109.347 4.80289 -2.26928 0
M  V30 1263 C 108.386 5.04707 -3.4632 0
M  V30 1264 N 107.523 6.22956 -3.23836 0
M  V30 1265 H 112.363 1.83979 -2.34427 0
M  V30 1266 H 109.9 0.898876 -1.16442 0
M  V30 1267 H 111.858 4.01137 -1.1465 0
M  V30 1268 H 110.488 3.21076 -0.333153 0
M  V30 1269 H 109.54 2.68447 -2.69519 0
M  V30 1270 H 110.852 3.67205 -3.37582 0
M  V30 1271 H 110.006 5.67725 -2.13947 0
M  V30 1272 H 108.745 4.68519 -1.35431 0
M  V30 1273 H 107.75 4.1573 -3.5979 0
M  V30 1274 H 108.975 5.18357 -4.38729 0
M  V30 1275 H 106.921 6.12459 -2.35011 0
M  V30 1276 H 106.838 6.37539 -4.063 0
M  V30 1277 H 108.106 7.1321 -3.14566 0
M  V30 1278 N 112.336 1.25143 0.95797 0
M  V30 1279 C 113.266 1.07711 2.07173 0
M  V30 1280 C 114.247 -0.0128462 1.70095 0
M  V30 1281 O 115.432 0.156061 1.93572 0
M  V30 1282 C 112.562 0.691503 3.40346 0
M  V30 1283 C 111.516 1.73132 3.9142 0
M  V30 1284 C 110.842 1.20049 5.21049 0
M  V30 1285 C 112.142 3.1294 4.1817 0
M  V30 1286 H 113.836 2.00873 2.22014 0
M  V30 1287 H 111.382 0.967191 1.06684 0
M  V30 1288 H 113.335 0.556505 4.17709 0
M  V30 1289 H 112.059 -0.275819 3.25433 0
M  V30 1290 H 110.718 1.8547 3.16222 0
M  V30 1291 H 110.366 0.223499 5.02503 0
M  V30 1292 H 110.066 1.89545 5.56189 0
M  V30 1293 H 111.59 1.07782 6.01012 0
M  V30 1294 H 113.004 3.03775 4.86203 0
M  V30 1295 H 111.401 3.79875 4.64559 0
M  V30 1296 H 112.471 3.6025 3.24573 0
M  V30 1297 N 113.814 -1.1601 1.06675 0
M  V30 1298 C 115.062 -1.86264 0.784229 0
M  V30 1299 C 115.383 -1.82328 -0.691488 0
M  V30 1300 O 114.653 -1.25947 -1.50047 0
M  V30 1301 H 113.233 -0.689621 0.28711 0
M  V30 1302 H 115.895 -1.40664 1.34906 0
M  V30 1303 H 114.991 -2.91595 1.11259 0
M  V30 1304 N 115.292 -0.849877 -1.32721 0
M  V30 1305 C 116.517 -0.463856 -2.02146 0
M  V30 1306 C 116.942 0.930449 -1.63476 0
M  V30 1307 O 116.3 1.61033 -0.832952 0
M  V30 1308 C 116.348 -0.604955 -3.55489 0
M  V30 1309 O 115.452 0.36425 -4.10788 0
M  V30 1310 H 114.793 -0.187046 -0.637111 0
M  V30 1311 H 117.323 -1.14775 -1.69375 0
M  V30 1312 H 117.333 -0.490696 -4.05038 0
M  V30 1313 H 116.008 -1.62174 -3.82978 0
M  V30 1314 H 114.585 0.206628 -3.72327 0
M  V30 1315 N 116.77 1.45427 -0.607355 0
M  V30 1316 C 117.733 2.28974 0.101693 0
M  V30 1317 C 118.733 1.39754 0.795329 0
M  V30 1318 O 119.923 1.61878 0.643527 0
M  V30 1319 C 117.055 3.20768 1.15414 0
M  V30 1320 H 118.248 2.93147 -0.632844 0
M  V30 1321 H 115.801 1.51945 -0.366391 0
M  V30 1322 H 116.536 2.61395 1.91945 0
M  V30 1323 H 116.321 3.86489 0.66098 0
M  V30 1324 H 117.811 3.83589 1.65073 0
M  V30 1325 N 118.248 0.346503 1.53744 0
M  V30 1326 C 119.494 -0.249473 2.0126 0
M  V30 1327 C 119.827 -1.49965 1.23386 0
M  V30 1328 O 119.102 -1.91811 0.32229 0
M  V30 1329 C 119.385 -0.560643 3.55709 0
M  V30 1330 C 119.238 0.701836 4.44291 0
M  V30 1331 C 120.557 -1.36905 4.18264 0
M  V30 1332 H 117.676 -0.0891987 0.731582 0
M  V30 1333 H 120.318 0.467624 1.84156 0
M  V30 1334 H 118.468 -1.17156 3.70414 0
M  V30 1335 H 120.14 1.33974 4.41417 0
M  V30 1336 H 118.383 1.32612 4.13033 0
M  V30 1337 H 119.054 0.43933 5.50249 0
M  V30 1338 H 121.53 -0.852448 4.07275 0
M  V30 1339 H 120.406 -1.55553 5.26398 0
M  V30 1340 H 120.667 -2.37203 3.73078 0
M  V30 1341 N 119.726 -1.57421 0.075193 0
M  V30 1342 C 120.972 -1.93905 -0.594025 0
M  V30 1343 C 121.305 -0.955701 -1.69056 0
M  V30 1344 O 120.58 0.0145373 -1.94495 0
M  V30 1345 C 120.863 -3.40638 -1.1678 0
M  V30 1346 C 120.716 -4.49733 -0.0776792 0
M  V30 1347 C 122.035 -3.88259 -2.07228 0
M  V30 1348 H 119.154 -0.705105 -0.214466 0
M  V30 1349 H 121.796 -1.8947 0.141854 0
M  V30 1350 H 119.946 -3.44549 -1.79494 0
M  V30 1351 H 121.618 -4.57942 0.555573 0
M  V30 1352 H 119.861 -4.29751 0.591286 0
M  V30 1353 H 120.532 -5.49549 -0.519603 0
M  V30 1354 H 123.008 -3.86376 -1.54445 0
M  V30 1355 H 121.884 -4.91533 -2.44308 0
M  V30 1356 H 122.145 -3.26396 -2.98191 0
M  V30 1357 N 121.204 0.198386 -1.56346 0
M  V30 1358 C 122.432 0.935572 -1.84539 0
M  V30 1359 C 122.847 1.76989 -0.657281 0
M  V30 1360 O 122.204 1.78626 0.374043 0
M  V30 1361 C 122.255 1.8344 -3.11499 0
M  V30 1362 O 121.976 1.03377 -4.25728 0
M  V30 1363 C 123.477 2.68355 -3.52846 0
M  V30 1364 H 120.697 0.273126 -0.612897 0
M  V30 1365 H 123.241 0.20663 -2.03453 0
M  V30 1366 H 121.396 2.51701 -2.94492 0
M  V30 1367 H 121.81 1.64599 -4.98003 0
M  V30 1368 H 123.284 3.27085 -4.44657 0
M  V30 1369 H 123.761 3.41901 -2.75681 0
M  V30 1370 H 124.367 2.05471 -3.72373 0
M  V30 1371 N 122.682 1.50554 0.465978 0
M  V30 1372 C 124.098 1.38093 0.800154 0
M  V30 1373 C 124.298 0.440988 1.96615 0
M  V30 1374 O 123.354 -0.114499 2.5224 0
M  V30 1375 C 124.667 2.79565 1.10742 0
M  V30 1376 C 126.215 2.88516 1.21357 0
M  V30 1377 C 126.69 4.30833 1.55393 0
M  V30 1378 N 128.181 4.33807 1.62375 0
M  V30 1379 C 128.916 5.40927 1.90225 0
M  V30 1380 N 128.412 6.58247 2.16062 0
M  V30 1381 N 130.205 5.28376 1.9177 0
M  V30 1382 H 122.356 2.10237 -0.302366 0
M  V30 1383 H 124.619 0.945203 -0.0727746 0
M  V30 1384 H 124.325 3.50208 0.323661 0
M  V30 1385 H 124.199 3.17125 2.04234 0
M  V30 1386 H 126.586 2.1809 1.98799 0
M  V30 1387 H 126.667 2.54492 0.258321 0
M  V30 1388 H 126.311 5.01799 0.784889 0
M  V30 1389 H 126.241 4.62347 2.52076 0
M  V30 1390 H 128.732 3.49212 1.44427 0
M  V30 1391 H 129.045 7.3569 2.36601 0
M  V30 1392 H 127.39 6.61413 2.13444 0
M  V30 1393 H 130.581 4.35715 1.71085 0
M  V30 1394 H 130.754 6.11944 2.13139 0
M  V30 1395 N 124.16 -0.719506 1.40217 0
M  V30 1396 C 125.408 -1.47641 1.3801 0
M  V30 1397 C 125.729 -1.94992 -0.018145 0
M  V30 1398 O 124.999 -1.70073 -0.972207 0
M  V30 1399 H 123.579 -0.547744 0.507923 0
M  V30 1400 H 126.241 -0.853187 1.75233 0
M  V30 1401 H 125.337 -2.35112 2.05253 0
M  V30 1402 N 125.638 -1.25649 -0.95132 0
M  V30 1403 C 126.915 -1.01361 -1.67288 0
M  V30 1404 C 127.295 0.459135 -2.06046 0
M  V30 1405 O 126.643 1.43723 -1.7764 0
M  V30 1406 C 126.853 -1.95256 -2.89268 0
M  V30 1407 C 128.201 -2.23289 -3.61147 0
M  V30 1408 O 129.225 -1.93041 -2.99355 0
M  V30 1409 O 128.084 -2.74741 -4.72419 0
M  V30 1410 H 125.178 -0.38464 -0.732107 0
M  V30 1411 H 127.724 -1.36817 -1.00395 0
M  V30 1412 H 126.496 -2.94685 -2.57442 0
M  V30 1413 H 126.119 -1.60218 -3.6389 0
M  V30 1414 N 127.117 1.15442 -1.07289 0
M  V30 1415 C 128.027 2.23786 -0.704057 0
M  V30 1416 C 129.043 1.7166 0.284413 0
M  V30 1417 O 130.219 2.00972 0.131205 0
M  V30 1418 C 127.284 3.46535 -0.106792 0
M  V30 1419 C 126.345 4.13654 -1.14842 0
M  V30 1420 C 125.578 5.30544 -0.57956 0
M  V30 1421 O 125.801 5.67187 0.604585 0
M  V30 1422 O 124.735 5.87154 -1.32414 0
M  V30 1423 H 128.561 2.57664 -1.60757 0
M  V30 1424 H 126.146 1.23152 -0.845803 0
M  V30 1425 H 128.028 4.20804 0.224048 0
M  V30 1426 H 126.703 3.14407 0.770049 0
M  V30 1427 H 125.61 3.4131 -1.5316 0
M  V30 1428 H 126.943 4.49861 -1.99714 0
M  V30 1429 N 128.595 0.856903 1.32268 0
M  V30 1430 C 129.835 0.467705 1.98977 0
M  V30 1431 C 130.199 -0.959231 1.66321 0
M  V30 1432 O 131.4 -1.4531 2.26138 0
M  V30 1433 C 129.671 0.70256 3.50427 0
M  V30 1434 S 131.23 0.411269 4.36868 0
M  V30 1435 H 128.048 0.175121 0.689096 0
M  V30 1436 H 130.65 1.1101 1.60925 0
M  V30 1437 H 129.354 1.74012 3.71683 0
M  V30 1438 H 128.885 0.0466707 3.93372 0
M  V30 1439 H 130.9 -0.761799 4.90317 0
M  V30 1440 N 130.073 -1.45103 0.615059 0
M  V30 1441 C 131.321 -2.01784 0.112955 0
M  V30 1442 C 131.642 -1.48504 -1.26378 0
M  V30 1443 O 130.912 -0.682245 -1.83636 0
M  V30 1444 H 129.492 -0.745993 0.0387668 0
M  V30 1445 H 132.154 -1.77808 0.798141 0
M  V30 1446 H 131.25 -3.12025 0.0684069 0
M  V30 1447 N 131.551 -0.354651 -1.53558 0
M  V30 1448 C 132.481 0.489091 -2.2832 0
M  V30 1449 C 133.462 1.09324 -1.30316 0
M  V30 1450 O 134.647 1.11255 -1.59173 0
M  V30 1451 C 131.777 1.63456 -3.0643 0
M  V30 1452 C 130.731 1.1582 -4.12031 0
M  V30 1453 C 130.057 2.39305 -4.7816 0
M  V30 1454 C 131.357 0.250731 -5.21698 0
M  V30 1455 H 133.051 -0.134614 -2.99097 0
M  V30 1456 H 130.597 -0.0661826 -1.43848 0
M  V30 1457 H 132.55 2.23136 -3.57475 0
M  V30 1458 H 131.274 2.28533 -2.33325 0
M  V30 1459 H 129.933 0.584146 -3.61916 0
M  V30 1460 H 129.581 3.02814 -4.01637 0
M  V30 1461 H 129.281 2.08109 -5.49513 0
M  V30 1462 H 130.805 2.99691 -5.31994 0
M  V30 1463 H 132.219 0.754695 -5.68311 0
M  V30 1464 H 130.616 0.0301468 -6.00092 0
M  V30 1465 H 131.686 -0.710125 -4.79672 0
M  V30 1466 N 133.029 1.57378 -0.0835403 0
M  V30 1467 C 133.992 2.12252 0.864959 0
M  V30 1468 C 134.992 1.04916 1.21858 0
M  V30 1469 O 136.182 1.30853 1.14991 0
M  V30 1470 C 133.314 2.63358 2.16461 0
M  V30 1471 H 134.507 2.97371 0.388676 0
M  V30 1472 H 132.06 1.55423 0.165317 0
M  V30 1473 H 132.795 1.81727 2.686 0
M  V30 1474 H 132.58 3.41826 1.92087 0
M  V30 1475 H 134.07 3.05847 2.84337 0
M  V30 1476 N 134.507 -0.190092 1.56449 0
M  V30 1477 C 135.437 -1.23816 1.97969 0
M  V30 1478 C 136.418 -1.47201 0.852395 0
M  V30 1479 O 137.603 -1.58854 1.1171 0
M  V30 1480 C 134.733 -2.5813 2.3235 0
M  V30 1481 C 133.687 -2.49348 3.47864 0
M  V30 1482 C 133.013 -3.8798 3.67934 0
M  V30 1483 C 134.313 -2.01424 4.81898 0
M  V30 1484 H 136.007 -0.89311 2.85769 0
M  V30 1485 H 133.553 -0.428177 1.37487 0
M  V30 1486 H 135.506 -3.31637 2.59991 0
M  V30 1487 H 134.23 -2.94386 1.41438 0
M  V30 1488 H 132.889 -1.78297 3.20321 0
M  V30 1489 H 132.537 -4.21597 2.74344 0
M  V30 1490 H 132.237 -3.82978 4.45648 0
M  V30 1491 H 133.761 -4.63101 3.97957 0
M  V30 1492 H 135.175 -2.64693 5.08538 0
M  V30 1493 H 133.572 -2.07413 5.63116 0
M  V30 1494 H 134.642 -0.967677 4.75146 0
M  V30 1495 N 135.985 -1.50799 -0.457987 0
M  V30 1496 C 137.233 -1.62121 -1.2067 0
M  V30 1497 C 137.554 -0.329793 -1.92191 0
M  V30 1498 O 136.824 0.653409 -1.84682 0
M  V30 1499 H 135.404 -0.597441 -0.448411 0
M  V30 1500 H 138.066 -1.87637 -0.527096 0
M  V30 1501 H 137.162 -2.43882 -1.94751 0
M  V30 1502 N 137.463 0.71206 -1.40597 0
M  V30 1503 C 138.879 1.02058 -1.22704 0
M  V30 1504 C 139.079 2.01228 -0.104729 0
M  V30 1505 O 138.135 2.4674 0.53624 0
M  V30 1506 C 139.448 1.56094 -2.57012 0
M  V30 1507 C 140.996 1.6806 -2.64054 0
M  V30 1508 C 141.471 2.25501 -3.9864 0
M  V30 1509 N 142.962 2.32882 -4.004 0
M  V30 1510 C 143.697 2.78317 -5.01325 0
M  V30 1511 N 143.193 3.23478 -6.12645 0
M  V30 1512 N 144.986 2.77733 -4.88693 0
M  V30 1513 H 137.137 0.0547896 -2.12329 0
M  V30 1514 H 139.4 0.0869027 -0.944008 0
M  V30 1515 H 139.106 0.906865 -3.39807 0
M  V30 1516 H 138.98 2.54564 -2.78347 0
M  V30 1517 H 141.367 2.32583 -1.81629 0
M  V30 1518 H 141.448 0.681802 -2.46546 0
M  V30 1519 H 141.092 1.61598 -4.81506 0
M  V30 1520 H 141.022 3.26102 -4.13479 0
M  V30 1521 H 143.513 2.00991 -3.20017 0
M  V30 1522 H 143.826 3.56725 -6.85542 0
M  V30 1523 H 142.171 3.21429 -6.16205 0
M  V30 1524 H 145.362 2.4179 -4.00818 0
M  V30 1525 H 145.535 3.12826 -5.67489 0
M  V30 1526 N 138.941 1.26152 0.944643 0
M  V30 1527 C 139.871 1.09902 2.06019 0
M  V30 1528 C 140.852 0.00519538 1.70099 0
M  V30 1529 O 142.037 0.176583 1.93396 0
M  V30 1530 C 139.167 0.727562 3.39594 0
M  V30 1531 C 138.121 1.77274 3.89561 0
M  V30 1532 C 137.447 1.25569 5.19747 0
M  V30 1533 C 138.747 3.17357 4.14827 0
M  V30 1534 H 140.441 2.03217 2.19871 0
M  V30 1535 H 137.987 0.978452 1.05652 0
M  V30 1536 H 139.94 0.600777 4.17095 0
M  V30 1537 H 138.664 -0.241287 3.25707 0
M  V30 1538 H 137.323 1.88814 3.14237 0
M  V30 1539 H 136.971 0.276783 5.02238 0
M  V30 1540 H 136.671 1.95433 5.54148 0
M  V30 1541 H 138.195 1.1415 5.99835 0
M  V30 1542 H 139.609 3.08914 4.82954 0
M  V30 1543 H 138.006 3.84781 4.60504 0
M  V30 1544 H 139.076 3.63673 3.20734 0
M  V30 1545 N 140.419 -1.14872 1.07899 0
M  V30 1546 C 141.382 -2.17986 0.708161 0
M  V30 1547 C 142.382 -1.58775 -0.25442 0
M  V30 1548 O 143.572 -1.74166 -0.034645 0
M  V30 1549 C 140.704 -3.40871 0.0446929 0
M  V30 1550 H 141.897 -2.52306 1.62116 0
M  V30 1551 H 139.45 -1.2943 0.876218 0
M  V30 1552 H 140.185 -3.12124 -0.880281 0
M  V30 1553 H 139.97 -3.8511 0.737091 0
M  V30 1554 H 141.46 -4.17121 -0.19991 0
M  V30 1555 N 141.898 -0.863906 -1.31812 0
M  V30 1556 C 143.123 -0.48527 -2.01643 0
M  V30 1557 C 143.548 0.913058 -1.64453 0
M  V30 1558 O 142.906 1.6014 -0.849985 0
M  V30 1559 C 142.954 -0.642625 -3.54828 0
M  V30 1560 O 142.058 0.320659 -4.11151 0
M  V30 1561 H 141.399 -0.193793 -0.635091 0
M  V30 1562 H 143.929 -1.16565 -1.68148 0
M  V30 1563 H 143.939 -0.533628 -4.04495 0
M  V30 1564 H 142.614 -1.66227 -3.81237 0
M  V30 1565 H 141.191 0.167126 -3.72525 0
M  V30 1566 N 143.376 1.44774 -0.622745 0
M  V30 1567 C 144.625 2.01334 -0.121397 0
M  V30 1568 C 144.938 1.49505 1.26125 0
M  V30 1569 O 146.144 1.98139 1.85616 0
M  V30 1570 C 144.6 3.59516 -0.166298 0
M  V30 1571 C 144.208 4.20342 -1.54974 0
M  V30 1572 C 145.952 4.23582 0.279021 0
M  V30 1573 C 143.859 5.70721 -1.55021 0
M  V30 1574 H 142.789 0.752851 -0.0416172 0
M  V30 1575 H 145.44 1.66083 -0.780309 0
M  V30 1576 H 143.822 3.92027 0.559557 0
M  V30 1577 H 144.996 3.99381 -2.29851 0
M  V30 1578 H 143.311 3.68529 -1.93843 0
M  V30 1579 H 145.908 5.33868 0.298083 0
M  V30 1580 H 146.251 3.95327 1.30471 0
M  V30 1581 H 146.784 3.95843 -0.394063 0
M  V30 1582 H 143.523 6.03698 -2.55399 0
M  V30 1583 H 143.043 5.93829 -0.844245 0
M  V30 1584 H 144.722 6.34203 -1.28047 0
M  V30 1585 N 144.854 0.36279 1.53368 0
M  V30 1586 C 146.1 -0.228113 2.01513 0
M  V30 1587 C 146.433 -1.48648 1.2497 0
M  V30 1588 O 145.708 -1.91459 0.342616 0
M  V30 1589 C 145.991 -0.522884 3.56284 0
M  V30 1590 C 145.844 0.74892 4.43521 0
M  V30 1591 C 147.163 -1.32461 4.19693 0
M  V30 1592 H 144.282 -0.0814343 0.732487 0
M  V30 1593 H 146.924 0.48713 1.83649 0
M  V30 1594 H 145.074 -1.1322 3.71636 0
M  V30 1595 H 146.746 1.38648 4.39971 0
M  V30 1596 H 144.989 1.36986 4.11603 0
M  V30 1597 H 145.66 0.497667 5.49752 0
M  V30 1598 H 148.136 -0.809203 4.08156 0
M  V30 1599 H 147.012 -1.49961 5.28018 0
M  V30 1600 H 147.273 -2.33232 3.75573 0
M  V30 1601 N 146.332 -1.57332 0.0918853 0
M  V30 1602 C 147.242 -2.17368 -0.882505 0
M  V30 1603 C 148.258 -1.14226 -1.31257 0
M  V30 1604 O 149.434 -1.46582 -1.38115 0
M  V30 1605 C 146.499 -2.73962 -2.12476 0
M  V30 1606 C 145.56 -3.92048 -1.7492 0
M  V30 1607 C 144.793 -4.45933 -2.93223 0
M  V30 1608 O 145.016 -3.98764 -4.07852 0
M  V30 1609 O 143.95 -5.36999 -2.71875 0
M  V30 1610 H 147.776 -3.01031 -0.40172 0
M  V30 1611 H 145.361 -1.48813 -0.132291 0
M  V30 1612 H 147.243 -3.10147 -2.85283 0
M  V30 1613 H 145.918 -1.93347 -2.59613 0
M  V30 1614 H 144.825 -3.6068 -0.993025 0
M  V30 1615 H 146.158 -4.74017 -1.32548 0
M  V30 1616 N 147.81 0.181792 -1.56548 0
M  V30 1617 C 148.742 1.24956 -1.92142 0
M  V30 1618 C 149.755 1.41022 -0.813422 0
M  V30 1619 O 150.944 1.41212 -1.09186 0
M  V30 1620 C 148.044 2.61981 -2.14987 0
M  V30 1621 C 147.217 2.6735 -3.46183 0
M  V30 1622 C 146.276 3.85664 -3.5798 0
M  V30 1623 O 145.302 3.72148 -4.30691 0
M  V30 1624 N 146.504 5.01683 -2.92053 0
M  V30 1625 H 149.269 0.947329 -2.84334 0
M  V30 1626 H 146.83 0.371629 -1.57577 0
M  V30 1627 H 148.822 3.3958 -2.20154 0
M  V30 1628 H 147.392 2.84637 -1.2923 0
M  V30 1629 H 146.612 1.75925 -3.52766 0
M  V30 1630 H 147.9 2.67939 -4.32534 0
M  V30 1631 H 147.298 5.15564 -2.32832 0
M  V30 1632 H 145.855 5.77181 -3.0283 0
M  V30 1633 N 149.288 1.51039 0.449983 0
M  V30 1634 C 150.534 1.63322 1.20223 0
M  V30 1635 C 150.867 0.34241 1.91158 0
M  V30 1636 O 150.142 -0.657344 1.83055 0
M  V30 1637 C 150.425 2.82801 2.22925 0
M  V30 1638 C 150.278 4.21823 1.56157 0
M  V30 1639 C 151.597 2.97807 3.24035 0
M  V30 1640 H 148.716 0.594407 0.435718 0
M  V30 1641 H 151.358 1.83489 0.493136 0
M  V30 1642 H 149.508 2.65738 2.834 0
M  V30 1643 H 151.18 4.50526 0.991162 0
M  V30 1644 H 149.423 4.25105 0.864172 0
M  V30 1645 H 150.094 5.01391 2.30891 0
M  V30 1646 H 152.57 3.13497 2.73603 0
M  V30 1647 H 151.446 3.82992 3.93202 0
M  V30 1648 H 151.707 2.09328 3.89402 0
M  V30 1649 N 150.766 -0.704594 1.40972 0
M  V30 1650 C 151.991 -1.49858 1.43378 0
M  V30 1651 C 152.416 -1.88061 0.038184 0
M  V30 1652 O 151.774 -1.5402 -0.956425 0
M  V30 1653 C 151.822 -2.74333 2.34038 0
M  V30 1654 O 150.926 -3.7147 1.7912 0
M  V30 1655 H 150.267 -0.45139 0.486974 0
M  V30 1656 H 152.797 -0.866832 1.8533 0
M  V30 1657 H 152.807 -3.22741 2.49604 0
M  V30 1658 H 151.482 -2.45863 3.35446 0
M  V30 1659 H 150.059 -3.30363 1.72958 0
M  V30 1660 N 152.244 -1.26651 -0.937939 0
M  V30 1661 C 153.49 -1.12553 -1.687 0
M  V30 1662 C 153.823 0.329782 -1.91379 0
M  V30 1663 O 153.098 1.24202 -1.4968 0
M  V30 1664 C 153.381 -1.89862 -3.05981 0
M  V30 1665 C 153.234 -3.43318 -2.90607 0
M  V30 1666 C 154.553 -1.69499 -4.0615 0
M  V30 1667 H 151.672 -0.410257 -0.612257 0
M  V30 1668 H 154.314 -1.55685 -1.08913 0
M  V30 1669 H 152.464 -1.53204 -3.57017 0
M  V30 1670 H 154.136 -3.89747 -2.46769 0
M  V30 1671 H 152.379 -3.70179 -2.26164 0
M  V30 1672 H 153.05 -3.92642 -3.8799 0
M  V30 1673 H 155.526 -2.01442 -3.64088 0
M  V30 1674 H 154.402 -2.26002 -5.00214 0
M  V30 1675 H 154.663 -0.640365 -4.37438 0
M  V30 1676 N 153.722 1.14298 -1.08507 0
M  V30 1677 C 154.652 2.21542 -0.737646 0
M  V30 1678 C 155.633 1.67773 0.280377 0
M  V30 1679 O 156.818 1.93616 0.150521 0
M  V30 1680 C 153.948 3.46988 -0.147259 0
M  V30 1681 C 152.902 4.13789 -1.09374 0
M  V30 1682 C 152.228 5.33449 -0.365524 0
M  V30 1683 C 153.528 4.62208 -2.4323 0
M  V30 1684 H 155.222 2.5086 -1.6343 0
M  V30 1685 H 152.768 1.20576 -0.787243 0
M  V30 1686 H 154.721 4.21262 0.107808 0
M  V30 1687 H 153.445 3.17037 0.784538 0
M  V30 1688 H 152.104 3.4147 -1.33393 0
M  V30 1689 H 151.752 4.99759 0.57011 0
M  V30 1690 H 151.452 5.79088 -0.996512 0
M  V30 1691 H 152.976 6.10485 -0.118534 0
M  V30 1692 H 154.39 5.27952 -2.23472 0
M  V30 1693 H 152.787 5.18553 -3.02031 0
M  V30 1694 H 153.857 3.77224 -3.04681 0
M  V30 1695 N 155.201 0.870884 1.31352 0
M  V30 1696 C 156.133 0.28455 2.27427 0
M  V30 1697 C 157.146 -0.552927 1.53123 0
M  V30 1698 O 158.335 -0.374771 1.74521 0
M  V30 1699 C 155.435 -0.615164 3.3327 0
M  V30 1700 C 154.608 0.190079 4.36987 0
M  V30 1701 C 153.667 -0.637917 5.22319 0
M  V30 1702 O 152.693 -0.065626 5.69162 0
M  V30 1703 N 153.895 -1.94973 5.46778 0
M  V30 1704 H 156.66 1.11017 2.7838 0
M  V30 1705 H 154.221 0.732458 1.44384 0
M  V30 1706 H 156.213 -1.1748 3.87273 0
M  V30 1707 H 154.783 -1.34146 2.82354 0
M  V30 1708 H 154.003 0.931165 3.83044 0
M  V30 1709 H 155.291 0.742579 5.03352 0
M  V30 1710 H 154.689 -2.4378 5.10478 0
M  V30 1711 H 153.246 -2.45713 6.03712 0
M  V30 1712 N 156.679 -1.44442 0.630414 0
M  V30 1713 C 157.627 -2.32437 -0.0871428 0
M  V30 1714 C 158.621 -1.47304 -0.836525 0
M  V30 1715 O 159.827 -1.63653 -0.749506 0
M  V30 1716 H 156.202 -0.750533 -0.0469495 0
M  V30 1717 H 158.173 -2.90709 0.673096 0
M  V30 1718 C 156.922 -3.31288 -1.05563 0
M  V30 1719 H 156.245 -3.96805 -0.488426 0
M  V30 1720 H 157.685 -3.9554 -1.52721 0
M  V30 1721 C 156.144 -2.6016 -2.14052 0
M  V30 1722 O 156.674 -2.39997 -3.22124 0
M  V30 1723 N 154.88 -2.19911 -1.89967 0
M  V30 1724 H 154.427 -2.36509 -1.02085 0
M  V30 1725 H 154.385 -1.72646 -2.62756 0
M  V30 1726 N 158.157 -0.370918 -1.53173 0
M  V30 1727 C 159.089 0.507823 -2.23503 0
M  V30 1728 C 160.102 1.04182 -1.251 0
M  V30 1729 O 161.291 0.947286 -1.5129 0
M  V30 1730 C 158.391 1.71447 -2.92334 0
M  V30 1731 C 157.564 1.31105 -4.17289 0
M  V30 1732 C 156.623 2.38035 -4.69282 0
M  V30 1733 O 155.649 2.00204 -5.32829 0
M  V30 1734 N 156.851 3.69697 -4.47554 0
M  V30 1735 H 159.616 -0.0946382 -2.99551 0
M  V30 1736 H 157.177 -0.196358 -1.60705 0
M  V30 1737 H 159.169 2.42469 -3.24023 0
M  V30 1738 H 157.739 2.22368 -2.19707 0
M  V30 1739 H 156.959 0.430462 -3.91843 0
M  V30 1740 H 158.247 1.0179 -4.98514 0
M  V30 1741 H 157.645 4.03205 -3.9679 0
M  V30 1742 H 156.202 4.36807 -4.8378 0
M  V30 1743 N 159.635 1.57281 -0.100228 0
M  V30 1744 C 160.883 1.94153 0.561157 0
M  V30 1745 C 161.204 0.983157 1.68401 0
M  V30 1746 O 160.474 0.0361132 1.95867 0
M  V30 1747 H 159.054 0.716791 0.210283 0
M  V30 1748 H 161.716 1.94202 -0.164765 0
M  V30 1749 H 160.812 2.96709 0.968008 0
M  V30 1750 N 161.113 -0.173488 1.56642 0
M  V30 1751 C 162.529 -0.525174 1.50712 0
M  V30 1752 C 162.729 -1.8476 0.804107 0
M  V30 1753 O 161.785 -2.49869 0.363574 0
M  V30 1754 C 163.098 -0.559937 2.95441 0
M  V30 1755 C 164.646 -0.647288 3.06234 0
M  V30 1756 C 165.121 -0.712963 4.52417 0
M  V30 1757 N 166.612 -0.775911 4.56655 0
M  V30 1758 C 167.347 -0.847264 5.67106 0
M  V30 1759 N 166.843 -0.879585 6.87194 0
M  V30 1760 N 168.636 -0.886117 5.55071 0
M  V30 1761 H 160.787 0.693681 2.00753 0
M  V30 1762 H 163.05 0.249841 0.914485 0
M  V30 1763 H 162.756 0.343049 3.50023 0
M  V30 1764 H 162.63 -1.40718 3.49969 0
M  V30 1765 H 165.017 -1.5407 2.51687 0
M  V30 1766 H 165.098 0.226586 2.54794 0
M  V30 1767 H 164.742 0.176183 5.07594 0
M  V30 1768 H 164.672 -1.60295 5.0161 0
M  V30 1769 H 167.163 -0.759304 3.70193 0
M  V30 1770 H 167.476 -0.935144 7.67121 0
M  V30 1771 H 165.821 -0.847898 6.89808 0
M  V30 1772 H 169.012 -0.857853 4.60172 0
M  V30 1773 H 169.185 -0.938263 6.41171 0
M  V30 1774 N 162.591 -1.51276 -0.441967 0
M  V30 1775 C 163.501 -1.75092 -1.56141 0
M  V30 1776 C 164.517 -0.634963 -1.62001 0
M  V30 1777 O 165.693 -0.916686 -1.79329 0
M  V30 1778 C 162.758 -1.86666 -2.92158 0
M  V30 1779 C 161.819 -3.10506 -2.96453 0
M  V30 1780 C 161.052 -3.21519 -4.25982 0
M  V30 1781 O 161.275 -2.38586 -5.18105 0
M  V30 1782 O 160.209 -4.14465 -4.36466 0
M  V30 1783 H 164.035 -2.70044 -1.38961 0
M  V30 1784 H 161.62 -1.35722 -0.624499 0
M  V30 1785 H 163.502 -1.96292 -3.72891 0
M  V30 1786 H 162.177 -0.949014 -3.09476 0
M  V30 1787 H 161.084 -3.06363 -2.14692 0
M  V30 1788 H 162.417 -4.01945 -2.84079 0
M  V30 1789 N 164.069 0.697108 -1.41344 0
M  V30 1790 C 165.002 1.82134 -1.37486 0
M  V30 1791 C 165.98 1.60784 -0.242351 0
M  V30 1792 O 167.164 1.83553 -0.429012 0
M  V30 1793 C 164.291 3.18788 -1.14421 0
M  V30 1794 C 163.337 3.58932 -2.3037 0
M  V30 1795 S 164.17 3.63916 -3.92843 0
M  V30 1796 C 165.326 5.03298 -3.72078 0
M  V30 1797 H 165.559 1.85129 -2.32625 0
M  V30 1798 H 163.092 0.865671 -1.2785 0
M  V30 1799 H 165.05 3.97677 -1.018 0
M  V30 1800 H 163.711 3.13404 -0.20905 0
M  V30 1801 H 162.904 4.58202 -2.09922 0
M  V30 1802 H 162.506 2.87347 -2.39391 0
M  V30 1803 H 164.798 5.90753 -3.31688 0
M  V30 1804 H 165.741 5.28788 -4.70945 0
M  V30 1805 H 166.149 4.74764 -3.05384 0
M  V30 1806 N 165.547 1.27147 0.931209 0
M  V30 1807 C 166.48 1.0389 2.0318 0
M  V30 1808 C 167.458 -0.0395716 1.62552 0
M  V30 1809 O 168.642 0.104867 1.88208 0
M  V30 1810 C 165.769 0.575227 3.3378 0
M  V30 1811 C 164.815 1.64774 3.93385 0
M  V30 1812 S 165.648 3.23933 4.26413 0
M  V30 1813 C 166.804 2.79358 5.60098 0
M  V30 1814 H 167.037 1.97075 2.22596 0
M  V30 1815 H 164.57 1.10938 1.07387 0
M  V30 1816 H 166.528 0.314385 4.09294 0
M  V30 1817 H 165.189 -0.336505 3.12292 0
M  V30 1818 H 164.382 1.27454 4.87618 0
M  V30 1819 H 163.984 1.86048 3.24441 0
M  V30 1820 H 166.276 2.24443 6.39243 0
M  V30 1821 H 167.219 3.72322 6.02314 0
M  V30 1822 H 167.627 2.1861 5.20452 0
M  V30 1823 N 167.025 -1.13721 1.09112 0
M  V30 1824 C 167.955 -2.21148 0.749385 0
M  V30 1825 C 168.936 -1.6792 -0.271475 0
M  V30 1826 O 170.121 -1.93693 -0.140251 0
M  V30 1827 C 167.251 -3.46905 0.165659 0
M  V30 1828 C 166.205 -4.13203 1.11567 0
M  V30 1829 C 165.531 -5.33248 0.393809 0
M  V30 1830 C 166.831 -4.60912 2.45678 0
M  V30 1831 H 168.525 -2.4999 1.64758 0
M  V30 1832 H 166.071 -1.20156 0.793626 0
M  V30 1833 H 168.024 -4.21313 -0.085466 0
M  V30 1834 H 166.748 -3.17449 -0.767714 0
M  V30 1835 H 165.407 -3.40758 1.35202 0
M  V30 1836 H 165.055 -5.00054 -0.543599 0
M  V30 1837 H 164.755 -5.78552 1.02721 0
M  V30 1838 H 166.279 -6.10413 0.150908 0
M  V30 1839 H 167.693 -5.26759 2.26269 0
M  V30 1840 H 166.09 -5.16944 3.04776 0
M  V30 1841 H 167.16 -3.75603 3.06677 0
M  V30 1842 N 168.503 -0.877838 -1.30888 0
M  V30 1843 C 169.749 -0.493426 -1.96706 0
M  V30 1844 C 170.082 0.953504 -1.6918 0
M  V30 1845 O 169.357 1.67266 -0.992594 0
M  V30 1846 C 169.64 -0.760429 -3.51979 0
M  V30 1847 C 169.493 -2.25747 -3.89048 0
M  V30 1848 C 170.812 -0.232148 -4.39487 0
M  V30 1849 H 167.931 -0.180746 -0.714493 0
M  V30 1850 H 170.573 -1.10052 -1.54882 0
M  V30 1851 H 168.723 -0.243715 -3.87735 0
M  V30 1852 H 170.395 -2.84204 -3.63354 0
M  V30 1853 H 168.638 -2.72694 -3.37373 0
M  V30 1854 H 169.309 -2.39491 -4.97341 0
M  V30 1855 H 171.785 -0.674314 -4.106 0
M  V30 1856 H 170.661 -0.448355 -5.47066 0
M  V30 1857 H 170.922 0.866297 -4.33529 0
M  V30 1858 N 169.982 1.44106 -0.638065 0
M  V30 1859 C 171.21 2.06336 -0.152615 0
M  V30 1860 C 171.625 1.47731 1.17563 0
M  V30 1861 O 170.982 0.602806 1.72257 0
M  V30 1862 C 171.033 3.61479 -0.0391491 0
M  V30 1863 O 170.754 4.17903 -1.31487 0
M  V30 1864 C 172.255 4.40757 0.474176 0
M  V30 1865 H 169.475 0.665862 -0.0828776 0
M  V30 1866 H 172.019 1.84862 -0.87443 0
M  V30 1867 H 170.174 3.82191 0.633142 0
M  V30 1868 H 170.588 5.11416 -1.16421 0
M  V30 1869 H 172.062 5.49707 0.502562 0
M  V30 1870 H 172.539 4.12697 1.50258 0
M  V30 1871 H 173.145 4.24979 -0.165102 0
M  V30 1872 N 171.46 0.379036 1.52974 0
M  V30 1873 C 172.685 -0.209353 2.06341 0
M  V30 1874 C 173.11 -1.40583 1.24972 0
M  V30 1875 O 172.468 -1.79246 0.272155 0
M  V30 1876 C 172.516 -0.567786 3.56102 0
M  V30 1877 O 171.62 -1.66318 3.77375 0
M  V30 1878 H 170.961 -0.0272919 0.663439 0
M  V30 1879 H 173.491 0.543536 1.97248 0
M  V30 1880 H 173.501 -0.835003 3.99364 0
M  V30 1881 H 172.176 0.307013 4.14765 0
M  V30 1882 H 170.753 -1.39048 3.46006 0
M  V30 1883 N 172.938 -1.57226 0.108567 0
M  V30 1884 C 174.186 -1.94448 -0.550853 0
M  V30 1885 C 174.507 -0.992074 -1.67878 0
M  V30 1886 O 173.777 -0.0465 -1.95845 0
M  V30 1887 H 172.357 -0.717897 -0.206479 0
M  V30 1888 H 175.019 -1.94112 0.175062 0
M  V30 1889 H 174.115 -2.97218 -0.952259 0
M  V30 1890 N 174.416 0.165178 -1.56732 0
M  V30 1891 C 175.379 1.18822 -1.95995 0
M  V30 1892 C 176.379 1.3685 -0.84431 0
M  V30 1893 O 177.569 1.34152 -1.11126 0
M  V30 1894 C 174.701 2.5521 -2.26011 0
M  V30 1895 H 175.894 0.851825 -2.87548 0
M  V30 1896 H 173.447 0.407857 -1.50885 0
M  V30 1897 H 174.182 2.93852 -1.37191 0
M  V30 1898 H 173.967 2.43489 -3.07336 0
M  V30 1899 H 175.457 3.28927 -2.57288 0
M  V30 1900 N 175.894 1.51508 0.433938 0
M  V30 1901 C 177.14 1.64588 1.18484 0
M  V30 1902 C 177.473 0.362666 1.90784 0
M  V30 1903 O 176.748 -0.637892 1.83742 0
M  V30 1904 C 177.031 2.85149 2.19913 0
M  V30 1905 C 176.884 4.23456 1.51674 0
M  V30 1906 C 178.203 3.01227 3.20858 0
M  V30 1907 H 175.322 0.598994 0.429389 0
M  V30 1908 H 177.964 1.84002 0.473647 0
M  V30 1909 H 176.114 2.68729 2.80566 0
M  V30 1910 H 177.786 4.51552 0.943322 0
M  V30 1911 H 176.029 4.25998 0.819035 0
M  V30 1912 H 176.7 5.03812 2.2556 0
M  V30 1913 H 179.176 3.16382 2.70263 0
M  V30 1914 H 178.052 3.87141 3.89118 0
M  V30 1915 H 178.313 2.13447 3.8716 0
M  V30 1916 N 177.372 -0.689602 1.41712 0
M  V30 1917 C 178.335 -1.78521 1.43746 0
M  V30 1918 C 179.335 -1.57436 0.327191 0
M  V30 1919 O 180.525 -1.64 0.587348 0
M  V30 1920 C 177.657 -3.16971 1.25467 0
M  V30 1921 H 178.85 -1.78108 2.41283 0
M  V30 1922 H 176.403 -0.89781 1.27942 0
M  V30 1923 H 177.138 -3.23019 0.287948 0
M  V30 1924 H 176.923 -3.33678 2.05917 0
M  V30 1925 H 178.413 -3.96935 1.2974 0
M  V30 1926 N 178.85 -1.27639 -0.924453 0
M  V30 1927 C 180.097 -1.14167 -1.67249 0
M  V30 1928 C 180.425 0.311863 -1.91984 0
M  V30 1929 O 179.68 1.24425 -1.51053 0
M  V30 1930 C 179.979 -1.87407 -3.04325 0
M  V30 1931 C 179.645 -3.37249 -2.99289 0
M  V30 1932 C 178.307 -3.7812 -2.97622 0
M  V30 1933 C 180.659 -4.32845 -2.90336 0
M  V30 1934 C 177.987 -5.12944 -2.8479 0
M  V30 1935 C 180.339 -5.6773 -2.79045 0
M  V30 1936 C 179.003 -6.07889 -2.7573 0
M  V30 1937 H 178.273 -0.417766 -0.612007 0
M  V30 1938 H 180.92 -1.58286 -1.07786 0
M  V30 1939 H 179.225 -1.35805 -3.67511 0
M  V30 1940 H 180.922 -1.74408 -3.61086 0
M  V30 1941 H 177.512 -3.04748 -3.01374 0
M  V30 1942 H 181.696 -4.02239 -2.90719 0
M  V30 1943 H 176.952 -5.432 -2.80612 0
M  V30 1944 H 181.126 -6.41472 -2.71083 0
M  V30 1945 H 178.753 -7.12314 -2.65544 0
M  V30 1946 N 180.328 1.1314 -1.09713 0
M  V30 1947 C 181.576 1.84119 -0.833338 0
M  V30 1948 C 181.897 1.84097 0.642904 0
M  V30 1949 O 181.167 1.29881 1.46655 0
M  V30 1950 H 179.747 0.681766 -0.305293 0
M  V30 1951 H 182.409 1.37038 -1.38588 0
M  V30 1952 H 181.505 2.88543 -1.18951 0
M  V30 1953 N 181.806 0.884767 1.30421 0
M  V30 1954 C 182.753 0.349642 2.28136 0
M  V30 1955 C 183.723 -0.560061 1.56373 0
M  V30 1956 O 184.908 -0.488524 1.8444 0
M  V30 1957 C 182.048 -0.42999 3.42411 0
M  V30 1958 C 181.161 0.508907 4.28992 0
M  V30 1959 C 180.296 -0.286301 5.30428 0
M  V30 1960 C 179.335 0.648079 6.08659 0
M  V30 1961 N 178.472 -0.111792 7.02011 0
M  V30 1962 H 183.312 1.18807 2.73293 0
M  V30 1963 H 180.849 0.597231 1.3443 0
M  V30 1964 H 182.807 -0.897923 4.07423 0
M  V30 1965 H 181.437 -1.23299 2.98324 0
M  V30 1966 H 180.489 1.09533 3.64289 0
M  V30 1967 H 181.801 1.22475 4.8353 0
M  V30 1968 H 180.955 -0.816098 6.01186 0
M  V30 1969 H 179.694 -1.03536 4.76583 0
M  V30 1970 H 178.699 1.18951 5.36778 0
M  V30 1971 H 179.924 1.39623 6.64592 0
M  V30 1972 H 177.87 -0.843395 6.50556 0
M  V30 1973 H 177.787 0.544429 7.54037 0
M  V30 1974 H 179.055 -0.622339 7.77012 0
M  V30 1975 N 183.284 -1.43765 0.645699 0
M  V30 1976 C 184.216 -2.29027 -0.0890605 0
M  V30 1977 C 185.229 -1.42093 -0.794563 0
M  V30 1978 O 186.418 -1.66104 -0.653575 0
M  V30 1979 C 183.518 -3.18831 -1.14891 0
M  V30 1980 C 182.691 -4.34261 -0.523043 0
M  V30 1981 C 181.75 -5.04994 -1.47878 0
M  V30 1982 O 180.776 -5.6052 -0.990277 0
M  V30 1983 N 181.978 -5.07795 -2.81291 0
M  V30 1984 H 184.743 -2.92727 0.64272 0
M  V30 1985 H 182.304 -1.54373 0.487924 0
M  V30 1986 H 184.296 -3.63015 -1.78892 0
M  V30 1987 H 182.866 -2.56782 -1.78275 0
M  V30 1988 H 182.086 -3.93088 0.295896 0
M  V30 1989 H 183.374 -5.08728 -0.0858147 0
M  V30 1990 H 182.772 -4.64042 -3.23546 0
M  V30 1991 H 181.329 -5.55721 -3.40614 0
M  V30 1992 N 184.763 -0.387143 -1.52771 0
M  V30 1993 C 186.179 -0.037007 -1.59557 0
M  V30 1994 C 186.379 1.44801 -1.40124 0
M  V30 1995 O 185.435 2.21227 -1.21716 0
M  V30 1996 C 186.748 -0.512256 -2.96305 0
M  V30 1997 C 188.296 -0.468328 -3.09476 0
M  V30 1998 C 188.771 -0.919731 -4.4867 0
M  V30 1999 N 190.262 -0.875656 -4.54848 0
M  V30 2000 C 190.997 -1.19637 -5.6078 0
M  V30 2001 N 190.493 -1.58745 -6.74368 0
M  V30 2002 N 192.286 -1.11776 -5.50874 0
M  V30 2003 H 184.437 -1.35395 -1.63652 0
M  V30 2004 H 186.7 -0.554818 -0.768688 0
M  V30 2005 H 186.406 -1.54935 -3.15734 0
M  V30 2006 H 186.28 0.089805 -3.77093 0
M  V30 2007 H 188.667 0.559671 -2.89744 0
M  V30 2008 H 188.748 -1.10616 -2.30646 0
M  V30 2009 H 188.392 -1.94595 -4.69143 0
M  V30 2010 H 188.322 -0.258927 -5.25963 0
M  V30 2011 H 190.813 -0.587843 -3.733 0
M  V30 2012 H 191.126 -1.81586 -7.51163 0
M  V30 2013 H 189.471 -1.6263 -6.75705 0
M  V30 2014 H 192.662 -0.811264 -4.61016 0
M  V30 2015 H 192.835 -1.37103 -6.3333 0
M  V30 2016 N 186.241 1.57166 -0.116904 0
M  V30 2017 C 187.171 2.18222 0.830759 0
M  V30 2018 C 188.152 1.12167 1.27877 0
M  V30 2019 O 189.337 1.40394 1.34176 0
M  V30 2020 C 186.467 2.77996 2.08172 0
M  V30 2021 C 185.421 3.89614 1.77157 0
M  V30 2022 C 184.747 4.36187 3.09265 0
M  V30 2023 C 186.047 5.1181 1.04151 0
M  V30 2024 H 187.741 2.97664 0.321992 0
M  V30 2025 H 185.287 1.4318 0.153434 0
M  V30 2026 H 187.24 3.19366 2.74924 0
M  V30 2027 H 185.964 1.9584 2.6137 0
M  V30 2028 H 184.623 3.48816 1.12796 0
M  V30 2029 H 184.271 3.50893 3.60393 0
M  V30 2030 H 183.971 5.11455 2.89288 0
M  V30 2031 H 185.495 4.80207 3.77139 0
M  V30 2032 H 186.909 5.50214 1.61052 0
M  V30 2033 H 185.306 5.92648 0.942762 0
M  V30 2034 H 186.376 4.84892 0.0279022 0
M  V30 2035 N 187.719 -0.156864 1.56817 0
M  V30 2036 C 189.135 -0.50916 1.5126 0
M  V30 2037 C 189.335 -1.83897 0.823658 0
M  V30 2038 O 188.391 -2.49469 0.390055 0
M  V30 2039 C 189.704 -0.52857 2.96018 0
M  V30 2040 C 191.252 -0.614771 3.06903 0
M  V30 2041 C 191.727 -0.664938 4.53147 0
M  V30 2042 N 193.218 -0.727433 4.57452 0
M  V30 2043 C 193.953 -0.787067 5.67973 0
M  V30 2044 N 193.449 -0.806649 6.88088 0
M  V30 2045 N 195.242 -0.827195 5.5598 0
M  V30 2046 H 187.393 0.714935 2.00006 0
M  V30 2047 H 189.656 0.259526 0.911784 0
M  V30 2048 H 189.362 0.380154 3.49639 0
M  V30 2049 H 189.236 -1.36998 3.51442 0
M  V30 2050 H 191.623 -1.51392 2.53307 0
M  V30 2051 H 191.704 0.253597 2.5454 0
M  V30 2052 H 191.348 0.230011 5.07379 0
M  V30 2053 H 191.278 -1.54966 5.03282 0
M  V30 2054 H 193.769 -0.719998 3.70978 0
M  V30 2055 H 194.082 -0.853727 7.6807 0
M  V30 2056 H 192.427 -0.774687 6.90669 0
M  V30 2057 H 195.618 -0.808998 4.61056 0
M  V30 2058 H 195.791 -0.870206 6.4213 0
M  V30 2059 N 189.197 -1.51736 -0.425897 0
M  V30 2060 C 190.147 -1.70258 -1.51645 0
M  V30 2061 C 191.131 -0.556488 -1.5097 0
M  V30 2062 O 192.323 -0.812879 -1.5723 0
M  V30 2063 C 189.452 -1.84143 -2.89735 0
M  V30 2064 C 188.538 -3.04572 -2.95122 0
M  V30 2065 N 188.929 -4.2756 -2.70233 0
M  V30 2066 C 187.227 -3.04061 -3.26286 0
M  V30 2067 C 187.928 -5.08908 -2.81757 0
M  V30 2068 N 186.904 -4.43797 -3.13919 0
M  V30 2069 H 190.706 -2.63004 -1.31172 0
M  V30 2070 H 188.22 -1.4954 -0.633375 0
M  V30 2071 H 190.217 -1.95525 -3.68206 0
M  V30 2072 H 188.877 -0.925857 -3.1122 0
M  V30 2073 H 189.888 -4.56315 -2.44943 0
M  V30 2074 H 186.565 -2.22179 -3.53473 0
M  V30 2075 H 187.955 -6.16843 -2.66372 0
M  V30 2076 N 190.675 0.682077 -1.42076 0
M  V30 2077 C 191.585 1.82535 -1.47371 0
M  V30 2078 C 192.601 1.7017 -0.363079 0
M  V30 2079 O 193.777 1.91848 -0.612875 0
M  V30 2080 C 190.842 3.18624 -1.36674 0
M  V30 2081 C 189.903 3.42999 -2.58167 0
M  V30 2082 C 189.136 4.72595 -2.4797 0
M  V30 2083 O 189.359 5.50006 -1.5116 0
M  V30 2084 O 188.293 4.98054 -3.37974 0
M  V30 2085 H 192.119 1.81023 -2.43853 0
M  V30 2086 H 189.704 0.836887 -1.2376 0
M  V30 2087 H 191.586 3.99847 -1.33043 0
M  V30 2088 H 190.261 3.20789 -0.433138 0
M  V30 2089 H 189.168 2.61653 -2.67373 0
M  V30 2090 H 190.501 3.45659 -3.50401 0
M  V30 2091 N 192.153 1.28127 0.917671 0
M  V30 2092 C 193.402 1.14432 1.66097 0
M  V30 2093 C 193.715 -0.307247 1.93172 0
M  V30 2094 O 194.921 -0.565259 2.65551 0
M  V30 2095 C 193.377 2.00015 2.99202 0
M  V30 2096 C 192.985 3.49889 2.79789 0
M  V30 2097 C 194.729 1.94996 3.77064 0
M  V30 2098 C 192.636 4.27636 4.08511 0
M  V30 2099 H 191.566 0.424662 0.62304 0
M  V30 2100 H 194.217 1.52628 1.01868 0
M  V30 2101 H 192.599 1.54672 3.64544 0
M  V30 2102 H 193.773 4.03162 2.23152 0
M  V30 2103 H 192.088 3.56392 2.15345 0
M  V30 2104 H 194.685 2.50354 4.72469 0
M  V30 2105 H 195.028 0.925819 4.05875 0
M  V30 2106 H 195.561 2.38287 3.18534 0
M  V30 2107 H 192.3 5.30615 3.84874 0
M  V30 2108 H 191.82 3.79137 4.64774 0
M  V30 2109 H 193.499 4.37346 4.76799 0
M  V30 2110 N 193.631 -1.12557 1.10312 0
M  V30 2111 C 194.561 -2.20341 0.772798 0
M  V30 2112 C 195.542 -1.68198 -0.25365 0
M  V30 2113 O 196.727 -1.93831 -0.119699 0
M  V30 2114 C 193.857 -3.46709 0.202443 0
M  V30 2115 C 192.811 -4.11996 1.15943 0
M  V30 2116 C 192.137 -5.328 0.450345 0
M  V30 2117 C 193.437 -4.5828 2.50552 0
M  V30 2118 H 195.131 -2.48229 1.674 0
M  V30 2119 H 192.677 -1.19308 0.806326 0
M  V30 2120 H 194.63 -4.2138 -0.0407752 0
M  V30 2121 H 193.354 -3.18245 -0.734001 0
M  V30 2122 H 192.013 -3.39305 1.38808 0
M  V30 2123 H 191.661 -5.00602 -0.490531 0
M  V30 2124 H 191.361 -5.7743 1.08851 0
M  V30 2125 H 192.885 -6.10219 0.215642 0
M  V30 2126 H 194.299 -5.2433 2.31843 0
M  V30 2127 H 192.696 -5.13683 3.10242 0
M  V30 2128 H 193.766 -3.72329 3.10643 0
M  V30 2129 N 195.109 -0.891671 -1.2995 0
M  V30 2130 C 196.039 -0.379797 -2.30391 0
M  V30 2131 C 197.02 0.540919 -1.6127 0
M  V30 2132 O 198.205 0.453352 -1.88834 0
M  V30 2133 C 195.335 0.400654 -3.44981 0
M  V30 2134 C 194.289 -0.428905 -4.25846 0
M  V30 2135 C 193.615 0.478557 -5.32554 0
M  V30 2136 C 194.915 -1.67458 -4.94727 0
M  V30 2137 H 196.609 -1.21914 -2.73454 0
M  V30 2138 H 194.155 -0.587675 -1.31462 0
M  V30 2139 H 196.108 0.769434 -4.14316 0
M  V30 2140 H 194.832 1.27371 -3.0074 0
M  V30 2141 H 193.491 -0.779911 -3.58208 0
M  V30 2142 H 193.139 1.34951 -4.84559 0
M  V30 2143 H 192.839 -0.0727433 -5.87555 0
M  V30 2144 H 194.363 0.843705 -6.04743 0
M  V30 2145 H 195.777 -1.376 -5.56542 0
M  V30 2146 H 194.174 -2.16659 -5.59624 0
M  V30 2147 H 195.244 -2.41518 -4.20473 0
M  V30 2148 N 196.587 1.43421 -0.653314 0
M  V30 2149 C 197.812 2.06678 -0.172846 0
M  V30 2150 C 198.237 1.48648 1.15262 0
M  V30 2151 O 197.595 0.596457 1.71208 0
M  V30 2152 C 197.643 3.60474 -0.0953184 0
M  V30 2153 O 196.747 4.01487 0.942442 0
M  V30 2154 H 196.088 0.657181 -0.0949155 0
M  V30 2155 H 198.618 1.83925 -0.896265 0
M  V30 2156 H 198.628 4.07905 0.0879728 0
M  V30 2157 H 197.303 4.02088 -1.06291 0
M  V30 2158 H 195.88 3.65646 0.731932 0
M  V30 2159 N 198.065 0.39524 1.52563 0
M  V30 2160 C 198.997 -0.472201 2.24283 0
M  V30 2161 C 200.01 -1.02178 1.26742 0
M  V30 2162 O 201.199 -0.923097 1.52778 0
M  V30 2163 C 198.299 -1.66775 2.95024 0
M  V30 2164 C 197.472 -1.2445 4.19322 0
M  V30 2165 C 196.531 -2.30539 4.7301 0
M  V30 2166 O 195.557 -1.91702 5.35947 0
M  V30 2167 N 196.759 -3.6253 4.53379 0
M  V30 2168 H 199.524 0.142282 2.99362 0
M  V30 2169 H 197.085 0.2219 1.60372 0
M  V30 2170 H 199.077 -2.37283 3.27839 0
M  V30 2171 H 197.647 -2.18845 2.23217 0
M  V30 2172 H 196.867 -0.368069 3.92478 0
M  V30 2173 H 198.155 -0.938457 5.0007 0
M  V30 2174 H 197.553 -3.96841 4.03154 0
M  V30 2175 H 196.11 -4.29055 4.90668 0
M  V30 2176 N 199.544 -1.57102 0.125237 0
M  V30 2177 C 200.769 -2.0019 -0.542101 0
M  V30 2178 C 201.194 -1.00449 -1.59034 0
M  V30 2179 O 200.552 0.0229423 -1.81285 0
M  V30 2180 C 200.6 -3.42129 -1.13929 0
M  V30 2181 O 199.704 -3.45307 -2.2547 0
M  V30 2182 H 199.045 -0.650171 -0.134812 0
M  V30 2183 H 201.575 -2.03461 0.215553 0
M  V30 2184 H 201.585 -3.80471 -1.4733 0
M  V30 2185 H 200.26 -4.14237 -0.371531 0
M  V30 2186 H 198.837 -3.1879 -1.93462 0
M  V30 2187 N 201.022 0.148545 -1.56898 0
M  V30 2188 C 202.268 0.862694 -1.83536 0
M  V30 2189 C 202.601 1.80889 -0.706604 0
M  V30 2190 O 201.876 1.92328 0.289885 0
M  V30 2191 C 202.159 1.63853 -3.20662 0
M  V30 2192 C 202.012 0.713925 -4.44098 0
M  V30 2193 C 203.331 2.60133 -3.54991 0
M  V30 2194 H 200.45 0.312179 -0.667618 0
M  V30 2195 H 203.092 0.127953 -1.89569 0
M  V30 2196 H 201.242 2.26489 -3.1565 0
M  V30 2197 H 202.914 0.098686 -4.61194 0
M  V30 2198 H 201.157 0.0234019 -4.33794 0
M  V30 2199 H 201.828 1.29278 -5.36648 0
M  V30 2200 H 204.304 2.07616 -3.60603 0
M  V30 2201 H 203.18 3.11468 -4.51972 0
M  V30 2202 H 203.441 3.41417 -2.80868 0
M  V30 2203 N 202.5 1.5196 0.417844 0
M  V30 2204 C 203.916 1.40569 0.755816 0
M  V30 2205 C 204.116 0.503316 1.95113 0
M  V30 2206 O 203.172 -0.0341925 2.52477 0
M  V30 2207 C 204.485 2.82947 1.01791 0
M  V30 2208 C 206.033 2.92231 1.12116 0
M  V30 2209 C 206.508 4.35559 1.41608 0
M  V30 2210 N 207.999 4.38753 1.48491 0
M  V30 2211 C 208.734 5.46705 1.7292 0
M  V30 2212 N 208.23 6.64788 1.95011 0
M  V30 2213 N 210.023 5.34209 1.74863 0
M  V30 2214 H 202.174 2.09168 -0.369098 0
M  V30 2215 H 204.437 0.942409 -0.102809 0
M  V30 2216 H 204.143 3.5106 0.212081 0
M  V30 2217 H 204.017 3.23462 1.94042 0
M  V30 2218 H 206.404 2.24304 1.9176 0
M  V30 2219 H 206.485 2.55185 0.177225 0
M  V30 2220 H 206.129 5.04042 0.624848 0
M  V30 2221 H 206.059 4.70133 2.37239 0
M  V30 2222 H 208.55 3.5363 1.33244 0
M  V30 2223 H 208.863 7.42845 2.13076 0
M  V30 2224 H 207.208 6.67869 1.92293 0
M  V30 2225 H 210.399 4.40937 1.57137 0
M  V30 2226 H 210.572 6.18415 1.93563 0
M  V30 2227 N 203.978 -0.674533 1.42435 0
M  V30 2228 C 204.91 -1.80005 1.41883 0
M  V30 2229 C 205.923 -1.59667 0.31787 0
M  V30 2230 O 207.112 -1.68781 0.580973 0
M  V30 2231 C 204.212 -3.17114 1.19549 0
M  V30 2232 C 203.385 -3.64299 2.42084 0
M  V30 2233 C 202.444 -4.80142 2.15291 0
M  V30 2234 O 201.47 -4.90673 2.88493 0
M  V30 2235 N 202.672 -5.68869 1.1562 0
M  V30 2236 H 205.437 -1.80964 2.38898 0
M  V30 2237 H 202.998 -0.857633 1.37318 0
M  V30 2238 H 204.99 -3.92267 0.995417 0
M  V30 2239 H 203.56 -3.11053 0.310569 0
M  V30 2240 H 202.78 -2.79822 2.77657 0
M  V30 2241 H 204.068 -3.92567 3.23679 0
M  V30 2242 H 203.466 -5.63012 0.550765 0
M  V30 2243 H 202.023 -6.43833 1.016 0
M  V30 2244 N 205.456 -1.28612 -0.910864 0
M  V30 2245 C 206.419 -1.12803 -1.9952 0
M  V30 2246 C 207.419 -0.0668264 -1.60661 0
M  V30 2247 O 208.609 -0.312847 -1.71368 0
M  V30 2248 C 205.741 -0.72254 -3.33155 0
M  V30 2249 H 206.934 -2.09109 -2.14973 0
M  V30 2250 H 204.487 -1.11639 -1.09391 0
M  V30 2251 H 205.222 0.241152 -3.23402 0
M  V30 2252 H 205.007 -1.48916 -3.62721 0
M  V30 2253 H 206.497 -0.634666 -4.12749 0
M  V30 2254 N 206.934 1.1197 -1.10907 0
M  V30 2255 C 207.864 2.19928 -0.784473 0
M  V30 2256 C 208.845 1.6833 0.244726 0
M  V30 2257 O 210.03 1.93892 0.109418 0
M  V30 2258 C 207.16 3.46597 -0.220827 0
M  V30 2259 C 206.114 4.11376 -1.18127 0
M  V30 2260 C 205.44 5.32554 -0.478594 0
M  V30 2261 C 206.74 4.56945 -2.52979 0
M  V30 2262 H 208.434 2.47337 -1.68715 0
M  V30 2263 H 205.98 1.18879 -0.812642 0
M  V30 2264 H 207.933 4.21396 0.0184278 0
M  V30 2265 H 206.657 3.1863 0.717113 0
M  V30 2266 H 205.316 3.38564 -1.40606 0
M  V30 2267 H 204.964 5.00856 0.463976 0
M  V30 2268 H 204.664 5.76844 -1.11912 0
M  V30 2269 H 206.188 6.10096 -0.248 0
M  V30 2270 H 207.602 5.23093 -2.3462 0
M  V30 2271 H 205.999 5.1203 -3.12962 0
M  V30 2272 H 207.069 3.70676 -3.12614 0
M  V30 2273 N 208.412 0.89855 1.29475 0
M  V30 2274 C 209.362 0.346767 2.25348 0
M  V30 2275 C 210.346 -0.532509 1.51833 0
M  V30 2276 O 211.538 -0.374714 1.72988 0
M  V30 2277 C 208.667 -0.425681 3.40651 0
M  V30 2278 C 207.753 0.46845 4.21505 0
M  V30 2279 N 208.144 1.57514 4.80648 0
M  V30 2280 C 206.442 0.26603 4.45206 0
M  V30 2281 C 207.143 2.12889 5.41344 0
M  V30 2282 N 206.119 1.42208 5.24669 0
M  V30 2283 H 209.921 1.19219 2.68634 0
M  V30 2284 H 207.435 0.749473 1.44072 0
M  V30 2285 H 209.432 -0.837716 4.08397 0
M  V30 2286 H 208.092 -1.26838 2.98902 0
M  V30 2287 H 209.103 1.95789 4.79465 0
M  V30 2288 H 205.78 -0.538394 4.14014 0
M  V30 2289 H 207.17 3.05901 5.98226 0
M  V30 2290 N 209.89 -1.43072 0.660911 0
M  V30 2291 C 211.115 -2.06584 0.183805 0
M  V30 2292 C 211.54 -1.49257 -1.14472 0
M  V30 2293 O 210.898 -0.605528 -1.70889 0
M  V30 2294 C 210.946 -3.60418 0.114434 0
M  V30 2295 O 210.05 -4.01981 -0.921137 0
M  V30 2296 H 209.391 -0.656669 0.0983994 0
M  V30 2297 H 211.921 -1.83447 0.906006 0
M  V30 2298 H 211.931 -4.07946 -0.0663394 0
M  V30 2299 H 210.606 -4.01519 1.08422 0
M  V30 2300 H 209.183 -3.66029 -0.71253 0
M  V30 2301 N 211.368 -0.403325 -1.52352 0
M  V30 2302 C 212.616 0.174003 -2.0135 0
M  V30 2303 C 212.937 1.46139 -1.29106 0
M  V30 2304 O 212.207 1.91448 -0.415253 0
M  V30 2305 H 210.787 0.0672911 -0.743963 0
M  V30 2306 H 213.449 -0.538235 -1.87321 0
M  V30 2307 H 212.545 0.374254 -3.09848 0
M  V30 2308 N 212.846 1.57033 -0.133567 0
M  V30 2309 C 213.778 2.13176 0.841944 0
M  V30 2310 C 214.791 1.07794 1.22001 0
M  V30 2311 O 215.98 1.35117 1.16643 0
M  V30 2312 C 213.08 2.62847 2.13926 0
M  V30 2313 C 212.253 3.92486 1.93064 0
M  V30 2314 C 211.312 4.27605 3.0666 0
M  V30 2315 O 210.338 4.96168 2.78937 0
M  V30 2316 N 211.54 3.861 4.33483 0
M  V30 2317 H 214.305 2.97503 0.362192 0
M  V30 2318 H 211.866 1.61821 0.05042 0
M  V30 2319 H 213.858 2.83363 2.88942 0
M  V30 2320 H 212.428 1.83319 2.53205 0
M  V30 2321 H 211.648 3.80732 1.02159 0
M  V30 2322 H 212.936 4.77225 1.76447 0
M  V30 2323 H 212.334 3.30828 4.58878 0
M  V30 2324 H 210.891 4.11694 5.05323 0
M  V30 2325 N 214.325 -0.140222 1.56975 0
M  V30 2326 C 215.273 -1.19207 1.99731 0
M  V30 2327 C 216.267 -1.44089 0.890777 0
M  V30 2328 O 217.473 -1.44301 1.07597 0
M  V30 2329 H 213.848 -0.40142 0.635898 0
M  V30 2330 H 215.819 -0.804813 2.87342 0
M  V30 2331 C 214.568 -2.51617 2.39967 0
M  V30 2332 H 213.891 -2.33303 3.24669 0
M  V30 2333 H 215.331 -3.23827 2.73701 0
M  V30 2334 C 213.79 -3.12654 1.25496 0
M  V30 2335 O 214.32 -3.97786 0.559371 0
M  V30 2336 N 212.526 -2.72206 1.01746 0
M  V30 2337 H 212.073 -2.03074 1.58489 0
M  V30 2338 H 212.031 -3.13377 0.253461 0
M  V30 2339 N 215.803 -1.52179 -0.40978 0
M  V30 2340 C 216.735 -1.71703 -1.51825 0
M  V30 2341 C 217.748 -0.597445 -1.51441 0
M  V30 2342 O 218.937 -0.872582 -1.55719 0
M  V30 2343 C 216.037 -1.74171 -2.90719 0
M  V30 2344 C 215.21 -3.03156 -3.15302 0
M  V30 2345 C 214.269 -2.97445 -4.34065 0
M  V30 2346 O 213.295 -3.71352 -4.31377 0
M  V30 2347 N 214.497 -2.15191 -5.39141 0
M  V30 2348 H 217.262 -2.67334 -1.35472 0
M  V30 2349 H 214.823 -1.50409 -0.599069 0
M  V30 2350 H 216.815 -1.67884 -3.68235 0
M  V30 2351 H 215.385 -0.860166 -3.00533 0
M  V30 2352 H 214.605 -3.23097 -2.25836 0
M  V30 2353 H 215.893 -3.88484 -3.28569 0
M  V30 2354 H 215.291 -1.54573 -5.44173 0
M  V30 2355 H 213.848 -2.1476 -6.15403 0
M  V30 2356 N 217.281 0.66697 -1.42791 0
M  V30 2357 C 218.211 1.79218 -1.49677 0
M  V30 2358 C 219.192 1.66405 -0.352623 0
M  V30 2359 O 220.377 1.85708 -0.567993 0
M  V30 2360 C 217.507 3.17565 -1.40605 0
M  V30 2361 C 216.461 3.45124 -2.53127 0
M  V30 2362 C 215.787 4.83127 -2.29112 0
M  V30 2363 C 217.087 3.41236 -3.95418 0
M  V30 2364 H 218.781 1.73713 -2.43853 0
M  V30 2365 H 216.327 0.83432 -1.17367 0
M  V30 2366 H 218.28 3.96022 -1.44029 0
M  V30 2367 H 217.004 3.23767 -0.429271 0
M  V30 2368 H 215.663 2.69031 -2.49034 0
M  V30 2369 H 215.311 4.85988 -1.29709 0
M  V30 2370 H 215.011 5.02528 -3.04531 0
M  V30 2371 H 216.535 5.63859 -2.34297 0
M  V30 2372 H 217.949 4.09651 -4.01073 0
M  V30 2373 H 216.346 3.72173 -4.70752 0
M  V30 2374 H 217.416 2.39665 -4.21532 0
M  V30 2375 N 218.759 1.29093 0.90403 0
M  V30 2376 C 219.706 1.13853 2.00764 0
M  V30 2377 C 220.676 0.0330084 1.66067 0
M  V30 2378 O 221.861 0.199733 1.89752 0
M  V30 2379 C 219.001 0.816537 3.35301 0
M  V30 2380 C 218.114 2.00206 3.82807 0
M  V30 2381 C 217.249 1.61983 5.059 0
M  V30 2382 C 216.288 2.77143 5.45764 0
M  V30 2383 N 215.425 2.39346 6.60044 0
M  V30 2384 H 220.265 2.08276 2.13132 0
M  V30 2385 H 217.802 1.03648 1.04381 0
M  V30 2386 H 219.76 0.610557 4.12708 0
M  V30 2387 H 218.39 -0.090779 3.22672 0
M  V30 2388 H 217.442 2.31988 3.01473 0
M  V30 2389 H 218.754 2.86512 4.08304 0
M  V30 2390 H 217.908 1.37649 5.90879 0
M  V30 2391 H 216.647 0.728202 4.82233 0
M  V30 2392 H 215.652 3.02165 4.59322 0
M  V30 2393 H 216.877 3.66964 5.71414 0
M  V30 2394 H 214.823 1.52665 6.37989 0
M  V30 2395 H 214.74 3.19185 6.85315 0
M  V30 2396 H 216.008 2.1832 7.48303 0
M  V30 2397 N 220.237 -1.11381 1.11499 0
M  V30 2398 C 221.147 -2.21019 0.786628 0
M  V30 2399 C 222.163 -1.72597 -0.220507 0
M  V30 2400 O 223.339 -2.01321 -0.0565251 0
M  V30 2401 C 220.404 -3.459 0.235333 0
M  V30 2402 C 219.465 -4.09107 1.30115 0
M  V30 2403 C 218.698 -5.28027 0.776068 0
M  V30 2404 O 218.921 -5.6904 -0.393661 0
M  V30 2405 O 217.855 -5.81835 1.54114 0
M  V30 2406 H 221.681 -2.51521 1.70209 0
M  V30 2407 H 219.266 -1.19928 0.890928 0
M  V30 2408 H 221.148 -4.21346 -0.067715 0
M  V30 2409 H 219.823 -3.17049 -0.652828 0
M  V30 2410 H 218.73 -3.35391 1.65722 0
M  V30 2411 H 220.063 -4.42139 2.16273 0
M  V30 2412 N 221.715 -0.905404 -1.28997 0
M  V30 2413 C 222.648 -0.331959 -2.25773 0
M  V30 2414 C 223.626 0.559099 -1.52685 0
M  V30 2415 O 224.81 0.50463 -1.8162 0
M  V30 2416 C 221.937 0.526276 -3.34586 0
M  V30 2417 C 220.983 -0.298249 -4.25456 0
M  V30 2418 S 221.816 -1.69968 -5.0781 0
M  V30 2419 C 222.972 -0.848519 -6.20122 0
M  V30 2420 H 223.205 -1.15222 -2.74064 0
M  V30 2421 H 220.738 -0.706112 -1.37308 0
M  V30 2422 H 222.696 1.01565 -3.97737 0
M  V30 2423 H 221.357 1.32084 -2.84978 0
M  V30 2424 H 220.55 0.357607 -5.0273 0
M  V30 2425 H 220.152 -0.720968 -3.66985 0
M  V30 2426 H 222.444 -0.0744325 -6.77459 0
M  V30 2427 H 223.387 -1.59353 -6.89937 0
M  V30 2428 H 223.795 -0.400383 -5.63078 0
M  V30 2429 N 223.193 1.4272 -0.668489 0
M  V30 2430 C 224.156 2.292 0.00448567 0
M  V30 2431 C 225.156 1.43001 0.735339 0
M  V30 2432 O 226.346 1.64461 0.57429 0
M  V30 2433 C 223.478 3.25375 1.01705 0
M  V30 2434 H 224.671 2.90199 -0.756608 0
M  V30 2435 H 222.224 1.50254 -0.430506 0
M  V30 2436 H 222.959 2.69301 1.80686 0
M  V30 2437 H 222.744 3.88944 0.496463 0
M  V30 2438 H 224.234 3.90245 1.48655 0
M  V30 2439 N 224.671 0.411399 1.52136 0
M  V30 2440 C 225.92 -0.165009 2.01024 0
M  V30 2441 C 226.233 -1.4603 1.30133 0
M  V30 2442 O 227.439 -2.1181 1.69849 0
M  V30 2443 C 225.895 -0.344618 3.58246 0
M  V30 2444 C 225.503 0.938716 4.38055 0
M  V30 2445 C 227.247 -0.876195 4.15359 0
M  V30 2446 C 225.154 0.726172 5.86925 0
M  V30 2447 H 224.084 -0.0654407 0.751155 0
M  V30 2448 H 226.735 0.537192 1.75461 0
M  V30 2449 H 225.117 -1.10921 3.80148 0
M  V30 2450 H 226.291 1.70963 4.27912 0
M  V30 2451 H 224.606 1.39688 3.92271 0
M  V30 2452 H 227.203 -1.05128 5.24263 0
M  V30 2453 H 227.546 -1.85152 3.7286 0
M  V30 2454 H 228.079 -0.170607 3.97434 0
M  V30 2455 H 224.818 1.67312 6.33788 0
M  V30 2456 H 224.338 -0.00540283 5.998 0
M  V30 2457 H 226.017 0.369231 6.45946 0
M  V30 2458 N 226.149 -1.5696 0.141893 0
M  V30 2459 C 227.56 -1.82797 -0.379776 0
M  V30 2460 C 227.911 -1.06033 -1.6508 0
M  V30 2461 O 227.036 -0.304011 -2.14254 0
M  V30 2462 C 227.631 -3.31578 -0.695802 0
M  V30 2463 C 226.19 -3.58014 -1.16201 0
M  V30 2464 C 225.337 -2.76699 -0.182455 0
M  V30 2465 H 228.288 -1.54406 0.366675 0
M  V30 2466 H 228.309 -3.47454 -1.55099 0
M  V30 2467 H 227.821 -3.87421 0.229449 0
M  V30 2468 H 225.922 -3.07553 -2.10338 0
M  V30 2469 H 226.035 -4.66501 -1.09151 0
M  V30 2470 H 224.399 -2.45618 -0.674072 0
M  V30 2471 H 225.182 -3.35311 0.736297 0
M  V30 2472 N 227.627 0.131896 -1.57047 0
M  V30 2473 C 228.873 0.843179 -1.84441 0
M  V30 2474 C 229.206 1.80129 -0.725749 0
M  V30 2475 O 228.481 1.92624 0.269469 0
M  V30 2476 C 228.764 1.60442 -3.22382 0
M  V30 2477 C 228.617 0.666782 -4.4483 0
M  V30 2478 C 229.936 2.56354 -3.5773 0
M  V30 2479 H 227.055 0.305081 -0.670891 0
M  V30 2480 H 229.697 0.107839 -1.89694 0
M  V30 2481 H 227.847 2.23128 -3.18035 0
M  V30 2482 H 229.519 0.0497646 -4.61273 0
M  V30 2483 H 227.762 -0.022609 -4.33794 0
M  V30 2484 H 228.433 1.23579 -5.37989 0
M  V30 2485 H 230.909 2.0378 -3.62785 0
M  V30 2486 H 229.785 3.06657 -4.5525 0
M  V30 2487 H 230.046 3.38419 -2.84473 0
M  V30 2488 N 229.106 1.52395 0.401703 0
M  V30 2489 C 230.036 1.79231 1.49661 0
M  V30 2490 C 231.017 0.643654 1.57452 0
M  V30 2491 O 232.202 0.889989 1.72606 0
M  V30 2492 C 229.332 1.94971 2.87409 0
M  V30 2493 C 228.286 3.10604 2.94465 0
M  V30 2494 C 227.612 3.11577 4.34538 0
M  V30 2495 C 228.912 4.49921 2.6527 0
M  V30 2496 H 230.606 2.70917 1.27454 0
M  V30 2497 H 228.152 1.30362 0.6117 0
M  V30 2498 H 230.105 2.12328 3.63999 0
M  V30 2499 H 228.829 0.999632 3.10926 0
M  V30 2500 H 227.488 2.93009 2.20321 0
M  V30 2501 H 227.136 2.14277 4.55076 0
M  V30 2502 H 226.836 3.89247 4.40183 0
M  V30 2503 H 228.36 3.31073 5.13053 0
M  V30 2504 H 229.774 4.67683 3.31581 0
M  V30 2505 H 228.171 5.29564 2.82281 0
M  V30 2506 H 229.241 4.57507 1.60671 0
M  V30 2507 N 230.584 -0.659388 1.43143 0
M  V30 2508 C 231.494 -1.80167 1.50256 0
M  V30 2509 C 232.51 -1.69571 0.390106 0
M  V30 2510 O 233.686 -1.90849 0.643319 0
M  V30 2511 C 230.751 -3.16409 1.41725 0
M  V30 2512 C 229.812 -3.38848 2.63591 0
M  V30 2513 C 229.045 -4.68591 2.55458 0
M  V30 2514 O 229.268 -5.47532 1.59891 0
M  V30 2515 O 228.202 -4.92614 3.45854 0
M  V30 2516 H 232.028 -1.77121 2.46702 0
M  V30 2517 H 229.613 -0.817092 1.25076 0
M  V30 2518 H 231.495 -3.9768 1.39387 0
M  V30 2519 H 230.17 -3.20059 0.484118 0
M  V30 2520 H 229.077 -2.57366 2.71502 0
M  V30 2521 H 230.41 -3.4004 3.55856 0
M  V30 2522 N 232.062 -1.29571 -0.897171 0
M  V30 2523 C 233.025 -1.14913 -1.98312 0
M  V30 2524 C 234.025 -0.0838629 -1.60581 0
M  V30 2525 O 235.215 -0.331006 -1.71026 0
M  V30 2526 C 232.347 -0.757835 -3.3237 0
M  V30 2527 H 233.54 -2.11377 -2.12743 0
M  V30 2528 H 231.093 -1.12793 -1.08201 0
M  V30 2529 H 231.828 0.206837 -3.2364 0
M  V30 2530 H 231.613 -1.52755 -3.61121 0
M  V30 2531 H 233.103 -0.678408 -4.12053 0
M  V30 2532 N 233.54 1.10788 -1.12088 0
M  V30 2533 C 234.956 1.34691 -0.856186 0
M  V30 2534 C 235.156 1.94791 0.515615 0
M  V30 2535 O 234.212 2.18524 1.26505 0
M  V30 2536 C 235.525 2.27208 -1.9697 0
M  V30 2537 C 237.073 2.40755 -2.00016 0
M  V30 2538 C 237.548 3.36598 -3.1059 0
M  V30 2539 N 239.039 3.44164 -3.10008 0
M  V30 2540 C 239.774 4.18284 -3.92206 0
M  V30 2541 N 239.27 4.95322 -4.84384 0
M  V30 2542 N 241.063 4.13865 -3.80357 0
M  V30 2543 H 233.214 0.70144 -2.00483 0
M  V30 2544 H 235.477 0.371405 -0.872217 0
M  V30 2545 H 235.183 1.90251 -2.958 0
M  V30 2546 H 235.057 3.27485 -1.87172 0
M  V30 2547 H 237.444 2.76982 -1.01808 0
M  V30 2548 H 237.525 1.40305 -2.13888 0
M  V30 2549 H 237.169 3.01096 -4.09028 0
M  V30 2550 H 237.099 4.36918 -2.93956 0
M  V30 2551 H 239.59 2.8922 -2.43228 0
M  V30 2552 H 239.903 5.49267 -5.43623 0
M  V30 2553 H 238.248 4.94459 -4.884 0
M  V30 2554 H 241.439 3.52773 -3.07683 0
M  V30 2555 H 241.612 4.71372 -4.44649 0
M  V30 2556 N 235.018 0.912232 1.28515 0
M  V30 2557 C 235.981 0.404223 2.25607 0
M  V30 2558 C 236.981 -0.468602 1.53821 0
M  V30 2559 O 238.171 -0.271873 1.72065 0
M  V30 2560 C 235.303 -0.420653 3.38295 0
M  V30 2561 H 236.496 1.26188 2.7206 0
M  V30 2562 H 234.049 0.691495 1.40171 0
M  V30 2563 H 234.784 -1.29777 2.97201 0
M  V30 2564 H 234.569 0.204935 3.91564 0
M  V30 2565 H 236.059 -0.766971 4.10496 0
M  V30 2566 N 236.496 -1.42363 0.676048 0
M  V30 2567 C 237.736 -2.03392 0.20273 0
M  V30 2568 C 238.1 -1.52306 -1.16906 0
M  V30 2569 O 239.301 -2.05129 -1.73711 0
M  V30 2570 C 237.572 -3.56614 0.236947 0
M  V30 2571 S 239.131 -4.38489 -0.165186 0
M  V30 2572 H 235.949 -0.70611 0.0832418 0
M  V30 2573 H 238.551 -1.74093 0.88948 0
M  V30 2574 H 237.255 -3.91293 1.23767 0
M  V30 2575 H 236.786 -3.90587 -0.469596 0
M  V30 2576 H 238.801 -4.76093 -1.39822 0
M  V30 2577 N 237.974 -0.419461 -1.51915 0
M  V30 2578 C 238.937 0.389116 -2.25873 0
M  V30 2579 C 239.937 0.964924 -1.28631 0
M  V30 2580 O 241.127 0.842179 -1.52489 0
M  V30 2581 C 238.259 1.54874 -3.03689 0
M  V30 2582 H 239.452 -0.258799 -2.98781 0
M  V30 2583 H 237.005 -0.172209 -1.55348 0
M  V30 2584 H 237.74 2.23323 -2.35154 0
M  V30 2585 H 237.525 1.14223 -3.75094 0
M  V30 2586 H 239.015 2.12046 -3.59759 0
M  V30 2587 N 239.452 1.56882 -0.150215 0
M  V30 2588 C 240.415 2.1573 0.774157 0
M  V30 2589 C 241.415 1.0999 1.17298 0
M  V30 2590 O 242.605 1.35613 1.09338 0
M  V30 2591 C 239.737 2.72302 2.05096 0
M  V30 2592 H 240.93 2.98752 0.262201 0
M  V30 2593 H 238.483 1.55985 0.099248 0
M  V30 2594 H 239.218 1.92956 2.6065 0
M  V30 2595 H 239.003 3.49665 1.77416 0
M  V30 2596 H 240.493 3.17632 2.71109 0
M  V30 2597 N 240.93 -0.123565 1.57115 0
M  V30 2598 C 241.893 -1.13583 1.99076 0
M  V30 2599 C 242.893 -1.34564 0.880296 0
M  V30 2600 O 244.083 -1.31158 1.14644 0
M  V30 2601 C 241.215 -2.49128 2.32698 0
M  V30 2602 H 242.408 -0.775287 2.89706 0
M  V30 2603 H 239.961 -0.36771 1.51913 0
M  V30 2604 H 240.696 -2.90111 1.44934 0
M  V30 2605 H 240.481 -2.35255 3.13684 0
M  V30 2606 H 241.971 -3.2199 2.65918 0
M  V30 2607 N 242.408 -1.52605 -0.393616 0
M  V30 2608 C 243.656 -1.67093 -1.13685 0
M  V30 2609 C 243.977 -0.411011 -1.90619 0
M  V30 2610 O 243.247 0.574491 -1.87287 0
M  V30 2611 H 241.827 -0.615923 -0.422668 0
M  V30 2612 H 244.489 -1.89704 -0.447039 0
M  V30 2613 H 243.585 -2.51922 -1.84232 0
M  V30 2614 N 243.887 0.651787 -1.4349 0
M  V30 2615 C 244.819 1.77725 -1.44729 0
M  V30 2616 C 245.832 1.59141 -0.343231 0
M  V30 2617 O 247.021 1.67835 -0.607751 0
M  V30 2618 C 244.121 3.15172 -1.24579 0
M  V30 2619 C 243.294 3.60402 -2.47849 0
M  V30 2620 C 242.353 4.76656 -2.22902 0
M  V30 2621 O 241.379 4.86022 -2.96263 0
M  V30 2622 N 242.581 5.66958 -1.24656 0
M  V30 2623 H 245.346 1.77141 -2.41746 0
M  V30 2624 H 242.907 0.835678 -1.38665 0
M  V30 2625 H 244.899 3.90634 -1.0577 0
M  V30 2626 H 243.469 3.1052 -0.360015 0
M  V30 2627 H 242.689 2.75369 -2.82073 0
M  V30 2628 H 243.977 3.87368 -3.29884 0
M  V30 2629 H 243.375 5.62065 -0.640265 0
M  V30 2630 H 241.932 6.42135 -1.1183 0
M  V30 2631 N 245.365 1.30045 0.890287 0
M  V30 2632 C 246.59 1.21598 1.68014 0
M  V30 2633 C 247.015 -0.218678 1.86825 0
M  V30 2634 O 246.373 -1.15756 1.39536 0
M  V30 2635 C 246.421 1.94434 3.03691 0
M  V30 2636 O 245.525 1.2678 3.92429 0
M  V30 2637 H 244.866 0.420856 0.513592 0
M  V30 2638 H 247.396 1.71775 1.11151 0
M  V30 2639 H 247.406 2.03251 3.5377 0
M  V30 2640 H 246.081 2.98777 2.89318 0
M  V30 2641 H 244.658 1.26282 3.50866 0
M  V30 2642 N 246.843 -1.10192 1.12674 0
M  V30 2643 C 248.091 -1.81845 0.881861 0
M  V30 2644 C 248.412 -1.85737 -0.593867 0
M  V30 2645 O 247.682 -1.33724 -1.4316 0
M  V30 2646 H 246.262 -0.673432 0.323261 0
M  V30 2647 H 248.924 -1.33316 1.42172 0
M  V30 2648 H 248.02 -2.85288 1.2656 0
M  V30 2649 N 248.321 -0.919034 -1.28029 0
M  V30 2650 C 249.251 -0.428581 -2.29533 0
M  V30 2651 C 250.232 0.50659 -1.62381 0
M  V30 2652 O 251.417 0.413195 -1.89753 0
M  V30 2653 C 248.547 0.327388 -3.45753 0
M  V30 2654 C 247.501 -0.519137 -4.2484 0
M  V30 2655 C 246.827 0.365486 -5.33449 0
M  V30 2656 C 248.127 -1.77914 -4.91064 0
M  V30 2657 H 249.821 -1.27687 -2.70807 0
M  V30 2658 H 247.367 -0.615428 -1.30186 0
M  V30 2659 H 249.32 0.681378 -4.15855 0
M  V30 2660 H 248.044 1.20963 -3.03374 0
M  V30 2661 H 246.703 -0.855717 -3.56473 0
M  V30 2662 H 246.351 1.24642 -4.87312 0
M  V30 2663 H 246.051 -0.197356 -5.87268 0
M  V30 2664 H 247.575 0.715241 -6.06396 0
M  V30 2665 H 248.989 -1.49374 -5.53498 0
M  V30 2666 H 247.386 -2.2848 -5.54903 0
M  V30 2667 H 248.456 -2.50382 -4.15255 0
M  V30 2668 N 249.799 1.42003 -0.683588 0
M  V30 2669 C 250.732 2.28166 0.039592 0
M  V30 2670 C 251.71 1.41562 0.799942 0
M  V30 2671 O 252.894 1.70997 0.793248 0
M  V30 2672 C 250.021 3.21575 1.06335 0
M  V30 2673 C 249.067 4.24643 0.397562 0
M  V30 2674 S 249.9 5.2869 -0.851296 0
M  V30 2675 C 251.056 6.25666 0.171166 0
M  V30 2676 H 251.289 2.89153 -0.691229 0
M  V30 2677 H 248.822 1.46962 -0.473435 0
M  V30 2678 H 250.78 3.75928 1.6489 0
M  V30 2679 H 249.441 2.59707 1.76667 0
M  V30 2680 H 248.634 4.90223 1.17035 0
M  V30 2681 H 248.236 3.73824 -0.114611 0
M  V30 2682 H 250.528 6.69653 1.02819 0
M  V30 2683 H 251.471 7.06666 -0.450397 0
M  V30 2684 H 251.879 5.62095 0.520578 0
M  V30 2685 N 251.277 0.427512 1.51691 0
M  V30 2686 C 252.24 -0.377132 2.26076 0
M  V30 2687 C 253.24 -0.958089 1.29141 0
M  V30 2688 O 254.43 -0.83408 1.52934 0
M  V30 2689 C 251.562 -1.53262 3.04506 0
M  V30 2690 H 252.755 0.27464 2.9864 0
M  V30 2691 H 250.308 0.180445 1.55255 0
M  V30 2692 H 251.043 -2.22072 2.36335 0
M  V30 2693 H 250.828 -1.12232 3.75694 0
M  V30 2694 H 252.318 -2.10135 3.60878 0
M  V30 2695 N 252.755 -1.56801 0.158532 0
M  V30 2696 C 253.685 -2.20347 -0.772609 0
M  V30 2697 C 254.666 -1.15518 -1.24859 0
M  V30 2698 O 255.851 -1.43902 -1.30406 0
M  V30 2699 C 252.981 -2.83417 -2.00729 0
M  V30 2700 C 251.935 -3.94174 -1.66765 0
M  V30 2701 C 251.261 -4.44233 -2.97592 0
M  V30 2702 C 252.561 -5.14392 -0.905447 0
M  V30 2703 H 254.255 -2.98413 -0.242959 0
M  V30 2704 H 251.801 -1.43537 -0.115419 0
M  V30 2705 H 253.754 -3.26543 -2.6636 0
M  V30 2706 H 252.478 -2.02701 -2.56086 0
M  V30 2707 H 251.137 -3.51684 -1.03508 0
M  V30 2708 H 250.785 -3.60325 -3.50963 0
M  V30 2709 H 250.485 -5.18945 -2.75626 0
M  V30 2710 H 252.009 -4.90037 -3.64274 0
M  V30 2711 H 253.423 -5.5429 -1.46408 0
M  V30 2712 H 251.82 -5.9494 -0.7853 0
M  V30 2713 H 252.89 -4.84795 0.100668 0
M  V30 2714 N 254.233 0.115231 -1.57178 0
M  V30 2715 C 255.463 0.835224 -1.88964 0
M  V30 2716 C 255.871 1.73774 -0.74829 0
M  V30 2717 O 255.214 1.81401 0.289739 0
M  V30 2718 C 255.276 1.7178 -3.15804 0
M  V30 2719 C 254.94 0.989198 -4.46166 0
M  V30 2720 C 255.937 0.328263 -5.18863 0
M  V30 2721 C 253.622 0.969256 -4.9286 0
M  V30 2722 C 255.616 -0.342873 -6.36477 0
M  V30 2723 C 253.303 0.294324 -6.10391 0
M  V30 2724 C 254.301 -0.360582 -6.82048 0
M  V30 2725 O 253.989 -1.02474 -7.97342 0
M  V30 2726 H 253.721 0.245197 -0.629964 0
M  V30 2727 H 256.275 0.10303 -2.05141 0
M  V30 2728 H 254.505 2.49173 -2.95719 0
M  V30 2729 H 256.194 2.31255 -3.33581 0
M  V30 2730 H 256.96 0.335263 -4.8384 0
M  V30 2731 H 252.839 1.46844 -4.36987 0
M  V30 2732 H 256.383 -0.854629 -6.92345 0
M  V30 2733 H 252.28 0.285099 -6.4487 0
M  V30 2734 H 253.048 -0.929594 -8.13204 0
M  V30 2735 N 255.711 1.52812 0.385517 0
M  V30 2736 C 256.621 1.80766 1.49535 0
M  V30 2737 C 257.637 0.694651 1.59532 0
M  V30 2738 O 258.813 0.982611 1.75803 0
M  V30 2739 C 255.878 1.97381 2.85029 0
M  V30 2740 C 254.939 3.21295 2.84724 0
M  V30 2741 C 254.172 3.37108 4.13756 0
M  V30 2742 O 254.395 2.5765 5.08893 0
M  V30 2743 O 253.329 4.30378 4.20783 0
M  V30 2744 H 257.155 2.75015 1.28842 0
M  V30 2745 H 254.74 1.37946 0.573697 0
M  V30 2746 H 256.622 2.09996 3.65349 0
M  V30 2747 H 255.297 1.06322 3.05741 0
M  V30 2748 H 254.204 3.1412 2.03174 0
M  V30 2749 H 255.537 4.12212 2.68965 0
M  V30 2750 N 257.189 -0.644168 1.43834 0
M  V30 2751 C 258.152 -1.73857 1.49353 0
M  V30 2752 C 259.152 -1.56315 0.377112 0
M  V30 2753 O 260.342 -1.62048 0.639226 0
M  V30 2754 C 257.474 -3.12819 1.35488 0
M  V30 2755 H 258.667 -1.70342 2.46827 0
M  V30 2756 H 256.22 -0.856652 1.30733 0
M  V30 2757 H 256.955 -3.2194 0.390569 0
M  V30 2758 H 256.74 -3.26958 2.16428 0
M  V30 2759 H 258.23 -3.92606 1.42302 0
M  V30 2760 N 258.668 -1.30515 -0.883378 0
M  V30 2761 C 259.601 -1.11359 -1.99184 0
M  V30 2762 C 260.579 -0.0207858 -1.62587 0
M  V30 2763 O 261.763 -0.174646 -1.87689 0
M  V30 2764 C 258.89 -0.69871 -3.31415 0
M  V30 2765 C 257.936 -1.79261 -3.86998 0
M  V30 2766 S 258.769 -3.39536 -4.14096 0
M  V30 2767 C 259.925 -2.99954 -5.49344 0
M  V30 2768 H 260.158 -2.052 -2.15128 0
M  V30 2769 H 257.691 -1.14847 -1.03196 0
M  V30 2770 H 259.649 -0.466075 -4.07846 0
M  V30 2771 H 258.31 0.220368 -3.13326 0
M  V30 2772 H 257.503 -1.45464 -4.82552 0
M  V30 2773 H 257.105 -1.97961 -3.17313 0
M  V30 2774 H 259.397 -2.48013 -6.30473 0
M  V30 2775 H 260.34 -3.9442 -5.8808 0
M  V30 2776 H 260.748 -2.37775 -5.1198 0
M  V30 2777 N 260.146 1.09593 -1.13257 0
M  V30 2778 C 261.393 1.81734 -0.893257 0
M  V30 2779 C 261.721 1.8563 0.580656 0
M  V30 2780 O 260.976 1.31906 1.44566 0
M  V30 2781 C 261.275 3.27802 -1.42411 0
M  V30 2782 C 260.941 3.44041 -2.91456 0
M  V30 2783 C 259.603 3.48181 -3.3215 0
M  V30 2784 C 261.955 3.48719 -3.87356 0
M  V30 2785 C 259.283 3.54575 -4.67433 0
M  V30 2786 C 261.635 3.56648 -5.2248 0
M  V30 2787 C 260.299 3.59055 -5.62704 0
M  V30 2788 H 259.569 0.665011 -0.326866 0
M  V30 2789 H 262.216 1.2912 -1.41422 0
M  V30 2790 H 260.521 3.83042 -0.823795 0
M  V30 2791 H 262.218 3.82149 -1.21503 0
M  V30 2792 H 258.808 3.41502 -2.58987 0
M  V30 2793 H 262.992 3.44763 -3.57004 0
M  V30 2794 H 258.248 3.54725 -4.97976 0
M  V30 2795 H 262.422 3.59212 -5.96607 0
M  V30 2796 H 260.049 3.63763 -6.67518 0
M  V30 2797 N 261.624 0.925811 1.2754 0
M  V30 2798 C 262.852 0.581509 1.9856 0
M  V30 2799 C 263.267 -0.840041 1.69082 0
M  V30 2800 O 262.624 -1.55805 0.950312 0
M  V30 2801 C 262.675 0.795589 3.52637 0
M  V30 2802 O 262.396 2.16121 3.81082 0
M  V30 2803 C 263.897 0.459744 4.4091 0
M  V30 2804 H 261.117 0.220538 0.633722 0
M  V30 2805 H 263.661 1.24232 1.6244 0
M  V30 2806 H 261.816 0.18161 3.86974 0
M  V30 2807 H 262.23 2.2098 4.75676 0
M  V30 2808 H 263.704 0.660244 5.48037 0
M  V30 2809 H 264.181 -0.604625 4.35018 0
M  V30 2810 H 264.787 1.05178 4.12089 0
M  V30 2811 N 263.102 -1.41638 0.69111 0
M  V30 2812 C 264.034 -2.29194 -0.0161523 0
M  V30 2813 C 265.047 -1.44549 -0.748955 0
M  V30 2814 O 266.236 -1.681 -0.6004 0
M  V30 2815 C 263.336 -3.22325 -1.0469 0
M  V30 2816 C 262.509 -4.35706 -0.384621 0
M  V30 2817 C 261.568 -5.09443 -1.31737 0
M  V30 2818 O 260.594 -5.63386 -0.811451 0
M  V30 2819 N 261.796 -5.16487 -2.64993 0
M  V30 2820 H 264.561 -2.90534 0.735523 0
M  V30 2821 H 262.122 -1.52742 0.53679 0
M  V30 2822 H 264.114 -3.68522 -1.67252 0
M  V30 2823 H 262.684 -2.62323 -1.70015 0
M  V30 2824 H 261.904 -3.91948 0.420804 0
M  V30 2825 H 263.192 -5.08743 0.0760765 0
M  V30 2826 H 262.59 -4.741 -3.08619 0
M  V30 2827 H 261.147 -5.66276 -3.22761 0
M  V30 2828 N 264.58 -0.43555 -1.51462 0
M  V30 2829 C 265.81 0.130053 -2.0619 0
M  V30 2830 C 266.218 1.37164 -1.30317 0
M  V30 2831 O 265.561 1.80225 -0.355598 0
M  V30 2832 C 265.623 0.519418 -3.55728 0
M  V30 2833 C 265.287 -0.615119 -4.52841 0
M  V30 2834 C 266.284 -1.48671 -4.9819 0
M  V30 2835 C 263.969 -0.795341 -4.95963 0
M  V30 2836 C 265.963 -2.52324 -5.8533 0
M  V30 2837 C 263.65 -1.83514 -5.82894 0
M  V30 2838 C 264.648 -2.69748 -6.27475 0
M  V30 2839 O 264.336 -3.71944 -7.1268 0
M  V30 2840 H 264.068 0.0121612 -0.675891 0
M  V30 2841 H 266.622 -0.6129 -1.96043 0
M  V30 2842 H 264.852 1.31505 -3.63653 0
M  V30 2843 H 266.541 1.01597 -3.92979 0
M  V30 2844 H 267.307 -1.359 -4.65571 0
M  V30 2845 H 263.186 -0.133713 -4.60806 0
M  V30 2846 H 266.73 -3.19665 -6.20048 0
M  V30 2847 H 262.627 -1.96306 -6.14926 0
M  V30 2848 H 263.395 -3.68503 -7.30854 0
M  V30 2849 N 266.058 1.56714 -0.166846 0
M  V30 2850 C 267.283 2.01557 0.488833 0
M  V30 2851 C 267.708 1.0463 1.56314 0
M  V30 2852 O 267.066 0.0251304 1.81283 0
M  V30 2853 C 267.114 3.4503 1.04818 0
M  V30 2854 O 266.218 3.51163 2.16236 0
M  V30 2855 H 265.559 0.653516 0.117526 0
M  V30 2856 H 268.089 2.02818 -0.269421 0
M  V30 2857 H 268.099 3.84243 1.37191 0
M  V30 2858 H 266.774 4.15077 0.261572 0
M  V30 2859 H 265.351 3.23807 1.84942 0
M  V30 2860 N 267.536 -0.106894 1.57237 0
M  V30 2861 C 268.785 -0.811163 1.8467 0
M  V30 2862 C 269.098 -1.80469 0.754342 0
M  V30 2863 O 270.304 -2.55601 0.915439 0
M  V30 2864 C 268.76 -1.49337 3.27454 0
M  V30 2865 C 268.368 -0.540217 4.44731 0
M  V30 2866 C 270.112 -2.18206 3.64124 0
M  V30 2867 C 268.019 -1.22634 5.78545 0
M  V30 2868 H 266.949 -0.306679 0.688813 0
M  V30 2869 H 269.6 -0.0639887 1.83388 0
M  V30 2870 H 267.982 -2.2876 3.23241 0
M  V30 2871 H 269.156 0.221659 4.60267 0
M  V30 2872 H 267.471 0.042146 4.16379 0
M  V30 2873 H 270.068 -2.70253 4.61376 0
M  V30 2874 H 270.411 -2.96562 2.92158 0
M  V30 2875 H 270.944 -1.45658 3.70174 0
M  V30 2876 H 267.683 -0.483832 6.53712 0
M  V30 2877 H 267.203 -1.95993 5.66874 0
M  V30 2878 H 268.882 -1.75615 6.2271 0
M  V30 2879 N 269.014 -1.53014 -0.377408 0
M  V30 2880 C 270.254 -1.70318 -1.1301 0
M  V30 2881 C 270.618 -0.439538 -1.86901 0
M  V30 2882 O 271.819 -0.489095 -2.64313 0
M  V30 2883 C 270.09 -2.91125 -2.07319 0
M  V30 2884 S 271.649 -3.29075 -2.90268 0
M  V30 2885 H 268.467 -0.599426 -0.382374 0
M  V30 2886 H 271.069 -1.91089 -0.412933 0
M  V30 2887 H 269.773 -3.81303 -1.51777 0
M  V30 2888 H 269.304 -2.7272 -2.83526 0
M  V30 2889 H 271.319 -2.80165 -4.09539 0
M  V30 2890 N 270.492 0.636531 -1.44174 0
M  V30 2891 C 271.455 1.73063 -1.50273 0
M  V30 2892 C 272.455 1.56113 -0.385397 0
M  V30 2893 O 273.645 1.61707 -0.64781 0
M  V30 2894 C 270.777 3.12096 -1.37145 0
M  V30 2895 H 271.97 1.69031 -2.47727 0
M  V30 2896 H 269.523 0.849706 -1.31186 0
M  V30 2897 H 270.258 3.21728 -0.407636 0
M  V30 2898 H 270.043 3.25805 -2.18159 0
M  V30 2899 H 271.533 3.91846 -1.44382 0
M  V30 2900 N 271.97 1.30982 0.876444 0
M  V30 2901 C 272.933 1.18054 1.96459 0
M  V30 2902 C 273.933 0.109399 1.60427 0
M  V30 2903 O 275.123 0.358173 1.70478 0
M  V30 2904 C 272.255 0.810616 3.31122 0
M  V30 2905 H 273.448 2.14735 2.09354 0
M  V30 2906 H 271.001 1.145 1.06392 0
M  V30 2907 H 271.736 -0.155322 3.23928 0
M  V30 2908 H 271.521 1.58481 3.58645 0
M  V30 2909 H 273.011 0.743876 4.10921 0
M  V30 2910 N 273.449 -1.08991 1.13837 0
M  V30 2911 C 274.381 -2.15606 0.777612 0
M  V30 2912 C 275.394 -1.61533 -0.202739 0
M  V30 2913 O 276.583 -1.78491 0.0181055 0
M  V30 2914 C 273.683 -3.3864 0.132623 0
M  V30 2915 C 272.856 -4.22115 1.1462 0
M  V30 2916 C 271.915 -5.23564 0.526074 0
M  V30 2917 O 270.941 -5.56678 1.18735 0
M  V30 2918 N 272.143 -5.76266 -0.699866 0
M  V30 2919 H 274.908 -2.47159 1.69506 0
M  V30 2920 H 272.469 -1.24747 1.03198 0
M  V30 2921 H 274.461 -4.03626 -0.29459 0
M  V30 2922 H 273.031 -3.04938 -0.687849 0
M  V30 2923 H 272.251 -3.53199 1.75055 0
M  V30 2924 H 273.539 -4.74709 1.83109 0
M  V30 2925 H 272.937 -5.51585 -1.25581 0
M  V30 2926 H 271.494 -6.42963 -1.06968 0
M  V30 2927 N 274.927 -0.932562 -1.27047 0
M  V30 2928 C 276.176 -0.571351 -1.93439 0
M  V30 2929 C 276.489 0.892467 -1.74053 0
M  V30 2930 O 277.695 1.36267 -2.34826 0
M  V30 2931 C 276.151 -0.97106 -3.46552 0
M  V30 2932 C 275.759 -2.4559 -3.74686 0
M  V30 2933 C 277.503 -0.681333 -4.18997 0
M  V30 2934 C 275.41 -2.79475 -5.21198 0
M  V30 2935 H 274.34 -0.209966 -0.724176 0
M  V30 2936 H 276.991 -1.13403 -1.44263 0
M  V30 2937 H 275.373 -0.336983 -3.94564 0
M  V30 2938 H 276.547 -3.13829 -3.37414 0
M  V30 2939 H 274.862 -2.71802 -3.15456 0
M  V30 2940 H 277.459 -0.910939 -5.26883 0
M  V30 2941 H 277.802 0.381628 -4.14547 0
M  V30 2942 H 278.335 -1.27473 -3.76823 0
M  V30 2943 H 275.074 -3.847 -5.30741 0
M  V30 2944 H 274.594 -2.1589 -5.596 0
M  V30 2945 H 276.273 -2.67478 -5.89122 0
M  V30 2946 N 276.405 1.4127 -0.698611 0
M  V30 2947 C 277.335 2.33447 -0.049629 0
M  V30 2948 C 278.316 1.51982 0.763898 0
M  V30 2949 O 279.501 1.80509 0.716257 0
M  V30 2950 C 276.631 3.35828 0.885267 0
M  V30 2951 C 275.585 4.27627 0.178613 0
M  V30 2952 C 274.911 5.20406 1.22807 0
M  V30 2953 C 276.211 5.13459 -0.956933 0
M  V30 2954 H 277.905 2.87966 -0.81951 0
M  V30 2955 H 275.451 1.38461 -0.395538 0
M  V30 2956 H 277.404 3.9924 1.34854 0
M  V30 2957 H 276.128 2.79666 1.68685 0
M  V30 2958 H 274.787 3.65643 -0.26466 0
M  V30 2959 H 274.435 4.60558 2.02226 0
M  V30 2960 H 274.135 5.82661 0.760239 0
M  V30 2961 H 275.659 5.86695 1.69179 0
M  V30 2962 H 277.073 5.70421 -0.573805 0
M  V30 2963 H 275.47 5.8467 -1.35205 0
M  V30 2964 H 276.54 4.50443 -1.79524 0
M  V30 2965 N 277.883 0.443576 1.51229 0
M  V30 2966 C 279.129 -0.120975 2.02439 0
M  V30 2967 C 279.462 -1.41815 1.32674 0
M  V30 2968 O 278.737 -1.89373 0.443622 0
M  V30 2969 C 279.02 -0.333291 3.58554 0
M  V30 2970 C 278.873 0.982968 4.38928 0
M  V30 2971 C 280.192 -1.10028 4.26124 0
M  V30 2972 H 277.311 -0.0424923 0.735774 0
M  V30 2973 H 279.953 0.583794 1.80809 0
M  V30 2974 H 278.103 -0.933614 3.77115 0
M  V30 2975 H 279.775 1.61775 4.32003 0
M  V30 2976 H 278.018 1.58611 4.03763 0
M  V30 2977 H 278.689 0.788379 5.46341 0
M  V30 2978 H 281.165 -0.591711 4.11871 0
M  V30 2979 H 280.041 -1.21761 5.35225 0
M  V30 2980 H 280.302 -2.12996 3.87408 0
M  V30 2981 N 279.361 -1.56624 0.175154 0
M  V30 2982 C 280.589 -2.01374 -0.474971 0
M  V30 2983 C 281.004 -1.05537 -1.56548 0
M  V30 2984 O 280.361 -0.0568668 -1.82411 0
M  V30 2985 C 280.412 -3.45923 -1.04975 0
M  V30 2986 O 280.133 -4.381 -0.00276605 0
M  V30 2987 C 281.634 -4.06093 -1.77773 0
M  V30 2988 H 278.854 -0.659962 -0.121206 0
M  V30 2989 H 281.398 -2.02601 0.27801 0
M  V30 2990 H 279.553 -3.45458 -1.75321 0
M  V30 2991 H 279.967 -5.22753 -0.427681 0
M  V30 2992 H 281.441 -5.09147 -2.13245 0
M  V30 2993 H 281.918 -3.48405 -2.67414 0
M  V30 2994 H 282.524 -4.10272 -1.12059 0
M  V30 2995 N 280.839 0.0985539 -1.57292 0
M  V30 2996 C 281.787 1.1387 -2.02821 0
M  V30 2997 C 282.781 1.41676 -0.928666 0
M  V30 2998 O 283.987 1.41398 -1.11385 0
M  V30 2999 H 280.362 0.384419 -0.646317 0
M  V30 3000 H 282.333 0.728347 -2.89375 0
M  V30 3001 C 281.082 2.45166 -2.46554 0
M  V30 3002 H 280.405 2.24613 -3.3074 0
M  V30 3003 H 281.845 3.16456 -2.8219 0
M  V30 3004 C 280.304 3.09216 -1.33742 0
M  V30 3005 O 280.834 3.96163 -0.66464 0
M  V30 3006 N 279.04 2.69413 -1.08928 0
M  V30 3007 H 278.587 1.98801 -1.63817 0
M  V30 3008 H 278.545 3.12594 -0.336458 0
M  V30 3009 N 282.317 1.53212 0.369288 0
M  V30 3010 C 283.247 1.82365 1.45826 0
M  V30 3011 C 284.228 0.676907 1.56051 0
M  V30 3012 O 285.413 0.926401 1.70679 0
M  V30 3013 C 282.543 2.01023 2.83208 0
M  V30 3014 C 281.497 3.1678 2.8781 0
M  V30 3015 C 280.823 3.20724 4.27832 0
M  V30 3016 C 282.123 4.55447 2.55667 0
M  V30 3017 H 283.817 2.73559 1.21678 0
M  V30 3018 H 281.363 1.3163 0.583911 0
M  V30 3019 H 283.316 2.20001 3.59413 0
M  V30 3020 H 282.04 1.06536 3.08736 0
M  V30 3021 H 280.699 2.97616 2.14056 0
M  V30 3022 H 280.347 2.23882 4.50429 0
M  V30 3023 H 280.047 3.98496 4.31827 0
M  V30 3024 H 281.571 3.41881 5.05915 0
M  V30 3025 H 282.985 4.74611 3.21586 0
M  V30 3026 H 281.382 5.35432 2.70984 0
M  V30 3027 H 282.452 4.60812 1.5093 0
M  V30 3028 N 283.795 -0.628877 1.44509 0
M  V30 3029 C 285.072 -1.38733 1.37886 0
M  V30 3030 C 285.452 -2.11065 0.0387008 0
M  V30 3031 O 284.8 -2.06476 -0.97878 0
M  V30 3032 C 285.01 -2.35188 2.57852 0
M  V30 3033 C 286.358 -2.9845 3.02014 0
M  V30 3034 O 287.382 -2.45513 2.58073 0
M  V30 3035 O 286.241 -3.94487 3.78209 0
M  V30 3036 H 283.335 -0.621015 0.54614 0
M  V30 3037 H 285.881 -0.653744 1.56602 0
M  V30 3038 H 284.653 -1.80855 3.46998 0
M  V30 3039 H 284.276 -3.1596 2.4136 0
M  V30 3040 N 285.273 -1.31445 -0.869486 0
M  V30 3041 C 286.52 -1.21158 -1.62256 0
M  V30 3042 C 286.848 0.230155 -1.93133 0
M  V30 3043 O 286.103 1.17906 -1.56194 0
M  V30 3044 C 286.402 -2.00145 -2.96102 0
M  V30 3045 C 286.068 -3.4964 -2.84715 0
M  V30 3046 C 284.73 -3.90403 -2.81317 0
M  V30 3047 C 287.082 -4.44769 -2.71716 0
M  V30 3048 C 284.41 -5.24561 -2.62778 0
M  V30 3049 C 286.762 -5.79054 -2.54714 0
M  V30 3050 C 285.426 -6.19037 -2.49699 0
M  V30 3051 H 284.696 -0.443348 -0.593737 0
M  V30 3052 H 287.343 -1.62715 -1.00976 0
M  V30 3053 H 285.648 -1.5127 -3.6142 0
M  V30 3054 H 287.345 -1.89566 -3.53363 0
M  V30 3055 H 283.935 -3.17256 -2.88178 0
M  V30 3056 H 288.119 -4.14208 -2.73397 0
M  V30 3057 H 283.375 -5.54613 -2.57321 0
M  V30 3058 H 287.549 -6.52393 -2.43632 0
M  V30 3059 H 285.176 -7.22935 -2.35093 0
M  V30 3060 N 286.751 1.08385 -1.14413 0
M  V30 3061 C 287.701 2.13509 -0.79987 0
M  V30 3062 C 288.685 1.5951 0.211059 0
M  V30 3063 O 289.877 1.76995 0.0133694 0
M  V30 3064 C 287.006 3.42162 -0.279297 0
M  V30 3065 C 286.092 4.03042 -1.31976 0
M  V30 3066 N 286.483 4.38327 -2.52395 0
M  V30 3067 C 284.781 4.30379 -1.17004 0
M  V30 3068 C 285.482 4.86428 -3.19003 0
M  V30 3069 N 284.458 4.84547 -2.46405 0
M  V30 3070 H 288.26 2.38609 -1.7159 0
M  V30 3071 H 285.774 1.2572 -1.02802 0
M  V30 3072 H 287.771 4.16898 -0.0143688 0
M  V30 3073 H 286.431 3.18511 0.630923 0
M  V30 3074 H 287.442 4.29349 -2.89621 0
M  V30 3075 H 284.119 4.16281 -0.318854 0
M  V30 3076 H 285.509 5.23107 -4.21674 0
M  V30 3077 N 288.23 0.939286 1.26551 0
M  V30 3078 C 289.507 0.5038 1.89001 0
M  V30 3079 C 289.887 -1.01854 1.84903 0
M  V30 3080 O 289.235 -1.87773 1.30206 0
M  V30 3081 C 289.445 1.063 3.32417 0
M  V30 3082 C 290.793 1.13051 4.09273 0
M  V30 3083 O 291.817 1.01345 3.41479 0
M  V30 3084 O 290.676 1.31233 5.30509 0
M  V30 3085 H 287.77 0.163897 0.810597 0
M  V30 3086 H 290.316 1.03173 1.34735 0
M  V30 3087 H 289.088 2.10665 3.29752 0
M  V30 3088 H 288.711 0.517408 3.94219 0
M  V30 3089 N 289.708 -1.40897 0.706093 0
M  V30 3090 C 290.618 -2.3455 0.0482286 0
M  V30 3091 C 291.634 -1.56796 -0.754396 0
M  V30 3092 O 292.81 -1.89228 -0.689538 0
M  V30 3093 C 289.875 -3.35625 -0.869303 0
M  V30 3094 C 288.936 -4.29261 -0.0576994 0
M  V30 3095 C 288.169 -5.25508 -0.931531 0
M  V30 3096 O 288.392 -5.27472 -2.17092 0
M  V30 3097 O 287.326 -6.00727 -0.375587 0
M  V30 3098 H 291.152 -2.92407 0.820476 0
M  V30 3099 H 288.737 -1.4193 0.4665 0
M  V30 3100 H 290.619 -3.97635 -1.39514 0
M  V30 3101 H 289.294 -2.80196 -1.62086 0
M  V30 3102 H 288.201 -3.70566 0.512988 0
M  V30 3103 H 289.534 -4.87817 0.655426 0
M  V30 3104 N 291.186 -0.45159 -1.50991 0
M  V30 3105 C 292.118 0.388634 -2.25881 0
M  V30 3106 C 293.131 0.974041 -1.30446 0
M  V30 3107 O 294.32 0.865758 -1.56099 0
M  V30 3108 C 291.42 1.5571 -3.01011 0
M  V30 3109 C 290.593 1.08801 -4.23652 0
M  V30 3110 C 289.652 2.12825 -4.8124 0
M  V30 3111 O 288.678 1.71678 -5.42693 0
M  V30 3112 N 289.88 3.45453 -4.66522 0
M  V30 3113 H 292.645 -0.25329 -2.98628 0
M  V30 3114 H 290.206 -0.281268 -1.59438 0
M  V30 3115 H 292.198 2.24952 -3.3642 0
M  V30 3116 H 290.768 2.10409 -2.31186 0
M  V30 3117 H 289.988 0.22215 -3.93574 0
M  V30 3118 H 291.276 0.752213 -5.03209 0
M  V30 3119 H 290.674 3.81605 -4.17605 0
M  V30 3120 H 289.231 4.10549 -5.06254 0
M  V30 3121 N 292.664 1.56529 -0.183458 0
M  V30 3122 C 293.611 2.18546 0.742055 0
M  V30 3123 C 294.581 1.12912 1.2182 0
M  V30 3124 O 295.766 1.41115 1.28418 0
M  V30 3125 C 292.906 2.83977 1.96089 0
M  V30 3126 C 292.019 4.04105 1.52719 0
M  V30 3127 C 291.154 4.57427 2.70063 0
M  V30 3128 C 290.193 5.69938 2.23243 0
M  V30 3129 N 289.33 6.17717 3.33722 0
M  V30 3130 H 294.17 2.97284 0.206432 0
M  V30 3131 H 291.707 1.46823 0.0901571 0
M  V30 3132 H 293.665 3.20077 2.67594 0
M  V30 3133 H 292.295 2.07822 2.47002 0
M  V30 3134 H 291.347 3.73745 0.708436 0
M  V30 3135 H 292.659 4.85513 1.1436 0
M  V30 3136 H 291.813 4.95772 3.49708 0
M  V30 3137 H 290.552 3.75101 3.11689 0
M  V30 3138 H 289.557 5.31133 1.42048 0
M  V30 3139 H 290.782 6.54073 1.82661 0
M  V30 3140 H 288.728 5.38317 3.74902 0
M  V30 3141 H 288.645 6.94146 2.99495 0
M  V30 3142 H 289.913 6.60713 4.13616 0
M  V30 3143 N 294.142 -0.090211 1.57342 0
M  V30 3144 C 295.558 -0.444547 1.53284 0
M  V30 3145 C 295.758 -1.80238 0.900914 0
M  V30 3146 O 294.814 -2.4759 0.495513 0
M  V30 3147 C 296.127 -0.402543 2.97993 0
M  V30 3148 C 297.675 -0.48405 3.09234 0
M  V30 3149 C 298.15 -0.472144 4.5556 0
M  V30 3150 N 299.641 -0.532757 4.60126 0
M  V30 3151 C 300.376 -0.545462 5.708 0
M  V30 3152 N 299.872 -0.514082 6.9089 0
M  V30 3153 N 301.665 -0.59064 5.58988 0
M  V30 3154 H 293.816 0.799121 1.96794 0
M  V30 3155 H 296.079 0.297965 0.899956 0
M  V30 3156 H 295.785 0.528106 3.47712 0
M  V30 3157 H 295.659 -1.21969 3.56936 0
M  V30 3158 H 298.046 -1.40512 2.595 0
M  V30 3159 H 298.127 0.361328 2.53235 0
M  V30 3160 H 297.771 0.445 5.05947 0
M  V30 3161 H 297.701 -1.3348 5.09402 0
M  V30 3162 H 300.192 -0.562006 3.73698 0
M  V30 3163 H 300.505 -0.527195 7.71 0
M  V30 3164 H 298.85 -0.481054 6.93333 0
M  V30 3165 H 302.041 -0.61272 4.64073 0
M  V30 3166 H 302.214 -0.597073 6.45243 0
M  V30 3167 N 295.62 -1.53406 -0.361157 0
M  V30 3168 C 297.036 -1.43277 -0.703124 0
M  V30 3169 C 297.236 -0.575384 -1.9311 0
M  V30 3170 O 296.292 -0.0595362 -2.5243 0
M  V30 3171 C 297.605 -2.8653 -0.9122 0
M  V30 3172 C 299.153 -2.96191 -1.01193 0
M  V30 3173 C 299.628 -4.40514 -1.25345 0
M  V30 3174 N 301.119 -4.43962 -1.32105 0
M  V30 3175 C 301.854 -5.52746 -1.5251 0
M  V30 3176 N 301.35 -6.71567 -1.70203 0
M  V30 3177 N 303.143 -5.40331 -1.54916 0
M  V30 3178 H 295.294 -2.07654 0.446475 0
M  V30 3179 H 297.557 -0.937944 0.137715 0
M  V30 3180 H 297.263 -3.51605 -0.0816414 0
M  V30 3181 H 297.137 -3.30441 -1.81903 0
M  V30 3182 H 299.524 -2.31266 -1.83303 0
M  V30 3183 H 299.605 -2.55667 -0.0823929 0
M  V30 3184 H 299.249 -5.06014 -0.437346 0
M  V30 3185 H 299.179 -4.78614 -2.19627 0
M  V30 3186 H 301.67 -3.58332 -1.20028 0
M  V30 3187 H 301.983 -7.50241 -1.85359 0
M  V30 3188 H 300.328 -6.74545 -1.67373 0
M  V30 3189 H 303.519 -4.46465 -1.40663 0
M  V30 3190 H 303.692 -6.25173 -1.70477 0
M  V30 3191 N 297.098 0.621204 -1.44841 0
M  V30 3192 C 298.046 1.75385 -1.52784 0
M  V30 3193 C 299.04 1.64639 -0.398779 0
M  V30 3194 O 300.246 1.70598 -0.574137 0
M  V30 3195 H 296.621 0.579193 -0.479625 0
M  V30 3196 H 298.592 1.6581 -2.48092 0
M  V30 3197 C 297.341 3.13742 -1.4987 0
M  V30 3198 H 296.664 3.22663 -2.36069 0
M  V30 3199 H 298.104 3.92861 -1.59487 0
M  V30 3200 C 296.563 3.36175 -0.220973 0
M  V30 3201 O 297.093 3.95469 0.704782 0
M  V30 3202 N 295.299 2.90348 -0.120963 0
M  V30 3203 H 294.846 2.42278 -0.875162 0
M  V30 3204 H 294.804 3.05732 0.733168 0
M  V30 3205 N 298.576 1.31904 0.862503 0
M  V30 3206 C 299.506 1.22782 1.98612 0
M  V30 3207 C 300.487 0.113362 1.69722 0
M  V30 3208 O 301.672 0.299218 1.91881 0
M  V30 3209 C 298.802 0.942058 3.34279 0
M  V30 3210 C 297.756 2.0169 3.77499 0
M  V30 3211 C 297.082 1.58369 5.10709 0
M  V30 3212 C 298.382 3.43096 3.93805 0
M  V30 3213 H 300.076 2.16788 2.06502 0
M  V30 3214 H 297.622 1.04366 0.992154 0
M  V30 3215 H 299.575 0.864818 4.1243 0
M  V30 3216 H 298.299 -0.0336603 3.26583 0
M  V30 3217 H 296.958 2.08416 3.01593 0
M  V30 3218 H 296.606 0.595628 4.99461 0
M  V30 3219 H 296.306 2.30279 5.40597 0
M  V30 3220 H 297.83 1.52067 5.91361 0
M  V30 3221 H 299.244 3.39003 4.62331 0
M  V30 3222 H 297.641 4.13288 4.35101 0
M  V30 3223 H 298.711 3.83334 2.96957 0
M  V30 3224 N 300.054 -1.07777 1.14986 0
M  V30 3225 C 301.002 -2.16964 0.838406 0
M  V30 3226 C 301.996 -1.68372 -0.186386 0
M  V30 3227 O 303.202 -1.79951 -0.0418465 0
M  V30 3228 H 299.577 -0.708006 0.253439 0
M  V30 3229 H 301.548 -2.40454 1.76704 0
M  V30 3230 C 300.297 -3.4604 0.339335 0
M  V30 3231 H 299.62 -3.83813 1.11927 0
M  V30 3232 H 301.06 -4.23698 0.160021 0
M  V30 3233 C 299.519 -3.23569 -0.938325 0
M  V30 3234 O 300.049 -3.47752 -2.01077 0
M  V30 3235 N 298.255 -2.77079 -0.876117 0
M  V30 3236 H 297.802 -2.576 -0.00322037 0
M  V30 3237 H 297.76 -2.62422 -1.73153 0
M  V30 3238 N 301.532 -0.945985 -1.26051 0
M  V30 3239 C 302.78 -0.594941 -1.93145 0
M  V30 3240 C 303.101 0.86953 -1.7454 0
M  V30 3241 O 302.371 1.61838 -1.10387 0
M  V30 3242 H 300.951 -0.217044 -0.714773 0
M  V30 3243 H 303.613 -1.20235 -1.53393 0
M  V30 3244 H 302.709 -0.816835 -3.01221 0
M  V30 3245 N 303.011 1.40521 -0.713556 0
M  V30 3246 C 304.239 2.05237 -0.261775 0
M  V30 3247 C 304.654 1.53755 1.09567 0
M  V30 3248 O 304.011 0.693268 1.6882 0
M  V30 3249 C 304.062 3.60763 -0.230706 0
M  V30 3250 O 303.783 4.10345 -1.53455 0
M  V30 3251 C 305.284 4.42651 0.239874 0
M  V30 3252 H 302.504 0.660533 -0.118057 0
M  V30 3253 H 305.048 1.79967 -0.971192 0
M  V30 3254 H 303.203 3.8501 0.429661 0
M  V30 3255 H 303.617 5.04526 -1.43366 0
M  V30 3256 H 305.091 5.51599 0.210468 0
M  V30 3257 H 305.568 4.20082 1.28171 0
M  V30 3258 H 306.174 4.23507 -0.390142 0
M  V30 3259 N 304.489 0.459591 1.5075 0
M  V30 3260 C 305.419 -0.330644 2.31147 0
M  V30 3261 C 306.4 -1.00087 1.37538 0
M  V30 3262 O 307.585 -1.00025 1.66459 0
M  V30 3263 C 304.715 -1.41958 3.16962 0
M  V30 3264 C 303.669 -0.871608 4.19031 0
M  V30 3265 C 302.995 -2.05797 4.9351 0
M  V30 3266 C 304.295 0.109251 5.22186 0
M  V30 3267 H 305.989 0.340336 2.97459 0
M  V30 3268 H 303.535 0.165119 1.4305 0
M  V30 3269 H 305.488 -1.9798 3.71997 0
M  V30 3270 H 304.212 -2.11917 2.48513 0
M  V30 3271 H 302.871 -0.333442 3.6508 0
M  V30 3272 H 302.519 -2.74427 4.21544 0
M  V30 3273 H 302.219 -1.6976 5.62544 0
M  V30 3274 H 303.743 -2.62331 5.51375 0
M  V30 3275 H 305.157 -0.361405 5.7216 0
M  V30 3276 H 303.554 0.383316 5.98875 0
M  V30 3277 H 304.624 1.03887 4.73641 0
M  V30 3278 N 305.967 -1.56429 0.191757 0
M  V30 3279 C 306.917 -2.15548 -0.743184 0
M  V30 3280 C 307.901 -1.09531 -1.17863 0
M  V30 3281 O 309.093 -1.35602 -1.13759 0
M  V30 3282 C 306.222 -2.81577 -1.96391 0
M  V30 3283 C 305.308 -3.9478 -1.54951 0
M  V30 3284 N 305.699 -4.98677 -0.845876 0
M  V30 3285 C 303.997 -4.06319 -1.83905 0
M  V30 3286 C 304.698 -5.78183 -0.638724 0
M  V30 3287 N 303.674 -5.30495 -1.18643 0
M  V30 3288 H 307.476 -2.9324 -0.196839 0
M  V30 3289 H 304.99 -1.62398 -0.0081603 0
M  V30 3290 H 306.987 -3.22321 -2.64415 0
M  V30 3291 H 305.647 -2.05371 -2.51501 0
M  V30 3292 H 306.658 -5.15464 -0.501704 0
M  V30 3293 H 303.335 -3.41238 -2.40548 0
M  V30 3294 H 304.725 -6.71851 -0.0807929 0
M  V30 3295 N 307.445 0.0818655 -1.57387 0
M  V30 3296 C 308.355 1.11642 -2.06333 0
M  V30 3297 C 309.371 1.43033 -0.99083 0
M  V30 3298 O 310.547 1.53411 -1.30488 0
M  V30 3299 C 307.612 2.41342 -2.48907 0
M  V30 3300 C 306.673 2.17014 -3.7041 0
M  V30 3301 C 305.906 3.4053 -4.10944 0
M  V30 3302 O 306.129 4.4927 -3.51444 0
M  V30 3303 O 305.063 3.29336 -5.03807 0
M  V30 3304 H 308.889 0.730657 -2.9478 0
M  V30 3305 H 306.474 0.295301 -1.46452 0
M  V30 3306 H 308.356 3.17691 -2.76858 0
M  V30 3307 H 307.031 2.79319 -1.63593 0
M  V30 3308 H 305.938 1.38403 -3.47556 0
M  V30 3309 H 307.271 1.83923 -4.56545 0
M  V30 3310 N 308.923 1.53595 0.353017 0
M  V30 3311 C 309.853 1.83902 1.43883 0
M  V30 3312 C 310.834 0.693421 1.55324 0
M  V30 3313 O 312.019 0.944452 1.69687 0
M  V30 3314 C 309.149 2.04016 2.8106 0
M  V30 3315 C 308.103 3.19814 2.84434 0
M  V30 3316 C 307.429 3.25244 4.24406 0
M  V30 3317 C 308.729 4.58133 2.50822 0
M  V30 3318 H 310.423 2.74835 1.1877 0
M  V30 3319 H 307.969 1.32242 0.569917 0
M  V30 3320 H 309.922 2.238 3.57059 0
M  V30 3321 H 308.646 1.09804 3.07588 0
M  V30 3322 H 307.305 2.9987 2.10887 0
M  V30 3323 H 306.953 2.28646 4.48029 0
M  V30 3324 H 306.653 4.03054 4.27576 0
M  V30 3325 H 308.177 3.47228 5.0226 0
M  V30 3326 H 309.591 4.77995 3.16534 0
M  V30 3327 H 307.988 5.38276 2.6529 0
M  V30 3328 H 309.058 4.62387 1.46034 0
M  V30 3329 N 310.401 -0.613514 1.45168 0
M  V30 3330 C 311.331 -1.7354 1.56225 0
M  V30 3331 C 312.312 -1.64981 0.41414 0
M  V30 3332 O 313.497 -1.83472 0.636526 0
M  V30 3333 C 310.627 -3.12128 1.52295 0
M  V30 3334 C 309.581 -3.35491 2.65762 0
M  V30 3335 C 308.907 -4.74291 2.46885 0
M  V30 3336 C 310.207 -3.26325 4.0781 0
M  V30 3337 H 311.901 -1.64543 2.50132 0
M  V30 3338 H 309.447 -0.790185 1.20383 0
M  V30 3339 H 311.4 -3.90404 1.58628 0
M  V30 3340 H 310.124 -3.2195 0.549139 0
M  V30 3341 H 308.783 -2.59603 2.58847 0
M  V30 3342 H 308.431 -4.80839 1.47657 0
M  V30 3343 H 308.131 -4.9088 3.22972 0
M  V30 3344 H 309.655 -5.54775 2.55063 0
M  V30 3345 H 311.069 -3.94483 4.16 0
M  V30 3346 H 309.466 -3.54445 4.8424 0
M  V30 3347 H 310.536 -2.23855 4.30136 0
M  V30 3348 N 311.879 -1.3236 -0.855495 0
M  V30 3349 C 313.295 -1.11332 -1.14356 0
M  V30 3350 C 313.495 0.106751 -2.01217 0
M  V30 3351 O 312.551 0.791891 -2.39761 0
M  V30 3352 C 313.864 -2.39237 -1.82171 0
M  V30 3353 C 315.412 -2.44986 -1.9481 0
M  V30 3354 C 315.887 -3.7281 -2.66039 0
M  V30 3355 N 317.378 -3.73787 -2.73565 0
M  V30 3356 C 318.113 -4.69394 -3.29327 0
M  V30 3357 N 317.609 -5.75367 -3.85907 0
M  V30 3358 N 319.402 -4.56893 -3.27423 0
M  V30 3359 H 311.553 -2.10586 -0.277027 0
M  V30 3360 H 313.816 -0.929701 -0.185364 0
M  V30 3361 H 313.522 -3.28431 -1.25802 0
M  V30 3362 H 313.396 -2.50134 -2.82335 0
M  V30 3363 H 315.783 -1.56252 -2.50338 0
M  V30 3364 H 315.864 -2.38043 -0.936448 0
M  V30 3365 H 315.508 -4.61918 -2.11174 0
M  V30 3366 H 315.438 -3.77024 -3.67642 0
M  V30 3367 H 317.929 -2.97189 -2.33424 0
M  V30 3368 H 318.242 -6.44378 -4.26611 0
M  V30 3369 H 316.587 -5.79123 -3.84242 0
M  V30 3370 H 319.778 -3.73269 -2.82467 0
M  V30 3371 H 319.951 -5.31577 -3.7058 0
M  V30 3372 N 313.357 1.07166 -1.15556 0
M  V30 3373 C 314.29 2.13808 -0.797593 0
M  V30 3374 C 315.268 1.6101 0.226812 0
M  V30 3375 O 316.452 1.88161 0.112932 0
M  V30 3376 C 313.579 3.38187 -0.186371 0
M  V30 3377 C 312.625 4.09766 -1.18297 0
M  V30 3378 S 313.458 4.60932 -2.72584 0
M  V30 3379 C 314.614 5.88583 -2.12886 0
M  V30 3380 H 314.847 2.43843 -1.70083 0
M  V30 3381 H 312.38 1.19467 -0.978106 0
M  V30 3382 H 314.338 4.10189 0.159837 0
M  V30 3383 H 312.999 3.06326 0.694489 0
M  V30 3384 H 312.192 4.99065 -0.703562 0
M  V30 3385 H 311.794 3.43736 -1.47381 0
M  V30 3386 H 314.086 6.60866 -1.49208 0
M  V30 3387 H 315.029 6.41241 -3.0036 0
M  V30 3388 H 315.437 5.42194 -1.57116 0
M  V30 3389 N 314.835 0.952656 1.25548 0
M  V30 3390 C 315.783 0.462354 2.27958 0
M  V30 3391 C 316.777 -0.46634 1.62855 0
M  V30 3392 O 317.983 -0.343287 1.76696 0
M  V30 3393 H 314.358 0.13101 0.7405 0
M  V30 3394 H 316.329 1.33839 2.66702 0
M  V30 3395 C 315.078 -0.24628 3.46827 0
M  V30 3396 H 314.401 0.459192 3.97154 0
M  V30 3397 H 315.841 -0.553393 4.20373 0
M  V30 3398 C 314.3 -1.4681 3.0323 0
M  V30 3399 O 314.83 -2.56591 3.09069 0
M  V30 3400 N 313.036 -1.32874 2.58443 0
M  V30 3401 H 312.583 -0.435536 2.53891 0
M  V30 3402 H 312.541 -2.14742 2.29637 0
M  V30 3403 N 316.313 -1.40141 0.720998 0
M  V30 3404 C 317.562 -2.0002 0.259804 0
M  V30 3405 C 317.875 -1.57839 -1.15526 0
M  V30 3406 O 319.081 -2.10455 -1.71525 0
M  V30 3407 C 317.537 -3.57516 0.413566 0
M  V30 3408 C 317.145 -4.08667 1.83562 0
M  V30 3409 C 318.889 -4.24498 0.0134387 0
M  V30 3410 C 316.796 -5.58686 1.93968 0
M  V30 3411 H 315.726 -0.748195 0.0933806 0
M  V30 3412 H 318.377 -1.60313 0.892866 0
M  V30 3413 H 316.759 -3.9495 -0.288169 0
M  V30 3414 H 317.933 -3.82598 2.56817 0
M  V30 3415 H 316.248 -3.543 2.1877 0
M  V30 3416 H 318.845 -5.34654 0.0703954 0
M  V30 3417 H 319.188 -4.03375 -1.02927 0
M  V30 3418 H 319.721 -3.92188 0.665815 0
M  V30 3419 H 316.46 -5.8467 2.96379 0
M  V30 3420 H 315.98 -5.86602 1.25131 0
M  V30 3421 H 317.659 -6.23875 1.71431 0
M  V30 3422 N 317.792 -0.46758 -1.50504 0
M  V30 3423 C 319.038 0.0887532 -2.02606 0
M  V30 3424 C 319.371 1.39686 -1.34913 0
M  V30 3425 O 318.646 1.88644 -0.473694 0
M  V30 3426 C 318.929 0.276206 -3.59039 0
M  V30 3427 C 318.782 -1.05267 -4.37309 0
M  V30 3428 C 320.101 1.03235 -4.27821 0
M  V30 3429 H 317.22 0.0307814 -0.736357 0
M  V30 3430 H 319.862 -0.612485 -1.79857 0
M  V30 3431 H 318.012 0.8735 -3.78553 0
M  V30 3432 H 319.684 -1.68628 -4.29374 0
M  V30 3433 H 317.927 -1.65015 -4.01189 0
M  V30 3434 H 318.598 -0.875197 -5.45018 0
M  V30 3435 H 321.074 0.526111 -4.12761 0
M  V30 3436 H 319.95 1.1323 -5.37094 0
M  V30 3437 H 320.211 2.06806 -3.90748 0
M  V30 3438 N 319.27 1.56325 -0.20005 0
M  V30 3439 C 320.681 1.8408 0.31167 0
M  V30 3440 C 321.032 1.12087 1.61031 0
M  V30 3441 O 320.157 0.38332 2.12978 0
M  V30 3442 C 320.752 3.33932 0.57226 0
M  V30 3443 C 319.311 3.6208 1.02834 0
M  V30 3444 C 318.458 2.77186 0.079634 0
M  V30 3445 H 321.409 1.52939 -0.423729 0
M  V30 3446 H 321.43 3.52971 1.42096 0
M  V30 3447 H 320.942 3.86303 -0.37308 0
M  V30 3448 H 319.043 3.15147 1.98778 0
M  V30 3449 H 319.156 4.7023 0.917624 0
M  V30 3450 H 317.52 2.47951 0.582448 0
M  V30 3451 H 318.303 3.32347 -0.860238 0
M  V30 3452 N 320.748 -0.0735177 1.57428 0
M  V30 3453 C 321.997 -0.771809 1.86349 0
M  V30 3454 C 322.31 -1.78828 0.792452 0
M  V30 3455 O 323.516 -2.53602 0.96945 0
M  V30 3456 C 321.972 -1.42358 3.30548 0
M  V30 3457 C 321.58 -0.445761 4.45777 0
M  V30 3458 C 323.324 -2.10434 3.6867 0
M  V30 3459 C 321.231 -1.10335 5.81016 0
M  V30 3460 H 320.161 -0.291999 0.695164 0
M  V30 3461 H 322.812 -0.0250749 1.83483 0
M  V30 3462 H 321.194 -2.21852 3.28021 0
M  V30 3463 H 322.368 0.319239 4.59693 0
M  V30 3464 H 320.683 0.130457 4.16196 0
M  V30 3465 H 323.28 -2.60405 4.67004 0
M  V30 3466 H 323.623 -2.90298 2.98383 0
M  V30 3467 H 324.156 -1.37773 3.7318 0
M  V30 3468 H 320.895 -0.345061 6.54591 0
M  V30 3469 H 320.415 -1.83925 5.70904 0
M  V30 3470 H 322.094 -1.62367 6.26295 0
M  V30 3471 N 322.226 -1.5378 -0.344866 0
M  V30 3472 C 323.472 -1.71216 -1.08687 0
M  V30 3473 C 323.805 -0.473281 -1.88345 0
M  V30 3474 O 323.08 0.52968 -1.87149 0
M  V30 3475 C 323.363 -2.97486 -2.02914 0
M  V30 3476 C 323.216 -4.31579 -1.26727 0
M  V30 3477 C 324.535 -3.19422 -3.0275 0
M  V30 3478 H 321.654 -0.62301 -0.393735 0
M  V30 3479 H 324.296 -1.8645 -0.365563 0
M  V30 3480 H 322.446 -2.84629 -2.64421 0
M  V30 3481 H 324.118 -4.56284 -0.67845 0
M  V30 3482 H 322.361 -4.30049 -0.569273 0
M  V30 3483 H 323.032 -5.16106 -1.95803 0
M  V30 3484 H 325.508 -3.316 -2.51357 0
M  V30 3485 H 324.384 -4.09169 -3.65885 0
M  V30 3486 H 324.645 -2.35656 -3.74057 0
M  V30 3487 N 323.704 0.605807 -1.45491 0
M  V30 3488 C 324.652 1.73754 -1.54636 0
M  V30 3489 C 325.646 1.64207 -0.416219 0
M  V30 3490 O 326.852 1.69979 -0.592199 0
M  V30 3491 H 323.227 0.574073 -0.485741 0
M  V30 3492 H 325.198 1.63169 -2.49837 0
M  V30 3493 C 323.947 3.12135 -1.53189 0
M  V30 3494 H 323.27 3.20141 -2.39478 0
M  V30 3495 H 324.71 3.91147 -1.63645 0
M  V30 3496 C 323.169 3.35921 -0.256616 0
M  V30 3497 O 323.699 3.96194 0.662798 0
M  V30 3498 N 321.905 2.90204 -0.151751 0
M  V30 3499 H 321.452 2.41336 -0.90081 0
M  V30 3500 H 321.41 3.06492 0.700699 0
M  V30 3501 N 325.182 1.32811 0.848464 0
M  V30 3502 C 326.41 1.26739 1.63538 0
M  V30 3503 C 326.825 -0.163484 1.88091 0
M  V30 3504 O 326.182 -1.10258 1.45429 0
M  V30 3505 C 326.233 2.03013 2.99112 0
M  V30 3506 O 325.954 3.40518 2.75643 0
M  V30 3507 C 327.455 2.04038 3.93552 0
M  V30 3508 H 324.675 0.437024 0.509167 0
M  V30 3509 H 327.219 1.75033 1.05753 0
M  V30 3510 H 325.374 1.58426 3.53525 0
M  V30 3511 H 325.788 3.79635 3.61908 0
M  V30 3512 H 327.262 2.61877 4.85926 0
M  V30 3513 H 327.739 1.0282 4.26995 0
M  V30 3514 H 328.345 2.486 3.45077 0
M  V30 3515 N 326.66 -1.06551 1.16123 0
M  V30 3516 C 327.608 -2.16063 0.861371 0
M  V30 3517 C 328.602 -1.6856 -0.168517 0
M  V30 3518 O 329.808 -1.79986 -0.0227579 0
M  V30 3519 H 326.183 -0.705278 0.260934 0
M  V30 3520 H 328.154 -2.38567 1.79244 0
M  V30 3521 C 326.903 -3.45661 0.376018 0
M  V30 3522 H 326.226 -3.82604 1.15992 0
M  V30 3523 H 327.666 -4.23504 0.204951 0
M  V30 3524 C 326.125 -3.24546 -0.903954 0
M  V30 3525 O 326.655 -3.49865 -1.97377 0
M  V30 3526 N 324.861 -2.77992 -0.846679 0
M  V30 3527 H 324.408 -2.57589 0.0241017 0
M  V30 3528 H 324.366 -2.64244 -1.70359 0
M  V30 3529 N 328.138 -0.959301 -1.25041 0
M  V30 3530 C 329.415 -0.533805 -1.88175 0
M  V30 3531 C 329.795 0.988994 -1.865 0
M  V30 3532 O 329.143 1.85677 -1.33177 0
M  V30 3533 C 329.353 -1.11575 -3.30684 0
M  V30 3534 C 330.701 -1.19548 -4.07423 0
M  V30 3535 O 331.725 -1.06765 -3.39823 0
M  V30 3536 O 330.584 -1.39656 -5.28354 0
M  V30 3537 H 327.678 -0.176772 -0.807887 0
M  V30 3538 H 330.224 -1.05303 -1.33076 0
M  V30 3539 H 328.996 -2.15884 -3.26358 0
M  V30 3540 H 328.619 -0.580059 -3.93346 0
M  V30 3541 N 329.616 1.39756 -0.72842 0
M  V30 3542 C 330.579 2.29012 -0.0927297 0
M  V30 3543 C 331.579 1.45992 0.674025 0
M  V30 3544 O 332.769 1.66749 0.50402 0
M  V30 3545 C 329.901 3.29396 0.878137 0
M  V30 3546 H 331.094 2.86729 -0.879011 0
M  V30 3547 H 328.647 1.48293 -0.493847 0
M  V30 3548 H 329.382 2.76722 1.69101 0
M  V30 3549 H 329.167 3.907 0.331051 0
M  V30 3550 H 330.657 3.96199 1.3197 0
M  V30 3551 N 331.094 0.475555 1.50254 0
M  V30 3552 C 332.34 -0.0780073 2.0265 0
M  V30 3553 C 332.673 -1.38968 1.35652 0
M  V30 3554 O 331.948 -1.8839 0.483691 0
M  V30 3555 C 332.231 -0.257161 3.59181 0
M  V30 3556 C 332.084 1.07585 4.36744 0
M  V30 3557 C 333.403 -1.00965 4.28362 0
M  V30 3558 H 330.522 -0.0268758 0.73651 0
M  V30 3559 H 333.164 0.622015 1.7953 0
M  V30 3560 H 331.314 -0.853412 3.79011 0
M  V30 3561 H 332.986 1.70902 4.28474 0
M  V30 3562 H 331.229 1.6714 4.00308 0
M  V30 3563 H 331.9 0.904088 5.44546 0
M  V30 3564 H 334.376 -0.504214 4.13034 0
M  V30 3565 H 333.252 -1.10381 5.37687 0
M  V30 3566 H 333.513 -2.04731 3.91839 0
M  V30 3567 N 332.573 -1.56217 0.208337 0
M  V30 3568 C 333.819 -1.98242 -0.427552 0
M  V30 3569 C 334.152 -1.09554 -1.60348 0
M  V30 3570 O 333.427 -0.15035 -1.93918 0
M  V30 3571 C 333.71 -3.4931 -0.874907 0
M  V30 3572 C 333.563 -4.48773 0.303751 0
M  V30 3573 C 334.882 -4.04424 -1.73577 0
M  V30 3574 H 332.001 -0.720744 -0.153936 0
M  V30 3575 H 334.643 -1.87586 0.30192 0
M  V30 3576 H 332.793 -3.58522 -1.49648 0
M  V30 3577 H 334.465 -4.51586 0.941682 0
M  V30 3578 H 332.708 -4.23194 0.953375 0
M  V30 3579 H 333.379 -5.51976 -0.0519883 0
M  V30 3580 H 335.855 -3.98075 -1.21143 0
M  V30 3581 H 334.731 -5.1047 -2.01771 0
M  V30 3582 H 334.992 -3.50494 -2.69456 0
M  V30 3583 N 334.051 0.0651679 -1.57465 0
M  V30 3584 C 335.462 0.616213 -1.76238 0
M  V30 3585 C 335.813 1.7756 -0.834689 0
M  V30 3586 O 334.938 2.1639 -0.0204156 0
M  V30 3587 C 335.533 1.12462 -3.1959 0
M  V30 3588 C 334.092 1.62147 -3.39684 0
M  V30 3589 C 333.239 0.543739 -2.71917 0
M  V30 3590 H 336.19 -0.161022 -1.57881 0
M  V30 3591 H 336.211 1.99324 -3.24114 0
M  V30 3592 H 335.723 0.280592 -3.87084 0
M  V30 3593 H 333.824 2.48854 -2.77313 0
M  V30 3594 H 333.937 1.69385 -4.48158 0
M  V30 3595 H 332.301 0.990352 -2.34657 0
M  V30 3596 H 333.084 -0.290216 -3.42071 0
M  V30 3597 N 335.529 1.53961 0.336706 0
M  V30 3598 C 336.94 1.62914 0.911925 0
M  V30 3599 C 337.291 0.514795 1.89326 0
M  V30 3600 O 336.416 -0.354395 2.13478 0
M  V30 3601 C 337.011 2.95304 1.66076 0
M  V30 3602 C 335.57 3.06496 2.18489 0
M  V30 3603 C 334.717 2.58403 1.00613 0
M  V30 3604 H 337.668 1.58285 0.114649 0
M  V30 3605 H 337.689 2.84727 2.5241 0
M  V30 3606 H 337.201 3.76387 0.946276 0
M  V30 3607 H 335.302 2.3006 2.93092 0
M  V30 3608 H 335.415 4.1208 2.44391 0
M  V30 3609 H 333.779 2.13977 1.38152 0
M  V30 3610 H 334.562 3.41932 0.306179 0
M  V30 3611 N 337.007 -0.598083 1.45811 0
M  V30 3612 C 337.97 -1.69018 1.54808 0
M  V30 3613 C 338.97 -1.55037 0.426652 0
M  V30 3614 O 340.16 -1.59932 0.690456 0
M  V30 3615 C 337.292 -3.0835 1.45371 0
M  V30 3616 H 338.485 -1.62403 2.52121 0
M  V30 3617 H 336.038 -0.814626 1.33392 0
M  V30 3618 H 336.773 -3.20534 0.492793 0
M  V30 3619 H 336.558 -3.19907 2.26721 0
M  V30 3620 H 338.048 -3.8788 1.54721 0
M  V30 3621 N 338.485 -1.33259 -0.841409 0
M  V30 3622 C 339.395 -1.25332 -1.98316 0
M  V30 3623 C 340.411 -0.164364 -1.73222 0
M  V30 3624 O 341.587 -0.387486 -1.97637 0
M  V30 3625 C 338.652 -0.990078 -3.32262 0
M  V30 3626 C 337.713 -2.16879 -3.70489 0
M  V30 3627 C 336.946 -1.91801 -4.98044 0
M  V30 3628 O 337.169 -0.867075 -5.63771 0
M  V30 3629 O 336.103 -2.78267 -5.33714 0
M  V30 3630 H 339.929 -2.21344 -2.07944 0
M  V30 3631 H 337.514 -1.1328 -0.974058 0
M  V30 3632 H 339.396 -0.860321 -4.12524 0
M  V30 3633 H 338.071 -0.0602155 -3.23644 0
M  V30 3634 H 336.978 -2.35407 -2.90748 0
M  V30 3635 H 338.311 -3.0819 -3.8377 0
M  V30 3636 N 339.963 1.05934 -1.16686 0
M  V30 3637 C 341.374 1.60263 -0.957745 0
M  V30 3638 C 341.725 1.89789 0.49745 0
M  V30 3639 O 340.85 1.67401 1.37135 0
M  V30 3640 C 341.445 2.91172 -1.73218 0
M  V30 3641 C 340.004 3.42188 -1.56794 0
M  V30 3642 C 339.151 2.16028 -1.73859 0
M  V30 3643 H 342.102 0.888392 -1.31504 0
M  V30 3644 H 342.123 3.60744 -1.21014 0
M  V30 3645 H 341.635 2.6965 -2.79124 0
M  V30 3646 H 339.736 3.68762 -0.533437 0
M  V30 3647 H 339.849 4.17273 -2.35414 0
M  V30 3648 H 338.213 2.26426 -1.16633 0
M  V30 3649 H 338.996 1.96985 -2.81161 0
M  V30 3650 N 341.441 0.965919 1.2453 0
M  V30 3651 C 342.389 0.486506 2.27455 0
M  V30 3652 C 343.383 -0.449041 1.6334 0
M  V30 3653 O 344.589 -0.324527 1.7705 0
M  V30 3654 H 340.964 0.138857 0.739069 0
M  V30 3655 H 342.935 1.3666 2.65267 0
M  V30 3656 C 341.684 -0.209481 3.47068 0
M  V30 3657 H 341.007 0.50129 3.96645 0
M  V30 3658 H 342.447 -0.508775 4.20936 0
M  V30 3659 C 340.906 -1.43586 3.0477 0
M  V30 3660 O 341.436 -2.53299 3.11773 0
M  V30 3661 N 339.642 -1.30126 2.59838 0
M  V30 3662 H 339.189 -0.408583 2.54339 0
M  V30 3663 H 339.147 -2.12294 2.31902 0
M  V30 3664 N 342.919 -1.39368 0.735821 0
M  V30 3665 C 344.144 -2.05319 0.293052 0
M  V30 3666 C 344.569 -1.55115 -1.064 0
M  V30 3667 O 343.927 -0.695261 -1.67439 0
M  V30 3668 C 343.975 -3.59305 0.305323 0
M  V30 3669 O 343.079 -4.06299 -0.706761 0
M  V30 3670 H 342.42 -0.650529 0.13307 0
M  V30 3671 H 344.95 -1.78386 1.00197 0
M  V30 3672 H 344.96 -4.07724 0.149997 0
M  V30 3673 H 343.635 -3.95207 1.29553 0
M  V30 3674 H 342.212 -3.69292 -0.517504 0
M  V30 3675 N 344.397 -0.483516 -1.5 0
M  V30 3676 C 345.674 0.129337 -1.95172 0
M  V30 3677 C 346.054 1.55802 -1.4244 0
M  V30 3678 O 345.402 2.19625 -0.630649 0
M  V30 3679 C 345.612 0.0599251 -3.48949 0
M  V30 3680 C 346.96 0.242617 -4.23906 0
M  V30 3681 O 347.984 0.135933 -3.55941 0
M  V30 3682 O 346.843 0.459454 -5.44565 0
M  V30 3683 H 343.937 0.104887 -0.820322 0
M  V30 3684 H 346.483 -0.544807 -1.60717 0
M  V30 3685 H 345.255 -0.937079 -3.79914 0
M  V30 3686 H 344.878 0.774984 -3.89974 0
M  V30 3687 N 345.875 1.56104 -0.216619 0
M  V30 3688 C 346.805 2.23063 0.690296 0
M  V30 3689 C 347.786 1.20072 1.20485 0
M  V30 3690 O 348.971 1.48643 1.24976 0
M  V30 3691 C 346.101 2.90672 1.90072 0
M  V30 3692 C 345.055 4.00092 1.5202 0
M  V30 3693 C 344.381 4.54972 2.80899 0
M  V30 3694 C 345.681 5.17398 0.71391 0
M  V30 3695 H 347.375 2.99109 0.132038 0
M  V30 3696 H 344.921 1.43866 0.0620664 0
M  V30 3697 H 346.874 3.36204 2.54057 0
M  V30 3698 H 345.598 2.12066 2.48386 0
M  V30 3699 H 344.257 3.55283 0.903839 0
M  V30 3700 H 343.905 3.73102 3.37348 0
M  V30 3701 H 343.605 5.28817 2.56176 0
M  V30 3702 H 345.129 5.0322 3.45836 0
M  V30 3703 H 346.543 5.59342 1.25735 0
M  V30 3704 H 344.94 5.97444 0.563951 0
M  V30 3705 H 346.01 4.84088 -0.280527 0
M  V30 3706 N 347.353 -0.0568162 1.57498 0
M  V30 3707 C 348.285 -1.09292 2.01464 0
M  V30 3708 C 349.298 -1.34112 0.922913 0
M  V30 3709 O 350.487 -1.32089 1.20062 0
M  V30 3710 C 347.587 -2.44068 2.35125 0
M  V30 3711 C 346.76 -2.38995 3.66333 0
M  V30 3712 C 345.819 -3.55997 3.87495 0
M  V30 3713 O 344.845 -3.36746 4.58901 0
M  V30 3714 N 346.047 -4.76888 3.30996 0
M  V30 3715 H 348.812 -0.718386 2.90963 0
M  V30 3716 H 346.373 -0.245235 1.60032 0
M  V30 3717 H 348.365 -3.21011 2.46443 0
M  V30 3718 H 346.935 -2.73468 1.5144 0
M  V30 3719 H 346.155 -1.47336 3.65631 0
M  V30 3720 H 347.443 -2.3272 4.52458 0
M  V30 3721 H 346.841 -4.95431 2.73065 0
M  V30 3722 H 345.398 -5.51291 3.47738 0
M  V30 3723 N 348.832 -1.54138 -0.328536 0
M  V30 3724 C 350.08 -1.71765 -1.06496 0
M  V30 3725 C 350.401 -0.49149 -1.88704 0
M  V30 3726 O 349.671 0.494539 -1.89555 0
M  V30 3727 H 348.251 -0.633295 -0.396164 0
M  V30 3728 H 350.913 -1.91429 -0.366176 0
M  V30 3729 H 350.009 -2.5951 -1.73381 0
M  V30 3730 N 350.31 0.590341 -1.46126 0
M  V30 3731 C 351.556 1.35082 -1.51264 0
M  V30 3732 C 351.889 1.93534 -0.160711 0
M  V30 3733 O 351.164 1.76045 0.826956 0
M  V30 3734 C 351.447 2.48588 -2.6053 0
M  V30 3735 C 351.3 1.95221 -4.05227 0
M  V30 3736 C 352.619 3.50662 -2.6594 0
M  V30 3737 H 349.738 0.489803 -0.550692 0
M  V30 3738 H 352.38 0.663887 -1.78024 0
M  V30 3739 H 350.53 3.07186 -2.37843 0
M  V30 3740 H 352.202 1.41139 -4.39178 0
M  V30 3741 H 350.445 1.26101 -4.15068 0
M  V30 3742 H 351.116 2.77121 -4.77397 0
M  V30 3743 H 353.592 3.01934 -2.86313 0
M  V30 3744 H 352.468 4.27551 -3.44226 0
M  V30 3745 H 352.729 4.07399 -1.71694 0
M  V30 3746 N 351.788 1.33704 0.83433 0
M  V30 3747 C 352.736 1.24323 1.96587 0
M  V30 3748 C 353.73 0.143659 1.6879 0
M  V30 3749 O 354.936 0.30791 1.77347 0
M  V30 3750 H 351.311 0.385925 0.645419 0
M  V30 3751 H 353.282 2.19978 2.01624 0
M  V30 3752 C 352.031 1.00394 3.32891 0
M  V30 3753 H 351.354 1.84231 3.54822 0
M  V30 3754 H 352.794 0.97862 4.12552 0
M  V30 3755 C 351.253 -0.293047 3.35623 0
M  V30 3756 O 351.783 -1.29823 3.80143 0
M  V30 3757 N 349.989 -0.322174 2.88809 0
M  V30 3758 H 349.536 0.496379 2.52772 0
M  V30 3759 H 349.494 -1.18977 2.91019 0
M  V30 3760 N 353.266 -1.05314 1.17247 0
M  V30 3761 C 354.512 -1.78557 0.961513 0
M  V30 3762 C 354.845 -1.87419 -0.508697 0
M  V30 3763 O 354.12 -1.37307 -1.37757 0
M  V30 3764 C 354.403 -3.22514 1.60176 0
M  V30 3765 C 354.256 -3.21673 3.14399 0
M  V30 3766 C 355.575 -4.20318 1.30463 0
M  V30 3767 H 352.694 -0.6482 0.350723 0
M  V30 3768 H 355.336 -1.23102 1.44727 0
M  V30 3769 H 353.486 -3.69867 1.18871 0
M  V30 3770 H 355.158 -2.82405 3.64753 0
M  V30 3771 H 353.401 -2.60048 3.47214 0
M  V30 3772 H 354.072 -4.23271 3.54324 0
M  V30 3773 H 356.548 -3.81454 1.66229 0
M  V30 3774 H 355.424 -5.19289 1.77848 0
M  V30 3775 H 355.685 -4.41526 0.22521 0
M  V30 3776 N 354.744 -0.972509 -1.24016 0
M  V30 3777 C 355.993 -0.632603 -1.91523 0
M  V30 3778 C 356.306 0.836641 -1.76804 0
M  V30 3779 O 357.512 1.28728 -2.39043 0
M  V30 3780 C 355.968 -1.08082 -3.43287 0
M  V30 3781 C 355.576 -2.57386 -3.66683 0
M  V30 3782 C 357.32 -0.814288 -4.16617 0
M  V30 3783 C 355.227 -2.95915 -5.12043 0
M  V30 3784 H 354.157 -0.232898 -0.717129 0
M  V30 3785 H 356.808 -1.17936 -1.40582 0
M  V30 3786 H 355.19 -0.462339 -3.93292 0
M  V30 3787 H 356.364 -3.24405 -3.27258 0
M  V30 3788 H 354.679 -2.81701 -3.06649 0
M  V30 3789 H 357.276 -1.0781 -5.23718 0
M  V30 3790 H 357.619 0.24955 -4.15551 0
M  V30 3791 H 358.152 -1.39397 -3.72577 0
M  V30 3792 H 354.891 -4.0139 -5.18234 0
M  V30 3793 H 354.411 -2.33584 -5.52448 0
M  V30 3794 H 356.09 -2.86086 -5.80314 0
M  V30 3795 N 356.222 1.38976 -0.743202 0
M  V30 3796 C 357.447 2.05161 -0.303936 0
M  V30 3797 C 357.872 1.55677 1.05576 0
M  V30 3798 O 357.23 0.704131 1.67068 0
M  V30 3799 C 357.278 3.59138 -0.324373 0
M  V30 3800 O 356.382 4.06668 0.685204 0
M  V30 3801 H 355.723 0.649815 -0.136518 0
M  V30 3802 H 358.253 1.77852 -1.01142 0
M  V30 3803 H 358.263 4.07639 -0.171618 0
M  V30 3804 H 356.938 3.94515 -1.31647 0
M  V30 3805 H 355.515 3.69561 0.497913 0
M  V30 3806 N 357.7 0.491464 1.49741 0
M  V30 3807 C 358.946 -0.0565092 2.02721 0
M  V30 3808 C 359.279 -1.37522 1.37118 0
M  V30 3809 O 358.554 -1.87866 0.503645 0
M  V30 3810 C 358.837 -0.219051 3.59433 0
M  V30 3811 C 358.69 1.12211 4.35579 0
M  V30 3812 C 360.009 -0.964157 4.29409 0
M  V30 3813 H 357.128 -0.0190627 0.736753 0
M  V30 3814 H 359.77 0.641021 1.7886 0
M  V30 3815 H 357.92 -0.813165 3.79895 0
M  V30 3816 H 359.592 1.75437 4.26637 0
M  V30 3817 H 357.835 1.71377 3.98513 0
M  V30 3818 H 358.506 0.961794 5.43556 0
M  V30 3819 H 360.982 -0.460378 4.13545 0
M  V30 3820 H 359.858 -1.04671 5.38828 0
M  V30 3821 H 360.119 -2.00563 3.93988 0
M  V30 3822 N 359.178 -1.55987 0.224894 0
M  V30 3823 C 360.125 -2.20436 -0.68385 0
M  V30 3824 C 361.095 -1.16102 -1.18783 0
M  V30 3825 O 362.28 -1.4447 -1.24632 0
M  V30 3826 C 359.42 -2.89076 -1.88491 0
M  V30 3827 C 358.533 -4.08012 -1.41951 0
M  V30 3828 C 357.668 -4.64426 -2.5784 0
M  V30 3829 C 356.707 -5.75656 -2.08053 0
M  V30 3830 N 355.844 -6.26347 -3.17227 0
M  V30 3831 H 360.684 -2.97727 -0.12754 0
M  V30 3832 H 358.221 -1.47011 -0.0511978 0
M  V30 3833 H 360.179 -3.27059 -2.59014 0
M  V30 3834 H 358.809 -2.14298 -2.41405 0
M  V30 3835 H 357.861 -3.75492 -0.609095 0
M  V30 3836 H 359.173 -4.88375 -1.01447 0
M  V30 3837 H 358.327 -5.04869 -3.3644 0
M  V30 3838 H 357.066 -3.83233 -3.01635 0
M  V30 3839 H 356.071 -5.34712 -1.27916 0
M  V30 3840 H 357.296 -6.58686 -1.65255 0
M  V30 3841 H 355.242 -5.48067 -3.60497 0
M  V30 3842 H 355.159 -7.01843 -2.80986 0
M  V30 3843 H 356.427 -6.71447 -3.95953 0
M  V30 3844 N 360.656 0.0484629 -1.57525 0
M  V30 3845 C 361.933 0.777447 -1.79486 0
M  V30 3846 C 362.313 1.94597 -0.818251 0
M  V30 3847 O 361.661 2.28047 0.143767 0
M  V30 3848 C 361.871 1.22864 -3.26658 0
M  V30 3849 C 363.219 1.65251 -3.91123 0
M  V30 3850 O 364.243 1.32372 -3.3069 0
M  V30 3851 O 363.102 2.26207 -4.97486 0
M  V30 3852 H 360.196 0.374357 -0.737419 0
M  V30 3853 H 362.742 0.0267359 -1.69679 0
M  V30 3854 H 361.514 0.393589 -3.89316 0
M  V30 3855 H 361.137 2.03996 -3.41279 0
M  V30 3856 N 362.134 1.5431 0.320358 0
M  V30 3857 C 363.082 1.84647 1.4145 0
M  V30 3858 C 364.076 0.718624 1.53402 0
M  V30 3859 O 365.282 0.902335 1.5575 0
M  V30 3860 H 361.657 0.585349 0.472091 0
M  V30 3861 H 363.628 2.7614 1.13089 0
M  V30 3862 C 362.377 2.09341 2.77617 0
M  V30 3863 H 361.7 2.9559 2.69196 0
M  V30 3864 H 363.14 2.3452 3.53237 0
M  V30 3865 C 361.599 0.885939 3.25043 0
M  V30 3866 O 362.129 0.0967891 4.01583 0
M  V30 3867 N 360.335 0.696682 2.82125 0
M  V30 3868 H 359.882 1.34006 2.2 0
M  V30 3869 H 359.84 -0.109712 3.14209 0
M  V30 3870 N 363.613 -0.582584 1.46437 0
M  V30 3871 C 364.89 -1.34276 1.4223 0
M  V30 3872 C 365.27 -2.10835 0.10583 0
M  V30 3873 O 364.618 -2.09485 -0.912596 0
M  V30 3874 C 364.828 -2.26865 2.65204 0
M  V30 3875 C 366.176 -2.88691 3.11356 0
M  V30 3876 O 367.2 -2.37178 2.65753 0
M  V30 3877 O 366.059 -3.82255 3.90568 0
M  V30 3878 H 363.153 -0.603326 0.565621 0
M  V30 3879 H 365.699 -0.603591 1.58603 0
M  V30 3880 H 364.471 -1.69724 3.52576 0
M  V30 3881 H 364.094 -3.08122 2.5129 0
M  V30 3882 N 365.091 -1.34144 -0.827227 0
M  V30 3883 C 366.316 -1.29476 -1.62021 0
M  V30 3884 C 366.741 0.129292 -1.87655 0
M  V30 3885 O 366.099 1.08967 -1.449 0
M  V30 3886 C 366.147 -2.08702 -2.94068 0
M  V30 3887 O 365.251 -1.45359 -3.85933 0
M  V30 3888 H 364.592 -0.444881 -0.492927 0
M  V30 3889 H 367.122 -1.76882 -1.02829 0
M  V30 3890 H 367.132 -2.19898 -3.43669 0
M  V30 3891 H 365.807 -3.12241 -2.74734 0
M  V30 3892 H 364.384 -1.42879 -3.44442 0
M  V30 3893 N 366.569 1.04691 -1.17803 0
M  V30 3894 C 367.499 2.14494 -0.92275 0
M  V30 3895 C 368.48 1.69546 0.137179 0
M  V30 3896 O 369.665 1.94195 -0.0141108 0
M  V30 3897 C 366.795 3.44491 -0.440803 0
M  V30 3898 C 365.749 4.03031 -1.4405 0
M  V30 3899 C 365.075 5.28432 -0.81631 0
M  V30 3900 C 366.375 4.39932 -2.81527 0
M  V30 3901 H 368.069 2.36107 -1.84103 0
M  V30 3902 H 365.615 1.1347 -0.886599 0
M  V30 3903 H 367.568 4.2066 -0.249602 0
M  V30 3904 H 366.292 3.22546 0.513025 0
M  V30 3905 H 364.951 3.28937 -1.61853 0
M  V30 3906 H 364.599 5.02792 0.144511 0
M  V30 3907 H 364.299 5.68559 -1.48371 0
M  V30 3908 H 365.823 6.07284 -0.635496 0
M  V30 3909 H 367.237 5.07113 -2.67412 0
M  V30 3910 H 365.634 4.9109 -3.44892 0
M  V30 3911 H 366.704 3.50045 -3.35554 0
M  V30 3912 N 368.047 0.979072 1.23499 0
M  V30 3913 C 369.01 0.523244 2.23147 0
M  V30 3914 C 370.01 -0.386406 1.56088 0
M  V30 3915 O 371.2 -0.180283 1.73265 0
M  V30 3916 C 368.332 -0.240739 3.40049 0
M  V30 3917 H 369.525 1.40432 2.64989 0
M  V30 3918 H 367.078 0.764824 1.36309 0
M  V30 3919 H 367.813 -1.13841 3.03662 0
M  V30 3920 H 367.598 0.412207 3.89927 0
M  V30 3921 H 369.088 -0.548297 4.13985 0
M  V30 3922 N 369.525 -1.3858 0.750561 0
M  V30 3923 C 370.488 -2.28836 0.129152 0
M  V30 3924 C 371.488 -1.47045 -0.650714 0
M  V30 3925 O 372.678 -1.6753 -0.477428 0
M  V30 3926 C 369.81 -3.30751 -0.825622 0
M  V30 3927 H 371.003 -2.85294 0.924516 0
M  V30 3928 H 368.556 -1.47489 0.517376 0
M  V30 3929 H 369.291 -2.79378 -1.64677 0
M  V30 3930 H 369.076 -3.91177 -0.268852 0
M  V30 3931 H 370.566 -3.98249 -1.2565 0
M  V30 3932 N 371.003 -0.499398 -1.49478 0
M  V30 3933 C 372.419 -0.155261 -1.58843 0
M  V30 3934 C 372.619 1.34008 -1.50479 0
M  V30 3935 O 371.675 2.11589 -1.37791 0
M  V30 3936 C 372.988 -0.730636 -2.91689 0
M  V30 3937 C 374.536 -0.696599 -3.0515 0
M  V30 3938 C 375.011 -1.25001 -4.40612 0
M  V30 3939 N 376.502 -1.21064 -4.47099 0
M  V30 3940 C 377.237 -1.60905 -5.50361 0
M  V30 3941 N 376.733 -2.08331 -6.60735 0
M  V30 3942 N 378.526 -1.52331 -5.41065 0
M  V30 3943 H 370.677 -1.47162 -1.53158 0
M  V30 3944 H 372.94 -0.610309 -0.725415 0
M  V30 3945 H 372.646 -1.77928 -3.03372 0
M  V30 3946 H 372.52 -0.190161 -3.7672 0
M  V30 3947 H 374.907 0.343204 -2.93097 0
M  V30 3948 H 374.988 -1.2742 -2.21806 0
M  V30 3949 H 374.632 -2.28859 -4.53416 0
M  V30 3950 H 374.562 -0.64836 -5.22593 0
M  V30 3951 H 377.053 -0.863128 -3.67911 0
M  V30 3952 H 377.366 -2.36805 -7.35624 0
M  V30 3953 H 375.711 -2.12304 -6.6178 0
M  V30 3954 H 378.902 -1.151 -4.53729 0
M  V30 3955 H 379.075 -1.83704 -6.21415 0
M  V30 3956 N 372.481 1.55866 -0.233164 0
M  V30 3957 C 373.411 2.23783 0.666599 0
M  V30 3958 C 374.392 1.21343 1.19205 0
M  V30 3959 O 375.577 1.4996 1.23392 0
M  V30 3960 C 372.707 2.92671 1.86978 0
M  V30 3961 C 371.661 4.01682 1.47768 0
M  V30 3962 C 370.987 4.57926 2.76058 0
M  V30 3963 C 372.287 5.18126 0.658993 0
M  V30 3964 H 373.981 2.99232 0.100306 0
M  V30 3965 H 371.527 1.43924 0.046804 0
M  V30 3966 H 373.48 3.3888 2.50476 0
M  V30 3967 H 372.204 2.14688 2.46123 0
M  V30 3968 H 370.863 3.56222 0.866106 0
M  V30 3969 H 370.511 3.76659 3.33372 0
M  V30 3970 H 370.211 5.31505 2.50552 0
M  V30 3971 H 371.735 5.06859 3.40479 0
M  V30 3972 H 373.149 5.60644 1.19795 0
M  V30 3973 H 371.546 5.98009 0.500552 0
M  V30 3974 H 372.616 4.83763 -0.331856 0
M  V30 3975 N 373.959 -0.0401083 1.57549 0
M  V30 3976 C 374.922 -1.02871 2.04817 0
M  V30 3977 C 375.922 -1.29708 0.950388 0
M  V30 3978 O 377.112 -1.24897 1.21435 0
M  V30 3979 C 374.244 -2.36443 2.45576 0
M  V30 3980 H 375.437 -0.620631 2.93408 0
M  V30 3981 H 372.99 -0.286667 1.53649 0
M  V30 3982 H 373.725 -2.82021 1.60108 0
M  V30 3983 H 373.51 -2.18296 3.25713 0
M  V30 3984 H 375 -3.07441 2.82612 0
M  V30 3985 N 375.437 -1.54477 -0.31217 0
M  V30 3986 C 376.683 -1.73483 -1.0503 0
M  V30 3987 C 377.016 -0.513125 -1.87298 0
M  V30 3988 O 376.291 0.489864 -1.8823 0
M  V30 3989 C 376.574 -3.01723 -1.96558 0
M  V30 3990 C 376.427 -4.3417 -1.17545 0
M  V30 3991 C 377.746 -3.25772 -2.95907 0
M  V30 3992 H 374.865 -0.631222 -0.380432 0
M  V30 3993 H 377.507 -1.87184 -0.325932 0
M  V30 3994 H 375.657 -2.90174 -2.58324 0
M  V30 3995 H 377.329 -4.5762 -0.581513 0
M  V30 3996 H 375.572 -4.31159 -0.477925 0
M  V30 3997 H 376.243 -5.20143 -1.84811 0
M  V30 3998 H 378.719 -3.36857 -2.44267 0
M  V30 3999 H 377.595 -4.16838 -3.57123 0
M  V30 4000 H 377.856 -2.43537 -3.68974 0
M  V30 4001 N 376.915 0.57481 -1.46744 0
M  V30 4002 C 377.825 1.711 -1.60505 0
M  V30 4003 C 378.841 1.67008 -0.488307 0
M  V30 4004 O 380.017 1.86774 -0.753495 0
M  V30 4005 C 377.082 3.07608 -1.59932 0
M  V30 4006 C 376.143 3.22904 -2.82898 0
M  V30 4007 C 375.376 4.529 -2.82343 0
M  V30 4008 O 375.599 5.37278 -1.91542 0
M  V30 4009 O 374.533 4.71611 -3.73987 0
M  V30 4010 H 378.359 1.62436 -2.56609 0
M  V30 4011 H 375.944 0.742779 -1.29627 0
M  V30 4012 H 377.826 3.88877 -1.62336 0
M  V30 4013 H 376.501 3.16692 -0.669898 0
M  V30 4014 H 375.408 2.41099 -2.86046 0
M  V30 4015 H 376.741 3.18715 -3.75076 0
M  V30 4016 N 378.394 1.34581 0.820102 0
M  V30 4017 C 379.327 1.20735 1.93644 0
M  V30 4018 C 380.305 0.0983343 1.62302 0
M  V30 4019 O 381.489 0.263997 1.86642 0
M  V30 4020 C 378.616 0.856037 3.27704 0
M  V30 4021 C 377.662 1.97521 3.78005 0
M  V30 4022 S 378.495 3.58906 3.97425 0
M  V30 4023 C 379.651 3.25822 5.34407 0
M  V30 4024 H 379.884 2.15231 2.05093 0
M  V30 4025 H 377.417 1.1964 0.97599 0
M  V30 4026 H 379.375 0.660133 4.05157 0
M  V30 4027 H 378.036 -0.0706253 3.14021 0
M  V30 4028 H 377.229 1.68321 4.75062 0
M  V30 4029 H 376.831 2.12875 3.07507 0
M  V30 4030 H 379.123 2.77812 6.17922 0
M  V30 4031 H 380.066 4.22029 5.68592 0
M  V30 4032 H 380.474 2.61932 5.00052 0
M  V30 4033 N 379.872 -1.04064 1.18357 0
M  V30 4034 C 380.819 -2.12077 0.910603 0
M  V30 4035 C 381.789 -1.65421 -0.15 0
M  V30 4036 O 382.974 -1.90797 -0.0103614 0
M  V30 4037 C 380.114 -3.42252 0.442472 0
M  V30 4038 C 379.227 -4.0252 1.5685 0
M  V30 4039 C 378.362 -5.20657 1.05309 0
M  V30 4040 C 377.401 -5.72955 2.1538 0
M  V30 4041 N 376.538 -6.8238 1.65233 0
M  V30 4042 H 381.378 -2.34764 1.83548 0
M  V30 4043 H 378.915 -1.15157 0.915279 0
M  V30 4044 H 380.873 -4.16921 0.152534 0
M  V30 4045 H 379.503 -3.19712 -0.445428 0
M  V30 4046 H 378.555 -3.25178 1.97391 0
M  V30 4047 H 379.867 -4.37362 2.39824 0
M  V30 4048 H 379.021 -6.0244 0.717677 0
M  V30 4049 H 377.76 -4.87318 0.19293 0
M  V30 4050 H 376.765 -4.89793 2.49766 0
M  V30 4051 H 377.99 -6.08337 3.01832 0
M  V30 4052 H 375.936 -6.50917 0.815064 0
M  V30 4053 H 375.853 -7.16286 2.41805 0
M  V30 4054 H 377.121 -7.67788 1.34619 0
M  V30 4055 N 381.35 -0.985608 -1.22978 0
M  V30 4056 C 382.578 -0.675582 -1.95559 0
M  V30 4057 C 382.993 0.758413 -1.72897 0
M  V30 4058 O 382.35 1.51094 -1.02357 0
M  V30 4059 C 382.401 -0.96293 -3.48439 0
M  V30 4060 O 382.122 -2.34057 -3.70336 0
M  V30 4061 C 383.623 -0.669585 -4.38214 0
M  V30 4062 H 380.843 -0.250523 -0.622478 0
M  V30 4063 H 383.387 -1.3184 -1.56328 0
M  V30 4064 H 381.542 -0.366033 -3.85667 0
M  V30 4065 H 381.956 -2.43424 -4.64591 0
M  V30 4066 H 383.43 -0.920967 -5.44263 0
M  V30 4067 H 383.907 0.396383 -4.37408 0
M  V30 4068 H 384.513 -1.2472 -4.06602 0
M  V30 4069 N 382.828 1.3818 -0.7579 0
M  V30 4070 C 384.105 1.94106 -0.241306 0
M  V30 4071 C 384.485 1.69282 1.26122 0
M  V30 4072 O 383.833 1.03378 2.03777 0
M  V30 4073 C 384.043 3.43809 -0.59967 0
M  V30 4074 C 385.391 4.20868 -0.561717 0
M  V30 4075 O 386.415 3.5211 -0.538222 0
M  V30 4076 O 385.274 5.43451 -0.576478 0
M  V30 4077 H 382.368 0.825376 -0.0518042 0
M  V30 4078 H 384.914 1.47548 -0.838315 0
M  V30 4079 H 383.686 3.55403 -1.6372 0
M  V30 4080 H 383.309 3.97592 0.0251197 0
M  V30 4081 N 384.306 0.507319 1.49211 0
M  V30 4082 C 385.236 -0.256939 2.32082 0
M  V30 4083 C 386.217 -0.956609 1.40652 0
M  V30 4084 O 387.402 -0.946788 1.69557 0
M  V30 4085 C 384.532 -1.31802 3.21318 0
M  V30 4086 C 383.486 -0.737855 4.21592 0
M  V30 4087 C 382.812 -1.89992 4.99807 0
M  V30 4088 C 384.112 0.275325 5.21574 0
M  V30 4089 H 385.806 0.434798 2.96226 0
M  V30 4090 H 383.352 0.210546 1.42452 0
M  V30 4091 H 385.305 -1.86045 3.78107 0
M  V30 4092 H 384.029 -2.03903 2.5513 0
M  V30 4093 H 382.688 -0.217126 3.65956 0
M  V30 4094 H 382.336 -2.60877 4.30061 0
M  V30 4095 H 382.036 -1.51777 5.6766 0
M  V30 4096 H 383.56 -2.44657 5.59442 0
M  V30 4097 H 384.974 -0.179193 5.7302 0
M  V30 4098 H 383.371 0.573649 5.97352 0
M  V30 4099 H 384.441 1.18903 4.70096 0
M  V30 4100 N 385.784 -1.5574 0.241426 0
M  V30 4101 C 386.714 -2.24133 -0.654722 0
M  V30 4102 C 387.695 -1.21974 -1.1856 0
M  V30 4103 O 388.88 -1.50612 -1.22595 0
M  V30 4104 C 386.01 -2.93659 -1.85423 0
M  V30 4105 C 384.964 -4.0246 -1.45636 0
M  V30 4106 C 384.29 -4.59383 -2.73626 0
M  V30 4107 C 385.59 -5.18468 -0.631506 0
M  V30 4108 H 387.284 -2.99281 -0.0844353 0
M  V30 4109 H 384.83 -1.43947 -0.0391707 0
M  V30 4110 H 386.783 -3.40203 -2.48676 0
M  V30 4111 H 385.507 -2.15991 -2.44981 0
M  V30 4112 H 384.166 -3.56676 -0.847202 0
M  V30 4113 H 383.814 -3.78422 -3.3137 0
M  V30 4114 H 383.514 -5.32826 -2.4773 0
M  V30 4115 H 385.038 -5.08658 -3.37786 0
M  V30 4116 H 386.452 -5.61272 -1.1682 0
M  V30 4117 H 384.849 -5.98266 -0.468831 0
M  V30 4118 H 385.919 -4.8358 0.357506 0
M  V30 4119 N 387.262 0.0317525 -1.57568 0
M  V30 4120 C 388.511 0.722131 -1.8833 0
M  V30 4121 C 388.824 1.76664 -0.839587 0
M  V30 4122 O 390.03 2.50942 -1.03635 0
M  V30 4123 C 388.486 1.33544 -3.34207 0
M  V30 4124 C 388.094 0.327415 -4.46802 0
M  V30 4125 C 389.838 2.00585 -3.7412 0
M  V30 4126 C 387.745 0.948915 -5.83738 0
M  V30 4127 H 386.675 0.273466 -0.702661 0
M  V30 4128 H 389.326 -0.0235811 -1.83485 0
M  V30 4129 H 387.708 2.13077 -3.33788 0
M  V30 4130 H 388.882 -0.441006 -4.58685 0
M  V30 4131 H 387.197 -0.240758 -4.15703 0
M  V30 4132 H 389.794 2.47932 -4.73744 0
M  V30 4133 H 390.137 2.82285 -3.05975 0
M  V30 4134 H 390.67 1.27831 -3.76702 0
M  V30 4135 H 387.409 0.171387 -6.55276 0
M  V30 4136 H 386.929 1.68724 -5.7558 0
M  V30 4137 H 388.608 1.45705 -6.3038 0
M  V30 4138 N 388.74 1.54641 0.303973 0
M  V30 4139 C 389.986 1.74038 1.04109 0
M  V30 4140 C 390.319 0.523051 1.87024 0
M  V30 4141 O 389.594 -0.479874 1.88487 0
M  V30 4142 C 389.877 3.02761 1.94955 0
M  V30 4143 C 389.73 4.34787 1.1524 0
M  V30 4144 C 391.049 3.27336 2.94175 0
M  V30 4145 H 388.168 0.63323 0.377079 0
M  V30 4146 H 390.81 1.87354 0.316001 0
M  V30 4147 H 388.96 2.9154 2.56782 0
M  V30 4148 H 390.632 4.57922 0.557236 0
M  V30 4149 H 388.875 4.31407 0.455053 0
M  V30 4150 H 389.546 5.21116 1.8205 0
M  V30 4151 H 392.022 3.38148 2.42477 0
M  V30 4152 H 390.898 4.18726 3.54908 0
M  V30 4153 H 391.159 2.45491 3.67677 0
M  V30 4154 N 390.218 -0.567019 1.47046 0
M  V30 4155 C 391.148 -1.68482 1.61667 0
M  V30 4156 C 392.129 -1.6358 0.466418 0
M  V30 4157 O 393.314 -1.81354 0.694574 0
M  V30 4158 C 390.444 -3.07124 1.62148 0
M  V30 4159 C 389.398 -3.26867 2.76301 0
M  V30 4160 C 388.724 -4.66196 2.61849 0
M  V30 4161 C 390.024 -3.13186 4.17986 0
M  V30 4162 H 391.718 -1.56502 2.5524 0
M  V30 4163 H 389.264 -0.751486 1.22836 0
M  V30 4164 H 391.217 -3.8516 1.70968 0
M  V30 4165 H 389.941 -3.2004 0.651287 0
M  V30 4166 H 388.6 -2.51237 2.66975 0
M  V30 4167 H 388.248 -4.75898 1.62879 0
M  V30 4168 H 387.948 -4.80356 3.38425 0
M  V30 4169 H 389.472 -5.46379 2.72584 0
M  V30 4170 H 390.886 -3.81049 4.2834 0
M  V30 4171 H 389.283 -3.3886 4.95272 0
M  V30 4172 H 390.353 -2.10057 4.3704 0
M  V30 4173 N 391.696 -1.35014 -0.812953 0
M  V30 4174 C 392.921 -1.31187 -1.60639 0
M  V30 4175 C 393.346 0.109382 -1.87782 0
M  V30 4176 O 392.704 1.07424 -1.46047 0
M  V30 4177 C 392.752 -2.11809 -2.91838 0
M  V30 4178 O 391.856 -1.49444 -3.8437 0
M  V30 4179 H 391.197 -0.450084 -0.488181 0
M  V30 4180 H 393.727 -1.77963 -1.00947 0
M  V30 4181 H 393.737 -2.23531 -3.41318 0
M  V30 4182 H 392.412 -3.15137 -2.71407 0
M  V30 4183 H 390.989 -1.46524 -3.42907 0
M  V30 4184 N 393.175 1.03435 -1.18907 0
M  V30 4185 C 394.452 1.73778 -0.89781 0
M  V30 4186 C 394.832 2.02458 0.597832 0
M  V30 4187 O 394.18 1.67482 1.55441 0
M  V30 4188 C 394.39 3.01845 -1.75187 0
M  V30 4189 C 395.738 3.7546 -1.9828 0
M  V30 4190 O 396.762 3.11759 -1.72293 0
M  V30 4191 O 395.621 4.89966 -2.42065 0
M  V30 4192 H 392.715 0.75651 -0.334098 0
M  V30 4193 H 395.261 1.09444 -1.29693 0
M  V30 4194 H 394.033 2.76836 -2.76545 0
M  V30 4195 H 393.656 3.73919 -1.35167 0
M  V30 4196 N 394.653 0.992116 1.22453 0
M  V30 4197 C 395.899 0.668523 1.91464 0
M  V30 4198 C 396.232 -0.797313 1.77078 0
M  V30 4199 O 395.507 -1.5765 1.13916 0
M  V30 4200 C 395.79 1.07424 3.43703 0
M  V30 4201 C 395.643 2.59857 3.67143 0
M  V30 4202 C 396.962 0.626891 4.35612 0
M  V30 4203 H 394.081 0.244341 0.695318 0
M  V30 4204 H 396.723 1.2355 1.44345 0
M  V30 4205 H 394.873 0.591816 3.83966 0
M  V30 4206 H 396.545 3.15764 3.3629 0
M  V30 4207 H 394.788 3.01961 3.11451 0
M  V30 4208 H 395.459 2.83296 4.73759 0
M  V30 4209 H 397.935 1.04125 4.02861 0
M  V30 4210 H 396.811 0.939076 5.40807 0
M  V30 4211 H 397.072 -0.472457 4.39568 0
M  V30 4212 N 396.131 -1.37776 0.765217 0
M  V30 4213 C 397.041 -2.34135 0.147666 0
M  V30 4214 C 398.057 -1.59854 -0.687215 0
M  V30 4215 O 399.233 -1.91983 -0.608659 0
M  V30 4216 C 396.298 -3.3901 -0.72617 0
M  V30 4217 C 395.359 -4.2912 0.124417 0
M  V30 4218 C 394.592 -5.28986 -0.707807 0
M  V30 4219 O 394.815 -5.36205 -1.94525 0
M  V30 4220 O 393.749 -6.01779 -0.12046 0
M  V30 4221 H 397.575 -2.88664 0.943758 0
M  V30 4222 H 395.16 -1.39824 0.526277 0
M  V30 4223 H 397.042 -4.03195 -1.22524 0
M  V30 4224 H 395.717 -2.86819 -1.50056 0
M  V30 4225 H 394.624 -3.68057 0.669696 0
M  V30 4226 H 395.957 -4.84598 0.861736 0
M  V30 4227 N 397.609 -0.515225 -1.4894 0
M  V30 4228 C 398.857 0.0241671 -2.02086 0
M  V30 4229 C 399.178 1.3616 -1.3959 0
M  V30 4230 O 398.448 1.87841 -0.556121 0
M  V30 4231 H 397.028 0.0119203 -0.746905 0
M  V30 4232 H 399.69 -0.675702 -1.82812 0
M  V30 4233 H 398.786 0.143385 -3.1177 0
M  V30 4234 N 399.087 1.5561 -0.249682 0
M  V30 4235 C 400.017 2.24477 0.642826 0
M  V30 4236 C 400.998 1.22601 1.17911 0
M  V30 4237 O 402.183 1.5126 1.21795 0
M  V30 4238 C 399.313 2.94638 1.83863 0
M  V30 4239 C 398.267 4.03227 1.435 0
M  V30 4240 C 397.593 4.60828 2.71186 0
M  V30 4241 C 398.893 5.18796 0.604002 0
M  V30 4242 H 400.587 2.99321 0.0685625 0
M  V30 4243 H 398.133 1.43965 0.0315363 0
M  V30 4244 H 400.086 3.41517 2.46868 0
M  V30 4245 H 398.81 2.17287 2.43832 0
M  V30 4246 H 397.469 3.57121 0.828275 0
M  V30 4247 H 397.117 3.80174 3.29358 0
M  V30 4248 H 396.817 5.34132 2.44901 0
M  V30 4249 H 398.341 5.10442 3.35084 0
M  V30 4250 H 399.755 5.61883 1.13842 0
M  V30 4251 H 398.152 5.98506 0.437097 0
M  V30 4252 H 399.222 4.83384 -0.383147 0
M  V30 4253 N 400.565 -0.0233959 1.57583 0
M  V30 4254 C 401.812 -0.713063 1.8953 0
M  V30 4255 C 402.14 -1.75056 0.847673 0
M  V30 4256 O 401.395 -1.95119 -0.150636 0
M  V30 4257 C 401.694 -1.41428 3.28227 0
M  V30 4258 C 401.36 -0.512222 4.47981 0
M  V30 4259 C 400.022 -0.263785 4.80476 0
M  V30 4260 C 402.374 0.110248 5.21083 0
M  V30 4261 C 399.702 0.615804 5.83459 0
M  V30 4262 C 402.054 0.977573 6.25001 0
M  V30 4263 C 400.718 1.23542 6.55968 0
M  V30 4264 H 399.988 -0.260928 0.69354 0
M  V30 4265 H 402.635 0.0271047 1.91481 0
M  V30 4266 H 400.94 -2.22791 3.22291 0
M  V30 4267 H 402.637 -1.95355 3.50196 0
M  V30 4268 H 399.227 -0.716013 4.22577 0
M  V30 4269 H 403.411 -0.0687137 4.96252 0
M  V30 4270 H 398.667 0.82382 6.05824 0
M  V30 4271 H 402.841 1.46638 6.80786 0
M  V30 4272 H 400.468 1.91871 7.35588 0
M  V30 4273 N 402.043 -1.548 -0.295768 0
M  V30 4274 C 403.32 -1.65014 -1.05023 0
M  V30 4275 C 403.7 -0.501805 -2.05049 0
M  V30 4276 O 403.048 0.500869 -2.22943 0
M  V30 4277 C 403.258 -3.03252 -1.72741 0
M  V30 4278 C 404.606 -3.60242 -2.24746 0
M  V30 4279 O 405.63 -3.05737 -1.82765 0
M  V30 4280 O 404.489 -4.55687 -3.01681 0
M  V30 4281 H 401.583 -0.669314 -0.485744 0
M  V30 4282 H 404.129 -1.67144 -0.293438 0
M  V30 4283 H 402.901 -3.7827 -1.00138 0
M  V30 4284 H 402.524 -3.04922 -2.55163 0
M  V30 4285 N 403.521 0.559213 -1.47345 0
M  V30 4286 C 404.746 1.34676 -1.57725 0
M  V30 4287 C 405.171 1.86723 -0.227164 0
M  V30 4288 O 404.529 1.6286 0.796642 0
M  V30 4289 C 404.577 2.49399 -2.60447 0
M  V30 4290 O 403.681 3.51567 -2.15578 0
M  V30 4291 H 403.022 0.400115 -0.52991 0
M  V30 4292 H 405.552 0.676009 -1.93109 0
M  V30 4293 H 405.562 2.95996 -2.80803 0
M  V30 4294 H 404.237 2.10873 -3.58477 0
M  V30 4295 H 402.814 3.11289 -2.05313 0
M  V30 4296 N 404.999 1.35443 0.805782 0
M  V30 4297 C 406.41 1.25768 1.37983 0
M  V30 4298 C 406.761 -0.10958 1.95894 0
M  V30 4299 O 405.886 -1.01056 1.91355 0
M  V30 4300 C 406.481 2.27727 2.5085 0
M  V30 4301 C 405.04 2.2179 3.04115 0
M  V30 4302 C 404.187 2.13393 1.77084 0
M  V30 4303 H 407.138 1.4656 0.608752 0
M  V30 4304 H 407.159 1.90422 3.29424 0
M  V30 4305 H 406.671 3.27227 2.08671 0
M  V30 4306 H 404.772 1.25703 3.50756 0
M  V30 4307 H 404.885 3.13788 3.62042 0
M  V30 4308 H 403.249 1.59384 1.98668 0
M  V30 4309 H 404.032 3.14755 1.37056 0
M  V30 4310 N 406.477 -1.02803 1.19454 0
M  V30 4311 C 407.888 -1.57667 0.999899 0
M  V30 4312 C 408.239 -1.91041 -0.446956 0
M  V30 4313 O 407.364 -1.70978 -1.32648 0
M  V30 4314 C 407.959 -2.86477 1.80877 0
M  V30 4315 C 406.518 -3.37911 1.65811 0
M  V30 4316 C 405.665 -2.11343 1.79526 0
M  V30 4317 H 408.616 -0.853214 1.33813 0
M  V30 4318 H 408.637 -3.57408 1.30536 0
M  V30 4319 H 408.149 -2.62155 2.86175 0
M  V30 4320 H 406.25 -3.67218 0.63102 0
M  V30 4321 H 406.363 -4.10885 2.46395 0
M  V30 4322 H 404.727 -2.23254 1.22596 0
M  V30 4323 H 405.51 -1.89461 2.86285 0
M  V30 4324 N 407.956 -0.998596 -1.21925 0
M  V30 4325 C 409.204 -0.676325 -1.90448 0
M  V30 4326 C 409.525 0.794719 -1.78071 0
M  V30 4327 O 408.795 1.5701 -1.17152 0
M  V30 4328 H 407.375 -0.247165 -0.704925 0
M  V30 4329 H 410.037 -1.26633 -1.48156 0
M  V30 4330 H 409.133 -0.943858 -2.97486 0
M  V30 4331 N 409.434 1.37368 -0.772513 0
M  V30 4332 C 410.659 2.0447 -0.347386 0
M  V30 4333 C 411.084 1.57882 1.0225 0
M  V30 4334 O 410.442 0.73941 1.65537 0
M  V30 4335 C 410.49 3.58369 -0.400479 0
M  V30 4336 O 409.594 4.0803 0.598789 0
M  V30 4337 H 408.935 0.646773 -0.15027 0
M  V30 4338 H 411.465 1.75667 -1.04892 0
M  V30 4339 H 411.475 4.07183 -0.258045 0
M  V30 4340 H 410.15 3.91633 -1.39986 0
M  V30 4341 H 408.727 3.70534 0.419411 0
M  V30 4342 N 410.912 0.523116 1.48665 0
M  V30 4343 C 412.189 -0.0775449 1.95446 0
M  V30 4344 C 412.569 -1.5197 1.4652 0
M  V30 4345 O 411.917 -2.17876 0.688657 0
M  V30 4346 C 412.127 0.0326135 3.48985 0
M  V30 4347 C 413.475 -0.130141 4.24401 0
M  V30 4348 O 414.499 -0.0415142 3.56176 0
M  V30 4349 O 413.358 -0.31491 5.45592 0
M  V30 4350 H 410.452 -0.0831012 0.822814 0
M  V30 4351 H 412.998 0.587227 1.59216 0
M  V30 4352 H 411.77 1.03748 3.77296 0
M  V30 4353 H 411.393 -0.671317 3.91892 0
M  V30 4354 N 412.39 -1.55475 0.257931 0
M  V30 4355 C 413.667 -1.91155 -0.414629 0
M  V30 4356 C 414.047 -1.18008 -1.75035 0
M  V30 4357 O 413.395 -0.301193 -2.26506 0
M  V30 4358 C 413.605 -3.44283 -0.571859 0
M  V30 4359 C 414.953 -4.15744 -0.862678 0
M  V30 4360 O 415.977 -3.50083 -0.657314 0
M  V30 4361 O 414.836 -5.31909 -1.2544 0
M  V30 4362 H 411.93 -0.796016 -0.22425 0
M  V30 4363 H 414.476 -1.66976 0.302814 0
M  V30 4364 H 413.248 -3.89558 0.368844 0
M  V30 4365 H 412.871 -3.7436 -1.33943 0
M  V30 4366 N 413.868 0.0150385 -1.57593 0
M  V30 4367 C 414.831 0.995996 -2.06428 0
M  V30 4368 C 415.831 1.2818 -0.970903 0
M  V30 4369 O 417.021 1.22949 -1.23406 0
M  V30 4370 C 414.153 2.32506 -2.49307 0
M  V30 4371 H 415.346 0.573873 -2.94358 0
M  V30 4372 H 412.899 0.262186 -1.54085 0
M  V30 4373 H 413.634 2.79438 -1.64575 0
M  V30 4374 H 413.419 2.13087 -3.29145 0
M  V30 4375 H 414.909 3.02906 -2.87468 0
M  V30 4376 N 415.346 1.54954 0.287554 0
M  V30 4377 C 416.293 1.86834 1.35505 0
M  V30 4378 C 417.263 0.718452 1.49758 0
M  V30 4379 O 418.448 0.968358 1.644 0
M  V30 4380 C 415.588 2.13303 2.71286 0
M  V30 4381 C 414.701 3.40883 2.65373 0
M  V30 4382 C 413.836 3.57125 3.93236 0
M  V30 4383 C 412.875 4.78449 3.81776 0
M  V30 4384 N 412.012 4.91426 5.01443 0
M  V30 4385 H 416.852 2.77889 1.07619 0
M  V30 4386 H 414.389 1.37593 0.520241 0
M  V30 4387 H 416.347 2.26646 3.50267 0
M  V30 4388 H 414.977 1.25499 2.97405 0
M  V30 4389 H 414.029 3.36088 1.78182 0
M  V30 4390 H 415.341 4.29993 2.52799 0
M  V30 4391 H 414.495 3.70207 4.80658 0
M  V30 4392 H 413.234 2.66173 4.0866 0
M  V30 4393 H 412.239 4.65386 2.92738 0
M  V30 4394 H 413.464 5.70822 3.67884 0
M  V30 4395 H 411.41 4.03401 5.17304 0
M  V30 4396 H 411.327 5.74559 4.91343 0
M  V30 4397 H 412.595 5.08879 5.90477 0
M  V30 4398 N 416.824 -0.551391 1.4764 0
M  V30 4399 C 417.754 -1.66757 1.63445 0
M  V30 4400 C 418.735 -1.63077 0.483742 0
M  V30 4401 O 419.92 -1.80607 0.71377 0
M  V30 4402 C 417.05 -3.05387 1.65396 0
M  V30 4403 C 416.004 -3.23918 2.79752 0
M  V30 4404 C 415.33 -4.63393 2.66779 0
M  V30 4405 C 416.63 -3.08735 4.21284 0
M  V30 4406 H 418.324 -1.53786 2.56886 0
M  V30 4407 H 415.87 -0.738415 1.23626 0
M  V30 4408 H 417.823 -3.83325 1.75043 0
M  V30 4409 H 416.547 -3.19332 0.685195 0
M  V30 4410 H 415.206 -2.48391 2.69625 0
M  V30 4411 H 414.854 -4.74144 1.67918 0
M  V30 4412 H 414.554 -4.7674 3.43501 0
M  V30 4413 H 416.078 -5.43458 2.78364 0
M  V30 4414 H 417.492 -3.76484 4.32357 0
M  V30 4415 H 415.889 -3.33588 4.98838 0
M  V30 4416 H 416.959 -2.0541 4.39243 0
M  V30 4417 N 418.302 -1.35869 -0.798587 0
M  V30 4418 C 419.551 -1.28921 -1.5512 0
M  V30 4419 C 419.864 0.13208 -1.95154 0
M  V30 4420 O 421.07 0.323879 -2.69561 0
M  V30 4421 C 419.526 -2.26141 -2.79979 0
M  V30 4422 C 419.134 -3.73658 -2.47151 0
M  V30 4423 C 420.878 -2.28152 -3.57976 0
M  V30 4424 C 418.785 -4.62679 -3.6835 0
M  V30 4425 H 417.715 -0.479031 -0.582276 0
M  V30 4426 H 420.366 -1.61179 -0.877125 0
M  V30 4427 H 418.748 -1.86865 -3.49138 0
M  V30 4428 H 419.922 -4.21616 -1.85947 0
M  V30 4429 H 418.237 -3.74333 -1.82383 0
M  V30 4430 H 420.834 -2.91875 -4.4801 0
M  V30 4431 H 421.177 -1.28748 -3.95891 0
M  V30 4432 H 421.71 -2.65998 -2.95787 0
M  V30 4433 H 418.449 -5.63111 -3.35538 0
M  V30 4434 H 417.969 -4.19442 -4.28752 0
M  V30 4435 H 419.648 -4.78498 -4.35487 0
M  V30 4436 N 419.78 1.02168 -1.19998 0
M  V30 4437 C 421.057 1.72816 -0.916191 0
M  V30 4438 C 421.437 2.03081 0.576325 0
M  V30 4439 O 420.785 1.69122 1.53656 0
M  V30 4440 C 420.995 2.9997 -1.78378 0
M  V30 4441 C 422.343 3.73336 -2.02251 0
M  V30 4442 O 423.367 3.09914 -1.75589 0
M  V30 4443 O 422.226 4.87371 -2.47249 0
M  V30 4444 H 419.32 0.752924 -0.342103 0
M  V30 4445 H 421.866 1.08062 -1.30846 0
M  V30 4446 H 420.638 2.73888 -2.79466 0
M  V30 4447 H 420.261 3.72464 -1.39126 0
M  V30 4448 N 421.258 1.00505 1.21394 0
M  V30 4449 C 422.507 0.683159 1.89778 0
M  V30 4450 C 422.82 -0.789471 1.7896 0
M  V30 4451 O 424.026 -1.22344 2.42372 0
M  V30 4452 C 422.482 1.17146 3.40301 0
M  V30 4453 C 422.09 2.67017 3.5973 0
M  V30 4454 C 423.834 0.924461 4.14311 0
M  V30 4455 C 421.741 3.09387 5.04017 0
M  V30 4456 H 420.671 0.25183 0.710702 0
M  V30 4457 H 423.322 1.21622 1.37406 0
M  V30 4458 H 421.704 0.566451 3.91928 0
M  V30 4459 H 422.878 3.32968 3.18542 0
M  V30 4460 H 421.193 2.89732 2.99073 0
M  V30 4461 H 423.79 1.21658 5.20676 0
M  V30 4462 H 424.133 -0.139286 4.16067 0
M  V30 4463 H 424.666 1.49226 3.6875 0
M  V30 4464 H 421.405 4.14989 5.07409 0
M  V30 4465 H 420.925 2.48149 5.46061 0
M  V30 4466 H 422.604 3.01371 5.72525 0
M  V30 4467 N 422.737 -1.36956 0.779787 0
M  V30 4468 C 423.984 -1.99491 0.347766 0
M  V30 4469 C 424.312 -1.61898 -1.07793 0
M  V30 4470 O 423.567 -0.86071 -1.75756 0
M  V30 4471 C 423.866 -3.54585 0.447686 0
M  V30 4472 C 423.532 -4.1197 1.83279 0
M  V30 4473 C 422.194 -4.27356 2.2118 0
M  V30 4474 C 424.546 -4.43354 2.74019 0
M  V30 4475 C 421.874 -4.71432 3.4924 0
M  V30 4476 C 424.226 -4.88858 4.01497 0
M  V30 4477 C 422.89 -5.0245 4.39432 0
M  V30 4478 H 422.16 -0.729991 0.127257 0
M  V30 4479 H 424.807 -1.63599 0.995376 0
M  V30 4480 H 423.112 -3.90773 -0.283447 0
M  V30 4481 H 424.809 -4.00888 0.0945948 0
M  V30 4482 H 421.399 -4.00428 1.52825 0
M  V30 4483 H 425.583 -4.31045 2.45995 0
M  V30 4484 H 420.839 -4.80141 3.78516 0
M  V30 4485 H 425.013 -5.12108 4.71931 0
M  V30 4486 H 422.64 -5.36362 5.38721 0
M  V30 4487 N 424.215 -0.530993 -1.48385 0
M  V30 4488 C 425.445 -0.00133928 -2.066 0
M  V30 4489 C 425.853 1.28599 -1.38777 0
M  V30 4490 O 425.196 1.77599 -0.469495 0
M  V30 4491 C 425.258 0.292137 -3.58311 0
M  V30 4492 C 424.922 -0.901864 -4.48013 0
M  V30 4493 C 425.919 -1.80053 -4.87726 0
M  V30 4494 C 423.604 -1.10915 -4.89901 0
M  V30 4495 C 425.598 -2.89038 -5.68098 0
M  V30 4496 C 423.285 -2.20213 -5.70043 0
M  V30 4497 C 424.283 -3.09107 -6.0905 0
M  V30 4498 O 423.971 -4.16514 -6.87583 0
M  V30 4499 H 423.703 -0.0308475 -0.675296 0
M  V30 4500 H 426.257 -0.736335 -1.91748 0
M  V30 4501 H 424.487 1.08112 -3.7128 0
M  V30 4502 H 426.176 0.763994 -3.98645 0
M  V30 4503 H 426.942 -1.65234 -4.55986 0
M  V30 4504 H 422.821 -0.426498 -4.59023 0
M  V30 4505 H 426.365 -3.58451 -5.98464 0
M  V30 4506 H 422.262 -2.35016 -6.01197 0
M  V30 4507 H 423.03 -4.14237 -7.05939 0
M  V30 4508 N 425.693 1.55336 -0.266172 0
M  V30 4509 C 427.104 1.85236 0.233315 0
M  V30 4510 C 427.455 1.18816 1.56132 0
M  V30 4511 O 426.58 0.473307 2.11161 0
M  V30 4512 C 427.175 3.36059 0.430113 0
M  V30 4513 C 425.734 3.66116 0.873842 0
M  V30 4514 C 424.881 2.77274 -0.0380016 0
M  V30 4515 H 427.832 1.51004 -0.488214 0
M  V30 4516 H 427.853 3.58681 1.26998 0
M  V30 4517 H 427.365 3.84373 -0.536588 0
M  V30 4518 H 425.466 3.23295 1.85233 0
M  V30 4519 H 425.579 4.73699 0.717358 0
M  V30 4520 H 423.943 2.50198 0.476759 0
M  V30 4521 H 424.726 3.284 -1.00042 0
M  V30 4522 N 427.171 -0.0066808 1.57599 0
M  V30 4523 C 428.419 -0.691552 1.899 0
M  V30 4524 C 428.74 -1.74682 0.866672 0
M  V30 4525 O 428.01 -1.95661 -0.0968189 0
M  V30 4526 H 426.59 -0.258416 0.700878 0
M  V30 4527 H 429.252 0.0326655 1.94873 0
M  V30 4528 H 428.348 -1.16702 2.8946 0
M  V30 4529 N 428.649 -1.55105 -0.279332 0
M  V30 4530 C 429.926 -1.66119 -1.03267 0
M  V30 4531 C 430.306 -0.523525 -2.04505 0
M  V30 4532 O 429.654 0.477194 -2.23462 0
M  V30 4533 C 429.864 -3.05067 -1.69515 0
M  V30 4534 C 431.212 -3.62606 -2.20912 0
M  V30 4535 O 432.236 -3.07659 -1.79512 0
M  V30 4536 O 431.095 -4.58861 -2.96831 0
M  V30 4537 H 428.189 -0.674429 -0.478618 0
M  V30 4538 H 430.735 -1.67446 -0.275694 0
M  V30 4539 H 429.507 -3.79311 -0.9612 0
M  V30 4540 H 429.13 -3.07611 -2.51915 0
M  V30 4541 N 430.127 0.543554 -1.4793 0
M  V30 4542 C 431.059 1.665 -1.57513 0
M  V30 4543 C 432.072 1.56156 -0.460333 0
M  V30 4544 O 433.261 1.62865 -0.730573 0
M  V30 4545 C 430.361 3.05063 -1.47614 0
M  V30 4546 C 429.534 3.41024 -2.739 0
M  V30 4547 C 428.593 4.58809 -2.57645 0
M  V30 4548 O 427.619 4.62707 -3.31498 0
M  V30 4549 N 428.821 5.56149 -1.66368 0
M  V30 4550 H 431.586 1.5872 -2.5422 0
M  V30 4551 H 429.147 0.730517 -1.44482 0
M  V30 4552 H 431.139 3.81712 -1.34455 0
M  V30 4553 H 429.709 3.06994 -0.589359 0
M  V30 4554 H 428.929 2.53687 -3.01723 0
M  V30 4555 H 430.217 3.61831 -3.57709 0
M  V30 4556 H 429.615 5.55767 -1.05543 0
M  V30 4557 H 428.172 6.32071 -1.59154 0
M  V30 4558 N 431.605 1.3629 0.791371 0
M  V30 4559 C 432.537 1.26321 1.91248 0
M  V30 4560 C 433.55 0.18313 1.61767 0
M  V30 4561 O 434.739 0.437682 1.73051 0
M  V30 4562 C 431.839 0.925901 3.26007 0
M  V30 4563 C 431.012 2.10746 3.83281 0
M  V30 4564 C 430.071 1.74352 4.96475 0
M  V30 4565 O 429.097 2.46416 5.13096 0
M  V30 4566 N 430.299 0.676058 5.7655 0
M  V30 4567 H 433.064 2.22915 2.00323 0
M  V30 4568 H 430.625 1.29659 0.969546 0
M  V30 4569 H 432.617 0.663636 3.99222 0
M  V30 4570 H 431.187 0.0491581 3.12561 0
M  V30 4571 H 430.407 2.53264 3.02077 0
M  V30 4572 H 431.695 2.8969 4.18279 0
M  V30 4573 H 431.093 0.0776467 5.65647 0
M  V30 4574 H 429.65 0.473612 6.50077 0
M  V30 4575 N 433.083 -1.0153 1.20538 0
M  V30 4576 C 434.308 -1.79283 1.04271 0
M  V30 4577 C 434.733 -1.8372 -0.403544 0
M  V30 4578 O 434.091 -1.27321 -1.2907 0
M  V30 4579 C 434.139 -3.21535 1.63241 0
M  V30 4580 O 433.243 -4.03099 0.870908 0
M  V30 4581 H 432.584 -0.55293 0.367647 0
M  V30 4582 H 435.114 -1.27696 1.59859 0
M  V30 4583 H 435.124 -3.72243 1.6703 0
M  V30 4584 H 433.799 -3.1762 2.68497 0
M  V30 4585 H 432.376 -3.61693 0.907323 0
M  V30 4586 N 434.561 -1.01147 -1.20859 0
M  V30 4587 C 435.807 -0.698899 -1.90377 0
M  V30 4588 C 436.14 0.76904 -1.78324 0
M  V30 4589 O 435.415 1.55817 -1.16409 0
M  V30 4590 C 435.698 -1.12878 -3.41951 0
M  V30 4591 C 435.551 -2.65665 -3.62963 0
M  V30 4592 C 436.87 -0.696114 -4.3456 0
M  V30 4593 H 433.989 -0.255372 -0.691342 0
M  V30 4594 H 436.631 -1.25831 -1.42361 0
M  V30 4595 H 434.781 -0.652827 -3.82976 0
M  V30 4596 H 436.453 -3.21074 -3.31224 0
M  V30 4597 H 434.696 -3.06878 -3.06608 0
M  V30 4598 H 435.367 -2.90797 -4.69192 0
M  V30 4599 H 437.843 -1.10521 -4.01154 0
M  V30 4600 H 436.719 -1.025 -5.39245 0
M  V30 4601 H 436.98 0.402465 -4.40264 0
M  V30 4602 N 436.039 1.36541 -0.78704 0
M  V30 4603 C 437.267 2.03561 -0.370199 0
M  V30 4604 C 437.682 1.59347 1.01263 0
M  V30 4605 O 437.039 0.781781 1.64907 0
M  V30 4606 C 437.09 3.59033 -0.421614 0
M  V30 4607 O 436.811 4.01634 -1.7499 0
M  V30 4608 C 438.312 4.433 0.00489763 0
M  V30 4609 H 435.532 0.653346 -0.152904 0
M  V30 4610 H 438.076 1.74566 -1.06522 0
M  V30 4611 H 436.231 3.86746 0.224971 0
M  V30 4612 H 436.645 4.96217 -1.69909 0
M  V30 4613 H 438.119 5.51939 -0.0822184 0
M  V30 4614 H 438.596 4.26285 1.05723 0
M  V30 4615 H 439.202 4.20843 -0.614085 0
M  V30 4616 N 437.518 0.538854 1.48102 0
M  V30 4617 C 438.765 0.0080018 2.02498 0
M  V30 4618 C 439.093 -1.33437 1.41509 0
M  V30 4619 O 438.348 -1.87709 0.553507 0
M  V30 4620 C 438.647 -0.153808 3.57069 0
M  V30 4621 C 438.313 1.11533 4.36888 0
M  V30 4622 C 436.975 1.46314 4.58417 0
M  V30 4623 C 439.327 1.95718 4.83057 0
M  V30 4624 C 436.655 2.6516 5.23361 0
M  V30 4625 C 439.007 3.13751 5.49312 0
M  V30 4626 C 437.671 3.48866 5.69077 0
M  V30 4627 H 436.941 0.00292807 0.740994 0
M  V30 4628 H 439.588 0.706668 1.77984 0
M  V30 4629 H 437.893 -0.935309 3.80472 0
M  V30 4630 H 439.59 -0.579607 3.96789 0
M  V30 4631 H 436.18 0.834484 4.20398 0
M  V30 4632 H 440.364 1.70158 4.66219 0
M  V30 4633 H 435.62 2.92558 5.36861 0
M  V30 4634 H 439.794 3.79282 5.84053 0
M  V30 4635 H 437.421 4.41054 6.19173 0
M  V30 4636 N 438.996 -1.55193 0.274407 0
M  V30 4637 C 440.244 -1.99187 -0.341902 0
M  V30 4638 C 440.565 -1.16422 -1.56431 0
M  V30 4639 O 439.835 -0.253573 -1.94252 0
M  V30 4640 H 438.415 -0.735721 -0.129317 0
M  V30 4641 H 441.077 -1.91168 0.379578 0
M  V30 4642 H 440.173 -3.05629 -0.632253 0
M  V30 4643 N 440.474 -0.00167713 -1.576 0
M  V30 4644 C 441.702 0.693759 -1.94922 0
M  V30 4645 C 442.117 1.67215 -0.876626 0
M  V30 4646 O 441.474 1.81929 0.144279 0
M  V30 4647 C 441.525 1.42416 -3.32265 0
M  V30 4648 O 441.246 0.485014 -4.35407 0
M  V30 4649 C 442.747 2.21395 -3.84056 0
M  V30 4650 H 439.967 0.193118 -0.642609 0
M  V30 4651 H 442.511 -0.0532952 -2.04431 0
M  V30 4652 H 440.666 2.12284 -3.24059 0
M  V30 4653 H 441.08 1.00053 -5.14868 0
M  V30 4654 H 442.554 2.67996 -4.82578 0
M  V30 4655 H 443.031 3.04142 -3.16851 0
M  V30 4656 H 443.637 1.56542 -3.95443 0
M  V30 4657 N 441.952 1.55251 0.271103 0
M  V30 4658 C 442.899 1.88261 1.33516 0
M  V30 4659 C 443.869 0.734296 1.48988 0
M  V30 4660 O 445.054 0.985741 1.63364 0
M  V30 4661 C 442.194 2.16168 2.69008 0
M  V30 4662 C 441.307 3.43678 2.61743 0
M  V30 4663 C 440.442 3.61276 3.89427 0
M  V30 4664 C 439.481 4.82472 3.7668 0
M  V30 4665 N 438.618 4.96717 4.96202 0
M  V30 4666 H 443.458 2.79015 1.04665 0
M  V30 4667 H 440.995 1.38137 0.505618 0
M  V30 4668 H 442.953 2.30349 3.47844 0
M  V30 4669 H 441.583 1.28646 2.96057 0
M  V30 4670 H 440.635 3.37959 1.74607 0
M  V30 4671 H 441.947 4.3265 2.48224 0
M  V30 4672 H 441.101 3.75284 4.76704 0
M  V30 4673 H 439.84 2.70492 4.05814 0
M  V30 4674 H 438.845 4.68465 2.87786 0
M  V30 4675 H 440.07 5.74692 3.61809 0
M  V30 4676 H 438.016 4.08865 5.12997 0
M  V30 4677 H 437.933 5.79738 4.85222 0
M  V30 4678 H 439.201 5.15113 5.85046 0
M  V30 4679 N 443.43 -0.535701 1.48216 0
M  V30 4680 C 444.655 -1.32149 1.59848 0
M  V30 4681 C 445.08 -1.86338 0.256842 0
M  V30 4682 O 444.438 -1.64107 -0.770632 0
M  V30 4683 C 444.486 -2.45224 2.64381 0
M  V30 4684 O 443.59 -3.48093 2.21144 0
M  V30 4685 H 442.931 -0.391634 0.536208 0
M  V30 4686 H 445.461 -0.645202 1.94161 0
M  V30 4687 H 445.471 -2.91491 2.85476 0
M  V30 4688 H 444.146 -2.05143 3.61786 0
M  V30 4689 H 442.723 -3.07984 2.10239 0
M  V30 4690 N 444.908 -1.36708 -0.784132 0
M  V30 4691 C 446.324 -1.17237 -1.08294 0
M  V30 4692 C 446.524 -5.93947e-05 -2.015 0
M  V30 4693 O 445.58 0.663686 -2.43622 0
M  V30 4694 C 446.893 -2.48557 -1.69233 0
M  V30 4695 C 448.441 -2.54968 -1.8155 0
M  V30 4696 C 448.916 -3.86388 -2.45904 0
M  V30 4697 N 450.407 -3.87762 -2.53367 0
M  V30 4698 C 451.142 -4.86191 -3.03983 0
M  V30 4699 N 450.638 -5.95015 -3.54866 0
M  V30 4700 N 452.431 -4.73606 -3.02743 0
M  V30 4701 H 444.582 -2.11758 -0.16501 0
M  V30 4702 H 446.845 -0.93822 -0.135822 0
M  V30 4703 H 446.551 -3.34638 -1.08215 0
M  V30 4704 H 446.425 -2.64748 -2.68679 0
M  V30 4705 H 448.812 -1.69302 -2.41704 0
M  V30 4706 H 448.893 -2.42672 -0.80895 0
M  V30 4707 H 448.537 -4.72462 -1.86392 0
M  V30 4708 H 448.467 -3.95982 -3.4714 0
M  V30 4709 H 450.958 -3.09145 -2.17343 0
M  V30 4710 H 451.271 -6.66086 -3.91854 0
M  V30 4711 H 449.616 -5.98676 -3.53003 0
M  V30 4712 H 452.807 -3.87717 -2.62284 0
M  V30 4713 H 452.98 -5.50473 -3.41881 0
M  V30 4714 N 446.386 1.0089 -1.21074 0
M  V30 4715 C 447.632 1.74866 -1.02712 0
M  V30 4716 C 447.965 1.89178 0.438787 0
M  V30 4717 O 447.24 1.42325 1.32567 0
M  V30 4718 C 447.523 3.16347 -1.72036 0
M  V30 4719 C 447.376 3.09782 -3.26121 0
M  V30 4720 C 448.695 4.15187 -1.45973 0
M  V30 4721 H 445.814 0.634736 -0.374539 0
M  V30 4722 H 448.456 1.17646 -1.49196 0
M  V30 4723 H 446.606 3.65201 -1.32517 0
M  V30 4724 H 448.278 2.68673 -3.74983 0
M  V30 4725 H 446.521 2.46982 -3.56626 0
M  V30 4726 H 447.192 4.09829 -3.6979 0
M  V30 4727 H 449.668 3.75022 -1.80272 0
M  V30 4728 H 448.544 5.12331 -1.96999 0
M  V30 4729 H 448.805 4.40386 -0.388924 0
M  V30 4730 N 447.864 1.01787 1.20321 0
M  V30 4731 C 449.112 0.706538 1.89347 0
M  V30 4732 C 449.433 -0.766289 1.79313 0
M  V30 4733 O 448.703 -1.55126 1.19635 0
M  V30 4734 H 447.283 0.258348 0.700903 0
M  V30 4735 H 449.945 1.28974 1.46122 0
M  V30 4736 H 449.041 0.991066 2.95946 0
M  V30 4737 N 449.342 -1.36122 0.79427 0
M  V30 4738 C 450.275 -2.27759 0.141845 0
M  V30 4739 C 451.253 -1.47471 -0.684921 0
M  V30 4740 O 452.437 -1.76759 -0.654857 0
M  V30 4741 C 449.564 -3.29008 -0.804446 0
M  V30 4742 C 448.61 -4.26459 -0.0588617 0
M  V30 4743 S 449.443 -5.20253 1.26873 0
M  V30 4744 C 450.599 -6.25048 0.326562 0
M  V30 4745 H 450.832 -2.82746 0.918818 0
M  V30 4746 H 448.365 -1.42736 0.588722 0
M  V30 4747 H 450.323 -3.87842 -1.34495 0
M  V30 4748 H 448.984 -2.72924 -1.5547 0
M  V30 4749 H 448.177 -4.97973 -0.777087 0
M  V30 4750 H 447.779 -3.71731 0.411309 0
M  V30 4751 H 450.071 -6.75705 -0.492795 0
M  V30 4752 H 451.014 -7.00852 1.01053 0
M  V30 4753 H 451.422 -5.64454 -0.0722627 0
M  V30 4754 N 450.82 -0.546701 -1.47814 0
M  V30 4755 C 452.068 -0.0187037 -2.02091 0
M  V30 4756 C 452.389 1.33168 -1.42447 0
M  V30 4757 O 451.659 1.86619 -0.595839 0
M  V30 4758 H 450.239 -0.00392531 -0.74699 0
M  V30 4759 H 452.901 -0.714327 -1.81338 0
M  V30 4760 H 451.997 0.0772219 -3.12004 0
M  V30 4761 N 452.299 1.55045 -0.282633 0
M  V30 4762 C 453.547 1.99365 0.331334 0
M  V30 4763 C 453.868 1.1725 1.55812 0
M  V30 4764 O 453.138 0.263871 1.94115 0
M  V30 4765 H 451.718 0.736397 0.125414 0
M  V30 4766 H 454.38 1.90964 -0.389711 0
M  V30 4767 H 453.476 3.0596 0.616036 0
M  V30 4768 N 453.777 0.010035 1.57597 0
M  V30 4769 C 454.71 -1.01234 2.04516 0
M  V30 4770 C 455.688 -1.32886 0.937024 0
M  V30 4771 O 456.872 -1.44879 1.20592 0
M  V30 4772 C 453.999 -2.33738 2.45121 0
M  V30 4773 C 453.045 -2.17679 3.66767 0
M  V30 4774 S 453.878 -1.49343 5.14254 0
M  V30 4775 C 455.034 -2.83256 5.58137 0
M  V30 4776 H 455.267 -0.612866 2.90914 0
M  V30 4777 H 452.8 -0.201124 1.53084 0
M  V30 4778 H 454.758 -3.09922 2.69182 0
M  V30 4779 H 453.419 -2.70823 1.59103 0
M  V30 4780 H 452.612 -3.1559 3.92962 0
M  V30 4781 H 452.214 -1.4964 3.42759 0
M  V30 4782 H 454.506 -3.79538 5.6121 0
M  V30 4783 H 455.449 -2.61749 6.57946 0
M  V30 4784 H 455.857 -2.87627 4.85727 0
M  V30 4785 N 455.255 -1.55392 -0.262866 0
M  V30 4786 C 456.165 -1.92077 -1.34698 0
M  V30 4787 C 457.181 -0.819227 -1.53508 0
M  V30 4788 O 458.357 -1.11921 -1.67439 0
M  V30 4789 C 455.422 -2.19407 -2.68443 0
M  V30 4790 C 454.483 -3.42905 -2.58292 0
M  V30 4791 C 453.716 -3.68921 -3.85659 0
M  V30 4792 O 453.939 -2.97275 -4.8681 0
M  V30 4793 O 452.873 -4.62455 -3.85252 0
M  V30 4794 H 456.699 -2.84384 -1.06581 0
M  V30 4795 H 454.284 -1.42069 -0.462264 0
M  V30 4796 H 456.166 -2.38365 -3.47506 0
M  V30 4797 H 454.841 -1.30282 -2.96325 0
M  V30 4798 H 453.748 -3.29272 -1.7757 0
M  V30 4799 H 455.081 -4.32282 -2.35358 0
M  V30 4800 N 456.733 0.527833 -1.48498 0
M  V30 4801 C 457.696 1.61439 -1.62696 0
M  V30 4802 C 458.696 1.52824 -0.500136 0
M  V30 4803 O 459.886 1.56456 -0.765976 0
M  V30 4804 C 457.018 3.01063 -1.59918 0
M  V30 4805 H 458.211 1.50189 -2.59583 0
M  V30 4806 H 455.764 0.750055 -1.37127 0
M  V30 4807 H 456.499 3.17818 -0.645163 0
M  V30 4808 H 456.284 3.08725 -2.41726 0
M  V30 4809 H 457.774 3.80057 -1.73051 0
M  V30 4810 N 458.211 1.37122 0.776871 0
M  V30 4811 C 459.158 1.3247 1.88998 0
M  V30 4812 C 460.128 0.191143 1.64997 0
M  V30 4813 O 461.313 0.379683 1.86984 0
M  V30 4814 C 458.453 1.13241 3.25992 0
M  V30 4815 C 457.566 2.35782 3.61982 0
M  V30 4816 C 456.701 2.09465 4.88158 0
M  V30 4817 C 455.74 3.279 5.16864 0
M  V30 4818 N 454.877 3.01167 6.34226 0
M  V30 4819 H 459.717 2.27642 1.9231 0
M  V30 4820 H 457.254 1.13125 0.94027 0
M  V30 4821 H 459.212 1.00115 4.0501 0
M  V30 4822 H 457.842 0.217186 3.22069 0
M  V30 4823 H 456.894 2.59666 2.77989 0
M  V30 4824 H 458.206 3.24125 3.79137 0
M  V30 4825 H 457.36 1.93341 5.75069 0
M  V30 4826 H 456.099 1.18452 4.73097 0
M  V30 4827 H 455.104 3.44569 4.2843 0
M  V30 4828 H 456.329 4.19757 5.33836 0
M  V30 4829 H 454.275 2.12779 6.20533 0
M  V30 4830 H 454.192 3.83052 6.51772 0
M  V30 4831 H 455.46 2.88649 7.24087 0
M  V30 4832 N 459.689 -1.00246 1.21608 0
M  V30 4833 C 460.935 -1.74319 1.03638 0
M  V30 4834 C 461.268 -1.89408 -0.428749 0
M  V30 4835 O 460.543 -1.43026 -1.3181 0
M  V30 4836 C 460.826 -3.15431 1.73711 0
M  V30 4837 C 460.679 -3.08049 3.27759 0
M  V30 4838 C 461.998 -4.14407 1.48173 0
M  V30 4839 H 459.117 -0.632741 0.377899 0
M  V30 4840 H 461.759 -1.16853 1.49818 0
M  V30 4841 H 459.909 -3.64493 1.34452 0
M  V30 4842 H 461.581 -2.66681 3.76403 0
M  V30 4843 H 459.824 -2.45088 3.57931 0
M  V30 4844 H 460.495 -4.07862 3.71958 0
M  V30 4845 H 462.971 -3.74061 1.82258 0
M  V30 4846 H 461.847 -5.11279 1.99713 0
M  V30 4847 H 462.108 -4.40174 0.412273 0
M  V30 4848 N 461.167 -1.02423 -1.1978 0
M  V30 4849 C 462.114 -0.601023 -2.22837 0
M  V30 4850 C 463.084 0.382801 -1.61629 0
M  V30 4851 O 464.269 0.280514 -1.88727 0
M  V30 4852 C 461.409 0.0467755 -3.45068 0
M  V30 4853 C 460.522 -0.98253 -4.20678 0
M  V30 4854 C 459.657 -0.304982 -5.30324 0
M  V30 4855 C 458.696 -1.32052 -5.97686 0
M  V30 4856 N 457.833 -0.669105 -6.98904 0
M  V30 4857 H 462.673 -1.48444 -2.58396 0
M  V30 4858 H 460.21 -0.742936 -1.2696 0
M  V30 4859 H 462.168 0.439556 -4.14878 0
M  V30 4860 H 460.798 0.893796 -3.10179 0
M  V30 4861 H 459.85 -1.49341 -3.49859 0
M  V30 4862 H 461.162 -1.75455 -4.66923 0
M  V30 4863 H 460.316 0.142893 -6.06532 0
M  V30 4864 H 459.055 0.499283 -4.85138 0
M  V30 4865 H 458.06 -1.7787 -5.20233 0
M  V30 4866 H 459.285 -2.1262 -6.44957 0
M  V30 4867 H 457.231 0.115152 -6.55899 0
M  V30 4868 H 457.148 -1.37908 -7.43315 0
M  V30 4869 H 458.416 -0.245076 -7.79115 0
M  V30 4870 N 462.645 1.35699 -0.801477 0
M  V30 4871 C 463.608 2.28199 -0.213994 0
M  V30 4872 C 464.608 1.49359 0.595691 0
M  V30 4873 O 465.798 1.69186 0.414921 0
M  V30 4874 C 462.93 3.33587 0.702297 0
M  V30 4875 H 464.123 2.81666 -1.02976 0
M  V30 4876 H 461.676 1.45467 -0.571759 0
M  V30 4877 H 462.411 2.85297 1.54195 0
M  V30 4878 H 462.196 3.91906 0.123484 0
M  V30 4879 H 463.686 4.02638 1.10783 0
M  V30 4880 N 464.123 0.554532 1.47522 0
M  V30 4881 C 465.086 -0.184174 2.28459 0
M  V30 4882 C 466.086 -0.845195 1.36796 0
M  V30 4883 O 467.276 -0.701467 1.59452 0
M  V30 4884 C 464.408 -1.26903 3.16399 0
M  V30 4885 H 465.601 0.526751 2.95238 0
M  V30 4886 H 463.154 0.311375 1.53167 0
M  V30 4887 H 463.889 -2.01244 2.54306 0
M  V30 4888 H 463.674 -0.799883 3.83854 0
M  V30 4889 H 465.164 -1.78794 3.77389 0
M  V30 4890 N 465.601 -1.54893 0.290851 0
M  V30 4891 C 466.531 -2.26103 -0.583084 0
M  V30 4892 C 467.512 -1.25684 -1.14619 0
M  V30 4893 O 468.697 -1.54436 -1.17741 0
M  V30 4894 C 465.827 -2.99409 -1.75987 0
M  V30 4895 C 464.781 -4.0689 -1.32758 0
M  V30 4896 C 464.107 -4.67856 -2.58872 0
M  V30 4897 C 465.407 -5.20215 -0.46624 0
M  V30 4898 H 467.101 -2.99398 0.0108214 0
M  V30 4899 H 464.647 -1.43998 0.00664468 0
M  V30 4900 H 466.6 -3.47943 -2.37727 0
M  V30 4901 H 465.324 -2.23675 -2.37985 0
M  V30 4902 H 463.983 -3.59191 -0.733299 0
M  V30 4903 H 463.631 -3.88772 -3.19163 0
M  V30 4904 H 463.331 -5.40438 -2.30653 0
M  V30 4905 H 464.855 -5.19147 -3.21433 0
M  V30 4906 H 466.269 -5.64704 -0.989047 0
M  V30 4907 H 464.666 -5.99455 -0.27826 0
M  V30 4908 H 465.736 -4.82198 0.511173 0
M  V30 4909 N 467.08 -0.0183926 -1.57589 0
M  V30 4910 C 468.326 0.657813 -1.92469 0
M  V30 4911 C 468.681 1.70349 -0.894375 0
M  V30 4912 O 467.974 1.91384 0.0910389 0
M  V30 4913 C 468.168 1.32676 -3.31861 0
M  V30 4914 C 467.997 0.347403 -4.48356 0
M  V30 4915 C 466.767 -0.0488653 -5.05276 0
M  V30 4916 C 468.965 -0.393931 -5.12789 0
M  V30 4917 N 466.947 -1.02451 -6.05291 0
M  V30 4918 C 468.318 -1.22367 -6.07804 0
M  V30 4919 C 470.373 -0.455789 -4.95809 0
M  V30 4920 C 469.076 -2.10966 -6.87667 0
M  V30 4921 C 471.102 -1.32908 -5.76272 0
M  V30 4922 C 470.464 -2.14662 -6.70894 0
M  V30 4923 H 466.563 0.21335 -0.752334 0
M  V30 4924 H 469.147 -0.0830547 -1.94523 0
M  V30 4925 H 467.318 2.03782 -3.30647 0
M  V30 4926 H 469.05 1.95913 -3.54119 0
M  V30 4927 H 465.805 0.323356 -4.72495 0
M  V30 4928 H 466.229 -1.50826 -6.59985 0
M  V30 4929 H 470.871 0.162017 -4.22489 0
M  V30 4930 H 468.589 -2.73807 -7.603 0
M  V30 4931 H 472.175 -1.38109 -5.6517 0
M  V30 4932 H 471.055 -2.81143 -7.32071 0
M  V30 4933 N 468.558 1.5553 0.254621 0
M  V30 4934 C 469.521 1.88872 1.29846 0
M  V30 4935 C 470.521 0.764591 1.41459 0
M  V30 4936 O 471.711 1.03265 1.40293 0
M  V30 4937 C 468.843 2.11032 2.67728 0
M  V30 4938 H 470.036 2.82201 1.01502 0
M  V30 4939 H 467.589 1.48303 0.493556 0
M  V30 4940 H 468.324 1.20146 3.01223 0
M  V30 4941 H 468.109 2.92895 2.60682 0
M  V30 4942 H 469.599 2.38038 3.43115 0
M  V30 4943 N 470.036 -0.519951 1.48776 0
M  V30 4944 C 470.966 -1.63253 1.66945 0
M  V30 4945 C 471.947 -1.62014 0.518224 0
M  V30 4946 O 473.132 -1.79053 0.751919 0
M  V30 4947 C 470.262 -3.0181 1.71836 0
M  V30 4948 C 469.216 -3.17911 2.8656 0
M  V30 4949 C 468.542 -4.5763 2.76548 0
M  V30 4950 C 469.842 -2.99729 4.27738 0
M  V30 4951 H 471.536 -1.48302 2.6009 0
M  V30 4952 H 469.082 -0.712026 1.25165 0
M  V30 4953 H 471.035 -3.79525 1.83135 0
M  V30 4954 H 469.759 -3.17806 0.752775 0
M  V30 4955 H 468.418 -2.42616 2.74833 0
M  V30 4956 H 468.066 -4.70476 1.77937 0
M  V30 4957 H 467.766 -4.69346 3.53536 0
M  V30 4958 H 469.29 -5.37431 2.89828 0
M  V30 4959 H 470.704 -3.67228 4.40246 0
M  V30 4960 H 469.101 -3.22932 5.05801 0
M  V30 4961 H 470.171 -1.96047 4.43502 0
M  V30 4962 N 471.514 -1.37532 -0.769588 0
M  V30 4963 C 472.446 -1.29347 -1.89214 0
M  V30 4964 C 473.459 -0.208842 -1.61455 0
M  V30 4965 O 474.648 -0.465158 -1.72333 0
M  V30 4966 C 471.748 -0.977649 -3.24492 0
M  V30 4967 C 470.921 -2.16817 -3.7988 0
M  V30 4968 C 469.98 -1.82229 -4.93639 0
M  V30 4969 O 469.006 -2.54548 -5.09111 0
M  V30 4970 N 470.208 -0.767696 -5.75401 0
M  V30 4971 H 472.973 -2.26073 -1.96751 0
M  V30 4972 H 470.534 -1.31185 -0.948795 0
M  V30 4973 H 472.526 -0.727065 -3.98115 0
M  V30 4974 H 471.096 -0.0988777 -3.12444 0
M  V30 4975 H 470.316 -2.58038 -2.9801 0
M  V30 4976 H 471.604 -2.96308 -4.13617 0
M  V30 4977 H 471.002 -0.167626 -5.65452 0
M  V30 4978 H 469.559 -0.576973 -6.49241 0
M  V30 4979 N 472.992 0.995999 -1.22138 0
M  V30 4980 C 474.24 1.73167 -1.042 0
M  V30 4981 C 474.561 1.90329 0.42423 0
M  V30 4982 O 473.831 1.4607 1.30539 0
M  V30 4983 H 472.411 0.641593 -0.38258 0
M  V30 4984 H 475.073 1.19974 -1.53598 0
M  V30 4985 H 474.169 2.72734 -1.51731 0
M  V30 4986 N 474.47 1.03057 1.19235 0
M  V30 4987 C 475.718 0.726581 1.88587 0
M  V30 4988 C 476.039 -0.747227 1.80115 0
M  V30 4989 O 475.309 -1.53849 1.21274 0
M  V30 4990 H 473.889 0.265768 0.698124 0
M  V30 4991 H 476.551 1.30516 1.44746 0
M  V30 4992 H 475.647 1.0224 2.94879 0
M  V30 4993 N 475.948 -1.35272 0.808662 0
M  V30 4994 C 477.176 -2.02946 0.402537 0
M  V30 4995 C 477.591 -1.60937 -0.987147 0
M  V30 4996 O 476.948 -0.807917 -1.63643 0
M  V30 4997 C 476.999 -3.58317 0.47868 0
M  V30 4998 O 476.72 -3.98799 1.81358 0
M  V30 4999 C 478.221 -4.43251 0.0656281 0
M  V30 5000 H 475.441 -0.650831 0.163279 0
M  V30 5001 H 477.985 -1.72849 1.09286 0
M  V30 5002 H 476.14 -3.87055 -0.163415 0
M  V30 5003 H 476.554 -4.93451 1.77781 0
M  V30 5004 H 478.028 -5.51738 0.170017 0
M  V30 5005 H 478.505 -4.27913 -0.989278 0
M  V30 5006 H 479.111 -4.19813 0.68096 0
M  V30 5007 N 477.426 -0.562348 -1.47226 0
M  V30 5008 C 478.651 -0.0432632 -2.07355 0
M  V30 5009 C 479.076 1.24332 -1.41149 0
M  V30 5010 O 478.434 1.74603 -0.488226 0
M  V30 5011 C 478.482 0.130288 -3.60365 0
M  V30 5012 O 477.586 1.19166 -3.94808 0
M  V30 5013 H 476.927 -0.0536334 -0.66183 0
M  V30 5014 H 479.457 -0.779495 -1.89169 0
M  V30 5015 H 479.467 0.342881 -4.06557 0
M  V30 5016 H 478.142 -0.809389 -4.07948 0
M  V30 5017 H 476.719 0.959153 -3.60354 0
M  V30 5018 N 478.904 1.54736 -0.299062 0
M  V30 5019 C 480.15 2.00397 0.311244 0
M  V30 5020 C 480.483 1.18716 1.53688 0
M  V30 5021 O 479.758 0.263154 1.92712 0
M  V30 5022 C 480.041 3.53817 0.669761 0
M  V30 5023 C 479.894 4.46239 -0.564882 0
M  V30 5024 C 481.213 4.13856 1.49702 0
M  V30 5025 H 478.332 0.728493 0.111653 0
M  V30 5026 H 480.974 1.85506 -0.410774 0
M  V30 5027 H 479.124 3.66637 1.28491 0
M  V30 5028 H 480.796 4.45328 -1.20337 0
M  V30 5029 H 479.039 4.16916 -1.19849 0
M  V30 5030 H 479.71 5.5134 -0.269918 0
M  V30 5031 H 482.186 4.04461 0.977284 0
M  V30 5032 H 481.062 5.21365 1.71666 0
M  V30 5033 H 481.323 3.65608 2.48563 0
M  V30 5034 N 480.382 0.0267497 1.57577 0
M  V30 5035 C 481.628 -0.653371 1.91987 0
M  V30 5036 C 481.961 -1.71915 0.903263 0
M  V30 5037 O 481.236 -1.94358 -0.0743387 0
M  V30 5038 C 481.519 -1.272 3.36886 0
M  V30 5039 C 481.372 -0.215938 4.49281 0
M  V30 5040 C 482.691 -2.19069 3.81703 0
M  V30 5041 H 479.81 -0.236047 0.698177 0
M  V30 5042 H 482.452 0.0835236 1.89816 0
M  V30 5043 H 480.602 -1.90005 3.38866 0
M  V30 5044 H 482.274 0.41449 4.59434 0
M  V30 5045 H 480.517 0.458855 4.31366 0
M  V30 5046 H 481.188 -0.688347 5.47691 0
M  V30 5047 H 483.664 -1.66253 3.81444 0
M  V30 5048 H 482.54 -2.59307 4.83788 0
M  V30 5049 H 482.801 -3.08087 3.17072 0
M  V30 5050 N 481.861 -1.55662 -0.24637 0
M  V30 5051 C 483.11 -1.7672 -0.972254 0
M  V30 5052 C 483.423 -0.59078 -1.86465 0
M  V30 5053 O 484.629 -0.684391 -2.62732 0
M  V30 5054 C 483.085 -3.12869 -1.7788 0
M  V30 5055 C 482.693 -4.38161 -0.933768 0
M  V30 5056 C 484.437 -3.43265 -2.49738 0
M  V30 5057 C 482.344 -5.6534 -1.73623 0
M  V30 5058 H 481.274 -0.658795 -0.366749 0
M  V30 5059 H 483.925 -1.82092 -0.226902 0
M  V30 5060 H 482.307 -3.01606 -2.56612 0
M  V30 5061 H 483.481 -4.60413 -0.188736 0
M  V30 5062 H 481.796 -4.15102 -0.328488 0
M  V30 5063 H 484.393 -4.35501 -3.10231 0
M  V30 5064 H 484.736 -2.64614 -3.2138 0
M  V30 5065 H 485.269 -3.55746 -1.78016 0
M  V30 5066 H 482.008 -6.46814 -1.06354 0
M  V30 5067 H 481.528 -5.47188 -2.45653 0
M  V30 5068 H 483.207 -6.04616 -2.30323 0
M  V30 5069 N 483.339 0.512053 -1.4905 0
M  V30 5070 C 484.302 1.59704 -1.64399 0
M  V30 5071 C 485.302 1.52285 -0.516317 0
M  V30 5072 O 486.492 1.55635 -0.782527 0
M  V30 5073 C 483.624 2.9935 -1.63102 0
M  V30 5074 H 484.817 1.47428 -2.61161 0
M  V30 5075 H 482.37 0.735469 -1.37915 0
M  V30 5076 H 483.105 3.17116 -0.678836 0
M  V30 5077 H 482.89 3.06144 -2.44986 0
M  V30 5078 H 484.38 3.782 -1.77072 0
M  V30 5079 N 484.817 1.37938 0.762283 0
M  V30 5080 C 485.765 1.34569 1.89721 0
M  V30 5081 C 486.759 0.232929 1.67791 0
M  V30 5082 O 487.965 0.401485 1.75465 0
M  V30 5083 H 484.34 0.419594 0.624055 0
M  V30 5084 H 486.311 2.30357 1.8968 0
M  V30 5085 C 485.06 1.17898 3.27101 0
M  V30 5086 H 484.383 2.02781 3.44558 0
M  V30 5087 H 485.823 1.19593 4.06784 0
M  V30 5088 C 484.282 -0.114728 3.36705 0
M  V30 5089 O 484.812 -1.0949 3.8649 0
M  V30 5090 N 483.018 -0.16863 2.9011 0
M  V30 5091 H 482.565 0.62967 2.49786 0
M  V30 5092 H 482.523 -1.03383 2.96916 0
M  V30 5093 N 486.295 -0.989507 1.22664 0
M  V30 5094 C 487.543 -1.72612 1.05117 0
M  V30 5095 C 487.864 -1.90552 -0.414131 0
M  V30 5096 O 487.134 -1.4676 -1.29762 0
M  V30 5097 H 485.714 -0.639555 0.385977 0
M  V30 5098 H 488.376 -1.19158 1.54232 0
M  V30 5099 H 487.472 -2.71926 1.53175 0
M  V30 5100 N 487.773 -1.03688 -1.18687 0
M  V30 5101 C 489.001 -0.757918 -1.92518 0
M  V30 5102 C 489.416 0.684398 -1.75959 0
M  V30 5103 O 488.773 1.46617 -1.08673 0
M  V30 5104 C 488.824 -1.10985 -3.44042 0
M  V30 5105 O 488.545 -2.49554 -3.60076 0
M  V30 5106 C 490.046 -0.854844 -4.3498 0
M  V30 5107 H 487.266 -0.276699 -0.611293 0
M  V30 5108 H 489.81 -1.38352 -1.50595 0
M  V30 5109 H 487.965 -0.529279 -3.83767 0
M  V30 5110 H 488.379 -2.6291 -4.53849 0
M  V30 5111 H 489.853 -1.15098 -5.39867 0
M  V30 5112 H 490.33 0.210507 -4.38695 0
M  V30 5113 H 490.936 -1.41853 -4.00946 0
M  V30 5114 N 489.251 1.34841 -0.815825 0
M  V30 5115 C 490.201 2.27075 -0.205169 0
M  V30 5116 C 491.185 1.48205 0.626414 0
M  V30 5117 O 492.377 1.70306 0.482157 0
M  V30 5118 C 489.506 3.37322 0.637871 0
M  V30 5119 C 488.592 4.23609 -0.203948 0
M  V30 5120 N 488.983 4.89558 -1.27149 0
M  V30 5121 C 487.281 4.45998 0.0128971 0
M  V30 5122 C 487.982 5.53597 -1.7862 0
M  V30 5123 N 486.958 5.32535 -1.0912 0
M  V30 5124 H 490.76 2.75563 -1.02187 0
M  V30 5125 H 488.274 1.48477 -0.657912 0
M  V30 5126 H 490.271 4.02359 1.09146 0
M  V30 5127 H 488.931 2.90385 1.45281 0
M  V30 5128 H 489.942 4.9077 -1.65423 0
M  V30 5129 H 486.619 4.09837 0.79624 0
M  V30 5130 H 488.009 6.16184 -2.67892 0
M  V30 5131 N 490.729 0.570148 1.46925 0
M  V30 5132 C 492.14 0.1402 1.86173 0
M  V30 5133 C 492.491 -1.29347 1.47526 0
M  V30 5134 O 491.616 -1.97508 0.884292 0
M  V30 5135 C 492.211 0.247661 3.37894 0
M  V30 5136 C 490.77 -0.127332 3.76185 0
M  V30 5137 C 489.917 0.589349 2.70965 0
M  V30 5138 H 492.868 0.779117 1.38259 0
M  V30 5139 H 492.889 -0.530341 3.76786 0
M  V30 5140 H 492.401 1.29121 3.65991 0
M  V30 5141 H 490.502 -1.17149 3.53704 0
M  V30 5142 H 490.615 0.240238 4.78497 0
M  V30 5143 H 488.979 0.0309824 2.54681 0
M  V30 5144 H 489.762 1.6343 3.01903 0
M  V30 5145 N 492.207 -1.54576 0.307264 0
M  V30 5146 C 493.154 -2.23751 -0.56604 0
M  V30 5147 C 494.124 -1.22235 -1.12462 0
M  V30 5148 O 495.309 -1.50873 -1.16799 0
M  V30 5149 C 492.449 -2.98661 -1.72903 0
M  V30 5150 C 491.562 -4.14963 -1.20124 0
M  V30 5151 C 490.697 -4.77441 -2.3286 0
M  V30 5152 C 489.736 -5.85875 -1.77247 0
M  V30 5153 N 488.873 -6.42282 -2.8358 0
M  V30 5154 H 493.713 -2.97984 0.0304578 0
M  V30 5155 H 491.25 -1.47076 0.0268015 0
M  V30 5156 H 493.208 -3.40329 -2.41313 0
M  V30 5157 H 491.838 -2.26793 -2.29706 0
M  V30 5158 H 490.89 -3.78193 -0.409198 0
M  V30 5159 H 492.202 -4.93066 -0.754171 0
M  V30 5160 H 491.356 -5.21993 -3.09205 0
M  V30 5161 H 490.095 -3.98684 -2.80896 0
M  V30 5162 H 489.1 -5.40741 -0.993926 0
M  V30 5163 H 490.325 -6.6652 -1.30107 0
M  V30 5164 H 488.271 -5.66406 -3.30939 0
M  V30 5165 H 488.188 -7.1575 -2.43388 0
M  V30 5166 H 489.456 -6.91492 -3.59804 0
M  V30 5167 N 493.685 -0.035106 -1.57561 0
M  V30 5168 C 494.931 0.64318 -1.92331 0
M  V30 5169 C 495.264 1.71434 -0.912368 0
M  V30 5170 O 494.539 1.94395 0.0640303 0
M  V30 5171 C 494.822 1.25411 -3.37556 0
M  V30 5172 C 494.675 0.192109 -4.4939 0
M  V30 5173 C 495.994 2.17041 -3.82859 0
M  V30 5174 H 493.113 0.232341 -0.699419 0
M  V30 5175 H 495.755 -0.0935889 -1.89769 0
M  V30 5176 H 493.905 1.88205 -3.39869 0
M  V30 5177 H 495.577 -0.438849 -4.59208 0
M  V30 5178 H 493.82 -0.481725 -4.31117 0
M  V30 5179 H 494.491 0.659292 -5.48049 0
M  V30 5180 H 496.967 1.64228 -3.8232 0
M  V30 5181 H 495.843 2.56738 -4.85157 0
M  V30 5182 H 496.104 3.06401 -3.18702 0
M  V30 5183 N 495.163 1.55791 0.238111 0
M  V30 5184 C 496.388 1.8244 0.986432 0
M  V30 5185 C 496.813 0.613314 1.7782 0
M  V30 5186 O 496.171 -0.437767 1.75935 0
M  V30 5187 C 496.219 3.06917 1.893 0
M  V30 5188 O 495.323 2.84449 2.98601 0
M  V30 5189 H 494.664 0.601975 0.280218 0
M  V30 5190 H 497.194 2.02987 0.256437 0
M  V30 5191 H 497.204 3.36583 2.30598 0
M  V30 5192 H 495.879 3.947 1.31091 0
M  V30 5193 H 494.456 2.65972 2.61368 0
M  V30 5194 N 496.642 -0.504142 1.49319 0
M  V30 5195 C 497.89 -1.25598 1.58334 0
M  V30 5196 C 498.211 -1.93114 0.270538 0
M  V30 5197 O 497.481 -1.82585 -0.709891 0
M  V30 5198 H 496.061 -0.466571 0.58337 0
M  V30 5199 H 498.723 -0.584547 1.85928 0
M  V30 5200 H 497.819 -2.02159 2.37778 0
M  V30 5201 N 498.12 -1.38341 -0.754957 0
M  V30 5202 C 499.07 -1.31964 -1.85929 0
M  V30 5203 C 500.054 -0.204181 -1.59599 0
M  V30 5204 O 501.246 -0.440036 -1.71443 0
M  V30 5205 C 498.375 -1.14565 -3.2362 0
M  V30 5206 C 497.461 -2.30727 -3.55846 0
M  V30 5207 N 497.852 -3.56165 -3.59138 0
M  V30 5208 C 496.15 -2.23249 -3.86104 0
M  V30 5209 C 496.851 -4.32865 -3.88591 0
M  V30 5210 N 495.827 -3.62203 -4.05351 0
M  V30 5211 H 499.629 -2.2694 -1.8675 0
M  V30 5212 H 497.143 -1.31553 -0.952243 0
M  V30 5213 H 499.14 -1.0808 -4.02647 0
M  V30 5214 H 497.8 -0.205212 -3.24051 0
M  V30 5215 H 498.811 -3.89854 -3.40932 0
M  V30 5216 H 495.488 -1.37357 -3.94258 0
M  V30 5217 H 496.878 -5.41504 -3.97773 0
M  V30 5218 N 499.598 0.982988 -1.23187 0
M  V30 5219 C 500.844 1.72648 -1.06398 0
M  V30 5220 C 501.177 1.90066 0.398561 0
M  V30 5221 O 500.452 1.45105 1.29518 0
M  V30 5222 C 500.735 3.12627 -1.78707 0
M  V30 5223 C 500.588 3.02795 -3.32618 0
M  V30 5224 C 501.907 4.11997 -1.54747 0
M  V30 5225 H 499.026 0.626649 -0.387918 0
M  V30 5226 H 501.668 1.14455 -1.51658 0
M  V30 5227 H 499.818 3.62308 -1.40234 0
M  V30 5228 H 501.49 2.60659 -3.80598 0
M  V30 5229 H 499.733 2.39362 -3.61785 0
M  V30 5230 H 500.404 4.01893 -3.78399 0
M  V30 5231 H 502.88 3.71114 -1.88186 0
M  V30 5232 H 501.756 5.08037 -2.07821 0
M  V30 5233 H 502.017 4.39462 -0.482249 0
M  V30 5234 N 501.076 1.04316 1.18135 0
M  V30 5235 C 502.325 0.74319 1.87509 0
M  V30 5236 C 502.638 -0.732136 1.81381 0
M  V30 5237 O 503.844 -1.14572 2.46141 0
M  V30 5238 C 502.3 1.27913 3.36402 0
M  V30 5239 C 501.908 2.78326 3.51053 0
M  V30 5240 C 503.652 1.0558 4.11161 0
M  V30 5241 C 501.559 3.25266 4.93919 0
M  V30 5242 H 500.489 0.274313 0.702331 0
M  V30 5243 H 503.14 1.25931 1.33467 0
M  V30 5244 H 501.522 0.690853 3.89927 0
M  V30 5245 H 502.696 3.42933 3.07788 0
M  V30 5246 H 501.011 2.991 2.89704 0
M  V30 5247 H 503.608 1.38161 5.16542 0
M  V30 5248 H 503.951 -0.00684729 4.16299 0
M  V30 5249 H 504.484 1.60882 3.63816 0
M  V30 5250 H 501.223 4.30922 4.9395 0
M  V30 5251 H 500.743 2.65396 5.3789 0
M  V30 5252 H 502.422 3.19433 5.62647 0
M  V30 5253 N 502.554 -1.34406 0.822964 0
M  V30 5254 C 503.782 -2.02508 0.424039 0
M  V30 5255 C 504.197 -1.61975 -0.970022 0
M  V30 5256 O 503.554 -0.825228 -1.62777 0
M  V30 5257 C 503.605 -3.57789 0.516657 0
M  V30 5258 O 503.326 -3.96853 1.85577 0
M  V30 5259 C 504.827 -4.43157 0.112637 0
M  V30 5260 H 502.047 -0.649063 0.170173 0
M  V30 5261 H 504.591 -1.7168 1.11113 0
M  V30 5262 H 502.746 -3.87207 -0.122353 0
M  V30 5263 H 503.16 -4.91538 1.83005 0
M  V30 5264 H 504.634 -5.51527 0.228526 0
M  V30 5265 H 505.111 -4.28939 -0.943837 0
M  V30 5266 H 505.717 -4.19067 0.725449 0
M  V30 5267 N 504.032 -0.577932 -1.46621 0
M  V30 5268 C 505.309 0.00495287 -1.95599 0
M  V30 5269 C 505.689 1.46428 -1.5206 0
M  V30 5270 O 505.037 2.1517 -0.769046 0
M  V30 5271 C 505.247 -0.162114 -3.48623 0
M  V30 5272 C 506.595 -0.0274623 -4.24591 0
M  V30 5273 O 507.619 -0.0907067 -3.56084 0
M  V30 5274 O 506.478 0.1122 -5.46385 0
M  V30 5275 H 503.572 0.0525057 -0.825332 0
M  V30 5276 H 506.118 -0.645914 -1.56927 0
M  V30 5277 H 504.89 -1.17679 -3.73185 0
M  V30 5278 H 504.513 0.525407 -3.94113 0
M  V30 5279 N 505.51 1.54411 -0.315457 0
M  V30 5280 C 506.759 1.99599 0.290395 0
M  V30 5281 C 507.072 1.20746 1.53882 0
M  V30 5282 O 508.278 1.56272 2.22017 0
M  V30 5283 C 506.734 3.5539 0.56797 0
M  V30 5284 C 506.342 4.43068 -0.662945 0
M  V30 5285 C 508.086 4.09067 1.13422 0
M  V30 5286 C 505.993 5.90317 -0.357722 0
M  V30 5287 H 504.923 0.745592 0.112286 0
M  V30 5288 H 507.574 1.78477 -0.426418 0
M  V30 5289 H 505.956 3.72468 1.34476 0
M  V30 5290 H 507.13 4.37765 -1.43869 0
M  V30 5291 H 505.445 4.00238 -1.14884 0
M  V30 5292 H 508.042 5.16663 1.37707 0
M  V30 5293 H 508.385 3.60552 2.08106 0
M  V30 5294 H 508.918 3.95589 0.418805 0
M  V30 5295 H 505.657 6.4301 -1.27351 0
M  V30 5296 H 505.177 5.98592 0.380472 0
M  V30 5297 H 506.856 6.4699 0.0354284 0
M  V30 5298 N 506.988 0.0434614 1.5754 0
M  V30 5299 C 508.234 -0.632971 1.92669 0
M  V30 5300 C 508.567 -1.70947 0.921446 0
M  V30 5301 O 507.842 -1.94426 -0.0537202 0
M  V30 5302 C 508.125 -1.23619 3.38216 0
M  V30 5303 C 507.978 -0.168274 4.49485 0
M  V30 5304 C 509.297 -2.15008 3.84005 0
M  V30 5305 H 506.416 -0.228629 0.700641 0
M  V30 5306 H 509.058 0.103651 1.89717 0
M  V30 5307 H 507.208 -1.864 3.40863 0
M  V30 5308 H 508.88 0.463196 4.58969 0
M  V30 5309 H 507.123 0.504581 4.30855 0
M  V30 5310 H 507.794 -0.630218 5.48391 0
M  V30 5311 H 510.27 -1.62198 3.83185 0
M  V30 5312 H 509.146 -2.54161 4.86511 0
M  V30 5313 H 509.407 -3.04707 3.20322 0
M  V30 5314 N 508.466 -1.55915 -0.229846 0
M  V30 5315 C 509.376 -1.94891 -1.30593 0
M  V30 5316 C 510.392 -0.851604 -1.51736 0
M  V30 5317 O 511.568 -1.15447 -1.65027 0
M  V30 5318 C 508.633 -2.25052 -2.63728 0
M  V30 5319 C 507.694 -3.48306 -2.5096 0
M  V30 5320 C 506.927 -3.77019 -3.77747 0
M  V30 5321 O 507.15 -3.07534 -4.80395 0
M  V30 5322 O 506.084 -4.70523 -3.75356 0
M  V30 5323 H 509.91 -2.86581 -1.00525 0
M  V30 5324 H 507.495 -1.43017 -0.432025 0
M  V30 5325 H 509.377 -2.45682 -3.42372 0
M  V30 5326 H 508.052 -1.36538 -2.93495 0
M  V30 5327 H 506.959 -3.32964 -1.70546 0
M  V30 5328 H 508.292 -4.37177 -2.26136 0
M  V30 5329 N 509.944 0.496216 -1.49584 0
M  V30 5330 C 511.192 1.24756 -1.58998 0
M  V30 5331 C 511.513 1.92968 -0.280775 0
M  V30 5332 O 510.783 1.82959 0.700198 0
M  V30 5333 H 509.363 0.463471 -0.585836 0
M  V30 5334 H 512.025 0.574678 -1.86235 0
M  V30 5335 H 511.121 2.00895 -2.38847 0
M  V30 5336 N 511.423 1.38739 0.74761 0
M  V30 5337 C 512.37 1.36449 1.86146 0
M  V30 5338 C 513.34 0.226098 1.64554 0
M  V30 5339 O 514.525 0.41926 1.86137 0
M  V30 5340 C 511.665 1.2013 3.23516 0
M  V30 5341 C 510.778 2.43407 3.56899 0
M  V30 5342 C 509.913 2.19773 4.83605 0
M  V30 5343 C 508.952 3.3879 5.09792 0
M  V30 5344 N 508.089 3.14553 6.27695 0
M  V30 5345 H 512.929 2.3167 1.87438 0
M  V30 5346 H 510.466 1.15094 0.916063 0
M  V30 5347 H 512.424 1.08683 4.02795 0
M  V30 5348 H 511.054 0.285453 3.21535 0
M  V30 5349 H 510.106 2.65504 2.72418 0
M  V30 5350 H 511.418 3.32094 3.72176 0
M  V30 5351 H 510.572 2.05496 5.70838 0
M  V30 5352 H 509.311 1.28461 4.70478 0
M  V30 5353 H 508.316 3.53579 4.21025 0
M  V30 5354 H 509.541 4.30986 5.24812 0
M  V30 5355 H 507.487 2.25893 6.1588 0
M  V30 5356 H 507.404 3.96791 6.435 0
M  V30 5357 H 508.672 3.03943 7.17801 0
M  V30 5358 N 512.901 -0.976442 1.23707 0
M  V30 5359 C 513.848 -2.06952 1.02174 0
M  V30 5360 C 514.818 -1.65984 -0.0621034 0
M  V30 5361 O 516.003 -1.90584 0.0907906 0
M  V30 5362 C 513.143 -3.39425 0.62327 0
M  V30 5363 C 512.256 -3.9364 1.77966 0
M  V30 5364 C 511.391 -5.14343 1.3276 0
M  V30 5365 C 510.43 -5.60733 2.45449 0
M  V30 5366 N 509.567 -6.72662 2.01172 0
M  V30 5367 H 514.407 -2.24704 1.95734 0
M  V30 5368 H 511.944 -1.10143 0.975034 0
M  V30 5369 H 513.902 -4.15526 0.37332 0
M  V30 5370 H 512.532 -3.21624 -0.275329 0
M  V30 5371 H 511.584 -3.14258 2.14351 0
M  V30 5372 H 512.896 -4.24035 2.62671 0
M  V30 5373 H 512.05 -5.97789 1.03601 0
M  V30 5374 H 510.789 -4.8561 0.450975 0
M  V30 5375 H 509.794 -4.75865 2.75378 0
M  V30 5376 H 511.019 -5.91483 3.33654 0
M  V30 5377 H 508.965 -6.45681 1.15895 0
M  V30 5378 H 508.882 -7.02462 2.79434 0
M  V30 5379 H 510.15 -7.59572 1.75129 0
M  V30 5380 N 514.379 -1.04941 -1.1758 0
M  V30 5381 C 515.625 -0.759112 -1.88057 0
M  V30 5382 C 515.958 0.711918 -1.8068 0
M  V30 5383 O 515.233 1.52035 -1.21308 0
M  V30 5384 C 515.516 -1.237 -3.38187 0
M  V30 5385 C 515.369 -2.77078 -3.54327 0
M  V30 5386 C 516.688 -0.834014 -4.32125 0
M  V30 5387 H 513.807 -0.277237 -0.682868 0
M  V30 5388 H 516.449 -1.30296 -1.38286 0
M  V30 5389 H 514.599 -0.774337 -3.80705 0
M  V30 5390 H 516.271 -3.31449 -3.20842 0
M  V30 5391 H 514.514 -3.16477 -2.96689 0
M  V30 5392 H 515.185 -3.05577 -4.59703 0
M  V30 5393 H 517.661 -1.23228 -3.97434 0
M  V30 5394 H 516.537 -1.19603 -5.35711 0
M  V30 5395 H 516.798 0.262195 -4.41322 0
M  V30 5396 N 515.857 1.33968 -0.830081 0
M  V30 5397 C 517.105 1.97672 -0.420734 0
M  V30 5398 C 517.426 1.66111 1.02138 0
M  V30 5399 O 516.696 0.955503 1.71017 0
M  V30 5400 H 515.276 0.73125 -0.152587 0
M  V30 5401 H 517.938 1.63483 -1.0611 0
M  V30 5402 H 517.034 3.07294 -0.545588 0
M  V30 5403 N 517.335 0.585699 1.46312 0
M  V30 5404 C 518.563 0.0781299 2.06752 0
M  V30 5405 C 518.978 -1.22812 1.43396 0
M  V30 5406 O 518.335 -1.74318 0.540314 0
M  V30 5407 C 518.386 -0.0911927 3.61385 0
M  V30 5408 O 518.107 1.16336 4.22371 0
M  V30 5409 C 519.608 -0.632765 4.38761 0
M  V30 5410 H 516.828 0.0588188 0.668417 0
M  V30 5411 H 519.372 0.807218 1.87894 0
M  V30 5412 H 517.527 -0.770514 3.7966 0
M  V30 5413 H 517.941 0.979082 5.15281 0
M  V30 5414 H 519.415 -0.70041 5.47538 0
M  V30 5415 H 519.892 -1.65039 4.07012 0
M  V30 5416 H 520.498 0.0117856 4.25298 0
M  V30 5417 N 518.813 -1.54241 0.323641 0
M  V30 5418 C 520.06 -2.0057 -0.27891 0
M  V30 5419 C 520.388 -1.21181 -1.52136 0
M  V30 5420 O 519.643 -0.282043 -1.93657 0
M  V30 5421 C 519.942 -3.5129 -0.658031 0
M  V30 5422 C 519.608 -4.48281 0.485252 0
M  V30 5423 C 518.27 -4.74519 0.799055 0
M  V30 5424 C 520.622 -5.05909 1.25322 0
M  V30 5425 C 517.95 -5.55643 1.88354 0
M  V30 5426 C 520.302 -5.88215 2.32779 0
M  V30 5427 C 518.966 -6.12755 2.64741 0
M  V30 5428 H 518.236 -0.733938 -0.10206 0
M  V30 5429 H 520.883 -1.862 0.447435 0
M  V30 5430 H 519.188 -3.63388 -1.4648 0
M  V30 5431 H 520.885 -3.84578 -1.1358 0
M  V30 5432 H 517.475 -4.27979 0.230593 0
M  V30 5433 H 521.659 -4.8562 1.02404 0
M  V30 5434 H 516.915 -5.72888 2.13564 0
M  V30 5435 H 521.089 -6.31888 2.92729 0
M  V30 5436 H 518.716 -6.75404 3.48904 0
M  V30 5437 N 520.291 -0.0518155 -1.57515 0
M  V30 5438 C 521.538 0.621823 -1.92716 0
M  V30 5439 C 521.866 1.70813 -0.930229 0
M  V30 5440 O 521.121 1.95616 0.0573708 0
M  V30 5441 C 521.42 1.25607 -3.34601 0
M  V30 5442 C 521.086 0.297901 -4.49915 0
M  V30 5443 C 519.748 0.034243 -4.81188 0
M  V30 5444 C 522.1 -0.358738 -5.19964 0
M  V30 5445 C 519.428 -0.893479 -5.79857 0
M  V30 5446 C 521.78 -1.27466 -6.19625 0
M  V30 5447 C 520.444 -1.54698 -6.49326 0
M  V30 5448 H 519.714 0.227541 -0.705199 0
M  V30 5449 H 522.361 -0.118432 -1.91133 0
M  V30 5450 H 520.666 2.07161 -3.32553 0
M  V30 5451 H 522.363 1.78424 -3.59118 0
M  V30 5452 H 518.953 0.513581 -4.25512 0
M  V30 5453 H 523.137 -0.168133 -4.96015 0
M  V30 5454 H 518.393 -1.11193 -6.01204 0
M  V30 5455 H 522.567 -1.78953 -6.73015 0
M  V30 5456 H 520.194 -2.26748 -7.25596 0
M  V30 5457 N 521.769 1.56035 0.221574 0
M  V30 5458 C 522.994 1.83476 0.967026 0
M  V30 5459 C 523.419 0.632139 1.7716 0
M  V30 5460 O 522.777 -0.419082 1.7639 0
M  V30 5461 C 522.825 3.08907 1.86034 0
M  V30 5462 O 521.929 2.876 2.95567 0
M  V30 5463 H 521.27 0.604913 0.273817 0
M  V30 5464 H 523.8 2.03247 0.234893 0
M  V30 5465 H 523.81 3.3901 2.27016 0
M  V30 5466 H 522.485 3.96068 1.26898 0
M  V30 5467 H 521.062 2.6873 2.58532 0
M  V30 5468 N 523.247 -0.488276 1.49845 0
M  V30 5469 C 524.157 -1.61451 1.70207 0
M  V30 5470 C 525.173 -1.63877 0.584846 0
M  V30 5471 O 526.349 -1.82063 0.861107 0
M  V30 5472 C 523.414 -2.9776 1.77594 0
M  V30 5473 C 522.475 -3.05861 3.01243 0
M  V30 5474 C 521.708 -4.35668 3.08268 0
M  V30 5475 O 521.931 -5.25197 2.22541 0
M  V30 5476 O 520.865 -4.49005 4.00847 0
M  V30 5477 H 524.691 -1.47199 2.65643 0
M  V30 5478 H 522.276 -0.665939 1.33737 0
M  V30 5479 H 524.158 -3.7875 1.84732 0
M  V30 5480 H 522.833 -3.12248 0.8534 0
M  V30 5481 H 521.74 -2.24012 2.99616 0
M  V30 5482 H 523.073 -2.96304 3.9302 0
M  V30 5483 N 524.725 -1.39134 -0.740242 0
M  V30 5484 C 525.971 -1.36273 -1.50192 0
M  V30 5485 C 526.304 0.0430136 -1.94152 0
M  V30 5486 O 525.579 1.00691 -1.66408 0
M  V30 5487 C 525.862 -2.33041 -2.74525 0
M  V30 5488 C 525.715 -3.82535 -2.36617 0
M  V30 5489 C 527.034 -2.27723 -3.76604 0
M  V30 5490 H 524.153 -0.496323 -0.544823 0
M  V30 5491 H 526.795 -1.70085 -0.846815 0
M  V30 5492 H 524.945 -2.04337 -3.30422 0
M  V30 5493 H 526.617 -4.21967 -1.86391 0
M  V30 5494 H 524.86 -3.99565 -1.68909 0
M  V30 5495 H 525.531 -4.45723 -3.2563 0
M  V30 5496 H 528.007 -2.53091 -3.30279 0
M  V30 5497 H 526.883 -2.97519 -4.61274 0
M  V30 5498 H 527.144 -1.28049 -4.2315 0
M  V30 5499 N 526.204 0.969867 -1.24223 0
M  V30 5500 C 527.151 2.06407 -1.0327 0
M  V30 5501 C 528.121 1.66014 0.0533 0
M  V30 5502 O 529.306 1.90533 -0.100896 0
M  V30 5503 C 526.446 3.3909 -0.641262 0
M  V30 5504 C 525.559 3.9269 -1.80051 0
M  V30 5505 C 524.694 5.13631 -1.35486 0
M  V30 5506 C 523.733 5.59423 -2.48419 0
M  V30 5507 N 522.87 6.71586 -2.04737 0
M  V30 5508 H 527.71 2.23663 -1.96923 0
M  V30 5509 H 525.247 1.09624 -0.980862 0
M  V30 5510 H 527.205 4.15323 -0.395351 0
M  V30 5511 H 525.835 3.21765 0.258269 0
M  V30 5512 H 524.887 3.13116 -2.16014 0
M  V30 5513 H 526.199 4.22636 -2.64916 0
M  V30 5514 H 525.353 5.97231 -1.0677 0
M  V30 5515 H 524.092 4.85364 -0.476722 0
M  V30 5516 H 523.097 4.74398 -2.77897 0
M  V30 5517 H 524.322 5.89705 -3.36786 0
M  V30 5518 H 522.268 6.45058 -1.19318 0
M  V30 5519 H 522.185 7.0097 -2.83156 0
M  V30 5520 H 523.453 7.58633 -1.79154 0
M  V30 5521 N 527.682 1.05563 1.17022 0
M  V30 5522 C 529.093 0.793475 1.69 0
M  V30 5523 C 529.444 -0.683882 1.83895 0
M  V30 5524 O 528.569 -1.53116 1.5292 0
M  V30 5525 C 529.164 1.43376 3.06967 0
M  V30 5526 C 527.723 1.21956 3.56095 0
M  V30 5527 C 526.87 1.51494 2.3226 0
M  V30 5528 H 529.821 1.22008 1.01487 0
M  V30 5529 H 529.842 0.845068 3.70997 0
M  V30 5530 H 529.354 2.50899 2.96093 0
M  V30 5531 H 527.455 0.163749 3.7224 0
M  V30 5532 H 527.568 1.92713 4.38633 0
M  V30 5533 H 525.932 0.935175 2.3691 0
M  V30 5534 H 526.715 2.60159 2.23992 0
M  V30 5535 N 529.16 -1.33526 0.837174 0
M  V30 5536 C 530.123 -2.27551 0.274421 0
M  V30 5537 C 531.123 -1.50886 -0.555881 0
M  V30 5538 O 532.313 -1.70227 -0.369918 0
M  V30 5539 C 529.445 -3.35332 -0.613605 0
M  V30 5540 H 530.638 -2.78837 1.10408 0
M  V30 5541 H 528.191 -1.439 0.610126 0
M  V30 5542 H 528.926 -2.89285 -1.46577 0
M  V30 5543 H 528.711 -3.92095 -0.0195341 0
M  V30 5544 H 530.201 -4.05433 -1.00068 0
M  V30 5545 N 530.638 -0.59345 -1.46 0
M  V30 5546 C 531.886 -0.082988 -2.0193 0
M  V30 5547 C 532.207 1.28569 -1.46612 0
M  V30 5548 O 531.477 1.84629 -0.654909 0
M  V30 5549 H 530.057 -0.0276882 -0.746487 0
M  V30 5550 H 532.719 -0.771657 -1.78973 0
M  V30 5551 H 531.815 -0.022079 -3.12092 0
M  V30 5552 N 532.116 1.54067 -0.331816 0
M  V30 5553 C 533.527 1.86059 0.15454 0
M  V30 5554 C 533.878 1.25331 1.50952 0
M  V30 5555 O 533.003 0.562441 2.08963 0
M  V30 5556 C 533.598 3.37581 0.287192 0
M  V30 5557 C 532.157 3.69493 0.717773 0
M  V30 5558 C 531.304 2.76863 -0.155569 0
M  V30 5559 H 534.255 1.48797 -0.55182 0
M  V30 5560 H 534.276 3.63744 1.11671 0
M  V30 5561 H 533.788 3.81751 -0.699131 0
M  V30 5562 H 531.889 3.3086 1.71354 0
M  V30 5563 H 532.002 4.76315 0.5158 0
M  V30 5564 H 530.366 2.51995 0.370213 0
M  V30 5565 H 531.149 3.23861 -1.13881 0
M  V30 5566 N 533.594 0.0601682 1.57485 0
M  V30 5567 C 534.822 -0.620937 1.97363 0
M  V30 5568 C 535.237 -1.63846 0.938082 0
M  V30 5569 O 534.594 -1.82339 -0.0766578 0
M  V30 5570 C 534.645 -1.29987 3.37321 0
M  V30 5571 O 534.366 -0.323081 4.36907 0
M  V30 5572 C 535.867 -2.06989 3.92008 0
M  V30 5573 H 533.087 -0.169135 0.649334 0
M  V30 5574 H 535.631 0.129132 2.04092 0
M  V30 5575 H 533.786 -2.0011 3.31715 0
M  V30 5576 H 534.2 -0.808754 5.18227 0
M  V30 5577 H 535.674 -2.49901 4.92192 0
M  V30 5578 H 536.151 -2.92173 3.2792 0
M  V30 5579 H 536.757 -1.41757 4.0098 0
M  V30 5580 N 535.072 -1.5615 -0.213296 0
M  V30 5581 C 536.318 -1.79812 -0.937849 0
M  V30 5582 C 536.651 -0.631201 -1.83656 0
M  V30 5583 O 535.926 0.369165 -1.90964 0
M  V30 5584 C 536.209 -3.13613 -1.76972 0
M  V30 5585 C 536.062 -4.40766 -0.89695 0
M  V30 5586 C 537.381 -3.43931 -2.7459 0
M  V30 5587 H 534.5 -0.654138 -0.339518 0
M  V30 5588 H 537.142 -1.88877 -0.20623 0
M  V30 5589 H 535.292 -3.06015 -2.39347 0
M  V30 5590 H 536.964 -4.60392 -0.289306 0
M  V30 5591 H 535.207 -4.33326 -0.202756 0
M  V30 5592 H 535.878 -5.30843 -1.51358 0
M  V30 5593 H 538.354 -3.5171 -2.22349 0
M  V30 5594 H 537.23 -4.38706 -3.29891 0
M  V30 5595 H 537.491 -2.6651 -3.52739 0
M  V30 5596 N 536.55 0.480323 -1.50102 0
M  V30 5597 C 537.46 1.60547 -1.71061 0
M  V30 5598 C 538.476 1.63564 -0.593529 0
M  V30 5599 O 539.652 1.81604 -0.870751 0
M  V30 5600 C 536.717 2.96814 -1.79171 0
M  V30 5601 C 535.778 3.04259 -3.02861 0
M  V30 5602 C 535.011 4.34027 -3.10574 0
M  V30 5603 O 535.234 5.24009 -2.25323 0
M  V30 5604 O 534.168 4.46873 -4.03223 0
M  V30 5605 H 537.994 1.45788 -2.6642 0
M  V30 5606 H 535.579 0.658838 -1.34088 0
M  V30 5607 H 537.461 3.77765 -1.86738 0
M  V30 5608 H 536.136 3.11791 -0.869947 0
M  V30 5609 H 535.043 2.22419 -3.008 0
M  V30 5610 H 536.376 2.94216 -3.94586 0
M  V30 5611 N 538.028 1.39524 0.732853 0
M  V30 5612 C 538.96 1.34318 1.85718 0
M  V30 5613 C 539.973 0.251576 1.60844 0
M  V30 5614 O 541.162 0.510685 1.71039 0
M  V30 5615 C 538.262 1.06334 3.21786 0
M  V30 5616 C 537.435 2.26813 3.73998 0
M  V30 5617 C 536.494 1.95253 4.88634 0
M  V30 5618 O 535.52 2.67957 5.02183 0
M  V30 5619 N 536.722 0.919984 5.73164 0
M  V30 5620 H 539.487 2.3121 1.90688 0
M  V30 5621 H 537.048 1.33654 0.91368 0
M  V30 5622 H 539.04 0.832363 3.96048 0
M  V30 5623 H 537.61 0.181682 3.12072 0
M  V30 5624 H 536.83 2.65849 2.91064 0
M  V30 5625 H 538.118 3.0717 4.05616 0
M  V30 5626 H 537.516 0.317487 5.64808 0
M  V30 5627 H 536.073 0.748905 6.47483 0
M  V30 5628 N 539.506 -0.963266 1.24736 0
M  V30 5629 C 540.438 -2.06162 1.0015 0
M  V30 5630 C 541.451 -1.62771 -0.0305905 0
M  V30 5631 O 542.64 -1.77296 0.206966 0
M  V30 5632 C 539.74 -3.35333 0.490385 0
M  V30 5633 C 538.913 -4.07609 1.58663 0
M  V30 5634 C 537.972 -5.15052 1.0774 0
M  V30 5635 O 536.998 -5.4098 1.77002 0
M  V30 5636 N 538.2 -5.80436 -0.0858605 0
M  V30 5637 H 540.965 -2.27825 1.94719 0
M  V30 5638 H 538.526 -1.13121 1.15825 0
M  V30 5639 H 540.518 -4.04477 0.134371 0
M  V30 5640 H 539.088 -3.10507 -0.361155 0
M  V30 5641 H 538.308 -3.32681 2.11463 0
M  V30 5642 H 539.596 -4.52656 2.32336 0
M  V30 5643 H 538.994 -5.6178 -0.664806 0
M  V30 5644 H 537.551 -6.50674 -0.382981 0
M  V30 5645 N 540.985 -1.06182 -1.16461 0
M  V30 5646 C 542.233 -0.776326 -1.86595 0
M  V30 5647 C 542.554 0.69921 -1.82033 0
M  V30 5648 O 541.824 1.50579 -1.2531 0
M  V30 5649 H 540.404 -0.284184 -0.690832 0
M  V30 5650 H 543.066 -1.34308 -1.41235 0
M  V30 5651 H 542.162 -1.10022 -2.92064 0
M  V30 5652 N 542.463 1.3308 -0.844243 0
M  V30 5653 C 543.373 2.32876 -0.283922 0
M  V30 5654 C 544.389 1.63589 0.592846 0
M  V30 5655 O 545.565 1.95205 0.495693 0
M  V30 5656 C 542.63 3.42667 0.527283 0
M  V30 5657 C 541.691 4.27664 -0.374394 0
M  V30 5658 C 540.924 5.32212 0.39819 0
M  V30 5659 O 541.147 5.46635 1.62932 0
M  V30 5660 O 540.081 6.01458 -0.2306 0
M  V30 5661 H 543.907 2.82671 -1.11045 0
M  V30 5662 H 541.492 1.36518 -0.606903 0
M  V30 5663 H 543.374 4.09652 0.988078 0
M  V30 5664 H 542.049 2.95079 1.33078 0
M  V30 5665 H 540.956 3.63526 -0.883144 0
M  V30 5666 H 542.289 4.78749 -1.1428 0
M  V30 5667 N 543.941 0.601185 1.45683 0
M  V30 5668 C 544.874 -0.17013 2.27565 0
M  V30 5669 C 545.852 -0.879661 1.36751 0
M  V30 5670 O 547.036 -0.889827 1.66176 0
M  V30 5671 C 544.163 -1.24568 3.14961 0
M  V30 5672 C 543.209 -0.639978 4.21671 0
M  V30 5673 S 544.042 0.547275 5.32696 0
M  V30 5674 C 545.198 -0.529019 6.2366 0
M  V30 5675 H 545.431 0.524583 2.92635 0
M  V30 5676 H 542.964 0.388537 1.49431 0
M  V30 5677 H 544.922 -1.86138 3.65873 0
M  V30 5678 H 543.583 -1.91243 2.49169 0
M  V30 5679 H 542.776 -1.44903 4.8272 0
M  V30 5680 H 542.378 -0.0995558 3.73867 0
M  V30 5681 H 544.67 -1.40981 6.62669 0
M  V30 5682 H 545.613 0.0451599 7.08086 0
M  V30 5683 H 546.021 -0.84147 5.58193 0
M  V30 5684 N 545.419 -1.53889 0.339982 0
M  V30 5685 C 546.382 -2.23547 -0.50592 0
M  V30 5686 C 547.382 -1.23445 -1.03044 0
M  V30 5687 O 548.572 -1.47909 -0.920253 0
M  V30 5688 C 545.704 -2.95234 -1.7044 0
M  V30 5689 H 546.897 -2.99722 0.103247 0
M  V30 5690 H 544.45 -1.56033 0.0912804 0
M  V30 5691 H 545.185 -2.23236 -2.35236 0
M  V30 5692 H 544.97 -3.68654 -1.33553 0
M  V30 5693 H 546.46 -3.48258 -2.30447 0
M  V30 5694 N 546.897 -0.0685191 -1.57451 0
M  V30 5695 C 548.313 0.288101 -1.56978 0
M  V30 5696 C 548.513 1.70262 -1.07765 0
M  V30 5697 O 547.569 2.4135 -0.742054 0
M  V30 5698 C 548.882 0.100745 -3.00531 0
M  V30 5699 C 550.43 0.170531 -3.12535 0
M  V30 5700 C 550.905 0.0114944 -4.57999 0
M  V30 5701 N 552.396 0.0672065 -4.63151 0
M  V30 5702 C 553.131 -0.0314813 -5.73391 0
M  V30 5703 N 552.627 -0.183503 -6.92557 0
M  V30 5704 N 554.42 0.0253489 -5.62094 0
M  V30 5705 H 546.571 -0.993026 -1.87757 0
M  V30 5706 H 548.834 -0.386981 -0.865419 0
M  V30 5707 H 548.54 -0.875197 -3.40636 0
M  V30 5708 H 548.414 0.854457 -3.67395 0
M  V30 5709 H 550.801 1.13696 -2.72318 0
M  V30 5710 H 550.882 -0.614229 -2.48316 0
M  V30 5711 H 550.526 -0.951684 -4.98904 0
M  V30 5712 H 550.456 0.815617 -5.20245 0
M  V30 5713 H 552.947 0.183246 -3.77455 0
M  V30 5714 H 553.26 -0.251041 -7.72392 0
M  V30 5715 H 551.605 -0.218822 -6.94655 0
M  V30 5716 H 554.796 0.142794 -4.67882 0
M  V30 5717 H 554.969 -0.0550166 -6.47977 0
M  V30 5718 N 548.375 1.56261 0.205012 0
M  V30 5719 C 549.6 1.84491 0.947512 0
M  V30 5720 C 550.025 0.650894 1.76479 0
M  V30 5721 O 549.383 -0.40035 1.76824 0
M  V30 5722 C 549.431 3.10863 1.82747 0
M  V30 5723 O 548.535 2.90719 2.925 0
M  V30 5724 H 547.876 0.607783 0.267386 0
M  V30 5725 H 550.406 2.03485 0.213323 0
M  V30 5726 H 550.416 3.41399 2.23407 0
M  V30 5727 H 549.091 3.97392 1.2269 0
M  V30 5728 H 547.668 2.71457 2.55667 0
M  V30 5729 N 549.853 -0.472356 1.50355 0
M  V30 5730 C 551.101 -1.22211 1.60962 0
M  V30 5731 C 551.422 -1.92497 0.311439 0
M  V30 5732 O 550.692 -1.8405 -0.671002 0
M  V30 5733 H 549.272 -0.454092 0.593135 0
M  V30 5734 H 551.934 -0.544977 1.87126 0
M  V30 5735 H 551.03 -1.9707 2.42012 0
M  V30 5736 N 551.331 -1.39911 -0.725443 0
M  V30 5737 C 552.579 -1.37382 -1.48224 0
M  V30 5738 C 552.9 0.0264107 -1.94982 0
M  V30 5739 O 552.17 0.979408 -1.6966 0
M  V30 5740 H 550.75 -0.505596 -0.549892 0
M  V30 5741 H 553.412 -1.7487 -0.860608 0
M  V30 5742 H 552.508 -2.04254 -2.3598 0
M  V30 5743 N 552.809 0.956637 -1.25245 0
M  V30 5744 C 554.225 1.22733 -1.02023 0
M  V30 5745 C 554.425 1.99761 0.264186 0
M  V30 5746 O 553.481 2.32814 0.977436 0
M  V30 5747 C 554.794 2.00367 -2.24217 0
M  V30 5748 C 556.342 2.13418 -2.28958 0
M  V30 5749 C 556.817 2.9445 -3.50803 0
M  V30 5750 N 558.308 3.02029 -3.51187 0
M  V30 5751 C 559.043 3.65116 -4.42129 0
M  V30 5752 N 558.539 4.2983 -5.43339 0
M  V30 5753 N 560.332 3.62237 -4.29815 0
M  V30 5754 H 552.483 0.441282 -2.07765 0
M  V30 5755 H 554.746 0.257686 -0.912306 0
M  V30 5756 H 554.452 1.51165 -3.17556 0
M  V30 5757 H 554.326 3.01077 -2.27228 0
M  V30 5758 H 556.713 2.61819 -1.36143 0
M  V30 5759 H 556.794 1.1202 -2.29968 0
M  V30 5760 H 556.438 2.46741 -4.43939 0
M  V30 5761 H 556.368 3.9607 -3.47039 0
M  V30 5762 H 558.859 2.56007 -2.77973 0
M  V30 5763 H 559.172 4.75819 -6.08947 0
M  V30 5764 H 557.517 4.28465 -5.47214 0
M  V30 5765 H 560.708 3.10863 -3.49974 0
M  V30 5766 H 560.881 4.11117 -5.00886 0
M  V30 5767 N 554.287 1.06798 1.15896 0
M  V30 5768 C 555.22 0.627503 2.19403 0
M  V30 5769 C 556.198 -0.352352 1.58736 0
M  V30 5770 O 557.382 -0.260111 1.86697 0
M  V30 5771 C 554.509 -0.079356 3.38607 0
M  V30 5772 C 553.555 0.858057 4.17779 0
M  V30 5773 S 554.388 2.35605 4.80885 0
M  V30 5774 C 555.544 1.66083 6.03463 0
M  V30 5775 H 555.777 1.50441 2.56427 0
M  V30 5776 H 553.31 0.881427 1.26768 0
M  V30 5777 H 555.268 -0.48095 4.07673 0
M  V30 5778 H 553.929 -0.932524 2.99938 0
M  V30 5779 H 553.122 0.310108 5.03045 0
M  V30 5780 H 552.724 1.19977 3.54234 0
M  V30 5781 H 555.016 0.969337 6.7053 0
M  V30 5782 H 555.959 2.49159 6.62816 0
M  V30 5783 H 556.367 1.14122 5.52844 0
M  V30 5784 N 555.766 -1.3263 0.851289 0
M  V30 5785 C 556.696 -2.31449 0.308771 0
M  V30 5786 C 557.677 -1.59531 -0.590255 0
M  V30 5787 O 558.862 -1.87351 -0.511205 0
M  V30 5788 C 555.992 -3.43586 -0.506548 0
M  V30 5789 C 554.946 -4.26963 0.297753 0
M  V30 5790 C 554.272 -5.30831 -0.642094 0
M  V30 5791 C 555.572 -4.99643 1.52166 0
M  V30 5792 H 557.266 -2.77074 1.13447 0
M  V30 5793 H 554.812 -1.33207 0.546971 0
M  V30 5794 H 556.765 -4.11754 -0.896474 0
M  V30 5795 H 555.489 -2.96681 -1.36558 0
M  V30 5796 H 554.148 -3.60437 0.669391 0
M  V30 5797 H 553.796 -4.8018 -1.49788 0
M  V30 5798 H 553.496 -5.87501 -0.107968 0
M  V30 5799 H 555.02 -6.01862 -1.02927 0
M  V30 5800 H 556.434 -5.6051 1.20421 0
M  V30 5801 H 554.831 -5.66022 1.99347 0
M  V30 5802 H 555.901 -4.27701 2.28474 0
M  V30 5803 N 557.244 -0.608902 -1.45362 0
M  V30 5804 C 558.207 0.0992563 -2.28985 0
M  V30 5805 C 559.207 0.793841 -1.39838 0
M  V30 5806 O 560.397 0.641804 -1.61946 0
M  V30 5807 C 557.529 1.15073 -3.20891 0
M  V30 5808 H 558.722 -0.635964 -2.93079 0
M  V30 5809 H 556.275 -0.368007 -1.51906 0
M  V30 5810 H 557.01 1.91667 -2.616 0
M  V30 5811 H 556.795 0.656867 -3.86559 0
M  V30 5812 H 558.285 1.64665 -3.83765 0
M  V30 5813 N 558.722 1.53707 -0.348139 0
M  V30 5814 C 559.95 2.05406 0.248224 0
M  V30 5815 C 560.365 1.22282 1.43849 0
M  V30 5816 O 559.722 0.259244 1.80649 0
M  V30 5817 C 559.773 3.55446 0.658793 0
M  V30 5818 O 559.494 4.35417 -0.484149 0
M  V30 5819 C 560.995 4.23335 1.31539 0
M  V30 5820 H 558.215 0.669344 0.0471075 0
M  V30 5821 H 560.759 1.98257 -0.501456 0
M  V30 5822 H 558.914 3.62803 1.35841 0
M  V30 5823 H 559.328 5.24268 -0.155949 0
M  V30 5824 H 560.802 5.29692 1.55338 0
M  V30 5825 H 561.279 3.75967 2.27036 0
M  V30 5826 H 561.885 4.20184 0.657683 0
M  V30 5827 N 560.2 0.0768682 1.57412 0
M  V30 5828 C 561.13 -0.886026 2.16037 0
M  V30 5829 C 562.111 -1.30691 1.08876 0
M  V30 5830 O 563.296 -1.37705 1.36934 0
M  V30 5831 C 560.426 -2.1518 2.72608 0
M  V30 5832 C 559.38 -1.87015 3.8498 0
M  V30 5833 C 558.706 -3.20266 4.28175 0
M  V30 5834 C 560.006 -1.17143 5.08994 0
M  V30 5835 H 561.7 -0.397642 2.96748 0
M  V30 5836 H 559.246 -0.189823 1.42743 0
M  V30 5837 H 561.199 -2.82962 3.12266 0
M  V30 5838 H 559.923 -2.66269 1.89125 0
M  V30 5839 H 558.582 -1.21636 3.45833 0
M  V30 5840 H 558.23 -3.69207 3.41607 0
M  V30 5841 H 557.93 -3.0221 5.03927 0
M  V30 5842 H 559.454 -3.89237 4.70454 0
M  V30 5843 H 560.868 -1.75003 5.45937 0
M  V30 5844 H 559.265 -1.09328 5.90057 0
M  V30 5845 H 560.335 -0.151295 4.84664 0
M  V30 5846 N 561.678 -1.56367 -0.196722 0
M  V30 5847 C 562.588 -1.97617 -1.2643 0
M  V30 5848 C 563.604 -0.883598 -1.49895 0
M  V30 5849 O 564.78 -1.18921 -1.62541 0
M  V30 5850 C 561.845 -2.30595 -2.58895 0
M  V30 5851 C 560.906 -3.53551 -2.43516 0
M  V30 5852 C 560.139 -3.84946 -3.69665 0
M  V30 5853 O 560.362 -3.17655 -4.73763 0
M  V30 5854 O 559.296 -4.78379 -3.65291 0
M  V30 5855 H 563.122 -2.88648 -0.944233 0
M  V30 5856 H 560.707 -1.43901 -0.401592 0
M  V30 5857 H 562.589 -2.52889 -3.37083 0
M  V30 5858 H 561.264 -1.42732 -2.90533 0
M  V30 5859 H 560.171 -3.36507 -1.63445 0
M  V30 5860 H 561.504 -4.41875 -2.16812 0
M  V30 5861 N 563.156 0.464375 -1.50603 0
M  V30 5862 C 564.567 1.04507 -1.5471 0
M  V30 5863 C 564.918 1.9297 -0.354542 0
M  V30 5864 O 564.043 2.09763 0.531812 0
M  V30 5865 C 564.638 1.90207 -2.80369 0
M  V30 5866 C 563.197 2.43373 -2.87135 0
M  V30 5867 C 562.344 1.21886 -2.49076 0
M  V30 5868 H 565.295 0.246716 -1.56771 0
M  V30 5869 H 565.316 2.75353 -2.62604 0
M  V30 5870 H 564.828 1.25796 -3.67147 0
M  V30 5871 H 562.929 3.11318 -2.04724 0
M  V30 5872 H 563.042 2.7802 -3.90181 0
M  V30 5873 H 561.406 1.55575 -2.01664 0
M  V30 5874 H 562.189 0.591268 -3.3817 0
M  V30 5875 N 564.634 1.40294 0.718013 0
M  V30 5876 C 565.544 1.42678 1.86226 0
M  V30 5877 C 566.56 0.319655 1.71039 0
M  V30 5878 O 567.736 0.563852 1.93346 0
M  V30 5879 C 564.801 1.2852 3.21999 0
M  V30 5880 C 563.862 2.49354 3.49458 0
M  V30 5881 C 563.095 2.35863 4.78753 0
M  V30 5882 O 563.318 1.37114 5.53675 0
M  V30 5883 O 562.252 3.25189 5.06494 0
M  V30 5884 H 566.078 2.39167 1.87171 0
M  V30 5885 H 563.663 1.2159 0.868112 0
M  V30 5886 H 565.545 1.22824 4.03103 0
M  V30 5887 H 564.22 0.351359 3.21787 0
M  V30 5888 H 563.127 2.60628 2.68373 0
M  V30 5889 H 564.46 3.41491 3.54464 0
M  V30 5890 N 566.112 -0.949982 1.2575 0
M  V30 5891 C 567.044 -2.05088 1.02331 0
M  V30 5892 C 568.057 -1.62795 -0.0133247 0
M  V30 5893 O 569.246 -1.77067 0.225759 0
M  V30 5894 C 566.346 -3.34794 0.525924 0
M  V30 5895 C 565.519 -4.05903 1.62978 0
M  V30 5896 C 564.578 -5.1388 1.13196 0
M  V30 5897 O 563.604 -5.39072 1.82729 0
M  V30 5898 N 564.806 -5.80495 -0.0242926 0
M  V30 5899 H 567.571 -2.25747 1.97125 0
M  V30 5900 H 565.132 -1.11886 1.17018 0
M  V30 5901 H 567.124 -4.04312 0.177263 0
M  V30 5902 H 565.694 -3.10872 -0.328202 0
M  V30 5903 H 564.914 -3.3042 2.1498 0
M  V30 5904 H 566.202 -4.50166 2.37124 0
M  V30 5905 H 565.6 -5.62454 -0.605184 0
M  V30 5906 H 564.157 -6.51043 -0.313947 0
M  V30 5907 N 567.59 -1.07411 -1.15328 0
M  V30 5908 C 569.006 -0.799759 -1.38116 0
M  V30 5909 C 569.206 0.59572 -1.92493 0
M  V30 5910 O 568.262 1.35433 -2.13106 0
M  V30 5911 C 569.575 -1.87407 -2.35158 0
M  V30 5912 C 571.123 -1.89889 -2.48819 0
M  V30 5913 C 571.598 -2.96406 -3.49153 0
M  V30 5914 N 573.089 -2.95512 -3.56689 0
M  V30 5915 C 573.824 -3.74575 -4.34144 0
M  V30 5916 N 573.32 -4.63488 -5.14928 0
M  V30 5917 N 575.113 -3.62919 -4.29239 0
M  V30 5918 H 567.264 -1.97411 -0.78374 0
M  V30 5919 H 569.527 -0.856113 -0.407154 0
M  V30 5920 H 569.233 -2.8768 -2.0232 0
M  V30 5921 H 569.107 -1.73471 -3.34944 0
M  V30 5922 H 571.494 -0.902677 -2.80955 0
M  V30 5923 H 571.575 -2.07904 -1.49029 0
M  V30 5924 H 571.219 -3.96227 -3.17752 0
M  V30 5925 H 571.149 -2.75638 -4.48699 0
M  V30 5926 H 573.64 -2.31061 -2.99031 0
M  V30 5927 H 573.953 -5.20445 -5.71276 0
M  V30 5928 H 572.298 -4.67537 -5.14232 0
M  V30 5929 H 575.489 -2.92833 -3.65194 0
M  V30 5930 H 575.662 -4.24777 -4.89355 0
M  V30 5931 N 569.068 1.32177 -0.85831 0
M  V30 5932 C 570.031 2.27086 -0.310588 0
M  V30 5933 C 571.031 1.51751 0.531806 0
M  V30 5934 O 572.221 1.70794 0.34279 0
M  V30 5935 C 569.353 3.36266 0.560179 0
M  V30 5936 H 570.546 2.77045 -1.1483 0
M  V30 5937 H 568.099 1.42911 -0.632942 0
M  V30 5938 H 568.834 2.9158 1.41956 0
M  V30 5939 H 568.619 3.92077 -0.0428473 0
M  V30 5940 H 570.109 4.06974 0.936056 0
M  V30 5941 N 570.547 0.616602 1.45037 0
M  V30 5942 C 571.457 -0.0985401 2.34393 0
M  V30 5943 C 572.473 -0.850971 1.51771 0
M  V30 5944 O 573.649 -0.806521 1.84546 0
M  V30 5945 C 570.714 -1.07748 3.29532 0
M  V30 5946 C 569.775 -0.326022 4.2806 0
M  V30 5947 C 569.008 -1.25833 5.18654 0
M  V30 5948 O 569.231 -2.49652 5.12864 0
M  V30 5949 O 568.165 -0.750512 5.97203 0
M  V30 5950 H 571.991 0.636016 2.96966 0
M  V30 5951 H 569.576 0.376832 1.44569 0
M  V30 5952 H 571.458 -1.64107 3.88133 0
M  V30 5953 H 570.133 -1.79291 2.69512 0
M  V30 5954 H 569.04 0.280253 3.73049 0
M  V30 5955 H 570.373 0.349091 4.9096 0
M  V30 5956 N 572.025 -1.5352 0.356285 0
M  V30 5957 C 573.274 -2.00298 -0.237373 0
M  V30 5958 C 573.587 -1.24784 -1.50627 0
M  V30 5959 O 574.793 -1.62103 -2.17795 0
M  V30 5960 C 573.249 -3.56771 -0.473545 0
M  V30 5961 C 572.857 -4.41154 0.780183 0
M  V30 5962 C 574.601 -4.1193 -1.02537 0
M  V30 5963 C 572.508 -5.89161 0.514108 0
M  V30 5964 H 571.438 -0.748307 -0.092478 0
M  V30 5965 H 574.089 -1.77283 0.473588 0
M  V30 5966 H 572.471 -3.75902 -1.24553 0
M  V30 5967 H 573.645 -4.33797 1.55425 0
M  V30 5968 H 571.96 -3.97052 1.25455 0
M  V30 5969 H 574.557 -5.20133 -1.2396 0
M  V30 5970 H 574.9 -3.65943 -1.98473 0
M  V30 5971 H 575.433 -3.96561 -0.313775 0
M  V30 5972 H 572.172 -6.39408 1.44355 0
M  V30 5973 H 571.692 -5.9939 -0.221632 0
M  V30 5974 H 573.371 -6.46857 0.136122 0
M  V30 5975 N 573.503 -0.0852151 -1.57369 0
M  V30 5976 C 574.752 0.580443 -1.93168 0
M  V30 5977 C 575.065 1.6995 -0.968319 0
M  V30 5978 O 576.271 2.42564 -1.21963 0
M  V30 5979 C 574.727 1.08386 -3.43192 0
M  V30 5980 C 574.335 -0.00491388 -4.48 0
M  V30 5981 C 576.079 1.72281 -3.87968 0
M  V30 5982 C 573.986 0.513299 -5.89168 0
M  V30 5983 H 572.916 0.22059 -0.72101 0
M  V30 5984 H 575.567 -0.159621 -1.82804 0
M  V30 5985 H 573.949 1.8773 -3.48674 0
M  V30 5986 H 575.123 -0.780032 -4.5415 0
M  V30 5987 H 573.438 -0.548453 -4.12772 0
M  V30 5988 H 576.035 2.12108 -4.9083 0
M  V30 5989 H 576.378 2.58811 -3.26071 0
M  V30 5990 H 576.911 0.995359 -3.85146 0
M  V30 5991 H 573.65 -0.315153 -6.54742 0
M  V30 5992 H 573.17 1.25564 -5.8651 0
M  V30 5993 H 574.849 0.985433 -6.39451 0
M  V30 5994 N 574.981 1.5647 0.188427 0
M  V30 5995 C 575.931 1.91479 1.23774 0
M  V30 5996 C 576.915 0.78119 1.40664 0
M  V30 5997 O 578.107 1.04414 1.42922 0
M  V30 5998 C 575.236 2.26354 2.58106 0
M  V30 5999 C 574.322 3.46186 2.44981 0
M  V30 6000 N 574.713 4.63911 2.01546 0
M  V30 6001 C 573.011 3.50456 2.75856 0
M  V30 6002 C 573.712 5.46064 2.00472 0
M  V30 6003 N 572.688 4.86648 2.42229 0
M  V30 6004 H 576.49 2.79994 0.893339 0
M  V30 6005 H 574.004 1.57477 0.39682 0
M  V30 6006 H 576.001 2.49622 3.33908 0
M  V30 6007 H 574.661 1.39168 2.93364 0
M  V30 6008 H 575.672 4.88451 1.7215 0
M  V30 6009 H 572.349 2.73704 3.15265 0
M  V30 6010 H 573.739 6.50368 1.68734 0
M  V30 6011 N 576.459 -0.456382 1.50847 0
M  V30 6012 C 577.409 -1.55045 1.67168 0
M  V30 6013 C 578.393 -1.52061 0.525958 0
M  V30 6014 O 579.585 -1.58836 0.781036 0
M  V30 6015 C 576.714 -2.93386 1.78268 0
M  V30 6016 C 575.8 -3.01198 2.98564 0
M  V30 6017 N 576.191 -2.78792 4.22029 0
M  V30 6018 C 574.489 -3.32346 2.97426 0
M  V30 6019 C 575.19 -2.91953 5.03128 0
M  V30 6020 N 574.166 -3.22797 4.37382 0
M  V30 6021 H 577.968 -1.36444 2.60308 0
M  V30 6022 H 575.482 -0.663375 1.48233 0
M  V30 6023 H 577.479 -3.72071 1.88067 0
M  V30 6024 H 576.139 -3.13022 0.862965 0
M  V30 6025 H 577.15 -2.54087 4.51287 0
M  V30 6026 H 573.827 -3.57877 2.15012 0
M  V30 6027 H 575.217 -2.78745 6.11351 0
M  V30 6028 N 577.937 -1.40673 -0.710563 0
M  V30 6029 C 578.867 -1.44095 -1.83736 0
M  V30 6030 C 579.848 -0.301286 -1.67411 0
M  V30 6031 O 581.033 -0.510618 -1.87367 0
M  V30 6032 C 578.163 -1.30773 -3.21738 0
M  V30 6033 C 577.117 -2.42395 -3.52745 0
M  V30 6034 C 576.443 -2.14147 -4.89944 0
M  V30 6035 C 577.743 -3.84738 -3.53234 0
M  V30 6036 H 579.437 -2.38396 -1.81129 0
M  V30 6037 H 576.983 -1.14746 -0.870017 0
M  V30 6038 H 578.936 -1.31783 -4.00264 0
M  V30 6039 H 577.66 -0.329507 -3.24934 0
M  V30 6040 H 576.319 -2.40643 -2.76562 0
M  V30 6041 H 575.967 -1.14703 -4.89747 0
M  V30 6042 H 575.667 -2.88934 -5.11655 0
M  V30 6043 H 577.191 -2.16848 -5.70797 0
M  V30 6044 H 578.605 -3.88286 -4.2179 0
M  V30 6045 H 577.002 -4.59085 -3.86473 0
M  V30 6046 H 578.072 -4.13962 -2.52514 0
M  V30 6047 N 579.415 0.9433 -1.26252 0
M  V30 6048 C 580.378 2.02326 -1.07689 0
M  V30 6049 C 581.378 1.60779 -0.0259174 0
M  V30 6050 O 582.568 1.72108 -0.269134 0
M  V30 6051 C 579.7 3.34886 -0.63752 0
M  V30 6052 H 580.893 2.20225 -2.0357 0
M  V30 6053 H 578.446 1.12197 -1.08819 0
M  V30 6054 H 579.181 3.22684 0.323377 0
M  V30 6055 H 578.966 3.66393 -1.39637 0
M  V30 6056 H 580.456 4.14231 -0.529418 0
M  V30 6057 N 580.893 1.08022 1.14757 0
M  V30 6058 C 582.17 0.720386 1.81851 0
M  V30 6059 C 582.55 -0.796375 1.95502 0
M  V30 6060 O 581.898 -1.71339 1.51179 0
M  V30 6061 C 582.108 1.44273 3.17783 0
M  V30 6062 C 583.456 1.59925 3.93331 0
M  V30 6063 O 584.48 1.40407 3.2736 0
M  V30 6064 O 583.339 1.92096 5.11626 0
M  V30 6065 H 580.433 0.257142 0.786007 0
M  V30 6066 H 582.979 1.18155 1.21809 0
M  V30 6067 H 581.751 2.47618 3.02987 0
M  V30 6068 H 581.374 0.97279 3.85516 0
M  V30 6069 N 582.371 -1.3172 0.865308 0
M  V30 6070 C 583.301 -2.31109 0.333302 0
M  V30 6071 C 584.282 -1.60148 -0.573301 0
M  V30 6072 O 585.467 -1.87882 -0.491305 0
M  V30 6073 C 582.597 -3.44104 -0.470078 0
M  V30 6074 C 581.551 -4.26623 0.343021 0
M  V30 6075 C 580.877 -5.31482 -0.585756 0
M  V30 6076 C 582.177 -4.98001 1.57456 0
M  V30 6077 H 583.871 -2.75855 1.1638 0
M  V30 6078 H 581.417 -1.3262 0.561069 0
M  V30 6079 H 583.37 -4.12682 -0.852752 0
M  V30 6080 H 582.094 -2.98112 -1.33404 0
M  V30 6081 H 580.753 -3.59707 0.707583 0
M  V30 6082 H 580.401 -4.81741 -1.44686 0
M  V30 6083 H 580.101 -5.87582 -0.0456494 0
M  V30 6084 H 581.625 -6.0292 -0.965375 0
M  V30 6085 H 583.039 -5.59201 1.26359 0
M  V30 6086 H 581.436 -5.63876 2.05339 0
M  V30 6087 H 582.506 -4.25253 2.32997 0
M  V30 6088 N 583.85 -0.624285 -1.44708 0
M  V30 6089 C 584.779 0.0717025 -2.3339 0
M  V30 6090 C 585.76 0.841814 -1.47809 0
M  V30 6091 O 586.946 0.809056 -1.76544 0
M  V30 6092 C 584.076 1.05852 -3.30776 0
M  V30 6093 C 583.029 0.400503 -4.26122 0
M  V30 6094 C 582.356 1.49674 -5.13324 0
M  V30 6095 C 583.656 -0.688924 -5.17737 0
M  V30 6096 H 585.35 -0.668819 -2.91834 0
M  V30 6097 H 582.896 -0.32308 -1.40329 0
M  V30 6098 H 584.849 1.5541 -3.91696 0
M  V30 6099 H 583.572 1.82984 -2.70526 0
M  V30 6100 H 582.231 -0.0743687 -3.66525 0
M  V30 6101 H 581.88 2.25877 -4.49431 0
M  V30 6102 H 581.58 1.06188 -5.77926 0
M  V30 6103 H 583.104 1.99427 -5.77115 0
M  V30 6104 H 584.518 -0.276724 -5.72632 0
M  V30 6105 H 582.915 -1.04652 -5.90904 0
M  V30 6106 H 583.985 -1.55884 -4.5916 0
M  V30 6107 N 585.328 1.53329 -0.364422 0
M  V30 6108 C 586.556 2.05657 0.226424 0
M  V30 6109 C 586.971 1.23801 1.42544 0
M  V30 6110 O 586.328 0.27839 1.80364 0
M  V30 6111 C 586.379 3.56125 0.621056 0
M  V30 6112 O 586.1 4.34879 -0.530304 0
M  V30 6113 C 587.601 4.24706 1.27041 0
M  V30 6114 H 584.821 0.669806 0.0400056 0
M  V30 6115 H 587.365 1.97714 -0.522456 0
M  V30 6116 H 585.52 3.64223 1.31985 0
M  V30 6117 H 585.934 5.24073 -0.211546 0
M  V30 6118 H 587.408 5.3131 1.49711 0
M  V30 6119 H 587.885 3.78354 2.23036 0
M  V30 6120 H 588.491 4.20858 0.613079 0
M  V30 6121 N 586.806 0.0935595 1.57322 0
M  V30 6122 C 588.083 -0.612692 1.85756 0
M  V30 6123 C 588.463 -1.86439 0.99013 0
M  V30 6124 O 587.811 -2.28416 0.0621362 0
M  V30 6125 C 588.021 -0.929547 3.36393 0
M  V30 6126 C 589.369 -1.29366 4.04413 0
M  V30 6127 O 590.393 -1.02061 3.41265 0
M  V30 6128 O 589.252 -1.80498 5.15832 0
M  V30 6129 H 586.346 -0.306444 0.768128 0
M  V30 6130 H 588.892 0.126141 1.69231 0
M  V30 6131 H 587.664 -0.0414766 3.91278 0
M  V30 6132 H 587.287 -1.72441 3.5826 0
M  V30 6133 N 588.284 -1.56567 -0.180126 0
M  V30 6134 C 589.216 -1.92275 -1.24751 0
M  V30 6135 C 590.229 -0.814922 -1.40936 0
M  V30 6136 O 591.418 -1.09336 -1.41095 0
M  V30 6137 C 588.518 -2.15265 -2.61752 0
M  V30 6138 C 587.691 -3.46467 -2.66981 0
M  V30 6139 C 586.75 -3.58391 -3.85283 0
M  V30 6140 O 585.776 -4.31086 -3.7169 0
M  V30 6141 N 586.978 -2.92587 -5.01371 0
M  V30 6142 H 589.743 -2.84435 -0.944302 0
M  V30 6143 H 587.304 -1.57617 -0.369952 0
M  V30 6144 H 589.296 -2.20515 -3.39345 0
M  V30 6145 H 587.866 -1.29533 -2.845 0
M  V30 6146 H 587.086 -3.52953 -1.75549 0
M  V30 6147 H 588.374 -4.32819 -2.67479 0
M  V30 6148 H 587.772 -2.3338 -5.15316 0
M  V30 6149 H 586.329 -3.03444 -5.76858 0
M  V30 6150 N 589.762 0.448376 -1.51087 0
M  V30 6151 C 591.178 0.783984 -1.39017 0
M  V30 6152 C 591.378 1.96087 -0.463904 0
M  V30 6153 O 590.434 2.52357 0.0850534 0
M  V30 6154 C 591.747 1.07471 -2.80839 0
M  V30 6155 C 593.295 1.17981 -2.89913 0
M  V30 6156 C 593.77 1.50354 -4.32617 0
M  V30 6157 N 595.261 1.57301 -4.35673 0
M  V30 6158 C 595.996 1.839 -5.4311 0
M  V30 6159 N 595.492 2.08365 -6.60724 0
M  V30 6160 N 597.285 1.8559 -5.30578 0
M  V30 6161 H 589.436 -0.326881 -2.0987 0
M  V30 6162 H 591.699 -0.0838006 -0.944289 0
M  V30 6163 H 591.405 0.282768 -3.50561 0
M  V30 6164 H 591.279 2.00519 -3.19487 0
M  V30 6165 H 593.666 1.9624 -2.20395 0
M  V30 6166 H 593.747 0.228603 -2.54776 0
M  V30 6167 H 593.391 0.726273 -5.0268 0
M  V30 6168 H 593.321 2.46663 -4.65258 0
M  V30 6169 H 595.812 1.40342 -3.50874 0
M  V30 6170 H 596.125 2.27999 -7.38401 0
M  V30 6171 H 594.47 2.0571 -6.63859 0
M  V30 6172 H 597.661 1.65989 -4.37682 0
M  V30 6173 H 597.834 2.05983 -6.1439 0
M  V30 6174 N 591.24 1.41047 0.703093 0
M  V30 6175 C 592.517 1.30493 1.45708 0
M  V30 6176 C 592.897 -0.0709892 2.10981 0
M  V30 6177 O 592.245 -1.08471 2.01113 0
M  V30 6178 C 592.455 2.45287 2.48265 0
M  V30 6179 C 593.803 2.86104 3.13735 0
M  V30 6180 O 594.827 2.44971 2.58587 0
M  V30 6181 O 593.686 3.57206 4.13601 0
M  V30 6182 H 590.78 0.513144 0.648546 0
M  V30 6183 H 593.326 1.52995 0.734208 0
M  V30 6184 H 592.098 3.37135 1.98635 0
M  V30 6185 H 591.721 2.24622 3.28071 0
M  V30 6186 N 592.718 -0.936591 1.26751 0
M  V30 6187 C 593.628 -2.06949 1.10496 0
M  V30 6188 C 594.644 -1.7396 0.037271 0
M  V30 6189 O 595.82 -1.99941 0.241944 0
M  V30 6190 C 592.885 -3.38612 0.744491 0
M  V30 6191 C 591.946 -3.85355 1.89209 0
M  V30 6192 C 591.179 -5.10735 1.54873 0
M  V30 6193 O 591.402 -5.68602 0.452546 0
M  V30 6194 O 590.336 -5.52632 2.38499 0
M  V30 6195 H 594.162 -2.23571 2.05547 0
M  V30 6196 H 591.747 -1.05428 1.05855 0
M  V30 6197 H 593.629 -4.17711 0.556396 0
M  V30 6198 H 592.304 -3.23218 -0.176582 0
M  V30 6199 H 591.211 -3.07182 2.13518 0
M  V30 6200 H 592.544 -4.05277 2.79305 0
M  V30 6201 N 594.196 -1.08629 -1.14182 0
M  V30 6202 C 595.445 -0.812271 -1.84621 0
M  V30 6203 C 595.758 0.664313 -1.83973 0
M  V30 6204 O 596.964 1.05357 -2.50224 0
M  V30 6205 C 595.42 -1.4031 -3.31423 0
M  V30 6206 C 595.028 -2.91164 -3.40481 0
M  V30 6207 C 596.772 -1.20767 -4.06959 0
M  V30 6208 C 594.679 -3.43373 -4.81507 0
M  V30 6209 H 593.609 -0.30019 -0.691666 0
M  V30 6210 H 596.26 -1.30798 -1.28701 0
M  V30 6211 H 594.642 -0.835096 -3.87094 0
M  V30 6212 H 595.816 -3.5412 -2.94848 0
M  V30 6213 H 594.131 -3.09646 -2.78403 0
M  V30 6214 H 596.728 -1.57237 -5.11058 0
M  V30 6215 H 597.071 -0.147664 -4.16038 0
M  V30 6216 H 597.604 -1.74274 -3.57594 0
M  V30 6217 H 594.343 -4.48958 -4.77616 0
M  V30 6218 H 593.863 -2.85176 -5.27669 0
M  V30 6219 H 595.542 -3.40095 -5.50404 0
M  V30 6220 N 595.674 1.31259 -0.872281 0
M  V30 6221 C 596.604 2.30929 -0.345554 0
M  V30 6222 C 597.585 1.60449 0.5648 0
M  V30 6223 O 598.77 1.8814 0.481335 0
M  V30 6224 C 595.9 3.44348 0.451823 0
M  V30 6225 C 594.854 4.26435 -0.365641 0
M  V30 6226 C 594.18 5.31785 0.557562 0
M  V30 6227 C 595.48 4.97159 -1.60095 0
M  V30 6228 H 597.174 2.75234 -1.17841 0
M  V30 6229 H 594.72 1.3232 -0.568094 0
M  V30 6230 H 596.673 4.13128 0.830854 0
M  V30 6231 H 595.397 2.98816 1.31821 0
M  V30 6232 H 594.056 3.59326 -0.726649 0
M  V30 6233 H 593.704 4.82502 1.4213 0
M  V30 6234 H 593.404 5.87598 0.0144878 0
M  V30 6235 H 594.928 6.03424 0.933387 0
M  V30 6236 H 596.342 5.58523 -1.29323 0
M  V30 6237 H 594.739 5.62779 -2.08327 0
M  V30 6238 H 595.809 4.24012 -2.35249 0
M  V30 6239 N 597.152 0.631951 1.44375 0
M  V30 6240 C 598.082 -0.0593243 2.33425 0
M  V30 6241 C 599.063 -0.833964 1.48253 0
M  V30 6242 O 600.248 -0.799682 1.76971 0
M  V30 6243 C 597.378 -1.04096 3.31333 0
M  V30 6244 C 596.332 -0.377899 4.26328 0
M  V30 6245 C 595.658 -1.4695 5.14111 0
M  V30 6246 C 596.958 0.716371 5.17364 0
M  V30 6247 H 598.652 0.684287 2.91475 0
M  V30 6248 H 596.198 0.330518 1.40156 0
M  V30 6249 H 598.151 -1.53331 3.92514 0
M  V30 6250 H 596.875 -1.81547 2.71493 0
M  V30 6251 H 595.534 0.0938054 3.6648 0
M  V30 6252 H 595.182 -2.2349 4.50623 0
M  V30 6253 H 594.882 -1.03121 5.78481 0
M  V30 6254 H 596.406 -1.96363 5.78164 0
M  V30 6255 H 597.82 0.307089 5.72477 0
M  V30 6256 H 596.217 1.07784 5.90341 0
M  V30 6257 H 597.287 1.58316 4.58327 0
M  V30 6258 N 598.631 -1.53133 0.372548 0
M  V30 6259 C 599.594 -2.24569 -0.458389 0
M  V30 6260 C 600.594 -1.25603 -1.00402 0
M  V30 6261 O 601.784 -1.49827 -0.888672 0
M  V30 6262 C 598.916 -2.98783 -1.6414 0
M  V30 6263 H 600.109 -2.99436 0.166799 0
M  V30 6264 H 597.662 -1.55805 0.124357 0
M  V30 6265 H 598.397 -2.28176 -2.30448 0
M  V30 6266 H 598.182 -3.71404 -1.25704 0
M  V30 6267 H 599.672 -3.53068 -2.23008 0
M  V30 6268 N 600.109 -0.101901 -1.5727 0
M  V30 6269 C 601.057 0.872034 -2.15635 0
M  V30 6270 C 602.051 1.28742 -1.10099 0
M  V30 6271 O 603.257 1.26116 -1.28432 0
M  V30 6272 H 599.632 0.299269 -0.689886 0
M  V30 6273 H 601.603 0.355137 -2.96279 0
M  V30 6274 C 600.352 2.11886 -2.7568 0
M  V30 6275 H 599.675 1.80813 -3.56576 0
M  V30 6276 H 601.115 2.78077 -3.20077 0
M  V30 6277 C 599.574 2.89739 -1.7191 0
M  V30 6278 O 600.104 3.84522 -1.16213 0
M  V30 6279 N 598.31 2.53407 -1.42245 0
M  V30 6280 H 597.857 1.76398 -1.87727 0
M  V30 6281 H 597.815 3.05795 -0.730529 0
M  V30 6282 N 601.587 1.56661 0.17182 0
M  V30 6283 C 602.534 1.96371 1.21273 0
M  V30 6284 C 603.504 0.82756 1.44016 0
M  V30 6285 O 604.689 1.08764 1.56764 0
M  V30 6286 C 601.829 2.32838 2.54716 0
M  V30 6287 C 600.942 3.59628 2.39356 0
M  V30 6288 C 600.077 3.85311 3.65662 0
M  V30 6289 C 599.116 5.0545 3.45234 0
M  V30 6290 N 598.253 5.27268 4.63608 0
M  V30 6291 H 603.093 2.85106 0.86709 0
M  V30 6292 H 600.63 1.41073 0.416744 0
M  V30 6293 H 602.588 2.52004 3.3249 0
M  V30 6294 H 601.218 1.47214 2.87277 0
M  V30 6295 H 600.27 3.4838 1.52761 0
M  V30 6296 H 601.582 4.4756 2.20207 0
M  V30 6297 H 600.736 4.04841 4.51872 0
M  V30 6298 H 599.475 2.95753 3.8779 0
M  V30 6299 H 598.48 4.85819 2.5741 0
M  V30 6300 H 599.705 5.96538 3.24529 0
M  V30 6301 H 597.651 4.40662 4.85956 0
M  V30 6302 H 597.568 6.09422 4.4737 0
M  V30 6303 H 598.836 5.51277 5.51103 0
M  V30 6304 N 603.065 -0.440357 1.51323 0
M  V30 6305 C 604.012 -1.53429 1.72419 0
M  V30 6306 C 604.982 -1.56165 0.565826 0
M  V30 6307 O 606.167 -1.73222 0.799917 0
M  V30 6308 C 603.307 -2.91169 1.85242 0
M  V30 6309 C 602.42 -2.97985 3.12777 0
M  V30 6310 C 601.555 -4.26829 3.16212 0
M  V30 6311 C 600.594 -4.27501 4.38074 0
M  V30 6312 N 599.731 -5.47866 4.39076 0
M  V30 6313 H 604.571 -1.34743 2.65797 0
M  V30 6314 H 602.108 -0.654608 1.31732 0
M  V30 6315 H 604.066 -3.71087 1.90658 0
M  V30 6316 H 602.696 -3.0842 0.952744 0
M  V30 6317 H 601.748 -2.10749 3.16685 0
M  V30 6318 H 603.06 -2.94342 4.02696 0
M  V30 6319 H 602.214 -5.15118 3.20527 0
M  V30 6320 H 600.953 -4.33124 2.24176 0
M  V30 6321 H 599.958 -3.37606 4.33938 0
M  V30 6322 H 601.183 -4.22873 5.31371 0
M  V30 6323 H 599.129 -5.54887 3.49909 0
M  V30 6324 H 599.046 -5.46091 5.22801 0
M  V30 6325 H 600.314 -6.38195 4.4758 0
M  V30 6326 N 604.543 -1.41418 -0.695603 0
M  V30 6327 C 605.82 -1.31264 -1.45014 0
M  V30 6328 C 606.2 0.0597994 -2.11015 0
M  V30 6329 O 605.548 1.07403 -2.01685 0
M  V30 6330 C 605.758 -2.466 -2.4696 0
M  V30 6331 C 607.106 -2.87763 -3.12214 0
M  V30 6332 O 608.13 -2.46339 -2.57285 0
M  V30 6333 O 606.989 -3.59395 -4.11701 0
M  V30 6334 H 604.083 -0.516576 -0.645816 0
M  V30 6335 H 606.629 -1.53382 -0.726084 0
M  V30 6336 H 605.401 -3.38183 -1.96845 0
M  V30 6337 H 605.024 -2.26358 -3.26876 0
M  V30 6338 N 606.021 0.929856 -1.27246 0
M  V30 6339 C 606.951 2.04722 -1.12299 0
M  V30 6340 C 607.932 1.70082 -0.0250464 0
M  V30 6341 O 609.117 1.93176 -0.199141 0
M  V30 6342 C 606.247 3.38721 -0.767145 0
M  V30 6343 C 605.201 3.87466 -1.81808 0
M  V30 6344 C 604.527 5.18246 -1.31626 0
M  V30 6345 C 605.827 4.11095 -3.22177 0
M  V30 6346 H 607.521 2.17485 -2.05769 0
M  V30 6347 H 605.067 1.04503 -0.990715 0
M  V30 6348 H 607.02 4.16366 -0.649413 0
M  V30 6349 H 605.744 3.25967 0.203259 0
M  V30 6350 H 604.403 3.12012 -1.92468 0
M  V30 6351 H 604.051 5.01881 -0.335378 0
M  V30 6352 H 603.751 5.51829 -2.01887 0
M  V30 6353 H 605.275 5.98462 -1.21143 0
M  V30 6354 H 606.689 4.79316 -3.1453 0
M  V30 6355 H 605.086 4.55982 -3.90129 0
M  V30 6356 H 606.156 3.16468 -3.67391 0
M  V30 6357 N 607.499 1.09233 1.13605 0
M  V30 6358 C 608.409 0.741939 2.22559 0
M  V30 6359 C 609.425 -0.255236 1.72118 0
M  V30 6360 O 610.601 -0.0970747 2.01166 0
M  V30 6361 C 607.666 0.165595 3.46304 0
M  V30 6362 C 606.727 1.21846 4.11645 0
M  V30 6363 C 605.96 0.669526 5.29484 0
M  V30 6364 O 606.183 -0.508228 5.68131 0
M  V30 6365 O 605.117 1.42361 5.84822 0
M  V30 6366 H 608.943 1.65107 2.54899 0
M  V30 6367 H 606.528 0.866584 1.21699 0
M  V30 6368 H 608.41 -0.152592 4.21124 0
M  V30 6369 H 607.085 -0.716573 3.15669 0
M  V30 6370 H 605.992 1.58931 3.38662 0
M  V30 6371 H 607.325 2.07321 4.46407 0
M  V30 6372 N 608.977 -1.30795 0.87923 0
M  V30 6373 C 609.887 -2.32041 0.345565 0
M  V30 6374 C 610.903 -1.65103 -0.549265 0
M  V30 6375 O 612.079 -1.9645 -0.443763 0
M  V30 6376 C 609.144 -3.43944 -0.436245 0
M  V30 6377 C 608.205 -4.26521 0.48765 0
M  V30 6378 C 607.438 -5.33081 -0.256943 0
M  V30 6379 O 607.661 -5.50762 -1.48381 0
M  V30 6380 O 606.595 -6.00635 0.389985 0
M  V30 6381 H 610.421 -2.79627 1.18501 0
M  V30 6382 H 608.006 -1.3486 0.642885 0
M  V30 6383 H 609.888 -4.12128 -0.879119 0
M  V30 6384 H 608.563 -2.98504 -1.25208 0
M  V30 6385 H 607.47 -3.61057 0.979216 0
M  V30 6386 H 608.803 -4.75551 1.26933 0
M  V30 6387 N 610.455 -0.639598 -1.44038 0
M  V30 6388 C 611.418 0.0506628 -2.29144 0
M  V30 6389 C 612.418 0.764001 -1.41491 0
M  V30 6390 O 613.608 0.607309 -1.63271 0
M  V30 6391 C 610.74 1.0824 -3.2326 0
M  V30 6392 H 611.933 -0.697987 -2.91664 0
M  V30 6393 H 609.486 -0.400146 -1.51091 0
M  V30 6394 H 610.221 1.86075 -2.65606 0
M  V30 6395 H 610.006 0.574725 -3.87865 0
M  V30 6396 H 611.496 1.56487 -3.87171 0
M  V30 6397 N 611.933 1.52934 -0.380664 0
M  V30 6398 C 612.843 2.29921 0.466192 0
M  V30 6399 C 613.859 1.36488 1.07922 0
M  V30 6400 O 615.035 1.69553 1.0869 0
M  V30 6401 C 612.1 3.08468 1.58266 0
M  V30 6402 C 611.161 4.17595 0.995627 0
M  V30 6403 C 610.394 4.92387 2.05889 0
M  V30 6404 O 610.617 4.67184 3.27254 0
M  V30 6405 O 609.551 5.77949 1.68102 0
M  V30 6406 H 613.377 3.03274 -0.160735 0
M  V30 6407 H 610.962 1.48698 -0.144617 0
M  V30 6408 H 612.844 3.57469 2.23145 0
M  V30 6409 H 611.519 2.37937 2.19471 0
M  V30 6410 H 610.426 3.72811 0.310332 0
M  V30 6411 H 611.759 4.90336 0.427918 0
M  V30 6412 N 613.412 0.11024 1.57214 0
M  V30 6413 C 614.66 -0.548783 1.94506 0
M  V30 6414 C 614.981 -1.67772 0.99386 0
M  V30 6415 O 614.251 -1.9584 0.0485841 0
M  V30 6416 H 612.831 -0.205715 0.718116 0
M  V30 6417 H 615.493 0.177127 1.94093 0
M  V30 6418 H 614.589 -0.949096 2.97319 0
M  V30 6419 N 614.89 -1.56749 -0.16351 0
M  V30 6420 C 616.306 -1.51043 -0.515567 0
M  V30 6421 C 616.506 -0.815855 -1.84245 0
M  V30 6422 O 615.562 -0.379477 -2.49632 0
M  V30 6423 C 616.875 -2.95791 -0.541114 0
M  V30 6424 C 618.423 -3.0664 -0.627776 0
M  V30 6425 C 618.898 -4.52861 -0.684141 0
M  V30 6426 N 620.389 -4.5714 -0.746818 0
M  V30 6427 C 621.124 -5.67634 -0.811137 0
M  V30 6428 N 620.62 -6.8774 -0.835811 0
M  V30 6429 N 622.413 -5.55624 -0.850756 0
M  V30 6430 H 614.564 -2.00307 0.70645 0
M  V30 6431 H 616.827 -0.912876 0.255659 0
M  V30 6432 H 616.533 -3.49797 0.365329 0
M  V30 6433 H 616.407 -3.50858 -1.38487 0
M  V30 6434 H 618.794 -2.52663 -1.52464 0
M  V30 6435 H 618.875 -2.54645 0.242805 0
M  V30 6436 H 618.519 -5.07472 0.2085 0
M  V30 6437 H 618.449 -5.02621 -1.57098 0
M  V30 6438 H 620.94 -3.70669 -0.735717 0
M  V30 6439 H 621.253 -7.67701 -0.886279 0
M  V30 6440 H 619.598 -6.90334 -0.803958 0
M  V30 6441 H 622.789 -4.60709 -0.828535 0
M  V30 6442 H 622.962 -6.41756 -0.897418 0
M  V30 6443 N 616.368 0.432326 -1.51554 0
M  V30 6444 C 617.298 1.53242 -1.76179 0
M  V30 6445 C 618.279 1.58717 -0.611801 0
M  V30 6446 O 619.464 1.74364 -0.855033 0
M  V30 6447 C 616.594 2.91278 -1.89141 0
M  V30 6448 C 615.548 3.00663 -3.04608 0
M  V30 6449 C 614.874 4.40728 -3.02759 0
M  V30 6450 C 616.174 2.74281 -4.44485 0
M  V30 6451 H 617.868 1.32886 -2.68294 0
M  V30 6452 H 615.414 0.637841 -1.29103 0
M  V30 6453 H 617.367 3.68203 -2.04951 0
M  V30 6454 H 616.091 3.12877 -0.936785 0
M  V30 6455 H 614.75 2.26179 -2.88511 0
M  V30 6456 H 614.398 4.59301 -2.05065 0
M  V30 6457 H 614.098 4.47936 -3.80299 0
M  V30 6458 H 615.622 5.19619 -3.20669 0
M  V30 6459 H 617.036 3.40936 -4.60907 0
M  V30 6460 H 615.433 2.92893 -5.23769 0
M  V30 6461 H 616.503 1.69856 -4.54177 0
M  V30 6462 N 617.846 1.41785 0.688094 0
M  V30 6463 C 618.809 1.43936 1.78368 0
M  V30 6464 C 619.809 0.328866 1.57401 0
M  V30 6465 O 620.999 0.589093 1.63937 0
M  V30 6466 C 618.131 1.25804 3.16838 0
M  V30 6467 H 619.324 2.41472 1.77852 0
M  V30 6468 H 616.877 1.28037 0.896448 0
M  V30 6469 H 617.612 0.291386 3.22988 0
M  V30 6470 H 617.397 2.06272 3.33458 0
M  V30 6471 H 618.887 1.30162 3.96797 0
M  V30 6472 N 619.324 -0.923095 1.27737 0
M  V30 6473 C 620.287 -2.00587 1.10894 0
M  V30 6474 C 621.287 -1.60718 0.0514927 0
M  V30 6475 O 622.477 -1.71658 0.296481 0
M  V30 6476 C 619.609 -3.33829 0.690717 0
M  V30 6477 H 620.802 -2.16959 2.07048 0
M  V30 6478 H 618.355 -1.10451 1.1059 0
M  V30 6479 H 619.09 -3.23157 -0.272 0
M  V30 6480 H 618.875 -3.64125 1.45448 0
M  V30 6481 H 620.365 -4.13336 0.595252 0
M  V30 6482 N 620.802 -1.09834 -1.13024 0
M  V30 6483 C 622.213 -0.855651 -1.65938 0
M  V30 6484 C 622.564 0.615159 -1.86307 0
M  V30 6485 O 621.689 1.47335 -1.58497 0
M  V30 6486 C 622.284 -1.5467 -3.01434 0
M  V30 6487 C 620.843 -1.35088 -3.51323 0
M  V30 6488 C 619.99 -1.6001 -2.26478 0
M  V30 6489 H 622.941 -1.25691 -0.968889 0
M  V30 6490 H 622.962 -0.982179 -3.67605 0
M  V30 6491 H 622.474 -2.61715 -2.86578 0
M  V30 6492 H 620.575 -0.30179 -3.71376 0
M  V30 6493 H 620.688 -2.0886 -4.31178 0
M  V30 6494 H 619.052 -1.02246 -2.33276 0
M  V30 6495 H 619.835 -2.68293 -2.14182 0
M  V30 6496 N 622.28 1.30327 -0.886154 0
M  V30 6497 C 623.21 2.30549 -0.370028 0
M  V30 6498 C 624.191 1.61039 0.547751 0
M  V30 6499 O 625.376 1.8864 0.461353 0
M  V30 6500 C 622.506 3.44808 0.415275 0
M  V30 6501 C 621.46 4.26024 -0.41085 0
M  V30 6502 C 620.786 5.32347 0.501128 0
M  V30 6503 C 622.086 4.95433 -1.65359 0
M  V30 6504 H 623.78 2.73969 -1.20754 0
M  V30 6505 H 621.326 1.3171 -0.582097 0
M  V30 6506 H 623.279 4.13986 0.78699 0
M  V30 6507 H 622.003 3.00197 1.28644 0
M  V30 6508 H 620.662 3.58535 -0.764719 0
M  V30 6509 H 620.31 4.83982 1.37004 0
M  V30 6510 H 620.01 5.87581 -0.0478356 0
M  V30 6511 H 621.534 6.0438 0.869333 0
M  V30 6512 H 622.948 5.5712 -1.35239 0
M  V30 6513 H 621.345 5.60537 -2.14284 0
M  V30 6514 H 622.415 4.21493 -2.39733 0
M  V30 6515 N 623.758 0.647228 1.43697 0
M  V30 6516 C 624.688 -0.0345631 2.33474 0
M  V30 6517 C 625.669 -0.818193 1.4913 0
M  V30 6518 O 626.854 -0.780867 1.77809 0
M  V30 6519 C 623.984 -1.00576 3.32418 0
M  V30 6520 C 622.938 -0.33266 4.26705 0
M  V30 6521 C 622.264 -1.41489 5.1564 0
M  V30 6522 C 623.564 0.771204 5.16575 0
M  V30 6523 H 625.258 0.715163 2.90733 0
M  V30 6524 H 622.804 0.345364 1.39797 0
M  V30 6525 H 624.757 -1.49159 3.94119 0
M  V30 6526 H 623.481 -1.78657 2.73403 0
M  V30 6527 H 622.14 0.13267 3.6636 0
M  V30 6528 H 621.788 -2.18698 4.52968 0
M  V30 6529 H 621.488 -0.969799 5.79542 0
M  V30 6530 H 623.012 -1.9022 5.80214 0
M  V30 6531 H 624.426 0.36779 5.72119 0
M  V30 6532 H 622.823 1.1404 5.89165 0
M  V30 6533 H 623.893 1.63169 4.56622 0
M  V30 6534 N 625.236 -1.5273 0.388769 0
M  V30 6535 C 626.183 -2.26437 -0.446639 0
M  V30 6536 C 627.153 -1.28025 -1.05824 0
M  V30 6537 O 628.338 -1.56852 -1.08637 0
M  V30 6538 C 625.478 -3.07407 -1.56828 0
M  V30 6539 C 624.591 -4.20747 -0.979589 0
M  V30 6540 C 623.726 -4.89113 -2.07224 0
M  V30 6541 C 622.765 -5.94447 -1.45942 0
M  V30 6542 N 621.902 -6.56411 -2.49135 0
M  V30 6543 H 626.742 -2.97404 0.18837 0
M  V30 6544 H 624.279 -1.46727 0.104725 0
M  V30 6545 H 626.237 -3.52642 -2.22934 0
M  V30 6546 H 624.867 -2.3865 -2.17361 0
M  V30 6547 H 623.919 -3.7983 -0.208151 0
M  V30 6548 H 625.231 -4.9637 -0.491747 0
M  V30 6549 H 624.385 -5.3765 -2.81101 0
M  V30 6550 H 623.124 -4.13013 -2.59368 0
M  V30 6551 H 622.129 -5.4525 -0.705894 0
M  V30 6552 H 623.354 -6.7248 -0.945932 0
M  V30 6553 H 621.3 -5.83152 -3.00449 0
M  V30 6554 H 621.217 -7.27645 -2.05105 0
M  V30 6555 H 622.485 -7.09592 -3.22644 0
M  V30 6556 N 626.714 -0.118576 -1.57153 0
M  V30 6557 C 628.13 0.238014 -1.57815 0
M  V30 6558 C 628.33 1.66747 -1.13127 0
M  V30 6559 O 627.386 2.38867 -0.818462 0
M  V30 6560 C 628.699 0.00508207 -3.007 0
M  V30 6561 C 630.247 0.0710139 -3.12919 0
M  V30 6562 C 630.722 -0.13422 -4.57803 0
M  V30 6563 N 632.213 -0.0801755 -4.63131 0
M  V30 6564 C 632.948 -0.213885 -5.73001 0
M  V30 6565 N 632.444 -0.403742 -6.91623 0
M  V30 6566 N 634.237 -0.15349 -5.6189 0
M  V30 6567 H 626.388 -1.05226 -1.84503 0
M  V30 6568 H 628.651 -0.414318 -0.852669 0
M  V30 6569 H 628.357 -0.983125 -3.3768 0
M  V30 6570 H 628.231 0.73714 -3.69927 0
M  V30 6571 H 630.618 1.04975 -2.75798 0
M  V30 6572 H 630.699 -0.692918 -2.46236 0
M  V30 6573 H 630.343 -1.10992 -4.95624 0
M  V30 6574 H 630.273 0.649692 -5.22577 0
M  V30 6575 H 632.764 0.0630689 -3.77847 0
M  V30 6576 H 633.077 -0.496645 -7.71202 0
M  V30 6577 H 631.422 -0.43971 -6.93608 0
M  V30 6578 H 634.613 -0.00613174 -4.681 0
M  V30 6579 H 634.786 -0.261138 -6.47474 0
M  V30 6580 N 628.193 1.56834 0.155195 0
M  V30 6581 C 629.123 2.00678 1.19376 0
M  V30 6582 C 630.104 0.884973 1.45266 0
M  V30 6583 O 631.289 1.1522 1.56326 0
M  V30 6584 C 628.419 2.38042 2.5289 0
M  V30 6585 C 627.373 3.53332 2.41538 0
M  V30 6586 C 626.699 3.76485 3.79688 0
M  V30 6587 C 627.999 4.86265 1.9064 0
M  V30 6588 H 629.693 2.87688 0.829232 0
M  V30 6589 H 627.239 1.38407 0.397445 0
M  V30 6590 H 629.192 2.67314 3.25763 0
M  V30 6591 H 627.916 1.4796 2.91162 0
M  V30 6592 H 626.575 3.24213 1.71117 0
M  V30 6593 H 626.223 2.83667 4.15382 0
M  V30 6594 H 625.923 4.54068 3.72956 0
M  V30 6595 H 627.447 4.08174 4.54122 0
M  V30 6596 H 628.861 5.14308 2.53299 0
M  V30 6597 H 627.258 5.67597 1.94818 0
M  V30 6598 H 628.328 4.77184 0.861596 0
M  V30 6599 N 629.671 -0.424282 1.51781 0
M  V30 6600 C 630.896 -1.19928 1.6921 0
M  V30 6601 C 631.321 -1.8392 0.394355 0
M  V30 6602 O 630.679 -1.69371 -0.646778 0
M  V30 6603 C 630.727 -2.24937 2.81843 0
M  V30 6604 O 629.831 -3.3073 2.46356 0
M  V30 6605 H 629.172 -0.35078 0.563781 0
M  V30 6606 H 631.702 -0.499401 1.98412 0
M  V30 6607 H 631.712 -2.69512 3.06312 0
M  V30 6608 H 630.387 -1.77742 3.76006 0
M  V30 6609 H 628.964 -2.9154 2.32505 0
M  V30 6610 N 631.149 -1.42148 -0.680565 0
M  V30 6611 C 632.079 -1.4796 -1.80638 0
M  V30 6612 C 633.06 -0.336728 -1.66734 0
M  V30 6613 O 634.245 -0.550247 -1.86242 0
M  V30 6614 C 631.375 -1.37569 -3.18892 0
M  V30 6615 C 630.329 -2.49823 -3.47524 0
M  V30 6616 C 629.655 -2.24491 -4.85291 0
M  V30 6617 C 630.955 -3.92144 -3.44994 0
M  V30 6618 H 632.649 -2.42184 -1.76032 0
M  V30 6619 H 630.195 -1.16566 -0.845481 0
M  V30 6620 H 632.148 -1.40243 -3.97379 0
M  V30 6621 H 630.872 -0.398357 -3.24162 0
M  V30 6622 H 629.531 -2.46455 -2.71395 0
M  V30 6623 H 629.179 -1.25066 -4.87204 0
M  V30 6624 H 628.879 -2.99722 -5.05411 0
M  V30 6625 H 630.403 -2.28906 -5.66069 0
M  V30 6626 H 631.817 -3.97145 -4.13459 0
M  V30 6627 H 630.214 -4.67179 -3.76648 0
M  V30 6628 H 631.284 -4.19225 -2.43676 0
M  V30 6629 N 632.627 0.916307 -1.28225 0
M  V30 6630 C 633.852 1.7043 -1.18188 0
M  V30 6631 C 634.277 1.86346 0.256274 0
M  V30 6632 O 633.635 1.37175 1.18544 0
M  V30 6633 C 633.683 3.07546 -1.88275 0
M  V30 6634 O 632.787 3.94904 -1.18848 0
M  V30 6635 H 632.128 0.521967 -0.410423 0
M  V30 6636 H 634.658 1.14589 -1.69501 0
M  V30 6637 H 634.668 3.57793 -1.96082 0
M  V30 6638 H 633.343 2.95279 -2.92887 0
M  V30 6639 H 631.92 3.53339 -1.19187 0
M  V30 6640 N 634.105 1.10431 1.1244 0
M  V30 6641 C 635.333 0.868872 1.87772 0
M  V30 6642 C 635.748 -0.580645 1.7965 0
M  V30 6643 O 635.105 -1.40031 1.17036 0
M  V30 6644 C 635.156 1.30855 3.36986 0
M  V30 6645 O 634.877 2.70123 3.44914 0
M  V30 6646 C 636.378 1.107 4.29256 0
M  V30 6647 H 633.598 0.311868 0.59412 0
M  V30 6648 H 636.142 1.46897 1.42273 0
M  V30 6649 H 634.297 0.752126 3.80029 0
M  V30 6650 H 634.711 2.88923 4.37748 0
M  V30 6651 H 636.185 1.46378 5.32238 0
M  V30 6652 H 636.662 0.0456228 4.39176 0
M  V30 6653 H 637.268 1.64988 3.91994 0
M  V30 6654 N 635.583 -1.29855 0.893053 0
M  V30 6655 C 636.808 -2.00512 0.530066 0
M  V30 6656 C 637.233 -1.66446 -0.876199 0
M  V30 6657 O 636.591 -0.885446 -1.58207 0
M  V30 6658 C 636.639 -3.53308 0.721505 0
M  V30 6659 O 635.743 -4.11764 -0.228994 0
M  V30 6660 H 635.084 -0.630617 0.207891 0
M  V30 6661 H 637.614 -1.6551 1.20282 0
M  V30 6662 H 637.624 -4.03206 0.623599 0
M  V30 6663 H 636.299 -3.77439 1.74678 0
M  V30 6664 H 634.876 -3.72805 -0.0841034 0
M  V30 6665 N 637.061 -0.65484 -1.43351 0
M  V30 6666 C 638.008 0.0357713 -2.30772 0
M  V30 6667 C 638.978 0.813035 -1.44841 0
M  V30 6668 O 640.163 0.789314 -1.73708 0
M  V30 6669 C 637.303 0.995084 -3.30442 0
M  V30 6670 C 636.416 0.21375 -4.31471 0
M  V30 6671 C 635.551 1.16701 -5.18222 0
M  V30 6672 C 634.59 0.376201 -6.10943 0
M  V30 6673 N 633.727 1.28113 -6.90313 0
M  V30 6674 H 638.567 -0.71559 -2.89281 0
M  V30 6675 H 636.104 -0.364645 -1.42509 0
M  V30 6676 H 638.062 1.5649 -3.86739 0
M  V30 6677 H 636.692 1.7133 -2.7358 0
M  V30 6678 H 635.744 -0.472377 -3.77456 0
M  V30 6679 H 637.056 -0.401103 -4.97185 0
M  V30 6680 H 636.21 1.8074 -5.79153 0
M  V30 6681 H 634.949 1.81577 -4.52638 0
M  V30 6682 H 633.954 -0.277534 -5.49099 0
M  V30 6683 H 635.179 -0.268178 -6.7857 0
M  V30 6684 H 633.125 1.91666 -6.27376 0
M  V30 6685 H 633.042 0.720879 -7.52555 0
M  V30 6686 H 634.31 1.90962 -7.55747 0
M  V30 6687 N 638.539 1.52521 -0.396863 0
M  V30 6688 C 639.469 2.29582 0.425941 0
M  V30 6689 C 640.45 1.33281 1.05689 0
M  V30 6690 O 641.635 1.62181 1.06823 0
M  V30 6691 C 638.765 3.10821 1.54943 0
M  V30 6692 C 637.719 4.15069 1.04413 0
M  V30 6693 C 637.045 4.84578 2.26028 0
M  V30 6694 C 638.345 5.22191 0.106767 0
M  V30 6695 H 640.039 2.98612 -0.217045 0
M  V30 6696 H 637.585 1.43611 -0.105826 0
M  V30 6697 H 639.538 3.63492 2.13193 0
M  V30 6698 H 638.262 2.39538 2.22011 0
M  V30 6699 H 636.921 3.63389 0.484118 0
M  V30 6700 H 636.569 4.09835 2.91623 0
M  V30 6701 H 636.269 5.55043 1.92876 0
M  V30 6702 H 637.793 5.40056 2.84906 0
M  V30 6703 H 639.207 5.70176 0.597685 0
M  V30 6704 H 637.604 5.99947 -0.135352 0
M  V30 6705 H 638.674 4.77531 -0.842134 0
M  V30 6706 N 640.017 0.126909 1.57088 0
M  V30 6707 C 640.965 -0.837618 2.16995 0
M  V30 6708 C 641.959 -1.26974 1.12133 0
M  V30 6709 O 643.165 -1.24056 1.30423 0
M  V30 6710 H 639.54 -0.288256 0.694559 0
M  V30 6711 H 641.511 -0.307957 2.96807 0
M  V30 6712 C 640.26 -2.07474 2.79016 0
M  V30 6713 H 639.583 -1.75117 3.59408 0
M  V30 6714 H 641.023 -2.72949 3.24461 0
M  V30 6715 C 639.482 -2.86967 1.76498 0
M  V30 6716 O 640.012 -3.82625 1.22316 0
M  V30 6717 N 638.218 -2.51111 1.46258 0
M  V30 6718 H 637.765 -1.73389 1.90509 0
M  V30 6719 H 637.723 -3.04594 0.779085 0
M  V30 6720 N 641.495 -1.56914 -0.146875 0
M  V30 6721 C 642.72 -1.87881 -0.878386 0
M  V30 6722 C 643.145 -0.715945 -1.73942 0
M  V30 6723 O 642.503 0.334447 -1.78189 0
M  V30 6724 C 642.551 -3.17431 -1.71084 0
M  V30 6725 O 641.655 -3.01374 -2.81509 0
M  V30 6726 H 640.996 -0.617289 -0.244644 0
M  V30 6727 H 643.526 -2.04136 -0.137654 0
M  V30 6728 H 643.536 -3.49455 -2.10582 0
M  V30 6729 H 642.211 -4.01671 -1.07856 0
M  V30 6730 H 640.788 -2.80758 -2.45416 0
M  V30 6731 N 642.974 0.416227 -1.52004 0
M  V30 6732 C 643.904 1.51365 -1.77795 0
M  V30 6733 C 644.885 1.58059 -0.628601 0
M  V30 6734 O 646.07 1.73447 -0.873478 0
M  V30 6735 C 643.2 2.89256 -1.92219 0
M  V30 6736 C 642.154 2.97415 -3.0778 0
M  V30 6737 C 641.48 4.37492 -3.07417 0
M  V30 6738 C 642.78 2.69551 -4.47369 0
M  V30 6739 H 644.474 1.30033 -2.69688 0
M  V30 6740 H 642.02 0.624112 -1.29772 0
M  V30 6741 H 643.973 3.66008 -2.08845 0
M  V30 6742 H 642.697 3.11866 -0.969917 0
M  V30 6743 H 641.356 2.23107 -2.90893 0
M  V30 6744 H 641.004 4.571 -2.09925 0
M  V30 6745 H 640.704 4.43877 -3.85029 0
M  V30 6746 H 642.228 5.16188 -3.26162 0
M  V30 6747 H 643.642 3.36028 -4.64497 0
M  V30 6748 H 642.039 2.87321 -5.26846 0
M  V30 6749 H 643.109 1.65029 -4.55953 0
M  V30 6750 N 644.452 1.42507 0.673017 0
M  V30 6751 C 645.415 1.4582 1.76831 0
M  V30 6752 C 646.415 0.345542 1.57043 0
M  V30 6753 O 647.605 0.606447 1.63303 0
M  V30 6754 C 644.737 1.29158 3.15485 0
M  V30 6755 H 645.93 2.43345 1.7528 0
M  V30 6756 H 643.483 1.28981 0.882817 0
M  V30 6757 H 644.218 0.325626 3.22661 0
M  V30 6758 H 644.003 2.09797 3.31252 0
M  V30 6759 H 645.493 1.34363 3.95394 0
M  V30 6760 N 645.93 -0.909495 1.28709 0
M  V30 6761 C 647.179 -1.65365 1.15487 0
M  V30 6762 C 647.492 -1.93364 -0.294941 0
M  V30 6763 O 648.698 -2.65905 -0.548338 0
M  V30 6764 C 647.154 -2.97923 2.01916 0
M  V30 6765 C 646.762 -2.77556 3.51663 0
M  V30 6766 C 648.506 -3.75814 1.97393 0
M  V30 6767 C 646.413 -4.0578 4.30229 0
M  V30 6768 H 645.343 -0.620323 0.42862 0
M  V30 6769 H 647.994 -1.00894 1.53273 0
M  V30 6770 H 646.376 -3.63552 1.5699 0
M  V30 6771 H 647.55 -2.2058 4.04575 0
M  V30 6772 H 645.865 -2.13072 3.57756 0
M  V30 6773 H 648.462 -4.70866 2.53357 0
M  V30 6774 H 648.805 -4.05277 0.951643 0
M  V30 6775 H 649.338 -3.1701 2.40311 0
M  V30 6776 H 646.077 -3.81488 5.33055 0
M  V30 6777 H 645.597 -4.62351 3.82089 0
M  V30 6778 H 647.276 -4.74004 4.40374 0
M  V30 6779 N 647.408 -1.11026 -1.11852 0
M  V30 6780 C 648.656 -0.854769 -1.83134 0
M  V30 6781 C 648.977 0.621375 -1.84835 0
M  V30 6782 O 648.247 1.45129 -1.31584 0
M  V30 6783 H 646.827 -0.313229 -0.678157 0
M  V30 6784 H 649.489 -1.40178 -1.35411 0
M  V30 6785 H 648.585 -1.22311 -2.87135 0
M  V30 6786 N 648.886 1.2938 -0.899927 0
M  V30 6787 C 649.816 2.30144 -0.39446 0
M  V30 6788 C 650.797 1.61611 0.530639 0
M  V30 6789 O 651.982 1.89119 0.441319 0
M  V30 6790 C 649.112 3.45229 0.37868 0
M  V30 6791 C 648.066 4.25564 -0.456012 0
M  V30 6792 C 647.392 5.32848 0.444637 0
M  V30 6793 C 648.692 4.93651 -1.70605 0
M  V30 6794 H 650.386 2.72673 -1.23653 0
M  V30 6795 H 647.932 1.31086 -0.596034 0
M  V30 6796 H 649.885 4.14797 0.743037 0
M  V30 6797 H 648.609 3.01545 1.25453 0
M  V30 6798 H 647.268 3.57704 -0.802704 0
M  V30 6799 H 646.916 4.85408 1.31863 0
M  V30 6800 H 646.616 5.87497 -0.110154 0
M  V30 6801 H 648.14 6.05268 0.805182 0
M  V30 6802 H 649.554 5.55655 -1.41141 0
M  V30 6803 H 647.951 5.58233 -2.20217 0
M  V30 6804 H 649.021 4.18926 -2.4419 0
M  V30 6805 N 650.364 0.662433 1.43002 0
M  V30 6806 C 651.78 0.330835 1.56133 0
M  V30 6807 C 651.98 -1.16454 1.64441 0
M  V30 6808 O 651.036 -1.94964 1.60453 0
M  V30 6809 C 652.349 1.05029 2.81761 0
M  V30 6810 C 653.897 1.03142 2.95518 0
M  V30 6811 C 654.372 1.73196 4.2399 0
M  V30 6812 N 655.863 1.70004 4.30875 0
M  V30 6813 C 656.598 2.21074 5.29069 0
M  V30 6814 N 656.094 2.80473 6.33488 0
M  V30 6815 N 657.887 2.1152 5.20784 0
M  V30 6816 H 650.038 1.63272 1.35853 0
M  V30 6817 H 652.301 0.687149 0.653092 0
M  V30 6818 H 652.007 2.10542 2.81718 0
M  V30 6819 H 651.881 0.607664 3.72273 0
M  V30 6820 H 654.268 -0.0153339 2.95096 0
M  V30 6821 H 654.349 1.51282 2.0627 0
M  V30 6822 H 653.993 2.77833 4.25172 0
M  V30 6823 H 653.923 1.22515 5.1215 0
M  V30 6824 H 656.414 1.26667 3.56039 0
M  V30 6825 H 656.727 3.17094 7.04749 0
M  V30 6826 H 655.072 2.84538 6.34085 0
M  V30 6827 H 658.263 1.64814 4.38126 0
M  V30 6828 H 658.436 2.51629 5.97149 0
M  V30 6829 N 651.842 -1.52309 0.404946 0
M  V30 6830 C 652.774 -2.24579 -0.45791 0
M  V30 6831 C 653.787 -1.2739 -1.01369 0
M  V30 6832 O 654.976 -1.53363 -0.91335 0
M  V30 6833 C 652.076 -2.9608 -1.64893 0
M  V30 6834 C 651.249 -4.20106 -1.21777 0
M  V30 6835 C 650.308 -4.74468 -2.27523 0
M  V30 6836 O 649.334 -5.37157 -1.88285 0
M  V30 6837 N 650.536 -4.55678 -3.59635 0
M  V30 6838 H 653.301 -2.99265 0.161341 0
M  V30 6839 H 650.862 -1.60228 0.232107 0
M  V30 6840 H 652.854 -3.29344 -2.35191 0
M  V30 6841 H 651.424 -2.24606 -2.17419 0
M  V30 6842 H 650.644 -3.92704 -0.343071 0
M  V30 6843 H 651.932 -5.00658 -0.906596 0
M  V30 6844 H 651.33 -4.05673 -3.94266 0
M  V30 6845 H 649.887 -4.9339 -4.25922 0
M  V30 6846 N 653.32 -0.135238 -1.57019 0
M  V30 6847 C 654.569 0.518694 -1.94917 0
M  V30 6848 C 654.882 1.66783 -1.0219 0
M  V30 6849 O 656.088 2.38561 -1.29619 0
M  V30 6850 C 654.544 0.974123 -3.46466 0
M  V30 6851 C 654.152 -0.147439 -4.47757 0
M  V30 6852 C 655.896 1.59851 -3.93253 0
M  V30 6853 C 653.803 0.325599 -5.90503 0
M  V30 6854 H 652.733 0.19754 -0.727663 0
M  V30 6855 H 655.384 -0.217698 -1.82204 0
M  V30 6856 H 653.766 1.76542 -3.5447 0
M  V30 6857 H 654.94 -0.924122 -4.51438 0
M  V30 6858 H 653.255 -0.679496 -4.10818 0
M  V30 6859 H 655.852 1.96385 -4.9733 0
M  V30 6860 H 656.195 2.48306 -3.3414 0
M  V30 6861 H 656.728 0.872323 -3.88118 0
M  V30 6862 H 653.467 -0.523295 -6.53408 0
M  V30 6863 H 652.987 1.06841 -5.90208 0
M  V30 6864 H 654.666 0.781498 -6.42263 0
M  V30 6865 N 654.798 1.5699 0.138552 0
M  V30 6866 C 655.761 1.97984 1.15478 0
M  V30 6867 C 656.761 0.867416 1.35398 0
M  V30 6868 O 657.951 1.13387 1.32246 0
M  V30 6869 C 655.083 2.3031 2.51337 0
M  V30 6870 H 656.276 2.88953 0.802896 0
M  V30 6871 H 653.829 1.51555 0.382189 0
M  V30 6872 H 654.564 1.42159 2.91481 0
M  V30 6873 H 654.349 3.11425 2.38237 0
M  V30 6874 H 655.839 2.62834 3.24512 0
M  V30 6875 N 656.276 -0.40816 1.52223 0
M  V30 6876 C 657.239 -1.48 1.7501 0
M  V30 6877 C 658.239 -1.48367 0.619996 0
M  V30 6878 O 659.429 -1.49874 0.887881 0
M  V30 6879 C 656.561 -2.87403 1.83336 0
M  V30 6880 H 657.754 -1.29086 2.70697 0
M  V30 6881 H 655.307 -0.638715 1.42654 0
M  V30 6882 H 656.042 -3.11686 0.895677 0
M  V30 6883 H 655.827 -2.8854 2.65494 0
M  V30 6884 H 657.317 -3.65103 2.02705 0
M  V30 6885 N 657.755 -1.42862 -0.66545 0
M  V30 6886 C 658.98 -1.47456 -1.45848 0
M  V30 6887 C 659.405 -0.0900312 -1.87884 0
M  V30 6888 O 658.763 0.913587 -1.56599 0
M  V30 6889 C 658.811 -2.41514 -2.67774 0
M  V30 6890 O 657.915 -1.89296 -3.66389 0
M  V30 6891 H 657.256 -0.499236 -0.437789 0
M  V30 6892 H 659.786 -1.8765 -0.815394 0
M  V30 6893 H 659.796 -2.58409 -3.15735 0
M  V30 6894 H 658.471 -3.42099 -2.36519 0
M  V30 6895 H 657.048 -1.82003 -3.25468 0
M  V30 6896 N 659.233 0.902656 -1.29189 0
M  V30 6897 C 660.458 1.69167 -1.19989 0
M  V30 6898 C 660.883 1.86607 0.236495 0
M  V30 6899 O 660.241 1.38425 1.17082 0
M  V30 6900 C 660.289 3.05532 -1.91527 0
M  V30 6901 O 659.393 3.93621 -1.2303 0
M  V30 6902 H 658.734 0.517584 -0.415936 0
M  V30 6903 H 661.264 1.12785 -1.70706 0
M  V30 6904 H 661.274 3.55693 -1.99866 0
M  V30 6905 H 659.949 2.92156 -2.96003 0
M  V30 6906 H 658.526 3.52055 -1.22928 0
M  V30 6907 N 660.711 1.11618 1.11262 0
M  V30 6908 C 661.643 0.734015 2.17129 0
M  V30 6909 C 662.656 -0.235243 1.61091 0
M  V30 6910 O 663.845 -0.0178597 1.78491 0
M  V30 6911 C 660.945 0.0643682 3.38839 0
M  V30 6912 C 660.118 1.06092 4.24339 0
M  V30 6913 C 659.177 0.420482 5.24517 0
M  V30 6914 O 658.203 1.07495 5.58957 0
M  V30 6915 N 659.405 -0.815828 5.74739 0
M  V30 6916 H 662.17 1.64492 2.50524 0
M  V30 6917 H 659.731 1.00664 1.26801 0
M  V30 6918 H 661.723 -0.375851 4.02951 0
M  V30 6919 H 660.293 -0.749147 3.03491 0
M  V30 6920 H 659.513 1.67903 3.56654 0
M  V30 6921 H 660.801 1.73507 4.78302 0
M  V30 6922 H 660.199 -1.36668 5.48943 0
M  V30 6923 H 658.756 -1.199 6.40677 0
M  V30 6924 N 662.189 -1.289 0.906776 0
M  V30 6925 C 663.466 -1.90221 0.455537 0
M  V30 6926 C 663.846 -1.82251 -1.06527 0
M  V30 6927 O 663.194 -1.25385 -1.91026 0
M  V30 6928 C 663.404 -3.35015 0.97806 0
M  V30 6929 C 664.752 -4.12018 1.02598 0
M  V30 6930 O 665.776 -3.43947 0.926218 0
M  V30 6931 O 664.635 -5.33677 1.17689 0
M  V30 6932 H 661.729 -0.814505 0.143214 0
M  V30 6933 H 664.275 -1.37317 0.997104 0
M  V30 6934 H 663.047 -3.35006 2.02204 0
M  V30 6935 H 662.67 -3.95408 0.416914 0
M  V30 6936 N 663.667 -0.670007 -1.42649 0
M  V30 6937 C 664.892 -0.196955 -2.06463 0
M  V30 6938 C 665.317 1.1352 -1.49983 0
M  V30 6939 O 664.675 1.705 -0.616397 0
M  V30 6940 C 664.723 -0.137381 -3.60338 0
M  V30 6941 O 663.827 0.895523 -4.02559 0
M  V30 6942 H 663.168 -0.102579 -0.656029 0
M  V30 6943 H 665.698 -0.917669 -1.82866 0
M  V30 6944 H 665.708 0.0403625 -4.0798 0
M  V30 6945 H 664.383 -1.10977 -4.0082 0
M  V30 6946 H 662.96 0.689209 -3.66476 0
M  V30 6947 N 665.145 1.52092 -0.413018 0
M  V30 6948 C 666.391 2.02154 0.161737 0
M  V30 6949 C 666.724 1.29789 1.44459 0
M  V30 6950 O 665.999 0.405378 1.90229 0
M  V30 6951 C 666.282 3.5781 0.405463 0
M  V30 6952 C 666.135 4.40819 -0.894335 0
M  V30 6953 C 667.454 4.23821 1.18591 0
M  V30 6954 H 664.573 0.734769 0.0573077 0
M  V30 6955 H 667.215 1.81948 -0.547247 0
M  V30 6956 H 665.365 3.75158 1.0094 0
M  V30 6957 H 667.037 4.35175 -1.53039 0
M  V30 6958 H 665.28 4.06877 -1.50444 0
M  V30 6959 H 665.951 5.47819 -0.678144 0
M  V30 6960 H 668.427 4.10596 0.674573 0
M  V30 6961 H 667.303 5.32663 1.3252 0
M  V30 6962 H 667.564 3.83038 2.20758 0
M  V30 6963 N 666.623 0.143563 1.56945 0
M  V30 6964 C 667.871 -0.507402 1.95627 0
M  V30 6965 C 668.192 -1.65626 1.02922 0
M  V30 6966 O 667.462 -1.95693 0.0901136 0
M  V30 6967 H 666.042 -0.190436 0.722318 0
M  V30 6968 H 668.704 0.218257 1.93674 0
M  V30 6969 H 667.8 -0.885816 2.99265 0
M  V30 6970 N 668.101 -1.57061 -0.130224 0
M  V30 6971 C 669.517 -1.52103 -0.483413 0
M  V30 6972 C 669.717 -0.854752 -1.82473 0
M  V30 6973 O 668.773 -0.432342 -2.48771 0
M  V30 6974 C 670.086 -2.96872 -0.47825 0
M  V30 6975 C 671.634 -3.07902 -0.562592 0
M  V30 6976 C 672.109 -4.54211 -0.587929 0
M  V30 6977 N 673.6 -4.58621 -0.649684 0
M  V30 6978 C 674.335 -5.69227 -0.690551 0
M  V30 6979 N 673.831 -6.89358 -0.689743 0
M  V30 6980 N 675.624 -5.57304 -0.732708 0
M  V30 6981 H 667.775 -1.98764 0.748779 0
M  V30 6982 H 670.038 -0.907248 0.274965 0
M  V30 6983 H 669.744 -3.48944 0.439444 0
M  V30 6984 H 669.618 -3.53716 -1.31013 0
M  V30 6985 H 672.005 -2.5584 -1.47071 0
M  V30 6986 H 672.086 -2.54073 0.296764 0
M  V30 6987 H 671.73 -5.06915 0.316096 0
M  V30 6988 H 671.66 -5.0584 -1.46401 0
M  V30 6989 H 674.151 -3.72146 -0.656927 0
M  V30 6990 H 674.464 -7.69408 -0.723239 0
M  V30 6991 H 672.809 -6.91884 -0.657347 0
M  V30 6992 H 676 -4.62363 -0.730625 0
M  V30 6993 H 676.173 -6.43515 -0.76109 0
M  V30 6994 N 669.579 0.400081 -1.52437 0
M  V30 6995 C 670.825 1.14788 -1.67187 0
M  V30 6996 C 671.158 1.89928 -0.405074 0
M  V30 6997 O 670.433 1.85118 0.596804 0
M  V30 6998 C 670.716 2.13507 -2.89977 0
M  V30 6999 C 670.569 1.42204 -4.2673 0
M  V30 7000 C 671.888 3.14069 -3.083 0
M  V30 7001 H 669.007 0.415939 -0.608411 0
M  V30 7002 H 671.649 0.432542 -1.85011 0
M  V30 7003 H 669.799 2.7451 -2.74912 0
M  V30 7004 H 671.471 0.842503 -4.53541 0
M  V30 7005 H 669.714 0.723939 -4.27717 0
M  V30 7006 H 670.385 2.14281 -5.08712 0
M  V30 7007 H 672.861 2.63148 -3.22323 0
M  V30 7008 H 671.737 3.80398 -3.95713 0
M  V30 7009 H 671.998 3.82309 -2.22018 0
M  V30 7010 N 671.057 1.43213 0.657864 0
M  V30 7011 C 671.987 1.50815 1.78262 0
M  V30 7012 C 672.968 0.363211 1.66177 0
M  V30 7013 O 674.153 0.579806 1.85343 0
M  V30 7014 C 671.283 1.42625 3.16663 0
M  V30 7015 C 670.237 2.5532 3.43505 0
M  V30 7016 C 669.563 2.32184 4.81658 0
M  V30 7017 C 670.863 3.97583 3.38711 0
M  V30 7018 H 672.557 2.44954 1.72157 0
M  V30 7019 H 670.103 1.17896 0.82683 0
M  V30 7020 H 672.056 1.46548 3.95097 0
M  V30 7021 H 670.78 0.449877 3.23487 0
M  V30 7022 H 669.439 2.50742 2.6744 0
M  V30 7023 H 669.087 1.32801 4.85153 0
M  V30 7024 H 668.787 3.07724 5.00579 0
M  V30 7025 H 670.311 2.37883 5.62356 0
M  V30 7026 H 671.725 4.03673 4.07089 0
M  V30 7027 H 670.122 4.73112 3.69168 0
M  V30 7028 H 671.192 4.23049 2.36976 0
M  V30 7029 N 672.536 -0.895792 1.29666 0
M  V30 7030 C 673.952 -1.17726 1.07763 0
M  V30 7031 C 674.152 -2.00794 -0.168576 0
M  V30 7032 O 673.208 -2.37213 -0.865244 0
M  V30 7033 C 674.521 -1.89441 2.33522 0
M  V30 7034 C 676.069 -2.02251 2.3888 0
M  V30 7035 C 676.544 -2.77378 3.64452 0
M  V30 7036 N 678.035 -2.8493 3.65198 0
M  V30 7037 C 678.77 -3.43606 4.59045 0
M  V30 7038 N 678.266 -4.03417 5.63228 0
M  V30 7039 N 680.059 -3.41317 4.46608 0
M  V30 7040 H 672.21 -0.341652 2.09634 0
M  V30 7041 H 674.473 -0.213865 0.923561 0
M  V30 7042 H 674.179 -1.35842 3.24407 0
M  V30 7043 H 674.053 -2.89893 2.41334 0
M  V30 7044 H 676.44 -2.55025 1.4848 0
M  V30 7045 H 676.521 -1.0092 2.3505 0
M  V30 7046 H 676.165 -2.25279 4.55205 0
M  V30 7047 H 676.095 -3.79062 3.65541 0
M  V30 7048 H 678.586 -2.42453 2.89871 0
M  V30 7049 H 678.899 -4.46224 6.30955 0
M  V30 7050 H 677.244 -4.01868 5.67033 0
M  V30 7051 H 680.435 -2.93812 3.64407 0
M  V30 7052 H 680.608 -3.86751 5.1993 0
M  V30 7053 N 674.014 -1.12206 -1.10668 0
M  V30 7054 C 675.43 -0.857619 -1.346 0
M  V30 7055 C 675.63 0.513542 -1.94846 0
M  V30 7056 O 674.686 1.26273 -2.18658 0
M  V30 7057 C 675.999 -1.97212 -2.26998 0
M  V30 7058 C 677.547 -2.00272 -2.40542 0
M  V30 7059 C 678.022 -3.10948 -3.36267 0
M  V30 7060 N 679.513 -3.10375 -3.43834 0
M  V30 7061 C 680.248 -3.92651 -4.17867 0
M  V30 7062 N 679.744 -4.84911 -4.94807 0
M  V30 7063 N 681.537 -3.80798 -4.1346 0
M  V30 7064 H 673.688 -2.00558 -0.699306 0
M  V30 7065 H 675.951 -0.872612 -0.370477 0
M  V30 7066 H 675.657 -2.96002 -1.89936 0
M  V30 7067 H 675.531 -1.87521 -3.27286 0
M  V30 7068 H 677.918 -1.02103 -2.76874 0
M  V30 7069 H 677.999 -2.14037 -1.40077 0
M  V30 7070 H 677.643 -4.09348 -3.00661 0
M  V30 7071 H 677.573 -2.94421 -4.36605 0
M  V30 7072 H 680.064 -2.43536 -2.88961 0
M  V30 7073 H 680.377 -5.44207 -5.48688 0
M  V30 7074 H 678.722 -4.88926 -4.93939 0
M  V30 7075 H 681.913 -3.08058 -3.52445 0
M  V30 7076 H 682.086 -4.4515 -4.70898 0
M  V30 7077 N 675.492 1.28418 -0.913599 0
M  V30 7078 C 676.72 1.99106 -0.562536 0
M  V30 7079 C 677.135 1.68273 0.856137 0
M  V30 7080 O 676.492 0.935401 1.56705 0
M  V30 7081 C 676.543 3.5338 -0.761903 0
M  V30 7082 O 676.264 3.83127 -2.12475 0
M  V30 7083 C 677.765 4.41328 -0.417651 0
M  V30 7084 H 674.985 0.635798 -0.214481 0
M  V30 7085 H 677.529 1.63618 -1.22676 0
M  V30 7086 H 675.684 3.8713 -0.144676 0
M  V30 7087 H 676.098 4.77763 -2.16431 0
M  V30 7088 H 677.572 5.48642 -0.607919 0
M  V30 7089 H 678.049 4.34422 0.646108 0
M  V30 7090 H 678.655 4.13074 -1.01241 0
M  V30 7091 N 676.97 0.677563 1.42291 0
M  V30 7092 C 678.386 0.347376 1.55774 0
M  V30 7093 C 678.586 -1.14703 1.65667 0
M  V30 7094 O 677.642 -1.93252 1.62512 0
M  V30 7095 C 678.955 1.08011 2.80631 0
M  V30 7096 C 680.503 1.06271 2.94407 0
M  V30 7097 C 680.978 1.77683 4.22129 0
M  V30 7098 N 682.469 1.74564 4.29047 0
M  V30 7099 C 683.204 2.26673 5.26694 0
M  V30 7100 N 682.7 2.87176 6.30477 0
M  V30 7101 N 684.493 2.17032 5.18511 0
M  V30 7102 H 676.644 1.64703 1.34114 0
M  V30 7103 H 678.907 0.694038 0.645768 0
M  V30 7104 H 678.613 2.13518 2.79469 0
M  V30 7105 H 678.487 0.647115 3.71608 0
M  V30 7106 H 680.874 0.0159658 2.95096 0
M  V30 7107 H 680.955 1.53461 2.04654 0
M  V30 7108 H 680.599 2.82327 4.22201 0
M  V30 7109 H 680.529 1.2794 5.10822 0
M  V30 7110 H 683.02 1.30436 3.54676 0
M  V30 7111 H 683.333 3.24551 7.01346 0
M  V30 7112 H 681.678 2.91247 6.31031 0
M  V30 7113 H 684.869 1.69451 4.36353 0
M  V30 7114 H 685.042 2.57948 5.94446 0
M  V30 7115 N 678.448 -1.51871 0.421078 0
M  V30 7116 C 679.697 -2.01125 -0.152206 0
M  V30 7117 C 680.01 -1.3106 -1.45199 0
M  V30 7118 O 681.216 -1.71195 -2.10724 0
M  V30 7119 C 679.672 -3.58458 -0.3218 0
M  V30 7120 C 679.28 -4.37448 0.96659 0
M  V30 7121 C 681.024 -4.15908 -0.84973 0
M  V30 7122 C 678.931 -5.86451 0.763529 0
M  V30 7123 H 677.861 -0.751556 -0.0606565 0
M  V30 7124 H 680.512 -1.75115 0.548354 0
M  V30 7125 H 678.894 -3.80847 -1.08498 0
M  V30 7126 H 680.068 -4.26814 1.73684 0
M  V30 7127 H 678.383 -3.91373 1.42183 0
M  V30 7128 H 680.98 -5.24922 -1.01788 0
M  V30 7129 H 681.323 -3.74031 -1.82774 0
M  V30 7130 H 681.856 -3.97535 -0.145297 0
M  V30 7131 H 678.595 -6.3271 1.71344 0
M  V30 7132 H 678.115 -5.99791 0.0327889 0
M  V30 7133 H 679.794 -6.45697 0.410354 0
M  V30 7134 N 679.926 -0.151884 -1.56866 0
M  V30 7135 C 680.889 0.771861 -2.15812 0
M  V30 7136 C 681.889 1.17181 -1.10115 0
M  V30 7137 O 683.079 1.09194 -1.35729 0
M  V30 7138 C 680.211 2.04806 -2.7252 0
M  V30 7139 H 681.404 0.259021 -2.98779 0
M  V30 7140 H 678.957 0.097588 -1.55995 0
M  V30 7141 H 679.692 2.60445 -1.93233 0
M  V30 7142 H 679.477 1.77044 -3.49854 0
M  V30 7143 H 680.967 2.70771 -3.1792 0
M  V30 7144 N 681.404 1.57128 0.121893 0
M  V30 7145 C 682.351 2.0013 1.14964 0
M  V30 7146 C 683.321 0.872959 1.4131 0
M  V30 7147 O 684.506 1.13696 1.53225 0
M  V30 7148 C 681.646 2.40824 2.4718 0
M  V30 7149 C 680.759 3.67061 2.27794 0
M  V30 7150 C 679.894 3.96749 3.53219 0
M  V30 7151 C 678.933 5.16178 3.28978 0
M  V30 7152 N 678.07 5.41751 4.46599 0
M  V30 7153 H 682.91 2.8772 0.775947 0
M  V30 7154 H 680.447 1.42328 0.371652 0
M  V30 7155 H 682.405 2.62454 3.24305 0
M  V30 7156 H 681.035 1.56279 2.82448 0
M  V30 7157 H 680.087 3.53063 1.416 0
M  V30 7158 H 681.399 4.5434 2.05857 0
M  V30 7159 H 680.553 4.19012 4.38764 0
M  V30 7160 H 679.292 3.07941 3.78185 0
M  V30 7161 H 678.297 4.93762 2.41824 0
M  V30 7162 H 679.522 6.06561 3.05386 0
M  V30 7163 H 677.468 4.55899 4.71691 0
M  V30 7164 H 677.385 6.23347 4.27756 0
M  V30 7165 H 678.653 5.68531 5.33285 0
M  V30 7166 N 682.882 -0.391992 1.52647 0
M  V30 7167 C 683.83 -1.4991 1.77848 0
M  V30 7168 C 684.824 -1.56587 0.646282 0
M  V30 7169 O 686.03 -1.59789 0.828698 0
M  V30 7170 H 682.405 -0.498883 0.56269 0
M  V30 7171 H 684.376 -1.25847 2.70564 0
M  V30 7172 C 683.125 -2.87081 1.96163 0
M  V30 7173 H 682.448 -2.82692 2.82711 0
M  V30 7174 H 683.888 -3.63792 2.17787 0
M  V30 7175 C 682.347 -3.28822 0.733348 0
M  V30 7176 O 682.877 -4.01598 -0.0906481 0
M  V30 7177 N 681.083 -2.85068 0.564317 0
M  V30 7178 H 680.63 -2.26012 1.23598 0
M  V30 7179 H 680.588 -3.13355 -0.256166 0
M  V30 7180 N 684.36 -1.4356 -0.65026 0
M  V30 7181 C 685.29 -1.51758 -1.77459 0
M  V30 7182 C 686.271 -0.372019 -1.65982 0
M  V30 7183 O 687.456 -0.589627 -1.85033 0
M  V30 7184 C 684.586 -1.44302 -3.15902 0
M  V30 7185 C 683.54 -2.57138 -3.42146 0
M  V30 7186 C 682.866 -2.34735 -4.8042 0
M  V30 7187 C 684.166 -3.99373 -3.36598 0
M  V30 7188 H 685.86 -2.45863 -1.70855 0
M  V30 7189 H 683.406 -1.18333 -0.820566 0
M  V30 7190 H 685.359 -1.48641 -3.94314 0
M  V30 7191 H 684.083 -0.467026 -3.23244 0
M  V30 7192 H 682.742 -2.52157 -2.66106 0
M  V30 7193 H 682.39 -1.35372 -4.84441 0
M  V30 7194 H 682.09 -3.10375 -4.9894 0
M  V30 7195 H 683.614 -2.40862 -5.61086 0
M  V30 7196 H 685.028 -4.05826 -4.04942 0
M  V30 7197 H 683.425 -4.75063 -3.66654 0
M  V30 7198 H 684.495 -4.243 -2.34729 0
M  V30 7199 N 685.838 0.888903 -1.30139 0
M  V30 7200 C 686.748 2.02705 -1.18101 0
M  V30 7201 C 687.764 1.73702 -0.101809 0
M  V30 7202 O 688.94 1.98906 -0.315984 0
M  V30 7203 C 686.005 3.35616 -0.869651 0
M  V30 7204 C 685.066 3.78067 -2.03381 0
M  V30 7205 C 684.299 5.04635 -1.73721 0
M  V30 7206 O 684.522 5.66531 -0.663267 0
M  V30 7207 O 683.456 5.43399 -2.58845 0
M  V30 7208 H 687.282 2.15788 -2.13704 0
M  V30 7209 H 684.867 1.01426 -1.09695 0
M  V30 7210 H 686.749 4.15358 -0.711043 0
M  V30 7211 H 685.424 3.23651 0.0565002 0
M  V30 7212 H 684.331 2.99046 -2.24772 0
M  V30 7213 H 685.664 3.94631 -2.94155 0
M  V30 7214 N 687.317 1.12792 1.10072 0
M  V30 7215 C 688.247 0.821688 2.18565 0
M  V30 7216 C 689.228 -0.21612 1.68721 0
M  V30 7217 O 690.413 -0.0764932 1.94049 0
M  V30 7218 C 687.543 0.279624 3.46172 0
M  V30 7219 C 686.497 1.25092 4.09312 0
M  V30 7220 C 685.823 0.568916 5.31665 0
M  V30 7221 C 687.123 2.60699 4.52585 0
M  V30 7222 H 688.817 1.72888 2.44438 0
M  V30 7223 H 686.363 0.832702 1.17482 0
M  V30 7224 H 688.316 0.053099 4.21367 0
M  V30 7225 H 687.04 -0.662929 3.19801 0
M  V30 7226 H 685.699 1.46332 3.36129 0
M  V30 7227 H 685.347 -0.378898 5.01571 0
M  V30 7228 H 685.047 1.21687 5.74862 0
M  V30 7229 H 686.571 0.351517 6.09587 0
M  V30 7230 H 687.985 2.43465 5.19035 0
M  V30 7231 H 686.382 3.21608 5.06644 0
M  V30 7232 H 687.452 3.1886 3.65317 0
M  V30 7233 N 688.795 -1.27931 0.920396 0
M  V30 7234 C 689.705 -2.30824 0.419212 0
M  V30 7235 C 690.721 -1.66767 -0.496461 0
M  V30 7236 O 691.897 -1.97763 -0.38104 0
M  V30 7237 C 688.962 -3.45158 -0.326601 0
M  V30 7238 C 688.023 -4.24754 0.623098 0
M  V30 7239 C 687.256 -5.33629 -0.0872172 0
M  V30 7240 O 687.479 -5.55204 -1.30784 0
M  V30 7241 O 686.413 -5.99091 0.580875 0
M  V30 7242 H 690.239 -2.75716 1.27337 0
M  V30 7243 H 687.824 -1.32747 0.685465 0
M  V30 7244 H 689.706 -4.14716 -0.747559 0
M  V30 7245 H 688.381 -3.02336 -1.15648 0
M  V30 7246 H 687.288 -3.57759 1.09359 0
M  V30 7247 H 688.621 -4.71272 1.41998 0
M  V30 7248 N 690.273 -0.685099 -1.4193 0
M  V30 7249 C 691.205 0.0258679 -2.29185 0
M  V30 7250 C 692.218 0.755076 -1.44231 0
M  V30 7251 O 693.407 0.60752 -1.67844 0
M  V30 7252 C 690.507 1.06055 -3.21878 0
M  V30 7253 C 689.68 0.403088 -4.35539 0
M  V30 7254 C 688.739 1.33895 -5.0888 0
M  V30 7255 O 687.765 0.835326 -5.63037 0
M  V30 7256 N 688.967 2.6718 -5.15359 0
M  V30 7257 H 691.732 -0.723201 -2.90843 0
M  V30 7258 H 689.293 -0.53031 -1.52968 0
M  V30 7259 H 691.285 1.68813 -3.6781 0
M  V30 7260 H 689.855 1.71126 -2.616 0
M  V30 7261 H 689.075 -0.404185 -3.92122 0
M  V30 7262 H 690.363 -0.0545098 -5.08771 0
M  V30 7263 H 689.761 3.10626 -4.72788 0
M  V30 7264 H 688.318 3.25159 -5.64903 0
M  V30 7265 N 691.751 1.51645 -0.429126 0
M  V30 7266 C 692.997 2.02314 0.140286 0
M  V30 7267 C 693.33 1.31314 1.43074 0
M  V30 7268 O 692.605 0.425531 1.89788 0
M  V30 7269 C 692.888 3.5822 0.36749 0
M  V30 7270 C 692.741 4.39846 -0.941039 0
M  V30 7271 C 694.06 4.25055 1.14089 0
M  V30 7272 H 691.179 0.735335 0.0495112 0
M  V30 7273 H 693.821 1.81358 -0.566514 0
M  V30 7274 H 691.971 3.76207 0.969556 0
M  V30 7275 H 693.643 4.33527 -1.57646 0
M  V30 7276 H 691.886 4.05259 -1.54751 0
M  V30 7277 H 692.557 5.47069 -0.73621 0
M  V30 7278 H 695.033 4.11288 0.630986 0
M  V30 7279 H 693.909 5.34038 1.26863 0
M  V30 7280 H 694.17 3.85358 2.16683 0
M  V30 7281 N 693.229 0.160201 1.56784 0
M  V30 7282 C 694.457 -0.494165 2.00912 0
M  V30 7283 C 694.872 -1.57548 1.04038 0
M  V30 7284 O 694.229 -1.82457 0.0394581 0
M  V30 7285 C 694.28 -1.08271 3.44905 0
M  V30 7286 O 694.001 -0.0445704 4.38077 0
M  V30 7287 C 695.502 -1.8164 4.04378 0
M  V30 7288 H 692.722 -0.127498 0.658776 0
M  V30 7289 H 695.266 0.258665 2.02858 0
M  V30 7290 H 693.421 -1.78609 3.4377 0
M  V30 7291 H 693.835 -0.477544 5.22322 0
M  V30 7292 H 695.309 -2.18094 5.07089 0
M  V30 7293 H 695.786 -2.70727 3.45838 0
M  V30 7294 H 696.392 -1.15969 4.09184 0
M  V30 7295 N 694.707 -1.5719 -0.113559 0
M  V30 7296 C 695.953 -1.85412 -0.821597 0
M  V30 7297 C 696.286 -0.746722 -1.7927 0
M  V30 7298 O 695.561 0.246971 -1.92926 0
M  V30 7299 C 695.844 -3.24233 -1.56669 0
M  V30 7300 C 695.697 -4.45578 -0.614823 0
M  V30 7301 C 697.016 -3.60697 -2.52161 0
M  V30 7302 H 694.135 -0.674406 -0.29723 0
M  V30 7303 H 696.777 -1.89807 -0.085694 0
M  V30 7304 H 694.927 -3.20617 -2.19401 0
M  V30 7305 H 696.599 -4.613 0.00407137 0
M  V30 7306 H 694.842 -4.33738 0.0732332 0
M  V30 7307 H 695.513 -5.39395 -1.17292 0
M  V30 7308 H 697.989 -3.65139 -1.99532 0
M  V30 7309 H 696.865 -4.58798 -3.01323 0
M  V30 7310 H 697.126 -2.88403 -3.35076 0
M  V30 7311 N 696.185 0.383891 -1.52853 0
M  V30 7312 C 697.596 0.961591 -1.60032 0
M  V30 7313 C 697.947 1.90819 -0.456333 0
M  V30 7314 O 697.072 2.12288 0.419873 0
M  V30 7315 C 697.667 1.75078 -2.90057 0
M  V30 7316 C 696.226 2.2781 -2.99632 0
M  V30 7317 C 695.373 1.08512 -2.55187 0
M  V30 7318 H 698.324 0.163269 -1.57858 0
M  V30 7319 H 698.345 2.61046 -2.7683 0
M  V30 7320 H 697.857 1.06157 -3.73299 0
M  V30 7321 H 695.958 3.00028 -2.20939 0
M  V30 7322 H 696.071 2.56947 -4.0437 0
M  V30 7323 H 694.435 1.44667 -2.09627 0
M  V30 7324 H 695.218 0.41118 -3.40829 0
M  V30 7325 N 697.663 1.43903 0.642637 0
M  V30 7326 C 698.912 1.45362 1.39831 0
M  V30 7327 C 699.225 0.0856289 1.95412 0
M  V30 7328 O 700.431 -0.0222856 2.71491 0
M  V30 7329 C 698.887 2.55857 2.53111 0
M  V30 7330 C 698.495 3.98811 2.04092 0
M  V30 7331 C 700.239 2.66524 3.30402 0
M  V30 7332 C 698.146 5.00751 3.14647 0
M  V30 7333 H 697.076 0.540777 0.52543 0
M  V30 7334 H 699.727 1.69929 0.692559 0
M  V30 7335 H 698.109 2.2451 3.26207 0
M  V30 7336 H 699.283 4.3967 1.37938 0
M  V30 7337 H 697.598 3.92284 1.39651 0
M  V30 7338 H 700.195 3.39858 4.12796 0
M  V30 7339 H 700.538 1.71949 3.79129 0
M  V30 7340 H 701.071 2.97224 2.64392 0
M  V30 7341 H 697.81 5.96914 2.70876 0
M  V30 7342 H 697.33 4.64495 3.79479 0
M  V30 7343 H 699.009 5.23933 3.79609 0
M  V30 7344 N 699.141 -0.881989 1.30609 0
M  V30 7345 C 700.389 -1.63082 1.19368 0
M  V30 7346 C 700.71 -1.93376 -0.251147 0
M  V30 7347 O 699.98 -1.5723 -1.16857 0
M  V30 7348 H 698.56 -0.604542 0.438791 0
M  V30 7349 H 701.222 -1.05658 1.63776 0
M  V30 7350 H 700.318 -2.57966 1.7567 0
M  V30 7351 N 700.619 -1.13374 -1.09472 0
M  V30 7352 C 701.865 -0.896516 -1.81908 0
M  V30 7353 C 702.198 0.575933 -1.85463 0
M  V30 7354 O 701.473 1.42618 -1.32251 0
M  V30 7355 C 701.756 -1.48445 -3.28079 0
M  V30 7356 C 701.609 -3.02598 -3.32798 0
M  V30 7357 C 702.928 -1.15226 -4.24748 0
M  V30 7358 H 700.047 -0.327127 -0.660422 0
M  V30 7359 H 702.689 -1.40195 -1.2824 0
M  V30 7360 H 700.839 -1.0546 -3.73912 0
M  V30 7361 H 702.511 -3.54335 -2.95372 0
M  V30 7362 H 700.754 -3.37613 -2.72397 0
M  V30 7363 H 701.425 -3.38835 -4.3577 0
M  V30 7364 H 703.901 -1.52369 -3.87199 0
M  V30 7365 H 702.777 -1.59012 -5.25363 0
M  V30 7366 H 703.038 -0.0658891 -4.42051 0
M  V30 7367 N 702.098 1.27442 -0.927168 0
M  V30 7368 C 703.028 2.29256 -0.443188 0
M  V30 7369 C 704.009 1.62701 0.49624 0
M  V30 7370 O 705.194 1.90013 0.401105 0
M  V30 7371 C 702.324 3.45955 0.305366 0
M  V30 7372 C 701.278 4.24501 -0.546178 0
M  V30 7373 C 700.604 5.33671 0.331512 0
M  V30 7374 C 701.904 4.89921 -1.81037 0
M  V30 7375 H 703.598 2.69988 -1.29409 0
M  V30 7376 H 701.144 1.29792 -0.623705 0
M  V30 7377 H 703.097 4.1628 0.654885 0
M  V30 7378 H 701.821 3.04138 1.19029 0
M  V30 7379 H 700.48 3.55921 -0.878398 0
M  V30 7380 H 700.128 4.88096 1.21537 0
M  V30 7381 H 699.828 5.87131 -0.234746 0
M  V30 7382 H 701.352 6.0684 0.676614 0
M  V30 7383 H 702.766 5.52536 -1.52895 0
M  V30 7384 H 701.163 5.53436 -2.32009 0
M  V30 7385 H 702.233 4.13652 -2.53021 0
M  V30 7386 N 703.576 0.692616 1.41565 0
M  V30 7387 C 704.506 0.0397325 2.33466 0
M  V30 7388 C 705.487 -0.770334 1.51657 0
M  V30 7389 O 706.672 -0.723903 1.80203 0
M  V30 7390 C 703.802 -0.899495 3.3545 0
M  V30 7391 C 702.756 -0.196738 4.27548 0
M  V30 7392 C 702.082 -1.25012 5.19881 0
M  V30 7393 C 703.382 0.935158 5.1386 0
M  V30 7394 H 705.076 0.807296 2.88311 0
M  V30 7395 H 702.622 0.389665 1.38628 0
M  V30 7396 H 704.575 -1.36545 3.98665 0
M  V30 7397 H 703.299 -1.69869 2.78948 0
M  V30 7398 H 701.958 0.249158 3.65752 0
M  V30 7399 H 701.606 -2.04177 4.59696 0
M  V30 7400 H 701.306 -0.784931 5.82334 0
M  V30 7401 H 702.83 -1.71665 5.85972 0
M  V30 7402 H 704.244 0.549619 5.70659 0
M  V30 7403 H 702.641 1.32726 5.85238 0
M  V30 7404 H 703.711 1.77613 4.512 0
M  V30 7405 N 705.054 -1.51416 0.437162 0
M  V30 7406 C 706.3 -2.02386 -0.129555 0
M  V30 7407 C 706.633 -1.32071 -1.42376 0
M  V30 7408 O 705.908 -0.43559 -1.8956 0
M  V30 7409 C 706.191 -3.5841 -0.348487 0
M  V30 7410 C 706.044 -4.39341 0.964352 0
M  V30 7411 C 707.363 -4.25654 -1.11834 0
M  V30 7412 H 704.482 -0.735587 -0.0456109 0
M  V30 7413 H 707.124 -1.81055 0.576124 0
M  V30 7414 H 705.274 -3.76716 -0.949592 0
M  V30 7415 H 706.946 -4.32685 1.59942 0
M  V30 7416 H 705.189 -4.04432 1.56898 0
M  V30 7417 H 705.86 -5.4667 0.765212 0
M  V30 7418 H 708.336 -4.11617 -0.609165 0
M  V30 7419 H 707.212 -5.34704 -1.24029 0
M  V30 7420 H 707.473 -3.86502 -2.14636 0
M  V30 7421 N 706.532 -0.168513 -1.56696 0
M  V30 7422 C 707.781 0.477233 -1.95973 0
M  V30 7423 C 708.094 1.64578 -1.05704 0
M  V30 7424 O 709.3 2.35758 -1.3465 0
M  V30 7425 C 707.756 0.900413 -3.48455 0
M  V30 7426 C 707.364 -0.242382 -4.47344 0
M  V30 7427 C 709.108 1.51474 -3.96555 0
M  V30 7428 C 707.015 0.200272 -5.91061 0
M  V30 7429 H 705.945 0.182061 -0.73169 0
M  V30 7430 H 708.596 -0.256297 -1.81701 0
M  V30 7431 H 706.978 1.68984 -3.58135 0
M  V30 7432 H 708.152 -1.01967 -4.49377 0
M  V30 7433 H 706.467 -0.766484 -4.09285 0
M  V30 7434 H 709.064 1.85792 -5.01384 0
M  V30 7435 H 709.407 2.41163 -3.39332 0
M  V30 7436 H 709.94 0.789802 -3.89881 0
M  V30 7437 H 706.679 -0.661775 -6.52151 0
M  V30 7438 H 706.199 0.942979 -5.92341 0
M  V30 7439 H 707.878 0.645088 -6.43776 0
M  V30 7440 N 708.01 1.57248 0.105221 0
M  V30 7441 C 709.257 1.8557 0.810552 0
M  V30 7442 C 709.585 0.755595 1.79223 0
M  V30 7443 O 708.84 -0.251788 1.94073 0
M  V30 7444 C 709.139 3.20437 1.58287 0
M  V30 7445 C 708.805 4.44716 0.744235 0
M  V30 7446 C 707.467 4.78458 0.513013 0
M  V30 7447 C 709.819 5.20953 0.160578 0
M  V30 7448 C 707.147 5.8587 -0.311894 0
M  V30 7449 C 709.499 6.29235 -0.651596 0
M  V30 7450 C 708.163 6.615 -0.893005 0
M  V30 7451 H 707.433 0.67905 0.296602 0
M  V30 7452 H 710.08 1.91363 0.0723968 0
M  V30 7453 H 708.385 3.10283 2.39232 0
M  V30 7454 H 710.082 3.39576 2.13282 0
M  V30 7455 H 706.672 4.18287 0.934555 0
M  V30 7456 H 710.856 4.95226 0.3264 0
M  V30 7457 H 706.112 6.09286 -0.508012 0
M  V30 7458 H 710.286 6.87484 -1.11077 0
M  V30 7459 H 707.913 7.44562 -1.53401 0
M  V30 7460 N 709.488 -0.375779 1.53054 0
M  V30 7461 C 710.398 -1.48381 1.81715 0
M  V30 7462 C 711.414 -1.59087 0.704795 0
M  V30 7463 O 712.59 -1.75174 0.993785 0
M  V30 7464 C 709.655 -2.83767 1.99192 0
M  V30 7465 C 708.716 -2.82673 3.23102 0
M  V30 7466 C 707.949 -4.11601 3.39736 0
M  V30 7467 O 708.172 -5.07243 2.60885 0
M  V30 7468 O 707.106 -4.18034 4.33049 0
M  V30 7469 H 710.932 -1.27089 2.7583 0
M  V30 7470 H 708.517 -0.564902 1.38308 0
M  V30 7471 H 710.399 -3.64004 2.12318 0
M  V30 7472 H 709.074 -3.05057 1.08267 0
M  V30 7473 H 707.981 -2.0117 3.15407 0
M  V30 7474 H 709.314 -2.66335 4.13916 0
M  V30 7475 N 710.966 -1.44241 -0.634997 0
M  V30 7476 C 712.191 -1.50516 -1.42687 0
M  V30 7477 C 712.616 -0.129864 -1.87651 0
M  V30 7478 O 711.974 0.880164 -1.58502 0
M  V30 7479 C 712.022 -2.4714 -2.62591 0
M  V30 7480 O 711.126 -1.97025 -3.62291 0
M  V30 7481 H 710.467 -0.50841 -0.427101 0
M  V30 7482 H 712.997 -1.89337 -0.775408 0
M  V30 7483 H 713.007 -2.65048 -3.10183 0
M  V30 7484 H 711.682 -3.47039 -2.29209 0
M  V30 7485 H 710.259 -1.88866 -3.21534 0
M  V30 7486 N 712.444 0.87505 -1.31075 0
M  V30 7487 C 713.86 1.15997 -1.09622 0
M  V30 7488 C 714.06 2.01036 0.136611 0
M  V30 7489 O 713.116 2.38559 0.827397 0
M  V30 7490 C 714.429 1.85702 -2.36506 0
M  V30 7491 C 715.977 1.98425 -2.42067 0
M  V30 7492 C 716.452 2.71544 -3.68819 0
M  V30 7493 N 717.943 2.79084 -3.69684 0
M  V30 7494 C 718.678 3.36259 -4.64454 0
M  V30 7495 N 718.174 3.94406 -5.69575 0
M  V30 7496 N 719.967 3.34169 -4.51982 0
M  V30 7497 H 712.118 0.308258 -2.10151 0
M  V30 7498 H 714.381 0.199145 -0.926847 0
M  V30 7499 H 714.087 1.30663 -3.26527 0
M  V30 7500 H 713.961 2.86017 -2.45915 0
M  V30 7501 H 716.348 2.5263 -1.52518 0
M  V30 7502 H 716.429 0.971682 -2.36626 0
M  V30 7503 H 716.073 2.18008 -4.58732 0
M  V30 7504 H 716.003 3.73198 -3.71525 0
M  V30 7505 H 718.494 2.3781 -2.93691 0
M  V30 7506 H 718.807 4.36129 -6.37974 0
M  V30 7507 H 717.152 3.92797 -5.73355 0
M  V30 7508 H 720.343 2.87977 -3.69035 0
M  V30 7509 H 720.516 3.78431 -5.26017 0
M  V30 7510 N 713.922 1.13953 1.08869 0
M  V30 7511 C 715.333 0.916649 1.62648 0
M  V30 7512 C 715.684 -0.545589 1.88462 0
M  V30 7513 O 714.809 -1.41351 1.63856 0
M  V30 7514 C 715.404 1.65751 2.95486 0
M  V30 7515 C 713.963 1.48034 3.46068 0
M  V30 7516 C 713.11 1.68305 2.20383 0
M  V30 7517 H 716.061 1.292 0.921572 0
M  V30 7518 H 716.082 1.11794 3.63707 0
M  V30 7519 H 715.594 2.72171 2.76667 0
M  V30 7520 H 713.695 0.439416 3.7 0
M  V30 7521 H 713.808 2.24719 4.23129 0
M  V30 7522 H 712.172 1.10833 2.29321 0
M  V30 7523 H 712.955 2.76057 2.04077 0
M  V30 7524 N 715.4 -1.26948 0.933913 0
M  V30 7525 C 716.677 -1.89212 0.495784 0
M  V30 7526 C 717.057 -1.84469 -1.02637 0
M  V30 7527 O 716.405 -1.29409 -1.88323 0
M  V30 7528 C 716.615 -3.32865 1.0489 0
M  V30 7529 C 717.963 -4.09749 1.11315 0
M  V30 7530 O 718.987 -3.41905 0.998966 0
M  V30 7531 O 717.846 -5.31061 1.28983 0
M  V30 7532 H 714.94 -0.811284 0.160459 0
M  V30 7533 H 717.486 -1.35171 1.02601 0
M  V30 7534 H 716.258 -3.30642 2.09265 0
M  V30 7535 H 715.881 -3.94435 0.500692 0
M  V30 7536 N 716.879 -0.700114 -1.41195 0
M  V30 7537 C 718.119 -0.237223 -2.03019 0
M  V30 7538 C 718.483 1.14304 -1.54268 0
M  V30 7539 O 719.684 1.70204 -2.08048 0
M  V30 7540 C 717.955 -0.297442 -3.5616 0
M  V30 7541 S 719.514 0.0907367 -4.38706 0
M  V30 7542 H 716.332 -0.0952147 -0.704596 0
M  V30 7543 H 718.934 -0.918901 -1.72559 0
M  V30 7544 H 717.638 -1.30391 -3.89135 0
M  V30 7545 H 717.169 0.403233 -3.91328 0
M  V30 7546 H 719.184 1.31721 -4.78397 0
M  V30 7547 N 718.357 1.51182 -0.445186 0
M  V30 7548 C 719.287 2.30821 0.352686 0
M  V30 7549 C 720.268 1.36576 1.01395 0
M  V30 7550 O 721.453 1.65497 1.01609 0
M  V30 7551 C 718.583 3.15593 1.44976 0
M  V30 7552 C 717.537 4.1818 0.911553 0
M  V30 7553 C 716.863 4.91523 2.10497 0
M  V30 7554 C 718.163 5.22266 -0.059418 0
M  V30 7555 H 719.857 2.97771 -0.311936 0
M  V30 7556 H 717.403 1.43201 -0.151461 0
M  V30 7557 H 719.356 3.70091 2.01521 0
M  V30 7558 H 718.08 2.4648 2.14278 0
M  V30 7559 H 716.739 3.64746 0.368264 0
M  V30 7560 H 716.387 4.18906 2.78437 0
M  V30 7561 H 716.087 5.60898 1.7512 0
M  V30 7562 H 717.611 5.48847 2.6758 0
M  V30 7563 H 719.025 5.71789 0.415985 0
M  V30 7564 H 717.422 5.99213 -0.326152 0
M  V30 7565 H 718.492 4.7461 -0.993631 0
M  V30 7566 N 719.835 0.176821 1.56605 0
M  V30 7567 C 721.246 -0.338963 1.83597 0
M  V30 7568 C 721.597 -1.62677 1.09684 0
M  V30 7569 O 720.722 -2.13524 0.351661 0
M  V30 7570 C 721.317 -0.62177 3.33046 0
M  V30 7571 C 719.876 -1.08198 3.60514 0
M  V30 7572 C 719.023 -0.120774 2.77037 0
M  V30 7573 H 721.974 0.400978 1.53551 0
M  V30 7574 H 721.995 -1.47321 3.50823 0
M  V30 7575 H 721.507 0.315692 3.86814 0
M  V30 7576 H 719.608 -2.03435 3.12162 0
M  V30 7577 H 719.721 -0.987329 4.68816 0
M  V30 7578 H 718.085 -0.619192 2.47059 0
M  V30 7579 H 718.868 0.810806 3.33588 0
M  V30 7580 N 721.313 -1.57302 -0.09688 0
M  V30 7581 C 722.245 -1.98618 -1.14384 0
M  V30 7582 C 723.258 -0.888483 -1.36418 0
M  V30 7583 O 724.447 -1.16661 -1.35101 0
M  V30 7584 C 721.547 -2.28838 -2.49973 0
M  V30 7585 C 720.72 -3.60132 -2.48241 0
M  V30 7586 C 719.779 -3.7831 -3.65743 0
M  V30 7587 O 718.805 -4.50183 -3.48316 0
M  V30 7588 N 720.007 -3.18752 -4.85157 0
M  V30 7589 H 722.772 -2.8904 -0.792202 0
M  V30 7590 H 720.333 -1.59356 -0.285883 0
M  V30 7591 H 722.325 -2.38193 -3.27179 0
M  V30 7592 H 720.895 -1.44431 -2.77233 0
M  V30 7593 H 720.115 -3.61763 -1.56593 0
M  V30 7594 H 721.403 -4.46389 -2.4416 0
M  V30 7595 H 720.801 -2.60368 -5.0222 0
M  V30 7596 H 719.358 -3.33595 -5.59962 0
M  V30 7597 N 722.791 0.367657 -1.53252 0
M  V30 7598 C 724.037 1.11216 -1.69584 0
M  V30 7599 C 724.37 1.89026 -0.445269 0
M  V30 7600 O 723.645 1.86342 0.557404 0
M  V30 7601 C 723.928 2.07308 -2.94441 0
M  V30 7602 C 723.781 1.3312 -4.2965 0
M  V30 7603 C 725.1 3.07459 -3.14892 0
M  V30 7604 H 722.219 0.40294 -0.617096 0
M  V30 7605 H 724.861 0.393201 -1.85887 0
M  V30 7606 H 723.011 2.68617 -2.80673 0
M  V30 7607 H 724.683 0.746111 -4.55226 0
M  V30 7608 H 722.926 0.633051 -4.29156 0
M  V30 7609 H 723.597 2.03443 -5.13142 0
M  V30 7610 H 726.073 2.56252 -3.27832 0
M  V30 7611 H 724.949 3.71919 -4.03693 0
M  V30 7612 H 725.21 3.77514 -2.30077 0
M  V30 7613 N 724.269 1.44576 0.627338 0
M  V30 7614 C 725.232 1.51372 1.72102 0
M  V30 7615 C 726.232 0.395329 1.55865 0
M  V30 7616 O 727.422 0.658094 1.61291 0
M  V30 7617 C 724.554 1.39129 3.11217 0
M  V30 7618 H 725.747 2.48798 1.6745 0
M  V30 7619 H 723.3 1.31724 0.841336 0
M  V30 7620 H 724.035 0.428114 3.21462 0
M  V30 7621 H 723.82 2.20229 3.24409 0
M  V30 7622 H 725.31 1.46874 3.90919 0
M  V30 7623 N 725.747 -0.868086 1.31537 0
M  V30 7624 C 726.71 -1.95703 1.19302 0
M  V30 7625 C 727.71 -1.60355 0.119612 0
M  V30 7626 O 728.9 -1.70247 0.36902 0
M  V30 7627 C 726.032 -3.30599 0.831684 0
M  V30 7628 H 727.225 -2.07982 2.16064 0
M  V30 7629 H 724.778 -1.05661 1.15176 0
M  V30 7630 H 725.513 -3.2402 -0.134694 0
M  V30 7631 H 725.298 -3.57629 1.60761 0
M  V30 7632 H 726.788 -4.10439 0.770026 0
M  V30 7633 N 727.225 -1.14528 -1.08264 0
M  V30 7634 C 728.155 -0.856356 -2.1723 0
M  V30 7635 C 729.136 0.189251 -1.69044 0
M  V30 7636 O 730.321 0.0456119 -1.94146 0
M  V30 7637 C 727.451 -0.334662 -3.45684 0
M  V30 7638 C 726.405 -1.31588 -4.0727 0
M  V30 7639 C 725.731 -0.653428 -5.30692 0
M  V30 7640 C 727.031 -2.67866 -4.48381 0
M  V30 7641 H 728.725 -1.76755 -2.41657 0
M  V30 7642 H 726.271 -0.851287 -1.16143 0
M  V30 7643 H 728.224 -0.120128 -4.21229 0
M  V30 7644 H 726.948 0.611967 -3.20815 0
M  V30 7645 H 725.607 -1.51661 -3.33758 0
M  V30 7646 H 725.255 0.299054 -5.0211 0
M  V30 7647 H 724.955 -1.30817 -5.72853 0
M  V30 7648 H 726.479 -0.448453 -6.08951 0
M  V30 7649 H 727.893 -2.51692 -5.15096 0
M  V30 7650 H 726.29 -3.29627 -5.01464 0
M  V30 7651 H 727.36 -3.24632 -3.60198 0
M  V30 7652 N 728.703 1.26451 -0.940633 0
M  V30 7653 C 729.666 2.24651 -0.454378 0
M  V30 7654 C 730.666 1.54826 0.434222 0
M  V30 7655 O 731.856 1.72628 0.233477 0
M  V30 7656 C 728.988 3.39148 0.345192 0
M  V30 7657 H 730.181 2.69182 -1.32217 0
M  V30 7658 H 727.734 1.38596 -0.722547 0
M  V30 7659 H 728.469 3.00018 1.23125 0
M  V30 7660 H 728.254 3.9101 -0.292107 0
M  V30 7661 H 729.744 4.12103 0.675341 0
M  V30 7662 N 730.181 0.707592 1.40822 0
M  V30 7663 C 731.43 0.240705 2.00259 0
M  V30 7664 C 731.743 -1.17027 1.56729 0
M  V30 7665 O 732.949 -1.73526 2.08809 0
M  V30 7666 C 731.405 0.379432 3.57894 0
M  V30 7667 C 731.013 1.79654 4.104 0
M  V30 7668 C 732.757 -0.0270684 4.24491 0
M  V30 7669 C 730.664 1.88628 5.60512 0
M  V30 7670 H 729.594 0.0862369 0.749052 0
M  V30 7671 H 732.245 0.877528 1.61157 0
M  V30 7672 H 730.627 -0.325842 3.94657 0
M  V30 7673 H 731.801 2.53155 3.85032 0
M  V30 7674 H 730.116 2.15379 3.56372 0
M  V30 7675 H 732.713 0.0193743 5.34696 0
M  V30 7676 H 733.056 -1.06772 4.02375 0
M  V30 7677 H 733.589 0.628361 3.92806 0
M  V30 7678 H 730.328 2.90787 5.87472 0
M  V30 7679 H 729.848 1.19528 5.8777 0
M  V30 7680 H 731.527 1.6547 6.25483 0
M  V30 7681 N 731.66 -1.50943 0.453197 0
M  V30 7682 C 732.623 -2.26684 -0.338705 0
M  V30 7683 C 733.623 -1.30748 -0.936032 0
M  V30 7684 O 734.813 -1.54327 -0.808002 0
M  V30 7685 C 731.945 -3.07063 -1.48071 0
M  V30 7686 H 733.138 -2.98131 0.325289 0
M  V30 7687 H 730.691 -1.54926 0.206771 0
M  V30 7688 H 731.426 -2.4007 -2.18029 0
M  V30 7689 H 731.211 -3.77545 -1.0584 0
M  V30 7690 H 732.701 -3.64393 -2.0398 0
M  V30 7691 N 733.138 -0.185124 -1.56509 0
M  V30 7692 C 734.363 0.465278 -2.02114 0
M  V30 7693 C 734.788 1.55083 -1.06447 0
M  V30 7694 O 734.146 1.81241 -0.0462852 0
M  V30 7695 C 734.194 1.00784 -3.46229 0
M  V30 7696 O 733.298 2.12123 -3.53663 0
M  V30 7697 H 732.639 0.109891 -0.654843 0
M  V30 7698 H 735.169 -0.293072 -2.0249 0
M  V30 7699 H 735.179 1.32697 -3.85818 0
M  V30 7700 H 733.854 0.213113 -4.15354 0
M  V30 7701 H 732.431 1.8115 -3.25943 0
M  V30 7702 N 734.616 1.57351 0.0885366 0
M  V30 7703 C 735.864 1.86051 0.789262 0
M  V30 7704 C 736.185 0.774763 1.78948 0
M  V30 7705 O 735.455 -0.198324 1.94894 0
M  V30 7706 H 734.035 0.686508 0.294475 0
M  V30 7707 H 736.697 1.94779 0.0686055 0
M  V30 7708 H 735.793 2.83007 1.31581 0
M  V30 7709 N 736.094 -0.359525 1.53444 0
M  V30 7710 C 737.042 -1.46104 1.80987 0
M  V30 7711 C 738.036 -1.55181 0.679351 0
M  V30 7712 O 739.242 -1.57995 0.862405 0
M  V30 7713 H 735.617 -0.486835 0.573145 0
M  V30 7714 H 737.588 -1.2008 2.73173 0
M  V30 7715 C 736.337 -2.82855 2.02208 0
M  V30 7716 H 735.66 -2.76631 2.88644 0
M  V30 7717 H 737.1 -3.59091 2.25455 0
M  V30 7718 C 735.559 -3.27192 0.802931 0
M  V30 7719 O 736.089 -4.017 -0.00544286 0
M  V30 7720 N 734.295 -2.83807 0.624657 0
M  V30 7721 H 733.842 -2.23339 1.28364 0
M  V30 7722 H 733.8 -3.13828 -0.189641 0
M  V30 7723 N 737.572 -1.44907 -0.619662 0
M  V30 7724 C 738.82 -1.47999 -1.37625 0
M  V30 7725 C 739.141 -0.118295 -1.94641 0
M  V30 7726 O 738.411 0.85086 -1.76457 0
M  V30 7727 H 736.991 -0.544993 -0.510873 0
M  V30 7728 H 739.653 -1.80772 -0.728522 0
M  V30 7729 H 738.749 -2.21196 -2.20179 0
M  V30 7730 N 739.05 0.861098 -1.31996 0
M  V30 7731 C 739.98 1.98482 -1.22993 0
M  V30 7732 C 740.961 1.6971 -0.115168 0
M  V30 7733 O 742.146 1.91849 -0.30126 0
M  V30 7734 C 739.276 3.34179 -0.945615 0
M  V30 7735 C 738.23 3.77284 -2.02091 0
M  V30 7736 C 737.556 5.1054 -1.58912 0
M  V30 7737 C 738.856 3.93439 -3.43515 0
M  V30 7738 H 740.55 2.06271 -2.17008 0
M  V30 7739 H 738.096 0.991043 -1.04472 0
M  V30 7740 H 740.049 4.12338 -0.869206 0
M  V30 7741 H 738.773 3.26586 0.0301849 0
M  V30 7742 H 737.432 3.01371 -2.08737 0
M  V30 7743 H 737.08 4.99397 -0.600942 0
M  V30 7744 H 736.78 5.40352 -2.30854 0
M  V30 7745 H 738.304 5.91199 -1.52696 0
M  V30 7746 H 739.718 4.6197 -3.39495 0
M  V30 7747 H 738.115 4.34661 -4.13751 0
M  V30 7748 H 739.185 2.96548 -3.8365 0
M  V30 7749 N 740.528 1.15101 1.07655 0
M  V30 7750 C 741.458 0.867864 2.16773 0
M  V30 7751 C 742.439 -0.180283 1.69142 0
M  V30 7752 O 743.624 -0.0353152 1.94168 0
M  V30 7753 C 740.754 0.35299 3.45501 0
M  V30 7754 C 739.708 1.33746 4.06566 0
M  V30 7755 C 739.034 0.681562 5.30338 0
M  V30 7756 C 740.334 2.7024 4.46954 0
M  V30 7757 H 742.028 1.78034 2.40716 0
M  V30 7758 H 739.574 0.857435 1.15689 0
M  V30 7759 H 741.527 0.142465 4.21159 0
M  V30 7760 H 740.251 -0.594945 3.21135 0
M  V30 7761 H 738.91 1.53429 3.32949 0
M  V30 7762 H 738.558 -0.272422 5.02262 0
M  V30 7763 H 738.258 1.33853 5.72151 0
M  V30 7764 H 739.782 0.48074 6.08705 0
M  V30 7765 H 741.196 2.5442 5.13754 0
M  V30 7766 H 739.593 3.32282 4.99709 0
M  V30 7767 H 740.663 3.26537 3.58471 0
M  V30 7768 N 742.006 -1.2595 0.947325 0
M  V30 7769 C 742.936 -2.28521 0.479604 0
M  V30 7770 C 743.917 -1.63469 -0.470293 0
M  V30 7771 O 745.102 -1.90627 -0.370824 0
M  V30 7772 C 742.232 -3.46397 -0.250289 0
M  V30 7773 C 741.186 -4.23578 0.613643 0
M  V30 7774 C 740.512 -5.34131 -0.246568 0
M  V30 7775 C 741.812 -4.86979 1.88809 0
M  V30 7776 H 743.506 -2.67895 1.33688 0
M  V30 7777 H 741.052 -1.28783 0.644274 0
M  V30 7778 H 743.005 -4.17269 -0.588576 0
M  V30 7779 H 741.729 -3.05993 -1.14175 0
M  V30 7780 H 740.388 -3.54478 0.93491 0
M  V30 7781 H 740.036 -4.89968 -1.13756 0
M  V30 7782 H 739.736 -5.86683 0.328123 0
M  V30 7783 H 741.26 -6.07839 -0.579986 0
M  V30 7784 H 742.674 -5.50034 1.61666 0
M  V30 7785 H 741.071 -5.49675 2.40784 0
M  V30 7786 H 742.141 -4.09575 2.5957 0
M  V30 7787 N 743.484 -0.715051 -1.40445 0
M  V30 7788 C 744.431 -0.0621393 -2.30716 0
M  V30 7789 C 745.401 0.750871 -1.48159 0
M  V30 7790 O 746.586 0.714928 -1.76899 0
M  V30 7791 C 743.726 0.854036 -3.34365 0
M  V30 7792 C 742.839 0.0305565 -4.31989 0
M  V30 7793 C 741.974 0.946162 -5.22706 0
M  V30 7794 C 741.013 0.116741 -6.11989 0
M  V30 7795 N 740.15 0.987194 -6.95125 0
M  V30 7796 H 744.99 -0.83764 -2.85985 0
M  V30 7797 H 742.527 -0.424759 -1.40834 0
M  V30 7798 H 744.485 1.39946 -3.93028 0
M  V30 7799 H 743.115 1.59572 -2.806 0
M  V30 7800 H 742.167 -0.632044 -3.75112 0
M  V30 7801 H 743.479 -0.611615 -4.95036 0
M  V30 7802 H 742.633 1.56014 -5.86297 0
M  V30 7803 H 741.372 1.62216 -4.59932 0
M  V30 7804 H 740.377 -0.510176 -5.47428 0
M  V30 7805 H 741.602 -0.555742 -6.76822 0
M  V30 7806 H 739.548 1.64885 -6.3494 0
M  V30 7807 H 739.465 0.401046 -7.54936 0
M  V30 7808 H 740.733 1.58737 -7.63166 0
M  V30 7809 N 744.962 1.50701 -0.461195 0
M  V30 7810 C 746.21 2.01867 0.0970051 0
M  V30 7811 C 746.531 1.34591 1.41104 0
M  V30 7812 O 745.801 0.488041 1.89723 0
M  V30 7813 H 744.381 0.74599 0.0388392 0
M  V30 7814 H 747.043 1.85129 -0.609357 0
M  V30 7815 H 746.139 3.11051 0.255688 0
M  V30 7816 N 746.441 0.193421 1.56409 0
M  V30 7817 C 747.689 -0.444908 1.97142 0
M  V30 7818 C 748.01 -1.62268 1.08139 0
M  V30 7819 O 747.28 -1.95307 0.152326 0
M  V30 7820 H 745.86 -0.16736 0.728011 0
M  V30 7821 H 748.522 0.279763 1.92882 0
M  V30 7822 H 747.618 -0.790159 3.01932 0
M  V30 7823 N 747.919 -1.57396 -0.0801906 0
M  V30 7824 C 748.866 -2.03107 -1.09618 0
M  V30 7825 C 749.836 -0.910118 -1.38946 0
M  V30 7826 O 751.021 -1.17719 -1.50156 0
M  V30 7827 C 748.161 -2.47293 -2.40708 0
M  V30 7828 C 747.274 -3.72972 -2.17982 0
M  V30 7829 C 746.409 -4.05975 -3.42576 0
M  V30 7830 C 745.448 -5.24719 -3.15177 0
M  V30 7831 N 744.585 -5.53401 -4.32078 0
M  V30 7832 H 749.425 -2.89677 -0.69939 0
M  V30 7833 H 746.962 -1.43263 -0.333785 0
M  V30 7834 H 748.92 -2.7096 -3.17232 0
M  V30 7835 H 747.55 -1.63713 -2.78205 0
M  V30 7836 H 746.602 -3.56693 -1.32189 0
M  V30 7837 H 747.914 -4.59638 -1.93738 0
M  V30 7838 H 747.068 -4.30498 -4.275 0
M  V30 7839 H 745.807 -3.17859 -3.69887 0
M  V30 7840 H 744.812 -5 -2.28648 0
M  V30 7841 H 746.037 -6.14445 -2.89197 0
M  V30 7842 H 743.983 -4.68245 -4.59437 0
M  V30 7843 H 743.9 -6.34469 -4.11078 0
M  V30 7844 H 745.168 -5.8247 -5.18024 0
M  V30 7845 N 749.397 0.351382 -1.53633 0
M  V30 7846 C 750.307 1.45471 -1.84052 0
M  V30 7847 C 751.323 1.57945 -0.730015 0
M  V30 7848 O 752.499 1.73571 -1.02153 0
M  V30 7849 C 749.564 2.80562 -2.03681 0
M  V30 7850 C 748.625 2.77497 -3.27558 0
M  V30 7851 C 747.858 4.06144 -3.46241 0
M  V30 7852 O 748.081 5.03028 -2.68922 0
M  V30 7853 O 747.015 4.11092 -4.39645 0
M  V30 7854 H 750.841 1.22684 -2.77817 0
M  V30 7855 H 748.426 0.542827 -1.3919 0
M  V30 7856 H 750.308 3.6058 -2.18082 0
M  V30 7857 H 748.983 3.03296 -1.13106 0
M  V30 7858 H 747.89 1.96126 -3.18568 0
M  V30 7859 H 749.223 2.59716 -4.18101 0
M  V30 7860 N 750.875 1.45233 0.611969 0
M  V30 7861 C 751.838 1.53189 1.70487 0
M  V30 7862 C 752.838 0.411839 1.55437 0
M  V30 7863 O 754.028 0.675164 1.60584 0
M  V30 7864 C 751.16 1.42422 3.09723 0
M  V30 7865 H 752.353 2.5056 1.64802 0
M  V30 7866 H 749.906 1.32609 0.827318 0
M  V30 7867 H 750.641 0.462185 3.2099 0
M  V30 7868 H 750.426 2.23658 3.22055 0
M  V30 7869 H 751.916 1.51012 3.89339 0
M  V30 7870 N 752.353 -0.854086 1.3245 0
M  V30 7871 C 753.316 -1.94427 1.21371 0
M  V30 7872 C 754.316 -1.60219 0.136613 0
M  V30 7873 O 755.506 -1.69846 0.387057 0
M  V30 7874 C 752.638 -3.29698 0.866701 0
M  V30 7875 H 753.831 -2.05679 2.18257 0
M  V30 7876 H 751.384 -1.04434 1.1629 0
M  V30 7877 H 752.119 -3.24145 -0.100319 0
M  V30 7878 H 751.904 -3.55903 1.64545 0
M  V30 7879 H 753.394 -4.09599 0.813515 0
M  V30 7880 N 753.831 -1.1567 -1.07043 0
M  V30 7881 C 754.781 -0.824733 -2.12561 0
M  V30 7882 C 755.765 0.19243 -1.59745 0
M  V30 7883 O 756.957 -0.00728759 -1.76998 0
M  V30 7884 C 754.086 -0.31921 -3.41813 0
M  V30 7885 C 753.172 -1.36671 -4.01475 0
M  V30 7886 N 753.563 -2.57493 -4.35351 0
M  V30 7887 C 751.861 -1.22018 -4.28984 0
M  V30 7888 C 752.562 -3.24658 -4.82672 0
M  V30 7889 N 751.538 -2.52043 -4.81638 0
M  V30 7890 H 755.34 -1.74363 -2.3659 0
M  V30 7891 H 752.854 -1.04262 -1.24511 0
M  V30 7892 H 754.851 -0.0630216 -4.16852 0
M  V30 7893 H 753.511 0.593708 -3.19226 0
M  V30 7894 H 754.522 -2.94612 -4.25939 0
M  V30 7895 H 751.199 -0.367414 -4.1588 0
M  V30 7896 H 752.589 -4.2775 -5.1815 0
M  V30 7897 N 755.309 1.25446 -0.953992 0
M  V30 7898 C 756.534 1.97755 -0.625129 0
M  V30 7899 C 756.959 1.70437 0.795787 0
M  V30 7900 O 756.317 0.95992 1.53803 0
M  V30 7901 C 756.365 3.49463 -0.889251 0
M  V30 7902 O 755.469 4.12387 0.0322757 0
M  V30 7903 H 754.81 0.61998 -0.237742 0
M  V30 7904 H 757.34 1.59582 -1.28041 0
M  V30 7905 H 757.35 3.99772 -0.815263 0
M  V30 7906 H 756.025 3.68676 -1.92487 0
M  V30 7907 H 754.602 3.72782 -0.0938625 0
M  V30 7908 N 756.787 0.722489 1.40064 0
M  V30 7909 C 757.735 0.063329 2.32514 0
M  V30 7910 C 758.729 -0.73953 1.52405 0
M  V30 7911 O 759.935 -0.642122 1.68157 0
M  V30 7912 H 756.31 0.00167692 0.751998 0
M  V30 7913 H 758.281 0.859656 2.85749 0
M  V30 7914 C 757.03 -0.839219 3.3742 0
M  V30 7915 H 756.353 -0.230836 3.99133 0
M  V30 7916 H 757.793 -1.26827 4.04587 0
M  V30 7917 C 756.252 -1.96783 2.73456 0
M  V30 7918 O 756.782 -3.05933 2.60323 0
M  V30 7919 N 754.988 -1.75351 2.31734 0
M  V30 7920 H 754.535 -0.865787 2.42615 0
M  V30 7921 H 754.493 -2.51043 1.89275 0
M  V30 7922 N 758.265 -1.50454 0.469181 0
M  V30 7923 C 759.681 -1.59124 0.123226 0
M  V30 7924 C 759.881 -1.47749 -1.37013 0
M  V30 7925 O 758.937 -1.335 -2.14322 0
M  V30 7926 C 760.25 -2.93101 0.67172 0
M  V30 7927 C 761.798 -3.06491 0.634978 0
M  V30 7928 C 762.273 -4.43041 1.16098 0
M  V30 7929 N 763.764 -4.49448 1.12031 0
M  V30 7930 C 764.499 -5.53491 1.49784 0
M  V30 7931 N 763.995 -6.64798 1.94976 0
M  V30 7932 N 765.788 -5.44025 1.41399 0
M  V30 7933 H 757.939 -1.56091 1.44046 0
M  V30 7934 H 760.202 -0.737564 0.59557 0
M  V30 7935 H 759.908 -3.06895 1.7178 0
M  V30 7936 H 759.782 -3.77027 0.114222 0
M  V30 7937 H 762.169 -2.92346 -0.402187 0
M  V30 7938 H 762.25 -2.24328 1.22926 0
M  V30 7939 H 761.894 -4.57935 2.19677 0
M  V30 7940 H 761.824 -5.23794 0.542939 0
M  V30 7941 H 764.315 -3.69575 0.788828 0
M  V30 7942 H 764.628 -7.40246 2.21936 0
M  V30 7943 H 762.973 -6.65923 1.98927 0
M  V30 7944 H 766.164 -4.55955 1.05935 0
M  V30 7945 H 766.337 -6.2499 1.71147 0
M  V30 7946 N 759.743 -0.201713 -1.56304 0
M  V30 7947 C 760.992 0.435557 -1.96941 0
M  V30 7948 C 761.305 1.62299 -1.09172 0
M  V30 7949 O 762.511 2.32849 -1.3962 0
M  V30 7950 C 760.967 0.826298 -3.50286 0
M  V30 7951 C 760.575 -0.337216 -4.46729 0
M  V30 7952 C 762.319 1.43028 -3.99679 0
M  V30 7953 C 760.226 0.0748539 -5.91353 0
M  V30 7954 H 759.156 0.1665 -0.735387 0
M  V30 7955 H 761.807 -0.294781 -1.81117 0
M  V30 7956 H 760.189 1.61349 -3.61639 0
M  V30 7957 H 761.363 -1.11476 -4.47113 0
M  V30 7958 H 759.678 -0.853126 -4.07567 0
M  V30 7959 H 762.275 1.75115 -5.05212 0
M  V30 7960 H 762.618 2.33911 -3.44371 0
M  V30 7961 H 763.151 0.706924 -3.91468 0
M  V30 7962 H 759.89 -0.799957 -6.506 0
M  V30 7963 H 759.41 0.817122 -5.94208 0
M  V30 7964 H 761.089 0.508389 -6.45 0
M  V30 7965 N 761.222 1.57436 0.0718424 0
M  V30 7966 C 762.152 2.06724 1.08571 0
M  V30 7967 C 763.133 0.960731 1.40371 0
M  V30 7968 O 764.318 1.23345 1.49999 0
M  V30 7969 C 761.448 2.51112 2.39916 0
M  V30 7970 C 760.402 3.65639 2.22469 0
M  V30 7971 C 759.728 3.96082 3.59198 0
M  V30 7972 C 761.028 4.95687 1.64596 0
M  V30 7973 H 762.722 2.91679 0.675569 0
M  V30 7974 H 760.268 1.40319 0.32352 0
M  V30 7975 H 762.221 2.84206 3.11135 0
M  V30 7976 H 760.945 1.63186 2.8291 0
M  V30 7977 H 759.604 3.32828 1.53691 0
M  V30 7978 H 759.252 3.05287 3.99761 0
M  V30 7979 H 758.952 4.73199 3.48362 0
M  V30 7980 H 760.476 4.31672 4.31847 0
M  V30 7981 H 761.89 5.27011 2.25681 0
M  V30 7982 H 760.287 5.77126 1.64457 0
M  V30 7983 H 761.357 4.8108 0.60744 0
M  V30 7984 N 762.7 -0.34323 1.53817 0
M  V30 7985 C 763.65 -1.42217 1.78208 0
M  V30 7986 C 764.634 -1.4774 0.637304 0
M  V30 7987 O 765.826 -1.52605 0.896705 0
M  V30 7988 C 762.955 -2.79354 1.9954 0
M  V30 7989 C 762.041 -2.78222 3.20084 0
M  V30 7990 N 762.432 -2.46719 4.41547 0
M  V30 7991 C 760.73 -3.09368 3.21259 0
M  V30 7992 C 761.431 -2.53828 5.23399 0
M  V30 7993 N 760.407 -2.89464 4.60121 0
M  V30 7994 H 764.209 -1.16759 2.69712 0
M  V30 7995 H 761.723 -0.551592 1.52746 0
M  V30 7996 H 763.72 -3.57095 2.15148 0
M  V30 7997 H 762.38 -3.05759 1.09278 0
M  V30 7998 H 763.391 -2.19912 4.68891 0
M  V30 7999 H 760.068 -3.40942 2.40966 0
M  V30 8000 H 761.458 -2.32629 6.30344 0
M  V30 8001 N 764.178 -1.45556 -0.604258 0
M  V30 8002 C 765.108 -1.57327 -1.72541 0
M  V30 8003 C 766.089 -0.424637 -1.64714 0
M  V30 8004 O 767.274 -0.648196 -1.83063 0
M  V30 8005 C 764.404 -1.54279 -3.11152 0
M  V30 8006 C 763.358 -2.67893 -3.33792 0
M  V30 8007 C 762.684 -2.499 -4.72709 0
M  V30 8008 C 763.984 -4.0988 -3.23722 0
M  V30 8009 H 765.678 -2.51175 -1.62947 0
M  V30 8010 H 763.224 -1.20884 -0.782504 0
M  V30 8011 H 765.177 -1.6111 -3.89386 0
M  V30 8012 H 763.901 -0.569627 -3.21594 0
M  V30 8013 H 762.56 -2.60495 -2.57949 0
M  V30 8014 H 762.208 -1.50715 -4.79889 0
M  V30 8015 H 761.908 -3.26091 -4.88813 0
M  V30 8016 H 763.432 -2.5859 -5.5314 0
M  V30 8017 H 764.846 -4.18503 -3.91826 0
M  V30 8018 H 763.243 -4.86487 -3.51355 0
M  V30 8019 H 764.313 -4.31553 -2.21111 0
M  V30 8020 N 765.656 0.84705 -1.32902 0
M  V30 8021 C 766.586 1.97166 -1.25091 0
M  V30 8022 C 767.567 1.69578 -0.133161 0
M  V30 8023 O 768.752 1.91519 -0.321591 0
M  V30 8024 C 765.882 3.33157 -0.981006 0
M  V30 8025 C 764.836 3.75119 -2.06082 0
M  V30 8026 C 764.162 5.08826 -1.64318 0
M  V30 8027 C 765.462 3.89774 -3.47669 0
M  V30 8028 H 767.156 2.03958 -2.19184 0
M  V30 8029 H 764.702 0.979907 -1.05517 0
M  V30 8030 H 766.655 4.11393 -0.912891 0
M  V30 8031 H 765.379 3.266 -0.00445559 0
M  V30 8032 H 764.038 2.9914 -2.11921 0
M  V30 8033 H 763.686 4.98732 -0.653876 0
M  V30 8034 H 763.386 5.37873 -2.36572 0
M  V30 8035 H 764.91 5.89546 -1.58958 0
M  V30 8036 H 766.324 4.58343 -3.44376 0
M  V30 8037 H 764.721 4.30248 -4.18338 0
M  V30 8038 H 765.791 2.92463 -3.86773 0
M  V30 8039 N 767.134 1.16236 1.06428 0
M  V30 8040 C 768.362 0.967184 1.82902 0
M  V30 8041 C 768.777 -0.484601 1.82475 0
M  V30 8042 O 768.134 -1.33631 1.24294 0
M  V30 8043 C 768.185 1.48534 3.29576 0
M  V30 8044 O 767.906 2.88026 3.3011 0
M  V30 8045 C 769.407 1.33298 4.22784 0
M  V30 8046 H 766.627 0.342923 0.576754 0
M  V30 8047 H 769.171 1.54232 1.34286 0
M  V30 8048 H 767.326 0.952513 3.75508 0
M  V30 8049 H 767.74 3.11721 4.21818 0
M  V30 8050 H 769.214 1.74385 5.23731 0
M  V30 8051 H 769.691 0.278356 4.38317 0
M  V30 8052 H 770.297 1.85535 3.82697 0
M  V30 8053 N 768.612 -1.24939 0.960631 0
M  V30 8054 C 769.544 -2.24879 0.442937 0
M  V30 8055 C 770.557 -1.56615 -0.444464 0
M  V30 8056 O 771.746 -1.76715 -0.251776 0
M  V30 8057 C 768.846 -3.36757 -0.380537 0
M  V30 8058 C 768.019 -4.34587 0.495283 0
M  V30 8059 C 767.078 -5.25502 -0.270995 0
M  V30 8060 O 766.104 -5.68227 0.332661 0
M  V30 8061 N 767.306 -5.59077 -1.56249 0
M  V30 8062 H 770.071 -2.69932 1.30218 0
M  V30 8063 H 767.632 -1.38907 0.83166 0
M  V30 8064 H 769.624 -3.94542 -0.90103 0
M  V30 8065 H 768.194 -2.91045 -1.14067 0
M  V30 8066 H 767.414 -3.75593 1.19682 0
M  V30 8067 H 768.702 -4.96925 1.09285 0
M  V30 8068 H 768.1 -5.2628 -2.07476 0
M  V30 8069 H 766.657 -6.19421 -2.02882 0
M  V30 8070 N 770.09 -0.729906 -1.39679 0
M  V30 8071 C 771 -0.0880322 -2.34435 0
M  V30 8072 C 772.016 0.727674 -1.58053 0
M  V30 8073 O 773.192 0.657321 -1.90371 0
M  V30 8074 C 770.257 0.812211 -3.37052 0
M  V30 8075 C 769.318 -0.0151681 -4.29297 0
M  V30 8076 C 768.551 0.842202 -5.27013 0
M  V30 8077 O 768.774 2.08108 -5.31081 0
M  V30 8078 O 767.708 0.27357 -6.01278 0
M  V30 8079 H 771.534 -0.869989 -2.90972 0
M  V30 8080 H 769.119 -0.490522 -1.41118 0
M  V30 8081 H 771.001 1.32745 -3.99946 0
M  V30 8082 H 769.676 1.57307 -2.82907 0
M  V30 8083 H 768.583 -0.575811 -3.69642 0
M  V30 8084 H 769.916 -0.738129 -4.86634 0
M  V30 8085 N 771.568 1.50203 -0.477153 0
M  V30 8086 C 772.531 2.27194 0.302599 0
M  V30 8087 C 773.531 1.32221 0.915112 0
M  V30 8088 O 774.721 1.55593 0.783348 0
M  V30 8089 C 771.853 3.0938 1.43167 0
M  V30 8090 H 773.046 2.97575 -0.372678 0
M  V30 8091 H 770.599 1.54578 -0.231392 0
M  V30 8092 H 771.334 2.43509 2.14182 0
M  V30 8093 H 771.119 3.79181 0.998197 0
M  V30 8094 H 772.609 3.67592 1.98157 0
M  V30 8095 N 773.046 0.209999 1.56195 0
M  V30 8096 C 773.976 -0.699746 2.22769 0
M  V30 8097 C 774.957 -1.20993 1.1956 0
M  V30 8098 O 776.142 -1.25605 1.48112 0
M  V30 8099 C 773.272 -1.91302 2.89863 0
M  V30 8100 C 772.226 -1.53715 3.99444 0
M  V30 8101 C 771.552 -2.82826 4.53777 0
M  V30 8102 C 772.852 -0.735836 5.17091 0
M  V30 8103 H 774.546 -0.144716 2.9905 0
M  V30 8104 H 772.092 -0.0681645 1.43839 0
M  V30 8105 H 774.045 -2.5548 3.35124 0
M  V30 8106 H 772.769 -2.49283 2.11011 0
M  V30 8107 H 771.428 -0.918892 3.54897 0
M  V30 8108 H 771.076 -3.38927 3.71669 0
M  V30 8109 H 770.776 -2.58415 5.27727 0
M  V30 8110 H 772.3 -3.47966 5.01749 0
M  V30 8111 H 773.714 -1.28105 5.58804 0
M  V30 8112 H 772.111 -0.589272 5.972 0
M  V30 8113 H 773.181 0.260004 4.84202 0
M  V30 8114 N 774.524 -1.57472 -0.0634922 0
M  V30 8115 C 775.749 -1.92273 -0.77756 0
M  V30 8116 C 776.174 -0.807141 -1.69902 0
M  V30 8117 O 775.532 0.239523 -1.79711 0
M  V30 8118 C 775.58 -3.26054 -1.54017 0
M  V30 8119 O 774.684 -3.15873 -2.65138 0
M  V30 8120 H 774.025 -0.629389 -0.211579 0
M  V30 8121 H 776.555 -2.04579 -0.0292523 0
M  V30 8122 H 776.565 -3.60127 -1.91763 0
M  V30 8123 H 775.24 -4.06824 -0.864128 0
M  V30 8124 H 773.817 -2.93373 -2.30189 0
M  V30 8125 N 776.003 0.335068 -1.53997 0
M  V30 8126 C 777.252 1.07182 -1.70865 0
M  V30 8127 C 777.565 1.89541 -0.483078 0
M  V30 8128 O 778.771 2.66219 -0.532879 0
M  V30 8129 C 777.227 1.95497 -3.02174 0
M  V30 8130 C 776.835 1.18304 -4.32097 0
M  V30 8131 C 778.579 2.68978 -3.28407 0
M  V30 8132 C 776.486 2.05699 -5.54474 0
M  V30 8133 H 775.416 0.403857 -0.636722 0
M  V30 8134 H 778.067 0.33076 -1.80494 0
M  V30 8135 H 776.449 2.73456 -2.86423 0
M  V30 8136 H 777.623 0.451969 -4.58578 0
M  V30 8137 H 775.938 0.565556 -4.12541 0
M  V30 8138 H 778.535 3.34651 -4.17029 0
M  V30 8139 H 778.878 3.36 -2.45784 0
M  V30 8140 H 779.411 1.98087 -3.44973 0
M  V30 8141 H 776.15 1.43204 -6.39666 0
M  V30 8142 H 775.67 2.76572 -5.32229 0
M  V30 8143 H 777.349 2.64554 -5.90441 0
M  V30 8144 N 777.481 1.45874 0.596531 0
M  V30 8145 C 778.431 1.5181 1.70111 0
M  V30 8146 C 779.415 0.380293 1.56341 0
M  V30 8147 O 780.607 0.627849 1.6549 0
M  V30 8148 C 777.736 1.49822 3.08883 0
M  V30 8149 C 776.822 2.68845 3.27998 0
M  V30 8150 N 777.213 3.93873 3.17329 0
M  V30 8151 C 775.511 2.64777 3.589 0
M  V30 8152 C 776.212 4.73371 3.38076 0
M  V30 8153 N 775.188 4.0501 3.62585 0
M  V30 8154 H 778.99 2.46289 1.60372 0
M  V30 8155 H 776.504 1.41321 0.800138 0
M  V30 8156 H 778.501 1.5216 3.8814 0
M  V30 8157 H 777.161 0.564086 3.19763 0
M  V30 8158 H 778.172 4.25329 2.95492 0
M  V30 8159 H 774.849 1.80323 3.7655 0
M  V30 8160 H 776.239 5.82357 3.35127 0
M  V30 8161 N 778.959 -0.83999 1.33349 0
M  V30 8162 C 780.207 -1.59202 1.24496 0
M  V30 8163 C 780.528 -1.94077 -0.189499 0
M  V30 8164 O 779.798 -1.60868 -1.11796 0
M  V30 8165 H 778.378 -0.590276 0.457802 0
M  V30 8166 H 781.04 -1.00394 1.67054 0
M  V30 8167 H 780.136 -2.52247 1.83788 0
M  V30 8168 N 780.437 -1.16799 -1.0581 0
M  V30 8169 C 781.683 -0.953935 -1.78963 0
M  V30 8170 C 782.016 0.516638 -1.87202 0
M  V30 8171 O 781.291 1.38338 -1.36721 0
M  V30 8172 C 781.574 -1.58808 -3.23191 0
M  V30 8173 C 781.427 -3.13032 -3.23003 0
M  V30 8174 C 782.746 -1.2868 -4.20867 0
M  V30 8175 H 779.865 -0.347972 -0.64968 0
M  V30 8176 H 782.507 -1.44204 -1.23715 0
M  V30 8177 H 780.657 -1.17303 -3.70368 0
M  V30 8178 H 782.329 -3.63553 -2.83949 0
M  V30 8179 H 780.572 -3.46108 -2.61518 0
M  V30 8180 H 781.243 -3.52527 -4.24769 0
M  V30 8181 H 783.719 -1.6461 -3.82155 0
M  V30 8182 H 782.595 -1.75645 -5.20038 0
M  V30 8183 H 782.856 -0.206491 -4.41618 0
M  V30 8184 N 781.915 1.24427 -0.967243 0
M  V30 8185 C 782.862 2.25398 -0.496419 0
M  V30 8186 C 783.832 1.59667 0.457781 0
M  V30 8187 O 785.017 1.87213 0.368246 0
M  V30 8188 C 782.157 3.44474 0.207693 0
M  V30 8189 C 781.27 4.24804 -0.785221 0
M  V30 8190 C 780.405 5.31169 -0.0572631 0
M  V30 8191 C 779.444 6.03195 -1.04027 0
M  V30 8192 N 778.581 7.01265 -0.34235 0
M  V30 8193 H 783.421 2.65039 -1.36229 0
M  V30 8194 H 780.958 1.30288 -0.682902 0
M  V30 8195 H 782.916 4.12376 0.632612 0
M  V30 8196 H 781.546 3.05672 1.03752 0
M  V30 8197 H 780.598 3.56445 -1.32858 0
M  V30 8198 H 781.91 4.74599 -1.53483 0
M  V30 8199 H 781.064 6.05205 0.425674 0
M  V30 8200 H 779.803 4.8228 0.725047 0
M  V30 8201 H 778.808 5.27964 -1.53409 0
M  V30 8202 H 780.033 6.54173 -1.82302 0
M  V30 8203 H 777.979 6.54648 0.420993 0
M  V30 8204 H 777.896 7.48939 -1.03084 0
M  V30 8205 H 779.164 7.7941 0.118634 0
M  V30 8206 N 783.393 0.737304 1.3929 0
M  V30 8207 C 784.303 0.100464 2.34385 0
M  V30 8208 C 785.319 -0.719282 1.58437 0
M  V30 8209 O 786.495 -0.647216 1.90717 0
M  V30 8210 C 783.56 -0.794325 3.37478 0
M  V30 8211 C 782.621 0.0379345 4.29283 0
M  V30 8212 C 781.854 -0.814241 5.27452 0
M  V30 8213 O 782.077 -2.05288 5.32177 0
M  V30 8214 O 781.011 -0.241679 6.01415 0
M  V30 8215 H 784.837 0.885407 2.90507 0
M  V30 8216 H 782.422 0.497999 1.40856 0
M  V30 8217 H 784.304 -1.30622 4.00644 0
M  V30 8218 H 782.979 -1.55804 2.83737 0
M  V30 8219 H 781.886 0.595405 3.69331 0
M  V30 8220 H 783.219 0.763926 4.86236 0
M  V30 8221 N 784.871 -1.49948 0.485112 0
M  V30 8222 C 785.834 -2.27351 -0.290546 0
M  V30 8223 C 786.834 -1.32704 -0.908087 0
M  V30 8224 O 788.024 -1.56007 -0.775085 0
M  V30 8225 C 785.156 -3.10135 -1.41524 0
M  V30 8226 H 786.349 -2.97374 0.388454 0
M  V30 8227 H 783.902 -1.54453 0.239586 0
M  V30 8228 H 784.637 -2.44641 -2.12888 0
M  V30 8229 H 784.422 -3.79705 -0.978074 0
M  V30 8230 H 785.912 -3.68638 -1.96204 0
M  V30 8231 N 786.349 -0.21828 -1.56081 0
M  V30 8232 C 787.595 0.414921 -1.9851 0
M  V30 8233 C 787.928 1.59648 -1.10573 0
M  V30 8234 O 787.203 1.93818 -0.162695 0
M  V30 8235 C 787.486 0.852647 -3.4986 0
M  V30 8236 C 787.339 -0.33232 -4.48571 0
M  V30 8237 C 788.658 1.70998 -4.05521 0
M  V30 8238 H 785.777 0.149344 -0.72171 0
M  V30 8239 H 788.419 -0.313858 -1.8739 0
M  V30 8240 H 786.569 1.47362 -3.59467 0
M  V30 8241 H 788.241 -0.970418 -4.50977 0
M  V30 8242 H 786.484 -0.980302 -4.22578 0
M  V30 8243 H 787.155 0.0168407 -5.51997 0
M  V30 8244 H 789.631 1.18606 -3.98838 0
M  V30 8245 H 788.507 1.98517 -5.11744 0
M  V30 8246 H 788.768 2.67219 -3.52202 0
M  V30 8247 N 787.827 1.57504 0.0551401 0
M  V30 8248 C 788.759 2.0158 1.09078 0
M  V30 8249 C 789.772 0.92434 1.34014 0
M  V30 8250 O 790.961 1.20202 1.31961 0
M  V30 8251 C 788.061 2.35385 2.43818 0
M  V30 8252 C 787.234 3.66588 2.38605 0
M  V30 8253 C 786.293 3.87874 3.55585 0
M  V30 8254 O 785.319 4.59259 3.36258 0
M  V30 8255 N 786.521 3.31503 4.76536 0
M  V30 8256 H 789.286 2.91039 0.71529 0
M  V30 8257 H 786.847 1.60058 0.243532 0
M  V30 8258 H 788.839 2.46784 3.20749 0
M  V30 8259 H 787.409 1.51731 2.73307 0
M  V30 8260 H 786.629 3.65787 1.46947 0
M  V30 8261 H 787.917 4.52706 2.32239 0
M  V30 8262 H 787.315 2.73592 4.9514 0
M  V30 8263 H 785.872 3.48324 5.50921 0
M  V30 8264 N 789.305 -0.326896 1.54172 0
M  V30 8265 C 790.235 -1.40741 1.86317 0
M  V30 8266 C 791.216 -1.54125 0.719684 0
M  V30 8267 O 792.401 -1.6806 0.973117 0
M  V30 8268 C 789.531 -2.77557 2.08757 0
M  V30 8269 C 788.485 -2.78965 3.24596 0
M  V30 8270 C 787.811 -4.18824 3.32401 0
M  V30 8271 C 789.111 -2.4301 4.62324 0
M  V30 8272 H 790.805 -1.14088 2.76811 0
M  V30 8273 H 788.351 -0.547389 1.3319 0
M  V30 8274 H 790.304 -3.53209 2.29829 0
M  V30 8275 H 789.028 -3.0568 1.15009 0
M  V30 8276 H 787.687 -2.05767 3.03406 0
M  V30 8277 H 787.335 -4.44083 2.36218 0
M  V30 8278 H 787.035 -4.20673 4.10253 0
M  V30 8279 H 788.559 -4.96294 3.55703 0
M  V30 8280 H 789.973 -3.08375 4.83299 0
M  V30 8281 H 788.37 -2.56116 5.42701 0
M  V30 8282 H 789.44 -1.38165 4.64799 0
M  V30 8283 N 790.784 -1.46188 -0.588786 0
M  V30 8284 C 792.03 -1.51407 -1.34921 0
M  V30 8285 C 792.363 -0.162771 -1.93517 0
M  V30 8286 O 791.638 0.825082 -1.76132 0
M  V30 8287 C 791.921 -2.60795 -2.48311 0
M  V30 8288 C 791.774 -4.05435 -1.94789 0
M  V30 8289 C 793.093 -2.66313 -3.50379 0
M  V30 8290 H 790.212 -0.551213 -0.489217 0
M  V30 8291 H 792.854 -1.78095 -0.661993 0
M  V30 8292 H 791.004 -2.3817 -3.06932 0
M  V30 8293 H 792.676 -4.39328 -1.40672 0
M  V30 8294 H 790.919 -4.15202 -1.25659 0
M  V30 8295 H 791.59 -4.77691 -2.76613 0
M  V30 8296 H 794.066 -2.86634 -3.01629 0
M  V30 8297 H 792.942 -3.44681 -4.27184 0
M  V30 8298 H 793.203 -1.72127 -4.07216 0
M  V30 8299 N 792.262 0.832906 -1.33792 0
M  V30 8300 C 793.21 1.96455 -1.24532 0
M  V30 8301 C 794.204 1.68774 -0.145455 0
M  V30 8302 O 795.41 1.77314 -0.309797 0
M  V30 8303 H 791.785 0.645008 -0.386611 0
M  V30 8304 H 793.756 2.01389 -2.20193 0
M  V30 8305 C 792.505 3.32784 -1.00748 0
M  V30 8306 H 791.828 3.54626 -1.84609 0
M  V30 8307 H 793.268 4.12447 -0.98301 0
M  V30 8308 C 791.727 3.35654 0.289475 0
M  V30 8309 O 792.257 3.80281 1.29419 0
M  V30 8310 N 790.463 2.88843 0.3191 0
M  V30 8311 H 790.01 2.52719 -0.499069 0
M  V30 8312 H 789.968 2.91145 1.18667 0
M  V30 8313 N 793.74 1.17359 1.05189 0
M  V30 8314 C 794.968 0.986529 1.81866 0
M  V30 8315 C 795.383 -0.46522 1.82979 0
M  V30 8316 O 794.74 -1.32305 1.25705 0
M  V30 8317 C 794.791 1.52021 3.27982 0
M  V30 8318 O 794.512 2.91511 3.27037 0
M  V30 8319 C 796.013 1.37774 4.21347 0
M  V30 8320 H 793.233 0.349021 0.573084 0
M  V30 8321 H 795.777 1.55648 1.32643 0
M  V30 8322 H 793.932 0.992287 3.74476 0
M  V30 8323 H 794.346 3.16178 4.18488 0
M  V30 8324 H 795.82 1.7993 5.21852 0
M  V30 8325 H 796.297 0.32483 4.37997 0
M  V30 8326 H 796.903 1.89583 3.80708 0
M  V30 8327 N 795.218 -1.23913 0.973828 0
M  V30 8328 C 796.634 -1.44325 0.681363 0
M  V30 8329 C 796.834 -1.86832 -0.754728 0
M  V30 8330 O 795.89 -2.01024 -1.52793 0
M  V30 8331 C 797.203 -2.50017 1.67069 0
M  V30 8332 C 798.751 -2.63838 1.68399 0
M  V30 8333 C 799.226 -3.72734 2.66145 0
M  V30 8334 N 800.717 -3.80169 2.64624 0
M  V30 8335 C 801.452 -4.6397 3.36927 0
M  V30 8336 N 800.948 -5.51911 4.18767 0
M  V30 8337 N 802.741 -4.58106 3.25722 0
M  V30 8338 H 794.892 -0.946204 1.9016 0
M  V30 8339 H 797.155 -0.477374 0.819035 0
M  V30 8340 H 796.861 -2.25686 2.69738 0
M  V30 8341 H 796.735 -3.48287 1.4483 0
M  V30 8342 H 799.122 -2.87524 0.664379 0
M  V30 8343 H 799.203 -1.65906 1.94702 0
M  V30 8344 H 798.847 -3.49797 3.68245 0
M  V30 8345 H 798.777 -4.70193 2.3712 0
M  V30 8346 H 801.268 -3.17319 2.05224 0
M  V30 8347 H 801.581 -6.12828 4.70809 0
M  V30 8348 H 799.926 -5.51556 4.2286 0
M  V30 8349 H 803.117 -3.8842 2.61242 0
M  V30 8350 H 803.29 -5.23188 3.82333 0
M  V30 8351 N 796.696 -0.74468 -1.38897 0
M  V30 8352 C 797.606 -0.112892 -2.34328 0
M  V30 8353 C 798.622 0.71087 -1.58816 0
M  V30 8354 O 799.798 0.637092 -1.91058 0
M  V30 8355 C 796.863 0.776417 -3.37894 0
M  V30 8356 C 795.924 -0.0606999 -4.29257 0
M  V30 8357 C 795.157 0.786258 -5.27877 0
M  V30 8358 O 795.38 2.02463 -5.33259 0
M  V30 8359 O 794.314 0.209781 -6.01534 0
M  V30 8360 H 798.14 -0.900801 -2.90033 0
M  V30 8361 H 795.725 -0.505462 -1.4059 0
M  V30 8362 H 797.607 1.28496 -4.01331 0
M  V30 8363 H 796.282 1.54297 -2.84559 0
M  V30 8364 H 795.189 -0.614984 -3.69011 0
M  V30 8365 H 796.522 -0.789702 -4.85824 0
M  V30 8366 N 798.174 1.49689 -0.493057 0
M  V30 8367 C 799.084 2.32746 0.294358 0
M  V30 8368 C 800.1 1.44117 0.975003 0
M  V30 8369 O 801.276 1.77149 0.958138 0
M  V30 8370 C 798.341 3.19358 1.34949 0
M  V30 8371 C 797.402 4.2383 0.683122 0
M  V30 8372 C 796.635 5.06303 1.68798 0
M  V30 8373 O 796.858 4.90172 2.91698 0
M  V30 8374 O 795.792 5.88826 1.24768 0
M  V30 8375 H 799.618 3.01247 -0.385254 0
M  V30 8376 H 797.203 1.47216 -0.254519 0
M  V30 8377 H 799.085 3.73037 1.96014 0
M  V30 8378 H 797.76 2.53561 2.01217 0
M  V30 8379 H 796.667 3.74086 0.0329351 0
M  V30 8380 H 798 4.9216 0.0630192 0
M  V30 8381 N 799.652 0.226554 1.55963 0
M  V30 8382 C 800.898 -0.404387 1.98727 0
M  V30 8383 C 801.231 -1.59059 1.11418 0
M  V30 8384 O 800.506 -1.93729 0.172971 0
M  V30 8385 C 800.789 -0.834081 3.50307 0
M  V30 8386 C 800.642 0.356104 4.48388 0
M  V30 8387 C 801.961 -1.68845 4.06423 0
M  V30 8388 H 799.08 -0.145515 0.722492 0
M  V30 8389 H 801.722 0.323791 1.87221 0
M  V30 8390 H 799.872 -1.45454 3.60244 0
M  V30 8391 H 801.544 0.99432 4.50456 0
M  V30 8392 H 799.787 1.0027 4.22053 0
M  V30 8393 H 800.458 0.0124333 5.51999 0
M  V30 8394 H 802.934 -1.16489 3.99461 0
M  V30 8395 H 801.81 -1.958 5.1279 0
M  V30 8396 H 802.071 -2.65347 3.53615 0
M  V30 8397 N 801.13 -1.57531 -0.0467866 0
M  V30 8398 C 802.04 -2.08768 -1.07018 0
M  V30 8399 C 803.056 -1.02245 -1.40791 0
M  V30 8400 O 804.232 -1.33873 -1.50466 0
M  V30 8401 C 801.297 -2.54221 -2.35738 0
M  V30 8402 C 800.358 -3.75152 -2.08709 0
M  V30 8403 C 799.591 -4.18428 -3.31291 0
M  V30 8404 O 799.814 -3.61365 -4.4133 0
M  V30 8405 O 798.748 -5.11018 -3.18032 0
M  V30 8406 H 802.574 -2.96334 -0.664812 0
M  V30 8407 H 800.159 -1.47074 -0.262605 0
M  V30 8408 H 802.041 -2.83866 -3.11445 0
M  V30 8409 H 800.716 -1.69774 -2.75605 0
M  V30 8410 H 799.623 -3.50553 -1.30627 0
M  V30 8411 H 800.956 -4.60528 -1.73708 0
M  V30 8412 N 802.608 0.318715 -1.54344 0
M  V30 8413 C 803.885 1.07461 -1.63437 0
M  V30 8414 C 804.265 2.05771 -0.47131 0
M  V30 8415 O 803.613 2.22175 0.53391 0
M  V30 8416 C 803.823 1.77224 -3.00654 0
M  V30 8417 C 805.171 2.30069 -3.56866 0
M  V30 8418 O 806.195 1.87284 -3.0299 0
M  V30 8419 O 805.054 3.08412 -4.51159 0
M  V30 8420 H 802.148 0.495627 -0.66203 0
M  V30 8421 H 804.694 0.318218 -1.6669 0
M  V30 8422 H 803.466 1.05742 -3.76742 0
M  V30 8423 H 803.089 2.59662 -3.01101 0
M  V30 8424 N 804.086 1.46499 0.581025 0
M  V30 8425 C 805.016 1.60052 1.70017 0
M  V30 8426 C 805.997 0.450788 1.64018 0
M  V30 8427 O 807.182 0.677237 1.82009 0
M  V30 8428 C 804.312 1.5921 3.08658 0
M  V30 8429 C 803.266 2.73169 3.29488 0
M  V30 8430 C 802.592 2.57389 4.68674 0
M  V30 8431 C 803.892 4.14978 3.1716 0
M  V30 8432 H 805.586 2.53735 1.5893 0
M  V30 8433 H 803.132 1.22113 0.763173 0
M  V30 8434 H 805.085 1.67285 3.86773 0
M  V30 8435 H 803.809 0.620718 3.20647 0
M  V30 8436 H 802.468 2.64566 2.53773 0
M  V30 8437 H 802.116 1.58331 4.77431 0
M  V30 8438 H 801.816 3.33826 4.83564 0
M  V30 8439 H 803.34 2.67358 5.48956 0
M  V30 8440 H 804.754 4.24684 3.85119 0
M  V30 8441 H 803.151 4.92016 3.4357 0
M  V30 8442 H 804.221 4.35016 2.14218 0
M  V30 8443 N 805.565 -0.825799 1.34232 0
M  V30 8444 C 806.805 -1.59541 1.27773 0
M  V30 8445 C 807.169 -1.91405 -0.150998 0
M  V30 8446 O 808.37 -2.66644 -0.339728 0
M  V30 8447 C 806.641 -2.86183 2.14089 0
M  V30 8448 S 808.2 -3.76751 2.24953 0
M  V30 8449 H 805.018 -0.546871 0.454371 0
M  V30 8450 H 807.62 -0.975677 1.69413 0
M  V30 8451 H 806.324 -2.60767 3.16905 0
M  V30 8452 H 805.855 -3.53155 1.73335 0
M  V30 8453 H 807.87 -4.75442 1.4202 0
M  V30 8454 N 807.043 -1.17915 -1.04565 0
M  V30 8455 C 808.459 -0.927761 -1.29864 0
M  V30 8456 C 808.659 0.409536 -1.97294 0
M  V30 8457 O 807.715 1.14505 -2.25044 0
M  V30 8458 C 809.028 -2.08967 -2.16225 0
M  V30 8459 C 810.576 -2.12741 -2.29587 0
M  V30 8460 C 811.051 -3.28335 -3.19312 0
M  V30 8461 N 812.542 -3.28164 -3.26898 0
M  V30 8462 C 813.277 -4.14249 -3.96466 0
M  V30 8463 N 812.773 -5.10457 -4.68407 0
M  V30 8464 N 814.566 -4.02179 -3.92694 0
M  V30 8465 H 806.717 -2.03983 -0.592011 0
M  V30 8466 H 808.98 -0.891023 -0.323701 0
M  V30 8467 H 808.686 -3.05654 -1.73979 0
M  V30 8468 H 808.56 -2.04606 -3.16885 0
M  V30 8469 H 810.947 -1.16636 -2.71072 0
M  V30 8470 H 811.028 -2.21162 -1.28535 0
M  V30 8471 H 810.672 -4.2471 -2.78539 0
M  V30 8472 H 810.602 -3.17151 -4.20384 0
M  V30 8473 H 813.093 -2.58511 -2.75646 0
M  V30 8474 H 813.406 -5.72526 -5.1907 0
M  V30 8475 H 811.751 -5.14422 -4.67328 0
M  V30 8476 H 814.942 -3.26308 -3.3562 0
M  V30 8477 H 815.115 -4.69486 -4.4664 0
M  V30 8478 N 808.521 1.23394 -0.980386 0
M  V30 8479 C 809.451 2.2717 -0.540024 0
M  V30 8480 C 810.432 1.64659 0.426787 0
M  V30 8481 O 811.617 1.91543 0.320153 0
M  V30 8482 C 808.747 3.46939 0.15836 0
M  V30 8483 C 807.701 4.21802 -0.725732 0
M  V30 8484 C 807.027 5.34597 0.104866 0
M  V30 8485 C 808.327 4.81802 -2.01654 0
M  V30 8486 H 810.021 2.64257 -1.40743 0
M  V30 8487 H 807.567 1.2703 -0.678193 0
M  V30 8488 H 809.52 4.18683 0.477737 0
M  V30 8489 H 808.244 3.08912 1.06022 0
M  V30 8490 H 806.903 3.51875 -1.02857 0
M  V30 8491 H 806.551 4.92812 1.00726 0
M  V30 8492 H 806.251 5.85607 -0.483557 0
M  V30 8493 H 807.775 6.09163 0.418624 0
M  V30 8494 H 809.189 5.45554 -1.76193 0
M  V30 8495 H 807.586 5.43098 -2.55273 0
M  V30 8496 H 808.656 4.02549 -2.70338 0
M  V30 8497 N 809.999 0.752036 1.385 0
M  V30 8498 C 811.276 0.233075 1.94206 0
M  V30 8499 C 811.656 -1.26838 1.68746 0
M  V30 8500 O 811.004 -2.04214 1.02513 0
M  V30 8501 C 811.214 0.58509 3.44061 0
M  V30 8502 C 812.562 0.543871 4.21102 0
M  V30 8503 O 813.586 0.523291 3.52335 0
M  V30 8504 O 812.445 0.553436 5.4369 0
M  V30 8505 H 809.539 0.0483049 0.825588 0
M  V30 8506 H 812.085 0.832053 1.47902 0
M  V30 8507 H 810.857 1.62212 3.56094 0
M  V30 8508 H 810.48 -0.0419738 3.97578 0
M  V30 8509 N 811.477 -1.49425 0.500989 0
M  V30 8510 C 812.424 -2.29126 -0.277443 0
M  V30 8511 C 813.394 -1.35522 -0.960363 0
M  V30 8512 O 814.579 -1.64479 -0.967027 0
M  V30 8513 C 811.719 -3.18193 -1.33593 0
M  V30 8514 C 810.832 -4.26854 -0.664791 0
M  V30 8515 C 809.967 -5.03137 -1.70372 0
M  V30 8516 C 809.006 -6.03635 -1.01445 0
M  V30 8517 N 808.143 -6.73083 -1.99758 0
M  V30 8518 H 812.983 -2.95187 0.408458 0
M  V30 8519 H 810.52 -1.45546 0.213275 0
M  V30 8520 H 812.478 -3.68207 -1.96161 0
M  V30 8521 H 811.108 -2.54116 -1.9906 0
M  V30 8522 H 810.16 -3.80328 0.0741708 0
M  V30 8523 H 811.472 -4.9865 -0.122197 0
M  V30 8524 H 810.626 -5.5702 -2.40445 0
M  V30 8525 H 809.365 -4.31114 -2.28017 0
M  V30 8526 H 808.37 -5.48984 -0.299496 0
M  V30 8527 H 809.595 -6.77644 -0.444497 0
M  V30 8528 H 807.541 -6.03832 -2.56365 0
M  V30 8529 H 807.458 -7.40855 -1.50565 0
M  V30 8530 H 808.726 -7.3157 -2.69119 0
M  V30 8531 N 812.955 -0.234822 -1.55841 0
M  V30 8532 C 813.888 0.710134 -2.16869 0
M  V30 8533 C 814.866 1.18155 -1.11706 0
M  V30 8534 O 816.05 1.26188 -1.40032 0
M  V30 8535 C 813.177 1.96368 -2.75966 0
M  V30 8536 C 812.223 1.63114 -3.94076 0
M  V30 8537 S 813.056 0.744307 -5.30302 0
M  V30 8538 C 814.212 2.00712 -5.92845 0
M  V30 8539 H 814.445 0.19146 -2.96683 0
M  V30 8540 H 811.978 -0.0193854 -1.54388 0
M  V30 8541 H 813.936 2.68338 -3.10653 0
M  V30 8542 H 812.597 2.45347 -1.96121 0
M  V30 8543 H 811.79 2.56285 -4.33975 0
M  V30 8544 H 811.392 0.991967 -3.60605 0
M  V30 8545 H 813.684 2.9557 -6.09627 0
M  V30 8546 H 814.627 1.65182 -6.88564 0
M  V30 8547 H 815.035 2.1537 -5.21801 0
M  V30 8548 N 814.433 1.57553 0.0384317 0
M  V30 8549 C 815.682 1.88022 0.730108 0
M  V30 8550 C 815.995 0.83209 1.77019 0
M  V30 8551 O 817.201 1.0257 2.51379 0
M  V30 8552 C 815.657 3.33637 1.3496 0
M  V30 8553 C 815.265 4.46659 0.346352 0
M  V30 8554 C 817.009 3.73266 2.02169 0
M  V30 8555 C 814.916 5.8333 0.973652 0
M  V30 8556 H 813.846 0.701496 0.276442 0
M  V30 8557 H 816.497 1.83493 -0.0158028 0
M  V30 8558 H 814.879 3.32882 2.1449 0
M  V30 8559 H 816.053 4.58868 -0.421558 0
M  V30 8560 H 814.368 4.15802 -0.223133 0
M  V30 8561 H 816.965 4.72689 2.49938 0
M  V30 8562 H 817.308 3.04776 2.8358 0
M  V30 8563 H 817.841 3.76156 1.29427 0
M  V30 8564 H 814.58 6.55197 0.199163 0
M  V30 8565 H 814.1 5.7486 1.71162 0
M  V30 8566 H 815.779 6.29757 1.48376 0
M  V30 8567 N 815.911 -0.310526 1.54511 0
M  V30 8568 C 817.188 -1.06593 1.64004 0
M  V30 8569 C 817.568 -2.05519 0.482216 0
M  V30 8570 O 816.916 -2.22455 -0.52212 0
M  V30 8571 C 817.126 -1.75627 3.01589 0
M  V30 8572 C 818.474 -2.28173 3.58081 0
M  V30 8573 O 819.498 -1.85674 3.03979 0
M  V30 8574 O 818.357 -3.06015 4.52788 0
M  V30 8575 H 815.451 -0.492109 0.664649 0
M  V30 8576 H 817.997 -0.309374 1.66856 0
M  V30 8577 H 816.769 -1.03743 3.77297 0
M  V30 8578 H 816.392 -2.58061 3.02473 0
M  V30 8579 N 817.389 -1.46805 -0.573248 0
M  V30 8580 C 818.319 -1.60951 -1.69165 0
M  V30 8581 C 819.3 -0.45948 -1.63777 0
M  V30 8582 O 820.485 -0.68688 -1.81647 0
M  V30 8583 C 817.615 -1.60844 -3.07809 0
M  V30 8584 C 816.569 -2.74913 -3.28035 0
M  V30 8585 C 815.895 -2.59871 -4.67302 0
M  V30 8586 C 817.195 -4.16654 -3.14955 0
M  V30 8587 H 818.889 -2.54574 -1.57582 0
M  V30 8588 H 816.435 -1.22516 -0.756686 0
M  V30 8589 H 818.388 -1.69334 -3.85881 0
M  V30 8590 H 817.112 -0.637714 -3.20314 0
M  V30 8591 H 815.771 -2.65908 -2.52366 0
M  V30 8592 H 815.419 -1.60861 -4.76585 0
M  V30 8593 H 815.119 -3.36386 -4.81786 0
M  V30 8594 H 816.643 -2.70265 -5.4753 0
M  V30 8595 H 818.057 -4.26721 -3.82861 0
M  V30 8596 H 816.454 -4.93831 -3.40956 0
M  V30 8597 H 817.524 -4.36146 -2.11908 0
M  V30 8598 N 818.867 0.818669 -1.34668 0
M  V30 8599 C 820.116 1.57017 -1.26604 0
M  V30 8600 C 820.429 1.94936 0.161036 0
M  V30 8601 O 821.635 2.69051 0.36386 0
M  V30 8602 C 820.091 2.83305 -2.2196 0
M  V30 8603 C 819.699 2.52671 -3.69948 0
M  V30 8604 C 821.443 3.61324 -2.22813 0
M  V30 8605 C 819.35 3.75178 -4.5716 0
M  V30 8606 H 818.28 0.589323 -0.470335 0
M  V30 8607 H 820.931 0.900956 -1.59859 0
M  V30 8608 H 819.313 3.51874 -1.81661 0
M  V30 8609 H 820.487 1.92186 -4.18809 0
M  V30 8610 H 818.802 1.8792 -3.71584 0
M  V30 8611 H 821.399 4.52294 -2.85192 0
M  V30 8612 H 821.742 3.97759 -1.22857 0
M  V30 8613 H 822.275 2.99703 -2.61578 0
M  V30 8614 H 819.014 3.43861 -5.58068 0
M  V30 8615 H 818.534 4.34931 -4.13031 0
M  V30 8616 H 820.213 4.42542 -4.71981 0
M  V30 8617 N 820.346 1.18468 1.03938 0
M  V30 8618 C 821.595 0.975193 1.76558 0
M  V30 8619 C 821.908 -0.495978 1.89207 0
M  V30 8620 O 823.114 -0.824009 2.58694 0
M  V30 8621 C 821.57 1.69579 3.17444 0
M  V30 8622 C 821.178 3.20636 3.12884 0
M  V30 8623 C 822.922 1.56917 3.94433 0
M  V30 8624 C 820.829 3.8533 4.48636 0
M  V30 8625 H 819.759 0.361244 0.66183 0
M  V30 8626 H 822.41 1.41854 1.16403 0
M  V30 8627 H 820.792 1.18022 3.78004 0
M  V30 8628 H 821.966 3.79228 2.61768 0
M  V30 8629 H 820.281 3.33454 2.49394 0
M  V30 8630 H 822.878 2.02611 4.94826 0
M  V30 8631 H 823.221 0.521638 4.13019 0
M  V30 8632 H 823.754 2.05762 3.40451 0
M  V30 8633 H 820.493 4.90136 4.35255 0
M  V30 8634 H 820.013 3.31526 4.99851 0
M  V30 8635 H 821.692 3.88269 5.17549 0
M  V30 8636 N 821.824 -1.22873 0.986916 0
M  V30 8637 C 823.235 -1.73264 0.695438 0
M  V30 8638 C 823.586 -1.79679 -0.788023 0
M  V30 8639 O 822.711 -1.43905 -1.61618 0
M  V30 8640 C 823.306 -3.14671 1.2557 0
M  V30 8641 C 821.865 -3.62492 1.01373 0
M  V30 8642 C 821.012 -2.40551 1.37951 0
M  V30 8643 H 823.963 -1.08304 1.15999 0
M  V30 8644 H 823.984 -3.75226 0.631322 0
M  V30 8645 H 823.496 -3.0997 2.33539 0
M  V30 8646 H 821.597 -3.72567 -0.0495917 0
M  V30 8647 H 821.71 -4.48944 1.67289 0
M  V30 8648 H 820.074 -2.41875 0.798033 0
M  V30 8649 H 820.857 -2.38516 2.46911 0
M  V30 8650 N 823.302 -0.75937 -1.38099 0
M  V30 8651 C 824.718 -0.437606 -1.53483 0
M  V30 8652 C 824.918 1.04849 -1.72072 0
M  V30 8653 O 823.974 1.83448 -1.73502 0
M  V30 8654 C 825.287 -1.24189 -2.73857 0
M  V30 8655 C 826.835 -1.23255 -2.8771 0
M  V30 8656 C 827.31 -2.01992 -4.11051 0
M  V30 8657 N 828.801 -1.99282 -4.1814 0
M  V30 8658 C 829.536 -2.56996 -5.12583 0
M  V30 8659 N 829.032 -3.23446 -6.12662 0
M  V30 8660 N 830.825 -2.46894 -5.04975 0
M  V30 8661 H 822.976 -1.72242 -1.24283 0
M  V30 8662 H 825.239 -0.730507 -0.604205 0
M  V30 8663 H 824.945 -2.29449 -2.66545 0
M  V30 8664 H 824.819 -0.862672 -3.67203 0
M  V30 8665 H 827.206 -0.187988 -2.94501 0
M  V30 8666 H 827.287 -1.65132 -1.95359 0
M  V30 8667 H 826.931 -3.06462 -4.05023 0
M  V30 8668 H 826.861 -1.57505 -5.02494 0
M  V30 8669 H 829.352 -1.50893 -3.46467 0
M  V30 8670 H 829.665 -3.6489 -6.81231 0
M  V30 8671 H 828.01 -3.27543 -6.12977 0
M  V30 8672 H 831.201 -1.94604 -4.25731 0
M  V30 8673 H 831.374 -2.92168 -5.78396 0
M  V30 8674 N 824.78 1.49157 -0.508906 0
M  V30 8675 C 826.028 2.02073 0.0327335 0
M  V30 8676 C 826.349 1.39012 1.3675 0
M  V30 8677 O 825.619 0.548153 1.88075 0
M  V30 8678 H 824.199 0.746848 0.0150864 0
M  V30 8679 H 826.861 1.83097 -0.667946 0
M  V30 8680 H 825.957 3.11707 0.1566 0
M  V30 8681 N 826.258 0.243083 1.55714 0
M  V30 8682 C 827.483 -0.389944 2.03701 0
M  V30 8683 C 827.908 -1.51025 1.12129 0
M  V30 8684 O 827.266 -1.80944 0.11352 0
M  V30 8685 C 827.314 -0.878649 3.49731 0
M  V30 8686 O 826.418 -1.98851 3.61292 0
M  V30 8687 H 825.759 -0.0855115 0.658471 0
M  V30 8688 H 828.289 0.368023 2.01263 0
M  V30 8689 H 828.299 -1.18287 3.90477 0
M  V30 8690 H 826.974 -0.0588107 4.15858 0
M  V30 8691 H 825.551 -1.68928 3.32442 0
M  V30 8692 N 827.736 -1.57571 -0.0300757 0
M  V30 8693 C 828.961 -1.93879 -0.736601 0
M  V30 8694 C 829.386 -0.842998 -1.68152 0
M  V30 8695 O 828.744 0.20135 -1.80178 0
M  V30 8696 C 828.792 -3.29247 -1.47066 0
M  V30 8697 O 827.896 -3.21426 -2.58378 0
M  V30 8698 H 827.237 -0.633735 -0.198181 0
M  V30 8699 H 829.767 -2.04595 0.0141485 0
M  V30 8700 H 829.777 -3.64113 -1.84081 0
M  V30 8701 H 828.452 -4.08565 -0.77764 0
M  V30 8702 H 827.029 -2.98189 -2.23914 0
M  V30 8703 N 829.214 0.302327 -1.54673 0
M  V30 8704 C 830.146 1.39443 -1.81902 0
M  V30 8705 C 831.159 1.46891 -0.701914 0
M  V30 8706 O 832.348 1.49233 -0.979369 0
M  V30 8707 C 829.448 2.77824 -1.9408 0
M  V30 8708 C 828.621 2.93324 -3.24468 0
M  V30 8709 C 827.68 4.12196 -3.27079 0
M  V30 8710 O 826.706 4.04344 -4.00617 0
M  V30 8711 N 827.908 5.22768 -2.52376 0
M  V30 8712 H 830.673 1.1644 -2.76155 0
M  V30 8713 H 828.234 0.492392 -1.54231 0
M  V30 8714 H 830.226 3.5559 -1.9323 0
M  V30 8715 H 828.796 2.9378 -1.06828 0
M  V30 8716 H 828.016 2.02682 -3.38103 0
M  V30 8717 H 829.304 3.0059 -4.10516 0
M  V30 8718 H 828.702 5.32027 -1.92259 0
M  V30 8719 H 827.259 5.98874 -2.57281 0
M  V30 8720 N 830.692 1.47107 0.565454 0
M  V30 8721 C 831.622 1.61846 1.68309 0
M  V30 8722 C 832.603 0.468159 1.63531 0
M  V30 8723 O 833.788 0.696504 1.8128 0
M  V30 8724 C 830.918 1.62474 3.06952 0
M  V30 8725 C 829.872 2.76649 3.26572 0
M  V30 8726 C 829.198 2.62345 4.65917 0
M  V30 8727 C 830.498 4.18319 3.12741 0
M  V30 8728 H 832.192 2.55407 1.5623 0
M  V30 8729 H 829.738 1.22916 0.750179 0
M  V30 8730 H 831.691 1.71378 3.84977 0
M  V30 8731 H 830.415 0.654692 3.19971 0
M  V30 8732 H 829.074 2.67242 2.50952 0
M  V30 8733 H 828.722 1.63386 4.75725 0
M  V30 8734 H 828.422 3.38936 4.79996 0
M  V30 8735 H 829.946 2.73165 5.46089 0
M  V30 8736 H 831.36 4.28745 3.80593 0
M  V30 8737 H 829.757 4.95632 3.38333 0
M  V30 8738 H 830.827 4.37263 2.09592 0
M  V30 8739 N 832.17 -0.811516 1.35101 0
M  V30 8740 C 833.416 -1.57068 1.28287 0
M  V30 8741 C 833.749 -1.93667 -0.143808 0
M  V30 8742 O 833.024 -1.60953 -1.09199 0
M  V30 8743 C 833.307 -2.86259 2.18466 0
M  V30 8744 C 833.16 -2.56168 3.69727 0
M  V30 8745 C 834.479 -3.87924 2.07852 0
M  V30 8746 H 831.598 -0.569869 0.467353 0
M  V30 8747 H 834.24 -0.934023 1.65457 0
M  V30 8748 H 832.39 -3.4059 1.86898 0
M  V30 8749 H 834.062 -2.08059 4.11715 0
M  V30 8750 H 832.305 -1.89436 3.90252 0
M  V30 8751 H 832.976 -3.48344 4.28206 0
M  V30 8752 H 835.452 -3.4298 2.35593 0
M  V30 8753 H 834.328 -4.76106 2.73157 0
M  V30 8754 H 834.589 -4.2923 1.05896 0
M  V30 8755 N 833.648 -1.19017 -1.03309 0
M  V30 8756 C 835.064 -0.941483 -1.28873 0
M  V30 8757 C 835.264 0.388587 -1.97718 0
M  V30 8758 O 834.32 1.12111 -2.26246 0
M  V30 8759 C 835.633 -2.11249 -2.13996 0
M  V30 8760 C 837.181 -2.15164 -2.27318 0
M  V30 8761 C 837.656 -3.31704 -3.15811 0
M  V30 8762 N 839.147 -3.31613 -3.23399 0
M  V30 8763 C 839.882 -4.18431 -3.9205 0
M  V30 8764 N 839.378 -5.15397 -4.62966 0
M  V30 8765 N 841.171 -4.06321 -3.88406 0
M  V30 8766 H 833.322 -2.04599 -0.570343 0
M  V30 8767 H 835.585 -0.894406 -0.314232 0
M  V30 8768 H 835.291 -3.07482 -1.70727 0
M  V30 8769 H 835.165 -2.07955 -3.14697 0
M  V30 8770 H 837.552 -1.19504 -2.6982 0
M  V30 8771 H 837.633 -2.22513 -1.26182 0
M  V30 8772 H 837.277 -4.2764 -2.74019 0
M  V30 8773 H 837.207 -3.21592 -4.16997 0
M  V30 8774 H 839.698 -2.6142 -2.72888 0
M  V30 8775 H 840.011 -5.78 -5.12968 0
M  V30 8776 H 838.356 -5.19349 -4.61846 0
M  V30 8777 H 841.547 -3.29849 -3.3214 0
M  V30 8778 H 841.72 -4.74196 -4.41635 0
M  V30 8779 N 835.127 1.22348 -0.993418 0
M  V30 8780 C 836.404 1.86632 -0.585495 0
M  V30 8781 C 836.784 1.89156 0.937187 0
M  V30 8782 O 836.132 1.38247 1.81934 0
M  V30 8783 C 836.342 3.27481 -1.20652 0
M  V30 8784 C 837.69 4.03971 -1.30738 0
M  V30 8785 O 838.714 3.3675 -1.16096 0
M  V30 8786 O 837.573 5.24302 -1.54173 0
M  V30 8787 H 834.667 0.802704 -0.198984 0
M  V30 8788 H 837.213 1.30122 -1.08933 0
M  V30 8789 H 835.985 3.20281 -2.24802 0
M  V30 8790 H 835.608 3.91597 -0.688312 0
M  V30 8791 N 836.605 0.766683 1.37694 0
M  V30 8792 C 837.854 0.325425 1.99057 0
M  V30 8793 C 838.167 -1.10275 1.61551 0
M  V30 8794 O 839.373 -1.64513 2.1598 0
M  V30 8795 C 837.829 0.530886 3.55963 0
M  V30 8796 C 837.437 1.96899 4.02411 0
M  V30 8797 C 839.181 0.152997 4.24224 0
M  V30 8798 C 837.088 2.12232 5.52007 0
M  V30 8799 H 836.018 0.117929 0.744721 0
M  V30 8800 H 838.669 0.945091 1.5729 0
M  V30 8801 H 837.051 -0.158162 3.95684 0
M  V30 8802 H 838.225 2.69258 3.73948 0
M  V30 8803 H 836.54 2.303 3.46916 0
M  V30 8804 H 839.137 0.24614 5.34133 0
M  V30 8805 H 839.48 -0.896096 4.06541 0
M  V30 8806 H 840.013 0.794398 3.89787 0
M  V30 8807 H 836.752 3.15442 5.7461 0
M  V30 8808 H 836.272 1.4435 5.82171 0
M  V30 8809 H 837.951 1.9185 6.17902 0
M  V30 8810 N 838.083 -1.48885 0.516809 0
M  V30 8811 C 839.015 -2.27357 -0.290061 0
M  V30 8812 C 840.028 -1.34558 -0.916406 0
M  V30 8813 O 841.217 -1.59715 -0.797073 0
M  V30 8814 C 838.317 -3.07496 -1.42476 0
M  V30 8815 C 837.49 -4.27982 -0.902793 0
M  V30 8816 C 836.549 -4.90038 -1.91701 0
M  V30 8817 O 835.575 -5.49643 -1.47922 0
M  V30 8818 N 836.777 -4.811 -3.24843 0
M  V30 8819 H 839.542 -2.97244 0.382884 0
M  V30 8820 H 837.103 -1.58064 0.35032 0
M  V30 8821 H 839.095 -3.45882 -2.10113 0
M  V30 8822 H 837.665 -2.40115 -2.00159 0
M  V30 8823 H 836.885 -3.94167 -0.0508272 0
M  V30 8824 H 838.173 -5.06003 -0.532723 0
M  V30 8825 H 837.571 -4.33801 -3.63088 0
M  V30 8826 H 836.128 -5.23625 -3.8815 0
M  V30 8827 N 839.561 -0.251338 -1.55583 0
M  V30 8828 C 840.508 0.646337 -2.21565 0
M  V30 8829 C 841.478 1.16796 -1.18102 0
M  V30 8830 O 842.663 1.22162 -1.46564 0
M  V30 8831 C 839.803 1.83557 -2.92234 0
M  V30 8832 C 838.916 1.35006 -4.10363 0
M  V30 8833 C 838.051 2.4992 -4.68736 0
M  V30 8834 C 837.09 1.98253 -5.79105 0
M  V30 8835 N 836.227 3.06551 -6.31642 0
M  V30 8836 H 841.067 0.0769881 -2.97901 0
M  V30 8837 H 838.604 0.026238 -1.47077 0
M  V30 8838 H 840.562 2.53425 -3.31408 0
M  V30 8839 H 839.192 2.37733 -2.18364 0
M  V30 8840 H 838.244 0.545274 -3.76472 0
M  V30 8841 H 839.556 0.931435 -4.90026 0
M  V30 8842 H 838.71 3.27823 -5.10507 0
M  V30 8843 H 837.449 2.95086 -3.88298 0
M  V30 8844 H 836.454 1.18822 -5.36807 0
M  V30 8845 H 837.679 1.54051 -6.61396 0
M  V30 8846 H 835.625 3.51143 -5.54107 0
M  V30 8847 H 835.542 2.69033 -7.06511 0
M  V30 8848 H 836.81 3.84499 -6.78071 0
M  V30 8849 N 841.039 1.57585 0.0217189 0
M  V30 8850 C 842.002 2.06004 1.00474 0
M  V30 8851 C 843.002 0.965461 1.2859 0
M  V30 8852 O 844.192 1.22884 1.23471 0
M  V30 8853 C 841.324 2.48319 2.33561 0
M  V30 8854 H 842.517 2.94112 0.586346 0
M  V30 8855 H 840.07 1.53973 0.268716 0
M  V30 8856 H 840.805 1.63389 2.80133 0
M  V30 8857 H 840.59 3.28239 2.1448 0
M  V30 8858 H 842.08 2.86181 3.04122 0
M  V30 8859 N 842.517 -0.29412 1.54831 0
M  V30 8860 C 843.48 -1.3461 1.85507 0
M  V30 8861 C 844.48 -1.43359 0.728343 0
M  V30 8862 O 845.67 -1.42875 0.996609 0
M  V30 8863 C 842.802 -2.73012 2.0415 0
M  V30 8864 H 843.995 -1.08651 2.79526 0
M  V30 8865 H 841.548 -0.531138 1.46999 0
M  V30 8866 H 842.283 -3.04183 1.12441 0
M  V30 8867 H 842.068 -2.68051 2.86166 0
M  V30 8868 H 843.558 -3.49061 2.29229 0
M  V30 8869 N 843.995 -1.47404 -0.557645 0
M  V30 8870 C 844.942 -1.59859 -1.66475 0
M  V30 8871 C 845.912 -0.441644 -1.60121 0
M  V30 8872 O 847.097 -0.661641 -1.78961 0
M  V30 8873 C 844.237 -1.61843 -3.04797 0
M  V30 8874 C 843.35 -2.8845 -3.2159 0
M  V30 8875 C 842.485 -2.81773 -4.50308 0
M  V30 8876 C 841.524 -4.03208 -4.60532 0
M  V30 8877 N 840.661 -3.94769 -5.80604 0
M  V30 8878 H 845.501 -2.54415 -1.55168 0
M  V30 8879 H 843.038 -1.26194 -0.755876 0
M  V30 8880 H 844.996 -1.60976 -3.84893 0
M  V30 8881 H 843.626 -0.707997 -3.1494 0
M  V30 8882 H 842.678 -2.99186 -2.34929 0
M  V30 8883 H 843.99 -3.78379 -3.25009 0
M  V30 8884 H 843.144 -2.79153 -5.38663 0
M  V30 8885 H 841.883 -1.89527 -4.49367 0
M  V30 8886 H 840.888 -4.06133 -3.70589 0
M  V30 8887 H 842.113 -4.9658 -4.63233 0
M  V30 8888 H 840.059 -3.05326 -5.80613 0
M  V30 8889 H 839.976 -4.78375 -5.854 0
M  V30 8890 H 841.244 -3.96165 -6.71322 0
M  V30 8891 N 845.473 0.80434 -1.35529 0
M  V30 8892 C 846.721 1.55845 -1.28673 0
M  V30 8893 C 847.042 1.94511 0.137976 0
M  V30 8894 O 846.312 1.63775 1.07492 0
M  V30 8895 H 844.892 0.577931 -0.473291 0
M  V30 8896 H 847.554 0.959293 -1.69657 0
M  V30 8897 H 846.65 2.47285 -1.90411 0
M  V30 8898 N 846.951 1.19563 1.02676 0
M  V30 8899 C 848.2 0.993864 1.75514 0
M  V30 8900 C 848.513 -0.475882 1.89723 0
M  V30 8901 O 849.719 -0.796525 2.59553 0
M  V30 8902 C 848.175 1.72937 3.15628 0
M  V30 8903 C 847.783 3.23937 3.09466 0
M  V30 8904 C 849.527 1.61092 3.92746 0
M  V30 8905 C 847.434 3.90067 4.44524 0
M  V30 8906 H 846.364 0.368244 0.657961 0
M  V30 8907 H 849.015 1.43081 1.14891 0
M  V30 8908 H 847.397 1.22025 3.76731 0
M  V30 8909 H 848.571 3.81983 2.57731 0
M  V30 8910 H 846.886 3.3608 2.45843 0
M  V30 8911 H 849.483 2.07848 4.92649 0
M  V30 8912 H 849.826 0.565415 4.12442 0
M  V30 8913 H 850.359 2.09361 3.3825 0
M  V30 8914 H 847.098 4.94725 4.30032 0
M  V30 8915 H 846.618 3.36809 4.96306 0
M  V30 8916 H 848.297 3.93736 5.13401 0
M  V30 8917 N 848.429 -1.21819 0.999893 0
M  V30 8918 C 849.84 -1.72517 0.713775 0
M  V30 8919 C 850.191 -1.80505 -0.768922 0
M  V30 8920 O 849.316 -1.45611 -1.60083 0
M  V30 8921 C 849.911 -3.13321 1.28901 0
M  V30 8922 C 848.47 -3.61396 1.05212 0
M  V30 8923 C 847.617 -2.39074 1.40494 0
M  V30 8924 H 850.568 -1.07068 1.17141 0
M  V30 8925 H 850.589 -3.74535 0.671084 0
M  V30 8926 H 850.101 -3.07475 2.36814 0
M  V30 8927 H 848.202 -3.72599 -0.0100732 0
M  V30 8928 H 848.315 -4.47145 1.72042 0
M  V30 8929 H 846.679 -2.41015 0.823642 0
M  V30 8930 H 847.462 -2.35884 2.49427 0
M  V30 8931 N 849.908 -0.773975 -1.37286 0
M  V30 8932 C 851.154 -0.339809 -1.99933 0
M  V30 8933 C 851.487 1.0815 -1.61299 0
M  V30 8934 O 850.762 1.74442 -0.860252 0
M  V30 8935 C 851.045 -0.485919 -3.56806 0
M  V30 8936 C 850.898 -1.9498 -4.05343 0
M  V30 8937 C 852.217 0.108461 -4.39966 0
M  V30 8938 H 849.336 -0.124944 -0.726332 0
M  V30 8939 H 851.978 -0.977433 -1.6293 0
M  V30 8940 H 850.128 0.0569023 -3.88458 0
M  V30 8941 H 851.8 -2.5525 -3.84246 0
M  V30 8942 H 850.043 -2.45784 -3.57453 0
M  V30 8943 H 850.714 -2.00308 -5.14374 0
M  V30 8944 H 853.19 -0.354722 -4.14585 0
M  V30 8945 H 852.066 -0.0238926 -5.48895 0
M  V30 8946 H 852.327 1.19901 -4.25531 0
M  V30 8947 N 851.386 1.48609 -0.524698 0
M  V30 8948 C 852.319 2.26374 0.288109 0
M  V30 8949 C 853.297 1.31997 0.949509 0
M  V30 8950 O 854.481 1.61329 0.974946 0
M  V30 8951 C 851.608 3.08065 1.4076 0
M  V30 8952 C 850.654 4.17777 0.858152 0
M  V30 8953 S 851.487 5.3482 -0.269827 0
M  V30 8954 C 852.643 6.2007 0.852266 0
M  V30 8955 H 852.876 2.94965 -0.371865 0
M  V30 8956 H 850.409 1.51248 -0.31039 0
M  V30 8957 H 852.367 3.5571 2.04892 0
M  V30 8958 H 851.028 2.38898 2.03928 0
M  V30 8959 H 850.221 4.74542 1.69783 0
M  V30 8960 H 849.823 3.72846 0.293627 0
M  V30 8961 H 852.115 6.54451 1.75213 0
M  V30 8962 H 853.058 7.07364 0.322717 0
M  V30 8963 H 853.466 5.53068 1.13029 0
M  V30 8964 N 852.864 0.259585 1.55447 0
M  V30 8965 C 854.112 -0.360893 1.98852 0
M  V30 8966 C 854.433 -1.57535 1.14924 0
M  V30 8967 O 853.703 -1.94485 0.235025 0
M  V30 8968 H 852.283 -0.136332 0.734454 0
M  V30 8969 H 854.945 0.361319 1.91522 0
M  V30 8970 H 854.041 -0.661388 3.05012 0
M  V30 8971 N 854.342 -1.57594 -0.0133615 0
M  V30 8972 C 855.292 -2.04048 -1.01726 0
M  V30 8973 C 856.276 -0.932682 -1.3111 0
M  V30 8974 O 857.468 -1.19652 -1.30432 0
M  V30 8975 C 854.597 -2.53637 -2.31351 0
M  V30 8976 C 853.683 -3.71269 -2.04989 0
M  V30 8977 N 854.074 -4.83436 -1.48739 0
M  V30 8978 C 852.372 -3.78943 -2.35198 0
M  V30 8979 C 853.073 -5.64961 -1.38542 0
M  V30 8980 N 852.049 -5.10554 -1.86643 0
M  V30 8981 H 855.851 -2.88188 -0.576623 0
M  V30 8982 H 853.365 -1.60912 -0.219344 0
M  V30 8983 H 855.362 -2.85186 -3.04096 0
M  V30 8984 H 854.022 -1.7091 -2.76079 0
M  V30 8985 H 855.033 -5.04558 -1.16798 0
M  V30 8986 H 851.71 -3.07047 -2.82893 0
M  V30 8987 H 853.1 -6.65092 -0.954075 0
M  V30 8988 N 855.82 0.285905 -1.54985 0
M  V30 8989 C 857.045 1.04207 -1.7932 0
M  V30 8990 C 857.47 1.79622 -0.558343 0
M  V30 8991 O 856.828 1.74506 0.491661 0
M  V30 8992 C 856.876 1.98648 -3.0095 0
M  V30 8993 O 855.98 3.07207 -2.75132 0
M  V30 8994 H 855.321 0.298596 -0.593074 0
M  V30 8995 H 857.851 0.318736 -2.02102 0
M  V30 8996 H 857.861 2.4084 -3.29333 0
M  V30 8997 H 856.536 1.43167 -3.90482 0
M  V30 8998 H 855.113 2.69423 -2.57809 0
M  V30 8999 N 857.298 1.47698 0.54982 0
M  V30 9000 C 858.208 1.63386 1.68351 0
M  V30 9001 C 859.224 0.516583 1.66155 0
M  V30 9002 O 860.4 0.785088 1.85468 0
M  V30 9003 C 857.465 1.6513 3.04849 0
M  V30 9004 C 856.526 2.88338 3.18056 0
M  V30 9005 C 855.759 2.8999 4.48042 0
M  V30 9006 O 855.982 2.00633 5.3395 0
M  V30 9007 O 854.916 3.81938 4.65196 0
M  V30 9008 H 858.742 2.59329 1.58057 0
M  V30 9009 H 856.327 1.30869 0.72067 0
M  V30 9010 H 858.209 1.68913 3.86065 0
M  V30 9011 H 856.884 0.723555 3.1551 0
M  V30 9012 H 855.791 2.90097 2.36209 0
M  V30 9013 H 857.124 3.80431 3.12302 0
M  V30 9014 N 858.776 -0.797141 1.35954 0
M  V30 9015 C 860.024 -1.55161 1.29497 0
M  V30 9016 C 860.345 -1.94582 -0.127659 0
M  V30 9017 O 859.615 -1.64343 -1.06622 0
M  V30 9018 H 858.195 -0.575413 0.47635 0
M  V30 9019 H 860.857 -0.950282 1.70164 0
M  V30 9020 H 859.953 -2.46272 1.9172 0
M  V30 9021 N 860.254 -1.20106 -1.0204 0
M  V30 9022 C 861.503 -1.00316 -1.74985 0
M  V30 9023 C 861.816 0.465814 -1.89972 0
M  V30 9024 O 863.022 0.782749 -2.59972 0
M  V30 9025 C 861.478 -1.74608 -3.14706 0
M  V30 9026 C 861.086 -3.25573 -3.07744 0
M  V30 9027 C 862.83 -1.63172 -3.91887 0
M  V30 9028 C 860.737 -3.92419 -4.42449 0
M  V30 9029 H 859.667 -0.371728 -0.655999 0
M  V30 9030 H 862.318 -1.43688 -1.14131 0
M  V30 9031 H 860.7 -1.24021 -3.76078 0
M  V30 9032 H 861.874 -3.83345 -2.55702 0
M  V30 9033 H 860.189 -3.3738 -2.44057 0
M  V30 9034 H 862.786 -2.10457 -4.9154 0
M  V30 9035 H 863.129 -0.58728 -4.12137 0
M  V30 9036 H 863.662 -2.11152 -3.37135 0
M  V30 9037 H 860.401 -4.96998 -4.27403 0
M  V30 9038 H 859.921 -3.39436 -4.94513 0
M  V30 9039 H 861.6 -3.96453 -5.11306 0
M  V30 9040 N 861.732 1.21287 -1.00634 0
M  V30 9041 C 862.972 1.92106 -0.698194 0
M  V30 9042 C 863.336 1.76437 0.757222 0
M  V30 9043 O 864.537 2.41641 1.17741 0
M  V30 9044 C 862.808 3.39748 -1.10932 0
M  V30 9045 S 864.367 4.29013 -0.921586 0
M  V30 9046 H 861.185 0.663755 -0.254853 0
M  V30 9047 H 863.787 1.46772 -1.29145 0
M  V30 9048 H 862.491 3.48669 -2.16467 0
M  V30 9049 H 862.022 3.90101 -0.508419 0
M  V30 9050 H 864.037 4.95871 0.180578 0
M  V30 9051 N 863.21 0.781244 1.36873 0
M  V30 9052 C 864.16 0.147313 2.27524 0
M  V30 9053 C 865.144 -0.663928 1.46563 0
M  V30 9054 O 866.336 -0.525343 1.69024 0
M  V30 9055 C 863.465 -0.723511 3.35589 0
M  V30 9056 C 862.551 0.0960763 4.23991 0
M  V30 9057 N 862.942 1.14649 4.92635 0
M  V30 9058 C 861.24 -0.126397 4.45821 0
M  V30 9059 C 861.941 1.64474 5.57964 0
M  V30 9060 N 860.917 0.955316 5.3514 0
M  V30 9061 H 864.719 0.951406 2.78075 0
M  V30 9062 H 862.233 0.619913 1.50103 0
M  V30 9063 H 864.23 -1.19351 3.99451 0
M  V30 9064 H 862.89 -1.52624 2.86594 0
M  V30 9065 H 863.901 1.5288 4.94821 0
M  V30 9066 H 860.578 -0.900284 4.07678 0
M  V30 9067 H 861.968 2.52124 6.22803 0
M  V30 9068 N 864.689 -1.48329 0.532571 0
M  V30 9069 C 865.622 -2.26524 -0.2761 0
M  V30 9070 C 866.6 -1.32498 -0.942496 0
M  V30 9071 O 867.784 -1.61844 -0.966376 0
M  V30 9072 C 864.911 -3.08808 -1.39124 0
M  V30 9073 C 863.957 -4.18227 -0.835984 0
M  V30 9074 S 864.79 -5.34669 0.298186 0
M  V30 9075 C 865.946 -6.20514 -0.81937 0
M  V30 9076 H 866.179 -2.94764 0.387502 0
M  V30 9077 H 863.712 -1.51081 0.318407 0
M  V30 9078 H 865.67 -3.56792 -2.03002 0
M  V30 9079 H 864.331 -2.39976 -2.02658 0
M  V30 9080 H 863.524 -4.75435 -1.67264 0
M  V30 9081 H 863.126 -3.72996 -0.27385 0
M  V30 9082 H 865.418 -6.55371 -1.7174 0
M  V30 9083 H 866.361 -7.07525 -0.285199 0
M  V30 9084 H 866.769 -5.5366 -1.10094 0
M  V30 9085 N 866.167 -0.267825 -1.55308 0
M  V30 9086 C 867.397 0.354073 -2.03543 0
M  V30 9087 C 867.805 1.50554 -1.14586 0
M  V30 9088 O 867.148 1.83028 -0.156991 0
M  V30 9089 C 867.21 0.904148 -3.47945 0
M  V30 9090 C 866.874 -0.11775 -4.56848 0
M  V30 9091 C 867.871 -0.934707 -5.11429 0
M  V30 9092 C 865.556 -0.249885 -5.01678 0
M  V30 9093 C 867.55 -1.87005 -6.0935 0
M  V30 9094 C 865.237 -1.18872 -5.99427 0
M  V30 9095 C 866.235 -1.99731 -6.53144 0
M  V30 9096 O 865.923 -2.92028 -7.48983 0
M  V30 9097 H 865.655 0.0857765 -0.670536 0
M  V30 9098 H 868.209 -0.395515 -2.01556 0
M  V30 9099 H 866.439 1.70368 -3.47148 0
M  V30 9100 H 868.128 1.43835 -3.79561 0
M  V30 9101 H 868.894 -0.84332 -4.77612 0
M  V30 9102 H 864.773 0.369469 -4.59517 0
M  V30 9103 H 868.317 -2.5016 -6.51203 0
M  V30 9104 H 864.214 -1.28095 -6.32663 0
M  V30 9105 H 864.982 -2.86627 -7.66673 0
M  V30 9106 N 867.645 1.57599 0.00500368 0
M  V30 9107 C 868.891 1.90631 0.691919 0
M  V30 9108 C 869.224 0.868443 1.737 0
M  V30 9109 O 868.499 -0.113482 1.94169 0
M  V30 9110 C 868.782 3.34255 1.33961 0
M  V30 9111 C 868.635 4.48755 0.306413 0
M  V30 9112 C 869.954 3.77211 2.26715 0
M  V30 9113 H 867.073 0.693279 0.250066 0
M  V30 9114 H 869.715 1.89946 -0.0452634 0
M  V30 9115 H 867.865 3.3497 1.96793 0
M  V30 9116 H 869.537 4.60176 -0.321841 0
M  V30 9117 H 867.78 4.32203 -0.371852 0
M  V30 9118 H 868.451 5.46193 0.798554 0
M  V30 9119 H 870.927 3.78017 1.73904 0
M  V30 9120 H 869.803 4.78466 2.69002 0
M  V30 9121 H 870.064 3.10801 3.14413 0
M  V30 9122 N 869.123 -0.277682 1.55134 0
M  V30 9123 C 870.4 -1.0309 1.66228 0
M  V30 9124 C 870.78 -2.0445 0.525701 0
M  V30 9125 O 870.128 -2.23512 -0.474816 0
M  V30 9126 C 870.338 -1.6919 3.05247 0
M  V30 9127 C 871.686 -2.20526 3.62841 0
M  V30 9128 O 872.71 -1.79185 3.07849 0
M  V30 9129 O 871.569 -2.96342 4.59177 0
M  V30 9130 H 868.663 -0.4779 0.674937 0
M  V30 9131 H 871.209 -0.273912 1.67475 0
M  V30 9132 H 869.981 -0.957163 3.79413 0
M  V30 9133 H 869.604 -2.51587 3.07879 0
M  V30 9134 N 870.601 -1.47988 -0.541979 0
M  V30 9135 C 871.826 -1.59286 -1.32826 0
M  V30 9136 C 872.251 -0.24894 -1.86445 0
M  V30 9137 O 871.609 0.777581 -1.63778 0
M  V30 9138 C 871.657 -2.6334 -2.46343 0
M  V30 9139 O 870.761 -2.19667 -3.49028 0
M  V30 9140 H 870.102 -0.534543 -0.393903 0
M  V30 9141 H 872.632 -1.93885 -0.653427 0
M  V30 9142 H 872.642 -2.84238 -2.92699 0
M  V30 9143 H 871.317 -3.60913 -2.06675 0
M  V30 9144 H 869.894 -2.08932 -3.08872 0
M  V30 9145 N 872.079 0.78992 -1.36375 0
M  V30 9146 C 872.989 1.93386 -1.32812 0
M  V30 9147 C 874.005 1.72468 -0.230377 0
M  V30 9148 O 875.181 1.96014 -0.462657 0
M  V30 9149 C 872.246 3.2824 -1.11621 0
M  V30 9150 C 871.307 3.61939 -2.30865 0
M  V30 9151 C 870.54 4.90359 -2.10675 0
M  V30 9152 O 870.763 5.6005 -1.08168 0
M  V30 9153 O 869.697 5.22702 -2.9844 0
M  V30 9154 H 873.523 1.99342 -2.29121 0
M  V30 9155 H 871.108 0.9301 -1.16917 0
M  V30 9156 H 872.99 4.08939 -1.01719 0
M  V30 9157 H 871.665 3.23178 -0.183732 0
M  V30 9158 H 870.572 2.81549 -2.46335 0
M  V30 9159 H 871.905 3.71725 -3.22617 0
M  V30 9160 N 873.557 1.20646 1.01402 0
M  V30 9161 C 874.52 0.959314 2.08158 0
M  V30 9162 C 875.52 -0.0661558 1.60664 0
M  V30 9163 O 876.71 0.170177 1.73367 0
M  V30 9164 C 873.842 0.444785 3.37986 0
M  V30 9165 H 875.035 1.90631 2.31517 0
M  V30 9166 H 872.588 1.02219 1.18241 0
M  V30 9167 H 873.323 -0.507553 3.20304 0
M  V30 9168 H 873.108 1.18435 3.73785 0
M  V30 9169 H 874.598 0.291443 4.16582 0
M  V30 9170 N 875.035 -1.20752 1.01276 0
M  V30 9171 C 876.26 -1.94547 0.718769 0
M  V30 9172 C 876.685 -1.7404 -0.713563 0
M  V30 9173 O 876.043 -1.03221 -1.49047 0
M  V30 9174 C 876.091 -3.44823 1.05497 0
M  V30 9175 O 875.195 -4.12072 0.164516 0
M  V30 9176 H 874.536 -0.607931 0.267051 0
M  V30 9177 H 877.066 -1.53292 1.35509 0
M  V30 9178 H 877.076 -3.95427 1.00507 0
M  V30 9179 H 875.751 -3.59072 2.09858 0
M  V30 9180 H 874.328 -3.71909 0.271615 0
M  V30 9181 N 876.513 -0.788492 -1.36457 0
M  V30 9182 C 877.759 -0.360995 -1.99561 0
M  V30 9183 C 878.092 1.06433 -1.62437 0
M  V30 9184 O 877.367 1.7352 -0.878705 0
M  V30 9185 C 877.65 -0.523735 -3.56271 0
M  V30 9186 C 877.503 -1.99268 -4.03252 0
M  V30 9187 C 878.822 0.0617908 -4.40057 0
M  V30 9188 H 875.941 -0.13264 -0.724966 0
M  V30 9189 H 878.583 -0.994659 -1.61884 0
M  V30 9190 H 876.733 0.0156979 -3.88497 0
M  V30 9191 H 878.405 -2.59311 -3.81518 0
M  V30 9192 H 876.648 -2.49561 -3.54826 0
M  V30 9193 H 877.319 -2.05752 -5.12221 0
M  V30 9194 H 879.795 -0.398674 -4.14186 0
M  V30 9195 H 878.671 -0.0821089 -5.48839 0
M  V30 9196 H 878.932 1.15381 -4.26778 0
M  V30 9197 N 877.991 1.48044 -0.54043 0
M  V30 9198 C 879.268 1.95523 0.0547302 0
M  V30 9199 C 879.648 1.48284 1.5025 0
M  V30 9200 O 878.996 0.714037 2.17057 0
M  V30 9201 C 879.206 3.48923 -0.0733393 0
M  V30 9202 C 880.554 4.24523 0.0806026 0
M  V30 9203 O 881.578 3.562 -5.58687e-05 0
M  V30 9204 O 880.437 5.45922 0.251216 0
M  V30 9205 H 877.531 0.823728 0.073493 0
M  V30 9206 H 880.077 1.5852 -0.605768 0
M  V30 9207 H 878.849 3.76059 -1.08144 0
M  V30 9208 H 878.472 3.92648 0.625536 0
M  V30 9209 N 879.47 0.276058 1.55163 0
M  V30 9210 C 880.417 -0.611006 2.22565 0
M  V30 9211 C 881.387 -1.14902 1.19945 0
M  V30 9212 O 882.572 -1.19815 1.48489 0
M  V30 9213 C 879.712 -1.78885 2.95117 0
M  V30 9214 C 878.825 -1.2846 4.12458 0
M  V30 9215 C 877.96 -2.42432 4.72652 0
M  V30 9216 C 876.999 -1.89015 5.82185 0
M  V30 9217 N 876.136 -2.96463 6.36439 0
M  V30 9218 H 880.976 -0.0295849 2.97985 0
M  V30 9219 H 878.513 -0.00283607 1.471 0
M  V30 9220 H 880.471 -2.48121 3.35398 0
M  V30 9221 H 879.101 -2.34229 2.22119 0
M  V30 9222 H 878.153 -0.485312 3.77292 0
M  V30 9223 H 879.465 -0.853358 4.91446 0
M  V30 9224 H 878.619 -3.19659 5.15658 0
M  V30 9225 H 877.358 -2.88872 3.92943 0
M  V30 9226 H 876.363 -1.10267 5.38629 0
M  V30 9227 H 877.588 -1.43509 6.63763 0
M  V30 9228 H 875.534 -3.42283 5.59623 0
M  V30 9229 H 875.451 -2.57759 7.10701 0
M  V30 9230 H 876.719 -3.73663 6.84103 0
M  V30 9231 N 880.948 -1.576 0.00335426 0
M  V30 9232 C 882.194 -1.90996 -0.681799 0
M  V30 9233 C 882.527 -0.877643 -1.73237 0
M  V30 9234 O 881.802 0.103183 -1.94226 0
M  V30 9235 C 882.085 -3.34961 -1.32187 0
M  V30 9236 C 881.938 -4.48911 -0.28261 0
M  V30 9237 C 883.257 -3.78408 -2.24711 0
M  V30 9238 H 880.376 -0.694596 -0.246386 0
M  V30 9239 H 883.018 -1.89919 0.055336 0
M  V30 9240 H 881.168 -3.36008 -1.95014 0
M  V30 9241 H 882.84 -4.59999 0.346241 0
M  V30 9242 H 881.083 -4.32 0.394768 0
M  V30 9243 H 881.754 -5.46609 -0.769576 0
M  V30 9244 H 884.23 -3.78934 -1.71897 0
M  V30 9245 H 883.106 -4.79885 -2.66461 0
M  V30 9246 H 883.367 -3.12464 -3.1276 0
M  V30 9247 N 882.426 0.269451 -1.5528 0
M  V30 9248 C 883.654 1.01872 -1.80082 0
M  V30 9249 C 884.069 1.79802 -0.575917 0
M  V30 9250 O 883.426 1.76735 0.455081 0
M  V30 9251 C 883.477 1.9745 -3.02813 0
M  V30 9252 O 883.198 1.22677 -4.20573 0
M  V30 9253 C 884.699 2.8416 -3.40247 0
M  V30 9254 H 881.919 0.300781 -0.59981 0
M  V30 9255 H 884.463 0.29916 -2.023 0
M  V30 9256 H 882.618 2.64864 -2.82712 0
M  V30 9257 H 883.032 1.87129 -4.89982 0
M  V30 9258 H 884.506 3.47014 -4.29284 0
M  V30 9259 H 884.983 3.54113 -2.59809 0
M  V30 9260 H 885.589 2.22232 -3.6262 0
M  V30 9261 N 883.904 1.48273 0.534124 0
M  V30 9262 C 885.32 1.34302 0.862272 0
M  V30 9263 C 885.52 0.350902 1.98421 0
M  V30 9264 O 884.576 -0.229364 2.51456 0
M  V30 9265 C 885.889 2.74227 1.23371 0
M  V30 9266 C 887.437 2.82684 1.34383 0
M  V30 9267 C 887.912 4.23301 1.74871 0
M  V30 9268 N 889.403 4.25954 1.81981 0
M  V30 9269 C 890.138 5.31693 2.14686 0
M  V30 9270 N 889.634 6.47714 2.45844 0
M  V30 9271 N 891.427 5.19084 2.15657 0
M  V30 9272 H 883.578 2.11397 -0.206215 0
M  V30 9273 H 885.841 0.947537 -0.0296116 0
M  V30 9274 H 885.547 3.48368 0.482967 0
M  V30 9275 H 885.421 3.07485 2.18478 0
M  V30 9276 H 887.808 2.08801 2.08534 0
M  V30 9277 H 887.889 2.5305 0.374063 0
M  V30 9278 H 887.533 4.97699 1.01282 0
M  V30 9279 H 887.463 4.50376 2.7289 0
M  V30 9280 H 889.954 3.42266 1.60196 0
M  V30 9281 H 890.267 7.2414 2.69892 0
M  V30 9282 H 888.612 6.50995 2.43372 0
M  V30 9283 H 891.803 4.27463 1.9077 0
M  V30 9284 H 891.976 6.01592 2.40813 0
M  V30 9285 N 885.382 -0.782676 1.36792 0
M  V30 9286 C 886.312 -1.90973 1.34356 0
M  V30 9287 C 887.293 -1.6875 0.213917 0
M  V30 9288 O 888.478 -1.89766 0.412601 0
M  V30 9289 C 885.608 -3.28097 1.13884 0
M  V30 9290 C 884.562 -3.6486 2.23744 0
M  V30 9291 C 883.888 -5.00406 1.88408 0
M  V30 9292 C 885.188 -3.72742 3.6587 0
M  V30 9293 H 886.882 -1.93268 2.28665 0
M  V30 9294 H 884.428 -0.928447 1.10072 0
M  V30 9295 H 886.381 -4.06569 1.10813 0
M  V30 9296 H 885.105 -3.26206 0.160275 0
M  V30 9297 H 883.764 -2.88689 2.25952 0
M  V30 9298 H 883.412 -4.95044 0.891083 0
M  V30 9299 H 883.112 -5.25973 2.61966 0
M  V30 9300 H 884.636 -5.81291 1.86905 0
M  V30 9301 H 886.05 -4.4139 3.65852 0
M  V30 9302 H 884.447 -4.09798 4.38389 0
M  V30 9303 H 885.517 -2.73676 4.00287 0
M  V30 9304 N 886.86 -1.21182 -1.00761 0
M  V30 9305 C 888.106 -1.02898 -1.74756 0
M  V30 9306 C 888.439 0.436774 -1.89225 0
M  V30 9307 O 887.714 1.32415 -1.42466 0
M  V30 9308 C 887.997 -1.72372 -3.16164 0
M  V30 9309 C 887.85 -3.2645 -3.09435 0
M  V30 9310 C 889.169 -1.46415 -4.15031 0
M  V30 9311 H 886.288 -0.375214 -0.634337 0
M  V30 9312 H 888.93 -1.49321 -1.17487 0
M  V30 9313 H 887.08 -1.32906 -3.65059 0
M  V30 9314 H 888.752 -3.75269 -2.68274 0
M  V30 9315 H 886.995 -3.56889 -2.46603 0
M  V30 9316 H 887.666 -3.70226 -4.09435 0
M  V30 9317 H 890.142 -1.80671 -3.7483 0
M  V30 9318 H 889.018 -1.97544 -5.12121 0
M  V30 9319 H 889.279 -0.39361 -4.40344 0
M  V30 9320 N 888.338 1.20213 -1.01915 0
M  V30 9321 C 889.754 1.41696 -0.734459 0
M  V30 9322 C 889.954 1.89504 0.684867 0
M  V30 9323 O 889.01 2.06556 1.45227 0
M  V30 9324 C 890.323 2.43644 -1.76233 0
M  V30 9325 C 891.871 2.57406 -1.78076 0
M  V30 9326 C 892.346 3.626 -2.79796 0
M  V30 9327 N 893.837 3.70086 -2.78551 0
M  V30 9328 C 894.572 4.51145 -3.53915 0
M  V30 9329 N 894.068 5.35988 -4.38963 0
M  V30 9330 N 895.861 4.45702 -3.425 0
M  V30 9331 H 888.012 0.874976 -1.93541 0
M  V30 9332 H 890.275 0.446647 -0.836188 0
M  V30 9333 H 889.981 2.15519 -2.77929 0
M  V30 9334 H 889.855 3.42672 -1.57657 0
M  V30 9335 H 892.242 2.8486 -0.770634 0
M  V30 9336 H 892.323 1.58565 -2.00725 0
M  V30 9337 H 891.967 3.35889 -3.80973 0
M  V30 9338 H 891.897 4.61069 -2.54407 0
M  V30 9339 H 894.388 3.09484 -2.1686 0
M  V30 9340 H 894.701 5.94932 -4.9323 0
M  V30 9341 H 893.046 5.35482 -4.4304 0
M  V30 9342 H 896.237 3.78456 -2.75478 0
M  V30 9343 H 896.41 5.08637 -4.01487 0
M  V30 9344 N 889.816 0.795718 1.36037 0
M  V30 9345 C 891.093 0.294743 1.93367 0
M  V30 9346 C 891.473 -1.21406 1.72696 0
M  V30 9347 O 890.821 -2.00849 1.08959 0
M  V30 9348 C 891.031 0.694254 3.42025 0
M  V30 9349 C 892.379 0.677566 4.19159 0
M  V30 9350 O 893.403 0.635119 3.50492 0
M  V30 9351 O 892.262 0.726127 5.41655 0
M  V30 9352 H 889.356 0.0745459 0.823633 0
M  V30 9353 H 891.902 0.878685 1.4518 0
M  V30 9354 H 890.674 1.73458 3.50753 0
M  V30 9355 H 890.297 0.0845338 3.9751 0
M  V30 9356 N 891.294 -1.47756 0.548274 0
M  V30 9357 C 892.519 -2.07387 0.023475 0
M  V30 9358 C 892.944 -1.39956 -1.25674 0
M  V30 9359 O 892.302 -0.471543 -1.7506 0
M  V30 9360 C 892.35 -3.60224 -0.164669 0
M  V30 9361 O 891.454 -3.93653 -1.22928 0
M  V30 9362 H 890.795 -0.662312 0.0473156 0
M  V30 9363 H 893.325 -1.89905 0.761409 0
M  V30 9364 H 893.335 -4.06211 -0.38166 0
M  V30 9365 H 892.01 -4.08702 0.770425 0
M  V30 9366 H 890.587 -3.59422 -0.993495 0
M  V30 9367 N 892.772 -0.284283 -1.55015 0
M  V30 9368 C 893.719 0.599194 -2.22886 0
M  V30 9369 C 894.689 1.14264 -1.20553 0
M  V30 9370 O 895.874 1.19025 -1.49123 0
M  V30 9371 C 893.014 1.77317 -2.96062 0
M  V30 9372 C 892.127 1.26271 -4.13134 0
M  V30 9373 C 891.262 2.39922 -4.73931 0
M  V30 9374 C 890.301 1.85925 -5.8318 0
M  V30 9375 N 889.438 2.93084 -6.38002 0
M  V30 9376 H 894.278 0.0137816 -2.97997 0
M  V30 9377 H 891.815 -0.00496503 -1.47099 0
M  V30 9378 H 893.773 2.46339 -3.36709 0
M  V30 9379 H 892.403 2.33047 -2.23358 0
M  V30 9380 H 891.455 0.465296 -3.77544 0
M  V30 9381 H 892.767 0.827284 -4.91892 0
M  V30 9382 H 891.921 3.1692 -5.17346 0
M  V30 9383 H 890.66 2.86784 -3.9447 0
M  V30 9384 H 889.665 1.07409 -5.39206 0
M  V30 9385 H 890.89 1.39987 -6.64515 0
M  V30 9386 H 888.836 3.3931 -5.61431 0
M  V30 9387 H 888.753 2.53986 -7.12058 0
M  V30 9388 H 890.021 3.7003 -6.86075 0
M  V30 9389 N 894.251 1.57596 -0.0117121 0
M  V30 9390 C 895.491 1.92932 0.675031 0
M  V30 9391 C 895.855 0.887004 1.70283 0
M  V30 9392 O 897.056 1.12599 2.4408 0
M  V30 9393 C 895.327 3.3327 1.29098 0
M  V30 9394 S 896.886 3.90509 2.00121 0
M  V30 9395 H 893.704 0.675226 0.22269 0
M  V30 9396 H 896.306 1.9537 -0.071208 0
M  V30 9397 H 895.01 4.0696 0.530262 0
M  V30 9398 H 894.541 3.34233 2.0749 0
M  V30 9399 H 896.556 3.72532 3.27771 0
M  V30 9400 N 895.729 -0.261212 1.5542 0
M  V30 9401 C 896.639 -1.34493 1.92221 0
M  V30 9402 C 897.655 -1.53421 0.82086 0
M  V30 9403 O 898.831 -1.6732 1.12099 0
M  V30 9404 C 895.896 -2.68209 2.19692 0
M  V30 9405 C 894.957 -2.57927 3.43179 0
M  V30 9406 C 894.19 -3.85266 3.69331 0
M  V30 9407 O 894.413 -4.86493 2.97793 0
M  V30 9408 O 893.347 -3.8476 4.62865 0
M  V30 9409 H 897.173 -1.06278 2.84497 0
M  V30 9410 H 894.758 -0.460752 1.42118 0
M  V30 9411 H 896.64 -3.47252 2.38734 0
M  V30 9412 H 895.315 -2.96186 1.30597 0
M  V30 9413 H 894.222 -1.77219 3.2946 0
M  V30 9414 H 895.555 -2.34898 4.32532 0
M  V30 9415 N 897.207 -1.48554 -0.526253 0
M  V30 9416 C 898.437 -1.60197 -1.30463 0
M  V30 9417 C 898.845 -0.26278 -1.87366 0
M  V30 9418 O 898.188 0.758537 -1.67308 0
M  V30 9419 C 898.25 -2.59223 -2.49085 0
M  V30 9420 C 897.914 -4.04199 -2.13241 0
M  V30 9421 C 898.911 -4.91771 -1.68694 0
M  V30 9422 C 896.596 -4.49762 -2.2365 0
M  V30 9423 C 898.59 -6.22934 -1.35026 0
M  V30 9424 C 896.277 -5.80945 -1.89594 0
M  V30 9425 C 897.275 -6.67354 -1.45353 0
M  V30 9426 O 896.963 -7.96096 -1.11745 0
M  V30 9427 H 896.695 -0.54284 -0.402866 0
M  V30 9428 H 899.249 -1.95137 -0.641157 0
M  V30 9429 H 897.479 -2.19412 -3.18426 0
M  V30 9430 H 899.168 -2.60661 -3.11144 0
M  V30 9431 H 899.934 -4.57806 -1.6012 0
M  V30 9432 H 895.813 -3.8269 -2.5704 0
M  V30 9433 H 899.357 -6.90334 -1.00422 0
M  V30 9434 H 895.254 -6.14444 -1.9781 0
M  V30 9435 H 896.022 -8.08882 -1.25111 0
M  V30 9436 N 898.685 0.775411 -1.37205 0
M  V30 9437 C 900.096 1.35147 -1.28811 0
M  V30 9438 C 900.447 1.96089 0.0659168 0
M  V30 9439 O 899.572 1.93558 0.967684 0
M  V30 9440 C 900.167 2.45715 -2.33258 0
M  V30 9441 C 898.726 2.99099 -2.2851 0
M  V30 9442 C 897.873 1.72286 -2.17285 0
M  V30 9443 H 900.824 0.575954 -1.4788 0
M  V30 9444 H 900.845 3.251 -1.97712 0
M  V30 9445 H 900.357 2.01331 -3.31795 0
M  V30 9446 H 898.458 3.47868 -1.33485 0
M  V30 9447 H 898.571 3.54962 -3.21774 0
M  V30 9448 H 896.935 1.95068 -1.6377 0
M  V30 9449 H 897.718 1.3001 -3.1773 0
M  V30 9450 N 900.163 1.21714 1.00117 0
M  V30 9451 C 901.126 0.981338 2.07129 0
M  V30 9452 C 902.126 -0.0491116 1.60725 0
M  V30 9453 O 903.316 0.188555 1.73177 0
M  V30 9454 C 900.448 0.480608 3.37495 0
M  V30 9455 H 901.641 1.93075 2.29482 0
M  V30 9456 H 899.194 1.03467 1.17151 0
M  V30 9457 H 899.929 -0.473552 3.20824 0
M  V30 9458 H 899.714 1.22393 3.72508 0
M  V30 9459 H 901.204 0.33561 4.16249 0
M  V30 9460 N 901.641 -1.19671 1.02551 0
M  V30 9461 C 902.604 -2.20987 0.608055 0
M  V30 9462 C 903.604 -1.5745 -0.326534 0
M  V30 9463 O 904.794 -1.73827 -0.114003 0
M  V30 9464 C 901.926 -3.4072 -0.11074 0
M  V30 9465 H 903.119 -2.59434 1.50446 0
M  V30 9466 H 900.672 -1.3329 0.816307 0
M  V30 9467 H 901.407 -3.07787 -1.02165 0
M  V30 9468 H 901.192 -3.88069 0.560772 0
M  V30 9469 H 902.682 -4.15776 -0.389848 0
M  V30 9470 N 903.119 -0.802921 -1.35613 0
M  V30 9471 C 904.359 -0.387163 -2.007 0
M  V30 9472 C 904.723 1.02546 -1.62322 0
M  V30 9473 O 905.924 1.54303 -2.201 0
M  V30 9474 C 904.195 -0.560813 -3.52973 0
M  V30 9475 S 905.754 -0.234935 -4.38171 0
M  V30 9476 H 902.572 -0.147218 -0.695592 0
M  V30 9477 H 905.174 -1.04437 -1.65267 0
M  V30 9478 H 903.878 -1.58897 -3.78391 0
M  V30 9479 H 903.409 0.111845 -3.93241 0
M  V30 9480 H 905.424 0.958715 -4.8685 0
M  V30 9481 N 904.597 1.47463 -0.556102 0
M  V30 9482 C 905.545 2.31692 0.205299 0
M  V30 9483 C 906.539 1.42857 0.910394 0
M  V30 9484 O 907.745 1.59628 0.831806 0
M  V30 9485 H 904.12 0.747172 0.0850775 0
M  V30 9486 H 906.091 2.93758 -0.524305 0
M  V30 9487 C 904.84 3.25487 1.22283 0
M  V30 9488 H 904.163 3.93806 0.689697 0
M  V30 9489 H 905.603 3.87257 1.7265 0
M  V30 9490 C 904.062 2.48931 2.27013 0
M  V30 9491 O 904.592 2.23296 3.33919 0
M  V30 9492 N 902.798 2.0996 2.00911 0
M  V30 9493 H 902.345 2.31008 1.13986 0
M  V30 9494 H 902.303 1.59053 2.712 0
M  V30 9495 N 906.075 0.2925 1.54862 0
M  V30 9496 C 907.038 -0.574423 2.21885 0
M  V30 9497 C 908.038 -1.06791 1.20218 0
M  V30 9498 O 909.228 -0.9653 1.45009 0
M  V30 9499 C 906.36 -1.79438 2.89853 0
M  V30 9500 H 907.553 0.0110319 2.99898 0
M  V30 9501 H 905.106 0.043256 1.5624 0
M  V30 9502 H 905.841 -2.4199 2.15897 0
M  V30 9503 H 905.626 -1.44827 3.64373 0
M  V30 9504 H 907.116 -2.41048 3.41007 0
M  V30 9505 N 907.553 -1.57587 0.0200696 0
M  V30 9506 C 908.483 -2.12702 -0.963333 0
M  V30 9507 C 909.464 -1.04094 -1.34531 0
M  V30 9508 O 910.649 -1.31881 -1.42552 0
M  V30 9509 C 907.779 -2.64673 -2.24868 0
M  V30 9510 C 906.733 -3.77987 -2.00772 0
M  V30 9511 C 906.059 -4.16351 -3.35494 0
M  V30 9512 C 907.359 -5.0444 -1.35416 0
M  V30 9513 H 909.053 -2.95121 -0.504363 0
M  V30 9514 H 906.599 -1.41966 -0.24116 0
M  V30 9515 H 908.552 -3.01862 -2.94036 0
M  V30 9516 H 907.276 -1.79403 -2.72914 0
M  V30 9517 H 905.935 -3.41223 -1.34025 0
M  V30 9518 H 905.583 -3.28075 -3.81282 0
M  V30 9519 H 905.283 -4.92705 -3.20181 0
M  V30 9520 H 906.807 -4.56115 -4.05945 0
M  V30 9521 H 908.221 -5.39273 -1.94571 0
M  V30 9522 H 906.618 -5.85732 -1.30529 0
M  V30 9523 H 907.688 -4.83803 -0.325923 0
M  V30 9524 N 909.032 0.252966 -1.55557 0
M  V30 9525 C 909.942 1.33472 -1.92931 0
M  V30 9526 C 910.958 1.52983 -0.828985 0
M  V30 9527 O 912.134 1.66723 -1.12984 0
M  V30 9528 C 909.199 2.6704 -2.21112 0
M  V30 9529 C 908.26 2.56103 -3.44542 0
M  V30 9530 C 907.493 3.83302 -3.71369 0
M  V30 9531 O 907.716 4.84907 -3.00368 0
M  V30 9532 O 906.65 3.823 -4.64898 0
M  V30 9533 H 910.476 1.04768 -2.85057 0
M  V30 9534 H 908.061 0.453208 -1.4236 0
M  V30 9535 H 909.943 3.45981 -2.40572 0
M  V30 9536 H 908.618 2.95489 -1.32166 0
M  V30 9537 H 907.525 1.7547 -3.30396 0
M  V30 9538 H 908.858 2.32601 -4.33772 0
M  V30 9539 N 910.51 1.48831 0.518367 0
M  V30 9540 C 911.738 1.6112 1.298 0
M  V30 9541 C 912.153 0.275872 1.86774 0
M  V30 9542 O 911.51 -0.736416 1.66983 0
M  V30 9543 C 911.561 2.66675 2.44063 0
M  V30 9544 O 911.282 3.95027 1.89434 0
M  V30 9545 C 912.783 2.8951 3.35706 0
M  V30 9546 H 910.003 0.542916 0.394314 0
M  V30 9547 H 912.547 1.94743 0.624142 0
M  V30 9548 H 910.702 2.35879 3.07311 0
M  V30 9549 H 911.116 4.53031 2.64316 0
M  V30 9550 H 912.59 3.67142 4.12202 0
M  V30 9551 H 913.067 1.98768 3.91648 0
M  V30 9552 H 913.673 3.21656 2.7824 0
M  V30 9553 N 911.988 -0.768124 1.37614 0
M  V30 9554 C 912.918 -1.89537 1.36374 0
M  V30 9555 C 913.899 -1.68513 0.231803 0
M  V30 9556 O 915.084 -1.89318 0.432705 0
M  V30 9557 C 912.214 -3.26871 1.17358 0
M  V30 9558 C 911.168 -3.62466 2.27602 0
M  V30 9559 C 910.494 -4.9838 1.93705 0
M  V30 9560 C 911.794 -3.68841 3.69802 0
M  V30 9561 H 913.488 -1.90832 2.30702 0
M  V30 9562 H 911.034 -0.91672 1.11051 0
M  V30 9563 H 912.987 -4.05371 1.15119 0
M  V30 9564 H 911.711 -3.26018 0.194865 0
M  V30 9565 H 910.37 -2.86276 2.29002 0
M  V30 9566 H 910.018 -4.94071 0.943539 0
M  V30 9567 H 909.718 -5.23165 2.6753 0
M  V30 9568 H 911.242 -5.79276 1.93059 0
M  V30 9569 H 912.656 -4.37485 3.70513 0
M  V30 9570 H 911.053 -4.05126 4.42711 0
M  V30 9571 H 912.123 -2.69415 4.03167 0
M  V30 9572 N 913.466 -1.22244 -0.994698 0
M  V30 9573 C 914.396 -1.01513 -2.10279 0
M  V30 9574 C 915.377 0.0633365 -1.69982 0
M  V30 9575 O 916.562 -0.0985268 -1.9395 0
M  V30 9576 C 913.692 -0.59016 -3.42249 0
M  V30 9577 C 912.646 -1.61436 -3.96387 0
M  V30 9578 C 911.972 -1.04528 -5.24383 0
M  V30 9579 C 913.272 -3.00388 -4.27276 0
M  V30 9580 H 914.966 -1.94194 -2.2788 0
M  V30 9581 H 912.512 -0.935094 -1.09508 0
M  V30 9582 H 914.465 -0.432254 -4.19177 0
M  V30 9583 H 913.189 0.372308 -3.24471 0
M  V30 9584 H 911.848 -1.76001 -3.21589 0
M  V30 9585 H 911.496 -0.0742225 -5.02945 0
M  V30 9586 H 911.196 -1.72949 -5.61571 0
M  V30 9587 H 912.72 -0.898922 -6.03947 0
M  V30 9588 H 914.134 -2.89207 -4.95007 0
M  V30 9589 H 912.531 -3.65916 -4.75631 0
M  V30 9590 H 913.601 -3.50456 -3.35125 0
M  V30 9591 N 914.944 1.19125 -1.03184 0
M  V30 9592 C 916.193 1.8821 -0.725264 0
M  V30 9593 C 916.506 1.80674 0.749411 0
M  V30 9594 O 917.712 2.45037 1.16915 0
M  V30 9595 C 916.168 3.37607 -1.24697 0
M  V30 9596 C 915.776 3.53693 -2.74964 0
M  V30 9597 C 917.52 4.12149 -1.01652 0
M  V30 9598 C 915.427 4.97001 -3.20538 0
M  V30 9599 H 914.357 0.704916 -0.267599 0
M  V30 9600 H 917.008 1.34663 -1.24652 0
M  V30 9601 H 915.39 3.90569 -0.653614 0
M  V30 9602 H 916.564 3.11046 -3.39981 0
M  V30 9603 H 914.879 2.92544 -2.96322 0
M  V30 9604 H 917.476 5.17837 -1.33226 0
M  V30 9605 H 917.819 4.16274 0.0465712 0
M  V30 9606 H 918.352 3.65334 -1.57403 0
M  V30 9607 H 915.091 4.9804 -4.26189 0
M  V30 9608 H 914.611 5.40398 -2.60251 0
M  V30 9609 H 916.29 5.65669 -3.14049 0
M  V30 9610 N 916.422 0.810101 1.35185 0
M  V30 9611 C 917.372 0.195541 2.2716 0
M  V30 9612 C 918.356 -0.632691 1.47939 0
M  V30 9613 O 919.548 -0.489372 1.701 0
M  V30 9614 C 916.677 -0.652164 3.37049 0
M  V30 9615 C 915.763 0.185989 4.23692 0
M  V30 9616 N 916.154 1.25073 4.90092 0
M  V30 9617 C 914.452 -0.0318033 4.45989 0
M  V30 9618 C 915.153 1.76272 5.54349 0
M  V30 9619 N 914.129 1.06861 5.32993 0
M  V30 9620 H 917.931 1.01018 2.75994 0
M  V30 9621 H 915.445 0.651612 1.48754 0
M  V30 9622 H 917.442 -1.10851 4.01893 0
M  V30 9623 H 916.102 -1.46511 2.89767 0
M  V30 9624 H 917.113 1.63341 4.91467 0
M  V30 9625 H 913.79 -0.813607 4.09496 0
M  V30 9626 H 915.18 2.65278 6.17315 0
M  V30 9627 N 917.9 -1.47166 0.563914 0
M  V30 9628 C 919.316 -1.58018 0.224173 0
M  V30 9629 C 919.516 -1.56163 -1.27339 0
M  V30 9630 O 918.572 -1.4686 -2.05398 0
M  V30 9631 C 919.885 -2.88236 0.856762 0
M  V30 9632 C 921.433 -3.01833 0.82861 0
M  V30 9633 C 921.908 -4.34761 1.44039 0
M  V30 9634 N 923.399 -4.41413 1.40388 0
M  V30 9635 C 924.134 -5.42845 1.84681 0
M  V30 9636 N 923.63 -6.51052 2.3686 0
M  V30 9637 N 925.423 -5.33931 1.75711 0
M  V30 9638 H 917.574 -1.46615 1.53681 0
M  V30 9639 H 919.837 -0.698195 0.64127 0
M  V30 9640 H 919.543 -2.95349 1.90949 0
M  V30 9641 H 919.417 -3.75537 0.353766 0
M  V30 9642 H 921.804 -2.94312 -0.215451 0
M  V30 9643 H 921.885 -2.16056 1.36943 0
M  V30 9644 H 921.529 -4.43037 2.48355 0
M  V30 9645 H 921.459 -5.1928 0.874953 0
M  V30 9646 H 923.95 -3.63811 1.02227 0
M  V30 9647 H 924.263 -7.24633 2.68564 0
M  V30 9648 H 922.608 -6.51924 2.40875 0
M  V30 9649 H 925.799 -4.48295 1.34718 0
M  V30 9650 H 925.972 -6.12841 2.10547 0
M  V30 9651 N 919.378 -0.300708 -1.54705 0
M  V30 9652 C 920.655 0.361757 -1.92226 0
M  V30 9653 C 921.035 1.71714 -1.2279 0
M  V30 9654 O 920.383 2.2559 -0.363542 0
M  V30 9655 C 920.593 0.476699 -3.45729 0
M  V30 9656 C 921.941 0.7477 -4.17965 0
M  V30 9657 O 922.965 0.560521 -3.51762 0
M  V30 9658 O 921.824 1.10724 -5.35166 0
M  V30 9659 H 918.918 0.202213 -0.801897 0
M  V30 9660 H 921.464 -0.348746 -1.66078 0
M  V30 9661 H 920.236 -0.476132 -3.88392 0
M  V30 9662 H 919.859 1.23568 -3.77911 0
M  V30 9663 N 920.856 1.57574 -0.0284266 0
M  V30 9664 C 921.786 2.1321 0.952039 0
M  V30 9665 C 922.767 1.04806 1.33977 0
M  V30 9666 O 923.952 1.32635 1.41851 0
M  V30 9667 C 921.082 2.65862 2.23461 0
M  V30 9668 C 920.036 3.79047 1.98765 0
M  V30 9669 C 919.362 4.18124 3.33281 0
M  V30 9670 C 920.662 5.05151 1.32739 0
M  V30 9671 H 922.356 2.95385 0.488705 0
M  V30 9672 H 919.902 1.42092 0.233628 0
M  V30 9673 H 921.855 3.03417 2.92431 0
M  V30 9674 H 920.579 1.80848 2.71959 0
M  V30 9675 H 919.238 3.41929 1.32213 0
M  V30 9676 H 918.886 3.30092 3.79537 0
M  V30 9677 H 918.586 4.94396 3.17563 0
M  V30 9678 H 920.11 4.58262 4.0352 0
M  V30 9679 H 921.524 5.40297 1.91708 0
M  V30 9680 H 919.921 5.86416 1.27421 0
M  V30 9681 H 920.991 4.83969 0.300261 0
M  V30 9682 N 922.334 -0.244713 1.55689 0
M  V30 9683 C 923.264 -1.30667 1.93516 0
M  V30 9684 C 924.245 -1.50094 0.800371 0
M  V30 9685 O 925.43 -1.62665 1.06083 0
M  V30 9686 C 922.56 -2.66101 2.23176 0
M  V30 9687 C 921.514 -2.61366 3.38927 0
M  V30 9688 C 920.84 -4.00616 3.54134 0
M  V30 9689 C 922.14 -2.18161 4.74555 0
M  V30 9690 H 923.834 -0.992546 2.82469 0
M  V30 9691 H 921.38 -0.476018 1.35905 0
M  V30 9692 H 923.333 -3.4053 2.48228 0
M  V30 9693 H 922.057 -2.99154 1.31051 0
M  V30 9694 H 920.716 -1.89395 3.13887 0
M  V30 9695 H 920.364 -4.30938 2.59426 0
M  V30 9696 H 920.064 -3.98335 4.31975 0
M  V30 9697 H 921.588 -4.76741 3.8151 0
M  V30 9698 H 923.002 -2.82323 4.98965 0
M  V30 9699 H 921.399 -2.26988 5.55515 0
M  V30 9700 H 922.469 -1.13333 4.7147 0
M  V30 9701 N 923.813 -1.49104 -0.510467 0
M  V30 9702 C 925.229 -1.35657 -0.840797 0
M  V30 9703 C 925.429 -0.382425 -1.97838 0
M  V30 9704 O 924.485 0.189331 -2.51789 0
M  V30 9705 C 925.798 -2.76155 -1.18992 0
M  V30 9706 C 927.346 -2.84786 -1.29868 0
M  V30 9707 C 927.821 -4.2603 -1.68115 0
M  V30 9708 N 929.312 -4.28796 -1.75181 0
M  V30 9709 C 930.047 -5.35041 -2.062 0
M  V30 9710 N 929.543 -6.51543 -2.35508 0
M  V30 9711 N 931.336 -5.2245 -2.07371 0
M  V30 9712 H 923.487 -2.11042 0.23982 0
M  V30 9713 H 925.75 -0.946946 0.0446824 0
M  V30 9714 H 925.456 -3.49092 -0.427484 0
M  V30 9715 H 925.33 -3.10922 -2.13558 0
M  V30 9716 H 927.717 -2.12092 -2.05186 0
M  V30 9717 H 927.798 -2.53613 -0.333758 0
M  V30 9718 H 927.442 -4.99247 -0.933512 0
M  V30 9719 H 927.372 -4.5466 -2.65691 0
M  V30 9720 H 929.863 -3.44771 -1.5473 0
M  V30 9721 H 930.176 -7.28342 -2.58337 0
M  V30 9722 H 928.521 -6.54785 -2.32985 0
M  V30 9723 H 931.712 -4.30444 -1.83945 0
M  V30 9724 H 931.885 -6.05347 -2.31212 0
M  V30 9725 N 925.291 0.760815 -1.38019 0
M  V30 9726 C 926.519 1.55001 -1.37048 0
M  V30 9727 C 926.934 1.88754 0.0415261 0
M  V30 9728 O 926.291 1.52254 1.00624 0
M  V30 9729 C 926.342 2.8536 -2.21928 0
M  V30 9730 O 926.063 2.53049 -3.57628 0
M  V30 9731 C 927.564 3.79536 -2.29057 0
M  V30 9732 H 924.784 0.479844 -0.469032 0
M  V30 9733 H 927.328 0.942148 -1.81504 0
M  V30 9734 H 925.483 3.42542 -1.80953 0
M  V30 9735 H 925.897 3.36604 -4.02241 0
M  V30 9736 H 927.371 4.67977 -2.92749 0
M  V30 9737 H 927.848 4.19453 -1.30213 0
M  V30 9738 H 928.454 3.28281 -2.70392 0
M  V30 9739 N 926.769 1.22769 0.988202 0
M  V30 9740 C 928.18 1.0512 1.54294 0
M  V30 9741 C 928.531 -0.383904 1.92407 0
M  V30 9742 O 927.656 -1.26955 1.75246 0
M  V30 9743 C 928.251 1.90198 2.80375 0
M  V30 9744 C 926.81 1.76831 3.32276 0
M  V30 9745 C 925.957 1.86377 2.05326 0
M  V30 9746 H 928.908 1.36546 0.808758 0
M  V30 9747 H 928.929 1.42216 3.52923 0
M  V30 9748 H 928.441 2.9464 2.52605 0
M  V30 9749 H 926.542 0.751412 3.64945 0
M  V30 9750 H 926.655 2.59771 4.02562 0
M  V30 9751 H 925.019 1.2987 2.19103 0
M  V30 9752 H 925.802 2.9236 1.79946 0
M  V30 9753 N 928.247 -1.18576 1.03814 0
M  V30 9754 C 929.177 -2.24334 0.647795 0
M  V30 9755 C 930.158 -1.66508 -0.34774 0
M  V30 9756 O 931.343 -1.92852 -0.228401 0
M  V30 9757 C 928.473 -3.47299 0.00734922 0
M  V30 9758 C 927.427 -4.17859 0.926152 0
M  V30 9759 C 926.753 -5.34489 0.150317 0
M  V30 9760 C 928.053 -4.71632 2.24411 0
M  V30 9761 H 929.747 -2.57241 1.53191 0
M  V30 9762 H 927.293 -1.23649 0.738028 0
M  V30 9763 H 929.246 -4.20486 -0.277434 0
M  V30 9764 H 927.97 -3.13619 -0.911626 0
M  V30 9765 H 926.629 -3.46567 1.19528 0
M  V30 9766 H 926.277 -4.97056 -0.770985 0
M  V30 9767 H 925.977 -5.82633 0.762407 0
M  V30 9768 H 927.501 -6.10467 -0.127508 0
M  V30 9769 H 928.915 -5.36526 2.02021 0
M  V30 9770 H 927.312 -5.303 2.80894 0
M  V30 9771 H 928.382 -3.89192 2.89236 0
M  V30 9772 N 929.725 -0.817259 -1.34754 0
M  V30 9773 C 930.972 -0.402648 -1.98457 0
M  V30 9774 C 931.3 1.03287 -1.64809 0
M  V30 9775 O 930.555 1.73316 -0.908851 0
M  V30 9776 C 930.854 -0.5453 -3.53216 0
M  V30 9777 C 930.52 -1.9457 -4.06759 0
M  V30 9778 C 929.182 -2.32881 -4.21094 0
M  V30 9779 C 931.534 -2.86141 -4.35629 0
M  V30 9780 C 928.862 -3.62108 -4.61622 0
M  V30 9781 C 931.214 -4.14826 -4.776 0
M  V30 9782 C 929.878 -4.53121 -4.9014 0
M  V30 9783 H 929.148 -0.147339 -0.726204 0
M  V30 9784 H 931.795 -1.04011 -1.60791 0
M  V30 9785 H 930.1 0.175576 -3.91406 0
M  V30 9786 H 931.797 -0.205112 -4.00475 0
M  V30 9787 H 928.387 -1.6381 -3.96061 0
M  V30 9788 H 932.571 -2.57788 -4.24098 0
M  V30 9789 H 927.827 -3.91613 -4.69521 0
M  V30 9790 H 932.001 -4.85874 -4.98899 0
M  V30 9791 H 929.628 -5.53307 -5.21302 0
M  V30 9792 N 931.203 1.46865 -0.571711 0
M  V30 9793 C 932.48 1.95596 0.0132445 0
M  V30 9794 C 932.86 1.51438 1.47071 0
M  V30 9795 O 932.208 0.759917 2.15494 0
M  V30 9796 C 932.418 3.48689 -0.147335 0
M  V30 9797 C 933.766 4.24599 -0.00946329 0
M  V30 9798 O 934.79 3.5612 -0.0756112 0
M  V30 9799 O 933.649 5.46332 0.135361 0
M  V30 9800 H 930.743 0.825102 0.0560039 0
M  V30 9801 H 933.289 1.57199 -0.639256 0
M  V30 9802 H 932.061 3.73681 -1.16096 0
M  V30 9803 H 931.684 3.93887 0.542109 0
M  V30 9804 N 932.681 0.308908 1.54543 0
M  V30 9805 C 933.613 -0.597453 2.21276 0
M  V30 9806 C 934.626 -1.09137 1.20801 0
M  V30 9807 O 935.815 -1.00747 1.47351 0
M  V30 9808 C 932.915 -1.83085 2.85189 0
M  V30 9809 C 932.088 -1.4781 4.11669 0
M  V30 9810 C 931.147 -2.56748 4.59311 0
M  V30 9811 O 930.173 -2.21507 5.24331 0
M  V30 9812 N 931.375 -3.87427 4.32297 0
M  V30 9813 H 934.14 -0.0261183 2.99689 0
M  V30 9814 H 931.701 0.131456 1.61365 0
M  V30 9815 H 933.693 -2.55326 3.13992 0
M  V30 9816 H 932.263 -2.31039 2.1057 0
M  V30 9817 H 931.483 -0.587974 3.8979 0
M  V30 9818 H 932.771 -1.2179 4.94009 0
M  V30 9819 H 932.169 -4.18863 3.80224 0
M  V30 9820 H 930.726 -4.55942 4.6579 0
M  V30 9821 N 934.159 -1.57557 0.0367827 0
M  V30 9822 C 935.408 -1.91291 -0.639569 0
M  V30 9823 C 935.721 -0.915601 -1.72847 0
M  V30 9824 O 936.927 -1.14447 -2.46199 0
M  V30 9825 C 935.383 -3.39697 -1.18888 0
M  V30 9826 C 934.991 -4.47803 -0.132851 0
M  V30 9827 C 936.735 -3.82487 -1.8413 0
M  V30 9828 C 934.642 -5.87311 -0.694229 0
M  V30 9829 H 933.572 -0.713886 -0.242658 0
M  V30 9830 H 936.223 -1.83209 0.103332 0
M  V30 9831 H 934.605 -3.42736 -1.98363 0
M  V30 9832 H 935.779 -4.56334 0.640009 0
M  V30 9833 H 934.094 -4.14264 0.421264 0
M  V30 9834 H 936.691 -4.84076 -2.27101 0
M  V30 9835 H 937.034 -3.17959 -2.68716 0
M  V30 9836 H 937.567 -3.81903 -1.11332 0
M  V30 9837 H 934.306 -6.55401 0.113667 0
M  V30 9838 H 933.826 -5.82371 -1.4354 0
M  V30 9839 H 935.505 -6.36119 -1.1816 0
M  V30 9840 N 935.637 0.236453 -1.55816 0
M  V30 9841 C 936.886 0.960981 -1.77336 0
M  V30 9842 C 937.199 1.86085 -0.602641 0
M  V30 9843 O 938.405 2.62291 -0.701106 0
M  V30 9844 C 936.861 1.75884 -3.13995 0
M  V30 9845 C 936.469 0.905849 -4.38746 0
M  V30 9846 C 938.213 2.47548 -3.44848 0
M  V30 9847 C 936.12 1.7002 -5.66434 0
M  V30 9848 H 935.05 0.362547 -0.661117 0
M  V30 9849 H 937.701 0.215303 -1.82233 0
M  V30 9850 H 936.083 2.54687 -3.03234 0
M  V30 9851 H 937.257 0.159415 -4.60524 0
M  V30 9852 H 935.572 0.30205 -4.15303 0
M  V30 9853 H 938.169 3.07452 -4.37467 0
M  V30 9854 H 938.512 3.19689 -2.66655 0
M  V30 9855 H 939.045 1.75747 -3.56872 0
M  V30 9856 H 935.784 1.02234 -6.47479 0
M  V30 9857 H 935.304 2.42164 -5.48741 0
M  V30 9858 H 936.983 2.26469 -6.0607 0
M  V30 9859 N 937.115 1.49373 0.502552 0
M  V30 9860 C 938.392 1.49282 1.26389 0
M  V30 9861 C 938.772 0.219674 2.09954 0
M  V30 9862 O 938.12 -0.797991 2.14113 0
M  V30 9863 C 938.33 2.77083 2.12194 0
M  V30 9864 C 939.678 3.26511 2.71433 0
M  V30 9865 O 940.702 2.78189 2.22462 0
M  V30 9866 O 939.561 4.10665 3.60578 0
M  V30 9867 H 936.655 0.597415 0.57186 0
M  V30 9868 H 939.201 1.61634 0.516951 0
M  V30 9869 H 937.973 3.61237 1.50411 0
M  V30 9870 H 937.596 2.67583 2.94084 0
M  V30 9871 N 938.594 -0.753485 1.38421 0
M  V30 9872 C 939.527 -1.87525 1.30037 0
M  V30 9873 C 940.505 -1.6163 0.177379 0
M  V30 9874 O 941.689 -1.85132 0.354716 0
M  V30 9875 C 938.816 -3.23138 1.01485 0
M  V30 9876 C 937.862 -3.67921 2.15723 0
M  V30 9877 S 938.695 -3.79447 3.77863 0
M  V30 9878 C 939.851 -5.17879 3.51499 0
M  V30 9879 H 940.084 -1.94351 2.24978 0
M  V30 9880 H 937.617 -0.916475 1.24258 0
M  V30 9881 H 939.575 -4.01455 0.856959 0
M  V30 9882 H 938.236 -3.13991 0.0826199 0
M  V30 9883 H 937.429 -4.66287 1.91292 0
M  V30 9884 H 937.031 -2.96758 2.2762 0
M  V30 9885 H 939.323 -6.03636 3.0762 0
M  V30 9886 H 940.266 -5.47331 4.49259 0
M  V30 9887 H 940.674 -4.86681 2.8601 0
M  V30 9888 N 940.072 -1.23292 -0.981677 0
M  V30 9889 C 941.002 -1.03738 -2.09191 0
M  V30 9890 C 941.983 0.0453041 -1.7004 0
M  V30 9891 O 943.168 -0.119092 -1.93834 0
M  V30 9892 C 940.298 -0.626426 -3.41604 0
M  V30 9893 C 939.252 -1.65631 -3.94652 0
M  V30 9894 C 938.578 -1.10084 -5.23245 0
M  V30 9895 C 939.878 -3.04903 -4.24066 0
M  V30 9896 H 941.572 -1.966 -2.25807 0
M  V30 9897 H 939.118 -0.946656 -1.0851 0
M  V30 9898 H 941.071 -0.476689 -4.18695 0
M  V30 9899 H 939.795 0.337873 -3.24848 0
M  V30 9900 H 938.454 -1.79402 -3.19704 0
M  V30 9901 H 938.102 -0.127562 -5.02838 0
M  V30 9902 H 937.802 -1.78896 -5.59705 0
M  V30 9903 H 939.326 -0.962928 -6.02959 0
M  V30 9904 H 940.74 -2.94441 -4.91912 0
M  V30 9905 H 939.137 -3.70941 -4.71724 0
M  V30 9906 H 940.207 -3.53991 -3.31389 0
M  V30 9907 N 941.55 1.18024 -1.04442 0
M  V30 9908 C 942.966 1.40107 -0.76435 0
M  V30 9909 C 943.166 1.90914 0.644516 0
M  V30 9910 O 942.222 2.0959 1.40813 0
M  V30 9911 C 943.535 2.39851 -1.81361 0
M  V30 9912 C 945.083 2.53571 -1.83496 0
M  V30 9913 C 945.558 3.56583 -2.87424 0
M  V30 9914 N 947.049 3.64094 -2.86339 0
M  V30 9915 C 947.784 4.43537 -3.63405 0
M  V30 9916 N 947.28 5.26557 -4.50233 0
M  V30 9917 N 949.073 4.38336 -3.51877 0
M  V30 9918 H 941.224 0.833726 -1.95353 0
M  V30 9919 H 943.487 0.42881 -0.845474 0
M  V30 9920 H 943.193 2.09576 -2.82438 0
M  V30 9921 H 943.067 3.39251 -1.6489 0
M  V30 9922 H 945.454 2.83161 -0.830883 0
M  V30 9923 H 945.535 1.54272 -2.04044 0
M  V30 9924 H 945.179 3.27733 -3.88012 0
M  V30 9925 H 945.109 4.55569 -2.6413 0
M  V30 9926 H 947.6 3.04814 -2.23376 0
M  V30 9927 H 947.913 5.84336 -5.05738 0
M  V30 9928 H 946.258 5.25964 -4.54298 0
M  V30 9929 H 949.449 3.72528 -2.83444 0
M  V30 9930 H 949.622 5.00007 -4.12186 0
M  V30 9931 N 943.028 0.824394 1.34319 0
M  V30 9932 C 944.274 0.413779 1.98534 0
M  V30 9933 C 944.607 -1.02089 1.65201 0
M  V30 9934 O 943.882 -1.71129 0.924402 0
M  V30 9935 C 944.165 0.61801 3.54757 0
M  V30 9936 C 944.018 2.0989 3.97827 0
M  V30 9937 C 945.337 0.0549041 4.40066 0
M  V30 9938 H 942.456 0.151815 0.721194 0
M  V30 9939 H 945.098 1.03723 1.5919 0
M  V30 9940 H 943.248 0.0873107 3.88402 0
M  V30 9941 H 944.92 2.69335 3.74508 0
M  V30 9942 H 943.163 2.58881 3.48085 0
M  V30 9943 H 943.834 2.1926 5.06586 0
M  V30 9944 H 946.31 0.508348 4.12983 0
M  V30 9945 H 945.186 0.227595 5.48428 0
M  V30 9946 H 945.447 -1.04025 4.29687 0
M  V30 9947 N 944.506 -1.46559 0.579492 0
M  V30 9948 C 945.416 -2.34066 -0.15816 0
M  V30 9949 C 946.432 -1.49556 -0.88932 0
M  V30 9950 O 947.608 -1.82434 -0.853226 0
M  V30 9951 C 944.673 -3.26683 -1.161 0
M  V30 9952 C 943.734 -4.27092 -0.434855 0
M  V30 9953 C 942.967 -5.15283 -1.38992 0
M  V30 9954 O 943.19 -5.06345 -2.62623 0
M  V30 9955 O 942.124 -5.95099 -0.902253 0
M  V30 9956 H 945.95 -2.98488 0.560234 0
M  V30 9957 H 943.535 -1.45482 0.339918 0
M  V30 9958 H 945.417 -3.8383 -1.73932 0
M  V30 9959 H 944.092 -2.64862 -1.86091 0
M  V30 9960 H 942.999 -3.73641 0.185224 0
M  V30 9961 H 944.332 -4.9169 0.224031 0
M  V30 9962 N 945.984 -0.3171 -1.54377 0
M  V30 9963 C 946.916 0.58571 -2.2159 0
M  V30 9964 C 947.929 1.08495 -1.21378 0
M  V30 9965 O 949.118 0.999638 -1.47883 0
M  V30 9966 C 946.218 1.8157 -2.86156 0
M  V30 9967 C 945.391 1.45625 -4.12447 0
M  V30 9968 C 944.45 2.54308 -4.60667 0
M  V30 9969 O 943.476 2.18724 -5.25498 0
M  V30 9970 N 944.678 3.85129 -4.34345 0
M  V30 9971 H 947.443 0.0102247 -2.99698 0
M  V30 9972 H 945.004 -0.140011 -1.61293 0
M  V30 9973 H 946.996 2.53657 -3.15341 0
M  V30 9974 H 945.566 2.29919 -2.11793 0
M  V30 9975 H 944.786 0.567294 -3.90097 0
M  V30 9976 H 946.074 1.19169 -4.94648 0
M  V30 9977 H 945.472 4.16841 -3.8244 0
M  V30 9978 H 944.029 4.53466 -4.68201 0
M  V30 9979 N 947.462 1.57535 -0.0451378 0
M  V30 9980 C 948.708 1.92736 0.630921 0
M  V30 9981 C 949.041 0.923265 1.70849 0
M  V30 9982 O 948.316 -0.0516512 1.94431 0
M  V30 9983 C 948.599 3.38348 1.23259 0
M  V30 9984 C 948.452 4.49503 0.16349 0
M  V30 9985 C 949.771 3.84233 2.14599 0
M  V30 9986 H 946.89 0.700884 0.227883 0
M  V30 9987 H 949.532 1.89706 -0.10567 0
M  V30 9988 H 947.682 3.41061 1.86037 0
M  V30 9989 H 949.354 4.58919 -0.46808 0
M  V30 9990 H 947.597 4.30802 -0.509166 0
M  V30 9991 H 948.268 5.48457 0.624382 0
M  V30 9992 H 950.744 3.83358 1.6179 0
M  V30 9993 H 949.62 4.86781 2.53644 0
M  V30 9994 H 949.881 3.20646 3.04366 0
M  V30 9995 N 948.94 -0.228186 1.55939 0
M  V30 9996 C 949.887 -1.28274 1.91871 0
M  V30 9997 C 950.857 -1.46906 0.775103 0
M  V30 9998 O 952.042 -1.60583 1.03042 0
M  V30 9999 C 949.182 -2.62945 2.23504 0
M  V30 10000 C 948.295 -2.52166 3.50766 0
M  V30 10001 C 947.43 -3.79316 3.71878 0
M  V30 10002 C 946.469 -3.63231 4.92676 0
M  V30 10003 N 945.606 -4.82315 5.10212 0
M  V30 10004 H 950.446 -0.96931 2.81795 0
M  V30 10005 H 947.983 -0.467331 1.39479 0
M  V30 10006 H 949.941 -3.41359 2.39854 0
M  V30 10007 H 948.571 -2.92397 1.36762 0
M  V30 10008 H 947.623 -1.65221 3.42646 0
M  V30 10009 H 948.935 -2.36199 4.39331 0
M  V30 10010 H 948.089 -4.66173 3.88288 0
M  V30 10011 H 946.828 -3.982 2.81581 0
M  V30 10012 H 945.833 -2.74757 4.76223 0
M  V30 10013 H 947.058 -3.45823 5.84451 0
M  V30 10014 H 945.004 -5.01526 4.22856 0
M  V30 10015 H 944.921 -4.6905 5.92898 0
M  V30 10016 H 946.189 -5.70618 5.31051 0
M  V30 10017 N 950.418 -1.49637 -0.494624 0
M  V30 10018 C 951.667 -1.58691 -1.24499 0
M  V30 10019 C 951.98 -0.281763 -1.9356 0
M  V30 10020 O 953.186 -0.250925 -2.70338 0
M  V30 10021 C 951.642 -2.8002 -2.26091 0
M  V30 10022 C 951.25 -4.17318 -1.6294 0
M  V30 10023 C 952.994 -2.98407 -3.01916 0
M  V30 10024 C 950.901 -5.29862 -2.62679 0
M  V30 10025 H 949.831 -0.590888 -0.468367 0
M  V30 10026 H 952.482 -1.76034 -0.518112 0
M  V30 10027 H 950.864 -2.56185 -3.01969 0
M  V30 10028 H 952.038 -4.51315 -0.930108 0
M  V30 10029 H 950.353 -4.04342 -0.994819 0
M  V30 10030 H 952.95 -3.79658 -3.76516 0
M  V30 10031 H 953.293 -2.09214 -3.5991 0
M  V30 10032 H 953.826 -3.22312 -2.33152 0
M  V30 10033 H 950.565 -6.21134 -2.09458 0
M  V30 10034 H 950.085 -5.00311 -3.3083 0
M  V30 10035 H 951.764 -5.59461 -3.2498 0
M  V30 10036 N 951.896 0.746133 -1.38819 0
M  V30 10037 C 952.846 1.85085 -1.33145 0
M  V30 10038 C 953.83 1.59466 -0.214339 0
M  V30 10039 O 955.022 1.71159 -0.450943 0
M  V30 10040 C 952.151 3.22884 -1.16623 0
M  V30 10041 C 951.237 3.54369 -2.32988 0
M  V30 10042 N 951.628 3.56863 -3.58445 0
M  V30 10043 C 949.926 3.84674 -2.25703 0
M  V30 10044 C 950.627 3.85827 -4.3533 0
M  V30 10045 N 949.603 4.03037 -3.64777 0
M  V30 10046 H 953.405 1.85301 -2.28124 0
M  V30 10047 H 950.919 0.943847 -1.32156 0
M  V30 10048 H 952.916 4.0195 -1.10642 0
M  V30 10049 H 951.576 3.23914 -0.225841 0
M  V30 10050 H 952.587 3.38443 -3.92017 0
M  V30 10051 H 949.264 3.93375 -1.39864 0
M  V30 10052 H 950.654 3.94317 -5.44025 0
M  V30 10053 N 953.375 1.23811 0.975125 0
M  V30 10054 C 954.338 1.02505 2.05001 0
M  V30 10055 C 955.338 -0.0150084 1.60793 0
M  V30 10056 O 956.528 0.225246 1.72738 0
M  V30 10057 C 953.66 0.552087 3.364 0
M  V30 10058 H 954.853 1.979 2.25335 0
M  V30 10059 H 952.406 1.05929 1.1493 0
M  V30 10060 H 953.141 -0.405394 3.21756 0
M  V30 10061 H 952.926 1.30267 3.69828 0
M  V30 10062 H 954.416 0.423828 4.15444 0
M  V30 10063 N 954.853 -1.17469 1.05066 0
M  V30 10064 C 956.101 -1.87327 0.758485 0
M  V30 10065 C 956.422 -1.81358 -0.716549 0
M  V30 10066 O 955.692 -1.23868 -1.51768 0
M  V30 10067 H 954.272 -0.693512 0.277579 0
M  V30 10068 H 956.934 -1.4251 1.32954 0
M  V30 10069 H 956.03 -2.93101 1.0723 0
M  V30 10070 N 956.331 -0.831506 -1.3388 0
M  V30 10071 C 957.742 -0.481375 -1.80388 0
M  V30 10072 C 958.093 0.998993 -1.68863 0
M  V30 10073 O 957.218 1.77795 -1.2336 0
M  V30 10074 C 957.813 -0.86699 -3.27519 0
M  V30 10075 C 956.372 -0.569105 -3.72073 0
M  V30 10076 C 955.519 -1.07929 -2.55434 0
M  V30 10077 H 958.47 -1.02089 -1.21505 0
M  V30 10078 H 958.491 -0.174128 -3.80101 0
M  V30 10079 H 958.003 -1.94447 -3.35875 0
M  V30 10080 H 956.104 0.498607 -3.69249 0
M  V30 10081 H 956.217 -1.11918 -4.65845 0
M  V30 10082 H 954.581 -0.500465 -2.49735 0
M  V30 10083 H 955.364 -2.16339 -2.66556 0
M  V30 10084 N 957.809 1.4625 -0.587256 0
M  V30 10085 C 958.756 2.30354 0.143384 0
M  V30 10086 C 959.726 1.40891 0.879716 0
M  V30 10087 O 960.911 1.69837 0.869486 0
M  V30 10088 C 958.051 3.25441 1.14815 0
M  V30 10089 C 957.164 4.30004 0.414792 0
M  V30 10090 C 956.299 5.12214 1.40748 0
M  V30 10091 C 955.338 6.08523 0.660786 0
M  V30 10092 N 954.475 6.83585 1.60176 0
M  V30 10093 H 959.315 2.92304 -0.579866 0
M  V30 10094 H 956.852 1.44055 -0.29777 0
M  V30 10095 H 958.81 3.79018 1.7436 0
M  V30 10096 H 957.44 2.6529 1.83906 0
M  V30 10097 H 956.492 3.79248 -0.295787 0
M  V30 10098 H 957.804 4.98515 -0.168738 0
M  V30 10099 H 956.958 5.70091 2.0756 0
M  V30 10100 H 955.697 4.43675 2.02494 0
M  V30 10101 H 954.702 5.49796 -0.0210864 0
M  V30 10102 H 955.927 6.79083 0.0486551 0
M  V30 10103 H 953.873 6.17752 2.20724 0
M  V30 10104 H 953.79 7.48373 1.07115 0
M  V30 10105 H 955.058 7.46016 2.26009 0
M  V30 10106 N 959.287 0.325282 1.54207 0
M  V30 10107 C 960.534 -0.276775 2.006 0
M  V30 10108 C 960.862 -1.52007 1.21343 0
M  V30 10109 O 960.117 -1.93627 0.284104 0
M  V30 10110 C 960.416 -0.654292 3.5136 0
M  V30 10111 C 960.082 0.490023 4.48229 0
M  V30 10112 C 958.744 0.804104 4.74434 0
M  V30 10113 C 961.096 1.2586 5.05775 0
M  V30 10114 C 958.424 1.88945 5.55443 0
M  V30 10115 C 960.776 2.33405 5.87967 0
M  V30 10116 C 959.44 2.65393 6.12473 0
M  V30 10117 H 958.71 -0.101279 0.734046 0
M  V30 10118 H 961.357 0.449416 1.86152 0
M  V30 10119 H 959.662 -1.46093 3.63544 0
M  V30 10120 H 961.359 -1.13171 3.84699 0
M  V30 10121 H 957.949 0.235147 4.27954 0
M  V30 10122 H 962.133 1.02921 4.85511 0
M  V30 10123 H 957.389 2.14174 5.7266 0
M  V30 10124 H 961.563 2.93402 6.31576 0
M  V30 10125 H 959.19 3.49622 6.75032 0
M  V30 10126 N 960.765 -1.57509 0.0534917 0
M  V30 10127 C 961.728 -2.10563 -0.905307 0
M  V30 10128 C 962.728 -1.02571 -1.23838 0
M  V30 10129 O 963.918 -1.28635 -1.17468 0
M  V30 10130 C 961.05 -2.5918 -2.21447 0
M  V30 10131 H 962.243 -2.96575 -0.445354 0
M  V30 10132 H 959.796 -1.55079 -0.194947 0
M  V30 10133 H 960.531 -1.76568 -2.72019 0
M  V30 10134 H 960.316 -3.38098 -1.98575 0
M  V30 10135 H 961.806 -3.00365 -2.90122 0
M  V30 10136 N 962.243 0.219913 -1.56058 0
M  V30 10137 C 963.468 0.965073 -1.83579 0
M  V30 10138 C 963.893 1.77092 -0.634024 0
M  V30 10139 O 963.251 1.76434 0.417205 0
M  V30 10140 C 963.299 1.85705 -3.09105 0
M  V30 10141 O 962.403 2.95261 -2.87914 0
M  V30 10142 H 961.744 0.273173 -0.605204 0
M  V30 10143 H 964.274 0.23273 -2.03272 0
M  V30 10144 H 964.284 2.26655 -3.39252 0
M  V30 10145 H 962.959 1.26476 -3.96203 0
M  V30 10146 H 961.536 2.58246 -2.69005 0
M  V30 10147 N 963.721 1.49897 0.486681 0
M  V30 10148 C 964.951 1.63599 1.2617 0
M  V30 10149 C 965.359 0.312365 1.86604 0
M  V30 10150 O 964.702 -0.713911 1.6926 0
M  V30 10151 C 964.764 2.65736 2.42125 0
M  V30 10152 C 964.428 4.09711 2.0245 0
M  V30 10153 C 965.425 4.9607 1.55596 0
M  V30 10154 C 963.11 4.55534 2.11647 0
M  V30 10155 C 965.104 6.26295 1.18462 0
M  V30 10156 C 962.791 5.85768 1.74124 0
M  V30 10157 C 963.789 6.70973 1.27608 0
M  V30 10158 O 963.477 7.98778 0.905991 0
M  V30 10159 H 963.209 0.55333 0.388332 0
M  V30 10160 H 965.763 1.96768 0.589195 0
M  V30 10161 H 963.993 2.27778 3.12497 0
M  V30 10162 H 965.682 2.68819 3.04123 0
M  V30 10163 H 966.448 4.61891 1.47925 0
M  V30 10164 H 962.327 3.8937 2.46803 0
M  V30 10165 H 965.871 6.92754 0.820839 0
M  V30 10166 H 961.768 6.19473 1.8145 0
M  V30 10167 H 962.536 8.11914 1.03621 0
M  V30 10168 N 965.199 -0.738761 1.39212 0
M  V30 10169 C 966.129 -1.86602 1.40364 0
M  V30 10170 C 967.11 -1.67984 0.267495 0
M  V30 10171 O 968.295 -1.88358 0.472765 0
M  V30 10172 C 965.425 -3.24308 1.24265 0
M  V30 10173 C 964.379 -3.57557 2.35239 0
M  V30 10174 C 963.705 -4.94159 2.04233 0
M  V30 10175 C 965.005 -3.60914 3.77543 0
M  V30 10176 H 966.699 -1.85896 2.34698 0
M  V30 10177 H 964.245 -0.892959 1.1297 0
M  V30 10178 H 966.198 -4.02838 1.23692 0
M  V30 10179 H 964.922 -3.25531 0.263974 0
M  V30 10180 H 963.581 -2.81354 2.35022 0
M  V30 10181 H 963.229 -4.91959 1.04813 0
M  V30 10182 H 962.929 -5.17373 2.78567 0
M  V30 10183 H 964.453 -5.7505 2.05303 0
M  V30 10184 H 965.867 -4.29528 3.79709 0
M  V30 10185 H 964.264 -3.95644 4.51205 0
M  V30 10186 H 965.334 -2.60803 4.08791 0
M  V30 10187 N 966.677 -1.24326 -0.968545 0
M  V30 10188 C 967.905 -1.10947 -1.74638 0
M  V30 10189 C 968.32 0.338064 -1.85749 0
M  V30 10190 O 967.677 1.23331 -1.3452 0
M  V30 10191 C 967.728 -1.74254 -3.1673 0
M  V30 10192 O 967.449 -3.13347 -3.06178 0
M  V30 10193 C 968.95 -1.66473 -4.10855 0
M  V30 10194 H 966.17 -0.38767 -0.547679 0
M  V30 10195 H 968.714 -1.64415 -1.21605 0
M  V30 10196 H 966.869 -1.2479 -3.66751 0
M  V30 10197 H 967.283 -3.44255 -3.95713 0
M  V30 10198 H 968.757 -2.15452 -5.08217 0
M  V30 10199 H 969.234 -0.625785 -4.34719 0
M  V30 10200 H 969.84 -2.15359 -3.66743 0
M  V30 10201 N 968.156 1.1691 -1.05688 0
M  V30 10202 C 969.403 1.87292 -0.76993 0
M  V30 10203 C 969.731 1.81339 0.703295 0
M  V30 10204 O 968.986 1.21959 1.5305 0
M  V30 10205 C 969.285 3.36578 -1.20207 0
M  V30 10206 C 968.951 3.62732 -2.67836 0
M  V30 10207 C 967.613 3.69579 -3.08163 0
M  V30 10208 C 969.965 3.73803 -3.63209 0
M  V30 10209 C 967.293 3.84992 -4.42717 0
M  V30 10210 C 969.645 3.90735 -4.97503 0
M  V30 10211 C 968.309 3.95823 -5.37476 0
M  V30 10212 H 967.579 0.68535 -0.281737 0
M  V30 10213 H 970.226 1.38274 -1.32486 0
M  V30 10214 H 968.531 3.87687 -0.566222 0
M  V30 10215 H 970.228 3.89409 -0.957183 0
M  V30 10216 H 966.818 3.58031 -2.35609 0
M  V30 10217 H 971.002 3.67829 -3.3319 0
M  V30 10218 H 966.258 3.87181 -4.73182 0
M  V30 10219 H 970.432 3.98243 -5.71293 0
M  V30 10220 H 968.059 4.07518 -6.41742 0
M  V30 10221 N 969.634 0.838594 1.33437 0
M  V30 10222 C 970.859 0.446701 2.02532 0
M  V30 10223 C 971.284 -0.944275 1.62681 0
M  V30 10224 O 970.642 -1.61733 0.81927 0
M  V30 10225 C 970.69 0.574794 3.55989 0
M  V30 10226 O 969.794 -0.399063 4.10465 0
M  V30 10227 H 969.135 0.181637 0.638674 0
M  V30 10228 H 971.665 1.13335 1.70342 0
M  V30 10229 H 971.675 0.456339 4.0544 0
M  V30 10230 H 970.35 1.58921 3.8434 0
M  V30 10231 H 968.927 -0.238187 3.72139 0
M  V30 10232 N 971.112 -1.45937 0.595003 0
M  V30 10233 C 972.523 -1.85908 0.171779 0
M  V30 10234 C 972.874 -1.497 -1.26824 0
M  V30 10235 O 971.999 -0.917688 -1.95978 0
M  V30 10236 C 972.594 -3.37425 0.304976 0
M  V30 10237 C 971.153 -3.76346 -0.0634635 0
M  V30 10238 C 970.3 -2.69926 0.635255 0
M  V30 10239 H 973.251 -1.36916 0.802471 0
M  V30 10240 H 973.272 -3.77632 -0.466313 0
M  V30 10241 H 972.784 -3.63747 1.35314 0
M  V30 10242 H 970.885 -3.55642 -1.11129 0
M  V30 10243 H 970.998 -4.78021 0.321419 0
M  V30 10244 H 969.362 -2.54592 0.0742054 0
M  V30 10245 H 970.145 -2.99086 1.68531 0
M  V30 10246 N 972.59 -0.333456 -1.54032 0
M  V30 10247 C 973.815 0.270517 -2.05628 0
M  V30 10248 C 974.24 1.44231 -1.20744 0
M  V30 10249 O 973.598 1.79975 -0.218822 0
M  V30 10250 C 973.646 0.673251 -3.54259 0
M  V30 10251 O 972.75 1.77448 -3.72271 0
M  V30 10252 H 972.091 0.0469753 -0.662336 0
M  V30 10253 H 974.621 -0.484739 -1.98775 0
M  V30 10254 H 974.631 0.953194 -3.96709 0
M  V30 10255 H 973.306 -0.183747 -4.15494 0
M  V30 10256 H 971.883 1.49259 -3.41725 0
M  V30 10257 N 974.068 1.57479 -0.061844 0
M  V30 10258 C 974.978 2.15645 0.923826 0
M  V30 10259 C 975.994 1.117 1.33413 0
M  V30 10260 O 977.17 1.4392 1.40887 0
M  V30 10261 C 974.235 2.69857 2.17665 0
M  V30 10262 C 973.296 3.88638 1.8237 0
M  V30 10263 C 972.529 4.40256 3.01679 0
M  V30 10264 O 972.752 3.90908 4.15388 0
M  V30 10265 O 971.686 5.31713 2.82073 0
M  V30 10266 H 975.512 3.0021 0.459094 0
M  V30 10267 H 973.097 1.48534 0.160665 0
M  V30 10268 H 974.979 3.04647 2.9115 0
M  V30 10269 H 973.654 1.88357 2.63255 0
M  V30 10270 H 972.561 3.58719 1.06167 0
M  V30 10271 H 973.894 4.71401 1.4157 0
M  V30 10272 N 975.546 -0.211634 1.56173 0
M  V30 10273 C 976.792 -0.935935 1.79911 0
M  V30 10274 C 977.125 -1.83589 0.633155 0
M  V30 10275 O 976.4 -1.91004 -0.367132 0
M  V30 10276 C 976.683 -1.76638 3.13801 0
M  V30 10277 C 976.536 -0.892259 4.40861 0
M  V30 10278 C 977.855 -2.74224 3.44223 0
M  V30 10279 H 974.974 -0.338822 0.654499 0
M  V30 10280 H 977.616 -0.20422 1.88899 0
M  V30 10281 H 975.766 -2.39021 3.0627 0
M  V30 10282 H 977.438 -0.284407 4.60422 0
M  V30 10283 H 975.681 -0.198145 4.33347 0
M  V30 10284 H 976.352 -1.50793 5.31004 0
M  V30 10285 H 978.828 -2.21975 3.51946 0
M  V30 10286 H 977.704 -3.29424 4.39057 0
M  V30 10287 H 977.965 -3.52455 2.66885 0
M  V30 10288 N 977.024 -1.50153 -0.478725 0
M  V30 10289 C 977.971 -1.68458 -1.57767 0
M  V30 10290 C 978.941 -0.5259 -1.57555 0
M  V30 10291 O 980.126 -0.755574 -1.75202 0
M  V30 10292 C 977.266 -1.77772 -2.95789 0
M  V30 10293 C 976.379 -3.05092 -3.05848 0
M  V30 10294 C 975.514 -3.05247 -4.34739 0
M  V30 10295 C 974.553 -4.27053 -4.38512 0
M  V30 10296 N 973.69 -4.24991 -5.58862 0
M  V30 10297 H 978.53 -2.62282 -1.41464 0
M  V30 10298 H 976.067 -1.30023 -0.687921 0
M  V30 10299 H 978.025 -1.81152 -3.75819 0
M  V30 10300 H 976.655 -0.873944 -3.10744 0
M  V30 10301 H 975.707 -3.11219 -2.1874 0
M  V30 10302 H 977.019 -3.95075 -3.04495 0
M  V30 10303 H 976.173 -3.07314 -5.23109 0
M  V30 10304 H 974.912 -2.13081 -4.38689 0
M  V30 10305 H 973.917 -4.25206 -3.4854 0
M  V30 10306 H 975.142 -5.20437 -4.36259 0
M  V30 10307 H 973.088 -3.35674 -5.63612 0
M  V30 10308 H 973.005 -5.08734 -5.59219 0
M  V30 10309 H 974.273 -4.31193 -6.49379 0
M  V30 10310 N 978.502 0.731368 -1.39602 0
M  V30 10311 C 979.727 1.52567 -1.40492 0
M  V30 10312 C 980.152 1.881 -0.00228828 0
M  V30 10313 O 979.51 1.52167 0.985643 0
M  V30 10314 C 979.558 2.78749 -2.2876 0
M  V30 10315 O 978.662 3.7482 -1.71999 0
M  V30 10316 H 978.003 0.460601 -0.478271 0
M  V30 10317 H 980.533 0.902042 -1.83642 0
M  V30 10318 H 980.543 3.27446 -2.43399 0
M  V30 10319 H 979.218 2.5222 -3.30693 0
M  V30 10320 H 977.795 3.33604 -1.66622 0
M  V30 10321 N 979.98 1.24838 0.961938 0
M  V30 10322 C 980.91 1.07053 2.07514 0
M  V30 10323 C 981.891 -0.0182465 1.7009 0
M  V30 10324 O 983.076 0.149915 1.9362 0
M  V30 10325 C 980.206 0.680693 3.40564 0
M  V30 10326 C 979.16 1.71889 3.91967 0
M  V30 10327 C 978.486 1.18395 5.21428 0
M  V30 10328 C 979.786 3.1161 4.19161 0
M  V30 10329 H 981.48 2.00167 2.22651 0
M  V30 10330 H 979.026 0.963799 1.0699 0
M  V30 10331 H 980.979 0.54324 4.17884 0
M  V30 10332 H 979.703 -0.28615 3.25344 0
M  V30 10333 H 978.362 1.84465 3.16809 0
M  V30 10334 H 978.01 0.207543 5.02572 0
M  V30 10335 H 977.71 1.87778 5.56788 0
M  V30 10336 H 979.234 1.05873 6.01351 0
M  V30 10337 H 980.648 3.0223 4.87165 0
M  V30 10338 H 979.045 3.78398 4.65763 0
M  V30 10339 H 980.115 3.59218 3.25715 0
M  V30 10340 N 981.458 -1.16348 1.06306 0
M  V30 10341 C 982.874 -1.38873 0.786543 0
M  V30 10342 C 983.074 -1.91915 -0.614061 0
M  V30 10343 O 982.13 -2.11804 -1.3746 0
M  V30 10344 C 983.443 -2.36936 1.85154 0
M  V30 10345 C 984.991 -2.5062 1.87506 0
M  V30 10346 C 985.466 -3.51965 2.9306 0
M  V30 10347 N 986.957 -3.59492 2.92095 0
M  V30 10348 C 987.692 -4.37699 3.70415 0
M  V30 10349 N 987.188 -5.19327 4.58553 0
M  V30 10350 N 988.981 -4.32683 3.58806 0
M  V30 10351 H 981.132 -0.802542 1.96655 0
M  V30 10352 H 983.395 -0.415304 0.852189 0
M  V30 10353 H 983.101 -2.05056 2.85736 0
M  V30 10354 H 982.975 -3.36585 1.70267 0
M  V30 10355 H 985.362 -2.81804 0.875827 0
M  V30 10356 H 985.443 -1.51006 2.06472 0
M  V30 10357 H 985.087 -3.21518 3.93177 0
M  V30 10358 H 985.017 -4.51309 2.71344 0
M  V30 10359 H 987.508 -3.01222 2.28197 0
M  V30 10360 H 987.821 -5.76216 5.1497 0
M  V30 10361 H 986.166 -5.1867 4.62608 0
M  V30 10362 H 989.357 -3.67971 2.89335 0
M  V30 10363 H 989.53 -4.93386 4.20088 0
M  V30 10364 N 982.937 -0.845659 -1.3299 0
M  V30 10365 C 984.165 -0.45835 -2.01759 0
M  V30 10366 C 984.58 0.94239 -1.63598 0
M  V30 10367 O 983.937 1.61353 -0.852738 0
M  V30 10368 C 983.988 -0.577311 -3.5686 0
M  V30 10369 O 983.709 -1.92287 -3.93646 0
M  V30 10370 C 985.21 -0.187839 -4.42902 0
M  V30 10371 H 982.43 -0.181165 -0.646081 0
M  V30 10372 H 984.974 -1.14011 -1.6977 0
M  V30 10373 H 983.129 0.0566146 -3.87359 0
M  V30 10374 H 983.543 -1.91322 -4.88361 0
M  V30 10375 H 985.017 -0.322105 -5.51059 0
M  V30 10376 H 985.494 0.870896 -4.30479 0
M  V30 10377 H 986.1 -0.796473 -4.17776 0
M  V30 10378 N 984.415 1.45619 -0.602734 0
M  V30 10379 C 985.325 2.34288 0.120902 0
M  V30 10380 C 986.341 1.50952 0.865414 0
M  V30 10381 O 987.517 1.83768 0.824094 0
M  V30 10382 C 984.582 3.28489 1.10888 0
M  V30 10383 C 983.643 4.2773 0.366853 0
M  V30 10384 C 982.876 5.17429 1.30776 0
M  V30 10385 O 983.099 5.10459 2.54535 0
M  V30 10386 O 982.033 5.96459 0.807464 0
M  V30 10387 H 985.859 2.97559 -0.60765 0
M  V30 10388 H 983.444 1.44922 -0.363019 0
M  V30 10389 H 985.326 3.86549 1.67803 0
M  V30 10390 H 984.001 2.67789 1.81854 0
M  V30 10391 H 982.908 3.73299 -0.244643 0
M  V30 10392 H 984.241 4.91271 -0.302226 0
M  V30 10393 N 985.893 0.34162 1.53853 0
M  V30 10394 C 987.123 -0.256557 2.05001 0
M  V30 10395 C 987.531 -1.44916 1.21639 0
M  V30 10396 O 986.874 -1.8207 0.244138 0
M  V30 10397 C 986.936 -0.737109 3.51862 0
M  V30 10398 C 986.6 0.335584 4.55766 0
M  V30 10399 C 987.597 1.17765 5.06387 0
M  V30 10400 C 985.282 0.488958 4.99914 0
M  V30 10401 C 987.276 2.15865 5.99734 0
M  V30 10402 C 984.963 1.47336 5.93073 0
M  V30 10403 C 985.961 2.30666 6.4287 0
M  V30 10404 O 985.649 3.2743 7.34197 0
M  V30 10405 H 985.381 -0.0536867 0.673865 0
M  V30 10406 H 987.935 0.49123 1.99439 0
M  V30 10407 H 986.165 -1.53611 3.54881 0
M  V30 10408 H 987.854 -1.25562 3.85991 0
M  V30 10409 H 988.62 1.07023 4.73044 0
M  V30 10410 H 984.499 -0.149807 4.60757 0
M  V30 10411 H 988.043 2.80945 6.38526 0
M  V30 10412 H 983.94 1.58134 6.25831 0
M  V30 10413 H 984.708 3.22879 7.52125 0
M  V30 10414 N 987.371 -1.57444 0.0701946 0
M  V30 10415 C 988.619 -1.93047 -0.598106 0
M  V30 10416 C 988.94 -0.950841 -1.70247 0
M  V30 10417 O 988.21 0.00127177 -1.959 0
M  V30 10418 H 986.79 -0.712648 -0.223924 0
M  V30 10419 H 989.452 -1.94481 0.127674 0
M  V30 10420 H 988.548 -2.94807 -1.02445 0
M  V30 10421 N 988.849 0.203349 -1.56283 0
M  V30 10422 C 990.126 0.950415 -1.70958 0
M  V30 10423 C 990.506 2.01708 -0.622647 0
M  V30 10424 O 989.854 2.25523 0.367635 0
M  V30 10425 C 990.064 1.54434 -3.12971 0
M  V30 10426 C 991.412 2.02964 -3.72949 0
M  V30 10427 O 992.436 1.64293 -3.16048 0
M  V30 10428 O 991.295 2.74097 -4.72793 0
M  V30 10429 H 988.389 0.445154 -0.69697 0
M  V30 10430 H 990.935 0.193695 -1.68591 0
M  V30 10431 H 989.707 0.77505 -3.83547 0
M  V30 10432 H 989.33 2.36611 -3.19532 0
M  V30 10433 N 990.327 1.50405 0.470755 0
M  V30 10434 C 991.257 1.72222 1.57676 0
M  V30 10435 C 992.238 0.57121 1.60222 0
M  V30 10436 O 993.423 0.810381 1.76484 0
M  V30 10437 C 990.553 1.81666 2.95998 0
M  V30 10438 C 989.507 2.96857 3.08318 0
M  V30 10439 C 988.833 2.91445 4.4829 0
M  V30 10440 C 990.133 4.37361 2.85504 0
M  V30 10441 H 991.827 2.64825 1.39671 0
M  V30 10442 H 989.373 1.27438 0.67049 0
M  V30 10443 H 991.326 1.95514 3.73299 0
M  V30 10444 H 990.05 0.856856 3.1516 0
M  V30 10445 H 988.709 2.82661 2.33449 0
M  V30 10446 H 988.357 1.93309 4.64371 0
M  V30 10447 H 988.057 3.68776 4.57469 0
M  V30 10448 H 989.581 3.07341 5.27611 0
M  V30 10449 H 990.995 4.52081 3.52555 0
M  V30 10450 H 989.392 5.16145 3.06127 0
M  V30 10451 H 990.462 4.49708 1.81359 0
M  V30 10452 N 991.805 -0.723954 1.39988 0
M  V30 10453 C 992.715 -1.86829 1.41887 0
M  V30 10454 C 993.731 -1.71173 0.312401 0
M  V30 10455 O 994.907 -1.93583 0.555651 0
M  V30 10456 C 991.972 -3.22541 1.27154 0
M  V30 10457 C 991.033 -3.50512 2.47871 0
M  V30 10458 C 990.266 -4.79749 2.33831 0
M  V30 10459 O 990.489 -5.54251 1.34765 0
M  V30 10460 O 989.423 -5.07868 3.23039 0
M  V30 10461 H 993.249 -1.88183 2.38371 0
M  V30 10462 H 990.834 -0.873259 1.21221 0
M  V30 10463 H 992.716 -4.0362 1.21114 0
M  V30 10464 H 991.391 -3.21933 0.337715 0
M  V30 10465 H 990.298 -2.69475 2.59488 0
M  V30 10466 H 991.631 -3.55909 3.39985 0
M  V30 10467 N 993.283 -1.25346 -0.955304 0
M  V30 10468 C 994.213 -1.08152 -2.06943 0
M  V30 10469 C 995.194 0.00922598 -1.70097 0
M  V30 10470 O 996.379 -0.160181 -1.93538 0
M  V30 10471 C 993.509 -0.698745 -3.40198 0
M  V30 10472 C 992.463 -1.73965 -3.9105 0
M  V30 10473 C 991.789 -1.21158 -5.20792 0
M  V30 10474 C 993.089 -3.13829 -4.17503 0
M  V30 10475 H 994.783 -2.01345 -2.21586 0
M  V30 10476 H 992.329 -0.969459 -1.06478 0
M  V30 10477 H 994.282 -0.565394 -4.1759 0
M  V30 10478 H 993.006 0.268892 -3.25491 0
M  V30 10479 H 991.665 -1.86143 -3.15827 0
M  V30 10480 H 991.313 -0.234193 -5.02455 0
M  V30 10481 H 991.013 -1.90728 -5.55785 0
M  V30 10482 H 992.537 -1.09061 -6.00781 0
M  V30 10483 H 993.951 -3.04809 -4.85556 0
M  V30 10484 H 992.348 -3.80863 -4.63749 0
M  V30 10485 H 993.418 -3.6094 -3.23806 0
M  V30 10486 N 994.761 1.15782 -1.06922 0
M  V30 10487 C 996.001 1.88135 -0.799043 0
M  V30 10488 C 996.365 1.80203 0.662632 0
M  V30 10489 O 997.566 2.47543 1.04767 0
M  V30 10490 C 995.837 3.3339 -1.28786 0
M  V30 10491 S 997.396 4.23525 -1.1477 0
M  V30 10492 H 994.214 0.649313 -0.289679 0
M  V30 10493 H 996.816 1.3972 -1.36743 0
M  V30 10494 H 995.52 3.36705 -2.34645 0
M  V30 10495 H 995.051 3.86857 -0.714489 0
M  V30 10496 H 997.066 4.96131 -0.0825264 0
M  V30 10497 N 996.239 0.8527 1.3254 0
M  V30 10498 C 997.488 0.45136 1.96585 0
M  V30 10499 C 997.801 -0.997773 1.68237 0
M  V30 10500 O 999.007 -1.50445 2.26006 0
M  V30 10501 C 997.463 0.75619 3.51866 0
M  V30 10502 C 997.071 2.22092 3.89075 0
M  V30 10503 C 998.815 0.422478 4.22392 0
M  V30 10504 C 996.722 2.46908 5.37392 0
M  V30 10505 H 995.652 0.165052 0.735713 0
M  V30 10506 H 998.303 1.04321 1.50962 0
M  V30 10507 H 996.685 0.0937988 3.95889 0
M  V30 10508 H 997.859 2.92494 3.56067 0
M  V30 10509 H 996.174 2.51896 3.31568 0
M  V30 10510 H 998.771 0.58533 5.31487 0
M  V30 10511 H 999.114 -0.635737 4.11417 0
M  V30 10512 H 999.647 1.04068 3.83946 0
M  V30 10513 H 996.386 3.51346 5.53386 0
M  V30 10514 H 995.906 1.81082 5.71812 0
M  V30 10515 H 997.585 2.30758 6.0445 0
M  V30 10516 N 997.718 -1.45297 0.610449 0
M  V30 10517 C 998.628 -2.34349 -0.108475 0
M  V30 10518 C 999.644 -1.51409 -0.857397 0
M  V30 10519 O 1000.82 -1.84202 -0.814337 0
M  V30 10520 C 997.885 -3.29072 -1.09144 0
M  V30 10521 C 996.946 -4.27918 -0.344165 0
M  V30 10522 C 996.179 -5.18116 -1.28031 0
M  V30 10523 O 996.402 -5.11802 -2.51824 0
M  V30 10524 O 995.336 -5.96879 -0.775821 0
M  V30 10525 H 999.162 -2.97232 0.623421 0
M  V30 10526 H 996.747 -1.44728 0.3707 0
M  V30 10527 H 998.629 -3.87433 -1.65751 0
M  V30 10528 H 997.304 -2.68749 -1.80431 0
M  V30 10529 H 996.211 -3.73164 0.264437 0
M  V30 10530 H 997.544 -4.91104 0.328275 0
M  V30 10531 N 999.196 -0.349774 -1.5367 0
M  V30 10532 C 1000.44 0.245189 -2.01312 0
M  V30 10533 C 1000.77 1.49702 -1.23705 0
M  V30 10534 O 1000.05 1.91742 -0.326371 0
M  V30 10535 C 1000.33 0.553071 -3.55827 0
M  V30 10536 C 1000.19 -0.71129 -4.4414 0
M  V30 10537 C 1001.5 1.36015 -4.18555 0
M  V30 10538 H 998.624 0.0876415 -0.73177 0
M  V30 10539 H 1001.27 -0.471543 -1.84056 0
M  V30 10540 H 999.416 1.16367 -3.70663 0
M  V30 10541 H 1001.09 -1.34913 -4.41131 0
M  V30 10542 H 999.331 -1.33491 -4.1275 0
M  V30 10543 H 1000 -0.45104 -5.50154 0
M  V30 10544 H 1002.48 0.843778 -4.07455 0
M  V30 10545 H 1001.35 1.54432 -5.26728 0
M  V30 10546 H 1001.61 2.36408 -3.73582 0
M  V30 10547 N 1000.67 1.57404 -0.0785433 0
M  V30 10548 C 1001.92 1.94031 0.589896 0
M  V30 10549 C 1002.25 0.959297 1.68852 0
M  V30 10550 O 1001.53 -0.0103978 1.94497 0
M  V30 10551 C 1001.81 3.40886 1.16055 0
M  V30 10552 C 1001.66 4.49748 0.0681072 0
M  V30 10553 C 1002.98 3.88699 2.06401 0
M  V30 10554 H 1000.1 0.70556 0.212965 0
M  V30 10555 H 1002.74 1.89439 -0.145886 0
M  V30 10556 H 1000.89 3.4493 1.78761 0
M  V30 10557 H 1002.57 4.57823 -0.565318 0
M  V30 10558 H 1000.81 4.29625 -0.600431 0
M  V30 10559 H 1001.48 5.49658 0.507906 0
M  V30 10560 H 1003.96 3.86703 1.53622 0
M  V30 10561 H 1002.83 4.92052 2.43261 0
M  V30 10562 H 1003.09 3.2703 2.97496 0
M  V30 10563 N 1002.15 -0.195058 1.56388 0
M  V30 10564 C 1003.43 -0.941335 1.71459 0
M  V30 10565 C 1003.81 -2.01375 0.633336 0
M  V30 10566 O 1003.16 -2.25715 -0.35567 0
M  V30 10567 C 1003.37 -1.52772 3.13786 0
M  V30 10568 C 1004.71 -2.00983 3.7402 0
M  V30 10569 O 1005.74 -1.62614 3.16915 0
M  V30 10570 O 1004.6 -2.71586 4.7424 0
M  V30 10571 H 1001.69 -0.441451 0.699321 0
M  V30 10572 H 1004.24 -0.184752 1.68691 0
M  V30 10573 H 1003.01 -0.754699 3.83953 0
M  V30 10574 H 1002.63 -2.34914 3.20782 0
M  V30 10575 N 1003.63 -1.50653 -0.462772 0
M  V30 10576 C 1004.58 -1.70661 -1.58043 0
M  V30 10577 C 1005.57 -0.572533 -1.59432 0
M  V30 10578 O 1006.78 -0.753257 -1.63481 0
M  V30 10579 H 1003.15 -0.538805 -0.524588 0
M  V30 10580 H 1005.12 -2.64399 -1.38332 0
M  V30 10581 C 1003.87 -1.82558 -2.95919 0
M  V30 10582 H 1003.2 -2.69216 -2.95572 0
M  V30 10583 H 1004.64 -2.0058 -3.73556 0
M  V30 10584 C 1003.09 -0.57916 -3.31885 0
M  V30 10585 O 1003.62 0.277888 -4.00738 0
M  V30 10586 N 1001.83 -0.430723 -2.8739 0
M  V30 10587 H 1001.38 -1.1292 -2.31531 0
M  V30 10588 H 1001.34 0.402061 -3.11819 0
M  V30 10589 N 1005.11 0.71652 -1.4037 0
M  V30 10590 C 1006.35 1.47857 -1.38803 0
M  V30 10591 C 1006.69 1.94197 0.0100536 0
M  V30 10592 O 1005.96 1.68093 0.978521 0
M  V30 10593 C 1006.25 2.7053 -2.37667 0
M  V30 10594 C 1006.1 2.3009 -3.86496 0
M  V30 10595 C 1007.42 3.72684 -2.34082 0
M  V30 10596 H 1004.54 0.53632 -0.505499 0
M  V30 10597 H 1007.18 0.817824 -1.71498 0
M  V30 10598 H 1005.33 3.26906 -2.09916 0
M  V30 10599 H 1007 1.79202 -4.2507 0
M  V30 10600 H 1005.24 1.62102 -4.02375 0
M  V30 10601 H 1005.91 3.18018 -4.51186 0
M  V30 10602 H 1008.39 3.25935 -2.58661 0
M  V30 10603 H 1007.27 4.56157 -3.05306 0
M  V30 10604 H 1007.53 4.20916 -1.35213 0
M  V30 10605 N 1006.59 1.25851 0.948643 0
M  V30 10606 C 1007.52 1.02549 2.04979 0
M  V30 10607 C 1008.53 -0.0115923 1.62796 0
M  V30 10608 O 1009.72 0.227643 1.77042 0
M  V30 10609 C 1006.82 0.529486 3.34738 0
M  V30 10610 C 1005.99 1.6341 4.05729 0
M  V30 10611 C 1005.05 1.13743 5.1376 0
M  V30 10612 O 1004.08 1.83303 5.38877 0
M  V30 10613 N 1005.28 -0.0181151 5.80497 0
M  V30 10614 H 1008.05 1.97365 2.25537 0
M  V30 10615 H 1005.61 1.17137 1.11761 0
M  V30 10616 H 1007.6 0.181566 4.04293 0
M  V30 10617 H 1006.17 -0.324893 3.10907 0
M  V30 10618 H 1005.39 2.15331 3.30191 0
M  V30 10619 H 1006.68 2.37603 4.49914 0
M  V30 10620 H 1006.07 -0.599198 5.62518 0
M  V30 10621 H 1004.63 -0.307019 6.51077 0
M  V30 10622 N 1008.06 -1.15214 1.07534 0
M  V30 10623 C 1009.34 -1.82155 0.71267 0
M  V30 10624 C 1009.72 -1.95163 -0.804655 0
M  V30 10625 O 1009.07 -1.50451 -1.71979 0
M  V30 10626 C 1009.28 -3.18392 1.42925 0
M  V30 10627 C 1010.63 -3.94005 1.58256 0
M  V30 10628 O 1011.65 -3.27952 1.39018 0
M  V30 10629 O 1010.51 -5.12436 1.89925 0
M  V30 10630 H 1007.6 -0.78709 0.253808 0
M  V30 10631 H 1010.15 -1.22309 1.17638 0
M  V30 10632 H 1008.92 -3.04034 2.46331 0
M  V30 10633 H 1008.55 -3.85925 0.956439 0
M  V30 10634 N 1009.54 -0.859717 -1.32086 0
M  V30 10635 C 1010.51 -0.313005 -2.27053 0
M  V30 10636 C 1011.51 0.530191 -1.51808 0
M  V30 10637 O 1012.7 0.340972 -1.7083 0
M  V30 10638 C 1009.83 0.5566 -3.36325 0
M  V30 10639 H 1011.02 -1.15125 -2.76923 0
M  V30 10640 H 1008.57 -0.634463 -1.42843 0
M  V30 10641 H 1009.31 1.41645 -2.91731 0
M  V30 10642 H 1009.09 -0.0470197 -3.92072 0
M  V30 10643 H 1010.58 0.931725 -4.07073 0
M  V30 10644 N 1011.02 1.44971 -0.618145 0
M  V30 10645 C 1012.27 2.01372 -0.115004 0
M  V30 10646 C 1012.58 1.49104 1.26599 0
M  V30 10647 O 1013.79 1.97549 1.86244 0
M  V30 10648 C 1012.24 3.59567 -0.154883 0
M  V30 10649 C 1011.85 4.20832 -1.53639 0
M  V30 10650 C 1013.6 4.23491 0.292468 0
M  V30 10651 C 1011.5 5.7121 -1.53208 0
M  V30 10652 H 1010.43 0.752979 -0.0392267 0
M  V30 10653 H 1013.08 1.66329 -0.775032 0
M  V30 10654 H 1011.47 3.91847 0.572001 0
M  V30 10655 H 1012.64 4.00109 -2.28582 0
M  V30 10656 H 1010.96 3.69143 -1.92672 0
M  V30 10657 H 1013.55 5.33771 0.315032 0
M  V30 10658 H 1013.9 3.9491 1.31725 0
M  V30 10659 H 1014.43 3.95967 -0.381493 0
M  V30 10660 H 1011.17 6.04506 -2.53481 0
M  V30 10661 H 1010.69 5.94094 -0.825387 0
M  V30 10662 H 1012.37 6.34606 -1.26032 0
M  V30 10663 N 1012.5 0.357919 1.53482 0
M  V30 10664 C 1013.78 -0.290164 1.93436 0
M  V30 10665 C 1014.16 -1.67039 1.29079 0
M  V30 10666 O 1013.5 -2.24085 0.447017 0
M  V30 10667 C 1013.71 -0.348055 3.4726 0
M  V30 10668 C 1015.06 -0.59206 4.20452 0
M  V30 10669 O 1016.09 -0.429581 3.536 0
M  V30 10670 O 1014.94 -0.907855 5.38907 0
M  V30 10671 H 1012.04 -0.172312 0.80885 0
M  V30 10672 H 1014.58 0.410144 1.64669 0
M  V30 10673 H 1013.36 0.619953 3.86358 0
M  V30 10674 H 1012.98 -1.09457 3.82237 0
M  V30 10675 N 1013.98 -1.5736 0.0868897 0
M  V30 10676 C 1014.93 -2.10105 -0.885435 0
M  V30 10677 C 1015.91 -1.01417 -1.24913 0
M  V30 10678 O 1017.1 -1.27704 -1.22558 0
M  V30 10679 C 1014.23 -2.67837 -2.14752 0
M  V30 10680 C 1013.32 -3.83553 -1.80963 0
M  V30 10681 N 1013.71 -4.91917 -1.17693 0
M  V30 10682 C 1012.01 -3.93134 -2.10622 0
M  V30 10683 C 1012.71 -5.72628 -1.02332 0
M  V30 10684 N 1011.68 -5.2139 -1.53796 0
M  V30 10685 H 1015.49 -2.91272 -0.392179 0
M  V30 10686 H 1013 -1.61981 -0.116566 0
M  V30 10687 H 1015 -3.03948 -2.85344 0
M  V30 10688 H 1013.66 -1.88122 -2.64651 0
M  V30 10689 H 1014.67 -5.10964 -0.844731 0
M  V30 10690 H 1011.34 -3.24416 -2.62793 0
M  V30 10691 H 1012.73 -6.69813 -0.529171 0
M  V30 10692 N 1015.45 0.186762 -1.56489 0
M  V30 10693 C 1016.7 0.904077 -1.80303 0
M  V30 10694 C 1017.02 1.84073 -0.661538 0
M  V30 10695 O 1018.22 2.59928 -0.784197 0
M  V30 10696 C 1016.68 1.65806 -3.19432 0
M  V30 10697 C 1016.29 0.765807 -4.41406 0
M  V30 10698 C 1018.03 2.36451 -3.52549 0
M  V30 10699 C 1015.94 1.51913 -5.71556 0
M  V30 10700 H 1014.87 0.34133 -0.672317 0
M  V30 10701 H 1017.52 0.157218 -1.82825 0
M  V30 10702 H 1015.9 2.44911 -3.11183 0
M  V30 10703 H 1017.07 0.0128225 -4.60798 0
M  V30 10704 H 1015.39 0.169772 -4.16054 0
M  V30 10705 H 1017.99 2.93378 -4.47027 0
M  V30 10706 H 1018.33 3.11044 -2.7669 0
M  V30 10707 H 1018.86 1.64305 -3.62283 0
M  V30 10708 H 1015.6 0.815829 -6.50403 0
M  V30 10709 H 1015.12 2.24583 -5.56168 0
M  V30 10710 H 1016.8 2.07073 -6.12968 0
M  V30 10711 N 1016.93 1.50896 0.454776 0
M  V30 10712 C 1017.88 1.67333 1.54867 0
M  V30 10713 C 1018.87 0.527576 1.52005 0
M  V30 10714 O 1020.06 0.782726 1.58753 0
M  V30 10715 C 1017.19 1.7858 2.93196 0
M  V30 10716 C 1016.27 2.98884 3.0088 0
M  V30 10717 N 1016.66 4.22326 2.78343 0
M  V30 10718 C 1014.96 2.97779 3.32029 0
M  V30 10719 C 1015.66 5.03439 2.91418 0
M  V30 10720 N 1014.64 4.37725 3.22332 0
M  V30 10721 H 1018.44 2.60453 1.36167 0
M  V30 10722 H 1015.96 1.48304 0.661797 0
M  V30 10723 H 1017.95 1.88463 3.7187 0
M  V30 10724 H 1016.61 0.866296 3.1293 0
M  V30 10725 H 1017.62 4.51557 2.53607 0
M  V30 10726 H 1014.3 2.15393 3.57648 0
M  V30 10727 H 1015.69 6.11648 2.78095 0
M  V30 10728 N 1018.41 -0.709066 1.40748 0
M  V30 10729 C 1019.36 -1.82312 1.4153 0
M  V30 10730 C 1020.33 -1.63868 0.271392 0
M  V30 10731 O 1021.51 -1.8491 0.470431 0
M  V30 10732 C 1018.65 -3.2008 1.29006 0
M  V30 10733 C 1017.77 -3.50051 2.53156 0
M  V30 10734 C 1016.9 -4.7736 2.33025 0
M  V30 10735 C 1015.94 -5.00255 3.52719 0
M  V30 10736 N 1015.08 -6.18782 3.31743 0
M  V30 10737 H 1019.92 -1.80978 2.36751 0
M  V30 10738 H 1017.45 -0.883975 1.17577 0
M  V30 10739 H 1019.41 -3.99645 1.19749 0
M  V30 10740 H 1018.04 -3.20626 0.374014 0
M  V30 10741 H 1017.09 -2.64993 2.72916 0
M  V30 10742 H 1018.41 -3.62877 3.42231 0
M  V30 10743 H 1017.56 -5.64954 2.21159 0
M  V30 10744 H 1016.3 -4.66756 1.41386 0
M  V30 10745 H 1015.3 -4.11114 3.65055 0
M  V30 10746 H 1016.53 -5.12728 4.45295 0
M  V30 10747 H 1014.47 -6.09416 2.42791 0
M  V30 10748 H 1014.39 -6.32313 4.14386 0
M  V30 10749 H 1015.66 -7.09146 3.23623 0
M  V30 10750 N 1019.89 -1.26353 -0.941956 0
M  V30 10751 C 1021.12 -1.1446 -1.71996 0
M  V30 10752 C 1021.53 0.302957 -1.86759 0
M  V30 10753 O 1020.87 1.2193 -1.374 0
M  V30 10754 C 1020.93 -1.73986 -3.14593 0
M  V30 10755 C 1020.6 -3.23078 -3.23217 0
M  V30 10756 C 1021.59 -4.19905 -3.06554 0
M  V30 10757 C 1019.28 -3.63526 -3.46632 0
M  V30 10758 C 1021.27 -5.55159 -3.13172 0
M  V30 10759 C 1018.96 -4.98914 -3.52886 0
M  V30 10760 C 1019.96 -5.9454 -3.36172 0
M  V30 10761 O 1019.65 -7.27462 -3.42132 0
M  V30 10762 H 1019.38 -0.399453 -0.545356 0
M  V30 10763 H 1021.93 -1.67455 -1.18945 0
M  V30 10764 H 1020.16 -1.15453 -3.69063 0
M  V30 10765 H 1021.85 -1.57011 -3.74302 0
M  V30 10766 H 1022.62 -3.89995 -2.88321 0
M  V30 10767 H 1018.5 -2.8958 -3.58698 0
M  V30 10768 H 1022.04 -6.29777 -3.00044 0
M  V30 10769 H 1017.94 -5.28485 -3.70639 0
M  V30 10770 H 1018.7 -7.35725 -3.5868 0
M  V30 10771 N 1021.37 1.14642 -1.08144 0
M  V30 10772 C 1022.62 1.8525 -0.807885 0
M  V30 10773 C 1022.94 1.83194 0.668213 0
M  V30 10774 O 1022.21 1.27848 1.48431 0
M  V30 10775 H 1020.79 0.685909 -0.295868 0
M  V30 10776 H 1023.45 1.38935 -1.36686 0
M  V30 10777 H 1022.54 2.90155 -1.14964 0
M  V30 10778 N 1022.85 0.866709 1.31628 0
M  V30 10779 C 1024.07 0.48956 2.01539 0
M  V30 10780 C 1024.5 -0.909556 1.64647 0
M  V30 10781 O 1023.85 -1.59959 0.853391 0
M  V30 10782 C 1023.9 0.650176 3.5469 0
M  V30 10783 O 1023.01 -0.311908 4.11219 0
M  V30 10784 H 1022.35 0.195144 0.634677 0
M  V30 10785 H 1024.88 1.16923 1.679 0
M  V30 10786 H 1024.89 0.542236 4.04381 0
M  V30 10787 H 1023.56 1.67038 3.80882 0
M  V30 10788 H 1022.14 -0.159197 3.7256 0
M  V30 10789 N 1024.32 -1.44642 0.625825 0
M  V30 10790 C 1025.55 -2.06971 0.133373 0
M  V30 10791 C 1025.97 -1.46421 -1.18078 0
M  V30 10792 O 1025.33 -0.563676 -1.72315 0
M  V30 10793 C 1025.38 -3.6059 0.0265097 0
M  V30 10794 O 1024.48 -3.99615 -1.01889 0
M  V30 10795 H 1023.82 -0.658873 0.0823568 0
M  V30 10796 H 1026.35 -1.85601 0.861002 0
M  V30 10797 H 1026.36 -4.07663 -0.1658 0
M  V30 10798 H 1025.04 -4.04043 0.985986 0
M  V30 10799 H 1023.62 -3.64183 -0.801577 0
M  V30 10800 N 1025.8 -0.366053 -1.5329 0
M  V30 10801 C 1026.75 0.496656 -2.22525 0
M  V30 10802 C 1027.74 1.0483 -1.22063 0
M  V30 10803 O 1028.93 0.978266 -1.47509 0
M  V30 10804 C 1026.06 1.63559 -3.01833 0
M  V30 10805 C 1025.14 1.0968 -4.09672 0
M  V30 10806 N 1025.53 0.28104 -5.05019 0
M  V30 10807 C 1023.83 1.37157 -4.24387 0
M  V30 10808 C 1024.53 -0.0140071 -5.81698 0
M  V30 10809 N 1023.51 0.583743 -5.40457 0
M  V30 10810 H 1027.31 -0.133408 -2.93597 0
M  V30 10811 H 1024.82 -0.174095 -1.61464 0
M  V30 10812 H 1026.82 2.26582 -3.49952 0
M  V30 10813 H 1025.48 2.26871 -2.32292 0
M  V30 10814 H 1026.49 -0.0797947 -5.17839 0
M  V30 10815 H 1023.17 2.00743 -3.66072 0
M  V30 10816 H 1024.56 -0.673508 -6.68516 0
M  V30 10817 N 1027.28 1.57312 -0.0952337 0
M  V30 10818 C 1028.51 1.98697 0.57682 0
M  V30 10819 C 1028.92 0.974347 1.61716 0
M  V30 10820 O 1028.28 -0.036022 1.82464 0
M  V30 10821 C 1028.33 3.40133 1.2244 0
M  V30 10822 O 1028.05 4.37518 0.225678 0
M  V30 10823 C 1029.55 3.96522 1.98205 0
M  V30 10824 H 1026.77 0.65294 0.154629 0
M  V30 10825 H 1029.32 2.03754 -0.174562 0
M  V30 10826 H 1027.47 3.3609 1.92671 0
M  V30 10827 H 1027.89 5.199 0.693116 0
M  V30 10828 H 1029.36 4.97637 2.38875 0
M  V30 10829 H 1029.84 3.34347 2.84796 0
M  V30 10830 H 1030.44 4.04038 1.3279 0
M  V30 10831 N 1028.76 -0.17846 1.56586 0
M  V30 10832 C 1030.03 -0.923096 1.72448 0
M  V30 10833 C 1030.41 -2.00692 0.654659 0
M  V30 10834 O 1029.76 -2.26079 -0.33171 0
M  V30 10835 C 1029.97 -1.49435 3.15389 0
M  V30 10836 C 1031.32 -1.97005 3.76131 0
M  V30 10837 O 1032.34 -1.59244 3.18622 0
M  V30 10838 O 1031.2 -2.66541 4.77094 0
M  V30 10839 H 1028.3 -0.434009 0.703964 0
M  V30 10840 H 1030.84 -0.16685 1.68878 0
M  V30 10841 H 1029.62 -0.713933 3.84732 0
M  V30 10842 H 1029.24 -2.31498 3.23256 0
M  V30 10843 N 1030.24 -1.51135 -0.446768 0
M  V30 10844 C 1031.48 -1.63578 -1.19875 0
M  V30 10845 C 1031.81 -0.346478 -1.91084 0
M  V30 10846 O 1031.09 0.653447 -1.83195 0
M  V30 10847 C 1031.37 -2.83275 -2.22323 0
M  V30 10848 C 1031.23 -4.22155 -1.55259 0
M  V30 10849 C 1032.54 -2.98496 -3.23401 0
M  V30 10850 H 1029.66 -0.595333 -0.434452 0
M  V30 10851 H 1032.31 -1.83593 -0.48923 0
M  V30 10852 H 1030.46 -2.6634 -2.82834 0
M  V30 10853 H 1032.13 -4.50736 -0.981571 0
M  V30 10854 H 1030.37 -4.25288 -0.855122 0
M  V30 10855 H 1031.04 -5.01882 -2.29823 0
M  V30 10856 H 1033.52 -3.14079 -2.72935 0
M  V30 10857 H 1032.39 -3.83828 -3.92386 0
M  V30 10858 H 1032.65 -2.10157 -3.88956 0
M  V30 10859 N 1031.71 0.701592 -1.41122 0
M  V30 10860 C 1032.96 1.45722 -1.39456 0
M  V30 10861 C 1033.28 1.95599 -0.00475228 0
M  V30 10862 O 1034.48 2.71166 0.134529 0
M  V30 10863 C 1032.94 2.63475 -2.45172 0
M  V30 10864 C 1032.55 2.20409 -3.90031 0
M  V30 10865 C 1034.29 3.4114 -2.52633 0
M  V30 10866 C 1032.2 3.35084 -4.87312 0
M  V30 10867 H 1031.13 0.547341 -0.518588 0
M  V30 10868 H 1033.78 0.762233 -1.6692 0
M  V30 10869 H 1032.16 3.35212 -2.10829 0
M  V30 10870 H 1033.33 1.56 -4.3359 0
M  V30 10871 H 1031.65 1.55752 -3.86174 0
M  V30 10872 H 1034.25 4.26496 -3.22498 0
M  V30 10873 H 1034.59 3.85915 -1.56125 0
M  V30 10874 H 1035.12 2.76456 -2.86037 0
M  V30 10875 H 1031.86 2.95327 -5.85203 0
M  V30 10876 H 1031.38 3.98362 -4.48406 0
M  V30 10877 H 1033.06 4.00949 -5.07788 0
M  V30 10878 N 1033.19 1.2685 0.935242 0
M  V30 10879 C 1034.44 1.12912 1.6846 0
M  V30 10880 C 1034.77 -0.325708 1.91449 0
M  V30 10881 O 1034.05 -1.23884 1.49944 0
M  V30 10882 C 1034.33 1.90513 3.05576 0
M  V30 10883 C 1034.18 3.43936 2.89876 0
M  V30 10884 C 1035.5 1.70363 4.05789 0
M  V30 10885 H 1032.62 0.411559 0.611382 0
M  V30 10886 H 1035.26 1.55917 1.08582 0
M  V30 10887 H 1033.41 1.53963 3.5669 0
M  V30 10888 H 1035.08 3.90272 2.45939 0
M  V30 10889 H 1033.33 3.70659 2.25376 0
M  V30 10890 H 1034 3.93467 3.87153 0
M  V30 10891 H 1036.47 2.02217 3.63659 0
M  V30 10892 H 1035.35 2.27066 4.99732 0
M  V30 10893 H 1035.61 0.649674 4.373 0
M  V30 10894 N 1034.67 -1.14067 1.0875 0
M  V30 10895 C 1035.9 -1.89041 0.840902 0
M  V30 10896 C 1036.31 -1.78768 -0.60725 0
M  V30 10897 O 1035.67 -1.14945 -1.41753 0
M  V30 10898 C 1035.72 -3.38891 1.25838 0
M  V30 10899 O 1035.44 -3.48886 2.64972 0
M  V30 10900 C 1036.94 -4.30852 1.04315 0
M  V30 10901 H 1034.16 -0.598685 0.303014 0
M  V30 10902 H 1036.71 -1.44438 1.44769 0
M  V30 10903 H 1034.86 -3.81103 0.695627 0
M  V30 10904 H 1035.28 -4.41989 2.82393 0
M  V30 10905 H 1036.75 -5.34353 1.38461 0
M  V30 10906 H 1037.23 -4.39196 -0.0195784 0
M  V30 10907 H 1037.83 -3.944 1.59151 0
M  V30 10908 N 1036.15 -0.873678 -1.31166 0
M  V30 10909 C 1037.06 -0.335726 -2.32185 0
M  V30 10910 C 1038.07 0.556259 -1.64869 0
M  V30 10911 O 1039.25 0.452087 -1.9626 0
M  V30 10912 C 1036.32 0.450822 -3.43756 0
M  V30 10913 C 1035.38 -0.469565 -4.26724 0
M  V30 10914 C 1034.61 0.279538 -5.32967 0
M  V30 10915 O 1034.83 1.50715 -5.50128 0
M  V30 10916 O 1033.77 -0.36452 -6.00795 0
M  V30 10917 H 1037.59 -1.17314 -2.80127 0
M  V30 10918 H 1035.18 -0.637163 -1.35132 0
M  V30 10919 H 1037.06 0.896582 -4.11752 0
M  V30 10920 H 1035.73 1.26472 -2.9797 0
M  V30 10921 H 1034.64 -0.963902 -3.61469 0
M  V30 10922 H 1035.97 -1.24916 -4.76085 0
M  V30 10923 N 1037.63 1.44308 -0.633487 0
M  V30 10924 C 1038.9 1.95476 -0.0697262 0
M  V30 10925 C 1039.28 1.57539 1.40516 0
M  V30 10926 O 1038.63 0.850632 2.12077 0
M  V30 10927 C 1038.84 3.4775 -0.295093 0
M  V30 10928 C 1040.19 4.24177 -0.189542 0
M  V30 10929 O 1041.21 3.55479 -0.226586 0
M  V30 10930 O 1040.07 5.46415 -0.096479 0
M  V30 10931 H 1037.17 0.826734 0.0209582 0
M  V30 10932 H 1039.71 1.54347 -0.705354 0
M  V30 10933 H 1038.48 3.6842 -1.31841 0
M  V30 10934 H 1038.11 3.95832 0.37456 0
M  V30 10935 N 1039.1 0.374177 1.53094 0
M  V30 10936 C 1040.01 -0.475935 2.29722 0
M  V30 10937 C 1041.03 -1.085 1.36029 0
M  V30 10938 O 1042.21 -1.09408 1.69091 0
M  V30 10939 C 1039.27 -1.59572 3.07795 0
M  V30 10940 C 1038.33 -1.01332 4.17169 0
M  V30 10941 C 1037.57 -2.07975 4.9151 0
M  V30 10942 O 1037.79 -3.29232 4.65793 0
M  V30 10943 O 1036.72 -1.7055 5.77232 0
M  V30 10944 H 1040.55 0.147877 3.0334 0
M  V30 10945 H 1038.13 0.138312 1.48758 0
M  V30 10946 H 1040.02 -2.24658 3.5652 0
M  V30 10947 H 1038.69 -2.20478 2.37005 0
M  V30 10948 H 1037.6 -0.326133 3.72676 0
M  V30 10949 H 1038.93 -0.4487 4.90151 0
M  V30 10950 N 1040.58 -1.57259 0.103575 0
M  V30 10951 C 1041.53 -2.15727 -0.869739 0
M  V30 10952 C 1042.52 -1.10236 -1.28625 0
M  V30 10953 O 1043.73 -1.28567 -1.25979 0
M  V30 10954 H 1040.11 -0.690204 -0.298535 0
M  V30 10955 H 1042.08 -2.96317 -0.351984 0
M  V30 10956 C 1040.83 -2.75905 -2.11593 0
M  V30 10957 H 1040.15 -3.56768 -1.80434 0
M  V30 10958 H 1041.59 -3.20373 -2.77736 0
M  V30 10959 C 1040.05 -1.72218 -2.89556 0
M  V30 10960 O 1040.58 -1.16623 -3.84398 0
M  V30 10961 N 1038.78 -1.42514 -2.53255 0
M  V30 10962 H 1038.33 -1.87914 -1.76198 0
M  V30 10963 H 1038.29 -0.733782 -3.05717 0
M  V30 10964 N 1042.06 0.170153 -1.56679 0
M  V30 10965 C 1043.29 0.902134 -1.86197 0
M  V30 10966 C 1043.7 1.75775 -0.689098 0
M  V30 10967 O 1043.06 1.79271 0.341763 0
M  V30 10968 C 1043.11 1.77792 -3.14757 0
M  V30 10969 O 1042.83 0.956817 -4.27524 0
M  V30 10970 C 1044.33 2.61947 -3.57629 0
M  V30 10971 H 1041.55 0.262026 -0.617724 0
M  V30 10972 H 1044.1 0.169899 -2.03793 0
M  V30 10973 H 1042.25 2.46348 -2.98984 0
M  V30 10974 H 1042.67 1.5559 -5.00891 0
M  V30 10975 H 1044.14 3.19011 -4.50484 0
M  V30 10976 H 1044.62 3.36873 -2.81803 0
M  V30 10977 H 1045.22 1.98721 -3.76019 0
M  V30 10978 N 1043.54 1.5137 0.438746 0
M  V30 10979 C 1044.5 1.71993 1.51496 0
M  V30 10980 C 1045.5 0.589978 1.49586 0
M  V30 10981 O 1046.69 0.857505 1.51633 0
M  V30 10982 C 1043.82 1.77508 2.91039 0
M  V30 10983 H 1045.02 2.68041 1.34514 0
M  V30 10984 H 1042.57 1.41338 0.667326 0
M  V30 10985 H 1043.3 0.832698 3.13427 0
M  V30 10986 H 1043.09 2.59627 2.9383 0
M  V30 10987 H 1044.58 1.95308 3.69113 0
M  V30 10988 N 1045.02 -0.694098 1.41492 0
M  V30 10989 C 1045.93 -1.83778 1.45818 0
M  V30 10990 C 1046.94 -1.70471 0.348639 0
M  V30 10991 O 1048.12 -1.92361 0.596588 0
M  V30 10992 C 1045.18 -3.19771 1.33967 0
M  V30 10993 C 1044.24 -3.45175 2.5525 0
M  V30 10994 C 1043.48 -4.74681 2.43955 0
M  V30 10995 O 1043.7 -5.51268 1.46491 0
M  V30 10996 O 1042.63 -5.00901 3.33739 0
M  V30 10997 H 1046.46 -1.83084 2.42309 0
M  V30 10998 H 1044.05 -0.847349 1.23046 0
M  V30 10999 H 1045.93 -4.00961 1.29648 0
M  V30 11000 H 1044.6 -3.21145 0.405926 0
M  V30 11001 H 1043.51 -2.6391 2.65146 0
M  V30 11002 H 1044.84 -3.48617 3.47458 0
M  V30 11003 N 1046.49 -1.27344 -0.928501 0
M  V30 11004 C 1047.74 -1.13635 -1.6761 0
M  V30 11005 C 1048.07 0.317957 -1.91884 0
M  V30 11006 O 1047.32 1.24904 -1.50657 0
M  V30 11007 C 1047.62 -1.86439 -3.04918 0
M  V30 11008 C 1047.29 -3.36298 -3.00358 0
M  V30 11009 C 1045.95 -3.77173 -2.98821 0
M  V30 11010 C 1048.3 -4.31921 -2.91708 0
M  V30 11011 C 1045.63 -5.12037 -2.86417 0
M  V30 11012 C 1047.98 -5.66841 -2.80846 0
M  V30 11013 C 1046.65 -6.07011 -2.77659 0
M  V30 11014 H 1045.92 -0.415821 -0.61333 0
M  V30 11015 H 1048.56 -1.57943 -1.08288 0
M  V30 11016 H 1046.87 -1.34638 -3.6794 0
M  V30 11017 H 1048.57 -1.73261 -3.61637 0
M  V30 11018 H 1045.16 -3.0379 -3.0234 0
M  V30 11019 H 1049.34 -4.01314 -2.91994 0
M  V30 11020 H 1044.6 -5.42307 -2.82336 0
M  V30 11021 H 1048.77 -6.40608 -2.73119 0
M  V30 11022 H 1046.4 -7.11467 -2.67804 0
M  V30 11023 N 1047.97 1.13488 -1.09353 0
M  V30 11024 C 1049.22 1.84748 -0.829126 0
M  V30 11025 C 1049.55 1.83485 0.645247 0
M  V30 11026 O 1048.8 1.26767 1.49093 0
M  V30 11027 C 1049.1 3.32584 -1.30854 0
M  V30 11028 C 1048.77 3.54028 -2.7924 0
M  V30 11029 C 1047.43 3.59588 -3.19765 0
M  V30 11030 C 1049.78 3.62058 -3.74918 0
M  V30 11031 C 1047.11 3.70712 -4.54741 0
M  V30 11032 C 1049.46 3.7471 -5.09682 0
M  V30 11033 C 1048.13 3.78523 -5.49797 0
M  V30 11034 H 1047.4 0.67604 -0.303399 0
M  V30 11035 H 1050.04 1.33989 -1.36818 0
M  V30 11036 H 1048.35 3.85689 -0.689275 0
M  V30 11037 H 1050.04 3.86166 -1.08059 0
M  V30 11038 H 1046.63 3.50354 -2.4688 0
M  V30 11039 H 1050.82 3.57043 -3.44723 0
M  V30 11040 H 1046.07 3.71931 -4.8526 0
M  V30 11041 H 1050.25 3.79866 -5.83674 0
M  V30 11042 H 1047.88 3.86895 -6.54382 0
M  V30 11043 N 1049.45 0.880621 1.30701 0
M  V30 11044 C 1050.38 0.360251 2.30704 0
M  V30 11045 C 1051.36 -0.554572 1.60806 0
M  V30 11046 O 1052.55 -0.469345 1.88443 0
M  V30 11047 C 1049.68 -0.429888 3.44629 0
M  V30 11048 C 1048.63 0.392786 4.26194 0
M  V30 11049 C 1047.96 -0.52369 5.32129 0
M  V30 11050 C 1049.26 1.63258 4.96129 0
M  V30 11051 H 1050.95 1.19591 2.74478 0
M  V30 11052 H 1048.5 0.576508 1.31956 0
M  V30 11053 H 1050.45 -0.804532 4.13649 0
M  V30 11054 H 1049.17 -1.29916 2.99649 0
M  V30 11055 H 1047.83 0.749514 3.58856 0
M  V30 11056 H 1047.48 -1.39054 4.83397 0
M  V30 11057 H 1047.18 0.0229272 5.87596 0
M  V30 11058 H 1048.71 -0.894946 6.04006 0
M  V30 11059 H 1050.12 1.32877 5.57689 0
M  V30 11060 H 1048.52 2.11906 5.61441 0
M  V30 11061 H 1049.59 2.37944 4.22505 0
M  V30 11062 N 1050.93 -1.4397 0.641131 0
M  V30 11063 C 1051.86 -2.28997 -0.0963315 0
M  V30 11064 C 1052.87 -1.4184 -0.799071 0
M  V30 11065 O 1054.06 -1.65896 -0.658846 0
M  V30 11066 C 1051.16 -3.18465 -1.15903 0
M  V30 11067 C 1050.34 -4.34093 -0.536828 0
M  V30 11068 C 1049.4 -5.04522 -1.4948 0
M  V30 11069 O 1048.42 -5.60202 -1.00807 0
M  V30 11070 N 1049.62 -5.06899 -2.82901 0
M  V30 11071 H 1052.39 -2.9293 0.633422 0
M  V30 11072 H 1049.95 -1.54527 0.48302 0
M  V30 11073 H 1051.94 -3.62445 -1.80044 0
M  V30 11074 H 1050.51 -2.56214 -1.79089 0
M  V30 11075 H 1049.73 -3.9318 0.283414 0
M  V30 11076 H 1051.02 -5.08698 -0.101966 0
M  V30 11077 H 1050.42 -4.63012 -3.25017 0
M  V30 11078 H 1048.97 -5.54637 -3.42376 0
M  V30 11079 N 1052.41 -0.382291 -1.52893 0
M  V30 11080 C 1053.36 0.473026 -2.23039 0
M  V30 11081 C 1054.34 1.0353 -1.23168 0
M  V30 11082 O 1055.53 0.962566 -1.48538 0
M  V30 11083 C 1052.66 1.60349 -3.03551 0
M  V30 11084 C 1051.75 1.05329 -4.10812 0
M  V30 11085 N 1052.14 0.22746 -5.05288 0
M  V30 11086 C 1050.44 1.32648 -4.25818 0
M  V30 11087 C 1051.14 -0.0757032 -5.81651 0
M  V30 11088 N 1050.11 0.526387 -5.41045 0
M  V30 11089 H 1053.92 -0.164541 -2.93439 0
M  V30 11090 H 1051.43 -0.191211 -1.6127 0
M  V30 11091 H 1053.43 2.22858 -3.52335 0
M  V30 11092 H 1052.09 2.24394 -2.34685 0
M  V30 11093 H 1053.1 -0.134714 -5.17725 0
M  V30 11094 H 1049.78 1.96849 -3.6818 0
M  V30 11095 H 1051.17 -0.744375 -6.67764 0
M  V30 11096 N 1053.89 1.57202 -0.111913 0
M  V30 11097 C 1055.13 1.95239 0.548607 0
M  V30 11098 C 1055.46 0.994897 1.6678 0
M  V30 11099 O 1054.74 0.0308603 1.94476 0
M  V30 11100 C 1055.02 3.43271 1.08798 0
M  V30 11101 C 1054.88 4.49792 -0.0273064 0
M  V30 11102 C 1056.19 3.92989 1.98109 0
M  V30 11103 H 1053.31 0.709919 0.197951 0
M  V30 11104 H 1055.96 1.89087 -0.186036 0
M  V30 11105 H 1054.11 3.48644 1.71404 0
M  V30 11106 H 1055.78 4.56521 -0.662302 0
M  V30 11107 H 1054.02 4.28254 -0.691426 0
M  V30 11108 H 1054.69 5.50612 0.391201 0
M  V30 11109 H 1057.17 3.89875 1.45385 0
M  V30 11110 H 1056.04 4.97101 2.32769 0
M  V30 11111 H 1056.3 3.33267 2.90492 0
M  V30 11112 N 1055.36 -0.161842 1.56767 0
M  V30 11113 C 1056.64 -0.904754 1.73417 0
M  V30 11114 C 1057.02 -1.99987 0.675908 0
M  V30 11115 O 1056.37 -2.26419 -0.307712 0
M  V30 11116 C 1056.58 -1.46082 3.16956 0
M  V30 11117 C 1057.93 -1.93004 3.78199 0
M  V30 11118 O 1058.95 -1.55856 3.20293 0
M  V30 11119 O 1057.81 -2.61465 4.79894 0
M  V30 11120 H 1054.9 -0.426518 0.708528 0
M  V30 11121 H 1057.45 -0.148928 1.69045 0
M  V30 11122 H 1056.22 -0.673087 3.85468 0
M  V30 11123 H 1055.84 -2.28056 3.25693 0
M  V30 11124 N 1056.84 -1.516 -0.430713 0
M  V30 11125 C 1058.07 -1.687 -1.20644 0
M  V30 11126 C 1058.49 -0.386555 -1.84085 0
M  V30 11127 O 1057.85 0.653952 -1.69095 0
M  V30 11128 C 1057.9 -2.80887 -2.2613 0
M  V30 11129 O 1057 -2.44952 -3.31772 0
M  V30 11130 H 1056.34 -0.562289 -0.353167 0
M  V30 11131 H 1058.87 -1.98198 -0.507807 0
M  V30 11132 H 1058.88 -3.05167 -2.70809 0
M  V30 11133 H 1057.56 -3.75249 -1.79334 0
M  V30 11134 H 1056.13 -2.31267 -2.92523 0
M  V30 11135 N 1058.32 0.686584 -1.41858 0
M  V30 11136 C 1059.28 1.78214 -1.44126 0
M  V30 11137 C 1060.28 1.57366 -0.330541 0
M  V30 11138 O 1061.47 1.63874 -0.590837 0
M  V30 11139 C 1058.6 3.16704 -1.26142 0
M  V30 11140 H 1059.8 1.77594 -2.41661 0
M  V30 11141 H 1057.35 0.895085 -1.28132 0
M  V30 11142 H 1058.09 3.22957 -0.294823 0
M  V30 11143 H 1057.87 3.33238 -2.06627 0
M  V30 11144 H 1059.36 3.96658 -1.30584 0
M  V30 11145 N 1059.8 1.27835 0.921735 0
M  V30 11146 C 1061.04 1.15766 1.68457 0
M  V30 11147 C 1061.4 -0.290542 1.89789 0
M  V30 11148 O 1062.6 -0.53378 2.63447 0
M  V30 11149 C 1060.87 1.92591 3.0107 0
M  V30 11150 S 1062.43 1.96804 3.92191 0
M  V30 11151 H 1059.25 0.413169 0.578629 0
M  V30 11152 H 1061.85 1.61826 1.09693 0
M  V30 11153 H 1060.56 2.96991 2.8324 0
M  V30 11154 H 1060.09 1.47049 3.64884 0
M  V30 11155 H 1062.1 1.06877 4.84553 0
M  V30 11156 N 1061.28 -1.12907 1.09954 0
M  V30 11157 C 1062.52 -1.84579 0.840155 0
M  V30 11158 C 1062.85 -1.83605 -0.632692 0
M  V30 11159 O 1062.13 -1.27803 -1.46617 0
M  V30 11160 C 1062.41 -3.32489 1.38286 0
M  V30 11161 C 1062.27 -3.41946 2.92221 0
M  V30 11162 C 1063.58 -4.28091 1.0211 0
M  V30 11163 H 1060.7 -0.670169 0.306663 0
M  V30 11164 H 1063.35 -1.3249 1.36185 0
M  V30 11165 H 1061.5 -3.76978 0.939123 0
M  V30 11166 H 1063.17 -3.06128 3.45085 0
M  V30 11167 H 1061.41 -2.8265 3.29077 0
M  V30 11168 H 1062.08 -4.45983 3.25274 0
M  V30 11169 H 1064.56 -3.91701 1.4039 0
M  V30 11170 H 1063.43 -5.30005 1.42781 0
M  V30 11171 H 1063.69 -4.42044 -0.0700753 0
M  V30 11172 N 1062.75 -0.88754 -1.30232 0
M  V30 11173 C 1064 -0.507279 -1.96043 0
M  V30 11174 C 1064.33 0.944059 -1.70052 0
M  V30 11175 O 1063.58 1.68255 -0.999444 0
M  V30 11176 C 1063.88 -0.731765 -3.49828 0
M  V30 11177 C 1063.55 -2.15858 -3.95874 0
M  V30 11178 C 1062.21 -2.54875 -4.08157 0
M  V30 11179 C 1064.56 -3.0883 -4.19849 0
M  V30 11180 C 1061.89 -3.86069 -4.41778 0
M  V30 11181 C 1064.24 -4.39559 -4.5494 0
M  V30 11182 C 1062.91 -4.78465 -4.65432 0
M  V30 11183 H 1062.18 -0.185627 -0.717373 0
M  V30 11184 H 1064.82 -1.12388 -1.55052 0
M  V30 11185 H 1063.13 -0.0321473 -3.91787 0
M  V30 11186 H 1064.83 -0.417107 -3.98825 0
M  V30 11187 H 1061.42 -1.84574 -3.86821 0
M  V30 11188 H 1065.6 -2.79906 -4.09837 0
M  V30 11189 H 1060.86 -4.1595 -4.48102 0
M  V30 11190 H 1065.03 -5.11636 -4.72442 0
M  V30 11191 H 1062.66 -5.80162 -4.91239 0
M  V30 11192 N 1064.23 1.43628 -0.648757 0
M  V30 11193 C 1065.48 2.02695 -0.169158 0
M  V30 11194 C 1065.83 1.50239 1.20191 0
M  V30 11195 O 1065.13 0.684018 1.78974 0
M  V30 11196 C 1065.32 3.57214 -0.115282 0
M  V30 11197 C 1065.15 4.24663 -1.47959 0
M  V30 11198 C 1063.92 4.60917 -2.07084 0
M  V30 11199 C 1066.12 4.53962 -2.41708 0
M  V30 11200 N 1064.1 5.13416 -3.36566 0
M  V30 11201 C 1065.47 5.07733 -3.55819 0
M  V30 11202 C 1067.53 4.35927 -2.40566 0
M  V30 11203 C 1066.23 5.45367 -4.69007 0
M  V30 11204 C 1068.25 4.7462 -3.52831 0
M  V30 11205 C 1067.62 5.2852 -4.65667 0
M  V30 11206 H 1063.72 0.774751 -0.106227 0
M  V30 11207 H 1066.3 1.74869 -0.85609 0
M  V30 11208 H 1064.47 3.84614 0.54098 0
M  V30 11209 H 1066.2 4.02961 0.374775 0
M  V30 11210 H 1062.96 4.45812 -1.59841 0
M  V30 11211 H 1063.38 5.44124 -4.02813 0
M  V30 11212 H 1068.02 3.93533 -1.54569 0
M  V30 11213 H 1065.74 5.86707 -5.55698 0
M  V30 11214 H 1069.33 4.62364 -3.53144 0
M  V30 11215 H 1068.21 5.57906 -5.511 0
M  V30 11216 N 1065.71 0.390394 1.52688 0
M  V30 11217 C 1066.66 -0.4591 2.28024 0
M  V30 11218 C 1067.65 -1.06212 1.31967 0
M  V30 11219 O 1068.86 -1.00247 1.49501 0
M  V30 11220 H 1065.23 -0.16681 0.733266 0
M  V30 11221 H 1067.2 0.197747 2.97744 0
M  V30 11222 C 1065.95 -1.5737 3.10048 0
M  V30 11223 H 1065.28 -1.11901 3.83821 0
M  V30 11224 H 1066.72 -2.1423 3.65898 0
M  V30 11225 C 1065.18 -2.53036 2.22429 0
M  V30 11226 O 1065.71 -3.5647 1.85181 0
M  V30 11227 N 1063.91 -2.22802 1.86567 0
M  V30 11228 H 1063.46 -1.38723 2.17057 0
M  V30 11229 H 1063.42 -2.87061 1.28233 0
M  V30 11230 N 1067.19 -1.57141 0.120249 0
M  V30 11231 C 1068.15 -2.14213 -0.815185 0
M  V30 11232 C 1069.15 -1.07731 -1.19376 0
M  V30 11233 O 1070.34 -1.33502 -1.11906 0
M  V30 11234 C 1067.47 -2.68339 -2.10255 0
M  V30 11235 H 1068.67 -2.98197 -0.319166 0
M  V30 11236 H 1066.22 -1.55767 -0.128997 0
M  V30 11237 H 1066.95 -1.87946 -2.64285 0
M  V30 11238 H 1066.74 -3.46216 -1.84057 0
M  V30 11239 H 1068.23 -3.124 -2.77121 0
M  V30 11240 N 1068.67 0.153526 -1.5685 0
M  V30 11241 C 1069.89 0.886343 -1.87507 0
M  V30 11242 C 1070.32 1.74244 -0.708565 0
M  V30 11243 O 1069.67 1.78045 0.341997 0
M  V30 11244 C 1069.72 1.72428 -3.16703 0
M  V30 11245 O 1068.83 2.82784 -3.00178 0
M  V30 11246 H 1068.17 0.247259 -0.616246 0
M  V30 11247 H 1070.7 0.146306 -2.04076 0
M  V30 11248 H 1070.71 2.12062 -3.4856 0
M  V30 11249 H 1069.38 1.09558 -4.01211 0
M  V30 11250 H 1067.96 2.46604 -2.79716 0
M  V30 11251 N 1070.14 1.51827 0.422667 0
M  V30 11252 C 1071.37 1.69049 1.1929 0
M  V30 11253 C 1071.79 0.394095 1.84641 0
M  V30 11254 O 1071.14 -0.628731 1.71328 0
M  V30 11255 C 1071.2 2.81657 2.26609 0
M  V30 11256 O 1070.92 4.06275 1.63929 0
M  V30 11257 C 1072.42 3.10274 3.16615 0
M  V30 11258 H 1069.64 0.566894 0.358988 0
M  V30 11259 H 1072.18 1.98318 0.499029 0
M  V30 11260 H 1070.34 2.54945 2.91688 0
M  V30 11261 H 1070.75 4.68924 2.3497 0
M  V30 11262 H 1072.22 3.92613 3.88019 0
M  V30 11263 H 1072.7 2.23273 3.78214 0
M  V30 11264 H 1073.31 3.387 2.57221 0
M  V30 11265 N 1071.62 -0.679052 1.4222 0
M  V30 11266 C 1073.04 -0.991665 1.25053 0
M  V30 11267 C 1073.24 -2.00928 0.151665 0
M  V30 11268 O 1072.29 -2.47925 -0.478507 0
M  V30 11269 C 1073.61 -1.50053 2.60585 0
M  V30 11270 C 1075.16 -1.61852 2.67905 0
M  V30 11271 C 1075.63 -2.16135 4.03794 0
M  V30 11272 N 1077.12 -2.23474 4.05726 0
M  V30 11273 C 1077.86 -2.66541 5.07685 0
M  V30 11274 N 1077.35 -3.09092 6.20028 0
M  V30 11275 N 1079.15 -2.66252 4.95042 0
M  V30 11276 H 1071.3 -0.00521851 2.12399 0
M  V30 11277 H 1073.56 -0.0648465 0.94578 0
M  V30 11278 H 1073.27 -0.82731 3.41831 0
M  V30 11279 H 1073.14 -2.47998 2.84213 0
M  V30 11280 H 1075.53 -2.28281 1.87008 0
M  V30 11281 H 1075.61 -0.624074 2.4807 0
M  V30 11282 H 1075.25 -1.50316 4.85147 0
M  V30 11283 H 1075.18 -3.16363 4.20978 0
M  V30 11284 H 1077.67 -1.93467 3.24621 0
M  V30 11285 H 1077.99 -3.40627 6.93681 0
M  V30 11286 H 1076.33 -3.06959 6.23539 0
M  V30 11287 H 1079.52 -2.32369 4.06352 0
M  V30 11288 H 1079.69 -2.99496 5.74636 0
M  V30 11289 N 1073.1 -1.28322 -0.914942 0
M  V30 11290 C 1074.35 -1.15407 -1.66396 0
M  V30 11291 C 1074.68 0.297587 -1.9221 0
M  V30 11292 O 1073.93 1.23299 -1.51973 0
M  V30 11293 C 1074.23 -1.89663 -3.02924 0
M  V30 11294 C 1073.9 -3.39464 -2.96774 0
M  V30 11295 C 1072.56 -3.80321 -2.94804 0
M  V30 11296 C 1074.91 -4.3499 -2.87111 0
M  V30 11297 C 1072.24 -5.15046 -2.8097 0
M  V30 11298 C 1074.59 -5.69788 -2.74818 0
M  V30 11299 C 1073.25 -6.09921 -2.71205 0
M  V30 11300 H 1072.52 -0.422303 -0.608885 0
M  V30 11301 H 1075.17 -1.59082 -1.06607 0
M  V30 11302 H 1073.48 -1.38533 -3.66491 0
M  V30 11303 H 1075.17 -1.77087 -3.59779 0
M  V30 11304 H 1071.76 -3.06979 -2.99101 0
M  V30 11305 H 1075.95 -4.04389 -2.87721 0
M  V30 11306 H 1071.2 -5.45271 -2.76568 0
M  V30 11307 H 1075.38 -6.43469 -2.66309 0
M  V30 11308 H 1073 -7.14267 -2.60243 0
M  V30 11309 N 1074.58 1.12322 -1.10551 0
M  V30 11310 C 1075.8 1.8822 -0.871093 0
M  V30 11311 C 1076.23 1.7916 0.573005 0
M  V30 11312 O 1075.59 1.14738 1.40374 0
M  V30 11313 C 1075.63 3.35349 -1.32565 0
M  V30 11314 O 1074.74 4.09461 -0.49145 0
M  V30 11315 H 1074.08 0.584787 -0.314516 0
M  V30 11316 H 1076.61 1.42039 -1.47262 0
M  V30 11317 H 1076.62 3.86189 -1.31612 0
M  V30 11318 H 1075.29 3.4126 -2.37728 0
M  V30 11319 H 1073.87 3.68575 -0.566294 0
M  V30 11320 N 1076.06 0.894434 1.2976 0
M  V30 11321 C 1077.33 0.437365 1.90648 0
M  V30 11322 C 1077.71 -1.08261 1.81226 0
M  V30 11323 O 1077.06 -1.92213 1.23557 0
M  V30 11324 C 1077.27 0.946047 3.35933 0
M  V30 11325 C 1078.62 0.986621 4.12978 0
M  V30 11326 O 1079.64 0.893356 3.44815 0
M  V30 11327 O 1078.5 1.12591 5.34776 0
M  V30 11328 H 1075.6 0.135436 0.815835 0
M  V30 11329 H 1078.14 0.983955 1.38262 0
M  V30 11330 H 1076.91 1.98998 3.3692 0
M  V30 11331 H 1076.54 0.379164 3.95788 0
M  V30 11332 N 1077.53 -1.43282 0.656365 0
M  V30 11333 C 1078.78 -2.01378 0.170702 0
M  V30 11334 C 1079.1 -1.52063 -1.22073 0
M  V30 11335 O 1078.37 -0.73456 -1.81607 0
M  V30 11336 H 1076.95 -0.744577 0.0601168 0
M  V30 11337 H 1079.62 -1.75449 0.848739 0
M  V30 11338 H 1078.71 -3.11701 0.157745 0
M  V30 11339 N 1079.01 -0.398486 -1.52479 0
M  V30 11340 C 1080.24 0.180295 -2.05812 0
M  V30 11341 C 1080.65 1.40301 -1.26934 0
M  V30 11342 O 1079.99 1.81039 -0.311544 0
M  V30 11343 C 1080.06 0.60601 -3.54355 0
M  V30 11344 C 1079.72 -0.504508 -4.54207 0
M  V30 11345 C 1080.72 -1.36478 -5.01667 0
M  V30 11346 C 1078.4 -0.674161 -4.97755 0
M  V30 11347 C 1080.4 -2.37975 -5.91309 0
M  V30 11348 C 1078.08 -1.69246 -5.87196 0
M  V30 11349 C 1079.08 -2.54367 -6.33866 0
M  V30 11350 O 1078.77 -3.54454 -7.21538 0
M  V30 11351 H 1078.5 0.0286396 -0.675393 0
M  V30 11352 H 1081.06 -0.564912 -1.97479 0
M  V30 11353 H 1079.29 1.40334 -3.60338 0
M  V30 11354 H 1080.97 1.1115 -3.90385 0
M  V30 11355 H 1081.74 -1.24506 -4.68746 0
M  V30 11356 H 1077.62 -0.0213029 -4.60995 0
M  V30 11357 H 1081.16 -3.0445 -6.27659 0
M  V30 11358 H 1077.06 -1.81252 -6.1953 0
M  V30 11359 H 1077.83 -3.50571 -7.39623 0
M  V30 11360 N 1080.49 1.57075 -0.12858 0
M  V30 11361 C 1081.91 1.57964 0.227961 0
M  V30 11362 C 1082.11 1.14186 1.66023 0
M  V30 11363 O 1081.16 0.833655 2.38341 0
M  V30 11364 C 1082.48 3.00697 -0.0140648 0
M  V30 11365 C 1084.02 3.12958 0.0510876 0
M  V30 11366 C 1084.5 4.57709 -0.163368 0
M  V30 11367 N 1085.99 4.6307 -0.109663 0
M  V30 11368 C 1086.73 5.72853 -0.250366 0
M  V30 11369 N 1086.22 6.91351 -0.447772 0
M  V30 11370 N 1088.01 5.61781 -0.189265 0
M  V30 11371 H 1080.17 1.83829 -1.06398 0
M  V30 11372 H 1082.43 0.850014 -0.419739 0
M  V30 11373 H 1082.13 3.37047 -1.00461 0
M  V30 11374 H 1082.01 3.70389 0.713571 0
M  V30 11375 H 1084.4 2.7646 1.03216 0
M  V30 11376 H 1084.48 2.4579 -0.708583 0
M  V30 11377 H 1084.12 4.94907 -1.14146 0
M  V30 11378 H 1084.05 5.2298 0.616405 0
M  V30 11379 H 1086.54 3.7788 0.0390086 0
M  V30 11380 H 1086.85 7.70871 -0.54574 0
M  V30 11381 H 1085.2 6.93314 -0.483866 0
M  V30 11382 H 1088.39 4.68086 -0.0359374 0
M  V30 11383 H 1088.56 6.47294 -0.302359 0
M  V30 11384 N 1081.97 -0.145205 1.5693 0
M  V30 11385 C 1083.22 -0.857516 1.83447 0
M  V30 11386 C 1083.54 -1.81088 0.709739 0
M  V30 11387 O 1082.8 -1.9337 -0.301097 0
M  V30 11388 C 1083.1 -1.66391 3.16305 0
M  V30 11389 C 1082.76 -0.857171 4.42678 0
M  V30 11390 C 1081.43 -0.634611 4.76997 0
M  V30 11391 C 1083.78 -0.293105 5.20375 0
M  V30 11392 C 1081.11 0.162693 5.86474 0
M  V30 11393 C 1083.46 0.491248 6.3069 0
M  V30 11394 C 1082.12 0.724368 6.63558 0
M  V30 11395 H 1081.39 -0.313787 0.671281 0
M  V30 11396 H 1084.04 -0.121074 1.91117 0
M  V30 11397 H 1082.34 -2.47051 3.04094 0
M  V30 11398 H 1084.04 -2.21855 3.34038 0
M  V30 11399 H 1080.63 -1.0407 4.15773 0
M  V30 11400 H 1084.82 -0.452326 4.94234 0
M  V30 11401 H 1080.07 0.352788 6.10381 0
M  V30 11402 H 1084.25 0.935449 6.90089 0
M  V30 11403 H 1081.87 1.34403 7.48224 0
M  V30 11404 N 1083.45 -1.52049 -0.414609 0
M  V30 11405 C 1084.7 -1.65511 -1.15977 0
M  V30 11406 C 1085.02 -0.384703 -1.91168 0
M  V30 11407 O 1084.29 0.600247 -1.86477 0
M  V30 11408 H 1082.87 -0.610039 -0.431116 0
M  V30 11409 H 1085.53 -1.8907 -0.473139 0
M  V30 11410 H 1084.62 -2.4936 -1.87686 0
M  V30 11411 N 1084.93 0.6715 -1.42579 0
M  V30 11412 C 1085.86 1.79693 -1.49107 0
M  V30 11413 C 1086.84 1.66516 -0.347338 0
M  V30 11414 O 1088.02 1.85887 -0.562094 0
M  V30 11415 C 1085.15 3.1801 -1.39596 0
M  V30 11416 C 1084.11 3.45926 -2.5203 0
M  V30 11417 C 1083.43 4.83852 -2.27577 0
M  V30 11418 C 1084.73 3.4249 -3.94333 0
M  V30 11419 H 1086.43 1.74486 -2.433 0
M  V30 11420 H 1083.97 0.838042 -1.17102 0
M  V30 11421 H 1085.92 3.96478 -1.42771 0
M  V30 11422 H 1084.65 3.23901 -0.418989 0
M  V30 11423 H 1083.31 2.6982 -2.48178 0
M  V30 11424 H 1082.96 4.86398 -1.28165 0
M  V30 11425 H 1082.66 5.03493 -3.02934 0
M  V30 11426 H 1084.18 5.646 -2.32506 0
M  V30 11427 H 1085.59 4.10922 -3.9977 0
M  V30 11428 H 1083.99 3.73666 -4.69568 0
M  V30 11429 H 1085.06 2.41002 -4.20768 0
M  V30 11430 N 1086.4 1.28806 0.908124 0
M  V30 11431 C 1087.65 1.16058 1.65454 0
M  V30 11432 C 1087.97 -0.290057 1.92831 0
M  V30 11433 O 1087.24 -1.20001 1.54843 0
M  V30 11434 H 1085.82 0.426522 0.61326 0
M  V30 11435 H 1088.48 1.61614 1.08936 0
M  V30 11436 H 1087.58 1.70437 2.61453 0
M  V30 11437 N 1087.88 -1.11734 1.11145 0
M  V30 11438 C 1088.84 -2.15868 0.770303 0
M  V30 11439 C 1089.84 -1.59438 -0.208842 0
M  V30 11440 O 1091.03 -1.74193 0.0152516 0
M  V30 11441 C 1088.17 -3.40603 0.142303 0
M  V30 11442 H 1089.36 -2.4756 1.69276 0
M  V30 11443 H 1086.91 -1.26867 0.912929 0
M  V30 11444 H 1087.65 -3.14517 -0.790526 0
M  V30 11445 H 1087.43 -3.8284 0.847087 0
M  V30 11446 H 1088.92 -4.17523 -0.0803608 0
M  V30 11447 N 1089.36 -0.901303 -1.29284 0
M  V30 11448 C 1090.27 -0.3849 -2.31421 0
M  V30 11449 C 1091.29 0.521163 -1.66012 0
M  V30 11450 O 1092.46 0.410356 -1.97175 0
M  V30 11451 C 1089.53 0.377804 -3.44635 0
M  V30 11452 C 1088.59 -0.559974 -4.25632 0
M  V30 11453 C 1087.82 0.166425 -5.3344 0
M  V30 11454 O 1088.04 1.39012 -5.53202 0
M  V30 11455 O 1086.98 -0.491875 -5.99887 0
M  V30 11456 H 1090.8 -1.2323 -2.77575 0
M  V30 11457 H 1088.39 -0.665683 -1.3375 0
M  V30 11458 H 1090.27 0.809041 -4.13561 0
M  V30 11459 H 1088.95 1.20124 -3.00586 0
M  V30 11460 H 1087.85 -1.04036 -3.59343 0
M  V30 11461 H 1089.19 -1.34987 -4.73328 0
M  V30 11462 N 1090.84 1.42931 -0.663954 0
M  V30 11463 C 1092.08 2.01982 -0.182007 0
M  V30 11464 C 1092.42 1.52323 1.20463 0
M  V30 11465 O 1091.69 0.720834 1.80649 0
M  V30 11466 C 1091.97 3.59518 -0.204671 0
M  V30 11467 C 1091.83 4.19382 -1.62599 0
M  V30 11468 C 1093.15 4.37762 0.45308 0
M  V30 11469 H 1090.27 0.733892 -0.0676115 0
M  V30 11470 H 1092.91 1.70092 -0.84668 0
M  V30 11471 H 1091.06 3.86816 0.361295 0
M  V30 11472 H 1092.73 4.03076 -2.24337 0
M  V30 11473 H 1090.97 3.75623 -2.17001 0
M  V30 11474 H 1091.64 5.28496 -1.59362 0
M  V30 11475 H 1094.12 4.1609 -0.0285774 0
M  V30 11476 H 1093 5.47392 0.406538 0
M  V30 11477 H 1093.26 4.1482 1.52895 0
M  V30 11478 N 1092.32 0.406567 1.52266 0
M  V30 11479 C 1093.56 -0.169717 2.01386 0
M  V30 11480 C 1093.88 -1.45864 1.29417 0
M  V30 11481 O 1093.15 -1.9136 0.419327 0
M  V30 11482 H 1091.73 -0.0657075 0.744105 0
M  V30 11483 H 1094.4 0.542221 1.87206 0
M  V30 11484 H 1093.49 -0.367659 3.09927 0
M  V30 11485 N 1093.79 -1.57004 0.136909 0
M  V30 11486 C 1095.04 -1.94972 -0.51662 0
M  V30 11487 C 1095.36 -1.02367 -1.66674 0
M  V30 11488 O 1096.56 -1.29873 -2.38423 0
M  V30 11489 C 1095.02 -3.4657 -0.970435 0
M  V30 11490 C 1094.63 -4.47741 0.152204 0
M  V30 11491 C 1096.37 -3.93423 -1.59432 0
M  V30 11492 C 1094.28 -5.90537 -0.319315 0
M  V30 11493 H 1093.21 -0.727873 -0.196766 0
M  V30 11494 H 1095.86 -1.82181 0.219637 0
M  V30 11495 H 1094.24 -3.54657 -1.76165 0
M  V30 11496 H 1095.41 -4.5134 0.928925 0
M  V30 11497 H 1093.73 -4.10746 0.683867 0
M  V30 11498 H 1096.33 -4.97539 -1.95856 0
M  V30 11499 H 1096.67 -3.34404 -2.47951 0
M  V30 11500 H 1097.2 -3.8821 -0.868193 0
M  V30 11501 H 1093.94 -6.53352 0.530248 0
M  V30 11502 H 1093.46 -5.90321 -1.06213 0
M  V30 11503 H 1095.14 -6.42346 -0.774662 0
M  V30 11504 N 1095.27 0.136881 -1.57004 0
M  V30 11505 C 1096.5 0.866405 -1.88436 0
M  V30 11506 C 1096.92 1.73483 -0.727006 0
M  V30 11507 O 1096.28 1.78398 0.323094 0
M  V30 11508 C 1096.33 1.69059 -3.18514 0
M  V30 11509 O 1095.43 2.79584 -3.03161 0
M  V30 11510 H 1094.77 0.240709 -0.618834 0
M  V30 11511 H 1097.3 0.124653 -2.0422 0
M  V30 11512 H 1097.31 2.08353 -3.50789 0
M  V30 11513 H 1095.99 1.05296 -4.0235 0
M  V30 11514 H 1094.57 2.43623 -2.82315 0
M  V30 11515 N 1096.75 1.52266 0.40654 0
M  V30 11516 C 1097.98 1.70304 1.17491 0
M  V30 11517 C 1098.39 0.413656 1.84213 0
M  V30 11518 O 1097.75 -0.610524 1.71985 0
M  V30 11519 C 1097.8 2.84045 2.23609 0
M  V30 11520 O 1097.52 4.0799 1.5961 0
M  V30 11521 C 1099.02 3.13614 3.13306 0
M  V30 11522 H 1096.24 0.570669 0.352955 0
M  V30 11523 H 1098.79 1.98836 0.477967 0
M  V30 11524 H 1096.94 2.58025 2.88967 0
M  V30 11525 H 1097.36 4.7139 2.29983 0
M  V30 11526 H 1098.83 3.96707 3.83833 0
M  V30 11527 H 1099.31 2.27272 3.75824 0
M  V30 11528 H 1099.91 3.41409 2.53614 0
M  V30 11529 N 1098.23 -0.663929 1.42933 0
M  V30 11530 C 1099.45 -1.45691 1.47611 0
M  V30 11531 C 1099.88 -1.87875 0.0920305 0
M  V30 11532 O 1099.24 -1.56696 -0.91192 0
M  V30 11533 C 1099.28 -2.67517 2.41799 0
M  V30 11534 O 1098.39 -3.66187 1.89686 0
M  V30 11535 H 1097.73 -0.437257 0.499702 0
M  V30 11536 H 1100.26 -0.813397 1.87737 0
M  V30 11537 H 1100.27 -3.1546 2.58745 0
M  V30 11538 H 1098.94 -2.36155 3.4235 0
M  V30 11539 H 1097.52 -3.25274 1.82349 0
M  V30 11540 N 1099.71 -1.29285 -0.901281 0
M  V30 11541 C 1101.12 -1.07263 -1.18182 0
M  V30 11542 C 1101.32 0.177087 -2.0072 0
M  V30 11543 O 1100.38 0.875292 -2.36844 0
M  V30 11544 C 1101.69 -2.32717 -1.9043 0
M  V30 11545 C 1103.24 -2.3802 -2.03262 0
M  V30 11546 C 1103.71 -3.63273 -2.7892 0
M  V30 11547 N 1105.21 -3.63986 -2.86475 0
M  V30 11548 C 1105.94 -4.57585 -3.45549 0
M  V30 11549 N 1105.44 -5.61513 -4.05801 0
M  V30 11550 N 1107.23 -4.45157 -3.43208 0
M  V30 11551 H 1099.38 -2.09487 -0.350536 0
M  V30 11552 H 1101.64 -0.922647 -0.217778 0
M  V30 11553 H 1101.35 -3.23828 -1.37216 0
M  V30 11554 H 1101.22 -2.40102 -2.90913 0
M  V30 11555 H 1103.61 -1.47398 -2.55652 0
M  V30 11556 H 1103.69 -2.3462 -1.01916 0
M  V30 11557 H 1103.34 -4.54246 -2.27206 0
M  V30 11558 H 1103.27 -3.6393 -3.80608 0
M  V30 11559 H 1105.76 -2.8884 -2.43679 0
M  V30 11560 H 1106.07 -6.29058 -4.48894 0
M  V30 11561 H 1104.41 -5.65325 -4.04268 0
M  V30 11562 H 1107.61 -3.63158 -2.95354 0
M  V30 11563 H 1107.78 -5.18286 -3.88952 0
M  V30 11564 N 1101.18 1.11143 -1.11736 0
M  V30 11565 C 1102.43 1.82311 -0.862875 0
M  V30 11566 C 1102.75 1.85735 0.613326 0
M  V30 11567 O 1103.95 2.53034 0.984168 0
M  V30 11568 C 1102.41 3.27427 -1.49396 0
M  V30 11569 C 1102.02 3.32323 -3.00443 0
M  V30 11570 C 1103.76 4.03474 -1.31944 0
M  V30 11571 C 1101.67 4.71855 -3.56521 0
M  V30 11572 H 1100.6 0.683124 -0.31915 0
M  V30 11573 H 1103.25 1.25045 -1.34298 0
M  V30 11574 H 1101.63 3.84644 -0.941528 0
M  V30 11575 H 1102.8 2.84971 -3.62117 0
M  V30 11576 H 1101.12 2.69758 -3.17206 0
M  V30 11577 H 1103.72 5.06528 -1.71271 0
M  V30 11578 H 1104.06 4.15473 -0.262339 0
M  V30 11579 H 1104.59 3.52652 -1.84069 0
M  V30 11580 H 1101.33 4.65054 -4.61958 0
M  V30 11581 H 1100.85 5.19604 -2.99619 0
M  V30 11582 H 1102.53 5.40816 -3.55144 0
M  V30 11583 N 1102.66 0.908147 1.28804 0
M  V30 11584 C 1103.61 0.363504 2.25084 0
M  V30 11585 C 1104.6 -0.52121 1.52224 0
M  V30 11586 O 1105.79 -0.361848 1.73262 0
M  V30 11587 C 1102.92 -0.400353 3.40958 0
M  V30 11588 C 1102 0.499761 4.21145 0
M  V30 11589 N 1102.39 1.61082 4.79464 0
M  V30 11590 C 1100.69 0.299108 4.44996 0
M  V30 11591 C 1101.39 2.16906 5.39747 0
M  V30 11592 N 1100.37 1.46103 5.23598 0
M  V30 11593 H 1104.17 1.21212 2.6774 0
M  V30 11594 H 1101.69 0.760159 1.43511 0
M  V30 11595 H 1103.68 -0.807343 4.09008 0
M  V30 11596 H 1102.34 -1.24613 2.99836 0
M  V30 11597 H 1103.35 1.99347 4.77997 0
M  V30 11598 H 1100.03 -0.507611 4.14403 0
M  V30 11599 H 1101.42 3.10338 5.95936 0
M  V30 11600 N 1104.14 -1.42577 0.671525 0
M  V30 11601 C 1105.1 -2.292 0.000392482 0
M  V30 11602 C 1106.1 -1.43158 -0.732294 0
M  V30 11603 O 1107.29 -1.64583 -0.570789 0
M  V30 11604 C 1104.43 -3.25591 -1.01013 0
M  V30 11605 H 1105.62 -2.90037 0.762783 0
M  V30 11606 H 1103.17 -1.50162 0.433703 0
M  V30 11607 H 1103.91 -2.69685 -1.80112 0
M  V30 11608 H 1103.69 -3.89049 -0.488183 0
M  V30 11609 H 1105.18 -3.90561 -1.47824 0
M  V30 11610 N 1105.62 -0.414636 -1.52048 0
M  V30 11611 C 1107.03 -0.0657806 -1.59464 0
M  V30 11612 C 1107.23 1.4225 -1.42713 0
M  V30 11613 O 1106.29 2.18996 -1.25687 0
M  V30 11614 C 1107.6 -0.565618 -2.95332 0
M  V30 11615 C 1109.15 -0.524072 -3.08581 0
M  V30 11616 C 1109.63 -1.00051 -4.46938 0
M  V30 11617 N 1111.12 -0.957555 -4.53194 0
M  V30 11618 C 1111.85 -1.29733 -5.58531 0
M  V30 11619 N 1111.35 -1.70883 -6.71395 0
M  V30 11620 N 1113.14 -1.21694 -5.48769 0
M  V30 11621 H 1105.29 -1.38325 -1.61183 0
M  V30 11622 H 1107.56 -0.568593 -0.758556 0
M  V30 11623 H 1107.26 -1.60604 -3.12888 0
M  V30 11624 H 1107.14 0.0217735 -3.77194 0
M  V30 11625 H 1109.52 0.507319 -2.90707 0
M  V30 11626 H 1109.6 -1.14759 -2.28613 0
M  V30 11627 H 1109.25 -2.03025 -4.65557 0
M  V30 11628 H 1109.18 -0.353754 -5.2541 0
M  V30 11629 H 1111.67 -0.65508 -3.72179 0
M  V30 11630 H 1111.98 -1.95105 -7.47766 0
M  V30 11631 H 1110.33 -1.74791 -6.72661 0
M  V30 11632 H 1113.52 -0.894286 -4.59478 0
M  V30 11633 H 1113.69 -1.48504 -6.30754 0
M  V30 11634 N 1107.1 1.56929 -0.145233 0
M  V30 11635 C 1108.34 1.95681 0.50532 0
M  V30 11636 C 1108.67 1.03098 1.65516 0
M  V30 11637 O 1107.94 0.0921961 1.95683 0
M  V30 11638 H 1106.52 0.72252 0.189668 0
M  V30 11639 H 1109.18 1.93651 -0.220318 0
M  V30 11640 H 1108.27 2.99359 0.882631 0
M  V30 11641 N 1108.58 -0.128553 1.57075 0
M  V30 11642 C 1109.99 -0.686713 1.73612 0
M  V30 11643 C 1110.34 -1.80778 0.762478 0
M  V30 11644 O 1109.46 -2.16297 -0.0667779 0
M  V30 11645 C 1110.06 -1.25246 3.148 0
M  V30 11646 C 1108.62 -1.757 3.32876 0
M  V30 11647 C 1107.76 -0.652844 2.69506 0
M  V30 11648 H 1110.71 0.0972859 1.58402 0
M  V30 11649 H 1110.74 -2.1222 3.15821 0
M  V30 11650 H 1110.25 -0.436308 3.8564 0
M  V30 11651 H 1108.35 -2.59824 2.67063 0
M  V30 11652 H 1108.46 -1.87302 4.4097 0
M  V30 11653 H 1106.83 -1.08408 2.30477 0
M  V30 11654 H 1107.61 0.15217 3.42963 0
M  V30 11655 N 1110.05 -1.5248 -0.398459 0
M  V30 11656 C 1111.3 -1.67309 -1.1461 0
M  V30 11657 C 1111.63 -0.407095 -1.89885 0
M  V30 11658 O 1110.91 0.594834 -1.85181 0
M  V30 11659 C 1111.19 -2.90204 -2.13198 0
M  V30 11660 C 1111.04 -4.26881 -1.4175 0
M  V30 11661 C 1112.36 -3.08634 -3.13741 0
M  V30 11662 H 1109.48 -0.608853 -0.415292 0
M  V30 11663 H 1112.12 -1.85057 -0.430573 0
M  V30 11664 H 1110.27 -2.75204 -2.74218 0
M  V30 11665 H 1111.95 -4.53631 -0.837676 0
M  V30 11666 H 1110.19 -4.27793 -0.719387 0
M  V30 11667 H 1110.86 -5.08939 -2.1374 0
M  V30 11668 H 1113.34 -3.22603 -2.62805 0
M  V30 11669 H 1112.21 -3.96117 -3.79977 0
M  V30 11670 H 1112.47 -2.22425 -3.82073 0
M  V30 11671 N 1111.53 0.65634 -1.43283 0
M  V30 11672 C 1112.78 1.41347 -1.44449 0
M  V30 11673 C 1113.1 1.94879 -0.0687217 0
M  V30 11674 O 1112.37 1.74235 0.895492 0
M  V30 11675 H 1110.95 0.524578 -0.531815 0
M  V30 11676 H 1113.61 0.774292 -1.7886 0
M  V30 11677 H 1112.71 2.25737 -2.15521 0
M  V30 11678 N 1113.01 1.29761 0.894412 0
M  V30 11679 C 1113.94 1.17902 2.01547 0
M  V30 11680 C 1114.92 0.0719402 1.69948 0
M  V30 11681 O 1116.11 0.252338 1.92554 0
M  V30 11682 C 1113.24 0.860262 3.36477 0
M  V30 11683 C 1112.19 1.92424 3.82305 0
M  V30 11684 C 1111.52 1.45868 5.14419 0
M  V30 11685 C 1112.82 3.33391 4.02054 0
M  V30 11686 H 1114.51 2.11688 2.11727 0
M  V30 11687 H 1112.06 1.01916 1.01731 0
M  V30 11688 H 1114.01 0.763987 4.14417 0
M  V30 11689 H 1112.73 -0.113289 3.26403 0
M  V30 11690 H 1111.39 2.00999 3.06586 0
M  V30 11691 H 1111.04 0.473654 5.00765 0
M  V30 11692 H 1110.74 2.17028 5.46052 0
M  V30 11693 H 1112.26 1.37601 5.94894 0
M  V30 11694 H 1113.68 3.27628 4.7046 0
M  V30 11695 H 1112.07 4.02555 4.4505 0
M  V30 11696 H 1113.14 3.75978 3.06216 0
M  V30 11697 N 1114.49 -1.10549 1.12324 0
M  V30 11698 C 1115.4 -2.20428 0.803032 0
M  V30 11699 C 1116.41 -1.72756 -0.207674 0
M  V30 11700 O 1117.59 -2.01357 -0.0415623 0
M  V30 11701 C 1114.65 -3.45716 0.261032 0
M  V30 11702 C 1113.72 -4.08129 1.33152 0
M  V30 11703 C 1112.95 -5.27436 0.815288 0
M  V30 11704 O 1113.17 -5.69317 -0.351361 0
M  V30 11705 O 1112.11 -5.80674 1.58434 0
M  V30 11706 H 1115.93 -2.50249 1.72073 0
M  V30 11707 H 1113.52 -1.19263 0.899815 0
M  V30 11708 H 1115.4 -4.21384 -0.0364007 0
M  V30 11709 H 1114.07 -3.17525 -0.629249 0
M  V30 11710 H 1112.98 -3.3415 1.6821 0
M  V30 11711 H 1114.31 -4.4052 2.19552 0
M  V30 11712 N 1115.97 -0.914965 -1.28321 0
M  V30 11713 C 1117.21 -0.547665 -1.94538 0
M  V30 11714 C 1117.53 0.911834 -1.72368 0
M  V30 11715 O 1116.8 1.64481 -1.06408 0
M  V30 11716 H 1115.38 -0.199549 -0.719853 0
M  V30 11717 H 1118.05 -1.16459 -1.5628 0
M  V30 11718 H 1117.14 -0.743138 -3.03124 0
M  V30 11719 N 1117.44 1.42219 -0.679077 0
M  V30 11720 C 1118.37 2.33493 -0.0174528 0
M  V30 11721 C 1119.35 1.50915 0.78477 0
M  V30 11722 O 1120.54 1.79504 0.741065 0
M  V30 11723 C 1117.67 3.34576 0.931463 0
M  V30 11724 C 1116.62 4.2734 0.237527 0
M  V30 11725 C 1115.95 5.18664 1.29967 0
M  V30 11726 C 1117.25 5.14729 -0.886082 0
M  V30 11727 H 1118.94 2.89068 -0.779748 0
M  V30 11728 H 1116.49 1.38993 -0.376419 0
M  V30 11729 H 1118.44 3.97343 1.40343 0
M  V30 11730 H 1117.17 2.77315 1.72523 0
M  V30 11731 H 1115.83 3.65973 -0.214245 0
M  V30 11732 H 1115.47 4.57727 2.08554 0
M  V30 11733 H 1115.17 5.81558 0.840463 0
M  V30 11734 H 1116.7 5.84308 1.77249 0
M  V30 11735 H 1118.11 5.71158 -0.495141 0
M  V30 11736 H 1116.51 5.86478 -1.27135 0
M  V30 11737 H 1117.58 4.52874 -1.733 0
M  V30 11738 N 1118.92 0.422693 1.51826 0
M  V30 11739 C 1119.85 -0.386913 2.30272 0
M  V30 11740 C 1120.83 -1.03411 1.35056 0
M  V30 11741 O 1122.02 -1.04055 1.6397 0
M  V30 11742 C 1119.15 -1.49645 3.13407 0
M  V30 11743 C 1118.1 -0.973532 4.16781 0
M  V30 11744 C 1117.43 -2.1777 4.88344 0
M  V30 11745 C 1118.73 -0.0181194 5.22297 0
M  V30 11746 H 1120.42 0.267697 2.98201 0
M  V30 11747 H 1117.97 0.130186 1.4341 0
M  V30 11748 H 1119.92 -2.06993 3.67059 0
M  V30 11749 H 1118.64 -2.17914 2.43272 0
M  V30 11750 H 1117.3 -0.42237 3.64159 0
M  V30 11751 H 1116.95 -2.84625 4.14726 0
M  V30 11752 H 1116.65 -1.83427 5.58237 0
M  V30 11753 H 1118.18 -2.75699 5.44814 0
M  V30 11754 H 1119.59 -0.500822 5.71108 0
M  V30 11755 H 1117.99 0.237163 5.99631 0
M  V30 11756 H 1119.06 0.923065 4.76033 0
M  V30 11757 N 1120.4 -1.5685 0.153553 0
M  V30 11758 C 1121.63 -2.00701 -0.502678 0
M  V30 11759 C 1122.04 -1.0337 -1.57988 0
M  V30 11760 O 1121.4 -0.0317233 -1.82472 0
M  V30 11761 C 1121.45 -3.44443 -1.09732 0
M  V30 11762 O 1121.17 -4.38054 -0.0631405 0
M  V30 11763 C 1122.67 -4.03605 -1.83352 0
M  V30 11764 H 1119.89 -0.658229 -0.130289 0
M  V30 11765 H 1122.44 -2.02965 0.250063 0
M  V30 11766 H 1120.59 -3.43009 -1.80065 0
M  V30 11767 H 1121.01 -5.22114 -0.499681 0
M  V30 11768 H 1122.48 -5.0616 -2.20241 0
M  V30 11769 H 1122.96 -3.44687 -2.7219 0
M  V30 11770 H 1123.56 -4.08688 -1.17703 0
M  V30 11771 N 1121.88 0.120221 -1.57141 0
M  V30 11772 C 1123.11 0.842441 -1.88972 0
M  V30 11773 C 1123.52 1.73494 -0.744671 0
M  V30 11774 O 1122.88 1.80268 0.284557 0
M  V30 11775 C 1122.93 1.67688 -3.20254 0
M  V30 11776 O 1122.65 0.820319 -4.30351 0
M  V30 11777 C 1124.15 2.50436 -3.65782 0
M  V30 11778 H 1121.37 0.242241 -0.625748 0
M  V30 11779 H 1123.91 0.104978 -2.0423 0
M  V30 11780 H 1122.07 2.36712 -3.0667 0
M  V30 11781 H 1122.48 1.39575 -5.05588 0
M  V30 11782 H 1123.96 3.04518 -4.60405 0
M  V30 11783 H 1124.43 3.27737 -2.92378 0
M  V30 11784 H 1125.04 1.86657 -3.82151 0
M  V30 11785 N 1123.36 1.52689 0.390367 0
M  V30 11786 C 1124.3 1.7737 1.47677 0
M  V30 11787 C 1125.27 0.616864 1.54221 0
M  V30 11788 O 1126.46 0.856437 1.70499 0
M  V30 11789 C 1123.6 1.94715 2.84921 0
M  V30 11790 C 1122.71 3.22405 2.8754 0
M  V30 11791 C 1121.85 3.30074 4.16202 0
M  V30 11792 C 1120.89 4.51893 4.12867 0
M  V30 11793 N 1120.02 4.56851 5.33134 0
M  V30 11794 H 1124.86 2.70084 1.25932 0
M  V30 11795 H 1122.4 1.33813 0.610943 0
M  V30 11796 H 1124.36 2.02755 3.64618 0
M  V30 11797 H 1122.99 1.05363 3.0512 0
M  V30 11798 H 1122.04 3.23442 2.00223 0
M  V30 11799 H 1123.35 4.12156 2.80943 0
M  V30 11800 H 1122.51 3.3729 5.04302 0
M  V30 11801 H 1121.24 2.38295 4.25519 0
M  V30 11802 H 1120.25 4.44803 3.23156 0
M  V30 11803 H 1121.47 5.44987 4.05174 0
M  V30 11804 H 1119.42 3.67963 5.43083 0
M  V30 11805 H 1119.34 5.40472 5.28607 0
M  V30 11806 H 1120.61 4.6832 6.23134 0
M  V30 11807 N 1124.83 -0.648732 1.43629 0
M  V30 11808 C 1126.08 -1.40898 1.46695 0
M  V30 11809 C 1126.44 -1.92183 0.0914565 0
M  V30 11810 O 1125.73 -1.69642 -0.890623 0
M  V30 11811 C 1125.92 -2.60394 2.44806 0
M  V30 11812 C 1125.75 -2.20805 3.91759 0
M  V30 11813 C 1124.52 -2.08918 4.60088 0
M  V30 11814 C 1126.72 -1.80811 4.81469 0
M  V30 11815 N 1124.7 -1.62707 5.91946 0
M  V30 11816 C 1126.07 -1.45715 6.02633 0
M  V30 11817 C 1128.13 -1.68034 4.68689 0
M  V30 11818 C 1126.83 -0.991224 7.12438 0
M  V30 11819 C 1128.86 -1.22846 5.78501 0
M  V30 11820 C 1128.22 -0.886902 6.98794 0
M  V30 11821 H 1124.32 -0.511063 0.591894 0
M  V30 11822 H 1126.9 -0.746064 1.79839 0
M  V30 11823 H 1125.07 -3.24338 2.13681 0
M  V30 11824 H 1126.8 -3.27115 2.38281 0
M  V30 11825 H 1123.56 -2.28818 4.14656 0
M  V30 11826 H 1123.98 -1.41951 6.61951 0
M  V30 11827 H 1128.63 -1.93078 3.76139 0
M  V30 11828 H 1126.34 -0.728271 8.04812 0
M  V30 11829 H 1129.93 -1.13443 5.70633 0
M  V30 11830 H 1128.81 -0.542577 7.82321 0
M  V30 11831 N 1126.31 -1.30234 -0.887518 0
M  V30 11832 C 1127.24 -1.18969 -2.00919 0
M  V30 11833 C 1128.22 -0.080952 -1.69907 0
M  V30 11834 O 1129.41 -0.262546 -1.92417 0
M  V30 11835 C 1126.54 -0.878094 -3.36016 0
M  V30 11836 C 1125.49 -1.94449 -3.81279 0
M  V30 11837 C 1124.82 -1.48594 -5.13638 0
M  V30 11838 C 1126.12 -3.35519 -4.00281 0
M  V30 11839 H 1127.81 -2.12808 -2.10602 0
M  V30 11840 H 1125.36 -1.02454 -1.01189 0
M  V30 11841 H 1127.31 -0.785954 -4.14006 0
M  V30 11842 H 1126.04 0.0959779 -3.26459 0
M  V30 11843 H 1124.69 -2.02622 -3.05516 0
M  V30 11844 H 1124.34 -0.500204 -5.00507 0
M  V30 11845 H 1124.04 -2.19921 -5.44893 0
M  V30 11846 H 1125.57 -1.40754 -5.94156 0
M  V30 11847 H 1126.98 -3.30119 -4.68716 0
M  V30 11848 H 1125.38 -4.0491 -4.42909 0
M  V30 11849 H 1126.45 -3.77597 -3.04218 0
M  V30 11850 N 1127.79 1.09952 -1.12909 0
M  V30 11851 C 1128.72 2.18477 -0.824014 0
M  V30 11852 C 1129.7 1.68744 0.214324 0
M  V30 11853 O 1130.89 1.94057 0.0744281 0
M  V30 11854 C 1128.02 3.46143 -0.283308 0
M  V30 11855 C 1126.97 4.09178 -1.25528 0
M  V30 11856 C 1126.3 5.31604 -0.574574 0
M  V30 11857 C 1127.6 4.52308 -2.6118 0
M  V30 11858 H 1129.29 2.44254 -1.73148 0
M  V30 11859 H 1126.84 1.17394 -0.833952 0
M  V30 11860 H 1128.79 4.21361 -0.057583 0
M  V30 11861 H 1127.51 3.19872 0.659525 0
M  V30 11862 H 1126.17 3.35973 -1.4669 0
M  V30 11863 H 1125.82 5.01611 0.37356 0
M  V30 11864 H 1125.52 5.74732 -1.22299 0
M  V30 11865 H 1127.04 6.0955 -0.358004 0
M  V30 11866 H 1128.46 5.18776 -2.44017 0
M  V30 11867 H 1126.86 5.06302 -3.22147 0
M  V30 11868 H 1127.93 3.64977 -3.19249 0
M  V30 11869 N 1129.27 0.921757 1.27833 0
M  V30 11870 C 1130.68 0.621102 1.47019 0
M  V30 11871 C 1130.88 -0.831338 1.83551 0
M  V30 11872 O 1129.94 -1.60974 1.94534 0
M  V30 11873 C 1131.25 1.56588 2.56712 0
M  V30 11874 C 1132.8 1.57346 2.70576 0
M  V30 11875 C 1133.28 2.50505 3.8342 0
M  V30 11876 N 1134.77 2.48678 3.90786 0
M  V30 11877 C 1135.5 3.17454 4.77505 0
M  V30 11878 N 1135 3.95588 5.68755 0
M  V30 11879 N 1136.79 3.06501 4.71183 0
M  V30 11880 H 1128.94 1.86085 1.02403 0
M  V30 11881 H 1131.21 0.798595 0.510833 0
M  V30 11882 H 1130.91 2.60175 2.36647 0
M  V30 11883 H 1130.79 1.30305 3.53978 0
M  V30 11884 H 1133.17 0.544919 2.90025 0
M  V30 11885 H 1133.25 1.87675 1.73815 0
M  V30 11886 H 1132.9 3.53466 3.64725 0
M  V30 11887 H 1132.83 2.17474 4.79596 0
M  V30 11888 H 1135.32 1.91928 3.25534 0
M  V30 11889 H 1135.63 4.45066 6.31772 0
M  V30 11890 H 1133.98 3.99692 5.6857 0
M  V30 11891 H 1137.17 2.44958 3.9889 0
M  V30 11892 H 1137.34 3.60372 5.3855 0
M  V30 11893 N 1130.75 -1.41857 0.686609 0
M  V30 11894 C 1131.99 -2.0097 0.213378 0
M  V30 11895 C 1132.32 -1.54618 -1.1882 0
M  V30 11896 O 1131.59 -0.772916 -1.80008 0
M  V30 11897 H 1130.17 -0.743134 0.0758968 0
M  V30 11898 H 1132.83 -1.73609 0.885763 0
M  V30 11899 H 1131.92 -3.11296 0.223826 0
M  V30 11900 N 1132.22 -0.430739 -1.51599 0
M  V30 11901 C 1133.17 0.384024 -2.27583 0
M  V30 11902 C 1134.14 1.02254 -1.30895 0
M  V30 11903 O 1135.33 1.0427 -1.59789 0
M  V30 11904 C 1132.47 1.48291 -3.11615 0
M  V30 11905 C 1131.58 0.863187 -4.23288 0
M  V30 11906 C 1130.71 1.93657 -4.94642 0
M  V30 11907 C 1129.75 1.29493 -5.98246 0
M  V30 11908 N 1128.89 2.30939 -6.63032 0
M  V30 11909 H 1133.73 -0.270314 -2.96771 0
M  V30 11910 H 1131.27 -0.145148 -1.46382 0
M  V30 11911 H 1133.23 2.13124 -3.58656 0
M  V30 11912 H 1131.86 2.10697 -2.44554 0
M  V30 11913 H 1130.91 0.103326 -3.8026 0
M  V30 11914 H 1132.22 0.354676 -4.97537 0
M  V30 11915 H 1131.37 2.66167 -5.45197 0
M  V30 11916 H 1130.11 2.4788 -4.20008 0
M  V30 11917 H 1129.12 0.555262 -5.46989 0
M  V30 11918 H 1130.34 0.760122 -6.74833 0
M  V30 11919 H 1128.29 2.84254 -5.91216 0
M  V30 11920 H 1128.21 1.84961 -7.33025 0
M  V30 11921 H 1129.47 3.02953 -7.1822 0
M  V30 11922 N 1133.7 1.56767 -0.161869 0
M  V30 11923 C 1134.98 1.88245 0.531352 0
M  V30 11924 C 1135.36 1.07025 1.81958 0
M  V30 11925 O 1134.71 0.161385 2.27929 0
M  V30 11926 C 1134.92 3.40117 0.782416 0
M  V30 11927 C 1136.27 4.09655 1.11661 0
M  V30 11928 O 1137.29 3.4538 0.871274 0
M  V30 11929 O 1136.15 5.23192 1.57901 0
M  V30 11930 H 1133.24 0.780725 0.272759 0
M  V30 11931 H 1135.79 1.68522 -0.199597 0
M  V30 11932 H 1134.56 3.91088 -0.128677 0
M  V30 11933 H 1134.18 3.65418 1.56702 0
M  V30 11934 N 1135.18 -0.111886 1.57202 0
M  V30 11935 C 1136.13 -1.14287 1.97288 0
M  V30 11936 C 1137.11 -1.36686 0.848868 0
M  V30 11937 O 1138.31 -1.37659 1.11261 0
M  V30 11938 C 1135.44 -2.46759 2.38673 0
M  V30 11939 C 1134.52 -2.27805 3.57723 0
M  V30 11940 N 1134.91 -1.78679 4.73189 0
M  V30 11941 C 1133.21 -2.58435 3.63494 0
M  V30 11942 C 1133.91 -1.736 5.55192 0
M  V30 11943 N 1132.89 -2.18205 4.97883 0
M  V30 11944 H 1136.69 -0.755711 2.84018 0
M  V30 11945 H 1134.2 -0.31954 1.59225 0
M  V30 11946 H 1136.2 -3.21335 2.65611 0
M  V30 11947 H 1134.86 -2.86227 1.53311 0
M  V30 11948 H 1135.87 -1.48121 4.96267 0
M  V30 11949 H 1132.55 -3.0154 2.88755 0
M  V30 11950 H 1133.94 -1.36812 6.57824 0
M  V30 11951 N 1136.66 -1.52894 -0.382264 0
M  V30 11952 C 1137.9 -1.68515 -1.12829 0
M  V30 11953 C 1138.24 -0.427211 -1.89443 0
M  V30 11954 O 1137.51 0.57516 -1.85801 0
M  V30 11955 C 1137.8 -2.92449 -2.10108 0
M  V30 11956 C 1137.65 -4.2836 -1.37214 0
M  V30 11957 C 1138.97 -3.11944 -3.1045 0
M  V30 11958 H 1136.09 -0.613223 -0.408811 0
M  V30 11959 H 1138.73 -1.85503 -0.410921 0
M  V30 11960 H 1136.88 -2.78097 -2.71283 0
M  V30 11961 H 1138.55 -4.54493 -0.789516 0
M  V30 11962 H 1136.79 -4.28532 -0.673973 0
M  V30 11963 H 1137.46 -5.11178 -2.0833 0
M  V30 11964 H 1139.94 -3.25372 -2.59369 0
M  V30 11965 H 1138.82 -4.00125 -3.75754 0
M  V30 11966 H 1139.08 -2.26465 -3.79692 0
M  V30 11967 N 1138.14 0.641106 -1.43971 0
M  V30 11968 C 1139.38 1.40291 -1.46445 0
M  V30 11969 C 1139.72 1.93978 -0.0929004 0
M  V30 11970 O 1138.99 1.73043 0.888043 0
M  V30 11971 C 1139.27 2.57551 -2.51673 0
M  V30 11972 C 1139.13 2.09279 -3.98149 0
M  V30 11973 C 1140.45 3.59752 -2.53508 0
M  V30 11974 H 1137.57 0.508771 -0.533218 0
M  V30 11975 H 1140.21 0.725767 -1.75592 0
M  V30 11976 H 1138.36 3.15319 -2.2695 0
M  V30 11977 H 1140.03 1.56418 -4.33971 0
M  V30 11978 H 1138.27 1.40545 -4.10402 0
M  V30 11979 H 1138.94 2.93655 -4.67409 0
M  V30 11980 H 1141.42 3.11766 -2.75574 0
M  V30 11981 H 1140.3 4.39332 -3.29057 0
M  V30 11982 H 1140.56 4.13156 -1.57335 0
M  V30 11983 N 1139.62 1.30703 0.880598 0
M  V30 11984 C 1140.84 1.22843 1.67106 0
M  V30 11985 C 1141.27 -0.204788 1.86982 0
M  V30 11986 O 1140.62 -1.14716 1.40392 0
M  V30 11987 C 1140.67 1.96685 3.02237 0
M  V30 11988 O 1139.78 1.29693 3.91476 0
M  V30 11989 H 1139.12 0.424661 0.51045 0
M  V30 11990 H 1141.65 1.72596 1.09871 0
M  V30 11991 H 1141.66 2.05874 3.52249 0
M  V30 11992 H 1140.33 3.00919 2.8709 0
M  V30 11993 H 1138.91 1.28886 3.49918 0
M  V30 11994 N 1141.09 -1.09351 1.1349 0
M  V30 11995 C 1142.37 -1.78121 0.808225 0
M  V30 11996 C 1142.75 -1.99154 -0.700072 0
M  V30 11997 O 1142.1 -1.59356 -1.63762 0
M  V30 11998 C 1142.31 -3.10368 1.59601 0
M  V30 11999 C 1143.66 -3.85063 1.78919 0
M  V30 12000 O 1144.68 -3.20122 1.56206 0
M  V30 12001 O 1143.54 -5.01648 2.16821 0
M  V30 12002 H 1140.63 -0.77253 0.295173 0
M  V30 12003 H 1143.18 -1.15901 1.23956 0
M  V30 12004 H 1141.95 -2.90549 2.62101 0
M  V30 12005 H 1141.57 -3.80312 1.15967 0
M  V30 12006 N 1142.57 -0.928524 -1.27343 0
M  V30 12007 C 1143.82 -0.569392 -1.9433 0
M  V30 12008 C 1144.15 0.889481 -1.7297 0
M  V30 12009 O 1143.4 1.6499 -1.05247 0
M  V30 12010 C 1143.7 -0.84269 -3.47323 0
M  V30 12011 C 1143.37 -2.28344 -3.88806 0
M  V30 12012 C 1142.03 -2.67731 -3.99842 0
M  V30 12013 C 1144.38 -3.22031 -4.09811 0
M  V30 12014 C 1141.71 -3.99928 -4.29272 0
M  V30 12015 C 1144.06 -4.5381 -4.40725 0
M  V30 12016 C 1142.72 -4.93031 -4.49975 0
M  V30 12017 H 1141.99 -0.208355 -0.711104 0
M  V30 12018 H 1144.64 -1.17264 -1.51398 0
M  V30 12019 H 1142.95 -0.156775 -3.91486 0
M  V30 12020 H 1144.64 -0.543779 -3.97296 0
M  V30 12021 H 1141.23 -1.96787 -3.80753 0
M  V30 12022 H 1145.42 -2.92803 -4.00724 0
M  V30 12023 H 1140.67 -4.29996 -4.34642 0
M  V30 12024 H 1144.85 -5.26407 -4.55926 0
M  V30 12025 H 1142.47 -5.95497 -4.72533 0
M  V30 12026 N 1144.05 1.41491 -0.694123 0
M  V30 12027 C 1145.27 2.06099 -0.23197 0
M  V30 12028 C 1145.7 1.51888 1.10958 0
M  V30 12029 O 1145.06 0.645247 1.69429 0
M  V30 12030 C 1145.11 3.60053 -0.198522 0
M  V30 12031 O 1144.21 4.04021 0.827067 0
M  V30 12032 H 1143.55 0.654193 -0.113699 0
M  V30 12033 H 1146.08 1.81282 -0.948575 0
M  V30 12034 H 1146.09 4.0799 -0.0288904 0
M  V30 12035 H 1144.77 3.98879 -1.17764 0
M  V30 12036 H 1143.34 3.67593 0.626908 0
M  V30 12037 N 1145.53 0.438773 1.51369 0
M  V30 12038 C 1146.44 -0.378074 2.31534 0
M  V30 12039 C 1147.45 -1.02632 1.40508 0
M  V30 12040 O 1148.63 -1.02138 1.73579 0
M  V30 12041 C 1145.69 -1.46374 3.14286 0
M  V30 12042 C 1144.76 -0.835473 4.21092 0
M  V30 12043 C 1143.99 -1.86941 4.99889 0
M  V30 12044 O 1144.21 -3.0918 4.79337 0
M  V30 12045 O 1143.15 -1.45914 5.83946 0
M  V30 12046 H 1146.97 0.276401 3.0244 0
M  V30 12047 H 1144.56 0.201281 1.48038 0
M  V30 12048 H 1146.44 -2.09335 3.65728 0
M  V30 12049 H 1145.11 -2.10227 2.46143 0
M  V30 12050 H 1144.02 -0.167775 3.73724 0
M  V30 12051 H 1145.35 -0.240406 4.91613 0
M  V30 12052 N 1147.01 -1.56678 0.170181 0
M  V30 12053 C 1147.96 -2.14503 -0.772818 0
M  V30 12054 C 1148.94 -1.07896 -1.19362 0
M  V30 12055 O 1150.13 -1.34021 -1.15617 0
M  V30 12056 C 1147.26 -2.78844 -2.00253 0
M  V30 12057 C 1146.35 -3.92607 -1.60377 0
M  V30 12058 N 1146.74 -4.97464 -0.914519 0
M  V30 12059 C 1145.04 -4.03746 -1.89487 0
M  V30 12060 C 1145.74 -5.77248 -0.718343 0
M  V30 12061 N 1144.71 -5.2881 -1.25942 0
M  V30 12062 H 1148.51 -2.92941 -0.237231 0
M  V30 12063 H 1146.03 -1.62371 -0.0305396 0
M  V30 12064 H 1148.03 -3.18646 -2.68831 0
M  V30 12065 H 1146.69 -2.01886 -2.54307 0
M  V30 12066 H 1147.7 -5.14724 -0.572692 0
M  V30 12067 H 1144.37 -3.3789 -2.45227 0
M  V30 12068 H 1145.76 -6.71676 -0.173373 0
M  V30 12069 N 1148.48 0.103547 -1.57259 0
M  V30 12070 C 1149.73 0.806979 -1.8529 0
M  V30 12071 C 1150.05 1.79679 -0.757653 0
M  V30 12072 O 1149.32 1.94695 0.216913 0
M  V30 12073 H 1147.9 0.301012 -0.683667 0
M  V30 12074 H 1150.56 0.0871886 -1.94705 0
M  V30 12075 H 1149.66 1.34275 -2.81738 0
M  V30 12076 N 1149.96 1.53094 0.37415 0
M  V30 12077 C 1151.19 1.73061 1.143 0
M  V30 12078 C 1151.61 0.454611 1.82524 0
M  V30 12079 O 1150.97 -0.590743 1.71406 0
M  V30 12080 C 1151.02 2.89086 2.15549 0
M  V30 12081 O 1150.12 2.57096 3.22452 0
M  V30 12082 H 1149.46 0.575009 0.332055 0
M  V30 12083 H 1151.99 1.99946 0.433897 0
M  V30 12084 H 1152 3.15007 2.59296 0
M  V30 12085 H 1150.68 3.81647 1.65283 0
M  V30 12086 H 1149.25 2.41965 2.83738 0
M  V30 12087 N 1151.44 -0.633461 1.44309 0
M  V30 12088 C 1152.37 -1.75676 1.53819 0
M  V30 12089 C 1153.35 -1.65537 0.391365 0
M  V30 12090 O 1154.54 -1.84332 0.611181 0
M  V30 12091 C 1151.67 -3.14197 1.47979 0
M  V30 12092 C 1150.62 -3.39122 2.61113 0
M  V30 12093 C 1149.95 -4.77648 2.40325 0
M  V30 12094 C 1151.25 -3.31914 4.03274 0
M  V30 12095 H 1152.94 -1.67974 2.47841 0
M  V30 12096 H 1150.49 -0.8067 1.19283 0
M  V30 12097 H 1152.44 -3.92553 1.53233 0
M  V30 12098 H 1151.16 -3.22677 0.504718 0
M  V30 12099 H 1149.82 -2.63145 2.55245 0
M  V30 12100 H 1149.47 -4.82829 1.41016 0
M  V30 12101 H 1149.17 -4.95284 3.16177 0
M  V30 12102 H 1150.69 -5.58237 2.47394 0
M  V30 12103 H 1152.11 -4.00178 4.10524 0
M  V30 12104 H 1150.5 -3.61085 4.7931 0
M  V30 12105 H 1151.57 -2.29761 4.2701 0
M  V30 12106 N 1152.92 -1.31168 -0.873655 0
M  V30 12107 C 1153.87 -1.18507 -1.98052 0
M  V30 12108 C 1154.84 -0.0717583 -1.65945 0
M  V30 12109 O 1156.02 -0.243965 -1.89234 0
M  V30 12110 C 1153.16 -0.894571 -3.33304 0
M  V30 12111 C 1152.27 -2.09086 -3.7803 0
M  V30 12112 C 1151.41 -1.73747 -5.01982 0
M  V30 12113 C 1150.45 -2.89805 -5.39147 0
M  V30 12114 N 1149.58 -2.54686 -6.54278 0
M  V30 12115 H 1154.42 -2.13193 -2.08213 0
M  V30 12116 H 1151.96 -1.06056 -1.01934 0
M  V30 12117 H 1153.92 -0.706714 -4.11171 0
M  V30 12118 H 1152.55 0.0154449 -3.22796 0
M  V30 12119 H 1151.6 -2.38961 -2.95976 0
M  V30 12120 H 1152.91 -2.95963 -4.01506 0
M  V30 12121 H 1152.07 -1.51402 -5.87505 0
M  V30 12122 H 1150.81 -0.840553 -4.80402 0
M  V30 12123 H 1149.81 -3.12803 -4.52144 0
M  V30 12124 H 1151.04 -3.802 -5.62694 0
M  V30 12125 H 1148.98 -1.67513 -6.34252 0
M  V30 12126 H 1148.9 -3.35093 -6.77679 0
M  V30 12127 H 1150.17 -2.35725 -7.43003 0
M  V30 12128 N 1154.4 1.08748 -1.14068 0
M  V30 12129 C 1155.63 1.84546 -0.928789 0
M  V30 12130 C 1156.03 1.81741 0.526007 0
M  V30 12131 O 1155.38 1.2169 1.37613 0
M  V30 12132 C 1155.44 3.33282 -1.34771 0
M  V30 12133 C 1155.1 3.59826 -2.81734 0
M  V30 12134 C 1156.1 3.54964 -3.79864 0
M  V30 12135 C 1153.79 3.87949 -3.19063 0
M  V30 12136 C 1155.78 3.77847 -5.13332 0
M  V30 12137 C 1153.47 4.10487 -4.52707 0
M  V30 12138 C 1154.46 4.05429 -5.49651 0
M  V30 12139 O 1154.15 4.27378 -6.80884 0
M  V30 12140 H 1153.88 0.589555 -0.330758 0
M  V30 12141 H 1156.44 1.38275 -1.51886 0
M  V30 12142 H 1154.67 3.80294 -0.700948 0
M  V30 12143 H 1156.36 3.90508 -1.10718 0
M  V30 12144 H 1157.12 3.33256 -3.52371 0
M  V30 12145 H 1153 3.91007 -2.44201 0
M  V30 12146 H 1156.55 3.73815 -5.88989 0
M  V30 12147 H 1152.44 4.31677 -4.79922 0
M  V30 12148 H 1153.21 4.44802 -6.8709 0
M  V30 12149 N 1155.87 0.935264 1.26849 0
M  V30 12150 C 1156.8 0.457776 2.28969 0
M  V30 12151 C 1157.79 -0.48587 1.63013 0
M  V30 12152 O 1158.97 -0.388998 1.90264 0
M  V30 12153 C 1156.1 -0.283332 3.46142 0
M  V30 12154 C 1155.05 0.573196 4.24144 0
M  V30 12155 C 1154.38 -0.297525 5.33872 0
M  V30 12156 C 1155.68 1.84153 4.88759 0
M  V30 12157 H 1157.37 1.31125 2.69159 0
M  V30 12158 H 1154.92 0.631956 1.29392 0
M  V30 12159 H 1156.87 -0.628366 4.16689 0
M  V30 12160 H 1155.6 -1.1709 3.04889 0
M  V30 12161 H 1154.26 0.901043 3.55354 0
M  V30 12162 H 1153.9 -1.18427 4.8886 0
M  V30 12163 H 1153.6 0.272126 5.8697 0
M  V30 12164 H 1155.13 -0.637961 6.07258 0
M  V30 12165 H 1156.54 1.5641 5.51551 0
M  V30 12166 H 1154.94 2.35528 5.51948 0
M  V30 12167 H 1156.01 2.5565 4.12033 0
M  V30 12168 N 1157.35 -1.41121 0.701616 0
M  V30 12169 C 1158.3 -2.27994 0.0168361 0
M  V30 12170 C 1159.29 -1.42523 -0.746733 0
M  V30 12171 O 1160.48 -1.6574 -0.621232 0
M  V30 12172 C 1157.61 -3.30898 -0.914417 0
M  V30 12173 C 1156.69 -4.23846 -0.146776 0
M  V30 12174 N 1157.08 -4.9839 0.862624 0
M  V30 12175 C 1155.38 -4.44366 -0.38138 0
M  V30 12176 C 1156.08 -5.66463 1.32266 0
M  V30 12177 N 1155.06 -5.39731 0.647433 0
M  V30 12178 H 1158.86 -2.83065 0.790675 0
M  V30 12179 H 1156.38 -1.53405 0.532977 0
M  V30 12180 H 1158.37 -3.91964 -1.4202 0
M  V30 12181 H 1157.03 -2.77387 -1.68779 0
M  V30 12182 H 1158.04 -5.02761 1.24305 0
M  V30 12183 H 1154.72 -4.01856 -1.13216 0
M  V30 12184 H 1156.11 -6.36213 2.16061 0
M  V30 12185 N 1158.83 -0.446794 -1.51134 0
M  V30 12186 C 1159.74 0.36579 -2.31731 0
M  V30 12187 C 1160.76 1.01886 -1.41051 0
M  V30 12188 O 1161.93 1.01216 -1.74119 0
M  V30 12189 C 1159 1.44705 -3.15058 0
M  V30 12190 C 1158.06 0.813129 -4.21529 0
M  V30 12191 C 1157.29 1.84287 -5.00873 0
M  V30 12192 O 1157.51 3.06633 -4.8097 0
M  V30 12193 O 1156.45 1.42816 -5.84711 0
M  V30 12194 H 1160.27 -0.292436 -3.02289 0
M  V30 12195 H 1157.86 -0.209129 -1.47929 0
M  V30 12196 H 1159.74 2.07393 -3.66833 0
M  V30 12197 H 1158.42 2.08919 -2.47254 0
M  V30 12198 H 1157.32 0.147953 -3.73807 0
M  V30 12199 H 1158.66 0.214331 -4.91733 0
M  V30 12200 N 1160.31 1.56586 -0.178487 0
M  V30 12201 C 1161.26 2.19631 0.765822 0
M  V30 12202 C 1162.25 1.16247 1.23219 0
M  V30 12203 O 1163.46 1.34431 1.19701 0
M  V30 12204 H 1159.83 0.703661 0.265264 0
M  V30 12205 H 1161.8 2.97659 0.210207 0
M  V30 12206 C 1160.55 2.85686 1.98188 0
M  V30 12207 H 1159.87 3.64971 1.63206 0
M  V30 12208 H 1161.31 3.33259 2.62134 0
M  V30 12209 C 1159.77 1.85837 2.81009 0
M  V30 12210 O 1160.3 1.3483 3.78396 0
M  V30 12211 N 1158.51 1.54435 2.46167 0
M  V30 12212 H 1158.06 1.96107 1.67032 0
M  V30 12213 H 1158.01 0.878808 3.01868 0
M  V30 12214 N 1161.79 -0.095206 1.57312 0
M  V30 12215 C 1162.72 -1.11627 2.05089 0
M  V30 12216 C 1163.7 -1.41782 0.939787 0
M  V30 12217 O 1164.88 -1.51813 1.21105 0
M  V30 12218 C 1162.01 -2.43618 2.47523 0
M  V30 12219 C 1160.97 -2.27872 3.62296 0
M  V30 12220 C 1160.29 -3.65038 3.90706 0
M  V30 12221 C 1161.59 -1.71936 4.93189 0
M  V30 12222 H 1163.29 -0.718795 2.90644 0
M  V30 12223 H 1160.83 -0.344315 1.39823 0
M  V30 12224 H 1162.79 -3.1532 2.79556 0
M  V30 12225 H 1161.51 -2.85301 1.58968 0
M  V30 12226 H 1160.17 -1.58615 3.3051 0
M  V30 12227 H 1159.82 -4.04249 2.99319 0
M  V30 12228 H 1159.52 -3.55349 4.67976 0
M  V30 12229 H 1161.04 -4.38208 4.25213 0
M  V30 12230 H 1162.45 -2.33479 5.23603 0
M  V30 12231 H 1160.85 -1.73006 5.74621 0
M  V30 12232 H 1161.92 -0.678789 4.80125 0
M  V30 12233 N 1163.26 -1.53291 -0.366026 0
M  V30 12234 C 1164.68 -1.61144 -0.942849 0
M  V30 12235 C 1165.03 -0.478571 -1.90274 0
M  V30 12236 O 1164.15 0.395069 -2.12763 0
M  V30 12237 C 1164.75 -2.92081 -1.71681 0
M  V30 12238 C 1163.31 -3.0227 -2.24298 0
M  V30 12239 C 1162.45 -2.56436 -1.05526 0
M  V30 12240 H 1165.4 -1.58038 -0.144835 0
M  V30 12241 H 1165.42 -2.79858 -2.57798 0
M  V30 12242 H 1164.94 -3.74513 -1.01793 0
M  V30 12243 H 1163.04 -2.24425 -2.97429 0
M  V30 12244 H 1163.15 -4.07341 -2.5221 0
M  V30 12245 H 1161.51 -2.11301 -1.42211 0
M  V30 12246 H 1162.3 -3.41285 -0.371376 0
M  V30 12247 N 1164.74 0.6258 -1.44643 0
M  V30 12248 C 1165.99 1.38125 -1.46984 0
M  V30 12249 C 1166.3 1.95299 -0.108429 0
M  V30 12250 O 1167.51 2.71498 -0.00940005 0
M  V30 12251 C 1165.97 2.50108 -2.58793 0
M  V30 12252 C 1165.57 1.99424 -4.01166 0
M  V30 12253 C 1167.32 3.27269 -2.70361 0
M  V30 12254 C 1165.23 3.08781 -5.04389 0
M  V30 12255 H 1164.16 0.519083 -0.546872 0
M  V30 12256 H 1166.81 0.67268 -1.70726 0
M  V30 12257 H 1165.19 3.23565 -2.28302 0
M  V30 12258 H 1166.36 1.32797 -4.4125 0
M  V30 12259 H 1164.68 1.35063 -3.93887 0
M  V30 12260 H 1167.27 4.08802 -3.44652 0
M  V30 12261 H 1167.62 3.77097 -1.76362 0
M  V30 12262 H 1168.15 2.60905 -3.00289 0
M  V30 12263 H 1164.89 2.63891 -6.00035 0
M  V30 12264 H 1164.41 3.74033 -4.68892 0
M  V30 12265 H 1166.09 3.73469 -5.28328 0
M  V30 12266 N 1166.22 1.31629 0.866686 0
M  V30 12267 C 1167.63 1.19347 1.43573 0
M  V30 12268 C 1167.98 -0.198765 1.95191 0
M  V30 12269 O 1167.11 -1.09674 1.86549 0
M  V30 12270 C 1167.7 2.16055 2.6097 0
M  V30 12271 C 1166.26 2.07697 3.13909 0
M  V30 12272 C 1165.41 2.05099 1.86627 0
M  V30 12273 H 1168.36 1.43633 0.674929 0
M  V30 12274 H 1168.38 1.75207 3.37761 0
M  V30 12275 H 1167.89 3.17375 2.23371 0
M  V30 12276 H 1165.99 1.09583 3.56121 0
M  V30 12277 H 1166.11 2.96958 3.75969 0
M  V30 12278 H 1164.47 1.50162 2.05727 0
M  V30 12279 H 1165.25 3.0818 1.51261 0
M  V30 12280 N 1167.7 -1.08142 1.14644 0
M  V30 12281 C 1168.63 -2.15022 0.793614 0
M  V30 12282 C 1169.64 -1.61679 -0.190729 0
M  V30 12283 O 1170.83 -1.78472 0.0313696 0
M  V30 12284 C 1167.93 -3.38532 0.157785 0
M  V30 12285 C 1167.11 -4.21252 1.17753 0
M  V30 12286 C 1166.17 -5.23158 0.564968 0
M  V30 12287 O 1165.19 -5.5578 1.22869 0
M  V30 12288 N 1166.39 -5.7677 -0.657022 0
M  V30 12289 H 1169.16 -2.45893 1.71338 0
M  V30 12290 H 1166.72 -1.23976 1.04122 0
M  V30 12291 H 1168.71 -4.03834 -0.264586 0
M  V30 12292 H 1167.28 -3.05441 -0.665168 0
M  V30 12293 H 1166.5 -3.51888 1.77675 0
M  V30 12294 H 1167.79 -4.73335 1.86632 0
M  V30 12295 H 1167.19 -5.52503 -1.21478 0
M  V30 12296 H 1165.74 -6.4374 -1.02186 0
M  V30 12297 N 1169.18 -0.941978 -1.26351 0
M  V30 12298 C 1170.59 -0.644413 -1.46012 0
M  V30 12299 C 1170.79 0.802031 -1.84851 0
M  V30 12300 O 1169.85 1.57859 -1.9707 0
M  V30 12301 C 1171.16 -1.60652 -2.54188 0
M  V30 12302 C 1172.71 -1.6163 -2.68038 0
M  V30 12303 C 1173.19 -2.56573 -3.79387 0
M  V30 12304 N 1174.68 -2.54863 -3.8678 0
M  V30 12305 C 1175.41 -3.2501 -4.72394 0
M  V30 12306 N 1174.91 -4.04586 -5.6239 0
M  V30 12307 N 1176.7 -3.13958 -4.66247 0
M  V30 12308 H 1168.85 -1.8769 -0.994293 0
M  V30 12309 H 1171.11 -0.806621 -0.498063 0
M  V30 12310 H 1170.82 -2.63907 -2.32478 0
M  V30 12311 H 1170.69 -1.3592 -3.5186 0
M  V30 12312 H 1173.08 -0.59099 -2.89122 0
M  V30 12313 H 1173.16 -1.90417 -1.70807 0
M  V30 12314 H 1172.81 -3.59223 -3.59056 0
M  V30 12315 H 1172.74 -2.25077 -4.76076 0
M  V30 12316 H 1175.23 -1.97082 -3.22439 0
M  V30 12317 H 1175.54 -4.55061 -6.24612 0
M  V30 12318 H 1173.89 -4.08687 -5.62139 0
M  V30 12319 H 1177.08 -2.51273 -3.94943 0
M  V30 12320 H 1177.25 -3.68894 -5.32749 0
M  V30 12321 N 1170.66 1.40747 -0.709091 0
M  V30 12322 C 1171.6 2.32564 -0.0411392 0
M  V30 12323 C 1172.6 1.51692 0.75404 0
M  V30 12324 O 1173.8 1.67537 0.658139 0
M  V30 12325 H 1170.18 0.75198 0.00549889 0
M  V30 12326 H 1172.15 2.86556 -0.83235 0
M  V30 12327 C 1170.9 3.36604 0.871378 0
M  V30 12328 H 1170.22 3.98895 0.268912 0
M  V30 12329 H 1171.66 4.03359 1.30682 0
M  V30 12330 C 1170.12 2.71566 1.99384 0
M  V30 12331 O 1170.65 2.57392 3.08403 0
M  V30 12332 N 1168.86 2.3005 1.77554 0
M  V30 12333 H 1168.4 2.41778 0.888898 0
M  V30 12334 H 1168.36 1.8687 2.52838 0
M  V30 12335 N 1172.13 0.454803 1.50895 0
M  V30 12336 C 1173.36 -0.103936 2.06639 0
M  V30 12337 C 1173.78 -1.34943 1.32044 0
M  V30 12338 O 1173.13 -1.78393 0.384972 0
M  V30 12339 C 1173.18 -0.408546 3.59184 0
M  V30 12340 O 1172.91 0.787535 4.30963 0
M  V30 12341 C 1174.41 -1.01605 4.31499 0
M  V30 12342 H 1171.63 -0.000171839 0.671 0
M  V30 12343 H 1174.17 0.638907 1.94263 0
M  V30 12344 H 1172.33 -1.1013 3.71416 0
M  V30 12345 H 1172.74 0.52229 5.21893 0
M  V30 12346 H 1174.21 -1.17906 5.39261 0
M  V30 12347 H 1174.69 -2.00182 3.90927 0
M  V30 12348 H 1175.3 -0.362155 4.23755 0
M  V30 12349 N 1173.61 -1.56489 0.186789 0
M  V30 12350 C 1174.56 -2.20034 -0.754164 0
M  V30 12351 C 1175.55 -1.16899 -1.22601 0
M  V30 12352 O 1176.76 -1.35064 -1.18987 0
M  V30 12353 H 1173.13 -0.705058 -0.261529 0
M  V30 12354 H 1175.11 -2.97766 -0.194418 0
M  V30 12355 C 1173.85 -2.86733 -1.9667 0
M  V30 12356 H 1173.18 -3.65831 -1.61268 0
M  V30 12357 H 1174.62 -3.34645 -2.60363 0
M  V30 12358 C 1173.08 -1.87325 -2.8002 0
M  V30 12359 O 1173.61 -1.36835 -3.77676 0
M  V30 12360 N 1171.81 -1.55738 -2.45345 0
M  V30 12361 H 1171.36 -1.9699 -1.6599 0
M  V30 12362 H 1171.32 -0.894805 -3.01398 0
M  V30 12363 O 1175.13 -0.0494057 -1.61424 0
M  V30 12364 H 1175.82 0.560203 -1.85422 0
M  V30 END ATOM
M  V30 BEGIN BOND
M  V30 END BOND
M  V30 END CTAB
M  END
$$$$
