drugbank_target|P54820 Cytochrome c-552 (DB03317)
 OpenBabel12092120273D

  0  0  0     0  0            999 V3000
M  V30 BEGIN CTAB
M  V30 COUNTS 2514 2543 0 0 0
M  V30 BEGIN ATOM
M  V30 1 H -0.908 1.98254 -0.117106 0
M  V30 2 N 0 1.576 0 0
M  V30 3 C 0.933 2.03868 1.02534 0
M  V30 4 C 1.911 0.928543 1.3348 0
M  V30 5 O 3.095 1.19667 1.45644 0
M  V30 6 C 0.222 2.43627 2.35294 0
M  V30 7 C -0.732 3.65373 2.2001 0
M  V30 8 S 0.101 5.13292 1.52614 0
M  V30 9 C 1.257 5.56322 2.86805 0
M  V30 10 H 1.49 2.90518 0.631377 0
M  V30 11 H -0.977 1.52953 0.210867 0
M  V30 12 H 0.981 2.67203 3.11629 0
M  V30 13 H -0.358 1.57376 2.7183 0
M  V30 14 H -1.165 3.90944 3.18086 0
M  V30 15 H -1.563 3.418 1.51819 0
M  V30 16 H 0.729 5.58782 3.83104 0
M  V30 17 H 1.672 6.56266 2.65933 0
M  V30 18 H 2.08 4.83886 2.90714 0
M  V30 19 N 1.4781 -0.272755 1.55222 0
M  V30 20 C 2.7251 -1.00433 1.7584 0
M  V30 21 C 3.0531 -1.86275 0.559629 0
M  V30 22 O 2.3081 -1.90269 -0.457857 0
M  V30 23 C 2.6071 -1.91642 3.01675 0
M  V30 24 C 2.2731 -1.21548 4.34208 0
M  V30 25 C 0.9351 -1.02166 4.70229 0
M  V30 26 C 3.2871 -0.716684 5.16249 0
M  V30 27 C 0.6151 -0.316334 5.85847 0
M  V30 28 C 2.9671 -0.0249476 6.32595 0
M  V30 29 C 1.6311 0.180579 6.67256 0
M  V30 30 H 0.9011 -0.367509 0.643443 0
M  V30 31 H 3.5481 -0.276596 1.89492 0
M  V30 32 H 1.8531 -2.71037 2.82924 0
M  V30 33 H 3.5501 -2.48369 3.14824 0
M  V30 34 H 0.1401 -1.37645 4.05896 0
M  V30 35 H 4.3241 -0.854047 4.88896 0
M  V30 36 H -0.4199 -0.146378 6.11225 0
M  V30 37 H 3.7541 0.369311 6.9542 0
M  V30 38 H 1.3811 0.729098 7.56696 0
M  V30 39 N 2.9562 -1.48159 -0.537278 0
M  V30 40 C 4.2332 -1.46291 -1.29839 0
M  V30 41 C 4.6132 -0.170613 -2.10409 0
M  V30 42 O 3.9612 0.847746 -2.12192 0
M  V30 43 C 4.1712 -2.72055 -2.18603 0
M  V30 44 C 5.5192 -3.20087 -2.7898 0
M  V30 45 O 6.5432 -2.72921 -2.28894 0
M  V30 46 O 5.4022 -4.02138 -3.70064 0
M  V30 47 H 2.4962 -0.583906 -0.585647 0
M  V30 48 H 5.0422 -1.60384 -0.554534 0
M  V30 49 H 3.8142 -3.57628 -1.58801 0
M  V30 50 H 3.4372 -2.60646 -3.00249 0
M  V30 51 N 4.4343 0.785586 -1.36625 0
M  V30 52 C 5.6623 1.57448 -1.3423 0
M  V30 53 C 6.0773 1.88649 0.0755653 0
M  V30 54 O 5.4343 1.50414 1.03354 0
M  V30 55 C 5.4853 2.89316 -2.16745 0
M  V30 56 O 5.2063 2.59459 -3.53005 0
M  V30 57 C 6.7073 3.83606 -2.22174 0
M  V30 58 H 3.9273 0.488226 -0.4603 0
M  V30 59 H 6.4713 0.974733 -1.79775 0
M  V30 60 H 4.6263 3.4575 -1.74745 0
M  V30 61 H 5.0403 3.43804 -3.96105 0
M  V30 62 H 6.5143 4.73181 -2.8426 0
M  V30 63 H 6.9913 4.21734 -1.22627 0
M  V30 64 H 7.5973 3.33104 -2.64427 0
M  V30 65 N 5.9124 1.20967 1.01018 0
M  V30 66 C 6.8454 0.907578 2.09376 0
M  V30 67 C 7.8234 -0.142868 1.61971 0
M  V30 68 O 9.0074 -0.0150391 1.88494 0
M  V30 69 C 6.1344 0.361791 3.36762 0
M  V30 70 C 5.1804 1.39423 4.03068 0
M  V30 71 S 6.0134 2.96159 4.4615 0
M  V30 72 C 7.1694 2.43173 5.7673 0
M  V30 73 H 7.4024 1.82519 2.34678 0
M  V30 74 H 4.9354 1.03884 1.14225 0
M  V30 75 H 6.8934 0.0534523 4.10465 0
M  V30 76 H 5.5544 -0.53443 3.0952 0
M  V30 77 H 4.7474 0.961853 4.94737 0
M  V30 78 H 4.3494 1.65038 3.35617 0
M  V30 79 H 6.6414 1.83335 6.52223 0
M  V30 80 H 7.5844 3.33264 6.24773 0
M  V30 81 H 7.9924 1.85069 5.33301 0
M  V30 82 N 7.3905 -1.2043 1.01659 0
M  V30 83 C 8.6185 -1.93777 0.725132 0
M  V30 84 C 9.0335 -1.74772 -0.714166 0
M  V30 85 O 8.3905 -1.06169 -1.4844 0
M  V30 86 C 8.4415 -3.45876 1.05129 0
M  V30 87 O 8.1625 -3.6426 2.43406 0
M  V30 88 C 9.6635 -4.36368 0.780891 0
M  V30 89 H 6.8835 -0.615901 0.266284 0
M  V30 90 H 9.4275 -1.52922 1.35776 0
M  V30 91 H 7.5825 -3.8461 0.464065 0
M  V30 92 H 7.9965 -4.58246 2.55169 0
M  V30 93 H 9.4705 -5.41743 1.05918 0
M  V30 94 H 9.9475 -4.38275 -0.284937 0
M  V30 95 H 10.5535 -4.03296 1.35027 0
M  V30 96 N 8.8686 -0.792821 -1.36206 0
M  V30 97 C 10.1146 -0.36733 -1.99446 0
M  V30 98 C 10.4476 1.05917 -1.62774 0
M  V30 99 O 9.7226 1.7324 -0.88421 0
M  V30 100 C 10.0056 -0.535044 -3.56103 0
M  V30 101 C 9.8586 -2.00548 -4.02617 0
M  V30 102 C 11.1776 0.0478191 -4.40074 0
M  V30 103 H 8.2966 -0.134941 -0.724541 0
M  V30 104 H 10.9386 -0.999794 -1.61568 0
M  V30 105 H 9.0886 0.00336329 -3.885 0
M  V30 106 H 10.7606 -2.60521 -3.80692 0
M  V30 107 H 9.0036 -2.50686 -3.54032 0
M  V30 108 H 9.6746 -2.07377 -5.11565 0
M  V30 109 H 12.1506 -0.411822 -4.14057 0
M  V30 110 H 11.0266 -0.0995336 -5.4881 0
M  V30 111 H 11.2876 1.14025 -4.27142 0
M  V30 112 N 10.3467 1.47872 -0.545128 0
M  V30 113 C 11.5747 2.06889 -0.021084 0
M  V30 114 C 11.9897 1.39955 1.2672 0
M  V30 115 O 11.3467 0.492036 1.75742 0
M  V30 116 C 11.3977 3.60996 0.190817 0
M  V30 117 O 11.1187 4.25419 -1.04644 0
M  V30 118 C 12.6197 4.36849 0.753521 0
M  V30 119 H 9.8397 0.669785 -0.0403635 0
M  V30 120 H 12.3837 1.90049 -0.755095 0
M  V30 121 H 10.5387 3.77391 0.87492 0
M  V30 122 H 10.9527 5.17785 -0.836611 0
M  V30 123 H 12.4267 5.45399 0.851139 0
M  V30 124 H 12.9037 4.02306 1.762 0
M  V30 125 H 13.5097 4.25169 0.105503 0
M  V30 126 N 11.8248 0.280983 1.55075 0
M  V30 127 C 12.7718 -0.603937 2.22758 0
M  V30 128 C 13.7418 -1.1452 1.20309 0
M  V30 129 O 14.9268 -1.19343 1.48869 0
M  V30 130 C 12.0668 -1.77947 2.95684 0
M  V30 131 C 11.1798 -1.2715 4.12864 0
M  V30 132 C 10.3148 -2.4093 4.7342 0
M  V30 133 C 9.3538 -1.87165 5.82783 0
M  V30 134 N 8.4908 -2.94441 6.37377 0
M  V30 135 H 13.3308 -0.020124 2.97993 0
M  V30 136 H 10.8678 0.00183425 1.471 0
M  V30 137 H 12.8258 -2.47055 3.36184 0
M  V30 138 H 11.4558 -2.33522 2.22861 0
M  V30 139 H 10.5078 -0.473331 3.77444 0
M  V30 140 H 11.8198 -0.837751 4.91715 0
M  V30 141 H 10.9738 -3.18021 5.1667 0
M  V30 142 H 9.7128 -2.87623 3.93859 0
M  V30 143 H 8.7178 -1.08556 5.38976 0
M  V30 144 H 9.9428 -1.41401 6.64216 0
M  V30 145 H 7.8888 -3.40505 5.60707 0
M  V30 146 H 7.8058 -2.55501 7.11516 0
M  V30 147 H 9.0738 -3.71489 6.85285 0
M  V30 148 N 13.3029 -1.57598 0.00835791 0
M  V30 149 C 14.2659 -2.07884 -0.965242 0
M  V30 150 C 15.2659 -0.989825 -1.26725 0
M  V30 151 O 16.4559 -1.25218 -1.21104 0
M  V30 152 C 13.5879 -2.52731 -2.28779 0
M  V30 153 H 14.7809 -2.95178 -0.530112 0
M  V30 154 H 12.3339 -1.54458 -0.239283 0
M  V30 155 H 13.0689 -1.68705 -2.76964 0
M  V30 156 H 12.8539 -3.32272 -2.08177 0
M  V30 157 H 14.3439 -2.91933 -2.98605 0
M  V30 158 N 14.781 0.264519 -1.55364 0
M  V30 159 C 15.744 1.31046 -1.88042 0
M  V30 160 C 16.744 1.41943 -0.755569 0
M  V30 161 O 17.934 1.40947 -1.02369 0
M  V30 162 C 15.066 2.69067 -2.09323 0
M  V30 163 H 16.259 1.03297 -2.81549 0
M  V30 164 H 13.812 0.502989 -1.47986 0
M  V30 165 H 14.547 3.01982 -1.18226 0
M  V30 166 H 14.332 2.62542 -2.91229 0
M  V30 167 H 15.822 3.44623 -2.35848 0
M  V30 168 N 16.2591 1.48442 0.529413 0
M  V30 169 C 17.5071 1.56179 1.28267 0
M  V30 170 C 17.8281 0.237721 1.93546 0
M  V30 171 O 17.0981 -0.740779 1.81354 0
M  V30 172 H 15.6781 0.575367 0.476405 0
M  V30 173 H 18.3401 1.84909 0.61602 0
M  V30 174 H 17.4361 2.34312 2.06165 0
M  V30 175 N 17.7372 -0.778329 1.37039 0
M  V30 176 C 18.7002 -1.87301 1.32102 0
M  V30 177 C 19.7002 -1.59198 0.226405 0
M  V30 178 O 20.8902 -1.67403 0.481861 0
M  V30 179 C 18.0222 -3.24309 1.05055 0
M  V30 180 H 19.2152 -1.93093 2.29467 0
M  V30 181 H 16.7682 -0.977358 1.21973 0
M  V30 182 H 17.5032 -3.24196 0.0819373 0
M  V30 183 H 17.2882 -3.46098 1.84279 0
M  V30 184 H 18.7782 -4.04382 1.04234 0
M  V30 185 N 19.2153 -1.21501 -1.00376 0
M  V30 186 C 20.1453 -0.999478 -2.11028 0
M  V30 187 C 21.1263 0.0759671 -1.6993 0
M  V30 188 O 22.3113 -0.0841106 -1.94018 0
M  V30 189 C 19.4413 -0.564709 -3.42678 0
M  V30 190 C 18.3953 -1.58486 -3.97576 0
M  V30 191 C 17.7213 -1.00628 -5.25146 0
M  V30 192 C 19.0213 -2.97204 -4.29496 0
M  V30 193 H 20.7153 -1.92495 -2.29317 0
M  V30 194 H 18.2613 -0.92693 -1.102 0
M  V30 195 H 20.2143 -0.401091 -4.19487 0
M  V30 196 H 18.9383 0.396411 -3.24185 0
M  V30 197 H 17.5973 -1.73606 -3.22888 0
M  V30 198 H 17.2453 -0.0368439 -5.02987 0
M  V30 199 H 16.9453 -1.68771 -5.62841 0
M  V30 200 H 18.4693 -0.854015 -6.04598 0
M  V30 201 H 19.8833 -2.8552 -4.97143 0
M  V30 202 H 18.2803 -3.62372 -4.78338 0
M  V30 203 H 19.3503 -3.47956 -3.3772 0
M  V30 204 N 20.6934 1.19889 -1.02296 0
M  V30 205 C 21.9424 1.88743 -0.711257 0
M  V30 206 C 22.2554 1.80112 0.762817 0
M  V30 207 O 23.4614 2.44161 1.18733 0
M  V30 208 C 21.9174 3.38525 -1.22185 0
M  V30 209 C 21.5254 3.55727 -2.72328 0
M  V30 210 C 23.2694 4.12893 -0.985864 0
M  V30 211 C 21.1764 4.99369 -3.16835 0
M  V30 212 H 20.1064 0.706885 -0.262353 0
M  V30 213 H 22.7574 1.35586 -1.23648 0
M  V30 214 H 21.1394 3.91044 -0.624571 0
M  V30 215 H 22.3134 3.13564 -3.3766 0
M  V30 216 H 20.6284 2.94739 -2.9414 0
M  V30 217 H 23.2254 5.18813 -1.29374 0
M  V30 218 H 23.5684 4.16228 0.0775055 0
M  V30 219 H 24.1014 3.66494 -1.54684 0
M  V30 220 H 20.8404 5.01193 -4.22476 0
M  V30 221 H 20.3604 5.42317 -2.56228 0
M  V30 222 H 22.0394 5.67988 -3.09837 0
M  V30 223 N 22.1715 0.800033 1.35784 0
M  V30 224 C 23.4195 0.376597 1.9856 0
M  V30 225 C 23.7405 -1.05812 1.63795 0
M  V30 226 O 23.0105 -1.73103 0.917171 0
M  V30 227 H 21.5905 0.136261 0.734467 0
M  V30 228 H 24.2525 1.02442 1.65806 0
M  V30 229 H 23.3485 0.477002 3.08433 0
M  V30 230 N 23.6496 -1.47581 0.552962 0
M  V30 231 C 24.8746 -2.07378 0.0300593 0
M  V30 232 C 25.2996 -1.40355 -1.25229 0
M  V30 233 O 24.6576 -0.477099 -1.7491 0
M  V30 234 C 24.7056 -3.60274 -0.153231 0
M  V30 235 O 23.8096 -3.94041 -1.21678 0
M  V30 236 H 23.1506 -0.662158 0.0494182 0
M  V30 237 H 25.6806 -1.89662 0.767434 0
M  V30 238 H 25.6906 -4.0633 -0.368761 0
M  V30 239 H 24.3656 -4.08455 0.783397 0
M  V30 240 H 22.9426 -3.59735 -0.982079 0
M  V30 241 N 25.1277 -0.289203 -1.54924 0
M  V30 242 C 26.0577 0.58549 -2.2604 0
M  V30 243 C 27.0387 1.14753 -1.25562 0
M  V30 244 O 28.2237 1.17906 -1.54311 0
M  V30 245 C 25.3537 1.76305 -2.99222 0
M  V30 246 C 24.3077 1.33191 -4.06748 0
M  V30 247 C 23.6337 2.5937 -4.6758 0
M  V30 248 C 24.9337 0.471775 -5.20165 0
M  V30 249 H 26.6277 -0.00763532 -2.99399 0
M  V30 250 H 24.1737 -0.00511229 -1.43999 0
M  V30 251 H 26.1267 2.38097 -3.47689 0
M  V30 252 H 24.8507 2.38223 -2.23422 0
M  V30 253 H 23.5097 0.737121 -3.59113 0
M  V30 254 H 23.1577 3.19576 -3.88433 0
M  V30 255 H 22.8577 2.31228 -5.40192 0
M  V30 256 H 24.3817 3.21985 -5.18804 0
M  V30 257 H 25.7957 0.995056 -5.64599 0
M  V30 258 H 24.1927 0.284639 -5.99425 0
M  V30 259 H 25.2627 -0.506041 -4.82252 0
M  V30 260 N 26.6058 1.57591 -0.0167156 0
M  V30 261 C 27.5358 2.12496 0.967858 0
M  V30 262 C 28.5168 1.03807 1.34752 0
M  V30 263 O 29.7018 1.31577 1.42833 0
M  V30 264 C 26.8318 2.64194 2.25431 0
M  V30 265 C 25.7858 3.77559 2.01576 0
M  V30 266 C 25.1118 4.15636 3.36379 0
M  V30 267 C 26.4118 5.04151 1.36489 0
M  V30 268 H 28.1058 2.95013 0.510643 0
M  V30 269 H 25.6518 1.41915 0.244181 0
M  V30 270 H 27.6048 3.01236 2.94678 0
M  V30 271 H 26.3288 1.78821 2.73296 0
M  V30 272 H 24.9878 3.40937 1.34751 0
M  V30 273 H 24.6358 3.27263 3.81979 0
M  V30 274 H 24.3358 4.92022 3.21229 0
M  V30 275 H 25.8598 4.5525 4.06915 0
M  V30 276 H 27.2738 5.38857 1.95718 0
M  V30 277 H 25.6708 5.85453 1.31776 0
M  V30 278 H 26.7408 4.83733 0.336219 0
M  V30 279 N 28.0839 -0.256276 1.55502 0
M  V30 280 C 29.3309 -0.985619 1.76895 0
M  V30 281 C 29.6589 -1.85671 0.579355 0
M  V30 282 O 28.9139 -1.90744 -0.437651 0
M  V30 283 C 29.2129 -1.88432 3.03691 0
M  V30 284 C 28.8789 -1.16936 4.35473 0
M  V30 285 C 27.5409 -0.97173 4.71286 0
M  V30 286 C 29.8929 -0.661889 5.1698 0
M  V30 287 C 27.2209 -0.254179 5.86149 0
M  V30 288 C 29.5729 0.042149 6.32586 0
M  V30 289 C 28.2369 0.25134 6.67027 0
M  V30 290 H 27.5069 -0.360663 0.647304 0
M  V30 291 H 30.1539 -0.256483 1.89775 0
M  V30 292 H 28.4589 -2.68021 2.85783 0
M  V30 293 H 30.1559 -2.45015 3.1744 0
M  V30 294 H 26.7459 -1.33332 4.07333 0
M  V30 295 H 30.9299 -0.802145 4.89775 0
M  V30 296 H 26.1859 -0.0815408 6.11346 0
M  V30 297 H 30.3599 0.443049 6.94989 0
M  V30 298 H 27.9869 0.809314 7.5588 0
M  V30 299 N 29.562 -1.4872 -0.521534 0
M  V30 300 C 30.492 -1.66771 -1.63431 0
M  V30 301 C 31.473 -0.516499 -1.62069 0
M  V30 302 O 32.658 -0.750013 -1.79132 0
M  V30 303 C 29.788 -1.71515 -3.01993 0
M  V30 304 C 28.742 -2.86222 -3.18216 0
M  V30 305 C 28.068 -2.76061 -4.57924 0
M  V30 306 C 29.368 -4.27419 -3.00184 0
M  V30 307 H 31.062 -2.59932 -1.48579 0
M  V30 308 H 28.608 -1.25089 -0.713358 0
M  V30 309 H 30.561 -1.82731 -3.7972 0
M  V30 310 H 29.285 -0.749393 -3.17886 0
M  V30 311 H 27.944 -2.74575 -2.42908 0
M  V30 312 H 27.592 -1.77437 -4.70665 0
M  V30 313 H 27.292 -3.53037 -4.69722 0
M  V30 314 H 28.816 -2.89256 -5.37739 0
M  V30 315 H 30.23 -4.39855 -3.67697 0
M  V30 316 H 28.627 -5.05458 -3.2347 0
M  V30 317 H 29.697 -4.43293 -1.96518 0
M  V30 318 N 31.0401 0.771051 -1.3745 0
M  V30 319 C 31.9701 1.89827 -1.3597 0
M  V30 320 C 32.9511 1.68562 -0.228216 0
M  V30 321 O 34.1361 1.8941 -0.428675 0
M  V30 322 C 31.2661 3.2712 -1.16662 0
M  V30 323 C 30.2201 3.6295 -2.2683 0
M  V30 324 C 29.5461 4.98791 -1.92644 0
M  V30 325 C 30.8461 3.69627 -3.69017 0
M  V30 326 H 32.5401 1.91323 -2.30295 0
M  V30 327 H 30.0861 0.919082 -1.10855 0
M  V30 328 H 32.0391 4.05615 -1.14256 0
M  V30 329 H 30.7631 3.26059 -0.187926 0
M  V30 330 H 29.4221 2.86763 -2.28392 0
M  V30 331 H 29.0701 4.94271 -0.933021 0
M  V30 332 H 28.7701 5.23733 -2.66416 0
M  V30 333 H 30.2941 5.79685 -1.91826 0
M  V30 334 H 31.7081 4.38273 -3.69581 0
M  V30 335 H 30.1051 4.06067 -4.41848 0
M  V30 336 H 31.1751 2.70273 -4.02592 0
M  V30 337 N 32.5182 1.22032 0.997298 0
M  V30 338 C 33.4482 1.01065 2.10495 0
M  V30 339 C 34.4292 -0.0669542 1.69968 0
M  V30 340 O 35.6142 0.0943987 1.9397 0
M  V30 341 C 32.7442 0.582874 3.42374 0
M  V30 342 C 31.6982 1.60592 3.96729 0
M  V30 343 C 31.0242 1.03412 5.24605 0
M  V30 344 C 32.3242 2.99478 4.27914 0
M  V30 345 H 34.0182 1.93708 2.28292 0
M  V30 346 H 31.5642 0.932761 1.09707 0
M  V30 347 H 33.5172 0.423332 4.19268 0
M  V30 348 H 32.2412 -0.379213 3.24391 0
M  V30 349 H 30.9002 1.75316 3.21963 0
M  V30 350 H 30.5482 0.063518 5.0296 0
M  V30 351 H 30.2482 1.71754 5.61938 0
M  V30 352 H 31.7722 0.886066 6.04137 0
M  V30 353 H 33.1862 2.88153 4.95622 0
M  V30 354 H 31.5832 3.64903 4.76409 0
M  V30 355 H 32.6532 3.49742 3.3587 0
M  V30 356 N 33.9963 -1.19345 1.0293 0
M  V30 357 C 34.9293 -2.21347 0.555029 0
M  V30 358 C 35.9073 -1.57492 -0.404351 0
M  V30 359 O 37.0913 -1.85741 -0.321352 0
M  V30 360 C 34.2183 -3.38163 -0.19064 0
M  V30 361 C 33.2643 -4.20375 0.720236 0
M  V30 362 S 34.0973 -4.88371 2.19668 0
M  V30 363 C 35.2533 -6.08597 1.46153 0
M  V30 364 H 35.4863 -2.61235 1.41929 0
M  V30 365 H 33.0193 -1.29598 0.839272 0
M  V30 366 H 34.9773 -4.05871 -0.614724 0
M  V30 367 H 33.6383 -2.9671 -1.03063 0
M  V30 368 H 32.8313 -5.03793 0.14455 0
M  V30 369 H 32.4333 -3.57987 1.08266 0
M  V30 370 H 34.7253 -6.73354 0.748357 0
M  V30 371 H 35.6683 -6.7065 2.27233 0
M  V30 372 H 36.0763 -5.56297 0.958842 0
M  V30 373 N 35.4744 -0.807222 -1.35358 0
M  V30 374 C 36.6994 -0.399309 -2.0352 0
M  V30 375 C 37.1244 0.981986 -1.60433 0
M  V30 376 O 36.4824 1.63601 -0.781299 0
M  V30 377 C 36.5304 -0.491552 -3.57234 0
M  V30 378 O 35.6344 0.494754 -4.09421 0
M  V30 379 H 34.9754 -0.166682 -0.642739 0
M  V30 380 H 37.5054 -1.09328 -1.72941 0
M  V30 381 H 37.5154 -0.361588 -4.06395 0
M  V30 382 H 36.1904 -1.49907 -3.87944 0
M  V30 383 H 34.7674 0.324977 -3.71481 0
M  V30 384 N 36.9525 1.47285 -0.560781 0
M  V30 385 C 38.1985 2.03347 -0.0463654 0
M  V30 386 C 38.5535 1.42702 1.2905 0
M  V30 387 O 37.8465 0.574619 1.8278 0
M  V30 388 C 38.0405 3.57258 0.100784 0
M  V30 389 C 37.8695 4.32827 -1.22027 0
M  V30 390 C 36.6395 4.72588 -1.78854 0
M  V30 391 C 38.8375 4.67739 -2.13834 0
M  V30 392 N 36.8195 5.32816 -3.04927 0
M  V30 393 C 38.1905 5.28307 -3.24487 0
M  V30 394 C 40.2455 4.49667 -2.13784 0
M  V30 395 C 38.9485 5.72711 -4.35194 0
M  V30 396 C 40.9745 4.95073 -3.23506 0
M  V30 397 C 40.3365 5.55693 -4.32879 0
M  V30 398 H 36.4355 0.779755 -0.0592166 0
M  V30 399 H 39.0195 1.79723 -0.748857 0
M  V30 400 H 37.1905 3.80642 0.772404 0
M  V30 401 H 38.9225 3.9996 0.617589 0
M  V30 402 H 35.6775 4.54656 -1.32609 0
M  V30 403 H 36.1015 5.67471 -3.69197 0
M  V30 404 H 40.7435 4.02154 -1.30507 0
M  V30 405 H 38.4615 6.19214 -5.1923 0
M  V30 406 H 42.0475 4.82859 -3.24559 0
M  V30 407 H 40.9275 5.90188 -5.1638 0
M  V30 408 N 38.4306 0.297415 1.54768 0
M  V30 409 C 39.3936 -0.567375 2.22066 0
M  V30 410 C 40.3936 -1.06409 1.20556 0
M  V30 411 O 41.5836 -0.960691 1.45315 0
M  V30 412 C 38.7156 -1.78517 2.90421 0
M  V30 413 H 39.9086 0.0205534 2.99893 0
M  V30 414 H 37.4616 0.0482163 1.56226 0
M  V30 415 H 38.1966 -2.41303 2.16664 0
M  V30 416 H 37.9816 -1.43669 3.64831 0
M  V30 417 H 39.4716 -2.39964 3.41771 0
M  V30 418 N 39.9087 -1.5758 0.0250728 0
M  V30 419 C 40.8717 -2.08896 -0.943139 0
M  V30 420 C 41.8717 -1.00321 -1.25668 0
M  V30 421 O 43.0617 -1.26495 -1.19769 0
M  V30 422 C 40.1937 -2.55143 -2.26086 0
M  V30 423 H 41.3867 -2.95723 -0.498775 0
M  V30 424 H 38.9397 -1.54703 -0.222888 0
M  V30 425 H 39.6747 -1.71633 -2.75159 0
M  V30 426 H 39.4597 -3.34461 -2.04641 0
M  V30 427 H 40.9497 -2.95083 -2.95492 0
M  V30 428 N 41.3868 0.248026 -1.55636 0
M  V30 429 C 42.6118 0.998028 -1.81808 0
M  V30 430 C 43.0368 1.78207 -0.601979 0
M  V30 431 O 42.3948 1.75653 0.448961 0
M  V30 432 C 42.4428 1.9125 -3.05705 0
M  V30 433 O 41.5468 3.00406 -2.82542 0
M  V30 434 H 40.8878 0.284045 -0.600179 0
M  V30 435 H 43.4178 0.269357 -2.02819 0
M  V30 436 H 43.4278 2.32737 -3.35108 0
M  V30 437 H 42.1028 1.33602 -3.93857 0
M  V30 438 H 40.6798 2.63056 -2.64303 0
M  V30 439 N 42.8649 1.48995 0.513639 0
M  V30 440 C 44.1129 1.57531 1.26604 0
M  V30 441 C 44.4339 0.258236 1.93283 0
M  V30 442 O 43.7039 -0.721502 1.8213 0
M  V30 443 H 42.2839 0.580387 0.470276 0
M  V30 444 H 44.9459 1.85552 0.596373 0
M  V30 445 H 44.0419 2.36486 2.03669 0
M  V30 446 N 44.343 -0.763751 1.37857 0
M  V30 447 C 45.592 -1.51789 1.32827 0
M  V30 448 C 45.905 -1.95426 -0.0823719 0
M  V30 449 O 47.111 -2.70298 -0.255172 0
M  V30 450 C 45.567 -2.74133 2.33193 0
M  V30 451 C 45.175 -2.37562 3.79827 0
M  V30 452 C 46.919 -3.52054 2.37188 0
M  V30 453 C 44.826 -3.56456 4.71904 0
M  V30 454 H 43.756 -0.569896 0.493695 0
M  V30 455 H 46.407 -0.835822 1.63359 0
M  V30 456 H 44.789 -3.4427 1.9569 0
M  V30 457 H 45.963 -1.75157 4.26212 0
M  V30 458 H 44.278 -1.72798 3.78853 0
M  V30 459 H 46.875 -4.40437 3.03182 0
M  V30 460 H 47.218 -3.92486 1.38782 0
M  V30 461 H 47.751 -2.88921 2.7344 0
M  V30 462 H 44.49 -3.21099 5.71468 0
M  V30 463 H 44.01 -4.17938 4.30218 0
M  V30 464 H 45.689 -4.23168 4.89426 0
M  V30 465 N 45.8211 -1.22559 -0.990812 0
M  V30 466 C 47.0681 -1.05141 -1.73065 0
M  V30 467 C 47.3961 0.413191 -1.9006 0
M  V30 468 O 46.6511 1.32257 -1.44245 0
M  V30 469 C 46.9501 -1.71011 -3.13831 0
M  V30 470 C 46.6161 -3.20911 -3.16745 0
M  V30 471 C 45.2781 -3.61812 -3.17247 0
M  V30 472 C 47.6301 -4.16846 -3.12872 0
M  V30 473 C 44.9581 -4.97127 -3.1158 0
M  V30 474 C 47.3101 -5.5214 -3.08746 0
M  V30 475 C 45.9741 -5.92419 -3.07565 0
M  V30 476 H 45.2441 -0.384738 -0.633291 0
M  V30 477 H 47.8911 -1.5235 -1.16025 0
M  V30 478 H 46.1961 -1.16133 -3.74193 0
M  V30 479 H 47.8931 -1.55023 -3.69823 0
M  V30 480 H 44.4831 -2.88344 -3.17105 0
M  V30 481 H 48.6671 -3.86263 -3.11632 0
M  V30 482 H 43.9231 -5.27562 -3.09012 0
M  V30 483 H 48.0971 -6.26201 -3.04705 0
M  V30 484 H 45.7241 -6.97236 -3.02929 0
M  V30 485 N 47.2992 1.18797 -1.03562 0
M  V30 486 C 48.2492 2.20161 -0.592724 0
M  V30 487 C 49.2332 1.56772 0.362133 0
M  V30 488 O 50.4252 1.76062 0.182009 0
M  V30 489 C 47.5542 3.43266 0.0481024 0
M  V30 490 C 46.6402 4.13786 -0.9296 0
M  V30 491 N 47.0312 4.60388 -2.09467 0
M  V30 492 C 45.3292 4.39572 -0.754499 0
M  V30 493 C 46.0302 5.14619 -2.71187 0
M  V30 494 N 45.0062 5.05826 -1.991 0
M  V30 495 H 48.8082 2.53877 -1.48066 0
M  V30 496 H 46.3222 1.34946 -0.903514 0
M  V30 497 H 48.3192 4.15136 0.383058 0
M  V30 498 H 46.9792 3.11048 0.931636 0
M  V30 499 H 47.9902 4.54999 -2.47379 0
M  V30 500 H 44.6672 4.17425 0.0793713 0
M  V30 501 H 46.0572 5.60917 -3.69895 0
M  V30 502 N 48.7773 0.814389 1.34928 0
M  V30 503 C 50.0233 0.399013 1.98836 0
M  V30 504 C 50.3563 -1.03314 1.64438 0
M  V30 505 O 49.6313 -1.71811 0.911659 0
M  V30 506 C 49.9143 0.591629 3.55207 0
M  V30 507 C 49.7673 2.06928 3.99376 0
M  V30 508 C 51.0863 0.022199 4.40094 0
M  V30 509 H 48.2053 0.146451 0.722303 0
M  V30 510 H 50.8473 1.02537 1.59957 0
M  V30 511 H 48.9973 0.0584441 3.88456 0
M  V30 512 H 50.6693 2.66544 3.76499 0
M  V30 513 H 48.9123 2.56287 3.49999 0
M  V30 514 H 49.5833 2.1549 5.08201 0
M  V30 515 H 52.0593 0.477643 4.13349 0
M  V30 516 H 50.9353 0.186832 5.48582 0
M  V30 517 H 51.1963 -1.07215 4.28902 0
M  V30 518 N 50.2554 -1.46986 0.568584 0
M  V30 519 C 51.5034 -2.02041 0.0487022 0
M  V30 520 C 51.8244 -1.44408 -1.31039 0
M  V30 521 O 51.0944 -0.623477 -1.85714 0
M  V30 522 H 49.6744 -0.746849 0.015014 0
M  V30 523 H 52.3364 -1.80257 0.741168 0
M  V30 524 H 51.4324 -3.12085 -0.0308961 0
M  V30 525 N 51.7335 -0.305618 -1.54608 0
M  V30 526 C 52.9615 0.304775 -2.04643 0
M  V30 527 C 53.3765 1.47167 -1.18268 0
M  V30 528 O 52.7335 1.81296 -0.209328 0
M  V30 529 C 52.7845 0.756564 -3.53495 0
M  V30 530 O 52.5055 -0.36389 -4.36586 0
M  V30 531 C 54.0065 1.43163 -4.19546 0
M  V30 532 H 51.2265 0.0655481 -0.667791 0
M  V30 533 H 53.7705 -0.446592 -1.99564 0
M  V30 534 H 51.9255 1.45794 -3.58919 0
M  V30 535 H 52.3395 -0.0113121 -5.24499 0
M  V30 536 H 53.8135 1.69886 -5.25207 0
M  V30 537 H 54.2905 2.37318 -3.69563 0
M  V30 538 H 54.8965 0.773307 -4.18211 0
M  V30 539 N 53.2116 1.57565 -0.0334293 0
M  V30 540 C 54.4366 1.96689 0.657895 0
M  V30 541 C 54.8616 0.910057 1.64619 0
M  V30 542 O 54.2196 -0.128598 1.80843 0
M  V30 543 C 54.2676 3.34905 1.33683 0
M  V30 544 O 53.3716 3.31574 2.45219 0
M  V30 545 H 52.7126 0.641205 0.172489 0
M  V30 546 H 55.2426 2.04372 -0.0965621 0
M  V30 547 H 55.2526 3.71234 1.69262 0
M  V30 548 H 53.9276 4.11366 0.612411 0
M  V30 549 H 52.5046 3.06968 2.11719 0
M  V30 550 N 54.6897 -0.239769 1.55765 0
M  V30 551 C 55.9377 -0.964892 1.77579 0
M  V30 552 C 56.2587 -1.85582 0.598699 0
M  V30 553 O 55.5287 -1.92075 -0.385226 0
M  V30 554 H 54.1087 -0.359265 0.654933 0
M  V30 555 H 56.7707 -0.256001 1.93211 0
M  V30 556 H 55.8667 -1.58243 2.69009 0
M  V30 557 N 56.1678 -1.49265 -0.50573 0
M  V30 558 C 57.1178 -1.6198 -1.60457 0
M  V30 559 C 58.1018 -0.47568 -1.53708 0
M  V30 560 O 59.2938 -0.728392 -1.61318 0
M  V30 561 C 56.4228 -1.68526 -2.99089 0
M  V30 562 C 55.5088 -2.885 -3.10852 0
M  V30 563 N 55.8998 -4.12635 -2.92517 0
M  V30 564 C 54.1978 -2.86338 -3.41945 0
M  V30 565 C 54.8988 -4.93258 -3.08337 0
M  V30 566 N 53.8748 -4.26533 -3.37003 0
M  V30 567 H 57.6768 -2.55681 -1.44928 0
M  V30 568 H 55.1908 -1.45972 -0.711752 0
M  V30 569 H 57.1878 -1.75732 -3.78053 0
M  V30 570 H 55.8478 -0.759584 -3.1569 0
M  V30 571 H 56.8588 -4.42689 -2.68787 0
M  V30 572 H 53.5358 -2.03129 -3.64753 0
M  V30 573 H 54.9258 -6.01856 -2.98695 0
M  V30 574 N 57.6459 0.756429 -1.3826 0
M  V30 575 C 58.8939 1.51248 -1.34047 0
M  V30 576 C 59.2149 1.94875 0.0698372 0
M  V30 577 O 58.4849 1.67436 1.01696 0
M  V30 578 H 57.0649 0.561018 -0.493222 0
M  V30 579 H 59.7269 0.899347 -1.7291 0
M  V30 580 H 58.8229 2.40472 -1.98947 0
M  V30 581 N 59.124 1.23083 0.984299 0
M  V30 582 C 60.087 1.00979 2.05757 0
M  V30 583 C 61.087 -0.0269573 1.60777 0
M  V30 584 O 62.277 0.212403 1.729 0
M  V30 585 C 59.409 0.527072 3.36801 0
M  V30 586 H 60.602 1.9622 2.26799 0
M  V30 587 H 58.155 1.05072 1.15714 0
M  V30 588 H 58.89 -0.429294 3.21446 0
M  V30 589 H 58.675 1.27515 3.70786 0
M  V30 590 H 60.165 0.392942 4.15747 0
M  V30 591 N 60.6021 -1.18246 1.0419 0
M  V30 592 C 61.5121 -2.25574 0.644476 0
M  V30 593 C 62.5281 -1.70845 -0.329826 0
M  V30 594 O 63.7041 -2.00554 -0.184443 0
M  V30 595 C 60.7691 -3.46697 0.014877 0
M  V30 596 C 59.8301 -4.16554 1.03834 0
M  V30 597 C 59.0631 -5.31894 0.438692 0
M  V30 598 O 59.2861 -5.65385 -0.754752 0
M  V30 599 O 58.2201 -5.90459 1.168 0
M  V30 600 H 62.0461 -2.61836 1.53869 0
M  V30 601 H 59.6311 -1.25352 0.812854 0
M  V30 602 H 61.5131 -4.20062 -0.335538 0
M  V30 603 H 60.1881 -3.12255 -0.853138 0
M  V30 604 H 59.0951 -3.45251 1.44057 0
M  V30 605 H 60.4281 -4.54998 1.87716 0
M  V30 606 N 62.0802 -0.821533 -1.34494 0
M  V30 607 C 63.3282 -0.408139 -1.97936 0
M  V30 608 C 63.6492 1.03193 -1.65457 0
M  V30 609 O 62.9192 1.71622 -0.944595 0
M  V30 610 H 61.4992 -0.147928 -0.732206 0
M  V30 611 H 64.1612 -1.05067 -1.64155 0
M  V30 612 H 63.2572 -0.52601 -3.07635 0
M  V30 613 N 63.5583 1.46682 -0.576371 0
M  V30 614 C 64.4683 2.34032 0.163141 0
M  V30 615 C 65.4843 1.49367 0.892501 0
M  V30 616 O 66.6603 1.82252 0.857106 0
M  V30 617 C 63.7253 3.26435 1.16795 0
M  V30 618 C 62.7863 4.26998 0.443944 0
M  V30 619 C 62.0193 5.14986 1.40088 0
M  V30 620 O 62.2423 5.05785 2.637 0
M  V30 621 O 61.1763 5.94906 0.914917 0
M  V30 622 H 65.0023 2.98607 -0.55388 0
M  V30 623 H 62.5873 1.45554 -0.336821 0
M  V30 624 H 64.4693 3.83459 1.74748 0
M  V30 625 H 63.1443 2.64465 1.86655 0
M  V30 626 H 62.0513 3.7368 -0.177271 0
M  V30 627 H 63.3843 4.91736 -0.213566 0
M  V30 628 N 65.0364 0.313813 1.54444 0
M  V30 629 C 65.9464 -0.565714 2.27677 0
M  V30 630 C 66.9624 -1.13754 1.31666 0
M  V30 631 O 68.1384 -1.15959 1.64668 0
M  V30 632 C 65.2034 -1.71528 3.01296 0
M  V30 633 C 64.2644 -1.17624 4.12872 0
M  V30 634 C 63.4974 -2.27102 4.8297 0
M  V30 635 O 63.7204 -3.47256 4.52514 0
M  V30 636 O 62.6544 -1.9307 5.70094 0
M  V30 637 H 66.4804 0.0287296 3.03686 0
M  V30 638 H 64.0654 0.0798312 1.49187 0
M  V30 639 H 65.9474 -2.38476 3.4743 0
M  V30 640 H 64.6224 -2.29608 2.2817 0
M  V30 641 H 63.5294 -0.472124 3.71109 0
M  V30 642 H 64.8624 -0.640695 4.88012 0
M  V30 643 N 66.5145 -1.57545 0.0417849 0
M  V30 644 C 67.4645 -2.07483 -0.945247 0
M  V30 645 C 68.4485 -0.977983 -1.27767 0
M  V30 646 O 69.6405 -1.24142 -1.26166 0
M  V30 647 C 66.7695 -2.61576 -2.22335 0
M  V30 648 C 65.8555 -3.78213 -1.91874 0
M  V30 649 N 66.2465 -4.88344 -1.31733 0
M  V30 650 C 64.5445 -3.8694 -2.21796 0
M  V30 651 C 65.2455 -5.69462 -1.1869 0
M  V30 652 N 64.2215 -5.16771 -1.68666 0
M  V30 653 H 68.0235 -2.90029 -0.475441 0
M  V30 654 H 65.5375 -1.61581 -0.162911 0
M  V30 655 H 67.5345 -2.95651 -2.93932 0
M  V30 656 H 66.1945 -1.80465 -2.69931 0
M  V30 657 H 67.2055 -5.08335 -0.990729 0
M  V30 658 H 63.8825 -3.16757 -2.71977 0
M  V30 659 H 65.2725 -6.68023 -0.720793 0
M  V30 660 N 67.9926 0.231505 -1.5589 0
M  V30 661 C 68.9556 1.27028 -1.90779 0
M  V30 662 C 69.9556 1.40308 -0.785507 0
M  V30 663 O 71.1456 1.38744 -1.05336 0
M  V30 664 C 68.2776 2.64566 -2.14983 0
M  V30 665 H 69.4706 0.973017 -2.83677 0
M  V30 666 H 67.0236 0.471486 -1.49019 0
M  V30 667 H 67.7586 2.99406 -1.24604 0
M  V30 668 H 67.5436 2.56305 -2.96732 0
M  V30 669 H 69.0336 3.39543 -2.43105 0
M  V30 670 N 69.4707 1.49531 0.497807 0
M  V30 671 C 70.4027 1.62559 1.61578 0
M  V30 672 C 71.4157 0.508134 1.54667 0
M  V30 673 O 72.6047 0.780309 1.60541 0
M  V30 674 C 69.7047 1.56925 3.00379 0
M  V30 675 C 68.8777 2.84257 3.3244 0
M  V30 676 C 67.9367 2.71632 4.50669 0
M  V30 677 O 66.9627 3.4557 4.52294 0
M  V30 678 N 68.1647 1.83391 5.5077 0
M  V30 679 H 70.9297 2.58981 1.50828 0
M  V30 680 H 68.4907 1.4666 0.685743 0
M  V30 681 H 70.4827 1.46129 3.77397 0
M  V30 682 H 69.0527 0.683483 3.05037 0
M  V30 683 H 68.2727 3.09381 2.44289 0
M  V30 684 H 69.5607 3.68666 3.5066 0
M  V30 685 H 68.9587 1.22583 5.52259 0
M  V30 686 H 67.5157 1.78515 6.26878 0
M  V30 687 N 70.9488 -0.749086 1.3866 0
M  V30 688 C 71.9118 -1.84457 1.36045 0
M  V30 689 C 72.9118 -1.58682 0.260122 0
M  V30 690 O 74.1018 -1.66343 0.517261 0
M  V30 691 C 71.2338 -3.22008 1.11911 0
M  V30 692 H 72.4268 -1.88182 2.33512 0
M  V30 693 H 69.9798 -0.951266 1.24019 0
M  V30 694 H 70.7148 -3.2395 0.150686 0
M  V30 695 H 70.4998 -3.42111 1.91579 0
M  V30 696 H 71.9898 -4.0208 1.12788 0
M  V30 697 N 72.4269 -1.23603 -0.977757 0
M  V30 698 C 73.6569 -1.09487 -1.75203 0
M  V30 699 C 74.0649 0.356321 -1.85814 0
M  V30 700 O 73.4079 1.25816 -1.33851 0
M  V30 701 C 73.4699 -1.64905 -3.19447 0
M  V30 702 C 73.1339 -3.13688 -3.32338 0
M  V30 703 C 74.1309 -4.10953 -3.18455 0
M  V30 704 C 71.8159 -3.53449 -3.56902 0
M  V30 705 C 73.8099 -5.45962 -3.28944 0
M  V30 706 C 71.4969 -4.88602 -3.6703 0
M  V30 707 C 72.4949 -5.84668 -3.53062 0
M  V30 708 O 72.1829 -7.17365 -3.62826 0
M  V30 709 H 71.9149 -0.38367 -0.556573 0
M  V30 710 H 74.4689 -1.6398 -1.23693 0
M  V30 711 H 72.6989 -1.04835 -3.72218 0
M  V30 712 H 74.3879 -1.46226 -3.78646 0
M  V30 713 H 75.1539 -3.81577 -2.99372 0
M  V30 714 H 71.0329 -2.79188 -3.66844 0
M  V30 715 H 74.5769 -6.20925 -3.17958 0
M  V30 716 H 70.4739 -5.17653 -3.85623 0
M  V30 717 H 71.2419 -7.2515 -3.79605 0
M  V30 718 N 73.905 1.17692 -1.04816 0
M  V30 719 C 75.133 1.91786 -0.776254 0
M  V30 720 C 75.548 1.76604 0.667577 0
M  V30 721 O 74.905 1.10067 1.45573 0
M  V30 722 C 74.956 3.42967 -1.14263 0
M  V30 723 O 74.677 3.57678 -2.52978 0
M  V30 724 C 76.178 4.34144 -0.896311 0
M  V30 725 H 73.398 0.608624 -0.282519 0
M  V30 726 H 75.942 1.49268 -1.39783 0
M  V30 727 H 74.097 3.83245 -0.565874 0
M  V30 728 H 74.511 4.51319 -2.67229 0
M  V30 729 H 75.985 5.38744 -1.20244 0
M  V30 730 H 76.462 4.38876 0.168636 0
M  V30 731 H 77.068 3.99574 -1.45672 0
M  V30 732 N 75.3831 0.828654 1.34056 0
M  V30 733 C 76.6131 0.431993 2.02033 0
M  V30 734 C 77.0211 -0.96844 1.62536 0
M  V30 735 O 76.3641 -1.6391 0.829408 0
M  V30 736 C 76.4261 0.461224 3.56529 0
M  V30 737 C 76.0901 1.81599 4.1937 0
M  V30 738 C 77.0871 2.7777 4.39477 0
M  V30 739 C 74.7721 2.10604 4.56017 0
M  V30 740 C 76.7661 4.01115 4.95364 0
M  V30 741 C 74.4531 3.34207 5.11614 0
M  V30 742 C 75.4511 4.2928 5.31232 0
M  V30 743 O 75.1391 5.50699 5.8565 0
M  V30 744 H 74.8711 0.170943 0.654029 0
M  V30 745 H 77.4251 1.11988 1.72185 0
M  V30 746 H 75.6551 -0.283388 3.8566 0
M  V30 747 H 77.3441 0.0838149 4.05813 0
M  V30 748 H 78.1101 2.56659 4.11523 0
M  V30 749 H 73.9891 1.37402 4.40047 0
M  V30 750 H 77.5331 4.75333 5.10592 0
M  V30 751 H 73.4301 3.55179 5.38997 0
M  V30 752 H 74.1981 5.52298 6.04077 0
M  V30 753 N 76.8612 -1.46375 0.584142 0
M  V30 754 C 78.2722 -1.86031 0.157959 0
M  V30 755 C 78.6232 -1.48753 -1.27933 0
M  V30 756 O 77.7482 -0.903098 -1.96655 0
M  V30 757 C 78.3432 -3.37642 0.279892 0
M  V30 758 C 76.9022 -3.76289 -0.09143 0
M  V30 759 C 76.0492 -2.7039 0.615178 0
M  V30 760 H 79.0002 -1.37509 0.792274 0
M  V30 761 H 79.0212 -3.77275 -0.494364 0
M  V30 762 H 78.5332 -3.64742 1.32607 0
M  V30 763 H 76.6342 -3.54806 -1.13769 0
M  V30 764 H 76.7472 -4.78246 0.285886 0
M  V30 765 H 75.1112 -2.5464 0.0552833 0
M  V30 766 H 75.8942 -3.0033 1.66303 0
M  V30 767 N 78.3393 -0.321999 -1.54275 0
M  V30 768 C 79.5853 0.281461 -2.00837 0
M  V30 769 C 79.9183 1.51909 -1.20985 0
M  V30 770 O 79.1933 1.923 -0.291733 0
M  V30 771 C 79.4763 0.617162 -3.54772 0
M  V30 772 C 79.3293 -0.631064 -4.45351 0
M  V30 773 C 80.6483 1.43542 -4.16033 0
M  V30 774 H 77.7673 0.100826 -0.730071 0
M  V30 775 H 80.4093 -0.438268 -1.84876 0
M  V30 776 H 78.5593 1.23034 -3.68504 0
M  V30 777 H 80.2313 -1.26934 -4.43492 0
M  V30 778 H 78.4743 -1.26025 -4.15091 0
M  V30 779 H 79.1453 -0.351735 -5.50878 0
M  V30 780 H 81.6213 0.917134 -4.05867 0
M  V30 781 H 80.4973 1.63907 -5.23856 0
M  V30 782 H 80.7583 2.43108 -3.69257 0
M  V30 783 N 79.8174 1.5752 -0.0501392 0
M  V30 784 C 80.7274 2.14952 0.939827 0
M  V30 785 C 81.7434 1.10706 1.34239 0
M  V30 786 O 82.9194 1.42869 1.41952 0
M  V30 787 C 79.9844 2.68232 2.19665 0
M  V30 788 C 79.0454 3.87272 1.85253 0
M  V30 789 C 78.2784 4.38002 3.04943 0
M  V30 790 O 78.5014 3.87811 4.18281 0
M  V30 791 O 77.4354 5.29602 2.86017 0
M  V30 792 H 81.2614 2.9986 0.481392 0
M  V30 793 H 78.8464 1.4841 0.171699 0
M  V30 794 H 80.7284 3.02475 2.93406 0
M  V30 795 H 79.4034 1.86395 2.64648 0
M  V30 796 H 78.3104 3.5792 1.0883 0
M  V30 797 H 79.6434 4.70336 1.4507 0
M  V30 798 N 81.2955 -0.223234 1.56011 0
M  V30 799 C 82.5205 -0.968978 1.83373 0
M  V30 800 C 82.9455 -1.77227 0.630254 0
M  V30 801 O 82.3035 -1.76345 -0.420959 0
M  V30 802 C 82.3515 -1.86363 3.08709 0
M  V30 803 O 81.4555 -2.95873 2.87285 0
M  V30 804 H 80.7965 -0.274461 0.604622 0
M  V30 805 H 83.3265 -0.237056 2.03222 0
M  V30 806 H 83.3365 -2.27376 3.38768 0
M  V30 807 H 82.0115 -1.27319 3.95933 0
M  V30 808 H 80.5885 -2.58818 2.68454 0
M  V30 809 N 82.7736 -1.49793 -0.48987 0
M  V30 810 C 83.7366 -1.66752 -1.57246 0
M  V30 811 C 84.7366 -0.538867 -1.51502 0
M  V30 812 O 85.9266 -0.805545 -1.54456 0
M  V30 813 C 83.0586 -1.67528 -2.96896 0
M  V30 814 H 84.2516 -2.63321 -1.43534 0
M  V30 815 H 81.8046 -1.38992 -0.714914 0
M  V30 816 H 82.5396 -0.725837 -3.16073 0
M  V30 817 H 82.3246 -2.49504 -3.02473 0
M  V30 818 H 83.8146 -1.82667 -3.7553 0
M  V30 819 N 84.2517 0.741722 -1.39055 0
M  V30 820 C 85.4997 1.49818 -1.35643 0
M  V30 821 C 85.8207 1.94938 0.0491642 0
M  V30 822 O 85.0907 1.68505 0.999141 0
M  V30 823 H 83.6707 0.555755 -0.499144 0
M  V30 824 H 86.3327 0.880957 -1.73854 0
M  V30 825 H 85.4287 2.38348 -2.01486 0
M  V30 826 N 85.7298 1.2412 0.971189 0
M  V30 827 C 86.9778 1.07668 1.71032 0
M  V30 828 C 87.2988 -0.385797 1.91146 0
M  V30 829 O 86.5688 -1.27569 1.4867 0
M  V30 830 H 85.1488 0.395429 0.633755 0
M  V30 831 H 87.8108 1.55984 1.16855 0
M  V30 832 H 86.9068 1.57195 2.69622 0
M  V30 833 N 87.2079 -1.17134 1.05439 0
M  V30 834 C 88.1709 -2.19439 0.661764 0
M  V30 835 C 89.1709 -1.58199 -0.288042 0
M  V30 836 O 90.3609 -1.74053 -0.0715803 0
M  V30 837 C 87.4929 -3.40889 -0.0276209 0
M  V30 838 H 88.6859 -2.55688 1.56728 0
M  V30 839 H 86.2389 -1.31259 0.848567 0
M  V30 840 H 86.9739 -3.10187 -0.94629 0
M  V30 841 H 86.7589 -3.86586 0.655238 0
M  V30 842 H 88.2489 -4.16603 -0.288342 0
M  V30 843 N 88.686 -0.835752 -1.33615 0
M  V30 844 C 89.596 -0.269088 -2.33052 0
M  V30 845 C 90.612 0.603251 -1.63208 0
M  V30 846 O 91.788 0.508112 -1.94885 0
M  V30 847 C 88.853 0.549091 -3.42324 0
M  V30 848 C 87.914 -0.347156 -4.27894 0
M  V30 849 C 87.147 0.43207 -5.31948 0
M  V30 850 O 87.37 1.66409 -5.45586 0
M  V30 851 O 86.304 -0.192298 -6.01593 0
M  V30 852 H 90.13 -1.09243 -2.83372 0
M  V30 853 H 87.715 -0.598198 -1.36901 0
M  V30 854 H 89.597 1.01414 -4.09015 0
M  V30 855 H 88.272 1.34955 -2.94226 0
M  V30 856 H 87.179 -0.859979 -3.64081 0
M  V30 857 H 88.512 -1.1123 -4.79467 0
M  V30 858 N 90.1641 1.46063 -0.591896 0
M  V30 859 C 91.4121 2.01938 -0.0808391 0
M  V30 860 C 91.7331 1.46475 1.28725 0
M  V30 861 O 91.0031 0.652944 1.84698 0
M  V30 862 H 89.5831 0.746516 -0.0268938 0
M  V30 863 H 92.2451 1.79055 -0.769752 0
M  V30 864 H 91.3411 3.12094 -0.0187578 0
M  V30 865 N 91.6422 0.330177 1.54103 0
M  V30 866 C 92.5522 -0.541534 2.28264 0
M  V30 867 C 93.5682 -1.12351 1.32866 0
M  V30 868 O 94.7442 -1.14206 1.65888 0
M  V30 869 C 91.8092 -1.68322 3.03098 0
M  V30 870 C 90.8702 -1.13238 4.14096 0
M  V30 871 C 90.1032 -2.21966 4.85352 0
M  V30 872 O 90.3262 -3.42437 4.56172 0
M  V30 873 O 89.2602 -1.87013 5.7211 0
M  V30 874 H 93.0862 0.060938 3.03639 0
M  V30 875 H 90.6712 0.09565 1.49093 0
M  V30 876 H 92.5532 -2.34777 3.49939 0
M  V30 877 H 91.2282 -2.27176 2.30593 0
M  V30 878 H 90.1352 -0.432736 3.71589 0
M  V30 879 H 91.4682 -0.588898 4.88664 0
M  V30 880 N 93.1203 -1.57491 0.0584922 0
M  V30 881 C 94.0833 -2.1085 -0.898617 0
M  V30 882 C 95.0833 -1.02964 -1.23511 0
M  V30 883 O 96.2733 -1.29007 -1.17059 0
M  V30 884 C 93.4053 -2.59881 -2.20623 0
M  V30 885 H 94.5983 -2.96715 -0.435936 0
M  V30 886 H 92.1513 -1.55141 -0.190023 0
M  V30 887 H 92.8863 -1.77431 -2.71457 0
M  V30 888 H 92.6713 -3.38727 -1.97501 0
M  V30 889 H 94.1613 -3.01285 -2.89166 0
M  V30 890 N 94.5984 0.214957 -1.56127 0
M  V30 891 C 95.8444 0.939762 -1.79712 0
M  V30 892 C 96.1774 1.83723 -0.629247 0
M  V30 893 O 95.4524 1.90925 0.371197 0
M  V30 894 C 95.7354 1.77306 -3.13424 0
M  V30 895 C 95.5884 0.90164 -4.40671 0
M  V30 896 C 96.9074 2.74956 -3.43638 0
M  V30 897 H 94.0264 0.340214 -0.653776 0
M  V30 898 H 96.6684 0.20824 -1.88855 0
M  V30 899 H 94.8184 2.39673 -3.0576 0
M  V30 900 H 96.4904 0.294206 -4.60361 0
M  V30 901 H 94.7334 0.207368 -4.33304 0
M  V30 902 H 95.4044 1.51923 -5.30682 0
M  V30 903 H 97.8804 2.22724 -3.51473 0
M  V30 904 H 96.7564 3.30358 -4.38355 0
M  V30 905 H 97.0174 3.53023 -2.66134 0
M  V30 906 N 96.0765 1.50051 0.48192 0
M  V30 907 C 97.3535 1.51009 1.2432 0
M  V30 908 C 97.7335 0.248587 2.09631 0
M  V30 909 O 97.0815 -0.768409 2.15192 0
M  V30 910 C 97.2915 2.79981 2.08355 0
M  V30 911 C 98.6395 3.3022 2.66908 0
M  V30 912 O 99.6635 2.81228 2.18607 0
M  V30 913 O 98.5225 4.15595 3.54884 0
M  V30 914 H 95.6165 0.605239 0.563573 0
M  V30 915 H 98.1625 1.62332 0.494627 0
M  V30 916 H 96.9345 3.63275 1.45419 0
M  V30 917 H 96.5575 2.7161 2.90368 0
M  V30 918 N 97.5546 -0.734337 1.39446 0
M  V30 919 C 98.4646 -1.87879 1.40495 0
M  V30 920 C 99.4806 -1.714 0.299672 0
M  V30 921 O 100.657 -1.93991 0.541249 0
M  V30 922 C 97.7216 -3.23477 1.24754 0
M  V30 923 C 96.7826 -3.52344 2.45259 0
M  V30 924 C 96.0156 -4.81473 2.30259 0
M  V30 925 O 96.2386 -5.55237 1.30643 0
M  V30 926 O 95.1726 -5.10254 3.19256 0
M  V30 927 H 98.9986 -1.89949 2.36966 0
M  V30 928 H 96.5836 -0.882243 1.20569 0
M  V30 929 H 98.4656 -4.04509 1.18111 0
M  V30 930 H 97.1406 -3.22176 0.313781 0
M  V30 931 H 96.0476 -2.71396 2.57478 0
M  V30 932 H 97.3806 -3.58426 3.37331 0
M  V30 933 N 99.0327 -1.24633 -0.964593 0
M  V30 934 C 100.281 -1.08573 -1.70459 0
M  V30 935 C 100.602 0.375655 -1.91347 0
M  V30 936 O 99.8717 1.26779 -1.49345 0
M  V30 937 H 98.4517 -0.398784 -0.631649 0
M  V30 938 H 101.114 -1.56601 -1.16026 0
M  V30 939 H 100.21 -1.58623 -2.68785 0
M  V30 940 N 100.511 1.16574 -1.06058 0
M  V30 941 C 101.922 1.68662 -0.800632 0
M  V30 942 C 102.273 1.84184 0.67608 0
M  V30 943 O 101.398 1.53568 1.52466 0
M  V30 944 C 101.993 3.06356 -1.44676 0
M  V30 945 C 100.552 3.55575 -1.23465 0
M  V30 946 C 99.6988 2.31616 -1.52477 0
M  V30 947 H 102.65 1.00969 -1.22438 0
M  V30 948 H 102.671 3.70636 -0.860788 0
M  V30 949 H 102.183 2.95027 -2.52152 0
M  V30 950 H 100.284 3.72167 -0.179527 0
M  V30 951 H 100.397 4.37812 -1.94571 0
M  V30 952 H 98.7608 2.36512 -0.945209 0
M  V30 953 H 99.5438 2.22887 -2.61106 0
M  V30 954 N 101.989 0.842826 1.3317 0
M  V30 955 C 103.266 0.362216 1.92217 0
M  V30 956 C 103.646 -1.15289 1.76838 0
M  V30 957 O 102.994 -1.96914 1.15919 0
M  V30 958 C 103.204 0.813495 3.39387 0
M  V30 959 C 104.552 0.823804 4.16532 0
M  V30 960 O 105.576 0.757358 3.48055 0
M  V30 961 O 104.435 0.915193 5.38782 0
M  V30 962 H 101.529 0.103317 0.820521 0
M  V30 963 H 104.075 0.928942 1.42017 0
M  V30 964 H 102.847 1.85624 3.4447 0
M  V30 965 H 102.47 0.223561 3.96971 0
M  V30 966 N 103.467 -1.45747 0.599634 0
M  V30 967 C 104.714 -2.02292 0.0917284 0
M  V30 968 C 105.042 -1.46906 -1.27472 0
M  V30 969 O 104.297 -0.630652 -1.8526 0
M  V30 970 C 104.596 -3.57399 -0.00602758 0
M  V30 971 C 104.262 -4.31902 1.29503 0
M  V30 972 C 102.924 -4.51974 1.65144 0
M  V30 973 C 105.276 -4.74551 2.15525 0
M  V30 974 C 102.604 -5.11949 2.86574 0
M  V30 975 C 104.956 -5.35868 3.36196 0
M  V30 976 C 103.62 -5.54165 3.72099 0
M  V30 977 H 102.89 -0.740239 0.0335658 0
M  V30 978 H 105.537 -1.7491 0.779661 0
M  V30 979 H 103.842 -3.84014 -0.777183 0
M  V30 980 H 105.539 -3.98846 -0.415038 0
M  V30 981 H 102.129 -4.16588 1.00761 0
M  V30 982 H 106.313 -4.58784 1.8929 0
M  V30 983 H 101.569 -5.24305 3.14507 0
M  V30 984 H 105.743 -5.6787 4.03109 0
M  V30 985 H 103.37 -6.00406 4.6628 0
M  V30 986 N 104.945 -0.338344 -1.53925 0
M  V30 987 C 105.908 0.508299 -2.23493 0
M  V30 988 C 106.908 1.03175 -1.23335 0
M  V30 989 O 108.098 0.921826 -1.47811 0
M  V30 990 C 105.23 1.70754 -2.95052 0
M  V30 991 H 106.423 -0.100058 -2.99733 0
M  V30 992 H 103.976 -0.0896198 -1.56043 0
M  V30 993 H 104.711 2.35474 -2.22986 0
M  V30 994 H 104.496 1.33946 -3.68512 0
M  V30 995 H 105.986 2.30818 -3.48013 0
M  V30 996 N 106.423 1.57458 -0.0668435 0
M  V30 997 C 107.651 1.97624 0.612565 0
M  V30 998 C 108.066 0.94502 1.63447 0
M  V30 999 O 107.423 -0.0689276 1.8237 0
M  V30 1000 C 107.474 3.37869 1.28555 0
M  V30 1001 O 107.195 4.3704 0.304557 0
M  V30 1002 C 108.696 3.92882 2.05325 0
M  V30 1003 H 105.916 0.650045 0.166381 0
M  V30 1004 H 108.46 2.04035 -0.137782 0
M  V30 1005 H 106.615 3.3256 1.98702 0
M  V30 1006 H 107.029 5.18565 0.786779 0
M  V30 1007 H 108.503 4.93247 2.47812 0
M  V30 1008 H 108.98 3.29156 2.9078 0
M  V30 1009 H 109.586 4.01577 1.40056 0
M  V30 1010 N 107.901 -0.206675 1.56239 0
M  V30 1011 C 109.147 -0.930218 1.80208 0
M  V30 1012 C 109.48 -1.83387 0.638981 0
M  V30 1013 O 108.755 -1.91119 -0.361066 0
M  V30 1014 C 109.038 -1.75641 3.1436 0
M  V30 1015 C 108.891 -0.878257 4.41142 0
M  V30 1016 C 110.21 -2.73129 3.45092 0
M  V30 1017 H 107.329 -0.336742 0.655571 0
M  V30 1018 H 109.971 -0.198222 1.88963 0
M  V30 1019 H 108.121 -2.38048 3.07027 0
M  V30 1020 H 109.793 -0.269787 4.6051 0
M  V30 1021 H 108.036 -0.184385 4.33408 0
M  V30 1022 H 108.707 -1.49106 5.3148 0
M  V30 1023 H 111.183 -2.20856 3.52649 0
M  V30 1024 H 110.059 -3.28028 4.40101 0
M  V30 1025 H 110.32 -3.51606 2.68003 0
M  V30 1026 N 109.379 -1.50304 -0.473955 0
M  V30 1027 C 110.309 -1.71886 -1.58042 0
M  V30 1028 C 111.29 -0.567799 -1.60344 0
M  V30 1029 O 112.475 -0.806623 -1.76656 0
M  V30 1030 C 109.605 -1.81036 -2.96384 0
M  V30 1031 C 108.559 -2.962 -3.08949 0
M  V30 1032 C 107.885 -2.9049 -4.48909 0
M  V30 1033 C 109.185 -4.36752 -2.86434 0
M  V30 1034 H 110.879 -2.64527 -1.40234 0
M  V30 1035 H 108.425 -1.27295 -0.673201 0
M  V30 1036 H 110.378 -1.94719 -3.73714 0
M  V30 1037 H 109.102 -0.850147 -3.15341 0
M  V30 1038 H 107.761 -2.82164 -2.3405 0
M  V30 1039 H 107.409 -1.92321 -4.64781 0
M  V30 1040 H 107.109 -3.67802 -4.58253 0
M  V30 1041 H 108.633 -3.06218 -5.28264 0
M  V30 1042 H 110.047 -4.5133 -3.53517 0
M  V30 1043 H 108.444 -5.15493 -3.07225 0
M  V30 1044 H 109.514 -4.49321 -1.82316 0
M  V30 1045 N 110.857 0.726932 -1.39834 0
M  V30 1046 C 111.82 1.82269 -1.38962 0
M  V30 1047 C 112.82 1.58248 -0.285334 0
M  V30 1048 O 114.01 1.65499 -0.54366 0
M  V30 1049 C 111.142 3.20186 -1.17019 0
M  V30 1050 H 112.335 1.84443 -2.36476 0
M  V30 1051 H 109.888 0.931416 -1.25516 0
M  V30 1052 H 110.623 3.23669 -0.202204 0
M  V30 1053 H 110.408 3.3902 -1.96998 0
M  V30 1054 H 111.898 4.00235 -1.1917 0
M  V30 1055 N 112.336 1.25143 0.95797 0
M  V30 1056 C 113.561 1.12521 1.74223 0
M  V30 1057 C 113.986 -0.317402 1.85403 0
M  V30 1058 O 113.344 -1.2299 1.33204 0
M  V30 1059 C 113.392 1.78062 3.1357 0
M  V30 1060 O 112.496 1.058 3.98598 0
M  V30 1061 H 111.837 0.39304 0.535178 0
M  V30 1062 H 114.367 1.65641 1.201 0
M  V30 1063 H 114.377 1.84213 3.64046 0
M  V30 1064 H 113.052 2.83021 3.04749 0
M  V30 1065 H 111.629 1.07506 3.57067 0
M  V30 1066 N 113.814 -1.1601 1.06675 0
M  V30 1067 C 114.777 -2.18724 0.685001 0
M  V30 1068 C 115.777 -1.58496 -0.271246 0
M  V30 1069 O 116.967 -1.74119 -0.0531156 0
M  V30 1070 C 114.099 -3.40899 0.00853648 0
M  V30 1071 H 115.292 -2.54011 1.59431 0
M  V30 1072 H 112.845 -1.30352 0.862441 0
M  V30 1073 H 113.58 -3.11173 -0.913337 0
M  V30 1074 H 113.365 -3.8587 0.696204 0
M  V30 1075 H 114.855 -4.16886 -0.24414 0
M  V30 1076 N 115.292 -0.849877 -1.32721 0
M  V30 1077 C 116.569 -0.372405 -1.92022 0
M  V30 1078 C 116.949 1.1435 -1.77447 0
M  V30 1079 O 116.297 1.96296 -1.16962 0
M  V30 1080 C 116.507 -0.831482 -3.3895 0
M  V30 1081 C 117.855 -0.845882 -4.16089 0
M  V30 1082 O 118.879 -0.775806 -3.47649 0
M  V30 1083 O 117.738 -0.943753 -5.38289 0
M  V30 1084 H 114.832 -0.107667 -0.819961 0
M  V30 1085 H 117.378 -0.93646 -1.41522 0
M  V30 1086 H 116.15 -1.87448 -3.4348 0
M  V30 1087 H 115.773 -0.24461 -3.96847 0
M  V30 1088 N 116.77 1.45427 -0.607355 0
M  V30 1089 C 118.181 1.85756 -0.187535 0
M  V30 1090 C 118.532 1.5077 1.25551 0
M  V30 1091 O 117.657 0.93427 1.95193 0
M  V30 1092 C 118.252 3.37154 -0.333572 0
M  V30 1093 C 116.811 3.76387 0.0315542 0
M  V30 1094 C 115.958 2.69377 -0.658117 0
M  V30 1095 H 118.909 1.36231 -0.81405 0
M  V30 1096 H 118.93 3.78014 0.43428 0
M  V30 1097 H 118.442 3.62586 -1.38393 0
M  V30 1098 H 116.543 3.56571 1.0811 0
M  V30 1099 H 116.656 4.77731 -0.361935 0
M  V30 1100 H 115.02 2.5452 -0.0957873 0
M  V30 1101 H 115.803 2.97646 -1.7106 0
M  V30 1102 N 118.248 0.346503 1.53744 0
M  V30 1103 C 119.211 -0.496439 2.23759 0
M  V30 1104 C 120.211 -1.0252 1.2388 0
M  V30 1105 O 121.401 -0.913974 1.48297 0
M  V30 1106 C 118.533 -1.69187 2.95954 0
M  V30 1107 H 119.726 0.115952 2.99676 0
M  V30 1108 H 117.279 0.0978939 1.55993 0
M  V30 1109 H 118.014 -2.34288 2.24231 0
M  V30 1110 H 117.799 -1.31989 3.69217 0
M  V30 1111 H 119.289 -2.28969 3.49232 0
M  V30 1112 N 119.726 -1.57421 0.075193 0
M  V30 1113 C 120.689 -2.11791 -0.876203 0
M  V30 1114 C 121.689 -1.04268 -1.22412 0
M  V30 1115 O 122.879 -1.30242 -1.15684 0
M  V30 1116 C 120.011 -2.62207 -2.17854 0
M  V30 1117 H 121.204 -2.9716 -0.40444 0
M  V30 1118 H 118.757 -1.55333 -0.173557 0
M  V30 1119 H 119.492 -1.803 -2.6956 0
M  V30 1120 H 119.277 -3.40802 -1.93897 0
M  V30 1121 H 120.767 -3.04335 -2.85955 0
M  V30 1122 N 121.204 0.198386 -1.56346 0
M  V30 1123 C 122.452 0.91747 -1.80075 0
M  V30 1124 C 122.773 1.83929 -0.647692 0
M  V30 1125 O 122.043 1.93029 0.334166 0
M  V30 1126 H 120.623 0.341774 -0.664228 0
M  V30 1127 H 123.285 0.204684 -1.93822 0
M  V30 1128 H 122.381 1.51055 -2.7311 0
M  V30 1129 N 122.682 1.50554 0.465978 0
M  V30 1130 C 123.592 1.72585 1.58907 0
M  V30 1131 C 124.608 0.60911 1.6299 0
M  V30 1132 O 125.784 0.88804 1.80765 0
M  V30 1133 C 122.849 1.81995 2.95091 0
M  V30 1134 C 121.91 3.05751 3.01355 0
M  V30 1135 C 121.143 3.14702 4.31043 0
M  V30 1136 O 121.366 2.30313 5.21835 0
M  V30 1137 O 120.3 4.07468 4.43005 0
M  V30 1138 H 124.126 2.67799 1.43239 0
M  V30 1139 H 121.711 1.34711 0.646013 0
M  V30 1140 H 123.593 1.90335 3.75966 0
M  V30 1141 H 122.268 0.899659 3.10947 0
M  V30 1142 H 121.175 3.02908 2.19539 0
M  V30 1143 H 122.508 3.97375 2.90437 0
M  V30 1144 N 124.16 -0.719506 1.40217 0
M  V30 1145 C 125.107 -1.83359 1.40172 0
M  V30 1146 C 126.077 -1.64065 0.259206 0
M  V30 1147 O 127.262 -1.85254 0.456677 0
M  V30 1148 C 124.402 -3.2103 1.26624 0
M  V30 1149 C 123.515 -3.51923 2.50548 0
M  V30 1150 C 122.65 -4.79079 2.29471 0
M  V30 1151 C 121.689 -5.02863 3.48992 0
M  V30 1152 N 120.826 -6.2123 3.27135 0
M  V30 1153 H 125.666 -1.82733 2.35399 0
M  V30 1154 H 123.203 -0.892688 1.16917 0
M  V30 1155 H 125.161 -4.00524 1.16776 0
M  V30 1156 H 123.791 -3.20895 0.350176 0
M  V30 1157 H 122.843 -2.67014 2.70939 0
M  V30 1158 H 124.155 -3.6541 3.39525 0
M  V30 1159 H 123.309 -5.66582 2.16955 0
M  V30 1160 H 122.048 -4.67794 1.37913 0
M  V30 1161 H 121.053 -4.13816 3.6199 0
M  V30 1162 H 122.278 -5.16023 4.41472 0
M  V30 1163 H 120.224 -6.11204 2.38256 0
M  V30 1164 H 120.141 -6.35375 4.09675 0
M  V30 1165 H 121.409 -7.11532 3.18344 0
M  V30 1166 N 125.638 -1.25649 -0.95132 0
M  V30 1167 C 126.884 -1.10757 -1.69884 0
M  V30 1168 C 127.217 0.350061 -1.91019 0
M  V30 1169 O 126.492 1.25783 -1.48354 0
M  V30 1170 C 126.775 -1.86606 -3.07978 0
M  V30 1171 C 126.628 -3.40217 -2.94232 0
M  V30 1172 C 127.947 -1.65182 -4.07925 0
M  V30 1173 H 125.066 -0.40374 -0.616574 0
M  V30 1174 H 127.708 -1.54521 -1.10558 0
M  V30 1175 H 125.858 -1.49409 -3.58621 0
M  V30 1176 H 127.53 -3.87108 -2.50889 0
M  V30 1177 H 125.773 -3.67759 -2.30078 0
M  V30 1178 H 126.444 -3.88505 -3.92133 0
M  V30 1179 H 128.92 -1.9757 -3.66204 0
M  V30 1180 H 127.796 -2.20683 -5.02583 0
M  V30 1181 H 128.057 -0.593933 -4.38092 0
M  V30 1182 N 127.117 1.15442 -1.07289 0
M  V30 1183 C 128.364 1.86213 -0.795668 0
M  V30 1184 C 128.692 1.82291 0.678238 0
M  V30 1185 O 127.947 1.24057 1.51355 0
M  V30 1186 C 128.246 3.3489 -1.24834 0
M  V30 1187 C 127.912 3.59007 -2.72809 0
M  V30 1188 C 126.574 3.65298 -3.13227 0
M  V30 1189 C 128.926 3.68762 -3.68326 0
M  V30 1190 C 126.254 3.78854 -4.4798 0
M  V30 1191 C 128.606 3.83842 -5.0284 0
M  V30 1192 C 127.27 3.88378 -5.4288 0
M  V30 1193 H 126.54 0.681403 -0.291155 0
M  V30 1194 H 129.187 1.36435 -1.34379 0
M  V30 1195 H 127.492 3.8687 -0.619595 0
M  V30 1196 H 129.189 3.88052 -1.01076 0
M  V30 1197 H 125.779 3.5475 -2.40521 0
M  V30 1198 H 129.963 3.63202 -3.38227 0
M  V30 1199 H 125.219 3.80623 -4.78472 0
M  V30 1200 H 129.393 3.90332 -5.76727 0
M  V30 1201 H 127.02 3.98635 -6.47298 0
M  V30 1202 N 128.595 0.856903 1.32268 0
M  V30 1203 C 129.843 0.460474 1.96784 0
M  V30 1204 C 130.164 -0.987701 1.68135 0
M  V30 1205 O 129.434 -1.69058 0.989765 0
M  V30 1206 H 128.014 0.167289 0.728027 0
M  V30 1207 H 130.676 1.09383 1.61312 0
M  V30 1208 H 129.772 0.60739 3.06133 0
M  V30 1209 N 130.073 -1.45103 0.615059 0
M  V30 1210 C 131.02 -2.30586 -0.0993978 0
M  V30 1211 C 131.99 -1.42544 -0.852669 0
M  V30 1212 O 133.175 -1.71465 -0.836917 0
M  V30 1213 C 130.315 -3.27572 -1.08583 0
M  V30 1214 C 129.428 -4.30717 -0.332656 0
M  V30 1215 C 128.563 -5.14807 -1.30947 0
M  V30 1216 C 127.602 -6.09673 -0.544538 0
M  V30 1217 N 126.739 -6.86517 -1.47101 0
M  V30 1218 H 131.579 -2.91144 0.635542 0
M  V30 1219 H 129.116 -1.4346 0.325206 0
M  V30 1220 H 131.074 -3.82276 -1.67095 0
M  V30 1221 H 129.704 -2.68751 -1.78809 0
M  V30 1222 H 128.756 -3.78615 0.368107 0
M  V30 1223 H 130.068 -4.98102 0.263842 0
M  V30 1224 H 129.222 -5.73948 -1.96643 0
M  V30 1225 H 127.961 -4.47458 -1.9399 0
M  V30 1226 H 126.966 -5.49656 0.126003 0
M  V30 1227 H 128.191 -6.79052 0.080947 0
M  V30 1228 H 126.137 -6.21851 -2.08895 0
M  V30 1229 H 126.054 -7.50281 -0.928137 0
M  V30 1230 H 127.322 -7.50194 -2.11731 0
M  V30 1231 N 131.551 -0.354651 -1.53558 0
M  V30 1232 C 132.791 0.238651 -2.03002 0
M  V30 1233 C 133.155 1.46878 -1.23656 0
M  V30 1234 O 134.356 2.13699 -1.63053 0
M  V30 1235 C 132.627 0.534175 -3.53386 0
M  V30 1236 S 134.186 1.10271 -4.24719 0
M  V30 1237 H 131.004 0.0702908 -0.707517 0
M  V30 1238 H 133.606 -0.494987 -1.8913 0
M  V30 1239 H 132.31 -0.368765 -4.0874 0
M  V30 1240 H 131.841 1.29718 -3.71398 0
M  V30 1241 H 133.856 2.38772 -4.34974 0
M  V30 1242 N 133.029 1.57378 -0.0835403 0
M  V30 1243 C 133.976 2.13384 0.879539 0
M  V30 1244 C 134.946 1.04936 1.28754 0
M  V30 1245 O 136.131 1.32662 1.37133 0
M  V30 1246 C 133.271 2.70932 2.13752 0
M  V30 1247 C 132.384 3.93575 1.7811 0
M  V30 1248 C 131.519 4.39326 2.98607 0
M  V30 1249 C 130.558 5.54587 2.59037 0
M  V30 1250 N 129.695 5.95243 3.72331 0
M  V30 1251 H 134.535 2.9537 0.395076 0
M  V30 1252 H 132.072 1.45953 0.183349 0
M  V30 1253 H 134.03 3.02411 2.87408 0
M  V30 1254 H 132.66 1.91693 2.59718 0
M  V30 1255 H 131.712 3.68483 0.94469 0
M  V30 1256 H 133.024 4.77258 1.45005 0
M  V30 1257 H 132.178 4.72528 3.80529 0
M  V30 1258 H 130.917 3.5452 3.34913 0
M  V30 1259 H 129.922 5.21024 1.75539 0
M  V30 1260 H 131.147 6.41133 2.23887 0
M  V30 1261 H 129.093 5.13385 4.08378 0
M  V30 1262 H 129.01 6.73694 3.43034 0
M  V30 1263 H 130.278 6.33072 4.54797 0
M  V30 1264 N 134.507 -0.190092 1.56449 0
M  V30 1265 C 135.47 -1.21925 1.9408 0
M  V30 1266 C 136.47 -1.38176 0.822431 0
M  V30 1267 O 137.66 -1.35903 1.08977 0
M  V30 1268 C 134.792 -2.58773 2.21922 0
M  V30 1269 H 135.985 -0.897464 2.86157 0
M  V30 1270 H 133.538 -0.43181 1.50217 0
M  V30 1271 H 134.273 -2.95998 1.32499 0
M  V30 1272 H 134.058 -2.48348 3.03424 0
M  V30 1273 H 135.548 -3.32978 2.52022 0
M  V30 1274 N 135.985 -1.50799 -0.457987 0
M  V30 1275 C 137.225 -1.64088 -1.21879 0
M  V30 1276 C 137.589 -0.339848 -1.88968 0
M  V30 1277 O 138.79 -0.348301 -2.66534 0
M  V30 1278 C 137.061 -2.79726 -2.2246 0
M  V30 1279 S 138.62 -3.13225 -3.07303 0
M  V30 1280 H 135.438 -0.578314 -0.41361 0
M  V30 1281 H 138.04 -1.88632 -0.513645 0
M  V30 1282 H 136.744 -3.72722 -1.71775 0
M  V30 1283 H 136.275 -2.57308 -2.97584 0
M  V30 1284 H 138.29 -2.58062 -4.23814 0
M  V30 1285 N 137.463 0.71206 -1.40597 0
M  V30 1286 C 138.413 1.81783 -1.37619 0
M  V30 1287 C 139.397 1.58896 -0.253162 0
M  V30 1288 O 140.589 1.70009 -0.492547 0
M  V30 1289 C 137.718 3.19944 -1.24462 0
M  V30 1290 C 136.804 3.48582 -2.4156 0
M  V30 1291 N 137.195 3.48016 -3.67041 0
M  V30 1292 C 135.493 3.79056 -2.35016 0
M  V30 1293 C 136.194 3.75096 -4.44609 0
M  V30 1294 N 135.17 3.94022 -3.74497 0
M  V30 1295 H 138.972 1.79683 -2.32575 0
M  V30 1296 H 136.486 0.91134 -1.34419 0
M  V30 1297 H 138.483 3.99133 -1.20411 0
M  V30 1298 H 137.143 3.23267 -0.304762 0
M  V30 1299 H 138.154 3.28782 -4.00153 0
M  V30 1300 H 134.831 3.89848 -1.49415 0
M  V30 1301 H 136.221 3.80934 -5.53479 0
M  V30 1302 N 138.941 1.26152 0.944643 0
M  V30 1303 C 139.888 1.07408 2.04285 0
M  V30 1304 C 140.858 -0.0198413 1.66088 0
M  V30 1305 O 142.043 0.139264 1.90291 0
M  V30 1306 C 139.183 0.70945 3.37729 0
M  V30 1307 C 138.296 1.87926 3.88983 0
M  V30 1308 C 137.431 1.45807 5.10797 0
M  V30 1309 C 136.47 2.5964 5.54305 0
M  V30 1310 N 135.607 2.18226 6.67324 0
M  V30 1311 H 140.447 2.01389 2.1965 0
M  V30 1312 H 137.984 1.00275 1.07626 0
M  V30 1313 H 139.942 0.478948 4.14442 0
M  V30 1314 H 138.572 -0.193389 3.2222 0
M  V30 1315 H 137.624 2.22279 3.08701 0
M  V30 1316 H 138.936 2.73377 4.17213 0
M  V30 1317 H 138.09 1.18781 5.94959 0
M  V30 1318 H 136.829 0.574414 4.84305 0
M  V30 1319 H 135.834 2.87399 4.68702 0
M  V30 1320 H 137.059 3.48599 5.828 0
M  V30 1321 H 135.005 1.3229 6.42523 0
M  V30 1322 H 134.922 2.97221 6.95123 0
M  V30 1323 H 136.19 1.94403 7.54869 0
M  V30 1324 N 140.419 -1.14872 1.07899 0
M  V30 1325 C 141.349 -2.2193 0.725887 0
M  V30 1326 C 142.33 -1.67622 -0.28927 0
M  V30 1327 O 143.515 -1.93533 -0.160787 0
M  V30 1328 C 140.645 -3.47061 0.128856 0
M  V30 1329 C 139.599 -4.14363 1.07178 0
M  V30 1330 C 138.925 -5.33636 0.337229 0
M  V30 1331 C 140.225 -4.63492 2.40775 0
M  V30 1332 H 141.919 -2.51724 1.62097 0
M  V30 1333 H 139.465 -1.20991 0.780838 0
M  V30 1334 H 141.418 -4.21199 -0.130147 0
M  V30 1335 H 140.142 -3.16617 -0.80134 0
M  V30 1336 H 138.801 -3.42173 1.3158 0
M  V30 1337 H 138.449 -4.99449 -0.596606 0
M  V30 1338 H 138.149 -5.79609 0.965788 0
M  V30 1339 H 139.673 -6.10539 0.0861567 0
M  V30 1340 H 141.087 -5.2913 2.20669 0
M  V30 1341 H 139.484 -5.20148 2.99276 0
M  V30 1342 H 140.554 -3.78834 3.02676 0
M  V30 1343 N 141.898 -0.863906 -1.31812 0
M  V30 1344 C 143.175 -0.39275 -1.91616 0
M  V30 1345 C 143.555 1.12461 -1.7865 0
M  V30 1346 O 142.903 1.95045 -1.19037 0
M  V30 1347 C 143.113 -0.867385 -3.38049 0
M  V30 1348 C 144.461 -0.889966 -4.15168 0
M  V30 1349 O 145.485 -0.812635 -3.46806 0
M  V30 1350 O 144.344 -1.00079 -5.37258 0
M  V30 1351 H 141.438 -0.116358 -0.818773 0
M  V30 1352 H 143.984 -0.951418 -1.40521 0
M  V30 1353 H 142.756 -1.91081 -3.41473 0
M  V30 1354 H 142.379 -0.286687 -3.96565 0
M  V30 1355 N 143.376 1.44774 -0.622745 0
M  V30 1356 C 144.624 2.01721 -0.123655 0
M  V30 1357 C 144.945 1.49172 1.25589 0
M  V30 1358 O 144.215 0.691974 1.83272 0
M  V30 1359 H 142.795 0.745777 -0.0427225 0
M  V30 1360 H 145.457 1.77382 -0.807559 0
M  V30 1361 H 144.553 3.11984 -0.0849534 0
M  V30 1362 N 144.854 0.36279 1.53368 0
M  V30 1363 C 145.802 -0.500155 2.27159 0
M  V30 1364 C 146.796 -1.08575 1.3003 0
M  V30 1365 O 148.002 -1.02927 1.47668 0
M  V30 1366 H 144.377 -0.180009 0.730138 0
M  V30 1367 H 146.348 0.14401 2.98052 0
M  V30 1368 C 145.097 -1.62937 3.07159 0
M  V30 1369 H 144.42 -1.18806 3.8174 0
M  V30 1370 H 145.86 -2.20795 3.61975 0
M  V30 1371 C 144.319 -2.57007 2.17829 0
M  V30 1372 O 144.849 -3.59752 1.78721 0
M  V30 1373 N 143.055 -2.26131 1.82518 0
M  V30 1374 H 142.602 -1.42616 2.14519 0
M  V30 1375 H 142.56 -2.89327 1.23034 0
M  V30 1376 N 146.332 -1.57332 0.0918853 0
M  V30 1377 C 147.609 -1.85691 -0.614668 0
M  V30 1378 C 147.989 -0.988146 -1.86545 0
M  V30 1379 O 147.337 -0.0597055 -2.28422 0
M  V30 1380 C 147.547 -3.36294 -0.933126 0
M  V30 1381 C 148.895 -4.04275 -1.29796 0
M  V30 1382 O 149.919 -3.41157 -1.02424 0
M  V30 1383 O 148.778 -5.1564 -1.81047 0
M  V30 1384 H 145.872 -0.767802 -0.307261 0
M  V30 1385 H 148.418 -1.69244 0.12434 0
M  V30 1386 H 147.19 -3.91273 -0.0456404 0
M  V30 1387 H 146.813 -3.58076 -1.72822 0
M  V30 1388 N 147.81 0.181792 -1.56548 0
M  V30 1389 C 149.058 0.89832 -1.81038 0
M  V30 1390 C 149.379 1.83232 -0.667164 0
M  V30 1391 O 148.649 1.93372 0.313673 0
M  V30 1392 H 147.229 0.33471 -0.667816 0
M  V30 1393 H 149.891 0.184116 -1.94028 0
M  V30 1394 H 148.987 1.4815 -2.74696 0
M  V30 1395 N 149.288 1.51039 0.449983 0
M  V30 1396 C 150.534 1.63322 1.20223 0
M  V30 1397 C 150.867 0.34241 1.91158 0
M  V30 1398 O 150.142 -0.657344 1.83055 0
M  V30 1399 C 150.425 2.82801 2.22925 0
M  V30 1400 C 150.278 4.21823 1.56157 0
M  V30 1401 C 151.597 2.97807 3.24035 0
M  V30 1402 H 148.716 0.594407 0.435718 0
M  V30 1403 H 151.358 1.83489 0.493136 0
M  V30 1404 H 149.508 2.65738 2.834 0
M  V30 1405 H 151.18 4.50526 0.991162 0
M  V30 1406 H 149.423 4.25105 0.864172 0
M  V30 1407 H 150.094 5.01391 2.30891 0
M  V30 1408 H 152.57 3.13497 2.73603 0
M  V30 1409 H 151.446 3.82992 3.93202 0
M  V30 1410 H 151.707 2.09328 3.89402 0
M  V30 1411 N 150.766 -0.704594 1.40972 0
M  V30 1412 C 152.014 -1.46169 1.39568 0
M  V30 1413 C 152.335 -1.95 0.00253745 0
M  V30 1414 O 151.605 -1.71095 -0.954114 0
M  V30 1415 H 150.185 -0.542326 0.513704 0
M  V30 1416 H 152.847 -0.834553 1.76128 0
M  V30 1417 H 151.943 -2.32922 2.07735 0
M  V30 1418 N 152.244 -1.26651 -0.937939 0
M  V30 1419 C 153.655 -1.1125 -1.49934 0
M  V30 1420 C 154.006 0.306077 -1.93798 0
M  V30 1421 O 153.131 1.19792 -1.80219 0
M  V30 1422 C 153.726 -2.01339 -2.72485 0
M  V30 1423 C 152.285 -1.90074 -3.24883 0
M  V30 1424 C 151.432 -1.94498 -1.97651 0
M  V30 1425 H 154.383 -1.39693 -0.753091 0
M  V30 1426 H 154.404 -1.56319 -3.46907 0
M  V30 1427 H 153.916 -3.04577 -2.40529 0
M  V30 1428 H 152.017 -0.897827 -3.61621 0
M  V30 1429 H 152.13 -2.75778 -3.9177 0
M  V30 1430 H 150.494 -1.38591 -2.13693 0
M  V30 1431 H 151.277 -2.99372 -1.68022 0
M  V30 1432 N 153.722 1.14298 -1.08507 0
M  V30 1433 C 154.672 2.17449 -0.685569 0
M  V30 1434 C 155.656 1.58167 0.295315 0
M  V30 1435 O 156.848 1.76675 0.107172 0
M  V30 1436 C 153.977 3.43161 -0.0975318 0
M  V30 1437 C 153.063 4.09471 -1.10426 0
M  V30 1438 N 153.454 4.51089 -2.28806 0
M  V30 1439 C 151.752 4.35976 -0.940258 0
M  V30 1440 C 152.453 5.02654 -2.9277 0
M  V30 1441 N 151.429 4.96927 -2.20374 0
M  V30 1442 H 155.231 2.47369 -1.587 0
M  V30 1443 H 152.745 1.30992 -0.959936 0
M  V30 1444 H 154.742 4.16388 0.20664 0
M  V30 1445 H 153.402 3.14719 0.798872 0
M  V30 1446 H 154.413 4.44097 -2.66455 0
M  V30 1447 H 151.09 4.17386 -0.0977441 0
M  V30 1448 H 152.48 5.44723 -3.93352 0
M  V30 1449 N 155.201 0.870884 1.31352 0
M  V30 1450 C 156.131 0.343096 2.30966 0
M  V30 1451 C 157.112 -0.566507 1.60389 0
M  V30 1452 O 158.297 -0.483336 1.88089 0
M  V30 1453 C 155.427 -0.455487 3.443 0
M  V30 1454 C 154.381 0.361103 4.26474 0
M  V30 1455 C 153.707 -0.563221 5.31725 0
M  V30 1456 C 155.007 1.59566 4.97329 0
M  V30 1457 H 156.701 1.17548 2.75359 0
M  V30 1458 H 154.247 0.566686 1.32381 0
M  V30 1459 H 156.2 -0.83525 4.13039 0
M  V30 1460 H 154.924 -1.32139 2.98675 0
M  V30 1461 H 153.583 0.722825 3.59403 0
M  V30 1462 H 153.231 -1.42643 4.82351 0
M  V30 1463 H 152.931 -0.0207409 5.87596 0
M  V30 1464 H 154.455 -0.939808 6.03324 0
M  V30 1465 H 155.869 1.28728 5.58661 0
M  V30 1466 H 154.266 2.07728 5.63 0
M  V30 1467 H 155.336 2.34798 4.24262 0
M  V30 1468 N 156.679 -1.44442 0.630414 0
M  V30 1469 C 157.627 -2.32437 -0.0871428 0
M  V30 1470 C 158.621 -1.47304 -0.836525 0
M  V30 1471 O 159.827 -1.63653 -0.749506 0
M  V30 1472 H 156.202 -0.750533 -0.0469495 0
M  V30 1473 H 158.173 -2.90709 0.673096 0
M  V30 1474 C 156.922 -3.31288 -1.05563 0
M  V30 1475 H 156.245 -3.96805 -0.488426 0
M  V30 1476 H 157.685 -3.9554 -1.52721 0
M  V30 1477 C 156.144 -2.6016 -2.14052 0
M  V30 1478 O 156.674 -2.39997 -3.22124 0
M  V30 1479 N 154.88 -2.19911 -1.89967 0
M  V30 1480 H 154.427 -2.36509 -1.02085 0
M  V30 1481 H 154.385 -1.72646 -2.62756 0
M  V30 1482 N 158.157 -0.370918 -1.53173 0
M  V30 1483 C 159.405 0.216673 -2.00935 0
M  V30 1484 C 159.726 1.48845 -1.25977 0
M  V30 1485 O 158.996 1.92286 -0.374551 0
M  V30 1486 H 157.576 0.0830565 -0.742368 0
M  V30 1487 H 160.238 -0.49838 -1.8842 0
M  V30 1488 H 159.334 0.439893 -3.08984 0
M  V30 1489 N 159.635 1.57281 -0.100228 0
M  V30 1490 C 160.881 1.94826 0.563101 0
M  V30 1491 C 161.214 0.982475 1.67514 0
M  V30 1492 O 160.489 0.0164069 1.94493 0
M  V30 1493 C 160.772 3.42453 1.11346 0
M  V30 1494 C 160.625 4.498 0.00612081 0
M  V30 1495 C 161.944 3.91506 2.01024 0
M  V30 1496 H 159.063 0.708428 0.203221 0
M  V30 1497 H 161.705 1.8922 -0.171979 0
M  V30 1498 H 159.855 3.47361 1.7399 0
M  V30 1499 H 161.527 4.57 -0.628357 0
M  V30 1500 H 159.77 4.28756 -0.659581 0
M  V30 1501 H 160.441 5.50306 0.432109 0
M  V30 1502 H 162.917 3.88784 1.48278 0
M  V30 1503 H 161.793 4.95358 2.36457 0
M  V30 1504 H 162.054 3.31099 2.92961 0
M  V30 1505 N 161.113 -0.173488 1.56642 0
M  V30 1506 C 162.359 -0.891784 1.8214 0
M  V30 1507 C 162.692 -1.8199 0.677736 0
M  V30 1508 O 161.967 -1.91842 -0.320446 0
M  V30 1509 C 162.25 -1.68933 3.18015 0
M  V30 1510 C 162.103 -0.784487 4.42906 0
M  V30 1511 C 163.422 -2.65748 3.50808 0
M  V30 1512 H 160.541 -0.322761 0.662567 0
M  V30 1513 H 163.183 -0.158095 1.89341 0
M  V30 1514 H 161.333 -2.31482 3.12007 0
M  V30 1515 H 163.005 -0.172046 4.60979 0
M  V30 1516 H 161.248 -0.0924117 4.33702 0
M  V30 1517 H 161.919 -1.37799 5.34524 0
M  V30 1518 H 164.395 -2.13327 3.57255 0
M  V30 1519 H 163.271 -3.18619 4.4696 0
M  V30 1520 H 163.532 -3.45842 2.75401 0
M  V30 1521 N 162.591 -1.51276 -0.441967 0
M  V30 1522 C 163.839 -1.63392 -1.18943 0
M  V30 1523 C 164.16 -0.350159 -1.9183 0
M  V30 1524 O 163.43 0.633784 -1.85364 0
M  V30 1525 H 162.01 -0.602164 -0.442049 0
M  V30 1526 H 164.672 -1.88186 -0.507165 0
M  V30 1527 H 163.768 -2.45934 -1.92154 0
M  V30 1528 N 164.069 0.697108 -1.41344 0
M  V30 1529 C 165.485 1.00751 -1.2378 0
M  V30 1530 C 165.685 2.01105 -0.126066 0
M  V30 1531 O 164.741 2.47295 0.51004 0
M  V30 1532 C 166.054 1.53359 -2.58653 0
M  V30 1533 C 167.602 1.6525 -2.65822 0
M  V30 1534 C 168.077 2.2126 -4.01009 0
M  V30 1535 N 169.568 2.28622 -4.02847 0
M  V30 1536 C 170.303 2.72984 -5.04249 0
M  V30 1537 N 169.799 3.16962 -6.16041 0
M  V30 1538 N 171.592 2.72534 -4.91611 0
M  V30 1539 H 163.743 0.0322662 -2.12375 0
M  V30 1540 H 166.006 0.0768853 -0.944877 0
M  V30 1541 H 165.712 0.870773 -3.4075 0
M  V30 1542 H 165.586 2.51597 -2.81032 0
M  V30 1543 H 167.973 2.30644 -1.84086 0
M  V30 1544 H 168.054 0.655614 -2.47256 0
M  V30 1545 H 167.698 1.56482 -4.83193 0
M  V30 1546 H 167.628 3.21698 -4.16915 0
M  V30 1547 H 170.119 1.97585 -3.22131 0
M  V30 1548 H 170.432 3.49434 -6.89287 0
M  V30 1549 H 168.777 3.14875 -6.1958 0
M  V30 1550 H 171.968 2.37525 -4.0336 0
M  V30 1551 H 172.141 3.06789 -5.70775 0
M  V30 1552 N 165.547 1.27147 0.931209 0
M  V30 1553 C 166.775 1.16082 1.71267 0
M  V30 1554 C 167.19 -0.282772 1.8667 0
M  V30 1555 O 166.547 -1.19283 1.38122 0
M  V30 1556 C 166.598 1.8358 3.11417 0
M  V30 1557 O 166.319 3.22299 2.96741 0
M  V30 1558 C 167.82 1.78597 4.05732 0
M  V30 1559 H 165.04 0.403758 0.535929 0
M  V30 1560 H 167.584 1.67953 1.16671 0
M  V30 1561 H 165.739 1.35623 3.62885 0
M  V30 1562 H 166.153 3.55851 3.85319 0
M  V30 1563 H 167.627 2.30444 5.01597 0
M  V30 1564 H 168.104 0.754564 4.3267 0
M  V30 1565 H 168.71 2.26152 3.60188 0
M  V30 1566 N 167.025 -1.13721 1.09112 0
M  V30 1567 C 168.271 -1.85198 0.826414 0
M  V30 1568 C 168.604 -1.83129 -0.646319 0
M  V30 1569 O 167.879 -1.2671 -1.47563 0
M  V30 1570 C 168.162 -3.33507 1.35812 0
M  V30 1571 C 168.015 -3.44108 2.89672 0
M  V30 1572 C 169.334 -4.28838 0.989256 0
M  V30 1573 H 166.453 -0.67243 0.301675 0
M  V30 1574 H 169.095 -1.33499 1.35197 0
M  V30 1575 H 167.245 -3.77666 0.911082 0
M  V30 1576 H 168.917 -3.08684 3.428 0
M  V30 1577 H 167.16 -2.85087 3.26967 0
M  V30 1578 H 167.831 -4.48388 3.21951 0
M  V30 1579 H 170.307 -3.92734 1.37475 0
M  V30 1580 H 169.183 -5.31051 1.38838 0
M  V30 1581 H 169.444 -4.4198 -0.102924 0
M  V30 1582 N 168.503 -0.877838 -1.30888 0
M  V30 1583 C 169.466 -0.344265 -2.266 0
M  V30 1584 C 170.466 0.50922 -1.52524 0
M  V30 1585 O 171.656 0.317398 -1.71284 0
M  V30 1586 C 168.788 0.510198 -3.37061 0
M  V30 1587 H 169.981 -1.1893 -2.7531 0
M  V30 1588 H 167.534 -0.654088 -1.41956 0
M  V30 1589 H 168.269 1.37612 -2.93655 0
M  V30 1590 H 168.054 -0.101047 -3.9197 0
M  V30 1591 H 169.544 0.875537 -4.08319 0
M  V30 1592 N 169.982 1.44106 -0.638065 0
M  V30 1593 C 171.23 2.01579 -0.145043 0
M  V30 1594 C 171.551 1.50496 1.24 0
M  V30 1595 O 170.821 0.711374 1.82527 0
M  V30 1596 H 169.401 0.745282 -0.05063 0
M  V30 1597 H 172.063 1.76516 -0.826327 0
M  V30 1598 H 171.159 3.11877 -0.118039 0
M  V30 1599 N 171.46 0.379036 1.52974 0
M  V30 1600 C 172.706 -0.206727 2.01744 0
M  V30 1601 C 173.039 -1.47314 1.26539 0
M  V30 1602 O 172.314 -1.91084 0.362903 0
M  V30 1603 C 172.597 -0.485066 3.56818 0
M  V30 1604 C 172.45 0.795919 4.42702 0
M  V30 1605 C 173.769 -1.28003 4.21074 0
M  V30 1606 H 170.888 -0.0736607 0.73331 0
M  V30 1607 H 173.53 0.506581 1.83122 0
M  V30 1608 H 171.68 -1.09272 3.72816 0
M  V30 1609 H 173.352 1.43307 4.38476 0
M  V30 1610 H 171.595 1.41344 4.10127 0
M  V30 1611 H 172.266 0.555947 5.49193 0
M  V30 1612 H 174.742 -0.765867 4.08991 0
M  V30 1613 H 173.618 -1.44352 5.29579 0
M  V30 1614 H 173.879 -2.29236 3.78026 0
M  V30 1615 N 172.938 -1.57226 0.108567 0
M  V30 1616 C 174.215 -1.86333 -0.594939 0
M  V30 1617 C 174.595 -1.00788 -1.85486 0
M  V30 1618 O 173.943 -0.0839293 -2.28346 0
M  V30 1619 C 174.153 -3.37265 -0.897405 0
M  V30 1620 C 175.501 -4.05629 -1.25501 0
M  V30 1621 O 176.525 -3.42224 -0.987998 0
M  V30 1622 O 175.384 -5.17531 -1.75567 0
M  V30 1623 H 172.478 -0.771018 -0.2991 0
M  V30 1624 H 175.024 -1.69102 0.142283 0
M  V30 1625 H 173.796 -3.913 -0.00413806 0
M  V30 1626 H 173.419 -3.59889 -1.69014 0
M  V30 1627 N 174.416 0.165178 -1.56732 0
M  V30 1628 C 175.664 0.879068 -1.8198 0
M  V30 1629 C 175.985 1.82514 -0.686561 0
M  V30 1630 O 175.255 1.93694 0.293146 0
M  V30 1631 H 173.835 0.327608 -0.671329 0
M  V30 1632 H 176.497 0.163526 -1.94213 0
M  V30 1633 H 175.593 1.45228 -2.76252 0
M  V30 1634 N 175.894 1.51508 0.433938 0
M  V30 1635 C 177.141 1.64345 1.18309 0
M  V30 1636 C 177.469 0.361315 1.91115 0
M  V30 1637 O 176.724 -0.654753 1.84422 0
M  V30 1638 C 177.023 2.79928 2.22205 0
M  V30 1639 C 176.689 4.19078 1.66387 0
M  V30 1640 C 175.351 4.56932 1.50887 0
M  V30 1641 C 177.703 5.05894 1.25381 0
M  V30 1642 C 175.031 5.79305 0.928608 0
M  V30 1643 C 177.383 6.2885 0.687823 0
M  V30 1644 C 176.047 6.65473 0.519755 0
M  V30 1645 H 175.317 0.601381 0.432923 0
M  V30 1646 H 177.964 1.85549 0.473676 0
M  V30 1647 H 176.269 2.52959 2.99197 0
M  V30 1648 H 177.966 2.87059 2.79997 0
M  V30 1649 H 174.556 3.89234 1.79428 0
M  V30 1650 H 178.74 4.77253 1.36175 0
M  V30 1651 H 173.996 6.06324 0.786186 0
M  V30 1652 H 178.17 6.95461 0.361581 0
M  V30 1653 H 175.797 7.6017 0.0679979 0
M  V30 1654 N 177.372 -0.689602 1.41712 0
M  V30 1655 C 178.32 -1.82475 1.44242 0
M  V30 1656 C 179.314 -1.66354 0.319774 0
M  V30 1657 O 180.52 -1.73143 0.492089 0
M  V30 1658 H 176.895 -0.601416 0.451445 0
M  V30 1659 H 178.866 -1.77458 2.39899 0
M  V30 1660 C 177.615 -3.20535 1.3473 0
M  V30 1661 H 176.938 -3.33559 2.20405 0
M  V30 1662 H 178.378 -4.00023 1.40562 0
M  V30 1663 C 176.837 -3.36846 0.0603281 0
M  V30 1664 O 177.367 -3.91656 -0.892663 0
M  V30 1665 N 175.573 -2.90595 -0.0177039 0
M  V30 1666 H 175.12 -2.46178 0.758572 0
M  V30 1667 H 175.078 -3.01886 -0.878201 0
M  V30 1668 N 178.85 -1.27639 -0.924453 0
M  V30 1669 C 180.08 -1.16819 -1.70402 0
M  V30 1670 C 180.488 0.277191 -1.87158 0
M  V30 1671 O 179.831 1.20025 -1.39067 0
M  V30 1672 C 179.893 -1.78305 -3.12166 0
M  V30 1673 C 179.557 -3.27502 -3.18734 0
M  V30 1674 C 180.554 -4.2409 -3.00738 0
M  V30 1675 C 178.239 -3.68269 -3.4159 0
M  V30 1676 C 180.233 -5.59422 -3.05492 0
M  V30 1677 C 177.92 -5.0373 -3.45977 0
M  V30 1678 C 178.918 -5.99116 -3.27946 0
M  V30 1679 O 178.606 -7.32108 -3.32074 0
M  V30 1680 H 178.338 -0.406931 -0.539799 0
M  V30 1681 H 180.892 -1.69078 -1.16626 0
M  V30 1682 H 179.122 -1.20528 -3.67437 0
M  V30 1683 H 180.811 -1.62154 -3.72103 0
M  V30 1684 H 181.577 -3.93931 -2.82919 0
M  V30 1685 H 177.456 -2.94496 -3.54673 0
M  V30 1686 H 181 -6.33852 -2.91337 0
M  V30 1687 H 176.897 -5.33543 -3.63321 0
M  V30 1688 H 177.665 -7.40598 -3.48507 0
M  V30 1689 N 180.328 1.1314 -1.09713 0
M  V30 1690 C 181.553 1.88862 -0.857081 0
M  V30 1691 C 181.978 1.78729 0.586304 0
M  V30 1692 O 181.336 1.13692 1.41222 0
M  V30 1693 C 181.384 3.36325 -1.30069 0
M  V30 1694 O 180.488 4.09815 -0.461007 0
M  V30 1695 H 179.829 0.587108 -0.310162 0
M  V30 1696 H 182.359 1.43129 -1.46203 0
M  V30 1697 H 182.369 3.87157 -1.28738 0
M  V30 1698 H 181.044 3.43017 -2.35185 0
M  V30 1699 H 179.621 3.68986 -0.538888 0
M  V30 1700 N 181.806 0.884767 1.30421 0
M  V30 1701 C 183.083 0.423185 1.90967 0
M  V30 1702 C 183.463 -1.09605 1.80416 0
M  V30 1703 O 182.811 -1.93126 1.22125 0
M  V30 1704 C 183.021 0.921056 3.36627 0
M  V30 1705 C 184.369 0.955903 4.137 0
M  V30 1706 O 185.393 0.867706 3.4547 0
M  V30 1707 O 184.252 1.08614 5.35598 0
M  V30 1708 H 181.346 0.129369 0.816819 0
M  V30 1709 H 183.892 0.973653 1.3899 0
M  V30 1710 H 182.664 1.96489 3.3839 0
M  V30 1711 H 182.287 0.349741 3.96059 0
M  V30 1712 N 183.284 -1.43765 0.645699 0
M  V30 1713 C 184.695 -1.85193 0.236719 0
M  V30 1714 C 185.046 -1.54045 -1.21509 0
M  V30 1715 O 184.171 -0.985694 -1.92647 0
M  V30 1716 C 184.766 -3.36151 0.422845 0
M  V30 1717 C 183.325 -3.76338 0.0682492 0
M  V30 1718 C 182.472 -2.67538 0.729306 0
M  V30 1719 H 185.423 -1.34025 0.849883 0
M  V30 1720 H 185.444 -3.79032 -0.333904 0
M  V30 1721 H 184.956 -3.5879 1.47958 0
M  V30 1722 H 183.057 -3.59312 -0.986179 0
M  V30 1723 H 183.17 -4.76603 0.488469 0
M  V30 1724 H 181.534 -2.54176 0.163235 0
M  V30 1725 H 182.317 -2.93006 1.78892 0
M  V30 1726 N 184.763 -0.387143 -1.52771 0
M  V30 1727 C 185.696 0.493123 -2.22808 0
M  V30 1728 C 186.674 1.0658 -1.22798 0
M  V30 1729 O 187.858 1.11785 -1.51777 0
M  V30 1730 C 184.985 1.68238 -2.93962 0
M  V30 1731 C 184.031 1.23515 -4.08223 0
M  V30 1732 S 184.864 0.21848 -5.35054 0
M  V30 1733 C 186.02 1.41357 -6.09729 0
M  V30 1734 H 186.253 -0.101625 -2.97126 0
M  V30 1735 H 183.786 -0.171323 -1.53447 0
M  V30 1736 H 185.744 2.36443 -3.35567 0
M  V30 1737 H 184.405 2.24842 -2.19328 0
M  V30 1738 H 183.598 2.12304 -4.57103 0
M  V30 1739 H 183.2 0.632044 -3.68621 0
M  V30 1740 H 185.492 2.34101 -6.3577 0
M  V30 1741 H 186.435 0.965736 -7.01484 0
M  V30 1742 H 186.843 1.6294 -5.40473 0
M  V30 1743 N 186.241 1.57166 -0.116904 0
M  V30 1744 C 187.188 2.15202 0.83408 0
M  V30 1745 C 188.158 1.07644 1.26499 0
M  V30 1746 O 189.343 1.35541 1.34288 0
M  V30 1747 C 186.483 2.75405 2.07957 0
M  V30 1748 C 185.596 3.97264 1.69721 0
M  V30 1749 C 184.731 4.45561 2.89221 0
M  V30 1750 C 183.77 5.59956 2.47215 0
M  V30 1751 N 182.907 6.03006 3.59622 0
M  V30 1752 H 187.747 2.96141 0.332335 0
M  V30 1753 H 185.284 1.46309 0.152349 0
M  V30 1754 H 187.242 3.08439 2.80929 0
M  V30 1755 H 185.872 1.97159 2.55594 0
M  V30 1756 H 184.924 3.70404 0.866316 0
M  V30 1757 H 186.236 4.80226 1.34849 0
M  V30 1758 H 185.39 4.80493 3.7042 0
M  V30 1759 H 184.129 3.61544 3.27318 0
M  V30 1760 H 183.134 5.2463 1.64448 0
M  V30 1761 H 184.359 6.45738 2.10238 0
M  V30 1762 H 182.305 5.21931 3.97396 0
M  V30 1763 H 182.222 6.80819 3.28667 0
M  V30 1764 H 183.49 6.42576 4.41267 0
M  V30 1765 N 187.719 -0.156864 1.56817 0
M  V30 1766 C 188.682 -1.17781 1.96622 0
M  V30 1767 C 189.682 -1.36401 0.851555 0
M  V30 1768 O 190.872 -1.33561 1.11836 0
M  V30 1769 C 188.004 -2.54008 2.27361 0
M  V30 1770 H 189.197 -0.836564 2.87996 0
M  V30 1771 H 186.75 -0.39985 1.51099 0
M  V30 1772 H 187.485 -2.9312 1.38748 0
M  V30 1773 H 187.27 -2.41856 3.08623 0
M  V30 1774 H 188.76 -3.27558 2.59029 0
M  V30 1775 N 189.197 -1.51736 -0.425897 0
M  V30 1776 C 190.147 -1.70258 -1.51645 0
M  V30 1777 C 191.131 -0.556488 -1.5097 0
M  V30 1778 O 192.323 -0.812879 -1.5723 0
M  V30 1779 C 189.452 -1.84143 -2.89735 0
M  V30 1780 C 188.538 -3.04572 -2.95122 0
M  V30 1781 N 188.929 -4.2756 -2.70233 0
M  V30 1782 C 187.227 -3.04061 -3.26286 0
M  V30 1783 C 187.928 -5.08908 -2.81757 0
M  V30 1784 N 186.904 -4.43797 -3.13919 0
M  V30 1785 H 190.706 -2.63004 -1.31172 0
M  V30 1786 H 188.22 -1.4954 -0.633375 0
M  V30 1787 H 190.217 -1.95525 -3.68206 0
M  V30 1788 H 188.877 -0.925857 -3.1122 0
M  V30 1789 H 189.888 -4.56315 -2.44943 0
M  V30 1790 H 186.565 -2.22179 -3.53473 0
M  V30 1791 H 187.955 -6.16843 -2.66372 0
M  V30 1792 N 190.675 0.682077 -1.42076 0
M  V30 1793 C 191.923 1.4393 -1.41876 0
M  V30 1794 C 192.244 1.94971 -0.0335599 0
M  V30 1795 O 191.514 1.72591 0.926773 0
M  V30 1796 H 190.094 0.534085 -0.522267 0
M  V30 1797 H 192.756 0.806427 -1.77434 0
M  V30 1798 H 191.852 2.29588 -2.11414 0
M  V30 1799 N 192.153 1.28127 0.917671 0
M  V30 1800 C 193.401 1.14825 1.66312 0
M  V30 1801 C 193.722 -0.304379 1.9261 0
M  V30 1802 O 192.992 -1.21149 1.53947 0
M  V30 1803 H 191.572 0.421953 0.616413 0
M  V30 1804 H 194.234 1.608 1.10134 0
M  V30 1805 H 193.33 1.68489 2.62712 0
M  V30 1806 N 193.631 -1.12557 1.10312 0
M  V30 1807 C 194.908 -1.80363 0.756878 0
M  V30 1808 C 195.288 -1.97067 -0.756824 0
M  V30 1809 O 194.636 -1.54601 -1.68259 0
M  V30 1810 C 194.846 -3.14812 1.50647 0
M  V30 1811 C 196.194 -3.90029 1.67817 0
M  V30 1812 O 197.218 -3.24464 1.46974 0
M  V30 1813 O 196.077 -5.07652 2.02365 0
M  V30 1814 H 193.171 -0.780667 0.272926 0
M  V30 1815 H 195.717 -1.19404 1.20586 0
M  V30 1816 H 194.489 -2.97936 2.53672 0
M  V30 1817 H 194.112 -3.83478 1.05026 0
M  V30 1818 N 195.109 -0.891671 -1.2995 0
M  V30 1819 C 196.355 -0.523649 -1.96544 0
M  V30 1820 C 196.71 0.918394 -1.69066 0
M  V30 1821 O 196.003 1.64122 -0.988659 0
M  V30 1822 C 196.197 -0.742868 -3.49594 0
M  V30 1823 C 196.026 -2.20467 -3.9195 0
M  V30 1824 C 194.796 -2.85055 -4.17219 0
M  V30 1825 C 196.994 -3.17912 -4.04273 0
M  V30 1826 N 194.976 -4.21762 -4.46083 0
M  V30 1827 C 196.347 -4.39712 -4.37097 0
M  V30 1828 C 198.402 -3.1361 -3.86721 0
M  V30 1829 C 197.105 -5.5776 -4.54199 0
M  V30 1830 C 199.131 -4.30936 -4.05028 0
M  V30 1831 C 198.493 -5.51504 -4.38204 0
M  V30 1832 H 194.592 -0.241072 -0.743914 0
M  V30 1833 H 197.176 -1.15081 -1.5705 0
M  V30 1834 H 195.347 -0.14515 -3.88129 0
M  V30 1835 H 197.079 -0.341081 -4.0326 0
M  V30 1836 H 193.834 -2.35889 -4.10674 0
M  V30 1837 H 194.258 -4.92382 -4.64638 0
M  V30 1838 H 198.9 -2.21489 -3.60142 0
M  V30 1839 H 196.618 -6.50379 -4.79618 0
M  V30 1840 H 200.204 -4.29085 -3.92909 0
M  V30 1841 H 199.084 -6.40778 -4.52077 0
M  V30 1842 N 196.587 1.43421 -0.653314 0
M  V30 1843 C 197.815 2.06163 -0.174491 0
M  V30 1844 C 198.23 1.48969 1.1599 0
M  V30 1845 O 197.587 0.621042 1.71608 0
M  V30 1846 C 197.638 3.61417 -0.0774865 0
M  V30 1847 O 197.359 4.16485 -1.35912 0
M  V30 1848 C 198.86 4.41235 0.427402 0
M  V30 1849 H 196.08 0.664946 -0.0899353 0
M  V30 1850 H 198.624 1.83924 -0.893988 0
M  V30 1851 H 196.779 3.82841 0.59257 0
M  V30 1852 H 197.193 5.10153 -1.21839 0
M  V30 1853 H 198.667 5.5021 0.44423 0
M  V30 1854 H 199.144 4.14268 1.45873 0
M  V30 1855 H 199.75 4.2478 -0.210167 0
M  V30 1856 N 198.065 0.39524 1.52563 0
M  V30 1857 C 199.476 -0.0774719 1.86539 0
M  V30 1858 C 199.827 -1.45641 1.31466 0
M  V30 1859 O 198.952 -2.06459 0.648367 0
M  V30 1860 C 199.547 -0.147356 3.38479 0
M  V30 1861 C 198.106 -0.564373 3.72145 0
M  V30 1862 C 197.253 0.269919 2.75983 0
M  V30 1863 H 200.204 0.612876 1.46388 0
M  V30 1864 H 200.225 -0.965343 3.68051 0
M  V30 1865 H 199.737 0.856387 3.78534 0
M  V30 1866 H 197.838 -1.57527 3.37663 0
M  V30 1867 H 197.951 -0.318402 4.78041 0
M  V30 1868 H 196.315 -0.265696 2.5331 0
M  V30 1869 H 197.098 1.27175 3.18875 0
M  V30 1870 N 199.544 -1.57102 0.125237 0
M  V30 1871 C 200.454 -2.19191 -0.8362 0
M  V30 1872 C 201.47 -1.16985 -1.28805 0
M  V30 1873 O 202.646 -1.49479 -1.34974 0
M  V30 1874 C 199.711 -2.78407 -2.06617 0
M  V30 1875 C 198.772 -3.9567 -1.66565 0
M  V30 1876 C 198.005 -4.52052 -2.83698 0
M  V30 1877 O 198.228 -4.07326 -3.99302 0
M  V30 1878 O 197.162 -5.42645 -2.60423 0
M  V30 1879 H 200.988 -3.01816 -0.337776 0
M  V30 1880 H 198.573 -1.4906 -0.100695 0
M  V30 1881 H 200.455 -3.16129 -2.7864 0
M  V30 1882 H 199.13 -1.9881 -2.55453 0
M  V30 1883 H 198.037 -3.62705 -0.916296 0
M  V30 1884 H 199.37 -4.76722 -1.22464 0
M  V30 1885 N 201.022 0.148545 -1.56898 0
M  V30 1886 C 201.985 1.16736 -1.97244 0
M  V30 1887 C 202.985 1.35947 -0.858777 0
M  V30 1888 O 204.175 1.32966 -1.12542 0
M  V30 1889 C 201.307 2.52798 -2.28705 0
M  V30 1890 H 202.5 0.821279 -2.88435 0
M  V30 1891 H 200.053 0.391831 -1.51309 0
M  V30 1892 H 200.788 2.92381 -1.403 0
M  V30 1893 H 200.573 2.40216 -3.09901 0
M  V30 1894 H 202.063 3.26179 -2.60762 0
M  V30 1895 N 202.5 1.5196 0.417844 0
M  V30 1896 C 203.43 1.77634 1.51554 0
M  V30 1897 C 204.411 0.626918 1.58126 0
M  V30 1898 O 205.596 0.871632 1.7354 0
M  V30 1899 C 202.726 1.91911 2.8946 0
M  V30 1900 C 201.68 3.07463 2.97743 0
M  V30 1901 C 201.006 3.06951 4.37819 0
M  V30 1902 C 202.306 4.47082 2.70027 0
M  V30 1903 H 204 2.6955 1.3032 0
M  V30 1904 H 201.546 1.29706 0.625492 0
M  V30 1905 H 203.499 2.08455 3.6623 0
M  V30 1906 H 202.223 0.966598 3.11969 0
M  V30 1907 H 200.882 2.90656 2.23416 0
M  V30 1908 H 200.53 2.09438 4.57323 0
M  V30 1909 H 200.23 3.84556 4.44286 0
M  V30 1910 H 201.754 3.25613 5.16535 0
M  V30 1911 H 203.168 4.6414 3.36522 0
M  V30 1912 H 201.565 5.2654 2.87881 0
M  V30 1913 H 202.635 4.55777 1.65514 0
M  V30 1914 N 203.978 -0.674533 1.42435 0
M  V30 1915 C 204.91 -1.80005 1.41883 0
M  V30 1916 C 205.923 -1.59667 0.31787 0
M  V30 1917 O 207.112 -1.68781 0.580973 0
M  V30 1918 C 204.212 -3.17114 1.19549 0
M  V30 1919 C 203.385 -3.64299 2.42084 0
M  V30 1920 C 202.444 -4.80142 2.15291 0
M  V30 1921 O 201.47 -4.90673 2.88493 0
M  V30 1922 N 202.672 -5.68869 1.1562 0
M  V30 1923 H 205.437 -1.80964 2.38898 0
M  V30 1924 H 202.998 -0.857633 1.37318 0
M  V30 1925 H 204.99 -3.92267 0.995417 0
M  V30 1926 H 203.56 -3.11053 0.310569 0
M  V30 1927 H 202.78 -2.79822 2.77657 0
M  V30 1928 H 204.068 -3.92567 3.23679 0
M  V30 1929 H 203.466 -5.63012 0.550765 0
M  V30 1930 H 202.023 -6.43833 1.016 0
M  V30 1931 N 205.456 -1.28612 -0.910864 0
M  V30 1932 C 206.366 -1.14643 -2.0468 0
M  V30 1933 C 207.382 -0.0723121 -1.7385 0
M  V30 1934 O 208.558 -0.282178 -1.99413 0
M  V30 1935 C 205.623 -0.812561 -3.37044 0
M  V30 1936 C 204.684 -1.96935 -3.81465 0
M  V30 1937 C 203.917 -1.65131 -5.07511 0
M  V30 1938 O 204.14 -0.567013 -5.67575 0
M  V30 1939 O 203.074 -2.49585 -5.47714 0
M  V30 1940 H 206.9 -2.1001 -2.19384 0
M  V30 1941 H 204.485 -1.07958 -1.03274 0
M  V30 1942 H 206.367 -0.640441 -4.16505 0
M  V30 1943 H 205.042 0.111426 -3.23508 0
M  V30 1944 H 203.949 -2.19664 -3.02818 0
M  V30 1945 H 205.282 -2.87414 -3.99567 0
M  V30 1946 N 206.934 1.1197 -1.10907 0
M  V30 1947 C 208.181 1.83588 -0.854507 0
M  V30 1948 C 208.509 1.84357 0.6199 0
M  V30 1949 O 207.764 1.28809 1.47332 0
M  V30 1950 C 208.063 3.30749 -1.35425 0
M  V30 1951 C 207.729 3.50146 -2.84093 0
M  V30 1952 C 206.391 3.55148 -3.2469 0
M  V30 1953 C 208.743 3.56857 -3.79872 0
M  V30 1954 C 206.071 3.6441 -4.59806 0
M  V30 1955 C 208.423 3.6765 -5.14797 0
M  V30 1956 C 207.087 3.7091 -5.54961 0
M  V30 1957 H 206.357 0.671795 -0.312686 0
M  V30 1958 H 209.004 1.32091 -1.38652 0
M  V30 1959 H 207.309 3.84703 -0.742361 0
M  V30 1960 H 209.006 3.8464 -1.1337 0
M  V30 1961 H 205.596 3.46919 -2.51685 0
M  V30 1962 H 209.78 3.52258 -3.49611 0
M  V30 1963 H 205.036 3.65208 -4.9034 0
M  V30 1964 H 209.21 3.71786 -5.88853 0
M  V30 1965 H 206.837 3.7784 -6.59652 0
M  V30 1966 N 208.412 0.89855 1.29475 0
M  V30 1967 C 209.342 0.39201 2.30186 0
M  V30 1968 C 210.323 -0.532359 1.61555 0
M  V30 1969 O 211.508 -0.443331 1.89072 0
M  V30 1970 C 208.638 -0.382353 3.45189 0
M  V30 1971 C 207.592 0.451483 4.25612 0
M  V30 1972 C 206.918 -0.450307 5.328 0
M  V30 1973 C 208.218 1.70079 4.93832 0
M  V30 1974 H 209.912 1.23362 2.72804 0
M  V30 1975 H 207.458 0.594638 1.31149 0
M  V30 1976 H 209.411 -0.747451 4.14718 0
M  V30 1977 H 208.135 -1.25774 3.01411 0
M  V30 1978 H 206.794 0.798897 3.57789 0
M  V30 1979 H 206.442 -1.32379 4.85268 0
M  V30 1980 H 206.142 0.103902 5.87508 0
M  V30 1981 H 207.666 -0.811623 6.05182 0
M  V30 1982 H 209.08 1.40549 5.55805 0
M  V30 1983 H 207.477 2.19623 5.58467 0
M  V30 1984 H 208.547 2.43744 4.19186 0
M  V30 1985 N 209.89 -1.43072 0.660911 0
M  V30 1986 C 211.118 -2.06067 0.185422 0
M  V30 1987 C 211.533 -1.49582 -1.15198 0
M  V30 1988 O 210.89 -0.630134 -1.71276 0
M  V30 1989 C 210.941 -3.61371 0.0966523 0
M  V30 1990 O 210.662 -4.15758 1.38119 0
M  V30 1991 C 212.163 -4.41455 -0.403996 0
M  V30 1992 H 209.383 -0.664459 0.0934604 0
M  V30 1993 H 211.927 -1.83447 0.90373 0
M  V30 1994 H 210.082 -3.8315 -0.572259 0
M  V30 1995 H 210.496 -5.09499 1.24542 0
M  V30 1996 H 211.97 -5.50437 -0.415045 0
M  V30 1997 H 212.447 -4.15036 -1.43674 0
M  V30 1998 H 213.053 -4.24663 0.232691 0
M  V30 1999 N 211.368 -0.403325 -1.52352 0
M  V30 2000 C 212.316 0.439752 -2.28405 0
M  V30 2001 C 213.31 1.05089 -1.32863 0
M  V30 2002 O 214.516 0.989759 -1.50345 0
M  V30 2003 H 210.891 0.160587 -0.734653 0
M  V30 2004 H 212.862 -0.222983 -2.97566 0
M  V30 2005 C 211.611 1.54736 -3.11371 0
M  V30 2006 H 210.934 1.08643 -3.84755 0
M  V30 2007 H 212.374 2.1112 -3.67701 0
M  V30 2008 C 210.833 2.51141 -2.24566 0
M  V30 2009 O 211.363 3.54887 -1.88196 0
M  V30 2010 N 209.569 2.21213 -1.8845 0
M  V30 2011 H 209.116 1.36878 -2.18225 0
M  V30 2012 H 209.074 2.85963 -1.30662 0
M  V30 2013 N 212.846 1.57033 -0.133567 0
M  V30 2014 C 214.257 1.82593 0.389464 0
M  V30 2015 C 214.608 1.05156 1.6564 0
M  V30 2016 O 213.733 0.292644 2.14412 0
M  V30 2017 C 214.328 3.31204 0.713377 0
M  V30 2018 C 212.887 3.57393 1.18098 0
M  V30 2019 C 212.034 2.76598 0.197126 0
M  V30 2020 H 214.985 1.54598 -0.358481 0
M  V30 2021 H 215.006 3.46627 1.56939 0
M  V30 2022 H 214.518 3.87537 -0.2089 0
M  V30 2023 H 212.619 3.06433 2.11966 0
M  V30 2024 H 212.732 4.65915 1.11624 0
M  V30 2025 H 211.096 2.45257 0.687088 0
M  V30 2026 H 211.879 3.35697 -0.718504 0
M  V30 2027 N 214.325 -0.140222 1.56975 0
M  V30 2028 C 215.272 -1.17292 1.98774 0
M  V30 2029 C 216.242 -1.4232 0.856408 0
M  V30 2030 O 217.427 -1.54541 1.119 0
M  V30 2031 C 214.567 -2.49973 2.37923 0
M  V30 2032 C 213.68 -2.32062 3.64378 0
M  V30 2033 C 212.815 -3.57825 3.926 0
M  V30 2034 C 211.854 -3.3498 5.12303 0
M  V30 2035 N 210.991 -4.52891 5.36502 0
M  V30 2036 H 215.831 -0.809472 2.86795 0
M  V30 2037 H 213.368 -0.388237 1.41884 0
M  V30 2038 H 215.326 -3.27346 2.58652 0
M  V30 2039 H 213.956 -2.84252 1.52972 0
M  V30 2040 H 213.008 -1.45711 3.51387 0
M  V30 2041 H 214.32 -2.11145 4.51906 0
M  V30 2042 H 213.474 -4.43624 4.13863 0
M  V30 2043 H 212.213 -3.81753 3.03506 0
M  V30 2044 H 211.218 -2.4757 4.90906 0
M  V30 2045 H 212.443 -3.12444 6.02956 0
M  V30 2046 H 210.389 -4.76979 4.50363 0
M  V30 2047 H 210.306 -4.35001 6.18312 0
M  V30 2048 H 211.574 -5.39884 5.62268 0
M  V30 2049 N 215.803 -1.52179 -0.40978 0
M  V30 2050 C 216.766 -1.74853 -1.48186 0
M  V30 2051 C 217.766 -0.618417 -1.48433 0
M  V30 2052 O 218.956 -0.886286 -1.49969 0
M  V30 2053 C 216.088 -1.8303 -2.87598 0
M  V30 2054 H 217.281 -2.70559 -1.29374 0
M  V30 2055 H 214.834 -1.42586 -0.640233 0
M  V30 2056 H 215.569 -0.89236 -3.11781 0
M  V30 2057 H 215.354 -2.65187 -2.88822 0
M  V30 2058 H 216.844 -2.02316 -3.65319 0
M  V30 2059 N 217.281 0.66697 -1.42791 0
M  V30 2060 C 218.527 1.4291 -1.43891 0
M  V30 2061 C 218.86 1.94114 -0.0578972 0
M  V30 2062 O 218.135 1.71414 0.91911 0
M  V30 2063 C 218.418 2.62049 -2.46987 0
M  V30 2064 C 218.271 2.16426 -3.94309 0
M  V30 2065 C 219.59 3.64266 -2.46978 0
M  V30 2066 H 216.709 0.518306 -0.523954 0
M  V30 2067 H 219.351 0.757321 -1.74255 0
M  V30 2068 H 217.501 3.19361 -2.21225 0
M  V30 2069 H 219.173 1.64221 -4.31079 0
M  V30 2070 H 217.416 1.47925 -4.078 0
M  V30 2071 H 218.087 3.02038 -4.62036 0
M  V30 2072 H 220.563 3.16686 -2.69906 0
M  V30 2073 H 219.439 4.45196 -3.21079 0
M  V30 2074 H 219.7 4.15927 -1.49857 0
M  V30 2075 N 218.759 1.29093 0.90403 0
M  V30 2076 C 220.005 1.16986 1.65656 0
M  V30 2077 C 220.338 -0.278925 1.92186 0
M  V30 2078 O 219.613 -1.2019 1.5292 0
M  V30 2079 C 219.896 1.97908 3.0084 0
M  V30 2080 C 219.749 3.50903 2.81403 0
M  V30 2081 C 221.068 1.80208 4.01513 0
M  V30 2082 H 218.187 0.426346 0.601164 0
M  V30 2083 H 220.829 1.58518 1.04747 0
M  V30 2084 H 218.979 1.62616 3.52829 0
M  V30 2085 H 220.651 3.96153 2.36348 0
M  V30 2086 H 218.894 3.76045 2.1627 0
M  V30 2087 H 219.565 4.02791 3.77443 0
M  V30 2088 H 222.041 2.11025 3.58619 0
M  V30 2089 H 220.917 2.39184 4.94047 0
M  V30 2090 H 221.178 0.756119 4.35586 0
M  V30 2091 N 220.237 -1.11381 1.11499 0
M  V30 2092 C 221.184 -2.17439 0.773887 0
M  V30 2093 C 222.154 -1.64132 -0.254899 0
M  V30 2094 O 223.339 -1.90345 -0.13168 0
M  V30 2095 C 220.479 -3.44373 0.223917 0
M  V30 2096 C 219.592 -4.1168 1.30934 0
M  V30 2097 C 218.727 -5.263 0.71984 0
M  V30 2098 C 217.766 -5.85493 1.78507 0
M  V30 2099 N 216.903 -6.91507 1.21502 0
M  V30 2100 H 221.743 -2.45962 1.68246 0
M  V30 2101 H 219.28 -1.20744 0.840191 0
M  V30 2102 H 221.238 -4.17047 -0.112921 0
M  V30 2103 H 219.868 -3.16232 -0.647851 0
M  V30 2104 H 218.92 -3.37073 1.76312 0
M  V30 2105 H 220.232 -4.51729 2.11524 0
M  V30 2106 H 219.386 -6.05785 0.333094 0
M  V30 2107 H 218.125 -4.87559 -0.117377 0
M  V30 2108 H 217.13 -5.04686 2.18111 0
M  V30 2109 H 218.355 -6.26301 2.62533 0
M  V30 2110 H 216.301 -6.54783 0.399455 0
M  V30 2111 H 216.218 -7.30214 1.95763 0
M  V30 2112 H 217.486 -7.74795 0.855181 0
M  V30 2113 N 221.715 -0.905404 -1.28997 0
M  V30 2114 C 222.963 -0.533192 -1.9494 0
M  V30 2115 C 223.284 0.924618 -1.71685 0
M  V30 2116 O 222.554 1.65268 -1.05183 0
M  V30 2117 H 221.134 -0.194194 -0.721317 0
M  V30 2118 H 223.796 -1.15294 -1.57141 0
M  V30 2119 H 222.892 -0.72059 -3.03667 0
M  V30 2120 N 223.193 1.4272 -0.668489 0
M  V30 2121 C 224.421 2.05966 -0.196348 0
M  V30 2122 C 224.836 1.50191 1.14403 0
M  V30 2123 O 224.193 0.639208 1.7094 0
M  V30 2124 C 224.244 3.61314 -0.115815 0
M  V30 2125 O 223.965 4.1502 -1.40322 0
M  V30 2126 C 225.466 4.41663 0.380579 0
M  V30 2127 H 222.686 0.663954 -0.0969829 0
M  V30 2128 H 225.23 1.82966 -0.913446 0
M  V30 2129 H 223.385 3.83448 0.551931 0
M  V30 2130 H 223.799 5.08832 -1.27243 0
M  V30 2131 H 225.273 5.5065 0.385848 0
M  V30 2132 H 225.75 4.15792 1.41471 0
M  V30 2133 H 226.356 4.24534 -0.255209 0
M  V30 2134 N 224.671 0.411399 1.52136 0
M  V30 2135 C 225.618 -0.412975 2.27075 0
M  V30 2136 C 226.588 -1.03912 1.29582 0
M  V30 2137 O 227.773 -1.06296 1.58448 0
M  V30 2138 C 224.913 -1.52247 3.09701 0
M  V30 2139 C 224.026 -0.917021 4.22155 0
M  V30 2140 C 223.161 -1.9994 4.92135 0
M  V30 2141 C 222.2 -1.37101 5.96548 0
M  V30 2142 N 221.337 -2.39364 6.60038 0
M  V30 2143 H 226.177 0.232499 2.97092 0
M  V30 2144 H 223.714 0.126496 1.46555 0
M  V30 2145 H 225.672 -2.17674 3.55913 0
M  V30 2146 H 224.302 -2.13794 2.41851 0
M  V30 2147 H 223.354 -0.151742 3.80097 0
M  V30 2148 H 224.666 -0.418006 4.97045 0
M  V30 2149 H 223.82 -2.73088 5.41763 0
M  V30 2150 H 222.559 -2.53208 4.16818 0
M  V30 2151 H 221.564 -0.624873 5.46237 0
M  V30 2152 H 222.789 -0.845998 6.7381 0
M  V30 2153 H 220.735 -2.91759 5.87548 0
M  V30 2154 H 220.652 -1.9428 7.3061 0
M  V30 2155 H 221.92 -3.12074 7.14304 0
M  V30 2156 N 226.149 -1.5696 0.141893 0
M  V30 2157 C 227.082 -2.12271 -0.837627 0
M  V30 2158 C 228.06 -1.04495 -1.24578 0
M  V30 2159 O 229.244 -1.32293 -1.34278 0
M  V30 2160 C 226.371 -2.63822 -2.12404 0
M  V30 2161 C 225.417 -3.83698 -1.86221 0
M  V30 2162 S 226.25 -5.24948 -1.05781 0
M  V30 2163 C 227.406 -5.79884 -2.35552 0
M  V30 2164 H 227.639 -2.95023 -0.367249 0
M  V30 2165 H 225.172 -1.54231 -0.0723014 0
M  V30 2166 H 227.13 -2.94175 -2.86307 0
M  V30 2167 H 225.791 -1.8121 -2.56557 0
M  V30 2168 H 224.984 -4.17995 -2.81596 0
M  V30 2169 H 224.586 -3.5408 -1.20429 0
M  V30 2170 H 226.878 -5.91005 -3.31239 0
M  V30 2171 H 227.821 -6.77544 -2.05767 0
M  V30 2172 H 228.229 -5.08095 -2.45967 0
M  V30 2173 N 227.627 0.131896 -1.57047 0
M  V30 2174 C 228.59 1.14638 -1.98471 0
M  V30 2175 C 229.59 1.35029 -0.873148 0
M  V30 2176 O 230.78 1.31764 -1.13946 0
M  V30 2177 C 227.912 2.50358 -2.31373 0
M  V30 2178 H 229.105 0.79064 -2.8929 0
M  V30 2179 H 226.658 0.375761 -1.51716 0
M  V30 2180 H 227.393 2.90876 -1.43393 0
M  V30 2181 H 227.178 2.36915 -3.12432 0
M  V30 2182 H 228.668 3.23395 -2.64207 0
M  V30 2183 N 229.106 1.52395 0.401703 0
M  V30 2184 C 230.353 1.66817 1.14796 0
M  V30 2185 C 230.681 0.401772 1.90305 0
M  V30 2186 O 229.936 -0.615487 1.85769 0
M  V30 2187 C 230.235 2.84578 2.16217 0
M  V30 2188 C 229.901 4.22513 1.5746 0
M  V30 2189 C 228.563 4.60029 1.41161 0
M  V30 2190 C 230.915 5.0844 1.14622 0
M  V30 2191 C 228.243 5.81144 0.80552 0
M  V30 2192 C 230.595 6.30167 0.55428 0
M  V30 2193 C 229.259 6.66426 0.378482 0
M  V30 2194 H 228.529 0.610428 0.420069 0
M  V30 2195 H 231.176 1.86512 0.434212 0
M  V30 2196 H 229.481 2.59248 2.93764 0
M  V30 2197 H 231.178 2.92933 2.73845 0
M  V30 2198 H 227.768 3.92953 1.71132 0
M  V30 2199 H 231.952 4.80034 1.26021 0
M  V30 2200 H 227.208 6.07855 0.657399 0
M  V30 2201 H 231.382 6.96071 0.213983 0
M  V30 2202 H 229.009 7.60143 -0.0932606 0
M  V30 2203 N 230.584 -0.659388 1.43143 0
M  V30 2204 C 231.547 -1.75432 1.47501 0
M  V30 2205 C 232.547 -1.56707 0.360512 0
M  V30 2206 O 233.737 -1.62717 0.622002 0
M  V30 2207 C 230.869 -3.14239 1.32162 0
M  V30 2208 H 232.062 -1.7295 2.45006 0
M  V30 2209 H 229.615 -0.870469 1.29817 0
M  V30 2210 H 230.35 -3.22336 0.356401 0
M  V30 2211 H 230.135 -3.29235 2.12948 0
M  V30 2212 H 231.625 -3.94094 1.3813 0
M  V30 2213 N 232.062 -1.29571 -0.897171 0
M  V30 2214 C 233.31 -1.17456 -1.64464 0
M  V30 2215 C 233.631 0.273698 -1.9307 0
M  V30 2216 O 232.901 1.18684 -1.55855 0
M  V30 2217 H 231.481 -0.431706 -0.609622 0
M  V30 2218 H 234.143 -1.62531 -1.07562 0
M  V30 2219 H 233.239 -1.72648 -2.59998 0
M  V30 2220 N 233.54 1.10788 -1.12088 0
M  V30 2221 C 234.47 2.19083 -0.807755 0
M  V30 2222 C 235.451 1.6858 0.226859 0
M  V30 2223 O 236.636 1.93997 0.0888475 0
M  V30 2224 C 233.766 3.46344 -0.257576 0
M  V30 2225 C 232.72 4.101 -1.22483 0
M  V30 2226 C 232.046 5.32016 -0.535052 0
M  V30 2227 C 233.346 4.54236 -2.57811 0
M  V30 2228 H 235.04 2.45534 -1.71328 0
M  V30 2229 H 232.586 1.1801 -0.825205 0
M  V30 2230 H 234.539 4.21392 -0.0262679 0
M  V30 2231 H 233.263 3.19373 0.683278 0
M  V30 2232 H 231.922 3.37054 -1.44189 0
M  V30 2233 H 231.57 5.01319 0.410827 0
M  V30 2234 H 231.27 5.75625 -1.18024 0
M  V30 2235 H 232.794 6.09799 -0.312695 0
M  V30 2236 H 234.208 5.20575 -2.40155 0
M  V30 2237 H 232.605 5.08682 -3.18375 0
M  V30 2238 H 233.675 3.6734 -3.16528 0
M  V30 2239 N 235.018 0.912232 1.28515 0
M  V30 2240 C 236.429 0.591352 1.77087 0
M  V30 2241 C 236.78 -0.8933 1.74684 0
M  V30 2242 O 235.905 -1.69876 1.34056 0
M  V30 2243 C 236.5 1.06668 3.2157 0
M  V30 2244 C 235.059 0.79675 3.67871 0
M  V30 2245 C 234.206 1.23427 2.48316 0
M  V30 2246 H 237.157 1.09365 1.15 0
M  V30 2247 H 237.178 0.407455 3.78312 0
M  V30 2248 H 236.69 2.14726 3.23287 0
M  V30 2249 H 234.791 -0.270679 3.71616 0
M  V30 2250 H 234.904 1.40343 4.58084 0
M  V30 2251 H 233.268 0.653036 2.46186 0
M  V30 2252 H 234.051 2.32316 2.52753 0
M  V30 2253 N 236.496 -1.42363 0.676048 0
M  V30 2254 C 237.443 -2.308 -0.00150904 0
M  V30 2255 C 238.413 -1.46032 -0.791444 0
M  V30 2256 O 239.598 -1.74861 -0.76344 0
M  V30 2257 C 236.738 -3.31883 -0.945919 0
M  V30 2258 C 235.851 -4.31741 -0.149675 0
M  V30 2259 C 234.986 -5.19898 -1.08995 0
M  V30 2260 C 234.025 -6.11434 -0.285465 0
M  V30 2261 N 233.162 -6.92138 -1.17851 0
M  V30 2262 H 238.002 -2.88187 0.758455 0
M  V30 2263 H 235.539 -1.41952 0.38576 0
M  V30 2264 H 237.497 -3.89019 -1.50731 0
M  V30 2265 H 236.127 -2.76093 -1.6725 0
M  V30 2266 H 235.179 -3.76713 0.528359 0
M  V30 2267 H 236.491 -4.96534 0.474866 0
M  V30 2268 H 235.645 -5.81772 -1.72123 0
M  V30 2269 H 234.384 -4.55284 -1.74837 0
M  V30 2270 H 233.389 -5.48627 0.359018 0
M  V30 2271 H 234.614 -6.78097 0.368883 0
M  V30 2272 H 232.56 -6.30152 -1.82332 0
M  V30 2273 H 232.477 -7.53542 -0.609082 0
M  V30 2274 H 233.745 -7.58499 -1.79722 0
M  V30 2275 N 237.974 -0.419461 -1.51915 0
M  V30 2276 C 239.223 0.154346 -2.01109 0
M  V30 2277 C 239.536 1.45338 -1.30905 0
M  V30 2278 O 240.742 2.10906 -1.7097 0
M  V30 2279 C 239.198 0.325615 -3.58424 0
M  V30 2280 C 238.806 -0.961934 -4.37551 0
M  V30 2281 C 240.55 0.854155 -4.15818 0
M  V30 2282 C 238.457 -0.757287 -5.86531 0
M  V30 2283 H 237.387 0.0614563 -0.751491 0
M  V30 2284 H 240.038 -0.54649 -1.75173 0
M  V30 2285 H 238.42 1.08903 -3.80731 0
M  V30 2286 H 239.594 -1.7323 -4.26999 0
M  V30 2287 H 237.909 -1.41766 -3.91524 0
M  V30 2288 H 240.506 1.02346 -5.24814 0
M  V30 2289 H 240.849 1.83172 -3.73837 0
M  V30 2290 H 241.382 0.149528 -3.97519 0
M  V30 2291 H 238.121 -1.70671 -6.32892 0
M  V30 2292 H 237.641 -0.0264061 -5.99794 0
M  V30 2293 H 239.32 -0.403482 -6.45741 0
M  V30 2294 N 239.452 1.56882 -0.150215 0
M  V30 2295 C 240.362 2.20494 0.801222 0
M  V30 2296 C 241.378 1.19019 1.26927 0
M  V30 2297 O 242.554 1.51607 1.32579 0
M  V30 2298 C 239.619 2.81659 2.02161 0
M  V30 2299 C 238.68 3.9827 1.60249 0
M  V30 2300 C 237.913 4.56508 2.7647 0
M  V30 2301 O 238.136 4.13627 3.92771 0
M  V30 2302 O 237.07 5.46719 2.51757 0
M  V30 2303 H 240.896 3.02315 0.289717 0
M  V30 2304 H 238.481 1.49202 0.0769684 0
M  V30 2305 H 240.363 3.20522 2.73576 0
M  V30 2306 H 239.038 2.02849 2.52258 0
M  V30 2307 H 237.945 3.64117 0.858477 0
M  V30 2308 H 239.278 4.78609 1.14864 0
M  V30 2309 N 240.93 -0.123565 1.57115 0
M  V30 2310 C 242.207 -0.862196 1.75572 0
M  V30 2311 C 242.587 -1.98279 0.724475 0
M  V30 2312 O 241.935 -2.27102 -0.252407 0
M  V30 2313 C 242.145 -1.38309 3.20424 0
M  V30 2314 C 243.493 -1.83724 3.82793 0
M  V30 2315 O 244.517 -1.47999 3.23998 0
M  V30 2316 O 243.376 -2.49685 4.86127 0
M  V30 2317 H 240.47 -0.409113 0.718718 0
M  V30 2318 H 243.016 -0.107661 1.69358 0
M  V30 2319 H 241.788 -0.578889 3.86994 0
M  V30 2320 H 241.411 -2.20046 3.31158 0
M  V30 2321 N 242.408 -1.52605 -0.393616 0
M  V30 2322 C 243.824 -1.41753 -0.733357 0
M  V30 2323 C 244.024 -0.534293 -1.94287 0
M  V30 2324 O 243.08 -0.0059787 -2.52499 0
M  V30 2325 C 244.393 -2.84531 -0.972772 0
M  V30 2326 C 245.941 -2.93978 -1.07453 0
M  V30 2327 C 246.416 -4.37756 -1.3466 0
M  V30 2328 N 247.907 -4.4106 -1.41492 0
M  V30 2329 C 248.642 -5.49387 -1.642 0
M  V30 2330 N 248.138 -6.67806 -1.8441 0
M  V30 2331 N 249.931 -5.36923 -1.66342 0
M  V30 2332 H 242.082 -2.08555 0.402328 0
M  V30 2333 H 244.345 -0.940654 0.117789 0
M  V30 2334 H 244.051 -3.51353 -0.156204 0
M  V30 2335 H 243.925 -3.26508 -1.88871 0
M  V30 2336 H 246.312 -2.27326 -1.88167 0
M  V30 2337 H 246.393 -2.55435 -0.136605 0
M  V30 2338 H 246.037 -5.04972 -0.544581 0
M  V30 2339 H 245.967 -4.73848 -2.2973 0
M  V30 2340 H 248.458 -3.55705 -1.27601 0
M  V30 2341 H 248.771 -7.46141 -2.01231 0
M  V30 2342 H 247.116 -6.70843 -1.81644 0
M  V30 2343 H 250.307 -4.43381 -1.50102 0
M  V30 2344 H 250.48 -6.21416 -1.837 0
M  V30 2345 N 243.887 0.651787 -1.4349 0
M  V30 2346 C 244.85 1.74647 -1.48429 0
M  V30 2347 C 245.85 1.56513 -0.368817 0
M  V30 2348 O 247.04 1.62385 -0.630623 0
M  V30 2349 C 244.172 3.13533 -1.33827 0
M  V30 2350 H 245.365 1.71649 -2.4592 0
M  V30 2351 H 242.918 0.863573 -1.30277 0
M  V30 2352 H 243.653 3.22142 -0.37349 0
M  V30 2353 H 243.438 3.28101 -2.14691 0
M  V30 2354 H 244.928 3.93356 -1.40218 0
M  V30 2355 N 245.365 1.30045 0.890287 0
M  V30 2356 C 246.313 1.15873 2.01683 0
M  V30 2357 C 247.307 0.0719403 1.69247 0
M  V30 2358 O 248.513 0.232414 1.78493 0
M  V30 2359 H 244.888 0.358203 0.661207 0
M  V30 2360 H 246.859 2.11229 2.10772 0
M  V30 2361 C 245.608 0.861842 3.36849 0
M  V30 2362 H 244.931 1.69016 3.62317 0
M  V30 2363 H 246.371 0.802762 4.16331 0
M  V30 2364 C 244.83 -0.435132 3.34078 0
M  V30 2365 O 245.36 -1.4583 3.74295 0
M  V30 2366 N 243.566 -0.444377 2.87182 0
M  V30 2367 H 243.113 0.388723 2.5465 0
M  V30 2368 H 243.071 -1.31213 2.85711 0
M  V30 2369 N 246.843 -1.10192 1.12674 0
M  V30 2370 C 247.773 -2.18652 0.819362 0
M  V30 2371 C 248.754 -1.68698 -0.217915 0
M  V30 2372 O 249.939 -1.94041 -0.0785581 0
M  V30 2373 C 247.069 -3.46202 0.27594 0
M  V30 2374 C 246.023 -4.09444 1.24656 0
M  V30 2375 C 245.349 -5.31725 0.563258 0
M  V30 2376 C 246.649 -4.52863 2.60217 0
M  V30 2377 H 248.343 -2.44622 1.72628 0
M  V30 2378 H 245.889 -1.17571 0.831451 0
M  V30 2379 H 247.842 -4.21372 0.0486149 0
M  V30 2380 H 246.566 -3.1973 -0.666331 0
M  V30 2381 H 245.225 -3.36284 1.45974 0
M  V30 2382 H 244.873 -5.0153 -0.384235 0
M  V30 2383 H 244.573 -5.74991 1.21075 0
M  V30 2384 H 246.097 -6.09624 0.34503 0
M  V30 2385 H 247.511 -5.19294 2.42913 0
M  V30 2386 H 245.908 -5.06986 3.21068 0
M  V30 2387 H 246.978 -3.65656 3.18471 0
M  V30 2388 N 248.321 -0.919034 -1.28029 0
M  V30 2389 C 249.57 -0.550802 -1.94034 0
M  V30 2390 C 249.883 0.910877 -1.73096 0
M  V30 2391 O 251.089 1.3875 -2.33368 0
M  V30 2392 C 249.545 -0.934249 -3.47563 0
M  V30 2393 C 249.153 -2.41602 -3.7727 0
M  V30 2394 C 250.897 -0.636854 -4.19696 0
M  V30 2395 C 248.804 -2.73932 -5.24133 0
M  V30 2396 H 247.734 -0.202273 -0.726362 0
M  V30 2397 H 250.385 -1.11867 -1.45458 0
M  V30 2398 H 248.767 -0.295115 -3.94899 0
M  V30 2399 H 249.941 -3.10233 -3.40723 0
M  V30 2400 H 248.256 -2.68441 -3.18321 0
M  V30 2401 H 250.853 -0.855005 -5.2782 0
M  V30 2402 H 251.196 0.425575 -4.14119 0
M  V30 2403 H 251.729 -1.23469 -3.78154 0
M  V30 2404 H 248.468 -3.79049 -5.34792 0
M  V30 2405 H 247.988 -2.09942 -5.61858 0
M  V30 2406 H 249.667 -2.61215 -5.91925 0
M  V30 2407 N 249.799 1.42003 -0.683588 0
M  V30 2408 C 250.762 2.29191 -0.0198243 0
M  V30 2409 C 251.762 1.43773 0.72013 0
M  V30 2410 O 252.952 1.65061 0.556815 0
M  V30 2411 C 250.084 3.26435 0.982487 0
M  V30 2412 H 251.277 2.8938 -0.787345 0
M  V30 2413 H 248.83 1.49789 -0.446418 0
M  V30 2414 H 249.565 2.71203 1.77819 0
M  V30 2415 H 249.35 3.89449 0.455182 0
M  V30 2416 H 250.84 3.918 1.44508 0
M  V30 2417 N 251.277 0.427512 1.51691 0
M  V30 2418 C 252.507 -0.140986 2.06118 0
M  V30 2419 C 252.915 -1.37854 1.29588 0
M  V30 2420 O 252.258 -1.80411 0.346036 0
M  V30 2421 C 252.32 -0.538276 3.55447 0
M  V30 2422 C 251.984 0.591095 4.53161 0
M  V30 2423 C 252.981 1.46027 4.98971 0
M  V30 2424 C 250.666 0.769028 4.96378 0
M  V30 2425 C 252.66 2.49216 5.8666 0
M  V30 2426 C 250.347 1.80421 5.83859 0
M  V30 2427 C 251.345 2.66417 6.28897 0
M  V30 2428 O 251.033 3.68159 7.14643 0
M  V30 2429 H 250.765 -0.0157455 0.675817 0
M  V30 2430 H 253.319 0.602495 1.96365 0
M  V30 2431 H 251.549 -1.33432 3.6295 0
M  V30 2432 H 253.238 -1.0368 3.92435 0
M  V30 2433 H 254.004 1.33429 4.66285 0
M  V30 2434 H 249.883 0.109273 4.6087 0
M  V30 2435 H 253.427 3.16372 6.21735 0
M  V30 2436 H 249.324 1.93042 6.15959 0
M  V30 2437 H 250.092 3.64622 7.32798 0
M  V30 2438 N 252.755 -1.56801 0.158532 0
M  V30 2439 C 253.685 -2.20347 -0.772609 0
M  V30 2440 C 254.666 -1.15518 -1.24859 0
M  V30 2441 O 255.851 -1.43902 -1.30406 0
M  V30 2442 C 252.981 -2.83417 -2.00729 0
M  V30 2443 C 251.935 -3.94174 -1.66765 0
M  V30 2444 C 251.261 -4.44233 -2.97592 0
M  V30 2445 C 252.561 -5.14392 -0.905447 0
M  V30 2446 H 254.255 -2.98413 -0.242959 0
M  V30 2447 H 251.801 -1.43537 -0.115419 0
M  V30 2448 H 253.754 -3.26543 -2.6636 0
M  V30 2449 H 252.478 -2.02701 -2.56086 0
M  V30 2450 H 251.137 -3.51684 -1.03508 0
M  V30 2451 H 250.785 -3.60325 -3.50963 0
M  V30 2452 H 250.485 -5.18945 -2.75626 0
M  V30 2453 H 252.009 -4.90037 -3.64274 0
M  V30 2454 H 253.423 -5.5429 -1.46408 0
M  V30 2455 H 251.82 -5.9494 -0.7853 0
M  V30 2456 H 252.89 -4.84795 0.100668 0
M  V30 2457 N 254.233 0.115231 -1.57178 0
M  V30 2458 C 255.143 1.15994 -2.03918 0
M  V30 2459 C 256.159 1.45103 -0.960268 0
M  V30 2460 O 257.335 1.56144 -1.27204 0
M  V30 2461 C 254.4 2.46568 -2.43732 0
M  V30 2462 C 253.461 2.24822 -3.65723 0
M  V30 2463 C 252.694 3.4917 -4.03629 0
M  V30 2464 O 252.917 4.56623 -3.41835 0
M  V30 2465 O 251.851 3.39949 -4.96708 0
M  V30 2466 H 255.677 0.793019 -2.93164 0
M  V30 2467 H 253.262 0.3263 -1.45793 0
M  V30 2468 H 255.144 3.23492 -2.70057 0
M  V30 2469 H 253.819 2.82726 -1.57631 0
M  V30 2470 H 252.726 1.45744 -3.44542 0
M  V30 2471 H 254.059 1.93566 -4.52541 0
M  V30 2472 N 255.711 1.52812 0.385517 0
M  V30 2473 C 256.959 1.67694 1.12797 0
M  V30 2474 C 257.28 0.421115 1.90399 0
M  V30 2475 O 256.55 -0.564551 1.87589 0
M  V30 2476 H 255.13 0.618155 0.419396 0
M  V30 2477 H 257.792 1.89938 0.436972 0
M  V30 2478 H 256.888 2.52896 1.82894 0
M  V30 2479 N 257.189 -0.644168 1.43834 0
M  V30 2480 C 258.121 -1.76955 1.45669 0
M  V30 2481 C 259.134 -1.58956 0.351666 0
M  V30 2482 O 260.323 -1.6751 0.616644 0
M  V30 2483 C 257.423 -3.14507 1.26248 0
M  V30 2484 C 256.596 -3.59083 2.49757 0
M  V30 2485 C 255.655 -4.75467 2.25427 0
M  V30 2486 O 254.681 -4.84444 2.98836 0
M  V30 2487 N 255.883 -5.66289 1.27661 0
M  V30 2488 H 258.648 -1.75856 2.42682 0
M  V30 2489 H 256.209 -0.828312 1.39106 0
M  V30 2490 H 258.201 -3.90067 1.0784 0
M  V30 2491 H 256.771 -3.10325 0.376478 0
M  V30 2492 H 255.991 -2.7387 2.8353 0
M  V30 2493 H 257.279 -3.85613 3.31934 0
M  V30 2494 H 256.677 -5.61718 0.670064 0
M  V30 2495 H 255.234 -6.41533 1.15234 0
M  V30 2496 N 258.668 -1.30515 -0.883378 0
M  V30 2497 C 259.6 -1.12846 -1.99496 0
M  V30 2498 C 260.613 -0.0712571 -1.62644 0
M  V30 2499 O 261.802 -0.317432 -1.75655 0
M  V30 2500 C 258.902 -0.699123 -3.3161 0
M  V30 2501 C 258.075 -1.83842 -3.96889 0
M  V30 2502 C 257.134 -1.39737 -5.07307 0
M  V30 2503 O 256.16 -2.10485 -5.28852 0
M  V30 2504 N 257.362 -0.277279 -5.79837 0
M  V30 2505 H 260.127 -2.08585 -2.15203 0
M  V30 2506 H 257.688 -1.22672 -1.05656 0
M  V30 2507 H 259.68 -0.387044 -4.02845 0
M  V30 2508 H 258.25 0.166276 -3.12157 0
M  V30 2509 H 257.47 -2.31853 -3.18807 0
M  V30 2510 H 258.758 -2.60187 -4.37241 0
M  V30 2511 H 258.156 0.3122 -5.64838 0
M  V30 2512 H 256.713 -0.0246623 -6.51795 0
M  V30 2513 O 260.185 1.01953 -1.25251 0
M  V30 2514 H 260.876 1.63744 -1.03478 0
M  V30 END ATOM
M  V30 BEGIN BOND
M  V30 END BOND
M  V30 END CTAB
M  END
$$$$
