drugbank_target|P54802 Alpha-N-acetylglucosaminidase (DB00141)
 OpenBabel12092119303D

  0  0  0     0  0            999 V3000
M  V30 BEGIN CTAB
M  V30 COUNTS 11493 11666 0 0 0
M  V30 BEGIN ATOM
M  V30 1 H -0.908 1.98254 -0.117106 0
M  V30 2 N 0 1.576 0 0
M  V30 3 C 0.933 2.03868 1.02534 0
M  V30 4 C 1.911 0.928543 1.3348 0
M  V30 5 O 3.095 1.19667 1.45644 0
M  V30 6 C 0.222 2.43627 2.35294 0
M  V30 7 C -0.732 3.65373 2.2001 0
M  V30 8 S 0.101 5.13292 1.52614 0
M  V30 9 C 1.257 5.56322 2.86805 0
M  V30 10 H 1.49 2.90518 0.631377 0
M  V30 11 H -0.977 1.52953 0.210867 0
M  V30 12 H 0.981 2.67203 3.11629 0
M  V30 13 H -0.358 1.57376 2.7183 0
M  V30 14 H -1.165 3.90944 3.18086 0
M  V30 15 H -1.563 3.418 1.51819 0
M  V30 16 H 0.729 5.58782 3.83104 0
M  V30 17 H 1.672 6.56266 2.65933 0
M  V30 18 H 2.08 4.83886 2.90714 0
M  V30 19 N 1.4781 -0.272755 1.55222 0
M  V30 20 C 2.3881 -1.35918 1.91216 0
M  V30 21 C 3.4041 -1.54026 0.809436 0
M  V30 22 O 4.5801 -1.68148 1.10852 0
M  V30 23 C 1.6451 -2.69834 2.17693 0
M  V30 24 C 0.7061 -2.6047 3.41253 0
M  V30 25 C -0.0609 -3.88 3.66458 0
M  V30 26 O 0.1621 -4.88693 2.94169 0
M  V30 27 O -0.9039 -3.88189 4.59992 0
M  V30 28 H 2.9221 -1.0839 2.83699 0
M  V30 29 H 0.5071 -0.471301 1.41771 0
M  V30 30 H 2.3891 -3.49017 2.36147 0
M  V30 31 H 1.0641 -2.97148 1.28392 0
M  V30 32 H -0.0289 -1.79663 3.28134 0
M  V30 33 H 1.3041 -2.38106 4.30774 0
M  V30 34 N 2.9562 -1.48159 -0.537278 0
M  V30 35 C 3.9192 -1.61665 -1.62472 0
M  V30 36 C 4.9192 -0.490395 -1.5314 0
M  V30 37 O 6.1092 -0.755998 -1.5694 0
M  V30 38 C 3.2412 -1.57997 -3.02076 0
M  V30 39 H 4.4342 -2.58621 -1.51839 0
M  V30 40 H 1.9872 -1.36647 -0.758771 0
M  V30 41 H 2.7222 -0.624913 -3.18222 0
M  V30 42 H 2.5072 -2.39755 -3.10258 0
M  V30 43 H 3.9972 -1.70627 -3.81151 0
M  V30 44 N 4.4343 0.785586 -1.36625 0
M  V30 45 C 5.6803 1.54591 -1.31261 0
M  V30 46 C 6.0133 1.93906 0.106823 0
M  V30 47 O 5.2883 1.63007 1.06108 0
M  V30 48 C 5.5713 2.82038 -2.23889 0
M  V30 49 C 5.4243 2.49066 -3.74548 0
M  V30 50 C 6.7433 3.83887 -2.15217 0
M  V30 51 H 3.8623 0.560846 -0.478143 0
M  V30 52 H 6.5043 0.902278 -1.67209 0
M  V30 53 H 4.6543 3.36961 -1.93363 0
M  V30 54 H 6.3263 2.00164 -4.15611 0
M  V30 55 H 4.5693 1.81954 -3.93796 0
M  V30 56 H 5.2403 3.40109 -4.34776 0
M  V30 57 H 7.7163 3.38421 -2.42096 0
M  V30 58 H 6.5923 4.70806 -2.82193 0
M  V30 59 H 6.8533 4.27131 -1.14068 0
M  V30 60 N 5.9124 1.20967 1.01018 0
M  V30 61 C 6.8754 0.965918 2.07853 0
M  V30 62 C 7.8754 -0.0610545 1.60684 0
M  V30 63 O 9.0654 0.175681 1.73312 0
M  V30 64 C 6.1974 0.455513 3.37843 0
M  V30 65 H 7.3904 1.91365 2.3091 0
M  V30 66 H 4.9434 1.02594 1.17916 0
M  V30 67 H 5.6784 -0.497381 3.20463 0
M  V30 68 H 5.4634 1.19622 3.73407 0
M  V30 69 H 6.9534 0.304667 4.16487 0
M  V30 70 N 7.3905 -1.2043 1.01659 0
M  V30 71 C 8.6365 -1.90079 0.706963 0
M  V30 72 C 8.9695 -1.78648 -0.761474 0
M  V30 73 O 8.2445 -1.17069 -1.55323 0
M  V30 74 C 8.5275 -3.41469 1.14327 0
M  V30 75 C 8.3805 -3.61833 2.67201 0
M  V30 76 C 9.6995 -4.34261 0.714529 0
M  V30 77 H 6.8185 -0.690254 0.2583 0
M  V30 78 H 9.4605 -1.41826 1.26433 0
M  V30 79 H 7.6105 -3.82696 0.669056 0
M  V30 80 H 9.2825 -3.2986 3.22475 0
M  V30 81 H 7.5255 -3.05304 3.08175 0
M  V30 82 H 8.1965 -4.67955 2.92783 0
M  V30 83 H 10.6725 -4.00682 1.12221 0
M  V30 84 H 9.5485 -5.38806 1.04784 0
M  V30 85 H 9.8095 -4.40431 -0.383799 0
M  V30 86 N 8.8686 -0.792821 -1.36206 0
M  V30 87 C 9.8316 -0.199459 -2.2833 0
M  V30 88 C 10.8316 0.605189 -1.48977 0
M  V30 89 O 12.0216 0.425685 -1.68919 0
M  V30 90 C 9.1536 0.723523 -3.33134 0
M  V30 91 H 10.3466 -1.01181 -2.82316 0
M  V30 92 H 7.8996 -0.562485 -1.45828 0
M  V30 93 H 8.6346 1.56008 -2.84309 0
M  V30 94 H 8.4196 0.148436 -3.91819 0
M  V30 95 H 9.9096 1.13344 -4.01924 0
M  V30 96 N 10.3467 1.47872 -0.545128 0
M  V30 97 C 11.3097 2.28337 0.198717 0
M  V30 98 C 12.3097 1.36255 0.853888 0
M  V30 99 O 13.4997 1.59003 0.711606 0
M  V30 100 C 10.6317 3.15585 1.28915 0
M  V30 101 H 11.8247 2.95567 -0.507941 0
M  V30 102 H 9.3777 1.53362 -0.301616 0
M  V30 103 H 10.1127 2.53019 2.02859 0
M  V30 104 H 9.8977 3.83337 0.824309 0
M  V30 105 H 11.3877 3.76243 1.81194 0
M  V30 106 N 11.8248 0.280983 1.55075 0
M  V30 107 C 12.7878 -0.590896 2.21452 0
M  V30 108 C 13.7878 -1.07682 1.19421 0
M  V30 109 O 14.9778 -0.97605 1.44288 0
M  V30 110 C 12.1098 -1.81587 2.88511 0
M  V30 111 H 13.3028 -0.0112554 2.99898 0
M  V30 112 H 10.8558 0.0316438 1.56268 0
M  V30 113 H 11.5908 -2.43587 2.14093 0
M  V30 114 H 11.3758 -1.4753 3.63287 0
M  V30 115 H 12.8658 -2.43575 3.39206 0
M  V30 116 N 13.3029 -1.57598 0.00835791 0
M  V30 117 C 14.5489 -1.91211 -0.675732 0
M  V30 118 C 14.8819 -0.883139 -1.72958 0
M  V30 119 O 14.1569 0.097016 -1.94258 0
M  V30 120 C 14.4399 -3.35379 -1.31123 0
M  V30 121 C 14.2929 -4.48999 -0.268356 0
M  V30 122 C 15.6119 -3.7912 -2.23508 0
M  V30 123 H 12.7309 -0.695374 -0.244179 0
M  V30 124 H 15.3729 -1.89901 0.0613655 0
M  V30 125 H 13.5229 -3.36626 -1.93946 0
M  V30 126 H 15.1949 -4.59887 0.360844 0
M  V30 127 H 13.4379 -4.31873 0.408482 0
M  V30 128 H 14.1089 -5.46851 -0.752218 0
M  V30 129 H 16.5849 -3.79477 -1.70693 0
M  V30 130 H 15.4609 -4.80729 -2.64936 0
M  V30 131 H 15.7219 -3.13455 -3.11766 0
M  V30 132 N 14.781 0.264519 -1.55364 0
M  V30 133 C 16.029 0.993021 -1.76021 0
M  V30 134 C 16.35 1.86511 -0.569099 0
M  V30 135 O 15.62 1.91438 0.415735 0
M  V30 136 H 14.2 0.369639 -0.649135 0
M  V30 137 H 16.862 0.286707 -1.9278 0
M  V30 138 H 15.958 1.62502 -2.66457 0
M  V30 139 N 16.2591 1.48442 0.529413 0
M  V30 140 C 17.5051 1.5672 1.28711 0
M  V30 141 C 17.8381 0.2406 1.92704 0
M  V30 142 O 17.1131 -0.753454 1.79313 0
M  V30 143 C 17.3961 2.70587 2.37603 0
M  V30 144 C 17.2491 4.12953 1.78297 0
M  V30 145 C 18.5681 2.80212 3.39366 0
M  V30 146 H 15.6871 0.570474 0.466613 0
M  V30 147 H 18.3291 1.80617 0.589706 0
M  V30 148 H 16.4791 2.50342 2.97088 0
M  V30 149 H 18.1511 4.44639 1.22858 0
M  V30 150 H 16.3941 4.19927 1.0883 0
M  V30 151 H 17.0651 4.88448 2.57144 0
M  V30 152 H 19.5411 2.98553 2.89836 0
M  V30 153 H 18.4171 3.61611 4.12951 0
M  V30 154 H 18.6781 1.88393 3.99951 0
M  V30 155 N 17.7372 -0.778329 1.37039 0
M  V30 156 C 18.6672 -1.90546 1.34962 0
M  V30 157 C 19.6482 -1.68681 0.219274 0
M  V30 158 O 20.8332 -1.89634 0.418624 0
M  V30 159 C 17.9632 -3.27734 1.14925 0
M  V30 160 C 16.9172 -3.64147 2.24902 0
M  V30 161 C 16.2432 -4.99806 1.89996 0
M  V30 162 C 17.5432 -3.71579 3.67051 0
M  V30 163 H 19.2372 -1.92541 2.29277 0
M  V30 164 H 16.7832 -0.924948 1.10366 0
M  V30 165 H 18.7362 -4.06215 1.12104 0
M  V30 166 H 17.4602 -3.26154 0.170631 0
M  V30 167 H 16.1192 -2.8797 2.26868 0
M  V30 168 H 15.7672 -4.94759 0.906796 0
M  V30 169 H 15.4672 -5.25139 2.63634 0
M  V30 170 H 16.9912 -5.80694 1.88749 0
M  V30 171 H 18.4052 -4.40227 3.67251 0
M  V30 172 H 16.8022 -4.08405 4.39688 0
M  V30 173 H 17.8722 -2.72404 4.01154 0
M  V30 174 N 19.2153 -1.21501 -1.00376 0
M  V30 175 C 20.1453 -0.999478 -2.11028 0
M  V30 176 C 21.1263 0.0759671 -1.6993 0
M  V30 177 O 22.3113 -0.0841106 -1.94018 0
M  V30 178 C 19.4413 -0.564709 -3.42678 0
M  V30 179 C 18.3953 -1.58486 -3.97576 0
M  V30 180 C 17.7213 -1.00628 -5.25146 0
M  V30 181 C 19.0213 -2.97204 -4.29496 0
M  V30 182 H 20.7153 -1.92495 -2.29317 0
M  V30 183 H 18.2613 -0.92693 -1.102 0
M  V30 184 H 20.2143 -0.401091 -4.19487 0
M  V30 185 H 18.9383 0.396411 -3.24185 0
M  V30 186 H 17.5973 -1.73606 -3.22888 0
M  V30 187 H 17.2453 -0.0368439 -5.02987 0
M  V30 188 H 16.9453 -1.68771 -5.62841 0
M  V30 189 H 18.4693 -0.854015 -6.04598 0
M  V30 190 H 19.8833 -2.8552 -4.97143 0
M  V30 191 H 18.2803 -3.62372 -4.78338 0
M  V30 192 H 19.3503 -3.47956 -3.3772 0
M  V30 193 N 20.6934 1.19889 -1.02296 0
M  V30 194 C 21.6234 2.25141 -0.619174 0
M  V30 195 C 22.6044 1.66051 0.368915 0
M  V30 196 O 23.7894 1.92546 0.252941 0
M  V30 197 C 20.9194 3.4728 0.0368783 0
M  V30 198 C 19.8734 4.19005 -0.872865 0
M  V30 199 C 19.1994 5.34637 -0.0822402 0
M  V30 200 C 20.4994 4.74452 -2.18387 0
M  V30 201 H 22.1934 2.59171 -1.49903 0
M  V30 202 H 19.7394 1.24579 -0.722222 0
M  V30 203 H 21.6924 4.20098 0.330958 0
M  V30 204 H 20.4164 3.12433 0.95149 0
M  V30 205 H 19.0754 3.48061 -1.15105 0
M  V30 206 H 18.7234 4.96034 0.83422 0
M  V30 207 H 18.4234 5.83557 -0.688149 0
M  V30 208 H 19.9474 6.10255 0.205238 0
M  V30 209 H 21.3614 5.39055 -1.95172 0
M  V30 210 H 19.7584 5.33834 -2.74119 0
M  V30 211 H 20.8284 3.92844 -2.84257 0
M  V30 212 N 22.1715 0.800033 1.35784 0
M  V30 213 C 23.1345 0.211565 2.28221 0
M  V30 214 C 24.1345 -0.59728 1.49296 0
M  V30 215 O 25.3245 -0.416721 1.69142 0
M  V30 216 C 22.4565 -0.705846 3.33513 0
M  V30 217 H 23.6495 1.02677 2.81776 0
M  V30 218 H 21.2025 0.570211 1.45528 0
M  V30 219 H 21.9375 -1.54498 2.85133 0
M  V30 220 H 21.7225 -0.127655 3.91892 0
M  V30 221 H 23.2125 -1.11211 4.02519 0
M  V30 222 N 23.6496 -1.47581 0.552962 0
M  V30 223 C 24.8976 -2.02082 0.0272703 0
M  V30 224 C 25.2186 -1.4301 -1.32563 0
M  V30 225 O 24.4886 -0.603745 -1.86365 0
M  V30 226 H 23.0686 -0.746966 0.00709182 0
M  V30 227 H 25.7306 -1.81033 0.722008 0
M  V30 228 H 24.8266 -3.12034 -0.0639951 0
M  V30 229 N 25.1277 -0.289203 -1.54924 0
M  V30 230 C 26.0907 0.579144 -2.21762 0
M  V30 231 C 27.0907 1.07047 -1.1999 0
M  V30 232 O 28.2807 0.968384 -1.44803 0
M  V30 233 C 25.4127 1.80055 -2.8947 0
M  V30 234 H 26.6057 -0.00464908 -2.999 0
M  V30 235 H 24.1587 -0.0399306 -1.56249 0
M  V30 236 H 24.8937 2.42449 -2.15381 0
M  V30 237 H 24.6787 1.45602 -3.64064 0
M  V30 238 H 26.1687 2.41773 -3.40493 0
M  V30 239 N 26.6058 1.57591 -0.0167156 0
M  V30 240 C 27.8538 1.90906 0.663285 0
M  V30 241 C 28.1748 0.892509 1.73376 0
M  V30 242 O 27.4448 -0.0677623 1.95783 0
M  V30 243 H 26.0248 0.704637 0.247983 0
M  V30 244 H 28.6868 1.94803 -0.0615909 0
M  V30 245 H 27.7828 2.9116 1.12393 0
M  V30 246 N 28.0839 -0.256276 1.55502 0
M  V30 247 C 29.3319 -0.983672 1.76545 0
M  V30 248 C 29.6529 -1.86206 0.578982 0
M  V30 249 O 28.9229 -1.91656 -0.405577 0
M  V30 250 H 27.5029 -0.366191 0.651086 0
M  V30 251 H 30.1649 -0.276479 1.92929 0
M  V30 252 H 29.2609 -1.61087 2.67315 0
M  V30 253 N 29.562 -1.4872 -0.521534 0
M  V30 254 C 30.525 -1.63379 -1.60748 0
M  V30 255 C 31.525 -0.50661 -1.52611 0
M  V30 256 O 32.715 -0.772601 -1.5613 0
M  V30 257 C 29.847 -1.61192 -3.00383 0
M  V30 258 H 31.04 -2.60217 -1.49087 0
M  V30 259 H 28.593 -1.37444 -0.744235 0
M  V30 260 H 29.328 -0.65863 -3.17541 0
M  V30 261 H 29.113 -2.43032 -3.07698 0
M  V30 262 H 30.603 -1.7466 -3.7932 0
M  V30 263 N 31.0401 0.771051 -1.3745 0
M  V30 264 C 32.0031 1.86598 -1.33093 0
M  V30 265 C 33.0031 1.59076 -0.234845 0
M  V30 266 O 34.1931 1.67145 -0.490732 0
M  V30 267 C 31.3251 3.23747 -1.06773 0
M  V30 268 H 32.5181 1.91873 -2.30488 0
M  V30 269 H 30.0711 0.970876 -1.2249 0
M  V30 270 H 30.8061 3.24148 -0.099129 0
M  V30 271 H 30.5911 3.45115 -1.86112 0
M  V30 272 H 32.0811 4.03824 -1.06377 0
M  V30 273 N 32.5182 1.22032 0.997298 0
M  V30 274 C 33.7662 1.04016 1.73278 0
M  V30 275 C 34.0872 -0.426255 1.90284 0
M  V30 276 O 33.3572 -1.30694 1.45931 0
M  V30 277 H 31.9372 0.381897 0.642 0
M  V30 278 H 34.5992 1.5347 1.20137 0
M  V30 279 H 33.6952 1.51441 2.72896 0
M  V30 280 N 33.9963 -1.19345 1.0293 0
M  V30 281 C 35.2733 -1.84811 0.640642 0
M  V30 282 C 35.6533 -1.91855 -0.88062 0
M  V30 283 O 35.0013 -1.43587 -1.7775 0
M  V30 284 C 35.2113 -3.23755 1.30321 0
M  V30 285 C 36.5593 -3.99912 1.42673 0
M  V30 286 O 37.5833 -3.33155 1.26041 0
M  V30 287 O 36.4423 -5.19494 1.6967 0
M  V30 288 H 33.5363 -0.796443 0.222726 0
M  V30 289 H 36.0823 -1.26831 1.12748 0
M  V30 290 H 34.8543 -3.13466 2.34211 0
M  V30 291 H 34.4773 -3.89381 0.804261 0
M  V30 292 N 35.4744 -0.807222 -1.35358 0
M  V30 293 C 36.3844 -0.219594 -2.3357 0
M  V30 294 C 37.4004 0.637734 -1.61892 0
M  V30 295 O 38.5764 0.549336 -1.93763 0
M  V30 296 C 35.6414 0.62158 -3.41083 0
M  V30 297 C 34.7024 -0.256315 -4.28534 0
M  V30 298 C 33.9354 0.544807 -5.30912 0
M  V30 299 O 34.1584 1.77944 -5.41934 0
M  V30 300 O 33.0924 -0.0646478 -6.01865 0
M  V30 301 H 36.9184 -1.03208 -2.85625 0
M  V30 302 H 34.5034 -0.569025 -1.38139 0
M  V30 303 H 36.3854 1.10067 -4.06772 0
M  V30 304 H 35.0604 1.41165 -2.91297 0
M  V30 305 H 33.9674 -0.782559 -3.65823 0
M  V30 306 H 35.3004 -1.01034 -4.81719 0
M  V30 307 N 36.9525 1.47285 -0.560781 0
M  V30 308 C 37.9155 2.28535 0.174488 0
M  V30 309 C 38.9155 1.37153 0.839388 0
M  V30 310 O 40.1055 1.59748 0.694702 0
M  V30 311 C 37.2375 3.16934 1.25561 0
M  V30 312 H 38.4305 2.95012 -0.539262 0
M  V30 313 H 35.9835 1.53034 -0.317865 0
M  V30 314 H 36.7185 2.55157 2.00164 0
M  V30 315 H 36.5035 3.8419 0.783604 0
M  V30 316 H 37.9935 3.78143 1.77193 0
M  V30 317 N 38.4306 0.297415 1.54768 0
M  V30 318 C 39.8466 -0.0560823 1.59501 0
M  V30 319 C 40.0466 -1.52725 1.31444 0
M  V30 320 O 39.1026 -2.27947 1.08611 0
M  V30 321 C 40.4156 0.338631 2.98787 0
M  V30 322 C 41.9636 0.287097 3.11681 0
M  V30 323 C 42.4386 0.656579 4.53269 0
M  V30 324 N 43.9296 0.608977 4.59179 0
M  V30 325 C 44.6646 0.867385 5.66802 0
M  V30 326 N 44.1606 1.19157 6.82476 0
M  V30 327 N 45.9536 0.794687 5.56454 0
M  V30 328 H 38.1046 1.25624 1.71267 0
M  V30 329 H 40.3676 0.509057 0.799728 0
M  V30 330 H 40.0736 1.36263 3.2423 0
M  V30 331 H 39.9476 -0.309508 3.75928 0
M  V30 332 H 42.3346 -0.727649 2.85988 0
M  V30 333 H 42.4156 0.969809 2.36703 0
M  V30 334 H 42.0596 1.66912 4.7969 0
M  V30 335 H 41.9896 -0.0481649 5.26578 0
M  V30 336 H 44.4806 0.369198 3.76092 0
M  V30 337 H 44.7936 1.37482 7.60473 0
M  V30 338 H 43.1386 1.22958 6.84037 0
M  V30 339 H 46.3296 0.541098 4.64962 0
M  V30 340 H 46.5026 0.999445 6.40246 0
M  V30 341 N 39.9087 -1.5758 0.0250728 0
M  V30 342 C 40.8187 -2.1343 -0.973905 0
M  V30 343 C 41.8347 -1.08556 -1.35984 0
M  V30 344 O 43.0107 -1.40592 -1.44207 0
M  V30 345 C 40.0757 -2.64703 -2.23904 0
M  V30 346 C 39.1367 -3.84276 -1.91391 0
M  V30 347 C 38.3697 -4.33095 -3.11873 0
M  V30 348 O 38.5927 -3.81107 -4.24398 0
M  V30 349 O 37.5267 -5.24984 -2.94406 0
M  V30 350 H 41.3527 -2.99057 -0.529036 0
M  V30 351 H 38.9377 -1.48118 -0.195288 0
M  V30 352 H 40.8197 -2.97769 -2.98181 0
M  V30 353 H 39.4947 -1.82161 -2.6758 0
M  V30 354 H 38.4017 -3.56143 -1.14511 0
M  V30 355 H 39.7347 -4.67968 -1.52534 0
M  V30 356 N 41.3868 0.248026 -1.55636 0
M  V30 357 C 42.3498 1.29044 -1.89421 0
M  V30 358 C 43.3498 1.41134 -0.770581 0
M  V30 359 O 44.5398 1.39854 -1.03858 0
M  V30 360 C 41.6718 2.66831 -2.12165 0
M  V30 361 H 42.8648 1.00305 -2.82629 0
M  V30 362 H 40.4178 0.487265 -1.48511 0
M  V30 363 H 41.1528 3.00711 -1.21422 0
M  V30 364 H 40.9378 2.59438 -2.93997 0
M  V30 365 H 42.4278 3.42103 -2.3949 0
M  V30 366 N 42.8649 1.48995 0.513639 0
M  V30 367 C 43.8279 1.64229 1.59879 0
M  V30 368 C 44.8279 0.514696 1.5234 0
M  V30 369 O 46.0179 0.78087 1.55718 0
M  V30 370 C 43.1499 1.62783 2.99524 0
M  V30 371 H 44.3429 2.61004 1.47705 0
M  V30 372 H 41.8959 1.37837 0.736936 0
M  V30 373 H 42.6309 0.675461 3.17188 0
M  V30 374 H 42.4159 2.4466 3.06404 0
M  V30 375 H 43.9059 1.76669 3.78388 0
M  V30 376 N 44.343 -0.763751 1.37857 0
M  V30 377 C 45.306 -1.85889 1.34081 0
M  V30 378 C 46.306 -1.58949 0.243277 0
M  V30 379 O 47.496 -1.66882 0.499589 0
M  V30 380 C 44.628 -3.23176 1.08489 0
M  V30 381 H 45.821 -1.90648 2.31502 0
M  V30 382 H 43.374 -0.964367 1.23003 0
M  V30 383 H 44.109 -3.24091 0.116318 0
M  V30 384 H 43.894 -3.44124 1.8794 0
M  V30 385 H 45.384 -4.03254 1.08517 0
M  V30 386 N 45.8211 -1.22559 -0.990812 0
M  V30 387 C 47.0671 -1.05297 -1.73322 0
M  V30 388 C 47.4001 0.410655 -1.89808 0
M  V30 389 O 46.6751 1.30439 -1.44277 0
M  V30 390 C 46.9581 -1.76713 -3.13759 0
M  V30 391 C 46.8111 -3.30684 -3.04907 0
M  V30 392 C 48.1301 -1.52121 -4.12974 0
M  V30 393 H 45.2491 -0.38392 -0.629106 0
M  V30 394 H 47.8911 -1.50926 -1.15418 0
M  V30 395 H 46.0411 -1.37924 -3.63193 0
M  V30 396 H 47.7131 -3.7893 -2.63077 0
M  V30 397 H 45.9561 -3.60253 -2.41661 0
M  V30 398 H 46.6271 -3.75833 -4.04294 0
M  V30 399 H 49.1031 -1.85819 -3.72304 0
M  V30 400 H 47.9791 -2.04582 -5.0935 0
M  V30 401 H 48.2401 -0.454257 -4.3976 0
M  V30 402 N 47.2992 1.18797 -1.03562 0
M  V30 403 C 48.7152 1.40671 -0.753917 0
M  V30 404 C 48.9152 1.9043 0.658686 0
M  V30 405 O 47.9712 2.08538 1.42366 0
M  V30 406 C 49.2842 2.41192 -1.79574 0
M  V30 407 C 50.8322 2.54928 -1.81606 0
M  V30 408 C 51.3072 3.58709 -2.84766 0
M  V30 409 N 52.7982 3.66212 -2.83625 0
M  V30 410 C 53.5332 4.46225 -3.60098 0
M  V30 411 N 53.0292 5.29888 -4.46308 0
M  V30 412 N 54.8222 4.40939 -3.4861 0
M  V30 413 H 46.9732 0.848221 -1.94728 0
M  V30 414 H 49.2362 0.435081 -0.842264 0
M  V30 415 H 48.9422 2.11669 -2.80872 0
M  V30 416 H 48.8162 3.40467 -1.62365 0
M  V30 417 H 51.2032 2.83771 -0.809817 0
M  V30 418 H 51.2842 1.55784 -2.02891 0
M  V30 419 H 50.9282 3.30607 -3.85566 0
M  V30 420 H 50.8582 4.57519 -2.60737 0
M  V30 421 H 53.3492 3.06466 -2.21105 0
M  V30 422 H 53.6622 5.88078 -5.01382 0
M  V30 423 H 52.0072 5.29326 -4.50377 0
M  V30 424 H 55.1982 3.74624 -2.80668 0
M  V30 425 H 55.3712 5.03056 -4.08459 0
M  V30 426 N 48.7773 0.814389 1.34928 0
M  V30 427 C 49.7403 0.235759 2.27984 0
M  V30 428 C 50.7403 -0.581412 1.49921 0
M  V30 429 O 51.9303 -0.398758 1.69575 0
M  V30 430 C 49.0623 -0.670433 3.34242 0
M  V30 431 H 50.2553 1.05659 2.80671 0
M  V30 432 H 47.8083 0.585614 1.44915 0
M  V30 433 H 48.5433 -1.51466 2.86755 0
M  V30 434 H 48.3283 -0.0860822 3.92005 0
M  V30 435 H 49.8183 -1.06935 4.03676 0
M  V30 436 N 50.2554 -1.46986 0.568584 0
M  V30 437 C 51.1854 -2.32946 -0.160753 0
M  V30 438 C 52.1664 -1.44487 -0.897631 0
M  V30 439 O 53.3514 -1.73327 -0.875867 0
M  V30 440 C 50.4814 -3.26494 -1.18403 0
M  V30 441 C 49.4354 -4.24282 -0.562895 0
M  V30 442 C 48.7614 -5.07236 -1.69163 0
M  V30 443 C 50.0614 -5.19989 0.490761 0
M  V30 444 H 51.7554 -2.94175 0.556916 0
M  V30 445 H 49.3014 -1.4146 0.26927 0
M  V30 446 H 51.2544 -3.85477 -1.70251 0
M  V30 447 H 49.9784 -2.63343 -1.93179 0
M  V30 448 H 48.6374 -3.66541 -0.0656164 0
M  V30 449 H 48.2854 -4.4048 -2.42871 0
M  V30 450 H 47.9854 -5.7345 -1.28174 0
M  V30 451 H 49.5094 -5.6908 -2.21314 0
M  V30 452 H 50.9234 -5.73271 0.0579047 0
M  V30 453 H 49.3204 -5.94469 0.820165 0
M  V30 454 H 50.3904 -4.64777 1.3824 0
M  V30 455 N 51.7335 -0.305618 -1.54608 0
M  V30 456 C 52.9795 0.302746 -2.00528 0
M  V30 457 C 53.3125 1.53184 -1.19367 0
M  V30 458 O 52.5875 1.92598 -0.271321 0
M  V30 459 C 52.8705 0.654756 -3.54097 0
M  V30 460 C 52.7235 -0.583793 -4.45995 0
M  V30 461 C 54.0425 1.47947 -4.14487 0
M  V30 462 H 51.1615 0.108564 -0.72896 0
M  V30 463 H 53.8035 -0.418634 -1.85331 0
M  V30 464 H 51.9535 1.26935 -3.67178 0
M  V30 465 H 53.6255 -1.22224 -4.44814 0
M  V30 466 H 51.8685 -1.21615 -4.16404 0
M  V30 467 H 52.5395 -0.293287 -5.5122 0
M  V30 468 H 55.0155 0.96013 -4.04871 0
M  V30 469 H 53.8915 1.69454 -5.22088 0
M  V30 470 H 54.1525 2.47011 -3.66658 0
M  V30 471 N 53.2116 1.57565 -0.0334293 0
M  V30 472 C 54.1746 2.09393 0.932048 0
M  V30 473 C 55.1746 1.00986 1.25134 0
M  V30 474 O 56.3646 1.27129 1.19096 0
M  V30 475 C 53.4966 2.56338 2.2473 0
M  V30 476 H 54.6896 2.95984 0.483085 0
M  V30 477 H 52.2426 1.54819 0.21468 0
M  V30 478 H 52.9776 1.7309 2.74245 0
M  V30 479 H 52.7626 3.35542 2.02865 0
M  V30 480 H 54.2526 2.96646 2.93923 0
M  V30 481 N 54.6897 -0.239769 1.55765 0
M  V30 482 C 56.1057 -0.588624 1.48349 0
M  V30 483 C 56.3057 -1.88005 0.72502 0
M  V30 484 O 55.3617 -2.51186 0.257269 0
M  V30 485 C 56.6747 -0.68474 2.928 0
M  V30 486 C 58.2227 -0.77659 3.03213 0
M  V30 487 C 58.6977 -0.904207 4.48986 0
M  V30 488 N 60.1887 -0.968896 4.52953 0
M  V30 489 C 60.9237 -1.08703 5.63002 0
M  V30 490 N 60.4197 -1.17026 6.82845 0
M  V30 491 N 62.2127 -1.12074 5.50814 0
M  V30 492 H 54.3637 0.607911 2.03515 0
M  V30 493 H 56.6267 0.21083 0.924259 0
M  V30 494 H 56.3327 0.194284 3.51163 0
M  V30 495 H 56.2067 -1.55435 3.43686 0
M  V30 496 H 58.5937 -1.64606 2.44926 0
M  V30 497 H 58.6747 0.118315 2.55526 0
M  V30 498 H 58.3187 -0.0392633 5.07885 0
M  V30 499 H 58.2487 -1.81426 4.9436 0
M  V30 500 H 60.7397 -0.915633 3.6664 0
M  V30 501 H 61.0527 -1.25966 7.62465 0
M  V30 502 H 59.3977 -1.13971 6.85591 0
M  V30 503 H 62.5887 -1.05226 4.5612 0
M  V30 504 H 62.7617 -1.20936 6.36615 0
M  V30 505 N 56.1678 -1.49265 -0.50573 0
M  V30 506 C 57.0978 -1.68495 -1.61653 0
M  V30 507 C 58.0788 -0.53366 -1.61512 0
M  V30 508 O 59.2638 -0.76897 -1.78327 0
M  V30 509 C 56.3938 -1.74709 -3.00157 0
M  V30 510 C 55.3478 -2.89581 -3.15162 0
M  V30 511 C 54.6738 -2.80903 -4.5497 0
M  V30 512 C 55.9738 -4.30578 -2.95634 0
M  V30 513 H 57.6678 -2.61493 -1.45814 0
M  V30 514 H 55.2138 -1.25838 -0.70005 0
M  V30 515 H 57.1668 -1.86748 -3.77761 0
M  V30 516 H 55.8908 -0.783067 -3.17074 0
M  V30 517 H 54.5498 -2.77136 -2.39982 0
M  V30 518 H 54.1978 -1.82419 -4.68756 0
M  V30 519 H 53.8978 -3.57999 -4.65951 0
M  V30 520 H 55.4218 -2.94944 -5.34641 0
M  V30 521 H 56.8358 -4.4373 -3.63011 0
M  V30 522 H 55.2328 -5.0886 -3.18091 0
M  V30 523 H 56.3028 -4.45352 -1.91806 0
M  V30 524 N 57.6459 0.756429 -1.3826 0
M  V30 525 C 58.5759 1.88374 -1.37976 0
M  V30 526 C 59.5569 1.68311 -0.246082 0
M  V30 527 O 60.7419 1.88944 -0.44874 0
M  V30 528 C 57.8719 3.25864 -1.20125 0
M  V30 529 C 56.8259 3.60523 -2.30666 0
M  V30 530 C 56.1519 4.9672 -1.97923 0
M  V30 531 C 57.4519 3.65692 -3.72916 0
M  V30 532 H 59.1459 1.88869 -2.32312 0
M  V30 533 H 56.6919 0.907272 -1.11824 0
M  V30 534 H 58.6449 4.0438 -1.18552 0
M  V30 535 H 57.3689 3.25841 -0.222498 0
M  V30 536 H 56.0279 2.84324 -2.3142 0
M  V30 537 H 55.6759 4.93253 -0.985393 0
M  V30 538 H 55.3759 5.20878 -2.71955 0
M  V30 539 H 56.8999 5.77618 -1.97964 0
M  V30 540 H 58.3139 4.34328 -3.74208 0
M  V30 541 H 56.7109 4.01358 -4.4613 0
M  V30 542 H 57.7809 2.65987 -4.05436 0
M  V30 543 N 59.124 1.23083 0.984299 0
M  V30 544 C 60.372 1.05848 1.72165 0
M  V30 545 C 60.693 -0.406049 1.90726 0
M  V30 546 O 59.963 -1.29139 1.47309 0
M  V30 547 H 58.543 0.388685 0.637913 0
M  V30 548 H 61.205 1.54736 1.18503 0
M  V30 549 H 60.301 1.54327 2.71274 0
M  V30 550 N 60.6021 -1.18246 1.0419 0
M  V30 551 C 62.0131 -1.69914 0.773698 0
M  V30 552 C 62.3641 -1.83085 -0.705297 0
M  V30 553 O 61.4891 -1.51123 -1.5489 0
M  V30 554 C 62.0841 -3.08619 1.39784 0
M  V30 555 C 60.6431 -3.57494 1.17792 0
M  V30 556 C 59.7901 -2.34013 1.48773 0
M  V30 557 H 62.7411 -1.02904 1.20816 0
M  V30 558 H 62.7621 -3.71958 0.801714 0
M  V30 559 H 62.2741 -2.99001 2.47426 0
M  V30 560 H 60.3751 -3.72406 0.120295 0
M  V30 561 H 60.4881 -4.40852 1.87581 0
M  V30 562 H 58.8521 -2.37986 0.907463 0
M  V30 563 H 59.6351 -2.27013 2.57527 0
M  V30 564 N 62.0802 -0.821533 -1.34494 0
M  V30 565 C 63.3282 -0.408139 -1.97936 0
M  V30 566 C 63.6492 1.03193 -1.65457 0
M  V30 567 O 62.9192 1.71622 -0.944595 0
M  V30 568 H 61.4992 -0.147928 -0.732206 0
M  V30 569 H 64.1612 -1.05067 -1.64155 0
M  V30 570 H 63.2572 -0.52601 -3.07635 0
M  V30 571 N 63.5583 1.46682 -0.576371 0
M  V30 572 C 64.9693 1.86112 -0.148091 0
M  V30 573 C 65.3203 1.48073 1.2872 0
M  V30 574 O 64.4453 0.892656 1.97131 0
M  V30 575 C 65.0403 3.37786 -0.261982 0
M  V30 576 C 63.5993 3.76235 0.111384 0
M  V30 577 C 62.7463 2.70713 -0.60083 0
M  V30 578 H 65.6973 1.37927 -0.78497 0
M  V30 579 H 65.7183 3.77007 0.514364 0
M  V30 580 H 65.2303 3.6544 -1.30671 0
M  V30 581 H 63.3313 3.54198 1.15649 0
M  V30 582 H 63.4443 4.78391 -0.26052 0
M  V30 583 H 61.8083 2.54666 -0.0417783 0
M  V30 584 H 62.5913 3.01208 -1.64708 0
M  V30 585 N 65.0364 0.313813 1.54444 0
M  V30 586 C 65.9994 -0.54379 2.22656 0
M  V30 587 C 66.9994 -1.05124 1.21678 0
M  V30 588 O 68.1894 -0.945225 1.46325 0
M  V30 589 C 65.3214 -1.75427 2.92298 0
M  V30 590 H 66.5144 0.0523599 2.99854 0
M  V30 591 H 64.0674 0.0647834 1.56166 0
M  V30 592 H 64.8024 -2.38991 2.19211 0
M  V30 593 H 64.5874 -1.39791 3.66334 0
M  V30 594 H 66.0774 -2.36325 3.44297 0
M  V30 595 N 66.5145 -1.57545 0.0417849 0
M  V30 596 C 67.4775 -2.09885 -0.92093 0
M  V30 597 C 68.4775 -1.01648 -1.24596 0
M  V30 598 O 69.6675 -1.27759 -1.1842 0
M  V30 599 C 66.7995 -2.57527 -2.23367 0
M  V30 600 H 67.9925 -2.96236 -0.467382 0
M  V30 601 H 65.5455 -1.5493 -0.206467 0
M  V30 602 H 66.2805 -1.74542 -2.73323 0
M  V30 603 H 66.0655 -3.36613 -2.01083 0
M  V30 604 H 67.5555 -2.98201 -2.92346 0
M  V30 605 N 67.9926 0.231505 -1.5589 0
M  V30 606 C 69.2696 0.981096 -1.69215 0
M  V30 607 C 69.6496 2.02799 -0.586164 0
M  V30 608 O 68.9976 2.24823 0.408253 0
M  V30 609 C 69.2076 1.60054 -3.10135 0
M  V30 610 C 70.5556 2.09658 -3.69227 0
M  V30 611 O 71.5796 1.69967 -3.13033 0
M  V30 612 O 70.4386 2.8258 -4.67772 0
M  V30 613 H 67.5326 0.457653 -0.688827 0
M  V30 614 H 70.0786 0.224073 -1.68214 0
M  V30 615 H 68.8506 0.844105 -3.82087 0
M  V30 616 H 68.4736 2.42336 -3.15212 0
M  V30 617 N 69.4707 1.49531 0.497807 0
M  V30 618 C 70.7177 1.59179 1.25173 0
M  V30 619 C 71.0457 0.279932 1.92475 0
M  V30 620 O 70.3007 -0.732383 1.81479 0
M  V30 621 C 70.5997 2.70252 2.33878 0
M  V30 622 C 70.2657 4.11644 1.84012 0
M  V30 623 C 68.9277 4.50121 1.70132 0
M  V30 624 C 71.2797 5.00121 1.46725 0
M  V30 625 C 68.6077 5.74845 1.17348 0
M  V30 626 C 70.9597 6.25366 0.95392 0
M  V30 627 C 69.6237 6.6267 0.801538 0
M  V30 628 H 68.8937 0.582478 0.45804 0
M  V30 629 H 71.5407 1.83373 0.551948 0
M  V30 630 H 69.8457 2.40041 3.09657 0
M  V30 631 H 71.5427 2.74925 2.9192 0
M  V30 632 H 68.1327 3.81274 1.95775 0
M  V30 633 H 72.3167 4.71048 1.56294 0
M  V30 634 H 67.5727 6.02444 1.04264 0
M  V30 635 H 71.7467 6.93301 0.656225 0
M  V30 636 H 69.3737 7.59197 0.390351 0
M  V30 637 N 70.9488 -0.749086 1.3866 0
M  V30 638 C 72.1738 -1.54344 1.38538 0
M  V30 639 C 72.5988 -1.88088 -0.0216655 0
M  V30 640 O 71.9568 -1.50899 -1.00494 0
M  V30 641 C 72.0048 -2.8164 2.25192 0
M  V30 642 O 71.1088 -3.7698 1.67212 0
M  V30 643 H 70.4498 -0.466654 0.472367 0
M  V30 644 H 72.9798 -0.925355 1.82478 0
M  V30 645 H 72.9898 -3.30519 2.3921 0
M  V30 646 H 71.6648 -2.56411 3.27454 0
M  V30 647 H 70.2418 -3.35699 1.6236 0
M  V30 648 N 72.4269 -1.23603 -0.977757 0
M  V30 649 C 73.6729 -1.07129 -1.72195 0
M  V30 650 C 74.0059 0.390501 -1.90233 0
M  V30 651 O 73.2809 1.28902 -1.45653 0
M  V30 652 C 73.5639 -1.80031 -3.11867 0
M  V30 653 C 73.4169 -3.33899 -3.01383 0
M  V30 654 C 74.7359 -1.56492 -4.11337 0
M  V30 655 H 71.8549 -0.390571 -0.624999 0
M  V30 656 H 74.4969 -1.52142 -1.13811 0
M  V30 657 H 72.6469 -1.41768 -3.6171 0
M  V30 658 H 74.3189 -3.81699 -2.59043 0
M  V30 659 H 72.5619 -3.62796 -2.37827 0
M  V30 660 H 73.2329 -3.801 -4.00285 0
M  V30 661 H 75.7089 -1.89757 -3.70313 0
M  V30 662 H 74.5849 -2.09973 -5.07151 0
M  V30 663 H 74.8459 -0.500874 -4.39254 0
M  V30 664 N 73.905 1.17692 -1.04816 0
M  V30 665 C 75.13 1.92327 -0.776207 0
M  V30 666 C 75.555 1.76082 0.661581 0
M  V30 667 O 74.913 1.076 1.45917 0
M  V30 668 C 74.961 3.41539 -1.15687 0
M  V30 669 O 74.065 4.11402 -0.286775 0
M  V30 670 H 73.406 0.599735 -0.284981 0
M  V30 671 H 75.936 1.49201 -1.4 0
M  V30 672 H 75.946 3.92269 -1.12202 0
M  V30 673 H 74.621 3.52684 -2.20425 0
M  V30 674 H 73.198 3.70939 -0.381903 0
M  V30 675 N 75.3831 0.828654 1.34056 0
M  V30 676 C 76.6291 0.42008 1.98402 0
M  V30 677 C 76.9621 -1.01564 1.65525 0
M  V30 678 O 76.2371 -1.70834 0.929831 0
M  V30 679 C 76.5201 0.62927 3.54559 0
M  V30 680 C 76.3731 2.11152 3.97159 0
M  V30 681 C 77.6921 0.0688756 4.40046 0
M  V30 682 H 74.8111 0.154104 0.720709 0
M  V30 683 H 77.4531 1.04228 1.5886 0
M  V30 684 H 75.6031 0.0996418 3.88372 0
M  V30 685 H 77.2751 2.70522 3.73651 0
M  V30 686 H 75.5181 2.59985 3.47261 0
M  V30 687 H 76.1891 2.20868 5.05887 0
M  V30 688 H 78.6651 0.521458 4.1282 0
M  V30 689 H 77.5411 0.245006 5.48353 0
M  V30 690 H 77.8021 -1.0266 4.30015 0
M  V30 691 N 76.8612 -1.46375 0.584142 0
M  V30 692 C 77.7712 -2.34115 -0.150728 0
M  V30 693 C 78.7872 -1.49838 -0.884567 0
M  V30 694 O 79.9632 -1.82704 -0.847429 0
M  V30 695 C 77.0282 -3.2705 -1.15062 0
M  V30 696 C 76.0892 -4.27228 -0.421293 0
M  V30 697 C 75.3222 -5.15722 -1.37355 0
M  V30 698 O 75.5452 -5.07176 -2.61014 0
M  V30 699 O 74.4792 -5.95383 -0.883355 0
M  V30 700 H 78.3052 -2.98309 0.569708 0
M  V30 701 H 75.8902 -1.45373 0.344535 0
M  V30 702 H 77.7722 -3.84381 -1.72712 0
M  V30 703 H 76.4472 -2.65451 -1.8525 0
M  V30 704 H 75.3542 -3.7358 0.197085 0
M  V30 705 H 76.6872 -4.91616 0.239641 0
M  V30 706 N 78.3393 -0.321999 -1.54275 0
M  V30 707 C 79.7553 0.0306999 -1.5957 0
M  V30 708 C 79.9553 1.50614 -1.33857 0
M  V30 709 O 79.0113 2.2619 -1.12223 0
M  V30 710 C 80.3243 -0.386122 -2.98211 0
M  V30 711 C 81.8723 -0.336647 -3.11184 0
M  V30 712 C 82.3473 -0.728607 -4.52167 0
M  V30 713 N 83.8383 -0.681952 -4.58152 0
M  V30 714 C 84.5733 -0.957449 -5.6535 0
M  V30 715 N 84.0693 -1.3 -6.80494 0
M  V30 716 N 85.8623 -0.883113 -5.55119 0
M  V30 717 H 78.0133 -1.28332 -1.69247 0
M  V30 718 H 80.2763 -0.521716 -0.791528 0
M  V30 719 H 79.9823 -1.41404 -3.22022 0
M  V30 720 H 79.8563 0.249662 -3.76373 0
M  V30 721 H 82.2433 0.682058 -2.8711 0
M  V30 722 H 82.3243 -1.00734 -2.3513 0
M  V30 723 H 81.9683 -1.74522 -4.76974 0
M  V30 724 H 81.8983 -0.0356152 -5.26588 0
M  V30 725 H 84.3893 -0.428985 -3.75457 0
M  V30 726 H 84.7023 -1.49563 -7.58189 0
M  V30 727 H 83.0473 -1.33824 -6.81994 0
M  V30 728 H 86.2383 -0.615001 -4.64042 0
M  V30 729 H 86.4113 -1.10118 -6.38575 0
M  V30 730 N 79.8174 1.5752 -0.0501392 0
M  V30 731 C 80.7804 2.1037 0.909786 0
M  V30 732 C 81.7804 1.02308 1.24056 0
M  V30 733 O 82.9704 1.28385 1.17741 0
M  V30 734 C 80.1024 2.58708 2.21998 0
M  V30 735 H 81.2954 2.96479 0.451665 0
M  V30 736 H 78.8484 1.55038 0.198248 0
M  V30 737 H 79.5834 1.75989 2.72394 0
M  V30 738 H 79.3684 3.37675 1.99295 0
M  V30 739 H 80.8584 2.99747 2.9076 0
M  V30 740 N 81.2955 -0.223234 1.56011 0
M  V30 741 C 82.2255 -1.27988 1.95298 0
M  V30 742 C 83.2065 -1.48976 0.820979 0
M  V30 743 O 84.3915 -1.61188 1.08315 0
M  V30 744 C 81.5215 -2.63 2.26822 0
M  V30 745 C 80.4755 -2.56671 3.42497 0
M  V30 746 C 79.8015 -3.95697 3.59622 0
M  V30 747 C 81.1015 -2.11601 4.77517 0
M  V30 748 H 82.7955 -0.953525 2.8381 0
M  V30 749 H 80.3415 -0.457244 1.36548 0
M  V30 750 H 82.2945 -3.37077 2.52898 0
M  V30 751 H 81.0185 -2.9732 1.35161 0
M  V30 752 H 79.6775 -1.85051 3.16467 0
M  V30 753 H 79.3255 -4.27322 2.6534 0
M  V30 754 H 79.0255 -3.92345 4.37424 0
M  V30 755 H 80.5495 -4.71438 3.88044 0
M  V30 756 H 81.9635 -2.7542 5.02809 0
M  V30 757 H 80.3605 -2.19311 5.5859 0
M  V30 758 H 81.4305 -1.06824 4.72987 0
M  V30 759 N 82.7736 -1.49793 -0.48987 0
M  V30 760 C 83.7366 -1.66752 -1.57246 0
M  V30 761 C 84.7366 -0.538867 -1.51502 0
M  V30 762 O 85.9266 -0.805545 -1.54456 0
M  V30 763 C 83.0586 -1.67528 -2.96896 0
M  V30 764 H 84.2516 -2.63321 -1.43534 0
M  V30 765 H 81.8046 -1.38992 -0.714914 0
M  V30 766 H 82.5396 -0.725837 -3.16073 0
M  V30 767 H 82.3246 -2.49504 -3.02473 0
M  V30 768 H 83.8146 -1.82667 -3.7553 0
M  V30 769 N 84.2517 0.741722 -1.39055 0
M  V30 770 C 85.2147 1.83733 -1.37021 0
M  V30 771 C 86.2147 1.58542 -0.268534 0
M  V30 772 O 87.4047 1.66067 -0.526076 0
M  V30 773 C 84.5367 3.2141 -1.13617 0
M  V30 774 H 85.7297 1.86941 -2.34506 0
M  V30 775 H 83.2827 0.944676 -1.24521 0
M  V30 776 H 84.0177 3.23865 -0.167863 0
M  V30 777 H 83.8027 3.4109 -1.93391 0
M  V30 778 H 85.2927 4.01477 -1.14918 0
M  V30 779 N 85.7298 1.2412 0.971189 0
M  V30 780 C 86.6768 1.0305 2.06517 0
M  V30 781 C 87.6468 -0.0550666 1.66009 0
M  V30 782 O 88.8318 0.0988688 1.90544 0
M  V30 783 C 85.9718 0.637653 3.39158 0
M  V30 784 C 85.0848 1.79633 3.92882 0
M  V30 785 C 84.2198 1.34939 5.13775 0
M  V30 786 C 83.2588 2.47823 5.59687 0
M  V30 787 N 82.3958 2.04022 6.71803 0
M  V30 788 H 87.2358 1.96685 2.23873 0
M  V30 789 H 84.7728 0.979694 1.09729 0
M  V30 790 H 86.7308 0.390931 4.15364 0
M  V30 791 H 85.3608 -0.261693 3.21737 0
M  V30 792 H 84.4128 2.15681 3.13346 0
M  V30 793 H 85.7248 2.64466 4.22918 0
M  V30 794 H 84.8788 1.06134 5.97345 0
M  V30 795 H 83.6178 0.471557 4.85415 0
M  V30 796 H 82.6228 2.77392 4.74693 0
M  V30 797 H 83.8478 3.36158 5.90063 0
M  V30 798 H 81.7938 1.18632 6.45184 0
M  V30 799 H 81.7108 2.82409 7.01271 0
M  V30 800 H 82.9788 1.78347 7.58823 0
M  V30 801 N 87.2079 -1.17134 1.05439 0
M  V30 802 C 88.6189 -1.69084 0.791676 0
M  V30 803 C 88.9699 -1.83822 -0.685839 0
M  V30 804 O 88.0949 -1.52757 -1.53278 0
M  V30 805 C 88.6899 -3.07119 1.4305 0
M  V30 806 C 87.2489 -3.56225 1.21577 0
M  V30 807 C 86.3959 -2.32421 1.51247 0
M  V30 808 H 89.3469 -1.01617 1.219 0
M  V30 809 H 89.3679 -3.71087 0.84112 0
M  V30 810 H 88.8799 -2.9636 2.50584 0
M  V30 811 H 86.9809 -3.72257 0.159787 0
M  V30 812 H 87.0939 -4.38837 1.92246 0
M  V30 813 H 85.4579 -2.3701 0.932653 0
M  V30 814 H 86.2409 -2.24268 2.5992 0
M  V30 815 N 88.686 -0.835752 -1.33615 0
M  V30 816 C 89.934 -0.429109 -1.97492 0
M  V30 817 C 90.255 1.01433 -1.66543 0
M  V30 818 O 89.525 1.70611 -0.962744 0
M  V30 819 H 88.105 -0.155686 -0.730596 0
M  V30 820 H 90.767 -1.06802 -1.63031 0
M  V30 821 H 89.863 -0.55861 -3.0706 0
M  V30 822 N 90.1641 1.46063 -0.591896 0
M  V30 823 C 91.0941 2.33172 0.123673 0
M  V30 824 C 92.0751 1.45897 0.87453 0
M  V30 825 O 93.2601 1.74698 0.848181 0
M  V30 826 C 90.3901 3.28336 1.13194 0
M  V30 827 C 89.3441 4.25124 0.495324 0
M  V30 828 C 88.6701 5.09863 1.61071 0
M  V30 829 C 89.9701 5.19143 -0.573425 0
M  V30 830 H 91.6641 2.93252 -0.603646 0
M  V30 831 H 89.2101 1.41014 -0.291741 0
M  V30 832 H 91.1631 3.88137 1.64097 0
M  V30 833 H 89.8871 2.66383 1.88965 0
M  V30 834 H 88.5461 3.66599 0.00729452 0
M  V30 835 H 88.1941 4.44288 2.35832 0
M  V30 836 H 87.8941 5.75417 1.19035 0
M  V30 837 H 89.4181 5.72529 2.12233 0
M  V30 838 H 90.8321 5.73106 -0.1491 0
M  V30 839 H 89.2291 5.93089 -0.914636 0
M  V30 840 H 90.2991 4.62519 -1.45617 0
M  V30 841 N 91.6422 0.330177 1.54103 0
M  V30 842 C 92.9192 -0.325007 1.92881 0
M  V30 843 C 93.2992 -1.6934 1.26045 0
M  V30 844 O 92.6472 -2.24855 0.406526 0
M  V30 845 C 92.8572 -0.410634 3.46576 0
M  V30 846 C 94.2052 -0.667801 4.19316 0
M  V30 847 O 95.2292 -0.49329 3.52768 0
M  V30 848 O 94.0882 -1.00491 5.37181 0
M  V30 849 H 91.1822 -0.186873 0.80561 0
M  V30 850 H 93.7282 0.380376 1.65382 0
M  V30 851 H 92.5002 0.550164 3.87413 0
M  V30 852 H 92.1232 -1.16333 3.802 0
M  V30 853 N 93.1203 -1.57491 0.0584922 0
M  V30 854 C 94.3483 -1.97296 -0.623037 0
M  V30 855 C 94.7633 -0.936338 -1.63946 0
M  V30 856 O 94.1203 0.0785981 -1.82331 0
M  V30 857 C 94.1713 -3.37183 -1.30345 0
M  V30 858 O 93.8923 -4.36872 -0.32773 0
M  V30 859 C 95.3933 -3.91788 -2.07406 0
M  V30 860 H 92.6133 -0.649153 -0.169826 0
M  V30 861 H 95.1573 -2.04106 0.12696 0
M  V30 862 H 93.3123 -3.31502 -2.00463 0
M  V30 863 H 93.7263 -5.18141 -0.814269 0
M  V30 864 H 95.2003 -4.91926 -2.50425 0
M  V30 865 H 95.6773 -3.27609 -2.92521 0
M  V30 866 H 96.2833 -4.00829 -1.42184 0
M  V30 867 N 94.5984 0.214957 -1.56127 0
M  V30 868 C 95.8284 0.953707 -1.8327 0
M  V30 869 C 96.2364 1.78181 -0.636262 0
M  V30 870 O 95.5794 1.79191 0.404516 0
M  V30 871 C 95.6414 1.91516 -3.0424 0
M  V30 872 C 95.3054 1.27094 -4.38972 0
M  V30 873 C 96.3024 0.657575 -5.15725 0
M  V30 874 C 93.9874 1.28073 -4.85698 0
M  V30 875 C 95.9814 0.0625968 -6.37369 0
M  V30 876 C 93.6684 0.681914 -6.07283 0
M  V30 877 C 94.6664 0.0739046 -6.8296 0
M  V30 878 O 94.3544 -0.515582 -8.02245 0
M  V30 879 H 94.0864 0.284764 -0.613095 0
M  V30 880 H 96.6404 0.233283 -2.04071 0
M  V30 881 H 94.8704 2.67475 -2.79274 0
M  V30 882 H 96.5594 2.52001 -3.18198 0
M  V30 883 H 97.3254 0.642288 -4.80728 0
M  V30 884 H 93.2044 1.74337 -4.26764 0
M  V30 885 H 96.7484 -0.412593 -6.96379 0
M  V30 886 H 92.6454 0.694636 -6.41752 0
M  V30 887 H 93.4134 -0.410544 -8.1747 0
M  V30 888 N 96.0765 1.50051 0.48192 0
M  V30 889 C 97.3015 1.64508 1.26301 0
M  V30 890 C 97.7265 0.323851 1.85291 0
M  V30 891 O 97.0845 -0.710969 1.66778 0
M  V30 892 C 97.1325 2.7305 2.35533 0
M  V30 893 O 96.2365 2.3355 3.39895 0
M  V30 894 H 95.5775 0.549978 0.372048 0
M  V30 895 H 98.1075 1.9636 0.574786 0
M  V30 896 H 98.1175 2.95799 2.8101 0
M  V30 897 H 96.7925 3.68946 1.91967 0
M  V30 898 H 95.3695 2.21205 3.00204 0
M  V30 899 N 97.5546 -0.734337 1.39446 0
M  V30 900 C 98.4846 -1.86155 1.40955 0
M  V30 901 C 99.4656 -1.67898 0.272827 0
M  V30 902 O 100.651 -1.88207 0.478743 0
M  V30 903 C 97.7806 -3.23912 1.25294 0
M  V30 904 C 96.7346 -3.56808 2.36373 0
M  V30 905 C 96.0606 -4.93508 2.058 0
M  V30 906 C 97.3606 -3.59713 3.78687 0
M  V30 907 H 99.0546 -1.8515 2.35287 0
M  V30 908 H 96.6006 -0.889367 1.13253 0
M  V30 909 H 98.5536 -4.02443 1.2497 0
M  V30 910 H 97.2776 -3.25446 0.274308 0
M  V30 911 H 95.9366 -2.80606 2.35914 0
M  V30 912 H 95.5846 -4.91623 1.06374 0
M  V30 913 H 95.2846 -5.16486 2.80208 0
M  V30 914 H 96.8086 -5.74396 2.07128 0
M  V30 915 H 98.2226 -4.2832 3.81071 0
M  V30 916 H 96.6196 -3.94209 4.52459 0
M  V30 917 H 97.6896 -2.59504 4.09617 0
M  V30 918 N 99.0327 -1.24633 -0.964593 0
M  V30 919 C 100.281 -1.08573 -1.70459 0
M  V30 920 C 100.602 0.375655 -1.91347 0
M  V30 921 O 99.8717 1.26779 -1.49345 0
M  V30 922 H 98.4517 -0.398784 -0.631649 0
M  V30 923 H 101.114 -1.56601 -1.16026 0
M  V30 924 H 100.21 -1.58623 -2.68785 0
M  V30 925 N 100.511 1.16574 -1.06058 0
M  V30 926 C 101.759 1.86677 -0.77434 0
M  V30 927 C 102.08 1.81959 0.701147 0
M  V30 928 O 101.35 1.2515 1.50713 0
M  V30 929 H 99.9298 0.691134 -0.283449 0
M  V30 930 H 102.592 1.41378 -1.34158 0
M  V30 931 H 101.688 2.92181 -1.09711 0
M  V30 932 N 101.989 0.842826 1.3317 0
M  V30 933 C 103.237 0.439577 1.97262 0
M  V30 934 C 103.558 -1.00548 1.67078 0
M  V30 935 O 102.828 -1.70098 0.971779 0
M  V30 936 H 101.408 0.159558 0.72976 0
M  V30 937 H 104.07 1.07665 1.62463 0
M  V30 938 H 103.166 0.574886 3.0676 0
M  V30 939 N 103.467 -1.45747 0.599634 0
M  V30 940 C 104.715 -2.01893 0.0915472 0
M  V30 941 C 105.036 -1.47155 -1.27946 0
M  V30 942 O 104.306 -0.66273 -1.84349 0
M  V30 943 H 102.886 -0.746363 0.0308524 0
M  V30 944 H 105.548 -1.78645 0.779237 0
M  V30 945 H 104.644 -3.1208 0.0353086 0
M  V30 946 N 104.945 -0.338344 -1.53925 0
M  V30 947 C 105.908 0.508299 -2.23493 0
M  V30 948 C 106.908 1.03175 -1.23335 0
M  V30 949 O 108.098 0.921826 -1.47811 0
M  V30 950 C 105.23 1.70754 -2.95052 0
M  V30 951 H 106.423 -0.100058 -2.99733 0
M  V30 952 H 103.976 -0.0896198 -1.56043 0
M  V30 953 H 104.711 2.35474 -2.22986 0
M  V30 954 H 104.496 1.33946 -3.68512 0
M  V30 955 H 105.986 2.30818 -3.48013 0
M  V30 956 N 106.423 1.57458 -0.0668435 0
M  V30 957 C 107.386 2.11323 0.887422 0
M  V30 958 C 108.386 1.03618 1.22964 0
M  V30 959 O 109.576 1.29626 1.16373 0
M  V30 960 C 106.708 2.61048 2.19242 0
M  V30 961 H 107.901 2.96942 0.420194 0
M  V30 962 H 105.454 1.55239 0.181793 0
M  V30 963 H 106.189 1.78868 2.70512 0
M  V30 964 H 105.974 3.39769 1.95702 0
M  V30 965 H 107.464 3.02814 2.87565 0
M  V30 966 N 107.901 -0.206675 1.56239 0
M  V30 967 C 109.317 -0.557025 1.49564 0
M  V30 968 C 109.517 -1.86424 0.764735 0
M  V30 969 O 108.573 -2.50584 0.310491 0
M  V30 970 C 109.886 -0.622478 2.94186 0
M  V30 971 C 111.434 -0.712099 3.04792 0
M  V30 972 C 111.909 -0.808767 4.50803 0
M  V30 973 N 113.4 -0.8726 4.54907 0
M  V30 974 C 114.135 -0.967365 5.65181 0
M  V30 975 N 113.631 -1.02515 6.85173 0
M  V30 976 N 115.424 -1.00366 5.53067 0
M  V30 977 H 107.575 0.650943 2.02179 0
M  V30 978 H 109.838 0.230387 0.919579 0
M  V30 979 H 109.544 0.268727 3.50672 0
M  V30 980 H 109.418 -1.4811 3.46905 0
M  V30 981 H 111.805 -1.59374 2.48363 0
M  V30 982 H 111.886 0.172489 2.55218 0
M  V30 983 H 111.53 0.0684754 5.07854 0
M  V30 984 H 111.46 -1.70899 4.98098 0
M  V30 985 H 113.951 -0.837657 3.68499 0
M  V30 986 H 114.264 -1.09765 7.64965 0
M  V30 987 H 112.609 -0.994026 6.87855 0
M  V30 988 H 115.8 -0.95527 4.58249 0
M  V30 989 H 115.973 -1.07405 6.39037 0
M  V30 990 N 109.379 -1.50304 -0.473955 0
M  V30 991 C 110.625 -1.61389 -1.22806 0
M  V30 992 C 110.958 -0.311955 -1.91678 0
M  V30 993 O 110.233 0.686384 -1.81986 0
M  V30 994 C 110.516 -2.79219 -2.27396 0
M  V30 995 C 110.369 -4.19286 -1.62848 0
M  V30 996 C 111.688 -2.92614 -3.28732 0
M  V30 997 H 108.807 -0.587399 -0.445119 0
M  V30 998 H 111.449 -1.82681 -0.522265 0
M  V30 999 H 109.599 -2.61195 -2.87592 0
M  V30 1000 H 111.271 -4.48892 -1.06271 0
M  V30 1001 H 109.514 -4.23677 -0.931693 0
M  V30 1002 H 110.185 -4.97655 -2.38838 0
M  V30 1003 H 112.661 -3.09105 -2.78556 0
M  V30 1004 H 111.537 -3.76688 -3.99246 0
M  V30 1005 H 111.798 -2.03107 -3.92683 0
M  V30 1006 N 110.857 0.726932 -1.39834 0
M  V30 1007 C 112.273 1.03354 -1.21615 0
M  V30 1008 C 112.473 2.01327 -0.08338 0
M  V30 1009 O 111.529 2.46158 0.56238 0
M  V30 1010 C 112.842 1.58811 -2.55342 0
M  V30 1011 C 114.39 1.70851 -2.62257 0
M  V30 1012 C 114.865 2.29716 -3.96225 0
M  V30 1013 N 116.356 2.37116 -3.97907 0
M  V30 1014 C 117.091 2.83619 -4.98345 0
M  V30 1015 N 116.587 3.29958 -6.09179 0
M  V30 1016 N 118.38 2.82901 -4.8572 0
M  V30 1017 H 110.531 0.0773069 -2.12259 0
M  V30 1018 H 112.794 0.0969102 -0.943034 0
M  V30 1019 H 112.5 0.942855 -3.38826 0
M  V30 1020 H 112.374 2.57502 -2.75632 0
M  V30 1021 H 114.761 2.34497 -1.79152 0
M  V30 1022 H 114.842 0.707913 -2.45809 0
M  V30 1023 H 114.486 1.66696 -4.79765 0
M  V30 1024 H 114.416 3.30469 -4.09997 0
M  V30 1025 H 116.907 2.04374 -3.17868 0
M  V30 1026 H 117.22 3.63976 -6.8172 0
M  V30 1027 H 115.565 3.27946 -6.12761 0
M  V30 1028 H 118.756 2.46027 -3.98231 0
M  V30 1029 H 118.929 3.18827 -5.6414 0
M  V30 1030 N 112.336 1.25143 0.95797 0
M  V30 1031 C 113.582 1.09855 1.70469 0
M  V30 1032 C 113.915 -0.360187 1.90831 0
M  V30 1033 O 113.19 -1.26568 1.47685 0
M  V30 1034 C 113.473 1.8497 3.08963 0
M  V30 1035 C 113.326 3.38652 2.96032 0
M  V30 1036 C 114.645 1.63016 4.08795 0
M  V30 1037 H 111.764 0.400465 0.618706 0
M  V30 1038 H 114.406 1.53933 1.11376 0
M  V30 1039 H 112.556 1.47505 3.59409 0
M  V30 1040 H 114.228 3.85772 2.52938 0
M  V30 1041 H 112.471 3.66534 2.32025 0
M  V30 1042 H 113.142 3.8642 3.94187 0
M  V30 1043 H 115.618 1.95625 3.67247 0
M  V30 1044 H 114.494 2.18015 5.03747 0
M  V30 1045 H 114.755 0.570692 4.38401 0
M  V30 1046 N 113.814 -1.1601 1.06675 0
M  V30 1047 C 115.23 -1.38622 0.790948 0
M  V30 1048 C 115.43 -1.92109 -0.607965 0
M  V30 1049 O 114.486 -2.12239 -1.36787 0
M  V30 1050 C 115.799 -2.36347 1.85905 0
M  V30 1051 C 117.347 -2.50023 1.88301 0
M  V30 1052 C 117.822 -3.51033 2.94176 0
M  V30 1053 N 119.313 -3.58563 2.93235 0
M  V30 1054 C 120.048 -4.36521 3.71803 0
M  V30 1055 N 119.544 -5.17869 4.602 0
M  V30 1056 N 121.337 -4.31541 3.60178 0
M  V30 1057 H 113.488 -0.796294 1.96908 0
M  V30 1058 H 115.751 -0.412597 0.853503 0
M  V30 1059 H 115.457 -2.04147 2.86386 0
M  V30 1060 H 115.331 -3.36042 1.71334 0
M  V30 1061 H 117.718 -2.81524 0.884769 0
M  V30 1062 H 117.799 -1.5035 2.06951 0
M  V30 1063 H 117.443 -3.20268 3.94196 0
M  V30 1064 H 117.373 -4.50445 2.72776 0
M  V30 1065 H 119.864 -3.00496 2.29152 0
M  V30 1066 H 120.177 -5.74578 5.16797 0
M  V30 1067 H 118.522 -5.17199 4.64253 0
M  V30 1068 H 121.713 -3.67051 2.90502 0
M  V30 1069 H 121.886 -4.9205 4.21653 0
M  V30 1070 N 115.292 -0.849877 -1.32721 0
M  V30 1071 C 116.54 -0.450032 -1.97026 0
M  V30 1072 C 116.861 0.996604 -1.67609 0
M  V30 1073 O 116.131 1.6958 -0.980786 0
M  V30 1074 H 114.711 -0.163426 -0.728904 0
M  V30 1075 H 117.373 -1.08526 -1.6189 0
M  V30 1076 H 116.469 -0.591146 -3.0645 0
M  V30 1077 N 116.77 1.45427 -0.607355 0
M  V30 1078 C 117.995 2.07124 -0.107006 0
M  V30 1079 C 118.42 1.44906 1.19933 0
M  V30 1080 O 117.778 0.541687 1.73019 0
M  V30 1081 C 117.826 3.60595 0.0194119 0
M  V30 1082 O 116.93 3.98285 1.0697 0
M  V30 1083 H 116.271 0.659868 -0.0739597 0
M  V30 1084 H 118.801 1.86683 -0.837297 0
M  V30 1085 H 118.811 4.07419 0.2177 0
M  V30 1086 H 117.486 4.05266 -0.934453 0
M  V30 1087 H 116.063 3.63133 0.847889 0
M  V30 1088 N 118.248 0.346503 1.53744 0
M  V30 1089 C 119.476 -0.25041 2.05379 0
M  V30 1090 C 119.891 -1.43979 1.22129 0
M  V30 1091 O 119.248 -1.80677 0.257321 0
M  V30 1092 C 119.299 -0.662575 3.55376 0
M  V30 1093 O 119.02 0.479515 4.35468 0
M  V30 1094 C 120.521 -1.31989 4.23195 0
M  V30 1095 H 117.741 -0.0478198 0.669294 0
M  V30 1096 H 120.285 0.499346 1.9831 0
M  V30 1097 H 118.44 -1.36227 3.62658 0
M  V30 1098 H 118.854 0.15037 5.24284 0
M  V30 1099 H 120.328 -1.55902 5.29527 0
M  V30 1100 H 120.805 -2.27436 3.75725 0
M  V30 1101 H 121.411 -0.662154 4.20114 0
M  V30 1102 N 119.726 -1.57421 0.075193 0
M  V30 1103 C 120.974 -1.93236 -0.591974 0
M  V30 1104 C 121.295 -0.956241 -1.69944 0
M  V30 1105 O 120.565 -0.00494792 -1.95899 0
M  V30 1106 H 119.145 -0.713355 -0.22166 0
M  V30 1107 H 121.807 -1.9444 0.133848 0
M  V30 1108 H 120.903 -2.95131 -1.01509 0
M  V30 1109 N 121.204 0.198386 -1.56346 0
M  V30 1110 C 122.45 0.920648 -1.80698 0
M  V30 1111 C 122.783 1.83045 -0.648697 0
M  V30 1112 O 122.058 1.91308 0.350925 0
M  V30 1113 C 122.341 1.73971 -3.15287 0
M  V30 1114 C 122.194 0.85485 -4.41602 0
M  V30 1115 C 123.513 2.71296 -3.46535 0
M  V30 1116 H 120.632 0.333261 -0.657348 0
M  V30 1117 H 123.274 0.188198 -1.89066 0
M  V30 1118 H 121.424 2.36416 -3.08285 0
M  V30 1119 H 123.096 0.245362 -4.60647 0
M  V30 1120 H 121.339 0.161398 -4.335 0
M  V30 1121 H 122.01 1.46286 -5.32264 0
M  V30 1122 H 124.486 2.18983 -3.53816 0
M  V30 1123 H 123.362 3.2569 -4.41834 0
M  V30 1124 H 123.623 3.5018 -2.69864 0
M  V30 1125 N 122.682 1.50554 0.465978 0
M  V30 1126 C 123.645 1.69233 1.54574 0
M  V30 1127 C 124.645 0.562901 1.50626 0
M  V30 1128 O 125.835 0.830016 1.53155 0
M  V30 1129 C 122.967 1.7223 2.94193 0
M  V30 1130 H 124.16 2.65571 1.39327 0
M  V30 1131 H 121.713 1.40111 0.692711 0
M  V30 1132 H 122.448 0.77603 3.14878 0
M  V30 1133 H 122.233 2.54285 2.98466 0
M  V30 1134 H 123.723 1.88618 3.72576 0
M  V30 1135 N 124.16 -0.719506 1.40217 0
M  V30 1136 C 125.123 -1.8153 1.39927 0
M  V30 1137 C 126.123 -1.58095 0.293723 0
M  V30 1138 O 127.313 -1.65209 0.552429 0
M  V30 1139 C 124.445 -3.19561 1.18716 0
M  V30 1140 H 125.638 -1.83186 2.37451 0
M  V30 1141 H 123.191 -0.924746 1.26008 0
M  V30 1142 H 123.926 -3.23557 0.219366 0
M  V30 1143 H 123.711 -3.3797 1.98793 0
M  V30 1144 H 125.201 -3.99598 1.21291 0
M  V30 1145 N 125.638 -1.25649 -0.95132 0
M  V30 1146 C 126.601 -1.06399 -2.03007 0
M  V30 1147 C 127.601 -0.0156794 -1.60792 0
M  V30 1148 O 128.791 -0.25817 -1.72276 0
M  V30 1149 C 125.923 -0.616184 -3.35285 0
M  V30 1150 H 127.116 -2.02164 -2.21517 0
M  V30 1151 H 124.669 -1.08103 -1.12887 0
M  V30 1152 H 125.404 0.343917 -3.22471 0
M  V30 1153 H 125.189 -1.37301 -3.67275 0
M  V30 1154 H 126.679 -0.503032 -4.14559 0
M  V30 1155 N 127.117 1.15442 -1.07289 0
M  V30 1156 C 128.08 2.18358 -0.696591 0
M  V30 1157 C 129.08 1.58637 0.262837 0
M  V30 1158 O 130.27 1.74145 0.0438809 0
M  V30 1159 C 127.402 3.4089 -0.0266151 0
M  V30 1160 H 128.595 2.53162 -1.60776 0
M  V30 1161 H 126.148 1.29893 -0.869342 0
M  V30 1162 H 126.883 3.11653 0.896822 0
M  V30 1163 H 126.668 3.85495 -0.716657 0
M  V30 1164 H 128.158 4.17009 0.222028 0
M  V30 1165 N 128.595 0.856903 1.32268 0
M  V30 1166 C 129.843 0.460474 1.96784 0
M  V30 1167 C 130.164 -0.987701 1.68135 0
M  V30 1168 O 129.434 -1.69058 0.989765 0
M  V30 1169 H 128.014 0.167289 0.728027 0
M  V30 1170 H 130.676 1.09383 1.61312 0
M  V30 1171 H 129.772 0.60739 3.06133 0
M  V30 1172 N 130.073 -1.45103 0.615059 0
M  V30 1173 C 131.003 -2.33339 -0.0865619 0
M  V30 1174 C 131.984 -1.4727 -0.851209 0
M  V30 1175 O 133.169 -1.76026 -0.820281 0
M  V30 1176 C 130.299 -3.30095 -1.07956 0
M  V30 1177 C 129.253 -4.25858 -0.427628 0
M  V30 1178 C 128.579 -5.12361 -1.5294 0
M  V30 1179 C 129.879 -5.18165 0.655944 0
M  V30 1180 H 131.573 -2.92254 0.650224 0
M  V30 1181 H 129.119 -1.40532 0.314138 0
M  V30 1182 H 131.072 -3.90698 -1.57901 0
M  V30 1183 H 129.796 -2.69355 -1.84703 0
M  V30 1184 H 128.455 -3.66564 0.0510292 0
M  V30 1185 H 128.103 -4.47984 -2.28734 0
M  V30 1186 H 127.803 -5.77238 -1.09865 0
M  V30 1187 H 129.327 -5.75833 -2.03098 0
M  V30 1188 H 130.741 -5.72796 0.240257 0
M  V30 1189 H 129.138 -5.91559 1.00888 0
M  V30 1190 H 130.208 -4.60144 1.52957 0
M  V30 1191 N 131.551 -0.354651 -1.53558 0
M  V30 1192 C 132.501 0.513179 -2.2215 0
M  V30 1193 C 133.485 1.05734 -1.21281 0
M  V30 1194 O 134.677 0.989202 -1.46778 0
M  V30 1195 C 131.806 1.65798 -3.00609 0
M  V30 1196 C 130.892 1.12722 -4.08845 0
M  V30 1197 N 131.283 0.318563 -5.04796 0
M  V30 1198 C 129.581 1.40307 -4.23356 0
M  V30 1199 C 130.282 0.0292224 -5.81693 0
M  V30 1200 N 129.258 0.623891 -5.40008 0
M  V30 1201 H 133.06 -0.111586 -2.93688 0
M  V30 1202 H 130.574 -0.162091 -1.61589 0
M  V30 1203 H 132.571 2.29176 -3.48258 0
M  V30 1204 H 131.231 2.28591 -2.306 0
M  V30 1205 H 132.242 -0.0413091 -5.17884 0
M  V30 1206 H 128.919 2.03458 -3.6457 0
M  V30 1207 H 130.309 -0.623808 -6.68998 0
M  V30 1208 N 133.029 1.57378 -0.0835403 0
M  V30 1209 C 134.445 1.57246 0.273109 0
M  V30 1210 C 134.645 1.09385 1.69225 0
M  V30 1211 O 133.701 0.765051 2.40631 0
M  V30 1212 C 135.014 3.00614 0.0720628 0
M  V30 1213 C 136.562 3.12684 0.1407 0
M  V30 1214 C 137.037 4.57989 -0.0322094 0
M  V30 1215 N 138.528 4.63194 0.0230085 0
M  V30 1216 C 139.263 5.73335 -0.0861941 0
M  V30 1217 N 138.759 6.9235 -0.24958 0
M  V30 1218 N 140.552 5.62093 -0.0282886 0
M  V30 1219 H 132.703 1.86801 -1.0109 0
M  V30 1220 H 134.966 0.861687 -0.395222 0
M  V30 1221 H 134.672 3.39786 -0.907662 0
M  V30 1222 H 134.546 3.68193 0.81936 0
M  V30 1223 H 136.933 2.73391 1.11092 0
M  V30 1224 H 137.014 2.47719 -0.637896 0
M  V30 1225 H 136.658 4.97973 -0.999247 0
M  V30 1226 H 136.588 5.21 0.765937 0
M  V30 1227 H 139.079 3.77613 0.14722 0
M  V30 1228 H 139.392 7.72117 -0.324733 0
M  V30 1229 H 137.737 6.94415 -0.285097 0
M  V30 1230 H 140.928 4.67997 0.0981408 0
M  V30 1231 H 141.101 6.47895 -0.116845 0
M  V30 1232 N 134.507 -0.190092 1.56449 0
M  V30 1233 C 135.737 -0.92443 1.84764 0
M  V30 1234 C 136.145 -1.77146 0.664529 0
M  V30 1235 O 135.488 -1.79812 -0.375957 0
M  V30 1236 C 135.55 -1.86651 3.07248 0
M  V30 1237 C 135.214 -1.20094 4.40938 0
M  V30 1238 C 136.211 -0.575445 5.16706 0
M  V30 1239 C 133.896 -1.2033 4.87674 0
M  V30 1240 C 135.89 0.0388111 6.37388 0
M  V30 1241 C 133.577 -0.585214 6.08291 0
M  V30 1242 C 134.575 0.0347578 6.82991 0
M  V30 1243 O 134.263 0.643147 8.01323 0
M  V30 1244 H 133.995 -0.274974 0.617548 0
M  V30 1245 H 136.549 -0.200788 2.04416 0
M  V30 1246 H 134.779 -2.62998 2.83494 0
M  V30 1247 H 136.468 -2.46907 3.22167 0
M  V30 1248 H 137.234 -0.565728 4.81689 0
M  V30 1249 H 133.113 -1.67526 4.29484 0
M  V30 1250 H 136.657 0.523329 6.95634 0
M  V30 1251 H 132.554 -0.592451 6.42775 0
M  V30 1252 H 133.322 0.540545 8.16713 0
M  V30 1253 N 135.985 -1.50799 -0.457987 0
M  V30 1254 C 136.915 -1.73553 -1.5621 0
M  V30 1255 C 137.896 -0.584774 -1.59732 0
M  V30 1256 O 139.081 -0.825314 -1.7579 0
M  V30 1257 C 136.211 -1.84169 -2.94447 0
M  V30 1258 C 135.165 -2.99461 -3.0579 0
M  V30 1259 C 134.491 -2.95235 -4.45803 0
M  V30 1260 C 135.791 -4.39766 -2.81786 0
M  V30 1261 H 137.485 -2.66 -1.37421 0
M  V30 1262 H 135.031 -1.28002 -0.659662 0
M  V30 1263 H 136.984 -1.98672 -3.71628 0
M  V30 1264 H 135.708 -0.883545 -3.14422 0
M  V30 1265 H 134.367 -2.8463 -2.31044 0
M  V30 1266 H 134.015 -1.97239 -4.62715 0
M  V30 1267 H 133.715 -3.72642 -4.54326 0
M  V30 1268 H 135.239 -3.11803 -5.24987 0
M  V30 1269 H 136.653 -4.55054 -3.4871 0
M  V30 1270 H 135.05 -5.18722 -3.0174 0
M  V30 1271 H 136.12 -4.51229 -1.7754 0
M  V30 1272 N 137.463 0.71206 -1.40597 0
M  V30 1273 C 138.879 1.02058 -1.22704 0
M  V30 1274 C 139.079 2.01228 -0.104729 0
M  V30 1275 O 138.135 2.4674 0.53624 0
M  V30 1276 C 139.448 1.56094 -2.57012 0
M  V30 1277 C 140.996 1.6806 -2.64054 0
M  V30 1278 C 141.471 2.25501 -3.9864 0
M  V30 1279 N 142.962 2.32882 -4.004 0
M  V30 1280 C 143.697 2.78317 -5.01325 0
M  V30 1281 N 143.193 3.23478 -6.12645 0
M  V30 1282 N 144.986 2.77733 -4.88693 0
M  V30 1283 H 137.137 0.0547896 -2.12329 0
M  V30 1284 H 139.4 0.0869027 -0.944008 0
M  V30 1285 H 139.106 0.906865 -3.39807 0
M  V30 1286 H 138.98 2.54564 -2.78347 0
M  V30 1287 H 141.367 2.32583 -1.81629 0
M  V30 1288 H 141.448 0.681802 -2.46546 0
M  V30 1289 H 141.092 1.61598 -4.81506 0
M  V30 1290 H 141.022 3.26102 -4.13479 0
M  V30 1291 H 143.513 2.00991 -3.20017 0
M  V30 1292 H 143.826 3.56725 -6.85542 0
M  V30 1293 H 142.171 3.21429 -6.16205 0
M  V30 1294 H 145.362 2.4179 -4.00818 0
M  V30 1295 H 145.535 3.12826 -5.67489 0
M  V30 1296 N 138.941 1.26152 0.944643 0
M  V30 1297 C 140.218 1.02247 1.66748 0
M  V30 1298 C 140.598 -0.448202 2.06287 0
M  V30 1299 O 139.946 -1.42779 1.78399 0
M  V30 1300 C 140.156 1.96788 2.88228 0
M  V30 1301 C 141.504 2.25201 3.59958 0
M  V30 1302 O 142.528 1.94626 2.98327 0
M  V30 1303 O 141.387 2.77242 4.70956 0
M  V30 1304 H 138.481 0.388517 0.730057 0
M  V30 1305 H 141.027 1.37348 0.99668 0
M  V30 1306 H 139.799 2.96047 2.55875 0
M  V30 1307 H 139.422 1.62145 3.63035 0
M  V30 1308 N 140.419 -1.14872 1.07899 0
M  V30 1309 C 141.666 -1.85789 0.805532 0
M  V30 1310 C 141.994 -1.82649 -0.668561 0
M  V30 1311 O 141.249 -1.24858 -1.50695 0
M  V30 1312 C 141.548 -3.34223 1.26609 0
M  V30 1313 C 141.214 -3.57555 2.74709 0
M  V30 1314 C 139.876 -3.63631 3.1516 0
M  V30 1315 C 142.228 -3.66803 3.70277 0
M  V30 1316 C 139.556 -3.76473 4.49983 0
M  V30 1317 C 141.908 -3.8117 5.04869 0
M  V30 1318 C 140.572 -3.85494 5.44932 0
M  V30 1319 H 139.842 -0.679849 0.294765 0
M  V30 1320 H 142.489 -1.3572 1.35101 0
M  V30 1321 H 140.794 -3.86536 0.640103 0
M  V30 1322 H 142.491 -3.87511 1.03132 0
M  V30 1323 H 139.081 -3.5347 2.42398 0
M  V30 1324 H 143.265 -3.61404 3.40149 0
M  V30 1325 H 138.521 -3.7808 4.80484 0
M  V30 1326 H 142.695 -3.87268 5.78789 0
M  V30 1327 H 140.322 -3.95197 6.49403 0
M  V30 1328 N 141.898 -0.863906 -1.31812 0
M  V30 1329 C 143.138 -0.47825 -1.98726 0
M  V30 1330 C 143.502 0.950397 -1.66828 0
M  V30 1331 O 144.703 1.44109 -2.26905 0
M  V30 1332 C 142.974 -0.721134 -3.50049 0
M  V30 1333 S 144.533 -0.434432 -4.36644 0
M  V30 1334 H 141.351 -0.178773 -0.688158 0
M  V30 1335 H 143.953 -1.11862 -1.60334 0
M  V30 1336 H 142.657 -1.75981 -3.70755 0
M  V30 1337 H 142.188 -0.0675315 -3.93342 0
M  V30 1338 H 144.203 0.735786 -4.90714 0
M  V30 1339 N 143.376 1.44774 -0.622745 0
M  V30 1340 C 144.624 2.01721 -0.123655 0
M  V30 1341 C 144.945 1.49172 1.25589 0
M  V30 1342 O 144.215 0.691974 1.83272 0
M  V30 1343 H 142.795 0.745777 -0.0427225 0
M  V30 1344 H 145.457 1.77382 -0.807559 0
M  V30 1345 H 144.553 3.11984 -0.0849534 0
M  V30 1346 N 144.854 0.36279 1.53368 0
M  V30 1347 C 146.094 -0.227882 2.03126 0
M  V30 1348 C 146.458 -1.4622 1.24434 0
M  V30 1349 O 147.659 -2.12831 1.64184 0
M  V30 1350 C 145.93 -0.515427 3.53664 0
M  V30 1351 S 147.489 -1.08017 4.25297 0
M  V30 1352 H 144.307 -0.0665377 0.70788 0
M  V30 1353 H 146.909 0.50501 1.88865 0
M  V30 1354 H 145.613 0.390436 4.08539 0
M  V30 1355 H 145.144 -1.27747 3.72081 0
M  V30 1356 H 147.159 -2.36462 4.36234 0
M  V30 1357 N 146.332 -1.57332 0.0918853 0
M  V30 1358 C 147.282 -2.10385 -0.87876 0
M  V30 1359 C 148.266 -1.01814 -1.24591 0
M  V30 1360 O 149.458 -1.28093 -1.22152 0
M  V30 1361 C 146.587 -2.68517 -2.13901 0
M  V30 1362 C 145.673 -3.84126 -1.79744 0
M  V30 1363 N 146.064 -4.92288 -1.1613 0
M  V30 1364 C 144.362 -3.93801 -2.09373 0
M  V30 1365 C 145.063 -5.7295 -1.00513 0
M  V30 1366 N 144.039 -5.21876 -1.5214 0
M  V30 1367 H 147.841 -2.91395 -0.38293 0
M  V30 1368 H 145.355 -1.62017 -0.111423 0
M  V30 1369 H 147.352 -3.04852 -2.84378 0
M  V30 1370 H 146.012 -1.88961 -2.64053 0
M  V30 1371 H 147.023 -5.1123 -0.828504 0
M  V30 1372 H 143.7 -3.25249 -2.61762 0
M  V30 1373 H 145.09 -6.69978 -0.507902 0
M  V30 1374 N 147.81 0.181792 -1.56548 0
M  V30 1375 C 149.056 0.901431 -1.81665 0
M  V30 1376 C 149.389 1.82347 -0.668075 0
M  V30 1377 O 148.664 1.91669 0.330615 0
M  V30 1378 C 148.947 1.70618 -3.17115 0
M  V30 1379 C 148.8 0.807964 -4.42484 0
M  V30 1380 C 150.119 2.67605 -3.49393 0
M  V30 1381 H 147.238 0.32627 -0.660846 0
M  V30 1382 H 149.88 0.168134 -1.89255 0
M  V30 1383 H 148.03 2.33133 -3.10775 0
M  V30 1384 H 149.702 0.19649 -4.60881 0
M  V30 1385 H 147.945 0.115411 -4.33646 0
M  V30 1386 H 148.616 1.40632 -5.33785 0
M  V30 1387 H 151.092 2.15218 -3.56118 0
M  V30 1388 H 149.968 3.20985 -4.45264 0
M  V30 1389 H 150.229 3.47298 -2.73563 0
M  V30 1390 N 149.288 1.51039 0.449983 0
M  V30 1391 C 150.251 1.70863 1.5277 0
M  V30 1392 C 151.251 0.578846 1.5002 0
M  V30 1393 O 152.441 0.846213 1.52266 0
M  V30 1394 C 149.573 1.75341 2.9235 0
M  V30 1395 H 150.766 2.67034 1.36502 0
M  V30 1396 H 148.319 1.40838 0.677812 0
M  V30 1397 H 149.054 0.809383 3.14037 0
M  V30 1398 H 148.839 2.57436 2.95752 0
M  V30 1399 H 150.329 1.92559 3.70555 0
M  V30 1400 N 150.766 -0.704594 1.40972 0
M  V30 1401 C 152.012 -1.46546 1.41053 0
M  V30 1402 C 152.367 -1.92393 0.0159714 0
M  V30 1403 O 151.66 -1.66017 -0.956506 0
M  V30 1404 C 151.854 -2.698 2.34399 0
M  V30 1405 C 151.683 -2.36008 3.82793 0
M  V30 1406 C 150.453 -2.26812 4.51536 0
M  V30 1407 C 152.651 -1.99565 4.74003 0
M  V30 1408 N 150.633 -1.8581 5.85105 0
M  V30 1409 C 152.004 -1.69251 5.96451 0
M  V30 1410 C 154.059 -1.86296 4.61734 0
M  V30 1411 C 152.762 -1.27003 7.07999 0
M  V30 1412 C 154.788 -1.45452 5.73234 0
M  V30 1413 C 154.15 -1.16043 6.94776 0
M  V30 1414 H 150.249 -0.533896 0.571383 0
M  V30 1415 H 152.833 -0.816061 1.76773 0
M  V30 1416 H 151.004 -3.32473 2.00789 0
M  V30 1417 H 152.736 -3.36214 2.25261 0
M  V30 1418 H 149.491 -2.44913 4.05357 0
M  V30 1419 H 149.915 -1.67817 6.55871 0
M  V30 1420 H 154.557 -2.0769 3.68273 0
M  V30 1421 H 152.275 -1.04353 8.01334 0
M  V30 1422 H 155.861 -1.35748 5.65742 0
M  V30 1423 H 154.741 -0.84915 7.79589 0
M  V30 1424 N 152.244 -1.26651 -0.937939 0
M  V30 1425 C 153.469 -1.15279 -1.72411 0
M  V30 1426 C 153.894 0.287866 -1.85884 0
M  V30 1427 O 153.252 1.20855 -1.35143 0
M  V30 1428 C 153.3 -1.83028 -3.10698 0
M  V30 1429 O 152.404 -1.12128 -3.96864 0
M  V30 1430 H 151.745 -0.401504 -0.528858 0
M  V30 1431 H 154.275 -1.67531 -1.1745 0
M  V30 1432 H 154.285 -1.89981 -3.6107 0
M  V30 1433 H 152.96 -2.87833 -3.00208 0
M  V30 1434 H 151.537 -1.13173 -3.55312 0
M  V30 1435 N 153.722 1.14298 -1.08507 0
M  V30 1436 C 154.97 1.84993 -0.813763 0
M  V30 1437 C 155.291 1.83405 0.662393 0
M  V30 1438 O 154.561 1.28319 1.48024 0
M  V30 1439 H 153.141 0.684966 -0.298045 0
M  V30 1440 H 155.803 1.385 -1.37126 0
M  V30 1441 H 154.899 2.89788 -1.15884 0
M  V30 1442 N 155.201 0.870884 1.31352 0
M  V30 1443 C 156.426 0.495957 2.01383 0
M  V30 1444 C 156.851 -0.904324 1.64935 0
M  V30 1445 O 156.209 -1.59687 0.858466 0
M  V30 1446 C 156.257 0.661433 3.54482 0
M  V30 1447 O 155.361 -0.298851 4.11316 0
M  V30 1448 H 154.702 0.197158 0.634054 0
M  V30 1449 H 157.232 1.17455 1.67527 0
M  V30 1450 H 157.242 0.555072 4.04207 0
M  V30 1451 H 155.917 1.68246 3.8035 0
M  V30 1452 H 154.494 -0.147368 3.72609 0
M  V30 1453 N 156.679 -1.44442 0.630414 0
M  V30 1454 C 157.611 -2.2892 -0.113347 0
M  V30 1455 C 158.624 -1.41243 -0.80959 0
M  V30 1456 O 159.813 -1.65402 -0.671156 0
M  V30 1457 C 156.913 -3.17594 -1.18266 0
M  V30 1458 C 156.086 -4.33682 -0.569073 0
M  V30 1459 C 155.145 -5.03397 -1.53226 0
M  V30 1460 O 154.171 -5.59438 -1.04967 0
M  V30 1461 N 155.373 -5.04783 -2.86661 0
M  V30 1462 H 158.138 -2.93392 0.611636 0
M  V30 1463 H 155.699 -1.54881 0.471523 0
M  V30 1464 H 157.691 -3.61097 -1.82732 0
M  V30 1465 H 156.261 -2.54876 -1.80988 0
M  V30 1466 H 155.481 -3.9338 0.254187 0
M  V30 1467 H 156.769 -5.08608 -0.139767 0
M  V30 1468 H 156.167 -4.60584 -3.28449 0
M  V30 1469 H 154.724 -5.52077 -3.46489 0
M  V30 1470 N 158.157 -0.370918 -1.53173 0
M  V30 1471 C 159.087 0.464847 -2.28826 0
M  V30 1472 C 160.068 1.07936 -1.31468 0
M  V30 1473 O 161.253 1.0956 -1.60344 0
M  V30 1474 C 158.383 1.60196 -3.08147 0
M  V30 1475 C 157.337 1.11443 -4.13237 0
M  V30 1476 C 156.663 2.3422 -4.80672 0
M  V30 1477 C 157.963 0.195384 -5.21934 0
M  V30 1478 H 159.657 -0.166329 -2.98938 0
M  V30 1479 H 157.203 -0.0814359 -1.4377 0
M  V30 1480 H 159.156 2.19332 -3.59822 0
M  V30 1481 H 157.88 2.26045 -2.35735 0
M  V30 1482 H 156.539 0.545727 -3.62515 0
M  V30 1483 H 156.187 2.98537 -4.04827 0
M  V30 1484 H 155.887 2.02269 -5.51689 0
M  V30 1485 H 157.411 2.94032 -5.35143 0
M  V30 1486 H 158.825 0.694375 -5.69079 0
M  V30 1487 H 157.222 -0.0335027 -6.00091 0
M  V30 1488 H 158.292 -0.760961 -4.78892 0
M  V30 1489 N 159.635 1.57281 -0.100228 0
M  V30 1490 C 161.051 1.57527 0.256416 0
M  V30 1491 C 161.251 1.11173 1.68056 0
M  V30 1492 O 160.307 0.79053 2.39806 0
M  V30 1493 C 161.62 3.00673 0.0401747 0
M  V30 1494 C 163.168 3.12815 0.107528 0
M  V30 1495 C 163.643 4.57929 -0.0807834 0
M  V30 1496 N 165.134 4.63193 -0.0261207 0
M  V30 1497 C 165.869 5.73212 -0.146999 0
M  V30 1498 N 165.365 6.92047 -0.322999 0
M  V30 1499 N 167.158 5.62031 -0.0879044 0
M  V30 1500 H 159.309 1.85718 -1.03065 0
M  V30 1501 H 161.572 0.857446 -0.404339 0
M  V30 1502 H 161.278 3.38804 -0.943649 0
M  V30 1503 H 161.152 3.69042 0.780262 0
M  V30 1504 H 163.539 2.74554 1.08186 0
M  V30 1505 H 163.62 2.47028 -0.664134 0
M  V30 1506 H 163.264 4.96886 -1.05201 0
M  V30 1507 H 163.194 5.21783 0.710635 0
M  V30 1508 H 165.685 3.77748 0.107161 0
M  V30 1509 H 165.998 7.7173 -0.406608 0
M  V30 1510 H 164.343 6.94074 -0.358733 0
M  V30 1511 H 167.534 4.68075 0.048498 0
M  V30 1512 H 167.707 6.47734 -0.185557 0
M  V30 1513 N 161.113 -0.173488 1.56642 0
M  V30 1514 C 162.043 -1.2171 1.99271 0
M  V30 1515 C 163.024 -1.46289 0.867959 0
M  V30 1516 O 164.209 -1.5766 1.13388 0
M  V30 1517 C 161.339 -2.55651 2.35074 0
M  V30 1518 C 160.293 -2.45645 3.50489 0
M  V30 1519 C 159.619 -3.84056 3.72028 0
M  V30 1520 C 160.919 -1.96302 4.84007 0
M  V30 1521 H 162.613 -0.86275 2.867 0
M  V30 1522 H 160.159 -0.413571 1.37933 0
M  V30 1523 H 162.112 -3.2886 2.63494 0
M  V30 1524 H 160.836 -2.92869 1.44552 0
M  V30 1525 H 159.495 -1.7489 3.22194 0
M  V30 1526 H 159.143 -4.18664 2.788 0
M  V30 1527 H 158.843 -3.7823 4.49684 0
M  V30 1528 H 160.367 -4.58854 4.02846 0
M  V30 1529 H 161.781 -2.59284 5.11317 0
M  V30 1530 H 160.178 -2.01429 5.65284 0
M  V30 1531 H 161.248 -0.917226 4.76146 0
M  V30 1532 N 162.591 -1.51276 -0.441967 0
M  V30 1533 C 164.002 -1.56244 -1.02199 0
M  V30 1534 C 164.353 -0.383149 -1.92422 0
M  V30 1535 O 163.478 0.500613 -2.1053 0
M  V30 1536 C 164.073 -2.83162 -1.86024 0
M  V30 1537 C 162.632 -2.90716 -2.39084 0
M  V30 1538 C 161.779 -2.50858 -1.18175 0
M  V30 1539 H 164.73 -1.5712 -0.223416 0
M  V30 1540 H 164.751 -2.66663 -2.71425 0
M  V30 1541 H 164.263 -3.68974 -1.20331 0
M  V30 1542 H 162.364 -2.09323 -3.08244 0
M  V30 1543 H 162.477 -3.94266 -2.72198 0
M  V30 1544 H 160.841 -2.03951 -1.52565 0
M  V30 1545 H 161.624 -3.3901 -0.541001 0
M  V30 1546 N 164.069 0.697108 -1.41344 0
M  V30 1547 C 165.485 1.00751 -1.2378 0
M  V30 1548 C 165.685 2.01105 -0.126066 0
M  V30 1549 O 164.741 2.47295 0.51004 0
M  V30 1550 C 166.054 1.53359 -2.58653 0
M  V30 1551 C 167.602 1.6525 -2.65822 0
M  V30 1552 C 168.077 2.2126 -4.01009 0
M  V30 1553 N 169.568 2.28622 -4.02847 0
M  V30 1554 C 170.303 2.72984 -5.04249 0
M  V30 1555 N 169.799 3.16962 -6.16041 0
M  V30 1556 N 171.592 2.72534 -4.91611 0
M  V30 1557 H 163.743 0.0322662 -2.12375 0
M  V30 1558 H 166.006 0.0768853 -0.944877 0
M  V30 1559 H 165.712 0.870773 -3.4075 0
M  V30 1560 H 165.586 2.51597 -2.81032 0
M  V30 1561 H 167.973 2.30644 -1.84086 0
M  V30 1562 H 168.054 0.655614 -2.47256 0
M  V30 1563 H 167.698 1.56482 -4.83193 0
M  V30 1564 H 167.628 3.21698 -4.16915 0
M  V30 1565 H 170.119 1.97585 -3.22131 0
M  V30 1566 H 170.432 3.49434 -6.89287 0
M  V30 1567 H 168.777 3.14875 -6.1958 0
M  V30 1568 H 171.968 2.37525 -4.0336 0
M  V30 1569 H 172.141 3.06789 -5.70775 0
M  V30 1570 N 165.547 1.27147 0.931209 0
M  V30 1571 C 166.958 1.12044 1.49342 0
M  V30 1572 C 167.309 -0.295795 1.93957 0
M  V30 1573 O 166.434 -1.18835 1.80852 0
M  V30 1574 C 167.029 2.02781 2.71414 0
M  V30 1575 C 165.588 1.91794 3.2387 0
M  V30 1576 C 164.735 1.95543 1.96617 0
M  V30 1577 H 167.686 1.40091 0.745672 0
M  V30 1578 H 167.707 1.58156 3.46074 0
M  V30 1579 H 167.219 3.05848 2.38911 0
M  V30 1580 H 165.32 0.916992 3.6114 0
M  V30 1581 H 165.433 2.77852 3.90302 0
M  V30 1582 H 163.797 1.39722 2.12955 0
M  V30 1583 H 164.58 3.00259 1.66432 0
M  V30 1584 N 167.025 -1.13721 1.09112 0
M  V30 1585 C 167.955 -2.21148 0.749385 0
M  V30 1586 C 168.936 -1.6792 -0.271475 0
M  V30 1587 O 170.121 -1.93693 -0.140251 0
M  V30 1588 C 167.251 -3.46905 0.165659 0
M  V30 1589 C 166.205 -4.13203 1.11567 0
M  V30 1590 C 165.531 -5.33248 0.393809 0
M  V30 1591 C 166.831 -4.60912 2.45678 0
M  V30 1592 H 168.525 -2.4999 1.64758 0
M  V30 1593 H 166.071 -1.20156 0.793626 0
M  V30 1594 H 168.024 -4.21313 -0.085466 0
M  V30 1595 H 166.748 -3.17449 -0.767714 0
M  V30 1596 H 165.407 -3.40758 1.35202 0
M  V30 1597 H 165.055 -5.00054 -0.543599 0
M  V30 1598 H 164.755 -5.78552 1.02721 0
M  V30 1599 H 166.279 -6.10413 0.150908 0
M  V30 1600 H 167.693 -5.26759 2.26269 0
M  V30 1601 H 166.09 -5.16944 3.04776 0
M  V30 1602 H 167.16 -3.75603 3.06677 0
M  V30 1603 N 168.503 -0.877838 -1.30888 0
M  V30 1604 C 169.914 -0.544193 -1.78593 0
M  V30 1605 C 170.265 0.939301 -1.72254 0
M  V30 1606 O 169.39 1.7337 -1.29505 0
M  V30 1607 C 169.985 -0.98105 -3.24285 0
M  V30 1608 C 168.544 -0.698935 -3.69854 0
M  V30 1609 C 167.691 -1.168 -2.51502 0
M  V30 1610 H 170.642 -1.06278 -1.17859 0
M  V30 1611 H 170.663 -0.307009 -3.79259 0
M  V30 1612 H 170.175 -2.06079 -3.28866 0
M  V30 1613 H 168.276 0.369112 -3.70767 0
M  V30 1614 H 168.389 -1.28148 -4.61644 0
M  V30 1615 H 166.753 -0.587535 -2.47831 0
M  V30 1616 H 167.536 -2.25533 -2.58824 0
M  V30 1617 N 169.982 1.44106 -0.638065 0
M  V30 1618 C 170.945 2.29138 0.0531013 0
M  V30 1619 C 171.945 1.41409 0.765506 0
M  V30 1620 O 173.135 1.63206 0.609046 0
M  V30 1621 C 170.267 3.23144 1.08584 0
M  V30 1622 H 171.46 2.91739 -0.694883 0
M  V30 1623 H 169.013 1.51134 -0.398538 0
M  V30 1624 H 169.748 2.65408 1.86357 0
M  V30 1625 H 169.533 3.87804 0.578852 0
M  V30 1626 H 171.023 3.87004 1.56899 0
M  V30 1627 N 171.46 0.379036 1.52974 0
M  V30 1628 C 172.706 -0.206727 2.01744 0
M  V30 1629 C 173.039 -1.47314 1.26539 0
M  V30 1630 O 172.314 -1.91084 0.362903 0
M  V30 1631 C 172.597 -0.485066 3.56818 0
M  V30 1632 C 172.45 0.795919 4.42702 0
M  V30 1633 C 173.769 -1.28003 4.21074 0
M  V30 1634 H 170.888 -0.0736607 0.73331 0
M  V30 1635 H 173.53 0.506581 1.83122 0
M  V30 1636 H 171.68 -1.09272 3.72816 0
M  V30 1637 H 173.352 1.43307 4.38476 0
M  V30 1638 H 171.595 1.41344 4.10127 0
M  V30 1639 H 172.266 0.555947 5.49193 0
M  V30 1640 H 174.742 -0.765867 4.08991 0
M  V30 1641 H 173.618 -1.44352 5.29579 0
M  V30 1642 H 173.879 -2.29236 3.78026 0
M  V30 1643 N 172.938 -1.57226 0.108567 0
M  V30 1644 C 174.349 -1.8195 -0.418464 0
M  V30 1645 C 174.7 -1.02508 -1.67292 0
M  V30 1646 O 173.825 -0.258496 -2.14851 0
M  V30 1647 C 174.42 -3.30028 -0.765979 0
M  V30 1648 C 172.979 -3.55469 -1.23769 0
M  V30 1649 C 172.126 -2.7625 -0.241106 0
M  V30 1650 H 175.077 -1.55149 0.33384 0
M  V30 1651 H 175.098 -3.44086 -1.62434 0
M  V30 1652 H 174.61 -3.87821 0.147219 0
M  V30 1653 H 172.711 -3.03022 -2.16814 0
M  V30 1654 H 172.824 -4.6408 -1.19022 0
M  V30 1655 H 171.188 -2.44133 -0.72602 0
M  V30 1656 H 171.971 -3.36797 0.665007 0
M  V30 1657 N 174.416 0.165178 -1.56732 0
M  V30 1658 C 175.664 0.879068 -1.8198 0
M  V30 1659 C 175.985 1.82514 -0.686561 0
M  V30 1660 O 175.255 1.93694 0.293146 0
M  V30 1661 H 173.835 0.327608 -0.671329 0
M  V30 1662 H 176.497 0.163526 -1.94213 0
M  V30 1663 H 175.593 1.45228 -2.76252 0
M  V30 1664 N 175.894 1.51508 0.433938 0
M  V30 1665 C 176.804 1.75917 1.5521 0
M  V30 1666 C 177.82 0.643545 1.61662 0
M  V30 1667 O 178.996 0.926183 1.7884 0
M  V30 1668 C 176.061 1.88213 2.91164 0
M  V30 1669 C 175.122 3.12074 2.94802 0
M  V30 1670 C 174.355 3.23774 4.24271 0
M  V30 1671 O 174.578 2.4133 5.16833 0
M  V30 1672 O 173.512 4.16774 4.34262 0
M  V30 1673 H 177.338 2.70777 1.37527 0
M  V30 1674 H 174.923 1.36051 0.617293 0
M  V30 1675 H 176.805 1.98267 3.71845 0
M  V30 1676 H 175.48 0.965413 3.08968 0
M  V30 1677 H 174.387 3.07497 2.13065 0
M  V30 1678 H 175.72 4.03446 2.81943 0
M  V30 1679 N 177.372 -0.689602 1.41712 0
M  V30 1680 C 178.302 -1.81577 1.46806 0
M  V30 1681 C 179.283 -1.66945 0.326105 0
M  V30 1682 O 180.468 -1.86588 0.538377 0
M  V30 1683 C 177.598 -3.19762 1.35535 0
M  V30 1684 C 176.552 -3.49107 2.47605 0
M  V30 1685 C 175.878 -4.86711 2.21397 0
M  V30 1686 C 177.178 -3.47483 3.89939 0
M  V30 1687 H 178.872 -1.7757 2.41058 0
M  V30 1688 H 176.418 -0.852887 1.16025 0
M  V30 1689 H 178.371 -3.98263 1.3771 0
M  V30 1690 H 177.095 -3.24409 0.377708 0
M  V30 1691 H 175.754 -2.72959 2.44722 0
M  V30 1692 H 175.402 -4.8799 1.21961 0
M  V30 1693 H 175.102 -5.0731 2.96497 0
M  V30 1694 H 176.626 -5.67515 2.25297 0
M  V30 1695 H 178.04 -4.1598 3.94505 0
M  V30 1696 H 176.437 -3.79615 4.64771 0
M  V30 1697 H 177.507 -2.46341 4.17665 0
M  V30 1698 N 178.85 -1.27639 -0.924453 0
M  V30 1699 C 180.078 -1.16989 -1.70649 0
M  V30 1700 C 180.493 0.272869 -1.86818 0
M  V30 1701 O 179.85 1.18549 -1.38753 0
M  V30 1702 C 179.901 -1.85229 -3.10439 0
M  V30 1703 O 179.622 -3.23868 -2.95028 0
M  V30 1704 C 181.123 -1.80746 -4.04779 0
M  V30 1705 H 178.343 -0.406595 -0.53378 0
M  V30 1706 H 180.887 -1.68569 -1.15778 0
M  V30 1707 H 179.042 -1.37545 -3.6216 0
M  V30 1708 H 179.456 -3.57889 -3.83426 0
M  V30 1709 H 180.93 -2.33101 -5.00368 0
M  V30 1710 H 181.407 -0.777499 -4.32263 0
M  V30 1711 H 182.013 -2.28059 -3.58984 0
M  V30 1712 N 180.328 1.1314 -1.09713 0
M  V30 1713 C 181.238 2.22242 -0.751367 0
M  V30 1714 C 182.254 1.72224 0.247938 0
M  V30 1715 O 183.43 2.01205 0.0885463 0
M  V30 1716 C 180.495 3.46231 -0.180274 0
M  V30 1717 C 179.556 4.11125 -1.2359 0
M  V30 1718 C 178.789 5.29195 -0.691966 0
M  V30 1719 O 179.012 5.68342 0.48414 0
M  V30 1720 O 177.946 5.84214 -1.44838 0
M  V30 1721 H 181.772 2.54197 -1.66186 0
M  V30 1722 H 179.357 1.21331 -0.871735 0
M  V30 1723 H 181.239 4.21185 0.134739 0
M  V30 1724 H 179.914 3.1597 0.703185 0
M  V30 1725 H 178.821 3.37985 -1.60366 0
M  V30 1726 H 180.154 4.45524 -2.09211 0
M  V30 1727 N 181.806 0.884767 1.30421 0
M  V30 1728 C 182.769 0.356277 2.26414 0
M  V30 1729 C 183.769 -0.501124 1.52792 0
M  V30 1730 O 184.959 -0.30831 1.7145 0
M  V30 1731 C 182.091 -0.492316 3.37326 0
M  V30 1732 H 183.284 1.20389 2.74675 0
M  V30 1733 H 180.837 0.661607 1.41607 0
M  V30 1734 H 181.572 -1.36052 2.94381 0
M  V30 1735 H 181.357 0.121832 3.91911 0
M  V30 1736 H 182.847 -0.853871 4.08777 0
M  V30 1737 N 183.284 -1.43765 0.645699 0
M  V30 1738 C 184.512 -2.06253 0.163556 0
M  V30 1739 C 184.927 -1.48352 -1.16778 0
M  V30 1740 O 184.284 -0.611932 -1.71935 0
M  V30 1741 C 184.335 -3.61453 0.0583186 0
M  V30 1742 O 184.056 -4.172 1.33702 0
M  V30 1743 C 185.557 -4.41002 -0.450795 0
M  V30 1744 H 182.777 -0.665413 0.0864077 0
M  V30 1745 H 185.321 -1.84396 0.884222 0
M  V30 1746 H 183.476 -3.82522 -0.612865 0
M  V30 1747 H 183.89 -5.10791 1.19131 0
M  V30 1748 H 185.364 -5.49966 -0.473403 0
M  V30 1749 H 185.841 -4.13488 -1.48068 0
M  V30 1750 H 186.447 -4.24886 0.187637 0
M  V30 1751 N 184.763 -0.387143 -1.52771 0
M  V30 1752 C 186.174 0.0873634 -1.86495 0
M  V30 1753 C 186.525 1.46336 -1.30691 0
M  V30 1754 O 185.65 2.068 -0.637409 0
M  V30 1755 C 186.245 0.165305 -3.38396 0
M  V30 1756 C 184.804 0.584101 -3.7184 0
M  V30 1757 C 183.951 -0.255279 -2.76122 0
M  V30 1758 H 186.902 -0.605104 -1.46711 0
M  V30 1759 H 186.923 0.984848 -3.67534 0
M  V30 1760 H 186.435 -0.836301 -3.78982 0
M  V30 1761 H 184.536 1.59315 -3.36823 0
M  V30 1762 H 184.649 0.343749 -4.77865 0
M  V30 1763 H 183.013 0.279126 -2.53166 0
M  V30 1764 H 183.796 -1.25482 -3.19545 0
M  V30 1765 N 186.241 1.57166 -0.116904 0
M  V30 1766 C 187.189 2.16457 0.851418 0
M  V30 1767 C 188.183 1.11323 1.27686 0
M  V30 1768 O 189.389 1.2963 1.24884 0
M  V30 1769 H 185.764 0.69271 0.292672 0
M  V30 1770 H 187.735 2.96605 0.32685 0
M  V30 1771 C 186.484 2.77689 2.09246 0
M  V30 1772 H 185.807 3.58285 1.77402 0
M  V30 1773 H 187.247 3.22716 2.7501 0
M  V30 1774 C 185.706 1.74667 2.88085 0
M  V30 1775 O 186.236 1.19877 3.83396 0
M  V30 1776 N 184.442 1.44656 2.52038 0
M  V30 1777 H 183.989 1.89402 1.74599 0
M  V30 1778 H 183.947 0.759675 3.05084 0
M  V30 1779 N 187.719 -0.156864 1.56817 0
M  V30 1780 C 189.135 -0.50916 1.5126 0
M  V30 1781 C 189.335 -1.83897 0.823658 0
M  V30 1782 O 188.391 -2.49469 0.390055 0
M  V30 1783 C 189.704 -0.52857 2.96018 0
M  V30 1784 C 191.252 -0.614771 3.06903 0
M  V30 1785 C 191.727 -0.664938 4.53147 0
M  V30 1786 N 193.218 -0.727433 4.57452 0
M  V30 1787 C 193.953 -0.787067 5.67973 0
M  V30 1788 N 193.449 -0.806649 6.88088 0
M  V30 1789 N 195.242 -0.827195 5.5598 0
M  V30 1790 H 187.393 0.714935 2.00006 0
M  V30 1791 H 189.656 0.259526 0.911784 0
M  V30 1792 H 189.362 0.380154 3.49639 0
M  V30 1793 H 189.236 -1.36998 3.51442 0
M  V30 1794 H 191.623 -1.51392 2.53307 0
M  V30 1795 H 191.704 0.253597 2.5454 0
M  V30 1796 H 191.348 0.230011 5.07379 0
M  V30 1797 H 191.278 -1.54966 5.03282 0
M  V30 1798 H 193.769 -0.719998 3.70978 0
M  V30 1799 H 194.082 -0.853727 7.6807 0
M  V30 1800 H 192.427 -0.774687 6.90669 0
M  V30 1801 H 195.618 -0.808998 4.61056 0
M  V30 1802 H 195.791 -0.870206 6.4213 0
M  V30 1803 N 189.197 -1.51736 -0.425897 0
M  V30 1804 C 190.427 -1.68549 -1.19476 0
M  V30 1805 C 190.835 -0.387288 -1.85194 0
M  V30 1806 O 190.178 0.645142 -1.71999 0
M  V30 1807 C 190.24 -2.75275 -2.31223 0
M  V30 1808 C 189.904 -4.17534 -1.8578 0
M  V30 1809 C 190.901 -5.01936 -1.35485 0
M  V30 1810 C 188.586 -4.6369 -1.93123 0
M  V30 1811 C 190.58 -6.30559 -0.931347 0
M  V30 1812 C 188.267 -5.92307 -1.50384 0
M  V30 1813 C 189.265 -6.75569 -1.00473 0
M  V30 1814 O 188.953 -8.0178 -0.583452 0
M  V30 1815 H 188.685 -0.568525 -0.365725 0
M  V30 1816 H 191.239 -1.98982 -0.509444 0
M  V30 1817 H 189.469 -2.40182 -3.03067 0
M  V30 1818 H 191.158 -2.80853 -2.93047 0
M  V30 1819 H 191.924 -4.67475 -1.29197 0
M  V30 1820 H 187.803 -3.98997 -2.30916 0
M  V30 1821 H 191.347 -6.95498 -0.541084 0
M  V30 1822 H 187.244 -6.2628 -1.56346 0
M  V30 1823 H 188.012 -8.1543 -0.708275 0
M  V30 1824 N 190.675 0.682077 -1.42076 0
M  V30 1825 C 192.091 0.994324 -1.24841 0
M  V30 1826 C 192.291 2.0096 -0.147389 0
M  V30 1827 O 191.347 2.47822 0.483782 0
M  V30 1828 C 192.66 1.50607 -2.60265 0
M  V30 1829 C 194.208 1.62421 -2.6756 0
M  V30 1830 C 194.683 2.16994 -4.03333 0
M  V30 1831 N 196.174 2.24337 -4.0525 0
M  V30 1832 C 196.909 2.67621 -5.07116 0
M  V30 1833 N 196.405 3.1041 -6.19368 0
M  V30 1834 N 198.198 2.67305 -4.94474 0
M  V30 1835 H 190.349 0.00973908 -2.12398 0
M  V30 1836 H 192.612 0.0668593 -0.945639 0
M  V30 1837 H 192.318 0.834583 -3.41654 0
M  V30 1838 H 192.192 2.48602 -2.83684 0
M  V30 1839 H 194.579 2.28678 -1.86521 0
M  V30 1840 H 194.66 0.629352 -2.47937 0
M  V30 1841 H 194.304 1.51349 -4.84826 0
M  V30 1842 H 194.234 3.17258 -4.20304 0
M  V30 1843 H 196.725 1.94158 -3.24209 0
M  V30 1844 H 197.038 3.42103 -6.92954 0
M  V30 1845 H 195.383 3.08286 -6.22884 0
M  V30 1846 H 198.574 2.33233 -4.05857 0
M  V30 1847 H 198.747 3.00718 -5.73997 0
M  V30 1848 N 192.153 1.28127 0.917671 0
M  V30 1849 C 193.383 1.17722 1.6978 0
M  V30 1850 C 193.791 -0.267261 1.87303 0
M  V30 1851 O 193.134 -1.19286 1.39702 0
M  V30 1852 C 193.196 1.79958 3.11216 0
M  V30 1853 C 192.86 3.29187 3.16993 0
M  V30 1854 C 193.857 4.25679 2.98485 0
M  V30 1855 C 191.542 3.70075 3.39632 0
M  V30 1856 C 193.536 5.61035 3.02521 0
M  V30 1857 C 191.223 5.05557 3.433 0
M  V30 1858 C 192.221 6.00847 3.24764 0
M  V30 1859 O 191.909 7.33859 3.28187 0
M  V30 1860 H 191.641 0.409788 0.537634 0
M  V30 1861 H 194.195 1.69694 1.15728 0
M  V30 1862 H 192.425 1.22475 3.66793 0
M  V30 1863 H 194.114 1.64125 3.71238 0
M  V30 1864 H 194.88 3.95426 2.80826 0
M  V30 1865 H 190.759 2.96373 3.53106 0
M  V30 1866 H 194.303 6.35388 2.87971 0
M  V30 1867 H 190.2 5.35462 3.60486 0
M  V30 1868 H 190.968 7.42436 3.44575 0
M  V30 1869 N 193.631 -1.12557 1.10312 0
M  V30 1870 C 194.861 -1.87592 0.865617 0
M  V30 1871 C 195.269 -1.79851 -0.587389 0
M  V30 1872 O 194.612 -1.16949 -1.41664 0
M  V30 1873 C 194.674 -3.37665 1.23381 0
M  V30 1874 C 194.338 -3.69181 2.69359 0
M  V30 1875 C 195.335 -3.67652 3.67597 0
M  V30 1876 C 193.02 -3.98555 3.05711 0
M  V30 1877 C 195.014 -3.95053 5.00212 0
M  V30 1878 C 192.701 -4.25616 4.38514 0
M  V30 1879 C 193.699 -4.23851 5.35574 0
M  V30 1880 O 193.387 -4.50242 6.65986 0
M  V30 1881 H 193.119 -0.600442 0.310557 0
M  V30 1882 H 195.673 -1.4335 1.47105 0
M  V30 1883 H 193.903 -3.82454 0.571467 0
M  V30 1884 H 195.592 -3.94041 0.973994 0
M  V30 1885 H 196.358 -3.45024 3.40857 0
M  V30 1886 H 192.237 -3.99071 2.30789 0
M  V30 1887 H 195.781 -3.93591 5.75962 0
M  V30 1888 H 191.678 -4.47718 4.64994 0
M  V30 1889 H 192.446 -4.67867 6.71597 0
M  V30 1890 N 195.109 -0.891671 -1.2995 0
M  V30 1891 C 196.041 -0.320695 -2.26945 0
M  V30 1892 C 197.054 0.528497 -1.53983 0
M  V30 1893 O 198.243 0.346959 -1.75096 0
M  V30 1894 C 195.343 0.562066 -3.34207 0
M  V30 1895 C 194.516 -0.259576 -4.36629 0
M  V30 1896 C 193.575 0.554739 -5.23268 0
M  V30 1897 O 192.601 -0.0249311 -5.69195 0
M  V30 1898 N 193.803 1.8625 -5.4981 0
M  V30 1899 H 196.568 -1.15432 -2.76578 0
M  V30 1900 H 194.129 -0.755336 -1.432 0
M  V30 1901 H 196.121 1.11304 -3.89093 0
M  V30 1902 H 194.691 1.29637 -2.84452 0
M  V30 1903 H 193.911 -0.991986 -3.81514 0
M  V30 1904 H 195.199 -0.822564 -5.02107 0
M  V30 1905 H 194.597 2.35628 -5.14292 0
M  V30 1906 H 193.154 2.36078 -6.07545 0
M  V30 1907 N 196.587 1.43421 -0.653314 0
M  V30 1908 C 197.535 2.32546 0.0501531 0
M  V30 1909 C 198.529 1.48617 0.812985 0
M  V30 1910 O 199.735 1.64825 0.723375 0
M  V30 1911 H 196.11 0.751185 0.0350032 0
M  V30 1912 H 198.081 2.89602 -0.719261 0
M  V30 1913 C 196.83 3.32925 1.00279 0
M  V30 1914 H 196.153 3.97532 0.425236 0
M  V30 1915 H 197.593 3.9792 1.46409 0
M  V30 1916 C 196.052 2.63532 2.09886 0
M  V30 1917 O 196.582 2.45092 3.18265 0
M  V30 1918 N 194.788 2.22905 1.86445 0
M  V30 1919 H 194.335 2.38103 0.98309 0
M  V30 1920 H 194.293 1.76805 2.59976 0
M  V30 1921 N 198.065 0.39524 1.52563 0
M  V30 1922 C 199.311 -0.185318 2.01952 0
M  V30 1923 C 199.644 -1.45964 1.28095 0
M  V30 1924 O 198.919 -1.90689 0.38315 0
M  V30 1925 C 199.202 -0.447193 3.57312 0
M  V30 1926 C 199.055 0.842828 4.41833 0
M  V30 1927 C 200.374 -1.23529 4.22408 0
M  V30 1928 H 197.493 -0.0658788 0.73405 0
M  V30 1929 H 200.135 0.525975 1.82575 0
M  V30 1930 H 198.285 -1.05312 3.73954 0
M  V30 1931 H 199.957 1.4795 4.36931 0
M  V30 1932 H 198.2 1.45686 4.08605 0
M  V30 1933 H 198.871 0.614165 5.48573 0
M  V30 1934 H 201.347 -0.722445 4.0978 0
M  V30 1935 H 200.223 -1.38727 5.3108 0
M  V30 1936 H 200.484 -2.25213 3.80436 0
M  V30 1937 N 199.544 -1.57102 0.125237 0
M  V30 1938 C 200.784 -1.97294 -0.534259 0
M  V30 1939 C 201.148 -1.0074 -1.63449 0
M  V30 1940 O 202.349 -1.29893 -2.35332 0
M  V30 1941 C 200.62 -3.41705 -1.04748 0
M  V30 1942 S 202.179 -4.03913 -1.71463 0
M  V30 1943 H 198.997 -0.689517 -0.173458 0
M  V30 1944 H 201.599 -1.94349 0.211797 0
M  V30 1945 H 200.303 -4.09723 -0.235649 0
M  V30 1946 H 199.834 -3.48315 -1.82867 0
M  V30 1947 H 201.849 -3.95182 -3.00077 0
M  V30 1948 N 201.022 0.148545 -1.56898 0
M  V30 1949 C 202.25 0.876389 -1.87422 0
M  V30 1950 C 202.665 1.74809 -0.713256 0
M  V30 1951 O 202.022 1.79725 0.317025 0
M  V30 1952 C 202.073 1.73438 -3.17178 0
M  V30 1953 O 201.794 0.897809 -4.28802 0
M  V30 1954 C 203.295 2.56993 -3.61205 0
M  V30 1955 H 200.515 0.253489 -0.621277 0
M  V30 1956 H 203.059 0.141798 -2.04008 0
M  V30 1957 H 201.214 2.42205 -3.0235 0
M  V30 1958 H 201.628 1.48672 -5.02988 0
M  V30 1959 H 203.102 3.12773 -4.54838 0
M  V30 1960 H 203.579 3.32958 -2.86419 0
M  V30 1961 H 204.185 1.9352 -3.78722 0
M  V30 1962 N 202.5 1.5196 0.417844 0
M  V30 1963 C 203.432 1.70895 1.52733 0
M  V30 1964 C 204.445 0.589405 1.51756 0
M  V30 1965 O 205.634 0.864312 1.56179 0
M  V30 1966 C 202.734 1.72627 2.91639 0
M  V30 1967 C 201.907 3.01479 3.16905 0
M  V30 1968 C 200.966 2.95139 4.35637 0
M  V30 1969 O 199.992 3.69059 4.3334 0
M  V30 1970 N 201.194 2.12328 5.40275 0
M  V30 1971 H 203.959 2.66612 1.36888 0
M  V30 1972 H 201.52 1.50089 0.607037 0
M  V30 1973 H 203.512 1.65928 3.6912 0
M  V30 1974 H 202.082 0.844216 3.00985 0
M  V30 1975 H 201.302 3.21895 2.27546 0
M  V30 1976 H 202.59 3.86736 3.30625 0
M  V30 1977 H 201.988 1.51685 5.44985 0
M  V30 1978 H 200.545 2.11494 6.16534 0
M  V30 1979 N 203.978 -0.674533 1.42435 0
M  V30 1980 C 205.203 -1.46784 1.46524 0
M  V30 1981 C 205.628 -1.87938 0.078066 0
M  V30 1982 O 204.986 -1.56014 -0.92354 0
M  V30 1983 C 205.034 -2.69307 2.39805 0
M  V30 1984 O 204.138 -3.67587 1.86959 0
M  V30 1985 H 203.479 -0.440959 0.496439 0
M  V30 1986 H 206.009 -0.827326 1.87127 0
M  V30 1987 H 206.019 -3.17374 2.56393 0
M  V30 1988 H 204.694 -2.38692 3.40586 0
M  V30 1989 H 203.271 -3.2662 1.79927 0
M  V30 1990 N 205.456 -1.28612 -0.910864 0
M  V30 1991 C 206.686 -1.1862 -1.69153 0
M  V30 1992 C 207.094 0.257324 -1.87442 0
M  V30 1993 O 206.437 1.18543 -1.40332 0
M  V30 1994 C 206.499 -1.81606 -3.10257 0
M  V30 1995 C 206.163 -3.30864 -3.15243 0
M  V30 1996 C 207.16 -4.27256 -2.96223 0
M  V30 1997 C 204.845 -3.71871 -3.37664 0
M  V30 1998 C 206.839 -5.62631 -2.99541 0
M  V30 1999 C 204.526 -5.07371 -3.40614 0
M  V30 2000 C 205.524 -6.02561 -3.21573 0
M  V30 2001 O 205.212 -7.35589 -3.2429 0
M  V30 2002 H 204.944 -0.412633 -0.535453 0
M  V30 2003 H 207.498 -1.70306 -1.14827 0
M  V30 2004 H 205.728 -1.24418 -3.66138 0
M  V30 2005 H 207.417 -1.66092 -3.70362 0
M  V30 2006 H 208.183 -3.9691 -2.78725 0
M  V30 2007 H 204.062 -2.98241 -3.5153 0
M  V30 2008 H 207.606 -6.36907 -2.84597 0
M  V30 2009 H 203.503 -5.37366 -3.57642 0
M  V30 2010 H 204.271 -7.44252 -3.40633 0
M  V30 2011 N 206.934 1.1197 -1.10907 0
M  V30 2012 C 208.159 1.87942 -0.877064 0
M  V30 2013 C 208.584 1.79341 0.567314 0
M  V30 2014 O 207.942 1.15184 1.40009 0
M  V30 2015 C 207.99 3.34926 -1.33629 0
M  V30 2016 O 207.094 4.09303 -0.504447 0
M  V30 2017 H 206.435 0.583785 -0.316371 0
M  V30 2018 H 208.965 1.4157 -1.47712 0
M  V30 2019 H 208.975 3.8577 -1.32837 0
M  V30 2020 H 207.65 3.40504 -2.3881 0
M  V30 2021 H 206.227 3.68393 -0.577993 0
M  V30 2022 N 208.412 0.89855 1.29475 0
M  V30 2023 C 209.659 0.523882 1.95606 0
M  V30 2024 C 209.987 -0.929608 1.70847 0
M  V30 2025 O 209.242 -1.67401 1.01367 0
M  V30 2026 C 209.541 0.761398 3.49195 0
M  V30 2027 C 209.207 2.19207 3.94029 0
M  V30 2028 C 207.869 2.58326 4.05982 0
M  V30 2029 C 210.221 3.12379 4.17216 0
M  V30 2030 C 207.549 3.898 4.38489 0
M  V30 2031 C 209.901 4.43401 4.51197 0
M  V30 2032 C 208.565 4.82394 4.61359 0
M  V30 2033 H 207.835 0.191702 0.715773 0
M  V30 2034 H 210.482 1.13699 1.54094 0
M  V30 2035 H 208.787 0.0653622 3.91745 0
M  V30 2036 H 210.484 0.450904 3.98457 0
M  V30 2037 H 207.074 1.87846 3.85242 0
M  V30 2038 H 211.258 2.83371 4.07449 0
M  V30 2039 H 206.514 4.19734 4.44559 0
M  V30 2040 H 210.688 5.15623 4.68087 0
M  V30 2041 H 208.315 5.84306 4.86303 0
M  V30 2042 N 209.89 -1.43072 0.660911 0
M  V30 2043 C 211.136 -2.0202 0.177708 0
M  V30 2044 C 211.469 -1.52066 -1.20787 0
M  V30 2045 O 210.744 -0.716987 -1.80802 0
M  V30 2046 C 211.027 -3.59561 0.197019 0
M  V30 2047 C 210.88 -4.19727 1.61706 0
M  V30 2048 C 212.199 -4.37664 -0.462396 0
M  V30 2049 H 209.318 -0.734034 0.0660494 0
M  V30 2050 H 211.96 -1.70272 0.843058 0
M  V30 2051 H 210.11 -3.86739 -0.369527 0
M  V30 2052 H 211.782 -4.03553 2.23479 0
M  V30 2053 H 210.025 -3.76084 2.16201 0
M  V30 2054 H 210.696 -5.28834 1.58237 0
M  V30 2055 H 213.172 -4.16095 0.0197215 0
M  V30 2056 H 212.048 -5.47305 -0.418188 0
M  V30 2057 H 212.309 -4.14493 -1.53778 0
M  V30 2058 N 211.368 -0.403325 -1.52352 0
M  V30 2059 C 212.614 0.167015 -2.02713 0
M  V30 2060 C 212.969 1.43296 -1.28391 0
M  V30 2061 O 212.262 1.87796 -0.379885 0
M  V30 2062 C 212.456 0.474665 -3.54234 0
M  V30 2063 C 212.285 -0.759909 -4.43233 0
M  V30 2064 C 211.055 -1.28338 -4.88731 0
M  V30 2065 C 213.253 -1.63634 -4.87574 0
M  V30 2066 N 211.235 -2.47404 -5.6184 0
M  V30 2067 C 212.606 -2.67329 -5.59406 0
M  V30 2068 C 214.661 -1.65478 -4.69597 0
M  V30 2069 C 213.364 -3.72773 -6.15169 0
M  V30 2070 C 215.39 -2.69837 -5.26253 0
M  V30 2071 C 214.752 -3.72253 -5.98002 0
M  V30 2072 H 210.851 0.0228343 -0.781667 0
M  V30 2073 H 213.435 -0.556368 -1.86581 0
M  V30 2074 H 211.606 1.16709 -3.7045 0
M  V30 2075 H 213.338 1.03338 -3.91284 0
M  V30 2076 H 210.093 -0.842273 -4.6605 0
M  V30 2077 H 210.517 -3.07688 -6.0304 0
M  V30 2078 H 215.159 -0.876389 -4.13617 0
M  V30 2079 H 212.877 -4.51471 -6.70223 0
M  V30 2080 H 216.463 -2.72164 -5.14216 0
M  V30 2081 H 215.343 -4.51679 -6.41058 0
M  V30 2082 N 212.846 1.57033 -0.133567 0
M  V30 2083 C 214.092 1.96764 0.515326 0
M  V30 2084 C 214.447 1.01653 1.63353 0
M  V30 2085 O 213.74 0.0491374 1.91537 0
M  V30 2086 C 213.934 3.40674 1.08057 0
M  V30 2087 C 213.763 4.49696 0.0186522 0
M  V30 2088 C 212.533 5.03567 -0.418174 0
M  V30 2089 C 214.731 5.08536 -0.767809 0
M  V30 2090 N 212.713 5.9618 -1.46434 0
M  V30 2091 C 214.084 5.97231 -1.6648 0
M  V30 2092 C 216.139 4.9115 -0.817087 0
M  V30 2093 C 214.842 6.70401 -2.60681 0
M  V30 2094 C 216.868 5.65012 -1.74687 0
M  V30 2095 C 216.23 6.53403 -2.63141 0
M  V30 2096 H 212.329 0.765919 0.157771 0
M  V30 2097 H 214.913 1.93395 -0.22506 0
M  V30 2098 H 213.084 3.44662 1.79061 0
M  V30 2099 H 214.816 3.67495 1.69497 0
M  V30 2100 H 211.571 4.73594 -0.0229803 0
M  V30 2101 H 211.995 6.47191 -1.98678 0
M  V30 2102 H 216.637 4.22543 -0.147326 0
M  V30 2103 H 214.355 7.38245 -3.28664 0
M  V30 2104 H 217.941 5.53559 -1.79063 0
M  V30 2105 H 216.821 7.09556 -3.33917 0
M  V30 2106 N 214.325 -0.140222 1.56975 0
M  V30 2107 C 215.602 -0.880769 1.74648 0
M  V30 2108 C 215.982 -1.99036 0.703404 0
M  V30 2109 O 215.33 -2.26821 -0.27648 0
M  V30 2110 C 215.54 -1.417 3.18939 0
M  V30 2111 C 216.888 -1.87774 3.80823 0
M  V30 2112 O 217.912 -1.51427 3.2241 0
M  V30 2113 O 216.771 -2.54827 4.83452 0
M  V30 2114 H 213.865 -0.416713 0.714338 0
M  V30 2115 H 216.411 -0.125618 1.69234 0
M  V30 2116 H 215.183 -0.619902 3.86359 0
M  V30 2117 H 214.806 -2.23546 3.28805 0
M  V30 2118 N 215.803 -1.52179 -0.40978 0
M  V30 2119 C 217.049 -1.67408 -1.15525 0
M  V30 2120 C 217.404 -0.398746 -1.88223 0
M  V30 2121 O 216.697 0.60678 -1.81738 0
M  V30 2122 C 216.891 -2.83428 -2.17723 0
M  V30 2123 C 216.72 -4.22121 -1.55061 0
M  V30 2124 C 215.49 -4.87657 -1.3236 0
M  V30 2125 C 217.688 -5.04248 -1.01185 0
M  V30 2126 N 215.67 -6.10387 -0.655834 0
M  V30 2127 C 217.041 -6.18209 -0.470963 0
M  V30 2128 C 219.096 -4.89583 -0.906252 0
M  V30 2129 C 217.799 -7.1911 0.165172 0
M  V30 2130 C 219.825 -5.90718 -0.28397 0
M  V30 2131 C 219.187 -7.03969 0.246243 0
M  V30 2132 H 215.286 -0.666251 -0.409431 0
M  V30 2133 H 217.87 -1.89482 -0.447729 0
M  V30 2134 H 216.041 -2.6297 -2.85834 0
M  V30 2135 H 217.773 -2.87697 -2.84627 0
M  V30 2136 H 214.528 -4.46007 -1.59294 0
M  V30 2137 H 214.952 -6.76153 -0.338596 0
M  V30 2138 H 219.594 -4.02253 -1.302 0
M  V30 2139 H 217.312 -8.06066 0.572986 0
M  V30 2140 H 220.898 -5.81443 -0.203792 0
M  V30 2141 H 219.778 -7.80886 0.720173 0
M  V30 2142 N 217.281 0.66697 -1.42791 0
M  V30 2143 C 218.244 1.76211 -1.46568 0
M  V30 2144 C 219.244 1.56896 -0.352196 0
M  V30 2145 O 220.434 1.63044 -0.613364 0
M  V30 2146 C 217.566 3.14935 -1.30494 0
M  V30 2147 H 218.759 1.74247 -2.44086 0
M  V30 2148 H 216.312 0.877342 -1.29354 0
M  V30 2149 H 217.047 3.2252 -0.339301 0
M  V30 2150 H 216.832 3.30359 -2.11199 0
M  V30 2151 H 218.322 3.94821 -1.36038 0
M  V30 2152 N 218.759 1.29093 0.90403 0
M  V30 2153 C 220.175 1.07011 1.1841 0
M  V30 2154 C 220.375 -0.181358 2.00682 0
M  V30 2155 O 219.431 -0.880331 2.36657 0
M  V30 2156 C 220.744 2.32311 1.90924 0
M  V30 2157 C 222.292 2.37587 2.03768 0
M  V30 2158 C 222.767 3.62679 2.79693 0
M  V30 2159 N 224.258 3.63376 2.87249 0
M  V30 2160 C 224.993 4.56848 3.46522 0
M  V30 2161 N 224.489 5.60648 4.06996 0
M  V30 2162 N 226.282 4.44426 3.44154 0
M  V30 2163 H 218.433 2.09412 0.354993 0
M  V30 2164 H 220.696 0.922181 0.219742 0
M  V30 2165 H 220.402 3.23536 1.37905 0
M  V30 2166 H 220.276 2.39483 2.91424 0
M  V30 2167 H 222.663 1.46853 2.55965 0
M  V30 2168 H 222.744 2.34403 1.02415 0
M  V30 2169 H 222.388 4.53762 2.28173 0
M  V30 2170 H 222.318 3.63119 3.81381 0
M  V30 2171 H 224.809 2.88321 2.44293 0
M  V30 2172 H 225.122 6.28101 4.50232 0
M  V30 2173 H 223.467 5.64463 4.05471 0
M  V30 2174 H 226.658 3.62529 2.96126 0
M  V30 2175 H 226.831 5.17457 3.90054 0
M  V30 2176 N 220.237 -1.11381 1.11499 0
M  V30 2177 C 221.483 -1.83597 0.875423 0
M  V30 2178 C 221.838 -1.83048 -0.592555 0
M  V30 2179 O 221.131 -1.27304 -1.43193 0
M  V30 2180 C 221.325 -3.30026 1.37177 0
M  V30 2181 C 221.154 -3.44837 2.88647 0
M  V30 2182 C 219.924 -3.57825 3.56776 0
M  V30 2183 C 222.122 -3.3907 3.86699 0
M  V30 2184 N 220.104 -3.61113 4.96458 0
M  V30 2185 C 221.475 -3.48986 5.12454 0
M  V30 2186 C 223.53 -3.22605 3.7925 0
M  V30 2187 C 222.233 -3.44135 6.31636 0
M  V30 2188 C 224.259 -3.19072 4.97943 0
M  V30 2189 C 223.621 -3.29559 6.22551 0
M  V30 2190 H 219.72 -0.687044 0.37349 0
M  V30 2191 H 222.304 -1.33265 1.41946 0
M  V30 2192 H 220.475 -3.78874 0.854919 0
M  V30 2193 H 222.207 -3.90153 1.07529 0
M  V30 2194 H 218.962 -3.60414 3.07244 0
M  V30 2195 H 219.386 -3.66394 5.69284 0
M  V30 2196 H 224.028 -3.13382 2.83816 0
M  V30 2197 H 221.746 -3.52126 7.27347 0
M  V30 2198 H 225.332 -3.07498 4.93899 0
M  V30 2199 H 224.212 -3.26815 7.12855 0
M  V30 2200 N 221.715 -0.905404 -1.28997 0
M  V30 2201 C 222.625 -0.392246 -2.31298 0
M  V30 2202 C 223.641 0.515889 -1.66176 0
M  V30 2203 O 224.817 0.404093 -1.97304 0
M  V30 2204 C 221.882 0.36686 -3.44754 0
M  V30 2205 C 220.943 -0.573485 -4.25452 0
M  V30 2206 C 220.176 0.149488 -5.33491 0
M  V30 2207 O 220.399 1.37255 -5.5364 0
M  V30 2208 O 219.333 -0.510919 -5.99728 0
M  V30 2209 H 223.159 -1.2411 -2.77183 0
M  V30 2210 H 220.744 -0.669926 -1.33538 0
M  V30 2211 H 222.626 0.795907 -4.13816 0
M  V30 2212 H 221.301 1.19169 -3.00966 0
M  V30 2213 H 220.208 -1.05176 -3.59011 0
M  V30 2214 H 221.541 -1.36489 -4.72897 0
M  V30 2215 N 223.193 1.4272 -0.668489 0
M  V30 2216 C 224.609 1.55992 -0.33745 0
M  V30 2217 C 224.809 1.64933 1.15756 0
M  V30 2218 O 223.865 1.61278 1.94282 0
M  V30 2219 C 225.178 2.81314 -1.06222 0
M  V30 2220 C 226.726 2.95078 -1.04394 0
M  V30 2221 C 227.201 4.23252 -1.74991 0
M  V30 2222 N 228.692 4.3015 -1.71829 0
M  V30 2223 C 229.427 5.28127 -2.23315 0
M  V30 2224 N 228.923 6.32293 -2.83156 0
M  V30 2225 N 230.716 5.19882 -2.13726 0
M  V30 2226 H 222.867 1.3516 -1.63846 0
M  V30 2227 H 225.13 0.650174 -0.689912 0
M  V30 2228 H 224.836 2.80823 -2.11734 0
M  V30 2229 H 224.71 3.72012 -0.62344 0
M  V30 2230 H 227.097 2.951 0.0028244 0
M  V30 2231 H 227.178 2.05627 -1.52155 0
M  V30 2232 H 226.822 4.2399 -2.79633 0
M  V30 2233 H 226.752 5.11626 -1.24685 0
M  V30 2234 H 229.243 3.55499 -1.28175 0
M  V30 2235 H 229.556 7.03398 -3.20079 0
M  V30 2236 H 227.901 6.32873 -2.87223 0
M  V30 2237 H 231.092 4.37423 -1.66669 0
M  V30 2238 H 231.265 5.96077 -2.54158 0
M  V30 2239 N 224.671 0.411399 1.52136 0
M  V30 2240 C 225.581 -0.419774 2.30814 0
M  V30 2241 C 226.597 -1.0515 1.38634 0
M  V30 2242 O 227.773 -1.05252 1.71709 0
M  V30 2243 C 224.838 -1.52019 3.11594 0
M  V30 2244 C 223.899 -0.91129 4.19516 0
M  V30 2245 C 223.132 -1.95927 4.96436 0
M  V30 2246 O 223.355 -3.17775 4.73683 0
M  V30 2247 O 222.289 -1.56423 5.81219 0
M  V30 2248 H 226.115 0.221805 3.02889 0
M  V30 2249 H 223.7 0.174547 1.48377 0
M  V30 2250 H 225.582 -2.15898 3.61892 0
M  V30 2251 H 224.257 -2.14633 2.42311 0
M  V30 2252 H 223.164 -0.235157 3.7336 0
M  V30 2253 H 224.497 -0.32904 4.91099 0
M  V30 2254 N 226.149 -1.5696 0.141893 0
M  V30 2255 C 227.398 -1.95135 -0.510427 0
M  V30 2256 C 227.711 -1.02896 -1.66348 0
M  V30 2257 O 228.917 -1.30629 -2.38009 0
M  V30 2258 C 227.373 -3.46876 -0.959427 0
M  V30 2259 C 226.981 -4.47691 0.166419 0
M  V30 2260 C 228.725 -3.93927 -1.58183 0
M  V30 2261 C 226.632 -5.90636 -0.300565 0
M  V30 2262 H 225.562 -0.728494 -0.194454 0
M  V30 2263 H 228.213 -1.8211 0.22542 0
M  V30 2264 H 226.595 -3.55215 -1.75038 0
M  V30 2265 H 227.769 -4.51043 0.94325 0
M  V30 2266 H 226.084 -4.10527 0.696905 0
M  V30 2267 H 228.681 -4.98158 -1.94275 0
M  V30 2268 H 229.024 -3.3519 -2.46888 0
M  V30 2269 H 229.557 -3.88484 -0.855863 0
M  V30 2270 H 226.296 -6.5318 0.550989 0
M  V30 2271 H 225.816 -5.90655 -1.04338 0
M  V30 2272 H 227.495 -6.42588 -0.754265 0
M  V30 2273 N 227.627 0.131896 -1.57047 0
M  V30 2274 C 228.904 0.871495 -1.75112 0
M  V30 2275 C 229.284 1.9866 -0.713949 0
M  V30 2276 O 228.632 2.26965 0.264447 0
M  V30 2277 C 228.842 1.40007 -3.19686 0
M  V30 2278 C 230.19 1.85752 -3.81813 0
M  V30 2279 O 231.214 1.49715 -3.23209 0
M  V30 2280 O 230.073 2.5226 -4.84796 0
M  V30 2281 H 227.167 0.412919 -0.716538 0
M  V30 2282 H 229.713 0.116641 -1.69299 0
M  V30 2283 H 228.485 0.599404 -3.86682 0
M  V30 2284 H 228.108 2.218 -3.29986 0
M  V30 2285 N 229.106 1.52395 0.401703 0
M  V30 2286 C 230.352 1.68019 1.14635 0
M  V30 2287 C 230.707 0.408722 1.88009 0
M  V30 2288 O 230 -0.597133 1.82057 0
M  V30 2289 C 230.194 2.84578 2.16217 0
M  V30 2290 C 230.023 4.22938 1.5282 0
M  V30 2291 C 228.793 4.88352 1.29772 0
M  V30 2292 C 230.991 5.04778 0.985094 0
M  V30 2293 N 228.973 6.10726 0.623455 0
M  V30 2294 C 230.344 6.1845 0.438172 0
M  V30 2295 C 232.399 4.90057 0.880275 0
M  V30 2296 C 231.102 7.19013 -0.203306 0
M  V30 2297 C 233.128 5.9086 0.252639 0
M  V30 2298 C 232.49 7.03829 -0.283573 0
M  V30 2299 H 228.589 0.668413 0.405892 0
M  V30 2300 H 231.173 1.89717 0.437674 0
M  V30 2301 H 229.344 2.64483 2.84435 0
M  V30 2302 H 231.076 2.89202 2.83098 0
M  V30 2303 H 227.831 4.46846 1.56926 0
M  V30 2304 H 228.255 6.76323 0.302733 0
M  V30 2305 H 232.897 4.02938 1.28065 0
M  V30 2306 H 230.615 8.05751 -0.615726 0
M  V30 2307 H 234.201 5.81543 0.172954 0
M  V30 2308 H 233.081 7.80493 -0.761575 0
M  V30 2309 N 230.584 -0.659388 1.43143 0
M  V30 2310 C 231.517 -1.78425 1.42267 0
M  V30 2311 C 232.495 -1.60085 0.284894 0
M  V30 2312 O 233.679 -1.82351 0.477527 0
M  V30 2313 C 230.806 -3.15642 1.22833 0
M  V30 2314 C 229.852 -3.52698 2.39806 0
M  V30 2315 S 230.685 -3.53372 4.02353 0
M  V30 2316 C 231.841 -4.93256 3.85291 0
M  V30 2317 H 232.074 -1.78897 2.37452 0
M  V30 2318 H 229.607 -0.831469 1.301 0
M  V30 2319 H 231.565 -3.94838 1.12308 0
M  V30 2320 H 230.226 -3.12739 0.29207 0
M  V30 2321 H 229.419 -4.52475 2.21996 0
M  V30 2322 H 229.021 -2.80899 2.46925 0
M  V30 2323 H 231.313 -5.81751 3.47235 0
M  V30 2324 H 232.256 -5.16115 4.84799 0
M  V30 2325 H 232.664 -4.665 3.17865 0
M  V30 2326 N 232.062 -1.29571 -0.897171 0
M  V30 2327 C 233.025 -1.14913 -1.98312 0
M  V30 2328 C 234.025 -0.0838629 -1.60581 0
M  V30 2329 O 235.215 -0.331006 -1.71026 0
M  V30 2330 C 232.347 -0.757835 -3.3237 0
M  V30 2331 H 233.54 -2.11377 -2.12743 0
M  V30 2332 H 231.093 -1.12793 -1.08201 0
M  V30 2333 H 231.828 0.206837 -3.2364 0
M  V30 2334 H 231.613 -1.52755 -3.61121 0
M  V30 2335 H 233.103 -0.678408 -4.12053 0
M  V30 2336 N 233.54 1.10788 -1.12088 0
M  V30 2337 C 234.47 2.19083 -0.807755 0
M  V30 2338 C 235.451 1.6858 0.226859 0
M  V30 2339 O 236.636 1.93997 0.0888475 0
M  V30 2340 C 233.766 3.46344 -0.257576 0
M  V30 2341 C 232.72 4.101 -1.22483 0
M  V30 2342 C 232.046 5.32016 -0.535052 0
M  V30 2343 C 233.346 4.54236 -2.57811 0
M  V30 2344 H 235.04 2.45534 -1.71328 0
M  V30 2345 H 232.586 1.1801 -0.825205 0
M  V30 2346 H 234.539 4.21392 -0.0262679 0
M  V30 2347 H 233.263 3.19373 0.683278 0
M  V30 2348 H 231.922 3.37054 -1.44189 0
M  V30 2349 H 231.57 5.01319 0.410827 0
M  V30 2350 H 231.27 5.75625 -1.18024 0
M  V30 2351 H 232.794 6.09799 -0.312695 0
M  V30 2352 H 234.208 5.20575 -2.40155 0
M  V30 2353 H 232.605 5.08682 -3.18375 0
M  V30 2354 H 233.675 3.6734 -3.16528 0
M  V30 2355 N 235.018 0.912232 1.28515 0
M  V30 2356 C 235.966 0.389597 2.29314 0
M  V30 2357 C 236.96 -0.517915 1.61289 0
M  V30 2358 O 238.166 -0.399328 1.75515 0
M  V30 2359 H 234.541 0.107386 0.744293 0
M  V30 2360 H 236.512 1.25286 2.70825 0
M  V30 2361 C 235.261 -0.356496 3.45868 0
M  V30 2362 H 234.584 0.332608 3.98414 0
M  V30 2363 H 236.024 -0.686851 4.184 0
M  V30 2364 C 234.483 -1.56383 2.98406 0
M  V30 2365 O 235.013 -2.66294 3.00749 0
M  V30 2366 N 233.219 -1.41029 2.54085 0
M  V30 2367 H 232.766 -0.516089 2.52377 0
M  V30 2368 H 232.724 -2.21939 2.22689 0
M  V30 2369 N 236.496 -1.42363 0.676048 0
M  V30 2370 C 237.744 -2.01123 0.198437 0
M  V30 2371 C 238.065 -1.53731 -1.19966 0
M  V30 2372 O 237.335 -0.759518 -1.80577 0
M  V30 2373 H 235.915 -0.743678 0.0703721 0
M  V30 2374 H 238.577 -1.74263 0.872837 0
M  V30 2375 H 237.673 -3.11454 0.200686 0
M  V30 2376 N 237.974 -0.419461 -1.51915 0
M  V30 2377 C 239.223 0.154346 -2.01109 0
M  V30 2378 C 239.536 1.45338 -1.30905 0
M  V30 2379 O 240.742 2.10906 -1.7097 0
M  V30 2380 C 239.198 0.325615 -3.58424 0
M  V30 2381 C 238.806 -0.961934 -4.37551 0
M  V30 2382 C 240.55 0.854155 -4.15818 0
M  V30 2383 C 238.457 -0.757287 -5.86531 0
M  V30 2384 H 237.387 0.0614563 -0.751491 0
M  V30 2385 H 240.038 -0.54649 -1.75173 0
M  V30 2386 H 238.42 1.08903 -3.80731 0
M  V30 2387 H 239.594 -1.7323 -4.26999 0
M  V30 2388 H 237.909 -1.41766 -3.91524 0
M  V30 2389 H 240.506 1.02346 -5.24814 0
M  V30 2390 H 240.849 1.83172 -3.73837 0
M  V30 2391 H 241.382 0.149528 -3.97519 0
M  V30 2392 H 238.121 -1.70671 -6.32892 0
M  V30 2393 H 237.641 -0.0264061 -5.99794 0
M  V30 2394 H 239.32 -0.403482 -6.45741 0
M  V30 2395 N 239.452 1.56882 -0.150215 0
M  V30 2396 C 240.4 2.18214 0.805313 0
M  V30 2397 C 241.394 1.14006 1.25296 0
M  V30 2398 O 242.6 1.3225 1.22107 0
M  V30 2399 H 238.975 0.698762 0.277913 0
M  V30 2400 H 240.946 2.97231 0.263862 0
M  V30 2401 C 239.695 2.82065 2.03309 0
M  V30 2402 H 239.018 3.61968 1.69763 0
M  V30 2403 H 240.458 3.28477 2.68103 0
M  V30 2404 C 238.917 1.80739 2.84315 0
M  V30 2405 O 239.447 1.27983 3.80767 0
M  V30 2406 N 237.653 1.4997 2.48913 0
M  V30 2407 H 237.2 1.93062 1.70542 0
M  V30 2408 H 237.158 0.824217 3.03404 0
M  V30 2409 N 240.93 -0.123565 1.57115 0
M  V30 2410 C 241.86 -1.15309 2.03042 0
M  V30 2411 C 242.841 -1.43454 0.914061 0
M  V30 2412 O 244.026 -1.53973 1.18347 0
M  V30 2413 C 241.156 -2.48043 2.43089 0
M  V30 2414 C 240.11 -2.3437 3.58127 0
M  V30 2415 C 239.436 -3.72026 3.84059 0
M  V30 2416 C 240.736 -1.80804 4.90007 0
M  V30 2417 H 242.43 -0.771102 2.893 0
M  V30 2418 H 239.976 -0.369479 1.39179 0
M  V30 2419 H 241.929 -3.20311 2.73823 0
M  V30 2420 H 240.653 -2.88122 1.53796 0
M  V30 2421 H 239.312 -1.64551 3.27595 0
M  V30 2422 H 238.96 -4.09582 2.91979 0
M  V30 2423 H 238.66 -3.63732 4.6149 0
M  V30 2424 H 240.184 -4.45806 4.1724 0
M  V30 2425 H 241.598 -2.42886 5.19307 0
M  V30 2426 H 239.995 -1.83343 5.71407 0
M  V30 2427 H 241.065 -0.76528 4.78823 0
M  V30 2428 N 242.408 -1.52605 -0.393616 0
M  V30 2429 C 243.371 -1.76415 -1.46323 0
M  V30 2430 C 244.371 -0.634126 -1.47768 0
M  V30 2431 O 245.561 -0.902142 -1.4902 0
M  V30 2432 C 242.693 -1.8607 -2.85641 0
M  V30 2433 H 243.886 -2.71916 -1.26498 0
M  V30 2434 H 241.439 -1.43257 -0.625073 0
M  V30 2435 H 242.174 -0.925378 -3.10817 0
M  V30 2436 H 241.959 -2.68235 -2.85993 0
M  V30 2437 H 243.449 -2.06179 -3.63153 0
M  V30 2438 N 243.887 0.651787 -1.4349 0
M  V30 2439 C 244.817 1.77621 -1.51569 0
M  V30 2440 C 245.798 1.66022 -0.370253 0
M  V30 2441 O 246.983 1.85095 -0.587658 0
M  V30 2442 C 244.113 3.16056 -1.43966 0
M  V30 2443 C 243.067 3.4242 -2.56774 0
M  V30 2444 C 242.393 4.8067 -2.34223 0
M  V30 2445 C 243.693 3.37023 -3.99015 0
M  V30 2446 H 245.387 1.71117 -2.45681 0
M  V30 2447 H 242.933 0.821825 -1.18246 0
M  V30 2448 H 244.886 3.94472 -1.48221 0
M  V30 2449 H 243.61 3.23293 -0.463586 0
M  V30 2450 H 242.269 2.66375 -2.51873 0
M  V30 2451 H 241.917 4.84585 -1.34856 0
M  V30 2452 H 241.617 4.9927 -3.09844 0
M  V30 2453 H 243.141 5.61342 -2.40265 0
M  V30 2454 H 244.555 4.05374 -4.05395 0
M  V30 2455 H 242.952 3.67159 -4.74673 0
M  V30 2456 H 244.022 2.3518 -4.2405 0
M  V30 2457 N 245.365 1.30045 0.890287 0
M  V30 2458 C 246.328 1.15963 1.977 0
M  V30 2459 C 247.328 0.0923777 1.60534 0
M  V30 2460 O 248.518 0.340071 1.70848 0
M  V30 2461 C 245.65 0.775451 3.31963 0
M  V30 2462 H 246.843 2.12502 2.11619 0
M  V30 2463 H 244.396 1.13366 1.07601 0
M  V30 2464 H 245.131 -0.189671 3.23745 0
M  V30 2465 H 244.916 1.54668 3.60306 0
M  V30 2466 H 246.406 0.700251 4.11687 0
M  V30 2467 N 246.843 -1.10192 1.12674 0
M  V30 2468 C 248.089 -1.82658 0.894847 0
M  V30 2469 C 248.444 -1.83666 -0.573107 0
M  V30 2470 O 247.737 -1.28816 -1.41835 0
M  V30 2471 C 247.931 -3.28552 1.4067 0
M  V30 2472 C 247.76 -3.41756 2.92289 0
M  V30 2473 C 246.53 -3.54021 3.60551 0
M  V30 2474 C 248.728 -3.34949 3.90274 0
M  V30 2475 N 246.71 -3.55827 5.0026 0
M  V30 2476 C 248.081 -3.43531 5.16127 0
M  V30 2477 C 250.136 -3.18565 3.8265 0
M  V30 2478 C 248.839 -3.37416 6.3525 0
M  V30 2479 C 250.865 -3.13772 5.01299 0
M  V30 2480 C 250.227 -3.22938 6.26012 0
M  V30 2481 H 246.326 -0.683044 0.380756 0
M  V30 2482 H 248.91 -1.31752 1.43351 0
M  V30 2483 H 247.081 -3.77946 0.895055 0
M  V30 2484 H 248.813 -3.88991 1.11661 0
M  V30 2485 H 245.568 -3.57135 3.1105 0
M  V30 2486 H 245.992 -3.60335 5.73138 0
M  V30 2487 H 250.634 -3.10354 2.87124 0
M  V30 2488 H 248.352 -3.44391 7.3104 0
M  V30 2489 H 251.938 -3.02242 4.97133 0
M  V30 2490 H 250.818 -3.19235 7.16281 0
M  V30 2491 N 248.321 -0.919034 -1.28029 0
M  V30 2492 C 249.546 -0.570357 -1.99403 0
M  V30 2493 C 249.971 0.842486 -1.68178 0
M  V30 2494 O 249.329 1.56391 -0.917141 0
M  V30 2495 C 249.377 -0.792541 -3.51783 0
M  V30 2496 O 248.481 0.145988 -4.12142 0
M  V30 2497 H 247.822 -0.220555 -0.6263 0
M  V30 2498 H 250.352 -1.23592 -1.63053 0
M  V30 2499 H 250.362 -0.704708 -4.01868 0
M  V30 2500 H 249.037 -1.82247 -3.73844 0
M  V30 2501 H 247.614 0.00897528 -3.72899 0
M  V30 2502 N 249.799 1.42003 -0.683588 0
M  V30 2503 C 251.047 2.01015 -0.209101 0
M  V30 2504 C 251.368 1.54365 1.19149 0
M  V30 2505 O 250.638 0.769083 1.80172 0
M  V30 2506 H 249.218 0.743294 -0.074315 0
M  V30 2507 H 251.88 1.73798 -0.882066 0
M  V30 2508 H 250.976 3.11343 -0.2172 0
M  V30 2509 N 251.277 0.427512 1.51691 0
M  V30 2510 C 252.209 -0.424521 2.25234 0
M  V30 2511 C 253.222 -0.994671 1.2888 0
M  V30 2512 O 254.411 -0.890483 1.54702 0
M  V30 2513 C 251.511 -1.60479 2.98496 0
M  V30 2514 C 250.684 -1.15527 4.21868 0
M  V30 2515 C 249.743 -2.20454 4.77793 0
M  V30 2516 O 248.769 -1.8029 5.39893 0
M  V30 2517 N 249.971 -3.52831 4.60967 0
M  V30 2518 H 252.736 0.205749 2.98993 0
M  V30 2519 H 250.297 0.255867 1.59865 0
M  V30 2520 H 252.289 -2.30276 3.32799 0
M  V30 2521 H 250.859 -2.14061 2.27809 0
M  V30 2522 H 250.079 -0.284736 3.9317 0
M  V30 2523 H 251.367 -0.832173 5.01949 0
M  V30 2524 H 250.765 -3.88201 4.11481 0
M  V30 2525 H 249.322 -4.18551 4.99658 0
M  V30 2526 N 252.755 -1.56801 0.158532 0
M  V30 2527 C 253.665 -2.20916 -0.789518 0
M  V30 2528 C 254.681 -1.1969 -1.26294 0
M  V30 2529 O 255.857 -1.52308 -1.31773 0
M  V30 2530 C 252.922 -2.82727 -2.00665 0
M  V30 2531 C 251.983 -3.99114 -1.58134 0
M  V30 2532 C 251.216 -4.57968 -2.74045 0
M  V30 2533 O 251.439 -4.15704 -3.90572 0
M  V30 2534 O 250.373 -5.48047 -2.48855 0
M  V30 2535 H 254.199 -3.02464 -0.273681 0
M  V30 2536 H 251.784 -1.4924 -0.0690548 0
M  V30 2537 H 253.666 -3.21968 -2.71872 0
M  V30 2538 H 252.341 -2.04184 -2.51179 0
M  V30 2539 H 251.248 -3.64567 -0.839155 0
M  V30 2540 H 252.581 -4.79212 -1.12325 0
M  V30 2541 N 254.233 0.115231 -1.57178 0
M  V30 2542 C 255.196 1.12526 -1.99676 0
M  V30 2543 C 256.196 1.34095 -0.88742 0
M  V30 2544 O 257.386 1.30548 -1.15337 0
M  V30 2545 C 254.518 2.4789 -2.34015 0
M  V30 2546 H 255.711 0.759912 -2.90113 0
M  V30 2547 H 253.264 0.359648 -1.52106 0
M  V30 2548 H 253.999 2.89339 -1.4647 0
M  V30 2549 H 253.784 2.33588 -3.14927 0
M  V30 2550 H 255.274 3.20575 -2.67622 0
M  V30 2551 N 255.711 1.52812 0.385517 0
M  V30 2552 C 256.96 1.67249 1.12741 0
M  V30 2553 C 257.273 0.4205 1.91027 0
M  V30 2554 O 258.479 0.445064 2.67827 0
M  V30 2555 C 256.935 2.95583 2.05326 0
M  V30 2556 C 256.543 4.27974 1.32447 0
M  V30 2557 C 258.287 3.19386 2.7963 0
M  V30 2558 C 256.194 5.47412 2.23818 0
M  V30 2559 H 255.124 0.6231 0.424573 0
M  V30 2560 H 257.775 1.79309 0.389924 0
M  V30 2561 H 256.157 2.77277 2.82725 0
M  V30 2562 H 257.331 4.56844 0.602495 0
M  V30 2563 H 255.646 4.10459 0.700885 0
M  V30 2564 H 258.243 4.05801 3.48181 0
M  V30 2565 H 258.586 2.34604 3.43899 0
M  V30 2566 H 259.119 3.38274 2.09322 0
M  V30 2567 H 255.858 6.34612 1.64157 0
M  V30 2568 H 255.378 5.22849 2.93921 0
M  V30 2569 H 257.057 5.81423 2.83824 0
M  V30 2570 N 257.189 -0.644168 1.43834 0
M  V30 2571 C 258.435 -1.40431 1.47141 0
M  V30 2572 C 258.79 -1.92153 0.0975577 0
M  V30 2573 O 258.083 -1.69924 -0.885232 0
M  V30 2574 C 258.277 -2.59615 2.45631 0
M  V30 2575 C 258.106 -2.1956 3.92458 0
M  V30 2576 C 256.876 -2.07456 4.60749 0
M  V30 2577 C 259.074 -1.79281 4.8204 0
M  V30 2578 N 257.056 -1.60827 5.92459 0
M  V30 2579 C 258.427 -1.43801 6.03093 0
M  V30 2580 C 260.482 -1.66545 4.6922 0
M  V30 2581 C 259.185 -0.968599 7.12749 0
M  V30 2582 C 261.211 -1.21008 5.78888 0
M  V30 2583 C 260.573 -0.864711 6.99072 0
M  V30 2584 H 256.672 -0.509182 0.593513 0
M  V30 2585 H 259.256 -0.740351 1.80075 0
M  V30 2586 H 257.427 -3.23658 2.1471 0
M  V30 2587 H 259.159 -3.26357 2.39318 0
M  V30 2588 H 255.914 -2.275 4.1538 0
M  V30 2589 H 256.338 -1.39848 6.62398 0
M  V30 2590 H 260.98 -1.91883 3.7675 0
M  V30 2591 H 258.698 -0.702715 8.05039 0
M  V30 2592 H 262.284 -1.11631 5.7099 0
M  V30 2593 H 261.164 -0.517736 7.82489 0
M  V30 2594 N 258.668 -1.30515 -0.883378 0
M  V30 2595 C 259.6 -1.12846 -1.99496 0
M  V30 2596 C 260.613 -0.0712571 -1.62644 0
M  V30 2597 O 261.802 -0.317432 -1.75655 0
M  V30 2598 C 258.902 -0.699123 -3.3161 0
M  V30 2599 C 258.075 -1.83842 -3.96889 0
M  V30 2600 C 257.134 -1.39737 -5.07307 0
M  V30 2601 O 256.16 -2.10485 -5.28852 0
M  V30 2602 N 257.362 -0.277279 -5.79837 0
M  V30 2603 H 260.127 -2.08585 -2.15203 0
M  V30 2604 H 257.688 -1.22672 -1.05656 0
M  V30 2605 H 259.68 -0.387044 -4.02845 0
M  V30 2606 H 258.25 0.166276 -3.12157 0
M  V30 2607 H 257.47 -2.31853 -3.18807 0
M  V30 2608 H 258.758 -2.60187 -4.37241 0
M  V30 2609 H 258.156 0.3122 -5.64838 0
M  V30 2610 H 256.713 -0.0246623 -6.51795 0
M  V30 2611 N 260.146 1.09593 -1.13257 0
M  V30 2612 C 261.562 1.33775 -0.870423 0
M  V30 2613 C 261.762 1.95327 0.494926 0
M  V30 2614 O 260.818 2.19853 1.2418 0
M  V30 2615 C 262.131 2.25106 -1.99369 0
M  V30 2616 C 263.679 2.3862 -2.02558 0
M  V30 2617 C 264.154 3.33285 -3.14142 0
M  V30 2618 N 265.645 3.40857 -3.13641 0
M  V30 2619 C 266.38 4.14101 -3.96621 0
M  V30 2620 N 265.876 4.90157 -4.8961 0
M  V30 2621 N 267.669 4.09808 -3.84726 0
M  V30 2622 H 259.82 0.680136 -2.01216 0
M  V30 2623 H 262.083 0.362133 -0.876107 0
M  V30 2624 H 261.789 1.87103 -2.97801 0
M  V30 2625 H 261.663 3.25481 -1.90635 0
M  V30 2626 H 264.05 2.75887 -1.0474 0
M  V30 2627 H 264.131 1.38028 -2.15364 0
M  V30 2628 H 263.775 2.96741 -4.12198 0
M  V30 2629 H 263.705 4.33776 -2.98574 0
M  V30 2630 H 266.196 2.86624 -2.46282 0
M  V30 2631 H 266.509 5.4347 -5.49418 0
M  V30 2632 H 264.854 4.89251 -4.93617 0
M  V30 2633 H 268.045 3.4949 -3.11408 0
M  V30 2634 H 268.218 4.66629 -4.49623 0
M  V30 2635 N 261.624 0.925811 1.2754 0
M  V30 2636 C 262.87 0.566092 1.94739 0
M  V30 2637 C 263.203 -0.890057 1.72603 0
M  V30 2638 O 262.478 -1.63467 1.05399 0
M  V30 2639 C 262.761 0.89054 3.48915 0
M  V30 2640 C 262.614 2.4003 3.80402 0
M  V30 2641 C 263.933 0.395101 4.38323 0
M  V30 2642 H 261.052 0.20714 0.707292 0
M  V30 2643 H 263.694 1.15725 1.50691 0
M  V30 2644 H 261.844 0.387452 3.86563 0
M  V30 2645 H 263.516 2.97494 3.52555 0
M  V30 2646 H 261.759 2.85028 3.2702 0
M  V30 2647 H 262.43 2.57785 4.8811 0
M  V30 2648 H 264.906 0.826241 4.07814 0
M  V30 2649 H 263.782 0.651086 5.45025 0
M  V30 2650 H 264.043 -0.704798 4.36446 0
M  V30 2651 N 263.102 -1.41638 0.69111 0
M  V30 2652 C 264.332 -2.0533 0.228758 0
M  V30 2653 C 264.74 -1.52089 -1.12541 0
M  V30 2654 O 264.083 -0.662145 -1.71351 0
M  V30 2655 C 264.145 -3.59349 0.10407 0
M  V30 2656 C 263.809 -4.35362 1.38956 0
M  V30 2657 C 264.806 -4.64942 2.32648 0
M  V30 2658 C 262.491 -4.74714 1.64169 0
M  V30 2659 C 264.485 -5.32828 3.49818 0
M  V30 2660 C 262.172 -5.42338 2.81625 0
M  V30 2661 C 263.17 -5.71322 3.74273 0
M  V30 2662 O 262.858 -6.37554 4.89673 0
M  V30 2663 H 262.59 -0.667796 0.104997 0
M  V30 2664 H 265.144 -1.82477 0.942938 0
M  V30 2665 H 263.374 -3.80924 -0.665839 0
M  V30 2666 H 265.063 -4.04633 -0.320519 0
M  V30 2667 H 265.829 -4.35025 2.14425 0
M  V30 2668 H 261.708 -4.51538 0.929202 0
M  V30 2669 H 265.252 -5.55368 4.22152 0
M  V30 2670 H 261.149 -5.71673 2.99768 0
M  V30 2671 H 261.917 -6.56049 4.8943 0
M  V30 2672 N 264.58 -0.43555 -1.51462 0
M  V30 2673 C 265.51 0.367376 -2.30592 0
M  V30 2674 C 266.491 1.02263 -1.35928 0
M  V30 2675 O 267.676 1.02661 -1.64847 0
M  V30 2676 C 264.806 1.46983 -3.14664 0
M  V30 2677 C 263.76 0.938161 -4.17591 0
M  V30 2678 C 263.086 2.13622 -4.90173 0
M  V30 2679 C 264.386 -0.0261621 -5.22293 0
M  V30 2680 H 266.08 -0.292969 -2.97963 0
M  V30 2681 H 263.626 -0.14234 -1.43295 0
M  V30 2682 H 265.579 2.03873 -3.688 0
M  V30 2683 H 264.303 2.15843 -2.4511 0
M  V30 2684 H 262.962 0.391481 -3.64504 0
M  V30 2685 H 262.61 2.81098 -4.17124 0
M  V30 2686 H 262.31 1.78688 -5.59772 0
M  V30 2687 H 263.834 2.7107 -5.47132 0
M  V30 2688 H 265.248 0.452384 -5.71512 0
M  V30 2689 H 263.645 -0.287992 -5.99409 0
M  V30 2690 H 264.715 -0.963391 -4.75233 0
M  V30 2691 N 266.058 1.56714 -0.166846 0
M  V30 2692 C 267.021 2.16539 0.751232 0
M  V30 2693 C 268.021 1.11228 1.16125 0
M  V30 2694 O 269.211 1.36765 1.07894 0
M  V30 2695 C 266.343 2.74462 2.02196 0
M  V30 2696 H 267.536 2.99013 0.230499 0
M  V30 2697 H 265.089 1.56081 0.0826982 0
M  V30 2698 H 265.824 1.95709 2.58589 0
M  V30 2699 H 265.609 3.51527 1.73698 0
M  V30 2700 H 267.099 3.20489 2.67725 0
M  V30 2701 N 267.536 -0.106894 1.57237 0
M  V30 2702 C 268.466 -1.13148 2.04254 0
M  V30 2703 C 269.447 -1.42476 0.929224 0
M  V30 2704 O 270.632 -1.52709 1.19973 0
M  V30 2705 C 267.762 -2.4545 2.45706 0
M  V30 2706 C 266.716 -2.30558 3.60592 0
M  V30 2707 C 266.042 -3.67931 3.87983 0
M  V30 2708 C 267.342 -1.75597 4.91897 0
M  V30 2709 H 269.036 -0.740374 2.90101 0
M  V30 2710 H 266.582 -0.354696 1.39563 0
M  V30 2711 H 268.535 -3.17389 2.77205 0
M  V30 2712 H 267.259 -2.86475 1.56843 0
M  V30 2713 H 265.918 -1.61067 3.29322 0
M  V30 2714 H 265.566 -4.06462 2.96306 0
M  V30 2715 H 265.266 -3.58817 4.65322 0
M  V30 2716 H 266.79 -4.41356 4.21945 0
M  V30 2717 H 268.204 -2.37364 5.21854 0
M  V30 2718 H 266.601 -1.77272 5.73319 0
M  V30 2719 H 267.671 -0.714451 4.79608 0
M  V30 2720 N 269.014 -1.53014 -0.377408 0
M  V30 2721 C 270.262 -1.6829 -1.11906 0
M  V30 2722 C 270.583 -0.431206 -1.90173 0
M  V30 2723 O 269.853 0.554595 -1.87886 0
M  V30 2724 H 268.433 -0.620371 -0.416112 0
M  V30 2725 H 271.095 -1.90167 -0.426893 0
M  V30 2726 H 270.191 -2.53862 -1.8155 0
M  V30 2727 N 270.492 0.636531 -1.44174 0
M  V30 2728 C 271.422 1.76003 -1.53444 0
M  V30 2729 C 272.403 1.65619 -0.387841 0
M  V30 2730 O 273.588 1.84461 -0.607257 0
M  V30 2731 C 270.718 3.14511 -1.4731 0
M  V30 2732 C 269.672 3.39677 -2.60391 0
M  V30 2733 C 268.998 4.78159 -2.39308 0
M  V30 2734 C 270.298 3.32772 -4.02567 0
M  V30 2735 H 271.992 1.68501 -2.47483 0
M  V30 2736 H 269.538 0.809237 -1.19111 0
M  V30 2737 H 271.491 3.92878 -1.52397 0
M  V30 2738 H 270.215 3.22783 -0.49785 0
M  V30 2739 H 268.874 2.63688 -2.54684 0
M  V30 2740 H 268.522 4.83128 -1.39988 0
M  V30 2741 H 268.222 4.95956 -3.15122 0
M  V30 2742 H 269.746 5.58762 -2.46205 0
M  V30 2743 H 271.16 4.01051 -4.09672 0
M  V30 2744 H 269.557 3.62104 -4.7854 0
M  V30 2745 H 270.627 2.30669 -4.2652 0
M  V30 2746 N 271.97 1.30982 0.876444 0
M  V30 2747 C 273.198 1.23242 1.6619 0
M  V30 2748 C 273.613 -0.203345 1.87702 0
M  V30 2749 O 272.97 -1.13317 1.43057 0
M  V30 2750 C 273.021 1.96623 3.03351 0
M  V30 2751 O 272.742 3.34594 2.82804 0
M  V30 2752 C 274.243 1.95644 3.97792 0
M  V30 2753 H 271.463 0.426126 0.518322 0
M  V30 2754 H 274.007 1.7275 1.09442 0
M  V30 2755 H 272.162 1.50892 3.56806 0
M  V30 2756 H 272.576 3.71873 3.69879 0
M  V30 2757 H 274.05 2.51511 4.91372 0
M  V30 2758 H 274.527 0.937395 4.2908 0
M  V30 2759 H 275.133 2.41225 3.50272 0
M  V30 2760 N 273.449 -1.08991 1.13837 0
M  V30 2761 C 274.381 -2.15606 0.777612 0
M  V30 2762 C 275.394 -1.61533 -0.202739 0
M  V30 2763 O 276.583 -1.78491 0.0181055 0
M  V30 2764 C 273.683 -3.3864 0.132623 0
M  V30 2765 C 272.856 -4.22115 1.1462 0
M  V30 2766 C 271.915 -5.23564 0.526074 0
M  V30 2767 O 270.941 -5.56678 1.18735 0
M  V30 2768 N 272.143 -5.76266 -0.699866 0
M  V30 2769 H 274.908 -2.47159 1.69506 0
M  V30 2770 H 272.469 -1.24747 1.03198 0
M  V30 2771 H 274.461 -4.03626 -0.29459 0
M  V30 2772 H 273.031 -3.04938 -0.687849 0
M  V30 2773 H 272.251 -3.53199 1.75055 0
M  V30 2774 H 273.539 -4.74709 1.83109 0
M  V30 2775 H 272.937 -5.51585 -1.25581 0
M  V30 2776 H 271.494 -6.42963 -1.06968 0
M  V30 2777 N 274.927 -0.932562 -1.27047 0
M  V30 2778 C 275.89 -0.440064 -2.24936 0
M  V30 2779 C 276.89 0.444071 -1.54547 0
M  V30 2780 O 278.08 0.244465 -1.72476 0
M  V30 2781 C 275.212 0.36678 -3.38921 0
M  V30 2782 H 276.405 -1.305 -2.70018 0
M  V30 2783 H 273.958 -0.713707 -1.39054 0
M  V30 2784 H 274.693 1.25033 -2.99228 0
M  V30 2785 H 274.478 -0.267204 -3.91188 0
M  V30 2786 H 275.968 0.701567 -4.11665 0
M  V30 2787 N 276.405 1.4127 -0.698611 0
M  V30 2788 C 277.315 2.34573 -0.0357891 0
M  V30 2789 C 278.331 1.56393 0.762701 0
M  V30 2790 O 279.507 1.8886 0.699564 0
M  V30 2791 C 276.572 3.35159 0.887089 0
M  V30 2792 C 275.633 4.29225 0.0804634 0
M  V30 2793 C 274.866 5.25006 0.959387 0
M  V30 2794 O 275.089 5.26314 2.19886 0
M  V30 2795 O 274.023 6.00519 0.407439 0
M  V30 2796 H 277.849 2.92838 -0.804957 0
M  V30 2797 H 275.434 1.42175 -0.458966 0
M  V30 2798 H 277.316 3.9689 1.41621 0
M  V30 2799 H 275.991 2.79333 1.6357 0
M  V30 2800 H 274.898 3.70833 -0.493328 0
M  V30 2801 H 276.231 4.88157 -0.629547 0
M  V30 2802 N 277.883 0.443576 1.51229 0
M  V30 2803 C 279.132 -0.122332 2.01329 0
M  V30 2804 C 279.445 -1.43237 1.33201 0
M  V30 2805 O 280.651 -2.0816 1.74304 0
M  V30 2806 C 279.107 -0.268551 3.58897 0
M  V30 2807 C 278.715 1.03142 4.35965 0
M  V30 2808 C 280.459 -0.787894 4.17124 0
M  V30 2809 C 278.366 0.850504 5.85252 0
M  V30 2810 H 277.296 -0.0494929 0.752374 0
M  V30 2811 H 279.947 0.574289 1.74282 0
M  V30 2812 H 278.329 -1.02832 3.82415 0
M  V30 2813 H 279.503 1.80001 4.24189 0
M  V30 2814 H 277.818 1.47977 3.89219 0
M  V30 2815 H 280.415 -0.939841 5.26375 0
M  V30 2816 H 280.758 -1.77201 3.76703 0
M  V30 2817 H 281.291 -0.0862669 3.97706 0
M  V30 2818 H 278.03 1.80718 6.30096 0
M  V30 2819 H 277.55 0.121825 5.99676 0
M  V30 2820 H 279.229 0.506163 6.45017 0
M  V30 2821 N 279.361 -1.56624 0.175154 0
M  V30 2822 C 280.309 -2.19468 -0.770495 0
M  V30 2823 C 281.303 -1.15985 -1.23466 0
M  V30 2824 O 282.509 -1.34176 -1.19987 0
M  V30 2825 H 278.884 -0.703095 -0.266761 0
M  V30 2826 H 280.855 -2.97613 -0.216542 0
M  V30 2827 C 279.604 -2.85264 -1.98796 0
M  V30 2828 H 278.927 -3.64623 -1.63983 0
M  V30 2829 H 280.367 -3.327 -2.62843 0
M  V30 2830 C 278.826 -1.85239 -2.81404 0
M  V30 2831 O 279.356 -1.34024 -3.78682 0
M  V30 2832 N 277.562 -1.53911 -2.46495 0
M  V30 2833 H 277.109 -1.95751 -1.67449 0
M  V30 2834 H 277.067 -0.872382 -3.02054 0
M  V30 2835 N 280.839 0.0985539 -1.57292 0
M  V30 2836 C 281.749 1.13824 -2.05137 0
M  V30 2837 C 282.765 1.44076 -0.975604 0
M  V30 2838 O 283.941 1.54786 -1.28853 0
M  V30 2839 C 281.006 2.43969 -2.46333 0
M  V30 2840 C 280.067 2.2093 -3.68087 0
M  V30 2841 C 279.3 3.44869 -4.0731 0
M  V30 2842 O 279.523 4.52972 -3.46659 0
M  V30 2843 O 278.457 3.34661 -5.00285 0
M  V30 2844 H 282.283 0.761881 -2.93988 0
M  V30 2845 H 279.868 0.310818 -1.46131 0
M  V30 2846 H 281.75 3.20609 -2.73473 0
M  V30 2847 H 280.425 2.81038 -1.60621 0
M  V30 2848 H 279.332 1.42081 -3.46069 0
M  V30 2849 H 280.665 1.88755 -4.54568 0
M  V30 2850 N 282.317 1.53212 0.369288 0
M  V30 2851 C 283.564 1.69215 1.11232 0
M  V30 2852 C 283.892 0.442048 1.8941 0
M  V30 2853 O 283.147 -0.575944 1.87033 0
M  V30 2854 C 283.446 2.89101 2.10132 0
M  V30 2855 C 283.112 4.25758 1.48463 0
M  V30 2856 C 281.774 4.6292 1.31372 0
M  V30 2857 C 284.126 5.10757 1.03811 0
M  V30 2858 C 281.454 5.82722 0.68207 0
M  V30 2859 C 283.806 6.31201 0.420487 0
M  V30 2860 C 282.47 6.67079 0.237038 0
M  V30 2861 H 281.74 0.619201 0.407027 0
M  V30 2862 H 284.387 1.87391 0.394552 0
M  V30 2863 H 282.692 2.65421 2.88199 0
M  V30 2864 H 284.389 2.98676 2.6757 0
M  V30 2865 H 280.979 3.96494 1.62758 0
M  V30 2866 H 285.163 4.82599 1.1581 0
M  V30 2867 H 280.419 6.09113 0.528316 0
M  V30 2868 H 284.593 6.96368 0.0662874 0
M  V30 2869 H 282.22 7.59774 -0.254477 0
M  V30 2870 N 283.795 -0.628877 1.44509 0
M  V30 2871 C 285.042 -1.38839 1.47411 0
M  V30 2872 C 285.37 -1.94202 0.10757 0
M  V30 2873 O 284.625 -1.74243 -0.890947 0
M  V30 2874 C 284.924 -2.56995 2.48371 0
M  V30 2875 C 284.59 -2.19908 3.93639 0
M  V30 2876 C 283.252 -2.09506 4.33198 0
M  V30 2877 C 285.604 -1.9064 4.85083 0
M  V30 2878 C 282.932 -1.68028 5.62124 0
M  V30 2879 C 285.284 -1.50655 6.14399 0
M  V30 2880 C 283.948 -1.38796 6.5291 0
M  V30 2881 H 283.218 -0.508048 0.539414 0
M  V30 2882 H 285.865 -0.712913 1.77735 0
M  V30 2883 H 284.17 -3.29786 2.11538 0
M  V30 2884 H 285.867 -3.15223 2.47861 0
M  V30 2885 H 282.457 -2.28922 3.62343 0
M  V30 2886 H 286.641 -1.97585 4.55273 0
M  V30 2887 H 281.897 -1.57452 5.90778 0
M  V30 2888 H 286.071 -1.27048 6.84713 0
M  V30 2889 H 283.698 -1.06429 7.52713 0
M  V30 2890 N 285.273 -1.31445 -0.869486 0
M  V30 2891 C 286.501 -1.24122 -1.65534 0
M  V30 2892 C 286.916 0.193387 -1.87807 0
M  V30 2893 O 286.273 1.12557 -1.43656 0
M  V30 2894 C 286.324 -1.98229 -3.02304 0
M  V30 2895 O 286.045 -3.3609 -2.81026 0
M  V30 2896 C 287.546 -1.97751 -3.96749 0
M  V30 2897 H 284.766 -0.428868 -0.516055 0
M  V30 2898 H 287.31 -1.73328 -1.08525 0
M  V30 2899 H 285.465 -1.52782 -3.56001 0
M  V30 2900 H 285.879 -3.7383 -3.67902 0
M  V30 2901 H 287.353 -2.54114 -4.90031 0
M  V30 2902 H 287.83 -0.960137 -4.28577 0
M  V30 2903 H 288.436 -2.43079 -3.48988 0
M  V30 2904 N 286.751 1.08385 -1.14413 0
M  V30 2905 C 287.999 1.80419 -0.910679 0
M  V30 2906 C 288.32 1.86658 0.564243 0
M  V30 2907 O 287.59 1.35985 1.41014 0
M  V30 2908 H 286.17 0.668204 -0.333934 0
M  V30 2909 H 288.832 1.31037 -1.44275 0
M  V30 2910 H 287.928 2.83238 -1.31082 0
M  V30 2911 N 288.23 0.939286 1.26551 0
M  V30 2912 C 289.641 0.628782 1.75793 0
M  V30 2913 C 289.992 -0.856046 1.7654 0
M  V30 2914 O 289.117 -1.66994 1.3763 0
M  V30 2915 C 289.712 1.13465 3.19235 0
M  V30 2916 C 288.271 0.874601 3.66098 0
M  V30 2917 C 287.418 1.28667 2.45642 0
M  V30 2918 H 290.369 1.1178 1.12654 0
M  V30 2919 H 290.39 0.487609 3.77363 0
M  V30 2920 H 289.902 2.21535 3.1866 0
M  V30 2921 H 288.003 -0.191793 3.72106 0
M  V30 2922 H 288.116 1.50028 4.55004 0
M  V30 2923 H 286.48 0.705109 2.44745 0
M  V30 2924 H 287.263 2.37625 2.47769 0
M  V30 2925 N 289.708 -1.40897 0.706093 0
M  V30 2926 C 290.671 -2.29131 0.0562841 0
M  V30 2927 C 291.671 -1.44901 -0.697166 0
M  V30 2928 O 292.861 -1.65926 -0.530484 0
M  V30 2929 C 289.993 -3.27957 -0.93043 0
M  V30 2930 H 291.186 -2.88091 0.833284 0
M  V30 2931 H 288.739 -1.4906 0.470192 0
M  V30 2932 H 289.474 -2.73997 -1.73482 0
M  V30 2933 H 289.259 -3.90124 -0.393166 0
M  V30 2934 H 290.749 -3.94049 -1.38256 0
M  V30 2935 N 291.186 -0.45159 -1.50991 0
M  V30 2936 C 292.433 0.110074 -2.02201 0
M  V30 2937 C 292.761 1.4146 -1.33489 0
M  V30 2938 O 292.016 1.90617 -0.443125 0
M  V30 2939 C 292.315 0.361728 -3.55565 0
M  V30 2940 C 291.981 -0.858717 -4.42648 0
M  V30 2941 C 290.643 -1.19338 -4.66167 0
M  V30 2942 C 292.995 -1.67221 -4.93646 0
M  V30 2943 C 290.323 -2.34195 -5.37931 0
M  V30 2944 C 292.675 -2.8119 -5.6667 0
M  V30 2945 C 291.339 -3.15094 -5.88449 0
M  V30 2946 H 290.609 0.040279 -0.739904 0
M  V30 2947 H 293.256 -0.601696 -1.81802 0
M  V30 2948 H 291.561 1.15554 -3.74372 0
M  V30 2949 H 293.258 0.80996 -3.92735 0
M  V30 2950 H 289.848 -0.58796 -4.24548 0
M  V30 2951 H 294.032 -1.42686 -4.75347 0
M  V30 2952 H 289.288 -2.6076 -5.53005 0
M  V30 2953 H 293.462 -3.44585 -6.05173 0
M  V30 2954 H 291.089 -4.04204 -6.43835 0
M  V30 2955 N 292.664 1.56529 -0.183458 0
M  V30 2956 C 293.594 2.21549 0.737456 0
M  V30 2957 C 294.575 1.17489 1.23005 0
M  V30 2958 O 295.76 1.45959 1.281 0
M  V30 2959 C 292.89 2.86575 1.96194 0
M  V30 2960 C 291.844 3.96778 1.60473 0
M  V30 2961 C 291.17 4.48911 2.90487 0
M  V30 2962 C 292.47 5.15767 0.823497 0
M  V30 2963 H 294.164 2.98761 0.195453 0
M  V30 2964 H 291.71 1.43702 0.0925686 0
M  V30 2965 H 293.663 3.30739 2.61131 0
M  V30 2966 H 292.387 2.06749 2.52828 0
M  V30 2967 H 291.046 3.53286 0.978997 0
M  V30 2968 H 290.694 3.65862 3.45186 0
M  V30 2969 H 290.394 5.23265 2.67335 0
M  V30 2970 H 291.918 4.95771 3.56432 0
M  V30 2971 H 293.332 5.56549 1.37571 0
M  V30 2972 H 291.729 5.96114 0.690551 0
M  V30 2973 H 292.799 4.84574 -0.177782 0
M  V30 2974 N 294.142 -0.090211 1.57342 0
M  V30 2975 C 295.105 -1.09335 2.01441 0
M  V30 2976 C 296.105 -1.32666 0.908641 0
M  V30 2977 O 297.295 -1.28697 1.174 0
M  V30 2978 C 294.427 -2.44136 2.3793 0
M  V30 2979 H 295.62 -0.713662 2.91285 0
M  V30 2980 H 293.173 -0.335404 1.52659 0
M  V30 2981 H 293.908 -2.86972 1.51055 0
M  V30 2982 H 293.693 -2.28548 3.18603 0
M  V30 2983 H 295.183 -3.16277 2.72688 0
M  V30 2984 N 295.62 -1.53406 -0.361157 0
M  V30 2985 C 296.866 -1.70999 -1.1014 0
M  V30 2986 C 297.221 -0.458425 -1.86859 0
M  V30 2987 O 296.514 0.548654 -1.83577 0
M  V30 2988 C 296.708 -2.90211 -2.08596 0
M  V30 2989 C 296.537 -4.26841 -1.41553 0
M  V30 2990 C 295.307 -4.91621 -1.16778 0
M  V30 2991 C 297.505 -5.07212 -0.850915 0
M  V30 2992 N 295.487 -6.12164 -0.461312 0
M  V30 2993 C 296.858 -6.19394 -0.274046 0
M  V30 2994 C 298.913 -4.92218 -0.750036 0
M  V30 2995 C 297.616 -7.18221 0.393868 0
M  V30 2996 C 299.642 -5.91322 -0.095894 0
M  V30 2997 C 299.004 -7.0283 0.470081 0
M  V30 2998 H 295.103 -0.678939 -0.388028 0
M  V30 2999 H 297.687 -1.90811 -0.38722 0
M  V30 3000 H 295.858 -2.71931 -2.77323 0
M  V30 3001 H 297.59 -2.96606 -2.7533 0
M  V30 3002 H 294.345 -4.50849 -1.45024 0
M  V30 3003 H 294.769 -6.76888 -0.123312 0
M  V30 3004 H 299.411 -4.06192 -1.17337 0
M  V30 3005 H 297.129 -8.03835 0.82914 0
M  V30 3006 H 300.715 -5.81797 -0.0187075 0
M  V30 3007 H 299.595 -7.782 0.968241 0
M  V30 3008 N 297.098 0.621204 -1.44841 0
M  V30 3009 C 298.346 1.37783 -1.47852 0
M  V30 3010 C 298.667 1.94653 -0.116224 0
M  V30 3011 O 297.937 1.76367 0.852737 0
M  V30 3012 H 296.517 0.511453 -0.544449 0
M  V30 3013 H 299.179 0.730446 -1.80694 0
M  V30 3014 H 298.275 2.20414 -2.20961 0
M  V30 3015 N 298.576 1.31904 0.862503 0
M  V30 3016 C 299.992 1.10724 1.14945 0
M  V30 3017 C 300.192 -0.117421 2.01158 0
M  V30 3018 O 299.248 -0.804595 2.39338 0
M  V30 3019 C 300.561 2.38267 1.83437 0
M  V30 3020 C 302.109 2.43949 1.96106 0
M  V30 3021 C 302.584 3.71394 2.68013 0
M  V30 3022 N 304.075 3.72331 2.75543 0
M  V30 3023 C 304.81 4.67641 3.31812 0
M  V30 3024 N 304.306 5.73313 3.88953 0
M  V30 3025 N 306.099 4.5515 3.29841 0
M  V30 3026 H 298.25 2.10436 0.288191 0
M  V30 3027 H 300.513 0.928705 0.190292 0
M  V30 3028 H 300.219 3.27759 1.27542 0
M  V30 3029 H 300.093 2.48633 2.83657 0
M  V30 3030 H 302.48 1.54922 2.51164 0
M  V30 3031 H 302.561 2.37543 0.949059 0
M  V30 3032 H 302.205 4.60791 2.13621 0
M  V30 3033 H 302.135 3.75069 3.69636 0
M  V30 3034 H 304.626 2.95947 2.34997 0
M  V30 3035 H 304.939 6.42107 4.30022 0
M  V30 3036 H 303.284 5.77077 3.87308 0
M  V30 3037 H 306.475 3.71766 2.84443 0
M  V30 3038 H 306.648 5.29604 3.73394 0
M  V30 3039 N 300.054 -1.07777 1.14986 0
M  V30 3040 C 300.987 -2.14228 0.786243 0
M  V30 3041 C 301.965 -1.60888 -0.235347 0
M  V30 3042 O 303.149 -1.88099 -0.122909 0
M  V30 3043 C 300.276 -3.38281 0.168433 0
M  V30 3044 C 299.322 -4.10387 1.16123 0
M  V30 3045 S 300.155 -4.62371 2.70135 0
M  V30 3046 C 301.311 -5.89704 2.09762 0
M  V30 3047 H 301.544 -2.44741 1.68787 0
M  V30 3048 H 299.077 -1.19984 0.971756 0
M  V30 3049 H 301.035 -4.10098 -0.181588 0
M  V30 3050 H 299.696 -3.05953 -0.710725 0
M  V30 3051 H 298.889 -4.99431 0.677086 0
M  V30 3052 H 298.491 -3.44513 1.45556 0
M  V30 3053 H 300.783 -6.61648 1.45701 0
M  V30 3054 H 301.726 -6.42824 2.96955 0
M  V30 3055 H 302.134 -5.4302 1.54239 0
M  V30 3056 N 301.532 -0.945985 -1.26051 0
M  V30 3057 C 302.78 -0.594941 -1.93145 0
M  V30 3058 C 303.101 0.86953 -1.7454 0
M  V30 3059 O 302.371 1.61838 -1.10387 0
M  V30 3060 H 300.951 -0.217044 -0.714773 0
M  V30 3061 H 303.613 -1.20235 -1.53393 0
M  V30 3062 H 302.709 -0.816835 -3.01221 0
M  V30 3063 N 303.011 1.40521 -0.713556 0
M  V30 3064 C 303.959 2.32549 -0.0485227 0
M  V30 3065 C 304.953 1.51931 0.74922 0
M  V30 3066 O 306.159 1.67745 0.652816 0
M  V30 3067 H 302.534 0.751994 0.00311138 0
M  V30 3068 H 304.505 2.86291 -0.841443 0
M  V30 3069 C 303.254 3.36879 0.860687 0
M  V30 3070 H 302.577 3.98978 0.256246 0
M  V30 3071 H 304.017 4.03772 1.294 0
M  V30 3072 C 302.476 2.72197 1.9852 0
M  V30 3073 O 303.006 2.5837 3.07584 0
M  V30 3074 N 301.212 2.30612 1.76823 0
M  V30 3075 H 300.759 2.42059 0.881217 0
M  V30 3076 H 300.717 1.87672 2.52243 0
M  V30 3077 N 304.489 0.459591 1.5075 0
M  V30 3078 C 305.419 -0.330644 2.31147 0
M  V30 3079 C 306.4 -1.00087 1.37538 0
M  V30 3080 O 307.585 -1.00025 1.66459 0
M  V30 3081 C 304.715 -1.41958 3.16962 0
M  V30 3082 C 303.669 -0.871608 4.19031 0
M  V30 3083 C 302.995 -2.05797 4.9351 0
M  V30 3084 C 304.295 0.109251 5.22186 0
M  V30 3085 H 305.989 0.340336 2.97459 0
M  V30 3086 H 303.535 0.165119 1.4305 0
M  V30 3087 H 305.488 -1.9798 3.71997 0
M  V30 3088 H 304.212 -2.11917 2.48513 0
M  V30 3089 H 302.871 -0.333442 3.6508 0
M  V30 3090 H 302.519 -2.74427 4.21544 0
M  V30 3091 H 302.219 -1.6976 5.62544 0
M  V30 3092 H 303.743 -2.62331 5.51375 0
M  V30 3093 H 305.157 -0.361405 5.7216 0
M  V30 3094 H 303.554 0.383316 5.98875 0
M  V30 3095 H 304.624 1.03887 4.73641 0
M  V30 3096 N 305.967 -1.56429 0.191757 0
M  V30 3097 C 306.917 -2.15548 -0.743184 0
M  V30 3098 C 307.901 -1.09531 -1.17863 0
M  V30 3099 O 309.093 -1.35602 -1.13759 0
M  V30 3100 C 306.222 -2.81577 -1.96391 0
M  V30 3101 C 305.308 -3.9478 -1.54951 0
M  V30 3102 N 305.699 -4.98677 -0.845876 0
M  V30 3103 C 303.997 -4.06319 -1.83905 0
M  V30 3104 C 304.698 -5.78183 -0.638724 0
M  V30 3105 N 303.674 -5.30495 -1.18643 0
M  V30 3106 H 307.476 -2.9324 -0.196839 0
M  V30 3107 H 304.99 -1.62398 -0.0081603 0
M  V30 3108 H 306.987 -3.22321 -2.64415 0
M  V30 3109 H 305.647 -2.05371 -2.51501 0
M  V30 3110 H 306.658 -5.15464 -0.501704 0
M  V30 3111 H 303.335 -3.41238 -2.40548 0
M  V30 3112 H 304.725 -6.71851 -0.0807929 0
M  V30 3113 N 307.445 0.0818655 -1.57387 0
M  V30 3114 C 308.673 0.796108 -1.9097 0
M  V30 3115 C 309.088 1.71626 -0.786757 0
M  V30 3116 O 308.445 1.80908 0.240513 0
M  V30 3117 C 308.496 1.59829 -3.24248 0
M  V30 3118 O 308.217 0.715131 -4.32224 0
M  V30 3119 C 309.718 2.41442 -3.7178 0
M  V30 3120 H 306.938 0.22691 -0.631469 0
M  V30 3121 H 309.482 0.0551439 -2.04426 0
M  V30 3122 H 307.637 2.29163 -3.12351 0
M  V30 3123 H 308.051 1.27205 -5.08841 0
M  V30 3124 H 309.525 2.932 -4.67694 0
M  V30 3125 H 310.002 3.2051 -3.00283 0
M  V30 3126 H 310.608 1.77283 -3.86589 0
M  V30 3127 N 308.923 1.53595 0.353017 0
M  V30 3128 C 310.169 1.71581 1.09232 0
M  V30 3129 C 310.524 0.468328 1.86613 0
M  V30 3130 O 309.817 -0.538911 1.83865 0
M  V30 3131 C 310.011 2.91313 2.07054 0
M  V30 3132 C 309.84 4.27585 1.39287 0
M  V30 3133 C 308.61 4.92233 1.1417 0
M  V30 3134 C 310.808 5.07656 0.824005 0
M  V30 3135 N 308.79 6.124 0.428841 0
M  V30 3136 C 310.161 6.19531 0.241195 0
M  V30 3137 C 312.216 4.92609 0.723922 0
M  V30 3138 C 310.919 7.18002 -0.431952 0
M  V30 3139 C 312.945 5.91365 0.0645334 0
M  V30 3140 C 312.307 7.02571 -0.507347 0
M  V30 3141 H 308.406 0.680987 0.384422 0
M  V30 3142 H 310.99 1.91013 0.377096 0
M  V30 3143 H 309.161 2.73398 2.75877 0
M  V30 3144 H 310.893 2.98062 2.73753 0
M  V30 3145 H 307.648 4.51612 1.42631 0
M  V30 3146 H 308.072 6.76944 0.0874131 0
M  V30 3147 H 312.714 4.06808 1.15181 0
M  V30 3148 H 310.432 8.03384 -0.871758 0
M  V30 3149 H 314.018 5.81799 -0.0121469 0
M  V30 3150 H 312.898 7.77675 -1.0095 0
M  V30 3151 N 310.401 -0.613514 1.45168 0
M  V30 3152 C 311.678 -1.37263 1.39349 0
M  V30 3153 C 312.058 -2.11012 0.0610848 0
M  V30 3154 O 311.406 -2.07502 -0.956825 0
M  V30 3155 C 311.616 -2.3244 2.60332 0
M  V30 3156 C 312.964 -2.9523 3.05163 0
M  V30 3157 O 313.988 -2.42762 2.60663 0
M  V30 3158 O 312.847 -3.90454 3.82372 0
M  V30 3159 H 309.941 -0.615188 0.552696 0
M  V30 3160 H 312.487 -0.637097 1.57287 0
M  V30 3161 H 311.259 -1.77164 3.48896 0
M  V30 3162 H 310.882 -3.13383 2.44698 0
M  V30 3163 N 311.879 -1.3236 -0.855495 0
M  V30 3164 C 313.127 -1.22629 -1.60644 0
M  V30 3165 C 313.448 0.212136 -1.93843 0
M  V30 3166 O 312.718 1.13666 -1.59552 0
M  V30 3167 H 311.298 -0.450882 -0.595579 0
M  V30 3168 H 313.96 -1.65871 -1.02337 0
M  V30 3169 H 313.056 -1.80832 -2.54374 0
M  V30 3170 N 313.357 1.07166 -1.15556 0
M  V30 3171 C 314.768 1.6127 -0.940693 0
M  V30 3172 C 315.119 1.89251 0.517551 0
M  V30 3173 O 314.244 1.65937 1.38903 0
M  V30 3174 C 314.839 2.92993 -1.7012 0
M  V30 3175 C 313.398 3.43832 -1.53156 0
M  V30 3176 C 312.545 2.1786 -1.71558 0
M  V30 3177 H 315.496 0.90229 -1.30554 0
M  V30 3178 H 315.517 3.62007 -1.17181 0
M  V30 3179 H 315.029 2.72596 -2.76248 0
M  V30 3180 H 313.13 3.69307 -0.494294 0
M  V30 3181 H 313.243 4.19747 -2.30975 0
M  V30 3182 H 311.607 2.2765 -1.14225 0
M  V30 3183 H 312.39 1.99956 -2.79056 0
M  V30 3184 N 314.835 0.952656 1.25548 0
M  V30 3185 C 315.765 0.489287 2.28316 0
M  V30 3186 C 316.746 -0.463359 1.63667 0
M  V30 3187 O 317.931 -0.36274 1.90782 0
M  V30 3188 C 315.061 -0.235603 3.465 0
M  V30 3189 C 314.015 0.631593 4.23314 0
M  V30 3190 C 313.341 -0.223923 5.34231 0
M  V30 3191 C 314.641 1.90871 4.86174 0
M  V30 3192 H 316.335 1.34822 2.67326 0
M  V30 3193 H 313.881 0.649728 1.28509 0
M  V30 3194 H 315.834 -0.570882 4.17515 0
M  V30 3195 H 314.558 -1.12877 3.06474 0
M  V30 3196 H 313.217 0.949929 3.54079 0
M  V30 3197 H 312.865 -1.11678 4.90446 0
M  V30 3198 H 312.565 0.35299 5.86539 0
M  V30 3199 H 314.089 -0.554214 6.0808 0
M  V30 3200 H 315.503 1.63997 5.49343 0
M  V30 3201 H 313.9 2.43112 5.4865 0
M  V30 3202 H 314.97 2.61304 4.08471 0
M  V30 3203 N 316.313 -1.40141 0.720998 0
M  V30 3204 C 317.724 -1.83678 0.334553 0
M  V30 3205 C 318.075 -1.6027 -1.13173 0
M  V30 3206 O 317.2 -1.08643 -1.87152 0
M  V30 3207 C 317.795 -3.33437 0.600437 0
M  V30 3208 C 316.354 -3.75447 0.267642 0
M  V30 3209 C 315.501 -2.63296 0.870097 0
M  V30 3210 H 318.452 -1.29331 0.919732 0
M  V30 3211 H 318.473 -3.80269 -0.132517 0
M  V30 3212 H 317.985 -3.50442 1.66768 0
M  V30 3213 H 316.086 -3.64035 -0.794329 0
M  V30 3214 H 316.199 -4.73344 0.74042 0
M  V30 3215 H 314.563 -2.52954 0.297739 0
M  V30 3216 H 315.346 -2.83112 1.94172 0
M  V30 3217 N 317.792 -0.46758 -1.50504 0
M  V30 3218 C 319.203 -0.0116166 -1.86696 0
M  V30 3219 C 319.554 1.39202 -1.38265 0
M  V30 3220 O 318.679 2.0313 -0.746132 0
M  V30 3221 C 319.274 -0.0143044 -3.38797 0
M  V30 3222 C 317.833 0.386175 -3.74414 0
M  V30 3223 C 316.98 -0.401287 -2.74381 0
M  V30 3224 H 319.931 -0.682022 -1.43297 0
M  V30 3225 H 319.952 0.788641 -3.72237 0
M  V30 3226 H 319.464 -1.03602 -3.74016 0
M  V30 3227 H 317.565 1.41237 -3.44794 0
M  V30 3228 H 317.678 0.0899596 -4.79016 0
M  V30 3229 H 316.042 0.144536 -2.5429 0
M  V30 3230 H 316.825 -1.42244 -3.12444 0
M  V30 3231 N 319.27 1.56325 -0.20005 0
M  V30 3232 C 320.495 2.02548 0.44597 0
M  V30 3233 C 320.92 1.07922 1.5406 0
M  V30 3234 O 320.278 0.0635775 1.81188 0
M  V30 3235 C 320.326 3.47175 0.974761 0
M  V30 3236 O 319.43 3.55671 2.08739 0
M  V30 3237 H 318.771 0.655862 0.103638 0
M  V30 3238 H 321.301 2.02201 -0.312381 0
M  V30 3239 H 321.311 3.87067 1.2901 0
M  V30 3240 H 319.986 4.15538 0.17347 0
M  V30 3241 H 318.563 3.27657 1.78032 0
M  V30 3242 N 320.748 -0.0735177 1.57428 0
M  V30 3243 C 321.994 -0.768909 1.88307 0
M  V30 3244 C 322.349 -1.75273 0.793535 0
M  V30 3245 O 321.642 -1.90527 -0.202466 0
M  V30 3246 C 321.836 -1.51799 3.23561 0
M  V30 3247 C 321.665 -0.608217 4.45568 0
M  V30 3248 C 320.435 -0.245808 5.04702 0
M  V30 3249 C 322.633 0.0942904 5.14214 0
M  V30 3250 N 320.615 0.66987 6.10234 0
M  V30 3251 C 321.986 0.867222 6.13905 0
M  V30 3252 C 324.041 0.165943 4.97623 0
M  V30 3253 C 322.744 1.70515 6.98797 0
M  V30 3254 C 324.77 0.990837 5.83041 0
M  V30 3255 C 324.132 1.75182 6.82269 0
M  V30 3256 H 320.231 -0.25685 0.738615 0
M  V30 3257 H 322.815 -0.030499 1.94676 0
M  V30 3258 H 320.986 -2.22713 3.18203 0
M  V30 3259 H 322.718 -2.16226 3.42094 0
M  V30 3260 H 319.473 -0.598284 4.69806 0
M  V30 3261 H 319.897 1.1209 6.67656 0
M  V30 3262 H 324.539 -0.408064 4.20826 0
M  V30 3263 H 322.257 2.29013 7.7497 0
M  V30 3264 H 325.843 1.04923 5.72261 0
M  V30 3265 H 324.723 2.37983 7.47217 0
M  V30 3266 N 322.226 -1.5378 -0.344866 0
M  V30 3267 C 323.176 -1.78057 -1.42407 0
M  V30 3268 C 324.16 -0.635732 -1.47808 0
M  V30 3269 O 325.352 -0.89508 -1.527 0
M  V30 3270 C 322.481 -1.99242 -2.79566 0
M  V30 3271 C 321.567 -3.19787 -2.78562 0
M  V30 3272 N 321.958 -4.41284 -2.47189 0
M  V30 3273 C 320.256 -3.2093 -3.0971 0
M  V30 3274 C 320.957 -5.23128 -2.54385 0
M  V30 3275 N 319.933 -4.59813 -2.89953 0
M  V30 3276 H 323.735 -2.69588 -1.17046 0
M  V30 3277 H 321.249 -1.52687 -0.553217 0
M  V30 3278 H 323.246 -2.14768 -3.57324 0
M  V30 3279 H 321.906 -1.08953 -3.05875 0
M  V30 3280 H 322.917 -4.68657 -2.20411 0
M  V30 3281 H 319.594 -2.40603 -3.41199 0
M  V30 3282 H 320.984 -6.30096 -2.333 0
M  V30 3283 N 323.704 0.605807 -1.45491 0
M  V30 3284 C 324.953 1.36086 -1.48874 0
M  V30 3285 C 325.266 1.95131 -0.135333 0
M  V30 3286 O 326.472 2.7146 -0.0468144 0
M  V30 3287 C 324.928 2.46518 -2.62215 0
M  V30 3288 C 324.536 1.93877 -4.03876 0
M  V30 3289 C 326.28 3.23512 -2.74846 0
M  V30 3290 C 324.187 3.01801 -5.08596 0
M  V30 3291 H 323.117 0.511497 -0.553974 0
M  V30 3292 H 325.768 0.649089 -1.71636 0
M  V30 3293 H 324.15 3.20388 -2.32739 0
M  V30 3294 H 325.324 1.26704 -4.43038 0
M  V30 3295 H 323.639 1.29622 -3.95711 0
M  V30 3296 H 326.236 4.04013 -3.50253 0
M  V30 3297 H 326.579 3.74631 -1.81542 0
M  V30 3298 H 327.112 2.56742 -3.03856 0
M  V30 3299 H 323.851 2.55597 -6.03614 0
M  V30 3300 H 323.371 3.67535 -4.74002 0
M  V30 3301 H 325.05 3.66152 -5.33424 0
M  V30 3302 N 325.182 1.32811 0.848464 0
M  V30 3303 C 326.129 1.22265 1.95755 0
M  V30 3304 C 327.099 0.103413 1.65778 0
M  V30 3305 O 328.284 0.280033 1.88734 0
M  V30 3306 C 325.424 0.958014 3.31536 0
M  V30 3307 C 324.537 2.16262 3.73971 0
M  V30 3308 C 323.672 1.83295 4.98575 0
M  V30 3309 C 322.711 3.00041 5.33518 0
M  V30 3310 N 321.848 2.67125 6.49299 0
M  V30 3311 H 326.688 2.17128 2.04107 0
M  V30 3312 H 324.225 1.07982 0.998913 0
M  V30 3313 H 326.183 0.785052 4.09747 0
M  V30 3314 H 324.813 0.046159 3.22767 0
M  V30 3315 H 323.865 2.44565 2.91362 0
M  V30 3316 H 325.177 3.03572 3.95785 0
M  V30 3317 H 324.331 1.62586 5.84509 0
M  V30 3318 H 323.07 0.932078 4.7871 0
M  V30 3319 H 322.075 3.21374 4.46093 0
M  V30 3320 H 323.3 3.90869 5.55336 0
M  V30 3321 H 321.246 1.79586 6.3094 0
M  V30 3322 H 321.163 3.47965 6.71161 0
M  V30 3323 H 322.431 2.49861 7.3837 0
M  V30 3324 N 326.66 -1.06551 1.16123 0
M  V30 3325 C 327.592 -2.13908 0.823171 0
M  V30 3326 C 328.605 -1.61926 -0.16843 0
M  V30 3327 O 329.794 -1.78412 0.055962 0
M  V30 3328 C 326.894 -3.38283 0.204424 0
M  V30 3329 C 326.067 -4.19589 1.23548 0
M  V30 3330 C 325.126 -5.2233 0.637011 0
M  V30 3331 O 324.152 -5.54034 1.30516 0
M  V30 3332 N 325.354 -5.77621 -0.577474 0
M  V30 3333 H 328.119 -2.43508 1.74711 0
M  V30 3334 H 325.68 -1.2253 1.05821 0
M  V30 3335 H 327.672 -4.0416 -0.208909 0
M  V30 3336 H 326.242 -3.06329 -0.623012 0
M  V30 3337 H 325.462 -3.49406 1.82507 0
M  V30 3338 H 326.75 -4.70718 1.93137 0
M  V30 3339 H 326.148 -5.54125 -1.13853 0
M  V30 3340 H 324.705 -6.45087 -0.933053 0
M  V30 3341 N 328.138 -0.959301 -1.25041 0
M  V30 3342 C 329.068 -0.501388 -2.28053 0
M  V30 3343 C 330.049 0.454673 -1.63911 0
M  V30 3344 O 331.234 0.352618 -1.90972 0
M  V30 3345 C 328.364 0.217224 -3.4662 0
M  V30 3346 C 327.318 -0.654034 -4.22973 0
M  V30 3347 C 326.644 0.195589 -5.34342 0
M  V30 3348 C 327.944 -1.93447 -4.85155 0
M  V30 3349 H 329.638 -1.36238 -2.66608 0
M  V30 3350 H 327.184 -0.656534 -1.28163 0
M  V30 3351 H 329.137 0.548732 -4.17812 0
M  V30 3352 H 327.861 1.1125 -3.07068 0
M  V30 3353 H 326.52 -0.968693 -3.5357 0
M  V30 3354 H 326.168 1.09076 -4.91031 0
M  V30 3355 H 325.868 -0.384091 -5.86343 0
M  V30 3356 H 327.392 0.521958 -6.08365 0
M  V30 3357 H 328.806 -1.66908 -5.48466 0
M  V30 3358 H 327.203 -2.46018 -5.47353 0
M  V30 3359 H 328.273 -2.63466 -4.07079 0
M  V30 3360 N 329.616 1.39756 -0.72842 0
M  V30 3361 C 330.846 2.04651 -0.283117 0
M  V30 3362 C 331.254 1.5502 1.08469 0
M  V30 3363 O 330.597 0.707343 1.69536 0
M  V30 3364 C 330.659 3.58947 -0.199309 0
M  V30 3365 C 330.323 4.31525 -1.5045 0
M  V30 3366 C 331.32 4.5861 -2.44894 0
M  V30 3367 C 329.005 4.70195 -1.76698 0
M  V30 3368 C 330.999 5.23366 -3.63822 0
M  V30 3369 C 328.686 5.3468 -2.95906 0
M  V30 3370 C 329.684 5.61198 -3.89289 0
M  V30 3371 O 329.372 6.24347 -5.06404 0
M  V30 3372 H 329.104 0.664777 -0.122666 0
M  V30 3373 H 331.658 1.79913 -0.990987 0
M  V30 3374 H 329.888 3.82556 0.56461 0
M  V30 3375 H 331.577 4.0534 0.213125 0
M  V30 3376 H 332.343 4.29187 -2.25883 0
M  V30 3377 H 328.222 4.48916 -1.04859 0
M  V30 3378 H 331.766 5.4398 -4.36728 0
M  V30 3379 H 327.663 5.63524 -3.14819 0
M  V30 3380 H 328.431 6.42842 -5.06652 0
M  V30 3381 N 331.094 0.475555 1.50254 0
M  V30 3382 C 332.024 -0.30611 2.31485 0
M  V30 3383 C 333.005 -0.986228 1.38591 0
M  V30 3384 O 334.19 -0.982541 1.67511 0
M  V30 3385 C 331.32 -1.38588 3.1845 0
M  V30 3386 C 330.274 -0.827115 4.19932 0
M  V30 3387 C 329.6 -2.00551 4.95665 0
M  V30 3388 C 330.9 0.16463 5.2204 0
M  V30 3389 H 332.594 0.371866 2.97082 0
M  V30 3390 H 330.14 0.180282 1.42867 0
M  V30 3391 H 332.093 -1.94023 3.74076 0
M  V30 3392 H 330.817 -2.09269 2.50747 0
M  V30 3393 H 329.476 -0.294702 3.65414 0
M  V30 3394 H 329.124 -2.6994 4.2443 0
M  V30 3395 H 328.824 -1.63784 5.64313 0
M  V30 3396 H 330.348 -2.56468 5.54127 0
M  V30 3397 H 331.762 -0.300699 5.72511 0
M  V30 3398 H 330.159 0.446813 5.98434 0
M  V30 3399 H 331.229 1.08905 4.72512 0
M  V30 3400 N 332.573 -1.56217 0.208337 0
M  V30 3401 C 333.505 -2.1695 -0.739276 0
M  V30 3402 C 334.518 -1.13492 -1.1672 0
M  V30 3403 O 335.707 -1.40529 -1.10063 0
M  V30 3404 C 332.807 -2.72755 -2.01142 0
M  V30 3405 C 331.98 -4.0125 -1.74118 0
M  V30 3406 C 331.039 -4.41749 -2.85909 0
M  V30 3407 O 330.065 -5.08912 -2.54946 0
M  V30 3408 N 331.267 -4.06342 -4.14568 0
M  V30 3409 H 334.032 -2.98893 -0.219837 0
M  V30 3410 H 331.593 -1.61878 0.0268445 0
M  V30 3411 H 333.585 -2.96826 -2.75094 0
M  V30 3412 H 332.155 -1.95191 -2.4417 0
M  V30 3413 H 331.375 -3.85173 -0.838775 0
M  V30 3414 H 332.663 -4.851 -1.53477 0
M  V30 3415 H 332.061 -3.52345 -4.42571 0
M  V30 3416 H 330.618 -4.35335 -4.85105 0
M  V30 3417 N 334.051 0.0651679 -1.57465 0
M  V30 3418 C 335.001 1.0838 -2.00594 0
M  V30 3419 C 335.985 1.34106 -0.889071 0
M  V30 3420 O 337.177 1.34295 -1.15299 0
M  V30 3421 C 334.306 2.39565 -2.45894 0
M  V30 3422 C 333.392 2.17085 -3.64328 0
M  V30 3423 N 333.783 1.64553 -4.78285 0
M  V30 3424 C 332.081 2.4753 -3.71006 0
M  V30 3425 C 332.782 1.57042 -5.60101 0
M  V30 3426 N 331.758 2.03328 -5.04141 0
M  V30 3427 H 335.56 0.671062 -2.86136 0
M  V30 3428 H 333.074 0.27213 -1.60104 0
M  V30 3429 H 335.071 3.13308 -2.75034 0
M  V30 3430 H 333.731 2.81549 -1.61741 0
M  V30 3431 H 334.742 1.33323 -5.00445 0
M  V30 3432 H 331.419 2.92835 -2.9758 0
M  V30 3433 H 332.809 1.17223 -6.61595 0
M  V30 3434 N 335.529 1.53961 0.336706 0
M  V30 3435 C 336.945 1.44378 0.680241 0
M  V30 3436 C 337.145 0.606034 1.9217 0
M  V30 3437 O 336.201 0.099688 2.52303 0
M  V30 3438 C 337.514 2.87945 0.8665 0
M  V30 3439 C 339.062 2.97763 0.964682 0
M  V30 3440 C 339.537 4.42453 1.18321 0
M  V30 3441 N 341.028 4.46008 1.25025 0
M  V30 3442 C 341.763 5.55102 1.43697 0
M  V30 3443 N 341.259 6.7419 1.59498 0
M  V30 3444 N 343.052 5.42727 1.463 0
M  V30 3445 H 335.203 2.06918 -0.479455 0
M  V30 3446 H 337.466 0.935634 -0.152619 0
M  V30 3447 H 337.172 3.51691 0.0256937 0
M  V30 3448 H 337.046 3.33293 1.76623 0
M  V30 3449 H 339.433 2.34153 1.796 0
M  V30 3450 H 339.514 2.55766 0.041708 0
M  V30 3451 H 339.158 5.06645 0.356788 0
M  V30 3452 H 339.088 4.82048 2.11985 0
M  V30 3453 H 341.579 3.60196 1.14312 0
M  V30 3454 H 341.892 7.53095 1.734 0
M  V30 3455 H 340.237 6.77123 1.56621 0
M  V30 3456 H 343.428 4.48647 1.33543 0
M  V30 3457 H 343.601 6.27806 1.6051 0
M  V30 3458 N 337.007 -0.598083 1.45811 0
M  V30 3459 C 338.253 -1.35882 1.50545 0
M  V30 3460 C 338.586 -1.93616 0.150445 0
M  V30 3461 O 337.861 -1.75604 -0.83628 0
M  V30 3462 C 338.144 -2.49966 2.59208 0
M  V30 3463 C 337.997 -1.97367 4.04186 0
M  V30 3464 C 339.316 -3.52068 2.64076 0
M  V30 3465 H 336.435 -0.492717 0.548087 0
M  V30 3466 H 339.077 -0.673319 1.77669 0
M  V30 3467 H 337.227 -3.08443 2.3621 0
M  V30 3468 H 338.899 -1.43466 4.38423 0
M  V30 3469 H 337.142 -1.283 4.14393 0
M  V30 3470 H 337.813 -2.79649 4.75921 0
M  V30 3471 H 340.289 -3.03448 2.84708 0
M  V30 3472 H 339.165 -4.2937 3.41954 0
M  V30 3473 H 339.426 -4.08304 1.69531 0
M  V30 3474 N 338.485 -1.33259 -0.841409 0
M  V30 3475 C 339.415 -1.25926 -1.96634 0
M  V30 3476 C 340.396 -0.140349 -1.6952 0
M  V30 3477 O 341.581 -0.329707 -1.91381 0
M  V30 3478 C 338.711 -0.99512 -3.32738 0
M  V30 3479 C 337.665 -2.0767 -3.74242 0
M  V30 3480 C 336.991 -1.66474 -5.08125 0
M  V30 3481 C 338.291 -3.49318 -3.88297 0
M  V30 3482 H 339.985 -2.20046 -2.03027 0
M  V30 3483 H 337.531 -1.05931 -0.975425 0
M  V30 3484 H 339.484 -0.930323 -4.11002 0
M  V30 3485 H 338.208 -0.0183004 -3.26595 0
M  V30 3486 H 336.867 -2.13187 -2.98239 0
M  V30 3487 H 336.515 -0.675012 -4.9845 0
M  V30 3488 H 336.215 -2.3885 -5.36865 0
M  V30 3489 H 337.739 -1.61455 -5.88867 0
M  V30 3490 H 339.153 -3.46316 -4.56879 0
M  V30 3491 H 337.55 -4.20158 -4.28471 0
M  V30 3492 H 338.62 -3.8801 -2.9082 0
M  V30 3493 N 339.963 1.05934 -1.16686 0
M  V30 3494 C 341.24 1.75643 -0.860747 0
M  V30 3495 C 341.62 2.01144 0.640641 0
M  V30 3496 O 340.968 1.64147 1.58959 0
M  V30 3497 C 341.178 3.05493 -1.68745 0
M  V30 3498 C 342.526 3.79581 -1.90271 0
M  V30 3499 O 343.55 3.15344 -1.65641 0
M  V30 3500 O 342.409 4.9499 -2.31618 0
M  V30 3501 H 339.503 0.763426 -0.317977 0
M  V30 3502 H 342.049 1.1217 -1.27342 0
M  V30 3503 H 340.821 2.8264 -2.70611 0
M  V30 3504 H 340.444 3.76702 -1.27206 0
M  V30 3505 N 341.441 0.965919 1.2453 0
M  V30 3506 C 342.373 0.452465 2.2469 0
M  V30 3507 C 343.386 -0.437821 1.56802 0
M  V30 3508 O 344.575 -0.244283 1.76821 0
M  V30 3509 C 341.675 -0.366258 3.36915 0
M  V30 3510 C 340.848 0.513701 4.34373 0
M  V30 3511 C 339.907 -0.248716 5.25612 0
M  V30 3512 O 338.933 0.356745 5.68081 0
M  V30 3513 N 340.135 -1.53877 5.59734 0
M  V30 3514 H 342.9 1.31361 2.69378 0
M  V30 3515 H 340.461 0.837541 1.38553 0
M  V30 3516 H 342.453 -0.884297 3.94921 0
M  V30 3517 H 341.023 -1.12832 2.91526 0
M  V30 3518 H 340.243 1.21273 3.75082 0
M  V30 3519 H 341.531 1.11391 4.96457 0
M  V30 3520 H 340.929 -2.05243 5.27154 0
M  V30 3521 H 339.486 -2.00254 6.20275 0
M  V30 3522 N 342.919 -1.39368 0.735821 0
M  V30 3523 C 343.852 -2.28155 0.0451175 0
M  V30 3524 C 344.83 -1.44433 -0.746852 0
M  V30 3525 O 346.014 -1.73823 -0.729237 0
M  V30 3526 C 343.141 -3.253 -0.943266 0
M  V30 3527 C 342.187 -4.25826 -0.239685 0
M  V30 3528 S 343.02 -5.25166 1.04693 0
M  V30 3529 C 344.176 -6.2587 0.0611639 0
M  V30 3530 H 344.409 -2.86388 0.79807 0
M  V30 3531 H 341.942 -1.45104 0.527653 0
M  V30 3532 H 343.9 -3.81789 -1.50824 0
M  V30 3533 H 342.561 -2.66085 -1.66906 0
M  V30 3534 H 341.754 -4.94229 -0.987596 0
M  V30 3535 H 341.356 -3.73141 0.253274 0
M  V30 3536 H 343.648 -6.73007 -0.778941 0
M  V30 3537 H 344.591 -7.04508 0.712362 0
M  V30 3538 H 344.999 -5.63639 -0.311602 0
M  V30 3539 N 344.397 -0.483516 -1.5 0
M  V30 3540 C 345.813 -0.138404 -1.58999 0
M  V30 3541 C 346.013 1.35597 -1.4905 0
M  V30 3542 O 345.069 2.13039 -1.35539 0
M  V30 3543 C 346.382 -0.699658 -2.92447 0
M  V30 3544 C 347.93 -0.664195 -3.05872 0
M  V30 3545 C 348.405 -1.20321 -4.41913 0
M  V30 3546 N 349.896 -1.16315 -4.48358 0
M  V30 3547 C 350.631 -1.55058 -5.52037 0
M  V30 3548 N 350.127 -2.01311 -6.62907 0
M  V30 3549 N 351.92 -1.46584 -5.42651 0
M  V30 3550 H 344.071 -1.45529 -1.5471 0
M  V30 3551 H 346.334 -0.60258 -0.731848 0
M  V30 3552 H 346.04 -1.747 -3.05242 0
M  V30 3553 H 345.914 -0.150194 -3.76901 0
M  V30 3554 H 348.301 0.374272 -2.92717 0
M  V30 3555 H 348.382 -1.25061 -2.23144 0
M  V30 3556 H 348.026 -2.24037 -4.55818 0
M  V30 3557 H 347.956 -0.592896 -5.23252 0
M  V30 3558 H 350.447 -0.824058 -3.68806 0
M  V30 3559 H 350.76 -2.2899 -7.38095 0
M  V30 3560 H 349.105 -2.05273 -6.63994 0
M  V30 3561 H 352.296 -1.10281 -4.54924 0
M  V30 3562 H 352.469 -1.77103 -6.23329 0
M  V30 3563 N 345.875 1.56104 -0.216619 0
M  V30 3564 C 347.1 2.0301 0.424462 0
M  V30 3565 C 347.525 1.0955 1.52907 0
M  V30 3566 O 346.883 0.0827914 1.81111 0
M  V30 3567 C 346.931 3.4819 0.937883 0
M  V30 3568 O 346.035 3.57865 2.04955 0
M  V30 3569 H 345.376 0.656925 0.0966755 0
M  V30 3570 H 347.906 2.01859 -0.33381 0
M  V30 3571 H 347.916 3.88413 1.24897 0
M  V30 3572 H 346.591 4.15699 0.129387 0
M  V30 3573 H 345.168 3.29527 1.74546 0
M  V30 3574 N 347.353 -0.0568162 1.57498 0
M  V30 3575 C 348.6 -0.753104 1.87975 0
M  V30 3576 C 348.928 -1.76815 0.81035 0
M  V30 3577 O 348.183 -1.94756 -0.19199 0
M  V30 3578 C 348.482 -1.48359 3.25153 0
M  V30 3579 C 348.148 -0.60713 4.46794 0
M  V30 3580 C 346.81 -0.365642 4.79809 0
M  V30 3581 C 349.162 -0.000305978 5.212 0
M  V30 3582 C 346.49 0.491905 5.84634 0
M  V30 3583 C 348.842 0.844781 6.26934 0
M  V30 3584 C 347.506 1.096 6.58441 0
M  V30 3585 H 346.776 -0.27558 0.687849 0
M  V30 3586 H 349.423 -0.0135173 1.91495 0
M  V30 3587 H 347.728 -2.29577 3.17492 0
M  V30 3588 H 349.425 -2.02739 3.45974 0
M  V30 3589 H 346.015 -0.805487 4.20963 0
M  V30 3590 H 350.199 -0.173961 4.95995 0
M  V30 3591 H 345.455 0.695131 6.07436 0
M  V30 3592 H 349.629 1.32165 6.83744 0
M  V30 3593 H 347.256 1.76224 7.39492 0
M  V30 3594 N 348.832 -1.54138 -0.328536 0
M  V30 3595 C 350.08 -1.71765 -1.06496 0
M  V30 3596 C 350.401 -0.49149 -1.88704 0
M  V30 3597 O 349.671 0.494539 -1.89555 0
M  V30 3598 H 348.251 -0.633295 -0.396164 0
M  V30 3599 H 350.913 -1.91429 -0.366176 0
M  V30 3600 H 350.009 -2.5951 -1.73381 0
M  V30 3601 N 350.31 0.590341 -1.46126 0
M  V30 3602 C 351.243 1.71434 -1.50617 0
M  V30 3603 C 352.221 1.58543 -0.360948 0
M  V30 3604 O 353.405 1.79865 -0.563985 0
M  V30 3605 C 350.532 3.09422 -1.37753 0
M  V30 3606 C 349.578 3.40854 -2.5636 0
M  V30 3607 S 350.411 3.33773 -4.18755 0
M  V30 3608 C 351.567 4.74312 -4.08386 0
M  V30 3609 H 351.8 1.67364 -2.45717 0
M  V30 3610 H 349.333 0.76845 -1.33919 0
M  V30 3611 H 351.291 3.8903 -1.31018 0
M  V30 3612 H 349.952 3.10989 -0.440949 0
M  V30 3613 H 349.145 4.41368 -2.43332 0
M  V30 3614 H 348.747 2.68798 -2.60046 0
M  V30 3615 H 351.039 5.64522 -3.74595 0
M  V30 3616 H 351.982 4.92397 -5.08872 0
M  V30 3617 H 352.39 4.50803 -3.3976 0
M  V30 3618 N 351.788 1.33704 0.83433 0
M  V30 3619 C 353.016 1.28467 1.62185 0
M  V30 3620 C 353.431 -0.143526 1.88254 0
M  V30 3621 O 352.788 -1.08709 1.4659 0
M  V30 3622 C 352.839 2.06174 2.96942 0
M  V30 3623 O 352.56 3.43422 2.72016 0
M  V30 3624 C 354.061 2.08201 3.91366 0
M  V30 3625 H 351.281 0.4424 0.504503 0
M  V30 3626 H 353.825 1.76145 1.03891 0
M  V30 3627 H 351.98 1.62167 3.51825 0
M  V30 3628 H 352.394 3.83453 3.57861 0
M  V30 3629 H 353.868 2.67017 4.83121 0
M  V30 3630 H 354.345 1.07343 4.2588 0
M  V30 3631 H 354.951 2.52246 3.42421 0
M  V30 3632 N 353.266 -1.05314 1.17247 0
M  V30 3633 C 354.677 -1.59753 0.96623 0
M  V30 3634 C 355.028 -1.9005 -0.487378 0
M  V30 3635 O 354.153 -1.68126 -1.36245 0
M  V30 3636 C 354.748 -2.90249 1.74759 0
M  V30 3637 C 353.307 -3.41352 1.58606 0
M  V30 3638 C 352.454 -2.15103 1.75002 0
M  V30 3639 H 355.405 -0.881406 1.31973 0
M  V30 3640 H 355.426 -3.60097 1.22925 0
M  V30 3641 H 354.938 -2.68166 2.8055 0
M  V30 3642 H 353.039 -3.68474 0.552985 0
M  V30 3643 H 353.152 -4.16019 2.37624 0
M  V30 3644 H 351.516 -2.25804 1.17833 0
M  V30 3645 H 352.299 -1.95491 2.82202 0
M  V30 3646 N 354.744 -0.972509 -1.24016 0
M  V30 3647 C 355.99 -0.637978 -1.92504 0
M  V30 3648 C 356.323 0.825383 -1.75787 0
M  V30 3649 O 355.598 1.59442 -1.11393 0
M  V30 3650 C 355.881 -1.01942 -3.45369 0
M  V30 3651 C 355.734 -2.53983 -3.71231 0
M  V30 3652 C 357.053 -0.55751 -4.36555 0
M  V30 3653 H 354.172 -0.233248 -0.699117 0
M  V30 3654 H 356.814 -1.21238 -1.46292 0
M  V30 3655 H 354.964 -0.530656 -3.84859 0
M  V30 3656 H 356.636 -3.10374 -3.41271 0
M  V30 3657 H 354.879 -2.96968 -3.16216 0
M  V30 3658 H 355.55 -2.75723 -4.78206 0
M  V30 3659 H 358.026 -0.977029 -4.04467 0
M  V30 3660 H 356.902 -0.85292 -5.42233 0
M  V30 3661 H 357.163 0.542328 -4.38761 0
M  V30 3662 N 356.222 1.38976 -0.743202 0
M  V30 3663 C 357.152 2.33171 -0.123873 0
M  V30 3664 C 358.133 1.54336 0.71516 0
M  V30 3665 O 359.318 1.82696 0.658467 0
M  V30 3666 C 356.448 3.38474 0.777978 0
M  V30 3667 C 355.402 4.27979 0.0424758 0
M  V30 3668 C 354.728 5.2405 1.06189 0
M  V30 3669 C 356.028 5.10155 -1.1198 0
M  V30 3670 H 357.722 2.85213 -0.910709 0
M  V30 3671 H 355.268 1.37133 -0.439388 0
M  V30 3672 H 357.221 4.03328 1.22084 0
M  V30 3673 H 355.945 2.84891 1.59702 0
M  V30 3674 H 354.604 3.64616 -0.380853 0
M  V30 3675 H 354.252 4.66758 1.87472 0
M  V30 3676 H 353.952 5.84785 0.574485 0
M  V30 3677 H 355.476 5.9178 1.50428 0
M  V30 3678 H 356.89 5.68307 -0.75499 0
M  V30 3679 H 355.287 5.80073 -1.53738 0
M  V30 3680 H 356.357 4.44504 -1.93764 0
M  V30 3681 N 357.7 0.491464 1.49741 0
M  V30 3682 C 359.111 0.0413169 1.86654 0
M  V30 3683 C 359.462 -1.36985 1.40462 0
M  V30 3684 O 358.587 -2.01917 0.778354 0
M  V30 3685 C 359.182 0.0682023 3.38731 0
M  V30 3686 C 357.741 -0.32656 3.74981 0
M  V30 3687 C 356.888 0.444888 2.73708 0
M  V30 3688 H 359.839 0.704733 1.42194 0
M  V30 3689 H 359.86 -0.729322 3.73445 0
M  V30 3690 H 359.372 1.09539 3.72321 0
M  V30 3691 H 357.473 -1.35734 3.46997 0
M  V30 3692 H 357.586 -0.013741 4.79098 0
M  V30 3693 H 355.95 -0.104062 2.54487 0
M  V30 3694 H 356.733 1.47197 3.10142 0
M  V30 3695 N 359.178 -1.55987 0.224894 0
M  V30 3696 C 360.141 -2.19178 -0.670348 0
M  V30 3697 C 361.141 -1.15461 -1.11917 0
M  V30 3698 O 362.331 -1.40675 -1.02743 0
M  V30 3699 C 359.463 -2.81777 -1.9187 0
M  V30 3700 H 360.656 -2.99662 -0.119364 0
M  V30 3701 H 358.209 -1.5628 -0.0247128 0
M  V30 3702 H 358.944 -2.05172 -2.51147 0
M  V30 3703 H 358.729 -3.57732 -1.60531 0
M  V30 3704 H 360.219 -3.30205 -2.55645 0
M  V30 3705 N 360.656 0.0484629 -1.57525 0
M  V30 3706 C 361.903 0.743125 -1.88372 0
M  V30 3707 C 362.231 1.76383 -0.819715 0
M  V30 3708 O 361.486 1.94855 0.181659 0
M  V30 3709 C 361.785 1.46632 -3.25935 0
M  V30 3710 C 361.451 0.583427 -4.4711 0
M  V30 3711 C 360.113 0.340191 -4.79996 0
M  V30 3712 C 362.465 -0.0273345 -5.21193 0
M  V30 3713 C 359.793 -0.522903 -5.84365 0
M  V30 3714 C 362.145 -0.878017 -6.26477 0
M  V30 3715 C 360.809 -1.1309 -6.5785 0
M  V30 3716 H 360.079 0.271929 -0.689301 0
M  V30 3717 H 362.726 0.00336166 -1.915 0
M  V30 3718 H 361.031 2.2789 -3.18706 0
M  V30 3719 H 362.728 2.00902 -3.47044 0
M  V30 3720 H 359.318 0.783151 -4.21384 0
M  V30 3721 H 363.502 0.147654 -4.9608 0
M  V30 3722 H 358.758 -0.727335 -6.07058 0
M  V30 3723 H 362.932 -1.35789 -6.83033 0
M  V30 3724 H 360.559 -1.80144 -7.38547 0
M  V30 3725 N 362.134 1.5431 0.320358 0
M  V30 3726 C 363.097 1.83195 1.3774 0
M  V30 3727 C 364.097 0.703906 1.44575 0
M  V30 3728 O 365.287 0.972214 1.44546 0
M  V30 3729 C 362.419 1.99487 2.76438 0
M  V30 3730 H 363.612 2.77642 1.1338 0
M  V30 3731 H 361.165 1.46076 0.556012 0
M  V30 3732 H 361.9 1.07262 3.06048 0
M  V30 3733 H 361.685 2.81575 2.7287 0
M  V30 3734 H 363.175 2.23271 3.52902 0
M  V30 3735 N 363.613 -0.582584 1.46437 0
M  V30 3736 C 364.861 -1.33814 1.51453 0
M  V30 3737 C 365.182 -1.94277 0.167792 0
M  V30 3738 O 364.452 -1.78566 -0.805677 0
M  V30 3739 H 363.032 -0.496838 0.557818 0
M  V30 3740 H 365.694 -0.682281 1.82568 0
M  V30 3741 H 364.79 -2.14479 2.26728 0
M  V30 3742 N 365.091 -1.34144 -0.827227 0
M  V30 3743 C 366.041 -1.21923 -1.92663 0
M  V30 3744 C 367.025 -0.119294 -1.60457 0
M  V30 3745 O 368.217 -0.348539 -1.73534 0
M  V30 3746 C 365.346 -0.972492 -3.29238 0
M  V30 3747 C 364.432 -2.1154 -3.67576 0
M  V30 3748 N 364.823 -3.36627 -3.77512 0
M  V30 3749 C 363.121 -2.02468 -3.97395 0
M  V30 3750 C 363.822 -4.11658 -4.1099 0
M  V30 3751 N 362.798 -3.40207 -4.23981 0
M  V30 3752 H 366.6 -2.16721 -1.98517 0
M  V30 3753 H 364.114 -1.2632 -1.02064 0
M  V30 3754 H 366.111 -0.865847 -4.0781 0
M  V30 3755 H 364.771 -0.0331509 -3.24683 0
M  V30 3756 H 365.782 -3.71234 -3.61118 0
M  V30 3757 H 362.459 -1.16265 -4.00985 0
M  V30 3758 H 363.849 -5.19657 -4.25918 0
M  V30 3759 N 366.569 1.04691 -1.17803 0
M  V30 3760 C 367.815 1.78045 -0.970969 0
M  V30 3761 C 368.148 1.87686 0.498751 0
M  V30 3762 O 367.423 1.38035 1.37027 0
M  V30 3763 C 367.706 3.2166 -1.61884 0
M  V30 3764 C 367.559 3.20001 -3.161 0
M  V30 3765 C 368.878 4.1962 -1.3269 0
M  V30 3766 H 365.997 0.64633 -0.354155 0
M  V30 3767 H 368.639 1.22333 -1.45378 0
M  V30 3768 H 366.789 3.69232 -1.20831 0
M  V30 3769 H 368.461 2.80467 -3.66246 0
M  V30 3770 H 366.704 2.58203 -3.48588 0
M  V30 3771 H 367.375 4.21386 -3.56564 0
M  V30 3772 H 369.851 3.80567 -1.68249 0
M  V30 3773 H 368.727 5.18339 -1.80599 0
M  V30 3774 H 368.988 4.414 -0.248622 0
M  V30 3775 N 368.047 0.979072 1.23499 0
M  V30 3776 C 369.458 0.684391 1.73704 0
M  V30 3777 C 369.809 -0.799448 1.79174 0
M  V30 3778 O 368.934 -1.62531 1.42873 0
M  V30 3779 C 369.529 1.23564 3.15464 0
M  V30 3780 C 368.088 0.99063 3.6313 0
M  V30 3781 C 367.235 1.36416 2.41425 0
M  V30 3782 H 370.186 1.15307 1.09041 0
M  V30 3783 H 370.207 0.607417 3.7562 0
M  V30 3784 H 369.719 2.31561 3.1145 0
M  V30 3785 H 367.82 -0.0733136 3.72528 0
M  V30 3786 H 367.933 1.64427 4.5 0
M  V30 3787 H 366.297 0.782616 2.42378 0
M  V30 3788 H 367.08 2.45387 2.40083 0
M  V30 3789 N 369.525 -1.3858 0.750561 0
M  V30 3790 C 370.435 -2.34278 0.122825 0
M  V30 3791 C 371.451 -1.59116 -0.704131 0
M  V30 3792 O 372.627 -1.91326 -0.628987 0
M  V30 3793 C 369.692 -3.38221 -0.762086 0
M  V30 3794 C 368.753 -4.29227 0.078896 0
M  V30 3795 C 367.986 -5.28205 -0.763874 0
M  V30 3796 O 368.209 -5.34112 -2.00201 0
M  V30 3797 O 367.143 -6.01618 -0.18428 0
M  V30 3798 H 370.969 -2.89649 0.913088 0
M  V30 3799 H 368.554 -1.40374 0.511417 0
M  V30 3800 H 370.436 -4.01872 -1.26793 0
M  V30 3801 H 369.111 -2.85211 -1.5309 0
M  V30 3802 H 368.018 -3.68747 0.630621 0
M  V30 3803 H 369.351 -4.85484 0.810289 0
M  V30 3804 N 371.003 -0.499398 -1.49478 0
M  V30 3805 C 371.966 0.268838 -2.27618 0
M  V30 3806 C 372.966 0.895383 -1.33565 0
M  V30 3807 O 374.156 0.760164 -1.56739 0
M  V30 3808 C 371.288 1.38559 -3.11471 0
M  V30 3809 H 372.481 -0.416812 -2.96989 0
M  V30 3810 H 370.034 -0.254313 -1.54217 0
M  V30 3811 H 370.769 2.10544 -2.46661 0
M  V30 3812 H 370.554 0.941797 -3.80621 0
M  V30 3813 H 372.044 1.92678 -3.70493 0
M  V30 3814 N 372.481 1.55866 -0.233164 0
M  V30 3815 C 373.727 1.98897 0.395959 0
M  V30 3816 C 374.06 1.12091 1.58585 0
M  V30 3817 O 373.335 0.181182 1.93654 0
M  V30 3818 C 373.618 3.50658 0.819224 0
M  V30 3819 C 373.471 4.48233 -0.375109 0
M  V30 3820 C 374.79 4.07135 1.67121 0
M  V30 3821 H 371.909 0.723102 0.142451 0
M  V30 3822 H 374.551 1.87082 -0.331725 0
M  V30 3823 H 372.701 3.60857 1.43925 0
M  V30 3824 H 374.373 4.50031 -1.01341 0
M  V30 3825 H 372.616 4.21624 -1.02058 0
M  V30 3826 H 373.287 5.51988 -0.0358328 0
M  V30 3827 H 375.763 3.99952 1.14795 0
M  V30 3828 H 374.639 5.13615 1.93625 0
M  V30 3829 H 374.9 3.54736 2.63846 0
M  V30 3830 N 373.959 -0.0401083 1.57549 0
M  V30 3831 C 375.187 -0.745196 1.93014 0
M  V30 3832 C 375.602 -1.6948 0.831984 0
M  V30 3833 O 374.959 -1.81482 -0.192463 0
M  V30 3834 C 375.01 -1.51176 3.28372 0
M  V30 3835 O 374.731 -0.600284 4.33968 0
M  V30 3836 C 376.232 -2.315 3.78051 0
M  V30 3837 H 373.452 -0.210088 0.637263 0
M  V30 3838 H 375.996 -0.000924689 2.045 0
M  V30 3839 H 374.151 -2.20801 3.18317 0
M  V30 3840 H 374.565 -1.13669 5.12035 0
M  V30 3841 H 376.039 -2.80697 4.75303 0
M  V30 3842 H 376.516 -3.12436 3.08675 0
M  V30 3843 H 377.122 -1.66971 3.91153 0
M  V30 3844 N 375.437 -1.54477 -0.31217 0
M  V30 3845 C 376.853 -1.45442 -0.657185 0
M  V30 3846 C 377.053 -0.63653 -1.91182 0
M  V30 3847 O 376.109 -0.139815 -2.52113 0
M  V30 3848 C 377.422 -2.89287 -0.82058 0
M  V30 3849 C 378.97 -2.9926 -0.917188 0
M  V30 3850 C 379.445 -4.44279 -1.11267 0
M  V30 3851 N 380.936 -4.4794 -1.17914 0
M  V30 3852 C 381.671 -5.57318 -1.34848 0
M  V30 3853 N 381.167 -6.76642 -1.48752 0
M  V30 3854 N 382.96 -5.44986 -1.37647 0
M  V30 3855 H 375.111 -2.06129 0.512313 0
M  V30 3856 H 377.374 -0.933088 0.167485 0
M  V30 3857 H 377.08 -3.51687 0.0302604 0
M  V30 3858 H 376.954 -3.36061 -1.71298 0
M  V30 3859 H 379.341 -2.36981 -1.75852 0
M  V30 3860 H 379.422 -2.558 -0.00101257 0
M  V30 3861 H 379.066 -5.07149 -0.27614 0
M  V30 3862 H 378.996 -4.85359 -2.04289 0
M  V30 3863 H 381.487 -3.61969 -1.08567 0
M  V30 3864 H 381.8 -7.55758 -1.61397 0
M  V30 3865 H 380.145 -6.79529 -1.45828 0
M  V30 3866 H 383.336 -4.50715 -1.26388 0
M  V30 3867 H 383.509 -6.3028 -1.50501 0
M  V30 3868 N 376.915 0.57481 -1.46744 0
M  V30 3869 C 378.161 1.3347 -1.52688 0
M  V30 3870 C 378.494 1.93353 -0.181229 0
M  V30 3871 O 377.769 1.76912 0.808237 0
M  V30 3872 C 378.052 2.45811 -2.63152 0
M  V30 3873 C 377.905 1.90912 -4.07275 0
M  V30 3874 C 379.224 3.47822 -2.69644 0
M  V30 3875 H 376.343 0.483935 -0.555856 0
M  V30 3876 H 378.985 0.644968 -1.78718 0
M  V30 3877 H 377.135 3.04646 -2.41088 0
M  V30 3878 H 378.807 1.36473 -4.4065 0
M  V30 3879 H 377.05 1.21691 -4.16382 0
M  V30 3880 H 377.721 2.72042 -4.80309 0
M  V30 3881 H 380.197 2.9888 -2.895 0
M  V30 3882 H 379.073 4.23876 -3.48742 0
M  V30 3883 H 379.334 4.05555 -1.76005 0
M  V30 3884 N 378.394 1.34581 0.820102 0
M  V30 3885 C 379.641 1.27096 1.57648 0
M  V30 3886 C 379.969 -0.158317 1.93855 0
M  V30 3887 O 379.224 -1.12028 1.60463 0
M  V30 3888 C 379.523 2.10997 2.8847 0
M  V30 3889 C 379.189 3.59966 2.71543 0
M  V30 3890 C 377.851 4.00575 2.66634 0
M  V30 3891 C 380.203 4.54548 2.55021 0
M  V30 3892 C 377.531 5.33953 2.43128 0
M  V30 3893 C 379.883 5.88109 2.33047 0
M  V30 3894 C 378.547 6.27878 2.26552 0
M  V30 3895 H 377.817 0.465078 0.576874 0
M  V30 3896 H 380.464 1.6635 0.948671 0
M  V30 3897 H 378.769 1.6458 3.55557 0
M  V30 3898 H 380.466 2.0255 3.46084 0
M  V30 3899 H 377.056 3.27733 2.76205 0
M  V30 3900 H 381.24 4.24069 2.57835 0
M  V30 3901 H 376.496 5.63781 2.3656 0
M  V30 3902 H 380.67 6.60985 2.19251 0
M  V30 3903 H 378.297 7.31162 2.081 0
M  V30 3904 N 379.872 -1.04064 1.18357 0
M  V30 3905 C 381.283 -1.58719 0.98312 0
M  V30 3906 C 381.634 -1.90556 -0.467193 0
M  V30 3907 O 380.759 -1.69561 -1.34454 0
M  V30 3908 C 381.354 -2.88379 1.77828 0
M  V30 3909 C 379.913 -3.3965 1.62218 0
M  V30 3910 C 379.06 -2.13235 1.77274 0
M  V30 3911 H 382.011 -0.867359 1.32901 0
M  V30 3912 H 382.032 -3.58773 1.26737 0
M  V30 3913 H 381.544 -2.65176 2.83379 0
M  V30 3914 H 379.645 -3.67866 0.592036 0
M  V30 3915 H 379.758 -4.13475 2.42023 0
M  V30 3916 H 378.122 -2.24542 1.20221 0
M  V30 3917 H 378.905 -1.92487 2.8426 0
M  V30 3918 N 381.35 -0.985608 -1.22978 0
M  V30 3919 C 382.282 -0.488154 -2.23941 0
M  V30 3920 C 383.295 0.41282 -1.57479 0
M  V30 3921 O 384.484 0.216121 -1.77187 0
M  V30 3922 C 381.584 0.312611 -3.37455 0
M  V30 3923 C 380.757 -0.582741 -4.33501 0
M  V30 3924 C 379.816 0.165064 -5.25941 0
M  V30 3925 O 378.842 -0.447077 -5.67442 0
M  V30 3926 N 380.044 1.44953 -5.62111 0
M  V30 3927 H 382.809 -1.3563 -2.67254 0
M  V30 3928 H 380.37 -0.859477 -1.37203 0
M  V30 3929 H 382.362 0.821357 -3.96277 0
M  V30 3930 H 380.932 1.0818 -2.93285 0
M  V30 3931 H 380.152 -1.27225 -3.73105 0
M  V30 3932 H 381.44 -1.19275 -4.94622 0
M  V30 3933 H 380.838 1.9683 -5.30353 0
M  V30 3934 H 379.395 1.90361 -6.23383 0
M  V30 3935 N 382.828 1.3818 -0.7579 0
M  V30 3936 C 384.074 2.00316 -0.316453 0
M  V30 3937 C 384.407 1.60026 1.10025 0
M  V30 3938 O 383.682 0.839835 1.75434 0
M  V30 3939 C 383.965 3.57349 -0.444245 0
M  V30 3940 C 383.818 4.07591 -1.90236 0
M  V30 3941 C 385.137 4.3981 0.1598 0
M  V30 3942 H 382.256 0.727741 -0.116459 0
M  V30 3943 H 384.898 1.6406 -0.958352 0
M  V30 3944 H 383.048 3.88365 0.102233 0
M  V30 3945 H 384.72 3.87199 -2.50748 0
M  V30 3946 H 382.963 3.60297 -2.41595 0
M  V30 3947 H 383.634 5.16677 -1.94291 0
M  V30 3948 H 386.11 4.14971 -0.306314 0
M  V30 3949 H 384.986 5.48885 0.0401675 0
M  V30 3950 H 385.247 4.24102 1.24859 0
M  V30 3951 N 384.306 0.507319 1.49211 0
M  V30 3952 C 385.254 -0.281364 2.30892 0
M  V30 3953 C 386.248 -0.95687 1.39787 0
M  V30 3954 O 387.454 -0.883838 1.56807 0
M  V30 3955 H 383.829 -0.109597 0.743971 0
M  V30 3956 H 385.8 0.42744 2.95323 0
M  V30 3957 C 384.549 -1.32918 3.21291 0
M  V30 3958 H 383.872 -0.818799 3.91326 0
M  V30 3959 H 385.312 -1.85288 3.81372 0
M  V30 3960 C 383.771 -2.35074 2.41333 0
M  V30 3961 O 384.301 -3.4108 2.12197 0
M  V30 3962 N 382.507 -2.07705 2.03241 0
M  V30 3963 H 382.054 -1.2152 2.27136 0
M  V30 3964 H 382.012 -2.76283 1.50051 0
M  V30 3965 N 385.784 -1.5574 0.241426 0
M  V30 3966 C 387.03 -1.99104 -0.385406 0
M  V30 3967 C 387.363 -1.1293 -1.57988 0
M  V30 3968 O 386.638 -0.191449 -1.93555 0
M  V30 3969 C 386.921 -3.51087 -0.800616 0
M  V30 3970 C 386.774 -4.48028 0.398874 0
M  V30 3971 C 388.093 -4.08015 -1.64959 0
M  V30 3972 H 385.212 -0.723848 -0.138614 0
M  V30 3973 H 387.854 -1.86903 0.341642 0
M  V30 3974 H 386.004 -3.61615 -1.4201 0
M  V30 3975 H 387.676 -4.49487 1.03726 0
M  V30 3976 H 385.919 -4.21077 1.04293 0
M  V30 3977 H 386.59 -5.51962 0.0651056 0
M  V30 3978 H 389.066 -4.00555 -1.12672 0
M  V30 3979 H 387.942 -5.14635 -1.90898 0
M  V30 3980 H 388.203 -3.56131 -2.61961 0
M  V30 3981 N 387.262 0.0317525 -1.57568 0
M  V30 3982 C 388.49 0.734949 -1.93407 0
M  V30 3983 C 388.905 1.69036 -0.84096 0
M  V30 3984 O 388.262 1.81582 0.182836 0
M  V30 3985 C 388.313 1.49432 -3.29169 0
M  V30 3986 O 388.034 0.577261 -4.3428 0
M  V30 3987 C 389.535 2.29492 -3.79273 0
M  V30 3988 H 386.755 0.206706 -0.638368 0
M  V30 3989 H 389.299 -0.00992046 -2.04498 0
M  V30 3990 H 387.454 2.1911 -3.19483 0
M  V30 3991 H 387.868 1.10952 -5.1263 0
M  V30 3992 H 389.342 2.78172 -4.76785 0
M  V30 3993 H 389.819 3.10794 -3.10328 0
M  V30 3994 H 390.425 1.64894 -3.92033 0
M  V30 3995 N 388.74 1.54641 0.303973 0
M  V30 3996 C 389.687 1.85386 1.37479 0
M  V30 3997 C 390.657 0.702528 1.50512 0
M  V30 3998 O 391.842 0.950867 1.65418 0
M  V30 3999 C 388.982 2.10413 2.73533 0
M  V30 4000 C 388.095 3.38049 2.68974 0
M  V30 4001 C 387.23 3.52934 3.97002 0
M  V30 4002 C 386.269 4.74373 3.86829 0
M  V30 4003 N 385.406 4.8608 5.06627 0
M  V30 4004 H 390.246 2.76732 1.1056 0
M  V30 4005 H 387.783 1.37034 0.534805 0
M  V30 4006 H 389.741 2.22919 3.52652 0
M  V30 4007 H 388.371 1.22338 2.98719 0
M  V30 4008 H 387.423 3.3418 1.81736 0
M  V30 4009 H 388.735 4.27288 2.57346 0
M  V30 4010 H 387.889 3.65088 4.84557 0
M  V30 4011 H 386.628 2.61824 4.1146 0
M  V30 4012 H 385.633 4.62255 2.97658 0
M  V30 4013 H 386.858 5.66888 3.73918 0
M  V30 4014 H 384.804 3.97891 5.21554 0
M  V30 4015 H 384.721 5.69315 4.9741 0
M  V30 4016 H 385.989 5.02587 5.95841 0
M  V30 4017 N 390.218 -0.567019 1.47046 0
M  V30 4018 C 391.151 -1.69016 1.53326 0
M  V30 4019 C 392.129 -1.57949 0.386126 0
M  V30 4020 O 393.313 -1.78945 0.592529 0
M  V30 4021 C 390.44 -3.07191 1.42658 0
M  V30 4022 C 389.486 -3.36733 2.6175 0
M  V30 4023 S 390.319 -3.27069 4.24012 0
M  V30 4024 C 391.475 -4.67755 4.1588 0
M  V30 4025 H 391.708 -1.63434 2.48348 0
M  V30 4026 H 389.241 -0.747048 1.35124 0
M  V30 4027 H 391.199 -3.86897 1.37191 0
M  V30 4028 H 389.86 -3.10249 0.490369 0
M  V30 4029 H 389.053 -4.37441 2.50323 0
M  V30 4030 H 388.655 -2.64627 2.64289 0
M  V30 4031 H 390.947 -5.58491 3.83529 0
M  V30 4032 H 391.89 -4.84239 5.16641 0
M  V30 4033 H 392.298 -4.45341 3.46889 0
M  V30 4034 N 391.696 -1.35014 -0.812953 0
M  V30 4035 C 392.944 -1.27678 -1.56661 0
M  V30 4036 C 393.265 0.150359 -1.94419 0
M  V30 4037 O 392.535 1.08532 -1.63088 0
M  V30 4038 H 391.115 -0.469602 -0.580933 0
M  V30 4039 H 393.777 -1.69043 -0.970076 0
M  V30 4040 H 392.873 -1.88833 -2.48492 0
M  V30 4041 N 393.175 1.03435 -1.18907 0
M  V30 4042 C 394.4 1.80919 -1.01406 0
M  V30 4043 C 394.825 1.83055 0.432721 0
M  V30 4044 O 394.183 1.25252 1.31079 0
M  V30 4045 C 394.231 3.24091 -1.58105 0
M  V30 4046 O 393.335 4.04434 -0.806669 0
M  V30 4047 H 392.676 0.558709 -0.358803 0
M  V30 4048 H 395.206 1.30223 -1.57807 0
M  V30 4049 H 395.216 3.74853 -1.61087 0
M  V30 4050 H 393.891 3.21851 -2.6341 0
M  V30 4051 H 392.468 3.63091 -0.849666 0
M  V30 4052 N 394.653 0.992116 1.22453 0
M  V30 4053 C 395.899 0.678177 1.91761 0
M  V30 4054 C 396.254 -0.781141 1.75829 0
M  V30 4055 O 395.547 -1.55747 1.11595 0
M  V30 4056 C 395.741 1.01832 3.42586 0
M  V30 4057 C 395.57 2.50916 3.73191 0
M  V30 4058 C 394.34 3.17308 3.93248 0
M  V30 4059 C 396.538 3.49032 3.77732 0
M  V30 4060 N 394.52 4.55876 4.11157 0
M  V30 4061 C 395.891 4.73055 4.00773 0
M  V30 4062 C 397.946 3.43349 3.60577 0
M  V30 4063 C 396.649 5.92089 4.0844 0
M  V30 4064 C 398.675 4.61759 3.69503 0
M  V30 4065 C 398.037 5.84582 3.92993 0
M  V30 4066 H 394.136 0.299425 0.722405 0
M  V30 4067 H 396.72 1.27197 1.47408 0
M  V30 4068 H 394.891 0.453118 3.85748 0
M  V30 4069 H 396.623 0.660454 3.99274 0
M  V30 4070 H 393.378 2.67778 3.9063 0
M  V30 4071 H 393.802 5.27748 4.24042 0
M  V30 4072 H 398.444 2.49408 3.41402 0
M  V30 4073 H 396.162 6.86435 4.26418 0
M  V30 4074 H 399.748 4.58951 3.57569 0
M  V30 4075 H 398.628 6.74676 3.99728 0
M  V30 4076 N 396.131 -1.37776 0.765217 0
M  V30 4077 C 397.379 -1.99454 0.325943 0
M  V30 4078 C 397.7 -1.61049 -1.09947 0
M  V30 4079 O 396.97 -0.872821 -1.75381 0
M  V30 4080 H 395.55 -0.737697 0.117525 0
M  V30 4081 H 398.212 -1.68359 0.981895 0
M  V30 4082 H 397.308 -3.09547 0.398353 0
M  V30 4083 N 397.609 -0.515225 -1.4894 0
M  V30 4084 C 398.559 0.275113 -2.26334 0
M  V30 4085 C 399.543 0.923007 -1.31793 0
M  V30 4086 O 400.735 0.828254 -1.56426 0
M  V30 4087 C 397.864 1.33041 -3.16473 0
M  V30 4088 C 396.95 0.688051 -4.18481 0
M  V30 4089 N 397.341 -0.217638 -5.05332 0
M  V30 4090 C 395.639 0.94699 -4.3583 0
M  V30 4091 C 396.34 -0.58676 -5.78733 0
M  V30 4092 N 395.316 0.0486966 -5.43578 0
M  V30 4093 H 399.118 -0.421876 -2.90856 0
M  V30 4094 H 396.632 -0.332249 -1.58965 0
M  V30 4095 H 398.629 1.9102 -3.70563 0
M  V30 4096 H 397.289 2.02894 -2.53504 0
M  V30 4097 H 398.3 -0.589343 -5.14536 0
M  V30 4098 H 394.977 1.63719 -3.8406 0
M  V30 4099 H 396.367 -1.32855 -6.58634 0
M  V30 4100 N 399.087 1.5561 -0.249682 0
M  V30 4101 C 400.334 1.99011 0.374287 0
M  V30 4102 C 400.662 1.13785 1.57744 0
M  V30 4103 O 399.917 0.189326 1.94782 0
M  V30 4104 C 400.216 3.4775 0.824887 0
M  V30 4105 C 399.882 4.50086 -0.270819 0
M  V30 4106 C 398.544 4.77791 -0.571746 0
M  V30 4107 C 400.896 5.11312 -1.01041 0
M  V30 4108 C 398.224 5.63997 -1.61629 0
M  V30 4109 C 400.576 5.98651 -2.0445 0
M  V30 4110 C 399.24 6.24688 -2.35204 0
M  V30 4111 H 398.51 0.728233 0.136961 0
M  V30 4112 H 401.157 1.88122 -0.358087 0
M  V30 4113 H 399.462 3.55985 1.63651 0
M  V30 4114 H 401.159 3.78721 1.31799 0
M  V30 4115 H 397.749 4.28592 -0.026136 0
M  V30 4116 H 401.933 4.89953 -0.791177 0
M  V30 4117 H 397.189 5.82425 -1.85988 0
M  V30 4118 H 401.363 6.45135 -2.62248 0
M  V30 4119 H 398.99 6.91281 -3.16282 0
M  V30 4120 N 400.565 -0.0233959 1.57583 0
M  V30 4121 C 401.513 -1.04063 2.08023 0
M  V30 4122 C 402.507 -1.37084 0.995204 0
M  V30 4123 O 403.713 -1.35923 1.18004 0
M  V30 4124 H 400.088 -0.353144 0.663922 0
M  V30 4125 H 402.059 -0.589453 2.9252 0
M  V30 4126 C 400.808 -2.33123 2.57971 0
M  V30 4127 H 400.131 -2.08577 3.4108 0
M  V30 4128 H 401.571 -3.02632 2.96967 0
M  V30 4129 C 400.03 -3.02483 1.48342 0
M  V30 4130 O 400.56 -3.92541 0.852898 0
M  V30 4131 N 398.766 -2.63909 1.21658 0
M  V30 4132 H 398.313 -1.90758 1.73116 0
M  V30 4133 H 398.271 -3.10633 0.485218 0
M  V30 4134 N 402.043 -1.548 -0.295768 0
M  V30 4135 C 403.283 -1.76069 -1.03823 0
M  V30 4136 C 403.647 -0.537992 -1.84309 0
M  V30 4137 O 404.848 -0.628514 -2.61349 0
M  V30 4138 C 403.119 -3.01705 -1.91596 0
M  V30 4139 S 404.678 -3.43998 -2.72416 0
M  V30 4140 H 401.496 -0.618852 -0.350062 0
M  V30 4141 H 404.098 -1.93009 -0.31106 0
M  V30 4142 H 402.802 -3.88812 -1.31351 0
M  V30 4143 H 402.333 -2.87366 -2.68671 0
M  V30 4144 H 404.348 -3.0148 -3.94112 0
M  V30 4145 N 403.521 0.559213 -1.47345 0
M  V30 4146 C 404.746 1.34676 -1.57725 0
M  V30 4147 C 405.171 1.86723 -0.227164 0
M  V30 4148 O 404.529 1.6286 0.796642 0
M  V30 4149 C 404.577 2.49399 -2.60447 0
M  V30 4150 O 403.681 3.51567 -2.15578 0
M  V30 4151 H 403.022 0.400115 -0.52991 0
M  V30 4152 H 405.552 0.676009 -1.93109 0
M  V30 4153 H 405.562 2.95996 -2.80803 0
M  V30 4154 H 404.237 2.10873 -3.58477 0
M  V30 4155 H 402.814 3.11289 -2.05313 0
M  V30 4156 N 404.999 1.35443 0.805782 0
M  V30 4157 C 406.229 1.31687 1.59192 0
M  V30 4158 C 406.637 -0.10756 1.88894 0
M  V30 4159 O 405.98 -1.07017 1.49309 0
M  V30 4160 C 406.042 2.05686 2.94845 0
M  V30 4161 C 405.706 3.54868 2.87954 0
M  V30 4162 C 406.703 4.49444 2.61335 0
M  V30 4163 C 404.388 3.97528 3.07046 0
M  V30 4164 C 406.382 5.84655 2.53885 0
M  V30 4165 C 404.069 5.32833 2.99219 0
M  V30 4166 C 405.067 6.26209 2.72674 0
M  V30 4167 O 404.755 7.59032 2.64811 0
M  V30 4168 H 404.487 0.453878 0.50097 0
M  V30 4169 H 407.041 1.78892 1.0093 0
M  V30 4170 H 405.271 1.5312 3.55093 0
M  V30 4171 H 406.96 1.94998 3.55993 0
M  V30 4172 H 407.726 4.17804 2.46303 0
M  V30 4173 H 403.605 3.25233 3.26718 0
M  V30 4174 H 407.149 6.57508 2.33086 0
M  V30 4175 H 403.046 5.64087 3.13809 0
M  V30 4176 H 403.814 7.68967 2.80413 0
M  V30 4177 N 406.477 -1.02803 1.19454 0
M  V30 4178 C 407.702 -1.80378 1.02364 0
M  V30 4179 C 408.127 -1.83282 -0.423007 0
M  V30 4180 O 407.485 -1.25945 -1.30413 0
M  V30 4181 C 407.533 -3.23248 1.59821 0
M  V30 4182 O 406.637 -4.04 0.828105 0
M  V30 4183 H 405.978 -0.556799 0.361761 0
M  V30 4184 H 408.508 -1.29385 1.58495 0
M  V30 4185 H 408.518 -3.73994 1.63073 0
M  V30 4186 H 407.193 -3.2045 2.65113 0
M  V30 4187 H 405.77 -3.62635 0.86891 0
M  V30 4188 N 407.956 -0.998596 -1.21925 0
M  V30 4189 C 409.196 -0.685948 -1.92546 0
M  V30 4190 C 409.56 0.768441 -1.75952 0
M  V30 4191 O 410.761 1.19277 -2.40887 0
M  V30 4192 C 409.032 -1.08767 -3.40448 0
M  V30 4193 S 410.591 -0.894251 -4.29591 0
M  V30 4194 H 407.409 -0.250622 -0.665364 0
M  V30 4195 H 410.011 -1.28207 -1.47591 0
M  V30 4196 H 408.715 -2.14242 -3.50041 0
M  V30 4197 H 408.246 -0.48357 -3.90417 0
M  V30 4198 H 410.261 0.212149 -4.95746 0
M  V30 4199 N 409.434 1.37368 -0.772513 0
M  V30 4200 C 410.659 2.0447 -0.347386 0
M  V30 4201 C 411.084 1.57882 1.0225 0
M  V30 4202 O 410.442 0.73941 1.65537 0
M  V30 4203 C 410.49 3.58369 -0.400479 0
M  V30 4204 O 409.594 4.0803 0.598789 0
M  V30 4205 H 408.935 0.646773 -0.15027 0
M  V30 4206 H 411.465 1.75667 -1.04892 0
M  V30 4207 H 411.475 4.07183 -0.258045 0
M  V30 4208 H 410.15 3.91633 -1.39986 0
M  V30 4209 H 408.727 3.70534 0.419411 0
M  V30 4210 N 410.912 0.523116 1.48665 0
M  V30 4211 C 412.159 -0.0134763 2.02496 0
M  V30 4212 C 412.487 -1.3493 1.40086 0
M  V30 4213 O 411.742 -1.88286 0.533567 0
M  V30 4214 C 412.041 -0.191671 3.56886 0
M  V30 4215 C 411.707 1.06893 4.38046 0
M  V30 4216 C 410.369 1.41443 4.59943 0
M  V30 4217 C 412.721 1.90584 4.85106 0
M  V30 4218 C 410.049 2.59594 5.26144 0
M  V30 4219 C 412.401 3.07907 5.52609 0
M  V30 4220 C 411.065 3.42811 5.72745 0
M  V30 4221 H 410.335 -0.00493133 0.740984 0
M  V30 4222 H 412.982 0.687751 1.78724 0
M  V30 4223 H 411.287 -0.97561 3.79459 0
M  V30 4224 H 412.984 -0.621659 3.96152 0
M  V30 4225 H 409.574 0.789848 4.21259 0
M  V30 4226 H 413.758 1.65203 4.67997 0
M  V30 4227 H 409.014 2.86847 5.39934 0
M  V30 4228 H 413.188 3.73066 5.88043 0
M  V30 4229 H 410.815 4.34462 6.23816 0
M  V30 4230 N 412.39 -1.55475 0.257931 0
M  V30 4231 C 413.32 -2.24815 -0.630912 0
M  V30 4232 C 414.301 -1.23224 -1.17259 0
M  V30 4233 O 415.486 -1.51904 -1.20991 0
M  V30 4234 C 412.616 -2.95609 -1.82298 0
M  V30 4235 C 411.57 -4.03982 -1.41359 0
M  V30 4236 C 410.896 -4.6226 -2.68738 0
M  V30 4237 C 412.196 -5.19109 -0.57648 0
M  V30 4238 H 413.89 -2.99354 -0.0526878 0
M  V30 4239 H 411.436 -1.4398 -0.023901 0
M  V30 4240 H 413.389 -3.42822 -2.45054 0
M  V30 4241 H 412.113 -2.18577 -2.42676 0
M  V30 4242 H 410.772 -3.57555 -0.809324 0
M  V30 4243 H 410.42 -3.81915 -3.27338 0
M  V30 4244 H 410.12 -5.35424 -2.42065 0
M  V30 4245 H 411.644 -5.12212 -3.32372 0
M  V30 4246 H 413.058 -5.62479 -1.10861 0
M  V30 4247 H 411.455 -5.98729 -0.405351 0
M  V30 4248 H 412.525 -4.83174 0.408776 0
M  V30 4249 N 413.868 0.0150385 -1.57593 0
M  V30 4250 C 414.798 1.01047 -2.10503 0
M  V30 4251 C 415.779 1.36816 -1.01071 0
M  V30 4252 O 416.964 1.45455 -1.28672 0
M  V30 4253 C 414.094 2.30708 -2.59598 0
M  V30 4254 C 413.048 2.09142 -3.73421 0
M  V30 4255 C 412.374 3.44685 -4.08774 0
M  V30 4256 C 413.674 1.46619 -5.01298 0
M  V30 4257 H 415.368 0.569978 -2.93925 0
M  V30 4258 H 412.914 0.272724 -1.41394 0
M  V30 4259 H 414.867 3.00687 -2.95238 0
M  V30 4260 H 413.591 2.76843 -1.73279 0
M  V30 4261 H 412.25 1.41592 -3.38153 0
M  V30 4262 H 411.898 3.88495 -3.195 0
M  V30 4263 H 411.598 3.31077 -4.8545 0
M  V30 4264 H 413.122 4.16004 -4.4696 0
M  V30 4265 H 414.536 2.06535 -5.34805 0
M  V30 4266 H 412.933 1.43544 -5.82679 0
M  V30 4267 H 414.003 0.433611 -4.82957 0
M  V30 4268 N 415.346 1.54954 0.287554 0
M  V30 4269 C 416.309 1.86076 1.33823 0
M  V30 4270 C 417.309 0.734414 1.43049 0
M  V30 4271 O 418.499 1.00266 1.42452 0
M  V30 4272 C 415.631 2.05305 2.72144 0
M  V30 4273 H 416.824 2.79984 1.07465 0
M  V30 4274 H 414.377 1.47223 0.524902 0
M  V30 4275 H 415.112 1.1373 3.03704 0
M  V30 4276 H 414.897 2.873 2.66836 0
M  V30 4277 H 416.387 2.30706 3.48087 0
M  V30 4278 N 416.824 -0.551391 1.4764 0
M  V30 4279 C 418.235 -1.13349 1.48354 0
M  V30 4280 C 418.586 -1.94709 0.241432 0
M  V30 4281 O 417.711 -2.06306 -0.653205 0
M  V30 4282 C 418.306 -2.0623 2.68802 0
M  V30 4283 C 416.865 -2.597 2.72457 0
M  V30 4284 C 416.012 -1.36201 2.41546 0
M  V30 4285 H 418.963 -0.337698 1.55065 0
M  V30 4286 H 418.984 -2.90196 2.46103 0
M  V30 4287 H 418.496 -1.46987 3.59188 0
M  V30 4288 H 416.597 -3.22724 1.86225 0
M  V30 4289 H 416.71 -3.00296 3.73308 0
M  V30 4290 H 415.074 -1.67068 1.9225 0
M  V30 4291 H 415.857 -0.787425 3.34147 0
M  V30 4292 N 418.302 -1.35869 -0.798587 0
M  V30 4293 C 419.212 -1.31578 -1.94228 0
M  V30 4294 C 420.228 -0.21939 -1.72611 0
M  V30 4295 O 421.404 -0.450167 -1.96305 0
M  V30 4296 C 418.469 -1.09528 -3.28944 0
M  V30 4297 C 417.53 -2.28556 -3.63402 0
M  V30 4298 C 416.763 -2.07549 -4.9169 0
M  V30 4299 O 416.986 -1.046 -5.60727 0
M  V30 4300 O 415.92 -2.95106 -5.24591 0
M  V30 4301 H 419.746 -2.27847 -2.00796 0
M  V30 4302 H 417.331 -1.16322 -0.937526 0
M  V30 4303 H 419.213 -0.991127 -4.09579 0
M  V30 4304 H 417.888 -0.16315 -3.23289 0
M  V30 4305 H 416.795 -2.44538 -2.83112 0
M  V30 4306 H 418.128 -3.20244 -3.73771 0
M  V30 4307 N 419.78 1.02168 -1.19998 0
M  V30 4308 C 421.057 1.72816 -0.916191 0
M  V30 4309 C 421.437 2.03081 0.576325 0
M  V30 4310 O 420.785 1.69122 1.53656 0
M  V30 4311 C 420.995 2.9997 -1.78378 0
M  V30 4312 C 422.343 3.73336 -2.02251 0
M  V30 4313 O 423.367 3.09914 -1.75589 0
M  V30 4314 O 422.226 4.87371 -2.47249 0
M  V30 4315 H 419.32 0.752924 -0.342103 0
M  V30 4316 H 421.866 1.08062 -1.30846 0
M  V30 4317 H 420.638 2.73888 -2.79466 0
M  V30 4318 H 420.261 3.72464 -1.39126 0
M  V30 4319 N 421.258 1.00505 1.21394 0
M  V30 4320 C 422.669 0.721082 1.72213 0
M  V30 4321 C 423.02 -0.761263 1.80829 0
M  V30 4322 O 422.145 -1.59464 1.46288 0
M  V30 4323 C 422.74 1.30228 3.12772 0
M  V30 4324 C 421.299 1.06743 3.60947 0
M  V30 4325 C 420.446 1.41507 2.38477 0
M  V30 4326 H 423.397 1.17594 1.06571 0
M  V30 4327 H 423.418 0.686955 3.74247 0
M  V30 4328 H 422.93 2.38115 3.06468 0
M  V30 4329 H 421.031 0.00572162 3.726 0
M  V30 4330 H 421.144 1.73936 4.46411 0
M  V30 4331 H 419.508 0.833852 2.40664 0
M  V30 4332 H 420.291 2.50424 2.34824 0
M  V30 4333 N 422.737 -1.36956 0.779787 0
M  V30 4334 C 423.986 -1.98738 0.344405 0
M  V30 4335 C 424.299 -1.62596 -1.08728 0
M  V30 4336 O 425.505 -2.1754 -1.62445 0
M  V30 4337 C 423.961 -3.5544 0.564829 0
M  V30 4338 C 423.569 -4.00514 2.0073 0
M  V30 4339 C 425.313 -4.24059 0.193471 0
M  V30 4340 C 423.22 -5.49957 2.17489 0
M  V30 4341 H 422.15 -0.743561 0.12503 0
M  V30 4342 H 424.801 -1.56381 0.960057 0
M  V30 4343 H 423.183 -3.95817 -0.120397 0
M  V30 4344 H 424.357 -3.71362 2.72814 0
M  V30 4345 H 422.672 -3.44703 2.336 0
M  V30 4346 H 425.269 -5.33874 0.297097 0
M  V30 4347 H 425.612 -4.07378 -0.857263 0
M  V30 4348 H 426.145 -3.89012 0.831556 0
M  V30 4349 H 422.884 -5.71574 3.2091 0
M  V30 4350 H 422.404 -5.80767 1.49899 0
M  V30 4351 H 424.083 -6.16043 1.97738 0
M  V30 4352 N 424.215 -0.530993 -1.48385 0
M  V30 4353 C 425.462 0.0027373 -2.025 0
M  V30 4354 C 425.79 1.34186 -1.40799 0
M  V30 4355 O 425.045 1.88 -0.543544 0
M  V30 4356 C 425.344 0.172742 -3.56982 0
M  V30 4357 C 425.01 -1.09215 -4.37473 0
M  V30 4358 C 423.672 -1.43881 -4.59186 0
M  V30 4359 C 426.024 -1.93153 -4.84088 0
M  V30 4360 C 423.352 -2.62381 -5.2476 0
M  V30 4361 C 425.704 -3.10833 -5.50968 0
M  V30 4362 C 424.368 -3.45843 -5.70919 0
M  V30 4363 H 423.638 0.00100165 -0.740999 0
M  V30 4364 H 426.285 -0.697219 -1.78357 0
M  V30 4365 H 424.59 0.955473 -3.79971 0
M  V30 4366 H 426.287 0.600642 -3.96476 0
M  V30 4367 H 422.877 -0.812177 -4.20834 0
M  V30 4368 H 427.061 -1.67683 -4.67115 0
M  V30 4369 H 422.317 -2.89707 -5.38405 0
M  V30 4370 H 426.491 -3.7618 -5.86056 0
M  V30 4371 H 424.118 -4.37764 -6.21503 0
M  V30 4372 N 425.693 1.55336 -0.266172 0
M  V30 4373 C 427.104 1.85236 0.233315 0
M  V30 4374 C 427.455 1.18816 1.56132 0
M  V30 4375 O 426.58 0.473307 2.11161 0
M  V30 4376 C 427.175 3.36059 0.430113 0
M  V30 4377 C 425.734 3.66116 0.873842 0
M  V30 4378 C 424.881 2.77274 -0.0380016 0
M  V30 4379 H 427.832 1.51004 -0.488214 0
M  V30 4380 H 427.853 3.58681 1.26998 0
M  V30 4381 H 427.365 3.84373 -0.536588 0
M  V30 4382 H 425.466 3.23295 1.85233 0
M  V30 4383 H 425.579 4.73699 0.717358 0
M  V30 4384 H 423.943 2.50198 0.476759 0
M  V30 4385 H 424.726 3.284 -1.00042 0
M  V30 4386 N 427.171 -0.0066808 1.57599 0
M  V30 4387 C 428.42 -0.692078 1.89455 0
M  V30 4388 C 428.733 -1.75306 0.867586 0
M  V30 4389 O 429.939 -2.49262 1.07614 0
M  V30 4390 C 428.395 -1.2821 3.36289 0
M  V30 4391 C 428.003 -0.256291 4.47266 0
M  V30 4392 C 429.747 -1.94608 3.77264 0
M  V30 4393 C 427.654 -0.855927 5.85173 0
M  V30 4394 H 426.584 -0.262252 0.706923 0
M  V30 4395 H 429.235 0.052769 1.83424 0
M  V30 4396 H 427.617 -2.0774 3.37135 0
M  V30 4397 H 428.791 0.513923 4.57925 0
M  V30 4398 H 427.106 0.306862 4.15268 0
M  V30 4399 H 429.703 -2.40364 4.77629 0
M  V30 4400 H 430.046 -2.77382 3.10427 0
M  V30 4401 H 430.579 -1.21822 3.78688 0
M  V30 4402 H 427.318 -0.0671161 6.55466 0
M  V30 4403 H 426.838 -1.59546 5.78191 0
M  V30 4404 H 428.517 -1.35658 6.32618 0
M  V30 4405 N 428.649 -1.55105 -0.279332 0
M  V30 4406 C 429.898 -1.74618 -1.00952 0
M  V30 4407 C 430.211 -0.551096 -1.87676 0
M  V30 4408 O 431.417 -0.628507 -2.64125 0
M  V30 4409 C 429.873 -3.09025 -1.84476 0
M  V30 4410 C 429.481 -4.36081 -1.0265 0
M  V30 4411 C 431.225 -3.37891 -2.56963 0
M  V30 4412 C 429.132 -5.6153 -1.85576 0
M  V30 4413 H 428.062 -0.650868 -0.38064 0
M  V30 4414 H 430.713 -1.81569 -0.265475 0
M  V30 4415 H 429.095 -2.96095 -2.62952 0
M  V30 4416 H 430.269 -4.59909 -0.286354 0
M  V30 4417 H 428.584 -4.14312 -0.416464 0
M  V30 4418 H 431.181 -4.28822 -3.19399 0
M  V30 4419 H 431.524 -2.57737 -3.26921 0
M  V30 4420 H 432.057 -3.5189 -1.85522 0
M  V30 4421 H 428.796 -6.44413 -1.2005 0
M  V30 4422 H 428.316 -5.41854 -2.57204 0
M  V30 4423 H 429.995 -5.99594 -2.43096 0
M  V30 4424 N 430.127 0.543554 -1.4793 0
M  V30 4425 C 431.375 1.29752 -1.54948 0
M  V30 4426 C 431.696 1.93764 -0.219242 0
M  V30 4427 O 430.966 1.80639 0.75805 0
M  V30 4428 H 429.546 0.481874 -0.570795 0
M  V30 4429 H 432.208 0.633636 -1.84312 0
M  V30 4430 H 431.304 2.08392 -2.32334 0
M  V30 4431 N 431.605 1.3629 0.791371 0
M  V30 4432 C 432.83 1.33726 1.58531 0
M  V30 4433 C 433.255 -0.0794933 1.87932 0
M  V30 4434 O 432.613 -1.05087 1.47738 0
M  V30 4435 C 432.661 2.16425 2.88431 0
M  V30 4436 O 431.765 1.5554 3.81944 0
M  V30 4437 H 431.106 0.457793 0.480959 0
M  V30 4438 H 433.636 1.79547 0.981031 0
M  V30 4439 H 433.646 2.28933 3.37718 0
M  V30 4440 H 432.321 3.19415 2.66359 0
M  V30 4441 H 430.898 1.51961 3.40532 0
M  V30 4442 N 433.083 -1.0153 1.20538 0
M  V30 4443 C 434.013 -2.11972 0.979295 0
M  V30 4444 C 434.994 -1.6985 -0.0921787 0
M  V30 4445 O 436.179 -1.94089 0.0655932 0
M  V30 4446 C 433.309 -3.43201 0.531984 0
M  V30 4447 C 432.263 -3.9907 1.54685 0
M  V30 4448 C 431.589 -5.26082 0.956127 0
M  V30 4449 C 432.889 -4.32313 2.93092 0
M  V30 4450 H 434.583 -2.31143 1.90298 0
M  V30 4451 H 432.129 -1.11079 0.916372 0
M  V30 4452 H 434.082 -4.1985 0.361044 0
M  V30 4453 H 432.806 -3.23792 -0.427327 0
M  V30 4454 H 431.465 -3.2453 1.70517 0
M  V30 4455 H 431.113 -5.02999 -0.0111538 0
M  V30 4456 H 430.813 -5.64426 1.63393 0
M  V30 4457 H 432.337 -6.05386 0.796284 0
M  V30 4458 H 433.751 -4.99845 2.80763 0
M  V30 4459 H 432.148 -4.81774 3.57791 0
M  V30 4460 H 433.218 -3.41025 3.44717 0
M  V30 4461 N 434.561 -1.01147 -1.20859 0
M  V30 4462 C 435.808 -0.697865 -1.90095 0
M  V30 4463 C 436.136 0.772014 -1.78522 0
M  V30 4464 O 435.391 1.57595 -1.16027 0
M  V30 4465 C 435.69 -1.0727 -3.40922 0
M  V30 4466 C 435.356 -2.53792 -3.72693 0
M  V30 4467 C 434.018 -2.93829 -3.81075 0
M  V30 4468 C 436.37 -3.48674 -3.87397 0
M  V30 4469 C 433.698 -4.27696 -4.01613 0
M  V30 4470 C 436.05 -4.82223 -4.09444 0
M  V30 4471 C 434.714 -5.21973 -4.16054 0
M  V30 4472 H 433.984 -0.255367 -0.695607 0
M  V30 4473 H 436.631 -1.27111 -1.43231 0
M  V30 4474 H 434.936 -0.417799 -3.89566 0
M  V30 4475 H 436.633 -0.807818 -3.92779 0
M  V30 4476 H 433.223 -2.21768 -3.66765 0
M  V30 4477 H 437.407 -3.18904 -3.80281 0
M  V30 4478 H 432.663 -4.58055 -4.04964 0
M  V30 4479 H 436.837 -5.55672 -4.19763 0
M  V30 4480 H 434.464 -6.25717 -4.31721 0
M  V30 4481 N 436.039 1.36541 -0.78704 0
M  V30 4482 C 436.969 2.32659 -0.197992 0
M  V30 4483 C 437.95 1.56533 0.665697 0
M  V30 4484 O 439.135 1.84698 0.60001 0
M  V30 4485 C 436.265 3.40778 0.669901 0
M  V30 4486 C 435.219 4.27897 -0.0937039 0
M  V30 4487 C 434.545 5.27163 0.894629 0
M  V30 4488 C 435.845 5.06334 -1.28154 0
M  V30 4489 H 437.539 2.82171 -1.00099 0
M  V30 4490 H 435.085 1.35665 -0.482793 0
M  V30 4491 H 437.038 4.07008 1.09191 0
M  V30 4492 H 435.762 2.89827 1.50558 0
M  V30 4493 H 434.421 3.6322 -0.49666 0
M  V30 4494 H 434.069 4.72486 1.72527 0
M  V30 4495 H 433.769 5.86317 0.388149 0
M  V30 4496 H 435.293 5.96266 1.31525 0
M  V30 4497 H 436.707 5.65617 -0.93541 0
M  V30 4498 H 435.104 5.74888 -1.72115 0
M  V30 4499 H 436.174 4.38114 -2.07807 0
M  V30 4500 N 437.518 0.538854 1.48102 0
M  V30 4501 C 438.934 0.19732 1.58376 0
M  V30 4502 C 439.134 -1.29971 1.5398 0
M  V30 4503 O 438.19 -2.07861 1.43352 0
M  V30 4504 C 439.503 0.807716 2.89649 0
M  V30 4505 C 441.051 0.77726 3.03196 0
M  V30 4506 C 441.526 1.36639 4.37143 0
M  V30 4507 N 443.017 1.32875 4.43732 0
M  V30 4508 C 443.752 1.7544 5.45901 0
M  V30 4509 N 443.248 2.25776 6.54979 0
M  V30 4510 N 445.041 1.66623 5.36836 0
M  V30 4511 H 437.192 1.5117 1.49202 0
M  V30 4512 H 439.455 0.629327 0.708979 0
M  V30 4513 H 439.161 1.85909 2.98548 0
M  V30 4514 H 439.035 0.289975 3.76084 0
M  V30 4515 H 441.422 -0.265374 2.93904 0
M  V30 4516 H 441.503 1.33256 2.18349 0
M  V30 4517 H 441.147 2.408 4.47189 0
M  V30 4518 H 441.077 0.786689 5.20691 0
M  V30 4519 H 443.568 0.96037 3.65493 0
M  V30 4520 H 443.881 2.56226 7.29087 0
M  V30 4521 H 442.226 2.29775 6.55918 0
M  V30 4522 H 445.417 1.27089 4.50517 0
M  V30 4523 H 445.59 2.00115 6.16326 0
M  V30 4524 N 438.996 -1.55193 0.274407 0
M  V30 4525 C 439.906 -2.26164 -0.623473 0
M  V30 4526 C 440.922 -1.28729 -1.17068 0
M  V30 4527 O 442.098 -1.61663 -1.20112 0
M  V30 4528 C 439.163 -2.96833 -1.7914 0
M  V30 4529 C 438.224 -4.09745 -1.28093 0
M  V30 4530 C 437.457 -4.77034 -2.3932 0
M  V30 4531 O 437.68 -4.4353 -3.5866 0
M  V30 4532 O 436.614 -5.64996 -2.07516 0
M  V30 4533 H 440.44 -3.03661 -0.0485661 0
M  V30 4534 H 438.025 -1.49341 0.0418382 0
M  V30 4535 H 439.907 -3.41248 -2.4724 0
M  V30 4536 H 438.582 -2.22253 -2.35341 0
M  V30 4537 H 437.489 -3.69787 -0.566416 0
M  V30 4538 H 438.822 -4.86224 -0.764683 0
M  V30 4539 N 440.474 -0.00167713 -1.576 0
M  V30 4540 C 441.404 0.988091 -2.11563 0
M  V30 4541 C 442.385 1.35736 -1.02517 0
M  V30 4542 O 443.57 1.44082 -1.30208 0
M  V30 4543 C 440.7 2.27941 -2.62031 0
M  V30 4544 C 439.654 2.0517 -3.75619 0
M  V30 4545 C 438.98 3.4033 -4.12407 0
M  V30 4546 C 440.28 1.41294 -5.02825 0
M  V30 4547 H 441.974 0.538771 -2.94513 0
M  V30 4548 H 439.52 0.257712 -1.41675 0
M  V30 4549 H 441.473 2.97539 -2.9841 0
M  V30 4550 H 440.197 2.74989 -1.76205 0
M  V30 4551 H 438.856 1.37998 -3.39635 0
M  V30 4552 H 438.504 3.85085 -3.23603 0
M  V30 4553 H 438.204 3.25909 -4.88935 0
M  V30 4554 H 439.728 4.1124 -4.51347 0
M  V30 4555 H 441.142 2.00851 -5.36965 0
M  V30 4556 H 439.539 1.37356 -5.84169 0
M  V30 4557 H 440.609 0.382362 -4.8339 0
M  V30 4558 N 441.952 1.55251 0.271103 0
M  V30 4559 C 443.201 1.75151 1.00025 0
M  V30 4560 C 443.514 0.561041 1.87381 0
M  V30 4561 O 444.72 0.642506 2.63788 0
M  V30 4562 C 443.176 3.09999 1.82835 0
M  V30 4563 C 442.784 4.3662 1.00336 0
M  V30 4564 C 444.528 3.39249 2.55168 0
M  V30 4565 C 442.435 5.62506 1.82595 0
M  V30 4566 H 441.365 0.652877 0.377183 0
M  V30 4567 H 444.016 1.81708 0.255843 0
M  V30 4568 H 442.398 2.97485 2.61378 0
M  V30 4569 H 443.572 4.60055 0.261959 0
M  V30 4570 H 441.887 4.14527 0.394486 0
M  V30 4571 H 444.484 4.3051 3.1712 0
M  V30 4572 H 444.827 2.59467 3.2555 0
M  V30 4573 H 445.36 3.52869 1.83653 0
M  V30 4574 H 442.099 6.45041 1.16631 0
M  V30 4575 H 441.619 5.43211 2.54327 0
M  V30 4576 H 443.298 6.00875 2.39913 0
M  V30 4577 N 443.43 -0.535701 1.48216 0
M  V30 4578 C 444.377 -1.64083 1.62312 0
M  V30 4579 C 445.347 -1.59448 0.465365 0
M  V30 4580 O 446.532 -1.77959 0.688135 0
M  V30 4581 C 443.672 -3.0236 1.66349 0
M  V30 4582 C 442.785 -3.17273 2.93193 0
M  V30 4583 C 441.92 -4.46075 2.88427 0
M  V30 4584 C 440.959 -4.54496 4.1 0
M  V30 4585 N 440.096 -5.7468 4.03345 0
M  V30 4586 H 444.936 -1.51374 2.5669 0
M  V30 4587 H 442.473 -0.737059 1.27302 0
M  V30 4588 H 444.431 -3.82461 1.66672 0
M  V30 4589 H 443.061 -3.13854 0.754672 0
M  V30 4590 H 442.113 -2.30462 3.02641 0
M  V30 4591 H 443.425 -3.19357 3.83162 0
M  V30 4592 H 442.579 -5.3446 2.87119 0
M  V30 4593 H 441.318 -4.46504 1.96177 0
M  V30 4594 H 440.323 -3.64519 4.11589 0
M  V30 4595 H 441.548 -4.5581 5.03402 0
M  V30 4596 H 439.494 -5.76017 3.13912 0
M  V30 4597 H 439.411 -5.78234 4.87013 0
M  V30 4598 H 440.679 -6.65367 4.06087 0
M  V30 4599 N 444.908 -1.36708 -0.784132 0
M  V30 4600 C 445.818 -1.3363 -1.92822 0
M  V30 4601 C 446.834 -0.237686 -1.72369 0
M  V30 4602 O 448.01 -0.470962 -1.95816 0
M  V30 4603 C 445.075 -1.13011 -3.27764 0
M  V30 4604 C 444.136 -2.32397 -3.60957 0
M  V30 4605 C 443.369 -2.12752 -4.89461 0
M  V30 4606 O 443.592 -1.10541 -5.59586 0
M  V30 4607 O 442.526 -3.00653 -5.21432 0
M  V30 4608 H 446.352 -2.29964 -1.98369 0
M  V30 4609 H 443.937 -1.1731 -0.925136 0
M  V30 4610 H 445.819 -1.03451 -4.08504 0
M  V30 4611 H 444.494 -0.19743 -3.23097 0
M  V30 4612 H 443.401 -2.47527 -2.80502 0
M  V30 4613 H 444.734 -3.2419 -3.70354 0
M  V30 4614 N 446.386 1.0089 -1.21074 0
M  V30 4615 C 447.633 1.74607 -1.0256 0
M  V30 4616 C 447.961 1.89426 0.44136 0
M  V30 4617 O 447.216 1.42266 1.34384 0
M  V30 4618 C 447.515 3.16335 -1.66334 0
M  V30 4619 C 447.181 3.21474 -3.16173 0
M  V30 4620 C 445.843 3.22583 -3.57062 0
M  V30 4621 C 448.195 3.19025 -4.12156 0
M  V30 4622 C 445.523 3.18925 -4.92446 0
M  V30 4623 C 447.875 3.16909 -5.47496 0
M  V30 4624 C 446.539 3.16326 -5.87787 0
M  V30 4625 H 445.809 0.638933 -0.375294 0
M  V30 4626 H 448.456 1.18274 -1.50611 0
M  V30 4627 H 446.761 3.75876 -1.10566 0
M  V30 4628 H 448.458 3.72083 -1.49516 0
M  V30 4629 H 445.048 3.2135 -2.83605 0
M  V30 4630 H 449.232 3.17332 -3.81595 0
M  V30 4631 H 444.488 3.16809 -5.22917 0
M  V30 4632 H 448.662 3.13968 -6.21609 0
M  V30 4633 H 446.289 3.13246 -6.92662 0
M  V30 4634 N 447.864 1.01787 1.20321 0
M  V30 4635 C 449.112 0.706538 1.89347 0
M  V30 4636 C 449.433 -0.766289 1.79313 0
M  V30 4637 O 448.703 -1.55126 1.19635 0
M  V30 4638 H 447.283 0.258348 0.700903 0
M  V30 4639 H 449.945 1.28974 1.46122 0
M  V30 4640 H 449.041 0.991066 2.95946 0
M  V30 4641 N 449.342 -1.36122 0.79427 0
M  V30 4642 C 450.57 -2.03362 0.380989 0
M  V30 4643 C 450.985 -1.59881 -1.00416 0
M  V30 4644 O 450.342 -0.790515 -1.6449 0
M  V30 4645 C 450.393 -3.58804 0.440649 0
M  V30 4646 O 450.114 -4.007 1.77118 0
M  V30 4647 C 451.615 -4.43296 0.0186117 0
M  V30 4648 H 448.835 -0.652526 0.156367 0
M  V30 4649 H 451.379 -1.73998 1.07447 0
M  V30 4650 H 449.534 -3.8686 -0.204458 0
M  V30 4651 H 449.948 -4.95309 1.72538 0
M  V30 4652 H 451.422 -5.51887 0.111488 0
M  V30 4653 H 451.899 -4.2684 -1.03461 0
M  V30 4654 H 452.505 -4.20512 0.636395 0
M  V30 4655 N 450.82 -0.546701 -1.47814 0
M  V30 4656 C 452.097 0.0464413 -1.95545 0
M  V30 4657 C 452.477 1.4962 -1.48919 0
M  V30 4658 O 451.825 2.16752 -0.723232 0
M  V30 4659 C 452.035 -0.0881298 -3.48889 0
M  V30 4660 C 453.383 0.0626059 -4.24554 0
M  V30 4661 O 454.407 -0.0151555 -3.56197 0
M  V30 4662 O 453.266 0.228071 -5.46024 0
M  V30 4663 H 450.36 0.0700004 -0.824032 0
M  V30 4664 H 452.906 -0.612482 -1.58262 0
M  V30 4665 H 451.678 -1.09737 -3.75597 0
M  V30 4666 H 451.301 0.608886 -3.9291 0
M  V30 4667 N 452.299 1.55045 -0.282633 0
M  V30 4668 C 453.249 2.19514 0.616249 0
M  V30 4669 C 454.233 1.16216 1.11277 0
M  V30 4670 O 455.425 1.42004 1.05659 0
M  V30 4671 C 452.554 2.92548 1.7964 0
M  V30 4672 C 451.64 4.03142 1.31671 0
M  V30 4673 N 452.031 5.0276 0.553695 0
M  V30 4674 C 450.329 4.1635 1.59903 0
M  V30 4675 C 451.03 5.80923 0.30054 0
M  V30 4676 N 450.006 5.3651 0.875116 0
M  V30 4677 H 453.808 2.93889 0.0255363 0
M  V30 4678 H 451.322 1.62169 -0.0865362 0
M  V30 4679 H 453.319 3.37188 2.45173 0
M  V30 4680 H 451.979 2.19685 2.39099 0
M  V30 4681 H 452.99 5.17512 0.20032 0
M  V30 4682 H 449.667 3.54682 2.20243 0
M  V30 4683 H 451.057 6.7118 -0.311053 0
M  V30 4684 N 453.777 0.010035 1.57597 0
M  V30 4685 C 455.026 -0.671945 1.90178 0
M  V30 4686 C 455.339 -1.74376 0.886131 0
M  V30 4687 O 456.545 -2.48107 1.10252 0
M  V30 4688 C 455.001 -1.24636 3.3763 0
M  V30 4689 C 454.609 -0.208838 4.47513 0
M  V30 4690 C 456.353 -1.90595 3.79307 0
M  V30 4691 C 454.26 -0.793814 5.86048 0
M  V30 4692 H 453.19 -0.25474 0.709665 0
M  V30 4693 H 455.841 0.0722206 1.83358 0
M  V30 4694 H 454.223 -2.04152 3.3932 0
M  V30 4695 H 455.397 0.562463 4.57354 0
M  V30 4696 H 453.712 0.350889 4.14919 0
M  V30 4697 H 456.309 -2.35284 4.80151 0
M  V30 4698 H 456.652 -2.74074 3.13352 0
M  V30 4699 H 457.185 -1.17798 3.79958 0
M  V30 4700 H 453.924 0.00240855 6.555 0
M  V30 4701 H 453.444 -1.53404 5.79851 0
M  V30 4702 H 455.123 -1.2894 6.34022 0
M  V30 4703 N 455.255 -1.55392 -0.262866 0
M  V30 4704 C 456.485 -1.80251 -1.00961 0
M  V30 4705 C 456.893 -0.58117 -1.80053 0
M  V30 4706 O 456.236 0.459427 -1.77862 0
M  V30 4707 C 456.298 -2.98207 -2.00781 0
M  V30 4708 C 455.962 -4.34856 -1.40533 0
M  V30 4709 C 456.959 -5.13459 -0.815853 0
M  V30 4710 C 454.644 -4.8153 -1.42948 0
M  V30 4711 C 456.638 -6.36875 -0.258562 0
M  V30 4712 C 454.325 -6.04899 -0.868334 0
M  V30 4713 C 455.323 -6.8241 -0.283884 0
M  V30 4714 O 455.011 -8.03451 0.268644 0
M  V30 4715 H 454.743 -0.604049 -0.303482 0
M  V30 4716 H 457.297 -2.03257 -0.295926 0
M  V30 4717 H 455.527 -2.70917 -2.75936 0
M  V30 4718 H 457.216 -3.10299 -2.61667 0
M  V30 4719 H 457.982 -4.78526 -0.789812 0
M  V30 4720 H 453.861 -4.21201 -1.87378 0
M  V30 4721 H 457.405 -6.97318 0.198257 0
M  V30 4722 H 453.302 -6.39312 -0.891649 0
M  V30 4723 H 454.07 -8.18346 0.158974 0
M  V30 4724 N 456.733 0.527833 -1.48498 0
M  V30 4725 C 457.981 1.28101 -1.56316 0
M  V30 4726 C 458.302 1.9352 -0.239781 0
M  V30 4727 O 457.572 1.81433 0.738849 0
M  V30 4728 H 456.152 0.475793 -0.575873 0
M  V30 4729 H 458.814 0.614052 -1.84974 0
M  V30 4730 H 457.91 2.05916 -2.34532 0
M  V30 4731 N 458.211 1.37122 0.776871 0
M  V30 4732 C 459.174 1.32301 1.8716 0
M  V30 4733 C 460.174 0.228099 1.59174 0
M  V30 4734 O 461.364 0.483642 1.67352 0
M  V30 4735 C 458.496 1.054 3.24197 0
M  V30 4736 H 459.689 2.29673 1.92848 0
M  V30 4737 H 457.242 1.22077 0.97606 0
M  V30 4738 H 457.977 0.0853872 3.24188 0
M  V30 4739 H 457.762 1.84648 3.45901 0
M  V30 4740 H 459.252 1.04664 4.04271 0
M  V30 4741 N 459.689 -1.00246 1.21608 0
M  V30 4742 C 460.966 -1.71336 0.943568 0
M  V30 4743 C 461.346 -2.03972 -0.543943 0
M  V30 4744 O 460.694 -1.71545 -1.50946 0
M  V30 4745 C 460.904 -2.97094 1.83128 0
M  V30 4746 C 462.252 -3.70071 2.08165 0
M  V30 4747 O 463.276 -3.07081 1.80498 0
M  V30 4748 O 462.135 -4.83376 2.54971 0
M  V30 4749 H 459.229 -0.747386 0.354039 0
M  V30 4750 H 461.775 -1.05967 1.32549 0
M  V30 4751 H 460.547 -2.69407 2.83788 0
M  V30 4752 H 460.17 -3.70204 1.45034 0
M  V30 4753 N 461.167 -1.02423 -1.1978 0
M  V30 4754 C 462.395 -0.737456 -1.93311 0
M  V30 4755 C 462.81 0.703023 -1.75223 0
M  V30 4756 O 462.167 1.47761 -1.07112 0
M  V30 4757 C 462.218 -1.0733 -3.45199 0
M  V30 4758 O 461.939 -2.4572 -3.62702 0
M  V30 4759 C 463.44 -0.80866 -4.35862 0
M  V30 4760 H 460.66 -0.2702 -0.614193 0
M  V30 4761 H 463.204 -1.36747 -1.52054 0
M  V30 4762 H 461.359 -0.488545 -3.84307 0
M  V30 4763 H 461.773 -2.58081 -4.56612 0
M  V30 4764 H 463.247 -1.09365 -5.41057 0
M  V30 4765 H 463.724 0.257025 -4.38447 0
M  V30 4766 H 464.33 -1.37592 -4.02428 0
M  V30 4767 N 462.645 1.35699 -0.801477 0
M  V30 4768 C 463.892 1.98913 -0.379459 0
M  V30 4769 C 464.22 1.63592 1.05204 0
M  V30 4770 O 463.475 0.888563 1.74365 0
M  V30 4771 C 463.774 3.53828 -0.504041 0
M  V30 4772 C 463.44 4.09002 -1.8981 0
M  V30 4773 C 462.102 4.23783 -2.27951 0
M  V30 4774 C 464.454 4.38939 -2.81038 0
M  V30 4775 C 461.782 4.65816 -3.56696 0
M  V30 4776 C 464.134 4.82409 -4.09224 0
M  V30 4777 C 462.798 4.95395 -4.4737 0
M  V30 4778 H 462.068 0.727874 -0.138854 0
M  V30 4779 H 464.715 1.61994 -1.02128 0
M  V30 4780 H 463.02 3.91175 0.221242 0
M  V30 4781 H 464.717 4.00687 -0.158361 0
M  V30 4782 H 461.307 3.97946 -1.59176 0
M  V30 4783 H 465.491 4.27077 -2.52821 0
M  V30 4784 H 460.747 4.74059 -3.86106 0
M  V30 4785 H 464.921 5.04535 -4.80018 0
M  V30 4786 H 462.548 5.27724 -5.47185 0
M  V30 4787 N 464.123 0.554532 1.47522 0
M  V30 4788 C 465.071 -0.207765 2.3167 0
M  V30 4789 C 466.065 -0.911914 1.4276 0
M  V30 4790 O 467.271 -0.833504 1.59539 0
M  V30 4791 H 463.646 -0.0858726 0.747081 0
M  V30 4792 H 465.617 0.521178 2.93813 0
M  V30 4793 C 464.366 -1.2263 3.25357 0
M  V30 4794 H 463.689 -0.693887 3.93732 0
M  V30 4795 H 465.129 -1.73062 3.87073 0
M  V30 4796 C 463.588 -2.27278 2.4869 0
M  V30 4797 O 464.118 -3.34156 2.22941 0
M  V30 4798 N 462.324 -2.01134 2.09746 0
M  V30 4799 H 461.871 -1.14232 2.30887 0
M  V30 4800 H 461.829 -2.71369 1.58765 0
M  V30 4801 N 465.601 -1.54893 0.290851 0
M  V30 4802 C 466.511 -2.26812 -0.59945 0
M  V30 4803 C 467.527 -1.29963 -1.15696 0
M  V30 4804 O 468.703 -1.62928 -1.18391 0
M  V30 4805 C 465.768 -2.98716 -1.75982 0
M  V30 4806 C 464.829 -4.1108 -1.2374 0
M  V30 4807 C 464.062 -4.79546 -2.34246 0
M  V30 4808 O 464.285 -4.47309 -3.53936 0
M  V30 4809 O 463.219 -5.67165 -2.01512 0
M  V30 4810 H 467.045 -3.03696 -0.0163561 0
M  V30 4811 H 464.63 -1.49289 0.0576755 0
M  V30 4812 H 466.512 -3.43851 -2.43607 0
M  V30 4813 H 465.187 -2.24737 -2.3297 0
M  V30 4814 H 464.094 -3.70367 -0.527163 0
M  V30 4815 H 465.427 -4.87007 -0.71307 0
M  V30 4816 N 467.08 -0.0183926 -1.57589 0
M  V30 4817 C 468.013 1.00148 -2.0505 0
M  V30 4818 C 468.991 1.32387 -0.944058 0
M  V30 4819 O 470.175 1.44237 -1.21358 0
M  V30 4820 C 467.302 2.32435 -2.46357 0
M  V30 4821 C 466.348 2.15731 -3.67916 0
M  V30 4822 S 467.181 1.46613 -5.15039 0
M  V30 4823 C 468.337 2.80293 -5.59631 0
M  V30 4824 H 468.57 0.597429 -2.91235 0
M  V30 4825 H 466.103 0.193002 -1.53189 0
M  V30 4826 H 468.061 3.0849 -2.70822 0
M  V30 4827 H 466.722 2.69975 -1.60537 0
M  V30 4828 H 465.915 3.13502 -3.9463 0
M  V30 4829 H 465.517 1.4782 -3.43548 0
M  V30 4830 H 467.809 3.76557 -5.63215 0
M  V30 4831 H 468.752 2.58256 -6.59325 0
M  V30 4832 H 469.16 2.85047 -4.87246 0
M  V30 4833 N 468.558 1.5553 0.254621 0
M  V30 4834 C 469.49 1.86104 1.33783 0
M  V30 4835 C 470.503 0.746752 1.44663 0
M  V30 4836 O 471.692 1.0248 1.46151 0
M  V30 4837 C 468.792 2.02532 2.71724 0
M  V30 4838 C 467.965 3.33335 2.83208 0
M  V30 4839 C 467.024 3.396 4.01943 0
M  V30 4840 O 466.05 4.12862 3.91834 0
M  V30 4841 N 467.252 2.68332 5.1476 0
M  V30 4842 H 470.017 2.79605 1.07893 0
M  V30 4843 H 467.578 1.55672 0.444732 0
M  V30 4844 H 469.57 2.04074 3.4948 0
M  V30 4845 H 468.14 1.15811 2.90356 0
M  V30 4846 H 467.36 3.44176 1.92189 0
M  V30 4847 H 468.648 4.19565 2.87824 0
M  V30 4848 H 468.046 2.08528 5.25864 0
M  V30 4849 H 466.603 2.75575 5.90679 0
M  V30 4850 N 470.036 -0.519951 1.48776 0
M  V30 4851 C 471.447 -1.10177 1.50725 0
M  V30 4852 C 471.798 -1.94153 0.282678 0
M  V30 4853 O 470.923 -2.07645 -0.609298 0
M  V30 4854 C 471.518 -2.00482 2.73116 0
M  V30 4855 C 470.077 -2.53862 2.77905 0
M  V30 4856 C 469.224 -1.31047 2.44381 0
M  V30 4857 H 472.175 -0.30473 1.55747 0
M  V30 4858 H 472.196 -2.8491 2.52203 0
M  V30 4859 H 471.708 -1.39335 3.62225 0
M  V30 4860 H 469.809 -3.18702 1.93029 0
M  V30 4861 H 469.922 -2.9231 3.79594 0
M  V30 4862 H 468.286 -1.62953 1.95751 0
M  V30 4863 H 469.069 -0.71637 3.35743 0
M  V30 4864 N 471.514 -1.37532 -0.769588 0
M  V30 4865 C 472.925 -1.29382 -1.346 0
M  V30 4866 C 473.276 0.0576039 -1.96115 0
M  V30 4867 O 472.401 0.95947 -1.93967 0
M  V30 4868 C 472.996 -2.34298 -2.44724 0
M  V30 4869 C 471.555 -2.29776 -2.98128 0
M  V30 4870 C 470.702 -2.18013 -1.71364 0
M  V30 4871 H 473.653 -1.48123 -0.56968 0
M  V30 4872 H 473.674 -1.99089 -3.24259 0
M  V30 4873 H 473.186 -3.32645 -1.99922 0
M  V30 4874 H 471.287 -1.34959 -3.47299 0
M  V30 4875 H 471.4 -3.23276 -3.53595 0
M  V30 4876 H 469.764 -1.64595 -1.94372 0
M  V30 4877 H 470.547 -3.18278 -1.28662 0
M  V30 4878 N 472.992 0.995999 -1.22138 0
M  V30 4879 C 474.217 1.77601 -1.0711 0
M  V30 4880 C 474.642 1.84339 0.374264 0
M  V30 4881 O 474 1.29359 1.27028 0
M  V30 4882 C 474.048 3.18897 -1.68336 0
M  V30 4883 O 473.152 4.01663 -0.934928 0
M  V30 4884 H 472.493 0.547011 -0.376397 0
M  V30 4885 H 475.023 1.25137 -1.6187 0
M  V30 4886 H 475.033 3.69539 -1.72931 0
M  V30 4887 H 473.708 3.13308 -2.73516 0
M  V30 4888 H 472.285 3.60204 -0.964751 0
M  V30 4889 N 474.47 1.03057 1.19235 0
M  V30 4890 C 475.695 0.74757 1.93458 0
M  V30 4891 C 476.12 -0.687648 1.7508 0
M  V30 4892 O 475.478 -1.47499 1.05422 0
M  V30 4893 C 475.526 1.10604 3.43219 0
M  V30 4894 O 474.63 0.225671 4.11782 0
M  V30 4895 H 473.971 0.276047 0.603899 0
M  V30 4896 H 476.501 1.3777 1.51263 0
M  V30 4897 H 476.511 1.06366 3.93891 0
M  V30 4898 H 475.186 2.15165 3.55917 0
M  V30 4899 H 473.763 0.326795 3.71465 0
M  V30 4900 N 475.948 -1.35272 0.808662 0
M  V30 4901 C 476.858 -2.33546 0.222079 0
M  V30 4902 C 477.874 -1.6196 -0.636011 0
M  V30 4903 O 479.05 -1.93822 -0.547274 0
M  V30 4904 C 476.115 -3.41148 -0.61795 0
M  V30 4905 C 475.176 -4.28507 0.260875 0
M  V30 4906 C 474.409 -5.3097 -0.539156 0
M  V30 4907 O 474.632 -5.42123 -1.77367 0
M  V30 4908 O 473.566 -6.01858 0.0710526 0
M  V30 4909 H 477.392 -2.85515 1.03512 0
M  V30 4910 H 474.977 -1.38079 0.570495 0
M  V30 4911 H 476.859 -4.06889 -1.09634 0
M  V30 4912 H 475.534 -2.91447 -1.40855 0
M  V30 4913 H 474.441 -3.6574 0.786451 0
M  V30 4914 H 475.774 -4.81611 1.01547 0
M  V30 4915 N 477.426 -0.562348 -1.47226 0
M  V30 4916 C 478.837 -0.130325 -1.86245 0
M  V30 4917 C 479.188 1.30128 -1.46838 0
M  V30 4918 O 478.313 1.97974 -0.873805 0
M  V30 4919 C 478.908 -0.229738 -3.3802 0
M  V30 4920 C 477.467 0.14728 -3.76112 0
M  V30 4921 C 476.614 -0.574971 -2.71274 0
M  V30 4922 H 479.565 -0.771773 -1.3867 0
M  V30 4923 H 479.586 0.550316 -3.76499 0
M  V30 4924 H 479.098 -1.27178 -3.66671 0
M  V30 4925 H 477.199 1.19023 -3.53078 0
M  V30 4926 H 477.312 -0.214858 -4.78618 0
M  V30 4927 H 475.676 -0.0174756 -2.54694 0
M  V30 4928 H 476.459 -1.61827 -3.02766 0
M  V30 4929 N 478.904 1.54736 -0.299062 0
M  V30 4930 C 480.129 2.04975 0.316254 0
M  V30 4931 C 480.554 1.17501 1.46885 0
M  V30 4932 O 479.912 0.178678 1.80417 0
M  V30 4933 C 479.96 3.52672 0.751997 0
M  V30 4934 O 479.064 3.68226 1.85697 0
M  V30 4935 H 478.405 0.661126 0.0617175 0
M  V30 4936 H 480.935 1.99805 -0.440341 0
M  V30 4937 H 480.945 3.94488 1.04133 0
M  V30 4938 H 479.62 4.158 -0.0911482 0
M  V30 4939 H 478.197 3.38316 1.56834 0
M  V30 4940 N 480.382 0.0267497 1.57577 0
M  V30 4941 C 481.612 -0.6617 1.95717 0
M  V30 4942 C 482.02 -1.66331 0.901706 0
M  V30 4943 O 481.363 -1.83273 -0.125241 0
M  V30 4944 C 481.425 -1.42649 3.29987 0
M  V30 4945 C 481.089 -0.583482 4.5326 0
M  V30 4946 C 482.086 0.140221 5.19711 0
M  V30 4947 C 479.771 -0.521581 4.99585 0
M  V30 4948 C 481.765 0.914523 6.30805 0
M  V30 4949 C 479.452 0.256428 6.10562 0
M  V30 4950 C 480.45 0.973189 6.76031 0
M  V30 4951 O 480.138 1.73845 7.84878 0
M  V30 4952 H 479.87 -0.187483 0.649481 0
M  V30 4953 H 482.424 0.0820847 2.05236 0
M  V30 4954 H 480.654 -2.21536 3.16952 0
M  V30 4955 H 482.343 -2.00282 3.53047 0
M  V30 4956 H 483.109 0.101716 4.84893 0
M  V30 4957 H 478.988 -1.06904 4.48433 0
M  V30 4958 H 482.532 1.4745 6.81839 0
M  V30 4959 H 478.429 0.296657 6.44818 0
M  V30 4960 H 479.197 1.65797 8.01532 0
M  V30 4961 N 481.861 -1.55662 -0.24637 0
M  V30 4962 C 482.791 -1.93377 -1.30873 0
M  V30 4963 C 483.772 -0.798773 -1.50179 0
M  V30 4964 O 484.957 -1.0591 -1.62778 0
M  V30 4965 C 482.087 -2.22893 -2.66338 0
M  V30 4966 C 481.041 -3.38649 -2.61727 0
M  V30 4967 C 480.367 -3.53708 -4.00992 0
M  V30 4968 C 481.667 -4.74323 -2.18666 0
M  V30 4969 H 483.361 -2.82363 -0.995552 0
M  V30 4970 H 480.907 -1.35854 -0.477464 0
M  V30 4971 H 482.86 -2.47866 -3.40794 0
M  V30 4972 H 481.584 -1.30733 -2.99293 0
M  V30 4973 H 480.243 -3.13685 -1.89729 0
M  V30 4974 H 479.891 -2.58967 -4.31214 0
M  V30 4975 H 479.591 -4.31551 -3.98795 0
M  V30 4976 H 481.115 -3.81003 -4.77147 0
M  V30 4977 H 482.529 -4.98665 -2.82854 0
M  V30 4978 H 480.926 -5.55273 -2.27579 0
M  V30 4979 H 481.996 -4.71349 -1.13834 0
M  V30 4980 N 483.339 0.512053 -1.4905 0
M  V30 4981 C 484.302 1.59704 -1.64399 0
M  V30 4982 C 485.302 1.52285 -0.516317 0
M  V30 4983 O 486.492 1.55635 -0.782527 0
M  V30 4984 C 483.624 2.9935 -1.63102 0
M  V30 4985 H 484.817 1.47428 -2.61161 0
M  V30 4986 H 482.37 0.735469 -1.37915 0
M  V30 4987 H 483.105 3.17116 -0.678836 0
M  V30 4988 H 482.89 3.06144 -2.44986 0
M  V30 4989 H 484.38 3.782 -1.77072 0
M  V30 4990 N 484.817 1.37938 0.762283 0
M  V30 4991 C 485.78 1.34279 1.85747 0
M  V30 4992 C 486.78 0.244969 1.58923 0
M  V30 4993 O 487.97 0.501365 1.66829 0
M  V30 4994 C 485.102 1.08833 3.23061 0
M  V30 4995 H 486.295 2.31705 1.90401 0
M  V30 4996 H 483.848 1.23105 0.963057 0
M  V30 4997 H 484.583 0.119767 3.24079 0
M  V30 4998 H 484.368 1.88306 3.43923 0
M  V30 4999 H 485.858 1.08946 4.03138 0
M  V30 5000 N 486.295 -0.989507 1.22664 0
M  V30 5001 C 487.258 -2.06183 1.00106 0
M  V30 5002 C 488.258 -1.60765 -0.0337726 0
M  V30 5003 O 489.448 -1.72989 0.205072 0
M  V30 5004 C 486.58 -3.37021 0.51279 0
M  V30 5005 H 487.773 -2.27629 1.95256 0
M  V30 5006 H 485.326 -1.16158 1.0458 0
M  V30 5007 H 486.061 -3.21261 -0.442917 0
M  V30 5008 H 485.846 -3.71323 1.25942 0
M  V30 5009 H 487.336 -4.1591 0.375315 0
M  V30 5010 N 487.773 -1.03688 -1.18687 0
M  V30 5011 C 489.001 -0.757918 -1.92518 0
M  V30 5012 C 489.416 0.684398 -1.75959 0
M  V30 5013 O 488.773 1.46617 -1.08673 0
M  V30 5014 C 488.824 -1.10985 -3.44042 0
M  V30 5015 O 488.545 -2.49554 -3.60076 0
M  V30 5016 C 490.046 -0.854844 -4.3498 0
M  V30 5017 H 487.266 -0.276699 -0.611293 0
M  V30 5018 H 489.81 -1.38352 -1.50595 0
M  V30 5019 H 487.965 -0.529279 -3.83767 0
M  V30 5020 H 488.379 -2.6291 -4.53849 0
M  V30 5021 H 489.853 -1.15098 -5.39867 0
M  V30 5022 H 490.33 0.210507 -4.38695 0
M  V30 5023 H 490.936 -1.41853 -4.00946 0
M  V30 5024 N 489.251 1.34841 -0.815825 0
M  V30 5025 C 490.479 2.0273 -0.413294 0
M  V30 5026 C 490.894 1.61459 0.978599 0
M  V30 5027 O 490.251 0.816584 1.63212 0
M  V30 5028 C 490.302 3.58058 -0.497676 0
M  V30 5029 O 490.023 3.97832 -1.8347 0
M  V30 5030 C 491.524 4.4321 -0.0891339 0
M  V30 5031 H 488.744 0.649956 -0.166728 0
M  V30 5032 H 491.288 1.72267 -1.10201 0
M  V30 5033 H 489.443 3.87136 0.142886 0
M  V30 5034 H 489.857 4.92501 -1.80396 0
M  V30 5035 H 491.331 5.5164 -0.199274 0
M  V30 5036 H 491.808 4.28432 0.966571 0
M  V30 5037 H 492.414 4.19446 -0.703214 0
M  V30 5038 N 490.729 0.570148 1.46925 0
M  V30 5039 C 491.692 -0.159933 2.28641 0
M  V30 5040 C 492.692 -0.830638 1.37685 0
M  V30 5041 O 493.882 -0.684516 1.60187 0
M  V30 5042 C 491.014 -1.2354 3.17727 0
M  V30 5043 H 492.207 0.558035 2.94662 0
M  V30 5044 H 489.76 0.327603 1.52828 0
M  V30 5045 H 490.495 -1.98535 2.56426 0
M  V30 5046 H 490.28 -0.759125 3.84681 0
M  V30 5047 H 491.77 -1.74782 3.79264 0
M  V30 5048 N 492.207 -1.54576 0.307264 0
M  V30 5049 C 493.453 -2.0056 -0.300612 0
M  V30 5050 C 493.786 -1.1953 -1.53057 0
M  V30 5051 O 493.061 -0.27337 -1.92569 0
M  V30 5052 C 493.344 -3.54167 -0.650987 0
M  V30 5053 C 493.197 -4.45933 0.588539 0
M  V30 5054 C 494.516 -4.14645 -1.47506 0
M  V30 5055 H 491.635 -0.729075 -0.107788 0
M  V30 5056 H 494.277 -1.85286 0.420606 0
M  V30 5057 H 492.427 -3.67313 -1.26544 0
M  V30 5058 H 494.099 -4.44683 1.22697 0
M  V30 5059 H 492.342 -4.16274 1.22058 0
M  V30 5060 H 493.013 -5.51189 0.299153 0
M  V30 5061 H 495.489 -4.04973 -0.955821 0
M  V30 5062 H 494.365 -5.22269 -1.68899 0
M  V30 5063 H 494.626 -3.66921 -2.4662 0
M  V30 5064 N 493.685 -0.035106 -1.57561 0
M  V30 5065 C 494.915 0.651312 -1.96065 0
M  V30 5066 C 495.323 1.6585 -0.910514 0
M  V30 5067 O 494.666 1.83336 0.11552 0
M  V30 5068 C 494.728 1.40897 -3.30739 0
M  V30 5069 C 494.392 0.559436 -4.53563 0
M  V30 5070 C 495.389 -0.16778 -5.19629 0
M  V30 5071 C 493.074 0.495079 -4.99854 0
M  V30 5072 C 495.068 -0.947963 -6.30311 0
M  V30 5073 C 492.755 -0.288804 -6.10417 0
M  V30 5074 C 493.753 -1.00903 -6.75505 0
M  V30 5075 O 493.441 -1.78005 -7.83945 0
M  V30 5076 H 493.173 0.184036 -0.650467 0
M  V30 5077 H 495.727 -0.0929677 -2.05189 0
M  V30 5078 H 493.957 2.19852 -3.18123 0
M  V30 5079 H 495.646 1.98407 -3.54104 0
M  V30 5080 H 496.412 -0.12743 -4.84833 0
M  V30 5081 H 492.291 1.04524 -4.48994 0
M  V30 5082 H 495.835 -1.51064 -6.81047 0
M  V30 5083 H 491.732 -0.33085 -6.44652 0
M  V30 5084 H 492.5 -1.70046 -8.00641 0
M  V30 5085 N 495.163 1.55791 0.238111 0
M  V30 5086 C 496.073 1.94196 1.31625 0
M  V30 5087 C 497.089 0.843545 1.52185 0
M  V30 5088 O 498.265 1.1457 1.65637 0
M  V30 5089 C 495.33 2.2365 2.64918 0
M  V30 5090 C 494.391 3.46971 2.52804 0
M  V30 5091 C 493.624 3.7501 3.79741 0
M  V30 5092 O 493.847 3.04982 4.82019 0
M  V30 5093 O 492.781 4.68525 3.77846 0
M  V30 5094 H 496.607 2.86044 1.02043 0
M  V30 5095 H 494.192 1.42786 0.439603 0
M  V30 5096 H 496.074 2.43863 3.4367 0
M  V30 5097 H 494.749 1.34979 2.94215 0
M  V30 5098 H 493.656 3.32055 1.72309 0
M  V30 5099 H 494.989 4.35971 2.28451 0
M  V30 5100 N 496.642 -0.504142 1.49319 0
M  V30 5101 C 497.605 -1.5883 1.65244 0
M  V30 5102 C 498.605 -1.52009 0.524386 0
M  V30 5103 O 499.795 -1.55218 0.79077 0
M  V30 5104 C 496.927 -2.98481 1.64687 0
M  V30 5105 H 498.12 -1.4604 2.61939 0
M  V30 5106 H 495.673 -0.728144 1.38303 0
M  V30 5107 H 496.408 -3.16751 0.695644 0
M  V30 5108 H 496.193 -3.0484 2.46607 0
M  V30 5109 H 497.683 -3.77256 1.79075 0
M  V30 5110 N 498.12 -1.38341 -0.754957 0
M  V30 5111 C 499.053 -1.29837 -1.87663 0
M  V30 5112 C 500.031 -0.175659 -1.61648 0
M  V30 5113 O 501.215 -0.352745 -1.8517 0
M  V30 5114 C 498.342 -1.01141 -3.23246 0
M  V30 5115 C 497.388 -2.15331 -3.6815 0
M  V30 5116 S 498.221 -3.77459 -3.79849 0
M  V30 5117 C 499.377 -3.50948 -5.18253 0
M  V30 5118 H 499.61 -2.24771 -1.9459 0
M  V30 5119 H 497.143 -1.24161 -0.917796 0
M  V30 5120 H 499.101 -0.852687 -4.01546 0
M  V30 5121 H 497.762 -0.0792784 -3.14 0
M  V30 5122 H 496.955 -1.90795 -4.6649 0
M  V30 5123 H 496.557 -2.27304 -2.97 0
M  V30 5124 H 498.849 -3.06977 -6.03963 0
M  V30 5125 H 499.792 -4.48677 -5.47809 0
M  V30 5126 H 500.2 -2.85492 -4.86985 0
M  V30 5127 N 499.598 0.982988 -1.23187 0
M  V30 5128 C 500.826 1.75921 -1.08901 0
M  V30 5129 C 501.241 1.85341 0.359719 0
M  V30 5130 O 500.598 1.33072 1.24892 0
M  V30 5131 C 500.649 3.18742 -1.70545 0
M  V30 5132 O 500.37 3.09814 -3.09753 0
M  V30 5133 C 501.871 4.1277 -1.61667 0
M  V30 5134 H 499.091 0.552166 -0.381252 0
M  V30 5135 H 501.635 1.23516 -1.62985 0
M  V30 5136 H 499.79 3.68182 -1.20501 0
M  V30 5137 H 500.204 3.99703 -3.39614 0
M  V30 5138 H 501.678 5.10697 -2.09506 0
M  V30 5139 H 502.155 4.3542 -0.575009 0
M  V30 5140 H 502.761 3.69232 -2.11064 0
M  V30 5141 N 501.076 1.04316 1.18135 0
M  V30 5142 C 502.039 0.640794 2.2006 0
M  V30 5143 C 503.039 -0.303124 1.57917 0
M  V30 5144 O 504.229 -0.0881855 1.73977 0
M  V30 5145 C 501.361 -0.060148 3.40847 0
M  V30 5146 H 502.554 1.54281 2.57172 0
M  V30 5147 H 500.107 0.836004 1.32063 0
M  V30 5148 H 500.842 -0.975845 3.0927 0
M  V30 5149 H 500.627 0.618319 3.87194 0
M  V30 5150 H 502.117 -0.328082 4.16309 0
M  V30 5151 N 502.554 -1.34406 0.822964 0
M  V30 5152 C 503.8 -1.98578 0.411666 0
M  V30 5153 C 504.133 -1.65093 -1.02264 0
M  V30 5154 O 503.408 -0.92258 -1.71227 0
M  V30 5155 C 503.691 -3.54823 0.614235 0
M  V30 5156 C 503.544 -3.9805 2.09466 0
M  V30 5157 C 504.863 -4.40071 0.050221 0
M  V30 5158 H 501.982 -0.721355 0.151047 0
M  V30 5159 H 504.624 -1.59301 1.03554 0
M  V30 5160 H 502.774 -3.88411 0.0831774 0
M  V30 5161 H 504.446 -3.74795 2.68936 0
M  V30 5162 H 502.689 -3.4836 2.5851 0
M  V30 5163 H 503.36 -5.06819 2.18721 0
M  V30 5164 H 505.836 -4.13037 0.503953 0
M  V30 5165 H 504.712 -5.48452 0.221759 0
M  V30 5166 H 504.973 -4.29576 -1.04482 0
M  V30 5167 N 504.032 -0.577932 -1.46621 0
M  V30 5168 C 505.309 0.00495287 -1.95599 0
M  V30 5169 C 505.689 1.46428 -1.5206 0
M  V30 5170 O 505.037 2.1517 -0.769046 0
M  V30 5171 C 505.247 -0.162114 -3.48623 0
M  V30 5172 C 506.595 -0.0274623 -4.24591 0
M  V30 5173 O 507.619 -0.0907067 -3.56084 0
M  V30 5174 O 506.478 0.1122 -5.46385 0
M  V30 5175 H 503.572 0.0525057 -0.825332 0
M  V30 5176 H 506.118 -0.645914 -1.56927 0
M  V30 5177 H 504.89 -1.17679 -3.73185 0
M  V30 5178 H 504.513 0.525407 -3.94113 0
M  V30 5179 N 505.51 1.54411 -0.315457 0
M  V30 5180 C 506.738 2.04833 0.291738 0
M  V30 5181 C 507.153 1.19203 1.46411 0
M  V30 5182 O 506.51 0.220867 1.81159 0
M  V30 5183 C 506.561 3.53969 0.73404 0
M  V30 5184 O 506.282 4.36346 -0.391682 0
M  V30 5185 C 507.783 4.2045 1.40489 0
M  V30 5186 H 505.003 0.668195 0.0612947 0
M  V30 5187 H 507.547 1.99276 -0.45929 0
M  V30 5188 H 505.702 3.5984 1.43506 0
M  V30 5189 H 506.116 5.24481 -0.0447088 0
M  V30 5190 H 507.59 5.26278 1.66539 0
M  V30 5191 H 508.067 3.71067 2.3496 0
M  V30 5192 H 508.673 4.18694 0.746662 0
M  V30 5193 N 506.988 0.0434614 1.5754 0
M  V30 5194 C 507.898 -0.94893 2.14552 0
M  V30 5195 C 508.914 -1.34707 1.10136 0
M  V30 5196 O 510.09 -1.42557 1.42266 0
M  V30 5197 C 507.155 -2.208 2.67298 0
M  V30 5198 C 506.216 -1.86893 3.86484 0
M  V30 5199 C 505.449 -3.06797 4.36705 0
M  V30 5200 O 505.672 -4.19921 3.86034 0
M  V30 5201 O 504.606 -2.8826 5.28384 0
M  V30 5202 H 508.432 -0.494099 2.99654 0
M  V30 5203 H 506.017 -0.177989 1.48336 0
M  V30 5204 H 507.899 -2.94686 3.01228 0
M  V30 5205 H 506.574 -2.65436 1.85272 0
M  V30 5206 H 505.481 -1.10347 3.57455 0
M  V30 5207 H 506.814 -1.47062 4.69716 0
M  V30 5208 N 508.466 -1.55915 -0.229846 0
M  V30 5209 C 509.429 -1.90914 -1.26824 0
M  V30 5210 C 510.429 -0.786999 -1.40225 0
M  V30 5211 O 511.619 -1.05484 -1.38632 0
M  V30 5212 C 508.751 -2.15264 -2.64337 0
M  V30 5213 H 509.944 -2.8378 -0.969998 0
M  V30 5214 H 507.497 -1.49069 -0.4699 0
M  V30 5215 H 508.232 -1.24923 -2.99274 0
M  V30 5216 H 508.017 -2.97005 -2.55989 0
M  V30 5217 H 509.507 -2.43467 -3.39284 0
M  V30 5218 N 509.944 0.496216 -1.49584 0
M  V30 5219 C 511.19 1.25189 -1.59548 0
M  V30 5220 C 511.523 1.9212 -0.283466 0
M  V30 5221 O 510.798 1.80947 0.713324 0
M  V30 5222 C 511.081 2.31516 -2.75812 0
M  V30 5223 C 510.934 1.69054 -4.16822 0
M  V30 5224 C 512.253 3.3304 -2.87702 0
M  V30 5225 H 509.372 0.45379 -0.580727 0
M  V30 5226 H 512.014 0.549327 -1.81886 0
M  V30 5227 H 510.164 2.91438 -2.56897 0
M  V30 5228 H 511.836 1.12923 -4.47265 0
M  V30 5229 H 510.079 0.994485 -4.22247 0
M  V30 5230 H 510.75 2.462 -4.94054 0
M  V30 5231 H 513.226 2.83114 -3.04936 0
M  V30 5232 H 512.102 4.04794 -3.7072 0
M  V30 5233 H 512.363 3.95655 -1.97255 0
M  V30 5234 N 511.423 1.38739 0.74761 0
M  V30 5235 C 512.669 1.3648 1.50814 0
M  V30 5236 C 513.024 -0.0431982 1.92351 0
M  V30 5237 O 512.317 -1.0071 1.62997 0
M  V30 5238 C 512.511 2.25992 2.7688 0
M  V30 5239 C 512.34 3.75354 2.47668 0
M  V30 5240 C 511.11 4.44348 2.40589 0
M  V30 5241 C 513.308 4.67642 2.14046 0
M  V30 5242 N 511.29 5.79114 2.03715 0
M  V30 5243 C 512.661 5.90965 1.87512 0
M  V30 5244 C 514.716 4.55787 2.00407 0
M  V30 5245 C 513.419 7.03759 1.48714 0
M  V30 5246 C 515.445 5.68491 1.63011 0
M  V30 5247 C 514.807 6.90879 1.37353 0
M  V30 5248 H 510.906 0.554695 0.551214 0
M  V30 5249 H 513.49 1.7418 0.870033 0
M  V30 5250 H 511.661 1.9047 3.3849 0
M  V30 5251 H 513.393 2.14815 3.42982 0
M  V30 5252 H 510.148 3.97634 2.57262 0
M  V30 5253 H 510.572 6.504 1.87906 0
M  V30 5254 H 515.214 3.61712 2.18916 0
M  V30 5255 H 512.932 7.97746 1.28945 0
M  V30 5256 H 516.518 5.613 1.53081 0
M  V30 5257 H 515.398 7.76609 1.08848 0
M  V30 5258 N 512.901 -0.976442 1.23707 0
M  V30 5259 C 513.831 -2.08749 1.04624 0
M  V30 5260 C 514.812 -1.70057 -0.0380956 0
M  V30 5261 O 515.997 -1.93782 0.127308 0
M  V30 5262 C 513.127 -3.41335 0.640902 0
M  V30 5263 C 512.081 -3.93947 1.67302 0
M  V30 5264 C 511.407 -5.22774 1.12301 0
M  V30 5265 C 512.707 -4.22769 3.06697 0
M  V30 5266 H 514.401 -2.24972 1.97555 0
M  V30 5267 H 511.947 -1.08108 0.951247 0
M  V30 5268 H 513.9 -4.18489 0.494434 0
M  V30 5269 H 512.624 -3.24988 -0.324099 0
M  V30 5270 H 511.283 -3.18941 1.80755 0
M  V30 5271 H 510.931 -5.0278 0.148877 0
M  V30 5272 H 510.631 -5.58942 1.81267 0
M  V30 5273 H 512.155 -6.02546 0.988479 0
M  V30 5274 H 513.569 -4.90659 2.96524 0
M  V30 5275 H 511.966 -4.70147 3.72937 0
M  V30 5276 H 513.036 -3.29885 3.55392 0
M  V30 5277 N 514.379 -1.04941 -1.1758 0
M  V30 5278 C 515.309 -0.669172 -2.23706 0
M  V30 5279 C 516.29 0.331835 -1.66832 0
M  V30 5280 O 517.475 0.209988 -1.93061 0
M  V30 5281 C 514.605 -0.0404889 -3.47276 0
M  V30 5282 C 513.559 -0.965983 -4.16957 0
M  V30 5283 C 512.885 -0.201312 -5.34321 0
M  V30 5284 C 514.185 -2.28902 -4.69469 0
M  V30 5285 H 515.879 -1.55639 -2.55767 0
M  V30 5286 H 513.425 -0.749793 -1.22939 0
M  V30 5287 H 515.378 0.237298 -4.20731 0
M  V30 5288 H 514.102 0.881658 -3.14475 0
M  V30 5289 H 512.761 -1.22829 -3.45411 0
M  V30 5290 H 512.409 0.723519 -4.97769 0
M  V30 5291 H 512.109 -0.817968 -5.81879 0
M  V30 5292 H 513.633 0.0692499 -6.10561 0
M  V30 5293 H 515.047 -2.07132 -5.34574 0
M  V30 5294 H 513.444 -2.85942 -5.27596 0
M  V30 5295 H 514.514 -2.92937 -3.86414 0
M  V30 5296 N 515.857 1.33968 -0.830081 0
M  V30 5297 C 516.789 2.28194 -0.21448 0
M  V30 5298 C 517.802 1.5135 0.599752 0
M  V30 5299 O 518.991 1.73286 0.42826 0
M  V30 5300 C 516.091 3.31221 0.717356 0
M  V30 5301 C 515.264 4.37365 -0.055613 0
M  V30 5302 C 514.323 5.2011 0.798231 0
M  V30 5303 O 513.349 5.68691 0.240616 0
M  V30 5304 N 514.551 5.40523 2.11695 0
M  V30 5305 H 517.316 2.81662 -1.02405 0
M  V30 5306 H 514.877 1.46568 -0.687713 0
M  V30 5307 H 516.869 3.83477 1.29334 0
M  V30 5308 H 515.439 2.78095 1.42765 0
M  V30 5309 H 514.659 3.85727 -0.812936 0
M  V30 5310 H 515.947 5.05397 -0.587444 0
M  V30 5311 H 515.345 5.0274 2.59363 0
M  V30 5312 H 513.902 5.95871 2.64162 0
M  V30 5313 N 517.335 0.585699 1.46312 0
M  V30 5314 C 518.583 0.072278 2.01971 0
M  V30 5315 C 518.904 -1.29345 1.45928 0
M  V30 5316 O 518.174 -1.84973 0.645109 0
M  V30 5317 H 516.754 0.023729 0.746623 0
M  V30 5318 H 519.416 0.762155 1.7938 0
M  V30 5319 H 518.512 0.00552767 3.121 0
M  V30 5320 N 518.813 -1.54241 0.323641 0
M  V30 5321 C 520.059 -2.01572 -0.272089 0
M  V30 5322 C 520.414 -1.20774 -1.49771 0
M  V30 5323 O 519.707 -0.281821 -1.89516 0
M  V30 5324 C 519.901 -3.5129 -0.658031 0
M  V30 5325 C 519.73 -4.46582 0.528645 0
M  V30 5326 C 518.5 -4.94737 1.02777 0
M  V30 5327 C 520.698 -4.95416 1.38086 0
M  V30 5328 N 518.68 -5.73933 2.17885 0
M  V30 5329 C 520.051 -5.72537 2.3791 0
M  V30 5330 C 522.106 -4.77559 1.40861 0
M  V30 5331 C 520.809 -6.33702 3.40314 0
M  V30 5332 C 522.835 -5.39559 2.42136 0
M  V30 5333 C 522.197 -6.16532 3.40688 0
M  V30 5334 H 518.296 -0.779425 -0.0634072 0
M  V30 5335 H 520.88 -1.8922 0.458697 0
M  V30 5336 H 519.051 -3.63888 -1.35795 0
M  V30 5337 H 520.783 -3.85388 -1.23524 0
M  V30 5338 H 517.538 -4.69796 0.599046 0
M  V30 5339 H 517.962 -6.18209 2.75947 0
M  V30 5340 H 522.604 -4.17611 0.660352 0
M  V30 5341 H 520.322 -6.9277 4.16047 0
M  V30 5342 H 523.908 -5.27659 2.45086 0
M  V30 5343 H 522.788 -6.63655 4.1777 0
M  V30 5344 N 520.291 -0.0518155 -1.57515 0
M  V30 5345 C 521.221 0.920283 -2.146 0
M  V30 5346 C 522.202 1.32406 -1.06783 0
M  V30 5347 O 523.387 1.39866 -1.34726 0
M  V30 5348 C 520.517 2.1949 -2.6915 0
M  V30 5349 C 519.471 1.93116 -3.81956 0
M  V30 5350 C 518.797 3.27037 -4.23026 0
M  V30 5351 C 520.097 1.25225 -5.07066 0
M  V30 5352 H 521.791 0.444801 -2.96077 0
M  V30 5353 H 519.337 0.212508 -1.42423 0
M  V30 5354 H 521.29 2.87894 -3.07725 0
M  V30 5355 H 520.014 2.69244 -1.84865 0
M  V30 5356 H 518.673 1.27123 -3.43854 0
M  V30 5357 H 518.321 3.74595 -3.3569 0
M  V30 5358 H 518.021 3.10189 -4.99056 0
M  V30 5359 H 519.545 3.96673 -4.64202 0
M  V30 5360 H 520.959 1.83666 -5.43083 0
M  V30 5361 H 519.356 1.18702 -5.88243 0
M  V30 5362 H 520.426 0.228382 -4.84362 0
M  V30 5363 N 521.769 1.56035 0.221574 0
M  V30 5364 C 523.016 1.79047 0.94597 0
M  V30 5365 C 523.344 0.62057 1.84334 0
M  V30 5366 O 522.599 -0.395053 1.91671 0
M  V30 5367 C 522.898 3.07813 1.8162 0
M  V30 5368 C 522.564 4.3797 1.07206 0
M  V30 5369 C 521.226 4.73334 0.866508 0
M  V30 5370 C 523.578 5.18326 0.546565 0
M  V30 5371 C 520.906 5.8657 0.123549 0
M  V30 5372 C 523.258 6.32335 -0.18305 0
M  V30 5373 C 521.922 6.66301 -0.399861 0
M  V30 5374 H 521.192 0.655178 0.346155 0
M  V30 5375 H 523.839 1.90299 0.214146 0
M  V30 5376 H 522.144 2.91682 2.61589 0
M  V30 5377 H 523.841 3.2282 2.37884 0
M  V30 5378 H 520.431 4.10202 1.24226 0
M  V30 5379 H 524.615 4.9144 0.692847 0
M  V30 5380 H 519.871 6.11376 -0.0546591 0
M  V30 5381 H 524.045 6.9383 -0.59775 0
M  V30 5382 H 521.672 7.53889 -0.977489 0
M  V30 5383 N 523.247 -0.488276 1.49845 0
M  V30 5384 C 524.179 -1.60539 1.63584 0
M  V30 5385 C 525.192 -1.5434 0.517972 0
M  V30 5386 O 526.381 -1.60041 0.790516 0
M  V30 5387 C 523.481 -2.99374 1.58835 0
M  V30 5388 C 522.654 -3.30624 2.86368 0
M  V30 5389 C 521.713 -4.4893 2.74496 0
M  V30 5390 O 520.739 -4.50085 3.48443 0
M  V30 5391 N 521.941 -5.49591 1.86894 0
M  V30 5392 H 524.706 -1.49176 2.59936 0
M  V30 5393 H 522.267 -0.67639 1.47094 0
M  V30 5394 H 524.259 -3.76459 1.48529 0
M  V30 5395 H 522.829 -3.04595 0.702892 0
M  V30 5396 H 522.049 -2.42314 3.1093 0
M  V30 5397 H 523.337 -3.48305 3.70892 0
M  V30 5398 H 522.735 -5.51467 1.26097 0
M  V30 5399 H 521.292 -6.25728 1.82503 0
M  V30 5400 N 524.725 -1.39134 -0.740242 0
M  V30 5401 C 525.675 -1.33928 -1.84519 0
M  V30 5402 C 526.659 -0.221097 -1.59374 0
M  V30 5403 O 527.851 -0.458195 -1.70967 0
M  V30 5404 C 524.98 -1.17991 -3.22387 0
M  V30 5405 C 524.066 -2.34488 -3.53378 0
M  V30 5406 N 524.457 -3.59954 -3.5534 0
M  V30 5407 C 522.755 -2.27331 -3.83714 0
M  V30 5408 C 523.456 -4.36962 -3.83978 0
M  V30 5409 N 522.432 -3.66482 -4.01487 0
M  V30 5410 H 526.234 -2.28907 -1.84333 0
M  V30 5411 H 523.748 -1.32555 -0.938237 0
M  V30 5412 H 525.745 -1.12345 -4.01478 0
M  V30 5413 H 524.405 -0.23957 -3.23815 0
M  V30 5414 H 525.416 -3.93448 -3.36778 0
M  V30 5415 H 522.093 -1.41531 -3.92779 0
M  V30 5416 H 523.483 -5.45692 -3.92008 0
M  V30 5417 N 526.204 0.969867 -1.24223 0
M  V30 5418 C 527.136 2.0669 -0.99055 0
M  V30 5419 C 528.149 1.62753 0.0392222 0
M  V30 5420 O 529.338 1.77403 -0.197561 0
M  V30 5421 C 526.438 3.35589 -0.472594 0
M  V30 5422 C 525.611 4.08444 -1.56499 0
M  V30 5423 C 524.67 5.15616 -1.05007 0
M  V30 5424 O 523.696 5.41911 -1.7413 0
M  V30 5425 N 524.898 5.80383 0.116641 0
M  V30 5426 H 527.663 2.28855 -1.93508 0
M  V30 5427 H 525.224 1.13733 -1.15223 0
M  V30 5428 H 527.216 4.04542 -0.112919 0
M  V30 5429 H 525.786 3.10311 0.377617 0
M  V30 5430 H 525.006 3.33798 -2.09696 0
M  V30 5431 H 526.294 4.53882 -2.29932 0
M  V30 5432 H 525.692 5.6142 0.694589 0
M  V30 5433 H 524.249 6.50462 0.417483 0
M  V30 5434 N 527.682 1.05563 1.17022 0
M  V30 5435 C 529.093 0.793475 1.69 0
M  V30 5436 C 529.444 -0.683882 1.83895 0
M  V30 5437 O 528.569 -1.53116 1.5292 0
M  V30 5438 C 529.164 1.43376 3.06967 0
M  V30 5439 C 527.723 1.21956 3.56095 0
M  V30 5440 C 526.87 1.51494 2.3226 0
M  V30 5441 H 529.821 1.22008 1.01487 0
M  V30 5442 H 529.842 0.845068 3.70997 0
M  V30 5443 H 529.354 2.50899 2.96093 0
M  V30 5444 H 527.455 0.163749 3.7224 0
M  V30 5445 H 527.568 1.92713 4.38633 0
M  V30 5446 H 525.932 0.935175 2.3691 0
M  V30 5447 H 526.715 2.60159 2.23992 0
M  V30 5448 N 529.16 -1.33526 0.837174 0
M  V30 5449 C 530.092 -2.28077 0.226579 0
M  V30 5450 C 531.105 -1.51666 -0.591717 0
M  V30 5451 O 532.294 -1.73511 -0.419064 0
M  V30 5452 C 529.394 -3.31597 -0.69978 0
M  V30 5453 C 528.567 -4.37329 0.0788067 0
M  V30 5454 C 527.626 -5.20526 -0.770637 0
M  V30 5455 O 526.652 -5.68811 -0.210453 0
M  V30 5456 N 527.854 -5.41639 -2.08825 0
M  V30 5457 H 530.619 -2.81115 1.03897 0
M  V30 5458 H 528.18 -1.46201 0.695476 0
M  V30 5459 H 530.172 -3.84158 -1.27298 0
M  V30 5460 H 528.742 -2.78848 -1.41288 0
M  V30 5461 H 527.962 -3.8529 0.833381 0
M  V30 5462 H 529.25 -5.05079 0.614238 0
M  V30 5463 H 528.648 -5.04108 -2.56693 0
M  V30 5464 H 527.205 -5.97263 -2.60998 0
M  V30 5465 N 530.638 -0.59345 -1.46 0
M  V30 5466 C 531.885 -0.0831523 -2.02329 0
M  V30 5467 C 532.213 1.28093 -1.46364 0
M  V30 5468 O 531.468 1.85526 -0.622793 0
M  V30 5469 C 531.767 0.021178 -3.57394 0
M  V30 5470 C 531.433 -1.27671 -4.32448 0
M  V30 5471 C 530.095 -1.63227 -4.5267 0
M  V30 5472 C 532.447 -2.13511 -4.7546 0
M  V30 5473 C 529.775 -2.84401 -5.1316 0
M  V30 5474 C 532.127 -3.33922 -5.37289 0
M  V30 5475 C 530.791 -3.69747 -5.55737 0
M  V30 5476 H 530.061 -0.0304276 -0.740375 0
M  V30 5477 H 532.708 -0.772239 -1.75239 0
M  V30 5478 H 531.013 0.793454 -3.83682 0
M  V30 5479 H 532.71 0.431942 -3.98667 0
M  V30 5480 H 529.3 -0.989937 -4.17011 0
M  V30 5481 H 533.484 -1.87344 -4.59582 0
M  V30 5482 H 528.74 -3.12282 -5.25633 0
M  V30 5483 H 532.914 -4.00698 -5.69574 0
M  V30 5484 H 530.541 -4.6373 -6.02377 0
M  V30 5485 N 532.116 1.54067 -0.331816 0
M  V30 5486 C 533.362 2.01713 0.261395 0
M  V30 5487 C 533.717 1.21566 1.49129 0
M  V30 5488 O 533.01 0.291867 1.89364 0
M  V30 5489 C 533.204 3.51634 0.639392 0
M  V30 5490 C 533.033 4.46295 -0.552321 0
M  V30 5491 C 531.803 4.94185 -1.05399 0
M  V30 5492 C 534.001 4.94677 -1.40711 0
M  V30 5493 N 531.983 5.7277 -2.20925 0
M  V30 5494 C 533.354 5.71267 -2.40943 0
M  V30 5495 C 535.409 4.76805 -1.43392 0
M  V30 5496 C 534.112 6.31889 -3.4367 0
M  V30 5497 C 536.138 5.38268 -2.44994 0
M  V30 5498 C 535.5 6.14716 -3.43952 0
M  V30 5499 H 531.599 0.77975 0.0592729 0
M  V30 5500 H 534.183 1.88974 -0.468726 0
M  V30 5501 H 532.354 3.64603 1.33863 0
M  V30 5502 H 534.086 3.86038 1.21478 0
M  V30 5503 H 530.841 4.69472 -0.623952 0
M  V30 5504 H 531.265 6.16737 -2.79222 0
M  V30 5505 H 535.907 4.17255 -0.682489 0
M  V30 5506 H 533.625 6.90554 -4.19715 0
M  V30 5507 H 537.211 5.26352 -2.4788 0
M  V30 5508 H 536.091 6.6143 -4.21283 0
M  V30 5509 N 533.594 0.0601682 1.57485 0
M  V30 5510 C 534.842 -0.610386 1.92662 0
M  V30 5511 C 535.163 -1.70849 0.939981 0
M  V30 5512 O 534.433 -1.95895 -0.0137455 0
M  V30 5513 H 533.013 -0.228457 0.711208 0
M  V30 5514 H 535.675 0.115288 1.94559 0
M  V30 5515 H 534.771 -1.0432 2.94149 0
M  V30 5516 N 535.072 -1.5615 -0.213296 0
M  V30 5517 C 536.483 -1.69645 -0.779582 0
M  V30 5518 C 536.834 -0.663615 -1.84636 0
M  V30 5519 O 535.959 0.183633 -2.15619 0
M  V30 5520 C 536.554 -3.07567 -1.42084 0
M  V30 5521 C 535.113 -3.22889 -1.93442 0
M  V30 5522 C 534.26 -2.65581 -0.797612 0
M  V30 5523 H 537.211 -1.58696 0.0114951 0
M  V30 5524 H 537.232 -3.03884 -2.28986 0
M  V30 5525 H 536.744 -3.82716 -0.644187 0
M  V30 5526 H 534.845 -2.52623 -2.73884 0
M  V30 5527 H 534.958 -4.30197 -2.10872 0
M  V30 5528 H 533.322 -2.24278 -1.20712 0
M  V30 5529 H 534.105 -3.43284 -0.033494 0
M  V30 5530 N 536.55 0.480323 -1.50102 0
M  V30 5531 C 537.513 1.56181 -1.6775 0
M  V30 5532 C 538.513 1.51156 -0.548503 0
M  V30 5533 O 539.703 1.5394 -0.815363 0
M  V30 5534 C 536.835 2.95823 -1.69415 0
M  V30 5535 H 538.028 1.41855 -2.6423 0
M  V30 5536 H 535.581 0.70605 -1.39444 0
M  V30 5537 H 536.316 3.15604 -0.745948 0
M  V30 5538 H 536.101 3.00878 -2.51425 0
M  V30 5539 H 537.591 3.74359 -1.85054 0
M  V30 5540 N 538.028 1.39524 0.732853 0
M  V30 5541 C 538.96 1.34318 1.85718 0
M  V30 5542 C 539.973 0.251576 1.60844 0
M  V30 5543 O 541.162 0.510685 1.71039 0
M  V30 5544 C 538.262 1.06334 3.21786 0
M  V30 5545 C 537.435 2.26813 3.73998 0
M  V30 5546 C 536.494 1.95253 4.88634 0
M  V30 5547 O 535.52 2.67957 5.02183 0
M  V30 5548 N 536.722 0.919984 5.73164 0
M  V30 5549 H 539.487 2.3121 1.90688 0
M  V30 5550 H 537.048 1.33654 0.91368 0
M  V30 5551 H 539.04 0.832363 3.96048 0
M  V30 5552 H 537.61 0.181682 3.12072 0
M  V30 5553 H 536.83 2.65849 2.91064 0
M  V30 5554 H 538.118 3.0717 4.05616 0
M  V30 5555 H 537.516 0.317487 5.64808 0
M  V30 5556 H 536.073 0.748905 6.47483 0
M  V30 5557 N 539.506 -0.963266 1.24736 0
M  V30 5558 C 540.755 -1.70115 1.08369 0
M  V30 5559 C 541.068 -1.91939 -0.376688 0
M  V30 5560 O 542.274 -2.6334 -0.660624 0
M  V30 5561 C 540.73 -3.06218 1.89099 0
M  V30 5562 C 540.338 -2.92221 3.39574 0
M  V30 5563 C 542.082 -3.83848 1.81275 0
M  V30 5564 C 539.989 -4.23662 4.12631 0
M  V30 5565 H 538.919 -0.637944 0.401924 0
M  V30 5566 H 541.57 -1.07304 1.48856 0
M  V30 5567 H 539.952 -3.69884 1.41429 0
M  V30 5568 H 541.126 -2.37541 3.94856 0
M  V30 5569 H 539.441 -2.28054 3.48397 0
M  V30 5570 H 542.038 -4.81188 2.33158 0
M  V30 5571 H 542.381 -4.08949 0.778895 0
M  V30 5572 H 542.914 -3.26918 2.26649 0
M  V30 5573 H 539.653 -4.03753 5.16395 0
M  V30 5574 H 539.173 -4.78141 3.62135 0
M  V30 5575 H 540.852 -4.92256 4.19873 0
M  V30 5576 N 540.985 -1.06182 -1.16461 0
M  V30 5577 C 542.401 -0.785065 -1.38956 0
M  V30 5578 C 542.601 0.616103 -1.9185 0
M  V30 5579 O 541.657 1.37686 -2.11657 0
M  V30 5580 C 542.97 -1.84902 -2.37132 0
M  V30 5581 C 544.518 -1.8724 -2.50819 0
M  V30 5582 C 544.993 -2.92686 -3.52277 0
M  V30 5583 N 546.484 -2.91712 -3.59803 0
M  V30 5584 C 547.219 -3.69949 -4.38093 0
M  V30 5585 N 546.715 -4.58 -5.19815 0
M  V30 5586 N 548.508 -3.58346 -4.33064 0
M  V30 5587 H 540.659 -1.96569 -0.804634 0
M  V30 5588 H 542.922 -0.851747 -0.416211 0
M  V30 5589 H 542.628 -2.85518 -2.0536 0
M  V30 5590 H 542.502 -1.69908 -3.36766 0
M  V30 5591 H 544.889 -0.872827 -2.81897 0
M  V30 5592 H 544.97 -2.06311 -1.51226 0
M  V30 5593 H 544.614 -3.92835 -3.21937 0
M  V30 5594 H 544.544 -2.70864 -4.51598 0
M  V30 5595 H 547.035 -2.27876 -3.01464 0
M  V30 5596 H 547.348 -5.14357 -5.76764 0
M  V30 5597 H 545.693 -4.62056 -5.19162 0
M  V30 5598 H 548.884 -2.88943 -3.68279 0
M  V30 5599 H 549.057 -4.19563 -4.93833 0
M  V30 5600 N 542.463 1.3308 -0.844243 0
M  V30 5601 C 543.426 2.27403 -0.286485 0
M  V30 5602 C 544.426 1.51179 0.547872 0
M  V30 5603 O 545.616 1.70421 0.360886 0
M  V30 5604 C 542.748 3.35653 0.595813 0
M  V30 5605 H 543.941 2.78248 -1.11885 0
M  V30 5606 H 541.494 1.43574 -0.617749 0
M  V30 5607 H 542.229 2.90058 1.4504 0
M  V30 5608 H 542.014 3.921 -0.00125994 0
M  V30 5609 H 543.504 4.05958 0.979168 0
M  V30 5610 N 543.941 0.601185 1.45683 0
M  V30 5611 C 545.187 0.0940202 2.02582 0
M  V30 5612 C 545.52 -1.26972 1.46941 0
M  V30 5613 O 544.795 -1.83613 0.641612 0
M  V30 5614 C 545.078 0.0481715 3.60068 0
M  V30 5615 C 544.931 1.44212 4.26055 0
M  V30 5616 C 546.25 -0.642975 4.35378 0
M  V30 5617 H 543.369 0.0356404 0.736138 0
M  V30 5618 H 546.011 0.771929 1.73612 0
M  V30 5619 H 544.161 -0.529128 3.8488 0
M  V30 5620 H 545.833 2.06601 4.12449 0
M  V30 5621 H 544.076 2.00465 3.84703 0
M  V30 5622 H 544.747 1.36234 5.34925 0
M  V30 5623 H 547.223 -0.152351 4.15821 0
M  V30 5624 H 546.099 -0.644141 5.45107 0
M  V30 5625 H 546.36 -1.70785 4.0778 0
M  V30 5626 N 545.419 -1.53889 0.339982 0
M  V30 5627 C 546.349 -2.27843 -0.510856 0
M  V30 5628 C 547.33 -1.29267 -1.10563 0
M  V30 5629 O 548.515 -1.58104 -1.12768 0
M  V30 5630 C 545.645 -3.04857 -1.66372 0
M  V30 5631 C 544.599 -4.10907 -1.19746 0
M  V30 5632 C 543.925 -4.75855 -2.43857 0
M  V30 5633 C 545.225 -5.21435 -0.300501 0
M  V30 5634 H 546.919 -2.99212 0.106067 0
M  V30 5635 H 544.465 -1.43904 0.0524533 0
M  V30 5636 H 546.418 -3.5533 -2.26537 0
M  V30 5637 H 545.142 -2.31133 -2.30749 0
M  V30 5638 H 543.801 -3.61342 -0.618654 0
M  V30 5639 H 543.449 -3.9873 -3.06633 0
M  V30 5640 H 543.149 -5.47502 -2.13343 0
M  V30 5641 H 544.673 -5.2911 -3.04754 0
M  V30 5642 H 546.087 -5.67565 -0.80889 0
M  V30 5643 H 544.484 -6.00036 -0.0874076 0
M  V30 5644 H 545.554 -4.80328 0.664321 0
M  V30 5645 N 546.897 -0.0685191 -1.57451 0
M  V30 5646 C 548.145 0.60016 -1.92983 0
M  V30 5647 C 548.466 1.70348 -0.949028 0
M  V30 5648 O 547.736 1.959 0.00335647 0
M  V30 5649 H 546.316 0.224682 -0.712409 0
M  V30 5650 H 548.978 -0.125605 -1.94495 0
M  V30 5651 H 548.074 1.02759 -2.94698 0
M  V30 5652 N 548.375 1.56261 0.205012 0
M  V30 5653 C 549.338 1.92908 1.23771 0
M  V30 5654 C 550.338 0.809208 1.38955 0
M  V30 5655 O 551.528 1.07676 1.36936 0
M  V30 5656 C 548.66 2.19442 2.60879 0
M  V30 5657 H 549.853 2.85287 0.924728 0
M  V30 5658 H 547.406 1.49798 0.446125 0
M  V30 5659 H 548.141 1.29668 2.97248 0
M  V30 5660 H 547.926 3.0104 2.51232 0
M  V30 5661 H 549.416 2.48833 3.35368 0
M  V30 5662 N 549.853 -0.472356 1.50355 0
M  V30 5663 C 551.099 -1.22634 1.6152 0
M  V30 5664 C 551.432 -1.91645 0.313995 0
M  V30 5665 O 550.707 -1.82059 -0.684446 0
M  V30 5666 C 550.99 -2.27099 2.7946 0
M  V30 5667 C 550.843 -1.62402 4.19459 0
M  V30 5668 C 552.162 -3.28421 2.92964 0
M  V30 5669 H 549.281 -0.444494 0.587873 0
M  V30 5670 H 551.923 -0.520321 1.82737 0
M  V30 5671 H 550.073 -2.87314 2.61501 0
M  V30 5672 H 551.745 -1.05793 4.49005 0
M  V30 5673 H 549.988 -0.927184 4.23776 0
M  V30 5674 H 550.659 -2.38309 4.97909 0
M  V30 5675 H 553.135 -2.78227 3.09401 0
M  V30 5676 H 552.011 -3.98845 3.77113 0
M  V30 5677 H 552.272 -3.92467 2.03525 0
M  V30 5678 N 551.331 -1.39911 -0.725443 0
M  V30 5679 C 552.742 -1.33599 -1.30415 0
M  V30 5680 C 553.093 -0.00481792 -1.96199 0
M  V30 5681 O 552.218 0.897275 -1.96921 0
M  V30 5682 C 552.813 -2.41965 -2.37146 0
M  V30 5683 C 551.372 -2.39144 -2.90667 0
M  V30 5684 C 550.519 -2.23355 -1.64341 0
M  V30 5685 H 553.47 -1.4986 -0.522267 0
M  V30 5686 H 553.491 -2.09304 -3.17761 0
M  V30 5687 H 553.003 -3.38837 -1.89238 0
M  V30 5688 H 551.104 -1.4594 -3.4283 0
M  V30 5689 H 551.217 -3.34362 -3.43131 0
M  V30 5690 H 549.581 -1.70696 -1.89037 0
M  V30 5691 H 550.364 -3.2221 -1.18471 0
M  V30 5692 N 552.809 0.956637 -1.25245 0
M  V30 5693 C 554.225 1.22733 -1.02023 0
M  V30 5694 C 554.425 1.99761 0.264186 0
M  V30 5695 O 553.481 2.32814 0.977436 0
M  V30 5696 C 554.794 2.00367 -2.24217 0
M  V30 5697 C 556.342 2.13418 -2.28958 0
M  V30 5698 C 556.817 2.9445 -3.50803 0
M  V30 5699 N 558.308 3.02029 -3.51187 0
M  V30 5700 C 559.043 3.65116 -4.42129 0
M  V30 5701 N 558.539 4.2983 -5.43339 0
M  V30 5702 N 560.332 3.62237 -4.29815 0
M  V30 5703 H 552.483 0.441282 -2.07765 0
M  V30 5704 H 554.746 0.257686 -0.912306 0
M  V30 5705 H 554.452 1.51165 -3.17556 0
M  V30 5706 H 554.326 3.01077 -2.27228 0
M  V30 5707 H 556.713 2.61819 -1.36143 0
M  V30 5708 H 556.794 1.1202 -2.29968 0
M  V30 5709 H 556.438 2.46741 -4.43939 0
M  V30 5710 H 556.368 3.9607 -3.47039 0
M  V30 5711 H 558.859 2.56007 -2.77973 0
M  V30 5712 H 559.172 4.75819 -6.08947 0
M  V30 5713 H 557.517 4.28465 -5.47214 0
M  V30 5714 H 560.708 3.10863 -3.49974 0
M  V30 5715 H 560.881 4.11117 -5.00886 0
M  V30 5716 N 554.287 1.06798 1.15896 0
M  V30 5717 C 555.535 0.786211 1.8618 0
M  V30 5718 C 555.856 -0.689547 1.82401 0
M  V30 5719 O 555.126 -1.49913 1.26107 0
M  V30 5720 H 553.706 0.287843 0.689315 0
M  V30 5721 H 556.368 1.35055 1.40521 0
M  V30 5722 H 555.464 1.1157 2.91477 0
M  V30 5723 N 555.766 -1.3263 0.851289 0
M  V30 5724 C 557.182 -1.50162 0.5407 0
M  V30 5725 C 557.382 -1.78788 -0.929369 0
M  V30 5726 O 556.438 -1.85545 -1.71258 0
M  V30 5727 C 557.751 -2.64803 1.42478 0
M  V30 5728 C 559.299 -2.78688 1.42485 0
M  V30 5729 C 559.774 -3.96405 2.29407 0
M  V30 5730 N 561.265 -4.0366 2.27184 0
M  V30 5731 C 562 -4.93971 2.9117 0
M  V30 5732 N 561.496 -5.89313 3.64256 0
M  V30 5733 N 563.289 -4.87066 2.80576 0
M  V30 5734 H 555.44 -1.12315 1.80275 0
M  V30 5735 H 557.703 -0.553266 0.769806 0
M  V30 5736 H 557.409 -2.50368 2.46999 0
M  V30 5737 H 557.283 -3.60506 1.10974 0
M  V30 5738 H 559.67 -2.92547 0.387304 0
M  V30 5739 H 559.751 -1.83708 1.78002 0
M  V30 5740 H 559.395 -3.83304 3.33228 0
M  V30 5741 H 559.325 -4.90654 1.91224 0
M  V30 5742 H 561.816 -3.35435 1.74045 0
M  V30 5743 H 562.129 -6.54913 4.10255 0
M  V30 5744 H 560.474 -5.8935 3.68364 0
M  V30 5745 H 563.665 -4.11552 2.23031 0
M  V30 5746 H 563.838 -5.57248 3.30725 0
M  V30 5747 N 557.244 -0.608902 -1.45362 0
M  V30 5748 C 558.174 0.0964526 -2.33301 0
M  V30 5749 C 559.155 0.857444 -1.46908 0
M  V30 5750 O 560.34 0.827735 -1.75676 0
M  V30 5751 C 557.47 1.09354 -3.29635 0
M  V30 5752 C 556.424 0.445676 -4.25673 0
M  V30 5753 C 555.75 1.5511 -5.11708 0
M  V30 5754 C 557.05 -0.633972 -5.18438 0
M  V30 5755 H 558.744 -0.637829 -2.92527 0
M  V30 5756 H 556.29 -0.308178 -1.40664 0
M  V30 5757 H 558.243 1.59556 -3.90025 0
M  V30 5758 H 556.967 1.85843 -2.6857 0
M  V30 5759 H 555.626 -0.0354897 -3.66583 0
M  V30 5760 H 555.274 2.30631 -4.4701 0
M  V30 5761 H 554.974 1.12311 -5.76767 0
M  V30 5762 H 556.498 2.05537 -5.74967 0
M  V30 5763 H 557.912 -0.215974 -5.72893 0
M  V30 5764 H 556.309 -0.983789 -5.91981 0
M  V30 5765 H 557.379 -1.51005 -4.60788 0
M  V30 5766 N 558.722 1.53707 -0.348139 0
M  V30 5767 C 559.652 2.28111 0.498766 0
M  V30 5768 C 560.633 1.29851 1.09876 0
M  V30 5769 O 561.818 1.587 1.11928 0
M  V30 5770 C 558.948 3.05735 1.64753 0
M  V30 5771 C 557.902 4.11537 1.17565 0
M  V30 5772 C 557.228 4.77142 2.4133 0
M  V30 5773 C 558.528 5.21587 0.272844 0
M  V30 5774 H 560.222 2.99152 -0.121934 0
M  V30 5775 H 557.768 1.43875 -0.0600842 0
M  V30 5776 H 559.721 3.56526 2.24649 0
M  V30 5777 H 558.445 2.32354 2.2952 0
M  V30 5778 H 557.104 3.61665 0.599483 0
M  V30 5779 H 556.752 4.0035 3.04514 0
M  V30 5780 H 556.452 5.48626 2.10436 0
M  V30 5781 H 557.976 5.30719 3.01943 0
M  V30 5782 H 559.39 5.67986 0.778779 0
M  V30 5783 H 557.787 6.00074 0.0555849 0
M  V30 5784 H 558.857 4.79969 -0.689785 0
M  V30 5785 N 560.2 0.0768682 1.57412 0
M  V30 5786 C 561.446 -0.591961 1.93968 0
M  V30 5787 C 561.779 -1.68954 0.9575 0
M  V30 5788 O 561.054 -1.94496 -0.0124675 0
M  V30 5789 C 561.337 -1.16418 3.40762 0
M  V30 5790 C 561.19 -0.0728933 4.49741 0
M  V30 5791 C 562.509 -2.06814 3.88479 0
M  V30 5792 H 559.628 -0.213716 0.705333 0
M  V30 5793 H 562.27 0.14387 1.89455 0
M  V30 5794 H 560.42 -1.79128 3.4474 0
M  V30 5795 H 562.092 0.560446 4.57883 0
M  V30 5796 H 560.335 0.595859 4.29688 0
M  V30 5797 H 561.006 -0.513755 5.49604 0
M  V30 5798 H 563.482 -1.54033 3.8654 0
M  V30 5799 H 562.358 -2.43785 4.91793 0
M  V30 5800 H 562.619 -2.97844 3.26713 0
M  V30 5801 N 561.678 -1.56367 -0.196722 0
M  V30 5802 C 562.608 -1.97442 -1.24655 0
M  V30 5803 C 563.589 -0.846147 -1.47561 0
M  V30 5804 O 564.774 -1.11035 -1.59326 0
M  V30 5805 C 561.904 -2.31253 -2.59112 0
M  V30 5806 C 560.858 -3.46804 -2.50821 0
M  V30 5807 C 560.184 -3.66286 -3.89536 0
M  V30 5808 C 561.484 -4.8104 -2.03465 0
M  V30 5809 H 563.178 -2.85388 -0.905216 0
M  V30 5810 H 560.724 -1.37304 -0.434002 0
M  V30 5811 H 562.677 -2.58583 -3.32736 0
M  V30 5812 H 561.401 -1.40188 -2.94983 0
M  V30 5813 H 560.06 -3.19563 -1.79653 0
M  V30 5814 H 559.708 -2.72555 -4.22756 0
M  V30 5815 H 559.408 -4.4402 -3.84864 0
M  V30 5816 H 560.932 -3.9599 -4.64784 0
M  V30 5817 H 562.346 -5.07411 -2.66846 0
M  V30 5818 H 560.743 -5.62232 -2.09798 0
M  V30 5819 H 561.813 -4.74732 -0.98781 0
M  V30 5820 N 563.156 0.464375 -1.50603 0
M  V30 5821 C 564.433 1.22549 -1.5245 0
M  V30 5822 C 564.813 2.09327 -0.273035 0
M  V30 5823 O 564.161 2.16074 0.743242 0
M  V30 5824 C 564.371 2.05074 -2.82393 0
M  V30 5825 C 565.719 2.63036 -3.33313 0
M  V30 5826 O 566.743 2.1531 -2.8376 0
M  V30 5827 O 565.602 3.5001 -4.19709 0
M  V30 5828 H 562.696 0.556471 -0.611775 0
M  V30 5829 H 565.242 0.475648 -1.62898 0
M  V30 5830 H 564.014 1.41169 -3.64948 0
M  V30 5831 H 563.637 2.87179 -2.7498 0
M  V30 5832 N 564.634 1.40294 0.718013 0
M  V30 5833 C 565.564 1.43118 1.84498 0
M  V30 5834 C 566.545 0.292403 1.67568 0
M  V30 5835 O 567.73 0.500675 1.87635 0
M  V30 5836 C 564.86 1.29065 3.22427 0
M  V30 5837 C 563.814 2.40521 3.54025 0
M  V30 5838 C 563.14 2.11546 4.91073 0
M  V30 5839 C 564.44 3.82859 3.55269 0
M  V30 5840 H 566.134 2.37432 1.82391 0
M  V30 5841 H 563.68 1.14283 0.87609 0
M  V30 5842 H 565.633 1.29658 4.00957 0
M  V30 5843 H 564.357 0.312271 3.25104 0
M  V30 5844 H 563.016 2.39173 2.77834 0
M  V30 5845 H 562.664 1.12104 4.90348 0
M  V30 5846 H 562.364 2.86216 5.1318 0
M  V30 5847 H 563.888 2.13817 5.71939 0
M  V30 5848 H 565.302 3.86044 4.23843 0
M  V30 5849 H 563.699 4.57029 3.88902 0
M  V30 5850 H 564.769 4.12617 2.54706 0
M  V30 5851 N 566.112 -0.949982 1.2575 0
M  V30 5852 C 567.359 -1.69515 1.10774 0
M  V30 5853 C 567.687 -1.91316 -0.350479 0
M  V30 5854 O 566.942 -1.48515 -1.27443 0
M  V30 5855 C 567.241 -3.08039 1.81237 0
M  V30 5856 C 566.907 -3.06023 3.31151 0
M  V30 5857 C 565.569 -3.0518 3.72047 0
M  V30 5858 C 567.921 -2.98998 4.26907 0
M  V30 5859 C 565.249 -2.95067 5.07102 0
M  V30 5860 C 567.601 -2.90426 5.61992 0
M  V30 5861 C 566.265 -2.87922 6.0221 0
M  V30 5862 H 565.535 -0.6203 0.405351 0
M  V30 5863 H 568.182 -1.10953 1.56082 0
M  V30 5864 H 566.487 -3.70172 1.28373 0
M  V30 5865 H 568.184 -3.64526 1.67098 0
M  V30 5866 H 564.774 -3.07453 2.98614 0
M  V30 5867 H 568.958 -2.98764 3.963 0
M  V30 5868 H 564.214 -2.915 5.37436 0
M  V30 5869 H 568.388 -2.83952 6.35881 0
M  V30 5870 H 566.015 -2.79841 7.06819 0
M  V30 5871 N 567.59 -1.07411 -1.15328 0
M  V30 5872 C 568.553 -0.698914 -2.18284 0
M  V30 5873 C 569.553 0.261149 -1.58665 0
M  V30 5874 O 570.743 0.0420277 -1.74149 0
M  V30 5875 C 567.875 -0.0302427 -3.40887 0
M  V30 5876 H 569.068 -1.61045 -2.52991 0
M  V30 5877 H 566.621 -0.870724 -1.298 0
M  V30 5878 H 567.356 0.893505 -3.11748 0
M  V30 5879 H 567.141 -0.720759 -3.85419 0
M  V30 5880 H 568.631 0.21759 -4.17033 0
M  V30 5881 N 569.068 1.32177 -0.85831 0
M  V30 5882 C 569.978 2.32561 -0.308606 0
M  V30 5883 C 570.994 1.64209 0.575462 0
M  V30 5884 O 572.17 1.95719 0.474961 0
M  V30 5885 C 569.235 3.43207 0.490909 0
M  V30 5886 C 568.296 4.27243 -0.419733 0
M  V30 5887 C 567.529 5.32605 0.341719 0
M  V30 5888 O 567.752 5.48332 1.57125 0
M  V30 5889 O 566.686 6.0118 -0.294379 0
M  V30 5890 H 570.512 2.81477 -1.14037 0
M  V30 5891 H 568.097 1.35866 -0.621349 0
M  V30 5892 H 569.979 4.10677 0.944574 0
M  V30 5893 H 568.654 2.96474 1.29941 0
M  V30 5894 H 567.561 3.62569 -0.921652 0
M  V30 5895 H 568.894 4.7751 -1.19352 0
M  V30 5896 N 570.547 0.616602 1.45037 0
M  V30 5897 C 571.772 0.120192 2.07051 0
M  V30 5898 C 572.197 -1.19008 1.45666 0
M  V30 5899 O 571.555 -1.7267 0.552692 0
M  V30 5900 C 571.603 0.00354901 3.606 0
M  V30 5901 O 570.707 -1.04431 3.98958 0
M  V30 5902 H 570.048 0.0781599 0.659384 0
M  V30 5903 H 572.578 0.849167 1.86146 0
M  V30 5904 H 572.588 -0.191754 4.07549 0
M  V30 5905 H 571.263 0.960239 4.04663 0
M  V30 5906 H 569.84 -0.824749 3.63665 0
M  V30 5907 N 572.025 -1.5352 0.356285 0
M  V30 5908 C 572.957 -2.23009 -0.529127 0
M  V30 5909 C 573.97 -1.241 -1.05371 0
M  V30 5910 O 575.159 -1.50379 -0.961679 0
M  V30 5911 C 572.259 -2.90685 -1.74229 0
M  V30 5912 C 571.432 -4.16019 -1.35081 0
M  V30 5913 C 570.491 -4.66989 -2.42502 0
M  V30 5914 O 569.517 -5.30895 -2.05279 0
M  V30 5915 N 570.719 -4.44006 -3.7395 0
M  V30 5916 H 573.484 -2.99627 0.0660501 0
M  V30 5917 H 571.045 -1.60885 0.181014 0
M  V30 5918 H 573.037 -3.21695 -2.4555 0
M  V30 5919 H 571.607 -2.17575 -2.24454 0
M  V30 5920 H 570.827 -3.91414 -0.467833 0
M  V30 5921 H 572.115 -4.9752 -1.06542 0
M  V30 5922 H 571.513 -3.92924 -4.06973 0
M  V30 5923 H 570.07 -4.7959 -4.41403 0
M  V30 5924 N 573.503 -0.0852151 -1.57369 0
M  V30 5925 C 574.914 0.445428 -1.81309 0
M  V30 5926 C 575.265 1.68795 -1.00013 0
M  V30 5927 O 574.39 2.15211 -0.226573 0
M  V30 5928 C 574.985 0.814887 -3.28854 0
M  V30 5929 C 573.544 1.29032 -3.53592 0
M  V30 5930 C 572.691 0.282089 -2.75861 0
M  V30 5931 H 575.642 -0.310771 -1.55627 0
M  V30 5932 H 575.663 1.67524 -3.41637 0
M  V30 5933 H 575.175 -0.0896309 -3.87996 0
M  V30 5934 H 573.276 2.21289 -2.9977 0
M  V30 5935 H 573.389 1.25898 -4.62262 0
M  V30 5936 H 571.753 0.762182 -2.43029 0
M  V30 5937 H 572.536 -0.614936 -3.37748 0
M  V30 5938 N 574.981 1.5647 0.188427 0
M  V30 5939 C 576.227 1.81281 0.909124 0
M  V30 5940 C 576.56 0.66034 1.82628 0
M  V30 5941 O 575.835 -0.338737 1.91528 0
M  V30 5942 C 576.118 3.16388 1.7196 0
M  V30 5943 C 575.971 4.42137 0.826714 0
M  V30 5944 C 577.29 3.48256 2.69083 0
M  V30 5945 H 574.409 0.659457 0.329068 0
M  V30 5946 H 577.051 1.89182 0.176156 0
M  V30 5947 H 575.201 3.09784 2.34448 0
M  V30 5948 H 576.873 4.60794 0.216025 0
M  V30 5949 H 575.116 4.33594 0.133792 0
M  V30 5950 H 575.787 5.33184 1.42893 0
M  V30 5951 H 578.263 3.55203 2.16726 0
M  V30 5952 H 577.139 4.43899 3.2287 0
M  V30 5953 H 577.4 2.72088 3.48455 0
M  V30 5954 N 576.459 -0.456382 1.50847 0
M  V30 5955 C 577.689 -1.22848 1.66108 0
M  V30 5956 C 578.097 -1.85936 0.349897 0
M  V30 5957 O 577.44 -1.70664 -0.679665 0
M  V30 5958 C 577.502 -2.36722 2.70561 0
M  V30 5959 C 577.166 -1.94154 4.13707 0
M  V30 5960 C 578.163 -1.4557 4.99105 0
M  V30 5961 C 575.848 -2.02426 4.59705 0
M  V30 5962 C 577.842 -1.0582 6.28555 0
M  V30 5963 C 575.529 -1.62287 5.89157 0
M  V30 5964 C 576.527 -1.14064 6.73408 0
M  V30 5965 O 576.215 -0.744873 8.00442 0
M  V30 5966 H 575.947 -0.377105 0.561042 0
M  V30 5967 H 578.501 -0.549431 1.97915 0
M  V30 5968 H 576.731 -3.07844 2.34027 0
M  V30 5969 H 578.42 -2.98646 2.74892 0
M  V30 5970 H 579.186 -1.38589 4.64777 0
M  V30 5971 H 575.065 -2.38908 3.94264 0
M  V30 5972 H 578.609 -0.6811 6.94267 0
M  V30 5973 H 574.506 -1.68932 6.23003 0
M  V30 5974 H 575.274 -0.87242 8.13837 0
M  V30 5975 N 577.937 -1.40673 -0.710563 0
M  V30 5976 C 579.165 -1.42547 -1.4996 0
M  V30 5977 C 579.58 -0.0265485 -1.88781 0
M  V30 5978 O 578.937 0.950694 -1.55782 0
M  V30 5979 C 578.988 -2.32071 -2.77173 0
M  V30 5980 O 578.709 -3.66518 -2.39992 0
M  V30 5981 C 580.21 -2.42591 -3.71032 0
M  V30 5982 H 577.43 -0.486025 -0.462623 0
M  V30 5983 H 579.974 -1.84783 -0.876102 0
M  V30 5984 H 578.129 -1.93184 -3.35795 0
M  V30 5985 H 578.543 -4.14115 -3.21884 0
M  V30 5986 H 580.017 -3.09429 -4.57119 0
M  V30 5987 H 580.494 -1.4525 -4.14486 0
M  V30 5988 H 581.1 -2.82051 -3.18319 0
M  V30 5989 N 579.415 0.9433 -1.26252 0
M  V30 5990 C 580.831 1.21644 -1.03319 0
M  V30 5991 C 581.031 2.0003 0.242983 0
M  V30 5992 O 580.087 2.33838 0.952688 0
M  V30 5993 C 581.4 1.97978 -2.2633 0
M  V30 5994 C 582.948 2.10978 -2.31209 0
M  V30 5995 C 583.423 2.90713 -3.53907 0
M  V30 5996 N 584.914 2.98287 -3.54371 0
M  V30 5997 C 585.649 3.60406 -4.45976 0
M  V30 5998 N 585.145 4.24043 -5.47868 0
M  V30 5999 N 586.938 3.57658 -4.33633 0
M  V30 6000 H 579.089 0.419221 -2.08222 0
M  V30 6001 H 581.352 0.247995 -0.914988 0
M  V30 6002 H 581.058 1.47788 -3.19142 0
M  V30 6003 H 580.932 2.9865 -2.30408 0
M  V30 6004 H 583.319 2.6036 -1.38913 0
M  V30 6005 H 583.4 1.09575 -2.31143 0
M  V30 6006 H 583.044 2.42018 -4.46531 0
M  V30 6007 H 582.974 3.92367 -3.5122 0
M  V30 6008 H 585.465 2.53044 -2.80673 0
M  V30 6009 H 585.778 4.69334 -6.13959 0
M  V30 6010 H 584.123 4.22637 -5.51728 0
M  V30 6011 H 587.314 3.07134 -3.53251 0
M  V30 6012 H 587.487 4.05782 -5.05218 0
M  V30 6013 N 580.893 1.08022 1.14757 0
M  V30 6014 C 582.121 0.828847 1.89572 0
M  V30 6015 C 582.536 -0.618621 1.78377 0
M  V30 6016 O 581.893 -1.42482 1.1404 0
M  V30 6017 C 581.944 1.23677 3.39685 0
M  V30 6018 O 581.665 2.62746 3.50566 0
M  V30 6019 C 583.166 1.01569 4.31507 0
M  V30 6020 H 580.386 0.299196 0.600602 0
M  V30 6021 H 582.93 1.43846 1.45357 0
M  V30 6022 H 581.085 0.671347 3.81539 0
M  V30 6023 H 581.499 2.79573 4.43778 0
M  V30 6024 H 582.973 1.35055 5.35223 0
M  V30 6025 H 583.45 -0.0475433 4.39174 0
M  V30 6026 H 584.056 1.56636 3.95405 0
M  V30 6027 N 582.371 -1.3172 0.865308 0
M  V30 6028 C 583.334 -2.26918 0.322627 0
M  V30 6029 C 584.334 -1.52031 -0.523751 0
M  V30 6030 O 585.524 -1.70973 -0.333727 0
M  V30 6031 C 582.656 -3.36558 -0.542338 0
M  V30 6032 H 583.849 -2.76432 1.16298 0
M  V30 6033 H 581.402 -1.42573 0.640512 0
M  V30 6034 H 582.137 -2.92329 -1.40407 0
M  V30 6035 H 581.922 -3.92048 0.0636395 0
M  V30 6036 H 583.412 -4.07465 -0.91446 0
M  V30 6037 N 583.85 -0.624285 -1.44708 0
M  V30 6038 C 585.075 -0.131171 -2.06985 0
M  V30 6039 C 585.5 1.18234 -1.46295 0
M  V30 6040 O 584.858 1.72375 -0.561842 0
M  V30 6041 C 584.906 -0.0226724 -3.60593 0
M  V30 6042 O 584.01 1.02314 -3.99507 0
M  V30 6043 H 583.351 -0.0816556 -0.65896 0
M  V30 6044 H 585.88 -0.859027 -1.85693 0
M  V30 6045 H 585.891 0.170138 -4.07645 0
M  V30 6046 H 584.566 -0.981685 -4.04148 0
M  V30 6047 H 583.143 0.805452 -3.64097 0
M  V30 6048 N 585.328 1.53329 -0.364422 0
M  V30 6049 C 586.575 2.01239 0.225634 0
M  V30 6050 C 586.903 1.25172 1.48869 0
M  V30 6051 O 586.158 0.333289 1.92841 0
M  V30 6052 C 586.457 3.52911 0.564661 0
M  V30 6053 C 586.123 4.46837 -0.603936 0
M  V30 6054 C 584.785 4.72234 -0.924585 0
M  V30 6055 C 587.137 5.02409 -1.38691 0
M  V30 6056 C 584.465 5.50454 -2.0302 0
M  V30 6057 C 586.817 5.81836 -2.48293 0
M  V30 6058 C 585.481 6.0552 -2.80894 0
M  V30 6059 H 584.751 0.736386 0.0825654 0
M  V30 6060 H 587.398 1.84948 -0.496645 0
M  V30 6061 H 585.703 3.67144 1.36794 0
M  V30 6062 H 587.4 3.87455 1.03344 0
M  V30 6063 H 583.99 4.27217 -0.343983 0
M  V30 6064 H 588.174 4.82735 -1.15243 0
M  V30 6065 H 583.43 5.67024 -2.28678 0
M  V30 6066 H 587.604 6.23905 -3.0938 0
M  V30 6067 H 585.231 6.65916 -3.66688 0
M  V30 6068 N 586.806 0.0935595 1.57322 0
M  V30 6069 C 587.738 -0.895923 2.10964 0
M  V30 6070 C 588.751 -1.24705 1.04654 0
M  V30 6071 O 589.94 -1.20044 1.32105 0
M  V30 6072 C 587.04 -2.20546 2.57318 0
M  V30 6073 C 586.213 -2.0299 3.87445 0
M  V30 6074 C 585.272 -3.17443 4.19662 0
M  V30 6075 O 584.298 -2.91474 4.88909 0
M  V30 6076 N 585.5 -4.43168 3.74943 0
M  V30 6077 H 588.265 -0.437788 2.96485 0
M  V30 6078 H 585.826 -0.0915863 1.61641 0
M  V30 6079 H 587.818 -2.9606 2.75917 0
M  V30 6080 H 586.388 -2.57789 1.76816 0
M  V30 6081 H 585.608 -1.11815 3.78009 0
M  V30 6082 H 586.896 -1.88535 4.7258 0
M  V30 6083 H 586.294 -4.67149 3.19043 0
M  V30 6084 H 584.851 -5.15637 3.987 0
M  V30 6085 N 588.284 -1.56567 -0.180126 0
M  V30 6086 C 589.532 -1.81133 -0.896392 0
M  V30 6087 C 589.853 -0.669114 -1.83161 0
M  V30 6088 O 589.123 0.311616 -1.93406 0
M  V30 6089 H 587.703 -0.668172 -0.333999 0
M  V30 6090 H 590.365 -1.94048 -0.182051 0
M  V30 6091 H 589.461 -2.74854 -1.47857 0
M  V30 6092 N 589.762 0.448376 -1.51087 0
M  V30 6093 C 590.694 1.56146 -1.67783 0
M  V30 6094 C 591.707 1.52913 -0.55871 0
M  V30 6095 O 592.896 1.57889 -0.83267 0
M  V30 6096 C 589.996 2.95057 -1.66716 0
M  V30 6097 C 589.169 3.22915 -2.95033 0
M  V30 6098 C 588.228 4.41495 -2.86302 0
M  V30 6099 O 587.254 4.40688 -3.60254 0
M  V30 6100 N 588.456 5.44443 -2.014 0
M  V30 6101 H 591.221 1.42232 -2.638 0
M  V30 6102 H 588.782 0.637153 -1.48835 0
M  V30 6103 H 590.774 3.72388 -1.58458 0
M  V30 6104 H 589.344 3.02624 -0.783403 0
M  V30 6105 H 588.564 2.33985 -3.17245 0
M  V30 6106 H 589.852 3.38349 -3.79996 0
M  V30 6107 H 589.25 5.4793 -1.40674 0
M  V30 6108 H 587.807 6.2067 -1.99029 0
M  V30 6109 N 591.24 1.41047 0.703093 0
M  V30 6110 C 592.651 1.35657 1.28274 0
M  V30 6111 C 593.002 0.0360309 1.96167 0
M  V30 6112 O 592.127 -0.865833 1.98324 0
M  V30 6113 C 592.722 2.45707 2.33267 0
M  V30 6114 C 591.281 2.43738 2.86825 0
M  V30 6115 C 590.428 2.25941 1.60767 0
M  V30 6116 H 593.379 1.50672 0.49836 0
M  V30 6117 H 593.4 2.14333 3.14391 0
M  V30 6118 H 592.912 3.41805 1.83824 0
M  V30 6119 H 591.013 1.51375 3.40465 0
M  V30 6120 H 591.126 3.39779 3.37768 0
M  V30 6121 H 589.49 1.73681 1.86298 0
M  V30 6122 H 590.273 3.24054 1.1333 0
M  V30 6123 N 592.718 -0.936591 1.26751 0
M  V30 6124 C 593.965 -1.68331 1.12566 0
M  V30 6125 C 594.293 -1.91677 -0.330168 0
M  V30 6126 O 593.548 -1.49859 -1.2586 0
M  V30 6127 C 593.847 -3.06099 1.84494 0
M  V30 6128 C 593.513 -3.02493 3.34378 0
M  V30 6129 C 592.175 -3.01217 3.75262 0
M  V30 6130 C 594.527 -2.94453 4.30055 0
M  V30 6131 C 591.855 -2.89672 5.10203 0
M  V30 6132 C 594.207 -2.84449 5.65041 0
M  V30 6133 C 592.871 -2.81518 6.0523 0
M  V30 6134 H 592.141 -0.615965 0.411907 0
M  V30 6135 H 594.788 -1.09292 1.5725 0
M  V30 6136 H 593.093 -3.6879 1.32292 0
M  V30 6137 H 594.79 -3.62733 1.70955 0
M  V30 6138 H 591.38 -3.04269 3.01858 0
M  V30 6139 H 595.564 -2.94544 3.99447 0
M  V30 6140 H 590.82 -2.85783 5.40498 0
M  V30 6141 H 594.994 -2.77192 6.38856 0
M  V30 6142 H 592.621 -2.72329 7.09747 0
M  V30 6143 N 594.196 -1.08629 -1.14182 0
M  V30 6144 C 595.445 -0.812271 -1.84621 0
M  V30 6145 C 595.758 0.664313 -1.83973 0
M  V30 6146 O 596.964 1.05357 -2.50224 0
M  V30 6147 C 595.42 -1.4031 -3.31423 0
M  V30 6148 C 595.028 -2.91164 -3.40481 0
M  V30 6149 C 596.772 -1.20767 -4.06959 0
M  V30 6150 C 594.679 -3.43373 -4.81507 0
M  V30 6151 H 593.609 -0.30019 -0.691666 0
M  V30 6152 H 596.26 -1.30798 -1.28701 0
M  V30 6153 H 594.642 -0.835096 -3.87094 0
M  V30 6154 H 595.816 -3.5412 -2.94848 0
M  V30 6155 H 594.131 -3.09646 -2.78403 0
M  V30 6156 H 596.728 -1.57237 -5.11058 0
M  V30 6157 H 597.071 -0.147664 -4.16038 0
M  V30 6158 H 597.604 -1.74274 -3.57594 0
M  V30 6159 H 594.343 -4.48958 -4.77616 0
M  V30 6160 H 593.863 -2.85176 -5.27669 0
M  V30 6161 H 595.542 -3.40095 -5.50404 0
M  V30 6162 N 595.674 1.31259 -0.872281 0
M  V30 6163 C 596.92 1.973 -0.494414 0
M  V30 6164 C 597.275 1.67684 0.94339 0
M  V30 6165 O 596.568 0.964186 1.65572 0
M  V30 6166 C 596.762 3.50659 -0.690889 0
M  V30 6167 C 596.591 3.95179 -2.14624 0
M  V30 6168 C 595.361 4.21405 -2.7883 0
M  V30 6169 C 597.559 4.08948 -3.11875 0
M  V30 6170 N 595.541 4.52295 -4.15093 0
M  V30 6171 C 596.912 4.43576 -4.33174 0
M  V30 6172 C 598.967 3.91334 -3.07835 0
M  V30 6173 C 597.67 4.62429 -5.50956 0
M  V30 6174 C 599.696 4.11381 -4.24876 0
M  V30 6175 C 599.058 4.46343 -5.44938 0
M  V30 6176 H 595.157 0.747411 -0.230002 0
M  V30 6177 H 597.741 1.58741 -1.12736 0
M  V30 6178 H 595.912 3.88301 -0.0875162 0
M  V30 6179 H 597.644 4.03722 -0.281179 0
M  V30 6180 H 594.399 4.14131 -2.29767 0
M  V30 6181 H 594.823 4.71897 -4.8543 0
M  V30 6182 H 599.465 3.6339 -2.16119 0
M  V30 6183 H 597.183 4.8922 -6.43187 0
M  V30 6184 H 600.769 3.99235 -4.23205 0
M  V30 6185 H 599.649 4.6154 -6.33996 0
M  V30 6186 N 597.152 0.631951 1.44375 0
M  V30 6187 C 598.392 0.14009 2.03919 0
M  V30 6188 C 598.756 -1.21534 1.48639 0
M  V30 6189 O 599.957 -1.79936 1.99691 0
M  V30 6190 C 598.228 0.127174 3.57174 0
M  V30 6191 S 599.787 -0.299946 4.37774 0
M  V30 6192 H 596.605 0.0614891 0.708336 0
M  V30 6193 H 599.207 0.835524 1.76746 0
M  V30 6194 H 597.911 1.11676 3.94913 0
M  V30 6195 H 597.442 -0.589482 3.88958 0
M  V30 6196 H 599.457 -1.54396 4.71568 0
M  V30 6197 N 598.631 -1.53133 0.372548 0
M  V30 6198 C 599.564 -2.22328 -0.514361 0
M  V30 6199 C 600.542 -1.21776 -1.07747 0
M  V30 6200 O 601.726 -1.50704 -1.13228 0
M  V30 6201 C 598.853 -2.92343 -1.71035 0
M  V30 6202 C 597.899 -4.07026 -1.27405 0
M  V30 6203 S 598.732 -5.34821 -0.269526 0
M  V30 6204 C 599.888 -6.08352 -1.47168 0
M  V30 6205 H 600.121 -2.9721 0.0732683 0
M  V30 6206 H 597.654 -1.53603 0.156673 0
M  V30 6207 H 599.612 -3.33296 -2.39634 0
M  V30 6208 H 598.273 -2.17173 -2.26925 0
M  V30 6209 H 597.466 -4.55056 -2.16656 0
M  V30 6210 H 597.068 -3.68001 -0.66719 0
M  V30 6211 H 599.36 -6.33507 -2.40157 0
M  V30 6212 H 600.303 -7.0053 -1.03263 0
M  V30 6213 H 600.711 -5.38893 -1.6809 0
M  V30 6214 N 600.109 -0.101901 -1.5727 0
M  V30 6215 C 601.039 0.851544 -2.17419 0
M  V30 6216 C 602.02 1.28942 -1.10941 0
M  V30 6217 O 603.205 1.35509 -1.39107 0
M  V30 6218 C 600.335 2.10816 -2.75996 0
M  V30 6219 C 599.289 1.80867 -3.87906 0
M  V30 6220 C 598.615 3.13413 -4.33216 0
M  V30 6221 C 599.915 1.0903 -5.10793 0
M  V30 6222 H 601.609 0.350381 -2.97343 0
M  V30 6223 H 599.155 0.16709 -1.43027 0
M  V30 6224 H 601.108 2.77959 -3.16729 0
M  V30 6225 H 599.832 2.63227 -1.93337 0
M  V30 6226 H 598.491 1.16119 -3.47724 0
M  V30 6227 H 598.139 3.63725 -3.47438 0
M  V30 6228 H 597.839 2.94155 -5.08671 0
M  V30 6229 H 599.363 3.81704 -4.76586 0
M  V30 6230 H 600.777 1.66295 -5.48652 0
M  V30 6231 H 599.174 0.99927 -5.91722 0
M  V30 6232 H 600.244 0.0741704 -4.84843 0
M  V30 6233 N 601.587 1.56661 0.17182 0
M  V30 6234 C 602.537 1.92781 1.21736 0
M  V30 6235 C 603.521 0.796065 1.39827 0
M  V30 6236 O 604.713 1.05924 1.41806 0
M  V30 6237 C 601.842 2.29079 2.55691 0
M  V30 6238 C 600.928 3.48765 2.41296 0
M  V30 6239 N 601.319 4.66022 1.96614 0
M  V30 6240 C 599.617 3.53362 2.72124 0
M  V30 6241 C 600.318 5.48159 1.94669 0
M  V30 6242 N 599.294 4.89189 2.37054 0
M  V30 6243 H 603.096 2.80926 0.863592 0
M  V30 6244 H 600.61 1.57889 0.380096 0
M  V30 6245 H 602.607 2.5315 3.31241 0
M  V30 6246 H 601.267 1.42272 2.91871 0
M  V30 6247 H 602.278 4.9025 1.66959 0
M  V30 6248 H 598.955 2.77033 3.12345 0
M  V30 6249 H 600.345 6.52121 1.61826 0
M  V30 6250 N 603.065 -0.440357 1.51323 0
M  V30 6251 C 604.013 -1.55492 1.72988 0
M  V30 6252 C 605.007 -1.58564 0.596138 0
M  V30 6253 O 606.213 -1.62345 0.777443 0
M  V30 6254 H 602.588 -0.516532 0.546533 0
M  V30 6255 H 604.559 -1.34392 2.66423 0
M  V30 6256 C 603.308 -2.93176 1.86931 0
M  V30 6257 H 602.631 -2.91543 2.73574 0
M  V30 6258 H 604.071 -3.70537 2.06103 0
M  V30 6259 C 602.53 -3.30988 0.628365 0
M  V30 6260 O 603.06 -4.01106 -0.218367 0
M  V30 6261 N 601.266 -2.86719 0.473339 0
M  V30 6262 H 600.813 -2.2983 1.16345 0
M  V30 6263 H 600.771 -3.12381 -0.355727 0
M  V30 6264 N 604.543 -1.41418 -0.695603 0
M  V30 6265 C 605.79 -1.40774 -1.45564 0
M  V30 6266 C 606.118 -0.0168604 -1.94493 0
M  V30 6267 O 605.373 0.971259 -1.69897 0
M  V30 6268 C 605.672 -2.36112 -2.68302 0
M  V30 6269 C 605.338 -3.82952 -2.38031 0
M  V30 6270 C 604 -4.22954 -2.29486 0
M  V30 6271 C 606.352 -4.75662 -2.13061 0
M  V30 6272 C 603.68 -5.53674 -1.94067 0
M  V30 6273 C 606.032 -6.06702 -1.79151 0
M  V30 6274 C 604.696 -6.45725 -1.69102 0
M  V30 6275 H 603.966 -0.515128 -0.532658 0
M  V30 6276 H 606.613 -1.74216 -0.795047 0
M  V30 6277 H 604.918 -1.95924 -3.39295 0
M  V30 6278 H 606.615 -2.32887 -3.26442 0
M  V30 6279 H 603.205 -3.5127 -2.45576 0
M  V30 6280 H 607.389 -4.45561 -2.18608 0
M  V30 6281 H 602.645 -5.8279 -1.8484 0
M  V30 6282 H 606.819 -6.78041 -1.5885 0
M  V30 6283 H 604.446 -7.46929 -1.41426 0
M  V30 6284 N 606.021 0.929856 -1.27246 0
M  V30 6285 C 607.269 1.674 -1.13233 0
M  V30 6286 C 607.59 1.92311 0.322744 0
M  V30 6287 O 606.86 1.52784 1.22612 0
M  V30 6288 H 605.44 0.620411 -0.416052 0
M  V30 6289 H 608.102 1.11663 -1.59741 0
M  V30 6290 H 607.198 2.64308 -1.65975 0
M  V30 6291 N 607.499 1.09233 1.13605 0
M  V30 6292 C 608.747 0.825525 1.84471 0
M  V30 6293 C 609.068 -0.650702 1.83823 0
M  V30 6294 O 608.338 -1.47204 1.29259 0
M  V30 6295 H 606.918 0.3024 0.683054 0
M  V30 6296 H 609.58 1.38006 1.37624 0
M  V30 6297 H 608.676 1.17727 2.89045 0
M  V30 6298 N 608.977 -1.30795 0.87923 0
M  V30 6299 C 609.925 -2.30231 0.331112 0
M  V30 6300 C 610.919 -1.59918 -0.558794 0
M  V30 6301 O 612.125 -1.74441 -0.443866 0
M  V30 6302 H 608.5 -0.746785 0.088409 0
M  V30 6303 H 610.471 -2.73925 1.18353 0
M  V30 6304 C 609.22 -3.44848 -0.444401 0
M  V30 6305 H 608.543 -3.99131 0.231106 0
M  V30 6306 H 609.983 -4.16516 -0.793109 0
M  V30 6307 C 608.442 -2.94329 -1.63926 0
M  V30 6308 O 608.972 -2.93875 -2.73862 0
M  V30 6309 N 607.178 -2.50413 -1.4745 0
M  V30 6310 H 606.725 -2.50982 -0.58015 0
M  V30 6311 H 606.683 -2.16969 -2.27534 0
M  V30 6312 N 610.455 -0.639598 -1.44038 0
M  V30 6313 C 611.405 0.0823038 -2.27851 0
M  V30 6314 C 612.389 0.807991 -1.39141 0
M  V30 6315 O 613.581 0.692702 -1.62882 0
M  V30 6316 C 610.71 1.05742 -3.26609 0
M  V30 6317 C 609.796 0.330911 -4.22807 0
M  V30 6318 N 610.187 -0.645126 -5.01669 0
M  V30 6319 C 608.485 0.574214 -4.42288 0
M  V30 6320 C 609.186 -1.07513 -5.71678 0
M  V30 6321 N 608.162 -0.412164 -5.42035 0
M  V30 6322 H 611.964 -0.666861 -2.86234 0
M  V30 6323 H 609.478 -0.465777 -1.55577 0
M  V30 6324 H 611.475 1.58927 -3.85419 0
M  V30 6325 H 610.135 1.80679 -2.69787 0
M  V30 6326 H 611.146 -1.02329 -5.0769 0
M  V30 6327 H 607.823 1.30581 -3.96554 0
M  V30 6328 H 609.213 -1.88196 -6.45005 0
M  V30 6329 N 611.933 1.52934 -0.380664 0
M  V30 6330 C 613.181 2.01069 0.203874 0
M  V30 6331 C 613.502 1.26922 1.4804 0
M  V30 6332 O 612.772 0.386787 1.92044 0
M  V30 6333 H 611.352 0.742882 0.0783279 0
M  V30 6334 H 614.014 1.88099 -0.510368 0
M  V30 6335 H 613.11 3.09258 0.42021 0
M  V30 6336 N 613.412 0.11024 1.57214 0
M  V30 6337 C 614.342 -0.840002 2.17867 0
M  V30 6338 C 615.323 -1.28352 1.11624 0
M  V30 6339 O 616.508 -1.3477 1.39824 0
M  V30 6340 C 613.638 -2.09349 2.77111 0
M  V30 6341 C 612.592 -1.78807 3.8886 0
M  V30 6342 C 611.918 -3.11112 4.34872 0
M  V30 6343 C 613.218 -1.0632 5.11364 0
M  V30 6344 H 614.912 -0.334608 2.97524 0
M  V30 6345 H 612.458 -0.159502 1.43114 0
M  V30 6346 H 614.411 -2.76275 3.18198 0
M  V30 6347 H 613.135 -2.62198 1.9473 0
M  V30 6348 H 611.794 -1.14273 3.48335 0
M  V30 6349 H 611.442 -3.61877 3.49362 0
M  V30 6350 H 611.142 -2.91453 5.10224 0
M  V30 6351 H 612.666 -3.79171 4.78604 0
M  V30 6352 H 614.08 -1.63383 5.49526 0
M  V30 6353 H 612.477 -0.967876 5.92243 0
M  V30 6354 H 613.547 -0.0484569 4.84876 0
M  V30 6355 N 614.89 -1.56749 -0.16351 0
M  V30 6356 C 616.137 -1.82434 -0.878866 0
M  V30 6357 C 616.465 -0.688557 -1.81904 0
M  V30 6358 O 615.72 0.323644 -1.93005 0
M  V30 6359 C 616.019 -3.14342 -1.70071 0
M  V30 6360 C 615.685 -4.41647 -0.908775 0
M  V30 6361 C 614.347 -4.76224 -0.690236 0
M  V30 6362 C 616.699 -5.19998 -0.353815 0
M  V30 6363 C 614.027 -5.86624 0.0942374 0
M  V30 6364 C 616.379 -6.3122 0.41761 0
M  V30 6365 C 615.043 -6.64358 0.646879 0
M  V30 6366 H 614.313 -0.667574 -0.3216 0
M  V30 6367 H 616.96 -1.90963 -0.14337 0
M  V30 6368 H 615.265 -3.0119 -2.50583 0
M  V30 6369 H 616.962 -3.31426 -2.25738 0
M  V30 6370 H 613.552 -4.1453 -1.08916 0
M  V30 6371 H 617.736 -4.93673 -0.509975 0
M  V30 6372 H 612.992 -6.10751 0.281529 0
M  V30 6373 H 617.166 -6.91133 0.854849 0
M  V30 6374 H 614.793 -7.49742 1.25662 0
M  V30 6375 N 616.368 0.432326 -1.51554 0
M  V30 6376 C 617.616 1.17901 -1.64146 0
M  V30 6377 C 617.937 1.91604 -0.362367 0
M  V30 6378 O 617.207 1.85764 0.621968 0
M  V30 6379 H 615.787 0.438206 -0.604966 0
M  V30 6380 H 618.449 0.495172 -1.88505 0
M  V30 6381 H 617.545 1.90584 -2.47152 0
M  V30 6382 N 617.846 1.41785 0.688094 0
M  V30 6383 C 618.809 1.43936 1.78368 0
M  V30 6384 C 619.809 0.328866 1.57401 0
M  V30 6385 O 620.999 0.589093 1.63937 0
M  V30 6386 C 618.131 1.25804 3.16838 0
M  V30 6387 H 619.324 2.41472 1.77852 0
M  V30 6388 H 616.877 1.28037 0.896448 0
M  V30 6389 H 617.612 0.291386 3.22988 0
M  V30 6390 H 617.397 2.06272 3.33458 0
M  V30 6391 H 618.887 1.30162 3.96797 0
M  V30 6392 N 619.324 -0.923095 1.27737 0
M  V30 6393 C 620.254 -2.04124 1.13383 0
M  V30 6394 C 621.235 -1.70066 0.0340658 0
M  V30 6395 O 622.42 -1.93068 0.209383 0
M  V30 6396 C 619.55 -3.3831 0.785097 0
M  V30 6397 C 618.504 -3.86496 1.8386 0
M  V30 6398 C 617.83 -5.1754 1.34373 0
M  V30 6399 C 619.13 -4.09381 3.24353 0
M  V30 6400 H 620.824 -2.1639 2.06919 0
M  V30 6401 H 618.37 -1.03976 0.996243 0
M  V30 6402 H 620.323 -4.16016 0.671485 0
M  V30 6403 H 619.047 -3.2607 -0.185969 0
M  V30 6404 H 617.706 -3.10987 1.9412 0
M  V30 6405 H 617.354 -5.01696 0.361989 0
M  V30 6406 H 617.054 -5.50751 2.04811 0
M  V30 6407 H 618.578 -5.97811 1.24315 0
M  V30 6408 H 619.992 -4.77641 3.17067 0
M  V30 6409 H 618.389 -4.53906 3.92542 0
M  V30 6410 H 619.459 -3.14515 3.69064 0
M  V30 6411 N 620.802 -1.09834 -1.13024 0
M  V30 6412 C 621.712 -0.753731 -2.22162 0
M  V30 6413 C 622.728 0.246105 -1.72251 0
M  V30 6414 O 623.904 0.0864051 -2.01215 0
M  V30 6415 C 620.969 -0.183958 -3.46212 0
M  V30 6416 C 620.03 -1.24028 -4.10993 0
M  V30 6417 C 619.263 -0.697597 -5.29121 0
M  V30 6418 O 619.486 0.478092 -5.68393 0
M  V30 6419 O 618.42 -1.4546 -5.84059 0
M  V30 6420 H 622.246 -1.66456 -2.5402 0
M  V30 6421 H 619.831 -0.873026 -1.21238 0
M  V30 6422 H 621.713 0.130257 -4.21199 0
M  V30 6423 H 620.388 0.699823 -3.16045 0
M  V30 6424 H 619.295 -1.60725 -3.37814 0
M  V30 6425 H 620.628 -2.09685 -4.45301 0
M  V30 6426 N 622.28 1.30327 -0.886154 0
M  V30 6427 C 623.243 2.26376 -0.358687 0
M  V30 6428 C 624.243 1.52845 0.499498 0
M  V30 6429 O 625.433 1.71483 0.306485 0
M  V30 6430 C 622.565 3.37379 0.488726 0
M  V30 6431 H 623.758 2.74547 -1.20681 0
M  V30 6432 H 621.311 1.41536 -0.663113 0
M  V30 6433 H 622.046 2.94526 1.35739 0
M  V30 6434 H 621.831 3.91897 -0.126003 0
M  V30 6435 H 623.321 4.08868 0.84952 0
M  V30 6436 N 623.758 0.647228 1.43697 0
M  V30 6437 C 625.004 0.158422 2.0218 0
M  V30 6438 C 625.337 -1.22233 1.50907 0
M  V30 6439 O 624.612 -1.81478 0.699702 0
M  V30 6440 C 624.895 0.1627 3.59732 0
M  V30 6441 C 624.748 1.57694 4.21251 0
M  V30 6442 C 626.067 -0.504138 4.37203 0
M  V30 6443 H 623.186 0.059042 0.734631 0
M  V30 6444 H 625.828 0.826772 1.71069 0
M  V30 6445 H 623.978 -0.406414 3.86368 0
M  V30 6446 H 625.65 2.19618 4.05667 0
M  V30 6447 H 623.893 2.12603 3.7813 0
M  V30 6448 H 624.564 1.53183 5.3032 0
M  V30 6449 H 627.04 -0.0199841 4.16095 0
M  V30 6450 H 625.916 -0.470394 5.46881 0
M  V30 6451 H 626.177 -1.57726 4.13007 0
M  V30 6452 N 625.236 -1.5273 0.388769 0
M  V30 6453 C 626.184 -2.27975 -0.461527 0
M  V30 6454 C 627.178 -1.31854 -1.06352 0
M  V30 6455 O 628.384 -1.49394 -1.00406 0
M  V30 6456 H 624.759 -0.733088 -0.16759 0
M  V30 6457 H 626.73 -2.97765 0.194579 0
M  V30 6458 C 625.479 -3.09881 -1.577 0
M  V30 6459 H 624.802 -3.83701 -1.12309 0
M  V30 6460 H 626.242 -3.6567 -2.14619 0
M  V30 6461 C 624.701 -2.22159 -2.53272 0
M  V30 6462 O 625.231 -1.84802 -3.56667 0
M  V30 6463 N 623.437 -1.8633 -2.23001 0
M  V30 6464 H 622.984 -2.16909 -1.38954 0
M  V30 6465 H 622.942 -1.27927 -2.87197 0
M  V30 6466 N 626.714 -0.118576 -1.57153 0
M  V30 6467 C 627.962 0.538461 -1.94795 0
M  V30 6468 C 628.283 1.67243 -1.00274 0
M  V30 6469 O 627.553 1.95811 -0.0589692 0
M  V30 6470 H 626.133 0.201904 -0.719197 0
M  V30 6471 H 628.795 -0.187418 -1.93997 0
M  V30 6472 H 627.891 0.933315 -2.97818 0
M  V30 6473 N 628.193 1.56834 0.155195 0
M  V30 6474 C 629.441 1.82536 0.867462 0
M  V30 6475 C 629.762 0.698168 1.82073 0
M  V30 6476 O 629.032 -0.280807 1.93877 0
M  V30 6477 H 627.612 0.673401 0.323327 0
M  V30 6478 H 630.274 1.94313 0.151156 0
M  V30 6479 H 629.37 2.77171 1.43466 0
M  V30 6480 N 629.671 -0.424282 1.51781 0
M  V30 6481 C 631.082 -1.00368 1.57427 0
M  V30 6482 C 631.433 -1.91962 0.40558 0
M  V30 6483 O 630.558 -2.111 -0.47601 0
M  V30 6484 C 631.153 -1.82707 2.85313 0
M  V30 6485 C 629.712 -2.35675 2.93487 0
M  V30 6486 C 628.859 -1.1524 2.5222 0
M  V30 6487 H 631.81 -0.205064 1.5737 0
M  V30 6488 H 631.831 -2.68294 2.69812 0
M  V30 6489 H 631.343 -1.16017 3.70353 0
M  V30 6490 H 629.444 -3.05781 2.12906 0
M  V30 6491 H 629.557 -2.67578 3.97415 0
M  V30 6492 H 627.921 -1.50174 2.05718 0
M  V30 6493 H 628.704 -0.5014 3.39619 0
M  V30 6494 N 631.149 -1.42148 -0.680565 0
M  V30 6495 C 632.059 -1.47565 -1.82378 0
M  V30 6496 C 633.075 -0.36489 -1.70131 0
M  V30 6497 O 634.251 -0.614916 -1.91783 0
M  V30 6498 C 631.316 -1.37013 -3.18478 0
M  V30 6499 C 630.377 -2.58532 -3.42724 0
M  V30 6500 C 629.61 -2.48473 -4.72331 0
M  V30 6501 O 629.833 -1.51745 -5.49845 0
M  V30 6502 O 628.767 -3.38503 -4.97694 0
M  V30 6503 H 632.593 -2.44045 -1.80764 0
M  V30 6504 H 630.178 -1.23849 -0.835569 0
M  V30 6505 H 632.06 -1.33468 -3.99705 0
M  V30 6506 H 630.735 -0.436552 -3.20743 0
M  V30 6507 H 629.642 -2.67652 -2.61368 0
M  V30 6508 H 630.975 -3.50769 -3.45286 0
M  V30 6509 N 632.627 0.916307 -1.28225 0
M  V30 6510 C 633.59 1.99996 -1.11957 0
M  V30 6511 C 634.59 1.60688 -0.0600152 0
M  V30 6512 O 635.78 1.71499 -0.30558 0
M  V30 6513 C 632.912 3.33458 -0.708411 0
M  V30 6514 H 634.105 2.15858 -2.08196 0
M  V30 6515 H 631.658 1.09863 -1.11175 0
M  V30 6516 H 632.393 3.23297 0.254859 0
M  V30 6517 H 632.178 3.63349 -1.47377 0
M  V30 6518 H 633.668 4.13014 -0.617164 0
M  V30 6519 N 634.105 1.10431 1.1244 0
M  V30 6520 C 635.068 0.756542 2.16354 0
M  V30 6521 C 636.068 -0.21899 1.59302 0
M  V30 6522 O 637.258 0.00415969 1.742 0
M  V30 6523 C 634.39 0.120612 3.40687 0
M  V30 6524 H 635.583 1.67696 2.48632 0
M  V30 6525 H 633.136 0.904832 1.27446 0
M  V30 6526 H 633.871 -0.810536 3.14008 0
M  V30 6527 H 633.656 0.822693 3.83372 0
M  V30 6528 H 635.146 -0.106945 4.17463 0
M  V30 6529 N 635.583 -1.29855 0.893053 0
M  V30 6530 C 636.999 -1.48366 0.588199 0
M  V30 6531 C 637.199 -1.81654 -0.872018 0
M  V30 6532 O 636.255 -1.909 -1.65268 0
M  V30 6533 C 637.568 -2.60136 1.5083 0
M  V30 6534 C 639.116 -2.74014 1.51279 0
M  V30 6535 C 639.591 -3.88905 2.41902 0
M  V30 6536 N 641.082 -3.96228 2.39911 0
M  V30 6537 C 641.817 -4.84458 3.06738 0
M  V30 6538 N 641.313 -5.77426 3.8282 0
M  V30 6539 N 643.106 -4.77894 2.95929 0
M  V30 6540 H 635.257 -1.06522 1.83757 0
M  V30 6541 H 637.52 -0.528495 0.787018 0
M  V30 6542 H 637.226 -2.42383 2.54839 0
M  V30 6543 H 637.1 -3.56793 1.22388 0
M  V30 6544 H 639.487 -2.91167 0.480179 0
M  V30 6545 H 639.568 -1.77952 1.83757 0
M  V30 6546 H 639.212 -3.72508 3.45253 0
M  V30 6547 H 639.142 -4.84322 2.06737 0
M  V30 6548 H 641.633 -3.29728 1.84629 0
M  V30 6549 H 641.946 -6.41529 4.30883 0
M  V30 6550 H 640.291 -5.77332 3.86927 0
M  V30 6551 H 643.482 -4.04248 2.36012 0
M  V30 6552 H 643.655 -5.46444 3.48286 0
M  V30 6553 N 637.061 -0.65484 -1.43351 0
M  V30 6554 C 637.991 0.0221809 -2.33489 0
M  V30 6555 C 638.972 0.810272 -1.49561 0
M  V30 6556 O 640.157 0.771426 -1.78221 0
M  V30 6557 C 637.287 0.988117 -3.32947 0
M  V30 6558 C 636.241 0.310026 -4.26876 0
M  V30 6559 C 635.567 1.38752 -5.16384 0
M  V30 6560 C 636.867 -0.798589 -5.16159 0
M  V30 6561 H 638.561 -0.730571 -2.9035 0
M  V30 6562 H 636.107 -0.352773 -1.39612 0
M  V30 6563 H 638.06 1.47067 -3.94904 0
M  V30 6564 H 636.784 1.77205 -2.74346 0
M  V30 6565 H 635.443 -0.152097 -3.66284 0
M  V30 6566 H 635.091 2.16293 -4.54121 0
M  V30 6567 H 634.791 0.939051 -5.80048 0
M  V30 6568 H 636.315 1.87141 -5.81215 0
M  V30 6569 H 637.729 -0.398126 -5.71916 0
M  V30 6570 H 636.126 -1.17163 -5.88552 0
M  V30 6571 H 637.196 -1.65588 -4.55751 0
M  V30 6572 N 638.539 1.52521 -0.396863 0
M  V30 6573 C 639.786 2.01672 0.182898 0
M  V30 6574 C 640.114 1.28302 1.46181 0
M  V30 6575 O 639.369 0.374118 1.92091 0
M  V30 6576 C 639.668 3.5403 0.489677 0
M  V30 6577 C 639.334 4.45456 -0.698581 0
M  V30 6578 C 637.996 4.70166 -1.02454 0
M  V30 6579 C 640.348 4.99354 -1.49316 0
M  V30 6580 C 637.676 5.46024 -2.1465 0
M  V30 6581 C 640.028 5.76439 -2.60579 0
M  V30 6582 C 638.692 5.99426 -2.93675 0
M  V30 6583 H 637.962 0.737971 0.066927 0
M  V30 6584 H 640.609 1.83853 -0.535764 0
M  V30 6585 H 638.914 3.69963 1.28976 0
M  V30 6586 H 640.611 3.8956 0.951018 0
M  V30 6587 H 637.201 4.26392 -0.434525 0
M  V30 6588 H 641.385 4.80182 -1.25457 0
M  V30 6589 H 636.641 5.62046 -2.40654 0
M  V30 6590 H 640.815 6.17202 -3.22544 0
M  V30 6591 H 638.442 6.57988 -3.80731 0
M  V30 6592 N 640.017 0.126909 1.57088 0
M  V30 6593 C 641.428 -0.397201 1.82426 0
M  V30 6594 C 641.779 -1.66084 1.04453 0
M  V30 6595 O 640.904 -2.14534 0.283552 0
M  V30 6596 C 641.499 -0.727411 3.30899 0
M  V30 6597 C 640.058 -1.19612 3.56889 0
M  V30 6598 C 639.205 -0.20885 2.76512 0
M  V30 6599 H 642.156 0.351924 1.54749 0
M  V30 6600 H 642.177 -1.58407 3.45959 0
M  V30 6601 H 641.689 0.19247 3.87622 0
M  V30 6602 H 639.79 -2.13263 3.05532 0
M  V30 6603 H 639.903 -1.13598 4.65438 0
M  V30 6604 H 638.267 -0.697479 2.44964 0
M  V30 6605 H 639.05 0.704267 3.35998 0
M  V30 6606 N 641.495 -1.56914 -0.146875 0
M  V30 6607 C 642.443 -1.99224 -1.20053 0
M  V30 6608 C 643.437 -0.884661 -1.44465 0
M  V30 6609 O 644.643 -1.06984 -1.44756 0
M  V30 6610 H 641.018 -0.634191 -0.404112 0
M  V30 6611 H 642.989 -2.86998 -0.816987 0
M  V30 6612 C 641.738 -2.38899 -2.52632 0
M  V30 6613 H 641.061 -3.23677 -2.34677 0
M  V30 6614 H 642.501 -2.72326 -3.24984 0
M  V30 6615 C 640.96 -1.2417 -3.13183 0
M  V30 6616 O 641.49 -0.542503 -3.9802 0
M  V30 6617 N 639.696 -1.00592 -2.72635 0
M  V30 6618 H 639.243 -1.57627 -2.03744 0
M  V30 6619 H 639.201 -0.240174 -3.13481 0
M  V30 6620 N 642.974 0.416227 -1.52004 0
M  V30 6621 C 644.199 1.19029 -1.69843 0
M  V30 6622 C 644.624 1.83708 -0.404103 0
M  V30 6623 O 643.982 1.69711 0.637787 0
M  V30 6624 C 644.03 2.23439 -2.83032 0
M  V30 6625 O 643.134 3.29419 -2.48106 0
M  V30 6626 H 642.475 0.347785 -0.565634 0
M  V30 6627 H 645.005 0.488871 -1.98674 0
M  V30 6628 H 645.015 2.67884 -3.07737 0
M  V30 6629 H 643.69 1.75745 -3.76944 0
M  V30 6630 H 642.267 2.90303 -2.34048 0
M  V30 6631 N 644.452 1.42507 0.673017 0
M  V30 6632 C 645.68 1.46473 1.46128 0
M  V30 6633 C 646.095 0.0765912 1.88645 0
M  V30 6634 O 645.452 -0.909057 1.58248 0
M  V30 6635 C 645.503 2.39339 2.70923 0
M  V30 6636 O 645.224 3.72752 2.3019 0
M  V30 6637 C 646.725 2.52343 3.64469 0
M  V30 6638 H 643.945 0.49812 0.449575 0
M  V30 6639 H 646.489 1.87041 0.826802 0
M  V30 6640 H 644.644 2.02019 3.30556 0
M  V30 6641 H 645.058 4.22503 3.10791 0
M  V30 6642 H 646.532 3.2144 4.48754 0
M  V30 6643 H 647.009 1.56189 4.1049 0
M  V30 6644 H 647.615 2.90392 3.10729 0
M  V30 6645 N 645.93 -0.909495 1.28709 0
M  V30 6646 C 646.863 -2.01388 1.07323 0
M  V30 6647 C 647.841 -1.62596 -0.0119757 0
M  V30 6648 O 649.025 -1.88003 0.136796 0
M  V30 6649 C 646.152 -3.32755 0.631797 0
M  V30 6650 C 645.198 -3.90532 1.71428 0
M  V30 6651 S 646.031 -4.20853 3.31124 0
M  V30 6652 C 647.187 -5.55276 2.88825 0
M  V30 6653 H 647.42 -2.19219 2.00824 0
M  V30 6654 H 644.953 -1.05489 1.12745 0
M  V30 6655 H 646.911 -4.08702 0.38381 0
M  V30 6656 H 645.572 -3.12818 -0.283451 0
M  V30 6657 H 644.765 -4.85385 1.35712 0
M  V30 6658 H 644.367 -3.21237 1.91528 0
M  V30 6659 H 646.659 -6.35341 2.3526 0
M  V30 6660 H 647.602 -5.95907 3.82492 0
M  V30 6661 H 648.01 -5.16666 2.27412 0
M  V30 6662 N 647.408 -1.11026 -1.11852 0
M  V30 6663 C 648.654 -0.857729 -1.83768 0
M  V30 6664 C 648.987 0.615143 -1.842 0
M  V30 6665 O 648.262 1.45391 -1.29196 0
M  V30 6666 C 648.545 -1.41453 -3.31154 0
M  V30 6667 C 648.398 -2.95471 -3.39142 0
M  V30 6668 C 649.717 -1.0619 -4.27097 0
M  V30 6669 H 646.836 -0.313044 -0.667212 0
M  V30 6670 H 649.478 -1.37443 -1.31185 0
M  V30 6671 H 647.628 -0.975052 -3.76065 0
M  V30 6672 H 649.3 -3.4799 -3.02821 0
M  V30 6673 H 647.543 -3.31759 -2.79497 0
M  V30 6674 H 648.214 -3.29515 -4.42859 0
M  V30 6675 H 650.69 -1.44122 -3.90344 0
M  V30 6676 H 649.566 -1.47832 -5.28618 0
M  V30 6677 H 649.827 0.0278912 -4.42091 0
M  V30 6678 N 648.886 1.2938 -0.899927 0
M  V30 6679 C 650.134 1.95164 -0.524924 0
M  V30 6680 C 650.455 1.71292 0.931888 0
M  V30 6681 O 649.725 1.04481 1.65712 0
M  V30 6682 H 648.305 0.722133 -0.191135 0
M  V30 6683 H 650.967 1.57628 -1.14627 0
M  V30 6684 H 650.063 3.0397 -0.707711 0
M  V30 6685 N 650.364 0.662433 1.43002 0
M  V30 6686 C 651.592 0.187615 2.06048 0
M  V30 6687 C 652.007 -1.15039 1.49705 0
M  V30 6688 O 651.364 -1.71209 0.631956 0
M  V30 6689 C 651.415 0.100498 3.6136 0
M  V30 6690 O 651.136 1.38562 4.15611 0
M  V30 6691 C 652.637 -0.399298 4.41498 0
M  V30 6692 H 649.857 0.0941675 0.664359 0
M  V30 6693 H 652.401 0.905681 1.83351 0
M  V30 6694 H 650.556 -0.568181 3.83211 0
M  V30 6695 H 650.97 1.25084 5.09366 0
M  V30 6696 H 652.444 -0.409187 5.50481 0
M  V30 6697 H 652.921 -1.43232 4.15188 0
M  V30 6698 H 653.527 0.23721 4.24638 0
M  V30 6699 N 651.842 -1.52309 0.404946 0
M  V30 6700 C 653.09 -2.01368 -0.17186 0
M  V30 6701 C 653.411 -1.29261 -1.46002 0
M  V30 6702 O 652.681 -0.41729 -1.91404 0
M  V30 6703 H 651.261 -0.744034 -0.0664993 0
M  V30 6704 H 653.923 -1.87263 0.540228 0
M  V30 6705 H 653.019 -3.09888 -0.370957 0
M  V30 6706 N 653.32 -0.135238 -1.57019 0
M  V30 6707 C 654.253 0.846618 -2.11914 0
M  V30 6708 C 655.231 1.25019 -1.03966 0
M  V30 6709 O 656.415 1.34838 -1.31723 0
M  V30 6710 C 653.542 2.1352 -2.6292 0
M  V30 6711 C 652.588 1.87846 -3.82905 0
M  V30 6712 S 653.421 1.08005 -5.24495 0
M  V30 6713 C 654.577 2.38008 -5.78881 0
M  V30 6714 H 654.81 0.379752 -2.94865 0
M  V30 6715 H 652.343 0.0788387 -1.54199 0
M  V30 6716 H 654.301 2.87551 -2.92958 0
M  V30 6717 H 652.962 2.57323 -1.80121 0
M  V30 6718 H 652.155 2.83365 -4.16797 0
M  V30 6719 H 651.757 1.21929 -3.53567 0
M  V30 6720 H 654.049 3.33742 -5.89595 0
M  V30 6721 H 654.992 2.08638 -6.76665 0
M  V30 6722 H 655.4 2.48119 -5.07048 0
M  V30 6723 N 654.798 1.5699 0.138552 0
M  V30 6724 C 655.761 1.97984 1.15478 0
M  V30 6725 C 656.761 0.867416 1.35398 0
M  V30 6726 O 657.951 1.13387 1.32246 0
M  V30 6727 C 655.083 2.3031 2.51337 0
M  V30 6728 H 656.276 2.88953 0.802896 0
M  V30 6729 H 653.829 1.51555 0.382189 0
M  V30 6730 H 654.564 1.42159 2.91481 0
M  V30 6731 H 654.349 3.11425 2.38237 0
M  V30 6732 H 655.839 2.62834 3.24512 0
M  V30 6733 N 656.276 -0.40816 1.52223 0
M  V30 6734 C 657.687 -0.986929 1.58482 0
M  V30 6735 C 658.038 -1.91521 0.425917 0
M  V30 6736 O 657.163 -2.11593 -0.453593 0
M  V30 6737 C 657.758 -1.7967 2.87235 0
M  V30 6738 C 656.317 -2.32549 2.9597 0
M  V30 6739 C 655.464 -1.12558 2.53428 0
M  V30 6740 H 658.415 -0.188362 1.57578 0
M  V30 6741 H 658.436 -2.65417 2.72642 0
M  V30 6742 H 657.948 -1.12082 3.71563 0
M  V30 6743 H 656.049 -3.03505 2.16137 0
M  V30 6744 H 656.162 -2.63348 4.00231 0
M  V30 6745 H 654.526 -1.47984 2.07299 0
M  V30 6746 H 655.309 -0.465351 3.40131 0
M  V30 6747 N 657.755 -1.42862 -0.66545 0
M  V30 6748 C 658.665 -1.49491 -1.80803 0
M  V30 6749 C 659.681 -0.382914 -1.69734 0
M  V30 6750 O 660.857 -0.635223 -1.9112 0
M  V30 6751 C 657.922 -1.40383 -3.17007 0
M  V30 6752 C 656.983 -2.62152 -3.39963 0
M  V30 6753 C 656.216 -2.53469 -4.69669 0
M  V30 6754 O 656.439 -1.57568 -5.48205 0
M  V30 6755 O 655.373 -3.43763 -4.94075 0
M  V30 6756 H 659.199 -2.45949 -1.78165 0
M  V30 6757 H 656.784 -1.24728 -0.822387 0
M  V30 6758 H 658.666 -1.377 -3.98267 0
M  V30 6759 H 657.341 -0.470546 -3.20262 0
M  V30 6760 H 656.248 -2.70409 -2.58515 0
M  V30 6761 H 657.581 -3.54411 -3.41546 0
M  V30 6762 N 659.233 0.902656 -1.29189 0
M  V30 6763 C 660.481 1.6496 -1.16758 0
M  V30 6764 C 660.802 1.92952 0.28188 0
M  V30 6765 O 660.072 1.55351 1.19344 0
M  V30 6766 H 658.652 0.611447 -0.429118 0
M  V30 6767 H 661.314 1.0825 -1.62074 0
M  V30 6768 H 660.41 2.60728 -1.71544 0
M  V30 6769 N 660.711 1.11618 1.11262 0
M  V30 6770 C 661.96 0.860934 1.82403 0
M  V30 6771 C 662.273 -0.615303 1.8567 0
M  V30 6772 O 663.479 -0.986861 2.52929 0
M  V30 6773 C 661.935 1.49048 3.27586 0
M  V30 6774 C 661.543 3.00089 3.32642 0
M  V30 6775 C 663.287 1.31515 4.03614 0
M  V30 6776 C 661.194 3.56019 4.72234 0
M  V30 6777 H 660.124 0.318423 0.683464 0
M  V30 6778 H 662.775 1.34165 1.25188 0
M  V30 6779 H 661.157 0.937434 3.84744 0
M  V30 6780 H 662.331 3.61813 2.85356 0
M  V30 6781 H 660.646 3.16919 2.70096 0
M  V30 6782 H 663.243 1.70732 5.0671 0
M  V30 6783 H 663.586 0.257917 4.155 0
M  V30 6784 H 664.119 1.83694 3.52848 0
M  V30 6785 H 660.858 4.61463 4.65545 0
M  V30 6786 H 660.378 2.99066 5.19923 0
M  V30 6787 H 662.057 3.54568 5.41193 0
M  V30 6788 N 662.189 -1.289 0.906776 0
M  V30 6789 C 663.414 -1.99939 0.551303 0
M  V30 6790 C 663.839 -1.67366 -0.858496 0
M  V30 6791 O 663.197 -0.902176 -1.57259 0
M  V30 6792 C 663.245 -3.52523 0.758937 0
M  V30 6793 O 662.349 -4.11983 -0.185308 0
M  V30 6794 H 661.69 -0.628376 0.214568 0
M  V30 6795 H 664.22 -1.64225 1.2203 0
M  V30 6796 H 664.23 -4.02522 0.666329 0
M  V30 6797 H 662.905 -3.75566 1.78671 0
M  V30 6798 H 661.482 -3.72873 -0.0445577 0
M  V30 6799 N 663.667 -0.670007 -1.42649 0
M  V30 6800 C 664.599 0.0501746 -2.29145 0
M  V30 6801 C 665.612 0.770331 -1.43422 0
M  V30 6802 O 666.801 0.625288 -1.6719 0
M  V30 6803 C 663.901 1.09463 -3.20735 0
M  V30 6804 C 663.074 0.44926 -4.35087 0
M  V30 6805 C 662.133 1.39285 -5.07431 0
M  V30 6806 O 661.159 0.894997 -5.6212 0
M  V30 6807 N 662.361 2.72631 -5.12496 0
M  V30 6808 H 665.126 -0.692312 -2.91594 0
M  V30 6809 H 662.687 -0.514056 -1.53522 0
M  V30 6810 H 664.679 1.72705 -3.65999 0
M  V30 6811 H 663.249 1.73891 -2.59771 0
M  V30 6812 H 662.469 -0.362573 -3.92529 0
M  V30 6813 H 663.757 -0.000544776 -5.088 0
M  V30 6814 H 663.155 3.15623 -4.69467 0
M  V30 6815 H 661.712 3.31132 -5.61422 0
M  V30 6816 N 665.145 1.52092 -0.413018 0
M  V30 6817 C 666.093 2.28681 0.425199 0
M  V30 6818 C 667.087 1.3353 1.04241 0
M  V30 6819 O 668.293 1.50973 0.980166 0
M  V30 6820 H 664.668 0.735661 0.155906 0
M  V30 6821 H 666.639 2.97418 -0.241926 0
M  V30 6822 C 665.388 3.1235 1.5275 0
M  V30 6823 H 664.711 3.85439 1.06191 0
M  V30 6824 H 666.151 3.69038 2.08774 0
M  V30 6825 C 664.61 2.26161 2.49706 0
M  V30 6826 O 665.14 1.90452 3.53682 0
M  V30 6827 N 663.346 1.89854 2.20008 0
M  V30 6828 H 662.893 2.19092 1.35486 0
M  V30 6829 H 662.851 1.3248 2.85125 0
M  V30 6830 N 666.623 0.143563 1.56945 0
M  V30 6831 C 667.533 -0.810562 2.20152 0
M  V30 6832 C 668.549 -1.27431 1.1848 0
M  V30 6833 O 669.725 -1.33221 1.51044 0
M  V30 6834 C 666.79 -2.03353 2.80799 0
M  V30 6835 C 665.851 -1.61936 3.97587 0
M  V30 6836 C 665.084 -2.78403 4.55332 0
M  V30 6837 O 665.307 -3.94521 4.11958 0
M  V30 6838 O 664.241 -2.54073 5.45647 0
M  V30 6839 H 668.067 -0.30253 3.02189 0
M  V30 6840 H 665.652 -0.0832925 1.49168 0
M  V30 6841 H 667.534 -2.74932 3.19359 0
M  V30 6842 H 666.209 -2.53116 2.01777 0
M  V30 6843 H 665.116 -0.873904 3.6375 0
M  V30 6844 H 666.449 -1.16892 4.78118 0
M  V30 6845 N 668.101 -1.57061 -0.130224 0
M  V30 6846 C 669.347 -1.8453 -0.841216 0
M  V30 6847 C 669.68 -0.727666 -1.80052 0
M  V30 6848 O 668.955 0.267419 -1.92653 0
M  V30 6849 C 669.238 -3.22553 -1.60099 0
M  V30 6850 C 669.091 -4.44901 -0.662048 0
M  V30 6851 C 670.41 -3.58003 -2.55973 0
M  V30 6852 H 667.529 -0.671215 -0.304366 0
M  V30 6853 H 670.171 -1.89705 -0.105821 0
M  V30 6854 H 668.321 -3.18272 -2.22789 0
M  V30 6855 H 669.993 -4.61278 -0.0448559 0
M  V30 6856 H 668.236 -4.33791 0.0272253 0
M  V30 6857 H 668.907 -5.3812 -1.23006 0
M  V30 6858 H 671.383 -3.63002 -2.03393 0
M  V30 6859 H 670.259 -4.55576 -3.06172 0
M  V30 6860 H 670.52 -2.84833 -3.38116 0
M  V30 6861 N 669.579 0.400081 -1.52437 0
M  V30 6862 C 670.825 1.14788 -1.67187 0
M  V30 6863 C 671.158 1.89928 -0.405074 0
M  V30 6864 O 670.433 1.85118 0.596804 0
M  V30 6865 C 670.716 2.13507 -2.89977 0
M  V30 6866 C 670.569 1.42204 -4.2673 0
M  V30 6867 C 671.888 3.14069 -3.083 0
M  V30 6868 H 669.007 0.415939 -0.608411 0
M  V30 6869 H 671.649 0.432542 -1.85011 0
M  V30 6870 H 669.799 2.7451 -2.74912 0
M  V30 6871 H 671.471 0.842503 -4.53541 0
M  V30 6872 H 669.714 0.723939 -4.27717 0
M  V30 6873 H 670.385 2.14281 -5.08712 0
M  V30 6874 H 672.861 2.63148 -3.22323 0
M  V30 6875 H 671.737 3.80398 -3.95713 0
M  V30 6876 H 671.998 3.82309 -2.22018 0
M  V30 6877 N 671.057 1.43213 0.657864 0
M  V30 6878 C 672.287 1.478 1.44356 0
M  V30 6879 C 672.695 0.0930206 1.88971 0
M  V30 6880 O 672.038 -0.906089 1.59799 0
M  V30 6881 C 672.1 2.35745 2.71412 0
M  V30 6882 C 671.764 3.83359 2.48767 0
M  V30 6883 C 672.761 4.74585 2.12285 0
M  V30 6884 C 670.446 4.27799 2.63235 0
M  V30 6885 C 672.44 6.08247 1.90562 0
M  V30 6886 C 670.127 5.61516 2.41128 0
M  V30 6887 C 671.125 6.51557 2.04847 0
M  V30 6888 O 670.813 7.82802 1.82967 0
M  V30 6889 H 670.545 0.504363 0.450104 0
M  V30 6890 H 673.099 1.88572 0.814241 0
M  V30 6891 H 671.329 1.89852 3.36887 0
M  V30 6892 H 673.018 2.31589 3.33348 0
M  V30 6893 H 673.784 4.41531 2.00687 0
M  V30 6894 H 669.663 3.57993 2.90451 0
M  V30 6895 H 673.207 6.78489 1.62168 0
M  V30 6896 H 669.104 5.94139 2.52327 0
M  V30 6897 H 669.872 7.94332 1.97429 0
M  V30 6898 N 672.536 -0.895792 1.29666 0
M  V30 6899 C 673.761 -1.68528 1.20885 0
M  V30 6900 C 674.186 -1.8673 -0.226595 0
M  V30 6901 O 673.544 -1.39044 -1.16347 0
M  V30 6902 C 673.592 -3.04512 1.93144 0
M  V30 6903 O 672.696 -3.92963 1.25115 0
M  V30 6904 H 672.037 -0.515371 0.418675 0
M  V30 6905 H 674.567 -1.11878 1.71302 0
M  V30 6906 H 674.577 -3.54628 2.0175 0
M  V30 6907 H 673.252 -2.90582 2.97548 0
M  V30 6908 H 671.829 -3.51399 1.24794 0
M  V30 6909 N 674.014 -1.12206 -1.10668 0
M  V30 6910 C 674.944 -0.810086 -2.18997 0
M  V30 6911 C 675.925 0.225065 -1.68604 0
M  V30 6912 O 677.11 0.086783 -1.94006 0
M  V30 6913 C 674.24 -0.261262 -3.46316 0
M  V30 6914 C 673.194 -1.2292 -4.09969 0
M  V30 6915 C 672.52 -0.540713 -5.31959 0
M  V30 6916 C 673.82 -2.58295 -4.53962 0
M  V30 6917 H 675.514 -1.7159 -2.45352 0
M  V30 6918 H 673.06 -0.82646 -1.17922 0
M  V30 6919 H 675.013 -0.0307522 -4.21389 0
M  V30 6920 H 673.737 0.679879 -3.19445 0
M  V30 6921 H 672.396 -1.44548 -3.369 0
M  V30 6922 H 672.044 0.405492 -5.01363 0
M  V30 6923 H 671.744 -1.18637 -5.75499 0
M  V30 6924 H 673.268 -0.319184 -6.09765 0
M  V30 6925 H 674.682 -2.40709 -5.20319 0
M  V30 6926 H 673.079 -3.18916 -5.08343 0
M  V30 6927 H 674.149 -3.16918 -3.67002 0
M  V30 6928 N 675.492 1.28418 -0.913599 0
M  V30 6929 C 676.425 2.25557 -0.346328 0
M  V30 6930 C 677.403 1.53038 0.549366 0
M  V30 6931 O 678.587 1.81937 0.493055 0
M  V30 6932 C 675.714 3.34915 0.504961 0
M  V30 6933 C 674.76 4.25257 -0.325334 0
M  V30 6934 S 675.593 5.06718 -1.73198 0
M  V30 6935 C 676.749 6.19569 -0.887988 0
M  V30 6936 H 676.982 2.73325 -1.16965 0
M  V30 6937 H 674.515 1.36855 -0.714841 0
M  V30 6938 H 676.473 3.98376 0.990301 0
M  V30 6939 H 675.134 2.85814 1.30267 0
M  V30 6940 H 674.327 5.02947 0.325589 0
M  V30 6941 H 673.929 3.66519 -0.744321 0
M  V30 6942 H 676.221 6.77398 -0.117568 0
M  V30 6943 H 677.164 6.88908 -1.63742 0
M  V30 6944 H 677.572 5.62812 -0.436228 0
M  V30 6945 N 676.97 0.677563 1.42291 0
M  V30 6946 C 677.933 0.0101085 2.29198 0
M  V30 6947 C 678.933 -0.726219 1.43467 0
M  V30 6948 O 680.123 -0.563807 1.64824 0
M  V30 6949 C 677.255 -0.996316 3.26016 0
M  V30 6950 H 678.448 0.775071 2.89711 0
M  V30 6951 H 676.001 0.440065 1.49977 0
M  V30 6952 H 676.736 -1.78967 2.70446 0
M  V30 6953 H 676.521 -0.471687 3.89253 0
M  V30 6954 H 678.011 -1.46167 3.91184 0
M  V30 6955 N 678.448 -1.51871 0.421078 0
M  V30 6956 C 679.358 -2.31077 -0.405069 0
M  V30 6957 C 680.374 -1.39301 -1.04265 0
M  V30 6958 O 681.55 -1.72376 -1.04157 0
M  V30 6959 C 678.615 -3.12556 -1.50032 0
M  V30 6960 C 677.676 -4.20088 -0.884559 0
M  V30 6961 C 676.909 -4.97673 -1.92762 0
M  V30 6962 O 677.132 -4.75696 -3.14753 0
M  V30 6963 O 676.066 -5.82203 -1.52719 0
M  V30 6964 H 679.892 -3.02742 0.241086 0
M  V30 6965 H 677.477 -1.48263 0.183991 0
M  V30 6966 H 679.359 -3.6326 -2.13589 0
M  V30 6967 H 678.034 -2.43672 -2.13086 0
M  V30 6968 H 676.941 -3.73502 -0.211379 0
M  V30 6969 H 678.274 -4.91298 -0.297763 0
M  V30 6970 N 679.926 -0.151884 -1.56866 0
M  V30 6971 C 680.856 0.781943 -2.20018 0
M  V30 6972 C 681.837 1.25347 -1.14987 0
M  V30 6973 O 683.022 1.31015 -1.43348 0
M  V30 6974 C 680.152 2.01928 -2.82564 0
M  V30 6975 C 679.106 1.68434 -3.93464 0
M  V30 6976 C 678.432 2.99472 -4.42968 0
M  V30 6977 C 679.732 0.927244 -5.14003 0
M  V30 6978 H 681.426 0.255607 -2.98307 0
M  V30 6979 H 678.972 0.121502 -1.43486 0
M  V30 6980 H 680.925 2.67741 -3.25411 0
M  V30 6981 H 679.649 2.56943 -2.01614 0
M  V30 6982 H 678.308 1.04998 -3.51242 0
M  V30 6983 H 677.956 3.52488 -3.58834 0
M  V30 6984 H 677.656 2.77823 -5.17772 0
M  V30 6985 H 679.18 3.66348 -4.88489 0
M  V30 6986 H 680.594 1.48756 -5.53665 0
M  V30 6987 H 678.991 0.810513 -5.94601 0
M  V30 6988 H 680.061 -0.0801163 -4.84834 0
M  V30 6989 N 681.404 1.57128 0.121893 0
M  V30 6990 C 682.652 1.84335 0.828548 0
M  V30 6991 C 682.973 0.736632 1.80551 0
M  V30 6992 O 682.243 -0.23962 1.94429 0
M  V30 6993 H 680.823 0.680108 0.30897 0
M  V30 6994 H 683.485 1.9459 0.109906 0
M  V30 6995 H 682.581 2.80152 1.37554 0
M  V30 6996 N 682.882 -0.391992 1.52647 0
M  V30 6997 C 684.128 -1.13563 1.68745 0
M  V30 6998 C 684.483 -1.87745 0.420685 0
M  V30 6999 O 683.776 -1.82434 -0.585529 0
M  V30 7000 C 683.97 -2.14401 2.85949 0
M  V30 7001 C 683.799 -1.50124 4.23902 0
M  V30 7002 C 682.569 -1.2666 4.89168 0
M  V30 7003 C 684.767 -0.952933 5.05395 0
M  V30 7004 N 682.749 -0.584555 6.11111 0
M  V30 7005 C 684.12 -0.398784 6.18716 0
M  V30 7006 C 686.175 -0.849053 4.90607 0
M  V30 7007 C 684.878 0.249084 7.18869 0
M  V30 7008 C 686.904 -0.215011 5.91009 0
M  V30 7009 C 686.266 0.328382 7.03634 0
M  V30 7010 H 682.365 -0.401628 0.670984 0
M  V30 7011 H 684.949 -0.425585 1.89992 0
M  V30 7012 H 683.12 -2.82746 2.66288 0
M  V30 7013 H 684.852 -2.8125 2.90999 0
M  V30 7014 H 681.607 -1.54078 4.47836 0
M  V30 7015 H 682.031 -0.259663 6.76502 0
M  V30 7016 H 686.673 -1.25497 4.03745 0
M  V30 7017 H 684.391 0.667019 8.05342 0
M  V30 7018 H 687.977 -0.135921 5.81641 0
M  V30 7019 H 686.857 0.811257 7.79992 0
M  V30 7020 N 684.36 -1.4356 -0.65026 0
M  V30 7021 C 685.776 -1.27025 -0.966269 0
M  V30 7022 C 685.976 -0.192117 -2.00582 0
M  V30 7023 O 685.032 0.428459 -2.48838 0
M  V30 7024 C 686.345 -2.63556 -1.44772 0
M  V30 7025 C 687.893 -2.71111 -1.56421 0
M  V30 7026 C 688.368 -4.08067 -2.07956 0
M  V30 7027 N 689.859 -4.10146 -2.15254 0
M  V30 7028 C 690.594 -5.12952 -2.56258 0
M  V30 7029 N 690.09 -6.26129 -2.96537 0
M  V30 7030 N 691.883 -5.00306 -2.56224 0
M  V30 7031 H 684.034 -2.12367 0.0375758 0
M  V30 7032 H 686.297 -0.946894 -0.0457782 0
M  V30 7033 H 686.003 -3.43429 -0.758271 0
M  V30 7034 H 685.877 -2.89152 -2.42221 0
M  V30 7035 H 688.264 -1.91569 -2.24467 0
M  V30 7036 H 688.345 -2.49277 -0.573967 0
M  V30 7037 H 687.989 -4.88077 -1.40511 0
M  V30 7038 H 687.919 -4.27266 -3.07817 0
M  V30 7039 H 690.41 -3.28453 -1.86887 0
M  V30 7040 H 690.723 -7.00403 -3.26582 0
M  V30 7041 H 689.068 -6.29597 -2.94334 0
M  V30 7042 H 692.259 -4.10952 -2.24135 0
M  V30 7043 H 692.432 -5.80553 -2.87857 0
M  V30 7044 N 685.838 0.888903 -1.30139 0
M  V30 7045 C 686.785 1.99422 -1.16188 0
M  V30 7046 C 687.755 1.66017 -0.0523869 0
M  V30 7047 O 688.94 1.89506 -0.221864 0
M  V30 7048 C 686.08 3.34325 -0.855612 0
M  V30 7049 C 685.193 3.80445 -2.0466 0
M  V30 7050 C 684.328 5.03975 -1.67876 0
M  V30 7051 C 683.367 5.42492 -2.83493 0
M  V30 7052 N 682.504 6.57206 -2.47032 0
M  V30 7053 H 687.344 2.10687 -2.10749 0
M  V30 7054 H 684.881 1.03165 -1.04859 0
M  V30 7055 H 686.839 4.11968 -0.658681 0
M  V30 7056 H 685.469 3.22756 0.0531155 0
M  V30 7057 H 684.521 2.98745 -2.3549 0
M  V30 7058 H 685.833 4.04933 -2.91257 0
M  V30 7059 H 684.987 5.89232 -1.44535 0
M  V30 7060 H 683.726 4.8135 -0.784431 0
M  V30 7061 H 682.731 4.55764 -3.07505 0
M  V30 7062 H 683.956 5.67093 -3.73607 0
M  V30 7063 H 681.902 6.36164 -1.601 0
M  V30 7064 H 681.819 6.81543 -3.27161 0
M  V30 7065 H 683.087 7.45704 -2.27038 0
M  V30 7066 N 687.317 1.12792 1.10072 0
M  V30 7067 C 688.594 0.796867 1.78632 0
M  V30 7068 C 688.974 -0.712739 1.98704 0
M  V30 7069 O 688.322 -1.64773 1.5831 0
M  V30 7070 C 688.532 1.57622 3.11378 0
M  V30 7071 C 689.88 1.76463 3.86194 0
M  V30 7072 O 690.904 1.54165 3.2111 0
M  V30 7073 O 689.763 2.13623 5.03018 0
M  V30 7074 H 686.857 0.290248 0.774394 0
M  V30 7075 H 689.403 1.23215 1.16688 0
M  V30 7076 H 688.175 2.60246 2.92212 0
M  V30 7077 H 687.798 1.13543 3.81043 0
M  V30 7078 N 688.795 -1.27931 0.920396 0
M  V30 7079 C 690.206 -1.76707 0.602616 0
M  V30 7080 C 690.557 -1.75249 -0.882159 0
M  V30 7081 O 689.682 -1.35135 -1.69019 0
M  V30 7082 C 690.277 -3.20884 1.08714 0
M  V30 7083 C 688.836 -3.67356 0.820157 0
M  V30 7084 C 687.983 -2.47525 1.25006 0
M  V30 7085 H 690.934 -1.14301 1.10095 0
M  V30 7086 H 690.955 -3.78045 0.431535 0
M  V30 7087 H 690.467 -3.21913 2.1678 0
M  V30 7088 H 688.568 -3.7178 -0.247012 0
M  V30 7089 H 688.681 -4.57181 1.43257 0
M  V30 7090 H 687.045 -2.45765 0.668698 0
M  V30 7091 H 687.828 -2.51269 2.3392 0
M  V30 7092 N 690.273 -0.685099 -1.4193 0
M  V30 7093 C 691.519 -0.211971 -2.01689 0
M  V30 7094 C 691.852 1.18189 -1.54094 0
M  V30 7095 O 691.127 1.79559 -0.747572 0
M  V30 7096 C 691.41 -0.258019 -3.59174 0
M  V30 7097 C 691.263 -1.68807 -4.16922 0
M  V30 7098 C 692.582 0.388044 -4.38386 0
M  V30 7099 H 689.701 -0.0784987 -0.732808 0
M  V30 7100 H 692.343 -0.871837 -1.68816 0
M  V30 7101 H 690.493 0.303832 -3.8731 0
M  V30 7102 H 692.165 -2.30296 -3.99702 0
M  V30 7103 H 690.408 -2.22553 -3.72361 0
M  V30 7104 H 691.079 -1.6719 -5.26072 0
M  V30 7105 H 693.555 -0.0903432 -4.16002 0
M  V30 7106 H 692.431 0.325232 -5.47936 0
M  V30 7107 H 692.692 1.4672 -4.17044 0
M  V30 7108 N 691.751 1.51645 -0.429126 0
M  V30 7109 C 693.162 1.86665 0.0359003 0
M  V30 7110 C 693.513 1.34677 1.42676 0
M  V30 7111 O 692.638 0.694195 2.04963 0
M  V30 7112 C 693.233 3.38724 0.0719221 0
M  V30 7113 C 691.792 3.7331 0.481336 0
M  V30 7114 C 690.939 2.75313 -0.331329 0
M  V30 7115 H 693.89 1.44987 -0.645333 0
M  V30 7116 H 693.911 3.7011 0.883118 0
M  V30 7117 H 693.423 3.76532 -0.940495 0
M  V30 7118 H 691.524 3.41088 1.49966 0
M  V30 7119 H 691.637 4.78631 0.211837 0
M  V30 7120 H 690.001 2.53839 0.209204 0
M  V30 7121 H 690.784 3.15963 -1.34247 0
M  V30 7122 N 693.229 0.160201 1.56784 0
M  V30 7123 C 694.506 -0.533355 1.88188 0
M  V30 7124 C 694.886 -1.82072 1.06831 0
M  V30 7125 O 694.234 -2.27946 0.158959 0
M  V30 7126 C 694.444 -0.786034 3.40033 0
M  V30 7127 C 695.792 -1.12097 4.09536 0
M  V30 7128 O 696.816 -0.874949 3.45287 0
M  V30 7129 O 695.675 -1.58457 5.23023 0
M  V30 7130 H 692.769 -0.273589 0.780434 0
M  V30 7131 H 695.315 0.197803 1.68543 0
M  V30 7132 H 694.087 0.124515 3.91102 0
M  V30 7133 H 693.71 -1.57091 3.65251 0
M  V30 7134 N 694.707 -1.5719 -0.113559 0
M  V30 7135 C 695.637 -2.03772 -1.14013 0
M  V30 7136 C 696.618 -0.923176 -1.42869 0
M  V30 7137 O 697.803 -1.19325 -1.53216 0
M  V30 7138 C 694.933 -2.44663 -2.4649 0
M  V30 7139 C 693.887 -3.59612 -2.32085 0
M  V30 7140 C 693.213 -3.8642 -3.69573 0
M  V30 7141 C 694.513 -4.91149 -1.7768 0
M  V30 7142 H 696.207 -2.89785 -0.752665 0
M  V30 7143 H 693.753 -1.39412 -0.360609 0
M  V30 7144 H 695.706 -2.75857 -3.18561 0
M  V30 7145 H 694.43 -1.55628 -2.87137 0
M  V30 7146 H 693.089 -3.28636 -1.62461 0
M  V30 7147 H 692.737 -2.94581 -4.07715 0
M  V30 7148 H 692.437 -4.63797 -3.60786 0
M  V30 7149 H 693.961 -4.2007 -4.4314 0
M  V30 7150 H 695.375 -5.20843 -2.39574 0
M  V30 7151 H 693.772 -5.72562 -1.79701 0
M  V30 7152 H 694.842 -4.79301 -0.734776 0
M  V30 7153 N 696.185 0.383891 -1.52853 0
M  V30 7154 C 697.148 1.45197 -1.77343 0
M  V30 7155 C 698.148 1.47362 -0.643522 0
M  V30 7156 O 699.338 1.48443 -0.911613 0
M  V30 7157 C 696.47 2.8445 -1.87885 0
M  V30 7158 H 697.663 1.24764 -2.72716 0
M  V30 7159 H 695.216 0.615939 -1.43652 0
M  V30 7160 H 695.951 3.10222 -0.94515 0
M  V30 7161 H 695.736 2.8428 -2.70051 0
M  V30 7162 H 697.226 3.61832 -2.08488 0
M  V30 7163 N 697.663 1.43903 0.642637 0
M  V30 7164 C 698.626 1.49538 1.73698 0
M  V30 7165 C 699.626 0.378776 1.56275 0
M  V30 7166 O 700.816 0.64095 1.6198 0
M  V30 7167 C 697.948 1.35821 3.12675 0
M  V30 7168 H 699.141 2.47008 1.70079 0
M  V30 7169 H 696.694 1.30824 0.85526 0
M  V30 7170 H 697.429 0.393994 3.21898 0
M  V30 7171 H 697.214 2.16776 3.26727 0
M  V30 7172 H 698.704 1.4272 3.92455 0
M  V30 7173 N 699.141 -0.881989 1.30609 0
M  V30 7174 C 700.387 -1.63649 1.20791 0
M  V30 7175 C 700.742 -1.90966 -0.234437 0
M  V30 7176 O 700.035 -1.52163 -1.16434 0
M  V30 7177 C 700.229 -2.97999 1.97311 0
M  V30 7178 C 700.058 -2.83798 3.48839 0
M  V30 7179 C 698.828 -2.83622 4.18195 0
M  V30 7180 C 701.026 -2.59529 4.44015 0
M  V30 7181 N 699.008 -2.60344 5.55962 0
M  V30 7182 C 700.379 -2.45401 5.69366 0
M  V30 7183 C 702.434 -2.44777 4.33576 0
M  V30 7184 C 701.137 -2.18023 6.85462 0
M  V30 7185 C 703.163 -2.18785 5.49443 0
M  V30 7186 C 702.525 -2.05436 6.73777 0
M  V30 7187 H 698.624 -0.603687 0.497077 0
M  V30 7188 H 701.208 -1.03908 1.64655 0
M  V30 7189 H 699.379 -3.55767 1.55834 0
M  V30 7190 H 701.111 -3.6266 1.79611 0
M  V30 7191 H 697.866 -2.95562 3.70054 0
M  V30 7192 H 698.29 -2.51709 6.28468 0
M  V30 7193 H 702.932 -2.53831 3.38126 0
M  V30 7194 H 700.65 -2.07707 7.8095 0
M  V30 7195 H 704.236 -2.08188 5.43276 0
M  V30 7196 H 703.116 -1.85605 7.61919 0
M  V30 7197 N 700.619 -1.13374 -1.09472 0
M  V30 7198 C 701.865 -0.896516 -1.81908 0
M  V30 7199 C 702.198 0.575933 -1.85463 0
M  V30 7200 O 701.473 1.42618 -1.32251 0
M  V30 7201 C 701.756 -1.48445 -3.28079 0
M  V30 7202 C 701.609 -3.02598 -3.32798 0
M  V30 7203 C 702.928 -1.15226 -4.24748 0
M  V30 7204 H 700.047 -0.327127 -0.660422 0
M  V30 7205 H 702.689 -1.40195 -1.2824 0
M  V30 7206 H 700.839 -1.0546 -3.73912 0
M  V30 7207 H 702.511 -3.54335 -2.95372 0
M  V30 7208 H 700.754 -3.37613 -2.72397 0
M  V30 7209 H 701.425 -3.38835 -4.3577 0
M  V30 7210 H 703.901 -1.52369 -3.87199 0
M  V30 7211 H 702.777 -1.59012 -5.25363 0
M  V30 7212 H 703.038 -0.0658891 -4.42051 0
M  V30 7213 N 702.098 1.27442 -0.927168 0
M  V30 7214 C 703.326 1.98498 -0.583622 0
M  V30 7215 C 703.741 1.69171 0.838241 0
M  V30 7216 O 703.098 0.951969 1.55704 0
M  V30 7217 C 703.149 3.52552 -0.799341 0
M  V30 7218 O 702.87 3.80851 -2.16527 0
M  V30 7219 C 704.371 4.4086 -0.464436 0
M  V30 7220 H 701.591 0.633487 -0.221213 0
M  V30 7221 H 704.135 1.62308 -1.24404 0
M  V30 7222 H 702.29 3.86955 -0.185728 0
M  V30 7223 H 702.704 4.75441 -2.21487 0
M  V30 7224 H 704.178 5.47967 -0.666075 0
M  V30 7225 H 704.655 4.35082 0.599995 0
M  V30 7226 H 705.261 4.11977 -1.05617 0
M  V30 7227 N 703.576 0.692616 1.41565 0
M  V30 7228 C 704.801 0.229776 2.06123 0
M  V30 7229 C 705.226 -1.11119 1.5177 0
M  V30 7230 O 704.584 -1.69498 0.643444 0
M  V30 7231 C 704.632 0.19469 3.60074 0
M  V30 7232 O 703.736 -0.831366 4.03933 0
M  V30 7233 H 703.077 0.113002 0.654314 0
M  V30 7234 H 705.607 0.946645 1.81383 0
M  V30 7235 H 705.617 0.0245487 4.07993 0
M  V30 7236 H 704.292 1.17339 3.99004 0
M  V30 7237 H 702.869 -0.630819 3.67526 0
M  V30 7238 N 705.054 -1.51416 0.437162 0
M  V30 7239 C 706.301 -2.02086 -0.129364 0
M  V30 7240 C 706.629 -1.32133 -1.42728 0
M  V30 7241 O 705.884 -0.424916 -1.91031 0
M  V30 7242 C 706.183 -3.55203 -0.39564 0
M  V30 7243 C 705.849 -4.43447 0.81644 0
M  V30 7244 C 704.511 -4.67285 1.14884 0
M  V30 7245 C 706.863 -4.95219 1.62503 0
M  V30 7246 C 704.191 -5.40141 2.29052 0
M  V30 7247 C 706.543 -5.69327 2.7577 0
M  V30 7248 C 705.207 -5.91429 3.09464 0
M  V30 7249 H 704.477 -0.739486 -0.0473375 0
M  V30 7250 H 707.124 -1.82368 0.584321 0
M  V30 7251 H 705.429 -3.73252 -1.19121 0
M  V30 7252 H 707.126 -3.91944 -0.847399 0
M  V30 7253 H 703.716 -4.2509 0.547422 0
M  V30 7254 H 707.9 -4.76686 1.38144 0
M  V30 7255 H 703.156 -5.55468 2.55471 0
M  V30 7256 H 707.33 -6.08433 3.38795 0
M  V30 7257 H 704.957 -6.47662 3.98042 0
M  V30 7258 N 706.532 -0.168513 -1.56696 0
M  V30 7259 C 707.495 0.748928 -2.16619 0
M  V30 7260 C 708.495 1.16007 -1.11351 0
M  V30 7261 O 709.685 1.07748 -1.3688 0
M  V30 7262 C 706.817 2.01904 -2.74677 0
M  V30 7263 H 708.01 0.227317 -2.99037 0
M  V30 7264 H 705.563 0.0810372 -1.5609 0
M  V30 7265 H 706.298 2.58381 -1.95985 0
M  V30 7266 H 706.083 1.73323 -3.51712 0
M  V30 7267 H 707.573 2.67383 -3.20774 0
M  V30 7268 N 708.01 1.57248 0.105221 0
M  V30 7269 C 708.973 2.00388 1.11252 0
M  V30 7270 C 709.973 0.89594 1.33527 0
M  V30 7271 O 711.163 1.16166 1.29811 0
M  V30 7272 C 708.295 2.35589 2.46395 0
M  V30 7273 H 709.488 2.90591 0.741424 0
M  V30 7274 H 707.041 1.52332 0.349956 0
M  V30 7275 H 707.776 1.4831 2.884 0
M  V30 7276 H 707.561 3.16408 2.31578 0
M  V30 7277 H 709.051 2.69658 3.18864 0
M  V30 7278 N 709.488 -0.375779 1.53054 0
M  V30 7279 C 710.904 -0.716764 1.426 0
M  V30 7280 C 711.104 -1.93651 0.556931 0
M  V30 7281 O 710.16 -2.52475 0.0354461 0
M  V30 7282 C 711.473 -0.939499 2.85646 0
M  V30 7283 C 713.021 -1.04015 2.95212 0
M  V30 7284 C 713.496 -1.29543 4.39298 0
M  V30 7285 N 714.987 -1.36335 4.42682 0
M  V30 7286 C 715.722 -1.57778 5.51266 0
M  V30 7287 N 715.218 -1.76604 6.69913 0
M  V30 7288 N 717.011 -1.60065 5.38828 0
M  V30 7289 H 709.162 0.42664 2.08071 0
M  V30 7290 H 711.425 0.128758 0.939215 0
M  V30 7291 H 711.131 -0.115189 3.51511 0
M  V30 7292 H 711.005 -1.85048 3.2869 0
M  V30 7293 H 713.392 -1.85501 2.29507 0
M  V30 7294 H 713.473 -0.106785 2.55577 0
M  V30 7295 H 713.117 -0.485611 5.05573 0
M  V30 7296 H 713.047 -2.24184 4.76497 0
M  V30 7297 H 715.538 -1.23441 3.5717 0
M  V30 7298 H 715.851 -1.9251 7.48438 0
M  V30 7299 H 714.196 -1.73802 6.72917 0
M  V30 7300 H 717.387 -1.44917 4.45103 0
M  V30 7301 H 717.56 -1.76435 6.23518 0
M  V30 7302 N 710.966 -1.44241 -0.634997 0
M  V30 7303 C 712.382 -1.28043 -0.952742 0
M  V30 7304 C 712.582 -0.21338 -2.00367 0
M  V30 7305 O 711.638 0.402042 -2.49279 0
M  V30 7306 C 712.951 -2.65076 -1.41968 0
M  V30 7307 C 714.499 -2.72755 -1.53537 0
M  V30 7308 C 714.974 -4.10249 -2.03616 0
M  V30 7309 N 716.465 -4.12406 -2.10892 0
M  V30 7310 C 717.2 -5.15641 -2.50803 0
M  V30 7311 N 716.696 -6.29239 -2.89879 0
M  V30 7312 N 718.489 -5.02995 -2.50903 0
M  V30 7313 H 710.64 -2.12315 0.060098 0
M  V30 7314 H 712.903 -0.947326 -0.0357325 0
M  V30 7315 H 712.609 -3.44213 -0.721804 0
M  V30 7316 H 712.483 -2.91704 -2.39141 0
M  V30 7317 H 714.87 -1.93939 -2.22422 0
M  V30 7318 H 714.951 -2.49872 -0.547496 0
M  V30 7319 H 714.595 -4.8954 -1.35327 0
M  V30 7320 H 714.525 -4.30507 -3.03268 0
M  V30 7321 H 717.016 -3.30417 -1.83393 0
M  V30 7322 H 717.329 -7.03827 -3.19135 0
M  V30 7323 H 715.674 -6.32683 -2.8764 0
M  V30 7324 H 718.865 -4.13306 -2.19763 0
M  V30 7325 H 719.038 -5.83574 -2.81683 0
M  V30 7326 N 712.444 0.87505 -1.31075 0
M  V30 7327 C 713.674 1.65818 -1.2324 0
M  V30 7328 C 714.082 1.8808 0.205536 0
M  V30 7329 O 713.425 1.43548 1.14628 0
M  V30 7330 C 713.487 3.05131 -1.90093 0
M  V30 7331 C 713.151 3.05999 -3.39432 0
M  V30 7332 C 714.148 2.84328 -4.35263 0
M  V30 7333 C 711.833 3.27281 -3.81041 0
M  V30 7334 C 713.827 2.83912 -5.70678 0
M  V30 7335 C 711.514 3.26493 -5.16571 0
M  V30 7336 C 712.512 3.04834 -6.112 0
M  V30 7337 O 712.2 3.03882 -7.44252 0
M  V30 7338 H 711.932 0.52387 -0.427242 0
M  V30 7339 H 714.486 1.10086 -1.73408 0
M  V30 7340 H 712.716 3.62568 -1.34468 0
M  V30 7341 H 714.405 3.65641 -1.76242 0
M  V30 7342 H 715.171 2.67673 -4.04445 0
M  V30 7343 H 711.05 3.43171 -3.07822 0
M  V30 7344 H 714.594 2.66925 -6.44513 0
M  V30 7345 H 710.491 3.42687 -5.47025 0
M  V30 7346 H 711.259 3.19979 -7.53363 0
M  V30 7347 N 713.922 1.13953 1.08869 0
M  V30 7348 C 715.17 0.903023 1.80803 0
M  V30 7349 C 715.491 -0.572151 1.86417 0
M  V30 7350 O 714.761 -1.41589 1.35386 0
M  V30 7351 H 713.341 0.331099 0.669614 0
M  V30 7352 H 716.003 1.43719 1.31647 0
M  V30 7353 H 715.099 1.29881 2.83791 0
M  V30 7354 N 715.4 -1.26948 0.933913 0
M  V30 7355 C 716.646 -1.94374 0.57848 0
M  V30 7356 C 716.979 -1.73166 -0.879048 0
M  V30 7357 O 716.254 -1.06438 -1.62792 0
M  V30 7358 C 716.537 -3.4834 0.912739 0
M  V30 7359 C 716.39 -3.78866 2.42448 0
M  V30 7360 C 717.709 -4.38062 0.423003 0
M  V30 7361 H 714.828 -0.705959 0.211639 0
M  V30 7362 H 717.47 -1.49951 1.16682 0
M  V30 7363 H 715.62 -3.86309 0.412058 0
M  V30 7364 H 717.292 -3.50654 2.99733 0
M  V30 7365 H 715.535 -3.25198 2.87104 0
M  V30 7366 H 716.206 -4.86458 2.60887 0
M  V30 7367 H 718.682 -4.0728 0.852191 0
M  V30 7368 H 717.558 -5.44599 0.685776 0
M  V30 7369 H 717.819 -4.36886 -0.676994 0
M  V30 7370 N 716.879 -0.700114 -1.41195 0
M  V30 7371 C 718.104 -0.240704 -2.05998 0
M  V30 7372 C 718.529 1.10313 -1.52357 0
M  V30 7373 O 717.887 1.69154 -0.652424 0
M  V30 7374 C 717.935 -0.213783 -3.59966 0
M  V30 7375 O 717.039 0.809933 -4.04368 0
M  V30 7376 H 716.38 -0.116471 -0.653705 0
M  V30 7377 H 718.91 -0.956251 -1.80878 0
M  V30 7378 H 718.92 -0.0461852 -4.07974 0
M  V30 7379 H 717.595 -1.19454 -3.98376 0
M  V30 7380 H 716.172 0.611319 -3.67855 0
M  V30 7381 N 718.357 1.51182 -0.445186 0
M  V30 7382 C 719.307 2.24804 0.380394 0
M  V30 7383 C 720.291 1.27344 0.983482 0
M  V30 7384 O 721.483 1.52392 0.900322 0
M  V30 7385 C 718.612 3.09922 1.4766 0
M  V30 7386 C 717.698 4.14816 0.882517 0
M  V30 7387 N 718.089 5.05797 0.0183278 0
M  V30 7388 C 716.387 4.30938 1.14927 0
M  V30 7389 C 717.088 5.8084 -0.316152 0
M  V30 7390 N 716.064 5.42759 0.302214 0
M  V30 7391 H 719.866 2.92508 -0.285737 0
M  V30 7392 H 717.38 1.60342 -0.257733 0
M  V30 7393 H 719.377 3.61249 2.08098 0
M  V30 7394 H 718.037 2.43763 2.14498 0
M  V30 7395 H 719.048 5.16725 -0.348679 0
M  V30 7396 H 715.725 3.76005 1.81457 0
M  V30 7397 H 717.115 6.64115 -1.01986 0
M  V30 7398 N 719.835 0.176821 1.56605 0
M  V30 7399 C 721.246 -0.338963 1.83597 0
M  V30 7400 C 721.597 -1.62677 1.09684 0
M  V30 7401 O 720.722 -2.13524 0.351661 0
M  V30 7402 C 721.317 -0.62177 3.33046 0
M  V30 7403 C 719.876 -1.08198 3.60514 0
M  V30 7404 C 719.023 -0.120774 2.77037 0
M  V30 7405 H 721.974 0.400978 1.53551 0
M  V30 7406 H 721.995 -1.47321 3.50823 0
M  V30 7407 H 721.507 0.315692 3.86814 0
M  V30 7408 H 719.608 -2.03435 3.12162 0
M  V30 7409 H 719.721 -0.987329 4.68816 0
M  V30 7410 H 718.085 -0.619192 2.47059 0
M  V30 7411 H 718.868 0.810806 3.33588 0
M  V30 7412 N 721.313 -1.57302 -0.09688 0
M  V30 7413 C 722.59 -1.7701 -0.832272 0
M  V30 7414 C 722.97 -0.758025 -1.97021 0
M  V30 7415 O 722.318 0.213824 -2.27497 0
M  V30 7416 C 722.528 -3.22725 -1.32851 0
M  V30 7417 C 723.876 -3.85856 -1.772 0
M  V30 7418 O 724.9 -3.26464 -1.42478 0
M  V30 7419 O 723.759 -4.90295 -2.41398 0
M  V30 7420 H 720.853 -0.725558 -0.396856 0
M  V30 7421 H 723.399 -1.69516 -0.0789005 0
M  V30 7422 H 722.171 -3.87921 -0.51312 0
M  V30 7423 H 721.794 -3.34845 -2.14394 0
M  V30 7424 N 722.791 0.367657 -1.53252 0
M  V30 7425 C 723.754 1.43308 -1.78873 0
M  V30 7426 C 724.754 1.46671 -0.659115 0
M  V30 7427 O 725.944 1.47468 -0.927306 0
M  V30 7428 C 723.076 2.82442 -1.90892 0
M  V30 7429 H 724.269 1.21864 -2.74024 0
M  V30 7430 H 721.822 0.600668 -1.44297 0
M  V30 7431 H 722.557 3.09202 -0.978 0
M  V30 7432 H 722.342 2.81399 -2.73051 0
M  V30 7433 H 723.832 3.59601 -2.12314 0
M  V30 7434 N 724.269 1.44576 0.627338 0
M  V30 7435 C 725.517 1.47267 1.38408 0
M  V30 7436 C 725.838 0.107971 1.94701 0
M  V30 7437 O 725.108 -0.860206 1.76004 0
M  V30 7438 H 723.688 0.542276 0.513756 0
M  V30 7439 H 726.35 1.80383 0.738099 0
M  V30 7440 H 725.446 2.20025 2.21349 0
M  V30 7441 N 725.747 -0.868086 1.31537 0
M  V30 7442 C 726.71 -1.95703 1.19302 0
M  V30 7443 C 727.71 -1.60355 0.119612 0
M  V30 7444 O 728.9 -1.70247 0.36902 0
M  V30 7445 C 726.032 -3.30599 0.831684 0
M  V30 7446 H 727.225 -2.07982 2.16064 0
M  V30 7447 H 724.778 -1.05661 1.15176 0
M  V30 7448 H 725.513 -3.2402 -0.134694 0
M  V30 7449 H 725.298 -3.57629 1.60761 0
M  V30 7450 H 726.788 -4.10439 0.770026 0
M  V30 7451 N 727.225 -1.14528 -1.08264 0
M  V30 7452 C 728.188 -0.83632 -2.13397 0
M  V30 7453 C 729.188 0.159715 -1.60005 0
M  V30 7454 O 730.378 -0.0688098 -1.74064 0
M  V30 7455 C 727.51 -0.246973 -3.40004 0
M  V30 7456 H 728.703 -1.76808 -2.42237 0
M  V30 7457 H 726.256 -0.951509 -1.24 0
M  V30 7458 H 726.991 0.693436 -3.168 0
M  V30 7459 H 726.776 -0.964412 -3.80055 0
M  V30 7460 H 728.266 -0.0480679 -4.17572 0
M  V30 7461 N 728.703 1.26451 -0.940633 0
M  V30 7462 C 729.949 1.94401 -0.598303 0
M  V30 7463 C 730.304 1.72449 0.853178 0
M  V30 7464 O 729.597 1.0506 1.60228 0
M  V30 7465 C 729.791 3.46503 -0.875794 0
M  V30 7466 C 729.62 3.83247 -2.3527 0
M  V30 7467 C 728.39 4.06032 -3.00776 0
M  V30 7468 C 730.588 3.91841 -3.33114 0
M  V30 7469 N 728.57 4.29656 -4.38485 0
M  V30 7470 C 729.941 4.19991 -4.56078 0
M  V30 7471 C 731.996 3.74466 -3.28146 0
M  V30 7472 C 730.699 4.32574 -5.74693 0
M  V30 7473 C 732.725 3.88281 -4.46085 0
M  V30 7474 C 732.087 4.16829 -5.67831 0
M  V30 7475 H 728.186 0.734168 -0.269297 0
M  V30 7476 H 730.77 1.52541 -1.20992 0
M  V30 7477 H 728.941 3.87292 -0.293223 0
M  V30 7478 H 730.673 4.01664 -0.494788 0
M  V30 7479 H 727.428 4.01369 -2.51396 0
M  V30 7480 H 727.852 4.45501 -5.09762 0
M  V30 7481 H 732.494 3.51424 -2.35077 0
M  V30 7482 H 730.212 4.54438 -6.68215 0
M  V30 7483 H 733.798 3.76241 -4.43773 0
M  V30 7484 H 732.678 4.27284 -6.5757 0
M  V30 7485 N 730.181 0.707592 1.40822 0
M  V30 7486 C 731.597 0.38034 1.55002 0
M  V30 7487 C 731.797 -1.11163 1.68062 0
M  V30 7488 O 730.853 -1.89761 1.66574 0
M  V30 7489 C 732.166 1.1394 2.78277 0
M  V30 7490 C 733.714 1.12492 2.92087 0
M  V30 7491 C 734.189 1.86597 4.18265 0
M  V30 7492 N 735.68 1.83626 4.25248 0
M  V30 7493 C 736.415 2.37794 5.21768 0
M  V30 7494 N 735.911 3.00485 6.24244 0
M  V30 7495 N 737.704 2.27982 5.13791 0
M  V30 7496 H 729.855 1.67511 1.3059 0
M  V30 7497 H 732.118 0.707579 0.630901 0
M  V30 7498 H 731.824 2.19398 2.74877 0
M  V30 7499 H 731.698 0.725793 3.70151 0
M  V30 7500 H 734.085 0.0785564 2.94995 0
M  V30 7501 H 734.166 1.57768 2.01353 0
M  V30 7502 H 733.81 2.91219 4.16118 0
M  V30 7503 H 733.74 1.38746 5.07993 0
M  V30 7504 H 736.231 1.3793 3.51829 0
M  V30 7505 H 736.544 3.39355 6.94304 0
M  V30 7506 H 734.889 3.04567 6.24711 0
M  V30 7507 H 738.08 1.78669 4.3266 0
M  V30 7508 H 738.253 2.70499 5.88841 0
M  V30 7509 N 731.66 -1.50943 0.453197 0
M  V30 7510 C 732.59 -2.31005 -0.34044 0
M  V30 7511 C 733.571 -1.37112 -1.00669 0
M  V30 7512 O 734.756 -1.66033 -1.0073 0
M  V30 7513 C 731.886 -3.16358 -1.433 0
M  V30 7514 C 730.84 -4.18658 -0.889363 0
M  V30 7515 C 730.166 -4.92633 -2.07887 0
M  V30 7516 C 731.466 -5.22227 0.0871142 0
M  V30 7517 H 733.16 -2.97601 0.327723 0
M  V30 7518 H 730.706 -1.43119 0.159054 0
M  V30 7519 H 732.659 -3.71155 -1.99555 0
M  V30 7520 H 731.383 -2.47613 -2.12968 0
M  V30 7521 H 730.042 -3.64936 -0.348915 0
M  V30 7522 H 729.69 -4.20376 -2.76211 0
M  V30 7523 H 729.39 -5.61819 -1.72143 0
M  V30 7524 H 730.914 -5.50258 -2.64666 0
M  V30 7525 H 732.328 -5.72001 -0.385656 0
M  V30 7526 H 730.725 -5.99032 0.357926 0
M  V30 7527 H 731.795 -4.74077 1.01879 0
M  V30 7528 N 733.138 -0.185124 -1.56509 0
M  V30 7529 C 734.068 0.735098 -2.21627 0
M  V30 7530 C 735.049 1.2288 -1.1762 0
M  V30 7531 O 736.234 1.27945 -1.46095 0
M  V30 7532 C 733.364 1.95889 -2.86783 0
M  V30 7533 C 732.318 1.6005 -3.96948 0
M  V30 7534 C 731.644 2.90009 -4.4922 0
M  V30 7535 C 732.944 0.818008 -5.15855 0
M  V30 7536 H 734.638 0.192274 -2.98782 0
M  V30 7537 H 732.184 0.0910393 -1.43712 0
M  V30 7538 H 734.137 2.60779 -3.31017 0
M  V30 7539 H 732.861 2.52608 -2.07018 0
M  V30 7540 H 731.52 0.975237 -3.5339 0
M  V30 7541 H 731.168 3.44797 -3.6623 0
M  V30 7542 H 730.868 2.66778 -5.23549 0
M  V30 7543 H 732.392 3.55904 -4.9615 0
M  V30 7544 H 733.806 1.36979 -5.56695 0
M  V30 7545 H 732.203 0.684207 -5.96187 0
M  V30 7546 H 733.273 -0.182939 -4.84555 0
M  V30 7547 N 734.616 1.57351 0.0885366 0
M  V30 7548 C 735.546 2.05561 1.10757 0
M  V30 7549 C 736.527 0.945789 1.41382 0
M  V30 7550 O 737.712 1.21747 1.51299 0
M  V30 7551 C 734.842 2.48554 2.42566 0
M  V30 7552 C 733.796 3.63259 2.26334 0
M  V30 7553 C 733.122 3.9225 3.63378 0
M  V30 7554 C 734.422 4.93913 1.69844 0
M  V30 7555 H 736.116 2.90946 0.706468 0
M  V30 7556 H 733.662 1.39968 0.338385 0
M  V30 7557 H 735.615 2.8089 3.14132 0
M  V30 7558 H 734.339 1.60176 2.84625 0
M  V30 7559 H 732.998 3.31179 1.57213 0
M  V30 7560 H 732.646 3.0103 4.02976 0
M  V30 7561 H 732.346 4.69478 3.53362 0
M  V30 7562 H 733.87 4.27067 4.36401 0
M  V30 7563 H 735.284 5.24588 2.31258 0
M  V30 7564 H 733.681 5.75349 1.70569 0
M  V30 7565 H 734.751 4.80409 0.65843 0
M  V30 7566 N 736.094 -0.359525 1.53444 0
M  V30 7567 C 737.51 -0.701599 1.43352 0
M  V30 7568 C 737.71 -1.93049 0.577439 0
M  V30 7569 O 736.766 -2.52423 0.0622224 0
M  V30 7570 C 738.079 -0.90915 2.86627 0
M  V30 7571 C 739.627 -1.00878 2.96298 0
M  V30 7572 C 740.102 -1.24876 4.40647 0
M  V30 7573 N 741.593 -1.31632 4.44103 0
M  V30 7574 C 742.328 -1.51922 5.52908 0
M  V30 7575 N 741.824 -1.69489 6.71748 0
M  V30 7576 N 743.617 -1.54341 5.40496 0
M  V30 7577 H 735.768 0.448685 2.07607 0
M  V30 7578 H 738.031 0.138713 0.937797 0
M  V30 7579 H 737.737 -0.0778997 3.51614 0
M  V30 7580 H 737.611 -1.81551 3.30634 0
M  V30 7581 H 739.998 -1.83057 2.31461 0
M  V30 7582 H 740.079 -0.0796721 2.55676 0
M  V30 7583 H 739.723 -0.431961 5.0606 0
M  V30 7584 H 739.653 -2.19118 4.78848 0
M  V30 7585 H 742.144 -1.19646 3.5846 0
M  V30 7586 H 742.457 -1.84561 7.50438 0
M  V30 7587 H 740.802 -1.66655 6.74723 0
M  V30 7588 H 743.993 -1.40188 4.46615 0
M  V30 7589 H 744.166 -1.69812 6.25354 0
M  V30 7590 N 737.572 -1.44907 -0.619662 0
M  V30 7591 C 738.797 -1.52021 -1.41083 0
M  V30 7592 C 739.222 -0.14976 -1.87503 0
M  V30 7593 O 738.58 0.863303 -1.59426 0
M  V30 7594 C 738.628 -2.49911 -2.59955 0
M  V30 7595 O 737.732 -2.00857 -3.60181 0
M  V30 7596 H 737.073 -0.512912 -0.421684 0
M  V30 7597 H 739.603 -1.90149 -0.755282 0
M  V30 7598 H 739.613 -2.68323 -3.07354 0
M  V30 7599 H 738.288 -3.4945 -2.25516 0
M  V30 7600 H 736.865 -1.92265 -3.19513 0
M  V30 7601 N 739.05 0.861098 -1.31996 0
M  V30 7602 C 740.296 1.61721 -1.22369 0
M  V30 7603 C 740.629 1.93 0.215587 0
M  V30 7604 O 739.904 1.56789 1.15098 0
M  V30 7605 C 740.187 2.9417 -2.07691 0
M  V30 7606 C 740.04 2.69714 -3.59965 0
M  V30 7607 C 741.359 3.95372 -1.93312 0
M  V30 7608 H 738.478 0.586822 -0.44588 0
M  V30 7609 H 741.12 0.994788 -1.61876 0
M  V30 7610 H 739.27 3.47292 -1.74128 0
M  V30 7611 H 740.942 2.23196 -4.03709 0
M  V30 7612 H 739.185 2.03789 -3.82952 0
M  V30 7613 H 739.856 3.63996 -4.14983 0
M  V30 7614 H 742.332 3.51487 -2.22701 0
M  V30 7615 H 741.208 4.85916 -2.55298 0
M  V30 7616 H 741.469 4.32865 -0.898922 0
M  V30 7617 N 740.528 1.15101 1.07655 0
M  V30 7618 C 741.758 0.946357 1.83651 0
M  V30 7619 C 742.166 -0.508641 1.82235 0
M  V30 7620 O 741.509 -1.36445 1.22997 0
M  V30 7621 C 741.571 1.37945 3.31981 0
M  V30 7622 C 741.235 2.85155 3.57122 0
M  V30 7623 C 742.232 3.83234 3.51323 0
M  V30 7624 C 739.917 3.2275 3.84887 0
M  V30 7625 C 741.911 5.16914 3.72932 0
M  V30 7626 C 739.598 4.56604 4.06148 0
M  V30 7627 C 740.596 5.53495 4.00165 0
M  V30 7628 O 740.284 6.84931 4.20861 0
M  V30 7629 H 740.016 0.336368 0.586372 0
M  V30 7630 H 742.57 1.53198 1.36819 0
M  V30 7631 H 740.8 0.737205 3.79608 0
M  V30 7632 H 742.489 1.14439 3.89434 0
M  V30 7633 H 743.255 3.55535 3.29878 0
M  V30 7634 H 739.134 2.47921 3.88659 0
M  V30 7635 H 742.678 5.92529 3.68178 0
M  V30 7636 H 738.575 4.84019 4.27078 0
M  V30 7637 H 739.343 6.91304 4.38226 0
M  V30 7638 N 742.006 -1.2595 0.947325 0
M  V30 7639 C 742.954 -2.28152 0.452687 0
M  V30 7640 C 743.948 -1.62655 -0.473239 0
M  V30 7641 O 745.154 -1.76549 -0.350774 0
M  V30 7642 H 741.529 -0.741049 0.12787 0
M  V30 7643 H 743.5 -2.67267 1.32707 0
M  V30 7644 C 742.249 -3.46719 -0.26098 0
M  V30 7645 H 741.572 -3.97345 0.442352 0
M  V30 7646 H 743.012 -4.20135 -0.571208 0
M  V30 7647 C 741.471 -3.02605 -1.48094 0
M  V30 7648 O 742.001 -3.07979 -2.57899 0
M  V30 7649 N 740.207 -2.57877 -1.33969 0
M  V30 7650 H 739.754 -2.53704 -0.446295 0
M  V30 7651 H 739.712 -2.28725 -2.15713 0
M  V30 7652 N 743.484 -0.715051 -1.40445 0
M  V30 7653 C 744.724 -0.258742 -2.02756 0
M  V30 7654 C 745.088 1.12661 -1.55472 0
M  V30 7655 O 746.289 1.67988 -2.09842 0
M  V30 7656 C 744.56 -0.335201 -3.55825 0
M  V30 7657 S 746.119 0.044201 -4.38778 0
M  V30 7658 H 742.937 -0.102683 -0.703546 0
M  V30 7659 H 745.539 -0.937151 -1.71574 0
M  V30 7660 H 744.243 -1.34511 -3.87731 0
M  V30 7661 H 743.774 0.361705 -3.91734 0
M  V30 7662 H 745.789 1.26639 -4.79768 0
M  V30 7663 N 744.962 1.50701 -0.461195 0
M  V30 7664 C 746.187 2.07171 0.0974773 0
M  V30 7665 C 746.612 1.32391 1.3362 0
M  V30 7666 O 745.97 0.368676 1.77512 0
M  V30 7667 C 746.018 3.58651 0.374409 0
M  V30 7668 O 745.122 3.85816 1.4567 0
M  V30 7669 H 744.463 0.663944 -0.00862047 0
M  V30 7670 H 746.993 1.94021 -0.649394 0
M  V30 7671 H 747.003 4.03295 0.617843 0
M  V30 7672 H 745.678 4.12498 -0.530829 0
M  V30 7673 H 744.255 3.53018 1.20136 0
M  V30 7674 N 746.441 0.193421 1.56409 0
M  V30 7675 C 747.689 -0.444908 1.97142 0
M  V30 7676 C 748.01 -1.62268 1.08139 0
M  V30 7677 O 747.28 -1.95307 0.152326 0
M  V30 7678 H 745.86 -0.16736 0.728011 0
M  V30 7679 H 748.522 0.279763 1.92882 0
M  V30 7680 H 747.618 -0.790159 3.01932 0
M  V30 7681 N 747.919 -1.57396 -0.0801906 0
M  V30 7682 C 748.829 -2.06451 -1.11423 0
M  V30 7683 C 749.845 -0.992352 -1.42928 0
M  V30 7684 O 751.021 -1.30651 -1.53272 0
M  V30 7685 C 748.086 -2.49164 -2.41077 0
M  V30 7686 C 747.147 -3.70641 -2.16619 0
M  V30 7687 C 746.38 -4.11307 -3.40092 0
M  V30 7688 O 746.603 -3.51922 -4.48895 0
M  V30 7689 O 745.537 -5.04157 -3.288 0
M  V30 7690 H 749.363 -2.94857 -0.727519 0
M  V30 7691 H 746.948 -1.46484 -0.293743 0
M  V30 7692 H 748.83 -2.77196 -3.17396 0
M  V30 7693 H 747.505 -1.6389 -2.79145 0
M  V30 7694 H 746.412 -3.47703 -1.38033 0
M  V30 7695 H 747.745 -4.5674 -1.83437 0
M  V30 7696 N 749.397 0.351382 -1.53633 0
M  V30 7697 C 750.36 1.41403 -1.80383 0
M  V30 7698 C 751.36 1.45963 -0.674635 0
M  V30 7699 O 752.55 1.46476 -0.942895 0
M  V30 7700 C 749.682 2.80401 -1.93876 0
M  V30 7701 H 750.875 1.18951 -2.75301 0
M  V30 7702 H 748.428 0.58533 -1.44926 0
M  V30 7703 H 749.163 3.08147 -1.01074 0
M  V30 7704 H 748.948 2.78488 -2.7602 0
M  V30 7705 H 750.438 3.57329 -2.16116 0
M  V30 7706 N 750.875 1.45233 0.611969 0
M  V30 7707 C 752.115 1.50558 1.38245 0
M  V30 7708 C 752.479 0.141959 1.91474 0
M  V30 7709 O 753.68 0.0698926 2.68709 0
M  V30 7710 C 751.951 2.55136 2.50281 0
M  V30 7711 S 753.51 2.79652 3.38142 0
M  V30 7712 H 750.328 0.532281 0.471378 0
M  V30 7713 H 752.93 1.82285 0.706578 0
M  V30 7714 H 751.634 3.52888 2.09518 0
M  V30 7715 H 751.165 2.25045 3.22674 0
M  V30 7716 H 753.18 2.12699 4.48301 0
M  V30 7717 N 752.353 -0.854086 1.3245 0
M  V30 7718 C 753.769 -1.14238 1.11453 0
M  V30 7719 C 753.969 -2.01228 -0.10461 0
M  V30 7720 O 753.025 -2.39845 -0.789339 0
M  V30 7721 C 754.338 -1.81916 2.39431 0
M  V30 7722 C 755.886 -1.94549 2.45193 0
M  V30 7723 C 756.361 -2.65642 3.73093 0
M  V30 7724 N 757.852 -2.73167 3.74078 0
M  V30 7725 C 758.587 -3.28828 4.69744 0
M  V30 7726 N 758.083 -3.85295 5.75778 0
M  V30 7727 N 759.876 -3.26936 4.57241 0
M  V30 7728 H 752.027 -0.274786 2.10615 0
M  V30 7729 H 754.29 -0.184375 0.929898 0
M  V30 7730 H 753.996 -1.25452 3.28565 0
M  V30 7731 H 753.87 -2.82068 2.50434 0
M  V30 7732 H 756.257 -2.50172 1.56518 0
M  V30 7733 H 756.338 -0.933914 2.38142 0
M  V30 7734 H 755.982 -2.10683 4.62142 0
M  V30 7735 H 755.912 -3.6724 3.77415 0
M  V30 7736 H 758.403 -2.33108 2.97438 0
M  V30 7737 H 758.716 -4.25925 6.44832 0
M  V30 7738 H 757.061 -3.83625 5.79531 0
M  V30 7739 H 760.252 -2.8207 3.7357 0
M  V30 7740 H 760.425 -3.70014 5.31971 0
M  V30 7741 N 753.831 -1.1567 -1.07043 0
M  V30 7742 C 755.079 -0.931673 -1.79344 0
M  V30 7743 C 755.4 0.542421 -1.87304 0
M  V30 7744 O 754.67 1.39418 -1.37621 0
M  V30 7745 H 753.25 -0.34171 -0.664262 0
M  V30 7746 H 755.912 -1.45795 -1.29344 0
M  V30 7747 H 755.008 -1.34379 -2.81689 0
M  V30 7748 N 755.309 1.25446 -0.953992 0
M  V30 7749 C 756.259 2.23627 -0.444413 0
M  V30 7750 C 757.243 1.54004 0.465993 0
M  V30 7751 O 758.435 1.74454 0.29915 0
M  V30 7752 C 755.564 3.42179 0.277175 0
M  V30 7753 C 754.65 4.1907 -0.651263 0
M  V30 7754 N 755.041 4.73346 -1.78262 0
M  V30 7755 C 753.339 4.43628 -0.459338 0
M  V30 7756 C 754.04 5.31576 -2.36224 0
M  V30 7757 N 753.016 5.17991 -1.64884 0
M  V30 7758 H 756.818 2.63197 -1.30785 0
M  V30 7759 H 754.332 1.40677 -0.811402 0
M  V30 7760 H 756.329 4.11653 0.659367 0
M  V30 7761 H 754.989 3.04134 1.13723 0
M  V30 7762 H 756 4.705 -2.1645 0
M  V30 7763 H 752.677 4.15963 0.357885 0
M  V30 7764 H 754.067 5.84361 -3.3162 0
M  V30 7765 N 756.787 0.722489 1.40064 0
M  V30 7766 C 757.735 0.063329 2.32514 0
M  V30 7767 C 758.729 -0.73953 1.52405 0
M  V30 7768 O 759.935 -0.642122 1.68157 0
M  V30 7769 H 756.31 0.00167692 0.751998 0
M  V30 7770 H 758.281 0.859656 2.85749 0
M  V30 7771 C 757.03 -0.839219 3.3742 0
M  V30 7772 H 756.353 -0.230836 3.99133 0
M  V30 7773 H 757.793 -1.26827 4.04587 0
M  V30 7774 C 756.252 -1.96783 2.73456 0
M  V30 7775 O 756.782 -3.05933 2.60323 0
M  V30 7776 N 754.988 -1.75351 2.31734 0
M  V30 7777 H 754.535 -0.865787 2.42615 0
M  V30 7778 H 754.493 -2.51043 1.89275 0
M  V30 7779 N 758.265 -1.50454 0.469181 0
M  V30 7780 C 759.681 -1.59124 0.123226 0
M  V30 7781 C 759.881 -1.47749 -1.37013 0
M  V30 7782 O 758.937 -1.335 -2.14322 0
M  V30 7783 C 760.25 -2.93101 0.67172 0
M  V30 7784 C 761.798 -3.06491 0.634978 0
M  V30 7785 C 762.273 -4.43041 1.16098 0
M  V30 7786 N 763.764 -4.49448 1.12031 0
M  V30 7787 C 764.499 -5.53491 1.49784 0
M  V30 7788 N 763.995 -6.64798 1.94976 0
M  V30 7789 N 765.788 -5.44025 1.41399 0
M  V30 7790 H 757.939 -1.56091 1.44046 0
M  V30 7791 H 760.202 -0.737564 0.59557 0
M  V30 7792 H 759.908 -3.06895 1.7178 0
M  V30 7793 H 759.782 -3.77027 0.114222 0
M  V30 7794 H 762.169 -2.92346 -0.402187 0
M  V30 7795 H 762.25 -2.24328 1.22926 0
M  V30 7796 H 761.894 -4.57935 2.19677 0
M  V30 7797 H 761.824 -5.23794 0.542939 0
M  V30 7798 H 764.315 -3.69575 0.788828 0
M  V30 7799 H 764.628 -7.40246 2.21936 0
M  V30 7800 H 762.973 -6.65923 1.98927 0
M  V30 7801 H 766.164 -4.55955 1.05935 0
M  V30 7802 H 766.337 -6.2499 1.71147 0
M  V30 7803 N 759.743 -0.201713 -1.56304 0
M  V30 7804 C 760.968 0.443815 -2.02596 0
M  V30 7805 C 761.393 1.53945 -1.08086 0
M  V30 7806 O 760.751 1.81182 -0.0655056 0
M  V30 7807 C 760.799 0.971066 -3.47279 0
M  V30 7808 O 759.903 2.0836 -3.55893 0
M  V30 7809 H 759.244 0.10294 -0.655972 0
M  V30 7810 H 761.774 -0.314533 -2.02168 0
M  V30 7811 H 761.784 1.28598 -3.87204 0
M  V30 7812 H 760.459 0.169048 -4.15556 0
M  V30 7813 H 759.036 1.77683 -3.27846 0
M  V30 7814 N 761.222 1.57436 0.0718424 0
M  V30 7815 C 762.633 1.75975 0.623678 0
M  V30 7816 C 762.984 0.827155 1.77912 0
M  V30 7817 O 762.109 0.0112425 2.16397 0
M  V30 7818 C 762.704 3.1911 1.13816 0
M  V30 7819 C 761.263 3.38994 1.63586 0
M  V30 7820 C 760.41 2.71684 0.555261 0
M  V30 7821 H 763.361 1.57948 -0.154328 0
M  V30 7822 H 763.382 3.23267 2.00696 0
M  V30 7823 H 762.894 3.86962 0.296998 0
M  V30 7824 H 760.995 2.76256 2.50027 0
M  V30 7825 H 761.108 4.47436 1.71283 0
M  V30 7826 H 759.472 2.34236 1.00029 0
M  V30 7827 H 760.255 3.42191 -0.275712 0
M  V30 7828 N 762.7 -0.34323 1.53817 0
M  V30 7829 C 763.63 -1.42709 1.84814 0
M  V30 7830 C 764.611 -1.5488 0.703297 0
M  V30 7831 O 765.796 -1.69082 0.955237 0
M  V30 7832 C 762.926 -2.79756 2.05801 0
M  V30 7833 C 761.88 -2.82392 3.21619 0
M  V30 7834 C 761.206 -4.22326 3.2794 0
M  V30 7835 C 762.506 -2.479 4.59721 0
M  V30 7836 H 764.2 -1.17018 2.75585 0
M  V30 7837 H 761.746 -0.561485 1.32602 0
M  V30 7838 H 763.699 -3.55627 2.26069 0
M  V30 7839 H 762.423 -3.06883 1.11761 0
M  V30 7840 H 761.082 -2.08974 3.01207 0
M  V30 7841 H 760.73 -4.46564 2.31494 0
M  V30 7842 H 760.43 -4.25001 4.05768 0
M  V30 7843 H 761.954 -5.00039 3.50419 0
M  V30 7844 H 763.368 -3.13484 4.80001 0
M  V30 7845 H 761.765 -2.61857 5.39954 0
M  V30 7846 H 762.835 -1.43087 4.63308 0
M  V30 7847 N 764.178 -1.45556 -0.604258 0
M  V30 7848 C 765.424 -1.49968 -1.36519 0
M  V30 7849 C 765.757 -0.142236 -1.93678 0
M  V30 7850 O 765.032 0.843717 -1.75247 0
M  V30 7851 C 765.315 -2.58146 -2.51063 0
M  V30 7852 C 765.168 -4.03346 -1.99078 0
M  V30 7853 C 766.487 -2.62581 -3.53184 0
M  V30 7854 H 763.606 -0.545993 -0.495036 0
M  V30 7855 H 766.248 -1.77382 -0.680845 0
M  V30 7856 H 764.398 -2.34901 -3.09441 0
M  V30 7857 H 766.07 -4.37811 -1.45323 0
M  V30 7858 H 764.313 -4.13845 -1.30055 0
M  V30 7859 H 764.984 -4.74731 -2.81664 0
M  V30 7860 H 767.46 -2.83419 -3.04652 0
M  V30 7861 H 766.336 -3.40131 -4.30816 0
M  V30 7862 H 766.597 -1.67798 -4.09019 0
M  V30 7863 N 765.656 0.84705 -1.32902 0
M  V30 7864 C 767.072 1.13645 -1.12058 0
M  V30 7865 C 767.272 2.01281 0.093937 0
M  V30 7866 O 766.328 2.4026 0.776608 0
M  V30 7867 C 767.641 1.80644 -2.40392 0
M  V30 7868 C 769.189 1.93246 -2.46221 0
M  V30 7869 C 769.664 2.6366 -3.74496 0
M  V30 7870 N 771.155 2.71179 -3.75521 0
M  V30 7871 C 771.89 3.26332 -4.71482 0
M  V30 7872 N 771.386 3.82236 -5.77813 0
M  V30 7873 N 773.179 3.24507 -4.58968 0
M  V30 7874 H 765.33 0.263612 -2.10758 0
M  V30 7875 H 767.593 0.17944 -0.930863 0
M  V30 7876 H 767.299 1.23708 -3.29225 0
M  V30 7877 H 767.173 2.80736 -2.51926 0
M  V30 7878 H 769.56 2.49338 -1.57843 0
M  V30 7879 H 769.641 0.921272 -2.38634 0
M  V30 7880 H 769.285 2.08229 -4.63253 0
M  V30 7881 H 769.215 3.65234 -3.79357 0
M  V30 7882 H 771.706 2.31527 -2.9867 0
M  V30 7883 H 772.019 4.22499 -6.47082 0
M  V30 7884 H 770.364 3.80546 -5.81558 0
M  V30 7885 H 773.555 2.80085 -3.7506 0
M  V30 7886 H 773.728 3.67188 -5.33926 0
M  V30 7887 N 767.134 1.16236 1.06428 0
M  V30 7888 C 768.55 0.906983 1.31324 0
M  V30 7889 C 768.75 -0.440872 1.96618 0
M  V30 7890 O 767.806 -1.1807 2.23194 0
M  V30 7891 C 769.119 2.05501 2.19522 0
M  V30 7892 C 770.667 2.09061 2.32943 0
M  V30 7893 C 771.142 3.23214 3.24495 0
M  V30 7894 N 772.633 3.22922 3.32078 0
M  V30 7895 C 773.368 4.07889 4.03006 0
M  V30 7896 N 772.864 5.02941 4.76469 0
M  V30 7897 N 774.657 3.95881 3.99043 0
M  V30 7898 H 766.808 2.03015 0.624388 0
M  V30 7899 H 769.071 0.88576 0.337835 0
M  V30 7900 H 768.777 3.02847 1.78819 0
M  V30 7901 H 768.651 1.99538 3.201 0
M  V30 7902 H 771.038 1.12308 2.72893 0
M  V30 7903 H 771.119 2.19089 1.32037 0
M  V30 7904 H 770.763 4.20225 2.85261 0
M  V30 7905 H 770.693 3.10423 4.25377 0
M  V30 7906 H 773.184 2.54093 2.79724 0
M  V30 7907 H 773.497 5.64196 5.28112 0
M  V30 7908 H 771.842 5.06922 4.75453 0
M  V30 7909 H 775.033 3.20927 3.40769 0
M  V30 7910 H 775.206 4.62321 4.54052 0
M  V30 7911 N 768.612 -1.24939 0.960631 0
M  V30 7912 C 770.023 -1.74701 0.658529 0
M  V30 7913 C 770.374 -1.77967 -0.825959 0
M  V30 7914 O 769.499 -1.40444 -1.64634 0
M  V30 7915 C 770.094 -3.17263 1.18867 0
M  V30 7916 C 768.653 -3.64561 0.936614 0
M  V30 7917 C 767.8 -2.43423 1.32817 0
M  V30 7918 H 770.751 -1.10741 1.13676 0
M  V30 7919 H 770.772 -3.76481 0.551589 0
M  V30 7920 H 770.284 -3.14854 2.26912 0
M  V30 7921 H 768.385 -3.72378 -0.128608 0
M  V30 7922 H 768.498 -4.52392 1.57729 0
M  V30 7923 H 766.862 -2.43513 0.746548 0
M  V30 7924 H 767.645 -2.437 2.41796 0
M  V30 7925 N 770.09 -0.729906 -1.39679 0
M  V30 7926 C 771.315 -0.284345 -2.05442 0
M  V30 7927 C 771.74 1.07056 -1.54663 0
M  V30 7928 O 771.098 1.67732 -0.688157 0
M  V30 7929 C 771.146 -0.290089 -3.59431 0
M  V30 7930 O 770.25 0.723978 -4.05995 0
M  V30 7931 H 769.591 -0.130311 -0.651088 0
M  V30 7932 H 772.121 -0.994403 -1.78809 0
M  V30 7933 H 772.131 -0.132712 -4.07784 0
M  V30 7934 H 770.806 -1.27877 -3.95753 0
M  V30 7935 H 769.383 0.533154 -3.69069 0
M  V30 7936 N 771.568 1.50203 -0.477153 0
M  V30 7937 C 772.498 2.31517 0.303646 0
M  V30 7938 C 773.479 1.38696 0.984753 0
M  V30 7939 O 774.664 1.67615 0.980758 0
M  V30 7940 C 771.794 3.18598 1.38249 0
M  V30 7941 C 770.748 4.2002 0.822645 0
M  V30 7942 C 770.074 4.95878 2.00024 0
M  V30 7943 C 771.374 5.22023 -0.170185 0
M  V30 7944 H 773.068 2.97042 -0.375027 0
M  V30 7945 H 770.614 1.42848 -0.181802 0
M  V30 7946 H 772.567 3.74282 1.93625 0
M  V30 7947 H 771.291 2.5097 2.09002 0
M  V30 7948 H 769.95 3.65445 0.290813 0
M  V30 7949 H 769.598 4.24717 2.69489 0
M  V30 7950 H 769.298 5.64487 1.63183 0
M  V30 7951 H 770.822 5.54399 2.55878 0
M  V30 7952 H 772.236 5.72543 0.294606 0
M  V30 7953 H 770.633 5.98386 -0.453181 0
M  V30 7954 H 771.703 4.72396 -1.09408 0
M  V30 7955 N 773.046 0.209999 1.56195 0
M  V30 7956 C 773.978 -0.736967 2.17029 0
M  V30 7957 C 774.991 -1.16599 1.13616 0
M  V30 7958 O 776.18 -1.09914 1.40646 0
M  V30 7959 C 773.28 -2.00852 2.72969 0
M  V30 7960 C 772.453 -1.73691 4.01435 0
M  V30 7961 C 771.512 -2.85439 4.42053 0
M  V30 7962 O 770.538 -2.54405 5.09183 0
M  V30 7963 N 771.74 -4.14135 4.06783 0
M  V30 7964 H 774.505 -0.216656 2.98916 0
M  V30 7965 H 772.066 0.0285672 1.61875 0
M  V30 7966 H 774.058 -2.74778 2.97118 0
M  V30 7967 H 772.628 -2.43963 1.95451 0
M  V30 7968 H 771.848 -0.834676 3.85262 0
M  V30 7969 H 773.136 -1.52961 4.85263 0
M  V30 7970 H 772.534 -4.42196 3.52816 0
M  V30 7971 H 771.091 -4.84642 4.35851 0
M  V30 7972 N 774.524 -1.57472 -0.0634922 0
M  V30 7973 C 775.457 -1.99571 -1.10664 0
M  V30 7974 C 776.435 -0.874015 -1.37112 0
M  V30 7975 O 777.619 -1.13702 -1.50347 0
M  V30 7976 C 774.746 -2.3395 -2.44918 0
M  V30 7977 C 773.792 -3.56213 -2.34551 0
M  V30 7978 S 774.625 -5.06727 -1.73169 0
M  V30 7979 C 775.781 -5.44316 -3.08984 0
M  V30 7980 H 776.014 -2.87739 -0.747905 0
M  V30 7981 H 773.547 -1.5198 -0.272316 0
M  V30 7982 H 775.505 -2.54431 -3.22141 0
M  V30 7983 H 774.166 -1.46297 -2.7795 0
M  V30 7984 H 773.359 -3.77812 -3.33578 0
M  V30 7985 H 772.961 -3.35406 -1.65466 0
M  V30 7986 H 775.253 -5.42894 -4.05305 0
M  V30 7987 H 776.196 -6.4502 -2.92156 0
M  V30 7988 H 776.604 -4.71781 -3.09972 0
M  V30 7989 N 776.003 0.335068 -1.53997 0
M  V30 7990 C 776.951 1.43206 -1.83289 0
M  V30 7991 C 777.945 1.54081 -0.703953 0
M  V30 7992 O 779.151 1.56603 -0.887432 0
M  V30 7993 H 775.526 0.477655 -0.580818 0
M  V30 7994 H 777.497 1.15719 -2.75049 0
M  V30 7995 C 776.246 2.79602 -2.06683 0
M  V30 7996 H 775.569 2.72004 -2.93008 0
M  V30 7997 H 777.009 3.55459 -2.31139 0
M  V30 7998 C 775.468 3.25873 -0.854883 0
M  V30 7999 O 775.998 4.01657 -0.0584648 0
M  V30 8000 N 774.204 2.82777 -0.669729 0
M  V30 8001 H 773.751 2.21269 -1.31901 0
M  V30 8002 H 773.709 3.1409 0.13969 0
M  V30 8003 N 777.481 1.45874 0.596531 0
M  V30 8004 C 778.709 1.54013 1.38158 0
M  V30 8005 C 779.124 0.17648 1.87973 0
M  V30 8006 O 778.481 -0.823895 1.62844 0
M  V30 8007 C 778.532 2.53363 2.57855 0
M  V30 8008 O 778.253 3.8443 2.10108 0
M  V30 8009 C 779.754 2.71308 3.50581 0
M  V30 8010 H 776.974 0.521251 0.422538 0
M  V30 8011 H 779.518 1.9116 0.726493 0
M  V30 8012 H 777.673 2.19257 3.19382 0
M  V30 8013 H 778.087 4.38384 2.87958 0
M  V30 8014 H 779.561 3.44776 4.31084 0
M  V30 8015 H 780.038 1.77728 4.01633 0
M  V30 8016 H 780.644 3.06455 2.94899 0
M  V30 8017 N 778.959 -0.83999 1.33349 0
M  V30 8018 C 780.184 -1.63249 1.27924 0
M  V30 8019 C 780.609 -1.87523 -0.147193 0
M  V30 8020 O 779.967 -1.43853 -1.10345 0
M  V30 8021 C 780.015 -2.96046 2.05886 0
M  V30 8022 O 779.119 -3.87303 1.4167 0
M  V30 8023 H 778.46 -0.49715 0.440157 0
M  V30 8024 H 780.99 -1.04512 1.75893 0
M  V30 8025 H 781 -3.45752 2.16609 0
M  V30 8026 H 779.675 -2.77701 3.09605 0
M  V30 8027 H 778.252 -3.45789 1.39585 0
M  V30 8028 N 780.437 -1.16799 -1.0581 0
M  V30 8029 C 781.686 -0.94698 -1.78088 0
M  V30 8030 C 781.999 0.526016 -1.88394 0
M  V30 8031 O 783.205 0.865061 -2.5735 0
M  V30 8032 C 781.661 -1.64508 -3.20102 0
M  V30 8033 C 781.269 -3.15618 -3.17946 0
M  V30 8034 C 783.013 -1.50622 -3.96879 0
M  V30 8035 C 780.92 -3.78144 -4.5471 0
M  V30 8036 H 779.85 -0.35067 -0.667493 0
M  V30 8037 H 782.501 -1.39985 -1.18645 0
M  V30 8038 H 780.883 -1.11993 -3.79834 0
M  V30 8039 H 782.057 -3.75016 -2.67768 0
M  V30 8040 H 780.372 -3.29444 -2.54667 0
M  V30 8041 H 782.969 -1.94713 -4.97987 0
M  V30 8042 H 783.312 -0.455864 -4.13797 0
M  V30 8043 H 783.845 -2.00319 -3.43682 0
M  V30 8044 H 780.584 -4.83149 -4.42998 0
M  V30 8045 H 780.104 -3.23532 -5.05062 0
M  V30 8046 H 781.783 -3.79986 -5.2366 0
M  V30 8047 N 781.915 1.24427 -0.967243 0
M  V30 8048 C 783.161 1.93089 -0.639404 0
M  V30 8049 C 783.516 1.7422 0.816407 0
M  V30 8050 O 782.809 1.08435 1.57964 0
M  V30 8051 C 783.003 3.44568 -0.949096 0
M  V30 8052 C 782.832 3.7817 -2.43346 0
M  V30 8053 C 781.602 3.99561 -3.09321 0
M  V30 8054 C 783.8 3.84687 -3.41351 0
M  V30 8055 N 781.782 4.20259 -4.475 0
M  V30 8056 C 783.153 4.10223 -4.64884 0
M  V30 8057 C 785.208 3.67421 -3.36015 0
M  V30 8058 C 783.911 4.20286 -5.8374 0
M  V30 8059 C 785.937 3.78731 -4.54221 0
M  V30 8060 C 785.299 4.04691 -5.76545 0
M  V30 8061 H 781.398 0.728291 -0.284809 0
M  V30 8062 H 783.982 1.49941 -1.24201 0
M  V30 8063 H 782.153 3.86582 -0.375308 0
M  V30 8064 H 783.885 4.00524 -0.579876 0
M  V30 8065 H 780.64 3.95946 -2.59853 0
M  V30 8066 H 781.064 4.34588 -5.19097 0
M  V30 8067 H 785.706 3.46358 -2.42479 0
M  V30 8068 H 783.424 4.40162 -6.77704 0
M  V30 8069 H 787.01 3.66743 -4.51653 0
M  V30 8070 H 785.89 4.1324 -6.66485 0
M  V30 8071 N 783.393 0.737304 1.3929 0
M  V30 8072 C 784.623 0.296143 2.04467 0
M  V30 8073 C 785.031 -1.0748 1.55707 0
M  V30 8074 O 784.374 -1.69082 0.718123 0
M  V30 8075 C 784.436 0.222161 3.58813 0
M  V30 8076 C 784.1 1.53195 4.30558 0
M  V30 8077 C 785.097 2.47809 4.57041 0
M  V30 8078 C 782.782 1.79688 4.6906 0
M  V30 8079 C 784.776 3.67147 5.21039 0
M  V30 8080 C 782.463 2.99304 5.32785 0
M  V30 8081 C 783.461 3.92855 5.58708 0
M  V30 8082 O 783.149 5.1037 6.2111 0
M  V30 8083 H 782.881 0.126896 0.663983 0
M  V30 8084 H 785.435 1.00242 1.79278 0
M  V30 8085 H 783.665 -0.540239 3.82908 0
M  V30 8086 H 785.354 -0.187311 4.05468 0
M  V30 8087 H 786.12 2.28611 4.2774 0
M  V30 8088 H 781.999 1.07716 4.48239 0
M  V30 8089 H 785.543 4.40183 5.41188 0
M  V30 8090 H 781.44 3.18401 5.61508 0
M  V30 8091 H 782.208 5.10735 6.39603 0
M  V30 8092 N 784.871 -1.49948 0.485112 0
M  V30 8093 C 785.819 -2.30449 -0.315609 0
M  V30 8094 C 786.813 -1.38351 -0.977516 0
M  V30 8095 O 788.019 -1.55477 -0.907019 0
M  V30 8096 H 784.394 -0.742262 -0.120629 0
M  V30 8097 H 786.365 -2.95925 0.383552 0
M  V30 8098 C 785.114 -3.19283 -1.37673 0
M  V30 8099 H 784.437 -3.90067 -0.876801 0
M  V30 8100 H 785.877 -3.78579 -1.90929 0
M  V30 8101 C 784.336 -2.37817 -2.38631 0
M  V30 8102 O 784.866 -2.0711 -3.44192 0
M  V30 8103 N 783.072 -2.00135 -2.107 0
M  V30 8104 H 782.619 -2.25307 -1.24878 0
M  V30 8105 H 782.577 -1.45933 -2.7848 0
M  V30 8106 N 786.349 -0.21828 -1.56081 0
M  V30 8107 C 787.765 0.137168 -1.59009 0
M  V30 8108 C 787.965 1.59215 -1.23503 0
M  V30 8109 O 787.021 2.33178 -0.968716 0
M  V30 8110 C 788.334 -0.186162 -3.00123 0
M  V30 8111 C 789.882 -0.128135 -3.12738 0
M  V30 8112 C 790.357 -0.425094 -4.56023 0
M  V30 8113 N 791.848 -0.374547 -4.61683 0
M  V30 8114 C 792.583 -0.57786 -5.70481 0
M  V30 8115 N 792.079 -0.842771 -6.87655 0
M  V30 8116 N 793.872 -0.510521 -5.59777 0
M  V30 8117 H 786.023 -1.16746 -1.77437 0
M  V30 8118 H 788.286 -0.467706 -0.824594 0
M  V30 8119 H 787.992 -1.19589 -3.30744 0
M  V30 8120 H 787.866 0.500388 -3.73866 0
M  V30 8121 H 790.253 0.872224 -2.81915 0
M  V30 8122 H 790.334 -0.848112 -2.41331 0
M  V30 8123 H 789.978 -1.42288 -4.87562 0
M  V30 8124 H 789.908 0.316038 -5.25651 0
M  V30 8125 H 792.399 -0.177356 -3.77484 0
M  V30 8126 H 792.712 -0.986095 -7.66483 0
M  V30 8127 H 791.057 -0.879929 -6.89407 0
M  V30 8128 H 794.248 -0.303813 -4.67113 0
M  V30 8129 H 794.421 -0.672378 -6.44502 0
M  V30 8130 N 787.827 1.57504 0.0551401 0
M  V30 8131 C 789.052 1.92682 0.767352 0
M  V30 8132 C 789.477 0.81614 1.69472 0
M  V30 8133 O 788.835 -0.229989 1.79835 0
M  V30 8134 C 788.883 3.26866 1.52286 0
M  V30 8135 O 787.987 3.17274 2.63459 0
M  V30 8136 H 787.328 0.630502 0.208238 0
M  V30 8137 H 789.858 2.04592 0.0184026 0
M  V30 8138 H 789.868 3.61138 1.8985 0
M  V30 8139 H 788.543 4.07276 0.842541 0
M  V30 8140 H 787.12 2.94589 2.2863 0
M  V30 8141 N 789.305 -0.326896 1.54172 0
M  V30 8142 C 790.582 -1.08326 1.62864 0
M  V30 8143 C 790.962 -2.06018 0.46039 0
M  V30 8144 O 790.31 -2.21889 -0.545685 0
M  V30 8145 C 790.52 -1.78816 2.9971 0
M  V30 8146 C 791.868 -2.31958 3.55641 0
M  V30 8147 O 792.892 -1.88888 3.01993 0
M  V30 8148 O 791.751 -3.10801 4.49517 0
M  V30 8149 H 788.845 -0.499131 0.659392 0
M  V30 8150 H 791.391 -0.327054 1.66519 0
M  V30 8151 H 790.163 -1.07739 3.76176 0
M  V30 8152 H 789.786 -2.61255 2.99719 0
M  V30 8153 N 790.784 -1.46188 -0.588786 0
M  V30 8154 C 792.03 -1.51407 -1.34921 0
M  V30 8155 C 792.363 -0.162771 -1.93517 0
M  V30 8156 O 791.638 0.825082 -1.76132 0
M  V30 8157 C 791.921 -2.60795 -2.48311 0
M  V30 8158 C 791.774 -4.05435 -1.94789 0
M  V30 8159 C 793.093 -2.66313 -3.50379 0
M  V30 8160 H 790.212 -0.551213 -0.489217 0
M  V30 8161 H 792.854 -1.78095 -0.661993 0
M  V30 8162 H 791.004 -2.3817 -3.06932 0
M  V30 8163 H 792.676 -4.39328 -1.40672 0
M  V30 8164 H 790.919 -4.15202 -1.25659 0
M  V30 8165 H 791.59 -4.77691 -2.76613 0
M  V30 8166 H 794.066 -2.86634 -3.01629 0
M  V30 8167 H 792.942 -3.44681 -4.27184 0
M  V30 8168 H 793.203 -1.72127 -4.07216 0
M  V30 8169 N 792.262 0.832906 -1.33792 0
M  V30 8170 C 793.509 1.58853 -1.25586 0
M  V30 8171 C 793.837 1.93695 0.176807 0
M  V30 8172 O 793.092 1.59386 1.13554 0
M  V30 8173 C 793.391 2.9047 -2.08235 0
M  V30 8174 C 793.057 2.74965 -3.57358 0
M  V30 8175 C 791.719 2.70444 -3.98012 0
M  V30 8176 C 794.071 2.59347 -4.52093 0
M  V30 8177 C 791.399 2.48212 -5.31608 0
M  V30 8178 C 793.751 2.38649 -5.85858 0
M  V30 8179 C 792.415 2.32533 -6.25687 0
M  V30 8180 H 791.685 0.581285 -0.459553 0
M  V30 8181 H 794.332 0.964501 -1.65438 0
M  V30 8182 H 792.637 3.57111 -1.6118 0
M  V30 8183 H 794.334 3.48001 -1.99239 0
M  V30 8184 H 790.924 2.79319 -3.25083 0
M  V30 8185 H 795.108 2.6187 -4.2159 0
M  V30 8186 H 790.364 2.41929 -5.61498 0
M  V30 8187 H 794.538 2.25549 -6.58863 0
M  V30 8188 H 792.165 2.15067 -7.29143 0
M  V30 8189 N 793.74 1.17359 1.05189 0
M  V30 8190 C 794.65 0.904984 2.16442 0
M  V30 8191 C 795.666 -0.12686 1.73537 0
M  V30 8192 O 796.842 0.0524127 2.01332 0
M  V30 8193 C 793.907 0.422019 3.44122 0
M  V30 8194 C 792.968 1.52045 4.01473 0
M  V30 8195 C 792.201 1.06044 5.23059 0
M  V30 8196 O 792.424 -0.0854023 5.70336 0
M  V30 8197 O 791.358 1.85349 5.72651 0
M  V30 8198 H 795.184 1.8356 2.41949 0
M  V30 8199 H 792.769 0.95447 1.14936 0
M  V30 8200 H 794.651 0.160208 4.21095 0
M  V30 8201 H 793.326 -0.480444 3.20115 0
M  V30 8202 H 792.233 1.83615 3.25939 0
M  V30 8203 H 793.566 2.39863 4.29798 0
M  V30 8204 N 795.218 -1.23913 0.973828 0
M  V30 8205 C 796.181 -2.23367 0.51378 0
M  V30 8206 C 797.181 -1.55923 -0.39302 0
M  V30 8207 O 798.371 -1.73187 -0.187626 0
M  V30 8208 C 795.503 -3.39944 -0.255152 0
M  V30 8209 H 796.696 -2.65581 1.39307 0
M  V30 8210 H 794.249 -1.36632 0.759039 0
M  V30 8211 H 794.984 -3.03177 -1.15127 0
M  V30 8212 H 794.769 -3.90098 0.395673 0
M  V30 8213 H 796.259 -4.13749 -0.565842 0
M  V30 8214 N 796.696 -0.74468 -1.38897 0
M  V30 8215 C 797.942 -0.306249 -2.01081 0
M  V30 8216 C 798.297 1.09724 -1.58046 0
M  V30 8217 O 797.59 1.73923 -0.803834 0
M  V30 8218 C 797.784 -0.357302 -3.55609 0
M  V30 8219 C 797.613 -1.76421 -4.13649 0
M  V30 8220 C 796.383 -2.3787 -4.4581 0
M  V30 8221 C 798.581 -2.71942 -4.36523 0
M  V30 8222 N 796.563 -3.70614 -4.89406 0
M  V30 8223 C 797.934 -3.89437 -4.8243 0
M  V30 8224 C 799.989 -2.69579 -4.18607 0
M  V30 8225 C 798.692 -5.04917 -5.123 0
M  V30 8226 C 800.718 -3.8421 -4.49596 0
M  V30 8227 C 800.08 -5.00442 -4.95719 0
M  V30 8228 H 796.179 -0.158531 -0.765762 0
M  V30 8229 H 798.763 -0.972726 -1.6866 0
M  V30 8230 H 796.934 0.278865 -3.87398 0
M  V30 8231 H 798.666 0.100599 -4.04575 0
M  V30 8232 H 795.421 -1.8971 -4.33943 0
M  V30 8233 H 795.845 -4.38791 -5.1555 0
M  V30 8234 H 800.487 -1.80905 -3.82143 0
M  V30 8235 H 798.205 -5.94213 -5.47665 0
M  V30 8236 H 801.791 -3.83691 -4.37347 0
M  V30 8237 H 800.671 -5.87671 -5.19242 0
M  V30 8238 N 798.174 1.49689 -0.493057 0
M  V30 8239 C 799.59 1.58907 -0.148526 0
M  V30 8240 C 799.79 1.4991 1.34645 0
M  V30 8241 O 798.846 1.36893 2.12171 0
M  V30 8242 C 800.159 2.91996 -0.718265 0
M  V30 8243 C 801.707 3.05443 -0.683658 0
M  V30 8244 C 802.182 4.41138 -1.23132 0
M  V30 8245 N 803.673 4.47608 -1.19167 0
M  V30 8246 C 804.408 5.51038 -1.5857 0
M  V30 8247 N 803.904 6.61612 -2.05528 0
M  V30 8248 N 805.697 5.41706 -1.50036 0
M  V30 8249 H 797.848 1.5378 -1.46511 0
M  V30 8250 H 800.111 0.727996 -0.607228 0
M  V30 8251 H 799.817 3.04123 -1.7664 0
M  V30 8252 H 799.691 3.76798 -0.17419 0
M  V30 8253 H 802.078 2.92949 0.355626 0
M  V30 8254 H 802.159 2.22344 -1.26479 0
M  V30 8255 H 801.803 4.54382 -2.26935 0
M  V30 8256 H 801.733 5.22864 -0.626201 0
M  V30 8257 H 804.224 3.68274 -0.847524 0
M  V30 8258 H 804.537 7.36622 -2.33685 0
M  V30 8259 H 802.882 6.62674 -2.09497 0
M  V30 8260 H 806.073 4.54212 -1.13176 0
M  V30 8261 H 806.246 6.22188 -1.81068 0
M  V30 8262 N 799.652 0.226554 1.55963 0
M  V30 8263 C 800.582 -0.676079 2.23498 0
M  V30 8264 C 801.563 -1.19718 1.20837 0
M  V30 8265 O 802.748 -1.24027 1.49436 0
M  V30 8266 C 799.878 -1.88217 2.91876 0
M  V30 8267 C 798.832 -1.4947 4.01052 0
M  V30 8268 C 798.158 -2.77997 4.56751 0
M  V30 8269 C 799.458 -0.680951 5.17842 0
M  V30 8270 H 801.152 -0.112989 2.99187 0
M  V30 8271 H 798.698 -0.0529046 1.43903 0
M  V30 8272 H 800.651 -2.51911 3.37815 0
M  V30 8273 H 799.375 -2.47031 2.13643 0
M  V30 8274 H 798.034 -0.881199 3.55852 0
M  V30 8275 H 797.682 -3.34966 3.75243 0
M  V30 8276 H 797.382 -2.52803 5.30438 0
M  V30 8277 H 798.906 -3.42625 5.05411 0
M  V30 8278 H 800.32 -1.22171 5.60131 0
M  V30 8279 H 798.717 -0.525898 5.97791 0
M  V30 8280 H 799.787 0.311346 4.83899 0
M  V30 8281 N 801.13 -1.57531 -0.0467866 0
M  V30 8282 C 802.06 -2.08425 -1.05268 0
M  V30 8283 C 803.041 -0.982941 -1.38825 0
M  V30 8284 O 804.226 -1.25716 -1.48018 0
M  V30 8285 C 801.356 -2.54897 -2.35891 0
M  V30 8286 C 800.31 -3.69132 -2.16623 0
M  V30 8287 C 799.636 -4.01747 -3.52851 0
M  V30 8288 C 800.936 -4.98243 -1.56689 0
M  V30 8289 H 802.63 -2.92716 -0.62908 0
M  V30 8290 H 800.176 -1.40816 -0.301156 0
M  V30 8291 H 802.129 -2.8912 -3.06574 0
M  V30 8292 H 800.853 -1.67666 -2.80278 0
M  V30 8293 H 799.512 -3.35231 -1.48377 0
M  V30 8294 H 799.16 -3.11608 -3.94853 0
M  V30 8295 H 798.86 -4.78681 -3.4079 0
M  V30 8296 H 800.384 -4.38487 -4.24925 0
M  V30 8297 H 801.798 -5.30535 -2.17268 0
M  V30 8298 H 800.195 -5.79669 -1.55255 0
M  V30 8299 H 801.265 -4.81986 -0.530827 0
M  V30 8300 N 802.608 0.318715 -1.54344 0
M  V30 8301 C 803.538 1.39751 -1.87061 0
M  V30 8302 C 804.519 1.53741 -0.727848 0
M  V30 8303 O 805.704 1.67541 -0.982016 0
M  V30 8304 C 802.834 2.76446 -2.10226 0
M  V30 8305 C 801.788 2.77239 -3.26071 0
M  V30 8306 C 801.114 4.17056 -3.34617 0
M  V30 8307 C 802.414 2.40555 -4.63606 0
M  V30 8308 H 804.108 1.12619 -2.77412 0
M  V30 8309 H 801.654 0.540318 -1.33479 0
M  V30 8310 H 803.607 3.51985 -2.31699 0
M  V30 8311 H 802.331 3.05066 -1.16629 0
M  V30 8312 H 800.99 2.04155 -3.04493 0
M  V30 8313 H 800.638 4.42824 -2.3857 0
M  V30 8314 H 800.338 4.18492 -4.12478 0
M  V30 8315 H 801.862 4.94401 -3.5833 0
M  V30 8316 H 803.276 3.05808 -4.84927 0
M  V30 8317 H 801.673 2.53234 -5.44052 0
M  V30 8318 H 802.743 1.35698 -4.65526 0
M  V30 8319 N 804.086 1.46499 0.581025 0
M  V30 8320 C 805.314 1.5547 1.36517 0
M  V30 8321 C 805.729 0.196407 1.87776 0
M  V30 8322 O 805.086 -0.806577 1.63709 0
M  V30 8323 C 805.137 2.56084 2.55154 0
M  V30 8324 O 804.858 3.86637 2.06018 0
M  V30 8325 C 806.359 2.75011 3.47683 0
M  V30 8326 H 803.579 0.525703 0.416986 0
M  V30 8327 H 806.123 1.9192 0.706177 0
M  V30 8328 H 804.278 2.22633 3.17039 0
M  V30 8329 H 804.692 4.41413 2.83292 0
M  V30 8330 H 806.166 3.49329 4.27403 0
M  V30 8331 H 806.643 1.81978 3.99726 0
M  V30 8332 H 807.249 3.09565 2.91632 0
M  V30 8333 N 805.565 -0.825799 1.34232 0
M  V30 8334 C 806.79 -1.61883 1.29648 0
M  V30 8335 C 807.215 -1.87669 -0.127295 0
M  V30 8336 O 806.573 -1.45016 -1.08813 0
M  V30 8337 C 806.621 -2.93846 2.09014 0
M  V30 8338 O 805.725 -3.85778 1.4577 0
M  V30 8339 H 805.066 -0.492454 0.445405 0
M  V30 8340 H 807.596 -1.02641 1.76992 0
M  V30 8341 H 807.606 -3.43435 2.20264 0
M  V30 8342 H 806.281 -2.74401 3.12533 0
M  V30 8343 H 804.858 -3.4429 1.43245 0
M  V30 8344 N 807.043 -1.17915 -1.04565 0
M  V30 8345 C 808.006 -0.903787 -2.10628 0
M  V30 8346 C 809.006 0.10873 -1.60432 0
M  V30 8347 O 810.196 -0.124152 -1.73757 0
M  V30 8348 C 807.328 -0.355017 -3.39046 0
M  V30 8349 H 808.521 -1.84425 -2.3649 0
M  V30 8350 H 806.074 -0.990477 -1.2091 0
M  V30 8351 H 806.809 0.592297 -3.18845 0
M  V30 8352 H 806.594 -1.08484 -3.76794 0
M  V30 8353 H 808.084 -0.180891 -4.17208 0
M  V30 8354 N 808.521 1.23394 -0.980386 0
M  V30 8355 C 809.932 1.73631 -0.686239 0
M  V30 8356 C 810.283 1.79259 0.797541 0
M  V30 8357 O 809.408 1.43046 1.62379 0
M  V30 8358 C 810.003 3.15332 -1.239 0
M  V30 8359 C 808.562 3.63024 -0.994494 0
M  V30 8360 C 807.709 2.41279 -1.36673 0
M  V30 8361 H 810.66 1.08918 -1.15423 0
M  V30 8362 H 810.681 3.75556 -0.611414 0
M  V30 8363 H 810.193 3.11204 -2.31892 0
M  V30 8364 H 808.294 3.72535 0.0693492 0
M  V30 8365 H 808.407 4.49825 -1.64906 0
M  V30 8366 H 806.771 2.42295 -0.785195 0
M  V30 8367 H 807.554 2.39822 -2.45642 0
M  V30 8368 N 809.999 0.752036 1.385 0
M  V30 8369 C 811.224 0.316993 2.04963 0
M  V30 8370 C 811.649 -1.04582 1.56346 0
M  V30 8371 O 811.007 -1.66616 0.714755 0
M  V30 8372 C 811.055 0.347235 3.58924 0
M  V30 8373 O 810.159 -0.659296 4.07096 0
M  V30 8374 H 809.5 0.140652 0.648932 0
M  V30 8375 H 812.03 1.02272 1.77205 0
M  V30 8376 H 812.04 0.19757 4.07521 0
M  V30 8377 H 810.715 1.34157 3.93668 0
M  V30 8378 H 809.292 -0.474371 3.6987 0
M  V30 8379 N 811.477 -1.49425 0.500989 0
M  V30 8380 C 812.407 -2.31971 -0.266775 0
M  V30 8381 C 813.388 -1.40245 -0.962563 0
M  V30 8382 O 814.573 -1.69154 -0.953968 0
M  V30 8383 C 811.703 -3.20757 -1.33163 0
M  V30 8384 C 810.657 -4.21275 -0.75572 0
M  V30 8385 C 809.983 -4.98997 -1.92109 0
M  V30 8386 C 811.283 -5.21686 0.253213 0
M  V30 8387 H 812.977 -2.96408 0.422237 0
M  V30 8388 H 810.523 -1.4254 0.204505 0
M  V30 8389 H 812.476 -3.77315 -1.87646 0
M  V30 8390 H 811.2 -2.54263 -2.04983 0
M  V30 8391 H 809.859 -3.65861 -0.232637 0
M  V30 8392 H 809.507 -4.28951 -2.62698 0
M  V30 8393 H 809.207 -5.67011 -1.54182 0
M  V30 8394 H 810.731 -5.584 -2.47026 0
M  V30 8395 H 812.145 -5.72939 -0.203483 0
M  V30 8396 H 810.542 -5.9759 0.548322 0
M  V30 8397 H 811.612 -4.70596 1.16909 0
M  V30 8398 N 812.955 -0.234822 -1.55841 0
M  V30 8399 C 813.918 0.656378 -2.196 0
M  V30 8400 C 814.918 1.11179 -1.16171 0
M  V30 8401 O 816.108 1.01845 -1.41326 0
M  V30 8402 C 813.24 1.90072 -2.82993 0
M  V30 8403 H 814.433 0.100281 -2.99732 0
M  V30 8404 H 811.986 0.0147613 -1.56293 0
M  V30 8405 H 812.721 2.49836 -2.06767 0
M  V30 8406 H 812.506 1.5825 -3.58747 0
M  V30 8407 H 813.996 2.53538 -3.31826 0
M  V30 8408 N 814.433 1.57553 0.0384317 0
M  V30 8409 C 815.661 1.93093 0.743141 0
M  V30 8410 C 816.076 0.833787 1.69391 0
M  V30 8411 O 815.433 -0.190532 1.81503 0
M  V30 8412 C 815.484 3.28533 1.50826 0
M  V30 8413 O 815.205 4.34032 0.595665 0
M  V30 8414 C 816.706 3.78297 2.31098 0
M  V30 8415 H 813.926 0.637486 0.20941 0
M  V30 8416 H 816.47 2.045 -0.00125154 0
M  V30 8417 H 814.625 3.18552 2.20462 0
M  V30 8418 H 815.039 5.12155 1.13124 0
M  V30 8419 H 816.513 4.75602 2.80191 0
M  V30 8420 H 816.99 3.09008 3.12107 0
M  V30 8421 H 817.596 3.91331 1.66555 0
M  V30 8422 N 815.911 -0.310526 1.54511 0
M  V30 8423 C 817.136 -1.07046 1.7764 0
M  V30 8424 C 817.561 -1.80488 0.529696 0
M  V30 8425 O 816.919 -1.73702 -0.519361 0
M  V30 8426 C 816.967 -2.03411 2.97752 0
M  V30 8427 O 816.071 -3.11545 2.7021 0
M  V30 8428 H 815.412 -0.307994 0.588248 0
M  V30 8429 H 817.942 -0.350848 2.01569 0
M  V30 8430 H 817.952 -2.46048 3.2546 0
M  V30 8431 H 816.627 -1.49361 3.88155 0
M  V30 8432 H 815.204 -2.7349 2.53491 0
M  V30 8433 N 817.389 -1.46805 -0.573248 0
M  V30 8434 C 818.8 -1.46655 -1.15539 0
M  V30 8435 C 819.151 -0.2125 -1.95046 0
M  V30 8436 O 818.276 0.683759 -2.05314 0
M  V30 8437 C 818.871 -2.65711 -2.10198 0
M  V30 8438 C 817.43 -2.68572 -2.63716 0
M  V30 8439 C 816.577 -2.39498 -1.39772 0
M  V30 8440 H 819.528 -1.54547 -0.36068 0
M  V30 8441 H 819.549 -2.41768 -2.93817 0
M  V30 8442 H 819.061 -3.56967 -1.52303 0
M  V30 8443 H 817.162 -1.81414 -3.25453 0
M  V30 8444 H 817.275 -3.68809 -3.05805 0
M  V30 8445 H 815.639 -1.89749 -1.69904 0
M  V30 8446 H 816.422 -3.32942 -0.836943 0
M  V30 8447 N 818.867 0.818669 -1.34668 0
M  V30 8448 C 819.83 1.9114 -1.26483 0
M  V30 8449 C 820.83 1.598 -0.179044 0
M  V30 8450 O 822.02 1.6876 -0.431952 0
M  V30 8451 C 819.152 3.27285 -0.95381 0
M  V30 8452 H 820.345 1.9982 -2.23634 0
M  V30 8453 H 817.898 1.01314 -1.19018 0
M  V30 8454 H 818.633 3.24297 0.0143428 0
M  V30 8455 H 818.418 3.51416 -1.73924 0
M  V30 8456 H 819.908 4.07299 -0.921827 0
M  V30 8457 N 820.346 1.18468 1.03938 0
M  V30 8458 C 821.593 0.980833 1.77161 0
M  V30 8459 C 821.921 -0.489425 1.88242 0
M  V30 8460 O 821.176 -1.37961 1.388 0
M  V30 8461 C 821.475 1.58229 3.20466 0
M  V30 8462 C 821.141 3.07889 3.29416 0
M  V30 8463 C 819.803 3.48737 3.31566 0
M  V30 8464 C 822.155 4.03903 3.29411 0
M  V30 8465 C 819.483 4.84171 3.31355 0
M  V30 8466 C 821.835 5.39253 3.3074 0
M  V30 8467 C 820.499 5.79547 3.31182 0
M  V30 8468 H 819.769 0.358912 0.648277 0
M  V30 8469 H 822.416 1.47552 1.22069 0
M  V30 8470 H 820.721 1.00964 3.78568 0
M  V30 8471 H 822.418 1.39998 3.75768 0
M  V30 8472 H 819.008 2.75335 3.28464 0
M  V30 8473 H 823.192 3.73395 3.2694 0
M  V30 8474 H 818.448 5.14685 3.30015 0
M  V30 8475 H 822.622 6.13417 3.29686 0
M  V30 8476 H 820.249 6.84466 3.30772 0
M  V30 8477 N 821.824 -1.22873 0.986916 0
M  V30 8478 C 823.24 -1.43594 0.696633 0
M  V30 8479 C 823.44 -1.87622 -0.734869 0
M  V30 8480 O 822.496 -2.02633 -1.50652 0
M  V30 8481 C 823.809 -2.48231 1.69711 0
M  V30 8482 C 825.357 -2.62037 1.71188 0
M  V30 8483 C 825.832 -3.6989 2.70084 0
M  V30 8484 N 827.323 -3.77341 2.68641 0
M  V30 8485 C 828.058 -4.6037 3.41829 0
M  V30 8486 N 827.554 -5.47438 4.24598 0
M  V30 8487 N 829.347 -4.54626 3.30563 0
M  V30 8488 H 821.498 -0.925982 1.91153 0
M  V30 8489 H 823.761 -0.46866 0.824052 0
M  V30 8490 H 823.467 -2.22812 2.72117 0
M  V30 8491 H 823.341 -3.46731 1.48516 0
M  V30 8492 H 825.728 -2.86803 0.694837 0
M  V30 8493 H 825.809 -1.63831 1.96451 0
M  V30 8494 H 825.453 -3.45872 3.71934 0
M  V30 8495 H 825.383 -4.67652 2.42093 0
M  V30 8496 H 827.874 -3.15124 2.08578 0
M  V30 8497 H 828.187 -6.078 4.77283 0
M  V30 8498 H 826.532 -5.4704 4.28687 0
M  V30 8499 H 829.723 -3.85627 2.65347 0
M  V30 8500 H 829.896 -5.19103 3.8786 0
M  V30 8501 N 823.302 -0.75937 -1.38099 0
M  V30 8502 C 824.532 -0.328634 -2.0397 0
M  V30 8503 C 824.94 1.04989 -1.57398 0
M  V30 8504 O 824.283 1.67918 -0.744932 0
M  V30 8505 C 824.345 -0.279216 -3.58414 0
M  V30 8506 C 824.009 -1.60025 -4.28067 0
M  V30 8507 C 825.006 -2.55048 -4.53041 0
M  V30 8508 C 822.691 -1.87128 -4.66142 0
M  V30 8509 C 824.685 -3.7539 -5.15132 0
M  V30 8510 C 822.372 -3.07742 -5.27956 0
M  V30 8511 C 823.37 -4.01694 -5.52387 0
M  V30 8512 O 823.058 -5.20186 -6.12912 0
M  V30 8513 H 822.79 -0.137443 -0.66188 0
M  V30 8514 H 825.344 -1.03082 -1.77661 0
M  V30 8515 H 823.574 0.479254 -3.83719 0
M  V30 8516 H 825.263 0.122781 -4.05714 0
M  V30 8517 H 826.029 -2.35387 -4.24049 0
M  V30 8518 H 821.908 -1.14833 -4.46469 0
M  V30 8519 H 825.452 -4.48737 -5.34117 0
M  V30 8520 H 821.349 -3.27294 -5.56371 0
M  V30 8521 H 822.117 -5.20846 -6.31397 0
M  V30 8522 N 824.78 1.49157 -0.508906 0
M  V30 8523 C 826.057 1.95363 0.0961913 0
M  V30 8524 C 826.437 1.45064 1.53362 0
M  V30 8525 O 825.785 0.667835 2.18523 0
M  V30 8526 C 825.995 3.49 0.000688881 0
M  V30 8527 C 827.343 4.24257 0.170632 0
M  V30 8528 O 828.367 3.5612 0.0754994 0
M  V30 8529 O 827.226 5.45267 0.366957 0
M  V30 8530 H 824.32 0.821984 0.0909489 0
M  V30 8531 H 826.866 1.59769 -0.572007 0
M  V30 8532 H 825.638 3.78269 -1.00143 0
M  V30 8533 H 825.261 3.91233 0.708682 0
M  V30 8534 N 826.258 0.243083 1.55714 0
M  V30 8535 C 827.188 -0.652336 2.24203 0
M  V30 8536 C 828.169 -1.1843 1.221 0
M  V30 8537 O 829.354 -1.22435 1.50743 0
M  V30 8538 C 826.484 -1.85111 2.93856 0
M  V30 8539 C 825.438 -1.45208 4.02615 0
M  V30 8540 C 824.764 -2.73137 4.59674 0
M  V30 8541 C 826.064 -0.625988 5.18535 0
M  V30 8542 H 827.758 -0.0812504 2.9929 0
M  V30 8543 H 825.304 -0.0376388 1.43951 0
M  V30 8544 H 827.257 -2.48314 3.40468 0
M  V30 8545 H 825.981 -2.44751 2.16251 0
M  V30 8546 H 824.64 -0.843406 3.56766 0
M  V30 8547 H 824.288 -3.30967 3.78774 0
M  V30 8548 H 823.988 -2.47163 5.33089 0
M  V30 8549 H 825.512 -3.37245 5.09017 0
M  V30 8550 H 826.926 -1.16223 5.61396 0
M  V30 8551 H 825.323 -0.462465 5.98315 0
M  V30 8552 H 826.393 0.362652 4.83542 0
M  V30 8553 N 827.736 -1.57571 -0.0300757 0
M  V30 8554 C 828.666 -2.0953 -1.03051 0
M  V30 8555 C 829.647 -0.99761 -1.37774 0
M  V30 8556 O 830.832 -1.27279 -1.46676 0
M  V30 8557 C 827.962 -2.57385 -2.33174 0
M  V30 8558 C 826.916 -3.71409 -2.12696 0
M  V30 8559 C 826.242 -4.05467 -3.4857 0
M  V30 8560 C 827.542 -4.99877 -1.51396 0
M  V30 8561 H 829.236 -2.93367 -0.597999 0
M  V30 8562 H 826.782 -1.41127 -0.286203 0
M  V30 8563 H 828.735 -2.92355 -3.03491 0
M  V30 8564 H 827.459 -1.70629 -2.78484 0
M  V30 8565 H 826.118 -3.36786 -1.44813 0
M  V30 8566 H 825.766 -3.15779 -3.91526 0
M  V30 8567 H 825.466 -4.82269 -3.35694 0
M  V30 8568 H 826.99 -4.4297 -4.2025 0
M  V30 8569 H 828.404 -5.3281 -2.11629 0
M  V30 8570 H 826.801 -5.81283 -1.49098 0
M  V30 8571 H 827.871 -4.82522 -0.479676 0
M  V30 8572 N 829.214 0.302327 -1.54673 0
M  V30 8573 C 830.491 1.05721 -1.64567 0
M  V30 8574 C 830.871 2.0526 -0.493108 0
M  V30 8575 O 830.219 2.22729 0.510315 0
M  V30 8576 C 830.429 1.74025 -3.02517 0
M  V30 8577 C 831.777 2.26271 -3.59286 0
M  V30 8578 O 832.801 1.8406 -3.0496 0
M  V30 8579 O 831.66 3.0361 -4.54404 0
M  V30 8580 H 828.754 0.488577 -0.667249 0
M  V30 8581 H 831.3 0.300521 -1.67018 0
M  V30 8582 H 830.072 1.0174 -3.77842 0
M  V30 8583 H 829.695 2.56454 -3.03838 0
M  V30 8584 N 830.692 1.47107 0.565454 0
M  V30 8585 C 831.622 1.61846 1.68309 0
M  V30 8586 C 832.603 0.468159 1.63531 0
M  V30 8587 O 833.788 0.696504 1.8128 0
M  V30 8588 C 830.918 1.62474 3.06952 0
M  V30 8589 C 829.872 2.76649 3.26572 0
M  V30 8590 C 829.198 2.62345 4.65917 0
M  V30 8591 C 830.498 4.18319 3.12741 0
M  V30 8592 H 832.192 2.55407 1.5623 0
M  V30 8593 H 829.738 1.22916 0.750179 0
M  V30 8594 H 831.691 1.71378 3.84977 0
M  V30 8595 H 830.415 0.654692 3.19971 0
M  V30 8596 H 829.074 2.67242 2.50952 0
M  V30 8597 H 828.722 1.63386 4.75725 0
M  V30 8598 H 828.422 3.38936 4.79996 0
M  V30 8599 H 829.946 2.73165 5.46089 0
M  V30 8600 H 831.36 4.28745 3.80593 0
M  V30 8601 H 829.757 4.95632 3.38333 0
M  V30 8602 H 830.827 4.37263 2.09592 0
M  V30 8603 N 832.17 -0.811516 1.35101 0
M  V30 8604 C 833.398 -1.59981 1.31201 0
M  V30 8605 C 833.813 -1.8847 -0.111552 0
M  V30 8606 O 833.17 -1.48414 -1.06205 0
M  V30 8607 C 833.221 -2.934 2.11184 0
M  V30 8608 O 832.942 -2.66148 3.4799 0
M  V30 8609 C 834.443 -3.87776 2.14813 0
M  V30 8610 H 831.663 -0.496921 0.450899 0
M  V30 8611 H 834.207 -1.00886 1.77883 0
M  V30 8612 H 832.362 -3.49022 1.68115 0
M  V30 8613 H 832.776 -3.51301 3.89471 0
M  V30 8614 H 834.25 -4.7852 2.75178 0
M  V30 8615 H 834.727 -4.23997 1.14556 0
M  V30 8616 H 835.333 -3.3809 2.58022 0
M  V30 8617 N 833.648 -1.19017 -1.03309 0
M  V30 8618 C 835.064 -0.941483 -1.28873 0
M  V30 8619 C 835.264 0.388587 -1.97718 0
M  V30 8620 O 834.32 1.12111 -2.26246 0
M  V30 8621 C 835.633 -2.11249 -2.13996 0
M  V30 8622 C 837.181 -2.15164 -2.27318 0
M  V30 8623 C 837.656 -3.31704 -3.15811 0
M  V30 8624 N 839.147 -3.31613 -3.23399 0
M  V30 8625 C 839.882 -4.18431 -3.9205 0
M  V30 8626 N 839.378 -5.15397 -4.62966 0
M  V30 8627 N 841.171 -4.06321 -3.88406 0
M  V30 8628 H 833.322 -2.04599 -0.570343 0
M  V30 8629 H 835.585 -0.894406 -0.314232 0
M  V30 8630 H 835.291 -3.07482 -1.70727 0
M  V30 8631 H 835.165 -2.07955 -3.14697 0
M  V30 8632 H 837.552 -1.19504 -2.6982 0
M  V30 8633 H 837.633 -2.22513 -1.26182 0
M  V30 8634 H 837.277 -4.2764 -2.74019 0
M  V30 8635 H 837.207 -3.21592 -4.16997 0
M  V30 8636 H 839.698 -2.6142 -2.72888 0
M  V30 8637 H 840.011 -5.78 -5.12968 0
M  V30 8638 H 838.356 -5.19349 -4.61846 0
M  V30 8639 H 841.547 -3.29849 -3.3214 0
M  V30 8640 H 841.72 -4.74196 -4.41635 0
M  V30 8641 N 835.127 1.22348 -0.993418 0
M  V30 8642 C 836.059 2.23626 -0.502404 0
M  V30 8643 C 837.072 1.57739 0.402784 0
M  V30 8644 O 838.261 1.77321 0.204835 0
M  V30 8645 C 835.361 3.37647 0.291118 0
M  V30 8646 C 834.534 4.33121 -0.610332 0
M  V30 8647 C 833.593 5.26035 0.131572 0
M  V30 8648 O 832.619 5.67145 -0.483199 0
M  V30 8649 N 833.821 5.63023 1.41371 0
M  V30 8650 H 836.586 2.66385 -1.37329 0
M  V30 8651 H 834.147 1.36653 -0.868196 0
M  V30 8652 H 836.139 3.96792 0.796107 0
M  V30 8653 H 834.709 2.93967 1.0631 0
M  V30 8654 H 833.929 3.72287 -1.29598 0
M  V30 8655 H 835.217 4.93853 -1.22422 0
M  V30 8656 H 834.615 5.31596 1.93449 0
M  V30 8657 H 833.172 6.24582 1.86388 0
M  V30 8658 N 836.605 0.766683 1.37694 0
M  V30 8659 C 837.568 0.155849 2.2867 0
M  V30 8660 C 838.568 -0.633509 1.47795 0
M  V30 8661 O 839.758 -0.457844 1.68076 0
M  V30 8662 C 836.89 -0.786965 3.31692 0
M  V30 8663 H 838.083 0.957748 2.84196 0
M  V30 8664 H 835.636 0.534554 1.46875 0
M  V30 8665 H 836.371 -1.61406 2.8128 0
M  V30 8666 H 836.156 -0.223182 3.91464 0
M  V30 8667 H 837.646 -1.20994 3.99688 0
M  V30 8668 N 838.083 -1.48885 0.516809 0
M  V30 8669 C 839.329 -2.02788 -0.0220928 0
M  V30 8670 C 839.662 -1.39433 -1.35175 0
M  V30 8671 O 838.937 -0.535459 -1.86984 0
M  V30 8672 C 839.22 -3.59753 -0.158012 0
M  V30 8673 C 839.073 -4.33611 1.19588 0
M  V30 8674 C 840.392 -4.30984 -0.891133 0
M  V30 8675 H 837.511 -0.736971 -0.00655488 0
M  V30 8676 H 840.153 -1.77746 0.671287 0
M  V30 8677 H 838.303 -3.8122 -0.748568 0
M  V30 8678 H 839.975 -4.23598 1.82653 0
M  V30 8679 H 838.218 -3.95547 1.78116 0
M  V30 8680 H 838.889 -5.41846 1.05391 0
M  V30 8681 H 841.365 -4.14267 -0.39012 0
M  V30 8682 H 840.241 -5.40527 -0.955107 0
M  V30 8683 H 840.502 -3.97336 -1.93847 0
M  V30 8684 N 839.561 -0.251338 -1.55583 0
M  V30 8685 C 840.493 0.679167 -2.18906 0
M  V30 8686 C 841.506 1.13545 -1.16667 0
M  V30 8687 O 842.695 1.06146 -1.4351 0
M  V30 8688 C 839.795 1.93544 -2.78198 0
M  V30 8689 C 838.968 1.62987 -4.05899 0
M  V30 8690 C 838.027 2.73618 -4.49466 0
M  V30 8691 O 837.053 2.40815 -5.15749 0
M  V30 8692 N 838.255 4.03204 -4.1762 0
M  V30 8693 H 841.02 0.137328 -2.99385 0
M  V30 8694 H 838.581 -0.0714754 -1.61742 0
M  V30 8695 H 840.573 2.66804 -3.04299 0
M  V30 8696 H 839.143 2.38695 -2.0185 0
M  V30 8697 H 838.363 0.732237 -3.8734 0
M  V30 8698 H 839.651 1.40041 -4.89148 0
M  V30 8699 H 839.049 4.32686 -3.64416 0
M  V30 8700 H 837.606 4.72916 -4.48547 0
M  V30 8701 N 841.039 1.57585 0.0217189 0
M  V30 8702 C 841.949 2.10444 1.03684 0
M  V30 8703 C 842.965 1.04472 1.39146 0
M  V30 8704 O 844.141 1.36249 1.48317 0
M  V30 8705 C 841.206 2.5794 2.31664 0
M  V30 8706 C 840.267 3.78425 2.02714 0
M  V30 8707 C 839.5 4.23646 3.24592 0
M  V30 8708 O 839.723 3.6834 4.35525 0
M  V30 8709 O 838.657 5.16013 3.09862 0
M  V30 8710 H 842.483 2.97354 0.617584 0
M  V30 8711 H 840.068 1.47473 0.239174 0
M  V30 8712 H 841.95 2.88785 3.06889 0
M  V30 8713 H 840.625 1.74138 2.7287 0
M  V30 8714 H 839.532 3.52587 1.25033 0
M  V30 8715 H 840.865 4.63234 1.66359 0
M  V30 8716 N 842.517 -0.29412 1.54831 0
M  V30 8717 C 843.447 -1.36757 1.89261 0
M  V30 8718 C 844.428 -1.52564 0.752214 0
M  V30 8719 O 845.613 -1.65958 1.00855 0
M  V30 8720 C 842.743 -2.73066 2.14597 0
M  V30 8721 C 841.697 -2.72017 3.3044 0
M  V30 8722 C 841.023 -4.11679 3.4121 0
M  V30 8723 C 842.323 -2.33149 4.67375 0
M  V30 8724 H 844.017 -1.08191 2.79169 0
M  V30 8725 H 841.563 -0.519014 1.34321 0
M  V30 8726 H 843.516 -3.48255 2.37269 0
M  V30 8727 H 842.24 -3.03172 1.21467 0
M  V30 8728 H 840.899 -1.99285 3.07703 0
M  V30 8729 H 840.547 -4.38973 2.45584 0
M  V30 8730 H 840.247 -4.11877 4.19084 0
M  V30 8731 H 841.771 -4.88637 3.6615 0
M  V30 8732 H 843.185 -2.98054 4.89731 0
M  V30 8733 H 841.582 -2.44546 5.48012 0
M  V30 8734 H 842.652 -1.28275 4.67626 0
M  V30 8735 N 843.995 -1.47404 -0.557645 0
M  V30 8736 C 845.241 -1.54235 -1.31679 0
M  V30 8737 C 845.574 -0.203782 -1.93128 0
M  V30 8738 O 844.849 0.787536 -1.77843 0
M  V30 8739 C 845.132 -2.66003 -2.42723 0
M  V30 8740 C 844.985 -4.09475 -1.86145 0
M  V30 8741 C 846.304 -2.73685 -3.44652 0
M  V30 8742 H 843.423 -0.561466 -0.477415 0
M  V30 8743 H 846.065 -1.79459 -0.624067 0
M  V30 8744 H 844.215 -2.44627 -3.01811 0
M  V30 8745 H 845.887 -4.42213 -1.31321 0
M  V30 8746 H 844.13 -4.17774 -1.16823 0
M  V30 8747 H 844.801 -4.83451 -2.66418 0
M  V30 8748 H 847.277 -2.92968 -2.95481 0
M  V30 8749 H 846.153 -3.53665 -4.19777 0
M  V30 8750 H 846.414 -1.80726 -4.03473 0
M  V30 8751 N 845.473 0.80434 -1.35529 0
M  V30 8752 C 846.698 1.598 -1.32207 0
M  V30 8753 C 847.123 1.87848 0.0974226 0
M  V30 8754 O 846.481 1.46728 1.06492 0
M  V30 8755 C 846.529 2.90483 -2.13663 0
M  V30 8756 O 845.633 3.83411 -1.51888 0
M  V30 8757 H 844.974 0.485305 -0.453183 0
M  V30 8758 H 847.504 0.998119 -1.78602 0
M  V30 8759 H 847.514 3.39888 -2.257 0
M  V30 8760 H 846.189 2.69395 -3.16859 0
M  V30 8761 H 844.766 3.41967 -1.48704 0
M  V30 8762 N 846.951 1.19563 1.02676 0
M  V30 8763 C 847.881 0.959024 2.12897 0
M  V30 8764 C 848.862 -0.108382 1.69754 0
M  V30 8765 O 850.047 0.0470698 1.94143 0
M  V30 8766 C 847.177 0.499211 3.43693 0
M  V30 8767 C 846.131 1.5087 4.00528 0
M  V30 8768 C 845.457 0.905884 5.2697 0
M  V30 8769 C 846.757 2.88954 4.3509 0
M  V30 8770 H 848.451 1.88084 2.32948 0
M  V30 8771 H 845.997 0.905731 1.11949 0
M  V30 8772 H 847.95 0.320965 4.20176 0
M  V30 8773 H 846.674 -0.458205 3.2337 0
M  V30 8774 H 845.333 1.67413 3.26142 0
M  V30 8775 H 844.981 -0.0591506 5.02965 0
M  V30 8776 H 844.681 1.58 5.65959 0
M  V30 8777 H 846.205 0.73848 6.06118 0
M  V30 8778 H 847.619 2.75981 5.02501 0
M  V30 8779 H 846.016 3.53177 4.85166 0
M  V30 8780 H 847.086 3.41447 3.44299 0
M  V30 8781 N 848.429 -1.21819 0.999893 0
M  V30 8782 C 849.659 -1.94475 0.697346 0
M  V30 8783 C 850.067 -1.73991 -0.743228 0
M  V30 8784 O 849.41 -1.04042 -1.51397 0
M  V30 8785 C 849.472 -3.47204 0.932181 0
M  V30 8786 C 849.136 -3.91432 2.3586 0
M  V30 8787 C 850.133 -3.98545 3.33853 0
M  V30 8788 C 847.818 -4.23888 2.69489 0
M  V30 8789 C 849.812 -4.37499 4.63545 0
M  V30 8790 C 847.499 -4.62519 3.99399 0
M  V30 8791 C 848.497 -4.69294 4.96238 0
M  V30 8792 O 848.185 -5.07048 6.23825 0
M  V30 8793 H 847.917 -0.625419 0.256567 0
M  V30 8794 H 850.471 -1.55728 1.33933 0
M  V30 8795 H 848.701 -3.85997 0.233025 0
M  V30 8796 H 850.39 -4.01078 0.623807 0
M  V30 8797 H 851.156 -3.73654 3.09205 0
M  V30 8798 H 847.035 -4.17815 1.94812 0
M  V30 8799 H 850.579 -4.42702 5.3913 0
M  V30 8800 H 846.476 -4.86864 4.23833 0
M  V30 8801 H 847.244 -5.25098 6.27865 0
M  V30 8802 N 849.908 -0.773975 -1.37286 0
M  V30 8803 C 851.138 -0.350249 -2.03609 0
M  V30 8804 C 851.546 1.03313 -1.58502 0
M  V30 8805 O 850.889 1.67118 -0.7627 0
M  V30 8806 C 850.951 -0.317215 -3.58098 0
M  V30 8807 C 850.615 -1.64556 -4.26345 0
M  V30 8808 C 851.612 -2.59839 -4.50311 0
M  V30 8809 C 849.297 -1.92061 -4.64131 0
M  V30 8810 C 851.291 -3.80833 -5.11122 0
M  V30 8811 C 848.978 -3.13325 -5.24663 0
M  V30 8812 C 849.976 -4.0753 -5.48095 0
M  V30 8813 O 849.664 -5.26658 -6.0736 0
M  V30 8814 H 849.396 -0.144456 -0.660385 0
M  V30 8815 H 851.95 -1.0496 -1.76557 0
M  V30 8816 H 850.18 0.438528 -3.84205 0
M  V30 8817 H 851.869 0.0797428 -4.05822 0
M  V30 8818 H 852.635 -2.39872 -4.21529 0
M  V30 8819 H 848.514 -1.19562 -4.45226 0
M  V30 8820 H 852.058 -4.54377 -5.29327 0
M  V30 8821 H 847.955 -3.33177 -5.52869 0
M  V30 8822 H 848.723 -5.27513 -6.25837 0
M  V30 8823 N 851.386 1.48609 -0.524698 0
M  V30 8824 C 852.296 2.33318 0.244923 0
M  V30 8825 C 853.312 1.46153 0.944214 0
M  V30 8826 O 854.488 1.79141 0.920347 0
M  V30 8827 C 851.553 3.22149 1.28144 0
M  V30 8828 C 850.614 4.25184 0.593068 0
M  V30 8829 C 849.847 5.0977 1.5802 0
M  V30 8830 O 850.07 4.96249 2.81235 0
M  V30 8831 O 849.004 5.9134 1.1225 0
M  V30 8832 H 852.83 3.00362 -0.449066 0
M  V30 8833 H 850.415 1.46643 -0.285689 0
M  V30 8834 H 852.297 3.77111 1.88057 0
M  V30 8835 H 850.972 2.57772 1.95793 0
M  V30 8836 H 849.879 3.74071 -0.0464214 0
M  V30 8837 H 851.212 4.92183 -0.0413893 0
M  V30 8838 N 852.864 0.259585 1.55447 0
M  V30 8839 C 853.774 -0.645026 2.25558 0
M  V30 8840 C 854.79 -1.18291 1.27606 0
M  V30 8841 O 855.966 -1.21649 1.6051 0
M  V30 8842 C 853.031 -1.81964 2.9511 0
M  V30 8843 C 852.092 -1.31997 4.08504 0
M  V30 8844 C 851.325 -2.43861 4.74729 0
M  V30 8845 O 851.548 -3.62876 4.40088 0
M  V30 8846 O 850.482 -2.12898 5.6299 0
M  V30 8847 H 854.308 -0.0775399 3.03601 0
M  V30 8848 H 851.893 0.0275859 1.49375 0
M  V30 8849 H 853.775 -2.50485 3.38873 0
M  V30 8850 H 852.45 -2.37451 2.19997 0
M  V30 8851 H 851.357 -0.601676 3.6923 0
M  V30 8852 H 852.69 -0.811045 4.85472 0
M  V30 8853 N 854.342 -1.57594 -0.0133615 0
M  V30 8854 C 855.305 -2.06534 -0.993799 0
M  V30 8855 C 856.305 -0.972267 -1.28077 0
M  V30 8856 O 857.495 -1.23537 -1.22818 0
M  V30 8857 C 854.627 -2.49554 -2.3224 0
M  V30 8858 H 855.82 -2.94419 -0.570741 0
M  V30 8859 H 853.373 -1.54113 -0.260546 0
M  V30 8860 H 854.108 -1.64872 -2.79263 0
M  V30 8861 H 853.893 -3.29371 -2.12737 0
M  V30 8862 H 855.383 -2.8779 -3.026 0
M  V30 8863 N 855.82 0.285905 -1.54985 0
M  V30 8864 C 857.236 0.632405 -1.46536 0
M  V30 8865 C 857.436 1.90074 -0.668888 0
M  V30 8866 O 856.492 2.51839 -0.182586 0
M  V30 8867 C 857.805 0.771361 -2.90638 0
M  V30 8868 C 859.353 0.866262 -3.00774 0
M  V30 8869 C 859.828 1.0371 -4.46103 0
M  V30 8870 N 861.319 1.10294 -4.49877 0
M  V30 8871 C 862.054 1.25369 -5.59527 0
M  V30 8872 N 861.55 1.37246 -6.7907 0
M  V30 8873 N 863.343 1.28377 -5.47244 0
M  V30 8874 H 855.494 -0.547226 -2.0523 0
M  V30 8875 H 857.757 -0.183298 -0.930111 0
M  V30 8876 H 857.463 -0.0899485 -3.51585 0
M  V30 8877 H 857.337 1.65569 -3.3892 0
M  V30 8878 H 859.724 1.71805 -2.39931 0
M  V30 8879 H 859.805 -0.0424049 -2.55765 0
M  V30 8880 H 859.449 0.190021 -5.07544 0
M  V30 8881 H 859.379 1.96022 -4.88757 0
M  V30 8882 H 861.87 1.02407 -3.6376 0
M  V30 8883 H 862.183 1.48546 -7.58389 0
M  V30 8884 H 860.528 1.34274 -6.81906 0
M  V30 8885 H 863.719 1.1872 -4.52795 0
M  V30 8886 H 863.892 1.39782 -6.32744 0
M  V30 8887 N 857.298 1.47698 0.54982 0
M  V30 8888 C 858.523 1.58579 1.33669 0
M  V30 8889 C 858.948 0.239049 1.86575 0
M  V30 8890 O 858.306 -0.786256 1.63364 0
M  V30 8891 C 858.354 2.62029 2.47736 0
M  V30 8892 O 857.458 2.17813 3.50188 0
M  V30 8893 H 856.799 0.532447 0.396732 0
M  V30 8894 H 859.329 1.93536 0.6637 0
M  V30 8895 H 859.339 2.82682 2.94202 0
M  V30 8896 H 858.014 3.59812 2.08586 0
M  V30 8897 H 856.591 2.07291 3.09976 0
M  V30 8898 N 858.776 -0.797141 1.35954 0
M  V30 8899 C 859.739 -1.89104 1.29508 0
M  V30 8900 C 860.739 -1.59495 0.204444 0
M  V30 8901 O 861.929 -1.68051 0.458746 0
M  V30 8902 C 859.061 -3.25726 1.00576 0
M  V30 8903 H 860.254 -1.96237 2.26785 0
M  V30 8904 H 857.807 -0.994075 1.20614 0
M  V30 8905 H 858.542 -3.24279 0.0372519 0
M  V30 8906 H 858.327 -3.48604 1.79492 0
M  V30 8907 H 859.817 -4.0578 0.986508 0
M  V30 8908 N 860.254 -1.20106 -1.0204 0
M  V30 8909 C 861.484 -1.0329 -1.78927 0
M  V30 8910 C 861.892 0.421115 -1.84454 0
M  V30 8911 O 861.235 1.30422 -1.29367 0
M  V30 8912 C 861.297 -1.53627 -3.25021 0
M  V30 8913 C 860.961 -3.01869 -3.4311 0
M  V30 8914 C 861.958 -3.9956 -3.32638 0
M  V30 8915 C 859.643 -3.40746 -3.6905 0
M  V30 8916 C 861.637 -5.34119 -3.47844 0
M  V30 8917 C 859.324 -4.75462 -3.839 0
M  V30 8918 C 860.322 -5.71957 -3.73302 0
M  V30 8919 O 860.01 -7.04231 -3.87703 0
M  V30 8920 H 859.742 -0.363962 -0.569656 0
M  V30 8921 H 862.296 -1.59551 -1.29354 0
M  V30 8922 H 860.526 -0.917481 -3.75658 0
M  V30 8923 H 862.215 -1.32889 -3.8353 0
M  V30 8924 H 862.981 -3.70869 -3.12539 0
M  V30 8925 H 858.86 -2.66182 -3.76388 0
M  V30 8926 H 862.404 -6.09421 -3.39488 0
M  V30 8927 H 858.301 -5.03844 -4.03499 0
M  V30 8928 H 859.069 -7.11425 -4.04744 0
M  V30 8929 N 861.732 1.21287 -1.00634 0
M  V30 8930 C 862.662 2.25973 -0.588089 0
M  V30 8931 C 863.643 1.65527 0.391764 0
M  V30 8932 O 864.828 1.92179 0.279452 0
M  V30 8933 C 861.958 3.47197 0.0847336 0
M  V30 8934 C 860.912 4.20168 -0.815039 0
M  V30 8935 C 860.238 5.34699 -0.00855393 0
M  V30 8936 C 861.538 4.77416 -2.11828 0
M  V30 8937 H 863.232 2.61212 -1.46317 0
M  V30 8938 H 860.778 1.25563 -0.704985 0
M  V30 8939 H 862.731 4.19602 0.388821 0
M  V30 8940 H 861.455 3.11092 0.994456 0
M  V30 8941 H 860.114 3.49614 -1.10297 0
M  V30 8942 H 859.762 4.94837 0.902499 0
M  V30 8943 H 859.462 5.84449 -0.607664 0
M  V30 8944 H 860.986 6.09914 0.289317 0
M  V30 8945 H 862.4 5.41694 -1.87725 0
M  V30 8946 H 860.797 5.37561 -2.66736 0
M  V30 8947 H 861.867 3.96724 -2.78816 0
M  V30 8948 N 863.21 0.781244 1.36873 0
M  V30 8949 C 864.435 0.360398 2.04245 0
M  V30 8950 C 864.86 -1.01242 1.58529 0
M  V30 8951 O 864.218 -1.65063 0.749936 0
M  V30 8952 C 864.266 0.42329 3.58107 0
M  V30 8953 O 863.37 -0.572796 4.08403 0
M  V30 8954 H 862.711 0.154386 0.645803 0
M  V30 8955 H 865.241 1.06008 1.74996 0
M  V30 8956 H 865.251 0.283967 4.07011 0
M  V30 8957 H 863.926 1.42477 3.90734 0
M  V30 8958 H 862.503 -0.395809 3.70793 0
M  V30 8959 N 864.689 -1.48329 0.532571 0
M  V30 8960 C 865.636 -2.29663 -0.228779 0
M  V30 8961 C 866.606 -1.37529 -0.931401 0
M  V30 8962 O 867.791 -1.66493 -0.931921 0
M  V30 8963 C 864.931 -3.20955 -1.26814 0
M  V30 8964 C 864.044 -4.28168 -0.574099 0
M  V30 8965 C 863.179 -5.06638 -1.59661 0
M  V30 8966 C 862.218 -6.05651 -0.88618 0
M  V30 8967 N 861.355 -6.77169 -1.85436 0
M  V30 8968 H 866.195 -2.94255 0.47098 0
M  V30 8969 H 863.732 -1.45061 0.2441 0
M  V30 8970 H 865.69 -3.72285 -1.88307 0
M  V30 8971 H 864.32 -2.58281 -1.93625 0
M  V30 8972 H 863.372 -3.80085 0.154827 0
M  V30 8973 H 864.684 -4.98797 -0.0163984 0
M  V30 8974 H 863.838 -5.61995 -2.28576 0
M  V30 8975 H 862.577 -4.35854 -2.18821 0
M  V30 8976 H 861.582 -5.49495 -0.182981 0
M  V30 8977 H 862.807 -6.78434 -0.300659 0
M  V30 8978 H 860.753 -6.09134 -2.43499 0
M  V30 8979 H 860.67 -7.43882 -1.34816 0
M  V30 8980 H 861.938 -7.37114 -2.53541 0
M  V30 8981 N 866.167 -0.267825 -1.55308 0
M  V30 8982 C 867.077 0.633055 -2.25897 0
M  V30 8983 C 868.093 1.17613 -1.28231 0
M  V30 8984 O 869.269 1.20797 -1.61153 0
M  V30 8985 C 866.334 1.80397 -2.96071 0
M  V30 8986 C 865.395 1.29829 -4.09198 0
M  V30 8987 C 864.628 2.4134 -4.76016 0
M  V30 8988 O 864.851 3.60537 -4.42006 0
M  V30 8989 O 863.785 2.09909 -5.64111 0
M  V30 8990 H 867.611 0.0614381 -3.03638 0
M  V30 8991 H 865.196 -0.0355072 -1.49358 0
M  V30 8992 H 867.078 2.48685 -3.40197 0
M  V30 8993 H 865.753 2.36281 -2.21253 0
M  V30 8994 H 864.66 0.582086 -3.69544 0
M  V30 8995 H 865.993 0.785288 -4.85895 0
M  V30 8996 N 867.645 1.57599 0.00500368 0
M  V30 8997 C 868.575 2.11143 0.99705 0
M  V30 8998 C 869.556 1.0194 1.3617 0
M  V30 8999 O 870.741 1.29596 1.44632 0
M  V30 9000 C 867.871 2.61062 2.2905 0
M  V30 9001 C 866.825 3.74745 2.0676 0
M  V30 9002 C 866.151 4.10961 3.42075 0
M  V30 9003 C 867.451 5.02222 1.43424 0
M  V30 9004 H 869.145 2.94281 0.551251 0
M  V30 9005 H 866.691 1.41565 0.263715 0
M  V30 9006 H 868.644 2.97146 2.98801 0
M  V30 9007 H 867.368 1.75038 2.75734 0
M  V30 9008 H 866.027 3.39047 1.39436 0
M  V30 9009 H 865.675 3.21968 3.86453 0
M  V30 9010 H 865.375 4.87549 3.27979 0
M  V30 9011 H 866.899 4.49599 4.1315 0
M  V30 9012 H 868.313 5.36109 2.03125 0
M  V30 9013 H 866.71 5.83581 1.39831 0
M  V30 9014 H 867.78 4.83224 0.40285 0
M  V30 9015 N 869.123 -0.277682 1.55134 0
M  V30 9016 C 870.086 -1.32635 1.86924 0
M  V30 9017 C 871.086 -1.42578 0.743507 0
M  V30 9018 O 872.276 -1.4181 1.01171 0
M  V30 9019 C 869.408 -2.70832 2.07034 0
M  V30 9020 H 870.601 -1.0568 2.80663 0
M  V30 9021 H 868.154 -0.515517 1.47554 0
M  V30 9022 H 868.889 -3.02974 1.15661 0
M  V30 9023 H 868.674 -2.65001 2.88993 0
M  V30 9024 H 870.164 -3.46611 2.32918 0
M  V30 9025 N 870.601 -1.47988 -0.541979 0
M  V30 9026 C 871.826 -1.59286 -1.32826 0
M  V30 9027 C 872.251 -0.24894 -1.86445 0
M  V30 9028 O 871.609 0.777581 -1.63778 0
M  V30 9029 C 871.657 -2.6334 -2.46343 0
M  V30 9030 O 870.761 -2.19667 -3.49028 0
M  V30 9031 H 870.102 -0.534543 -0.393903 0
M  V30 9032 H 872.632 -1.93885 -0.653427 0
M  V30 9033 H 872.642 -2.84238 -2.92699 0
M  V30 9034 H 871.317 -3.60913 -2.06675 0
M  V30 9035 H 869.894 -2.08932 -3.08872 0
M  V30 9036 N 872.079 0.78992 -1.36375 0
M  V30 9037 C 873.009 1.91683 -1.33341 0
M  V30 9038 C 873.99 1.68861 -0.204965 0
M  V30 9039 O 875.175 1.89982 -0.402531 0
M  V30 9040 C 872.305 3.28696 -1.12143 0
M  V30 9041 C 871.259 3.66041 -2.21806 0
M  V30 9042 C 870.585 5.01399 -1.85751 0
M  V30 9043 C 871.885 3.74677 -3.63888 0
M  V30 9044 H 873.579 1.94478 -2.27637 0
M  V30 9045 H 871.125 0.934271 -1.09578 0
M  V30 9046 H 873.078 4.07151 -1.08656 0
M  V30 9047 H 871.802 3.26287 -0.142974 0
M  V30 9048 H 870.461 2.89883 -2.24418 0
M  V30 9049 H 870.109 4.9551 -0.864817 0
M  V30 9050 H 869.809 5.27355 -2.59173 0
M  V30 9051 H 871.333 5.82274 -1.83819 0
M  V30 9052 H 872.747 4.43324 -3.63506 0
M  V30 9053 H 871.144 4.12118 -4.3621 0
M  V30 9054 H 872.214 2.75795 -3.9883 0
M  V30 9055 N 873.557 1.20646 1.01402 0
M  V30 9056 C 874.487 0.98155 2.11867 0
M  V30 9057 C 875.468 -0.0903712 1.6986 0
M  V30 9058 O 876.653 0.0676586 1.94082 0
M  V30 9059 C 873.783 0.535636 3.43145 0
M  V30 9060 C 872.737 1.55109 3.98905 0
M  V30 9061 C 872.063 0.961725 5.2598 0
M  V30 9062 C 873.363 2.93552 4.32001 0
M  V30 9063 H 875.057 1.90544 2.3094 0
M  V30 9064 H 872.603 0.917554 1.10982 0
M  V30 9065 H 874.556 0.365512 4.19812 0
M  V30 9066 H 873.28 -0.423882 3.23838 0
M  V30 9067 H 871.939 1.70862 3.24348 0
M  V30 9068 H 871.587 -0.00580108 5.03 0
M  V30 9069 H 871.287 1.63993 5.64252 0
M  V30 9070 H 872.811 0.802726 6.053 0
M  V30 9071 H 874.225 2.81295 4.99546 0
M  V30 9072 H 872.622 3.58303 4.81393 0
M  V30 9073 H 873.692 3.4508 3.40658 0
M  V30 9074 N 875.035 -1.20752 1.01276 0
M  V30 9075 C 876.451 -1.42084 0.726934 0
M  V30 9076 C 876.651 -1.89138 -0.694907 0
M  V30 9077 O 875.707 -2.05783 -1.4632 0
M  V30 9078 C 877.02 -2.44575 1.74938 0
M  V30 9079 C 878.568 -2.58347 1.76708 0
M  V30 9080 C 879.043 -3.64078 2.77869 0
M  V30 9081 N 880.534 -3.71558 2.76585 0
M  V30 9082 C 881.269 -4.53016 3.51517 0
M  V30 9083 N 880.765 -5.38309 4.36114 0
M  V30 9084 N 882.558 -4.47512 3.40132 0
M  V30 9085 H 874.709 -0.885228 1.93074 0
M  V30 9086 H 876.972 -0.451075 0.833808 0
M  V30 9087 H 876.678 -2.1699 2.76782 0
M  V30 9088 H 876.552 -3.43503 1.55838 0
M  V30 9089 H 878.939 -2.85265 0.755516 0
M  V30 9090 H 879.02 -1.59628 1.99882 0
M  V30 9091 H 878.664 -3.37905 3.79187 0
M  V30 9092 H 878.594 -4.62412 2.51958 0
M  V30 9093 H 881.085 -3.10629 2.15216 0
M  V30 9094 H 881.398 -5.9754 4.90068 0
M  V30 9095 H 879.743 -5.37824 4.40194 0
M  V30 9096 H 882.934 -3.79912 2.73467 0
M  V30 9097 H 883.107 -5.10759 3.98784 0
M  V30 9098 N 876.513 -0.788492 -1.36457 0
M  V30 9099 C 877.476 -0.192209 -2.28393 0
M  V30 9100 C 878.476 0.609916 -1.48784 0
M  V30 9101 O 879.666 0.431046 -1.68783 0
M  V30 9102 C 876.798 0.734096 -3.32902 0
M  V30 9103 H 877.991 -1.00284 -2.82636 0
M  V30 9104 H 875.544 -0.557852 -1.46006 0
M  V30 9105 H 876.279 1.5691 -2.83813 0
M  V30 9106 H 876.064 0.160875 -3.9177 0
M  V30 9107 H 877.554 1.1462 -4.01562 0
M  V30 9108 N 877.991 1.48044 -0.54043 0
M  V30 9109 C 879.239 2.02097 -0.0101367 0
M  V30 9110 C 879.56 1.41881 1.33771 0
M  V30 9111 O 878.83 0.587923 1.8687 0
M  V30 9112 H 877.41 0.747 -0.000758716 0
M  V30 9113 H 880.072 1.81639 -0.706634 0
M  V30 9114 H 879.168 3.11969 0.0904474 0
M  V30 9115 N 879.47 0.276058 1.55163 0
M  V30 9116 C 880.718 -0.339782 1.99223 0
M  V30 9117 C 881.039 -1.56307 1.16589 0
M  V30 9118 O 880.309 -1.94225 0.25564 0
M  V30 9119 H 878.889 -0.128534 0.735859 0
M  V30 9120 H 881.551 0.381612 1.91128 0
M  V30 9121 H 880.647 -0.629 3.05696 0
M  V30 9122 N 880.948 -1.576 0.00335426 0
M  V30 9123 C 882.194 -1.90996 -0.681799 0
M  V30 9124 C 882.527 -0.877643 -1.73237 0
M  V30 9125 O 881.802 0.103183 -1.94226 0
M  V30 9126 C 882.085 -3.34961 -1.32187 0
M  V30 9127 C 881.938 -4.48911 -0.28261 0
M  V30 9128 C 883.257 -3.78408 -2.24711 0
M  V30 9129 H 880.376 -0.694596 -0.246386 0
M  V30 9130 H 883.018 -1.89919 0.055336 0
M  V30 9131 H 881.168 -3.36008 -1.95014 0
M  V30 9132 H 882.84 -4.59999 0.346241 0
M  V30 9133 H 881.083 -4.32 0.394768 0
M  V30 9134 H 881.754 -5.46609 -0.769576 0
M  V30 9135 H 884.23 -3.78934 -1.71897 0
M  V30 9136 H 883.106 -4.79885 -2.66461 0
M  V30 9137 H 883.367 -3.12464 -3.1276 0
M  V30 9138 N 882.426 0.269451 -1.5528 0
M  V30 9139 C 883.356 1.33729 -1.91413 0
M  V30 9140 C 884.337 1.51348 -0.776391 0
M  V30 9141 O 885.522 1.64332 -1.03482 0
M  V30 9142 C 882.652 2.69618 -2.18914 0
M  V30 9143 C 881.606 2.66725 -3.34726 0
M  V30 9144 C 880.932 4.06199 -3.47716 0
M  V30 9145 C 882.232 2.25684 -4.71025 0
M  V30 9146 H 883.926 1.03736 -2.80854 0
M  V30 9147 H 881.472 0.497579 -1.3513 0
M  V30 9148 H 883.425 3.44436 -2.42779 0
M  V30 9149 H 882.149 3.01201 -1.26275 0
M  V30 9150 H 880.808 1.94365 -3.10834 0
M  V30 9151 H 880.456 4.3501 -2.52537 0
M  V30 9152 H 880.156 4.05157 -4.25583 0
M  V30 9153 H 881.68 4.8275 -3.73877 0
M  V30 9154 H 883.094 2.90225 -4.94411 0
M  V30 9155 H 881.491 2.35797 -5.51833 0
M  V30 9156 H 882.561 1.20819 -4.69607 0
M  V30 9157 N 883.904 1.48273 0.534124 0
M  V30 9158 C 884.867 1.6201 1.62127 0
M  V30 9159 C 885.867 0.493653 1.53035 0
M  V30 9160 O 887.057 0.759337 1.56779 0
M  V30 9161 C 884.189 1.5864 3.01739 0
M  V30 9162 H 885.382 2.58944 1.51288 0
M  V30 9163 H 882.935 1.36808 0.755861 0
M  V30 9164 H 883.67 0.631685 3.18088 0
M  V30 9165 H 883.455 2.40415 3.09747 0
M  V30 9166 H 884.945 1.71438 3.80787 0
M  V30 9167 N 885.382 -0.782676 1.36792 0
M  V30 9168 C 886.612 -1.56934 1.3437 0
M  V30 9169 C 887.02 -1.89049 -0.0754828 0
M  V30 9170 O 886.363 -1.51103 -1.04467 0
M  V30 9171 C 886.425 -2.91311 2.10661 0
M  V30 9172 C 886.089 -2.81889 3.59705 0
M  V30 9173 C 887.086 -2.53668 4.53815 0
M  V30 9174 C 884.771 -3.00254 4.02682 0
M  V30 9175 C 886.765 -2.43925 5.8888 0
M  V30 9176 C 884.452 -2.90132 5.37835 0
M  V30 9177 C 885.45 -2.62006 6.30747 0
M  V30 9178 O 885.138 -2.5189 7.63418 0
M  V30 9179 H 884.87 -0.493194 0.462316 0
M  V30 9180 H 887.424 -0.978791 1.80579 0
M  V30 9181 H 885.654 -3.52443 1.59125 0
M  V30 9182 H 887.343 -3.52632 2.01012 0
M  V30 9183 H 888.109 -2.39176 4.21924 0
M  V30 9184 H 883.988 -3.21151 3.30731 0
M  V30 9185 H 887.532 -2.21892 6.6137 0
M  V30 9186 H 883.429 -3.04189 5.69332 0
M  V30 9187 H 884.197 -2.67321 7.73616 0
M  V30 9188 N 886.86 -1.21182 -1.00761 0
M  V30 9189 C 887.77 -0.984691 -2.12934 0
M  V30 9190 C 888.786 0.0623657 -1.73888 0
M  V30 9191 O 889.962 -0.1271 -2.00999 0
M  V30 9192 C 887.027 -0.549447 -3.42319 0
M  V30 9193 C 886.088 -1.66841 -3.95553 0
M  V30 9194 C 885.321 -1.25384 -5.18763 0
M  V30 9195 O 885.544 -0.126333 -5.7026 0
M  V30 9196 O 884.478 -2.06475 -5.65377 0
M  V30 9197 H 888.304 -1.92413 -2.3497 0
M  V30 9198 H 885.889 -0.99647 -1.11314 0
M  V30 9199 H 887.771 -0.316384 -4.20211 0
M  V30 9200 H 886.446 0.361304 -3.21677 0
M  V30 9201 H 885.353 -1.95585 -3.189 0
M  V30 9202 H 886.686 -2.55649 -4.206 0
M  V30 9203 N 888.338 1.20213 -1.01915 0
M  V30 9204 C 889.268 2.25336 -0.612023 0
M  V30 9205 C 890.249 1.65933 0.374186 0
M  V30 9206 O 891.434 1.92464 0.259053 0
M  V30 9207 C 888.564 3.47267 0.047904 0
M  V30 9208 C 887.518 4.1928 -0.859557 0
M  V30 9209 C 886.844 5.3466 -0.0652655 0
M  V30 9210 C 888.144 4.75143 -2.1688 0
M  V30 9211 H 889.838 2.59645 -1.49079 0
M  V30 9212 H 887.384 1.24808 -0.718263 0
M  V30 9213 H 889.337 4.19991 0.344294 0
M  V30 9214 H 888.061 3.12129 0.961404 0
M  V30 9215 H 886.72 3.48425 -1.13999 0
M  V30 9216 H 886.368 4.95767 0.849964 0
M  V30 9217 H 886.068 5.83772 -0.669618 0
M  V30 9218 H 887.592 6.10187 0.224612 0
M  V30 9219 H 889.006 5.39672 -1.9346 0
M  V30 9220 H 887.403 5.34702 -2.72422 0
M  V30 9221 H 888.473 3.93744 -2.83008 0
M  V30 9222 N 889.816 0.795718 1.36037 0
M  V30 9223 C 890.746 0.212803 2.32528 0
M  V30 9224 C 891.727 -0.655716 1.56953 0
M  V30 9225 O 892.912 -0.588238 1.85077 0
M  V30 9226 C 890.042 -0.648189 3.41198 0
M  V30 9227 C 888.996 0.120948 4.27829 0
M  V30 9228 C 888.322 -0.861044 5.27722 0
M  V30 9229 C 889.622 1.31375 5.05508 0
M  V30 9230 H 891.316 1.01893 2.81528 0
M  V30 9231 H 888.862 0.491422 1.35355 0
M  V30 9232 H 890.815 -1.06597 4.07695 0
M  V30 9233 H 889.539 -1.48709 2.9078 0
M  V30 9234 H 888.198 0.519777 3.62897 0
M  V30 9235 H 887.846 -1.69515 4.73575 0
M  V30 9236 H 887.546 -0.350808 5.86552 0
M  V30 9237 H 889.07 -1.27726 5.97092 0
M  V30 9238 H 890.484 0.971406 5.6501 0
M  V30 9239 H 888.881 1.75772 5.73781 0
M  V30 9240 H 889.951 2.10593 4.36782 0
M  V30 9241 N 891.294 -1.47756 0.548274 0
M  V30 9242 C 892.705 -1.8636 0.112547 0
M  V30 9243 C 893.056 -1.45589 -1.31523 0
M  V30 9244 O 892.181 -0.854874 -1.98799 0
M  V30 9245 C 892.776 -3.38224 0.197473 0
M  V30 9246 C 891.335 -3.75954 -0.183163 0
M  V30 9247 C 890.482 -2.7181 0.549059 0
M  V30 9248 H 893.433 -1.394 0.758506 0
M  V30 9249 H 893.454 -3.75957 -0.586217 0
M  V30 9250 H 892.966 -3.67868 1.23673 0
M  V30 9251 H 891.067 -3.51926 -1.22387 0
M  V30 9252 H 891.18 -4.78801 0.169178 0
M  V30 9253 H 889.544 -2.54699 -0.00682862 0
M  V30 9254 H 890.327 -3.04296 1.5893 0
M  V30 9255 N 892.772 -0.284283 -1.55015 0
M  V30 9256 C 893.735 0.586182 -2.21577 0
M  V30 9257 C 894.735 1.07427 -1.1965 0
M  V30 9258 O 895.925 0.972977 -1.44495 0
M  V30 9259 C 893.057 1.80973 -2.88897 0
M  V30 9260 H 894.25 0.00487253 -2.999 0
M  V30 9261 H 891.803 -0.0349696 -1.56261 0
M  V30 9262 H 892.538 2.43131 -2.14611 0
M  V30 9263 H 892.323 1.46757 -3.636 0
M  V30 9264 H 893.813 2.42853 -3.39724 0
M  V30 9265 N 894.251 1.57596 -0.0117121 0
M  V30 9266 C 895.181 2.12188 0.9746 0
M  V30 9267 C 896.162 1.03379 1.35081 0
M  V30 9268 O 897.347 1.31123 1.4325 0
M  V30 9269 C 894.477 2.63477 2.26268 0
M  V30 9270 C 893.431 3.76917 2.02774 0
M  V30 9271 C 892.757 4.14566 3.37697 0
M  V30 9272 C 894.057 5.03715 1.38089 0
M  V30 9273 H 895.751 2.9485 0.520007 0
M  V30 9274 H 893.297 1.41836 0.248685 0
M  V30 9275 H 895.25 3.00299 2.95633 0
M  V30 9276 H 893.974 1.77953 2.73862 0
M  V30 9277 H 892.633 3.40507 1.35832 0
M  V30 9278 H 892.281 3.26048 3.83016 0
M  V30 9279 H 891.981 4.91 3.22789 0
M  V30 9280 H 893.505 4.53956 4.08358 0
M  V30 9281 H 894.919 5.38233 1.97428 0
M  V30 9282 H 893.316 5.85032 1.33634 0
M  V30 9283 H 894.386 4.83624 0.351575 0
M  V30 9284 N 895.729 -0.261212 1.5542 0
M  V30 9285 C 897.006 -1.01321 1.67312 0
M  V30 9286 C 897.386 -2.0388 0.547356 0
M  V30 9287 O 896.734 -2.24003 -0.451083 0
M  V30 9288 C 896.944 -1.65943 3.07024 0
M  V30 9289 C 898.292 -2.16666 3.65159 0
M  V30 9290 O 899.316 -1.75909 3.09733 0
M  V30 9291 O 898.175 -2.91455 4.62294 0
M  V30 9292 H 895.269 -0.470714 0.679968 0
M  V30 9293 H 897.815 -0.256133 1.67756 0
M  V30 9294 H 896.587 -0.916868 3.80407 0
M  V30 9295 H 896.21 -2.48308 3.1053 0
M  V30 9296 N 897.207 -1.48554 -0.526253 0
M  V30 9297 C 898.117 -1.66044 -1.65731 0
M  V30 9298 C 899.133 -0.542951 -1.65312 0
M  V30 9299 O 900.309 -0.814495 -1.84195 0
M  V30 9300 C 897.374 -1.69959 -3.02184 0
M  V30 9301 C 896.435 -2.93362 -3.13428 0
M  V30 9302 C 895.668 -2.97081 -4.43372 0
M  V30 9303 O 895.891 -2.09103 -5.3069 0
M  V30 9304 O 894.825 -3.8929 -4.59061 0
M  V30 9305 H 898.651 -2.61811 -1.53912 0
M  V30 9306 H 896.236 -1.31999 -0.699759 0
M  V30 9307 H 898.118 -1.75033 -3.83329 0
M  V30 9308 H 896.793 -0.773658 -3.14319 0
M  V30 9309 H 895.7 -2.93818 -2.31564 0
M  V30 9310 H 897.033 -3.85352 -3.06211 0
M  V30 9311 N 898.685 0.775411 -1.37205 0
M  V30 9312 C 899.931 1.53611 -1.32407 0
M  V30 9313 C 900.264 1.9398 0.0924103 0
M  V30 9314 O 899.539 1.63791 1.04893 0
M  V30 9315 C 899.822 2.80367 -2.25979 0
M  V30 9316 C 899.675 2.46275 -3.76389 0
M  V30 9317 C 900.994 3.82277 -2.18064 0
M  V30 9318 H 898.113 0.557278 -0.482297 0
M  V30 9319 H 900.755 0.889826 -1.67875 0
M  V30 9320 H 898.905 3.35515 -1.95862 0
M  V30 9321 H 900.577 1.9707 -4.17087 0
M  V30 9322 H 898.82 1.79023 -3.95137 0
M  V30 9323 H 899.491 3.36868 -4.37291 0
M  V30 9324 H 901.967 3.36613 -2.44604 0
M  V30 9325 H 900.843 4.68696 -2.85684 0
M  V30 9326 H 901.104 4.26272 -1.17239 0
M  V30 9327 N 900.163 1.21714 1.00117 0
M  V30 9328 C 901.093 1.00397 2.10815 0
M  V30 9329 C 902.074 -0.0723502 1.69946 0
M  V30 9330 O 903.259 0.0882398 1.93999 0
M  V30 9331 C 900.389 0.572001 3.42557 0
M  V30 9332 C 899.343 1.59331 3.97237 0
M  V30 9333 C 898.669 1.01746 5.2493 0
M  V30 9334 C 899.969 2.98117 4.28863 0
M  V30 9335 H 901.663 1.92983 2.28906 0
M  V30 9336 H 899.209 0.929273 1.10002 0
M  V30 9337 H 901.162 0.410018 4.19401 0
M  V30 9338 H 899.886 -0.38951 3.24269 0
M  V30 9339 H 898.545 1.74293 3.22518 0
M  V30 9340 H 898.193 0.0475491 5.02978 0
M  V30 9341 H 897.893 1.69969 5.62481 0
M  V30 9342 H 899.417 0.866881 6.04415 0
M  V30 9343 H 900.831 2.86578 4.96534 0
M  V30 9344 H 899.228 3.63389 4.77565 0
M  V30 9345 H 900.298 3.48674 3.36979 0
M  V30 9346 N 901.641 -1.19671 1.02551 0
M  V30 9347 C 902.604 -2.20987 0.608055 0
M  V30 9348 C 903.604 -1.5745 -0.326534 0
M  V30 9349 O 904.794 -1.73827 -0.114003 0
M  V30 9350 C 901.926 -3.4072 -0.11074 0
M  V30 9351 H 903.119 -2.59434 1.50446 0
M  V30 9352 H 900.672 -1.3329 0.816307 0
M  V30 9353 H 901.407 -3.07787 -1.02165 0
M  V30 9354 H 901.192 -3.88069 0.560772 0
M  V30 9355 H 902.682 -4.15776 -0.389848 0
M  V30 9356 N 903.119 -0.802921 -1.35613 0
M  V30 9357 C 904.344 -0.392846 -2.03645 0
M  V30 9358 C 904.769 0.987075 -1.6012 0
M  V30 9359 O 904.127 1.63849 -0.776101 0
M  V30 9360 C 904.175 -0.480208 -3.57388 0
M  V30 9361 O 903.279 0.507751 -4.09262 0
M  V30 9362 H 902.62 -0.16464 -0.643265 0
M  V30 9363 H 905.15 -1.08779 -1.73287 0
M  V30 9364 H 905.16 -0.348683 -4.06507 0
M  V30 9365 H 903.835 -1.48675 -3.88418 0
M  V30 9366 H 902.412 0.336769 -3.71376 0
M  V30 9367 N 904.597 1.47463 -0.556102 0
M  V30 9368 C 905.874 1.9557 0.0339892 0
M  V30 9369 C 906.254 1.49869 1.48669 0
M  V30 9370 O 905.602 0.737019 2.16288 0
M  V30 9371 C 905.812 3.48826 -0.110343 0
M  V30 9372 C 907.16 4.24585 0.0355716 0
M  V30 9373 O 908.184 3.5618 -0.0378356 0
M  V30 9374 O 907.043 5.46158 0.193299 0
M  V30 9375 H 904.137 0.824461 0.0647521 0
M  V30 9376 H 906.683 1.57868 -0.622547 0
M  V30 9377 H 905.455 3.74891 -1.12126 0
M  V30 9378 H 905.078 3.9329 0.583855 0
M  V30 9379 N 906.075 0.2925 1.54862 0
M  V30 9380 C 907.3 -0.32494 2.04839 0
M  V30 9381 C 907.725 -1.47381 1.16877 0
M  V30 9382 O 907.083 -1.80492 0.171028 0
M  V30 9383 C 907.131 -0.76694 3.5235 0
M  V30 9384 O 906.235 -1.87256 3.67436 0
M  V30 9385 H 905.576 -0.0645195 0.660858 0
M  V30 9386 H 908.106 0.431867 1.9999 0
M  V30 9387 H 908.116 -1.05804 3.94043 0
M  V30 9388 H 906.791 0.0735212 4.15835 0
M  V30 9389 H 905.368 -1.58266 3.37648 0
M  V30 9390 N 907.553 -1.57587 0.0200696 0
M  V30 9391 C 908.969 -1.56018 -0.336237 0
M  V30 9392 C 909.169 -1.02478 -1.73495 0
M  V30 9393 O 908.225 -0.667487 -2.43518 0
M  V30 9394 C 909.538 -3.00079 -0.193112 0
M  V30 9395 C 911.086 -3.11863 -0.266557 0
M  V30 9396 C 911.561 -4.57747 -0.152326 0
M  V30 9397 N 913.052 -4.62726 -0.209596 0
M  V30 9398 C 913.787 -5.73217 -0.144855 0
M  V30 9399 N 913.283 -6.92794 -0.0295487 0
M  V30 9400 N 915.076 -5.61751 -0.198184 0
M  V30 9401 H 907.227 -1.90722 0.93482 0
M  V30 9402 H 909.49 -0.876909 0.360186 0
M  V30 9403 H 909.196 -3.43167 0.770036 0
M  V30 9404 H 909.07 -3.64593 -0.967029 0
M  V30 9405 H 911.457 -2.68693 -1.22016 0
M  V30 9406 H 911.538 -2.50087 0.53758 0
M  V30 9407 H 911.182 -5.01595 0.797817 0
M  V30 9408 H 911.112 -5.17491 -0.97521 0
M  V30 9409 H 913.603 -3.76713 -0.299229 0
M  V30 9410 H 913.916 -7.72799 0.0134071 0
M  V30 9411 H 912.261 -6.95 0.00510737 0
M  V30 9412 H 915.452 -4.67222 -0.286603 0
M  V30 9413 H 915.625 -6.47839 -0.144266 0
M  V30 9414 N 909.032 0.252966 -1.55557 0
M  V30 9415 C 910.279 0.981852 -1.77104 0
M  V30 9416 C 910.607 1.85547 -0.583305 0
M  V30 9417 O 909.862 1.90836 0.43359 0
M  V30 9418 C 910.161 1.87785 -3.04091 0
M  V30 9419 C 909.827 1.16009 -4.35721 0
M  V30 9420 C 908.489 0.961697 -4.71492 0
M  V30 9421 C 910.841 0.650884 -5.1712 0
M  V30 9422 C 908.169 0.241704 -5.86202 0
M  V30 9423 C 910.521 -0.0556124 -6.32576 0
M  V30 9424 C 909.185 -0.265536 -6.66972 0
M  V30 9425 H 908.455 0.359285 -0.64807 0
M  V30 9426 H 911.102 0.252443 -1.89829 0
M  V30 9427 H 909.407 2.67412 -2.86353 0
M  V30 9428 H 911.104 2.44339 -3.17961 0
M  V30 9429 H 907.694 1.32465 -4.07616 0
M  V30 9430 H 911.878 0.791719 -4.89944 0
M  V30 9431 H 907.134 0.0685292 -6.11362 0
M  V30 9432 H 911.308 -0.457839 -6.94893 0
M  V30 9433 H 908.935 -0.8254 -7.55706 0
M  V30 9434 N 910.51 1.48831 0.518367 0
M  V30 9435 C 911.44 1.67119 1.63075 0
M  V30 9436 C 912.421 0.519948 1.61958 0
M  V30 9437 O 913.606 0.753824 1.78972 0
M  V30 9438 C 910.736 1.72158 3.01627 0
M  V30 9439 C 909.69 2.86898 3.17606 0
M  V30 9440 C 909.016 2.77035 4.57335 0
M  V30 9441 C 910.316 4.28057 2.99274 0
M  V30 9442 H 912.01 2.60248 1.48025 0
M  V30 9443 H 909.556 1.2524 0.710694 0
M  V30 9444 H 911.509 1.83539 3.7933 0
M  V30 9445 H 910.233 0.756157 3.17726 0
M  V30 9446 H 908.892 2.75091 2.42323 0
M  V30 9447 H 908.54 1.78438 4.70286 0
M  V30 9448 H 908.24 3.54036 4.6897 0
M  V30 9449 H 909.764 2.904 5.37122 0
M  V30 9450 H 911.178 4.40636 3.6676 0
M  V30 9451 H 909.575 5.06145 3.22393 0
M  V30 9452 H 910.645 4.4371 1.95574 0
M  V30 9453 N 911.988 -0.768124 1.37614 0
M  V30 9454 C 912.918 -1.89537 1.36374 0
M  V30 9455 C 913.899 -1.68513 0.231803 0
M  V30 9456 O 915.084 -1.89318 0.432705 0
M  V30 9457 C 912.214 -3.26871 1.17358 0
M  V30 9458 C 911.168 -3.62466 2.27602 0
M  V30 9459 C 910.494 -4.9838 1.93705 0
M  V30 9460 C 911.794 -3.68841 3.69802 0
M  V30 9461 H 913.488 -1.90832 2.30702 0
M  V30 9462 H 911.034 -0.91672 1.11051 0
M  V30 9463 H 912.987 -4.05371 1.15119 0
M  V30 9464 H 911.711 -3.26018 0.194865 0
M  V30 9465 H 910.37 -2.86276 2.29002 0
M  V30 9466 H 910.018 -4.94071 0.943539 0
M  V30 9467 H 909.718 -5.23165 2.6753 0
M  V30 9468 H 911.242 -5.79276 1.93059 0
M  V30 9469 H 912.656 -4.37485 3.70513 0
M  V30 9470 H 911.053 -4.05126 4.42711 0
M  V30 9471 H 912.123 -2.69415 4.03167 0
M  V30 9472 N 913.466 -1.22244 -0.994698 0
M  V30 9473 C 914.714 -1.04384 -1.73056 0
M  V30 9474 C 915.035 0.422204 -1.90374 0
M  V30 9475 O 914.305 1.30383 -1.46209 0
M  V30 9476 H 912.885 -0.383263 -0.641185 0
M  V30 9477 H 915.547 -1.53725 -1.1981 0
M  V30 9478 H 914.643 -1.52021 -2.72573 0
M  V30 9479 N 914.944 1.19125 -1.03184 0
M  V30 9480 C 916.169 1.93379 -0.749628 0
M  V30 9481 C 916.594 1.75153 0.685785 0
M  V30 9482 O 915.952 1.05579 1.47386 0
M  V30 9483 C 916 3.43101 -1.1097 0
M  V30 9484 O 915.104 4.11758 -0.230053 0
M  V30 9485 H 914.445 0.603605 -0.276689 0
M  V30 9486 H 916.975 1.51116 -1.37931 0
M  V30 9487 H 916.985 3.93778 -1.06785 0
M  V30 9488 H 915.66 3.55688 -2.15544 0
M  V30 9489 H 914.237 3.7143 -0.330748 0
M  V30 9490 N 916.422 0.810101 1.35185 0
M  V30 9491 C 917.668 0.401839 1.99391 0
M  V30 9492 C 918.023 -1.02059 1.63101 0
M  V30 9493 O 917.316 -1.69889 0.8859 0
M  V30 9494 C 917.51 0.526561 3.535 0
M  V30 9495 C 917.339 1.95956 4.04761 0
M  V30 9496 C 916.109 2.58869 4.33953 0
M  V30 9497 C 918.307 2.92459 4.23051 0
M  V30 9498 N 916.289 3.93542 4.71166 0
M  V30 9499 C 917.66 4.12011 4.633 0
M  V30 9500 C 919.715 2.89244 4.05268 0
M  V30 9501 C 918.418 5.28784 4.87627 0
M  V30 9502 C 920.444 4.05223 4.30753 0
M  V30 9503 C 919.806 5.23524 4.71277 0
M  V30 9504 H 915.905 0.194886 0.757327 0
M  V30 9505 H 918.489 1.05209 1.63827 0
M  V30 9506 H 916.66 -0.0937151 3.88287 0
M  V30 9507 H 918.392 0.0925434 4.04594 0
M  V30 9508 H 915.147 2.10198 4.24398 0
M  V30 9509 H 915.571 4.62889 4.94027 0
M  V30 9510 H 920.213 1.98932 3.73076 0
M  V30 9511 H 917.931 6.19666 5.18691 0
M  V30 9512 H 921.517 4.04121 4.18542 0
M  V30 9513 H 920.397 6.11776 4.90612 0
M  V30 9514 N 917.9 -1.47166 0.563914 0
M  V30 9515 C 918.83 -2.32894 -0.168148 0
M  V30 9516 C 919.811 -1.44202 -0.902214 0
M  V30 9517 O 920.996 -1.73048 -0.881365 0
M  V30 9518 C 918.126 -3.26116 -1.19439 0
M  V30 9519 C 917.08 -4.24101 -0.576363 0
M  V30 9520 C 916.406 -5.06696 -1.70772 0
M  V30 9521 C 917.706 -5.20142 0.47425 0
M  V30 9522 H 919.4 -2.9435 0.547573 0
M  V30 9523 H 916.946 -1.41545 0.264778 0
M  V30 9524 H 918.899 -3.84935 -1.71474 0
M  V30 9525 H 917.623 -2.62728 -1.94014 0
M  V30 9526 H 916.282 -3.66519 -0.0772534 0
M  V30 9527 H 915.93 -4.39707 -2.44268 0
M  V30 9528 H 915.63 -5.7304 -1.29994 0
M  V30 9529 H 917.154 -5.68375 -2.2312 0
M  V30 9530 H 918.568 -5.73286 0.0397035 0
M  V30 9531 H 916.965 -5.94726 0.801287 0
M  V30 9532 H 918.035 -4.65214 1.36764 0
M  V30 9533 N 919.378 -0.300708 -1.54705 0
M  V30 9534 C 920.288 0.584996 -2.27189 0
M  V30 9535 C 921.304 1.14866 -1.30697 0
M  V30 9536 O 922.48 1.17351 -1.63679 0
M  V30 9537 C 919.545 1.74076 -2.99831 0
M  V30 9538 C 918.606 1.2112 -4.1186 0
M  V30 9539 C 917.839 2.31188 -4.81028 0
M  V30 9540 O 918.062 3.5108 -4.49554 0
M  V30 9541 O 916.996 1.97897 -5.68437 0
M  V30 9542 H 920.822 -0.00298177 -3.037 0
M  V30 9543 H 918.407 -0.0671802 -1.49249 0
M  V30 9544 H 920.289 2.41413 -3.45395 0
M  V30 9545 H 918.964 2.31535 -2.26215 0
M  V30 9546 H 917.871 0.50357 -3.70695 0
M  V30 9547 H 919.204 0.682046 -4.87452 0
M  V30 9548 N 920.856 1.57574 -0.0284266 0
M  V30 9549 C 921.788 2.07079 0.982391 0
M  V30 9550 C 922.801 0.994078 1.28926 0
M  V30 9551 O 923.99 1.27028 1.25404 0
M  V30 9552 C 921.09 2.47978 2.30998 0
M  V30 9553 C 920.263 3.7872 2.18838 0
M  V30 9554 C 919.322 4.06177 3.34524 0
M  V30 9555 O 918.348 4.76438 3.11441 0
M  V30 9556 N 919.55 3.56297 4.58293 0
M  V30 9557 H 922.315 2.94421 0.560011 0
M  V30 9558 H 919.876 1.61124 0.158347 0
M  V30 9559 H 921.868 2.63439 3.07216 0
M  V30 9560 H 920.438 1.66005 2.64879 0
M  V30 9561 H 919.658 3.73062 1.27351 0
M  V30 9562 H 920.946 4.6438 2.07915 0
M  V30 9563 H 920.344 2.99453 4.79942 0
M  V30 9564 H 918.901 3.77038 5.31682 0
M  V30 9565 N 922.334 -0.244713 1.55689 0
M  V30 9566 C 923.297 -1.2864 1.89695 0
M  V30 9567 C 924.297 -1.40969 0.773583 0
M  V30 9568 O 925.487 -1.39632 1.04156 0
M  V30 9569 C 922.619 -2.66379 2.12732 0
M  V30 9570 H 923.812 -0.997033 2.82841 0
M  V30 9571 H 921.365 -0.484103 1.48614 0
M  V30 9572 H 922.1 -3.00452 1.22062 0
M  V30 9573 H 921.885 -2.58812 2.94549 0
M  V30 9574 H 923.375 -3.41592 2.40218 0
M  V30 9575 N 923.813 -1.49104 -0.510467 0
M  V30 9576 C 925.229 -1.35657 -0.840797 0
M  V30 9577 C 925.429 -0.382425 -1.97838 0
M  V30 9578 O 924.485 0.189331 -2.51789 0
M  V30 9579 C 925.798 -2.76155 -1.18992 0
M  V30 9580 C 927.346 -2.84786 -1.29868 0
M  V30 9581 C 927.821 -4.2603 -1.68115 0
M  V30 9582 N 929.312 -4.28796 -1.75181 0
M  V30 9583 C 930.047 -5.35041 -2.062 0
M  V30 9584 N 929.543 -6.51543 -2.35508 0
M  V30 9585 N 931.336 -5.2245 -2.07371 0
M  V30 9586 H 923.487 -2.11042 0.23982 0
M  V30 9587 H 925.75 -0.946946 0.0446824 0
M  V30 9588 H 925.456 -3.49092 -0.427484 0
M  V30 9589 H 925.33 -3.10922 -2.13558 0
M  V30 9590 H 927.717 -2.12092 -2.05186 0
M  V30 9591 H 927.798 -2.53613 -0.333758 0
M  V30 9592 H 927.442 -4.99247 -0.933512 0
M  V30 9593 H 927.372 -4.5466 -2.65691 0
M  V30 9594 H 929.863 -3.44771 -1.5473 0
M  V30 9595 H 930.176 -7.28342 -2.58337 0
M  V30 9596 H 928.521 -6.54785 -2.32985 0
M  V30 9597 H 931.712 -4.30444 -1.83945 0
M  V30 9598 H 931.885 -6.05347 -2.31212 0
M  V30 9599 N 925.291 0.760815 -1.38019 0
M  V30 9600 C 926.254 1.85604 -1.34476 0
M  V30 9601 C 927.254 1.58897 -0.24666 0
M  V30 9602 O 928.444 1.66776 -0.50314 0
M  V30 9603 C 925.576 3.22945 -1.09176 0
M  V30 9604 H 926.769 1.90155 -2.31908 0
M  V30 9605 H 924.322 0.961746 -1.23208 0
M  V30 9606 H 925.057 3.24066 -0.123216 0
M  V30 9607 H 924.842 3.43723 -1.88672 0
M  V30 9608 H 926.332 4.03022 -1.09375 0
M  V30 9609 N 926.769 1.22769 0.988202 0
M  V30 9610 C 927.732 1.00325 2.06076 0
M  V30 9611 C 928.732 -0.0320618 1.60768 0
M  V30 9612 O 929.922 0.206912 1.72967 0
M  V30 9613 C 927.054 0.516376 3.36966 0
M  V30 9614 H 928.247 1.95499 2.27421 0
M  V30 9615 H 925.8 1.04704 1.16047 0
M  V30 9616 H 926.535 -0.439498 3.21308 0
M  V30 9617 H 926.32 1.26337 3.71189 0
M  V30 9618 H 927.81 0.37974 4.1587 0
M  V30 9619 N 928.247 -1.18576 1.03814 0
M  V30 9620 C 929.21 -2.2033 0.63146 0
M  V30 9621 C 930.21 -1.57787 -0.309816 0
M  V30 9622 O 931.4 -1.73938 -0.0955598 0
M  V30 9623 C 928.532 -3.40818 -0.0745963 0
M  V30 9624 H 929.725 -2.57824 1.53189 0
M  V30 9625 H 927.278 -1.32416 0.830398 0
M  V30 9626 H 928.013 -3.08853 -0.988947 0
M  V30 9627 H 927.798 -3.87453 0.6019 0
M  V30 9628 H 929.288 -4.16166 -0.345727 0
M  V30 9629 N 929.725 -0.817259 -1.34754 0
M  V30 9630 C 930.971 -0.403244 -1.98751 0
M  V30 9631 C 931.304 1.02963 -1.64658 0
M  V30 9632 O 930.579 1.71617 -0.915314 0
M  V30 9633 C 930.862 -0.599188 -3.5508 0
M  V30 9634 C 930.715 -2.07777 -3.98934 0
M  V30 9635 C 932.034 -0.0315656 -4.40089 0
M  V30 9636 H 929.153 -0.147988 -0.721989 0
M  V30 9637 H 931.795 -1.02877 -1.59738 0
M  V30 9638 H 929.945 -0.0667116 -3.88443 0
M  V30 9639 H 931.617 -2.67345 -3.75931 0
M  V30 9640 H 929.86 -2.57031 -3.49453 0
M  V30 9641 H 930.531 -2.16571 -5.07741 0
M  V30 9642 H 933.007 -0.48644 -4.13247 0
M  V30 9643 H 931.883 -0.198507 -5.48541 0
M  V30 9644 H 932.144 1.06302 -4.2913 0
M  V30 9645 N 931.203 1.46865 -0.571711 0
M  V30 9646 C 932.428 2.07323 -0.0564655 0
M  V30 9647 C 932.853 1.41938 1.23431 0
M  V30 9648 O 932.211 0.499334 1.74288 0
M  V30 9649 C 932.259 3.6044 0.107339 0
M  V30 9650 O 931.363 3.95558 1.1665 0
M  V30 9651 H 930.704 0.661475 -0.0578465 0
M  V30 9652 H 933.234 1.88669 -0.791524 0
M  V30 9653 H 933.244 4.06767 0.316987 0
M  V30 9654 H 931.919 4.07425 -0.835348 0
M  V30 9655 H 930.496 3.60957 0.936189 0
M  V30 9656 N 932.681 0.308908 1.54543 0
M  V30 9657 C 933.591 -0.572939 2.27496 0
M  V30 9658 C 934.607 -1.14171 1.31305 0
M  V30 9659 O 935.783 -1.16481 1.64299 0
M  V30 9660 C 932.848 -1.72483 3.0075 0
M  V30 9661 C 931.909 -1.18934 4.12496 0
M  V30 9662 C 931.142 -2.28634 4.82247 0
M  V30 9663 O 931.365 -3.48691 4.5141 0
M  V30 9664 O 930.299 -1.94879 5.69478 0
M  V30 9665 H 934.125 0.0190877 3.03694 0
M  V30 9666 H 931.71 0.0750943 1.49211 0
M  V30 9667 H 933.592 -2.39578 3.46671 0
M  V30 9668 H 932.267 -2.30332 2.2744 0
M  V30 9669 H 931.174 -0.483904 3.70957 0
M  V30 9670 H 932.507 -0.656185 4.87806 0
M  V30 9671 N 934.159 -1.57557 0.0367827 0
M  V30 9672 C 935.122 -2.09591 -0.927589 0
M  V30 9673 C 936.122 -1.01252 -1.24919 0
M  V30 9674 O 937.312 -1.27382 -1.18825 0
M  V30 9675 C 934.444 -2.56816 -2.24184 0
M  V30 9676 H 935.637 -2.96086 -0.476784 0
M  V30 9677 H 933.19 -1.54864 -0.211385 0
M  V30 9678 H 933.925 -1.73673 -2.73876 0
M  V30 9679 H 933.71 -3.35973 -2.0215 0
M  V30 9680 H 935.2 -2.97271 -2.93291 0
M  V30 9681 N 935.637 0.236453 -1.55816 0
M  V30 9682 C 936.547 1.31418 -1.94336 0
M  V30 9683 C 937.563 1.52095 -0.845164 0
M  V30 9684 O 938.739 1.65515 -1.14746 0
M  V30 9685 C 935.804 2.6468 -2.23932 0
M  V30 9686 C 934.865 2.52435 -3.47239 0
M  V30 9687 C 934.098 3.79342 -3.75414 0
M  V30 9688 O 934.321 4.81694 -3.05495 0
M  V30 9689 O 933.255 3.77347 -4.68927 0
M  V30 9690 H 937.081 1.01739 -2.86152 0
M  V30 9691 H 934.666 0.438084 -1.42833 0
M  V30 9692 H 936.548 3.4341 -2.44228 0
M  V30 9693 H 935.223 2.94071 -1.35292 0
M  V30 9694 H 934.13 1.71955 -3.32238 0
M  V30 9695 H 935.463 2.27987 -4.36214 0
M  V30 9696 N 937.115 1.49373 0.502552 0
M  V30 9697 C 938.078 1.65413 1.58654 0
M  V30 9698 C 939.078 0.526003 1.51953 0
M  V30 9699 O 940.268 0.792421 1.55133 0
M  V30 9700 C 937.4 1.65005 2.98306 0
M  V30 9701 H 938.593 2.62095 1.45762 0
M  V30 9702 H 936.146 1.38381 0.726672 0
M  V30 9703 H 936.881 0.699014 3.16677 0
M  V30 9704 H 936.666 2.46931 3.04578 0
M  V30 9705 H 938.156 1.79477 3.77065 0
M  V30 9706 N 938.594 -0.753485 1.38421 0
M  V30 9707 C 939.871 -1.50318 1.25155 0
M  V30 9708 C 940.251 -2.10588 -0.147003 0
M  V30 9709 O 939.599 -1.97071 -1.15651 0
M  V30 9710 C 939.809 -2.56946 2.36177 0
M  V30 9711 C 941.157 -3.23846 2.74607 0
M  V30 9712 O 942.181 -2.67251 2.3549 0
M  V30 9713 O 941.04 -4.2621 3.42064 0
M  V30 9714 H 938.134 -0.666624 0.48943 0
M  V30 9715 H 940.68 -0.788887 1.50249 0
M  V30 9716 H 939.452 -2.1066 3.29754 0
M  V30 9717 H 939.075 -3.35956 2.12648 0
M  V30 9718 N 940.072 -1.23292 -0.981677 0
M  V30 9719 C 941.319 -1.06424 -1.72279 0
M  V30 9720 C 941.647 0.399055 -1.90362 0
M  V30 9721 O 940.902 1.31181 -1.45224 0
M  V30 9722 C 941.201 -1.73339 -3.12551 0
M  V30 9723 C 940.867 -3.23256 -3.14351 0
M  V30 9724 C 939.529 -3.64159 -3.14549 0
M  V30 9725 C 941.881 -4.1916 -3.09765 0
M  V30 9726 C 939.209 -4.99428 -3.07877 0
M  V30 9727 C 941.561 -5.54419 -3.04635 0
M  V30 9728 C 940.225 -5.94688 -3.03154 0
M  V30 9729 H 939.495 -0.389434 -0.630415 0
M  V30 9730 H 942.142 -1.53208 -1.1489 0
M  V30 9731 H 940.447 -1.18911 -3.73319 0
M  V30 9732 H 942.144 -1.57767 -3.68661 0
M  V30 9733 H 938.734 -2.90693 -3.14953 0
M  V30 9734 H 942.918 -3.88569 -3.08753 0
M  V30 9735 H 938.174 -5.29844 -3.05083 0
M  V30 9736 H 942.348 -6.28448 -3.00043 0
M  V30 9737 H 939.975 -6.99468 -2.97739 0
M  V30 9738 N 941.55 1.18024 -1.04442 0
M  V30 9739 C 942.78 1.91753 -0.769044 0
M  V30 9740 C 943.188 1.76629 0.678141 0
M  V30 9741 O 942.531 1.09589 1.47431 0
M  V30 9742 C 942.593 3.43505 -1.0604 0
M  V30 9743 C 942.257 3.82409 -2.50225 0
M  V30 9744 C 943.254 3.8588 -3.48414 0
M  V30 9745 C 940.939 4.13594 -2.85036 0
M  V30 9746 C 942.933 4.19993 -4.79463 0
M  V30 9747 C 940.62 4.47377 -4.1629 0
M  V30 9748 C 941.618 4.50553 -5.13314 0
M  V30 9749 O 941.306 4.83546 -6.42214 0
M  V30 9750 H 941.038 0.615466 -0.279603 0
M  V30 9751 H 943.592 1.5065 -1.3962 0
M  V30 9752 H 941.822 3.84866 -0.376125 0
M  V30 9753 H 943.511 3.98486 -0.772235 0
M  V30 9754 H 944.277 3.6192 -3.2286 0
M  V30 9755 H 940.156 4.10297 -2.10185 0
M  V30 9756 H 943.7 4.22387 -5.55189 0
M  V30 9757 H 939.597 4.70798 -4.4161 0
M  V30 9758 H 940.365 5.01433 -6.46921 0
M  V30 9759 N 943.028 0.824394 1.34319 0
M  V30 9760 C 943.938 0.24932 2.33271 0
M  V30 9761 C 944.954 -0.617066 1.62691 0
M  V30 9762 O 946.13 -0.524616 1.94447 0
M  V30 9763 C 943.195 -0.578094 3.41846 0
M  V30 9764 C 942.256 0.310866 4.28173 0
M  V30 9765 C 941.489 -0.477153 5.31563 0
M  V30 9766 O 941.712 -1.71028 5.44156 0
M  V30 9767 O 940.646 0.141287 6.01734 0
M  V30 9768 H 944.472 1.06837 2.84288 0
M  V30 9769 H 942.057 0.58657 1.37403 0
M  V30 9770 H 943.939 -1.04878 4.0814 0
M  V30 9771 H 942.614 -1.37444 2.93071 0
M  V30 9772 H 941.521 0.829081 3.64797 0
M  V30 9773 H 942.854 1.07161 4.80393 0
M  V30 9774 N 944.506 -1.46559 0.579492 0
M  V30 9775 C 945.438 -2.28383 -0.19337 0
M  V30 9776 C 946.451 -1.38324 -0.858511 0
M  V30 9777 O 947.64 -1.62952 -0.728615 0
M  V30 9778 C 944.74 -3.13262 -1.29306 0
M  V30 9779 C 943.913 -4.31426 -0.720459 0
M  V30 9780 C 942.972 -4.97728 -1.70744 0
M  V30 9781 O 941.998 -5.55423 -1.24476 0
M  V30 9782 N 943.2 -4.94445 -3.04146 0
M  V30 9783 H 945.965 -2.95353 0.508611 0
M  V30 9784 H 943.526 -1.56436 0.417046 0
M  V30 9785 H 945.518 -3.54483 -1.95254 0
M  V30 9786 H 944.088 -2.48388 -1.89795 0
M  V30 9787 H 943.308 -3.94028 0.116398 0
M  V30 9788 H 944.596 -5.07808 -0.31763 0
M  V30 9789 H 943.994 -4.4881 -3.44363 0
M  V30 9790 H 942.551 -5.39616 -3.65592 0
M  V30 9791 N 945.984 -0.3171 -1.54377 0
M  V30 9792 C 946.932 0.567371 -2.25574 0
M  V30 9793 C 947.926 1.12387 -1.2675 0
M  V30 9794 O 949.132 1.07266 -1.44548 0
M  V30 9795 H 945.507 0.201605 -0.724472 0
M  V30 9796 H 947.478 -0.0554644 -2.98348 0
M  V30 9797 C 946.227 1.71984 -3.02187 0
M  V30 9798 H 945.55 1.30086 -3.78044 0
M  V30 9799 H 946.99 2.31443 -3.5526 0
M  V30 9800 C 945.449 2.6336 -2.10103 0
M  V30 9801 O 945.979 3.64899 -1.67962 0
M  V30 9802 N 944.185 2.3145 -1.75725 0
M  V30 9803 H 943.732 1.48921 -2.10191 0
M  V30 9804 H 943.69 2.92852 -1.14391 0
M  V30 9805 N 947.462 1.57535 -0.0451378 0
M  V30 9806 C 948.687 1.97172 0.64326 0
M  V30 9807 C 949.112 0.922266 1.63939 0
M  V30 9808 O 948.47 -0.115155 1.80934 0
M  V30 9809 C 948.518 3.35889 1.3119 0
M  V30 9810 O 947.622 3.33387 2.42748 0
M  V30 9811 H 946.963 0.642469 0.167719 0
M  V30 9812 H 949.493 2.04295 -0.111747 0
M  V30 9813 H 949.503 3.72481 1.66499 0
M  V30 9814 H 948.178 4.1181 0.581823 0
M  V30 9815 H 946.755 3.08533 2.09432 0
M  V30 9816 N 948.94 -0.228186 1.55939 0
M  V30 9817 C 950.356 -0.577583 1.48782 0
M  V30 9818 C 950.556 -1.87461 0.738972 0
M  V30 9819 O 949.612 -2.50988 0.275929 0
M  V30 9820 C 950.925 -0.662961 2.93301 0
M  V30 9821 C 952.473 -0.754035 3.03782 0
M  V30 9822 C 952.948 -0.870815 4.49645 0
M  V30 9823 N 954.439 -0.935208 4.53661 0
M  V30 9824 C 955.174 -1.04516 5.63794 0
M  V30 9825 N 954.67 -1.11948 6.83696 0
M  V30 9826 N 956.463 -1.07978 5.51631 0
M  V30 9827 H 948.614 0.623018 2.03057 0
M  V30 9828 H 950.877 0.217692 0.922667 0
M  V30 9829 H 950.583 0.220375 3.51009 0
M  V30 9830 H 950.457 -1.52876 3.44831 0
M  V30 9831 H 952.844 -1.62782 2.46143 0
M  V30 9832 H 952.925 0.137301 2.55431 0
M  V30 9833 H 952.569 -0.0015186 5.079 0
M  V30 9834 H 952.499 -1.77747 4.95695 0
M  V30 9835 H 954.99 -0.88836 3.6731 0
M  V30 9836 H 955.303 -1.20297 7.6338 0
M  V30 9837 H 953.648 -1.08873 6.8642 0
M  V30 9838 H 956.839 -1.01833 4.56889 0
M  V30 9839 H 957.012 -1.16202 6.37496 0
M  V30 9840 N 950.418 -1.49637 -0.494624 0
M  V30 9841 C 951.648 -1.62928 -1.27036 0
M  V30 9842 C 952.056 -0.302464 -1.86767 0
M  V30 9843 O 951.399 0.722878 -1.68879 0
M  V30 9844 C 951.461 -2.64449 -2.43531 0
M  V30 9845 C 951.125 -4.08632 -2.0462 0
M  V30 9846 C 952.122 -4.95238 -1.58225 0
M  V30 9847 C 949.807 -4.54405 -2.1406 0
M  V30 9848 C 951.801 -6.25658 -1.21782 0
M  V30 9849 C 949.488 -5.84836 -1.77228 0
M  V30 9850 C 950.486 -6.70287 -1.31165 0
M  V30 9851 O 950.174 -7.98287 -0.948339 0
M  V30 9852 H 949.906 -0.551263 -0.391261 0
M  V30 9853 H 952.46 -1.96453 -0.599621 0
M  V30 9854 H 950.69 -2.26117 -3.137 0
M  V30 9855 H 952.379 -2.67203 -3.05545 0
M  V30 9856 H 953.145 -4.611 -1.50373 0
M  V30 9857 H 949.024 -3.88056 -2.48865 0
M  V30 9858 H 952.568 -6.92309 -0.857566 0
M  V30 9859 H 948.465 -6.18502 -1.84732 0
M  V30 9860 H 949.233 -8.11353 -1.07925 0
M  V30 9861 N 951.896 0.746133 -1.38819 0
M  V30 9862 C 952.828 1.86991 -1.3254 0
M  V30 9863 C 953.841 1.61077 -0.236216 0
M  V30 9864 O 955.03 1.71518 -0.494341 0
M  V30 9865 C 952.13 3.22786 -1.03258 0
M  V30 9866 C 951.303 3.76145 -2.23234 0
M  V30 9867 C 950.362 4.90474 -1.90581 0
M  V30 9868 O 949.388 5.04717 -2.63153 0
M  V30 9869 N 950.59 5.74015 -0.86525 0
M  V30 9870 H 953.355 1.92885 -2.2938 0
M  V30 9871 H 950.916 0.926392 -1.32776 0
M  V30 9872 H 952.908 3.96824 -0.794533 0
M  V30 9873 H 951.478 3.12231 -0.151895 0
M  V30 9874 H 950.698 2.93587 -2.63059 0
M  V30 9875 H 951.986 4.08528 -3.03285 0
M  V30 9876 H 951.384 5.65086 -0.263577 0
M  V30 9877 H 949.941 6.48168 -0.687087 0
M  V30 9878 N 953.375 1.23811 0.975125 0
M  V30 9879 C 954.305 1.04846 2.08638 0
M  V30 9880 C 955.286 -0.0362859 1.70061 0
M  V30 9881 O 956.471 0.12937 1.93769 0
M  V30 9882 C 953.601 0.644534 3.41267 0
M  V30 9883 C 952.555 1.67722 3.93768 0
M  V30 9884 C 951.881 1.12857 5.22654 0
M  V30 9885 C 953.181 3.07147 4.22443 0
M  V30 9886 H 954.875 1.97795 2.24761 0
M  V30 9887 H 952.421 0.952397 1.08006 0
M  V30 9888 H 954.374 0.498887 4.18436 0
M  V30 9889 H 953.098 -0.320641 3.25022 0
M  V30 9890 H 951.757 1.81095 3.18748 0
M  V30 9891 H 951.405 0.154227 5.02764 0
M  V30 9892 H 951.105 1.81862 5.58749 0
M  V30 9893 H 952.629 0.994891 6.0244 0
M  V30 9894 H 954.043 2.97045 4.90344 0
M  V30 9895 H 952.44 3.73437 4.6975 0
M  V30 9896 H 953.51 3.55743 3.29507 0
M  V30 9897 N 954.853 -1.17469 1.05066 0
M  V30 9898 C 956.081 -1.9162 0.780334 0
M  V30 9899 C 956.496 -1.76745 -0.663817 0
M  V30 9900 O 955.853 -1.10377 -1.45338 0
M  V30 9901 C 955.904 -3.42723 1.14992 0
M  V30 9902 O 955.625 -3.57139 2.53739 0
M  V30 9903 C 957.126 -4.33952 0.905549 0
M  V30 9904 H 954.346 -0.608022 0.283814 0
M  V30 9905 H 956.89 -1.4897 1.401 0
M  V30 9906 H 955.045 -3.83124 0.57403 0
M  V30 9907 H 955.459 -4.5075 2.68189 0
M  V30 9908 H 956.933 -5.38487 1.21391 0
M  V30 9909 H 957.41 -4.38911 -0.159295 0
M  V30 9910 H 958.016 -3.99263 1.46522 0
M  V30 9911 N 956.331 -0.831506 -1.3388 0
M  V30 9912 C 957.261 -0.274378 -2.31882 0
M  V30 9913 C 958.242 0.613872 -1.58637 0
M  V30 9914 O 959.427 0.538961 -1.86571 0
M  V30 9915 C 956.557 0.557498 -3.42796 0
M  V30 9916 C 955.511 -0.234337 -4.27358 0
M  V30 9917 C 954.837 0.720825 -5.29819 0
M  V30 9918 C 956.137 -1.44732 -5.01847 0
M  V30 9919 H 957.831 -1.09322 -2.78728 0
M  V30 9920 H 955.377 -0.527136 -1.34005 0
M  V30 9921 H 957.33 0.957501 -4.10378 0
M  V30 9922 H 956.054 1.40947 -2.94621 0
M  V30 9923 H 954.713 -0.61581 -3.61391 0
M  V30 9924 H 954.361 1.569 -4.77903 0
M  V30 9925 H 954.061 0.195171 -5.87276 0
M  V30 9926 H 955.585 1.1185 -6.00268 0
M  V30 9927 H 956.999 -1.12087 -5.62236 0
M  V30 9928 H 955.396 -1.90923 -5.68919 0
M  V30 9929 H 956.466 -2.22099 -4.31045 0
M  V30 9930 N 957.809 1.4625 -0.587256 0
M  V30 9931 C 959.055 2.0323 -0.0830359 0
M  V30 9932 C 959.41 1.45007 1.26455 0
M  V30 9933 O 958.703 0.607494 1.81714 0
M  V30 9934 C 958.897 3.57382 0.036328 0
M  V30 9935 C 958.726 4.30556 -1.29814 0
M  V30 9936 C 957.496 4.69285 -1.87349 0
M  V30 9937 C 959.694 4.63806 -2.22236 0
M  V30 9938 N 957.676 5.27229 -3.14488 0
M  V30 9939 C 959.047 5.22368 -3.33964 0
M  V30 9940 C 961.102 4.45738 -2.2186 0
M  V30 9941 C 959.805 5.64769 -4.45454 0
M  V30 9942 C 961.831 4.89158 -3.32383 0
M  V30 9943 C 961.193 5.47795 -4.42832 0
M  V30 9944 H 957.292 0.77856 -0.0732716 0
M  V30 9945 H 959.876 1.78343 -0.781152 0
M  V30 9946 H 958.047 3.81973 0.703621 0
M  V30 9947 H 959.779 4.01009 0.545347 0
M  V30 9948 H 956.534 4.5219 -1.40789 0
M  V30 9949 H 956.958 5.60719 -3.79372 0
M  V30 9950 H 961.6 3.99735 -1.37739 0
M  V30 9951 H 959.318 6.09748 -5.30314 0
M  V30 9952 H 962.904 4.76926 -3.33216 0
M  V30 9953 H 961.784 5.80778 -5.26941 0
M  V30 9954 N 959.287 0.325282 1.54207 0
M  V30 9955 C 960.535 -0.276229 2.00203 0
M  V30 9956 C 960.856 -1.52519 1.21503 0
M  V30 9957 O 960.126 -1.93313 0.317302 0
M  V30 9958 H 958.706 -0.105059 0.739575 0
M  V30 9959 H 961.368 0.442225 1.89817 0
M  V30 9960 H 960.464 -0.531427 3.07542 0
M  V30 9961 N 960.765 -1.57509 0.0534917 0
M  V30 9962 C 962.176 -1.80374 -0.481867 0
M  V30 9963 C 962.527 -0.965917 -1.70776 0
M  V30 9964 O 961.652 -0.183167 -2.15623 0
M  V30 9965 C 962.247 -3.27146 -0.880978 0
M  V30 9966 C 960.806 -3.50921 -1.3613 0
M  V30 9967 C 959.953 -2.75237 -0.337611 0
M  V30 9968 H 962.904 -1.56222 0.279353 0
M  V30 9969 H 962.925 -3.38193 -1.74373 0
M  V30 9970 H 962.437 -3.88098 0.011441 0
M  V30 9971 H 960.538 -2.95251 -2.27283 0
M  V30 9972 H 960.651 -4.59632 -1.35186 0
M  V30 9973 H 959.015 -2.41444 -0.810991 0
M  V30 9974 H 959.798 -3.38918 0.546763 0
M  V30 9975 N 962.243 0.219913 -1.56058 0
M  V30 9976 C 963.153 1.29349 -1.95719 0
M  V30 9977 C 964.169 1.5119 -0.861248 0
M  V30 9978 O 965.345 1.64289 -1.16495 0
M  V30 9979 C 962.41 2.6229 -2.26726 0
M  V30 9980 C 961.471 2.48738 -3.49897 0
M  V30 9981 C 960.704 3.75339 -3.79416 0
M  V30 9982 O 960.927 4.78427 -3.10586 0
M  V30 9983 O 959.861 3.72352 -4.72903 0
M  V30 9984 H 963.687 0.986979 -2.87215 0
M  V30 9985 H 961.272 0.42291 -1.43289 0
M  V30 9986 H 963.154 3.408 -2.47857 0
M  V30 9987 H 961.829 2.92619 -1.38404 0
M  V30 9988 H 960.736 1.68422 -3.34043 0
M  V30 9989 H 962.069 2.23347 -4.38608 0
M  V30 9990 N 963.721 1.49897 0.486681 0
M  V30 9991 C 964.969 1.59789 1.23742 0
M  V30 9992 C 965.29 0.293056 1.92785 0
M  V30 9993 O 964.56 -0.688534 1.83401 0
M  V30 9994 H 963.14 0.588775 0.459731 0
M  V30 9995 H 965.802 1.86597 0.562808 0
M  V30 9996 H 964.898 2.40121 1.9937 0
M  V30 9997 N 965.199 -0.738761 1.39212 0
M  V30 9998 C 966.147 -1.8741 1.3777 0
M  V30 9999 C 967.141 -1.67371 0.261375 0
M  V30 10000 O 968.347 -1.74759 0.431209 0
M  V30 10001 H 964.722 -0.616843 0.430126 0
M  V30 10002 H 966.693 -1.85742 2.33543 0
M  V30 10003 C 965.442 -3.25053 1.23433 0
M  V30 10004 H 964.765 -3.41066 2.086 0
M  V30 10005 H 966.205 -4.04696 1.2648 0
M  V30 10006 C 964.664 -3.36851 -0.0575624 0
M  V30 10007 O 965.194 -3.88293 -1.02915 0
M  V30 10008 N 963.4 -2.90355 -0.119364 0
M  V30 10009 H 962.947 -2.48681 0.671976 0
M  V30 10010 H 962.905 -2.98628 -0.983286 0
M  V30 10011 N 966.677 -1.24326 -0.968545 0
M  V30 10012 C 967.926 -1.07647 -1.70572 0
M  V30 10013 C 968.239 0.384821 -1.91777 0
M  V30 10014 O 969.445 0.671782 -2.63058 0
M  V30 10015 C 967.901 -1.87799 -3.07017 0
M  V30 10016 C 967.509 -3.38333 -2.93658 0
M  V30 10017 C 969.253 -1.79647 -3.84613 0
M  V30 10018 C 967.16 -4.10831 -4.25407 0
M  V30 10019 H 966.09 -0.399216 -0.639642 0
M  V30 10020 H 968.741 -1.484 -1.07934 0
M  V30 10021 H 967.123 -1.3986 -3.7048 0
M  V30 10022 H 968.297 -3.93845 -2.39213 0
M  V30 10023 H 966.612 -3.47427 -2.29528 0
M  V30 10024 H 969.209 -2.31116 -4.82172 0
M  V30 10025 H 969.552 -0.761553 -4.09275 0
M  V30 10026 H 970.085 -2.25261 -3.27875 0
M  V30 10027 H 966.824 -5.14679 -4.05939 0
M  V30 10028 H 966.344 -3.60105 -4.79671 0
M  V30 10029 H 968.023 -4.17783 -4.94031 0
M  V30 10030 N 968.156 1.1691 -1.05688 0
M  V30 10031 C 969.086 2.23275 -0.683402 0
M  V30 10032 C 970.067 1.6704 0.321206 0
M  V30 10033 O 971.252 1.93191 0.197691 0
M  V30 10034 C 968.382 3.47244 -0.0626006 0
M  V30 10035 C 967.336 4.16333 -0.992513 0
M  V30 10036 C 966.662 5.34182 -0.23533 0
M  V30 10037 C 967.962 4.68002 -2.31886 0
M  V30 10038 H 969.656 2.54771 -1.57264 0
M  V30 10039 H 967.202 1.2246 -0.757606 0
M  V30 10040 H 969.155 4.20874 0.210503 0
M  V30 10041 H 967.879 3.1503 0.861616 0
M  V30 10042 H 966.538 3.44622 -1.25026 0
M  V30 10043 H 966.186 4.9822 0.69181 0
M  V30 10044 H 965.886 5.81346 -0.855002 0
M  V30 10045 H 967.41 6.10592 0.0303717 0
M  V30 10046 H 968.824 5.33244 -2.10531 0
M  V30 10047 H 967.221 5.25764 -2.89296 0
M  V30 10048 H 968.291 3.84541 -2.95391 0
M  V30 10049 N 969.634 0.838594 1.33437 0
M  V30 10050 C 970.911 0.356112 1.92331 0
M  V30 10051 C 971.291 -1.1585 1.76471 0
M  V30 10052 O 970.639 -1.97281 1.15293 0
M  V30 10053 C 970.849 0.802715 3.39643 0
M  V30 10054 C 972.197 0.810575 4.16791 0
M  V30 10055 O 973.221 0.746304 3.48294 0
M  V30 10056 O 972.08 0.898082 5.3907 0
M  V30 10057 H 969.174 0.100711 0.820845 0
M  V30 10058 H 971.72 0.924428 1.42311 0
M  V30 10059 H 970.492 1.84529 3.45057 0
M  V30 10060 H 970.115 0.210956 3.9704 0
M  V30 10061 N 971.112 -1.45937 0.595003 0
M  V30 10062 C 972.342 -2.06399 0.0911607 0
M  V30 10063 C 972.75 -1.44236 -1.22444 0
M  V30 10064 O 972.093 -0.546265 -1.7539 0
M  V30 10065 C 972.155 -3.59242 -0.136079 0
M  V30 10066 C 971.819 -4.43668 1.09579 0
M  V30 10067 C 972.816 -4.79437 2.01088 0
M  V30 10068 C 970.501 -4.84616 1.32109 0
M  V30 10069 C 972.495 -5.54995 3.13464 0
M  V30 10070 C 970.182 -5.5993 2.44788 0
M  V30 10071 C 971.18 -5.95035 3.35294 0
M  V30 10072 O 970.868 -6.68825 4.46014 0
M  V30 10073 H 970.6 -0.673316 0.0601779 0
M  V30 10074 H 973.154 -1.88365 0.819005 0
M  V30 10075 H 971.384 -3.75629 -0.918676 0
M  V30 10076 H 973.073 -4.0159 -0.589954 0
M  V30 10077 H 973.839 -4.48371 1.84902 0
M  V30 10078 H 969.718 -4.56735 0.625662 0
M  V30 10079 H 973.262 -5.82314 3.84131 0
M  V30 10080 H 969.159 -5.90411 2.60931 0
M  V30 10081 H 969.927 -6.87262 4.44537 0
M  V30 10082 N 972.59 -0.333456 -1.54032 0
M  V30 10083 C 973.553 0.515392 -2.2333 0
M  V30 10084 C 974.553 1.03566 -1.23007 0
M  V30 10085 O 975.743 0.926514 -1.47517 0
M  V30 10086 C 972.875 1.7169 -2.94508 0
M  V30 10087 H 974.068 -0.0905407 -2.99763 0
M  V30 10088 H 971.621 -0.0846651 -1.56071 0
M  V30 10089 H 972.356 2.3618 -2.22237 0
M  V30 10090 H 972.141 1.35115 -3.68085 0
M  V30 10091 H 973.631 2.31922 -3.47278 0
M  V30 10092 N 974.068 1.57479 -0.061844 0
M  V30 10093 C 975.016 2.13346 0.926629 0
M  V30 10094 C 976.01 1.06787 1.31502 0
M  V30 10095 O 977.216 1.25181 1.29343 0
M  V30 10096 H 973.591 0.682046 0.316729 0
M  V30 10097 H 975.562 2.95279 0.430424 0
M  V30 10098 C 974.311 2.70198 2.18834 0
M  V30 10099 H 973.634 3.51859 1.89829 0
M  V30 10100 H 975.074 3.12897 2.86132 0
M  V30 10101 C 973.533 1.64481 2.9402 0
M  V30 10102 O 974.063 1.0639 3.87355 0
M  V30 10103 N 972.269 1.35749 2.56944 0
M  V30 10104 H 971.816 1.83177 1.81119 0
M  V30 10105 H 971.774 0.652469 3.07555 0
M  V30 10106 N 975.546 -0.211634 1.56173 0
M  V30 10107 C 976.493 -1.26231 1.93221 0
M  V30 10108 C 977.463 -1.46076 0.790641 0
M  V30 10109 O 978.648 -1.59482 1.04739 0
M  V30 10110 C 975.788 -2.60559 2.26281 0
M  V30 10111 C 974.901 -2.48431 3.5342 0
M  V30 10112 C 974.036 -3.7535 3.7588 0
M  V30 10113 C 973.075 -3.57985 4.96501 0
M  V30 10114 N 972.212 -4.76877 5.15299 0
M  V30 10115 H 977.052 -0.939367 2.82807 0
M  V30 10116 H 974.589 -0.452511 1.39967 0
M  V30 10117 H 976.547 -3.38796 2.43461 0
M  V30 10118 H 975.177 -2.9093 1.39855 0
M  V30 10119 H 974.229 -1.61577 3.44379 0
M  V30 10120 H 975.541 -2.31526 4.41811 0
M  V30 10121 H 974.695 -4.62029 3.9321 0
M  V30 10122 H 973.434 -3.95191 2.85788 0
M  V30 10123 H 972.439 -2.69691 4.79111 0
M  V30 10124 H 973.664 -3.39605 5.88086 0
M  V30 10125 H 971.61 -4.97013 4.28152 0
M  V30 10126 H 971.527 -4.62735 5.9784 0
M  V30 10127 H 972.795 -5.64954 5.37073 0
M  V30 10128 N 977.024 -1.50153 -0.478725 0
M  V30 10129 C 977.956 -1.64603 -1.59494 0
M  V30 10130 C 978.969 -0.527789 -1.54007 0
M  V30 10131 O 980.158 -0.80069 -1.59534 0
M  V30 10132 C 977.258 -1.60738 -2.98356 0
M  V30 10133 C 976.431 -2.88468 -3.28794 0
M  V30 10134 C 975.49 -2.77349 -4.47173 0
M  V30 10135 O 974.516 -3.51302 -4.47857 0
M  V30 10136 N 975.718 -1.9039 -5.4839 0
M  V30 10137 H 978.483 -2.6088 -1.47518 0
M  V30 10138 H 976.044 -1.47521 -0.667011 0
M  V30 10139 H 978.036 -1.50923 -3.75505 0
M  V30 10140 H 976.606 -0.722273 -3.04141 0
M  V30 10141 H 975.826 -3.12467 -2.40329 0
M  V30 10142 H 977.114 -3.73102 -3.45937 0
M  V30 10143 H 976.512 -1.29606 -5.50653 0
M  V30 10144 H 975.069 -1.86484 -6.24553 0
M  V30 10145 N 978.502 0.731368 -1.39602 0
M  V30 10146 C 979.432 1.85855 -1.41351 0
M  V30 10147 C 980.413 1.67839 -0.2764 0
M  V30 10148 O 981.598 1.88104 -0.482747 0
M  V30 10149 C 978.728 3.23644 -1.25983 0
M  V30 10150 C 977.682 3.56304 -2.37132 0
M  V30 10151 C 977.008 4.93069 -2.0685 0
M  V30 10152 C 978.308 3.58906 -3.79452 0
M  V30 10153 H 980.002 1.84648 -2.3568 0
M  V30 10154 H 977.548 0.886955 -1.13442 0
M  V30 10155 H 979.501 4.02176 -1.25826 0
M  V30 10156 H 978.225 3.25387 -0.281234 0
M  V30 10157 H 976.884 2.80104 -2.36511 0
M  V30 10158 H 976.532 4.91396 -1.0742 0
M  V30 10159 H 976.232 5.15888 -2.81306 0
M  V30 10160 H 977.756 5.73953 -2.0835 0
M  V30 10161 H 979.17 4.27508 -3.81982 0
M  V30 10162 H 977.567 3.93246 -4.53297 0
M  V30 10163 H 978.637 2.58631 -4.10168 0
M  V30 10164 N 979.98 1.24838 0.961938 0
M  V30 10165 C 980.943 1.04674 2.03902 0
M  V30 10166 C 981.943 0.00204674 1.608 0
M  V30 10167 O 983.133 0.243555 1.72489 0
M  V30 10168 C 980.265 0.587736 3.35795 0
M  V30 10169 H 981.458 2.00278 2.23223 0
M  V30 10170 H 979.011 1.07142 1.138 0
M  V30 10171 H 979.746 -0.371244 3.22168 0
M  V30 10172 H 979.531 1.34182 3.68426 0
M  V30 10173 H 981.021 0.467867 4.14971 0
M  V30 10174 N 981.458 -1.16348 1.06306 0
M  V30 10175 C 982.706 -1.86512 0.778311 0
M  V30 10176 C 983.027 -1.82107 -0.697273 0
M  V30 10177 O 982.297 -1.2547 -1.50446 0
M  V30 10178 H 980.877 -0.690529 0.284919 0
M  V30 10179 H 983.539 -1.41092 1.34458 0
M  V30 10180 H 982.635 -2.91947 1.10333 0
M  V30 10181 N 982.937 -0.845659 -1.3299 0
M  V30 10182 C 983.867 -0.298957 -2.31578 0
M  V30 10183 C 984.848 0.597012 -1.59279 0
M  V30 10184 O 986.033 0.519142 -1.87132 0
M  V30 10185 C 983.163 0.521109 -3.43368 0
M  V30 10186 C 982.117 -0.279651 -4.27085 0
M  V30 10187 C 981.443 0.664591 -5.30554 0
M  V30 10188 C 982.743 -1.50046 -5.00283 0
M  V30 10189 H 984.437 -1.12272 -2.77552 0
M  V30 10190 H 981.983 -0.54132 -1.33438 0
M  V30 10191 H 983.936 0.913921 -4.1137 0
M  V30 10192 H 982.66 1.37815 -2.96099 0
M  V30 10193 H 981.319 -0.654106 -3.60717 0
M  V30 10194 H 980.967 1.51822 -4.79541 0
M  V30 10195 H 980.667 0.132871 -5.8745 0
M  V30 10196 H 982.191 1.05477 -6.01421 0
M  V30 10197 H 983.605 -1.18044 -5.61016 0
M  V30 10198 H 982.002 -1.96946 -5.66862 0
M  V30 10199 H 983.072 -2.26659 -4.28665 0
M  V30 10200 N 984.415 1.45619 -0.602734 0
M  V30 10201 C 985.661 2.02572 -0.0961759 0
M  V30 10202 C 985.994 1.47076 1.26815 0
M  V30 10203 O 985.269 0.643566 1.83544 0
M  V30 10204 C 985.552 3.60062 -0.0520032 0
M  V30 10205 C 985.405 4.25901 -1.44665 0
M  V30 10206 C 986.724 4.35446 0.638342 0
M  V30 10207 H 983.843 0.736099 -0.0364238 0
M  V30 10208 H 986.485 1.7353 -0.773776 0
M  V30 10209 H 984.635 3.84936 0.525032 0
M  V30 10210 H 986.307 4.12228 -2.0704 0
M  V30 10211 H 984.55 3.84489 -2.00874 0
M  V30 10212 H 985.221 5.34779 -1.36803 0
M  V30 10213 H 987.697 4.15837 0.147926 0
M  V30 10214 H 986.573 5.45176 0.63834 0
M  V30 10215 H 986.834 4.07962 1.70351 0
M  V30 10216 N 985.893 0.34162 1.53853 0
M  V30 10217 C 986.856 -0.503541 2.236 0
M  V30 10218 C 987.856 -1.02912 1.23554 0
M  V30 10219 O 989.046 -0.918678 1.48007 0
M  V30 10220 C 986.178 -1.70126 2.95415 0
M  V30 10221 H 987.371 0.106437 2.99711 0
M  V30 10222 H 984.924 0.0929408 1.56023 0
M  V30 10223 H 985.659 -2.34999 2.23486 0
M  V30 10224 H 985.444 -1.33161 3.68796 0
M  V30 10225 H 986.934 -2.30077 3.48503 0
M  V30 10226 N 987.371 -1.57444 0.0701946 0
M  V30 10227 C 988.319 -2.13834 -0.915302 0
M  V30 10228 C 989.313 -1.07483 -1.30934 0
M  V30 10229 O 990.519 -1.25865 -1.28678 0
M  V30 10230 H 986.894 -0.683716 -0.313108 0
M  V30 10231 H 988.865 -2.95503 -0.414758 0
M  V30 10232 C 987.614 -2.71355 -2.17398 0
M  V30 10233 H 986.937 -3.52861 -1.87961 0
M  V30 10234 H 988.377 -3.1441 -2.84469 0
M  V30 10235 C 986.836 -1.66038 -2.93143 0
M  V30 10236 O 987.366 -1.08443 -3.86786 0
M  V30 10237 N 985.572 -1.3711 -2.56221 0
M  V30 10238 H 985.119 -1.84135 -1.80145 0
M  V30 10239 H 985.077 -0.66877 -3.07205 0
M  V30 10240 N 988.849 0.203349 -1.56283 0
M  V30 10241 C 990.079 0.940061 -1.83974 0
M  V30 10242 C 990.487 1.77703 -0.649486 0
M  V30 10243 O 989.83 1.79487 0.391189 0
M  V30 10244 C 989.892 1.89249 -3.05655 0
M  V30 10245 C 989.556 1.23828 -4.39904 0
M  V30 10246 C 990.553 0.619231 -5.16199 0
M  V30 10247 C 988.238 1.2446 -4.86636 0
M  V30 10248 C 990.232 0.0152287 -6.37398 0
M  V30 10249 C 987.919 0.636764 -6.07773 0
M  V30 10250 C 988.917 0.0231481 -6.82996 0
M  V30 10251 O 988.605 -0.575187 -8.0184 0
M  V30 10252 H 988.337 0.280199 -0.615194 0
M  V30 10253 H 990.891 0.218111 -2.04239 0
M  V30 10254 H 989.121 2.65392 -2.81254 0
M  V30 10255 H 990.81 2.4963 -3.20062 0
M  V30 10256 H 991.576 0.606545 -4.81192 0
M  V30 10257 H 987.455 1.71161 -4.28048 0
M  V30 10258 H 990.999 -0.464333 -6.96053 0
M  V30 10259 H 986.896 0.646924 -6.4225 0
M  V30 10260 H 987.664 -0.471284 -8.17142 0
M  V30 10261 N 990.327 1.50405 0.470755 0
M  V30 10262 C 991.557 1.64928 1.24428 0
M  V30 10263 C 991.965 0.332139 1.86262 0
M  V30 10264 O 991.308 -0.695919 1.70008 0
M  V30 10265 C 991.37 2.6829 2.39293 0
M  V30 10266 C 991.034 4.11835 1.98093 0
M  V30 10267 C 992.031 4.97693 1.50326 0
M  V30 10268 C 989.716 4.57753 2.06803 0
M  V30 10269 C 991.71 6.27516 1.11813 0
M  V30 10270 C 989.397 5.87582 1.67902 0
M  V30 10271 C 990.395 6.72289 1.20485 0
M  V30 10272 O 990.083 7.99694 0.821219 0
M  V30 10273 H 989.815 0.557418 0.382442 0
M  V30 10274 H 992.369 1.97382 0.568292 0
M  V30 10275 H 990.599 2.31079 3.10063 0
M  V30 10276 H 992.288 2.7203 3.01255 0
M  V30 10277 H 993.054 4.63434 1.43018 0
M  V30 10278 H 988.933 3.91966 2.42659 0
M  V30 10279 H 992.477 6.93586 0.747317 0
M  V30 10280 H 988.374 6.21362 1.74869 0
M  V30 10281 H 989.142 8.12968 0.950038 0
M  V30 10282 N 991.805 -0.723954 1.39988 0
M  V30 10283 C 993.033 -1.51313 1.4111 0
M  V30 10284 C 993.448 -1.88798 0.00853333 0
M  V30 10285 O 992.805 -1.54868 -0.965516 0
M  V30 10286 C 992.856 -2.79375 2.29416 0
M  V30 10287 O 992.577 -2.43478 3.64211 0
M  V30 10288 C 994.078 -3.7333 2.3904 0
M  V30 10289 H 991.298 -0.46724 0.481589 0
M  V30 10290 H 993.842 -0.893694 1.83938 0
M  V30 10291 H 991.997 -3.37624 1.89971 0
M  V30 10292 H 992.411 -3.25821 4.11024 0
M  V30 10293 H 993.885 -4.60051 3.05053 0
M  V30 10294 H 994.362 -4.15854 1.41289 0
M  V30 10295 H 994.968 -3.20996 2.79001 0
M  V30 10296 N 993.283 -1.25346 -0.955304 0
M  V30 10297 C 994.694 -1.09173 -1.51453 0
M  V30 10298 C 995.045 0.332755 -1.93358 0
M  V30 10299 O 994.17 1.22264 -1.78551 0
M  V30 10300 C 994.765 -1.97564 -2.75234 0
M  V30 10301 C 993.324 -1.85579 -3.27471 0
M  V30 10302 C 992.471 -1.91755 -2.00313 0
M  V30 10303 H 995.422 -1.38642 -0.772271 0
M  V30 10304 H 995.443 -1.51523 -3.49029 0
M  V30 10305 H 994.955 -3.01233 -2.44704 0
M  V30 10306 H 993.056 -0.847906 -3.62824 0
M  V30 10307 H 993.169 -2.70353 -3.95533 0
M  V30 10308 H 991.533 -1.35633 -2.15582 0
M  V30 10309 H 992.316 -2.97028 -1.72132 0
M  V30 10310 N 994.761 1.15782 -1.06922 0
M  V30 10311 C 996.177 1.38454 -0.793896 0
M  V30 10312 C 996.377 1.92238 0.603875 0
M  V30 10313 O 995.433 2.1253 1.36335 0
M  V30 10314 C 996.746 2.3595 -1.86408 0
M  V30 10315 C 998.294 2.49622 -1.88833 0
M  V30 10316 C 998.769 3.50406 -2.94923 0
M  V30 10317 N 1000.26 3.57938 -2.93997 0
M  V30 10318 C 1001 4.35728 -3.72731 0
M  V30 10319 N 1000.49 5.16888 -4.61301 0
M  V30 10320 N 1002.28 4.30774 -3.61096 0
M  V30 10321 H 994.435 0.792101 -1.97077 0
M  V30 10322 H 996.698 0.410779 -0.85438 0
M  V30 10323 H 996.404 2.03537 -2.86819 0
M  V30 10324 H 996.278 3.35677 -1.72049 0
M  V30 10325 H 998.665 2.81335 -0.890759 0
M  V30 10326 H 998.746 1.49909 -2.0727 0
M  V30 10327 H 998.39 3.19429 -3.94877 0
M  V30 10328 H 998.32 4.49864 -2.73734 0
M  V30 10329 H 1000.81 3.00007 -2.29791 0
M  V30 10330 H 1001.12 5.73477 -5.18019 0
M  V30 10331 H 999.469 5.16209 -4.65353 0
M  V30 10332 H 1002.66 3.66432 -2.91282 0
M  V30 10333 H 1002.83 4.91151 -4.22699 0
M  V30 10334 N 996.239 0.8527 1.3254 0
M  V30 10335 C 997.485 0.46507 1.98012 0
M  V30 10336 C 997.84 -0.968179 1.66265 0
M  V30 10337 O 997.133 -1.66985 0.9395 0
M  V30 10338 C 997.327 0.638757 3.51646 0
M  V30 10339 C 997.156 2.08734 3.98322 0
M  V30 10340 C 995.926 2.72544 4.25497 0
M  V30 10341 C 998.124 3.0577 4.13533 0
M  V30 10342 N 996.106 4.08333 4.58408 0
M  V30 10343 C 997.477 4.26542 4.49958 0
M  V30 10344 C 999.532 3.01991 3.95861 0
M  V30 10345 C 998.235 5.4403 4.70557 0
M  V30 10346 C 1000.26 4.18722 4.17643 0
M  V30 10347 C 999.623 5.38252 4.54383 0
M  V30 10348 H 995.722 0.218881 0.750743 0
M  V30 10349 H 998.306 1.10368 1.60397 0
M  V30 10350 H 996.477 0.0298629 3.88389 0
M  V30 10351 H 998.209 0.221215 4.04095 0
M  V30 10352 H 994.964 2.23594 4.17496 0
M  V30 10353 H 995.388 4.78372 4.79051 0
M  V30 10354 H 1000.03 2.107 3.66559 0
M  V30 10355 H 997.748 6.35854 4.98714 0
M  V30 10356 H 1001.33 4.17232 4.05474 0
M  V30 10357 H 1000.21 6.27075 4.709 0
M  V30 10358 N 997.718 -1.45297 0.610449 0
M  V30 10359 C 999.134 -1.57225 0.274332 0
M  V30 10360 C 999.334 -1.60136 -1.22306 0
M  V30 10361 O 998.39 -1.5332 -2.00622 0
M  V30 10362 C 999.703 -2.85365 0.948028 0
M  V30 10363 C 1001.25 -2.99044 0.924216 0
M  V30 10364 C 1001.73 -4.29958 1.57798 0
M  V30 10365 N 1003.22 -4.36723 1.5436 0
M  V30 10366 C 1003.95 -5.36695 2.01857 0
M  V30 10367 N 1003.45 -6.43187 2.57453 0
M  V30 10368 N 1005.24 -5.28071 1.92608 0
M  V30 10369 H 997.392 -1.41651 1.58268 0
M  V30 10370 H 999.655 -0.67744 0.663158 0
M  V30 10371 H 999.361 -2.89125 2.00249 0
M  V30 10372 H 999.235 -3.74222 0.473062 0
M  V30 10373 H 1001.62 -2.94849 -0.121709 0
M  V30 10374 H 1001.7 -2.1159 1.43748 0
M  V30 10375 H 1001.35 -4.34912 2.62325 0
M  V30 10376 H 1001.28 -5.16234 1.03972 0
M  V30 10377 H 1003.77 -3.60374 1.13749 0
M  V30 10378 H 1004.08 -7.15722 2.91482 0
M  V30 10379 H 1002.43 -6.4393 2.61493 0
M  V30 10380 H 1005.62 -4.43783 1.48912 0
M  V30 10381 H 1005.79 -6.05832 2.29938 0
M  V30 10382 N 999.196 -0.349774 -1.5367 0
M  V30 10383 C 1000.13 0.496338 -2.28164 0
M  V30 10384 C 1001.11 1.09737 -1.29968 0
M  V30 10385 O 1002.29 1.11759 -1.58819 0
M  V30 10386 C 999.422 1.64428 -3.0591 0
M  V30 10387 C 998.376 1.17127 -4.11661 0
M  V30 10388 C 997.702 2.40822 -4.77398 0
M  V30 10389 C 999.002 0.267293 -5.21616 0
M  V30 10390 H 1000.7 -0.125117 -2.99138 0
M  V30 10391 H 998.242 -0.0616152 -1.43868 0
M  V30 10392 H 1000.19 2.2427 -3.56765 0
M  V30 10393 H 998.919 2.29272 -2.32598 0
M  V30 10394 H 997.578 0.595634 -3.61729 0
M  V30 10395 H 997.226 3.04088 -4.00674 0
M  V30 10396 H 996.926 2.09852 -5.48849 0
M  V30 10397 H 998.45 3.01378 -5.3104 0
M  V30 10398 H 999.864 0.772734 -5.68068 0
M  V30 10399 H 998.261 0.0491991 -6.0008 0
M  V30 10400 H 999.331 -0.694892 -4.79895 0
M  V30 10401 N 1000.67 1.57404 -0.0785433 0
M  V30 10402 C 1001.92 1.93744 0.589024 0
M  V30 10403 C 1002.25 0.959087 1.69209 0
M  V30 10404 O 1001.5 -0.0241604 1.95685 0
M  V30 10405 C 1001.8 3.36684 1.1991 0
M  V30 10406 C 1001.47 4.50356 0.221493 0
M  V30 10407 C 1000.13 4.81177 -0.0474347 0
M  V30 10408 C 1002.48 5.1928 -0.446941 0
M  V30 10409 C 999.811 5.78257 -0.99177 0
M  V30 10410 C 1002.16 6.17372 -1.37964 0
M  V30 10411 C 1000.83 6.46607 -1.65697 0
M  V30 10412 H 1000.1 0.70896 0.215539 0
M  V30 10413 H 1002.74 1.90905 -0.150856 0
M  V30 10414 H 1001.05 3.36022 2.01486 0
M  V30 10415 H 1002.75 3.62095 1.72303 0
M  V30 10416 H 999.336 4.26322 0.441284 0
M  V30 10417 H 1003.52 4.95658 -0.252298 0
M  V30 10418 H 998.776 5.9923 -1.21381 0
M  V30 10419 H 1002.95 6.6988 -1.9035 0
M  V30 10420 H 1000.58 7.21643 -2.39031 0
M  V30 10421 N 1002.15 -0.195058 1.56388 0
M  V30 10422 C 1003.08 -1.24444 1.97575 0
M  V30 10423 C 1004.06 -1.47471 0.847717 0
M  V30 10424 O 1005.25 -1.59208 1.11205 0
M  V30 10425 C 1002.38 -2.58866 2.31529 0
M  V30 10426 C 1001.33 -2.50451 3.47071 0
M  V30 10427 C 1000.66 -3.89146 3.667 0
M  V30 10428 C 1001.96 -2.02953 4.81256 0
M  V30 10429 H 1003.65 -0.902178 2.85484 0
M  V30 10430 H 1001.2 -0.43254 1.3735 0
M  V30 10431 H 1003.15 -3.3246 2.58936 0
M  V30 10432 H 1001.87 -2.94833 1.40502 0
M  V30 10433 H 1000.53 -1.79313 3.19754 0
M  V30 10434 H 1000.18 -4.22466 2.73004 0
M  V30 10435 H 999.882 -3.84391 4.44429 0
M  V30 10436 H 1001.41 -4.64363 3.96484 0
M  V30 10437 H 1002.82 -2.66306 5.07695 0
M  V30 10438 H 1001.22 -2.092 5.62455 0
M  V30 10439 H 1002.29 -0.982757 4.74837 0
M  V30 10440 N 1003.63 -1.50653 -0.462772 0
M  V30 10441 C 1004.54 -1.72923 -1.58539 0
M  V30 10442 C 1005.56 -0.612577 -1.6286 0
M  V30 10443 O 1006.73 -0.891885 -1.80575 0
M  V30 10444 C 1003.8 -1.82623 -2.94703 0
M  V30 10445 C 1002.86 -3.06392 -3.00704 0
M  V30 10446 C 1002.09 -3.15618 -4.30373 0
M  V30 10447 O 1002.31 -2.31423 -5.21344 0
M  V30 10448 O 1001.25 -4.0841 -4.42136 0
M  V30 10449 H 1005.07 -2.68103 -1.42669 0
M  V30 10450 H 1002.66 -1.34848 -0.643144 0
M  V30 10451 H 1004.54 -1.91134 -3.7556 0
M  V30 10452 H 1003.22 -0.906275 -3.10754 0
M  V30 10453 H 1002.12 -3.03375 -2.18894 0
M  V30 10454 H 1003.46 -3.97992 -2.89591 0
M  V30 10455 N 1005.11 0.71652 -1.4037 0
M  V30 10456 C 1006.07 1.81231 -1.40313 0
M  V30 10457 C 1007.07 1.58032 -0.297087 0
M  V30 10458 O 1008.26 1.65091 -0.555944 0
M  V30 10459 C 1005.39 3.19308 -1.19395 0
M  V30 10460 H 1006.59 1.8268 -2.3784 0
M  V30 10461 H 1004.14 0.922062 -1.26205 0
M  V30 10462 H 1004.87 3.2351 -0.226252 0
M  V30 10463 H 1004.66 3.37546 -1.99512 0
M  V30 10464 H 1006.15 3.99339 -1.22141 0
M  V30 10465 N 1006.59 1.25851 0.948643 0
M  V30 10466 C 1007.52 1.09248 2.06367 0
M  V30 10467 C 1008.5 -0.000205168 1.701 0
M  V30 10468 O 1009.68 0.170442 1.93451 0
M  V30 10469 C 1006.81 0.716777 3.39823 0
M  V30 10470 C 1005.77 1.76036 3.90122 0
M  V30 10471 C 1005.09 1.23918 5.20143 0
M  V30 10472 C 1006.39 3.16039 4.15833 0
M  V30 10473 H 1008.09 2.02518 2.20515 0
M  V30 10474 H 1005.63 0.975093 1.05962 0
M  V30 10475 H 1007.59 0.587531 4.17284 0
M  V30 10476 H 1006.31 -0.251626 3.25629 0
M  V30 10477 H 1004.97 1.87815 3.14835 0
M  V30 10478 H 1004.62 0.260836 5.02323 0
M  V30 10479 H 1004.32 1.93673 5.54765 0
M  V30 10480 H 1005.84 1.12245 6.00194 0
M  V30 10481 H 1007.25 3.0738 4.83933 0
M  V30 10482 H 1005.65 3.83317 4.61723 0
M  V30 10483 H 1006.72 3.62652 3.21887 0
M  V30 10484 N 1008.06 -1.15214 1.07534 0
M  V30 10485 C 1009.31 -1.86319 0.800814 0
M  V30 10486 C 1009.64 -1.82221 -0.671494 0
M  V30 10487 O 1008.92 -1.24664 -1.49295 0
M  V30 10488 C 1009.2 -3.35347 1.31203 0
M  V30 10489 C 1009.05 -3.48067 2.84902 0
M  V30 10490 C 1010.37 -4.3016 0.930064 0
M  V30 10491 H 1007.49 -0.676523 0.292379 0
M  V30 10492 H 1010.13 -1.35349 1.33344 0
M  V30 10493 H 1008.28 -3.78886 0.858949 0
M  V30 10494 H 1009.96 -3.13379 3.38514 0
M  V30 10495 H 1008.2 -2.89566 3.23008 0
M  V30 10496 H 1008.87 -4.52782 3.15741 0
M  V30 10497 H 1011.35 -3.94591 1.3205 0
M  V30 10498 H 1010.22 -5.32914 1.31507 0
M  V30 10499 H 1010.48 -4.41796 -0.163824 0
M  V30 10500 N 1009.54 -0.859717 -1.32086 0
M  V30 10501 C 1010.82 -0.386665 -1.9174 0
M  V30 10502 C 1011.2 1.13028 -1.78292 0
M  V30 10503 O 1010.55 1.95422 -1.18417 0
M  V30 10504 C 1010.76 -0.856648 -3.38323 0
M  V30 10505 C 1012.11 -0.87678 -4.15449 0
M  V30 10506 O 1013.13 -0.80162 -3.47063 0
M  V30 10507 O 1011.99 -0.98373 -5.37573 0
M  V30 10508 H 1009.08 -0.113758 -0.819139 0
M  V30 10509 H 1011.63 -0.946952 -1.40822 0
M  V30 10510 H 1010.4 -1.89996 -3.42078 0
M  V30 10511 H 1010.02 -0.274095 -3.96654 0
M  V30 10512 N 1011.02 1.44971 -0.618145 0
M  V30 10513 C 1012.25 2.07039 -0.122395 0
M  V30 10514 C 1012.67 1.45793 1.18853 0
M  V30 10515 O 1012.03 0.55453 1.72611 0
M  V30 10516 C 1012.08 3.60599 -0.0073864 0
M  V30 10517 O 1011.18 3.99069 1.04007 0
M  V30 10518 H 1010.52 0.6593 -0.0788615 0
M  V30 10519 H 1013.05 1.86055 -0.851147 0
M  V30 10520 H 1013.06 4.07569 0.187417 0
M  V30 10521 H 1011.74 4.04561 -0.964544 0
M  V30 10522 H 1010.31 3.63753 0.820879 0
M  V30 10523 N 1012.5 0.357919 1.53482 0
M  V30 10524 C 1013.74 -0.23451 2.0144 0
M  V30 10525 C 1014.08 -1.49044 1.24497 0
M  V30 10526 O 1013.35 -1.91566 0.336535 0
M  V30 10527 C 1013.64 -0.534193 3.56116 0
M  V30 10528 C 1013.49 0.734834 4.43757 0
M  V30 10529 C 1014.81 -1.33793 4.1927 0
M  V30 10530 H 1011.93 -0.0837595 0.732225 0
M  V30 10531 H 1014.57 0.481297 1.83803 0
M  V30 10532 H 1012.72 -1.144 3.71275 0
M  V30 10533 H 1014.39 1.37251 4.40409 0
M  V30 10534 H 1012.63 1.35678 4.12036 0
M  V30 10535 H 1013.3 0.48021 5.49907 0
M  V30 10536 H 1015.78 -0.822158 4.07897 0
M  V30 10537 H 1014.66 -1.51636 5.27539 0
M  V30 10538 H 1014.92 -2.34423 3.74831 0
M  V30 10539 N 1013.98 -1.5736 0.0868897 0
M  V30 10540 C 1014.94 -2.12436 -0.860439 0
M  V30 10541 C 1015.94 -1.05175 -1.21634 0
M  V30 10542 O 1017.13 -1.31098 -1.14713 0
M  V30 10543 C 1014.26 -2.63818 -2.159 0
M  V30 10544 H 1015.45 -2.97453 -0.382346 0
M  V30 10545 H 1013.01 -1.55458 -0.162009 0
M  V30 10546 H 1013.74 -1.82298 -2.68212 0
M  V30 10547 H 1013.53 -3.42234 -1.91359 0
M  V30 10548 H 1015.02 -3.06452 -2.83685 0
M  V30 10549 N 1015.45 0.186762 -1.56489 0
M  V30 10550 C 1016.39 1.25565 -1.91745 0
M  V30 10551 C 1017.4 1.4128 -0.80894 0
M  V30 10552 O 1018.59 1.41558 -1.08737 0
M  V30 10553 C 1015.69 2.62662 -2.14154 0
M  V30 10554 C 1014.86 2.68448 -3.45333 0
M  V30 10555 C 1013.92 3.86798 -3.56754 0
M  V30 10556 O 1012.95 3.73514 -4.29507 0
M  V30 10557 N 1014.15 5.02607 -2.90459 0
M  V30 10558 H 1016.91 0.956351 -2.84032 0
M  V30 10559 H 1014.47 0.376631 -1.57458 0
M  V30 10560 H 1016.47 3.40277 -2.19075 0
M  V30 10561 H 1015.04 2.85046 -1.28326 0
M  V30 10562 H 1014.26 1.77044 -3.52206 0
M  V30 10563 H 1015.54 2.69311 -4.31682 0
M  V30 10564 H 1014.94 5.163 -2.31194 0
M  V30 10565 H 1013.5 5.78139 -3.00996 0
M  V30 10566 N 1016.93 1.50896 0.454776 0
M  V30 10567 C 1018.18 1.62378 1.20324 0
M  V30 10568 C 1018.5 0.333883 1.9212 0
M  V30 10569 O 1017.77 -0.649477 1.8482 0
M  V30 10570 H 1016.35 0.598395 0.447139 0
M  V30 10571 H 1019.01 1.87749 0.523102 0
M  V30 10572 H 1018.11 2.44296 1.94232 0
M  V30 10573 N 1018.41 -0.709066 1.40748 0
M  V30 10574 C 1019.66 -1.4646 1.38681 0
M  V30 10575 C 1019.97 -1.95599 -0.0056209 0
M  V30 10576 O 1021.18 -2.71091 -0.148907 0
M  V30 10577 C 1019.63 -2.64771 2.43771 0
M  V30 10578 C 1019.24 -2.22474 3.88856 0
M  V30 10579 C 1020.99 -3.42475 2.50821 0
M  V30 10580 C 1018.89 -3.37663 4.85528 0
M  V30 10581 H 1017.82 -0.550084 0.515678 0
M  V30 10582 H 1020.47 -0.771074 1.66513 0
M  V30 10583 H 1018.86 -3.36325 2.09048 0
M  V30 10584 H 1020.03 -1.58297 4.32757 0
M  V30 10585 H 1018.35 -1.57798 3.85342 0
M  V30 10586 H 1020.94 -4.28201 3.20232 0
M  V30 10587 H 1021.29 -3.86738 1.54076 0
M  V30 10588 H 1021.82 -2.77969 2.84567 0
M  V30 10589 H 1018.56 -2.98426 5.83628 0
M  V30 10590 H 1018.08 -4.00734 4.46287 0
M  V30 10591 H 1019.76 -4.03636 5.05655 0
M  V30 10592 N 1019.89 -1.26353 -0.941956 0
M  V30 10593 C 1021.3 -1.10774 -1.50287 0
M  V30 10594 C 1021.65 0.312229 -1.937 0
M  V30 10595 O 1020.78 1.20364 -1.79838 0
M  V30 10596 C 1021.37 -2.00473 -2.73123 0
M  V30 10597 C 1019.93 -1.89042 -3.25485 0
M  V30 10598 C 1019.08 -1.93869 -1.98267 0
M  V30 10599 H 1022.03 -1.39454 -0.757523 0
M  V30 10600 H 1022.05 -1.55216 -3.47402 0
M  V30 10601 H 1021.56 -3.03812 -2.41495 0
M  V30 10602 H 1019.66 -0.886341 -3.61904 0
M  V30 10603 H 1019.78 -2.74533 -3.92643 0
M  V30 10604 H 1018.14 -1.37912 -2.14132 0
M  V30 10605 H 1018.92 -2.98837 -1.68972 0
M  V30 10606 N 1021.37 1.14642 -1.08144 0
M  V30 10607 C 1022.61 1.85617 -0.809484 0
M  V30 10608 C 1022.94 1.8279 0.664672 0
M  V30 10609 O 1022.2 1.25178 1.50429 0
M  V30 10610 C 1022.5 3.33953 -1.2732 0
M  V30 10611 C 1022.16 3.56969 -2.7547 0
M  V30 10612 C 1020.82 3.6296 -3.15933 0
M  V30 10613 C 1023.18 3.66014 -3.71057 0
M  V30 10614 C 1020.5 3.75515 -4.50783 0
M  V30 10615 C 1022.86 3.80094 -5.05679 0
M  V30 10616 C 1021.52 3.84333 -5.45751 0
M  V30 10617 H 1020.79 0.67922 -0.296211 0
M  V30 10618 H 1023.44 1.35433 -1.35389 0
M  V30 10619 H 1021.74 3.86399 -0.648329 0
M  V30 10620 H 1023.44 3.87291 -1.03957 0
M  V30 10621 H 1020.03 3.52953 -2.4315 0
M  V30 10622 H 1024.21 3.60679 -3.40917 0
M  V30 10623 H 1019.47 3.77057 -4.81288 0
M  V30 10624 H 1023.64 3.86035 -5.79612 0
M  V30 10625 H 1021.27 3.93814 -6.50242 0
M  V30 10626 N 1022.85 0.866709 1.31628 0
M  V30 10627 C 1023.78 0.277328 2.27516 0
M  V30 10628 C 1024.79 -0.557786 1.52946 0
M  V30 10629 O 1025.98 -0.38031 1.74402 0
M  V30 10630 C 1023.08 -0.625742 3.33073 0
M  V30 10631 C 1022.25 0.176204 4.37045 0
M  V30 10632 C 1021.31 -0.654497 5.22114 0
M  V30 10633 O 1020.34 -0.0836961 5.69138 0
M  V30 10634 N 1021.54 -1.96708 5.46156 0
M  V30 10635 H 1024.3 1.10133 2.78731 0
M  V30 10636 H 1021.87 0.72787 1.44616 0
M  V30 10637 H 1023.86 -1.18709 3.86898 0
M  V30 10638 H 1022.43 -1.35042 2.81926 0
M  V30 10639 H 1021.65 0.918999 3.83338 0
M  V30 10640 H 1022.94 0.726594 5.03585 0
M  V30 10641 H 1022.33 -2.454 5.09701 0
M  V30 10642 H 1020.89 -2.47629 6.02929 0
M  V30 10643 N 1024.32 -1.44642 0.625825 0
M  V30 10644 C 1025.26 -2.28882 -0.120614 0
M  V30 10645 C 1026.27 -1.40985 -0.81407 0
M  V30 10646 O 1027.46 -1.65188 -0.676404 0
M  V30 10647 C 1024.56 -3.17217 -1.19274 0
M  V30 10648 C 1023.73 -4.33499 -0.582839 0
M  V30 10649 C 1022.79 -5.02908 -1.54823 0
M  V30 10650 O 1021.82 -5.59102 -1.06743 0
M  V30 10651 N 1023.02 -5.0387 -2.88262 0
M  V30 10652 H 1025.78 -2.93585 0.602318 0
M  V30 10653 H 1023.34 -1.5503 0.466604 0
M  V30 10654 H 1025.34 -3.60515 -1.83878 0
M  V30 10655 H 1023.91 -2.54301 -1.81797 0
M  V30 10656 H 1023.13 -3.93458 0.241696 0
M  V30 10657 H 1024.41 -5.08561 -0.155914 0
M  V30 10658 H 1023.81 -4.59539 -3.2991 0
M  V30 10659 H 1022.37 -5.50974 -3.4824 0
M  V30 10660 N 1025.8 -0.366053 -1.5329 0
M  V30 10661 C 1026.75 0.496656 -2.22525 0
M  V30 10662 C 1027.74 1.0483 -1.22063 0
M  V30 10663 O 1028.93 0.978266 -1.47509 0
M  V30 10664 C 1026.06 1.63559 -3.01833 0
M  V30 10665 C 1025.14 1.0968 -4.09672 0
M  V30 10666 N 1025.53 0.28104 -5.05019 0
M  V30 10667 C 1023.83 1.37157 -4.24387 0
M  V30 10668 C 1024.53 -0.0140071 -5.81698 0
M  V30 10669 N 1023.51 0.583743 -5.40457 0
M  V30 10670 H 1027.31 -0.133408 -2.93597 0
M  V30 10671 H 1024.82 -0.174095 -1.61464 0
M  V30 10672 H 1026.82 2.26582 -3.49952 0
M  V30 10673 H 1025.48 2.26871 -2.32292 0
M  V30 10674 H 1026.49 -0.0797947 -5.17839 0
M  V30 10675 H 1023.17 2.00743 -3.66072 0
M  V30 10676 H 1024.56 -0.673508 -6.68516 0
M  V30 10677 N 1027.28 1.57312 -0.0952337 0
M  V30 10678 C 1028.21 2.11059 0.893678 0
M  V30 10679 C 1029.22 1.04787 1.24594 0
M  V30 10680 O 1030.41 1.32233 1.19903 0
M  V30 10681 C 1027.51 2.57552 2.20272 0
M  V30 10682 C 1026.69 3.87661 2.02578 0
M  V30 10683 C 1025.75 4.2 3.16996 0
M  V30 10684 O 1024.77 4.89219 2.90953 0
M  V30 10685 N 1025.97 3.75414 4.42769 0
M  V30 10686 H 1028.74 2.96532 0.434632 0
M  V30 10687 H 1026.3 1.6165 0.0898661 0
M  V30 10688 H 1028.29 2.76232 2.95766 0
M  V30 10689 H 1026.86 1.7709 2.576 0
M  V30 10690 H 1026.08 3.78128 1.11413 0
M  V30 10691 H 1027.37 4.7278 1.88032 0
M  V30 10692 H 1026.77 3.1954 4.66809 0
M  V30 10693 H 1025.32 3.99249 5.15212 0
M  V30 10694 N 1028.76 -0.17846 1.56586 0
M  V30 10695 C 1030 -0.896235 1.81587 0
M  V30 10696 C 1030.33 -1.82553 0.671168 0
M  V30 10697 O 1029.59 -1.92688 -0.342046 0
M  V30 10698 C 1029.89 -1.73063 3.12704 0
M  V30 10699 C 1029.55 -0.950877 4.4076 0
M  V30 10700 C 1028.21 -0.735647 4.75544 0
M  V30 10701 C 1030.57 -0.403419 5.19636 0
M  V30 10702 C 1027.89 0.0382562 5.86688 0
M  V30 10703 C 1030.25 0.357359 6.3159 0
M  V30 10704 C 1028.91 0.583455 6.64945 0
M  V30 10705 H 1028.18 -0.327956 0.664474 0
M  V30 10706 H 1030.83 -0.161586 1.90817 0
M  V30 10707 H 1029.13 -2.53446 2.98785 0
M  V30 10708 H 1030.83 -2.28891 3.29257 0
M  V30 10709 H 1027.42 -1.12866 4.13472 0
M  V30 10710 H 1031.6 -0.557059 4.93164 0
M  V30 10711 H 1026.86 0.223237 6.10992 0
M  V30 10712 H 1031.03 0.788861 6.91918 0
M  V30 10713 H 1028.66 1.18502 7.50907 0
M  V30 10714 N 1030.24 -1.51135 -0.446768 0
M  V30 10715 C 1031.51 -1.5387 -1.20762 0
M  V30 10716 C 1031.89 -0.297446 -2.08994 0
M  V30 10717 O 1031.24 0.717975 -2.16927 0
M  V30 10718 C 1031.45 -2.84767 -2.01764 0
M  V30 10719 C 1032.8 -3.3636 -2.59128 0
M  V30 10720 O 1033.82 -2.86254 -2.11984 0
M  V30 10721 O 1032.68 -4.23765 -3.45088 0
M  V30 10722 H 1029.78 -0.618228 -0.549293 0
M  V30 10723 H 1032.32 -1.63442 -0.456605 0
M  V30 10724 H 1031.09 -3.6657 -1.36901 0
M  V30 10725 H 1030.72 -2.78313 -2.8395 0
M  V30 10726 N 1031.71 0.701592 -1.41122 0
M  V30 10727 C 1032.66 1.81559 -1.42495 0
M  V30 10728 C 1033.63 1.63722 -0.280078 0
M  V30 10729 O 1034.82 1.84658 -0.480231 0
M  V30 10730 C 1031.96 3.19392 -1.30702 0
M  V30 10731 C 1031.07 3.48704 -2.55009 0
M  V30 10732 C 1030.2 4.76118 -2.35554 0
M  V30 10733 C 1029.24 4.98378 -3.55367 0
M  V30 10734 N 1028.38 6.17014 -3.3502 0
M  V30 10735 H 1033.22 1.7972 -2.37707 0
M  V30 10736 H 1030.76 0.877727 -1.18044 0
M  V30 10737 H 1032.71 3.99004 -1.21867 0
M  V30 10738 H 1031.34 3.20423 -0.391012 0
M  V30 10739 H 1030.4 2.63542 -2.74317 0
M  V30 10740 H 1031.71 3.61057 -3.44151 0
M  V30 10741 H 1030.86 5.63774 -2.24152 0
M  V30 10742 H 1029.6 4.66 -1.43859 0
M  V30 10743 H 1028.61 4.09172 -3.6723 0
M  V30 10744 H 1029.83 5.10359 -4.48007 0
M  V30 10745 H 1027.78 6.0812 -2.4602 0
M  V30 10746 H 1027.69 6.30107 -4.17733 0
M  V30 10747 H 1028.96 7.0742 -3.27379 0
M  V30 10748 N 1033.19 1.2685 0.935242 0
M  V30 10749 C 1034.14 1.08746 2.05614 0
M  V30 10750 C 1035.13 0.012681 1.69395 0
M  V30 10751 O 1036.34 0.169822 1.79197 0
M  V30 10752 H 1032.71 0.33485 0.673335 0
M  V30 10753 H 1034.69 2.03725 2.18033 0
M  V30 10754 C 1033.43 0.74346 3.39659 0
M  V30 10755 H 1032.76 1.56236 3.68008 0
M  V30 10756 H 1034.2 0.656607 4.18885 0
M  V30 10757 C 1032.66 -0.551751 3.32351 0
M  V30 10758 O 1033.19 -1.58836 3.68963 0
M  V30 10759 N 1031.39 -0.544583 2.85452 0
M  V30 10760 H 1030.94 0.29939 2.55854 0
M  V30 10761 H 1030.9 -1.41129 2.80945 0
M  V30 10762 N 1034.67 -1.14067 1.0875 0
M  V30 10763 C 1035.92 -1.85459 0.82053 0
M  V30 10764 C 1036.25 -1.82923 -0.65213 0
M  V30 10765 O 1035.52 -1.26241 -1.47965 0
M  V30 10766 C 1035.81 -3.33937 1.34752 0
M  V30 10767 C 1035.66 -3.45026 2.88578 0
M  V30 10768 C 1036.98 -4.2915 0.975636 0
M  V30 10769 H 1034.1 -0.673384 0.299538 0
M  V30 10770 H 1036.74 -1.33927 1.34772 0
M  V30 10771 H 1034.89 -3.77953 0.899086 0
M  V30 10772 H 1036.56 -3.09771 3.41818 0
M  V30 10773 H 1034.81 -2.86124 3.26061 0
M  V30 10774 H 1035.48 -4.49408 3.20526 0
M  V30 10775 H 1037.95 -3.93168 1.36228 0
M  V30 10776 H 1036.83 -5.31489 1.37152 0
M  V30 10777 H 1037.09 -4.41945 -0.116956 0
M  V30 10778 N 1036.15 -0.873678 -1.31166 0
M  V30 10779 C 1037.4 -0.486457 -1.9657 0
M  V30 10780 C 1037.72 0.962042 -1.69041 0
M  V30 10781 O 1036.98 1.69305 -0.981543 0
M  V30 10782 C 1037.28 -0.69462 -3.50585 0
M  V30 10783 C 1036.94 -2.11647 -3.98141 0
M  V30 10784 C 1035.61 -2.50531 -4.10838 0
M  V30 10785 C 1037.96 -3.0436 -4.23101 0
M  V30 10786 C 1035.29 -3.81361 -4.45848 0
M  V30 10787 C 1037.64 -4.34709 -4.59577 0
M  V30 10788 C 1036.3 -4.73502 -4.70481 0
M  V30 10789 H 1035.57 -0.178007 -0.719301 0
M  V30 10790 H 1038.22 -1.10737 -1.56235 0
M  V30 10791 H 1036.52 0.00940878 -3.91799 0
M  V30 10792 H 1038.22 -0.374782 -3.99245 0
M  V30 10793 H 1034.81 -1.8046 -3.88757 0
M  V30 10794 H 1038.99 -2.75544 -4.12782 0
M  V30 10795 H 1034.25 -4.11174 -4.52488 0
M  V30 10796 H 1038.42 -5.06596 -4.77842 0
M  V30 10797 H 1036.05 -5.74919 -4.97365 0
M  V30 10798 N 1037.63 1.44308 -0.633487 0
M  V30 10799 C 1038.56 2.28943 0.108474 0
M  V30 10800 C 1039.57 1.41415 0.806582 0
M  V30 10801 O 1040.76 1.65544 0.667634 0
M  V30 10802 C 1037.86 3.17845 1.1759 0
M  V30 10803 C 1037.03 4.33802 0.559842 0
M  V30 10804 C 1036.09 5.03722 1.52154 0
M  V30 10805 O 1035.12 5.5966 1.03776 0
M  V30 10806 N 1036.32 5.05392 2.85586 0
M  V30 10807 H 1039.09 2.93262 -0.617879 0
M  V30 10808 H 1036.65 1.54781 -0.474819 0
M  V30 10809 H 1038.64 3.61485 1.81963 0
M  V30 10810 H 1037.21 2.55261 1.80445 0
M  V30 10811 H 1036.43 3.93325 -0.262559 0
M  V30 10812 H 1037.72 5.08637 0.128942 0
M  V30 10813 H 1037.11 4.61282 3.27468 0
M  V30 10814 H 1035.67 5.52813 3.45313 0
M  V30 10815 N 1039.1 0.374177 1.53094 0
M  V30 10816 C 1040.03 -0.459976 2.28925 0
M  V30 10817 C 1041.02 -1.07656 1.31698 0
M  V30 10818 O 1042.2 -1.09219 1.60577 0
M  V30 10819 C 1039.33 -1.5954 3.08487 0
M  V30 10820 C 1038.28 -1.10563 4.13473 0
M  V30 10821 C 1037.61 -2.33196 4.81169 0
M  V30 10822 C 1038.91 -0.184275 5.21975 0
M  V30 10823 H 1040.6 0.172692 2.98902 0
M  V30 10824 H 1038.15 0.0844956 1.43752 0
M  V30 10825 H 1040.1 -2.18565 3.60288 0
M  V30 10826 H 1038.83 -2.25543 2.36216 0
M  V30 10827 H 1037.49 -0.53801 3.62631 0
M  V30 10828 H 1037.13 -2.97675 4.05461 0
M  V30 10829 H 1036.83 -2.01094 5.52119 0
M  V30 10830 H 1038.36 -2.92892 5.35767 0
M  V30 10831 H 1039.77 -0.682262 5.69226 0
M  V30 10832 H 1038.17 0.0462746 6.00082 0
M  V30 10833 H 1039.24 0.771152 4.78729 0
M  V30 10834 N 1040.58 -1.57259 0.103575 0
M  V30 10835 C 1041.49 -2.18018 -0.866327 0
M  V30 10836 C 1042.51 -1.15198 -1.30404 0
M  V30 10837 O 1043.68 -1.47605 -1.37021 0
M  V30 10838 C 1040.75 -2.75533 -2.10434 0
M  V30 10839 C 1039.81 -3.93337 -1.72002 0
M  V30 10840 C 1039.04 -4.481 -2.89901 0
M  V30 10841 O 1039.27 -4.01784 -4.04877 0
M  V30 10842 O 1038.2 -5.39004 -2.67877 0
M  V30 10843 H 1042.03 -3.01322 -0.379338 0
M  V30 10844 H 1039.61 -1.48907 -0.121228 0
M  V30 10845 H 1041.49 -3.12259 -2.8297 0
M  V30 10846 H 1040.17 -1.9527 -2.58169 0
M  V30 10847 H 1039.08 -3.61408 -0.966193 0
M  V30 10848 H 1040.41 -4.74989 -1.29022 0
M  V30 10849 N 1042.06 0.170153 -1.56679 0
M  V30 10850 C 1042.99 1.23525 -1.93066 0
M  V30 10851 C 1044.01 1.40414 -0.823879 0
M  V30 10852 O 1045.19 1.40396 -1.10232 0
M  V30 10853 C 1042.29 2.60376 -2.16928 0
M  V30 10854 C 1041.47 2.6477 -3.4816 0
M  V30 10855 C 1040.53 3.82993 -3.60837 0
M  V30 10856 O 1039.55 3.68937 -4.33444 0
M  V30 10857 N 1040.75 4.99498 -2.95773 0
M  V30 10858 H 1043.52 0.926172 -2.8503 0
M  V30 10859 H 1041.08 0.359909 -1.57849 0
M  V30 10860 H 1043.07 3.37934 -2.22672 0
M  V30 10861 H 1041.64 2.83669 -1.31342 0
M  V30 10862 H 1040.86 1.73298 -3.54064 0
M  V30 10863 H 1042.15 2.64717 -4.34514 0
M  V30 10864 H 1041.55 5.13819 -2.36657 0
M  V30 10865 H 1040.11 5.74914 -3.07111 0
M  V30 10866 N 1043.54 1.5137 0.438746 0
M  V30 10867 C 1044.5 1.71993 1.51496 0
M  V30 10868 C 1045.5 0.589978 1.49586 0
M  V30 10869 O 1046.69 0.857505 1.51633 0
M  V30 10870 C 1043.82 1.77508 2.91039 0
M  V30 10871 H 1045.02 2.68041 1.34514 0
M  V30 10872 H 1042.57 1.41338 0.667326 0
M  V30 10873 H 1043.3 0.832698 3.13427 0
M  V30 10874 H 1043.09 2.59627 2.9383 0
M  V30 10875 H 1044.58 1.95308 3.69113 0
M  V30 10876 N 1045.02 -0.694098 1.41492 0
M  V30 10877 C 1046.26 -1.45415 1.40929 0
M  V30 10878 C 1046.59 -1.94491 0.0189301 0
M  V30 10879 O 1045.85 -1.7 -0.96945 0
M  V30 10880 C 1046.15 -2.6805 2.36398 0
M  V30 10881 C 1045.81 -2.37623 3.83205 0
M  V30 10882 C 1044.47 -2.29035 4.23198 0
M  V30 10883 C 1046.83 -2.12555 4.75888 0
M  V30 10884 C 1044.15 -1.93478 5.5388 0
M  V30 10885 C 1046.51 -1.78506 6.06892 0
M  V30 10886 C 1045.17 -1.68415 6.45905 0
M  V30 10887 H 1044.44 -0.53211 0.515694 0
M  V30 10888 H 1047.09 -0.793193 1.74301 0
M  V30 10889 H 1045.39 -3.39086 1.96285 0
M  V30 10890 H 1047.09 -3.26194 2.33234 0
M  V30 10891 H 1043.68 -2.45202 3.51531 0
M  V30 10892 H 1047.86 -2.18133 4.45793 0
M  V30 10893 H 1043.12 -1.84219 5.82986 0
M  V30 10894 H 1047.29 -1.58128 6.7821 0
M  V30 10895 H 1044.92 -1.40631 7.47079 0
M  V30 10896 N 1046.49 -1.27344 -0.928501 0
M  V30 10897 C 1047.74 -1.13804 -1.67859 0
M  V30 10898 C 1048.07 0.31555 -1.91619 0
M  V30 10899 O 1047.35 1.23087 -1.50599 0
M  V30 10900 C 1047.63 -1.9213 -3.04562 0
M  V30 10901 C 1047.48 -3.45468 -2.88048 0
M  V30 10902 C 1048.8 -1.72513 -4.04879 0
M  V30 10903 H 1045.92 -0.414796 -0.609191 0
M  V30 10904 H 1048.56 -1.5649 -1.07753 0
M  V30 10905 H 1046.71 -1.55853 -3.55868 0
M  V30 10906 H 1048.39 -3.9157 -2.43865 0
M  V30 10907 H 1046.63 -3.71849 -2.23407 0
M  V30 10908 H 1047.3 -3.95515 -3.85061 0
M  V30 10909 H 1049.78 -2.04143 -3.62581 0
M  V30 10910 H 1048.65 -2.29713 -4.98521 0
M  V30 10911 H 1048.91 -0.672856 -4.3695 0
M  V30 10912 N 1047.97 1.13488 -1.09353 0
M  V30 10913 C 1048.9 2.20988 -0.75409 0
M  V30 10914 C 1049.88 1.67977 0.267901 0
M  V30 10915 O 1051.07 1.93722 0.136128 0
M  V30 10916 C 1048.2 3.46869 -0.173042 0
M  V30 10917 C 1047.15 4.12965 -1.12446 0
M  V30 10918 C 1046.48 5.33163 -0.405157 0
M  V30 10919 C 1047.78 4.60388 -2.46658 0
M  V30 10920 H 1049.47 2.49639 -1.6529 0
M  V30 10921 H 1047.02 1.19987 -0.796182 0
M  V30 10922 H 1048.97 4.21331 0.0764988 0
M  V30 10923 H 1047.7 3.17611 0.760956 0
M  V30 10924 H 1046.35 3.40469 -1.35927 0
M  V30 10925 H 1046 5.00169 0.532955 0
M  V30 10926 H 1045.7 5.78332 -1.03952 0
M  V30 10927 H 1047.23 6.1038 -0.163899 0
M  V30 10928 H 1048.64 5.26276 -2.27389 0
M  V30 10929 H 1047.04 5.16294 -3.05876 0
M  V30 10930 H 1048.11 3.74949 -3.07476 0
M  V30 10931 N 1049.45 0.880621 1.30701 0
M  V30 10932 C 1050.68 0.510909 2.01009 0
M  V30 10933 C 1051.1 -0.892041 1.65603 0
M  V30 10934 O 1050.46 -1.59045 0.870309 0
M  V30 10935 C 1050.51 0.687759 3.53981 0
M  V30 10936 O 1049.61 -0.268275 4.11526 0
M  V30 10937 H 1048.95 0.201864 0.632572 0
M  V30 10938 H 1051.48 1.18697 1.6665 0
M  V30 10939 H 1051.49 0.585095 4.03783 0
M  V30 10940 H 1050.17 1.71068 3.79089 0
M  V30 10941 H 1048.74 -0.119673 3.72708 0
M  V30 10942 N 1050.93 -1.4397 0.641131 0
M  V30 10943 C 1051.88 -2.30728 -0.0577905 0
M  V30 10944 C 1052.85 -1.44059 -0.826819 0
M  V30 10945 O 1054.03 -1.72947 -0.805853 0
M  V30 10946 C 1051.17 -3.29478 -1.02657 0
M  V30 10947 C 1050.28 -4.31247 -0.254913 0
M  V30 10948 C 1049.42 -5.17085 -1.2164 0
M  V30 10949 C 1048.46 -6.10556 -0.434481 0
M  V30 10950 N 1047.6 -6.89059 -1.34694 0
M  V30 10951 H 1052.44 -2.8995 0.687953 0
M  V30 10952 H 1049.97 -1.4285 0.351029 0
M  V30 10953 H 1051.93 -3.85228 -1.60173 0
M  V30 10954 H 1050.56 -2.71932 -1.73933 0
M  V30 10955 H 1049.61 -3.77889 0.436338 0
M  V30 10956 H 1050.92 -4.97545 0.353642 0
M  V30 10957 H 1050.08 -5.77402 -1.86258 0
M  V30 10958 H 1048.82 -4.50885 -1.85888 0
M  V30 10959 H 1047.82 -5.49339 0.225125 0
M  V30 10960 H 1049.05 -6.78795 0.203415 0
M  V30 10961 H 1046.99 -6.25518 -1.97644 0
M  V30 10962 H 1046.91 -7.51833 -0.792657 0
M  V30 10963 H 1048.18 -7.5389 -1.98165 0
M  V30 10964 N 1052.41 -0.382291 -1.52893 0
M  V30 10965 C 1053.34 0.491199 -2.23875 0
M  V30 10966 C 1054.35 1.03249 -1.25871 0
M  V30 10967 O 1055.54 0.936016 -1.5199 0
M  V30 10968 C 1052.64 1.6927 -2.936 0
M  V30 10969 C 1051.81 1.28 -4.18252 0
M  V30 10970 C 1050.87 2.34541 -4.71038 0
M  V30 10971 O 1049.9 1.96239 -5.34302 0
M  V30 10972 N 1051.1 3.6636 -4.50289 0
M  V30 10973 H 1053.87 -0.116897 -2.99472 0
M  V30 10974 H 1051.43 -0.208296 -1.60554 0
M  V30 10975 H 1053.42 2.40054 -3.25816 0
M  V30 10976 H 1051.99 2.20729 -2.21354 0
M  V30 10977 H 1051.21 0.40133 -3.92152 0
M  V30 10978 H 1052.5 0.98082 -4.99257 0
M  V30 10979 H 1051.9 4.00245 -3.99775 0
M  V30 10980 H 1050.45 4.332 -4.87013 0
M  V30 10981 N 1053.89 1.57202 -0.111913 0
M  V30 10982 C 1055.3 1.57713 0.244702 0
M  V30 10983 C 1055.5 1.12419 1.67225 0
M  V30 10984 O 1054.56 0.808329 2.39212 0
M  V30 10985 C 1055.87 3.00695 0.0178289 0
M  V30 10986 C 1057.42 3.12887 0.0842781 0
M  V30 10987 C 1057.89 4.57856 -0.114812 0
M  V30 10988 N 1059.38 4.6316 -0.0605423 0
M  V30 10989 C 1060.12 5.73086 -0.189594 0
M  V30 10990 N 1059.62 6.91787 -0.37442 0
M  V30 10991 N 1061.41 5.6195 -0.12967 0
M  V30 10992 H 1053.56 1.84947 -1.04443 0
M  V30 10993 H 1055.82 0.854418 -0.4107 0
M  V30 10994 H 1055.53 3.38093 -0.968802 0
M  V30 10995 H 1055.4 3.69611 0.752815 0
M  V30 10996 H 1057.79 2.7535 1.06143 0
M  V30 10997 H 1057.87 2.46528 -0.682474 0
M  V30 10998 H 1057.51 4.9609 -1.0889 0
M  V30 10999 H 1057.44 5.22297 0.671839 0
M  V30 11000 H 1059.94 3.77817 0.0790856 0
M  V30 11001 H 1060.25 7.71406 -0.463948 0
M  V30 11002 H 1058.59 6.93788 -0.410303 0
M  V30 11003 H 1061.78 4.68098 0.0137115 0
M  V30 11004 H 1061.96 6.47578 -0.233688 0
M  V30 11005 N 1055.36 -0.161842 1.56767 0
M  V30 11006 C 1056.59 -0.890953 1.86402 0
M  V30 11007 C 1057 -1.75918 0.696373 0
M  V30 11008 O 1056.34 -1.80461 -0.343463 0
M  V30 11009 C 1056.41 -1.81079 3.10565 0
M  V30 11010 C 1056.07 -1.12121 4.43032 0
M  V30 11011 C 1057.07 -0.482152 5.17659 0
M  V30 11012 C 1054.75 -1.11514 4.89765 0
M  V30 11013 C 1056.75 0.153772 6.37214 0
M  V30 11014 C 1054.43 -0.4754 6.09248 0
M  V30 11015 C 1055.43 0.157944 6.82817 0
M  V30 11016 O 1055.12 0.787579 8.00033 0
M  V30 11017 H 1054.85 -0.26379 0.622407 0
M  V30 11018 H 1057.41 -0.163884 2.04745 0
M  V30 11019 H 1055.64 -2.57842 2.88192 0
M  V30 11020 H 1057.32 -2.41056 3.26568 0
M  V30 11021 H 1058.09 -0.478752 4.82631 0
M  V30 11022 H 1053.97 -1.59752 4.32435 0
M  V30 11023 H 1057.51 0.648716 6.94577 0
M  V30 11024 H 1053.41 -0.476416 6.43739 0
M  V30 11025 H 1054.18 0.687769 8.15605 0
M  V30 11026 N 1056.84 -1.516 -0.430713 0
M  V30 11027 C 1058.25 -1.57 -1.01035 0
M  V30 11028 C 1058.6 -0.397439 -1.92132 0
M  V30 11029 O 1057.73 0.484954 -2.10896 0
M  V30 11030 C 1058.32 -2.84536 -1.83915 0
M  V30 11031 C 1056.88 -2.92485 -2.36917 0
M  V30 11032 C 1056.03 -2.5173 -1.16308 0
M  V30 11033 H 1058.98 -1.57281 -0.211734 0
M  V30 11034 H 1059 -2.68672 -2.69435 0
M  V30 11035 H 1058.51 -3.69858 -1.17586 0
M  V30 11036 H 1056.61 -2.11608 -3.0668 0
M  V30 11037 H 1056.73 -3.96277 -2.6926 0
M  V30 11038 H 1055.09 -2.05079 -1.51045 0
M  V30 11039 H 1055.87 -3.39403 -0.515793 0
M  V30 11040 N 1058.32 0.686584 -1.41858 0
M  V30 11041 C 1059.54 1.4802 -1.45275 0
M  V30 11042 C 1059.97 1.87997 -0.0621297 0
M  V30 11043 O 1059.33 1.55226 0.936733 0
M  V30 11044 C 1059.38 2.7133 -2.37513 0
M  V30 11045 O 1058.48 3.69159 -1.83836 0
M  V30 11046 H 1057.82 0.445152 -0.492682 0
M  V30 11047 H 1060.35 0.843161 -1.86419 0
M  V30 11048 H 1060.36 3.19537 -2.53693 0
M  V30 11049 H 1059.04 2.41571 -3.3855 0
M  V30 11050 H 1057.61 3.28134 -1.77151 0
M  V30 11051 N 1059.8 1.27835 0.921735 0
M  V30 11052 C 1060.73 1.06874 2.02758 0
M  V30 11053 C 1061.74 0.0229418 1.62784 0
M  V30 11054 O 1062.93 0.265145 1.7652 0
M  V30 11055 C 1060.03 0.60037 3.3354 0
M  V30 11056 C 1059.2 1.71979 4.02172 0
M  V30 11057 C 1058.26 1.24615 5.11231 0
M  V30 11058 O 1057.29 1.94692 5.34868 0
M  V30 11059 N 1058.49 0.105021 5.80405 0
M  V30 11060 H 1061.26 2.02105 2.213 0
M  V30 11061 H 1058.82 1.19481 1.09251 0
M  V30 11062 H 1060.81 0.267281 4.03816 0
M  V30 11063 H 1059.38 -0.258872 3.11526 0
M  V30 11064 H 1058.6 2.22287 3.25549 0
M  V30 11065 H 1059.89 2.47092 4.44773 0
M  V30 11066 H 1059.29 -0.479745 5.63662 0
M  V30 11067 H 1057.84 -0.168846 6.51581 0
M  V30 11068 N 1061.28 -1.12907 1.09954 0
M  V30 11069 C 1062.69 -1.65847 0.857417 0
M  V30 11070 C 1063.04 -1.86372 -0.613176 0
M  V30 11071 O 1062.16 -1.58654 -1.47166 0
M  V30 11072 C 1062.76 -3.01269 1.54991 0
M  V30 11073 C 1061.32 -3.51179 1.35462 0
M  V30 11074 C 1060.46 -2.26307 1.60251 0
M  V30 11075 H 1063.41 -0.96755 1.25794 0
M  V30 11076 H 1063.44 -3.675 0.986091 0
M  V30 11077 H 1062.95 -2.86299 2.6202 0
M  V30 11078 H 1061.05 -3.71343 0.305742 0
M  V30 11079 H 1061.16 -4.30955 2.09318 0
M  V30 11080 H 1059.53 -2.33167 1.02494 0
M  V30 11081 H 1060.31 -2.13896 2.68521 0
M  V30 11082 N 1062.75 -0.88754 -1.30232 0
M  V30 11083 C 1064.17 -0.581904 -1.48614 0
M  V30 11084 C 1064.37 0.879711 -1.81282 0
M  V30 11085 O 1063.43 1.66076 -1.90198 0
M  V30 11086 C 1064.74 -1.49726 -2.60773 0
M  V30 11087 C 1066.29 -1.50117 -2.74653 0
M  V30 11088 C 1066.76 -2.40251 -3.89927 0
M  V30 11089 N 1068.25 -2.38229 -3.97242 0
M  V30 11090 C 1068.99 -3.04682 -4.85754 0
M  V30 11091 N 1068.48 -3.80369 -5.79043 0
M  V30 11092 N 1070.28 -2.93901 -4.79144 0
M  V30 11093 H 1062.43 -1.83304 -1.073 0
M  V30 11094 H 1064.69 -0.78477 -0.531826 0
M  V30 11095 H 1064.4 -2.5381 -2.43462 0
M  V30 11096 H 1064.27 -1.20874 -3.57308 0
M  V30 11097 H 1066.66 -0.467832 -2.91368 0
M  V30 11098 H 1066.74 -1.83001 -1.7873 0
M  V30 11099 H 1066.38 -3.43671 -3.73969 0
M  V30 11100 H 1066.31 -2.04682 -4.85194 0
M  V30 11101 H 1068.8 -1.83229 -3.30508 0
M  V30 11102 H 1069.12 -4.28159 -6.4335 0
M  V30 11103 H 1067.46 -3.84477 -5.78967 0
M  V30 11104 H 1070.65 -2.34296 -4.05245 0
M  V30 11105 H 1070.83 -3.45967 -5.47915 0
M  V30 11106 N 1064.23 1.43628 -0.648757 0
M  V30 11107 C 1065.48 2.01465 -0.16002 0
M  V30 11108 C 1065.8 1.51413 1.22878 0
M  V30 11109 O 1065.07 0.724919 1.81994 0
M  V30 11110 H 1063.65 0.744885 -0.0561672 0
M  V30 11111 H 1066.31 1.75897 -0.839422 0
M  V30 11112 H 1065.41 3.1178 -0.141213 0
M  V30 11113 N 1065.71 0.390394 1.52688 0
M  V30 11114 C 1066.99 -0.249068 1.94008 0
M  V30 11115 C 1067.37 -1.64263 1.32593 0
M  V30 11116 O 1066.72 -2.23086 0.494448 0
M  V30 11117 C 1066.93 -0.274318 3.4792 0
M  V30 11118 C 1068.27 -0.502743 4.21613 0
M  V30 11119 O 1069.3 -0.35448 3.54432 0
M  V30 11120 O 1068.16 -0.79334 5.40711 0
M  V30 11121 H 1065.25 -0.155116 0.812323 0
M  V30 11122 H 1067.8 0.44498 1.63762 0
M  V30 11123 H 1066.57 0.701766 3.84956 0
M  V30 11124 H 1066.19 -1.01324 3.84473 0
M  V30 11125 N 1067.19 -1.57141 0.120249 0
M  V30 11126 C 1068.42 -1.99589 -0.545136 0
M  V30 11127 C 1068.83 -0.999951 -1.60145 0
M  V30 11128 O 1068.19 0.00698897 -1.82499 0
M  V30 11129 C 1068.24 -3.42038 -1.17014 0
M  V30 11130 O 1067.96 -4.37822 -0.156044 0
M  V30 11131 C 1069.46 -3.99625 -1.91872 0
M  V30 11132 H 1066.68 -0.655318 -0.144222 0
M  V30 11133 H 1069.23 -2.0345 0.206955 0
M  V30 11134 H 1067.38 -3.39113 -1.873 0
M  V30 11135 H 1067.79 -5.20937 -0.610317 0
M  V30 11136 H 1069.27 -5.01374 -2.30928 0
M  V30 11137 H 1069.75 -3.38836 -2.7944 0
M  V30 11138 H 1070.35 -4.061 -1.26345 0
M  V30 11139 N 1068.67 0.153526 -1.5685 0
M  V30 11140 C 1069.91 0.868517 -1.83261 0
M  V30 11141 C 1070.25 1.81112 -0.700857 0
M  V30 11142 O 1069.52 1.92235 0.295989 0
M  V30 11143 C 1069.8 1.6487 -3.2014 0
M  V30 11144 C 1069.66 0.728021 -4.43869 0
M  V30 11145 C 1070.98 2.61259 -3.54163 0
M  V30 11146 H 1068.09 0.314297 -0.666623 0
M  V30 11147 H 1070.74 0.133971 -1.89527 0
M  V30 11148 H 1068.89 2.2749 -3.1493 0
M  V30 11149 H 1070.56 0.113328 -4.61161 0
M  V30 11150 H 1068.8 0.0371744 -4.33784 0
M  V30 11151 H 1069.47 1.30981 -5.36235 0
M  V30 11152 H 1071.95 2.0876 -3.59942 0
M  V30 11153 H 1070.82 3.12902 -4.50981 0
M  V30 11154 H 1071.09 3.42307 -2.79782 0
M  V30 11155 N 1070.14 1.51827 0.422667 0
M  V30 11156 C 1071.42 1.55772 1.18299 0
M  V30 11157 C 1071.8 0.330657 2.08494 0
M  V30 11158 O 1071.15 -0.683373 2.18042 0
M  V30 11159 C 1071.36 2.87941 1.97208 0
M  V30 11160 C 1072.71 3.4044 2.53744 0
M  V30 11161 O 1073.73 2.8959 2.07403 0
M  V30 11162 O 1072.59 4.29201 3.38303 0
M  V30 11163 H 1069.68 0.626889 0.539388 0
M  V30 11164 H 1072.23 1.64147 0.430545 0
M  V30 11165 H 1071 3.68702 1.31052 0
M  V30 11166 H 1070.63 2.82795 2.79486 0
M  V30 11167 N 1071.62 -0.679052 1.4222 0
M  V30 11168 C 1072.55 -1.80481 1.48152 0
M  V30 11169 C 1073.53 -1.66698 0.338502 0
M  V30 11170 O 1074.72 -1.86183 0.552228 0
M  V30 11171 C 1071.85 -3.18746 1.37908 0
M  V30 11172 C 1070.8 -3.47258 2.50192 0
M  V30 11173 C 1070.13 -4.85052 2.25008 0
M  V30 11174 C 1071.43 -3.44576 3.92511 0
M  V30 11175 H 1073.12 -1.75774 2.42371 0
M  V30 11176 H 1070.67 -0.844241 1.16656 0
M  V30 11177 H 1072.62 -3.97229 1.40666 0
M  V30 11178 H 1071.35 -3.24119 0.401806 0
M  V30 11179 H 1070 -2.71133 2.46744 0
M  V30 11180 H 1069.65 -4.8707 1.25584 0
M  V30 11181 H 1069.35 -5.05092 3.00259 0
M  V30 11182 H 1070.88 -5.65825 2.29508 0
M  V30 11183 H 1072.29 -4.13036 3.97585 0
M  V30 11184 H 1070.69 -3.76151 4.67579 0
M  V30 11185 H 1071.76 -2.4323 4.19484 0
M  V30 11186 N 1073.1 -1.28322 -0.914942 0
M  V30 11187 C 1074.06 -1.12169 -1.99877 0
M  V30 11188 C 1075.06 -0.0617252 -1.60681 0
M  V30 11189 O 1076.25 -0.307405 -1.71466 0
M  V30 11190 C 1073.39 -0.711959 -3.33383 0
M  V30 11191 H 1074.58 -2.08425 -2.15636 0
M  V30 11192 H 1072.13 -1.11291 -1.09745 0
M  V30 11193 H 1072.87 0.251418 -3.23324 0
M  V30 11194 H 1072.65 -1.47764 -3.63192 0
M  V30 11195 H 1074.14 -0.621558 -4.12948 0
M  V30 11196 N 1074.58 1.12322 -1.10551 0
M  V30 11197 C 1075.53 2.18087 -0.755424 0
M  V30 11198 C 1076.5 1.6391 0.268805 0
M  V30 11199 O 1077.68 1.90227 0.147813 0
M  V30 11200 C 1074.82 3.4455 -0.194713 0
M  V30 11201 C 1073.93 4.12775 -1.27439 0
M  V30 11202 C 1073.07 5.26891 -0.675194 0
M  V30 11203 C 1072.11 5.86985 -1.73536 0
M  V30 11204 N 1071.24 6.92512 -1.15635 0
M  V30 11205 H 1076.08 2.47379 -1.66155 0
M  V30 11206 H 1073.62 1.21452 -0.829924 0
M  V30 11207 H 1075.58 4.16936 0.148275 0
M  V30 11208 H 1074.21 3.15671 0.674638 0
M  V30 11209 H 1073.26 3.38556 -1.73448 0
M  V30 11210 H 1074.57 4.53506 -2.07687 0
M  V30 11211 H 1073.73 6.06046 -0.281723 0
M  V30 11212 H 1072.47 4.87442 0.158708 0
M  V30 11213 H 1071.47 5.06517 -2.13825 0
M  V30 11214 H 1072.7 6.28505 -2.57213 0
M  V30 11215 H 1070.64 6.55098 -0.343928 0
M  V30 11216 H 1070.56 7.31848 -1.89565 0
M  V30 11217 H 1071.83 7.75492 -0.789463 0
M  V30 11218 N 1076.06 0.894434 1.2976 0
M  V30 11219 C 1077 0.366586 2.2787 0
M  V30 11220 C 1077.97 -0.548425 1.56785 0
M  V30 11221 O 1079.16 -0.474804 1.84798 0
M  V30 11222 C 1076.3 -0.404531 3.42721 0
M  V30 11223 C 1075.41 0.540774 4.28602 0
M  V30 11224 C 1074.55 -0.246875 5.30626 0
M  V30 11225 C 1073.59 0.693294 6.08161 0
M  V30 11226 N 1072.72 -0.059619 7.02075 0
M  V30 11227 H 1077.56 1.20834 2.72402 0
M  V30 11228 H 1075.1 0.607205 1.33983 0
M  V30 11229 H 1077.06 -0.86762 4.08079 0
M  V30 11230 H 1075.69 -1.21078 2.99232 0
M  V30 11231 H 1074.74 1.12237 3.63465 0
M  V30 11232 H 1076.05 1.26065 4.82606 0
M  V30 11233 H 1075.21 -0.771398 6.01776 0
M  V30 11234 H 1073.94 -0.999918 4.77339 0
M  V30 11235 H 1072.95 1.22936 5.35879 0
M  V30 11236 H 1074.17 1.44558 6.63536 0
M  V30 11237 H 1072.12 -0.795026 6.51165 0
M  V30 11238 H 1072.04 0.60045 7.53612 0
M  V30 11239 H 1073.31 -0.564577 7.77453 0
M  V30 11240 N 1077.53 -1.43282 0.656365 0
M  V30 11241 C 1078.78 -2.00996 0.168354 0
M  V30 11242 C 1079.1 -1.52408 -1.22601 0
M  V30 11243 O 1080.3 -2.02417 -1.80941 0
M  V30 11244 C 1078.76 -3.5903 0.250161 0
M  V30 11245 C 1078.37 -4.1661 1.64742 0
M  V30 11246 C 1080.11 -4.24118 -0.180084 0
M  V30 11247 C 1078.02 -5.66948 1.68299 0
M  V30 11248 H 1076.95 -0.751674 0.0591769 0
M  V30 11249 H 1079.6 -1.64216 0.818859 0
M  V30 11250 H 1077.98 -3.93226 -0.467908 0
M  V30 11251 H 1079.15 -3.93908 2.3911 0
M  V30 11252 H 1077.47 -3.63905 2.02391 0
M  V30 11253 H 1080.07 -5.34419 -0.173401 0
M  V30 11254 H 1080.41 -3.98264 -1.21208 0
M  V30 11255 H 1080.94 -3.94816 0.486343 0
M  V30 11256 H 1077.68 -5.97573 2.69419 0
M  V30 11257 H 1077.2 -5.91697 0.98261 0
M  V30 11258 H 1078.88 -6.31041 1.42813 0
M  V30 11259 N 1079.01 -0.398486 -1.52479 0
M  V30 11260 C 1080.26 0.180752 -2.01692 0
M  V30 11261 C 1080.59 1.46044 -1.28457 0
M  V30 11262 O 1079.84 1.92051 -0.376162 0
M  V30 11263 C 1080.14 0.485909 -3.54081 0
M  V30 11264 C 1079.81 -0.703321 -4.45381 0
M  V30 11265 C 1078.47 -1.02955 -4.70057 0
M  V30 11266 C 1080.82 -1.49848 -4.99194 0
M  V30 11267 C 1078.15 -2.15231 -5.45795 0
M  V30 11268 C 1080.5 -2.61192 -5.76161 0
M  V30 11269 C 1079.17 -2.94313 -5.99113 0
M  V30 11270 H 1078.44 0.0661417 -0.738042 0
M  V30 11271 H 1081.08 -0.53772 -1.83796 0
M  V30 11272 H 1079.39 1.28582 -3.701 0
M  V30 11273 H 1081.09 0.946872 -3.89661 0
M  V30 11274 H 1077.68 -0.439062 -4.26345 0
M  V30 11275 H 1081.86 -1.25968 -4.80048 0
M  V30 11276 H 1077.12 -2.41252 -5.61789 0
M  V30 11277 H 1081.29 -3.23201 -6.16858 0
M  V30 11278 H 1078.92 -3.81431 -6.57583 0
M  V30 11279 N 1080.49 1.57075 -0.12858 0
M  V30 11280 C 1081.42 2.18833 0.814519 0
M  V30 11281 C 1082.4 1.13114 1.2704 0
M  V30 11282 O 1083.59 1.41387 1.33129 0
M  V30 11283 C 1080.72 2.79535 2.06101 0
M  V30 11284 C 1079.67 3.9092 1.74257 0
M  V30 11285 C 1079 4.38473 3.06015 0
M  V30 11286 C 1080.3 5.1257 1.00345 0
M  V30 11287 H 1081.99 2.97895 0.299862 0
M  V30 11288 H 1079.54 1.4329 0.14279 0
M  V30 11289 H 1081.49 3.21401 2.72543 0
M  V30 11290 H 1080.21 1.97777 2.59907 0
M  V30 11291 H 1078.87 3.49645 1.102 0
M  V30 11292 H 1078.52 3.53561 3.57776 0
M  V30 11293 H 1078.22 5.13591 2.85479 0
M  V30 11294 H 1079.75 4.82997 3.7356 0
M  V30 11295 H 1081.16 5.51395 1.56959 0
M  V30 11296 H 1079.56 5.93333 0.898693 0
M  V30 11297 H 1080.63 4.84899 -0.0081335 0
M  V30 11298 N 1081.97 -0.145205 1.5693 0
M  V30 11299 C 1082.92 -1.17923 1.98401 0
M  V30 11300 C 1083.89 -1.42591 0.851885 0
M  V30 11301 O 1085.07 -1.54896 1.11409 0
M  V30 11302 C 1082.21 -2.50727 2.37128 0
M  V30 11303 C 1081.32 -2.33218 3.63639 0
M  V30 11304 C 1080.46 -3.5907 3.91462 0
M  V30 11305 C 1079.5 -3.36605 5.11237 0
M  V30 11306 N 1078.64 -4.54592 5.35061 0
M  V30 11307 H 1083.48 -0.818573 2.86537 0
M  V30 11308 H 1081.01 -0.392739 1.4176 0
M  V30 11309 H 1082.97 -3.28165 2.57611 0
M  V30 11310 H 1081.6 -2.84736 1.52069 0
M  V30 11311 H 1080.65 -1.46826 3.50922 0
M  V30 11312 H 1081.96 -2.12579 4.51234 0
M  V30 11313 H 1081.12 -4.44936 4.12453 0
M  V30 11314 H 1079.86 -3.82715 3.02293 0
M  V30 11315 H 1078.86 -2.49127 4.90118 0
M  V30 11316 H 1080.09 -3.14357 6.01961 0
M  V30 11317 H 1078.03 -4.78406 4.48847 0
M  V30 11318 H 1077.95 -4.36962 6.16928 0
M  V30 11319 H 1079.22 -5.41666 5.60551 0
M  V30 11320 N 1083.45 -1.52049 -0.414609 0
M  V30 11321 C 1084.68 -1.69433 -1.18221 0
M  V30 11322 C 1085.09 -0.40104 -1.84901 0
M  V30 11323 O 1084.43 0.632342 -1.72474 0
M  V30 11324 C 1084.49 -2.76986 -2.2917 0
M  V30 11325 C 1084.15 -4.18903 -1.82671 0
M  V30 11326 C 1085.15 -5.02929 -1.31751 0
M  V30 11327 C 1082.84 -4.65113 -1.89672 0
M  V30 11328 C 1084.83 -6.31234 -0.884461 0
M  V30 11329 C 1082.52 -5.93408 -1.45978 0
M  V30 11330 C 1083.52 -6.76297 -0.9545 0
M  V30 11331 O 1083.2 -8.02191 -0.523852 0
M  V30 11332 H 1082.94 -0.571228 -0.36149 0
M  V30 11333 H 1085.49 -1.99355 -0.494643 0
M  V30 11334 H 1083.72 -2.42428 -3.01273 0
M  V30 11335 H 1085.41 -2.83023 -2.90951 0
M  V30 11336 H 1086.17 -4.68422 -1.2572 0
M  V30 11337 H 1082.05 -4.00702 -2.27945 0
M  V30 11338 H 1085.6 -6.95881 -0.489383 0
M  V30 11339 H 1081.49 -6.27424 -1.51687 0
M  V30 11340 H 1082.26 -8.15934 -0.647656 0
M  V30 11341 N 1084.93 0.6715 -1.42579 0
M  V30 11342 C 1086.16 1.4576 -1.46416 0
M  V30 11343 C 1086.56 1.89051 -0.0749843 0
M  V30 11344 O 1085.91 1.58927 0.921296 0
M  V30 11345 C 1085.97 2.7365 -2.33144 0
M  V30 11346 C 1085.63 2.52414 -3.80968 0
M  V30 11347 C 1086.63 2.16804 -4.72538 0
M  V30 11348 C 1084.31 2.67306 -4.25268 0
M  V30 11349 C 1086.31 1.96358 -6.06401 0
M  V30 11350 C 1084 2.46475 -5.5919 0
M  V30 11351 C 1084.99 2.11055 -6.49573 0
M  V30 11352 O 1084.68 1.90428 -7.8102 0
M  V30 11353 H 1084.41 0.454896 -0.500045 0
M  V30 11354 H 1086.97 0.832198 -1.87786 0
M  V30 11355 H 1085.2 3.38684 -1.86629 0
M  V30 11356 H 1086.89 3.35543 -2.28398 0
M  V30 11357 H 1087.65 2.04891 -4.39596 0
M  V30 11358 H 1083.53 2.93854 -3.55206 0
M  V30 11359 H 1087.08 1.68634 -6.76911 0
M  V30 11360 H 1082.97 2.57985 -5.91704 0
M  V30 11361 H 1083.74 2.05 -7.92412 0
M  V30 11362 N 1086.4 1.28806 0.908124 0
M  V30 11363 C 1087.81 1.14719 1.47297 0
M  V30 11364 C 1088.17 -0.260763 1.94459 0
M  V30 11365 O 1087.29 -1.15553 1.82966 0
M  V30 11366 C 1087.89 2.07643 2.67712 0
M  V30 11367 C 1086.44 1.97605 3.20358 0
M  V30 11368 C 1085.59 1.99058 1.93058 0
M  V30 11369 H 1088.54 1.41413 0.720283 0
M  V30 11370 H 1088.56 1.64372 3.43165 0
M  V30 11371 H 1088.08 3.10108 2.33355 0
M  V30 11372 H 1086.18 0.981982 3.59427 0
M  V30 11373 H 1086.29 2.84846 3.85226 0
M  V30 11374 H 1084.65 1.43541 2.104 0
M  V30 11375 H 1085.44 3.03212 1.60989 0
M  V30 11376 N 1087.88 -1.11734 1.11145 0
M  V30 11377 C 1089.3 -1.35412 0.844736 0
M  V30 11378 C 1089.5 -1.94347 -0.532111 0
M  V30 11379 O 1088.55 -2.17443 -1.28353 0
M  V30 11380 C 1089.87 -2.28869 1.95037 0
M  V30 11381 C 1091.41 -2.42442 1.97967 0
M  V30 11382 C 1091.89 -3.39219 3.07725 0
M  V30 11383 N 1093.38 -3.4678 3.07079 0
M  V30 11384 C 1094.12 -4.21595 3.88646 0
M  V30 11385 N 1093.61 -4.99411 4.80167 0
M  V30 11386 N 1095.4 -4.17075 3.76835 0
M  V30 11387 H 1087.56 -0.718412 1.99881 0
M  V30 11388 H 1089.82 -0.378787 0.869037 0
M  V30 11389 H 1089.52 -1.92752 2.94176 0
M  V30 11390 H 1089.4 -3.2906 1.84389 0
M  V30 11391 H 1091.79 -2.77835 0.994561 0
M  V30 11392 H 1091.87 -1.42113 2.12691 0
M  V30 11393 H 1091.51 -3.04553 4.0646 0
M  V30 11394 H 1091.44 -4.39394 2.90242 0
M  V30 11395 H 1093.93 -2.91272 2.40767 0
M  V30 11396 H 1094.24 -5.53856 5.38946 0
M  V30 11397 H 1092.59 -4.98582 4.84191 0
M  V30 11398 H 1095.78 -3.55369 3.04681 0
M  V30 11399 H 1095.95 -4.75125 4.40637 0
M  V30 11400 N 1089.36 -0.901303 -1.29284 0
M  V30 11401 C 1090.61 -0.538241 -1.96149 0
M  V30 11402 C 1090.96 0.905804 -1.69744 0
M  V30 11403 O 1090.25 1.63383 -1.00083 0
M  V30 11404 C 1090.45 -0.768828 -3.49033 0
M  V30 11405 C 1090.28 -2.23373 -3.903 0
M  V30 11406 C 1089.05 -2.88148 -4.15089 0
M  V30 11407 C 1091.24 -3.20907 -4.01899 0
M  V30 11408 N 1089.23 -4.25065 -4.42937 0
M  V30 11409 C 1090.6 -4.42948 -4.33817 0
M  V30 11410 C 1092.65 -3.16475 -3.8438 0
M  V30 11411 C 1091.36 -5.6112 -4.50041 0
M  V30 11412 C 1093.38 -4.33934 -4.01815 0
M  V30 11413 C 1092.74 -5.54745 -4.34093 0
M  V30 11414 H 1088.84 -0.246593 -0.742102 0
M  V30 11415 H 1091.43 -1.16245 -1.5619 0
M  V30 11416 H 1089.6 -0.17399 -3.8801 0
M  V30 11417 H 1091.33 -0.37104 -4.02996 0
M  V30 11418 H 1088.08 -2.38935 -4.0891 0
M  V30 11419 H 1088.51 -4.95822 -4.60966 0
M  V30 11420 H 1093.15 -2.2416 -3.58486 0
M  V30 11421 H 1090.87 -6.53925 -4.74771 0
M  V30 11422 H 1094.45 -4.31993 -3.89709 0
M  V30 11423 H 1093.33 -6.4412 -4.47302 0
M  V30 11424 N 1090.84 1.42931 -0.663954 0
M  V30 11425 C 1092.08 2.01982 -0.182007 0
M  V30 11426 C 1092.42 1.52323 1.20463 0
M  V30 11427 O 1091.69 0.720834 1.80649 0
M  V30 11428 C 1091.97 3.59518 -0.204671 0
M  V30 11429 C 1091.83 4.19382 -1.62599 0
M  V30 11430 C 1093.15 4.37762 0.45308 0
M  V30 11431 H 1090.27 0.733892 -0.0676115 0
M  V30 11432 H 1092.91 1.70092 -0.84668 0
M  V30 11433 H 1091.06 3.86816 0.361295 0
M  V30 11434 H 1092.73 4.03076 -2.24337 0
M  V30 11435 H 1090.97 3.75623 -2.17001 0
M  V30 11436 H 1091.64 5.28496 -1.59362 0
M  V30 11437 H 1094.12 4.1609 -0.0285774 0
M  V30 11438 H 1093 5.47392 0.406538 0
M  V30 11439 H 1093.26 4.1482 1.52895 0
M  V30 11440 N 1092.32 0.406567 1.52266 0
M  V30 11441 C 1093.28 -0.408251 2.25535 0
M  V30 11442 C 1094.28 -0.975795 1.27808 0
M  V30 11443 O 1095.47 -0.855077 1.5177 0
M  V30 11444 C 1092.6 -1.57443 3.02365 0
M  V30 11445 H 1093.79 0.233459 2.9899 0
M  V30 11446 H 1091.35 0.159032 1.55489 0
M  V30 11447 H 1092.08 -2.25308 2.33252 0
M  V30 11448 H 1091.87 -1.17399 3.74112 0
M  V30 11449 H 1093.36 -2.15088 3.57948 0
M  V30 11450 N 1093.79 -1.57004 0.136909 0
M  V30 11451 C 1095.04 -1.9541 -0.51569 0
M  V30 11452 C 1095.36 -1.02219 -1.66061 0
M  V30 11453 O 1094.63 -0.0818172 -1.95729 0
M  V30 11454 H 1093.21 -0.721504 -0.193497 0
M  V30 11455 H 1095.88 -1.93765 0.210046 0
M  V30 11456 H 1094.97 -2.98887 -0.898494 0
M  V30 11457 N 1095.27 0.136881 -1.57004 0
M  V30 11458 C 1096.5 0.866405 -1.88436 0
M  V30 11459 C 1096.92 1.73483 -0.727006 0
M  V30 11460 O 1096.28 1.78398 0.323094 0
M  V30 11461 C 1096.33 1.69059 -3.18514 0
M  V30 11462 O 1095.43 2.79584 -3.03161 0
M  V30 11463 H 1094.77 0.240709 -0.618834 0
M  V30 11464 H 1097.3 0.124653 -2.0422 0
M  V30 11465 H 1097.31 2.08353 -3.50789 0
M  V30 11466 H 1095.99 1.05296 -4.0235 0
M  V30 11467 H 1094.57 2.43623 -2.82315 0
M  V30 11468 N 1096.75 1.52266 0.40654 0
M  V30 11469 C 1098 1.67654 1.15168 0
M  V30 11470 C 1098.35 0.402751 1.88137 0
M  V30 11471 O 1097.64 -0.60291 1.81867 0
M  V30 11472 C 1097.84 2.8389 2.1712 0
M  V30 11473 C 1097.67 4.2245 1.54162 0
M  V30 11474 C 1096.44 4.87937 1.31322 0
M  V30 11475 C 1098.64 5.04462 1.00112 0
M  V30 11476 N 1096.62 6.10525 0.642842 0
M  V30 11477 C 1097.99 6.18307 0.457805 0
M  V30 11478 C 1100.04 4.89775 0.89583 0
M  V30 11479 C 1098.75 7.19074 -0.180477 0
M  V30 11480 C 1100.77 5.90777 0.271397 0
M  V30 11481 C 1100.13 7.03915 -0.261225 0
M  V30 11482 H 1096.23 0.667121 0.408012 0
M  V30 11483 H 1098.82 1.89577 0.443695 0
M  V30 11484 H 1096.99 2.63578 2.85274 0
M  V30 11485 H 1098.72 2.88302 2.84014 0
M  V30 11486 H 1095.48 4.46345 1.58344 0
M  V30 11487 H 1095.9 6.76223 0.324204 0
M  V30 11488 H 1100.54 4.0253 1.29344 0
M  V30 11489 H 1098.26 8.05942 -0.590141 0
M  V30 11490 H 1101.85 5.81485 0.191417 0
M  V30 11491 H 1100.73 7.80731 -0.736791 0
M  V30 11492 O 1098.27 -0.55243 1.51758 0
M  V30 11493 H 1098.96 -1.20757 1.51451 0
M  V30 END ATOM
M  V30 BEGIN BOND
M  V30 END BOND
M  V30 END CTAB
M  END
$$$$
