drugbank_target|P55072 Transitional endoplasmic reticulum ATPase (DB04395; DB12695)
 OpenBabel12092120553D

  0  0  0     0  0            999 V3000
M  V30 BEGIN CTAB
M  V30 COUNTS 12551 12653 0 0 0
M  V30 BEGIN ATOM
M  V30 1 H -0.908 1.98254 -0.117106 0
M  V30 2 N 0 1.576 0 0
M  V30 3 C 0.933 2.03868 1.02534 0
M  V30 4 C 1.911 0.928543 1.3348 0
M  V30 5 O 3.095 1.19667 1.45644 0
M  V30 6 C 0.222 2.43627 2.35294 0
M  V30 7 C -0.732 3.65373 2.2001 0
M  V30 8 S 0.101 5.13292 1.52614 0
M  V30 9 C 1.257 5.56322 2.86805 0
M  V30 10 H 1.49 2.90518 0.631377 0
M  V30 11 H -0.977 1.52953 0.210867 0
M  V30 12 H 0.981 2.67203 3.11629 0
M  V30 13 H -0.358 1.57376 2.7183 0
M  V30 14 H -1.165 3.90944 3.18086 0
M  V30 15 H -1.563 3.418 1.51819 0
M  V30 16 H 0.729 5.58782 3.83104 0
M  V30 17 H 1.672 6.56266 2.65933 0
M  V30 18 H 2.08 4.83886 2.90714 0
M  V30 19 N 1.4781 -0.272755 1.55222 0
M  V30 20 C 2.4411 -1.32041 1.87344 0
M  V30 21 C 3.4411 -1.42342 0.74803 0
M  V30 22 O 4.6311 -1.41488 1.0162 0
M  V30 23 C 1.7631 -2.70173 2.07893 0
M  V30 24 H 2.9561 -1.04789 2.80997 0
M  V30 25 H 0.5091 -0.51083 1.47717 0
M  V30 26 H 1.2441 -3.02605 1.16622 0
M  V30 27 H 1.0291 -2.64082 2.89833 0
M  V30 28 H 2.5191 -3.45869 2.34017 0
M  V30 29 N 2.9562 -1.48159 -0.537278 0
M  V30 30 C 4.1812 -1.59707 -1.32319 0
M  V30 31 C 4.6062 -0.254859 -1.86365 0
M  V30 32 O 3.9642 0.772378 -1.64024 0
M  V30 33 C 4.0122 -2.6412 -2.45505 0
M  V30 34 O 3.1162 -2.20774 -3.48328 0
M  V30 35 H 2.4572 -0.535791 -0.392204 0
M  V30 36 H 4.9872 -1.94092 -0.647268 0
M  V30 37 H 4.9972 -2.85166 -2.91795 0
M  V30 38 H 3.6722 -3.61567 -2.05528 0
M  V30 39 H 2.2492 -2.09911 -3.08207 0
M  V30 40 N 4.4343 0.785586 -1.36625 0
M  V30 41 C 5.6823 1.54057 -1.30808 0
M  V30 42 C 6.0033 1.94683 0.111157 0
M  V30 43 O 5.2733 1.65241 1.05224 0
M  V30 44 H 3.8533 0.571354 -0.481211 0
M  V30 45 H 6.5153 0.935821 -1.70963 0
M  V30 46 H 5.6113 2.44637 -1.93801 0
M  V30 47 N 5.9124 1.20967 1.01018 0
M  V30 48 C 6.8754 0.965918 2.07853 0
M  V30 49 C 7.8754 -0.0610545 1.60684 0
M  V30 50 O 9.0654 0.175681 1.73312 0
M  V30 51 C 6.1974 0.455513 3.37843 0
M  V30 52 H 7.3904 1.91365 2.3091 0
M  V30 53 H 4.9434 1.02594 1.17916 0
M  V30 54 H 5.6784 -0.497381 3.20463 0
M  V30 55 H 5.4634 1.19622 3.73407 0
M  V30 56 H 6.9534 0.304667 4.16487 0
M  V30 57 N 7.3905 -1.2043 1.01659 0
M  V30 58 C 8.6675 -1.8548 0.621004 0
M  V30 59 C 9.0475 -1.9091 -0.900919 0
M  V30 60 O 8.3955 -1.41694 -1.79263 0
M  V30 61 C 8.6055 -3.25119 1.2688 0
M  V30 62 C 9.9535 -4.01403 1.38423 0
M  V30 63 O 10.9775 -3.34473 1.22501 0
M  V30 64 O 9.8365 -5.21265 1.64151 0
M  V30 65 H 6.9305 -0.798761 0.214266 0
M  V30 66 H 9.4765 -1.28019 1.11396 0
M  V30 67 H 8.2485 -3.15932 2.30873 0
M  V30 68 H 7.8715 -3.90212 0.762917 0
M  V30 69 N 8.8686 -0.792821 -1.36206 0
M  V30 70 C 10.0936 -0.377701 -2.03932 0
M  V30 71 C 10.5186 0.998947 -1.59382 0
M  V30 72 O 9.8766 1.64421 -0.763903 0
M  V30 73 C 9.9246 -0.453635 -3.57735 0
M  V30 74 O 9.0286 0.538151 -4.08874 0
M  V30 75 H 8.3696 -0.159855 -0.644471 0
M  V30 76 H 10.8996 -1.07488 -1.7409 0
M  V30 77 H 10.9096 -0.318464 -4.06755 0
M  V30 78 H 9.5846 -1.45784 -3.89512 0
M  V30 79 H 8.1616 0.364359 -3.71116 0
M  V30 80 N 10.3467 1.47872 -0.545128 0
M  V30 81 C 11.2937 2.29849 0.2093 0
M  V30 82 C 12.2637 1.38313 0.919707 0
M  V30 83 O 13.4487 1.67277 0.917772 0
M  V30 84 C 10.5887 3.22019 1.24088 0
M  V30 85 C 9.7017 4.2864 0.537778 0
M  V30 86 C 8.8367 5.07973 1.5536 0
M  V30 87 C 7.8757 6.06381 0.8348 0
M  V30 88 N 7.0127 6.78717 1.79688 0
M  V30 89 H 11.8527 2.93845 -0.49591 0
M  V30 90 H 9.3897 1.44848 -0.256389 0
M  V30 91 H 11.3477 3.73868 1.85144 0
M  V30 92 H 9.9777 2.59914 1.91428 0
M  V30 93 H 9.0297 3.7994 -0.187046 0
M  V30 94 H 10.3417 4.98793 -0.0258907 0
M  V30 95 H 9.4957 5.63912 2.23803 0
M  V30 96 H 8.2347 4.37693 2.15118 0
M  V30 97 H 7.2397 5.49631 0.136388 0
M  V30 98 H 8.4647 6.78665 0.24313 0
M  V30 99 H 6.4107 6.11177 2.38326 0
M  V30 100 H 6.3277 7.44998 1.28505 0
M  V30 101 H 7.5957 7.39237 2.47282 0
M  V30 102 N 11.8248 0.280983 1.55075 0
M  V30 103 C 13.0728 -0.333455 1.9933 0
M  V30 104 C 13.3938 -1.55937 1.17085 0
M  V30 105 O 12.6638 -1.94143 0.261805 0
M  V30 106 H 11.2438 -0.126197 0.736263 0
M  V30 107 H 13.9058 0.387678 1.91005 0
M  V30 108 H 13.0018 -0.619292 3.05894 0
M  V30 109 N 13.3029 -1.57598 0.00835791 0
M  V30 110 C 14.5799 -1.82172 -0.712235 0
M  V30 111 C 14.9599 -0.887873 -1.9152 0
M  V30 112 O 14.3079 0.06146 -2.28417 0
M  V30 113 C 14.5179 -3.30875 -1.11008 0
M  V30 114 C 15.8659 -3.96826 -1.51044 0
M  V30 115 O 16.8899 -3.35248 -1.20364 0
M  V30 116 O 15.7489 -5.05318 -2.08125 0
M  V30 117 H 12.8429 -0.750435 -0.347529 0
M  V30 118 H 15.3889 -1.69665 0.0344523 0
M  V30 119 H 14.1609 -3.90481 -0.252982 0
M  V30 120 H 13.7839 -3.48412 -1.9156 0
M  V30 121 N 14.781 0.264519 -1.55364 0
M  V30 122 C 16.058 1.01677 -1.67096 0
M  V30 123 C 16.438 2.03996 -0.543015 0
M  V30 124 O 15.786 2.23907 0.45585 0
M  V30 125 C 15.996 1.66596 -3.0667 0
M  V30 126 C 17.344 2.17442 -3.64697 0
M  V30 127 O 18.368 1.76568 -3.09358 0
M  V30 128 O 17.227 2.92439 -4.61673 0
M  V30 129 H 14.321 0.472161 -0.678965 0
M  V30 130 H 16.867 0.259703 -1.67701 0
M  V30 131 H 15.639 0.924962 -3.80211 0
M  V30 132 H 15.262 2.48968 -3.10001 0
M  V30 133 N 16.2591 1.48442 0.529413 0
M  V30 134 C 17.1891 1.65902 1.64313 0
M  V30 135 C 18.1701 0.507897 1.6234 0
M  V30 136 O 19.3551 0.740503 1.79528 0
M  V30 137 C 16.4851 1.69911 3.02898 0
M  V30 138 C 15.4391 2.8453 3.19729 0
M  V30 139 C 14.7651 2.73629 4.59381 0
M  V30 140 C 16.0651 4.25821 3.02447 0
M  V30 141 H 17.7591 2.5914 1.49955 0
M  V30 142 H 15.3051 1.24709 0.719982 0
M  V30 143 H 17.2581 1.80715 3.80684 0
M  V30 144 H 15.9821 0.732524 3.18279 0
M  V30 145 H 14.6411 2.73283 2.44361 0
M  V30 146 H 14.2891 1.74938 4.71599 0
M  V30 147 H 13.9891 3.50541 4.71588 0
M  V30 148 H 15.5131 2.86401 5.39265 0
M  V30 149 H 16.9271 4.37898 3.70024 0
M  V30 150 H 15.3241 5.03735 3.26146 0
M  V30 151 H 16.3941 4.42244 1.98867 0
M  V30 152 N 17.7372 -0.778329 1.37039 0
M  V30 153 C 18.9622 -1.57248 1.35233 0
M  V30 154 C 19.3872 -1.87999 -0.0615568 0
M  V30 155 O 18.7452 -1.48734 -1.03672 0
M  V30 156 C 18.7932 -2.86353 2.19167 0
M  V30 157 O 17.8972 -3.80442 1.59178 0
M  V30 158 H 17.2382 -0.476569 0.462362 0
M  V30 159 H 19.7682 -0.963853 1.80474 0
M  V30 160 H 19.7782 -3.35519 2.32145 0
M  V30 161 H 18.4532 -2.63299 3.21942 0
M  V30 162 H 17.0302 -3.39067 1.55203 0
M  V30 163 N 19.2153 -1.21501 -1.00376 0
M  V30 164 C 20.4433 -1.059 -1.77744 0
M  V30 165 C 20.8583 0.391125 -1.84704 0
M  V30 166 O 20.2153 1.27133 -1.30933 0
M  V30 167 C 20.2663 -1.65111 -3.21591 0
M  V30 168 O 19.9873 -3.0445 -3.15027 0
M  V30 169 C 21.4883 -1.54637 -4.15454 0
M  V30 170 H 18.7083 -0.371825 -0.558558 0
M  V30 171 H 21.2523 -1.60865 -1.26264 0
M  V30 172 H 19.4073 -1.14235 -3.70175 0
M  V30 173 H 19.8213 -3.3278 -4.0541 0
M  V30 174 H 21.2953 -2.00808 -5.14179 0
M  V30 175 H 21.7723 -0.501022 -4.36333 0
M  V30 176 H 22.3783 -2.04767 -3.72761 0
M  V30 177 N 20.6934 1.19889 -1.02296 0
M  V30 178 C 21.6564 2.21116 -0.603351 0
M  V30 179 C 22.6564 1.5738 0.329884 0
M  V30 180 O 23.8464 1.73802 0.117702 0
M  V30 181 C 20.9784 3.40696 0.117992 0
M  V30 182 H 22.1714 2.59754 -1.49893 0
M  V30 183 H 19.7244 1.33463 -0.813468 0
M  V30 184 H 20.4594 3.07569 1.0282 0
M  V30 185 H 20.2444 3.88188 -0.552511 0
M  V30 186 H 21.7344 4.15692 0.398696 0
M  V30 187 N 22.1715 0.800033 1.35784 0
M  V30 188 C 23.4205 0.37387 1.98205 0
M  V30 189 C 23.7335 -1.06302 1.64193 0
M  V30 190 O 24.9395 -1.59198 2.19928 0
M  V30 191 C 23.3955 0.617532 3.54562 0
M  V30 192 C 23.0035 2.06654 3.9749 0
M  V30 193 C 24.7475 0.256401 4.23725 0
M  V30 194 C 22.6545 2.2563 5.46667 0
M  V30 195 H 21.5845 0.136055 0.741623 0
M  V30 196 H 24.2355 0.983166 1.54939 0
M  V30 197 H 22.6175 -0.0616248 3.95952 0
M  V30 198 H 23.7915 2.78296 3.67271 0
M  V30 199 H 22.1065 2.38691 3.41197 0
M  V30 200 H 24.7035 0.376318 5.33374 0
M  V30 201 H 25.0465 -0.796692 4.08606 0
M  V30 202 H 25.5795 0.889214 3.87734 0
M  V30 203 H 22.3185 3.2936 5.66747 0
M  V30 204 H 21.8385 1.58504 5.78478 0
M  V30 205 H 23.5175 2.06861 6.1304 0
M  V30 206 N 23.6496 -1.47581 0.552962 0
M  V30 207 C 24.5796 -2.32762 -0.185451 0
M  V30 208 C 25.5606 -1.43527 -0.912905 0
M  V30 209 O 26.7456 -1.72388 -0.894201 0
M  V30 210 C 23.8756 -3.25219 -1.21859 0
M  V30 211 C 22.8296 -4.23661 -0.607864 0
M  V30 212 C 22.1556 -5.05413 -1.74533 0
M  V30 213 C 23.4556 -5.20481 0.435582 0
M  V30 214 H 25.1496 -2.94749 0.525684 0
M  V30 215 H 22.6956 -1.41738 0.254251 0
M  V30 216 H 24.6486 -3.8365 -1.7433 0
M  V30 217 H 23.3726 -2.61279 -1.95961 0
M  V30 218 H 22.0316 -3.66451 -0.104489 0
M  V30 219 H 21.6796 -4.3788 -2.47529 0
M  V30 220 H 21.3796 -5.72059 -1.34249 0
M  V30 221 H 22.9036 -5.66701 -2.27338 0
M  V30 222 H 24.3176 -5.733 -0.00290157 0
M  V30 223 H 22.7146 -5.95305 0.757067 0
M  V30 224 H 23.7846 -4.66217 1.33303 0
M  V30 225 N 25.1277 -0.289203 -1.54924 0
M  V30 226 C 26.0747 0.592115 -2.23075 0
M  V30 227 C 27.0447 1.13881 -1.20915 0
M  V30 228 O 28.2297 1.18551 -1.495 0
M  V30 229 C 25.3697 1.76376 -2.96623 0
M  V30 230 C 24.4827 1.24959 -4.13533 0
M  V30 231 C 23.6177 2.38416 -4.74691 0
M  V30 232 C 22.6567 1.84072 -5.83767 0
M  V30 233 N 21.7937 2.91057 -6.38929 0
M  V30 234 H 26.6337 0.00432038 -2.98 0
M  V30 235 H 24.1707 -0.00963529 -1.47097 0
M  V30 236 H 26.1287 2.45268 -3.3749 0
M  V30 237 H 24.7587 2.32337 -2.24097 0
M  V30 238 H 23.8107 0.453307 -3.77689 0
M  V30 239 H 25.1227 0.811662 -4.92152 0
M  V30 240 H 24.2767 3.15276 -5.18349 0
M  V30 241 H 23.0157 2.8553 -3.95378 0
M  V30 242 H 22.0207 1.05697 -5.39545 0
M  V30 243 H 23.2457 1.37877 -6.64956 0
M  V30 244 H 21.1917 3.37526 -5.62505 0
M  V30 245 H 21.1087 2.51724 -7.12861 0
M  V30 246 H 22.3767 3.6785 -6.87246 0
M  V30 247 N 26.6058 1.57591 -0.0167156 0
M  V30 248 C 27.5378 2.06343 0.997753 0
M  V30 249 C 28.5508 0.984469 1.29661 0
M  V30 250 O 29.7398 1.26093 1.26344 0
M  V30 251 C 26.8398 2.46255 2.32834 0
M  V30 252 C 26.0128 3.77083 2.21646 0
M  V30 253 C 25.0718 4.0368 3.37534 0
M  V30 254 O 24.0978 4.7411 3.14973 0
M  V30 255 N 25.2998 3.52881 4.60929 0
M  V30 256 H 28.0648 2.93997 0.581875 0
M  V30 257 H 25.6258 1.61002 0.170316 0
M  V30 258 H 27.6178 2.61149 3.09166 0
M  V30 259 H 26.1878 1.64032 2.66106 0
M  V30 260 H 25.4078 3.72106 1.30119 0
M  V30 261 H 26.6958 4.62822 2.11361 0
M  V30 262 H 26.0938 2.95878 4.82154 0
M  V30 263 H 24.6508 3.73076 5.34469 0
M  V30 264 N 28.0839 -0.256276 1.55502 0
M  V30 265 C 29.0309 -1.31714 1.89526 0
M  V30 266 C 30.0009 -1.4828 0.748479 0
M  V30 267 O 31.1859 -1.62416 1.00128 0
M  V30 268 C 28.3259 -2.66933 2.18725 0
M  V30 269 C 27.4389 -2.58452 3.4616 0
M  V30 270 C 26.5739 -3.85961 3.64976 0
M  V30 271 C 25.6129 -3.72059 4.86044 0
M  V30 272 N 24.7499 -4.9144 5.01429 0
M  V30 273 H 29.5899 -1.01998 2.80001 0
M  V30 274 H 27.1269 -0.492413 1.38613 0
M  V30 275 H 29.0849 -3.4563 2.33657 0
M  V30 276 H 27.7149 -2.94816 1.31466 0
M  V30 277 H 26.7669 -1.71374 3.3961 0
M  V30 278 H 28.0789 -2.44085 4.34999 0
M  V30 279 H 27.2329 -4.73101 3.79816 0
M  V30 280 H 25.9719 -4.03215 2.74353 0
M  V30 281 H 24.9769 -2.83302 4.7119 0
M  V30 282 H 26.2019 -3.56309 5.78118 0
M  V30 283 H 24.1479 -5.09072 4.13741 0
M  V30 284 H 24.0649 -4.79668 5.84341 0
M  V30 285 H 25.3329 -5.80104 5.20672 0
M  V30 286 N 29.562 -1.4872 -0.521534 0
M  V30 287 C 30.51 -1.64328 -1.64618 0
M  V30 288 C 31.504 -0.50953 -1.61555 0
M  V30 289 O 32.71 -0.688525 -1.66311 0
M  V30 290 H 29.085 -0.517805 -0.545328 0
M  V30 291 H 31.056 -2.58767 -1.48601 0
M  V30 292 C 29.805 -1.70805 -3.02855 0
M  V30 293 H 29.128 -2.5741 -3.05909 0
M  V30 294 H 30.568 -1.85766 -3.81139 0
M  V30 295 C 29.027 -0.448479 -3.33902 0
M  V30 296 O 29.557 0.434928 -3.99339 0
M  V30 297 N 27.763 -0.317616 -2.88859 0
M  V30 298 H 27.31 -1.03748 -2.35784 0
M  V30 299 H 27.268 0.524113 -3.10001 0
M  V30 300 N 31.0401 0.771051 -1.3745 0
M  V30 301 C 32.4561 1.07171 -1.18265 0
M  V30 302 C 32.6561 2.01491 -0.019287 0
M  V30 303 O 31.7121 2.44244 0.640408 0
M  V30 304 C 33.0251 1.66854 -2.50161 0
M  V30 305 C 34.5731 1.79109 -2.56689 0
M  V30 306 C 35.0481 2.42205 -3.88717 0
M  V30 307 N 36.5391 2.49655 -3.90162 0
M  V30 308 C 37.2741 2.9933 -4.8907 0
M  V30 309 N 36.7701 3.49172 -5.98374 0
M  V30 310 N 38.5631 2.9821 -4.76474 0
M  V30 311 H 30.7141 0.144796 -2.11906 0
M  V30 312 H 32.9771 0.126863 -0.939473 0
M  V30 313 H 32.6831 1.05017 -3.35655 0
M  V30 314 H 32.5571 2.6614 -2.673 0
M  V30 315 H 34.9441 2.40077 -1.71601 0
M  V30 316 H 35.0251 0.785757 -2.43433 0
M  V30 317 H 34.6691 1.81875 -4.74219 0
M  V30 318 H 34.5991 3.43345 -3.99276 0
M  V30 319 H 37.0901 2.14383 -3.11205 0
M  V30 320 H 37.4031 3.8548 -6.69795 0
M  V30 321 H 35.7481 3.47275 -6.02018 0
M  V30 322 H 38.9391 2.58572 -3.90203 0
M  V30 323 H 39.1121 3.36613 -5.53711 0
M  V30 324 N 32.5182 1.22032 0.997298 0
M  V30 325 C 33.9292 1.0397 1.55071 0
M  V30 326 C 34.2802 -0.398192 1.92117 0
M  V30 327 O 33.4052 -1.28254 1.74298 0
M  V30 328 C 34.0002 1.88109 2.81781 0
M  V30 329 C 32.5592 1.74357 3.33581 0
M  V30 330 C 31.7062 1.84846 2.06706 0
M  V30 331 H 34.6572 1.35941 0.818883 0
M  V30 332 H 34.6782 1.39589 3.53971 0
M  V30 333 H 34.1902 2.92754 2.54787 0
M  V30 334 H 32.2912 0.72427 3.65493 0
M  V30 335 H 32.4042 2.56772 4.04481 0
M  V30 336 H 30.7682 1.28238 2.20062 0
M  V30 337 H 31.5512 2.91014 1.82114 0
M  V30 338 N 33.9963 -1.19345 1.0293 0
M  V30 339 C 34.9443 -2.24621 0.604001 0
M  V30 340 C 35.9383 -1.65452 -0.363587 0
M  V30 341 O 37.1443 -1.78497 -0.23212 0
M  V30 342 H 33.5193 -0.730858 0.177061 0
M  V30 343 H 35.4903 -2.5781 1.50255 0
M  V30 344 C 34.2393 -3.47688 -0.0289127 0
M  V30 345 H 33.5623 -3.93505 0.706651 0
M  V30 346 H 35.0023 -4.23011 -0.289432 0
M  V30 347 C 33.4613 -3.11817 -1.2756 0
M  V30 348 O 33.9913 -3.2451 -2.36762 0
M  V30 349 N 32.1973 -2.66246 -1.16453 0
M  V30 350 H 31.7443 -2.56118 -0.275914 0
M  V30 351 H 31.7023 -2.42617 -1.99961 0
M  V30 352 N 35.4744 -0.807222 -1.35358 0
M  V30 353 C 36.8904 -0.491038 -1.51858 0
M  V30 354 C 37.0904 0.987648 -1.75635 0
M  V30 355 O 36.1464 1.77265 -1.79815 0
M  V30 356 C 37.4594 -1.33695 -2.69344 0
M  V30 357 C 39.0074 -1.33246 -2.83222 0
M  V30 358 C 39.4824 -2.1625 -4.03733 0
M  V30 359 N 40.9734 -2.1379 -4.10911 0
M  V30 360 C 41.7084 -2.74772 -5.03277 0
M  V30 361 N 41.2044 -3.44684 -6.0097 0
M  V30 362 N 42.9974 -2.6441 -4.96028 0
M  V30 363 H 35.1484 -1.76485 -1.18181 0
M  V30 364 H 37.4114 -0.751199 -0.578276 0
M  V30 365 H 37.1174 -2.38634 -2.58354 0
M  V30 366 H 36.9914 -0.990618 -3.6396 0
M  V30 367 H 39.3784 -0.290911 -2.93663 0
M  V30 368 H 39.4594 -1.71866 -1.89461 0
M  V30 369 H 39.1034 -3.20445 -3.94052 0
M  V30 370 H 39.0334 -1.74989 -4.96675 0
M  V30 371 H 41.5244 -1.62923 -3.40976 0
M  V30 372 H 41.8374 -3.88501 -6.68047 0
M  V30 373 H 40.1824 -3.48788 -6.01142 0
M  V30 374 H 43.3734 -2.0938 -4.18662 0
M  V30 375 H 43.5464 -3.12225 -5.6782 0
M  V30 376 N 36.9525 1.47285 -0.560781 0
M  V30 377 C 37.8825 2.32857 0.173105 0
M  V30 378 C 38.8635 1.44009 0.905281 0
M  V30 379 O 40.0485 1.7286 0.885046 0
M  V30 380 C 37.1785 3.25861 1.20133 0
M  V30 381 C 36.1325 4.23978 0.585388 0
M  V30 382 C 35.4585 5.06332 1.7185 0
M  V30 383 C 36.7585 5.20242 -0.463178 0
M  V30 384 H 38.4525 2.94466 -0.541307 0
M  V30 385 H 35.9985 1.41601 -0.261764 0
M  V30 386 H 37.9515 3.84569 1.72293 0
M  V30 387 H 36.6755 2.62315 1.94573 0
M  V30 388 H 35.3345 3.66501 0.085054 0
M  V30 389 H 34.9825 4.39186 2.45203 0
M  V30 390 H 34.6825 5.72762 1.31213 0
M  V30 391 H 36.2065 5.67899 2.24329 0
M  V30 392 H 37.6205 5.73293 -0.027502 0
M  V30 393 H 36.0175 5.94896 -0.788627 0
M  V30 394 H 37.0875 4.65504 -1.35773 0
M  V30 395 N 38.4306 0.297415 1.54768 0
M  V30 396 C 39.6796 -0.313669 1.99246 0
M  V30 397 C 39.9926 -1.55281 1.18942 0
M  V30 398 O 41.1986 -2.23825 1.5367 0
M  V30 399 C 39.6546 -0.609407 3.54703 0
M  V30 400 C 39.2626 0.611192 4.43811 0
M  V30 401 C 41.0066 -1.18188 4.07715 0
M  V30 402 C 38.9136 0.288805 5.90694 0
M  V30 403 H 37.8436 -0.120979 0.744231 0
M  V30 404 H 40.4946 0.40556 1.78962 0
M  V30 405 H 38.8766 -1.38813 3.70873 0
M  V30 406 H 40.0506 1.3875 4.39414 0
M  V30 407 H 38.3656 1.10205 4.01552 0
M  V30 408 H 40.9626 -1.43727 5.15021 0
M  V30 409 H 41.3056 -2.12299 3.58099 0
M  V30 410 H 41.8386 -0.464944 3.95074 0
M  V30 411 H 38.5776 1.19838 6.44453 0
M  V30 412 H 38.0976 -0.450305 5.98107 0
M  V30 413 H 39.7766 -0.110933 6.46905 0
M  V30 414 N 39.9087 -1.5758 0.0250728 0
M  V30 415 C 41.1547 -1.91917 -0.655413 0
M  V30 416 C 41.4877 -0.901433 -1.72011 0
M  V30 417 O 40.7627 0.0764069 -1.9435 0
M  V30 418 C 41.0457 -3.36751 -1.27558 0
M  V30 419 C 40.8987 -4.49258 -0.220719 0
M  V30 420 C 42.2177 -3.81469 -2.19475 0
M  V30 421 H 39.3367 -0.697925 -0.23679 0
M  V30 422 H 41.9787 -1.89825 0.0815036 0
M  V30 423 H 40.1287 -3.38664 -1.90365 0
M  V30 424 H 41.8007 -4.59478 0.409601 0
M  V30 425 H 40.0437 -4.31415 0.454264 0
M  V30 426 H 40.7147 -5.47618 -0.694175 0
M  V30 427 H 43.1907 -3.81266 -1.66659 0
M  V30 428 H 42.0667 -4.83512 -2.59822 0
M  V30 429 H 42.3277 -3.16744 -3.08424 0
M  V30 430 N 41.3868 0.248026 -1.55636 0
M  V30 431 C 42.6638 0.998988 -1.68165 0
M  V30 432 C 43.0438 2.03409 -0.564621 0
M  V30 433 O 42.3918 2.24378 0.432076 0
M  V30 434 C 42.6018 1.63334 -3.0842 0
M  V30 435 C 43.9498 2.13562 -3.66983 0
M  V30 436 O 44.9738 1.73277 -3.11213 0
M  V30 437 O 43.8328 2.87526 -4.64749 0
M  V30 438 H 40.9268 0.464933 -0.683935 0
M  V30 439 H 43.4728 0.241902 -1.67967 0
M  V30 440 H 42.2448 0.884583 -3.8117 0
M  V30 441 H 41.8678 2.45666 -3.12624 0
M  V30 442 N 42.8649 1.48995 0.513639 0
M  V30 443 C 43.7749 1.67443 1.64317 0
M  V30 444 C 44.7909 0.556947 1.64846 0
M  V30 445 O 45.9669 0.830082 1.83498 0
M  V30 446 C 43.0319 1.72515 3.00732 0
M  V30 447 C 42.0929 2.96009 3.1093 0
M  V30 448 C 41.3259 3.00829 4.40837 0
M  V30 449 O 41.5489 2.13594 5.28898 0
M  V30 450 O 40.4829 3.93168 4.55744 0
M  V30 451 H 44.3089 2.63106 1.51687 0
M  V30 452 H 41.8939 1.32588 0.688543 0
M  V30 453 H 43.7759 1.78277 3.81831 0
M  V30 454 H 42.4509 0.800278 3.13651 0
M  V30 455 H 41.3579 2.9577 2.29065 0
M  V30 456 H 42.6909 3.87934 3.02933 0
M  V30 457 N 44.343 -0.763751 1.37857 0
M  V30 458 C 45.306 -1.85889 1.34081 0
M  V30 459 C 46.306 -1.58949 0.243277 0
M  V30 460 O 47.496 -1.66882 0.499589 0
M  V30 461 C 44.628 -3.23176 1.08489 0
M  V30 462 H 45.821 -1.90648 2.31502 0
M  V30 463 H 43.374 -0.964367 1.23003 0
M  V30 464 H 44.109 -3.24091 0.116318 0
M  V30 465 H 43.894 -3.44124 1.8794 0
M  V30 466 H 45.384 -4.03254 1.08517 0
M  V30 467 N 45.8211 -1.22559 -0.990812 0
M  V30 468 C 47.0701 -1.04553 -1.72486 0
M  V30 469 C 47.3831 0.419349 -1.91052 0
M  V30 470 O 48.5891 0.719121 -2.61803 0
M  V30 471 C 47.0451 -1.82231 -3.10355 0
M  V30 472 C 46.6531 -3.32981 -2.99713 0
M  V30 473 C 48.3971 -1.7268 -3.87791 0
M  V30 474 C 46.3041 -4.03091 -4.32748 0
M  V30 475 H 45.2341 -0.387614 -0.646739 0
M  V30 476 H 47.8851 -1.46429 -1.10593 0
M  V30 477 H 46.2671 -1.33155 -3.72942 0
M  V30 478 H 47.4411 -3.89466 -2.46278 0
M  V30 479 H 45.7561 -3.43231 -2.35758 0
M  V30 480 H 48.3531 -2.22381 -4.86262 0
M  V30 481 H 48.6961 -0.687607 -4.10582 0
M  V30 482 H 49.2291 -2.1931 -3.31885 0
M  V30 483 H 45.9681 -5.07273 -4.15156 0
M  V30 484 H 45.4881 -3.51394 -4.86089 0
M  V30 485 H 47.1671 -4.08804 -5.01486 0
M  V30 486 N 47.2992 1.18797 -1.03562 0
M  V30 487 C 48.2472 2.24297 -0.615905 0
M  V30 488 C 49.2412 1.65643 0.354808 0
M  V30 489 O 50.4472 1.78618 0.22265 0
M  V30 490 H 46.8222 0.729909 -0.180934 0
M  V30 491 H 48.7932 2.5701 -1.5162 0
M  V30 492 C 47.5422 3.47698 0.0104735 0
M  V30 493 H 46.8652 3.93125 -0.727509 0
M  V30 494 H 48.3052 4.23159 0.266995 0
M  V30 495 C 46.7642 3.12489 1.25905 0
M  V30 496 O 47.2942 3.25761 2.35038 0
M  V30 497 N 45.5002 2.6686 1.15039 0
M  V30 498 H 45.0472 2.56261 0.262328 0
M  V30 499 H 45.0052 2.43674 1.98672 0
M  V30 500 N 48.7773 0.814389 1.34928 0
M  V30 501 C 49.6873 0.231978 2.3345 0
M  V30 502 C 50.7033 -0.629139 1.62228 0
M  V30 503 O 51.8793 -0.539052 1.94052 0
M  V30 504 C 48.9443 -0.603482 3.41407 0
M  V30 505 C 48.0053 0.279037 4.28392 0
M  V30 506 C 47.2383 -0.516643 5.31193 0
M  V30 507 O 47.4613 -1.75068 5.4287 0
M  V30 508 O 46.3953 0.0965652 6.01823 0
M  V30 509 H 50.2213 1.04721 2.85074 0
M  V30 510 H 47.8063 0.576343 1.37836 0
M  V30 511 H 49.6883 -1.07908 4.0735 0
M  V30 512 H 48.3633 -1.39618 2.92042 0
M  V30 513 H 47.2703 0.801948 3.65403 0
M  V30 514 H 48.6033 1.03588 4.81176 0
M  V30 515 N 50.2554 -1.46986 0.568584 0
M  V30 516 C 51.5324 -1.95592 -0.0174074 0
M  V30 517 C 51.9124 -1.51124 -1.47393 0
M  V30 518 O 51.2604 -0.755329 -2.15655 0
M  V30 519 C 51.4704 -3.48719 0.139913 0
M  V30 520 C 52.8184 -4.246 0.000426376 0
M  V30 521 O 53.8424 -3.56135 0.0680316 0
M  V30 522 O 52.7014 -5.46302 -0.146988 0
M  V30 523 H 49.7954 -0.82498 -0.0577599 0
M  V30 524 H 52.3414 -1.57335 0.635909 0
M  V30 525 H 51.1134 -3.73927 1.15301 0
M  V30 526 H 50.7364 -3.93771 -0.550491 0
M  V30 527 N 51.7335 -0.305618 -1.54608 0
M  V30 528 C 52.6815 0.584119 -2.25146 0
M  V30 529 C 53.6755 1.13326 -1.25911 0
M  V30 530 O 54.8815 1.08337 -1.43747 0
M  V30 531 H 51.2565 0.206983 -0.722954 0
M  V30 532 H 53.2275 -0.033291 -2.98381 0
M  V30 533 C 51.9765 1.74225 -3.009 0
M  V30 534 H 51.2995 1.32892 -3.77067 0
M  V30 535 H 52.7395 2.34077 -3.53531 0
M  V30 536 C 51.1985 2.64914 -2.0814 0
M  V30 537 O 51.7285 3.66137 -1.65246 0
M  V30 538 N 49.9345 2.3275 -1.74 0
M  V30 539 H 49.4815 1.50479 -2.09078 0
M  V30 540 H 49.4395 2.93694 -1.12211 0
M  V30 541 N 53.2116 1.57565 -0.0334293 0
M  V30 542 C 54.4366 1.96689 0.657895 0
M  V30 543 C 54.8616 0.910057 1.64619 0
M  V30 544 O 54.2196 -0.128598 1.80843 0
M  V30 545 C 54.2676 3.34905 1.33683 0
M  V30 546 O 53.3716 3.31574 2.45219 0
M  V30 547 H 52.7126 0.641205 0.172489 0
M  V30 548 H 55.2426 2.04372 -0.0965621 0
M  V30 549 H 55.2526 3.71234 1.69262 0
M  V30 550 H 53.9276 4.11366 0.612411 0
M  V30 551 H 52.5046 3.06968 2.11719 0
M  V30 552 N 54.6897 -0.239769 1.55765 0
M  V30 553 C 55.9357 -0.968234 1.78194 0
M  V30 554 C 56.2687 -1.84701 0.599938 0
M  V30 555 O 55.5437 -1.9031 -0.401524 0
M  V30 556 C 55.8267 -1.8227 3.10564 0
M  V30 557 C 55.6797 -0.971633 4.3918 0
M  V30 558 C 56.9987 -2.80388 3.39221 0
M  V30 559 H 54.1177 -0.350572 0.648281 0
M  V30 560 H 56.7597 -0.238259 1.885 0
M  V30 561 H 54.9097 -2.44507 3.01908 0
M  V30 562 H 56.5817 -0.367408 4.59835 0
M  V30 563 H 54.8247 -0.276276 4.32919 0
M  V30 564 H 55.4957 -1.60346 5.28198 0
M  V30 565 H 57.9717 -2.28287 3.47885 0
M  V30 566 H 56.8477 -3.3729 4.33044 0
M  V30 567 H 57.1087 -3.57212 2.60484 0
M  V30 568 N 56.1678 -1.49265 -0.50573 0
M  V30 569 C 57.4138 -1.58748 -1.26202 0
M  V30 570 C 57.7468 -0.271227 -1.92297 0
M  V30 571 O 57.0218 0.724831 -1.80489 0
M  V30 572 C 57.3048 -2.74332 -2.33268 0
M  V30 573 C 57.1578 -4.15737 -1.71705 0
M  V30 574 C 58.4768 -2.85576 -3.34865 0
M  V30 575 H 55.5958 -0.577826 -0.457478 0
M  V30 576 H 58.2378 -1.81532 -0.560897 0
M  V30 577 H 56.3878 -2.55036 -2.93068 0
M  V30 578 H 58.0598 -4.46537 -1.15769 0
M  V30 579 H 56.3028 -4.21605 -1.02135 0
M  V30 580 H 56.9738 -4.92477 -2.49341 0
M  V30 581 H 59.4498 -3.03127 -2.8505 0
M  V30 582 H 58.3258 -3.68135 -4.07146 0
M  V30 583 H 58.5868 -1.94732 -3.96903 0
M  V30 584 N 57.6459 0.756429 -1.3826 0
M  V30 585 C 58.8709 1.55077 -1.37717 0
M  V30 586 C 59.2959 1.88073 0.03164 0
M  V30 587 O 58.6539 1.50364 1.01293 0
M  V30 588 C 58.7019 2.8283 -2.23695 0
M  V30 589 O 57.8059 3.77862 -1.6521 0
M  V30 590 H 57.1469 0.469152 -0.469885 0
M  V30 591 H 59.6769 0.935019 -1.81985 0
M  V30 592 H 59.6869 3.31783 -2.37453 0
M  V30 593 H 58.3619 2.58144 -3.2609 0
M  V30 594 H 56.9389 3.36555 -1.60578 0
M  V30 595 N 59.124 1.23083 0.984299 0
M  V30 596 C 60.054 1.03292 2.09411 0
M  V30 597 C 61.035 -0.048923 1.7003 0
M  V30 598 O 62.22 0.114967 1.93859 0
M  V30 599 C 59.35 0.619155 3.41736 0
M  V30 600 C 58.304 1.64791 3.95004 0
M  V30 601 C 57.63 1.0897 5.23478 0
M  V30 602 C 58.93 3.03999 4.24714 0
M  V30 603 H 60.624 1.96119 2.26225 0
M  V30 604 H 58.17 0.944344 1.08711 0
M  V30 605 H 60.123 0.467777 4.18796 0
M  V30 606 H 58.847 -0.344786 3.24775 0
M  V30 607 H 57.506 1.78721 3.20085 0
M  V30 608 H 57.154 0.11686 5.02864 0
M  V30 609 H 56.854 1.77704 5.60085 0
M  V30 610 H 58.378 0.950093 6.03163 0
M  V30 611 H 59.792 2.93393 4.92538 0
M  V30 612 H 58.189 3.69936 4.72512 0
M  V30 613 H 59.259 3.53285 3.32142 0
M  V30 614 N 60.6021 -1.18246 1.0419 0
M  V30 615 C 61.8271 -1.92736 0.765996 0
M  V30 616 C 62.2521 -1.75728 -0.67091 0
M  V30 617 O 61.6101 -1.06825 -1.46486 0
M  V30 618 C 61.6581 -3.42148 1.13875 0
M  V30 619 O 60.7621 -4.11548 0.264954 0
M  V30 620 H 60.1031 -0.601238 0.281797 0
M  V30 621 H 62.6331 -1.49942 1.39207 0
M  V30 622 H 62.6431 -3.92858 1.1012 0
M  V30 623 H 61.3181 -3.53848 2.18551 0
M  V30 624 H 59.8951 -3.71137 0.362226 0
M  V30 625 N 62.0802 -0.821533 -1.34494 0
M  V30 626 C 63.0122 -0.199946 -2.28326 0
M  V30 627 C 64.0252 0.609377 -1.50965 0
M  V30 628 O 65.2142 0.439285 -1.7301 0
M  V30 629 C 62.3142 0.738431 -3.30757 0
M  V30 630 C 61.4872 -0.0277632 -4.37391 0
M  V30 631 C 60.5462 0.831332 -5.19591 0
M  V30 632 O 59.5722 0.276822 -5.68526 0
M  V30 633 N 60.7742 2.15132 -5.39165 0
M  V30 634 H 63.5392 -1.00609 -2.82308 0
M  V30 635 H 61.1002 -0.678366 -1.47003 0
M  V30 636 H 63.0922 1.31773 -3.82646 0
M  V30 637 H 61.6622 1.44533 -2.7718 0
M  V30 638 H 60.8822 -0.788359 -3.86236 0
M  V30 639 H 62.1702 -0.555251 -5.05761 0
M  V30 640 H 61.5682 2.62559 -5.01078 0
M  V30 641 H 60.1252 2.6795 -5.94177 0
M  V30 642 N 63.5583 1.46682 -0.576371 0
M  V30 643 C 64.9693 1.86112 -0.148091 0
M  V30 644 C 65.3203 1.48073 1.2872 0
M  V30 645 O 64.4453 0.892656 1.97131 0
M  V30 646 C 65.0403 3.37786 -0.261982 0
M  V30 647 C 63.5993 3.76235 0.111384 0
M  V30 648 C 62.7463 2.70713 -0.60083 0
M  V30 649 H 65.6973 1.37927 -0.78497 0
M  V30 650 H 65.7183 3.77007 0.514364 0
M  V30 651 H 65.2303 3.6544 -1.30671 0
M  V30 652 H 63.3313 3.54198 1.15649 0
M  V30 653 H 63.4443 4.78391 -0.26052 0
M  V30 654 H 61.8083 2.54666 -0.0417783 0
M  V30 655 H 62.5913 3.01208 -1.64708 0
M  V30 656 N 65.0364 0.313813 1.54444 0
M  V30 657 C 65.9834 -0.55655 2.23989 0
M  V30 658 C 66.9534 -1.11943 1.22711 0
M  V30 659 O 68.1384 -1.16158 1.51367 0
M  V30 660 C 65.2784 -1.71635 2.99392 0
M  V30 661 C 64.3914 -1.18364 4.15468 0
M  V30 662 C 63.5264 -2.30834 4.78424 0
M  V30 663 C 62.5654 -1.74762 5.86622 0
M  V30 664 N 61.7024 -2.80855 6.43479 0
M  V30 665 H 66.5424 0.0430893 2.97969 0
M  V30 666 H 64.0794 0.0330359 1.47063 0
M  V30 667 H 66.0374 -2.39868 3.41349 0
M  V30 668 H 64.6674 -2.28742 2.27765 0
M  V30 669 H 63.7194 -0.393163 3.78363 0
M  V30 670 H 65.0314 -0.733262 4.93381 0
M  V30 671 H 64.1854 -3.0699 5.23299 0
M  V30 672 H 62.9244 -2.79204 3.99871 0
M  V30 673 H 61.9294 -0.970995 5.41158 0
M  V30 674 H 63.1544 -1.2728 6.67066 0
M  V30 675 H 61.1004 -3.28535 5.67804 0
M  V30 676 H 61.0174 -2.40351 7.16776 0
M  V30 677 H 62.2854 -3.5687 6.93011 0
M  V30 678 N 66.5145 -1.57545 0.0417849 0
M  V30 679 C 67.4475 -2.06514 -0.970928 0
M  V30 680 C 68.4255 -0.963607 -1.30971 0
M  V30 681 O 69.6095 -1.23486 -1.4242 0
M  V30 682 C 66.7365 -2.4978 -2.28752 0
M  V30 683 C 65.7825 -3.71078 -2.10246 0
M  V30 684 S 66.6155 -5.17158 -1.38952 0
M  V30 685 C 67.7715 -5.6373 -2.71954 0
M  V30 686 H 68.0045 -2.9209 -0.554129 0
M  V30 687 H 65.5375 -1.53459 -0.17024 0
M  V30 688 H 67.4955 -2.75371 -3.04435 0
M  V30 689 H 66.1565 -1.64527 -2.67562 0
M  V30 690 H 65.3495 -3.9924 -3.07609 0
M  V30 691 H 64.9515 -3.45705 -1.42704 0
M  V30 692 H 67.2435 -5.68743 -3.68154 0
M  V30 693 H 68.1865 -6.63086 -2.4844 0
M  V30 694 H 68.5945 -4.91424 -2.77782 0
M  V30 695 N 67.9926 0.231505 -1.5589 0
M  V30 696 C 69.2696 0.981096 -1.69215 0
M  V30 697 C 69.6496 2.02799 -0.586164 0
M  V30 698 O 68.9976 2.24823 0.408253 0
M  V30 699 C 69.2076 1.60054 -3.10135 0
M  V30 700 C 70.5556 2.09658 -3.69227 0
M  V30 701 O 71.5796 1.69967 -3.13033 0
M  V30 702 O 70.4386 2.8258 -4.67772 0
M  V30 703 H 67.5326 0.457653 -0.688827 0
M  V30 704 H 70.0786 0.224073 -1.68214 0
M  V30 705 H 68.8506 0.844105 -3.82087 0
M  V30 706 H 68.4736 2.42336 -3.15212 0
M  V30 707 N 69.4707 1.49531 0.497807 0
M  V30 708 C 70.3807 1.69176 1.62532 0
M  V30 709 C 71.3967 0.5744 1.64246 0
M  V30 710 O 72.5727 0.849497 1.82608 0
M  V30 711 C 69.6377 1.75695 2.98885 0
M  V30 712 C 68.6987 2.9929 3.07773 0
M  V30 713 C 67.9317 3.05488 4.37622 0
M  V30 714 O 68.1547 2.19192 5.26603 0
M  V30 715 O 67.0887 3.9798 4.51548 0
M  V30 716 H 70.9147 2.647 1.48887 0
M  V30 717 H 68.4997 1.3331 0.674441 0
M  V30 718 H 70.3817 1.82317 3.79919 0
M  V30 719 H 69.0567 0.8335 3.12785 0
M  V30 720 H 67.9637 2.98183 2.25915 0
M  V30 721 H 69.2967 3.91125 2.98801 0
M  V30 722 N 70.9488 -0.749086 1.3866 0
M  V30 723 C 71.8788 -1.8764 1.38973 0
M  V30 724 C 72.8598 -1.68178 0.255004 0
M  V30 725 O 74.0448 -1.88704 0.458754 0
M  V30 726 C 71.1748 -3.25222 1.21851 0
M  V30 727 C 70.1288 -3.59295 2.32575 0
M  V30 728 C 69.4548 -4.95663 2.00555 0
M  V30 729 C 70.7548 -3.63709 3.7485 0
M  V30 730 H 72.4488 -1.87635 2.3331 0
M  V30 731 H 69.9948 -0.901329 1.12303 0
M  V30 732 H 71.9478 -4.03746 1.20695 0
M  V30 733 H 70.6718 -3.25719 0.239775 0
M  V30 734 H 69.3308 -2.83093 2.32925 0
M  V30 735 H 68.9788 -4.92724 1.01154 0
M  V30 736 H 68.6788 -5.19429 2.74714 0
M  V30 737 H 70.2028 -5.7656 2.01024 0
M  V30 738 H 71.6168 -4.32338 3.76506 0
M  V30 739 H 70.0138 -3.98986 4.48252 0
M  V30 740 H 71.0838 -2.63834 4.06841 0
M  V30 741 N 72.4269 -1.23603 -0.977757 0
M  V30 742 C 73.3589 -0.977369 -2.07317 0
M  V30 743 C 74.3719 0.0495845 -1.62724 0
M  V30 744 O 75.5609 -0.186261 -1.77526 0
M  V30 745 C 72.6609 -0.451216 -3.35883 0
M  V30 746 C 71.8339 -1.53896 -4.09432 0
M  V30 747 C 70.8929 -1.01721 -5.16274 0
M  V30 748 O 69.9189 -1.70676 -5.43009 0
M  V30 749 N 71.1209 0.153594 -5.80297 0
M  V30 750 H 73.8859 -1.92047 -2.30082 0
M  V30 751 H 71.4469 -1.14497 -1.14465 0
M  V30 752 H 73.4389 -0.0871574 -4.04606 0
M  V30 753 H 72.0089 0.397368 -3.10064 0
M  V30 754 H 71.2289 -2.07566 -3.35127 0
M  V30 755 H 72.5169 -2.27037 -4.55337 0
M  V30 756 H 71.9149 0.730323 -5.60966 0
M  V30 757 H 70.4719 0.458892 -6.50183 0
M  V30 758 N 73.905 1.17692 -1.04816 0
M  V30 759 C 74.835 2.23777 -0.666791 0
M  V30 760 C 75.816 1.66796 0.33361 0
M  V30 761 O 77.001 1.93039 0.212042 0
M  V30 762 C 74.131 3.47281 -0.0367933 0
M  V30 763 C 73.085 4.17059 -0.961546 0
M  V30 764 C 72.411 5.34342 -0.195626 0
M  V30 765 C 73.711 4.69713 -2.28402 0
M  V30 766 H 75.405 2.55933 -1.55367 0
M  V30 767 H 72.951 1.23019 -0.748484 0
M  V30 768 H 74.904 4.20706 0.241775 0
M  V30 769 H 73.628 3.14381 0.885004 0
M  V30 770 H 72.287 3.45541 -1.22462 0
M  V30 771 H 71.935 4.97692 0.728816 0
M  V30 772 H 71.635 5.81966 -0.811775 0
M  V30 773 H 73.159 6.10553 0.0757473 0
M  V30 774 H 74.573 5.34794 -2.06563 0
M  V30 775 H 72.97 5.279 -2.8538 0
M  V30 776 H 74.04 3.86726 -2.92525 0
M  V30 777 N 75.3831 0.828654 1.34056 0
M  V30 778 C 76.6301 0.419458 1.98108 0
M  V30 779 C 76.9581 -1.01886 1.65679 0
M  V30 780 O 76.2131 -1.72539 0.923512 0
M  V30 781 C 76.5121 0.575226 3.52741 0
M  V30 782 C 76.1781 1.98012 4.05095 0
M  V30 783 C 74.8401 2.36442 4.19104 0
M  V30 784 C 77.1921 2.89824 4.33188 0
M  V30 785 C 74.5201 3.66009 4.58535 0
M  V30 786 C 76.8721 4.1886 4.74066 0
M  V30 787 C 75.5361 4.5726 4.86281 0
M  V30 788 H 74.8061 0.153491 0.724929 0
M  V30 789 H 77.4531 1.05371 1.59904 0
M  V30 790 H 75.7581 -0.142385 3.91541 0
M  V30 791 H 77.4551 0.239057 4.00287 0
M  V30 792 H 74.0451 1.67162 3.94658 0
M  V30 793 H 78.2291 2.61375 4.21897 0
M  V30 794 H 73.4851 3.95579 4.66184 0
M  V30 795 H 77.6591 4.90086 4.94761 0
M  V30 796 H 75.2861 5.57707 5.16592 0
M  V30 797 N 76.8612 -1.46375 0.584142 0
M  V30 798 C 78.2772 -1.57694 0.245929 0
M  V30 799 C 78.4772 -1.57903 -1.25175 0
M  V30 800 O 77.5332 -1.49676 -2.03355 0
M  V30 801 C 78.8462 -2.87028 0.896402 0
M  V30 802 C 80.3942 -3.00662 0.870127 0
M  V30 803 C 80.8692 -4.32734 1.50017 0
M  V30 804 N 82.3602 -4.39436 1.46458 0
M  V30 805 C 83.0952 -5.40248 1.92144 0
M  V30 806 N 82.5912 -6.47726 2.4581 0
M  V30 807 N 84.3842 -5.31459 1.83052 0
M  V30 808 H 76.5352 -1.44483 1.55687 0
M  V30 809 H 78.7982 -0.689291 0.650831 0
M  V30 810 H 78.5042 -2.9269 1.95002 0
M  V30 811 H 78.3782 -3.75014 0.405486 0
M  V30 812 H 80.7652 -2.94581 -0.174871 0
M  V30 813 H 80.8462 -2.14148 1.39908 0
M  V30 814 H 80.4902 -4.39573 2.54437 0
M  V30 815 H 80.4202 -5.18025 0.946432 0
M  V30 816 H 82.9112 -3.62367 1.07231 0
M  V30 817 H 83.2242 -7.20863 2.78525 0
M  V30 818 H 81.5692 -6.48542 2.49836 0
M  V30 819 H 84.7602 -4.46396 1.40883 0
M  V30 820 H 84.9332 -6.09881 2.18973 0
M  V30 821 N 78.3393 -0.321999 -1.54275 0
M  V30 822 C 79.5873 0.280489 -2.00144 0
M  V30 823 C 79.9083 1.52777 -1.21178 0
M  V30 824 O 79.1783 1.9338 -0.313187 0
M  V30 825 H 77.7583 0.106632 -0.73935 0
M  V30 826 H 80.4203 -0.438184 -1.8991 0
M  V30 827 H 79.5163 0.537972 -3.07428 0
M  V30 828 N 79.8174 1.5752 -0.0501392 0
M  V30 829 C 81.0944 1.83996 0.663685 0
M  V30 830 C 81.4744 0.938339 1.89099 0
M  V30 831 O 80.8224 -0.00087759 2.285 0
M  V30 832 C 81.0324 3.33702 1.02196 0
M  V30 833 C 82.3804 4.00691 1.40469 0
M  V30 834 O 83.4044 3.38321 1.11433 0
M  V30 835 O 82.2634 5.10658 1.94654 0
M  V30 836 H 79.3574 0.759385 0.32751 0
M  V30 837 H 81.9034 1.69514 -0.0794238 0
M  V30 838 H 80.6754 3.91015 0.149364 0
M  V30 839 H 80.2984 3.53368 1.82255 0
M  V30 840 N 81.2955 -0.223234 1.56011 0
M  V30 841 C 82.5235 -0.964812 1.83027 0
M  V30 842 C 82.9385 -1.78013 0.62904 0
M  V30 843 O 82.2955 -1.78008 -0.402414 0
M  V30 844 C 82.3465 -1.88373 3.08542 0
M  V30 845 O 82.0675 -1.10137 4.2403 0
M  V30 846 C 83.5685 -2.73934 3.48533 0
M  V30 847 H 80.7885 -0.282842 0.608475 0
M  V30 848 H 83.3325 -0.238971 2.03099 0
M  V30 849 H 81.4875 -2.56354 2.9045 0
M  V30 850 H 81.9015 -1.72501 4.95322 0
M  V30 851 H 83.3755 -3.34117 4.39397 0
M  V30 852 H 83.8525 -3.46244 2.70207 0
M  V30 853 H 84.4585 -2.11369 3.69057 0
M  V30 854 N 82.7736 -1.49793 -0.48987 0
M  V30 855 C 84.0196 -1.60078 -1.24511 0
M  V30 856 C 84.3526 -0.291608 -1.91998 0
M  V30 857 O 83.6276 0.705647 -1.81248 0
M  V30 858 C 83.9106 -2.76791 -2.30345 0
M  V30 859 C 83.7636 -4.17535 -1.67286 0
M  V30 860 C 85.0826 -2.89111 -3.31817 0
M  V30 861 H 82.2016 -0.582645 -0.451324 0
M  V30 862 H 84.8436 -1.82117 -0.541612 0
M  V30 863 H 82.9936 -2.5813 -2.90346 0
M  V30 864 H 84.6656 -4.4774 -1.11026 0
M  V30 865 H 82.9086 -4.22665 -0.976577 0
M  V30 866 H 83.5796 -4.95094 -2.44103 0
M  V30 867 H 86.0556 -3.06133 -2.81819 0
M  V30 868 H 84.9316 -3.72433 -4.03219 0
M  V30 869 H 85.1926 -1.9893 -3.94815 0
M  V30 870 N 84.2517 0.741722 -1.39055 0
M  V30 871 C 85.1817 1.869 -1.39966 0
M  V30 872 C 86.1627 1.6804 -0.26392 0
M  V30 873 O 87.3477 1.88458 -0.468755 0
M  V30 874 C 84.4777 3.24572 -1.23574 0
M  V30 875 C 83.4317 3.58056 -2.34477 0
M  V30 876 C 82.7577 4.94593 -2.0318 0
M  V30 877 C 84.0577 3.61716 -3.76774 0
M  V30 878 H 85.7517 1.86395 -2.34302 0
M  V30 879 H 83.2977 0.895361 -1.1278 0
M  V30 880 H 85.2507 4.031 -1.22834 0
M  V30 881 H 83.9747 3.25587 -0.257045 0
M  V30 882 H 82.6337 2.81854 -2.34423 0
M  V30 883 H 82.2817 4.92181 -1.03765 0
M  V30 884 H 81.9817 5.17964 -2.77465 0
M  V30 885 H 83.5057 5.75486 -2.04079 0
M  V30 886 H 84.9197 4.30335 -3.78794 0
M  V30 887 H 83.3167 3.96603 -4.50362 0
M  V30 888 H 84.3867 2.61672 -4.08235 0
M  V30 889 N 85.7298 1.2412 0.971189 0
M  V30 890 C 86.6598 1.05508 2.08304 0
M  V30 891 C 87.6408 -0.0308864 1.70072 0
M  V30 892 O 88.8258 0.135521 1.93727 0
M  V30 893 C 85.9558 0.655365 3.4106 0
M  V30 894 C 84.9098 1.68971 3.93234 0
M  V30 895 C 84.2358 1.14516 5.22293 0
M  V30 896 C 85.5358 3.08487 4.21465 0
M  V30 897 H 87.2298 1.98507 2.24132 0
M  V30 898 H 84.7758 0.955821 1.07704 0
M  V30 899 H 86.7288 0.51217 4.18276 0
M  V30 900 H 85.4528 -0.31032 3.25122 0
M  V30 901 H 84.1118 1.82106 3.18171 0
M  V30 902 H 83.7598 0.170189 5.02712 0
M  V30 903 H 83.4598 1.83635 5.58168 0
M  V30 904 H 84.9838 1.01401 6.02121 0
M  V30 905 H 86.3978 2.98601 4.89398 0
M  V30 906 H 84.7948 3.74926 4.68562 0
M  V30 907 H 85.8648 3.56787 3.28376 0
M  V30 908 N 87.2079 -1.17134 1.05439 0
M  V30 909 C 88.1549 -2.21235 0.657539 0
M  V30 910 C 89.1249 -1.62551 -0.341543 0
M  V30 911 O 90.3099 -1.89379 -0.232393 0
M  V30 912 C 87.4499 -3.45076 0.0410575 0
M  V30 913 C 86.5629 -4.18042 1.08927 0
M  V30 914 C 85.6979 -5.29376 0.439848 0
M  V30 915 C 84.7369 -5.94132 1.4722 0
M  V30 916 N 83.8739 -6.96975 0.846756 0
M  V30 917 H 88.7139 -2.54534 1.54972 0
M  V30 918 H 86.2509 -1.25028 0.775006 0
M  V30 919 H 88.2089 -4.15862 -0.33383 0
M  V30 920 H 86.8389 -3.12353 -0.814568 0
M  V30 921 H 85.8909 -3.45945 1.58196 0
M  V30 922 H 87.2029 -4.62306 1.87282 0
M  V30 923 H 86.3569 -6.06699 0.0115125 0
M  V30 924 H 85.0959 -4.86251 -0.375656 0
M  V30 925 H 84.1009 -5.15538 1.91052 0
M  V30 926 H 85.3259 -6.39337 2.28965 0
M  V30 927 H 83.2719 -6.5598 0.0518075 0
M  V30 928 H 83.1889 -7.39565 1.5678 0
M  V30 929 H 84.4569 -7.78239 0.443277 0
M  V30 930 N 88.686 -0.835752 -1.33615 0
M  V30 931 C 89.934 -0.429109 -1.97492 0
M  V30 932 C 90.255 1.01433 -1.66543 0
M  V30 933 O 89.525 1.70611 -0.962744 0
M  V30 934 H 88.105 -0.155686 -0.730596 0
M  V30 935 H 90.767 -1.06802 -1.63031 0
M  V30 936 H 89.863 -0.55861 -3.0706 0
M  V30 937 N 90.1641 1.46063 -0.591896 0
M  V30 938 C 91.1111 2.30399 0.136069 0
M  V30 939 C 92.0811 1.41169 0.875238 0
M  V30 940 O 93.2661 1.70112 0.86409 0
M  V30 941 C 90.4061 3.25804 1.13781 0
M  V30 942 C 89.5191 4.30134 0.401137 0
M  V30 943 C 88.6541 5.12659 1.39121 0
M  V30 944 C 87.6931 6.0873 0.641462 0
M  V30 945 N 86.8301 6.8409 1.58004 0
M  V30 946 H 91.6701 2.92118 -0.589144 0
M  V30 947 H 89.2071 1.43959 -0.302342 0
M  V30 948 H 91.1651 3.79569 1.73156 0
M  V30 949 H 89.7951 2.65872 1.83062 0
M  V30 950 H 88.8471 3.79152 -0.307826 0
M  V30 951 H 90.1591 4.98458 -0.184565 0
M  V30 952 H 89.3131 5.70747 2.05749 0
M  V30 953 H 88.0521 4.44316 2.01084 0
M  V30 954 H 87.0571 5.49786 -0.0385419 0
M  V30 955 H 88.2821 6.79095 0.0270945 0
M  V30 956 H 86.2281 6.18449 2.18761 0
M  V30 957 H 86.1451 7.48709 1.04738 0
M  V30 958 H 87.4131 7.4673 2.23639 0
M  V30 959 N 91.6422 0.330177 1.54103 0
M  V30 960 C 92.5892 -0.532762 2.24567 0
M  V30 961 C 93.5592 -1.10635 1.23892 0
M  V30 962 O 94.7442 -1.14546 1.5259 0
M  V30 963 C 91.8842 -1.6845 3.01195 0
M  V30 964 C 90.9972 -1.13951 4.167 0
M  V30 965 C 90.1322 -2.25746 4.80845 0
M  V30 966 C 89.1712 -1.6853 5.88442 0
M  V30 967 N 88.3082 -2.74014 6.46421 0
M  V30 968 H 93.1482 0.0746905 2.97906 0
M  V30 969 H 90.6852 0.048632 1.4702 0
M  V30 970 H 92.6432 -2.36234 3.43874 0
M  V30 971 H 91.2732 -2.26314 2.30178 0
M  V30 972 H 90.3252 -0.35301 3.78758 0
M  V30 973 H 91.6372 -0.680892 4.94131 0
M  V30 974 H 90.7912 -3.01422 5.26526 0
M  V30 975 H 89.5302 -2.74947 4.0281 0
M  V30 976 H 88.5352 -0.913543 5.42157 0
M  V30 977 H 89.7602 -1.20198 6.68378 0
M  V30 978 H 87.7062 -3.22494 5.71256 0
M  V30 979 H 87.6232 -2.32735 7.19285 0
M  V30 980 H 88.8912 -3.49499 6.96757 0
M  V30 981 N 93.1203 -1.57491 0.0584922 0
M  V30 982 C 94.5363 -1.56792 -0.298091 0
M  V30 983 C 94.7363 -1.06679 -1.70944 0
M  V30 984 O 93.7923 -0.726672 -2.41818 0
M  V30 985 C 95.1053 -3.00461 -0.119879 0
M  V30 986 C 96.6533 -3.1242 -0.190428 0
M  V30 987 C 97.1283 -4.57982 -0.0406567 0
M  V30 988 N 98.6193 -4.63099 -0.0966958 0
M  V30 989 C 99.3543 -5.734 -0.00502943 0
M  V30 990 N 98.8503 -6.9266 0.139402 0
M  V30 991 N 100.643 -5.62067 -0.0611391 0
M  V30 992 H 92.7943 -1.88386 0.98105 0
M  V30 993 H 95.0573 -0.867865 0.381463 0
M  V30 994 H 94.7633 -3.41187 0.85349 0
M  V30 995 H 94.6373 -3.66843 -0.877833 0
M  V30 996 H 97.0243 -2.71589 -1.15427 0
M  V30 997 H 97.1053 -2.48702 0.598405 0
M  V30 998 H 96.7493 -4.995 0.919897 0
M  V30 999 H 96.6793 -5.19715 -0.848727 0
M  V30 1000 H 99.1703 -3.77331 -0.207277 0
M  V30 1001 H 99.4833 -7.72536 0.201855 0
M  V30 1002 H 97.8283 -6.94781 0.174586 0
M  V30 1003 H 101.019 -4.67782 -0.172583 0
M  V30 1004 H 101.192 -6.47999 0.0137562 0
M  V30 1005 N 94.5984 0.214957 -1.56127 0
M  V30 1006 C 96.0144 0.564948 -1.49267 0
M  V30 1007 C 96.2144 1.86827 -0.754838 0
M  V30 1008 O 95.2704 2.50745 -0.297198 0
M  V30 1009 C 96.5834 0.638071 -2.93852 0
M  V30 1010 C 98.1314 0.728253 -3.0441 0
M  V30 1011 C 98.6064 0.832663 -4.50367 0
M  V30 1012 N 100.097 0.896712 -4.54437 0
M  V30 1013 C 100.832 0.997324 -5.6466 0
M  V30 1014 N 100.328 1.06147 -6.8462 0
M  V30 1015 N 102.121 1.03297 -5.52527 0
M  V30 1016 H 94.2724 -0.640211 -2.02522 0
M  V30 1017 H 96.5354 -0.225507 -0.920788 0
M  V30 1018 H 96.2414 -0.250126 -3.50809 0
M  V30 1019 H 96.1154 1.49947 -3.46115 0
M  V30 1020 H 98.5024 1.60689 -2.47514 0
M  V30 1021 H 98.5834 -0.158952 -2.55306 0
M  V30 1022 H 98.2274 -0.0415417 -5.07883 0
M  V30 1023 H 98.1574 1.73538 -4.97184 0
M  V30 1024 H 100.648 0.857188 -3.6805 0
M  V30 1025 H 100.961 1.1382 -7.64372 0
M  V30 1026 H 99.3064 1.03049 -6.87318 0
M  V30 1027 H 102.497 0.979558 -4.57736 0
M  V30 1028 H 102.67 1.10793 -6.38458 0
M  V30 1029 N 96.0765 1.50051 0.48192 0
M  V30 1030 C 96.9865 1.7089 1.60728 0
M  V30 1031 C 98.0025 0.591788 1.63627 0
M  V30 1032 O 99.1785 0.868817 1.81696 0
M  V30 1033 C 96.2435 1.78855 2.97005 0
M  V30 1034 C 95.3045 3.02537 3.04581 0
M  V30 1035 C 94.5375 3.10112 4.34357 0
M  V30 1036 O 94.7605 2.24765 5.24249 0
M  V30 1037 O 93.6945 4.02747 4.47301 0
M  V30 1038 H 97.5205 2.66264 1.46072 0
M  V30 1039 H 95.1055 1.34018 0.660264 0
M  V30 1040 H 96.9875 1.86336 3.77964 0
M  V30 1041 H 95.6625 0.866628 3.11883 0
M  V30 1042 H 94.5695 3.00563 2.22739 0
M  V30 1043 H 95.9025 3.94272 2.94636 0
M  V30 1044 N 97.5546 -0.734337 1.39446 0
M  V30 1045 C 98.5176 -1.83004 1.37994 0
M  V30 1046 C 99.5176 -1.58397 0.276938 0
M  V30 1047 O 100.708 -1.65785 0.534875 0
M  V30 1048 C 97.8396 -3.20802 1.1532 0
M  V30 1049 H 99.0326 -1.85694 2.35494 0
M  V30 1050 H 96.5856 -0.938059 1.25021 0
M  V30 1051 H 97.3206 -3.23772 0.185036 0
M  V30 1052 H 97.1056 -3.4006 1.95197 0
M  V30 1053 H 98.5956 -4.00862 1.17046 0
M  V30 1054 N 99.0327 -1.24633 -0.964593 0
M  V30 1055 C 100.279 -1.08949 -1.71049 0
M  V30 1056 C 100.612 0.370302 -1.90637 0
M  V30 1057 O 99.8867 1.27349 -1.47011 0
M  V30 1058 C 100.17 -1.83329 -3.0994 0
M  V30 1059 C 100.023 -3.37077 -2.97824 0
M  V30 1060 C 101.342 -1.60846 -4.09654 0
M  V30 1061 H 98.4607 -0.397178 -0.620821 0
M  V30 1062 H 101.103 -1.5334 -1.12191 0
M  V30 1063 H 99.2527 -1.45597 -3.60186 0
M  V30 1064 H 100.925 -3.84425 -2.5498 0
M  V30 1065 H 99.1677 -3.65298 -2.33965 0
M  V30 1066 H 99.8387 -3.84324 -3.96231 0
M  V30 1067 H 102.315 -1.93674 -3.68279 0
M  V30 1068 H 101.191 -2.1534 -5.04896 0
M  V30 1069 H 101.452 -0.547434 -4.38698 0
M  V30 1070 N 100.511 1.16574 -1.06058 0
M  V30 1071 C 101.751 1.88723 -0.78504 0
M  V30 1072 C 102.115 1.79706 0.676006 0
M  V30 1073 O 103.316 2.46757 1.06603 0
M  V30 1074 C 101.587 3.34338 -1.26304 0
M  V30 1075 S 103.146 4.24366 -1.1162 0
M  V30 1076 H 99.9638 0.651448 -0.284846 0
M  V30 1077 H 102.566 1.40732 -1.35701 0
M  V30 1078 H 101.27 3.38439 -2.32136 0
M  V30 1079 H 100.801 3.87378 -0.685719 0
M  V30 1080 H 102.816 4.96179 -0.0456539 0
M  V30 1081 N 101.989 0.842826 1.3317 0
M  V30 1082 C 103.238 0.436738 1.96915 0
M  V30 1083 C 103.551 -1.01025 1.67491 0
M  V30 1084 O 104.757 -1.5212 2.24881 0
M  V30 1085 C 103.213 0.730021 3.52418 0
M  V30 1086 C 102.821 2.19195 3.90714 0
M  V30 1087 C 104.565 0.391076 4.22695 0
M  V30 1088 C 102.472 2.42907 5.39212 0
M  V30 1089 H 101.402 0.15958 0.736919 0
M  V30 1090 H 104.053 1.03196 1.51733 0
M  V30 1091 H 102.435 0.0643755 3.95948 0
M  V30 1092 H 103.609 2.8984 3.58231 0
M  V30 1093 H 101.924 2.49425 3.33431 0
M  V30 1094 H 104.521 0.545817 5.31907 0
M  V30 1095 H 104.864 -0.666294 4.10933 0
M  V30 1096 H 105.397 1.01212 3.84709 0
M  V30 1097 H 102.136 3.47224 5.55982 0
M  V30 1098 H 101.656 1.76827 5.73142 0
M  V30 1099 H 103.335 2.2626 6.06148 0
M  V30 1100 N 103.467 -1.45747 0.599634 0
M  V30 1101 C 104.713 -2.02592 0.0918643 0
M  V30 1102 C 105.046 -1.46806 -1.27128 0
M  V30 1103 O 104.321 -0.639658 -1.83681 0
M  V30 1104 C 104.604 -3.60073 0.0443398 0
M  V30 1105 C 104.457 -4.26208 1.43759 0
M  V30 1106 C 105.776 -4.35309 -0.647608 0
M  V30 1107 H 102.895 -0.736175 0.034857 0
M  V30 1108 H 105.537 -1.73694 0.770081 0
M  V30 1109 H 103.687 -3.84823 -0.533224 0
M  V30 1110 H 105.359 -4.12668 2.06162 0
M  V30 1111 H 103.602 -3.84916 2.00056 0
M  V30 1112 H 104.273 -5.35069 1.35665 0
M  V30 1113 H 106.749 -4.15805 -0.156776 0
M  V30 1114 H 105.625 -5.45038 -0.649942 0
M  V30 1115 H 105.886 -4.07598 -1.71219 0
M  V30 1116 N 104.945 -0.338344 -1.53925 0
M  V30 1117 C 105.875 0.51328 -2.27789 0
M  V30 1118 C 106.856 1.107 -1.29149 0
M  V30 1119 O 108.041 1.12937 -1.57984 0
M  V30 1120 C 105.171 1.66697 -3.04679 0
M  V30 1121 C 104.125 1.20183 -4.1078 0
M  V30 1122 C 103.451 2.44363 -4.75595 0
M  V30 1123 C 104.751 0.30605 -5.21403 0
M  V30 1124 H 106.445 -0.102883 -2.99223 0
M  V30 1125 H 103.991 -0.0509219 -1.4391 0
M  V30 1126 H 105.944 2.26915 -3.55088 0
M  V30 1127 H 104.668 2.30995 -2.30887 0
M  V30 1128 H 103.327 0.622499 -3.61276 0
M  V30 1129 H 102.975 3.07057 -3.98403 0
M  V30 1130 H 102.675 2.13925 -5.47275 0
M  V30 1131 H 104.199 3.05317 -5.28786 0
M  V30 1132 H 105.613 0.814929 -5.67478 0
M  V30 1133 H 104.01 0.0937929 -6.00027 0
M  V30 1134 H 105.08 -0.65921 -4.80398 0
M  V30 1135 N 106.423 1.57458 -0.0668435 0
M  V30 1136 C 107.648 1.9804 0.616027 0
M  V30 1137 C 108.073 0.944771 1.62652 0
M  V30 1138 O 107.431 -0.0902094 1.81075 0
M  V30 1139 C 107.479 3.37665 1.26549 0
M  V30 1140 O 106.583 3.36701 2.38131 0
M  V30 1141 H 105.924 0.644719 0.158849 0
M  V30 1142 H 108.454 2.04121 -0.139891 0
M  V30 1143 H 108.464 3.7474 1.6135 0
M  V30 1144 H 107.139 4.12573 0.525016 0
M  V30 1145 H 105.716 3.1139 2.0516 0
M  V30 1146 N 107.901 -0.206675 1.56239 0
M  V30 1147 C 109.178 -0.954051 1.70755 0
M  V30 1148 C 109.558 -2.01841 0.618353 0
M  V30 1149 O 108.906 -2.25444 -0.372434 0
M  V30 1150 C 109.116 -1.551 3.12642 0
M  V30 1151 C 110.464 -2.03757 3.72516 0
M  V30 1152 O 111.488 -1.64965 3.15698 0
M  V30 1153 O 110.347 -2.75103 4.72208 0
M  V30 1154 H 107.441 -0.446636 0.696021 0
M  V30 1155 H 109.987 -0.197283 1.68549 0
M  V30 1156 H 108.759 -0.783212 3.83382 0
M  V30 1157 H 108.382 -2.37291 3.19028 0
M  V30 1158 N 109.379 -1.50304 -0.473955 0
M  V30 1159 C 110.656 -1.51667 -1.23518 0
M  V30 1160 C 111.036 -0.259701 -2.09496 0
M  V30 1161 O 110.384 0.756986 -2.15597 0
M  V30 1162 C 110.594 -2.81082 -2.06868 0
M  V30 1163 C 111.942 -3.31631 -2.65153 0
M  V30 1164 O 112.966 -2.82384 -2.17113 0
M  V30 1165 O 111.825 -4.17471 -3.52675 0
M  V30 1166 H 108.919 -0.60822 -0.560355 0
M  V30 1167 H 111.465 -1.62592 -0.486011 0
M  V30 1168 H 110.237 -3.64041 -1.4349 0
M  V30 1169 H 109.86 -2.73146 -2.88924 0
M  V30 1170 N 110.857 0.726932 -1.39834 0
M  V30 1171 C 112.085 1.51613 -1.40787 0
M  V30 1172 C 112.5 1.88799 -0.00451505 0
M  V30 1173 O 111.857 1.54662 0.968809 0
M  V30 1174 C 111.908 2.79863 -2.28821 0
M  V30 1175 O 111.629 2.44253 -3.63692 0
M  V30 1176 C 113.13 3.73837 -2.38245 0
M  V30 1177 H 110.35 0.468264 -0.480593 0
M  V30 1178 H 112.894 0.897607 -1.83748 0
M  V30 1179 H 111.049 3.38027 -1.89252 0
M  V30 1180 H 111.463 3.26695 -4.1033 0
M  V30 1181 H 112.937 4.60699 -3.04073 0
M  V30 1182 H 113.414 4.16153 -1.40403 0
M  V30 1183 H 114.02 3.21589 -2.78317 0
M  V30 1184 N 112.336 1.25143 0.95797 0
M  V30 1185 C 113.576 1.10893 1.71703 0
M  V30 1186 C 113.94 -0.34478 1.88879 0
M  V30 1187 O 115.141 -0.609014 2.6181 0
M  V30 1188 C 113.412 1.83889 3.06463 0
M  V30 1189 S 114.971 1.85491 3.97666 0
M  V30 1190 H 111.789 0.396428 0.590226 0
M  V30 1191 H 114.391 1.58618 1.14283 0
M  V30 1192 H 113.095 2.88756 2.9163 0
M  V30 1193 H 112.626 1.36538 3.68946 0
M  V30 1194 H 114.641 0.929553 4.87415 0
M  V30 1195 N 113.814 -1.1601 1.06675 0
M  V30 1196 C 115.039 -1.91068 0.806706 0
M  V30 1197 C 115.464 -1.77112 -0.633485 0
M  V30 1198 O 114.822 -1.09908 -1.44187 0
M  V30 1199 C 114.87 -3.39655 1.21106 0
M  V30 1200 O 113.974 -4.10893 0.352189 0
M  V30 1201 H 113.315 -0.595125 0.294486 0
M  V30 1202 H 115.845 -1.46955 1.42356 0
M  V30 1203 H 115.855 -3.90434 1.18428 0
M  V30 1204 H 114.53 -3.49132 2.26008 0
M  V30 1205 H 113.107 -3.70285 0.440868 0
M  V30 1206 N 115.292 -0.849877 -1.32721 0
M  V30 1207 C 116.569 -0.372405 -1.92022 0
M  V30 1208 C 116.949 1.1435 -1.77447 0
M  V30 1209 O 116.297 1.96296 -1.16962 0
M  V30 1210 C 116.507 -0.831482 -3.3895 0
M  V30 1211 C 117.855 -0.845882 -4.16089 0
M  V30 1212 O 118.879 -0.775806 -3.47649 0
M  V30 1213 O 117.738 -0.943753 -5.38289 0
M  V30 1214 H 114.832 -0.107667 -0.819961 0
M  V30 1215 H 117.378 -0.93646 -1.41522 0
M  V30 1216 H 116.15 -1.87448 -3.4348 0
M  V30 1217 H 115.773 -0.24461 -3.96847 0
M  V30 1218 N 116.77 1.45427 -0.607355 0
M  V30 1219 C 117.68 2.34325 0.113463 0
M  V30 1220 C 118.696 1.51226 0.860617 0
M  V30 1221 O 119.872 1.84029 0.818255 0
M  V30 1222 C 116.937 3.28839 1.09844 0
M  V30 1223 C 115.998 4.27844 0.353271 0
M  V30 1224 C 115.231 5.17842 1.29133 0
M  V30 1225 O 115.454 5.11264 2.52913 0
M  V30 1226 O 114.388 5.96713 0.788523 0
M  V30 1227 H 118.214 2.97364 -0.617094 0
M  V30 1228 H 115.799 1.44807 -0.367619 0
M  V30 1229 H 117.681 3.8708 1.66575 0
M  V30 1230 H 116.356 2.68365 1.81003 0
M  V30 1231 H 115.263 3.7322 -0.256494 0
M  V30 1232 H 116.596 4.91173 -0.317822 0
M  V30 1233 N 118.248 0.346503 1.53744 0
M  V30 1234 C 119.195 -0.508914 2.25119 0
M  V30 1235 C 120.165 -1.09315 1.25058 0
M  V30 1236 O 121.35 -1.12921 1.53797 0
M  V30 1237 C 118.49 -1.65246 3.02965 0
M  V30 1238 C 117.603 -1.09525 4.17886 0
M  V30 1239 C 116.738 -2.20634 4.83212 0
M  V30 1240 C 115.777 -1.62279 5.90196 0
M  V30 1241 N 114.914 -2.67143 6.49291 0
M  V30 1242 H 119.754 0.106283 2.9781 0
M  V30 1243 H 117.291 0.0642227 1.4696 0
M  V30 1244 H 119.249 -2.32574 3.4636 0
M  V30 1245 H 117.879 -2.2386 2.32565 0
M  V30 1246 H 116.931 -0.312818 3.79112 0
M  V30 1247 H 118.243 -0.628444 4.94825 0
M  V30 1248 H 117.397 -2.95821 5.29693 0
M  V30 1249 H 116.136 -2.70659 4.05703 0
M  V30 1250 H 115.141 -0.855989 5.43096 0
M  V30 1251 H 116.366 -1.13102 6.69615 0
M  V30 1252 H 114.312 -3.16417 5.74645 0
M  V30 1253 H 114.229 -2.25093 7.21713 0
M  V30 1254 H 115.497 -3.4209 7.00425 0
M  V30 1255 N 119.726 -1.57421 0.075193 0
M  V30 1256 C 120.975 -1.92794 -0.592731 0
M  V30 1257 C 121.288 -0.957478 -1.70563 0
M  V30 1258 O 122.494 -1.20417 -2.43335 0
M  V30 1259 C 120.95 -3.42495 -1.10569 0
M  V30 1260 C 120.558 -4.47994 -0.0236121 0
M  V30 1261 C 122.302 -3.86864 -1.74748 0
M  V30 1262 C 120.209 -5.88829 -0.550803 0
M  V30 1263 H 119.139 -0.719591 -0.225177 0
M  V30 1264 H 121.79 -1.82902 0.147978 0
M  V30 1265 H 120.172 -3.47471 -1.89947 0
M  V30 1266 H 121.346 -4.54637 0.751099 0
M  V30 1267 H 119.661 -4.13113 0.522159 0
M  V30 1268 H 122.258 -4.8947 -2.15229 0
M  V30 1269 H 122.601 -3.24417 -2.60882 0
M  V30 1270 H 123.134 -3.84504 -1.01986 0
M  V30 1271 H 119.873 -6.54929 0.273457 0
M  V30 1272 H 119.393 -5.85698 -1.29296 0
M  V30 1273 H 121.072 -6.38811 -1.02613 0
M  V30 1274 N 121.204 0.198386 -1.56346 0
M  V30 1275 C 122.62 0.549085 -1.49857 0
M  V30 1276 C 122.82 1.86016 -0.774611 0
M  V30 1277 O 121.876 2.50416 -0.323776 0
M  V30 1278 C 123.189 0.606868 -2.94512 0
M  V30 1279 C 124.737 0.695925 -3.05165 0
M  V30 1280 C 125.212 0.784848 -4.51225 0
M  V30 1281 N 126.703 0.848463 -4.55363 0
M  V30 1282 C 127.438 0.937378 -5.65686 0
M  V30 1283 N 126.934 0.9888 -6.85707 0
M  V30 1284 N 128.727 0.974312 -5.53592 0
M  V30 1285 H 120.878 -0.661655 -2.01831 0
M  V30 1286 H 123.141 -0.235261 -0.918344 0
M  V30 1287 H 122.847 -0.28732 -3.50524 0
M  V30 1288 H 122.721 1.46268 -3.47686 0
M  V30 1289 H 125.108 1.58055 -2.49204 0
M  V30 1290 H 125.189 -0.186022 -2.55123 0
M  V30 1291 H 124.833 -0.0954072 -5.0781 0
M  V30 1292 H 124.763 1.68255 -4.98997 0
M  V30 1293 H 127.254 0.818103 -3.68938 0
M  V30 1294 H 127.567 1.05707 -7.65536 0
M  V30 1295 H 125.912 0.957534 -6.88372 0
M  V30 1296 H 129.103 0.930954 -4.58749 0
M  V30 1297 H 129.276 1.04015 -6.39597 0
M  V30 1298 N 122.682 1.50554 0.465978 0
M  V30 1299 C 123.615 1.64436 1.58227 0
M  V30 1300 C 124.593 0.492367 1.54966 0
M  V30 1301 O 125.777 0.712536 1.74514 0
M  V30 1302 C 122.904 1.63165 2.96808 0
M  V30 1303 C 121.95 2.83987 3.18204 0
M  V30 1304 S 122.783 4.45219 2.97557 0
M  V30 1305 C 123.939 4.46649 4.3847 0
M  V30 1306 H 124.172 2.58861 1.46213 0
M  V30 1307 H 121.705 1.3988 0.653678 0
M  V30 1308 H 123.663 1.63116 3.76701 0
M  V30 1309 H 122.324 0.69967 3.06208 0
M  V30 1310 H 121.517 2.79416 4.19455 0
M  V30 1311 H 121.119 2.81629 2.46092 0
M  V30 1312 H 123.411 4.20526 5.31191 0
M  V30 1313 H 124.354 5.48295 4.48082 0
M  V30 1314 H 124.762 3.76296 4.20787 0
M  V30 1315 N 124.16 -0.719506 1.40217 0
M  V30 1316 C 125.108 -1.85493 1.40339 0
M  V30 1317 C 126.102 -1.66995 0.284415 0
M  V30 1318 O 127.308 -1.74148 0.455252 0
M  V30 1319 H 123.683 -0.610857 0.438586 0
M  V30 1320 H 125.654 -1.82506 2.36081 0
M  V30 1321 C 124.403 -3.23321 1.27901 0
M  V30 1322 H 123.726 -3.38159 2.1328 0
M  V30 1323 H 125.166 -4.02914 1.32045 0
M  V30 1324 C 123.625 -3.36898 -0.0111355 0
M  V30 1325 O 124.155 -3.89674 -0.975538 0
M  V30 1326 N 122.361 -2.90492 -0.0793393 0
M  V30 1327 H 121.908 -2.47731 0.706183 0
M  V30 1328 H 121.866 -2.99955 -0.942038 0
M  V30 1329 N 125.638 -1.25649 -0.95132 0
M  V30 1330 C 127.054 -1.02542 -1.223 0
M  V30 1331 C 127.254 0.255715 -1.99871 0
M  V30 1332 O 126.31 0.967558 -2.33226 0
M  V30 1333 C 127.623 -2.25065 -1.99415 0
M  V30 1334 C 129.171 -2.29861 -2.12446 0
M  V30 1335 C 129.646 -3.52048 -2.92961 0
M  V30 1336 N 131.137 -3.52465 -3.00538 0
M  V30 1337 C 131.872 -4.43672 -3.63239 0
M  V30 1338 N 131.368 -5.45157 -4.27523 0
M  V30 1339 N 133.161 -4.31346 -3.60412 0
M  V30 1340 H 125.312 -2.07951 -0.432471 0
M  V30 1341 H 127.575 -0.91339 -0.253816 0
M  V30 1342 H 127.281 -3.18194 -1.49817 0
M  V30 1343 H 127.155 -2.28502 -3.00111 0
M  V30 1344 H 129.542 -1.37252 -2.61239 0
M  V30 1345 H 129.623 -2.3044 -1.11044 0
M  V30 1346 H 129.267 -4.44981 -2.44856 0
M  V30 1347 H 129.197 -3.48715 -3.94596 0
M  V30 1348 H 131.688 -2.79056 -2.54826 0
M  V30 1349 H 132.001 -6.10958 -4.73234 0
M  V30 1350 H 130.346 -5.49025 -4.26141 0
M  V30 1351 H 133.537 -3.51288 -3.09377 0
M  V30 1352 H 133.71 -5.02624 -4.0899 0
M  V30 1353 N 127.117 1.15442 -1.07289 0
M  V30 1354 C 128.363 1.86489 -0.796846 0
M  V30 1355 C 128.696 1.82078 0.675371 0
M  V30 1356 O 127.971 1.24346 1.4956 0
M  V30 1357 C 128.254 3.35626 -1.30489 0
M  V30 1358 C 128.107 3.48673 -2.84161 0
M  V30 1359 C 129.426 4.30357 -0.920907 0
M  V30 1360 H 126.545 0.677144 -0.290939 0
M  V30 1361 H 129.187 1.35633 -1.33056 0
M  V30 1362 H 127.337 3.79068 -0.850883 0
M  V30 1363 H 129.009 3.14099 -3.37846 0
M  V30 1364 H 127.252 2.90253 -3.22391 0
M  V30 1365 H 127.923 4.53453 -3.14777 0
M  V30 1366 H 130.399 3.94871 -1.3121 0
M  V30 1367 H 129.275 5.33193 -1.30372 0
M  V30 1368 H 129.536 4.4176 0.173226 0
M  V30 1369 N 128.595 0.856903 1.32268 0
M  V30 1370 C 129.841 0.462069 1.97466 0
M  V30 1371 C 130.174 -0.980298 1.67642 0
M  V30 1372 O 129.449 -1.68824 0.965858 0
M  V30 1373 C 129.732 0.704336 3.53145 0
M  V30 1374 C 129.585 2.19529 3.9259 0
M  V30 1375 C 130.904 0.1622 4.39801 0
M  V30 1376 H 128.023 0.169357 0.717278 0
M  V30 1377 H 130.665 1.07574 1.56614 0
M  V30 1378 H 128.815 0.181999 3.88073 0
M  V30 1379 H 130.487 2.78387 3.67829 0
M  V30 1380 H 128.73 2.67292 3.41668 0
M  V30 1381 H 129.401 2.31549 5.01088 0
M  V30 1382 H 131.877 0.608905 4.11621 0
M  V30 1383 H 130.753 0.361265 5.4771 0
M  V30 1384 H 131.014 -0.935158 4.32096 0
M  V30 1385 N 130.073 -1.45103 0.615059 0
M  V30 1386 C 131.489 -1.57137 0.279322 0
M  V30 1387 C 131.689 -1.60523 -1.21797 0
M  V30 1388 O 130.745 -1.53956 -2.00134 0
M  V30 1389 C 132.058 -2.85062 0.957083 0
M  V30 1390 C 133.606 -2.98749 0.933706 0
M  V30 1391 C 134.081 -4.29455 1.59162 0
M  V30 1392 N 135.572 -4.36231 1.55746 0
M  V30 1393 C 136.307 -5.36051 2.0356 0
M  V30 1394 N 135.803 -6.42367 2.59494 0
M  V30 1395 N 137.596 -5.27456 1.94284 0
M  V30 1396 H 129.747 -1.41148 1.58717 0
M  V30 1397 H 132.01 -0.675331 0.665306 0
M  V30 1398 H 131.716 -2.88488 2.01166 0
M  V30 1399 H 131.59 -3.7407 0.48494 0
M  V30 1400 H 133.977 -2.94886 -0.112347 0
M  V30 1401 H 134.058 -2.11132 1.44419 0
M  V30 1402 H 133.702 -4.34077 2.63704 0
M  V30 1403 H 133.632 -5.15901 1.0561 0
M  V30 1404 H 136.123 -3.60011 1.14893 0
M  V30 1405 H 136.436 -7.14793 2.93752 0
M  V30 1406 H 134.781 -6.43097 2.63537 0
M  V30 1407 H 137.972 -4.43308 1.5032 0
M  V30 1408 H 138.145 -6.05099 2.3186 0
M  V30 1409 N 131.551 -0.354651 -1.53558 0
M  V30 1410 C 132.499 0.512195 -2.26891 0
M  V30 1411 C 133.493 1.09263 -1.29452 0
M  V30 1412 O 134.699 1.03709 -1.47121 0
M  V30 1413 H 131.074 0.183878 -0.729173 0
M  V30 1414 H 133.045 -0.128202 -2.98124 0
M  V30 1415 C 131.794 1.64563 -3.06291 0
M  V30 1416 H 131.117 1.20829 -3.81104 0
M  V30 1417 H 132.557 2.22711 -3.60799 0
M  V30 1418 C 131.016 2.58158 -2.16462 0
M  V30 1419 O 131.546 3.60695 -1.76811 0
M  V30 1420 N 129.752 2.27096 -1.81317 0
M  V30 1421 H 129.299 1.43751 -2.1376 0
M  V30 1422 H 129.257 2.89975 -1.21498 0
M  V30 1423 N 133.029 1.57378 -0.0835403 0
M  V30 1424 C 133.977 2.14602 0.89714 0
M  V30 1425 C 134.971 1.08589 1.30018 0
M  V30 1426 O 136.177 1.26952 1.27606 0
M  V30 1427 H 132.552 0.686346 0.3073 0
M  V30 1428 H 134.523 2.95845 0.38969 0
M  V30 1429 C 133.272 2.73188 2.15089 0
M  V30 1430 H 132.595 3.54442 1.84962 0
M  V30 1431 H 134.035 3.1681 2.81793 0
M  V30 1432 C 132.494 1.68517 2.91725 0
M  V30 1433 O 133.024 1.11718 3.85852 0
M  V30 1434 N 131.23 1.39277 2.55049 0
M  V30 1435 H 130.777 1.85655 1.78577 0
M  V30 1436 H 130.735 0.694791 3.06627 0
M  V30 1437 N 134.507 -0.190092 1.56449 0
M  V30 1438 C 135.437 -1.23816 1.97969 0
M  V30 1439 C 136.418 -1.47201 0.852395 0
M  V30 1440 O 137.603 -1.58854 1.1171 0
M  V30 1441 C 134.733 -2.5813 2.3235 0
M  V30 1442 C 133.687 -2.49348 3.47864 0
M  V30 1443 C 133.013 -3.8798 3.67934 0
M  V30 1444 C 134.313 -2.01424 4.81898 0
M  V30 1445 H 136.007 -0.89311 2.85769 0
M  V30 1446 H 133.553 -0.428177 1.37487 0
M  V30 1447 H 135.506 -3.31637 2.59991 0
M  V30 1448 H 134.23 -2.94386 1.41438 0
M  V30 1449 H 132.889 -1.78297 3.20321 0
M  V30 1450 H 132.537 -4.21597 2.74344 0
M  V30 1451 H 132.237 -3.82978 4.45648 0
M  V30 1452 H 133.761 -4.63101 3.97957 0
M  V30 1453 H 135.175 -2.64693 5.08538 0
M  V30 1454 H 133.572 -2.07413 5.63116 0
M  V30 1455 H 134.642 -0.967677 4.75146 0
M  V30 1456 N 135.985 -1.50799 -0.457987 0
M  V30 1457 C 137.401 -1.38515 -0.792819 0
M  V30 1458 C 137.601 -0.451409 -1.96379 0
M  V30 1459 O 136.657 0.10112 -2.52297 0
M  V30 1460 C 137.97 -2.80149 -1.09258 0
M  V30 1461 C 139.518 -2.89156 -1.19825 0
M  V30 1462 C 139.993 -4.31651 -1.53106 0
M  V30 1463 N 141.484 -4.34662 -1.60072 0
M  V30 1464 C 142.219 -5.41928 -1.87354 0
M  V30 1465 N 141.715 -6.59384 -2.12568 0
M  V30 1466 N 143.508 -5.29385 -1.88965 0
M  V30 1467 H 135.659 -2.10073 0.313511 0
M  V30 1468 H 137.922 -0.944803 0.0777862 0
M  V30 1469 H 137.628 -3.50374 -0.305084 0
M  V30 1470 H 137.502 -3.18204 -2.02549 0
M  V30 1471 H 139.889 -2.19141 -1.97639 0
M  V30 1472 H 139.97 -2.54626 -0.244821 0
M  V30 1473 H 139.614 -5.02208 -0.758266 0
M  V30 1474 H 139.544 -4.63678 -2.49621 0
M  V30 1475 H 142.035 -3.49973 -1.42573 0
M  V30 1476 H 142.348 -7.36934 -2.32696 0
M  V30 1477 H 140.693 -6.62535 -2.09933 0
M  V30 1478 H 143.884 -4.36616 -1.68772 0
M  V30 1479 H 144.057 -6.13066 -2.09891 0
M  V30 1480 N 137.463 0.71206 -1.40597 0
M  V30 1481 C 138.709 1.47416 -1.39271 0
M  V30 1482 C 139.042 1.942 0.00388791 0
M  V30 1483 O 138.317 1.68403 0.973179 0
M  V30 1484 C 138.6 2.69774 -2.38525 0
M  V30 1485 C 138.453 2.28861 -3.87224 0
M  V30 1486 C 139.772 3.71939 -2.35264 0
M  V30 1487 H 136.891 0.534713 -0.5072 0
M  V30 1488 H 139.533 0.812375 -1.71757 0
M  V30 1489 H 137.683 3.26238 -2.10953 0
M  V30 1490 H 139.355 1.77852 -4.25636 0
M  V30 1491 H 137.598 1.60824 -4.02887 0
M  V30 1492 H 138.269 3.16584 -4.52193 0
M  V30 1493 H 140.745 3.25113 -2.59694 0
M  V30 1494 H 139.621 4.55186 -3.06753 0
M  V30 1495 H 139.882 4.20484 -1.36549 0
M  V30 1496 N 138.941 1.26152 0.944643 0
M  V30 1497 C 140.357 1.03189 1.21754 0
M  V30 1498 C 140.557 -0.245112 2.00004 0
M  V30 1499 O 139.613 -0.955176 2.33736 0
M  V30 1500 C 140.926 2.26119 1.98219 0
M  V30 1501 C 142.474 2.30984 2.11224 0
M  V30 1502 C 142.949 3.53597 2.91089 0
M  V30 1503 N 144.44 3.54053 2.98664 0
M  V30 1504 C 145.175 4.45593 3.60881 0
M  V30 1505 N 144.671 5.47416 4.24626 0
M  V30 1506 N 146.464 4.33252 3.58119 0
M  V30 1507 H 138.615 2.08177 0.421437 0
M  V30 1508 H 140.878 0.914723 0.248969 0
M  V30 1509 H 140.584 3.18984 1.48128 0
M  V30 1510 H 140.458 2.3009 2.98895 0
M  V30 1511 H 142.845 1.38635 2.60508 0
M  V30 1512 H 142.926 2.31026 1.09821 0
M  V30 1513 H 142.57 4.46273 2.42493 0
M  V30 1514 H 142.5 3.50802 3.92741 0
M  V30 1515 H 144.991 2.80403 2.53343 0
M  V30 1516 H 145.304 6.13459 4.69987 0
M  V30 1517 H 143.649 5.51278 4.23223 0
M  V30 1518 H 146.84 3.52924 3.0751 0
M  V30 1519 H 147.013 5.04786 4.06319 0
M  V30 1520 N 140.419 -1.14872 1.07899 0
M  V30 1521 C 141.349 -2.2193 0.725887 0
M  V30 1522 C 142.33 -1.67622 -0.28927 0
M  V30 1523 O 143.515 -1.93533 -0.160787 0
M  V30 1524 C 140.645 -3.47061 0.128856 0
M  V30 1525 C 139.599 -4.14363 1.07178 0
M  V30 1526 C 138.925 -5.33636 0.337229 0
M  V30 1527 C 140.225 -4.63492 2.40775 0
M  V30 1528 H 141.919 -2.51724 1.62097 0
M  V30 1529 H 139.465 -1.20991 0.780838 0
M  V30 1530 H 141.418 -4.21199 -0.130147 0
M  V30 1531 H 140.142 -3.16617 -0.80134 0
M  V30 1532 H 138.801 -3.42173 1.3158 0
M  V30 1533 H 138.449 -4.99449 -0.596606 0
M  V30 1534 H 138.149 -5.79609 0.965788 0
M  V30 1535 H 139.673 -6.10539 0.0861567 0
M  V30 1536 H 141.087 -5.2913 2.20669 0
M  V30 1537 H 139.484 -5.20148 2.99276 0
M  V30 1538 H 140.554 -3.78834 3.02676 0
M  V30 1539 N 141.898 -0.863906 -1.31812 0
M  V30 1540 C 143.146 -0.470904 -1.96537 0
M  V30 1541 C 143.467 0.978771 -1.68657 0
M  V30 1542 O 142.737 1.6853 -0.998717 0
M  V30 1543 H 141.317 -0.171148 -0.72713 0
M  V30 1544 H 143.979 -1.10236 -1.60729 0
M  V30 1545 H 143.075 -0.623616 -3.05806 0
M  V30 1546 N 143.376 1.44774 -0.622745 0
M  V30 1547 C 144.653 1.95522 -0.0551974 0
M  V30 1548 C 145.033 1.5649 1.41683 0
M  V30 1549 O 144.381 0.834848 2.12703 0
M  V30 1550 C 144.591 3.4796 -0.269242 0
M  V30 1551 C 145.939 4.24306 -0.158014 0
M  V30 1552 O 146.963 3.55637 -0.200162 0
M  V30 1553 O 145.822 5.46471 -0.0558693 0
M  V30 1554 H 142.916 0.826556 0.0271015 0
M  V30 1555 H 145.462 1.54866 -0.693864 0
M  V30 1556 H 144.234 3.6939 -1.29099 0
M  V30 1557 H 143.857 3.95543 0.403966 0
M  V30 1558 N 144.854 0.36279 1.53368 0
M  V30 1559 C 146.1 -0.228113 2.01513 0
M  V30 1560 C 146.433 -1.48648 1.2497 0
M  V30 1561 O 145.708 -1.91459 0.342616 0
M  V30 1562 C 145.991 -0.522884 3.56284 0
M  V30 1563 C 145.844 0.74892 4.43521 0
M  V30 1564 C 147.163 -1.32461 4.19693 0
M  V30 1565 H 144.282 -0.0814343 0.732487 0
M  V30 1566 H 146.924 0.48713 1.83649 0
M  V30 1567 H 145.074 -1.1322 3.71636 0
M  V30 1568 H 146.746 1.38648 4.39971 0
M  V30 1569 H 144.989 1.36986 4.11603 0
M  V30 1570 H 145.66 0.497667 5.49752 0
M  V30 1571 H 148.136 -0.809203 4.08156 0
M  V30 1572 H 147.012 -1.49961 5.28018 0
M  V30 1573 H 147.273 -2.33232 3.75573 0
M  V30 1574 N 146.332 -1.57332 0.0918853 0
M  V30 1575 C 147.581 -1.93412 -0.572249 0
M  V30 1576 C 147.894 -0.975515 -1.69538 0
M  V30 1577 O 149.1 -1.22991 -2.42045 0
M  V30 1578 C 147.556 -3.43648 -1.0693 0
M  V30 1579 C 147.164 -4.47994 0.0239049 0
M  V30 1580 C 148.908 -3.88695 -1.70635 0
M  V30 1581 C 146.815 -5.89381 -0.488319 0
M  V30 1582 H 145.745 -0.721939 -0.217532 0
M  V30 1583 H 148.396 -1.82735 0.167369 0
M  V30 1584 H 146.778 -3.49466 -1.8625 0
M  V30 1585 H 147.952 -4.53815 0.799277 0
M  V30 1586 H 146.267 -4.12536 0.565946 0
M  V30 1587 H 148.864 -4.91725 -2.10025 0
M  V30 1588 H 149.207 -3.27166 -2.57426 0
M  V30 1589 H 149.74 -3.85564 -0.979023 0
M  V30 1590 H 146.479 -6.54602 0.342906 0
M  V30 1591 H 145.999 -5.87037 -1.23077 0
M  V30 1592 H 147.678 -6.39863 -0.958317 0
M  V30 1593 N 147.81 0.181792 -1.56548 0
M  V30 1594 C 149.035 0.920019 -1.85877 0
M  V30 1595 C 149.46 1.75494 -0.677021 0
M  V30 1596 O 148.818 1.77399 0.374056 0
M  V30 1597 C 148.866 1.78112 -3.13542 0
M  V30 1598 O 147.97 2.88152 -2.95029 0
M  V30 1599 H 147.311 0.258334 -0.611686 0
M  V30 1600 H 149.841 0.183092 -2.03779 0
M  V30 1601 H 149.851 2.18314 -3.44678 0
M  V30 1602 H 148.526 1.16777 -3.99169 0
M  V30 1603 H 147.103 2.51609 -2.75222 0
M  V30 1604 N 149.288 1.51039 0.449983 0
M  V30 1605 C 150.537 1.62317 1.19733 0
M  V30 1606 C 150.85 0.339101 1.92638 0
M  V30 1607 O 152.056 0.331069 2.69474 0
M  V30 1608 C 150.512 2.86608 2.17678 0
M  V30 1609 C 150.12 4.21972 1.50479 0
M  V30 1610 C 151.864 3.07239 2.92924 0
M  V30 1611 C 149.771 5.37426 2.46834 0
M  V30 1612 H 148.701 0.604532 0.450619 0
M  V30 1613 H 151.352 1.77494 0.465625 0
M  V30 1614 H 149.734 2.65037 2.94231 0
M  V30 1615 H 150.908 4.53878 0.795716 0
M  V30 1616 H 149.223 4.07117 0.874344 0
M  V30 1617 H 151.82 3.90668 3.65079 0
M  V30 1618 H 152.163 2.19807 3.5354 0
M  V30 1619 H 152.696 3.29091 2.23481 0
M  V30 1620 H 149.435 6.27079 1.90926 0
M  V30 1621 H 148.955 5.09912 3.15832 0
M  V30 1622 H 150.634 5.68862 3.08228 0
M  V30 1623 N 150.766 -0.704594 1.40972 0
M  V30 1624 C 151.698 -1.82974 1.38033 0
M  V30 1625 C 152.711 -1.60305 0.283931 0
M  V30 1626 O 153.9 -1.69975 0.545042 0
M  V30 1627 C 151 -3.19578 1.12795 0
M  V30 1628 C 150.173 -3.69352 2.34302 0
M  V30 1629 C 149.232 -4.84601 2.05058 0
M  V30 1630 O 148.258 -4.96682 2.7802 0
M  V30 1631 N 149.46 -5.71194 1.03528 0
M  V30 1632 H 152.225 -1.85991 2.35005 0
M  V30 1633 H 149.786 -0.886567 1.35468 0
M  V30 1634 H 151.778 -3.9429 0.911987 0
M  V30 1635 H 150.348 -3.11642 0.24452 0
M  V30 1636 H 149.568 -2.85649 2.71659 0
M  V30 1637 H 150.856 -3.99345 3.1528 0
M  V30 1638 H 150.254 -5.64054 0.431217 0
M  V30 1639 H 148.811 -6.45843 0.879205 0
M  V30 1640 N 152.244 -1.26651 -0.937939 0
M  V30 1641 C 153.655 -1.1125 -1.49934 0
M  V30 1642 C 154.006 0.306077 -1.93798 0
M  V30 1643 O 153.131 1.19792 -1.80219 0
M  V30 1644 C 153.726 -2.01339 -2.72485 0
M  V30 1645 C 152.285 -1.90074 -3.24883 0
M  V30 1646 C 151.432 -1.94498 -1.97651 0
M  V30 1647 H 154.383 -1.39693 -0.753091 0
M  V30 1648 H 154.404 -1.56319 -3.46907 0
M  V30 1649 H 153.916 -3.04577 -2.40529 0
M  V30 1650 H 152.017 -0.897827 -3.61621 0
M  V30 1651 H 152.13 -2.75778 -3.9177 0
M  V30 1652 H 150.494 -1.38591 -2.13693 0
M  V30 1653 H 151.277 -2.99372 -1.68022 0
M  V30 1654 N 153.722 1.14298 -1.08507 0
M  V30 1655 C 154.962 1.87016 -0.824894 0
M  V30 1656 C 155.326 1.81099 0.637735 0
M  V30 1657 O 156.527 2.48963 1.01345 0
M  V30 1658 C 154.798 3.31584 -1.33368 0
M  V30 1659 S 156.357 4.21903 -1.20596 0
M  V30 1660 H 153.175 0.645259 -0.2986 0
M  V30 1661 H 155.777 1.37822 -1.38656 0
M  V30 1662 H 154.481 3.33439 -2.39262 0
M  V30 1663 H 154.012 3.85836 -0.767734 0
M  V30 1664 H 156.027 4.95971 -0.150891 0
M  V30 1665 N 155.201 0.870884 1.31352 0
M  V30 1666 C 156.612 0.534714 1.78879 0
M  V30 1667 C 156.963 -0.948423 1.71754 0
M  V30 1668 O 156.088 -1.74055 1.28584 0
M  V30 1669 C 156.683 0.963839 3.24801 0
M  V30 1670 C 155.242 0.679311 3.70219 0
M  V30 1671 C 154.389 1.15465 2.52117 0
M  V30 1672 H 157.34 1.05651 1.18421 0
M  V30 1673 H 157.361 0.286892 3.79417 0
M  V30 1674 H 156.873 2.04332 3.29955 0
M  V30 1675 H 154.974 -0.388769 3.70566 0
M  V30 1676 H 155.087 1.25698 4.62317 0
M  V30 1677 H 153.451 0.574383 2.48139 0
M  V30 1678 H 154.234 2.24157 2.60016 0
M  V30 1679 N 156.679 -1.44442 0.630414 0
M  V30 1680 C 157.956 -1.9549 0.0655657 0
M  V30 1681 C 158.336 -1.5724 -1.40851 0
M  V30 1682 O 157.684 -0.846116 -2.12257 0
M  V30 1683 C 157.894 -3.47812 0.287691 0
M  V30 1684 C 159.242 -4.24216 0.180513 0
M  V30 1685 O 160.266 -3.55526 0.219019 0
M  V30 1686 O 159.125 -5.46434 0.0848493 0
M  V30 1687 H 156.219 -0.826688 -0.0227177 0
M  V30 1688 H 158.765 -1.54496 0.702068 0
M  V30 1689 H 157.537 -3.687 1.31056 0
M  V30 1690 H 157.16 -3.95751 -0.382984 0
M  V30 1691 N 158.157 -0.370918 -1.53173 0
M  V30 1692 C 159.403 0.217423 -2.01631 0
M  V30 1693 C 159.736 1.47983 -1.25756 0
M  V30 1694 O 159.011 1.91274 -0.352764 0
M  V30 1695 C 159.294 0.503982 -3.56556 0
M  V30 1696 C 159.147 -0.77243 -4.43118 0
M  V30 1697 C 160.466 1.30234 -4.20389 0
M  V30 1698 H 157.585 0.0775486 -0.732909 0
M  V30 1699 H 160.227 -0.496863 -1.83388 0
M  V30 1700 H 158.377 1.11248 -3.72231 0
M  V30 1701 H 160.049 -1.4098 -4.39229 0
M  V30 1702 H 158.292 -1.39167 -4.10871 0
M  V30 1703 H 158.963 -0.526815 -5.4948 0
M  V30 1704 H 161.439 0.787546 -4.08579 0
M  V30 1705 H 160.315 1.47158 -5.28806 0
M  V30 1706 H 160.576 2.31237 -3.76805 0
M  V30 1707 N 159.635 1.57281 -0.100228 0
M  V30 1708 C 160.582 2.14305 0.856858 0
M  V30 1709 C 161.552 1.06296 1.27634 0
M  V30 1710 O 162.737 1.34109 1.35718 0
M  V30 1711 C 159.877 2.73184 2.10866 0
M  V30 1712 C 158.99 3.95442 1.73925 0
M  V30 1713 C 158.125 4.42468 2.93931 0
M  V30 1714 C 157.164 5.57303 2.5314 0
M  V30 1715 N 156.301 5.99158 3.65997 0
M  V30 1716 H 161.141 2.95772 0.363726 0
M  V30 1717 H 158.678 1.46139 0.167858 0
M  V30 1718 H 160.636 3.05442 2.84185 0
M  V30 1719 H 159.266 1.94437 2.57671 0
M  V30 1720 H 158.318 3.69464 0.905554 0
M  V30 1721 H 159.63 4.78769 1.39935 0
M  V30 1722 H 158.784 4.76537 3.75496 0
M  V30 1723 H 157.523 3.58052 3.31134 0
M  V30 1724 H 156.528 5.22857 1.70003 0
M  V30 1725 H 157.753 6.43471 2.17075 0
M  V30 1726 H 155.699 5.17687 4.02909 0
M  V30 1727 H 155.616 6.77295 3.35869 0
M  V30 1728 H 156.884 6.3786 4.48057 0
M  V30 1729 N 161.113 -0.173488 1.56642 0
M  V30 1730 C 162.343 -0.904781 1.85734 0
M  V30 1731 C 162.751 -1.76431 0.68328 0
M  V30 1732 O 162.094 -1.802 -0.356865 0
M  V30 1733 C 162.156 -1.83382 3.09211 0
M  V30 1734 C 161.82 -1.15411 4.42187 0
M  V30 1735 C 162.817 -0.520609 5.17287 0
M  V30 1736 C 160.502 -1.15151 4.88923 0
M  V30 1737 C 162.496 0.106412 6.37311 0
M  V30 1738 C 160.183 -0.520664 6.08878 0
M  V30 1739 C 161.181 0.107196 6.82916 0
M  V30 1740 O 160.869 0.728102 8.00596 0
M  V30 1741 H 160.601 -0.268408 0.62043 0
M  V30 1742 H 163.155 -0.179096 2.04618 0
M  V30 1743 H 161.385 -2.59976 2.86268 0
M  V30 1744 H 163.074 -2.43476 3.24768 0
M  V30 1745 H 163.84 -0.514606 4.82262 0
M  V30 1746 H 159.719 -1.62961 4.31236 0
M  V30 1747 H 163.263 0.597081 6.9504 0
M  V30 1748 H 159.16 -0.524242 6.43368 0
M  V30 1749 H 159.928 0.627138 8.16094 0
M  V30 1750 N 162.591 -1.51276 -0.441967 0
M  V30 1751 C 163.839 -1.63392 -1.18943 0
M  V30 1752 C 164.16 -0.350159 -1.9183 0
M  V30 1753 O 163.43 0.633784 -1.85364 0
M  V30 1754 H 162.01 -0.602164 -0.442049 0
M  V30 1755 H 164.672 -1.88186 -0.507165 0
M  V30 1756 H 163.768 -2.45934 -1.92154 0
M  V30 1757 N 164.069 0.697108 -1.41344 0
M  V30 1758 C 165.016 1.81106 -1.43071 0
M  V30 1759 C 165.986 1.63632 -0.285275 0
M  V30 1760 O 167.171 1.84504 -0.486091 0
M  V30 1761 C 164.311 3.18975 -1.31715 0
M  V30 1762 C 163.424 3.47892 -2.56115 0
M  V30 1763 C 162.559 4.75367 -2.37064 0
M  V30 1764 C 161.598 4.97247 -3.56948 0
M  V30 1765 N 160.735 6.15947 -3.36977 0
M  V30 1766 H 165.575 1.78965 -2.38276 0
M  V30 1767 H 163.112 0.873975 -1.18322 0
M  V30 1768 H 165.07 3.98615 -1.23133 0
M  V30 1769 H 163.7 3.20297 -0.401183 0
M  V30 1770 H 162.752 2.62669 -2.75153 0
M  V30 1771 H 164.064 3.59962 -3.45295 0
M  V30 1772 H 163.218 5.63059 -2.25941 0
M  V30 1773 H 161.957 4.65541 -1.45338 0
M  V30 1774 H 160.962 4.08004 -3.68527 0
M  V30 1775 H 162.187 5.08934 -4.49626 0
M  V30 1776 H 160.133 6.07336 -2.47949 0
M  V30 1777 H 160.05 6.28777 -4.19732 0
M  V30 1778 H 161.318 7.06377 -3.29623 0
M  V30 1779 N 165.547 1.27147 0.931209 0
M  V30 1780 C 166.963 1.04475 1.20653 0
M  V30 1781 C 167.163 -0.223885 2.00252 0
M  V30 1782 O 166.219 -0.930332 2.34736 0
M  V30 1783 C 167.532 2.28209 1.95809 0
M  V30 1784 C 169.08 2.33211 2.08762 0
M  V30 1785 C 169.555 3.56665 2.87323 0
M  V30 1786 N 171.046 3.57201 2.94892 0
M  V30 1787 C 171.781 4.49395 3.56134 0
M  V30 1788 N 171.277 5.51889 4.18796 0
M  V30 1789 N 173.07 4.37026 3.53504 0
M  V30 1790 H 165.221 2.08612 0.399333 0
M  V30 1791 H 167.484 0.917312 0.239253 0
M  V30 1792 H 167.19 3.20538 1.44736 0
M  V30 1793 H 167.064 2.33247 2.96438 0
M  V30 1794 H 169.451 1.41391 2.59023 0
M  V30 1795 H 169.532 2.32178 1.07364 0
M  V30 1796 H 169.176 4.4882 2.37746 0
M  V30 1797 H 169.106 3.54948 3.88998 0
M  V30 1798 H 171.597 2.83074 2.50354 0
M  V30 1799 H 171.91 6.18409 4.63454 0
M  V30 1800 H 170.255 5.55735 4.17353 0
M  V30 1801 H 173.446 3.56166 3.03749 0
M  V30 1802 H 173.619 5.09067 4.00942 0
M  V30 1803 N 167.025 -1.13721 1.09112 0
M  V30 1804 C 168.274 -1.84275 0.82009 0
M  V30 1805 C 168.587 -1.84253 -0.656509 0
M  V30 1806 O 169.793 -2.50668 -1.04296 0
M  V30 1807 C 168.249 -3.30825 1.41714 0
M  V30 1808 C 167.857 -3.39244 2.92605 0
M  V30 1809 C 169.601 -4.06443 1.22492 0
M  V30 1810 C 167.508 -4.80047 3.45411 0
M  V30 1811 H 166.438 -0.690387 0.30312 0
M  V30 1812 H 169.089 -1.28146 1.31343 0
M  V30 1813 H 167.471 -3.86737 0.851498 0
M  V30 1814 H 168.645 -2.93344 3.55367 0
M  V30 1815 H 166.96 -2.77088 3.10823 0
M  V30 1816 H 169.557 -5.10387 1.59402 0
M  V30 1817 H 169.9 -4.15972 0.165299 0
M  V30 1818 H 170.433 -3.56852 1.75788 0
M  V30 1819 H 167.172 -4.75709 4.50978 0
M  V30 1820 H 166.692 -5.26455 2.87411 0
M  V30 1821 H 168.371 -5.48957 3.42425 0
M  V30 1822 N 168.503 -0.877838 -1.30888 0
M  V30 1823 C 169.453 -0.310872 -2.25871 0
M  V30 1824 C 170.437 0.556596 -1.50966 0
M  V30 1825 O 171.629 0.402187 -1.7237 0
M  V30 1826 C 168.758 0.479821 -3.3993 0
M  V30 1827 C 167.844 -0.401333 -4.22197 0
M  V30 1828 N 168.235 -1.49848 -4.83093 0
M  V30 1829 C 166.533 -0.195167 -4.45573 0
M  V30 1830 C 167.234 -2.0425 -5.44662 0
M  V30 1831 N 166.21 -1.33843 -5.26865 0
M  V30 1832 H 170.012 -1.1493 -2.70496 0
M  V30 1833 H 167.526 -0.726458 -1.45246 0
M  V30 1834 H 169.523 0.902582 -4.07012 0
M  V30 1835 H 168.183 1.31577 -2.96846 0
M  V30 1836 H 169.194 -1.88137 -4.82519 0
M  V30 1837 H 165.871 0.604192 -4.13105 0
M  V30 1838 H 167.261 -2.96345 -6.03017 0
M  V30 1839 N 169.982 1.44106 -0.638065 0
M  V30 1840 C 171.228 2.02277 -0.145546 0
M  V30 1841 C 171.561 1.50125 1.23191 0
M  V30 1842 O 170.836 0.688133 1.8192 0
M  V30 1843 C 171.119 3.59829 -0.139791 0
M  V30 1844 C 170.972 4.22247 -1.55008 0
M  V30 1845 C 172.291 4.36873 0.531966 0
M  V30 1846 H 169.41 0.734992 -0.0543632 0
M  V30 1847 H 172.052 1.71592 -0.815863 0
M  V30 1848 H 170.202 3.86102 0.431007 0
M  V30 1849 H 171.874 4.07057 -2.1703 0
M  V30 1850 H 170.117 3.79476 -2.10191 0
M  V30 1851 H 170.788 5.31284 -1.49804 0
M  V30 1852 H 173.264 4.16074 0.0464781 0
M  V30 1853 H 172.14 5.4657 0.505206 0
M  V30 1854 H 172.401 4.11995 1.60352 0
M  V30 1855 N 171.46 0.379036 1.52974 0
M  V30 1856 C 172.39 -0.452706 2.29069 0
M  V30 1857 C 173.371 -1.07237 1.32039 0
M  V30 1858 O 174.556 -1.08708 1.60923 0
M  V30 1859 C 171.686 -1.5856 3.08992 0
M  V30 1860 C 170.64 -1.0925 4.13822 0
M  V30 1861 C 169.966 -2.31668 4.81907 0
M  V30 1862 C 171.266 -0.167702 5.22031 0
M  V30 1863 H 172.96 0.182181 2.98845 0
M  V30 1864 H 170.506 0.0890592 1.43724 0
M  V30 1865 H 172.459 -2.1742 3.6098 0
M  V30 1866 H 171.183 -2.24792 2.36931 0
M  V30 1867 H 169.842 -0.526494 3.628 0
M  V30 1868 H 169.49 -2.96386 4.06404 0
M  V30 1869 H 169.19 -1.9934 5.52754 0
M  V30 1870 H 170.714 -2.91189 5.36695 0
M  V30 1871 H 172.128 -0.664186 5.6944 0
M  V30 1872 H 170.525 0.0653265 6.00064 0
M  V30 1873 H 171.595 0.786347 4.78482 0
M  V30 1874 N 172.938 -1.57226 0.108567 0
M  V30 1875 C 174.349 -1.8195 -0.418464 0
M  V30 1876 C 174.7 -1.02508 -1.67292 0
M  V30 1877 O 173.825 -0.258496 -2.14851 0
M  V30 1878 C 174.42 -3.30028 -0.765979 0
M  V30 1879 C 172.979 -3.55469 -1.23769 0
M  V30 1880 C 172.126 -2.7625 -0.241106 0
M  V30 1881 H 175.077 -1.55149 0.33384 0
M  V30 1882 H 175.098 -3.44086 -1.62434 0
M  V30 1883 H 174.61 -3.87821 0.147219 0
M  V30 1884 H 172.711 -3.03022 -2.16814 0
M  V30 1885 H 172.824 -4.6408 -1.19022 0
M  V30 1886 H 171.188 -2.44133 -0.72602 0
M  V30 1887 H 171.971 -3.36797 0.665007 0
M  V30 1888 N 174.416 0.165178 -1.56732 0
M  V30 1889 C 175.665 0.879143 -1.81532 0
M  V30 1890 C 175.978 1.83144 -0.686842 0
M  V30 1891 O 177.184 2.58823 -0.819944 0
M  V30 1892 C 175.64 1.61388 -3.21686 0
M  V30 1893 C 175.248 0.704904 -4.4242 0
M  V30 1894 C 176.992 2.3157 -3.55774 0
M  V30 1895 C 174.899 1.44022 -5.73595 0
M  V30 1896 H 173.829 0.332033 -0.676957 0
M  V30 1897 H 176.48 0.132008 -1.83025 0
M  V30 1898 H 174.862 2.40599 -3.14529 0
M  V30 1899 H 176.036 -0.0506815 -4.60772 0
M  V30 1900 H 174.351 0.112419 -4.16248 0
M  V30 1901 H 176.948 2.8719 -4.51028 0
M  V30 1902 H 177.291 3.07201 -2.8095 0
M  V30 1903 H 177.824 1.59297 -3.64513 0
M  V30 1904 H 174.563 0.72612 -6.51466 0
M  V30 1905 H 174.083 2.16898 -5.5921 0
M  V30 1906 H 175.762 1.98606 -6.15764 0
M  V30 1907 N 175.894 1.51508 0.433938 0
M  V30 1908 C 177.171 1.54888 1.19453 0
M  V30 1909 C 177.551 0.315154 2.08734 0
M  V30 1910 O 176.899 -0.699558 2.17528 0
M  V30 1911 C 177.109 2.86467 1.99342 0
M  V30 1912 C 178.457 3.38545 2.56267 0
M  V30 1913 O 179.481 2.88041 2.0955 0
M  V30 1914 O 178.34 4.26675 3.41483 0
M  V30 1915 H 175.434 0.622863 0.544032 0
M  V30 1916 H 177.98 1.63823 0.442732 0
M  V30 1917 H 176.752 3.67718 1.33788 0
M  V30 1918 H 176.375 2.8071 2.8158 0
M  V30 1919 N 177.372 -0.689602 1.41712 0
M  V30 1920 C 178.649 -1.44457 1.31877 0
M  V30 1921 C 179.029 -2.11039 -0.0508537 0
M  V30 1922 O 178.377 -2.02138 -1.06547 0
M  V30 1923 C 178.587 -2.45913 2.47645 0
M  V30 1924 C 179.935 -3.10991 2.89084 0
M  V30 1925 O 180.959 -2.56238 2.47428 0
M  V30 1926 O 179.818 -4.10174 3.61137 0
M  V30 1927 H 176.912 -0.64362 0.519309 0
M  V30 1928 H 179.458 -0.719576 1.53689 0
M  V30 1929 H 178.23 -1.95409 3.39015 0
M  V30 1930 H 177.853 -3.25913 2.27742 0
M  V30 1931 N 178.85 -1.27639 -0.924453 0
M  V30 1932 C 180.078 -1.16989 -1.70649 0
M  V30 1933 C 180.493 0.272869 -1.86818 0
M  V30 1934 O 179.85 1.18549 -1.38753 0
M  V30 1935 C 179.901 -1.85229 -3.10439 0
M  V30 1936 O 179.622 -3.23868 -2.95028 0
M  V30 1937 C 181.123 -1.80746 -4.04779 0
M  V30 1938 H 178.343 -0.406595 -0.53378 0
M  V30 1939 H 180.887 -1.68569 -1.15778 0
M  V30 1940 H 179.042 -1.37545 -3.6216 0
M  V30 1941 H 179.456 -3.57889 -3.83426 0
M  V30 1942 H 180.93 -2.33101 -5.00368 0
M  V30 1943 H 181.407 -0.777499 -4.32263 0
M  V30 1944 H 182.013 -2.28059 -3.58984 0
M  V30 1945 N 180.328 1.1314 -1.09713 0
M  V30 1946 C 181.574 1.84757 -0.836224 0
M  V30 1947 C 181.907 1.8347 0.636598 0
M  V30 1948 O 181.182 1.27491 1.46889 0
M  V30 1949 C 181.465 3.32782 -1.37578 0
M  V30 1950 C 181.318 3.42567 -2.91493 0
M  V30 1951 C 182.637 4.28307 -1.01198 0
M  V30 1952 H 179.756 0.67082 -0.305236 0
M  V30 1953 H 182.398 1.3278 -1.35903 0
M  V30 1954 H 180.548 3.77177 -0.931097 0
M  V30 1955 H 182.22 3.06862 -3.44432 0
M  V30 1956 H 180.463 2.83349 -3.28475 0
M  V30 1957 H 181.134 4.46674 -3.24324 0
M  V30 1958 H 183.61 3.91999 -1.39556 0
M  V30 1959 H 182.486 5.30307 -1.41653 0
M  V30 1960 H 182.747 4.42029 0.0794833 0
M  V30 1961 N 181.806 0.884767 1.30421 0
M  V30 1962 C 182.716 0.355398 2.31892 0
M  V30 1963 C 183.732 -0.542261 1.65335 0
M  V30 1964 O 184.908 -0.435432 1.96637 0
M  V30 1965 C 181.973 -0.421661 3.44126 0
M  V30 1966 C 181.034 0.505727 4.26311 0
M  V30 1967 C 180.267 -0.234343 5.33185 0
M  V30 1968 O 180.49 -1.46045 5.51386 0
M  V30 1969 O 179.424 0.415443 6.00465 0
M  V30 1970 H 183.25 1.19685 2.79122 0
M  V30 1971 H 180.835 0.648596 1.34587 0
M  V30 1972 H 182.717 -0.861641 4.12497 0
M  V30 1973 H 181.392 -1.23942 2.99032 0
M  V30 1974 H 180.299 0.994513 3.60639 0
M  V30 1975 H 181.632 1.28948 4.75009 0
M  V30 1976 N 183.284 -1.43765 0.645699 0
M  V30 1977 C 184.532 -2.01499 0.155731 0
M  V30 1978 C 184.853 -1.51151 -1.232 0
M  V30 1979 O 184.123 -0.721044 -1.82148 0
M  V30 1980 H 182.703 -0.745003 0.0545817 0
M  V30 1981 H 185.365 -1.76075 0.835677 0
M  V30 1982 H 184.461 -3.1181 0.134577 0
M  V30 1983 N 184.763 -0.387143 -1.52771 0
M  V30 1984 C 186.012 0.19697 -2.00736 0
M  V30 1985 C 186.325 1.48082 -1.27793 0
M  V30 1986 O 187.531 2.14485 -1.66458 0
M  V30 1987 C 185.987 0.401568 -3.57653 0
M  V30 1988 C 185.595 -0.868907 -4.39493 0
M  V30 1989 C 187.339 0.942164 -4.13912 0
M  V30 1990 C 185.246 -0.632705 -5.88006 0
M  V30 1991 H 184.176 0.0773827 -0.750019 0
M  V30 1992 H 186.827 -0.50921 -1.76293 0
M  V30 1993 H 185.209 1.16954 -3.78335 0
M  V30 1994 H 186.383 -1.64133 -4.30577 0
M  V30 1995 H 184.698 -1.33429 -3.94443 0
M  V30 1996 H 187.295 1.13455 -5.22525 0
M  V30 1997 H 187.638 1.9106 -3.69867 0
M  V30 1998 H 188.171 0.233814 -3.97112 0
M  V30 1999 H 184.91 -1.57208 -6.36369 0
M  V30 2000 H 184.43 0.100825 -5.99715 0
M  V30 2001 H 186.109 -0.26642 -6.46451 0
M  V30 2002 N 186.241 1.57166 -0.116904 0
M  V30 2003 C 187.469 1.99473 0.549383 0
M  V30 2004 C 187.884 0.996541 1.60357 0
M  V30 2005 O 187.241 -0.0108731 1.82497 0
M  V30 2006 C 187.292 3.41788 1.17741 0
M  V30 2007 O 187.013 4.37788 0.165362 0
M  V30 2008 C 188.514 3.99216 1.92722 0
M  V30 2009 H 185.734 0.655009 0.145616 0
M  V30 2010 H 188.278 2.03494 -0.202625 0
M  V30 2011 H 186.433 3.38713 1.88021 0
M  V30 2012 H 186.847 5.20806 0.621403 0
M  V30 2013 H 188.321 5.00882 2.31995 0
M  V30 2014 H 188.798 3.3824 2.80161 0
M  V30 2015 H 189.404 4.0583 1.27209 0
M  V30 2016 N 187.719 -0.156864 1.56817 0
M  V30 2017 C 188.967 -0.869404 1.82444 0
M  V30 2018 C 189.288 -1.82147 0.69623 0
M  V30 2019 O 188.558 -1.93847 -0.28287 0
M  V30 2020 H 187.138 -0.324043 0.673056 0
M  V30 2021 H 189.8 -0.153224 1.94297 0
M  V30 2022 H 188.896 -1.43761 2.77019 0
M  V30 2023 N 189.197 -1.51736 -0.425897 0
M  V30 2024 C 190.145 -1.74464 -1.53834 0
M  V30 2025 C 191.139 -0.611241 -1.57988 0
M  V30 2026 O 192.345 -0.792899 -1.61596 0
M  V30 2027 H 188.72 -0.551437 -0.511293 0
M  V30 2028 H 190.691 -2.67694 -1.31843 0
M  V30 2029 C 189.44 -1.8972 -2.91379 0
M  V30 2030 H 188.763 -2.76344 -2.88919 0
M  V30 2031 H 190.203 -2.09629 -3.68553 0
M  V30 2032 C 188.662 -0.65992 -3.30374 0
M  V30 2033 O 189.192 0.180083 -4.01296 0
M  V30 2034 N 187.398 -0.500677 -2.86254 0
M  V30 2035 H 186.945 -1.18532 -2.28709 0
M  V30 2036 H 186.903 0.325903 -3.12706 0
M  V30 2037 N 190.675 0.682077 -1.42076 0
M  V30 2038 C 191.605 1.80796 -1.47767 0
M  V30 2039 C 192.586 1.6677 -0.334954 0
M  V30 2040 O 193.771 1.863 -0.548264 0
M  V30 2041 C 190.901 3.19038 -1.37229 0
M  V30 2042 C 189.855 3.47789 -2.49453 0
M  V30 2043 C 189.181 4.8553 -2.23975 0
M  V30 2044 C 190.481 3.45411 -3.91776 0
M  V30 2045 H 192.175 1.7629 -2.41997 0
M  V30 2046 H 189.721 0.846721 -1.16476 0
M  V30 2047 H 191.674 3.97528 -1.39821 0
M  V30 2048 H 190.398 3.24204 -0.394907 0
M  V30 2049 H 189.057 2.71657 -2.46166 0
M  V30 2050 H 188.705 4.87337 -1.24547 0
M  V30 2051 H 188.405 5.0573 -2.99184 0
M  V30 2052 H 189.929 5.66312 -2.28304 0
M  V30 2053 H 191.343 4.13882 -3.96705 0
M  V30 2054 H 189.74 3.77145 -4.66778 0
M  V30 2055 H 190.81 2.44122 -4.18966 0
M  V30 2056 N 192.153 1.28127 0.917671 0
M  V30 2057 C 193.4 1.15052 1.66641 0
M  V30 2058 C 193.728 -0.301677 1.92146 0
M  V30 2059 O 192.983 -1.23622 1.51711 0
M  V30 2060 C 193.282 1.89018 3.03327 0
M  V30 2061 C 192.948 3.38832 2.97496 0
M  V30 2062 C 191.61 3.79693 2.95613 0
M  V30 2063 C 193.962 4.34378 2.88036 0
M  V30 2064 C 191.29 5.14447 2.82066 0
M  V30 2065 C 193.642 5.69201 2.7603 0
M  V30 2066 C 192.306 6.09343 2.72502 0
M  V30 2067 H 191.576 0.421006 0.609783 0
M  V30 2068 H 194.223 1.58855 1.06945 0
M  V30 2069 H 192.528 1.37752 3.66785 0
M  V30 2070 H 194.225 1.76321 3.60156 0
M  V30 2071 H 190.815 3.06342 2.99754 0
M  V30 2072 H 194.999 4.03775 2.88581 0
M  V30 2073 H 190.255 5.44681 2.77728 0
M  V30 2074 H 194.429 6.42901 2.67678 0
M  V30 2075 H 192.056 7.13712 2.61762 0
M  V30 2076 N 193.631 -1.12557 1.10312 0
M  V30 2077 C 194.541 -2.21841 0.763142 0
M  V30 2078 C 195.557 -1.72354 -0.238801 0
M  V30 2079 O 196.733 -2.01249 -0.0778746 0
M  V30 2080 C 193.798 -3.46131 0.198632 0
M  V30 2081 C 192.859 -4.10464 1.25769 0
M  V30 2082 C 192.092 -5.28821 0.72002 0
M  V30 2083 O 192.315 -5.6859 -0.453993 0
M  V30 2084 O 191.249 -5.83437 1.47935 0
M  V30 2085 H 195.075 -2.53312 1.67532 0
M  V30 2086 H 192.66 -1.20867 0.878157 0
M  V30 2087 H 194.542 -4.2125 -0.112401 0
M  V30 2088 H 193.217 -3.16338 -0.686419 0
M  V30 2089 H 192.124 -3.3713 1.62156 0
M  V30 2090 H 193.457 -4.44408 2.11571 0
M  V30 2091 N 195.109 -0.891671 -1.2995 0
M  V30 2092 C 196.355 -0.514261 -1.96171 0
M  V30 2093 C 196.688 0.935506 -1.70182 0
M  V30 2094 O 195.963 1.66204 -1.01028 0
M  V30 2095 C 196.246 -0.797719 -3.51153 0
M  V30 2096 C 196.099 -2.2986 -3.86632 0
M  V30 2097 C 197.418 -0.278749 -4.39216 0
M  V30 2098 H 194.537 -0.188314 -0.712535 0
M  V30 2099 H 197.179 -1.11689 -1.53706 0
M  V30 2100 H 195.329 -0.284826 -3.87455 0
M  V30 2101 H 197.001 -2.88042 -3.60319 0
M  V30 2102 H 195.244 -2.76257 -3.34462 0
M  V30 2103 H 195.915 -2.44753 -4.94773 0
M  V30 2104 H 198.391 -0.717825 -4.09862 0
M  V30 2105 H 197.267 -0.506353 -5.46559 0
M  V30 2106 H 197.528 0.820266 -4.34424 0
M  V30 2107 N 196.587 1.43421 -0.653314 0
M  V30 2108 C 197.817 2.05864 -0.174238 0
M  V30 2109 C 198.225 1.49052 1.16534 0
M  V30 2110 O 197.568 0.616481 1.73047 0
M  V30 2111 C 197.63 3.59499 -0.00875873 0
M  V30 2112 C 197.294 4.38893 -1.27364 0
M  V30 2113 C 198.291 4.70947 -2.20239 0
M  V30 2114 C 195.976 4.789 -1.51525 0
M  V30 2115 C 197.97 5.41916 -3.35568 0
M  V30 2116 C 195.657 5.49614 -2.67147 0
M  V30 2117 C 196.655 5.81044 -3.58994 0
M  V30 2118 O 196.343 6.50313 -4.72597 0
M  V30 2119 H 196.075 0.670345 -0.0872549 0
M  V30 2120 H 198.629 1.84913 -0.894226 0
M  V30 2121 H 196.859 3.79025 0.7666 0
M  V30 2122 H 198.548 4.0364 0.427687 0
M  V30 2123 H 199.314 4.40558 -2.02815 0
M  V30 2124 H 195.193 4.53843 -0.809158 0
M  V30 2125 H 198.737 5.66365 -4.07279 0
M  V30 2126 H 194.634 5.79419 -2.84505 0
M  V30 2127 H 195.402 6.68795 -4.71864 0
M  V30 2128 N 198.065 0.39524 1.52563 0
M  V30 2129 C 198.995 -0.428384 2.29537 0
M  V30 2130 C 199.976 -1.05831 1.33169 0
M  V30 2131 O 201.161 -1.06995 1.62067 0
M  V30 2132 C 198.291 -1.55274 3.10656 0
M  V30 2133 C 197.245 -1.04855 4.14957 0
M  V30 2134 C 196.571 -2.26543 4.84337 0
M  V30 2135 C 197.871 -0.112324 5.22179 0
M  V30 2136 H 199.565 0.213867 2.98635 0
M  V30 2137 H 197.111 0.104298 1.43622 0
M  V30 2138 H 199.064 -2.1358 3.63265 0
M  V30 2139 H 197.788 -2.22266 2.39302 0
M  V30 2140 H 196.447 -0.487985 3.63338 0
M  V30 2141 H 196.095 -2.92059 4.09525 0
M  V30 2142 H 195.795 -1.93466 5.54837 0
M  V30 2143 H 197.319 -2.85481 5.39753 0
M  V30 2144 H 198.733 -0.603752 5.70112 0
M  V30 2145 H 197.13 0.128968 5.99961 0
M  V30 2146 H 198.2 0.837052 4.77621 0
M  V30 2147 N 199.544 -1.57102 0.125237 0
M  V30 2148 C 200.491 -2.15641 -0.822655 0
M  V30 2149 C 201.461 -1.08313 -1.25927 0
M  V30 2150 O 202.646 -1.36251 -1.33567 0
M  V30 2151 C 199.786 -2.76504 -2.06494 0
M  V30 2152 C 198.899 -3.98158 -1.67612 0
M  V30 2153 C 198.034 -4.47088 -2.86854 0
M  V30 2154 C 197.073 -5.6126 -2.44242 0
M  V30 2155 N 196.21 -6.04905 -3.56419 0
M  V30 2156 H 201.05 -2.96313 -0.316625 0
M  V30 2157 H 198.587 -1.46388 -0.144588 0
M  V30 2158 H 200.545 -3.09925 -2.79289 0
M  V30 2159 H 199.175 -1.98512 -2.54545 0
M  V30 2160 H 198.227 -3.70858 -0.846661 0
M  V30 2161 H 199.539 -4.80934 -1.32301 0
M  V30 2162 H 198.693 -4.82451 -3.67867 0
M  V30 2163 H 197.432 -3.63275 -3.25396 0
M  V30 2164 H 196.437 -5.25495 -1.61663 0
M  V30 2165 H 197.662 -6.46843 -2.0681 0
M  V30 2166 H 195.608 -5.24032 -3.94623 0
M  V30 2167 H 195.525 -6.82552 -3.25051 0
M  V30 2168 H 196.793 -6.44907 -4.37853 0
M  V30 2169 N 201.022 0.148545 -1.56898 0
M  V30 2170 C 202.433 0.708766 -1.72723 0
M  V30 2171 C 202.784 1.81734 -0.739395 0
M  V30 2172 O 201.909 2.16194 0.0943169 0
M  V30 2173 C 202.504 1.29245 -3.13179 0
M  V30 2174 C 201.063 1.79925 -3.30611 0
M  V30 2175 C 200.21 0.687111 -2.68652 0
M  V30 2176 H 203.161 -0.0771063 -1.58513 0
M  V30 2177 H 203.182 2.16224 -3.13093 0
M  V30 2178 H 202.694 0.485382 -3.85053 0
M  V30 2179 H 200.795 2.63203 -2.63732 0
M  V30 2180 H 200.908 1.92903 -4.38549 0
M  V30 2181 H 199.272 1.11335 -2.29078 0
M  V30 2182 H 200.055 -0.108483 -3.43129 0
M  V30 2183 N 202.5 1.5196 0.417844 0
M  V30 2184 C 203.73 1.69181 1.18581 0
M  V30 2185 C 204.138 0.397104 1.84986 0
M  V30 2186 O 203.481 -0.636011 1.72339 0
M  V30 2187 C 203.543 2.76497 2.29759 0
M  V30 2188 C 203.207 4.18514 1.83563 0
M  V30 2189 C 204.204 5.02648 1.32821 0
M  V30 2190 C 201.889 4.64708 1.90661 0
M  V30 2191 C 203.883 6.31044 0.897894 0
M  V30 2192 C 201.57 5.93096 1.47241 0
M  V30 2193 C 202.568 6.76093 0.968891 0
M  V30 2194 O 202.256 8.02078 0.540924 0
M  V30 2195 H 201.988 0.570457 0.362705 0
M  V30 2196 H 204.542 1.99249 0.498885 0
M  V30 2197 H 202.772 2.41786 3.01789 0
M  V30 2198 H 204.461 2.82403 2.91553 0
M  V30 2199 H 205.227 4.68154 1.26716 0
M  V30 2200 H 201.106 4.00216 2.28797 0
M  V30 2201 H 204.65 6.95776 0.504192 0
M  V30 2202 H 200.547 6.271 1.53022 0
M  V30 2203 H 201.315 8.15794 0.66502 0
M  V30 2204 N 203.978 -0.674533 1.42435 0
M  V30 2205 C 205.225 -1.43459 1.42919 0
M  V30 2206 C 205.553 -1.94446 0.0457312 0
M  V30 2207 O 204.808 -1.7132 -0.94593 0
M  V30 2208 C 205.107 -2.64767 2.40069 0
M  V30 2209 C 204.773 -2.3232 3.86443 0
M  V30 2210 C 203.435 -2.23182 4.26314 0
M  V30 2211 C 205.787 -2.05977 4.78773 0
M  V30 2212 C 203.115 -1.85827 5.56494 0
M  V30 2213 C 205.467 -1.70125 6.09295 0
M  V30 2214 C 204.131 -1.59498 6.48164 0
M  V30 2215 H 203.401 -0.524952 0.522978 0
M  V30 2216 H 206.048 -0.769097 1.75377 0
M  V30 2217 H 204.353 -3.36349 2.00939 0
M  V30 2218 H 206.05 -3.22949 2.37707 0
M  V30 2219 H 202.64 -2.40334 3.54877 0
M  V30 2220 H 206.824 -2.11969 4.48757 0
M  V30 2221 H 202.08 -1.76168 5.8547 0
M  V30 2222 H 206.254 -1.48767 6.80324 0
M  V30 2223 H 203.881 -1.30322 7.48946 0
M  V30 2224 N 205.456 -1.28612 -0.910864 0
M  V30 2225 C 206.386 -1.15326 -2.03032 0
M  V30 2226 C 207.367 -0.0502924 -1.70026 0
M  V30 2227 O 208.552 -0.227797 -1.92859 0
M  V30 2228 C 205.682 -0.817343 -3.37545 0
M  V30 2229 C 204.636 -1.8754 -3.84724 0
M  V30 2230 C 203.962 -1.39305 -5.16235 0
M  V30 2231 C 205.262 -3.28244 -4.06267 0
M  V30 2232 H 206.956 -2.08975 -2.14406 0
M  V30 2233 H 204.502 -1.00612 -1.03021 0
M  V30 2234 H 206.455 -0.711151 -4.15356 0
M  V30 2235 H 205.179 0.154846 -3.26233 0
M  V30 2236 H 203.838 -1.97079 -3.09121 0
M  V30 2237 H 203.486 -0.409846 -5.01328 0
M  V30 2238 H 203.186 -2.10057 -5.48771 0
M  V30 2239 H 204.71 -1.30014 -5.96598 0
M  V30 2240 H 206.124 -3.21611 -4.74594 0
M  V30 2241 H 204.521 -3.96855 -4.5014 0
M  V30 2242 H 205.591 -3.72048 -3.10979 0
M  V30 2243 N 206.934 1.1197 -1.10907 0
M  V30 2244 C 207.844 2.21433 -0.774896 0
M  V30 2245 C 208.86 1.72478 0.229657 0
M  V30 2246 O 210.036 2.01288 0.0672008 0
M  V30 2247 C 207.101 3.4602 -0.216986 0
M  V30 2248 C 206.162 4.09791 -1.27944 0
M  V30 2249 C 205.395 5.28431 -0.748055 0
M  V30 2250 O 205.618 5.68823 0.423833 0
M  V30 2251 O 204.552 5.82644 -1.51027 0
M  V30 2252 H 208.378 2.5242 -1.68873 0
M  V30 2253 H 205.963 1.20399 -0.884555 0
M  V30 2254 H 207.845 4.21304 0.090059 0
M  V30 2255 H 206.52 3.16698 0.669633 0
M  V30 2256 H 205.427 3.36265 -1.63941 0
M  V30 2257 H 206.76 4.4328 -2.13925 0
M  V30 2258 N 208.412 0.89855 1.29475 0
M  V30 2259 C 209.375 0.380272 2.26023 0
M  V30 2260 C 210.375 -0.484891 1.53315 0
M  V30 2261 O 211.565 -0.290108 1.71767 0
M  V30 2262 C 208.697 -0.45651 3.3783 0
M  V30 2263 H 209.89 1.23295 2.73383 0
M  V30 2264 H 207.443 0.676589 1.40897 0
M  V30 2265 H 208.178 -1.32922 2.95808 0
M  V30 2266 H 207.963 0.163393 3.91759 0
M  V30 2267 H 209.453 -0.810466 4.0966 0
M  V30 2268 N 209.89 -1.43072 0.660911 0
M  V30 2269 C 211.12 -2.05769 0.185153 0
M  V30 2270 C 211.528 -1.49668 -1.15742 0
M  V30 2271 O 210.871 -0.625649 -1.72717 0
M  V30 2272 C 210.933 -3.59489 0.0278237 0
M  V30 2273 C 210.597 -4.38212 1.2969 0
M  V30 2274 C 211.594 -4.69772 2.22734 0
M  V30 2275 C 209.279 -4.7809 1.54063 0
M  V30 2276 C 211.273 -5.40129 3.38437 0
M  V30 2277 C 208.96 -5.4819 2.70058 0
M  V30 2278 C 209.958 -5.79132 3.62071 0
M  V30 2279 O 209.646 -6.47798 4.76039 0
M  V30 2280 H 209.378 -0.669873 0.0908086 0
M  V30 2281 H 211.932 -1.84436 0.90402 0
M  V30 2282 H 210.162 -3.79426 -0.746489 0
M  V30 2283 H 211.851 -4.03862 -0.406275 0
M  V30 2284 H 212.617 -4.39476 2.05149 0
M  V30 2285 H 208.496 -4.53408 0.833215 0
M  V30 2286 H 212.04 -5.64198 4.10277 0
M  V30 2287 H 207.937 -5.77902 2.87574 0
M  V30 2288 H 208.705 -6.66283 4.75404 0
M  V30 2289 N 211.368 -0.403325 -1.52352 0
M  V30 2290 C 212.784 -0.0539281 -1.59509 0
M  V30 2291 C 212.984 1.43307 -1.41652 0
M  V30 2292 O 212.04 2.19924 -1.24056 0
M  V30 2293 C 213.353 -0.543654 -2.95745 0
M  V30 2294 C 214.901 -0.501125 -3.08962 0
M  V30 2295 C 215.376 -0.967267 -4.47669 0
M  V30 2296 N 216.867 -0.923849 -4.53893 0
M  V30 2297 C 217.602 -1.25578 -5.5948 0
M  V30 2298 N 217.098 -1.65889 -6.72646 0
M  V30 2299 N 218.891 -1.17613 -5.49658 0
M  V30 2300 H 211.042 -1.37123 -1.62206 0
M  V30 2301 H 213.305 -0.56294 -0.76276 0
M  V30 2302 H 213.011 -1.58275 -3.14073 0
M  V30 2303 H 212.885 0.0498042 -3.77167 0
M  V30 2304 H 215.272 0.528909 -2.90321 0
M  V30 2305 H 215.353 -1.13056 -2.2946 0
M  V30 2306 H 214.997 -1.9956 -4.67053 0
M  V30 2307 H 214.927 -0.314698 -5.25659 0
M  V30 2308 H 217.418 -0.627403 -3.72655 0
M  V30 2309 H 217.731 -1.89543 -7.49195 0
M  V30 2310 H 216.076 -1.69787 -6.73942 0
M  V30 2311 H 219.267 -0.860115 -4.6013 0
M  V30 2312 H 219.44 -1.43812 -6.3184 0
M  V30 2313 N 212.846 1.57033 -0.133567 0
M  V30 2314 C 214.257 1.82593 0.389464 0
M  V30 2315 C 214.608 1.05156 1.6564 0
M  V30 2316 O 213.733 0.292644 2.14412 0
M  V30 2317 C 214.328 3.31204 0.713377 0
M  V30 2318 C 212.887 3.57393 1.18098 0
M  V30 2319 C 212.034 2.76598 0.197126 0
M  V30 2320 H 214.985 1.54598 -0.358481 0
M  V30 2321 H 215.006 3.46627 1.56939 0
M  V30 2322 H 214.518 3.87537 -0.2089 0
M  V30 2323 H 212.619 3.06433 2.11966 0
M  V30 2324 H 212.732 4.65915 1.11624 0
M  V30 2325 H 211.096 2.45257 0.687088 0
M  V30 2326 H 211.879 3.35697 -0.718504 0
M  V30 2327 N 214.325 -0.140222 1.56975 0
M  V30 2328 C 215.574 -0.850152 1.82908 0
M  V30 2329 C 215.887 -1.82028 0.715892 0
M  V30 2330 O 217.093 -2.57485 0.861016 0
M  V30 2331 C 215.549 -1.5625 3.24213 0
M  V30 2332 C 215.157 -0.63443 4.43485 0
M  V30 2333 C 216.901 -2.25881 3.59413 0
M  V30 2334 C 214.808 -1.34879 5.75814 0
M  V30 2335 H 213.738 -0.321221 0.682153 0
M  V30 2336 H 216.389 -0.102874 1.83211 0
M  V30 2337 H 214.771 -2.35565 3.18316 0
M  V30 2338 H 215.945 0.12398 4.60633 0
M  V30 2339 H 214.26 -0.0461836 4.16374 0
M  V30 2340 H 216.857 -2.79978 4.5554 0
M  V30 2341 H 217.2 -3.02693 2.85802 0
M  V30 2342 H 217.733 -1.53477 3.67001 0
M  V30 2343 H 214.472 -0.622385 6.52539 0
M  V30 2344 H 213.992 -2.07974 5.6259 0
M  V30 2345 H 215.671 -1.88784 6.18845 0
M  V30 2346 N 215.803 -1.52179 -0.40978 0
M  V30 2347 C 217.219 -1.40968 -0.74835 0
M  V30 2348 C 217.419 -0.513657 -1.94843 0
M  V30 2349 O 216.475 0.0208026 -2.52491 0
M  V30 2350 C 217.788 -2.83483 -1.0029 0
M  V30 2351 C 219.336 -2.92821 -1.10565 0
M  V30 2352 C 219.811 -4.36303 -1.39296 0
M  V30 2353 N 221.302 -4.39535 -1.46162 0
M  V30 2354 C 222.037 -5.47614 -1.70018 0
M  V30 2355 N 221.533 -6.65812 -1.91483 0
M  V30 2356 N 223.326 -5.35129 -1.72027 0
M  V30 2357 H 215.477 -2.0897 0.380186 0
M  V30 2358 H 217.74 -0.94185 0.107805 0
M  V30 2359 H 217.446 -3.51168 -0.193461 0
M  V30 2360 H 217.32 -3.24487 -1.92323 0
M  V30 2361 H 219.707 -2.25318 -1.90568 0
M  V30 2362 H 219.788 -2.55276 -0.16369 0
M  V30 2363 H 219.432 -5.04366 -0.598109 0
M  V30 2364 H 219.362 -4.71385 -2.34743 0
M  V30 2365 H 221.853 -3.54332 -1.31367 0
M  V30 2366 H 222.166 -7.43964 -2.09134 0
M  V30 2367 H 220.511 -6.68879 -1.88749 0
M  V30 2368 H 223.702 -4.41764 -1.54796 0
M  V30 2369 H 223.875 -6.19433 -1.9028 0
M  V30 2370 N 217.281 0.66697 -1.42791 0
M  V30 2371 C 218.228 1.7803 -1.4688 0
M  V30 2372 C 219.198 1.6299 -0.319919 0
M  V30 2373 O 220.383 1.83432 -0.525118 0
M  V30 2374 C 217.523 3.1611 -1.38451 0
M  V30 2375 C 216.636 3.42381 -2.63437 0
M  V30 2376 C 215.771 4.70232 -2.47094 0
M  V30 2377 C 214.81 4.89564 -3.67415 0
M  V30 2378 N 213.947 6.08661 -3.49966 0
M  V30 2379 H 218.787 1.7387 -2.42019 0
M  V30 2380 H 216.324 0.84868 -1.20149 0
M  V30 2381 H 218.282 3.95914 -1.31561 0
M  V30 2382 H 216.912 3.19374 -0.469033 0
M  V30 2383 H 215.964 2.56774 -2.80662 0
M  V30 2384 H 217.276 3.52557 -3.52853 0
M  V30 2385 H 216.43 5.5814 -2.37834 0
M  V30 2386 H 215.169 4.62353 -1.5518 0
M  V30 2387 H 214.174 4.00096 -3.77099 0
M  V30 2388 H 215.399 4.99282 -4.6032 0
M  V30 2389 H 213.345 6.0194 -2.60776 0
M  V30 2390 H 213.262 6.19733 -4.32975 0
M  V30 2391 H 214.53 6.99226 -3.44532 0
M  V30 2392 N 218.759 1.29093 0.90403 0
M  V30 2393 C 220.007 1.16583 1.65085 0
M  V30 2394 C 220.328 -0.283933 1.92922 0
M  V30 2395 O 219.598 -1.19509 1.55224 0
M  V30 2396 H 218.178 0.428467 0.611903 0
M  V30 2397 H 220.84 1.61959 1.08422 0
M  V30 2398 H 219.936 1.71266 2.6091 0
M  V30 2399 N 220.237 -1.11381 1.11499 0
M  V30 2400 C 221.514 -1.7955 0.775965 0
M  V30 2401 C 221.894 -1.97859 -0.73588 0
M  V30 2402 O 221.242 -1.56376 -1.66609 0
M  V30 2403 C 221.452 -3.13196 1.53977 0
M  V30 2404 C 222.8 -3.88227 1.71944 0
M  V30 2405 O 223.824 -3.22887 1.50407 0
M  V30 2406 O 222.683 -5.05477 2.07738 0
M  V30 2407 H 219.777 -0.777728 0.28119 0
M  V30 2408 H 222.323 -1.18118 1.21845 0
M  V30 2409 H 221.095 -2.95229 2.56818 0
M  V30 2410 H 220.718 -3.82342 1.09088 0
M  V30 2411 N 221.715 -0.905404 -1.28997 0
M  V30 2412 C 222.964 -0.530191 -1.94607 0
M  V30 2413 C 223.277 0.929185 -1.72121 0
M  V30 2414 O 224.483 1.41218 -2.31883 0
M  V30 2415 C 222.939 -0.897333 -3.48534 0
M  V30 2416 C 222.547 -2.37587 -3.79811 0
M  V30 2417 C 224.291 -0.592304 -4.20347 0
M  V30 2418 C 222.198 -2.68357 -5.27009 0
M  V30 2419 H 221.128 -0.194558 -0.728466 0
M  V30 2420 H 223.779 -1.10318 -1.46636 0
M  V30 2421 H 222.161 -0.253214 -3.9519 0
M  V30 2422 H 223.335 -3.06602 -3.43994 0
M  V30 2423 H 221.65 -2.6505 -3.2115 0
M  V30 2424 H 224.247 -0.798975 -5.28697 0
M  V30 2425 H 224.59 0.469474 -4.13644 0
M  V30 2426 H 225.123 -1.19452 -3.79442 0
M  V30 2427 H 221.862 -3.73355 -5.38782 0
M  V30 2428 H 221.382 -2.03971 -5.64053 0
M  V30 2429 H 223.061 -2.54922 -5.94663 0
M  V30 2430 N 223.193 1.4272 -0.668489 0
M  V30 2431 C 224.44 2.01624 -0.18814 0
M  V30 2432 C 224.768 1.5282 1.20317 0
M  V30 2433 O 224.023 0.718323 1.8204 0
M  V30 2434 C 224.322 3.57021 -0.164499 0
M  V30 2435 C 223.988 4.25232 -1.49962 0
M  V30 2436 C 222.65 4.4358 -1.8652 0
M  V30 2437 C 225.002 4.63727 -2.37921 0
M  V30 2438 C 222.33 4.97694 -3.10674 0
M  V30 2439 C 224.682 5.19218 -3.6138 0
M  V30 2440 C 223.346 5.3578 -3.98115 0
M  V30 2441 H 222.616 0.737795 -0.0688454 0
M  V30 2442 H 225.263 1.70991 -0.862225 0
M  V30 2443 H 223.568 3.87285 0.593079 0
M  V30 2444 H 225.265 4.00372 0.224271 0
M  V30 2445 H 221.855 4.11306 -1.20522 0
M  V30 2446 H 226.039 4.4923 -2.10964 0
M  V30 2447 H 221.295 5.08702 -3.39164 0
M  V30 2448 H 225.469 5.4799 -4.29743 0
M  V30 2449 H 223.096 5.77475 -4.94395 0
M  V30 2450 N 224.671 0.411399 1.52136 0
M  V30 2451 C 225.601 -0.404015 2.29978 0
M  V30 2452 C 226.582 -1.04412 1.34284 0
M  V30 2453 O 227.767 -1.0527 1.63192 0
M  V30 2454 C 224.897 -1.5197 3.12286 0
M  V30 2455 C 223.851 -1.00448 4.16046 0
M  V30 2456 C 223.177 -2.21393 4.86712 0
M  V30 2457 C 224.477 -0.0569336 5.22269 0
M  V30 2458 H 226.171 0.245529 2.98392 0
M  V30 2459 H 223.717 0.119525 1.43503 0
M  V30 2460 H 225.67 -2.09715 3.6551 0
M  V30 2461 H 224.394 -2.19716 2.41646 0
M  V30 2462 H 223.053 -0.449421 3.63835 0
M  V30 2463 H 222.701 -2.87699 4.12599 0
M  V30 2464 H 222.401 -1.87571 5.56858 0
M  V30 2465 H 223.925 -2.7974 5.4275 0
M  V30 2466 H 225.339 -0.54325 5.7072 0
M  V30 2467 H 223.736 0.192594 5.99791 0
M  V30 2468 H 224.806 0.887663 4.76706 0
M  V30 2469 N 226.149 -1.5696 0.141893 0
M  V30 2470 C 227.395 -1.9625 -0.511248 0
M  V30 2471 C 227.728 -1.02654 -1.64851 0
M  V30 2472 O 227.003 -0.0679676 -1.94381 0
M  V30 2473 C 227.286 -3.45285 -1.02227 0
M  V30 2474 C 227.139 -4.49658 0.113138 0
M  V30 2475 C 228.458 -3.96698 -1.90574 0
M  V30 2476 H 225.577 -0.713567 -0.184367 0
M  V30 2477 H 228.219 -1.88698 0.222087 0
M  V30 2478 H 226.369 -3.51852 -1.64719 0
M  V30 2479 H 228.041 -4.55174 0.749302 0
M  V30 2480 H 226.284 -4.26857 0.773026 0
M  V30 2481 H 226.955 -5.51258 -0.286053 0
M  V30 2482 H 229.431 -3.92578 -1.37918 0
M  V30 2483 H 228.307 -5.01453 -2.2324 0
M  V30 2484 H 228.568 -3.3875 -2.84079 0
M  V30 2485 N 227.627 0.131896 -1.57047 0
M  V30 2486 C 229.043 0.485031 -1.52051 0
M  V30 2487 C 229.243 1.82563 -0.85281 0
M  V30 2488 O 228.299 2.48817 -0.429694 0
M  V30 2489 C 229.612 0.481409 -2.96821 0
M  V30 2490 C 231.16 0.565868 -3.07842 0
M  V30 2491 C 231.635 0.592762 -4.54148 0
M  V30 2492 N 233.126 0.654564 -4.58552 0
M  V30 2493 C 233.861 0.696608 -5.69153 0
M  V30 2494 N 233.357 0.697078 -6.89284 0
M  V30 2495 N 235.15 0.738639 -5.57226 0
M  V30 2496 H 227.301 -0.746664 -1.98843 0
M  V30 2497 H 229.564 -0.273999 -0.90754 0
M  V30 2498 H 229.27 -0.435731 -3.4899 0
M  V30 2499 H 229.144 1.3139 -3.53577 0
M  V30 2500 H 231.531 1.47343 -2.55684 0
M  V30 2501 H 231.612 -0.29406 -2.54104 0
M  V30 2502 H 231.256 -0.310701 -5.06949 0
M  V30 2503 H 231.186 1.46939 -5.05684 0
M  V30 2504 H 233.677 0.660887 -3.72076 0
M  V30 2505 H 233.99 0.731426 -7.69331 0
M  V30 2506 H 232.335 0.66471 -6.91814 0
M  V30 2507 H 235.526 0.735545 -4.62285 0
M  V30 2508 H 235.699 0.767938 -6.43434 0
M  V30 2509 N 229.106 1.52395 0.401703 0
M  V30 2510 C 230.354 1.66488 1.14569 0
M  V30 2511 C 230.675 0.400897 1.90835 0
M  V30 2512 O 229.945 -0.584415 1.8698 0
M  V30 2513 H 228.525 0.613672 0.425929 0
M  V30 2514 H 231.187 1.89464 0.457093 0
M  V30 2515 H 230.283 2.50942 1.85566 0
M  V30 2516 N 230.584 -0.659388 1.43143 0
M  V30 2517 C 231.832 -1.41654 1.44147 0
M  V30 2518 C 232.153 -1.94893 0.0645739 0
M  V30 2519 O 231.423 -1.74044 -0.899198 0
M  V30 2520 H 230.003 -0.525708 0.530697 0
M  V30 2521 H 232.665 -0.778097 1.78694 0
M  V30 2522 H 231.761 -2.26195 2.1504 0
M  V30 2523 N 232.062 -1.29571 -0.897171 0
M  V30 2524 C 232.995 -1.0924 -2.00354 0
M  V30 2525 C 233.973 -0.00354011 -1.626 0
M  V30 2526 O 235.157 -0.15473 -1.87864 0
M  V30 2527 C 232.284 -0.66352 -3.32137 0
M  V30 2528 C 231.33 -1.75146 -3.88878 0
M  V30 2529 S 232.163 -3.35124 -4.17674 0
M  V30 2530 C 233.319 -2.9411 -5.52494 0
M  V30 2531 H 233.552 -2.02907 -2.17292 0
M  V30 2532 H 231.085 -1.13746 -1.04408 0
M  V30 2533 H 233.043 -0.422791 -4.08317 0
M  V30 2534 H 231.704 0.253588 -3.13075 0
M  V30 2535 H 230.897 -1.40337 -4.84068 0
M  V30 2536 H 230.499 -1.94584 -3.19395 0
M  V30 2537 H 232.791 -2.41312 -6.33068 0
M  V30 2538 H 233.734 -3.88161 -5.9223 0
M  V30 2539 H 234.142 -2.32332 -5.14473 0
M  V30 2540 N 233.54 1.10788 -1.12088 0
M  V30 2541 C 234.956 1.34691 -0.856186 0
M  V30 2542 C 235.156 1.94791 0.515615 0
M  V30 2543 O 234.212 2.18524 1.26505 0
M  V30 2544 C 235.525 2.27208 -1.9697 0
M  V30 2545 C 237.073 2.40755 -2.00016 0
M  V30 2546 C 237.548 3.36598 -3.1059 0
M  V30 2547 N 239.039 3.44164 -3.10008 0
M  V30 2548 C 239.774 4.18284 -3.92206 0
M  V30 2549 N 239.27 4.95322 -4.84384 0
M  V30 2550 N 241.063 4.13865 -3.80357 0
M  V30 2551 H 233.214 0.70144 -2.00483 0
M  V30 2552 H 235.477 0.371405 -0.872217 0
M  V30 2553 H 235.183 1.90251 -2.958 0
M  V30 2554 H 235.057 3.27485 -1.87172 0
M  V30 2555 H 237.444 2.76982 -1.01808 0
M  V30 2556 H 237.525 1.40305 -2.13888 0
M  V30 2557 H 237.169 3.01096 -4.09028 0
M  V30 2558 H 237.099 4.36918 -2.93956 0
M  V30 2559 H 239.59 2.8922 -2.43228 0
M  V30 2560 H 239.903 5.49267 -5.43623 0
M  V30 2561 H 238.248 4.94459 -4.884 0
M  V30 2562 H 241.439 3.52773 -3.07683 0
M  V30 2563 H 241.612 4.71372 -4.44649 0
M  V30 2564 N 235.018 0.912232 1.28515 0
M  V30 2565 C 235.981 0.404223 2.25607 0
M  V30 2566 C 236.981 -0.468602 1.53821 0
M  V30 2567 O 238.171 -0.271873 1.72065 0
M  V30 2568 C 235.303 -0.420653 3.38295 0
M  V30 2569 H 236.496 1.26188 2.7206 0
M  V30 2570 H 234.049 0.691495 1.40171 0
M  V30 2571 H 234.784 -1.29777 2.97201 0
M  V30 2572 H 234.569 0.204935 3.91564 0
M  V30 2573 H 236.059 -0.766971 4.10496 0
M  V30 2574 N 236.496 -1.42363 0.676048 0
M  V30 2575 C 237.742 -2.0182 0.199125 0
M  V30 2576 C 238.075 -1.53339 -1.19168 0
M  V30 2577 O 237.35 -0.736124 -1.80032 0
M  V30 2578 C 237.633 -3.59331 0.235144 0
M  V30 2579 C 237.486 -4.17989 1.66149 0
M  V30 2580 C 238.805 -4.3813 -0.41595 0
M  V30 2581 H 235.924 -0.733293 0.0738311 0
M  V30 2582 H 238.566 -1.69368 0.86107 0
M  V30 2583 H 236.716 -3.87109 -0.328487 0
M  V30 2584 H 238.388 -4.0116 2.27747 0
M  V30 2585 H 236.631 -3.7377 2.20178 0
M  V30 2586 H 237.302 -5.27126 1.63837 0
M  V30 2587 H 239.778 -4.16051 0.0638529 0
M  V30 2588 H 238.654 -5.47717 -0.360115 0
M  V30 2589 H 238.915 -4.16101 -1.49373 0
M  V30 2590 N 237.974 -0.419461 -1.51915 0
M  V30 2591 C 238.884 0.407528 -2.31033 0
M  V30 2592 C 239.9 1.04413 -1.3919 0
M  V30 2593 O 241.076 1.0434 -1.72265 0
M  V30 2594 C 238.141 1.50365 -3.12396 0
M  V30 2595 C 237.202 0.889029 -4.19994 0
M  V30 2596 C 236.435 1.93291 -4.97468 0
M  V30 2597 O 236.658 3.15259 -4.75361 0
M  V30 2598 O 235.592 1.53339 -5.8204 0
M  V30 2599 H 239.418 -0.237865 -3.02767 0
M  V30 2600 H 237.003 -0.182413 -1.48282 0
M  V30 2601 H 238.885 2.13975 -3.63032 0
M  V30 2602 H 237.56 2.13345 -2.43445 0
M  V30 2603 H 236.467 0.215353 -3.7348 0
M  V30 2604 H 237.8 0.302991 -4.91267 0
M  V30 2605 N 239.452 1.56882 -0.150215 0
M  V30 2606 C 240.699 1.96228 0.500093 0
M  V30 2607 C 241.027 1.03522 1.64661 0
M  V30 2608 O 240.282 0.0650683 1.95592 0
M  V30 2609 C 240.581 3.41801 1.04437 0
M  V30 2610 C 240.247 4.50897 0.0159671 0
M  V30 2611 C 238.909 4.8046 -0.266731 0
M  V30 2612 C 241.261 5.16703 -0.683192 0
M  V30 2613 C 238.589 5.73135 -1.25434 0
M  V30 2614 C 240.941 6.10441 -1.65964 0
M  V30 2615 C 239.605 6.38382 -1.95 0
M  V30 2616 H 238.875 0.718048 0.182997 0
M  V30 2617 H 241.522 1.90019 -0.237724 0
M  V30 2618 H 239.827 3.44857 1.85959 0
M  V30 2619 H 241.524 3.69573 1.55618 0
M  V30 2620 H 238.114 4.27891 0.246485 0
M  V30 2621 H 242.298 4.93993 -0.477983 0
M  V30 2622 H 237.554 5.93074 -1.48571 0
M  V30 2623 H 241.728 6.60507 -2.20689 0
M  V30 2624 H 239.355 7.09996 -2.71679 0
M  V30 2625 N 240.93 -0.123565 1.57115 0
M  V30 2626 C 241.877 -1.15177 2.00007 0
M  V30 2627 C 242.847 -1.41403 0.871454 0
M  V30 2628 O 244.032 -1.53346 1.13533 0
M  V30 2629 C 241.172 -2.47436 2.40561 0
M  V30 2630 C 240.285 -2.28184 3.66819 0
M  V30 2631 C 239.42 -3.53641 3.96373 0
M  V30 2632 C 238.459 -3.29528 5.15827 0
M  V30 2633 N 237.596 -4.47175 5.41275 0
M  V30 2634 H 242.436 -0.779008 2.87638 0
M  V30 2635 H 239.973 -0.373166 1.42288 0
M  V30 2636 H 241.931 -3.24584 2.62109 0
M  V30 2637 H 240.561 -2.82614 1.55978 0
M  V30 2638 H 239.613 -1.41976 3.52912 0
M  V30 2639 H 240.925 -2.0634 4.5412 0
M  V30 2640 H 240.079 -4.39209 4.18545 0
M  V30 2641 H 238.818 -3.78512 3.07538 0
M  V30 2642 H 237.823 -2.42349 4.93505 0
M  V30 2643 H 239.048 -3.06031 6.06236 0
M  V30 2644 H 236.994 -4.72175 4.55397 0
M  V30 2645 H 236.911 -4.28419 6.22891 0
M  V30 2646 H 238.179 -5.3389 5.67963 0
M  V30 2647 N 242.408 -1.52605 -0.393616 0
M  V30 2648 C 243.654 -1.67672 -1.14079 0
M  V30 2649 C 243.987 -0.413121 -1.89755 0
M  V30 2650 O 243.262 0.588952 -1.85369 0
M  V30 2651 C 243.545 -2.9088 -2.12276 0
M  V30 2652 C 243.398 -4.27329 -1.40394 0
M  V30 2653 C 244.717 -3.09628 -3.12759 0
M  V30 2654 H 241.836 -0.610168 -0.413356 0
M  V30 2655 H 244.478 -1.85193 -0.424696 0
M  V30 2656 H 242.628 -2.76073 -2.73342 0
M  V30 2657 H 244.3 -4.53894 -0.82327 0
M  V30 2658 H 242.543 -4.2802 -0.705801 0
M  V30 2659 H 243.214 -5.09615 -2.12123 0
M  V30 2660 H 245.69 -3.23436 -2.61779 0
M  V30 2661 H 244.566 -3.97322 -3.78717 0
M  V30 2662 H 244.827 -2.23637 -3.81365 0
M  V30 2663 N 243.887 0.651787 -1.4349 0
M  V30 2664 C 245.133 1.41376 -1.45398 0
M  V30 2665 C 245.466 1.94041 -0.0784823 0
M  V30 2666 O 244.741 1.72379 0.900878 0
M  V30 2667 C 245.024 2.59414 -2.49752 0
M  V30 2668 C 244.877 2.12232 -3.96582 0
M  V30 2669 C 246.196 3.61626 -2.50827 0
M  V30 2670 H 243.315 0.512719 -0.529422 0
M  V30 2671 H 245.957 0.738796 -1.75048 0
M  V30 2672 H 244.107 3.16997 -2.246 0
M  V30 2673 H 245.779 1.59639 -4.32797 0
M  V30 2674 H 244.022 1.43592 -4.09346 0
M  V30 2675 H 244.693 2.9712 -4.65214 0
M  V30 2676 H 247.169 3.13805 -2.7325 0
M  V30 2677 H 246.045 4.41766 -3.25783 0
M  V30 2678 H 246.306 4.14314 -1.5426 0
M  V30 2679 N 245.365 1.30045 0.890287 0
M  V30 2680 C 246.275 1.17885 2.02831 0
M  V30 2681 C 247.291 0.0999609 1.73713 0
M  V30 2682 O 248.467 0.313867 1.98939 0
M  V30 2683 C 245.532 0.866079 3.35708 0
M  V30 2684 C 244.593 2.02979 3.78283 0
M  V30 2685 C 243.826 1.73184 5.0482 0
M  V30 2686 O 244.049 0.657237 5.66601 0
M  V30 2687 O 242.983 2.58267 5.43674 0
M  V30 2688 H 246.809 2.13474 2.16015 0
M  V30 2689 H 244.394 1.09587 1.01543 0
M  V30 2690 H 246.276 0.706623 4.15433 0
M  V30 2691 H 244.951 -0.0599443 3.23644 0
M  V30 2692 H 243.858 2.24454 2.99285 0
M  V30 2693 H 245.191 2.93734 3.94944 0
M  V30 2694 N 246.843 -1.10192 1.12674 0
M  V30 2695 C 248.071 -1.85983 0.906527 0
M  V30 2696 C 248.486 -1.80783 -0.544333 0
M  V30 2697 O 247.843 -1.19834 -1.37645 0
M  V30 2698 C 247.894 -3.34281 1.37618 0
M  V30 2699 O 247.615 -3.39401 2.77017 0
M  V30 2700 C 249.116 -4.26938 1.19325 0
M  V30 2701 H 246.336 -0.587716 0.323775 0
M  V30 2702 H 248.88 -1.39284 1.49734 0
M  V30 2703 H 247.035 -3.78436 0.828539 0
M  V30 2704 H 247.449 -4.31838 2.97684 0
M  V30 2705 H 248.923 -5.29181 1.57071 0
M  V30 2706 H 249.4 -4.38995 0.134097 0
M  V30 2707 H 250.006 -3.8859 1.72852 0
M  V30 2708 N 248.321 -0.919034 -1.28029 0
M  V30 2709 C 249.598 -0.473668 -1.89778 0
M  V30 2710 C 249.978 1.04783 -1.83259 0
M  V30 2711 O 249.326 1.8982 -1.27202 0
M  V30 2712 C 249.536 -1.00998 -3.34066 0
M  V30 2713 C 250.884 -1.06525 -4.1102 0
M  V30 2714 O 251.908 -0.958996 -3.43048 0
M  V30 2715 O 250.767 -1.22776 -5.3253 0
M  V30 2716 H 247.861 -0.15098 -0.813101 0
M  V30 2717 H 250.407 -1.01016 -1.36359 0
M  V30 2718 H 249.179 -2.05392 -3.33061 0
M  V30 2719 H 248.802 -0.454626 -3.94992 0
M  V30 2720 N 249.799 1.42003 -0.683588 0
M  V30 2721 C 251.21 1.84501 -0.285736 0
M  V30 2722 C 251.561 1.57213 1.17382 0
M  V30 2723 O 250.686 1.03642 1.89966 0
M  V30 2724 C 251.281 3.34912 -0.511821 0
M  V30 2725 C 249.84 3.76025 -0.168005 0
M  V30 2726 C 248.987 2.6551 -0.799983 0
M  V30 2727 H 251.938 1.31724 -0.885119 0
M  V30 2728 H 251.959 3.79784 0.233292 0
M  V30 2729 H 251.471 3.54741 -1.57418 0
M  V30 2730 H 249.572 3.61801 0.890567 0
M  V30 2731 H 249.685 4.75141 -0.614661 0
M  V30 2732 H 248.049 2.53654 -0.230568 0
M  V30 2733 H 248.832 2.8816 -1.86597 0
M  V30 2734 N 251.277 0.427512 1.51691 0
M  V30 2735 C 252.502 -0.143601 2.06902 0
M  V30 2736 C 252.927 -1.36536 1.29382 0
M  V30 2737 O 252.285 -1.78289 0.329043 0
M  V30 2738 C 252.333 -0.454207 3.57728 0
M  V30 2739 O 251.437 -1.54228 3.82475 0
M  V30 2740 H 250.778 -0.00617128 0.663971 0
M  V30 2741 H 253.308 0.606014 1.95419 0
M  V30 2742 H 253.318 -0.707525 4.01818 0
M  V30 2743 H 251.993 0.438812 4.13579 0
M  V30 2744 H 250.57 -1.2797 3.50254 0
M  V30 2745 N 252.755 -1.56801 0.158532 0
M  V30 2746 C 254.166 -1.83189 -0.360366 0
M  V30 2747 C 254.517 -1.07778 -1.63946 0
M  V30 2748 O 253.642 -0.326718 -2.13919 0
M  V30 2749 C 254.237 -3.32297 -0.660595 0
M  V30 2750 C 252.796 -3.59227 -1.12398 0
M  V30 2751 C 251.943 -2.76877 -0.153097 0
M  V30 2752 H 254.894 -1.54008 0.383031 0
M  V30 2753 H 254.915 -3.4908 -1.51405 0
M  V30 2754 H 254.427 -3.87156 0.270527 0
M  V30 2755 H 252.528 -3.09766 -2.07064 0
M  V30 2756 H 252.641 -4.67632 -1.04197 0
M  V30 2757 H 251.005 -2.46319 -0.647983 0
M  V30 2758 H 251.788 -3.34511 0.77182 0
M  V30 2759 N 254.233 0.115231 -1.57178 0
M  V30 2760 C 255.463 0.835224 -1.88964 0
M  V30 2761 C 255.871 1.73774 -0.74829 0
M  V30 2762 O 255.214 1.81401 0.289739 0
M  V30 2763 C 255.276 1.7178 -3.15804 0
M  V30 2764 C 254.94 0.989198 -4.46166 0
M  V30 2765 C 255.937 0.328263 -5.18863 0
M  V30 2766 C 253.622 0.969256 -4.9286 0
M  V30 2767 C 255.616 -0.342873 -6.36477 0
M  V30 2768 C 253.303 0.294324 -6.10391 0
M  V30 2769 C 254.301 -0.360582 -6.82048 0
M  V30 2770 O 253.989 -1.02474 -7.97342 0
M  V30 2771 H 253.721 0.245197 -0.629964 0
M  V30 2772 H 256.275 0.10303 -2.05141 0
M  V30 2773 H 254.505 2.49173 -2.95719 0
M  V30 2774 H 256.194 2.31255 -3.33581 0
M  V30 2775 H 256.96 0.335263 -4.8384 0
M  V30 2776 H 252.839 1.46844 -4.36987 0
M  V30 2777 H 256.383 -0.854629 -6.92345 0
M  V30 2778 H 252.28 0.285099 -6.4487 0
M  V30 2779 H 253.048 -0.929594 -8.13204 0
M  V30 2780 N 255.711 1.52812 0.385517 0
M  V30 2781 C 256.951 1.69716 1.13911 0
M  V30 2782 C 257.315 0.42962 1.87132 0
M  V30 2783 O 258.516 0.475071 2.64569 0
M  V30 2784 C 256.787 2.90021 2.0886 0
M  V30 2785 S 258.346 3.27531 2.92009 0
M  V30 2786 H 255.164 0.59739 0.385547 0
M  V30 2787 H 257.766 1.90868 0.423061 0
M  V30 2788 H 256.47 3.80493 1.53797 0
M  V30 2789 H 256.001 2.71213 2.84969 0
M  V30 2790 H 258.016 2.77989 4.11019 0
M  V30 2791 N 257.189 -0.644168 1.43834 0
M  V30 2792 C 258.438 -1.39985 1.45214 0
M  V30 2793 C 258.751 -1.95421 0.0835494 0
M  V30 2794 O 259.957 -2.71488 -0.0251748 0
M  V30 2795 C 258.413 -2.53384 2.55587 0
M  V30 2796 C 258.021 -2.04517 3.98594 0
M  V30 2797 C 259.765 -3.30685 2.66172 0
M  V30 2798 C 257.672 -3.1518 5.00416 0
M  V30 2799 H 256.602 -0.526005 0.540218 0
M  V30 2800 H 259.253 -0.694367 1.69855 0
M  V30 2801 H 257.635 -3.26446 2.24163 0
M  V30 2802 H 258.809 -1.38405 4.39523 0
M  V30 2803 H 257.124 -1.40068 3.92135 0
M  V30 2804 H 259.721 -4.13158 3.39418 0
M  V30 2805 H 260.064 -3.79312 1.71546 0
M  V30 2806 H 260.597 -2.64708 2.96942 0
M  V30 2807 H 257.336 -2.71511 5.96625 0
M  V30 2808 H 256.856 -3.79974 4.64091 0
M  V30 2809 H 258.535 -3.80166 5.23529 0
M  V30 2810 N 258.668 -1.30515 -0.883378 0
M  V30 2811 C 259.914 -1.19607 -1.63774 0
M  V30 2812 C 260.247 0.248314 -1.92606 0
M  V30 2813 O 259.522 1.17742 -1.54813 0
M  V30 2814 C 259.805 -2.02669 -2.97653 0
M  V30 2815 C 259.658 -3.55335 -2.75784 0
M  V30 2816 C 260.977 -1.86573 -3.98596 0
M  V30 2817 H 258.096 -0.435856 -0.594305 0
M  V30 2818 H 260.738 -1.60165 -1.02212 0
M  V30 2819 H 258.888 -1.68208 -3.50197 0
M  V30 2820 H 260.56 -3.99863 -2.30016 0
M  V30 2821 H 258.803 -3.79438 -2.1026 0
M  V30 2822 H 259.474 -4.08745 -3.70988 0
M  V30 2823 H 261.95 -2.16703 -3.55217 0
M  V30 2824 H 260.826 -2.47014 -4.90179 0
M  V30 2825 H 261.087 -0.825321 -4.34328 0
M  V30 2826 N 260.146 1.09593 -1.13257 0
M  V30 2827 C 261.109 2.14359 -0.811358 0
M  V30 2828 C 262.109 1.59808 0.178377 0
M  V30 2829 O 263.299 1.74132 -0.0484911 0
M  V30 2830 C 260.431 3.40269 -0.207276 0
M  V30 2831 H 261.624 2.44284 -1.73969 0
M  V30 2832 H 259.177 1.25102 -0.936973 0
M  V30 2833 H 259.912 3.15969 0.73036 0
M  V30 2834 H 259.697 3.81154 -0.919992 0
M  V30 2835 H 261.187 4.176 0.000667944 0
M  V30 2836 N 261.624 0.925811 1.2754 0
M  V30 2837 C 263.035 0.610102 1.7645 0
M  V30 2838 C 263.386 -0.874723 1.75622 0
M  V30 2839 O 262.511 -1.68444 1.35851 0
M  V30 2840 C 263.106 1.10073 3.20421 0
M  V30 2841 C 261.665 0.835723 3.67005 0
M  V30 2842 C 260.812 1.26054 2.46993 0
M  V30 2843 H 263.763 1.10579 1.13833 0
M  V30 2844 H 263.784 0.447557 3.77859 0
M  V30 2845 H 263.296 2.18143 3.20991 0
M  V30 2846 H 261.397 -0.231249 3.71882 0
M  V30 2847 H 261.51 1.45193 4.56569 0
M  V30 2848 H 259.874 0.679111 2.45479 0
M  V30 2849 H 260.657 2.34984 2.50275 0
M  V30 2850 N 263.102 -1.41638 0.69111 0
M  V30 2851 C 264.379 -1.95036 0.148421 0
M  V30 2852 C 264.759 -1.63072 -1.34055 0
M  V30 2853 O 264.107 -0.93538 -2.08478 0
M  V30 2854 C 264.317 -3.46279 0.434951 0
M  V30 2855 C 265.665 -4.23069 0.360275 0
M  V30 2856 O 266.689 -3.54277 0.369613 0
M  V30 2857 O 265.548 -5.45583 0.316534 0
M  V30 2858 H 262.642 -0.826908 0.0123654 0
M  V30 2859 H 265.188 -1.5138 0.766963 0
M  V30 2860 H 263.96 -3.6281 1.46576 0
M  V30 2861 H 263.583 -3.97019 -0.214787 0
M  V30 2862 N 264.58 -0.43555 -1.51462 0
M  V30 2863 C 265.808 0.130242 -2.0649 0
M  V30 2864 C 266.223 1.36614 -1.30315 0
M  V30 2865 O 265.58 1.78869 -0.362223 0
M  V30 2866 C 265.631 0.454253 -3.58635 0
M  V30 2867 O 265.352 -0.73259 -4.31931 0
M  V30 2868 C 266.853 1.07091 -4.3017 0
M  V30 2869 H 264.073 0.00871669 -0.670943 0
M  V30 2870 H 266.617 -0.614117 -1.95061 0
M  V30 2871 H 264.772 1.14851 -3.69984 0
M  V30 2872 H 265.186 -0.455787 -5.22516 0
M  V30 2873 H 266.66 1.24764 -5.37716 0
M  V30 2874 H 267.137 2.05144 -3.88346 0
M  V30 2875 H 267.743 0.416089 -4.2326 0
M  V30 2876 N 266.058 1.56714 -0.166846 0
M  V30 2877 C 267.304 1.97039 0.479962 0
M  V30 2878 C 267.637 1.05264 1.63197 0
M  V30 2879 O 266.912 0.0988833 1.94248 0
M  V30 2880 C 267.195 3.46867 0.967212 0
M  V30 2881 C 267.048 4.49421 -0.18466 0
M  V30 2882 C 268.367 3.9968 1.84238 0
M  V30 2883 H 265.486 0.71641 0.172992 0
M  V30 2884 H 268.128 1.8832 -0.252079 0
M  V30 2885 H 266.278 3.54428 1.59101 0
M  V30 2886 H 267.95 4.53924 -0.821621 0
M  V30 2887 H 266.193 4.25573 -0.840837 0
M  V30 2888 H 266.864 5.51644 0.198317 0
M  V30 2889 H 269.34 3.94723 1.31655 0
M  V30 2890 H 268.216 5.04941 2.15234 0
M  V30 2891 H 268.477 3.43226 2.78654 0
M  V30 2892 N 267.536 -0.106894 1.57237 0
M  V30 2893 C 268.785 -0.811163 1.8467 0
M  V30 2894 C 269.098 -1.80469 0.754342 0
M  V30 2895 O 270.304 -2.55601 0.915439 0
M  V30 2896 C 268.76 -1.49337 3.27454 0
M  V30 2897 C 268.368 -0.540217 4.44731 0
M  V30 2898 C 270.112 -2.18206 3.64124 0
M  V30 2899 C 268.019 -1.22634 5.78545 0
M  V30 2900 H 266.949 -0.306679 0.688813 0
M  V30 2901 H 269.6 -0.0639887 1.83388 0
M  V30 2902 H 267.982 -2.2876 3.23241 0
M  V30 2903 H 269.156 0.221659 4.60267 0
M  V30 2904 H 267.471 0.042146 4.16379 0
M  V30 2905 H 270.068 -2.70253 4.61376 0
M  V30 2906 H 270.411 -2.96562 2.92158 0
M  V30 2907 H 270.944 -1.45658 3.70174 0
M  V30 2908 H 267.683 -0.483832 6.53712 0
M  V30 2909 H 267.203 -1.95993 5.66874 0
M  V30 2910 H 268.882 -1.75615 6.2271 0
M  V30 2911 N 269.014 -1.53014 -0.377408 0
M  V30 2912 C 269.964 -1.74996 -1.46152 0
M  V30 2913 C 270.948 -0.604236 -1.49123 0
M  V30 2914 O 272.14 -0.862489 -1.54564 0
M  V30 2915 C 269.269 -1.93267 -2.8373 0
M  V30 2916 C 268.355 -3.13807 -2.85283 0
M  V30 2917 N 268.746 -4.35941 -2.56493 0
M  V30 2918 C 267.044 -3.14288 -3.16448 0
M  V30 2919 C 267.745 -5.17615 -2.65424 0
M  V30 2920 N 266.721 -4.53559 -2.99641 0
M  V30 2921 H 270.523 -2.67044 -1.22738 0
M  V30 2922 H 268.037 -1.51479 -0.585479 0
M  V30 2923 H 270.034 -2.0714 -3.61799 0
M  V30 2924 H 268.694 -1.0244 -3.08117 0
M  V30 2925 H 269.705 -4.63876 -2.30302 0
M  V30 2926 H 266.382 -2.33312 -3.46225 0
M  V30 2927 H 267.772 -6.25006 -2.46612 0
M  V30 2928 N 270.492 0.636531 -1.44174 0
M  V30 2929 C 271.732 1.40781 -1.48189 0
M  V30 2930 C 272.096 1.91688 -0.10944 0
M  V30 2931 O 273.297 2.68789 -0.0242741 0
M  V30 2932 C 271.568 2.54575 -2.50851 0
M  V30 2933 S 273.127 3.4284 -2.73873 0
M  V30 2934 H 269.945 0.480345 -0.524204 0
M  V30 2935 H 272.547 0.737416 -1.81059 0
M  V30 2936 H 271.251 2.15478 -3.49281 0
M  V30 2937 H 270.782 3.26447 -2.19536 0
M  V30 2938 H 272.797 4.51846 -2.05059 0
M  V30 2939 N 271.97 1.30982 0.876444 0
M  V30 2940 C 272.88 1.2003 2.01569 0
M  V30 2941 C 273.896 0.11838 1.73597 0
M  V30 2942 O 275.072 0.33495 1.98595 0
M  V30 2943 C 272.137 0.901637 3.34771 0
M  V30 2944 C 271.198 2.06979 3.76109 0
M  V30 2945 C 270.431 1.78529 5.02954 0
M  V30 2946 O 270.654 0.717296 5.65872 0
M  V30 2947 O 269.588 2.64019 5.40905 0
M  V30 2948 H 273.414 2.15753 2.13739 0
M  V30 2949 H 270.999 1.10658 1.00375 0
M  V30 2950 H 272.881 0.750645 4.1466 0
M  V30 2951 H 271.556 -0.0256141 3.2369 0
M  V30 2952 H 270.463 2.27616 2.96887 0
M  V30 2953 H 271.796 2.97907 3.91807 0
M  V30 2954 N 273.449 -1.08991 1.13837 0
M  V30 2955 C 274.697 -1.80899 0.901098 0
M  V30 2956 C 275.018 -1.86356 -0.574134 0
M  V30 2957 O 274.288 -1.35235 -1.41733 0
M  V30 2958 H 272.868 -0.669966 0.330386 0
M  V30 2959 H 275.53 -1.318 1.43578 0
M  V30 2960 H 274.626 -2.83929 1.29578 0
M  V30 2961 N 274.927 -0.932562 -1.27047 0
M  V30 2962 C 275.837 -0.441219 -2.30414 0
M  V30 2963 C 276.853 0.480525 -1.67233 0
M  V30 2964 O 278.029 0.362151 -1.98117 0
M  V30 2965 C 275.094 0.293651 -3.45454 0
M  V30 2966 C 274.155 -0.663601 -4.2414 0
M  V30 2967 C 273.388 0.0362932 -5.33688 0
M  V30 2968 O 273.611 1.2548 -5.56427 0
M  V30 2969 O 272.545 -0.638015 -5.98509 0
M  V30 2970 H 276.371 -1.29962 -2.74488 0
M  V30 2971 H 273.956 -0.6981 -1.32087 0
M  V30 2972 H 275.838 0.707951 -4.15411 0
M  V30 2973 H 274.513 1.12758 -3.03426 0
M  V30 2974 H 273.42 -1.12768 -3.56699 0
M  V30 2975 H 274.753 -1.46489 -4.69896 0
M  V30 2976 N 276.405 1.4127 -0.698611 0
M  V30 2977 C 277.816 1.84187 -0.305289 0
M  V30 2978 C 278.167 1.58449 1.15708 0
M  V30 2979 O 277.292 1.05651 1.88856 0
M  V30 2980 C 277.887 3.3435 -0.547314 0
M  V30 2981 C 276.446 3.75826 -0.207878 0
M  V30 2982 C 275.593 2.64647 -0.828099 0
M  V30 2983 H 278.544 1.30778 -0.89904 0
M  V30 2984 H 278.565 3.8001 0.192998 0
M  V30 2985 H 278.077 3.53051 -1.61172 0
M  V30 2986 H 276.178 3.62725 0.852143 0
M  V30 2987 H 276.291 4.74462 -0.665021 0
M  V30 2988 H 274.655 2.53395 -0.257458 0
M  V30 2989 H 275.438 2.86165 -1.89643 0
M  V30 2990 N 277.883 0.443576 1.51229 0
M  V30 2991 C 279.132 -0.122332 2.01329 0
M  V30 2992 C 279.445 -1.43237 1.33201 0
M  V30 2993 O 280.651 -2.0816 1.74304 0
M  V30 2994 C 279.107 -0.268551 3.58897 0
M  V30 2995 C 278.715 1.03142 4.35965 0
M  V30 2996 C 280.459 -0.787894 4.17124 0
M  V30 2997 C 278.366 0.850504 5.85252 0
M  V30 2998 H 277.296 -0.0494929 0.752374 0
M  V30 2999 H 279.947 0.574289 1.74282 0
M  V30 3000 H 278.329 -1.02832 3.82415 0
M  V30 3001 H 279.503 1.80001 4.24189 0
M  V30 3002 H 277.818 1.47977 3.89219 0
M  V30 3003 H 280.415 -0.939841 5.26375 0
M  V30 3004 H 280.758 -1.77201 3.76703 0
M  V30 3005 H 281.291 -0.0862669 3.97706 0
M  V30 3006 H 278.03 1.80718 6.30096 0
M  V30 3007 H 277.55 0.121825 5.99676 0
M  V30 3008 H 279.229 0.506163 6.45017 0
M  V30 3009 N 279.361 -1.56624 0.175154 0
M  V30 3010 C 280.308 -2.18149 -0.753634 0
M  V30 3011 C 281.278 -1.12265 -1.22417 0
M  V30 3012 O 282.463 -1.40432 -1.29165 0
M  V30 3013 C 279.603 -2.82933 -1.97592 0
M  V30 3014 C 278.716 -4.03289 -1.5486 0
M  V30 3015 C 277.851 -4.55988 -2.72485 0
M  V30 3016 C 276.89 -5.68746 -2.26262 0
M  V30 3017 N 276.027 -6.15938 -3.36994 0
M  V30 3018 H 280.867 -2.9717 -0.222195 0
M  V30 3019 H 278.404 -1.46774 -0.0979422 0
M  V30 3020 H 280.362 -3.18653 -2.69288 0
M  V30 3021 H 278.992 -2.06509 -2.481 0
M  V30 3022 H 278.044 -3.73364 -0.728246 0
M  V30 3023 H 279.356 -4.849 -1.16933 0
M  V30 3024 H 278.51 -4.9391 -3.52332 0
M  V30 3025 H 277.249 -3.73443 -3.13674 0
M  V30 3026 H 276.254 -5.30372 -1.44863 0
M  V30 3027 H 277.479 -6.53095 -1.86127 0
M  V30 3028 H 275.425 -5.36321 -3.77751 0
M  V30 3029 H 275.342 -6.92548 -3.03172 0
M  V30 3030 H 276.61 -6.58511 -4.17114 0
M  V30 3031 N 280.839 0.0985539 -1.57292 0
M  V30 3032 C 282.255 0.45267 -1.53046 0
M  V30 3033 C 282.455 1.80713 -0.891342 0
M  V30 3034 O 281.511 2.4785 -0.482375 0
M  V30 3035 C 282.824 0.418341 -2.97776 0
M  V30 3036 C 284.372 0.500443 -3.08973 0
M  V30 3037 C 284.847 0.496297 -4.55303 0
M  V30 3038 N 286.338 0.557151 -4.59837 0
M  V30 3039 C 287.073 0.575726 -5.70502 0
M  V30 3040 N 286.569 0.550714 -6.90608 0
M  V30 3041 N 288.362 0.620277 -5.58667 0
M  V30 3042 H 280.513 -0.788673 -1.97215 0
M  V30 3043 H 282.776 -0.293188 -0.901524 0
M  V30 3044 H 282.482 -0.509659 -3.47988 0
M  V30 3045 H 282.356 1.2386 -3.56284 0
M  V30 3046 H 284.743 1.41886 -2.58751 0
M  V30 3047 H 284.824 -0.347894 -2.53423 0
M  V30 3048 H 284.468 -0.418162 -5.06176 0
M  V30 3049 H 284.398 1.3618 -5.08687 0
M  V30 3050 H 286.889 0.581816 -3.73394 0
M  V30 3051 H 287.202 0.568075 -7.70709 0
M  V30 3052 H 285.547 0.517816 -6.93068 0
M  V30 3053 H 288.738 0.637322 -4.63741 0
M  V30 3054 H 288.911 0.631283 -6.44918 0
M  V30 3055 N 282.317 1.53212 0.369288 0
M  V30 3056 C 283.227 1.82342 1.47609 0
M  V30 3057 C 284.243 0.711532 1.58787 0
M  V30 3058 O 285.419 1.0012 1.74751 0
M  V30 3059 C 282.484 2.00393 2.8292 0
M  V30 3060 C 281.545 3.24297 2.81301 0
M  V30 3061 C 280.778 3.41478 4.10157 0
M  V30 3062 O 281.001 2.63033 5.06132 0
M  V30 3063 O 279.935 4.34817 4.16194 0
M  V30 3064 H 283.761 2.76366 1.25918 0
M  V30 3065 H 281.346 1.38547 0.559034 0
M  V30 3066 H 283.228 2.13859 3.63101 0
M  V30 3067 H 281.903 1.09559 3.04596 0
M  V30 3068 H 280.81 3.16257 1.99831 0
M  V30 3069 H 282.143 4.15041 2.64578 0
M  V30 3070 N 283.795 -0.628877 1.44509 0
M  V30 3071 C 285.072 -1.38733 1.37886 0
M  V30 3072 C 285.452 -2.11065 0.0387008 0
M  V30 3073 O 284.8 -2.06476 -0.97878 0
M  V30 3074 C 285.01 -2.35188 2.57852 0
M  V30 3075 C 286.358 -2.9845 3.02014 0
M  V30 3076 O 287.382 -2.45513 2.58073 0
M  V30 3077 O 286.241 -3.94487 3.78209 0
M  V30 3078 H 283.335 -0.621015 0.54614 0
M  V30 3079 H 285.881 -0.653744 1.56602 0
M  V30 3080 H 284.653 -1.80855 3.46998 0
M  V30 3081 H 284.276 -3.1596 2.4136 0
M  V30 3082 N 285.273 -1.31445 -0.869486 0
M  V30 3083 C 286.183 -1.21097 -2.0093 0
M  V30 3084 C 287.199 -0.127584 -1.73532 0
M  V30 3085 O 288.375 -0.345477 -1.98415 0
M  V30 3086 C 285.44 -0.919378 -3.34288 0
M  V30 3087 C 284.501 -2.08971 -3.75006 0
M  V30 3088 C 283.734 -1.81194 -5.02001 0
M  V30 3089 O 283.957 -0.747296 -5.65484 0
M  V30 3090 O 282.891 -2.66883 -5.39497 0
M  V30 3091 H 286.717 -2.16883 -2.12592 0
M  V30 3092 H 284.302 -1.11189 -0.997868 0
M  V30 3093 H 286.184 -0.772625 -4.14257 0
M  V30 3094 H 284.859 0.00844772 -3.23699 0
M  V30 3095 H 283.766 -2.29187 -2.95676 0
M  V30 3096 H 285.099 -2.9998 -3.90221 0
M  V30 3097 N 286.751 1.08385 -1.14413 0
M  V30 3098 C 287.661 2.18856 -0.844951 0
M  V30 3099 C 288.677 1.73121 0.174668 0
M  V30 3100 O 289.853 2.014 0.00312857 0
M  V30 3101 C 286.918 3.45155 -0.32696 0
M  V30 3102 C 285.979 4.05513 -1.40916 0
M  V30 3103 C 285.212 5.25784 -0.915793 0
M  V30 3104 O 285.435 5.69884 0.242651 0
M  V30 3105 O 284.369 5.77545 -1.69487 0
M  V30 3106 H 288.195 2.46919 -1.76818 0
M  V30 3107 H 285.78 1.17524 -0.922411 0
M  V30 3108 H 287.662 4.21377 -0.0440211 0
M  V30 3109 H 286.337 3.18668 0.568539 0
M  V30 3110 H 285.244 3.30879 -1.74556 0
M  V30 3111 H 286.577 4.3625 -2.27919 0
M  V30 3112 N 288.23 0.939286 1.26551 0
M  V30 3113 C 289.14 0.453432 2.30176 0
M  V30 3114 C 290.156 -0.471649 1.67486 0
M  V30 3115 O 291.332 -0.35164 1.98306 0
M  V30 3116 C 288.397 -0.275326 3.45605 0
M  V30 3117 C 287.458 0.686084 4.23782 0
M  V30 3118 C 286.691 -0.00798994 5.33699 0
M  V30 3119 O 286.914 -1.22528 5.57085 0
M  V30 3120 O 285.848 0.669746 5.98162 0
M  V30 3121 H 289.674 1.31416 2.73795 0
M  V30 3122 H 287.259 0.705095 1.31715 0
M  V30 3123 H 289.141 -0.685911 4.1578 0
M  V30 3124 H 287.816 -1.11147 3.0402 0
M  V30 3125 H 286.723 1.14658 3.56096 0
M  V30 3126 H 288.056 1.48979 4.69112 0
M  V30 3127 N 289.708 -1.40897 0.706093 0
M  V30 3128 C 290.933 -2.05895 0.249435 0
M  V30 3129 C 291.358 -1.52823 -1.09666 0
M  V30 3130 O 290.716 -0.659589 -1.68876 0
M  V30 3131 C 290.764 -3.59872 0.22904 0
M  V30 3132 O 289.868 -4.04708 -0.792784 0
M  V30 3133 H 289.209 -0.653206 0.119241 0
M  V30 3134 H 291.739 -1.80471 0.96391 0
M  V30 3135 H 291.749 -4.07951 0.0634791 0
M  V30 3136 H 290.424 -3.97866 1.21141 0
M  V30 3137 H 289.001 -3.68111 -0.59572 0
M  V30 3138 N 291.186 -0.45159 -1.50991 0
M  V30 3139 C 292.116 0.342898 -2.30969 0
M  V30 3140 C 293.097 1.00815 -1.37005 0
M  V30 3141 O 294.282 1.00907 -1.65926 0
M  V30 3142 C 291.412 1.43637 -3.16205 0
M  V30 3143 C 290.366 0.893818 -4.18563 0
M  V30 3144 C 289.692 2.08411 -4.92411 0
M  V30 3145 C 290.992 -0.0815568 -5.22236 0
M  V30 3146 H 292.686 -0.324556 -2.97636 0
M  V30 3147 H 290.232 -0.157531 -1.43136 0
M  V30 3148 H 292.185 1.9995 -3.70942 0
M  V30 3149 H 290.909 2.13232 -2.47386 0
M  V30 3150 H 289.568 0.352798 -3.64898 0
M  V30 3151 H 289.216 2.76658 -4.20082 0
M  V30 3152 H 288.916 1.72741 -5.61636 0
M  V30 3153 H 290.44 2.65251 -5.49976 0
M  V30 3154 H 291.854 0.391742 -5.7196 0
M  V30 3155 H 290.251 -0.351551 -5.99069 0
M  V30 3156 H 291.321 -1.01374 -4.74185 0
M  V30 3157 N 292.664 1.56529 -0.183458 0
M  V30 3158 C 293.612 2.19873 0.758845 0
M  V30 3159 C 294.606 1.16638 1.22849 0
M  V30 3160 O 295.812 1.3481 1.19274 0
M  V30 3161 H 292.187 0.7045 0.263029 0
M  V30 3162 H 294.158 2.97724 0.200755 0
M  V30 3163 C 292.907 2.86314 1.9728 0
M  V30 3164 H 292.23 3.65487 1.62047 0
M  V30 3165 H 293.67 3.3409 2.61075 0
M  V30 3166 C 292.129 1.86729 2.80418 0
M  V30 3167 O 292.659 1.36031 3.77966 0
M  V30 3168 N 290.865 1.55216 2.45675 0
M  V30 3169 H 290.412 1.96636 1.66409 0
M  V30 3170 H 290.37 0.888388 3.01588 0
M  V30 3171 N 294.142 -0.090211 1.57342 0
M  V30 3172 C 295.052 -1.12735 2.05738 0
M  V30 3173 C 296.068 -1.43557 0.983231 0
M  V30 3174 O 297.244 -1.54101 1.29672 0
M  V30 3175 C 294.309 -2.42659 2.47624 0
M  V30 3176 C 293.37 -2.18975 3.69254 0
M  V30 3177 C 292.603 -3.42704 4.09133 0
M  V30 3178 O 292.826 -4.51127 3.49057 0
M  V30 3179 O 291.76 -3.32003 5.02053 0
M  V30 3180 H 295.586 -0.746279 2.94388 0
M  V30 3181 H 293.171 -0.303064 1.46294 0
M  V30 3182 H 295.053 -3.19155 2.7517 0
M  V30 3183 H 293.728 -2.80182 1.62109 0
M  V30 3184 H 292.635 -1.40244 3.46818 0
M  V30 3185 H 293.968 -1.86342 4.55563 0
M  V30 3186 N 295.62 -1.53406 -0.361157 0
M  V30 3187 C 296.866 -1.70054 -1.10496 0
M  V30 3188 C 297.199 -0.453278 -1.88836 0
M  V30 3189 O 296.474 0.5495 -1.86576 0
M  V30 3190 C 296.757 -2.95317 -2.06058 0
M  V30 3191 C 296.61 -4.3021 -1.31298 0
M  V30 3192 C 297.929 -3.16193 -3.06121 0
M  V30 3193 H 295.048 -0.618799 -0.400321 0
M  V30 3194 H 297.69 -1.86052 -0.385318 0
M  V30 3195 H 295.84 -2.81809 -2.67425 0
M  V30 3196 H 297.512 -4.55538 -0.726807 0
M  V30 3197 H 295.755 -4.29421 -0.614853 0
M  V30 3198 H 296.426 -5.14 -2.01265 0
M  V30 3199 H 298.902 -3.28916 -2.5486 0
M  V30 3200 H 297.778 -4.05266 -3.70204 0
M  V30 3201 H 298.039 -2.31676 -3.76535 0
M  V30 3202 N 297.098 0.621204 -1.44841 0
M  V30 3203 C 298.346 1.37783 -1.47852 0
M  V30 3204 C 298.667 1.94653 -0.116224 0
M  V30 3205 O 297.937 1.76367 0.852737 0
M  V30 3206 H 296.517 0.511453 -0.544449 0
M  V30 3207 H 299.179 0.730446 -1.80694 0
M  V30 3208 H 298.275 2.20414 -2.20961 0
M  V30 3209 N 298.576 1.31904 0.862503 0
M  V30 3210 C 299.806 1.24817 1.64634 0
M  V30 3211 C 300.214 -0.187579 1.88268 0
M  V30 3212 O 299.557 -1.13253 1.44635 0
M  V30 3213 C 299.619 1.92996 3.03303 0
M  V30 3214 C 299.283 3.42336 3.02746 0
M  V30 3215 C 300.28 4.37956 2.80162 0
M  V30 3216 C 297.965 3.84147 3.2363 0
M  V30 3217 C 299.959 5.73361 2.78453 0
M  V30 3218 C 297.646 5.19663 3.21549 0
M  V30 3219 C 298.644 6.14081 2.98988 0
M  V30 3220 O 298.332 7.47118 2.96766 0
M  V30 3221 H 298.064 0.432222 0.519769 0
M  V30 3222 H 300.618 1.7445 1.08427 0
M  V30 3223 H 298.848 1.37922 3.61268 0
M  V30 3224 H 300.537 1.79723 3.63943 0
M  V30 3225 H 301.303 4.06981 2.63802 0
M  V30 3226 H 297.182 3.11083 3.40218 0
M  V30 3227 H 300.726 6.4703 2.60763 0
M  V30 3228 H 296.623 5.5027 3.37451 0
M  V30 3229 H 297.391 7.56382 3.12775 0
M  V30 3230 N 300.054 -1.07777 1.14986 0
M  V30 3231 C 301.331 -1.7699 0.832695 0
M  V30 3232 C 301.711 -2.001 -0.672561 0
M  V30 3233 O 301.059 -1.61598 -1.6155 0
M  V30 3234 C 301.269 -3.08139 1.63863 0
M  V30 3235 C 302.617 -3.8256 1.84208 0
M  V30 3236 O 303.641 -3.17939 1.60603 0
M  V30 3237 O 302.5 -4.98612 2.23714 0
M  V30 3238 H 299.594 -0.768389 0.305791 0
M  V30 3239 H 302.14 -1.14182 1.25541 0
M  V30 3240 H 300.912 -2.86909 2.6608 0
M  V30 3241 H 300.535 -3.78678 1.21197 0
M  V30 3242 N 301.532 -0.945985 -1.26051 0
M  V30 3243 C 302.809 -0.513816 -1.88731 0
M  V30 3244 C 303.189 1.00872 -1.8544 0
M  V30 3245 O 302.537 1.8708 -1.312 0
M  V30 3246 C 302.747 -1.08062 -3.31849 0
M  V30 3247 C 304.095 -1.1522 -4.08668 0
M  V30 3248 O 305.119 -1.03155 -3.40936 0
M  V30 3249 O 303.978 -1.34044 -5.29806 0
M  V30 3250 H 301.072 -0.168193 -0.809716 0
M  V30 3251 H 303.618 -1.03886 -1.34186 0
M  V30 3252 H 302.39 -2.1241 -3.2863 0
M  V30 3253 H 302.013 -0.538307 -3.93939 0
M  V30 3254 N 303.011 1.40521 -0.713556 0
M  V30 3255 C 304.26 2.00155 -0.249192 0
M  V30 3256 C 304.573 1.57224 1.16362 0
M  V30 3257 O 305.779 2.09542 1.72639 0
M  V30 3258 C 304.235 3.5773 -0.3946 0
M  V30 3259 C 303.843 4.09635 -1.81392 0
M  V30 3260 C 305.587 4.24499 0.00907364 0
M  V30 3261 C 303.494 5.59707 -1.91003 0
M  V30 3262 H 302.424 0.74868 -0.0894114 0
M  V30 3263 H 305.075 1.60784 -0.884352 0
M  V30 3264 H 303.457 3.94792 0.30911 0
M  V30 3265 H 304.631 3.83955 -2.54785 0
M  V30 3266 H 302.946 3.55456 -2.16888 0
M  V30 3267 H 305.543 5.34683 -0.0420404 0
M  V30 3268 H 305.886 4.02824 1.05065 0
M  V30 3269 H 306.419 3.92536 -0.645007 0
M  V30 3270 H 303.158 5.86234 -2.93275 0
M  V30 3271 H 302.678 5.87258 -1.22019 0
M  V30 3272 H 304.357 6.24776 -1.6812 0
M  V30 3273 N 304.489 0.459591 1.5075 0
M  V30 3274 C 305.737 -0.0991532 2.01857 0
M  V30 3275 C 306.058 -1.41247 1.34441 0
M  V30 3276 O 305.328 -1.89775 0.486022 0
M  V30 3277 H 303.908 -0.039633 0.745948 0
M  V30 3278 H 306.57 0.607387 1.85194 0
M  V30 3279 H 305.666 -0.258998 3.11023 0
M  V30 3280 N 305.967 -1.56429 0.191757 0
M  V30 3281 C 307.215 -1.97095 -0.447006 0
M  V30 3282 C 307.536 -1.07967 -1.62383 0
M  V30 3283 O 306.806 -0.150248 -1.95323 0
M  V30 3284 H 305.386 -0.727832 -0.168135 0
M  V30 3285 H 308.048 -1.92911 0.27771 0
M  V30 3286 H 307.144 -3.01848 -0.793371 0
M  V30 3287 N 307.445 0.0818655 -1.57387 0
M  V30 3288 C 308.685 0.788375 -1.88584 0
M  V30 3289 C 309.049 1.75248 -0.784351 0
M  V30 3290 O 310.25 2.50334 -0.979105 0
M  V30 3291 C 308.521 1.48654 -3.25018 0
M  V30 3292 S 310.08 2.22951 -3.7794 0
M  V30 3293 H 306.898 0.262383 -0.660815 0
M  V30 3294 H 309.5 0.0448995 -1.95448 0
M  V30 3295 H 308.204 0.770919 -4.03094 0
M  V30 3296 H 307.735 2.26965 -3.21326 0
M  V30 3297 H 309.75 3.49309 -3.52417 0
M  V30 3298 N 308.923 1.53595 0.353017 0
M  V30 3299 C 310.339 1.43648 0.695516 0
M  V30 3300 C 310.539 0.585617 1.92802 0
M  V30 3301 O 309.595 0.0729223 2.52395 0
M  V30 3302 C 310.908 2.8701 0.896991 0
M  V30 3303 C 312.456 2.96723 0.996209 0
M  V30 3304 C 312.931 4.41173 1.23007 0
M  V30 3305 N 314.422 4.44657 1.29749 0
M  V30 3306 C 315.157 5.53547 1.49577 0
M  V30 3307 N 314.653 6.72461 1.66639 0
M  V30 3308 N 316.446 5.41145 1.52048 0
M  V30 3309 H 308.597 2.07415 -0.457481 0
M  V30 3310 H 310.86 0.9372 -0.142687 0
M  V30 3311 H 310.566 3.51644 0.0629938 0
M  V30 3312 H 310.44 3.31401 1.80148 0
M  V30 3313 H 312.827 2.32235 1.82074 0
M  V30 3314 H 312.908 2.55707 0.0688331 0
M  V30 3315 H 312.552 5.06238 0.410505 0
M  V30 3316 H 312.482 4.79772 2.17086 0
M  V30 3317 H 314.973 3.58963 1.18126 0
M  V30 3318 H 315.286 7.51214 1.81378 0
M  V30 3319 H 313.631 6.75423 1.63794 0
M  V30 3320 H 316.822 4.47205 1.38294 0
M  V30 3321 H 316.995 6.26068 1.67159 0
M  V30 3322 N 310.401 -0.613514 1.45168 0
M  V30 3323 C 311.348 -1.72456 1.53387 0
M  V30 3324 C 312.318 -1.6169 0.380191 0
M  V30 3325 O 313.503 -1.81356 0.592836 0
M  V30 3326 C 310.643 -3.10753 1.50088 0
M  V30 3327 C 309.756 -3.32368 2.75963 0
M  V30 3328 C 308.891 -4.60737 2.64376 0
M  V30 3329 C 307.93 -4.7559 3.85332 0
M  V30 3330 N 307.067 -5.95253 3.72315 0
M  V30 3331 H 311.907 -1.64768 2.48305 0
M  V30 3332 H 309.444 -0.803503 1.23216 0
M  V30 3333 H 311.402 -3.90758 1.46164 0
M  V30 3334 H 310.032 -3.17413 0.587243 0
M  V30 3335 H 309.084 -2.4618 2.89999 0
M  V30 3336 H 310.396 -3.39218 3.65695 0
M  V30 3337 H 309.55 -5.48928 2.58385 0
M  V30 3338 H 308.289 -4.56275 1.72233 0
M  V30 3339 H 307.294 -3.85824 3.91688 0
M  V30 3340 H 308.519 -4.81854 4.78533 0
M  V30 3341 H 306.465 -5.91847 2.82937 0
M  V30 3342 H 306.382 -6.03236 4.55677 0
M  V30 3343 H 307.65 -6.85958 3.70246 0
M  V30 3344 N 311.879 -1.3236 -0.855495 0
M  V30 3345 C 312.811 -1.17052 -1.97057 0
M  V30 3346 C 313.824 -0.10574 -1.62456 0
M  V30 3347 O 315.013 -0.354619 -1.74942 0
M  V30 3348 C 312.113 -0.769305 -3.30053 0
M  V30 3349 C 311.286 -1.9222 -3.929 0
M  V30 3350 C 310.345 -1.50466 -5.04228 0
M  V30 3351 O 309.371 -2.21655 -5.24269 0
M  V30 3352 N 310.573 -0.400209 -5.79119 0
M  V30 3353 H 313.338 -2.13103 -2.1073 0
M  V30 3354 H 310.899 -1.24885 -1.0303 0
M  V30 3355 H 312.891 -0.472407 -4.01933 0
M  V30 3356 H 311.461 0.100025 -3.1244 0
M  V30 3357 H 310.681 -2.38563 -3.13817 0
M  V30 3358 H 311.969 -2.69403 -4.31624 0
M  V30 3359 H 311.367 0.192319 -5.65373 0
M  V30 3360 H 309.924 -0.162912 -6.51596 0
M  V30 3361 N 313.357 1.07166 -1.15556 0
M  V30 3362 C 314.287 2.16403 -0.877046 0
M  V30 3363 C 315.268 1.69217 0.173111 0
M  V30 3364 O 316.453 1.94181 0.027084 0
M  V30 3365 C 313.583 3.45349 -0.367632 0
M  V30 3366 C 312.537 4.05995 -1.35468 0
M  V30 3367 C 311.863 5.30045 -0.704038 0
M  V30 3368 C 313.163 4.45804 -2.72132 0
M  V30 3369 H 314.857 2.39959 -1.79053 0
M  V30 3370 H 312.403 1.15325 -0.862331 0
M  V30 3371 H 314.356 4.21095 -0.160317 0
M  V30 3372 H 313.08 3.21385 0.581326 0
M  V30 3373 H 311.739 3.32296 -1.54839 0
M  V30 3374 H 311.387 5.02373 0.251128 0
M  V30 3375 H 311.087 5.71579 -1.36277 0
M  V30 3376 H 312.611 6.08495 -0.50654 0
M  V30 3377 H 314.025 5.12671 -2.56595 0
M  V30 3378 H 312.422 4.98296 -3.34397 0
M  V30 3379 H 313.492 3.57083 -3.28054 0
M  V30 3380 N 314.835 0.952656 1.25548 0
M  V30 3381 C 315.798 0.475794 2.24207 0
M  V30 3382 C 316.798 -0.419428 1.55234 0
M  V30 3383 O 317.988 -0.216994 1.72843 0
M  V30 3384 C 315.12 -0.312814 3.39462 0
M  V30 3385 H 316.313 1.34779 2.67908 0
M  V30 3386 H 313.866 0.735739 1.37901 0
M  V30 3387 H 314.601 -1.20257 3.01179 0
M  V30 3388 H 314.386 0.329404 3.90714 0
M  V30 3389 H 315.876 -0.635986 4.12729 0
M  V30 3390 N 316.313 -1.40141 0.720998 0
M  V30 3391 C 317.245 -2.29177 0.0324669 0
M  V30 3392 C 318.258 -1.46105 -0.718126 0
M  V30 3393 O 319.447 -1.69335 -0.564608 0
M  V30 3394 C 316.547 -3.24473 -0.978292 0
M  V30 3395 C 315.72 -4.36423 -0.292115 0
M  V30 3396 C 314.779 -5.12122 -1.20901 0
M  V30 3397 O 313.805 -5.64981 -0.691766 0
M  V30 3398 N 315.007 -5.21992 -2.53978 0
M  V30 3399 H 317.772 -2.88909 0.796984 0
M  V30 3400 H 315.333 -1.51569 0.569068 0
M  V30 3401 H 317.325 -3.71987 -1.59398 0
M  V30 3402 H 315.895 -2.65871 -1.64413 0
M  V30 3403 H 315.115 -3.90967 0.503847 0
M  V30 3404 H 316.403 -5.08467 0.183971 0
M  V30 3405 H 315.801 -4.8054 -2.98493 0
M  V30 3406 H 314.358 -5.72995 -3.10677 0
M  V30 3407 N 317.792 -0.46758 -1.50504 0
M  V30 3408 C 319.041 0.0902868 -2.01498 0
M  V30 3409 C 319.354 1.411 -1.35463 0
M  V30 3410 O 320.56 2.0536 -1.77594 0
M  V30 3411 C 319.016 0.21142 -3.59278 0
M  V30 3412 C 318.624 -1.10065 -4.34269 0
M  V30 3413 C 320.368 0.721433 -4.18325 0
M  V30 3414 C 318.275 -0.943505 -5.83825 0
M  V30 3415 H 317.205 0.037517 -0.753066 0
M  V30 3416 H 319.856 -0.601943 -1.73346 0
M  V30 3417 H 318.238 0.967352 -3.84003 0
M  V30 3418 H 319.412 -1.86726 -4.21272 0
M  V30 3419 H 317.727 -1.5415 -3.86816 0
M  V30 3420 H 320.324 0.85598 -5.27804 0
M  V30 3421 H 320.667 1.71186 -3.79475 0
M  V30 3422 H 321.2 0.0229843 -3.97793 0
M  V30 3423 H 317.939 -1.90719 -6.27141 0
M  V30 3424 H 317.459 -0.217213 -5.99407 0
M  V30 3425 H 319.138 -0.608715 -6.4413 0
M  V30 3426 N 319.27 1.56325 -0.20005 0
M  V30 3427 C 320.217 2.1932 0.718833 0
M  V30 3428 C 321.187 1.14198 1.20615 0
M  V30 3429 O 322.372 1.42469 1.26914 0
M  V30 3430 C 319.512 2.86041 1.93066 0
M  V30 3431 C 318.625 4.05702 1.48425 0
M  V30 3432 C 317.76 4.60266 2.65196 0
M  V30 3433 C 316.799 5.72273 2.17185 0
M  V30 3434 N 315.936 6.21221 3.27152 0
M  V30 3435 H 320.776 2.97486 0.17489 0
M  V30 3436 H 318.313 1.46911 0.0745794 0
M  V30 3437 H 320.271 3.22897 2.64184 0
M  V30 3438 H 318.901 2.1043 2.44783 0
M  V30 3439 H 317.953 3.74475 0.668755 0
M  V30 3440 H 319.265 4.86699 1.09204 0
M  V30 3441 H 318.419 4.99453 3.4443 0
M  V30 3442 H 317.158 3.78386 3.07693 0
M  V30 3443 H 316.163 5.3261 1.36407 0
M  V30 3444 H 317.388 6.55974 1.75713 0
M  V30 3445 H 315.334 5.42263 3.69171 0
M  V30 3446 H 315.251 6.97284 2.92116 0
M  V30 3447 H 316.519 6.65063 4.06585 0
M  V30 3448 N 320.748 -0.0735177 1.57428 0
M  V30 3449 C 321.658 -1.10547 2.06922 0
M  V30 3450 C 322.674 -1.42506 0.998402 0
M  V30 3451 O 323.85 -1.52717 1.31299 0
M  V30 3452 C 320.915 -2.40019 2.50184 0
M  V30 3453 C 319.976 -2.15046 3.71556 0
M  V30 3454 C 319.209 -3.38345 4.12745 0
M  V30 3455 O 319.432 -4.47399 3.53822 0
M  V30 3456 O 318.366 -3.2666 5.05546 0
M  V30 3457 H 322.192 -0.715013 2.95163 0
M  V30 3458 H 319.777 -0.287531 1.46607 0
M  V30 3459 H 321.659 -3.16218 2.78539 0
M  V30 3460 H 320.334 -2.78447 1.65072 0
M  V30 3461 H 319.241 -1.36558 3.48285 0
M  V30 3462 H 320.574 -1.81499 4.57514 0
M  V30 3463 N 322.226 -1.5378 -0.344866 0
M  V30 3464 C 323.159 -1.7649 -1.4466 0
M  V30 3465 C 324.137 -0.613954 -1.50563 0
M  V30 3466 O 325.321 -0.84896 -1.683 0
M  V30 3467 C 322.448 -1.86235 -2.82903 0
M  V30 3468 C 321.494 -3.08375 -2.94631 0
M  V30 3469 S 322.327 -4.67457 -2.61236 0
M  V30 3470 C 323.483 -4.80079 -4.0159 0
M  V30 3471 H 323.716 -2.69661 -1.2518 0
M  V30 3472 H 321.249 -1.44632 -0.540455 0
M  V30 3473 H 323.207 -1.92535 -3.62547 0
M  V30 3474 H 321.868 -0.940786 -2.9968 0
M  V30 3475 H 321.061 -3.11865 -3.95925 0
M  V30 3476 H 320.663 -3.00294 -2.22934 0
M  V30 3477 H 322.955 -4.61407 -4.96094 0
M  V30 3478 H 323.898 -5.82168 -4.03095 0
M  V30 3479 H 324.306 -4.08544 -3.89554 0
M  V30 3480 N 323.704 0.605807 -1.45491 0
M  V30 3481 C 324.95 1.36679 -1.49823 0
M  V30 3482 C 325.283 1.93693 -0.140175 0
M  V30 3483 O 324.558 1.75158 0.845581 0
M  V30 3484 C 324.841 2.51337 -2.57879 0
M  V30 3485 C 324.694 1.99508 -4.03134 0
M  V30 3486 C 326.013 3.53463 -2.62205 0
M  V30 3487 H 323.132 0.495617 -0.545466 0
M  V30 3488 H 325.774 0.682732 -1.7731 0
M  V30 3489 H 323.924 3.09691 -2.34571 0
M  V30 3490 H 325.596 1.45789 -4.37656 0
M  V30 3491 H 323.839 1.30496 -4.13707 0
M  V30 3492 H 324.51 2.82169 -4.74431 0
M  V30 3493 H 326.986 3.04953 -2.83095 0
M  V30 3494 H 325.862 4.31178 -3.39672 0
M  V30 3495 H 326.123 4.09197 -1.67363 0
M  V30 3496 N 325.182 1.32811 0.848464 0
M  V30 3497 C 326.092 1.24278 1.98978 0
M  V30 3498 C 327.108 0.155176 1.73307 0
M  V30 3499 O 328.284 0.376999 1.9784 0
M  V30 3500 C 325.349 0.972444 3.32783 0
M  V30 3501 C 324.41 2.14911 3.71634 0
M  V30 3502 C 323.643 1.89157 4.99054 0
M  V30 3503 O 323.866 0.837165 5.64223 0
M  V30 3504 O 322.8 2.75433 5.35183 0
M  V30 3505 H 326.626 2.20238 2.09115 0
M  V30 3506 H 324.211 1.12762 0.980052 0
M  V30 3507 H 326.093 0.838432 4.12975 0
M  V30 3508 H 324.768 0.043051 3.23671 0
M  V30 3509 H 323.675 2.33862 2.91992 0
M  V30 3510 H 325.008 3.06151 3.85399 0
M  V30 3511 N 326.66 -1.06551 1.16123 0
M  V30 3512 C 327.59 -2.15935 0.88851 0
M  V30 3513 C 328.571 -1.69306 -0.164135 0
M  V30 3514 O 329.756 -1.94193 -0.0167857 0
M  V30 3515 C 326.886 -3.45149 0.385942 0
M  V30 3516 C 325.84 -4.05271 1.3762 0
M  V30 3517 C 325.166 -5.29664 0.732137 0
M  V30 3518 C 326.466 -4.44355 2.74493 0
M  V30 3519 H 328.16 -2.39006 1.80323 0
M  V30 3520 H 325.706 -1.14866 0.868435 0
M  V30 3521 H 327.659 -4.21004 0.182647 0
M  V30 3522 H 326.383 -3.21689 -0.564274 0
M  V30 3523 H 325.042 -3.3147 1.56599 0
M  V30 3524 H 324.69 -5.02499 -0.224483 0
M  V30 3525 H 324.39 -5.70848 1.39307 0
M  V30 3526 H 325.914 -6.08218 0.538802 0
M  V30 3527 H 327.328 -5.11303 2.59311 0
M  V30 3528 H 325.725 -4.96515 3.37035 0
M  V30 3529 H 326.795 -3.55339 3.29943 0
M  V30 3530 N 328.138 -0.959301 -1.25041 0
M  V30 3531 C 329.549 -0.65667 -1.74771 0
M  V30 3532 C 329.9 0.827852 -1.77879 0
M  V30 3533 O 329.025 1.64783 -1.40269 0
M  V30 3534 C 329.62 -1.1853 -3.1739 0
M  V30 3535 C 328.179 -0.932734 -3.6466 0
M  V30 3536 C 327.326 -1.32558 -2.43564 0
M  V30 3537 H 330.277 -1.13558 -1.10862 0
M  V30 3538 H 330.298 -0.547582 -3.76539 0
M  V30 3539 H 329.81 -2.26576 -3.15095 0
M  V30 3540 H 327.911 0.13257 -3.72364 0
M  V30 3541 H 328.024 -1.57248 -4.52559 0
M  V30 3542 H 326.388 -0.743956 -2.43593 0
M  V30 3543 H 327.171 -2.41537 -2.43957 0
M  V30 3544 N 329.616 1.39756 -0.72842 0
M  V30 3545 C 330.546 2.33289 -0.0991354 0
M  V30 3546 C 331.527 1.53568 0.731489 0
M  V30 3547 O 332.712 1.81987 0.677807 0
M  V30 3548 C 329.842 3.3763 0.813834 0
M  V30 3549 C 328.796 4.2791 0.0878663 0
M  V30 3550 C 328.122 5.22894 1.11741 0
M  V30 3551 C 329.422 5.11314 -1.06563 0
M  V30 3552 H 331.116 2.86163 -0.880408 0
M  V30 3553 H 328.662 1.37591 -0.424819 0
M  V30 3554 H 330.615 4.0201 1.26355 0
M  V30 3555 H 329.339 2.83181 1.62715 0
M  V30 3556 H 327.998 3.65 -0.342159 0
M  V30 3557 H 327.646 4.64744 1.92412 0
M  V30 3558 H 327.346 5.84143 0.636477 0
M  V30 3559 H 328.87 5.90151 1.56697 0
M  V30 3560 H 330.284 5.69076 -0.694671 0
M  V30 3561 H 328.681 5.81671 -1.47577 0
M  V30 3562 H 329.751 4.46534 -1.89038 0
M  V30 3563 N 331.094 0.475555 1.50254 0
M  V30 3564 C 332.51 0.12997 1.5907 0
M  V30 3565 C 332.71 -1.36385 1.48328 0
M  V30 3566 O 331.766 -2.13754 1.34407 0
M  V30 3567 C 333.079 0.684139 2.92814 0
M  V30 3568 C 334.627 0.647965 3.0622 0
M  V30 3569 C 335.102 1.17975 4.42545 0
M  V30 3570 N 336.593 1.13936 4.48969 0
M  V30 3571 C 337.328 1.52129 5.52851 0
M  V30 3572 N 336.824 1.97793 6.63965 0
M  V30 3573 N 338.617 1.43704 5.4342 0
M  V30 3574 H 330.768 1.44706 1.55479 0
M  V30 3575 H 333.031 0.598691 0.735033 0
M  V30 3576 H 332.737 1.73079 3.06164 0
M  V30 3577 H 332.611 0.130204 3.76975 0
M  V30 3578 H 334.998 -0.38979 2.92514 0
M  V30 3579 H 335.079 1.23876 2.23805 0
M  V30 3580 H 334.723 2.21616 4.57 0
M  V30 3581 H 334.653 0.565138 5.23559 0
M  V30 3582 H 337.144 0.804488 3.69238 0
M  V30 3583 H 337.457 2.25072 7.39299 0
M  V30 3584 H 335.802 2.01749 6.65073 0
M  V30 3585 H 338.993 1.07867 4.55502 0
M  V30 3586 H 339.166 1.73794 6.24259 0
M  V30 3587 N 332.573 -1.56217 0.208337 0
M  V30 3588 C 333.523 -2.16324 -0.720281 0
M  V30 3589 C 334.507 -1.10775 -1.16695 0
M  V30 3590 O 335.699 -1.36801 -1.12314 0
M  V30 3591 C 332.828 -2.83644 -1.93393 0
M  V30 3592 C 331.914 -3.96401 -1.50755 0
M  V30 3593 N 332.305 -4.99546 -0.792937 0
M  V30 3594 C 330.603 -4.08246 -1.79585 0
M  V30 3595 C 331.304 -5.78828 -0.577364 0
M  V30 3596 N 330.28 -5.31723 -1.1301 0
M  V30 3597 H 334.082 -2.93432 -0.165725 0
M  V30 3598 H 331.596 -1.62397 0.00906463 0
M  V30 3599 H 333.593 -3.25107 -2.60981 0
M  V30 3600 H 332.253 -2.08027 -2.49308 0
M  V30 3601 H 333.264 -5.15967 -0.447004 0
M  V30 3602 H 329.941 -3.4377 -2.36915 0
M  V30 3603 H 331.331 -6.71899 -0.00952956 0
M  V30 3604 N 334.051 0.0651679 -1.57465 0
M  V30 3605 C 335.462 0.616213 -1.76238 0
M  V30 3606 C 335.813 1.7756 -0.834689 0
M  V30 3607 O 334.938 2.1639 -0.0204156 0
M  V30 3608 C 335.533 1.12462 -3.1959 0
M  V30 3609 C 334.092 1.62147 -3.39684 0
M  V30 3610 C 333.239 0.543739 -2.71917 0
M  V30 3611 H 336.19 -0.161022 -1.57881 0
M  V30 3612 H 336.211 1.99324 -3.24114 0
M  V30 3613 H 335.723 0.280592 -3.87084 0
M  V30 3614 H 333.824 2.48854 -2.77313 0
M  V30 3615 H 333.937 1.69385 -4.48158 0
M  V30 3616 H 332.301 0.990352 -2.34657 0
M  V30 3617 H 333.084 -0.290216 -3.42071 0
M  V30 3618 N 335.529 1.53961 0.336706 0
M  V30 3619 C 336.492 1.81724 1.39675 0
M  V30 3620 C 337.492 0.688532 1.45313 0
M  V30 3621 O 338.682 0.956829 1.45569 0
M  V30 3622 C 335.814 1.96543 2.78538 0
M  V30 3623 H 337.007 2.76424 1.16318 0
M  V30 3624 H 334.56 1.45478 0.571474 0
M  V30 3625 H 335.295 1.0401 3.07168 0
M  V30 3626 H 335.08 2.78665 2.75841 0
M  V30 3627 H 336.57 2.19516 3.5525 0
M  V30 3628 N 337.007 -0.598083 1.45811 0
M  V30 3629 C 337.937 -1.71873 1.58057 0
M  V30 3630 C 338.918 -1.64533 0.431615 0
M  V30 3631 O 340.103 -1.82787 0.65595 0
M  V30 3632 C 337.233 -3.10495 1.55597 0
M  V30 3633 C 336.187 -3.32654 2.69305 0
M  V30 3634 C 335.513 -4.71646 2.51902 0
M  V30 3635 C 336.813 -3.21981 4.11248 0
M  V30 3636 H 338.507 -1.61881 2.51863 0
M  V30 3637 H 336.053 -0.777372 1.21214 0
M  V30 3638 H 338.006 -3.88699 1.6276 0
M  V30 3639 H 336.73 -3.2135 0.583255 0
M  V30 3640 H 335.389 -2.56843 2.61586 0
M  V30 3641 H 335.037 -4.79246 1.52748 0
M  V30 3642 H 334.737 -4.87426 3.2816 0
M  V30 3643 H 336.261 -5.52038 2.60933 0
M  V30 3644 H 337.675 -3.90049 4.20161 0
M  V30 3645 H 336.072 -3.49289 4.87972 0
M  V30 3646 H 337.142 -2.1928 4.32486 0
M  V30 3647 N 338.485 -1.33259 -0.841409 0
M  V30 3648 C 339.732 -1.24572 -1.5965 0
M  V30 3649 C 340.06 0.189137 -1.93578 0
M  V30 3650 O 339.315 1.14566 -1.5866 0
M  V30 3651 C 339.614 -2.06381 -2.9179 0
M  V30 3652 C 339.28 -3.556 -2.77235 0
M  V30 3653 C 337.942 -3.96282 -2.72973 0
M  V30 3654 C 340.294 -4.50433 -2.62221 0
M  V30 3655 C 337.622 -5.30017 -2.51592 0
M  V30 3656 C 339.974 -5.84327 -2.42374 0
M  V30 3657 C 338.638 -6.24194 -2.36512 0
M  V30 3658 H 337.908 -0.455842 -0.5842 0
M  V30 3659 H 340.555 -1.6482 -0.975016 0
M  V30 3660 H 338.86 -1.58903 -3.5813 0
M  V30 3661 H 340.557 -1.97019 -3.49263 0
M  V30 3662 H 337.147 -3.23298 -2.81384 0
M  V30 3663 H 341.331 -4.19914 -2.64549 0
M  V30 3664 H 336.587 -5.59947 -2.45499 0
M  V30 3665 H 340.761 -6.57414 -2.29739 0
M  V30 3666 H 338.388 -7.27759 -2.19706 0
M  V30 3667 N 339.963 1.05934 -1.16686 0
M  V30 3668 C 340.91 2.13499 -0.876748 0
M  V30 3669 C 341.88 1.65162 0.176299 0
M  V30 3670 O 343.065 1.90757 0.0407143 0
M  V30 3671 C 340.205 3.42912 -0.387967 0
M  V30 3672 C 339.318 4.04964 -1.50426 0
M  V30 3673 C 338.453 5.22266 -0.970125 0
M  V30 3674 C 337.492 5.76309 -2.06238 0
M  V30 3675 N 336.629 6.84922 -1.54356 0
M  V30 3676 H 341.469 2.37654 -1.7979 0
M  V30 3677 H 339.006 1.16598 -0.896843 0
M  V30 3678 H 340.964 4.17111 -0.086186 0
M  V30 3679 H 339.594 3.18963 0.496235 0
M  V30 3680 H 338.646 3.28277 -1.92193 0
M  V30 3681 H 339.958 4.41122 -2.32836 0
M  V30 3682 H 339.112 6.03506 -0.621743 0
M  V30 3683 H 337.851 4.87564 -0.115377 0
M  V30 3684 H 336.856 4.93704 -2.41942 0
M  V30 3685 H 338.081 6.13062 -2.92115 0
M  V30 3686 H 336.027 6.52131 -0.711406 0
M  V30 3687 H 335.944 7.20043 -2.30379 0
M  V30 3688 H 337.212 7.69832 -1.22387 0
M  V30 3689 N 341.441 0.965919 1.2453 0
M  V30 3690 C 342.404 0.499547 2.2369 0
M  V30 3691 C 343.404 -0.40294 1.5567 0
M  V30 3692 O 344.594 -0.19865 1.73064 0
M  V30 3693 C 341.726 -0.276792 3.39774 0
M  V30 3694 H 342.919 1.37613 2.66463 0
M  V30 3695 H 340.472 0.750324 1.37112 0
M  V30 3696 H 341.207 -1.17055 3.02438 0
M  V30 3697 H 340.992 0.370826 3.90343 0
M  V30 3698 H 342.482 -0.592175 4.1338 0
M  V30 3699 N 342.919 -1.39368 0.735821 0
M  V30 3700 C 344.168 -1.99733 0.281004 0
M  V30 3701 C 344.481 -1.59055 -1.13846 0
M  V30 3702 O 345.687 -2.12262 -1.69284 0
M  V30 3703 C 344.143 -3.57057 0.451462 0
M  V30 3704 C 343.751 -4.06697 1.87886 0
M  V30 3705 C 345.495 -4.2446 0.0584616 0
M  V30 3706 C 343.402 -5.56598 1.99883 0
M  V30 3707 H 342.332 -0.747163 0.101311 0
M  V30 3708 H 344.983 -1.59357 0.909819 0
M  V30 3709 H 343.365 -3.95234 -0.246263 0
M  V30 3710 H 344.539 -3.79853 2.60861 0
M  V30 3711 H 342.854 -3.5196 2.22515 0
M  V30 3712 H 345.451 -5.34549 0.127099 0
M  V30 3713 H 345.794 -4.04444 -0.986433 0
M  V30 3714 H 346.327 -3.9146 0.707374 0
M  V30 3715 H 343.066 -5.81494 3.02564 0
M  V30 3716 H 342.586 -5.85242 1.31346 0
M  V30 3717 H 344.265 -6.22022 1.78039 0
M  V30 3718 N 344.397 -0.483516 -1.5 0
M  V30 3719 C 345.645 0.067027 -2.01989 0
M  V30 3720 C 345.966 1.3909 -1.36671 0
M  V30 3721 O 345.236 1.88978 -0.516152 0
M  V30 3722 H 343.816 0.0277606 -0.746484 0
M  V30 3723 H 346.478 -0.636773 -1.84204 0
M  V30 3724 H 345.574 0.209484 -3.11396 0
M  V30 3725 N 345.875 1.56104 -0.216619 0
M  V30 3726 C 347.121 1.98466 0.417033 0
M  V30 3727 C 347.454 1.10403 1.59765 0
M  V30 3728 O 346.729 0.160632 1.93836 0
M  V30 3729 C 347.012 3.49769 0.85637 0
M  V30 3730 C 346.865 4.48606 -0.327546 0
M  V30 3731 C 348.184 4.05339 1.7143 0
M  V30 3732 H 345.303 0.721551 0.150112 0
M  V30 3733 H 347.945 1.87423 -0.311864 0
M  V30 3734 H 346.095 3.5931 1.47745 0
M  V30 3735 H 347.767 4.5108 -0.965618 0
M  V30 3736 H 346.01 4.22682 -0.975805 0
M  V30 3737 H 346.681 5.51995 0.0227149 0
M  V30 3738 H 349.157 3.98712 1.19031 0
M  V30 3739 H 348.033 5.11533 1.99061 0
M  V30 3740 H 348.294 3.51918 2.67593 0
M  V30 3741 N 347.353 -0.0568162 1.57498 0
M  V30 3742 C 348.3 -1.06591 2.04712 0
M  V30 3743 C 349.27 -1.3758 0.930644 0
M  V30 3744 O 350.455 -1.48392 1.19935 0
M  V30 3745 C 347.595 -2.3701 2.50839 0
M  V30 3746 C 346.708 -2.12421 3.76167 0
M  V30 3747 C 345.843 -3.36511 4.11015 0
M  V30 3748 C 344.882 -3.07353 5.2934 0
M  V30 3749 N 344.019 -4.23816 5.59754 0
M  V30 3750 H 348.859 -0.65631 2.90683 0
M  V30 3751 H 346.396 -0.312481 1.43743 0
M  V30 3752 H 348.354 -3.13175 2.7564 0
M  V30 3753 H 346.984 -2.75744 1.67825 0
M  V30 3754 H 346.036 -1.2688 3.58616 0
M  V30 3755 H 347.348 -1.86894 4.62463 0
M  V30 3756 H 346.502 -4.21062 4.36797 0
M  V30 3757 H 345.241 -3.65128 3.23315 0
M  V30 3758 H 344.246 -2.212 5.03339 0
M  V30 3759 H 345.471 -2.80043 6.1867 0
M  V30 3760 H 343.417 -4.52436 4.75014 0
M  V30 3761 H 343.334 -4.01614 6.40501 0
M  V30 3762 H 344.602 -5.0932 5.90096 0
M  V30 3763 N 348.832 -1.54138 -0.328536 0
M  V30 3764 C 350.243 -1.63395 -0.903272 0
M  V30 3765 C 350.594 -0.524828 -1.8905 0
M  V30 3766 O 349.719 0.343068 -2.13663 0
M  V30 3767 C 350.314 -2.9618 -1.64507 0
M  V30 3768 C 348.873 -3.0765 -2.1686 0
M  V30 3769 C 348.02 -2.58933 -0.992416 0
M  V30 3770 H 350.971 -1.58344 -0.106253 0
M  V30 3771 H 350.992 -2.86061 -2.50897 0
M  V30 3772 H 350.504 -3.76884 -0.926302 0
M  V30 3773 H 348.605 -2.31611 -2.91868 0
M  V30 3774 H 348.718 -4.1337 -2.42202 0
M  V30 3775 H 347.082 -2.14706 -1.37016 0
M  V30 3776 H 347.865 -3.42089 -0.288041 0
M  V30 3777 N 350.31 0.590341 -1.46126 0
M  V30 3778 C 351.721 1.17243 -1.45296 0
M  V30 3779 C 352.072 1.95281 -0.189723 0
M  V30 3780 O 351.197 2.04502 0.707674 0
M  V30 3781 C 351.792 2.13284 -2.6324 0
M  V30 3782 C 350.351 2.66832 -2.65476 0
M  V30 3783 C 349.498 1.42557 -2.3785 0
M  V30 3784 H 352.449 0.378692 -1.54116 0
M  V30 3785 H 352.47 2.96619 -2.38323 0
M  V30 3786 H 351.982 1.56459 -3.55165 0
M  V30 3787 H 350.083 3.27548 -1.77603 0
M  V30 3788 H 350.196 3.10088 -3.65215 0
M  V30 3789 H 348.56 1.72107 -1.87753 0
M  V30 3790 H 349.343 0.875741 -3.31942 0
M  V30 3791 N 351.788 1.33704 0.83433 0
M  V30 3792 C 353.204 1.13137 1.12571 0
M  V30 3793 C 353.404 -0.0747261 2.01361 0
M  V30 3794 O 352.46 -0.753647 2.4099 0
M  V30 3795 C 353.773 2.42105 1.78342 0
M  V30 3796 C 355.321 2.48054 1.90888 0
M  V30 3797 C 355.796 3.76995 2.60075 0
M  V30 3798 N 357.287 3.78092 2.67584 0
M  V30 3799 C 358.022 4.74574 3.21818 0
M  V30 3800 N 357.518 5.81434 3.76705 0
M  V30 3801 N 359.311 4.62044 3.20112 0
M  V30 3802 H 351.462 2.11 0.243489 0
M  V30 3803 H 353.725 0.932532 0.17055 0
M  V30 3804 H 353.431 3.30391 1.20561 0
M  V30 3805 H 353.305 2.54594 2.7832 0
M  V30 3806 H 355.692 1.60215 2.47821 0
M  V30 3807 H 355.773 2.39502 0.898459 0
M  V30 3808 H 355.417 4.65219 2.03799 0
M  V30 3809 H 355.347 3.82825 3.61597 0
M  V30 3810 H 357.838 3.00865 2.28667 0
M  V30 3811 H 358.151 6.51084 4.16305 0
M  V30 3812 H 356.496 5.85163 3.7498 0
M  V30 3813 H 359.687 3.77716 2.76493 0
M  V30 3814 H 359.86 5.37406 3.62076 0
M  V30 3815 N 353.266 -1.05314 1.17247 0
M  V30 3816 C 354.514 -1.77941 0.958194 0
M  V30 3817 C 354.835 -1.88089 -0.514556 0
M  V30 3818 O 354.105 -1.39676 -1.37359 0
M  V30 3819 H 352.685 -0.659116 0.351533 0
M  V30 3820 H 355.347 -1.27166 1.47699 0
M  V30 3821 H 354.443 -2.79663 1.38546 0
M  V30 3822 N 354.744 -0.972509 -1.24016 0
M  V30 3823 C 355.993 -0.632603 -1.91523 0
M  V30 3824 C 356.306 0.836641 -1.76804 0
M  V30 3825 O 357.512 1.28728 -2.39043 0
M  V30 3826 C 355.968 -1.08082 -3.43287 0
M  V30 3827 C 355.576 -2.57386 -3.66683 0
M  V30 3828 C 357.32 -0.814288 -4.16617 0
M  V30 3829 C 355.227 -2.95915 -5.12043 0
M  V30 3830 H 354.157 -0.232898 -0.717129 0
M  V30 3831 H 356.808 -1.17936 -1.40582 0
M  V30 3832 H 355.19 -0.462339 -3.93292 0
M  V30 3833 H 356.364 -3.24405 -3.27258 0
M  V30 3834 H 354.679 -2.81701 -3.06649 0
M  V30 3835 H 357.276 -1.0781 -5.23718 0
M  V30 3836 H 357.619 0.24955 -4.15551 0
M  V30 3837 H 358.152 -1.39397 -3.72577 0
M  V30 3838 H 354.891 -4.0139 -5.18234 0
M  V30 3839 H 354.411 -2.33584 -5.52448 0
M  V30 3840 H 356.09 -2.86086 -5.80314 0
M  V30 3841 N 356.222 1.38976 -0.743202 0
M  V30 3842 C 357.152 2.33171 -0.123873 0
M  V30 3843 C 358.133 1.54336 0.71516 0
M  V30 3844 O 359.318 1.82696 0.658467 0
M  V30 3845 C 356.448 3.38474 0.777978 0
M  V30 3846 C 355.402 4.27979 0.0424758 0
M  V30 3847 C 354.728 5.2405 1.06189 0
M  V30 3848 C 356.028 5.10155 -1.1198 0
M  V30 3849 H 357.722 2.85213 -0.910709 0
M  V30 3850 H 355.268 1.37133 -0.439388 0
M  V30 3851 H 357.221 4.03328 1.22084 0
M  V30 3852 H 355.945 2.84891 1.59702 0
M  V30 3853 H 354.604 3.64616 -0.380853 0
M  V30 3854 H 354.252 4.66758 1.87472 0
M  V30 3855 H 353.952 5.84785 0.574485 0
M  V30 3856 H 355.476 5.9178 1.50428 0
M  V30 3857 H 356.89 5.68307 -0.75499 0
M  V30 3858 H 355.287 5.80073 -1.53738 0
M  V30 3859 H 356.357 4.44504 -1.93764 0
M  V30 3860 N 357.7 0.491464 1.49741 0
M  V30 3861 C 358.63 -0.28154 2.31796 0
M  V30 3862 C 359.611 -0.971473 1.3963 0
M  V30 3863 O 360.796 -0.964719 1.68543 0
M  V30 3864 C 357.926 -1.35203 3.19902 0
M  V30 3865 C 356.88 -0.782529 4.20786 0
M  V30 3866 C 356.206 -1.95283 4.97764 0
M  V30 3867 C 357.506 0.21999 5.21837 0
M  V30 3868 H 359.2 0.403355 2.96671 0
M  V30 3869 H 356.746 0.195425 1.42668 0
M  V30 3870 H 358.699 -1.90045 3.76113 0
M  V30 3871 H 357.423 -2.06598 2.52953 0
M  V30 3872 H 356.082 -0.255928 3.65706 0
M  V30 3873 H 355.73 -2.65423 4.2727 0
M  V30 3874 H 355.43 -1.57789 5.66018 0
M  V30 3875 H 356.954 -2.50577 5.56816 0
M  V30 3876 H 358.368 -0.23996 5.72798 0
M  V30 3877 H 356.765 0.51026 5.97927 0
M  V30 3878 H 357.835 1.13911 4.7133 0
M  V30 3879 N 359.178 -1.55987 0.224894 0
M  V30 3880 C 360.408 -2.02489 -0.41007 0
M  V30 3881 C 360.816 -1.10391 -1.53657 0
M  V30 3882 O 360.159 -0.106458 -1.83391 0
M  V30 3883 C 360.221 -3.45319 -0.999757 0
M  V30 3884 C 359.885 -4.56999 -0.00827976 0
M  V30 3885 C 360.882 -5.13812 0.793314 0
M  V30 3886 C 358.567 -5.02176 0.111442 0
M  V30 3887 C 360.561 -6.14276 1.7013 0
M  V30 3888 C 358.248 -6.02477 1.02296 0
M  V30 3889 C 359.246 -6.58403 1.81643 0
M  V30 3890 O 358.934 -7.56751 2.71262 0
M  V30 3891 H 358.666 -0.667915 -0.104235 0
M  V30 3892 H 361.22 -2.0257 0.339782 0
M  V30 3893 H 359.45 -3.42318 -1.79876 0
M  V30 3894 H 361.139 -3.7545 -1.54248 0
M  V30 3895 H 361.905 -4.79756 0.711288 0
M  V30 3896 H 357.784 -4.58323 -0.49605 0
M  V30 3897 H 361.328 -6.57854 2.32107 0
M  V30 3898 H 357.225 -6.35954 1.10599 0
M  V30 3899 H 357.993 -7.74286 2.65375 0
M  V30 3900 N 360.656 0.0484629 -1.57525 0
M  V30 3901 C 361.904 0.741657 -1.88 0
M  V30 3902 C 362.225 1.76918 -0.820054 0
M  V30 3903 O 361.495 1.95335 0.148661 0
M  V30 3904 H 360.075 0.276908 -0.69378 0
M  V30 3905 H 362.737 0.019013 -1.94891 0
M  V30 3906 H 361.833 1.24336 -2.86264 0
M  V30 3907 N 362.134 1.5431 0.320358 0
M  V30 3908 C 363.545 1.63872 0.894594 0
M  V30 3909 C 363.896 0.534847 1.88769 0
M  V30 3910 O 363.021 -0.331732 2.13842 0
M  V30 3911 C 363.616 2.97049 1.62934 0
M  V30 3912 C 362.175 3.08796 2.15226 0
M  V30 3913 C 361.322 2.59456 0.978671 0
M  V30 3914 H 364.273 1.58398 0.0978544 0
M  V30 3915 H 364.294 2.87388 2.49376 0
M  V30 3916 H 363.806 3.7737 0.906302 0
M  V30 3917 H 361.907 2.33156 2.90636 0
M  V30 3918 H 362.02 4.14649 2.40006 0
M  V30 3919 H 360.384 2.1543 1.35875 0
M  V30 3920 H 361.167 3.42237 0.269895 0
M  V30 3921 N 363.613 -0.582584 1.46437 0
M  V30 3922 C 365.024 -1.1647 1.45916 0
M  V30 3923 C 365.375 -1.95177 0.200077 0
M  V30 3924 O 364.5 -2.04874 -0.696819 0
M  V30 3925 C 365.095 -2.11885 2.64367 0
M  V30 3926 C 363.654 -2.65421 2.66887 0
M  V30 3927 C 362.801 -1.41294 2.38603 0
M  V30 3928 H 365.752 -0.370514 1.54314 0
M  V30 3929 H 365.773 -2.9535 2.39892 0
M  V30 3930 H 365.285 -1.54573 3.5599 0
M  V30 3931 H 363.386 -3.26602 1.79338 0
M  V30 3932 H 363.499 -3.08147 3.66854 0
M  V30 3933 H 361.863 -1.71109 1.88663 0
M  V30 3934 H 362.646 -0.858125 3.32402 0
M  V30 3935 N 365.091 -1.34144 -0.827227 0
M  V30 3936 C 366.339 -1.26009 -1.58007 0
M  V30 3937 C 366.66 0.170971 -1.94249 0
M  V30 3938 O 365.93 1.10256 -1.61927 0
M  V30 3939 H 364.51 -0.463414 -0.585881 0
M  V30 3940 H 367.172 -1.68005 -0.987951 0
M  V30 3941 H 366.268 -1.86187 -2.50481 0
M  V30 3942 N 366.569 1.04691 -1.17803 0
M  V30 3943 C 367.797 1.81446 -0.99423 0
M  V30 3944 C 368.212 1.83174 0.457459 0
M  V30 3945 O 367.569 1.26265 1.31771 0
M  V30 3946 C 367.62 3.27334 -1.5341 0
M  V30 3947 O 367.341 3.25798 -2.92895 0
M  V30 3948 C 368.842 4.20759 -1.39559 0
M  V30 3949 H 366.062 0.571599 -0.351447 0
M  V30 3950 H 368.606 1.31982 -1.56208 0
M  V30 3951 H 366.761 3.74052 -1.00815 0
M  V30 3952 H 367.175 4.17144 -3.17949 0
M  V30 3953 H 368.649 5.21084 -1.82141 0
M  V30 3954 H 369.126 4.37856 -0.343394 0
M  V30 3955 H 369.732 3.79901 -1.91195 0
M  V30 3956 N 368.047 0.979072 1.23499 0
M  V30 3957 C 369.295 0.645941 1.91499 0
M  V30 3958 C 369.616 -0.822948 1.76784 0
M  V30 3959 O 368.886 -1.58854 1.14639 0
M  V30 3960 H 367.466 0.235919 0.708767 0
M  V30 3961 H 370.128 1.2426 1.50152 0
M  V30 3962 H 369.224 0.896411 2.9895 0
M  V30 3963 N 369.525 -1.3858 0.750561 0
M  V30 3964 C 370.472 -2.30483 0.120835 0
M  V30 3965 C 371.442 -1.50022 -0.712923 0
M  V30 3966 O 372.627 -1.78662 -0.669676 0
M  V30 3967 C 369.767 -3.36431 -0.768666 0
M  V30 3968 C 368.88 -4.31927 0.0793922 0
M  V30 3969 C 368.015 -5.24944 -0.81283 0
M  V30 3970 C 367.054 -6.12088 0.0390447 0
M  V30 3971 N 366.191 -6.97412 -0.809969 0
M  V30 3972 H 371.031 -2.83761 0.91015 0
M  V30 3973 H 368.568 -1.39707 0.460463 0
M  V30 3974 H 370.526 -3.96462 -1.29898 0
M  V30 3975 H 369.156 -2.8457 -1.5238 0
M  V30 3976 H 368.208 -3.73382 0.727303 0
M  V30 3977 H 369.52 -4.93319 0.737401 0
M  V30 3978 H 368.674 -5.90078 -1.41042 0
M  V30 3979 H 367.413 -4.63911 -1.50458 0
M  V30 3980 H 366.418 -5.45952 0.649328 0
M  V30 3981 H 367.643 -6.75189 0.727809 0
M  V30 3982 H 365.589 -6.38931 -1.48672 0
M  V30 3983 H 365.506 -7.55712 -0.208789 0
M  V30 3984 H 366.774 -7.66959 -1.39263 0
M  V30 3985 N 371.003 -0.499398 -1.49478 0
M  V30 3986 C 372.231 0.0425456 -2.06856 0
M  V30 3987 C 372.646 1.30964 -1.35992 0
M  V30 3988 O 372.003 1.77172 -0.437762 0
M  V30 3989 C 372.054 0.301735 -3.60239 0
M  V30 3990 O 371.775 -0.915127 -4.28436 0
M  V30 3991 C 373.276 0.887499 -4.34325 0
M  V30 3992 H 370.496 -0.0197482 -0.670709 0
M  V30 3993 H 373.04 -0.696297 -1.92281 0
M  V30 3994 H 371.195 0.990556 -3.74522 0
M  V30 3995 H 371.609 -0.676993 -5.20113 0
M  V30 3996 H 373.083 1.01845 -5.42523 0
M  V30 3997 H 373.56 1.88488 -3.96698 0
M  V30 3998 H 374.166 0.236196 -4.24644 0
M  V30 3999 N 372.481 1.55866 -0.233164 0
M  V30 4000 C 373.411 2.23783 0.666599 0
M  V30 4001 C 374.392 1.21343 1.19205 0
M  V30 4002 O 375.577 1.4996 1.23392 0
M  V30 4003 C 372.707 2.92671 1.86978 0
M  V30 4004 C 371.661 4.01682 1.47768 0
M  V30 4005 C 370.987 4.57926 2.76058 0
M  V30 4006 C 372.287 5.18126 0.658993 0
M  V30 4007 H 373.981 2.99232 0.100306 0
M  V30 4008 H 371.527 1.43924 0.046804 0
M  V30 4009 H 373.48 3.3888 2.50476 0
M  V30 4010 H 372.204 2.14688 2.46123 0
M  V30 4011 H 370.863 3.56222 0.866106 0
M  V30 4012 H 370.511 3.76659 3.33372 0
M  V30 4013 H 370.211 5.31505 2.50552 0
M  V30 4014 H 371.735 5.06859 3.40479 0
M  V30 4015 H 373.149 5.60644 1.19795 0
M  V30 4016 H 371.546 5.98009 0.500552 0
M  V30 4017 H 372.616 4.83763 -0.331856 0
M  V30 4018 N 373.959 -0.0401083 1.57549 0
M  V30 4019 C 375.208 -0.732108 1.87944 0
M  V30 4020 C 375.521 -1.77107 0.830206 0
M  V30 4021 O 376.727 -2.51488 1.02302 0
M  V30 4022 C 375.183 -1.35315 3.33494 0
M  V30 4023 C 374.791 -0.351105 4.46622 0
M  V30 4024 C 376.535 -2.02566 3.73051 0
M  V30 4025 C 374.442 -0.979859 5.83226 0
M  V30 4026 H 373.372 -0.277188 0.701201 0
M  V30 4027 H 376.023 0.0138501 1.83495 0
M  V30 4028 H 374.405 -2.14844 3.32653 0
M  V30 4029 H 375.579 0.416674 4.58912 0
M  V30 4030 H 373.894 0.218708 4.15825 0
M  V30 4031 H 376.491 -2.50441 4.72423 0
M  V30 4032 H 376.834 -2.83904 3.04474 0
M  V30 4033 H 377.367 -1.29827 3.76018 0
M  V30 4034 H 374.106 -0.206135 6.55176 0
M  V30 4035 H 373.626 -1.71774 5.74677 0
M  V30 4036 H 375.305 -1.49046 6.29599 0
M  V30 4037 N 375.437 -1.54477 -0.31217 0
M  V30 4038 C 376.4 -1.83923 -1.36766 0
M  V30 4039 C 377.4 -0.711563 -1.44199 0
M  V30 4040 O 378.59 -0.979866 -1.44029 0
M  V30 4041 C 375.722 -2.0095 -2.75376 0
M  V30 4042 H 376.915 -2.78239 -1.11906 0
M  V30 4043 H 374.468 -1.46369 -0.548257 0
M  V30 4044 H 375.203 -1.08883 -3.05475 0
M  V30 4045 H 374.988 -2.83018 -2.71373 0
M  V30 4046 H 376.478 -2.2514 -3.51713 0
M  V30 4047 N 376.915 0.57481 -1.46744 0
M  V30 4048 C 378.331 0.898981 -1.31873 0
M  V30 4049 C 378.531 1.99313 -0.29605 0
M  V30 4050 O 377.587 2.50728 0.298621 0
M  V30 4051 C 378.9 1.30886 -2.7072 0
M  V30 4052 C 380.448 1.42127 -2.78871 0
M  V30 4053 C 380.923 1.86478 -4.18318 0
M  V30 4054 N 382.414 1.93658 -4.20774 0
M  V30 4055 C 383.149 2.29267 -5.2557 0
M  V30 4056 N 382.645 2.63612 -6.40688 0
M  V30 4057 N 384.438 2.29889 -5.1294 0
M  V30 4058 H 376.589 -0.147839 -2.11885 0
M  V30 4059 H 378.852 -0.00347013 -0.947994 0
M  V30 4060 H 378.558 0.578853 -3.46904 0
M  V30 4061 H 378.432 2.26874 -3.01343 0
M  V30 4062 H 380.819 2.14213 -2.0297 0
M  V30 4063 H 380.9 0.443705 -2.51922 0
M  V30 4064 H 380.544 1.14968 -4.94717 0
M  V30 4065 H 380.474 2.85207 -4.42679 0
M  V30 4066 H 382.965 1.69574 -3.37718 0
M  V30 4067 H 383.278 2.89759 -7.16421 0
M  V30 4068 H 381.623 2.61232 -6.44036 0
M  V30 4069 H 384.814 2.02485 -4.22039 0
M  V30 4070 H 384.987 2.57312 -5.94722 0
M  V30 4071 N 378.394 1.34581 0.820102 0
M  V30 4072 C 379.357 1.2628 1.91275 0
M  V30 4073 C 380.357 0.177344 1.59819 0
M  V30 4074 O 381.547 0.430156 1.68806 0
M  V30 4075 C 378.679 0.950327 3.27386 0
M  V30 4076 H 379.872 2.23421 2.00057 0
M  V30 4077 H 377.425 1.1891 1.0144 0
M  V30 4078 H 378.16 -0.0177938 3.24295 0
M  V30 4079 H 377.945 1.73549 3.51601 0
M  V30 4080 H 379.435 0.917492 4.07396 0
M  V30 4081 N 379.872 -1.04064 1.18357 0
M  V30 4082 C 381.118 -1.77528 0.980397 0
M  V30 4083 C 381.451 -1.87948 -0.48879 0
M  V30 4084 O 380.726 -1.3876 -1.36293 0
M  V30 4085 C 381.009 -3.20797 1.63588 0
M  V30 4086 C 380.862 -3.1832 3.17793 0
M  V30 4087 C 382.181 -4.18911 1.34914 0
M  V30 4088 H 379.3 -0.644443 0.357578 0
M  V30 4089 H 381.942 -1.2156 1.46024 0
M  V30 4090 H 380.092 -3.68586 1.22788 0
M  V30 4091 H 381.764 -2.78521 3.67728 0
M  V30 4092 H 380.007 -2.56351 3.49952 0
M  V30 4093 H 380.678 -4.19489 3.58794 0
M  V30 4094 H 383.154 -3.7967 1.70265 0
M  V30 4095 H 382.03 -5.17374 1.83346 0
M  V30 4096 H 382.291 -4.41262 0.272027 0
M  V30 4097 N 381.35 -0.985608 -1.22978 0
M  V30 4098 C 382.313 -0.535071 -2.22867 0
M  V30 4099 C 383.313 0.378123 -1.56291 0
M  V30 4100 O 384.503 0.171092 -1.73358 0
M  V30 4101 C 381.635 0.222702 -3.40172 0
M  V30 4102 H 382.828 -1.41835 -2.6424 0
M  V30 4103 H 380.381 -0.772042 -1.35901 0
M  V30 4104 H 381.116 1.12229 -3.04262 0
M  V30 4105 H 380.901 -0.43288 -3.89703 0
M  V30 4106 H 382.391 0.526335 -4.1427 0
M  V30 4107 N 382.828 1.3818 -0.7579 0
M  V30 4108 C 383.776 2.32277 -0.122482 0
M  V30 4109 C 384.77 1.54238 0.700505 0
M  V30 4110 O 385.976 1.69737 0.599119 0
M  V30 4111 H 382.351 0.751712 -0.0208143 0
M  V30 4112 H 384.322 2.83469 -0.932099 0
M  V30 4113 C 383.071 3.39447 0.753076 0
M  V30 4114 H 382.394 3.99591 0.129184 0
M  V30 4115 H 383.834 4.07684 1.16489 0
M  V30 4116 C 382.293 2.78375 1.8976 0
M  V30 4117 O 382.823 2.68025 2.99208 0
M  V30 4118 N 381.029 2.36121 1.69397 0
M  V30 4119 H 380.576 2.4474 0.803762 0
M  V30 4120 H 380.534 1.95602 2.46145 0
M  V30 4121 N 384.306 0.507319 1.49211 0
M  V30 4122 C 385.216 -0.272136 2.33016 0
M  V30 4123 C 386.232 -0.961206 1.45041 0
M  V30 4124 O 387.408 -0.941191 1.78055 0
M  V30 4125 C 384.473 -1.31895 3.20631 0
M  V30 4126 C 383.534 -0.642648 4.24463 0
M  V30 4127 C 382.767 -1.63959 5.07891 0
M  V30 4128 O 382.99 -2.87007 4.92933 0
M  V30 4129 O 381.924 -1.19143 5.8999 0
M  V30 4130 H 385.75 0.413982 3.00865 0
M  V30 4131 H 383.335 0.268556 1.46966 0
M  V30 4132 H 385.217 -1.92446 3.7489 0
M  V30 4133 H 383.892 -1.98788 2.5547 0
M  V30 4134 H 382.799 0.00276252 3.741 0
M  V30 4135 H 384.132 -0.0160534 4.92197 0
M  V30 4136 N 385.784 -1.5574 0.241426 0
M  V30 4137 C 387.012 -2.03208 -0.389134 0
M  V30 4138 C 387.427 -1.12082 -1.51931 0
M  V30 4139 O 386.784 -0.134183 -1.82006 0
M  V30 4140 C 386.835 -3.50064 -0.902087 0
M  V30 4141 O 386.556 -4.37717 0.18305 0
M  V30 4142 C 388.057 -4.13268 -1.60389 0
M  V30 4143 H 385.277 -0.664509 -0.0931053 0
M  V30 4144 H 387.821 -2.0124 0.36369 0
M  V30 4145 H 385.976 -3.52583 -1.60511 0
M  V30 4146 H 386.39 -5.24097 -0.205579 0
M  V30 4147 H 387.864 -5.17733 -1.91458 0
M  V30 4148 H 388.341 -3.59434 -2.52397 0
M  V30 4149 H 388.947 -4.14655 -0.945576 0
M  V30 4150 N 387.262 0.0317525 -1.57568 0
M  V30 4151 C 388.51 0.721676 -1.88776 0
M  V30 4152 C 388.831 1.76039 -0.838772 0
M  V30 4153 O 388.101 1.95482 0.127935 0
M  V30 4154 H 386.681 0.269534 -0.696678 0
M  V30 4155 H 389.343 -0.00165879 -1.949 0
M  V30 4156 H 388.439 1.21293 -2.87566 0
M  V30 4157 N 388.74 1.54641 0.303973 0
M  V30 4158 C 389.703 1.84646 1.35789 0
M  V30 4159 C 390.703 0.7192 1.4382 0
M  V30 4160 O 391.893 0.987491 1.43507 0
M  V30 4161 C 389.025 2.02407 2.74307 0
M  V30 4162 H 390.218 2.78829 1.10429 0
M  V30 4163 H 387.771 1.46658 0.540487 0
M  V30 4164 H 388.506 1.10502 3.04893 0
M  V30 4165 H 388.291 2.84453 2.69868 0
M  V30 4166 H 389.781 2.27002 3.50514 0
M  V30 4167 N 390.218 -0.567019 1.47046 0
M  V30 4168 C 391.465 -1.32462 1.53167 0
M  V30 4169 C 391.793 -1.93571 0.189841 0
M  V30 4170 O 391.048 -1.77865 -0.816243 0
M  V30 4171 C 391.347 -2.4623 2.59047 0
M  V30 4172 C 391.013 -2.03014 4.02612 0
M  V30 4173 C 389.675 -1.90944 4.41694 0
M  V30 4174 C 392.027 -1.69895 4.92732 0
M  V30 4175 C 389.355 -1.44035 5.68745 0
M  V30 4176 C 391.707 -1.2446 6.20236 0
M  V30 4177 C 390.371 -1.10979 6.5821 0
M  V30 4178 H 389.641 -0.484713 0.560477 0
M  V30 4179 H 392.288 -0.636888 1.80599 0
M  V30 4180 H 390.593 -3.20517 2.25335 0
M  V30 4181 H 392.29 -3.04427 2.61008 0
M  V30 4182 H 388.88 -2.13348 3.71726 0
M  V30 4183 H 393.064 -1.78098 4.63244 0
M  V30 4184 H 388.32 -1.32254 5.96925 0
M  V30 4185 H 392.494 -0.978924 6.89485 0
M  V30 4186 H 390.121 -0.744078 7.5655 0
M  V30 4187 N 391.696 -1.35014 -0.812953 0
M  V30 4188 C 392.943 -1.27931 -1.56971 0
M  V30 4189 C 393.271 0.148034 -1.93936 0
M  V30 4190 O 392.526 1.11175 -1.61054 0
M  V30 4191 C 392.825 -2.12524 -2.87347 0
M  V30 4192 C 392.491 -3.61401 -2.6963 0
M  V30 4193 C 391.153 -4.01983 -2.64506 0
M  V30 4194 C 393.505 -4.55894 -2.52607 0
M  V30 4195 C 390.833 -5.35235 -2.40293 0
M  V30 4196 C 393.185 -5.89336 -2.29925 0
M  V30 4197 C 391.849 -6.2907 -2.23219 0
M  V30 4198 H 391.119 -0.468131 -0.574399 0
M  V30 4199 H 393.766 -1.66851 -0.939836 0
M  V30 4200 H 392.071 -1.66463 -3.54679 0
M  V30 4201 H 393.768 -2.04383 -3.45005 0
M  V30 4202 H 390.358 -3.29193 -2.74463 0
M  V30 4203 H 394.542 -4.25431 -2.55583 0
M  V30 4204 H 389.798 -5.65028 -2.33566 0
M  V30 4205 H 393.972 -6.62139 -2.15743 0
M  V30 4206 H 391.599 -7.32256 -2.04219 0
M  V30 4207 N 393.175 1.03435 -1.18907 0
M  V30 4208 C 394.422 1.76743 -0.988334 0
M  V30 4209 C 394.75 1.88447 0.481441 0
M  V30 4210 O 394.005 1.39383 1.37371 0
M  V30 4211 C 394.304 3.19792 -1.59586 0
M  V30 4212 C 393.97 3.28108 -3.09283 0
M  V30 4213 C 392.632 3.30084 -3.5014 0
M  V30 4214 C 394.984 3.27696 -4.05296 0
M  V30 4215 C 392.312 3.29299 -4.85571 0
M  V30 4216 C 394.664 3.28451 -5.4065 0
M  V30 4217 C 393.328 3.28723 -5.80946 0
M  V30 4218 H 392.598 0.64675 -0.361657 0
M  V30 4219 H 395.245 1.21442 -1.48068 0
M  V30 4220 H 393.55 3.78136 -1.02568 0
M  V30 4221 H 395.247 3.75171 -1.41589 0
M  V30 4222 H 391.837 3.27294 -2.76725 0
M  V30 4223 H 396.021 3.25354 -3.74778 0
M  V30 4224 H 391.277 3.2783 -5.16079 0
M  V30 4225 H 395.451 3.27082 -6.14809 0
M  V30 4226 H 393.078 3.27868 -6.85862 0
M  V30 4227 N 394.653 0.992116 1.22453 0
M  V30 4228 C 395.583 0.561677 2.26644 0
M  V30 4229 C 396.564 -0.411055 1.65059 0
M  V30 4230 O 397.749 -0.301861 1.9184 0
M  V30 4231 C 394.879 -0.125247 3.47074 0
M  V30 4232 C 393.833 0.765948 4.21091 0
M  V30 4233 C 393.159 -0.0538484 5.34673 0
M  V30 4234 C 394.459 2.06242 4.79856 0
M  V30 4235 H 396.153 1.43259 2.62902 0
M  V30 4236 H 393.699 0.690283 1.26377 0
M  V30 4237 H 395.652 -0.437764 4.1912 0
M  V30 4238 H 394.376 -1.03069 3.0991 0
M  V30 4239 H 393.035 1.0621 3.50878 0
M  V30 4240 H 392.683 -0.960188 4.9375 0
M  V30 4241 H 392.383 0.539415 5.85119 0
M  V30 4242 H 393.907 -0.360477 6.09535 0
M  V30 4243 H 395.321 1.8139 5.43848 0
M  V30 4244 H 393.718 2.60444 5.40638 0
M  V30 4245 H 394.788 2.74167 3.99951 0
M  V30 4246 N 396.131 -1.37776 0.765217 0
M  V30 4247 C 397.38 -1.99092 0.323307 0
M  V30 4248 C 397.693 -1.61434 -1.10446 0
M  V30 4249 O 398.899 -2.15805 -1.64743 0
M  V30 4250 C 397.355 -3.56019 0.527098 0
M  V30 4251 C 396.963 -4.0262 1.96471 0
M  V30 4252 C 398.707 -4.2424 0.148483 0
M  V30 4253 C 396.614 -5.52233 2.11644 0
M  V30 4254 H 395.544 -0.744846 0.117137 0
M  V30 4255 H 398.195 -1.57391 0.943417 0
M  V30 4256 H 396.577 -3.95667 -0.162372 0
M  V30 4257 H 397.751 -3.74234 2.68859 0
M  V30 4258 H 396.066 -3.47161 2.29931 0
M  V30 4259 H 398.663 -5.34159 0.240456 0
M  V30 4260 H 399.006 -4.06446 -0.900422 0
M  V30 4261 H 399.539 -3.89872 0.79025 0
M  V30 4262 H 396.278 -5.74945 3.1483 0
M  V30 4263 H 395.798 -5.82324 1.4373 0
M  V30 4264 H 397.477 -6.18106 1.91193 0
M  V30 4265 N 397.609 -0.515225 -1.4894 0
M  V30 4266 C 398.557 0.269115 -2.31038 0
M  V30 4267 C 399.551 0.949443 -1.40292 0
M  V30 4268 O 400.757 0.87551 -1.57273 0
M  V30 4269 H 397.132 0.10565 -0.744542 0
M  V30 4270 H 399.103 -0.443096 -2.95092 0
M  V30 4271 C 397.852 1.31213 -3.21991 0
M  V30 4272 H 397.175 0.798034 -3.91754 0
M  V30 4273 H 398.615 1.83263 -3.82349 0
M  V30 4274 C 397.074 2.33791 -2.42576 0
M  V30 4275 O 397.604 3.3995 -2.14003 0
M  V30 4276 N 395.81 2.06625 -2.0434 0
M  V30 4277 H 395.357 1.20314 -2.27777 0
M  V30 4278 H 395.315 2.75483 -1.51514 0
M  V30 4279 N 399.087 1.5561 -0.249682 0
M  V30 4280 C 400.335 1.98618 0.373548 0
M  V30 4281 C 400.656 1.13919 1.58264 0
M  V30 4282 O 399.926 0.222637 1.94631 0
M  V30 4283 H 398.506 0.733571 0.141006 0
M  V30 4284 H 401.168 1.91748 -0.349117 0
M  V30 4285 H 400.264 3.04584 0.680796 0
M  V30 4286 N 400.565 -0.0233959 1.57583 0
M  V30 4287 C 401.976 -0.56927 1.77809 0
M  V30 4288 C 402.327 -1.75284 0.881472 0
M  V30 4289 O 401.452 -2.1626 0.0777805 0
M  V30 4290 C 402.047 -1.03949 3.22459 0
M  V30 4291 C 400.606 -1.53084 3.43864 0
M  V30 4292 C 399.753 -0.471454 2.73263 0
M  V30 4293 H 402.704 0.202825 1.57399 0
M  V30 4294 H 402.725 -1.90661 3.29285 0
M  V30 4295 H 402.237 -0.177865 3.87692 0
M  V30 4296 H 400.338 -2.41414 2.83814 0
M  V30 4297 H 400.451 -1.57443 4.52491 0
M  V30 4298 H 398.815 -0.927788 2.37201 0
M  V30 4299 H 399.598 0.380808 3.41181 0
M  V30 4300 N 402.043 -1.548 -0.295768 0
M  V30 4301 C 402.953 -1.89177 -1.38742 0
M  V30 4302 C 403.969 -0.786481 -1.55211 0
M  V30 4303 O 405.145 -1.08344 -1.69775 0
M  V30 4304 C 402.21 -2.13663 -2.73036 0
M  V30 4305 C 401.271 -3.37349 -2.65508 0
M  V30 4306 C 400.504 -3.60658 -3.93398 0
M  V30 4307 O 400.727 -2.86882 -4.93006 0
M  V30 4308 O 399.661 -4.54179 -3.94975 0
M  V30 4309 H 403.487 -2.82059 -1.12589 0
M  V30 4310 H 401.072 -1.41056 -0.492295 0
M  V30 4311 H 402.954 -2.3094 -3.52484 0
M  V30 4312 H 401.629 -1.23967 -2.99022 0
M  V30 4313 H 400.536 -3.25431 -1.84514 0
M  V30 4314 H 401.869 -4.27192 -2.44474 0
M  V30 4315 N 403.521 0.559213 -1.47345 0
M  V30 4316 C 404.77 1.31281 -1.53128 0
M  V30 4317 C 405.083 1.94602 -0.197344 0
M  V30 4318 O 406.289 2.71173 -0.133154 0
M  V30 4319 C 404.745 2.38051 -2.69925 0
M  V30 4320 C 404.353 1.8093 -4.0984 0
M  V30 4321 C 406.097 3.14604 -2.84999 0
M  V30 4322 C 404.004 2.85468 -5.1794 0
M  V30 4323 H 402.934 0.493614 -0.569966 0
M  V30 4324 H 405.585 0.594155 -1.73615 0
M  V30 4325 H 403.967 3.12822 -2.42814 0
M  V30 4326 H 405.141 1.12544 -4.46845 0
M  V30 4327 H 403.456 1.16967 -3.99634 0
M  V30 4328 H 406.053 3.92666 -3.62929 0
M  V30 4329 H 406.396 3.68665 -1.93369 0
M  V30 4330 H 406.929 2.46945 -3.1187 0
M  V30 4331 H 403.668 2.36264 -6.1144 0
M  V30 4332 H 403.188 3.52269 -4.85455 0
M  V30 4333 H 404.867 3.48996 -5.44803 0
M  V30 4334 N 404.999 1.35443 0.805782 0
M  V30 4335 C 405.932 1.22783 1.92353 0
M  V30 4336 C 406.91 0.115543 1.62189 0
M  V30 4337 O 408.094 0.283778 1.86352 0
M  V30 4338 C 405.221 0.890746 3.26777 0
M  V30 4339 C 404.267 2.01519 3.75889 0
M  V30 4340 S 405.1 3.63101 3.93596 0
M  V30 4341 C 406.256 3.31472 5.30921 0
M  V30 4342 H 406.489 2.17394 2.02798 0
M  V30 4343 H 404.022 1.20669 0.963245 0
M  V30 4344 H 405.98 0.703068 4.04434 0
M  V30 4345 H 404.641 -0.0373152 3.14078 0
M  V30 4346 H 403.834 1.7335 4.7325 0
M  V30 4347 H 403.436 2.16124 3.05231 0
M  V30 4348 H 405.728 2.8435 6.1494 0
M  V30 4349 H 406.671 4.28036 5.64084 0
M  V30 4350 H 407.079 2.67221 4.97246 0
M  V30 4351 N 406.477 -1.02803 1.19454 0
M  V30 4352 C 407.702 -1.80378 1.02364 0
M  V30 4353 C 408.127 -1.83282 -0.423007 0
M  V30 4354 O 407.485 -1.25945 -1.30413 0
M  V30 4355 C 407.533 -3.23248 1.59821 0
M  V30 4356 O 406.637 -4.04 0.828105 0
M  V30 4357 H 405.978 -0.556799 0.361761 0
M  V30 4358 H 408.508 -1.29385 1.58495 0
M  V30 4359 H 408.518 -3.73994 1.63073 0
M  V30 4360 H 407.193 -3.2045 2.65113 0
M  V30 4361 H 405.77 -3.62635 0.86891 0
M  V30 4362 N 407.956 -0.998596 -1.21925 0
M  V30 4363 C 408.903 -0.553621 -2.24062 0
M  V30 4364 C 409.873 0.416999 -1.6078 0
M  V30 4365 O 411.058 0.320482 -1.88089 0
M  V30 4366 C 408.198 0.119959 -3.44891 0
M  V30 4367 C 407.311 -0.893077 -4.22668 0
M  V30 4368 C 406.446 -0.192424 -5.30851 0
M  V30 4369 C 405.485 -1.19344 -6.00353 0
M  V30 4370 N 404.622 -0.520707 -7.00166 0
M  V30 4371 H 409.462 -1.4293 -2.61486 0
M  V30 4372 H 406.999 -0.715838 -1.28507 0
M  V30 4373 H 408.957 0.527459 -4.13852 0
M  V30 4374 H 407.587 0.959389 -3.08214 0
M  V30 4375 H 406.639 -1.41886 -3.52948 0
M  V30 4376 H 407.951 -1.65512 -4.70539 0
M  V30 4377 H 407.105 0.271515 -6.06092 0
M  V30 4378 H 405.844 0.602075 -4.83969 0
M  V30 4379 H 404.849 -1.66795 -5.23889 0
M  V30 4380 H 406.074 -1.98891 -6.49322 0
M  V30 4381 H 404.02 0.254252 -6.55507 0
M  V30 4382 H 403.937 -1.2211 -7.46073 0
M  V30 4383 H 405.205 -0.0797596 -7.79459 0
M  V30 4384 N 409.434 1.37368 -0.772513 0
M  V30 4385 C 410.364 2.32856 -0.173304 0
M  V30 4386 C 411.345 1.55818 0.682262 0
M  V30 4387 O 412.53 1.84052 0.619566 0
M  V30 4388 C 409.66 3.40048 0.706007 0
M  V30 4389 C 408.614 4.27973 -0.0483144 0
M  V30 4390 C 407.94 5.26184 0.950491 0
M  V30 4391 C 409.24 5.07665 -1.22776 0
M  V30 4392 H 410.934 2.83217 -0.971002 0
M  V30 4393 H 408.48 1.3617 -0.468377 0
M  V30 4394 H 410.433 4.05827 1.13501 0
M  V30 4395 H 409.157 2.88214 1.53623 0
M  V30 4396 H 407.816 3.63726 -0.458107 0
M  V30 4397 H 407.464 4.7063 1.77529 0
M  V30 4398 H 407.164 5.85872 0.450314 0
M  V30 4399 H 408.688 5.94838 1.37842 0
M  V30 4400 H 410.102 5.66578 -0.875366 0
M  V30 4401 H 408.499 5.76681 -1.66007 0
M  V30 4402 H 409.569 4.40294 -2.03149 0
M  V30 4403 N 410.912 0.523116 1.48665 0
M  V30 4404 C 411.875 -0.232592 2.28017 0
M  V30 4405 C 412.875 -0.874021 1.34972 0
M  V30 4406 O 414.065 -0.735132 1.57929 0
M  V30 4407 C 411.197 -1.33586 3.13636 0
M  V30 4408 H 412.39 0.464008 2.96289 0
M  V30 4409 H 409.943 0.278816 1.53793 0
M  V30 4410 H 410.678 -2.06593 2.4998 0
M  V30 4411 H 410.463 -0.881125 3.82071 0
M  V30 4412 H 411.953 -1.86759 3.73511 0
M  V30 4413 N 412.39 -1.55475 0.257931 0
M  V30 4414 C 413.638 -1.98813 -0.363009 0
M  V30 4415 C 413.959 -1.14757 -1.57657 0
M  V30 4416 O 413.229 -0.232956 -1.9451 0
M  V30 4417 H 411.809 -0.734308 -0.137113 0
M  V30 4418 H 414.471 -1.9156 0.359281 0
M  V30 4419 H 413.567 -3.04941 -0.664634 0
M  V30 4420 N 413.868 0.0150385 -1.57593 0
M  V30 4421 C 414.778 1.02791 -2.10882 0
M  V30 4422 C 415.794 1.38702 -1.0506 0
M  V30 4423 O 416.97 1.47739 -1.36877 0
M  V30 4424 C 414.035 2.30568 -2.58919 0
M  V30 4425 C 413.096 2.01108 -3.79281 0
M  V30 4426 C 412.329 3.22794 -4.25018 0
M  V30 4427 O 412.552 4.33959 -3.70183 0
M  V30 4428 O 411.486 3.07672 -5.17322 0
M  V30 4429 H 415.312 0.604973 -2.97613 0
M  V30 4430 H 412.897 0.23292 -1.47573 0
M  V30 4431 H 414.779 3.05662 -2.90084 0
M  V30 4432 H 413.454 2.72129 -1.75293 0
M  V30 4433 H 412.361 1.23537 -3.53114 0
M  V30 4434 H 413.694 1.64394 -4.63935 0
M  V30 4435 N 415.346 1.54954 0.287554 0
M  V30 4436 C 416.571 1.79209 1.04397 0
M  V30 4437 C 416.996 0.556431 1.79682 0
M  V30 4438 O 416.354 -0.493518 1.74454 0
M  V30 4439 C 416.402 3.00739 1.98969 0
M  V30 4440 O 415.506 2.74805 3.075 0
M  V30 4441 H 414.847 0.592755 0.299227 0
M  V30 4442 H 417.377 2.02068 0.320886 0
M  V30 4443 H 417.387 3.29077 2.4119 0
M  V30 4444 H 416.062 3.90329 1.43582 0
M  V30 4445 H 414.639 2.57523 2.69697 0
M  V30 4446 N 416.824 -0.551391 1.4764 0
M  V30 4447 C 417.734 -1.68525 1.63207 0
M  V30 4448 C 418.75 -1.6621 0.514815 0
M  V30 4449 O 419.926 -1.85551 0.783113 0
M  V30 4450 C 416.991 -3.05025 1.64805 0
M  V30 4451 C 416.052 -3.18362 2.88 0
M  V30 4452 C 415.285 -4.4835 2.89513 0
M  V30 4453 O 415.508 -5.34163 2.00065 0
M  V30 4454 O 414.442 -4.65602 3.81443 0
M  V30 4455 H 418.268 -1.58333 2.59161 0
M  V30 4456 H 415.853 -0.722063 1.30792 0
M  V30 4457 H 417.735 -3.86245 1.68502 0
M  V30 4458 H 416.41 -3.15587 0.720197 0
M  V30 4459 H 415.317 -2.36518 2.89845 0
M  V30 4460 H 416.65 -3.12707 3.80099 0
M  V30 4461 N 418.302 -1.35869 -0.798587 0
M  V30 4462 C 419.527 -1.32883 -1.59238 0
M  V30 4463 C 419.952 0.0894587 -1.87887 0
M  V30 4464 O 419.31 1.05869 -1.47178 0
M  V30 4465 C 419.358 -2.14892 -2.89575 0
M  V30 4466 O 418.462 -1.53512 -3.82763 0
M  V30 4467 H 417.803 -0.455236 -0.48338 0
M  V30 4468 H 420.333 -1.79024 -0.990539 0
M  V30 4469 H 420.343 -2.27139 -3.38928 0
M  V30 4470 H 419.018 -3.17998 -2.68049 0
M  V30 4471 H 417.595 -1.50153 -3.41334 0
M  V30 4472 N 419.78 1.02168 -1.19998 0
M  V30 4473 C 420.728 2.12717 -0.940967 0
M  V30 4474 C 421.722 1.69069 0.105841 0
M  V30 4475 O 422.928 1.79946 -0.0440583 0
M  V30 4476 H 419.303 0.695108 -0.28693 0
M  V30 4477 H 421.274 2.3175 -1.87975 0
M  V30 4478 C 420.023 3.44027 -0.504049 0
M  V30 4479 H 419.346 3.78036 -1.30112 0
M  V30 4480 H 420.786 4.22452 -0.361991 0
M  V30 4481 C 419.245 3.27678 0.782878 0
M  V30 4482 O 419.775 3.56949 1.84256 0
M  V30 4483 N 417.981 2.80943 0.742921 0
M  V30 4484 H 417.528 2.57322 -0.119687 0
M  V30 4485 H 417.486 2.70385 1.60435 0
M  V30 4486 N 421.258 1.00505 1.21394 0
M  V30 4487 C 422.188 0.585684 2.26035 0
M  V30 4488 C 423.169 -0.393525 1.65485 0
M  V30 4489 O 424.354 -0.281497 1.92149 0
M  V30 4490 C 421.484 -0.0884283 3.47187 0
M  V30 4491 C 420.438 0.810567 4.20254 0
M  V30 4492 C 419.764 0.00286382 5.347 0
M  V30 4493 C 421.064 2.1132 4.77641 0
M  V30 4494 H 422.758 1.46039 2.61368 0
M  V30 4495 H 420.304 0.703648 1.25638 0
M  V30 4496 H 422.257 -0.393286 4.19561 0
M  V30 4497 H 420.981 -0.997766 3.10986 0
M  V30 4498 H 419.64 1.09925 3.49731 0
M  V30 4499 H 419.288 -0.907765 4.94741 0
M  V30 4500 H 418.988 0.601444 5.84514 0
M  V30 4501 H 420.512 -0.295808 6.09883 0
M  V30 4502 H 421.926 1.87148 5.41893 0
M  V30 4503 H 420.323 2.66164 5.37845 0
M  V30 4504 H 421.393 2.78393 3.9702 0
M  V30 4505 N 422.737 -1.36956 0.779787 0
M  V30 4506 C 424.153 -1.52817 0.460342 0
M  V30 4507 C 424.353 -1.7361 -1.02283 0
M  V30 4508 O 423.409 -1.76207 -1.80852 0
M  V30 4509 C 424.722 -2.71983 1.28241 0
M  V30 4510 C 426.27 -2.85849 1.27512 0
M  V30 4511 C 426.745 -4.08008 2.08072 0
M  V30 4512 N 428.236 -4.15135 2.05467 0
M  V30 4513 C 428.971 -5.08711 2.64577 0
M  V30 4514 N 428.467 -6.07792 3.32506 0
M  V30 4515 N 430.26 -5.01254 2.54363 0
M  V30 4516 H 422.411 -1.21713 1.74068 0
M  V30 4517 H 424.674 -0.593294 0.739396 0
M  V30 4518 H 424.38 -2.63109 2.33381 0
M  V30 4519 H 424.254 -3.65882 0.917088 0
M  V30 4520 H 426.641 -2.94189 0.231686 0
M  V30 4521 H 426.722 -1.92886 1.68014 0
M  V30 4522 H 426.366 -4.00429 3.12441 0
M  V30 4523 H 426.296 -5.001 1.64947 0
M  V30 4524 H 428.787 -3.44189 1.5602 0
M  V30 4525 H 429.1 -6.75739 3.74963 0
M  V30 4526 H 427.445 -6.08047 3.36606 0
M  V30 4527 H 430.636 -4.22795 2.00902 0
M  V30 4528 H 430.809 -5.73995 3.00722 0
M  V30 4529 N 424.215 -0.530993 -1.48385 0
M  V30 4530 C 425.162 0.231223 -2.29639 0
M  V30 4531 C 426.132 0.932864 -1.37429 0
M  V30 4532 O 427.317 0.933692 -1.66394 0
M  V30 4533 C 424.457 1.27155 -3.2082 0
M  V30 4534 C 423.57 0.578655 -4.28107 0
M  V30 4535 C 422.705 1.602 -5.06467 0
M  V30 4536 C 421.744 0.892625 -6.05556 0
M  V30 4537 N 420.881 1.86157 -6.76971 0
M  V30 4538 H 425.721 -0.467848 -2.94305 0
M  V30 4539 H 423.258 -0.242556 -1.45086 0
M  V30 4540 H 425.216 1.88703 -3.72085 0
M  V30 4541 H 423.846 1.939 -2.58075 0
M  V30 4542 H 422.898 -0.150782 -3.80101 0
M  V30 4543 H 424.21 0.0217065 -4.98795 0
M  V30 4544 H 423.364 2.29173 -5.61751 0
M  V30 4545 H 422.103 2.19285 -4.35621 0
M  V30 4546 H 421.108 0.188829 -5.49476 0
M  V30 4547 H 422.333 0.307878 -6.78402 0
M  V30 4548 H 420.279 2.44147 -6.08875 0
M  V30 4549 H 420.196 1.35608 -7.43738 0
M  V30 4550 H 421.464 2.54325 -7.36844 0
M  V30 4551 N 425.693 1.55336 -0.266172 0
M  V30 4552 C 426.656 2.20878 0.612001 0
M  V30 4553 C 427.656 1.18388 1.08816 0
M  V30 4554 O 428.846 1.4335 0.989774 0
M  V30 4555 C 425.978 2.86765 1.84332 0
M  V30 4556 H 427.171 2.99873 0.0398718 0
M  V30 4557 H 424.724 1.56291 -0.0167309 0
M  V30 4558 H 425.459 2.11759 2.45619 0
M  V30 4559 H 425.244 3.61862 1.5099 0
M  V30 4560 H 426.734 3.36867 2.46801 0
M  V30 4561 N 427.171 -0.0066808 1.57599 0
M  V30 4562 C 428.418 -0.69292 1.90276 0
M  V30 4563 C 428.746 -1.74148 0.866192 0
M  V30 4564 O 428.001 -1.95268 -0.129933 0
M  V30 4565 C 428.3 -1.37939 3.29708 0
M  V30 4566 C 427.966 -0.464679 4.48499 0
M  V30 4567 C 426.628 -0.212809 4.80729 0
M  V30 4568 C 428.98 0.16551 5.20937 0
M  V30 4569 C 426.308 0.677653 5.82773 0
M  V30 4570 C 428.66 1.04381 6.23929 0
M  V30 4571 C 427.324 1.30492 6.54621 0
M  V30 4572 H 426.594 -0.253558 0.696268 0
M  V30 4573 H 429.241 0.0474123 1.91441 0
M  V30 4574 H 427.546 -2.1936 3.24636 0
M  V30 4575 H 429.243 -1.9163 3.52249 0
M  V30 4576 H 425.833 -0.671153 4.23313 0
M  V30 4577 H 430.017 -0.0160756 4.96297 0
M  V30 4578 H 425.273 0.88803 6.04917 0
M  V30 4579 H 429.447 1.53851 6.79193 0
M  V30 4580 H 427.074 1.99662 7.33512 0
M  V30 4581 N 428.649 -1.55105 -0.279332 0
M  V30 4582 C 429.559 -1.90638 -1.36727 0
M  V30 4583 C 430.575 -0.802899 -1.54368 0
M  V30 4584 O 431.751 -1.10138 -1.68616 0
M  V30 4585 C 428.816 -2.16547 -2.70755 0
M  V30 4586 C 427.877 -3.40146 -2.61915 0
M  V30 4587 C 427.11 -3.6481 -3.8955 0
M  V30 4588 O 427.333 -2.92095 -4.89935 0
M  V30 4589 O 426.267 -4.58343 -3.90135 0
M  V30 4590 H 430.093 -2.83237 -1.09591 0
M  V30 4591 H 427.678 -1.4157 -0.477306 0
M  V30 4592 H 429.56 -2.34665 -3.50014 0
M  V30 4593 H 428.235 -1.27131 -2.9769 0
M  V30 4594 H 427.142 -3.2737 -1.81052 0
M  V30 4595 H 428.475 -4.29761 -2.3993 0
M  V30 4596 N 430.127 0.543554 -1.4793 0
M  V30 4597 C 431.037 1.67657 -1.64098 0
M  V30 4598 C 432.053 1.65934 -0.523622 0
M  V30 4599 O 433.229 1.85133 -0.792943 0
M  V30 4600 C 430.294 3.04146 -1.66421 0
M  V30 4601 C 429.355 3.16831 -2.89684 0
M  V30 4602 C 428.588 4.46809 -2.91886 0
M  V30 4603 O 428.811 5.33095 -2.02895 0
M  V30 4604 O 427.745 4.63573 -3.83906 0
M  V30 4605 H 431.571 1.56957 -2.59997 0
M  V30 4606 H 429.156 0.715116 -1.31173 0
M  V30 4607 H 431.038 3.85346 -1.70548 0
M  V30 4608 H 429.713 3.152 -0.736923 0
M  V30 4609 H 428.62 2.34977 -2.91095 0
M  V30 4610 H 429.953 3.10687 -3.81752 0
M  V30 4611 N 431.605 1.3629 0.791371 0
M  V30 4612 C 432.568 1.30309 1.88553 0
M  V30 4613 C 433.568 0.211204 1.59407 0
M  V30 4614 O 434.758 0.465865 1.67855 0
M  V30 4615 C 431.89 1.01956 3.25297 0
M  V30 4616 H 433.083 2.27614 1.95273 0
M  V30 4617 H 430.636 1.21035 0.988953 0
M  V30 4618 H 431.371 0.050998 3.2426 0
M  V30 4619 H 431.156 1.80968 3.4784 0
M  V30 4620 H 432.646 1.0037 4.05359 0
M  V30 4621 N 433.083 -1.0153 1.20538 0
M  V30 4622 C 433.993 -2.13557 0.971113 0
M  V30 4623 C 435.009 -1.73845 -0.0734366 0
M  V30 4624 O 436.185 -2.01075 0.114299 0
M  V30 4625 C 433.25 -3.42661 0.527639 0
M  V30 4626 C 432.311 -3.96608 1.64319 0
M  V30 4627 C 431.544 -5.1955 1.22078 0
M  V30 4628 O 431.767 -5.70329 0.0900198 0
M  V30 4629 O 430.701 -5.66681 2.02871 0
M  V30 4630 H 434.527 -2.3619 1.90913 0
M  V30 4631 H 432.112 -1.11946 0.989362 0
M  V30 4632 H 433.994 -4.20404 0.289621 0
M  V30 4633 H 432.669 -3.21441 -0.381779 0
M  V30 4634 H 431.576 -3.20139 1.93551 0
M  V30 4635 H 432.909 -4.22219 2.52966 0
M  V30 4636 N 434.561 -1.01147 -1.20859 0
M  V30 4637 C 435.508 -0.577354 -2.23462 0
M  V30 4638 C 436.478 0.399922 -1.61214 0
M  V30 4639 O 437.663 0.300515 -1.88419 0
M  V30 4640 C 434.803 0.083372 -3.44999 0
M  V30 4641 C 433.916 -0.937856 -4.21697 0
M  V30 4642 C 433.051 -0.248717 -5.30617 0
M  V30 4643 C 432.09 -1.25705 -5.99053 0
M  V30 4644 N 431.227 -0.594939 -6.99575 0
M  V30 4645 H 436.067 -1.45695 -2.59956 0
M  V30 4646 H 433.604 -0.729428 -1.27741 0
M  V30 4647 H 435.562 0.483535 -4.14388 0
M  V30 4648 H 434.192 0.926645 -3.09214 0
M  V30 4649 H 433.244 -1.45622 -3.51423 0
M  V30 4650 H 434.556 -1.70493 -4.68757 0
M  V30 4651 H 433.71 0.207215 -6.06346 0
M  V30 4652 H 432.449 0.55071 -4.84581 0
M  V30 4653 H 431.454 -1.72343 -5.2209 0
M  V30 4654 H 432.679 -2.05767 -6.47176 0
M  V30 4655 H 430.625 0.184713 -6.5574 0
M  V30 4656 H 430.542 -1.30017 -7.44736 0
M  V30 4657 H 431.81 -0.162427 -7.79331 0
M  V30 4658 N 436.039 1.36541 -0.78704 0
M  V30 4659 C 436.987 2.31965 -0.171724 0
M  V30 4660 C 437.981 1.55689 0.667631 0
M  V30 4661 O 439.187 1.70969 0.562981 0
M  V30 4662 H 435.562 0.751101 -0.0367545 0
M  V30 4663 H 437.533 2.81428 -0.992017 0
M  V30 4664 C 436.282 3.40968 0.680904 0
M  V30 4665 H 435.605 3.99775 0.0443961 0
M  V30 4666 H 437.045 4.10063 1.07815 0
M  V30 4667 C 435.504 2.82338 1.83813 0
M  V30 4668 O 436.034 2.74311 2.93456 0
M  V30 4669 N 434.24 2.39661 1.6435 0
M  V30 4670 H 433.787 2.46389 0.751668 0
M  V30 4671 H 433.745 2.00779 2.4194 0
M  V30 4672 N 437.518 0.538854 1.48102 0
M  V30 4673 C 438.481 -0.208395 2.28251 0
M  V30 4674 C 439.481 -0.859656 1.35892 0
M  V30 4675 O 440.671 -0.71834 1.58699 0
M  V30 4676 C 437.803 -1.30252 3.15035 0
M  V30 4677 H 438.996 0.495407 2.9578 0
M  V30 4678 H 436.549 0.295112 1.53489 0
M  V30 4679 H 437.284 -2.0393 2.52157 0
M  V30 4680 H 437.069 -0.840551 3.82985 0
M  V30 4681 H 438.559 -1.82787 3.75471 0
M  V30 4682 N 438.996 -1.55193 0.274407 0
M  V30 4683 C 440.407 -1.85358 -0.223488 0
M  V30 4684 C 440.758 -1.19642 -1.555 0
M  V30 4685 O 439.883 -0.484498 -2.10907 0
M  V30 4686 C 440.478 -3.36282 -0.412285 0
M  V30 4687 C 439.037 -3.66574 -0.854413 0
M  V30 4688 C 438.184 -2.7725 0.0527056 0
M  V30 4689 H 441.135 -1.50743 0.496215 0
M  V30 4690 H 441.156 -3.59349 -1.25094 0
M  V30 4691 H 440.668 -3.84083 0.556965 0
M  V30 4692 H 438.769 -3.24273 -1.83516 0
M  V30 4693 H 438.882 -4.74073 -0.692226 0
M  V30 4694 H 437.246 -2.50447 -0.463484 0
M  V30 4695 H 438.029 -3.27865 1.01783 0
M  V30 4696 N 440.474 -0.00167713 -1.576 0
M  V30 4697 C 441.437 0.974046 -2.07473 0
M  V30 4698 C 442.437 1.27143 -0.984444 0
M  V30 4699 O 443.627 1.21633 -1.24703 0
M  V30 4700 C 440.759 2.29849 -2.51759 0
M  V30 4701 H 441.952 0.54262 -2.9495 0
M  V30 4702 H 439.505 0.245829 -1.54355 0
M  V30 4703 H 440.24 2.77677 -1.67529 0
M  V30 4704 H 440.025 2.09584 -3.31386 0
M  V30 4705 H 441.515 2.9984 -2.90664 0
M  V30 4706 N 441.952 1.55251 0.271103 0
M  V30 4707 C 443.201 1.75151 1.00025 0
M  V30 4708 C 443.514 0.561041 1.87381 0
M  V30 4709 O 444.72 0.642506 2.63788 0
M  V30 4710 C 443.176 3.09999 1.82835 0
M  V30 4711 C 442.784 4.3662 1.00336 0
M  V30 4712 C 444.528 3.39249 2.55168 0
M  V30 4713 C 442.435 5.62506 1.82595 0
M  V30 4714 H 441.365 0.652877 0.377183 0
M  V30 4715 H 444.016 1.81708 0.255843 0
M  V30 4716 H 442.398 2.97485 2.61378 0
M  V30 4717 H 443.572 4.60055 0.261959 0
M  V30 4718 H 441.887 4.14527 0.394486 0
M  V30 4719 H 444.484 4.3051 3.1712 0
M  V30 4720 H 444.827 2.59467 3.2555 0
M  V30 4721 H 445.36 3.52869 1.83653 0
M  V30 4722 H 442.099 6.45041 1.16631 0
M  V30 4723 H 441.619 5.43211 2.54327 0
M  V30 4724 H 443.298 6.00875 2.39913 0
M  V30 4725 N 443.43 -0.535701 1.48216 0
M  V30 4726 C 444.679 -1.28828 1.55197 0
M  V30 4727 C 444.992 -1.94263 0.228278 0
M  V30 4728 O 446.198 -2.70927 0.176278 0
M  V30 4729 C 444.654 -2.33727 2.73678 0
M  V30 4730 C 444.262 -1.74386 4.12666 0
M  V30 4731 C 446.006 -3.1003 2.89968 0
M  V30 4732 C 443.913 -2.77192 5.22416 0
M  V30 4733 H 442.843 -0.484484 0.577747 0
M  V30 4734 H 445.494 -0.56646 1.74538 0
M  V30 4735 H 443.876 -3.08919 2.4776 0
M  V30 4736 H 445.05 -1.05421 4.48579 0
M  V30 4737 H 443.365 -1.10595 4.01445 0
M  V30 4738 H 445.962 -3.86842 3.6913 0
M  V30 4739 H 446.305 -3.65542 1.9921 0
M  V30 4740 H 446.838 -2.41952 3.15759 0
M  V30 4741 H 443.577 -2.26507 6.15122 0
M  V30 4742 H 443.097 -3.44502 4.90998 0
M  V30 4743 H 444.776 -3.40285 5.50286 0
M  V30 4744 N 444.908 -1.36708 -0.784132 0
M  V30 4745 C 446.155 -1.31231 -1.54222 0
M  V30 4746 C 446.483 0.106864 -1.94206 0
M  V30 4747 O 445.738 1.07734 -1.63376 0
M  V30 4748 C 446.037 -2.18571 -2.82774 0
M  V30 4749 C 445.703 -3.67039 -2.61903 0
M  V30 4750 C 444.365 -4.07503 -2.55919 0
M  V30 4751 C 446.717 -4.61149 -2.4288 0
M  V30 4752 C 444.045 -5.40211 -2.28886 0
M  V30 4753 C 446.397 -5.94081 -2.17373 0
M  V30 4754 C 445.061 -6.33664 -2.09825 0
M  V30 4755 H 444.331 -0.48021 -0.56434 0
M  V30 4756 H 446.978 -1.68807 -0.904233 0
M  V30 4757 H 445.283 -1.73949 -3.51068 0
M  V30 4758 H 446.98 -2.11655 -3.40592 0
M  V30 4759 H 443.57 -3.34941 -2.67418 0
M  V30 4760 H 447.754 -4.30756 -2.46501 0
M  V30 4761 H 443.01 -5.69855 -2.21529 0
M  V30 4762 H 447.184 -6.66566 -2.01649 0
M  V30 4763 H 444.811 -7.36423 -1.88641 0
M  V30 4764 N 446.386 1.0089 -1.21074 0
M  V30 4765 C 447.635 1.74019 -1.01981 0
M  V30 4766 C 447.948 1.90408 0.447665 0
M  V30 4767 O 449.154 2.60707 0.757906 0
M  V30 4768 C 447.61 3.13026 -1.77603 0
M  V30 4769 C 447.218 3.04623 -3.28495 0
M  V30 4770 C 448.962 3.90312 -1.66904 0
M  V30 4771 C 446.869 4.38685 -3.96623 0
M  V30 4772 H 445.799 0.652422 -0.377971 0
M  V30 4773 H 448.45 1.12755 -1.44771 0
M  V30 4774 H 446.832 3.74878 -1.27604 0
M  V30 4775 H 448.006 2.52032 -3.85767 0
M  V30 4776 H 446.321 2.40827 -3.39693 0
M  V30 4777 H 448.918 4.8951 -2.15138 0
M  V30 4778 H 449.261 4.11558 -0.62658 0
M  V30 4779 H 449.794 3.35104 -2.14359 0
M  V30 4780 H 446.533 4.22641 -5.01054 0
M  V30 4781 H 446.053 4.91252 -3.4414 0
M  V30 4782 H 447.732 5.075 -4.01314 0
M  V30 4783 N 447.864 1.01787 1.20321 0
M  V30 4784 C 449.141 0.622978 1.85414 0
M  V30 4785 C 449.521 -0.898887 1.91006 0
M  V30 4786 O 448.869 -1.79112 1.41884 0
M  V30 4787 C 449.079 1.27226 3.24984 0
M  V30 4788 C 450.427 1.3885 4.01255 0
M  V30 4789 O 451.451 1.22857 3.34342 0
M  V30 4790 O 450.31 1.64705 5.2109 0
M  V30 4791 H 447.404 0.215116 0.798533 0
M  V30 4792 H 449.95 1.11533 1.27901 0
M  V30 4793 H 448.722 2.31209 3.15687 0
M  V30 4794 H 448.345 0.767069 3.90131 0
M  V30 4795 N 449.342 -1.36122 0.79427 0
M  V30 4796 C 450.252 -2.33769 0.197296 0
M  V30 4797 C 451.268 -1.61276 -0.653153 0
M  V30 4798 O 452.444 -1.9323 -0.5678 0
M  V30 4799 C 449.509 -3.40474 -0.654098 0
M  V30 4800 C 448.57 -4.28759 0.215411 0
M  V30 4801 C 447.803 -5.30368 -0.595443 0
M  V30 4802 O 448.026 -5.40211 -1.83107 0
M  V30 4803 O 446.96 -6.019 0.00721351 0
M  V30 4804 H 450.786 -2.86597 1.00478 0
M  V30 4805 H 448.371 -1.38676 0.555818 0
M  V30 4806 H 450.253 -4.05703 -1.13944 0
M  V30 4807 H 448.928 -2.89937 -1.43938 0
M  V30 4808 H 447.835 -3.66554 0.747615 0
M  V30 4809 H 449.168 -4.82661 0.964332 0
M  V30 4810 N 450.82 -0.546701 -1.47814 0
M  V30 4811 C 451.75 0.195317 -2.32682 0
M  V30 4812 C 452.731 0.918981 -1.43139 0
M  V30 4813 O 453.916 0.901501 -1.72008 0
M  V30 4814 C 451.046 1.23237 -3.247 0
M  V30 4815 C 450 0.625818 -4.234 0
M  V30 4816 C 449.326 1.76674 -5.04669 0
M  V30 4817 C 450.626 -0.413515 -5.2066 0
M  V30 4818 H 452.32 -0.513184 -2.94969 0
M  V30 4819 H 449.866 -0.248241 -1.41844 0
M  V30 4820 H 451.819 1.75955 -3.82907 0
M  V30 4821 H 450.543 1.97067 -2.60446 0
M  V30 4822 H 449.202 0.120023 -3.66403 0
M  V30 4823 H 448.85 2.49383 -4.36826 0
M  V30 4824 H 448.55 1.36673 -5.71484 0
M  V30 4825 H 450.074 2.29738 -5.65732 0
M  V30 4826 H 451.488 0.0272042 -5.73294 0
M  V30 4827 H 449.885 -0.731825 -5.95621 0
M  V30 4828 H 450.955 -1.31325 -4.66778 0
M  V30 4829 N 452.299 1.55045 -0.282633 0
M  V30 4830 C 453.576 1.9179 0.384166 0
M  V30 4831 C 453.956 1.20778 1.73136 0
M  V30 4832 O 453.304 0.33719 2.25998 0
M  V30 4833 C 453.514 3.45149 0.517014 0
M  V30 4834 C 454.862 4.17064 0.796427 0
M  V30 4835 O 455.886 3.51084 0.601535 0
M  V30 4836 O 454.745 5.33837 1.16962 0
M  V30 4837 H 451.839 0.799483 0.211558 0
M  V30 4838 H 454.385 1.66474 -0.32934 0
M  V30 4839 H 453.157 3.88922 -0.430772 0
M  V30 4840 H 452.78 3.76443 1.2797 0
M  V30 4841 N 453.777 0.010035 1.57597 0
M  V30 4842 C 454.74 -0.963029 2.07986 0
M  V30 4843 C 455.74 -1.26619 0.991173 0
M  V30 4844 O 456.93 -1.2097 1.25347 0
M  V30 4845 C 454.062 -2.2851 2.52974 0
M  V30 4846 H 455.255 -0.526971 2.95234 0
M  V30 4847 H 452.808 -0.237639 1.54483 0
M  V30 4848 H 453.543 -2.76784 1.69 0
M  V30 4849 H 453.328 -2.07824 3.32493 0
M  V30 4850 H 454.818 -2.98294 2.9225 0
M  V30 4851 N 455.255 -1.55392 -0.262866 0
M  V30 4852 C 456.504 -1.75679 -0.990943 0
M  V30 4853 C 456.817 -0.57097 -1.87081 0
M  V30 4854 O 458.023 -0.656486 -2.63444 0
M  V30 4855 C 456.479 -3.10964 -1.81188 0
M  V30 4856 C 456.087 -4.37146 -0.980188 0
M  V30 4857 C 457.831 -3.40597 -2.53365 0
M  V30 4858 C 455.738 -5.63466 -1.7961 0
M  V30 4859 H 454.668 -0.654868 -0.373716 0
M  V30 4860 H 457.319 -1.81841 -0.246203 0
M  V30 4861 H 455.701 -2.98867 -2.59797 0
M  V30 4862 H 456.875 -4.60187 -0.237558 0
M  V30 4863 H 455.19 -4.14731 -0.372497 0
M  V30 4864 H 457.787 -4.32186 -3.14833 0
M  V30 4865 H 458.13 -2.6119 -3.24169 0
M  V30 4866 H 458.663 -3.53838 -1.81779 0
M  V30 4867 H 455.402 -6.4565 -1.13209 0
M  V30 4868 H 454.922 -5.44552 -2.51443 0
M  V30 4869 H 456.601 -6.02139 -2.36723 0
M  V30 4870 N 456.733 0.527833 -1.48498 0
M  V30 4871 C 457.696 1.61439 -1.62696 0
M  V30 4872 C 458.696 1.52824 -0.500136 0
M  V30 4873 O 459.886 1.56456 -0.765976 0
M  V30 4874 C 457.018 3.01063 -1.59918 0
M  V30 4875 H 458.211 1.50189 -2.59583 0
M  V30 4876 H 455.764 0.750055 -1.37127 0
M  V30 4877 H 456.499 3.17818 -0.645163 0
M  V30 4878 H 456.284 3.08725 -2.41726 0
M  V30 4879 H 457.774 3.80057 -1.73051 0
M  V30 4880 N 458.211 1.37122 0.776871 0
M  V30 4881 C 459.622 1.28667 1.35284 0
M  V30 4882 C 459.973 -0.0680035 1.96082 0
M  V30 4883 O 459.098 -0.969743 1.93455 0
M  V30 4884 C 459.693 2.32997 2.45963 0
M  V30 4885 C 458.252 2.28191 2.99342 0
M  V30 4886 C 457.399 2.17101 1.72517 0
M  V30 4887 H 460.35 1.47819 0.577527 0
M  V30 4888 H 460.371 1.97366 3.2531 0
M  V30 4889 H 459.883 3.3158 2.01684 0
M  V30 4890 H 457.984 1.33115 3.4801 0
M  V30 4891 H 458.097 3.21397 3.55304 0
M  V30 4892 H 456.461 1.63562 1.95242 0
M  V30 4893 H 457.244 3.17591 1.30348 0
M  V30 4894 N 459.689 -1.00246 1.21608 0
M  V30 4895 C 460.636 -2.09073 0.977613 0
M  V30 4896 C 461.606 -1.65815 -0.097297 0
M  V30 4897 O 462.791 -1.90734 0.0503445 0
M  V30 4898 C 459.931 -3.40671 0.551133 0
M  V30 4899 C 459.044 -3.97326 1.69576 0
M  V30 4900 C 458.179 -5.17043 1.2182 0
M  V30 4901 C 457.218 -5.65813 2.335 0
M  V30 4902 N 456.355 -6.76778 1.86859 0
M  V30 4903 H 461.195 -2.28806 1.90924 0
M  V30 4904 H 458.732 -1.12186 0.951452 0
M  V30 4905 H 460.69 -4.16225 0.285097 0
M  V30 4906 H 459.32 -3.20967 -0.343489 0
M  V30 4907 H 458.372 -3.18734 2.07637 0
M  V30 4908 H 459.684 -4.29511 2.53617 0
M  V30 4909 H 458.838 -5.99852 0.908975 0
M  V30 4910 H 457.577 -4.86458 0.347869 0
M  V30 4911 H 456.582 -4.81599 2.65222 0
M  V30 4912 H 457.807 -5.98427 3.21033 0
M  V30 4913 H 455.753 -6.47994 1.02174 0
M  V30 4914 H 455.67 -7.08231 2.64471 0
M  V30 4915 H 456.938 -7.63116 1.58978 0
M  V30 4916 N 461.167 -1.02423 -1.1978 0
M  V30 4917 C 462.583 -0.740459 -1.41384 0
M  V30 4918 C 462.783 0.676827 -1.89793 0
M  V30 4919 O 461.839 1.4435 -2.0717 0
M  V30 4920 C 463.152 -1.77264 -2.42895 0
M  V30 4921 C 464.7 -1.79165 -2.56649 0
M  V30 4922 C 465.175 -2.8133 -3.6141 0
M  V30 4923 N 466.666 -2.80118 -3.68901 0
M  V30 4924 C 467.401 -3.55824 -4.49641 0
M  V30 4925 N 466.897 -4.41231 -5.34123 0
M  V30 4926 N 468.69 -3.44387 -4.44246 0
M  V30 4927 H 460.841 -1.9391 -0.866764 0
M  V30 4928 H 463.104 -0.838074 -0.443098 0
M  V30 4929 H 462.81 -2.7884 -2.14339 0
M  V30 4930 H 462.684 -1.59108 -3.42001 0
M  V30 4931 H 465.071 -0.782702 -2.84531 0
M  V30 4932 H 465.152 -2.01396 -1.57713 0
M  V30 4933 H 464.796 -3.82394 -3.34271 0
M  V30 4934 H 464.726 -2.56359 -4.59986 0
M  V30 4935 H 467.217 -2.1817 -3.08562 0
M  V30 4936 H 467.53 -4.95747 -5.92836 0
M  V30 4937 H 465.875 -4.45306 -5.33599 0
M  V30 4938 H 469.066 -2.7708 -3.77285 0
M  V30 4939 H 469.239 -4.0364 -5.06931 0
M  V30 4940 N 462.645 1.35699 -0.801477 0
M  V30 4941 C 463.555 2.33661 -0.209691 0
M  V30 4942 C 464.571 1.6162 0.644591 0
M  V30 4943 O 465.747 1.93529 0.557545 0
M  V30 4944 C 462.812 3.40816 0.636033 0
M  V30 4945 C 461.873 4.28639 -0.238147 0
M  V30 4946 C 461.106 5.30676 0.567307 0
M  V30 4947 O 461.329 5.41174 1.8024 0
M  V30 4948 O 460.263 6.01887 -0.0391336 0
M  V30 4949 H 464.089 2.8606 -1.01996 0
M  V30 4950 H 461.674 1.38379 -0.563164 0
M  V30 4951 H 463.556 4.06301 1.11791 0
M  V30 4952 H 462.231 2.90696 1.42399 0
M  V30 4953 H 461.138 3.66152 -0.767044 0
M  V30 4954 H 462.471 4.82143 -0.989915 0
M  V30 4955 N 464.123 0.554532 1.47522 0
M  V30 4956 C 465.07 -0.19466 2.29978 0
M  V30 4957 C 466.04 -0.910882 1.38896 0
M  V30 4958 O 467.225 -0.907102 1.67858 0
M  V30 4959 C 464.365 -1.22035 3.22802 0
M  V30 4960 C 463.478 -0.510474 4.28973 0
M  V30 4961 C 462.613 -1.52123 5.08952 0
M  V30 4962 C 461.652 -0.796173 6.069 0
M  V30 4963 N 460.789 -1.75363 6.79847 0
M  V30 4964 H 465.629 0.51461 2.93523 0
M  V30 4965 H 463.166 0.265607 1.44682 0
M  V30 4966 H 465.124 -1.8276 3.7504 0
M  V30 4967 H 463.754 -1.89769 2.61127 0
M  V30 4968 H 462.806 0.211234 3.79813 0
M  V30 4969 H 464.118 0.0576503 4.98767 0
M  V30 4970 H 463.272 -2.20207 5.65326 0
M  V30 4971 H 462.011 -2.12327 4.39054 0
M  V30 4972 H 461.016 -0.101388 5.49707 0
M  V30 4973 H 462.241 -0.199911 6.78806 0
M  V30 4974 H 460.187 -2.3443 6.12682 0
M  V30 4975 H 460.104 -1.23759 7.45801 0
M  V30 4976 H 461.372 -2.4257 7.40797 0
M  V30 4977 N 465.601 -1.54893 0.290851 0
M  V30 4978 C 466.829 -2.04343 -0.324288 0
M  V30 4979 C 467.244 -1.16859 -1.48289 0
M  V30 4980 O 466.601 -0.192018 -1.81487 0
M  V30 4981 C 466.652 -3.52756 -0.79026 0
M  V30 4982 O 466.373 -4.36913 0.322213 0
M  V30 4983 C 467.874 -4.18161 -1.4716 0
M  V30 4984 H 465.094 -0.667135 -0.0719173 0
M  V30 4985 H 467.638 -1.99981 0.427529 0
M  V30 4986 H 465.793 -3.57511 -1.49213 0
M  V30 4987 H 466.207 -5.24486 -0.0387372 0
M  V30 4988 H 467.681 -5.23562 -1.7489 0
M  V30 4989 H 468.158 -3.67282 -2.40834 0
M  V30 4990 H 468.764 -4.17454 -0.813178 0
M  V30 4991 N 467.08 -0.0183926 -1.57589 0
M  V30 4992 C 468.03 0.975944 -2.06057 0
M  V30 4993 C 469.014 1.29204 -0.958908 0
M  V30 4994 O 470.206 1.27995 -1.22255 0
M  V30 4995 C 467.335 2.26194 -2.58247 0
M  V30 4996 C 466.421 1.97467 -3.75323 0
M  V30 4997 N 466.812 1.38968 -4.86335 0
M  V30 4998 C 465.11 2.27515 -3.83605 0
M  V30 4999 C 465.811 1.27131 -5.67638 0
M  V30 5000 N 464.787 1.76319 -5.14211 0
M  V30 5001 H 468.589 0.518444 -2.89291 0
M  V30 5002 H 466.103 0.18688 -1.61321 0
M  V30 5003 H 468.1 2.98289 -2.91255 0
M  V30 5004 H 466.76 2.7258 -1.76438 0
M  V30 5005 H 467.771 1.06608 -5.06809 0
M  V30 5006 H 464.448 2.76649 -3.12684 0
M  V30 5007 H 465.838 0.819882 -6.66879 0
M  V30 5008 N 468.558 1.5553 0.254621 0
M  V30 5009 C 469.806 1.7665 0.981793 0
M  V30 5010 C 470.127 0.580963 1.86145 0
M  V30 5011 O 469.397 -0.403537 1.91699 0
M  V30 5012 H 467.977 0.651475 0.365498 0
M  V30 5013 H 470.639 1.92958 0.274426 0
M  V30 5014 H 469.735 2.67486 1.60802 0
M  V30 5015 N 470.036 -0.519951 1.48776 0
M  V30 5016 C 470.946 -1.65025 1.66745 0
M  V30 5017 C 471.962 -1.6508 0.549954 0
M  V30 5018 O 473.138 -1.83848 0.822295 0
M  V30 5019 C 470.203 -3.0146 1.71238 0
M  V30 5020 C 469.264 -3.12182 2.94688 0
M  V30 5021 C 468.497 -4.42109 2.98958 0
M  V30 5022 O 468.72 -5.29799 2.1135 0
M  V30 5023 O 467.654 -4.57406 3.91233 0
M  V30 5024 H 471.48 -1.52801 2.62461 0
M  V30 5025 H 469.065 -0.694157 1.32294 0
M  V30 5026 H 470.947 -3.82584 1.76657 0
M  V30 5027 H 469.622 -3.13988 0.786975 0
M  V30 5028 H 468.529 -2.30316 2.94797 0
M  V30 5029 H 469.862 -3.04574 3.86646 0
M  V30 5030 N 471.514 -1.37532 -0.769588 0
M  V30 5031 C 472.76 -1.33057 -1.53048 0
M  V30 5032 C 473.093 0.0841865 -1.94017 0
M  V30 5033 O 472.368 1.04198 -1.64235 0
M  V30 5034 C 472.651 -2.27166 -2.79406 0
M  V30 5035 C 472.504 -3.77429 -2.44677 0
M  V30 5036 C 473.823 -2.19683 -3.81349 0
M  V30 5037 H 470.942 -0.484655 -0.555228 0
M  V30 5038 H 473.584 -1.68251 -0.882702 0
M  V30 5039 H 471.734 -1.97283 -3.34682 0
M  V30 5040 H 473.406 -4.17918 -1.953 0
M  V30 5041 H 471.649 -3.95892 -1.77346 0
M  V30 5042 H 472.32 -4.38716 -3.35011 0
M  V30 5043 H 474.796 -2.46029 -3.35573 0
M  V30 5044 H 473.672 -2.87668 -4.67481 0
M  V30 5045 H 473.933 -1.19045 -4.25771 0
M  V30 5046 N 472.992 0.995999 -1.22138 0
M  V30 5047 C 473.902 2.11985 -1.00496 0
M  V30 5048 C 474.918 1.7394 0.0457701 0
M  V30 5049 O 476.094 2.00868 -0.146273 0
M  V30 5050 C 473.159 3.41779 -0.582086 0
M  V30 5051 C 472.22 3.93943 -1.70608 0
M  V30 5052 C 471.453 5.17542 -1.30328 0
M  V30 5053 O 471.676 5.70114 -0.180743 0
M  V30 5054 O 470.61 5.63382 -2.11861 0
M  V30 5055 H 474.436 2.33123 -1.94647 0
M  V30 5056 H 472.021 1.10358 -1.00705 0
M  V30 5057 H 473.903 4.1989 -0.356467 0
M  V30 5058 H 472.578 3.22007 0.330592 0
M  V30 5059 H 471.485 3.17019 -1.98619 0
M  V30 5060 H 472.818 4.18141 -2.59651 0
M  V30 5061 N 474.47 1.03057 1.19235 0
M  V30 5062 C 475.886 0.747947 1.40989 0
M  V30 5063 C 476.086 -0.666752 1.90149 0
M  V30 5064 O 475.142 -1.43249 2.07933 0
M  V30 5065 C 476.455 1.7855 2.41951 0
M  V30 5066 C 478.003 1.80524 2.55695 0
M  V30 5067 C 478.478 2.83243 3.59913 0
M  V30 5068 N 479.969 2.8207 3.67411 0
M  V30 5069 C 480.704 3.58204 4.47747 0
M  V30 5070 N 480.2 4.44057 5.31775 0
M  V30 5071 N 481.993 3.46738 4.42413 0
M  V30 5072 H 474.144 1.94367 0.856468 0
M  V30 5073 H 476.407 0.840412 0.438647 0
M  V30 5074 H 476.113 2.79973 2.12857 0
M  V30 5075 H 475.987 1.6092 3.41152 0
M  V30 5076 H 478.374 0.79778 2.84112 0
M  V30 5077 H 478.455 2.02229 1.56643 0
M  V30 5078 H 478.099 3.84161 3.32239 0
M  V30 5079 H 478.029 2.58795 4.5862 0
M  V30 5080 H 480.52 2.19803 3.074 0
M  V30 5081 H 480.833 4.98884 5.90199 0
M  V30 5082 H 479.178 4.48129 5.3123 0
M  V30 5083 H 482.369 2.79077 3.75811 0
M  V30 5084 H 482.542 4.06322 5.04783 0
M  V30 5085 N 475.948 -1.35272 0.808662 0
M  V30 5086 C 477.364 -1.51806 0.492653 0
M  V30 5087 C 477.564 -1.7574 -0.985778 0
M  V30 5088 O 476.62 -1.80003 -1.77074 0
M  V30 5089 C 477.933 -2.69202 1.33981 0
M  V30 5090 C 479.481 -2.8308 1.33547 0
M  V30 5091 C 479.956 -4.03502 2.16679 0
M  V30 5092 N 481.447 -4.10684 2.14227 0
M  V30 5093 C 482.182 -5.02984 2.75308 0
M  V30 5094 N 481.678 -6.00603 3.45323 0
M  V30 5095 N 483.471 -4.95746 2.64938 0
M  V30 5096 H 475.622 -1.17993 1.76611 0
M  V30 5097 H 477.885 -0.577476 0.751814 0
M  V30 5098 H 477.591 -2.581 2.38909 0
M  V30 5099 H 477.465 -3.63854 0.994491 0
M  V30 5100 H 479.852 -2.93631 0.294036 0
M  V30 5101 H 479.933 -1.89278 1.72068 0
M  V30 5102 H 479.577 -3.93711 3.20864 0
M  V30 5103 H 479.507 -4.96489 1.75517 0
M  V30 5104 H 481.998 -3.40802 1.63285 0
M  V30 5105 H 482.311 -6.67633 3.89212 0
M  V30 5106 H 480.656 -6.0077 3.49428 0
M  V30 5107 H 483.847 -4.18439 2.09825 0
M  V30 5108 H 484.02 -5.67487 3.12829 0
M  V30 5109 N 477.426 -0.562348 -1.47226 0
M  V30 5110 C 478.675 -0.038041 -2.01664 0
M  V30 5111 C 478.988 1.32199 -1.44162 0
M  V30 5112 O 480.194 1.9365 -1.90294 0
M  V30 5113 C 478.65 -0.0174958 -3.59896 0
M  V30 5114 C 478.258 -1.3746 -4.2639 0
M  V30 5115 C 480.002 0.453934 -4.22066 0
M  V30 5116 C 477.909 -1.31289 -5.76643 0
M  V30 5117 H 476.839 -0.0104511 -0.753928 0
M  V30 5118 H 479.49 -0.710966 -1.69167 0
M  V30 5119 H 477.872 0.721182 -3.89378 0
M  V30 5120 H 479.046 -2.1314 -4.08544 0
M  V30 5121 H 477.361 -1.78438 -3.7623 0
M  V30 5122 H 479.958 0.518584 -5.32179 0
M  V30 5123 H 480.301 1.46706 -3.89594 0
M  V30 5124 H 480.834 -0.230044 -3.97134 0
M  V30 5125 H 477.573 -2.30217 -6.13743 0
M  V30 5126 H 477.093 -0.597973 -5.96812 0
M  V30 5127 H 478.772 -1.01713 -6.38955 0
M  V30 5128 N 478.904 1.54736 -0.299062 0
M  V30 5129 C 480.15 2.00397 0.311244 0
M  V30 5130 C 480.483 1.18716 1.53688 0
M  V30 5131 O 479.758 0.263154 1.92712 0
M  V30 5132 C 480.041 3.53817 0.669761 0
M  V30 5133 C 479.894 4.46239 -0.564882 0
M  V30 5134 C 481.213 4.13856 1.49702 0
M  V30 5135 H 478.332 0.728493 0.111653 0
M  V30 5136 H 480.974 1.85506 -0.410774 0
M  V30 5137 H 479.124 3.66637 1.28491 0
M  V30 5138 H 480.796 4.45328 -1.20337 0
M  V30 5139 H 479.039 4.16916 -1.19849 0
M  V30 5140 H 479.71 5.5134 -0.269918 0
M  V30 5141 H 482.186 4.04461 0.977284 0
M  V30 5142 H 481.062 5.21365 1.71666 0
M  V30 5143 H 481.323 3.65608 2.48563 0
M  V30 5144 N 480.382 0.0267497 1.57577 0
M  V30 5145 C 481.607 -0.666227 1.96408 0
M  V30 5146 C 482.032 -1.65004 0.903071 0
M  V30 5147 O 481.39 -1.80787 -0.136263 0
M  V30 5148 C 481.438 -1.35101 3.34335 0
M  V30 5149 O 480.542 -2.46623 3.30531 0
M  V30 5150 H 479.883 -0.175206 0.640468 0
M  V30 5151 H 482.413 0.0878977 2.04411 0
M  V30 5152 H 482.423 -1.70834 3.70513 0
M  V30 5153 H 481.098 -0.629844 4.11103 0
M  V30 5154 H 479.675 -2.13019 3.06068 0
M  V30 5155 N 481.861 -1.55662 -0.24637 0
M  V30 5156 C 482.793 -1.86811 -1.32794 0
M  V30 5157 C 483.806 -0.754413 -1.44265 0
M  V30 5158 O 484.995 -1.03253 -1.45606 0
M  V30 5159 C 482.095 -2.0397 -2.70646 0
M  V30 5160 C 481.268 -3.34832 -2.81436 0
M  V30 5161 C 480.327 -3.41727 -4.00136 0
M  V30 5162 O 479.353 -4.14934 -3.89639 0
M  V30 5163 N 480.555 -2.71058 -5.1333 0
M  V30 5164 H 483.32 -2.80174 -1.06409 0
M  V30 5165 H 480.881 -1.55906 -0.43647 0
M  V30 5166 H 482.873 -2.05924 -3.48393 0
M  V30 5167 H 481.443 -1.1735 -2.89738 0
M  V30 5168 H 480.663 -3.4519 -1.90361 0
M  V30 5169 H 481.951 -4.21085 -2.85595 0
M  V30 5170 H 481.349 -2.11314 -5.2475 0
M  V30 5171 H 479.906 -2.78704 -5.89209 0
M  V30 5172 N 483.339 0.512053 -1.4905 0
M  V30 5173 C 484.269 1.62365 -1.67809 0
M  V30 5174 C 485.25 1.61737 -0.526809 0
M  V30 5175 O 486.435 1.78651 -0.761404 0
M  V30 5176 C 483.565 3.00895 -1.73435 0
M  V30 5177 C 482.519 3.16387 -2.88242 0
M  V30 5178 C 481.845 4.56157 -2.78971 0
M  V30 5179 C 483.145 2.97457 -4.29321 0
M  V30 5180 H 484.839 1.46921 -2.60873 0
M  V30 5181 H 482.385 0.705379 -1.2554 0
M  V30 5182 H 484.338 3.78549 -1.85145 0
M  V30 5183 H 483.062 3.17403 -0.769619 0
M  V30 5184 H 481.721 2.41155 -2.76116 0
M  V30 5185 H 481.369 4.69525 -1.8043 0
M  V30 5186 H 481.069 4.67465 -3.5602 0
M  V30 5187 H 482.593 5.35886 -2.92675 0
M  V30 5188 H 484.007 3.64888 -4.42187 0
M  V30 5189 H 482.404 3.20245 -5.07507 0
M  V30 5190 H 483.474 1.93692 -4.44535 0
M  V30 5191 N 484.817 1.37938 0.762283 0
M  V30 5192 C 485.747 1.37176 1.88958 0
M  V30 5193 C 486.728 0.238945 1.68413 0
M  V30 5194 O 487.913 0.440726 1.89133 0
M  V30 5195 C 485.043 1.18742 3.2637 0
M  V30 5196 C 483.997 2.29136 3.61498 0
M  V30 5197 C 483.323 1.95816 4.97554 0
M  V30 5198 C 484.623 3.71363 3.6727 0
M  V30 5199 H 486.317 2.31509 1.89853 0
M  V30 5200 H 483.863 1.11438 0.912005 0
M  V30 5201 H 485.816 1.16837 4.04879 0
M  V30 5202 H 484.54 0.208683 3.25933 0
M  V30 5203 H 483.199 2.30213 2.85303 0
M  V30 5204 H 482.847 0.964475 4.93667 0
M  V30 5205 H 482.547 2.69745 5.22026 0
M  V30 5206 H 484.071 1.95513 5.78452 0
M  V30 5207 H 485.485 3.72364 4.35911 0
M  V30 5208 H 483.882 4.44425 4.03245 0
M  V30 5209 H 484.952 4.04305 2.67704 0
M  V30 5210 N 486.295 -0.989507 1.22664 0
M  V30 5211 C 487.523 -1.76496 1.07967 0
M  V30 5212 C 487.938 -1.85148 -0.369543 0
M  V30 5213 O 487.295 -1.32408 -1.25596 0
M  V30 5214 C 487.346 -3.19642 1.68853 0
M  V30 5215 O 487.067 -3.11453 3.08105 0
M  V30 5216 C 488.568 -4.13621 1.59475 0
M  V30 5217 H 485.788 -0.55418 0.378319 0
M  V30 5218 H 488.332 -1.24378 1.62328 0
M  V30 5219 H 486.487 -3.68816 1.18547 0
M  V30 5220 H 486.901 -4.01499 3.37489 0
M  V30 5221 H 488.375 -5.11801 2.06795 0
M  V30 5222 H 488.852 -4.35718 0.55191 0
M  V30 5223 H 489.458 -3.70346 2.09103 0
M  V30 5224 N 487.773 -1.03688 -1.18687 0
M  V30 5225 C 488.703 -0.645407 -2.24403 0
M  V30 5226 C 489.684 0.349511 -1.66471 0
M  V30 5227 O 490.869 0.230453 -1.92828 0
M  V30 5228 C 487.999 -0.00365337 -3.473 0
M  V30 5229 C 486.953 -0.921705 -4.17958 0
M  V30 5230 C 486.279 -0.144629 -5.34504 0
M  V30 5231 C 487.579 -2.23909 -4.71871 0
M  V30 5232 H 489.273 -1.52917 -2.57404 0
M  V30 5233 H 486.819 -0.736711 -1.23728 0
M  V30 5234 H 488.772 0.281908 -4.20456 0
M  V30 5235 H 487.496 0.914963 -3.13522 0
M  V30 5236 H 486.155 -1.19159 -3.46694 0
M  V30 5237 H 485.803 0.776274 -4.96974 0
M  V30 5238 H 485.503 -0.756206 -5.82714 0
M  V30 5239 H 487.027 0.134004 -6.10453 0
M  V30 5240 H 488.441 -2.0145 -5.36741 0
M  V30 5241 H 486.838 -2.8033 -5.30599 0
M  V30 5242 H 487.908 -2.88822 -3.895 0
M  V30 5243 N 489.251 1.34841 -0.815825 0
M  V30 5244 C 490.184 2.27504 -0.178062 0
M  V30 5245 C 491.162 1.48542 0.661373 0
M  V30 5246 O 492.346 1.77779 0.626653 0
M  V30 5247 C 489.473 3.30246 0.752002 0
M  V30 5248 C 488.519 4.26499 -0.00899172 0
M  V30 5249 S 489.352 5.18169 -1.35134 0
M  V30 5250 C 490.508 6.24449 -0.42596 0
M  V30 5251 H 490.741 2.81248 -0.963684 0
M  V30 5252 H 488.274 1.41781 -0.611355 0
M  V30 5253 H 490.232 3.89933 1.28308 0
M  V30 5254 H 488.893 2.75363 1.51109 0
M  V30 5255 H 488.086 4.99146 0.697766 0
M  V30 5256 H 487.688 3.7103 -0.470396 0
M  V30 5257 H 489.98 6.76404 0.385234 0
M  V30 5258 H 490.923 6.99156 -1.1219 0
M  V30 5259 H 491.331 5.64497 -0.0175461 0
M  V30 5260 N 490.729 0.570148 1.46925 0
M  V30 5261 C 492.006 -0.0153259 1.95594 0
M  V30 5262 C 492.386 -1.47232 1.51281 0
M  V30 5263 O 491.734 -2.15574 0.757624 0
M  V30 5264 C 491.944 0.143624 3.48704 0
M  V30 5265 C 493.292 0.00494484 4.246 0
M  V30 5266 O 494.316 0.0718214 3.56128 0
M  V30 5267 O 493.175 -0.141175 5.46318 0
M  V30 5268 H 490.269 -0.0568819 0.825041 0
M  V30 5269 H 492.815 0.637583 1.57267 0
M  V30 5270 H 491.587 1.15699 3.73804 0
M  V30 5271 H 491.21 -0.5463 3.93829 0
M  V30 5272 N 492.207 -1.54576 0.307264 0
M  V30 5273 C 493.455 -1.99867 -0.299574 0
M  V30 5274 C 493.776 -1.19714 -1.53927 0
M  V30 5275 O 493.046 -0.29472 -1.9367 0
M  V30 5276 H 491.626 -0.738299 -0.113683 0
M  V30 5277 H 494.288 -1.9032 0.420042 0
M  V30 5278 H 493.384 -3.06901 -0.567283 0
M  V30 5279 N 493.685 -0.035106 -1.57561 0
M  V30 5280 C 494.615 0.942993 -2.13612 0
M  V30 5281 C 495.596 1.33531 -1.05373 0
M  V30 5282 O 496.781 1.41287 -1.33235 0
M  V30 5283 C 493.911 2.22332 -2.66807 0
M  V30 5284 C 492.865 1.97156 -3.79886 0
M  V30 5285 C 492.191 3.31506 -4.19533 0
M  V30 5286 C 493.491 1.30596 -5.05709 0
M  V30 5287 H 495.185 0.476179 -2.95589 0
M  V30 5288 H 492.731 0.227602 -1.4219 0
M  V30 5289 H 494.684 2.91142 -3.04654 0
M  V30 5290 H 493.408 2.7119 -1.81999 0
M  V30 5291 H 492.067 1.30763 -3.42486 0
M  V30 5292 H 491.715 3.78134 -3.31698 0
M  V30 5293 H 491.415 3.15465 -4.95738 0
M  V30 5294 H 492.939 4.01574 -4.59968 0
M  V30 5295 H 494.353 1.89416 -5.41105 0
M  V30 5296 H 492.75 1.24934 -5.86951 0
M  V30 5297 H 493.82 0.279742 -4.84092 0
M  V30 5298 N 495.163 1.55791 0.238111 0
M  V30 5299 C 496.11 1.9105 1.29493 0
M  V30 5300 C 497.08 0.765733 1.47397 0
M  V30 5301 O 498.265 1.02017 1.61236 0
M  V30 5302 C 495.405 2.21826 2.64362 0
M  V30 5303 C 494.518 3.49153 2.54394 0
M  V30 5304 C 493.653 3.69455 3.81676 0
M  V30 5305 C 492.692 4.90353 3.66361 0
M  V30 5306 N 491.829 5.07131 4.85554 0
M  V30 5307 H 496.669 2.81172 0.987233 0
M  V30 5308 H 494.206 1.39179 0.476203 0
M  V30 5309 H 496.164 2.37675 3.4288 0
M  V30 5310 H 494.794 1.34897 2.93262 0
M  V30 5311 H 493.846 3.41587 1.67399 0
M  V30 5312 H 495.158 4.37818 2.38991 0
M  V30 5313 H 494.312 3.85311 4.68636 0
M  V30 5314 H 493.051 2.7904 3.99985 0
M  V30 5315 H 492.056 4.74464 2.77784 0
M  V30 5316 H 493.281 5.82237 3.49538 0
M  V30 5317 H 491.227 4.19654 5.04209 0
M  V30 5318 H 491.144 5.89899 4.72816 0
M  V30 5319 H 492.412 5.27407 5.73988 0
M  V30 5320 N 496.642 -0.504142 1.49319 0
M  V30 5321 C 497.574 -1.62265 1.61872 0
M  V30 5322 C 498.587 -1.54881 0.501573 0
M  V30 5323 O 499.776 -1.6087 0.773497 0
M  V30 5324 C 496.876 -3.01042 1.55651 0
M  V30 5325 C 496.049 -3.33642 2.82845 0
M  V30 5326 C 495.108 -4.51816 2.69719 0
M  V30 5327 O 494.134 -4.53755 3.4365 0
M  V30 5328 N 495.336 -5.51543 1.81055 0
M  V30 5329 H 498.101 -1.51924 2.58339 0
M  V30 5330 H 495.662 -0.691954 1.46368 0
M  V30 5331 H 497.654 -3.78013 1.44528 0
M  V30 5332 H 496.224 -3.05323 0.670546 0
M  V30 5333 H 495.444 -2.45598 3.08343 0
M  V30 5334 H 496.732 -3.5222 3.67177 0
M  V30 5335 H 496.13 -5.52774 1.20241 0
M  V30 5336 H 494.687 -6.27629 1.75856 0
M  V30 5337 N 498.12 -1.38341 -0.754957 0
M  V30 5338 C 499.536 -1.19508 -1.05783 0
M  V30 5339 C 499.736 -0.0428005 -2.01455 0
M  V30 5340 O 498.792 0.611861 -2.44975 0
M  V30 5341 C 500.105 -2.52091 -1.63923 0
M  V30 5342 C 501.653 -2.58762 -1.76101 0
M  V30 5343 C 502.128 -3.91517 -2.37652 0
M  V30 5344 N 503.619 -3.93049 -2.45085 0
M  V30 5345 C 504.354 -4.9253 -2.93602 0
M  V30 5346 N 503.85 -6.02408 -3.42165 0
M  V30 5347 N 505.643 -4.79921 -2.92629 0
M  V30 5348 H 497.794 -2.1206 -0.120056 0
M  V30 5349 H 500.057 -0.94089 -0.11589 0
M  V30 5350 H 499.763 -3.36858 -1.01093 0
M  V30 5351 H 499.637 -2.70388 -2.63003 0
M  V30 5352 H 502.024 -1.74391 -2.38058 0
M  V30 5353 H 502.105 -2.44333 -0.757294 0
M  V30 5354 H 501.749 -4.76309 -1.76329 0
M  V30 5355 H 501.679 -4.03256 -3.38662 0
M  V30 5356 H 504.17 -3.13685 -2.10736 0
M  V30 5357 H 504.483 -6.74248 -3.77637 0
M  V30 5358 H 502.828 -6.0603 -3.40225 0
M  V30 5359 H 506.019 -3.93194 -2.54001 0
M  V30 5360 H 506.192 -5.57601 -3.30128 0
M  V30 5361 N 499.598 0.982988 -1.23187 0
M  V30 5362 C 500.561 2.05649 -1.01198 0
M  V30 5363 C 501.561 1.6078 0.0252464 0
M  V30 5364 O 502.751 1.72878 -0.214243 0
M  V30 5365 C 499.883 3.36744 -0.530656 0
M  V30 5366 H 501.076 2.2659 -1.96461 0
M  V30 5367 H 498.629 1.15602 -1.05195 0
M  V30 5368 H 499.364 3.21492 0.425873 0
M  V30 5369 H 499.149 3.7065 -1.2791 0
M  V30 5370 H 500.639 4.15705 -0.397366 0
M  V30 5371 N 501.076 1.04316 1.18135 0
M  V30 5372 C 502.026 0.606731 2.19779 0
M  V30 5373 C 503.01 -0.352144 1.56999 0
M  V30 5374 O 504.202 -0.170795 1.76174 0
M  V30 5375 C 501.331 -0.0262443 3.4329 0
M  V30 5376 C 500.417 0.955928 4.13186 0
M  V30 5377 N 500.808 2.12395 4.59045 0
M  V30 5378 C 499.106 0.782473 4.39082 0
M  V30 5379 C 499.807 2.74458 5.12882 0
M  V30 5380 N 498.783 2.02316 5.04548 0
M  V30 5381 H 502.585 1.49679 2.5293 0
M  V30 5382 H 500.099 0.912088 1.34368 0
M  V30 5383 H 502.096 -0.356617 4.15372 0
M  V30 5384 H 500.756 -0.911811 3.11635 0
M  V30 5385 H 501.767 2.50272 4.53414 0
M  V30 5386 H 498.444 -0.0527906 4.17467 0
M  V30 5387 H 499.834 3.73459 5.5855 0
M  V30 5388 N 502.554 -1.34406 0.822964 0
M  V30 5389 C 503.8 -1.98578 0.411666 0
M  V30 5390 C 504.133 -1.65093 -1.02264 0
M  V30 5391 O 503.408 -0.92258 -1.71227 0
M  V30 5392 C 503.691 -3.54823 0.614235 0
M  V30 5393 C 503.544 -3.9805 2.09466 0
M  V30 5394 C 504.863 -4.40071 0.050221 0
M  V30 5395 H 501.982 -0.721355 0.151047 0
M  V30 5396 H 504.624 -1.59301 1.03554 0
M  V30 5397 H 502.774 -3.88411 0.0831774 0
M  V30 5398 H 504.446 -3.74795 2.68936 0
M  V30 5399 H 502.689 -3.4836 2.5851 0
M  V30 5400 H 503.36 -5.06819 2.18721 0
M  V30 5401 H 505.836 -4.13037 0.503953 0
M  V30 5402 H 504.712 -5.48452 0.221759 0
M  V30 5403 H 504.973 -4.29576 -1.04482 0
M  V30 5404 N 504.032 -0.577932 -1.46621 0
M  V30 5405 C 505.281 -0.0594281 -2.01612 0
M  V30 5406 C 505.594 1.30663 -1.45556 0
M  V30 5407 O 506.8 1.91621 -1.92337 0
M  V30 5408 C 505.256 -0.0556666 -3.59857 0
M  V30 5409 C 504.864 -1.41975 -4.24908 0
M  V30 5410 C 506.608 0.409143 -4.22524 0
M  V30 5411 C 504.515 -1.37397 -5.75218 0
M  V30 5412 H 503.445 -0.0184469 -0.753774 0
M  V30 5413 H 506.096 -0.728869 -1.68404 0
M  V30 5414 H 504.478 0.679843 -3.90121 0
M  V30 5415 H 505.652 -2.17461 -4.0626 0
M  V30 5416 H 503.967 -1.82419 -3.74316 0
M  V30 5417 H 506.564 0.46211 -5.32699 0
M  V30 5418 H 506.907 1.42565 -3.91128 0
M  V30 5419 H 507.44 -0.272152 -3.96868 0
M  V30 5420 H 504.179 -2.36714 -6.11267 0
M  V30 5421 H 503.699 -0.661239 -5.96144 0
M  V30 5422 H 505.378 -1.08484 -6.3784 0
M  V30 5423 N 505.51 1.54411 -0.315457 0
M  V30 5424 C 506.756 2.00716 0.289972 0
M  V30 5425 C 507.089 1.2034 1.5242 0
M  V30 5426 O 506.364 0.283579 1.92422 0
M  V30 5427 C 506.647 3.54507 0.632196 0
M  V30 5428 C 506.5 4.45615 -0.61218 0
M  V30 5429 C 507.819 4.15421 1.45305 0
M  V30 5430 H 504.938 0.729637 0.10392 0
M  V30 5431 H 507.58 1.8506 -0.430427 0
M  V30 5432 H 505.73 3.67979 1.24595 0
M  V30 5433 H 507.402 4.44026 -1.25053 0
M  V30 5434 H 505.645 4.15621 -1.24264 0
M  V30 5435 H 506.316 5.51022 -0.328379 0
M  V30 5436 H 508.792 4.05474 0.934331 0
M  V30 5437 H 507.668 5.23157 1.66127 0
M  V30 5438 H 507.929 3.68223 2.44671 0
M  V30 5439 N 506.988 0.0434614 1.5754 0
M  V30 5440 C 507.921 -0.968729 2.06618 0
M  V30 5441 C 508.899 -1.30868 0.965 0
M  V30 5442 O 510.083 -1.42288 1.23638 0
M  V30 5443 C 507.21 -2.28486 2.50023 0
M  V30 5444 C 506.256 -2.09851 3.71302 0
M  V30 5445 S 507.089 -1.38401 5.17306 0
M  V30 5446 C 508.245 -2.71354 5.64019 0
M  V30 5447 H 508.478 -0.551021 2.92149 0
M  V30 5448 H 506.011 -0.168607 1.53477 0
M  V30 5449 H 507.969 -3.04142 2.75695 0
M  V30 5450 H 506.63 -2.67387 1.64812 0
M  V30 5451 H 505.823 -3.07184 3.99567 0
M  V30 5452 H 505.425 -1.42336 3.45856 0
M  V30 5453 H 507.717 -3.67549 5.69134 0
M  V30 5454 H 508.66 -2.47734 6.6335 0
M  V30 5455 H 509.068 -2.77259 4.91719 0
M  V30 5456 N 508.466 -1.55915 -0.229846 0
M  V30 5457 C 509.429 -1.90914 -1.26824 0
M  V30 5458 C 510.429 -0.786999 -1.40225 0
M  V30 5459 O 511.619 -1.05484 -1.38632 0
M  V30 5460 C 508.751 -2.15264 -2.64337 0
M  V30 5461 H 509.944 -2.8378 -0.969998 0
M  V30 5462 H 507.497 -1.49069 -0.4699 0
M  V30 5463 H 508.232 -1.24923 -2.99274 0
M  V30 5464 H 508.017 -2.97005 -2.55989 0
M  V30 5465 H 509.507 -2.43467 -3.39284 0
M  V30 5466 N 509.944 0.496216 -1.49584 0
M  V30 5467 C 510.907 1.57952 -1.66084 0
M  V30 5468 C 511.907 1.51729 -0.53244 0
M  V30 5469 O 513.097 1.54796 -0.79899 0
M  V30 5470 C 510.229 2.97604 -1.66268 0
M  V30 5471 H 511.422 1.44649 -2.6271 0
M  V30 5472 H 508.975 0.7208 -1.38687 0
M  V30 5473 H 509.71 3.16378 -0.712432 0
M  V30 5474 H 509.495 3.03528 -2.4822 0
M  V30 5475 H 510.985 3.76301 -1.81073 0
M  V30 5476 N 511.423 1.38739 0.74761 0
M  V30 5477 C 512.651 1.38521 1.53686 0
M  V30 5478 C 513.066 -0.0235129 1.88785 0
M  V30 5479 O 512.423 -0.991662 1.53207 0
M  V30 5480 C 512.474 2.24641 2.83229 0
M  V30 5481 O 512.195 3.60026 2.49625 0
M  V30 5482 C 513.696 2.32669 3.77333 0
M  V30 5483 H 510.916 0.473589 0.475347 0
M  V30 5484 H 513.46 1.82395 0.924786 0
M  V30 5485 H 511.615 1.84213 3.40799 0
M  V30 5486 H 512.029 4.05435 3.3275 0
M  V30 5487 H 513.503 2.97201 4.65162 0
M  V30 5488 H 513.98 1.3421 4.18192 0
M  V30 5489 H 514.586 2.73512 3.25685 0
M  V30 5490 N 512.901 -0.976442 1.23707 0
M  V30 5491 C 513.849 -2.09078 1.01927 0
M  V30 5492 C 514.843 -1.69345 -0.0430193 0
M  V30 5493 O 516.049 -1.79659 0.110814 0
M  V30 5494 H 512.424 -0.68398 0.312531 0
M  V30 5495 H 514.395 -2.24614 1.96447 0
M  V30 5496 C 513.144 -3.41919 0.631385 0
M  V30 5497 H 512.467 -3.72946 1.44053 0
M  V30 5498 H 513.907 -4.20817 0.518532 0
M  V30 5499 C 512.366 -3.30357 -0.660723 0
M  V30 5500 O 512.896 -3.63542 -1.70881 0
M  V30 5501 N 511.102 -2.83507 -0.638139 0
M  V30 5502 H 510.649 -2.567 0.215108 0
M  V30 5503 H 510.607 -2.76153 -1.50289 0
M  V30 5504 N 514.379 -1.04941 -1.1758 0
M  V30 5505 C 515.795 -0.770282 -1.39781 0
M  V30 5506 C 515.995 0.636417 -1.91186 0
M  V30 5507 O 515.051 1.39923 -2.10185 0
M  V30 5508 C 516.364 -1.82376 -2.3908 0
M  V30 5509 C 517.912 -1.84569 -2.52791 0
M  V30 5510 C 518.387 -2.88933 -3.55361 0
M  V30 5511 N 519.878 -2.8788 -3.62877 0
M  V30 5512 C 520.613 -3.65282 -4.41992 0
M  V30 5513 N 520.109 -4.52461 -5.24643 0
M  V30 5514 N 521.902 -3.53732 -4.36841 0
M  V30 5515 H 514.053 -1.95705 -0.825438 0
M  V30 5516 H 516.316 -0.847284 -0.425222 0
M  V30 5517 H 516.022 -2.83323 -2.08376 0
M  V30 5518 H 515.896 -1.66327 -3.38549 0
M  V30 5519 H 518.283 -0.842879 -2.82807 0
M  V30 5520 H 518.364 -2.04696 -1.53406 0
M  V30 5521 H 518.008 -3.89398 -3.26085 0
M  V30 5522 H 517.938 -2.66059 -4.54445 0
M  V30 5523 H 520.429 -2.24666 -3.03864 0
M  V30 5524 H 520.742 -5.08211 -5.82187 0
M  V30 5525 H 519.087 -4.56524 -5.24033 0
M  V30 5526 H 522.278 -2.85021 -3.71323 0
M  V30 5527 H 522.451 -4.14302 -4.98255 0
M  V30 5528 N 515.857 1.33968 -0.830081 0
M  V30 5529 C 517.268 1.80439 -0.479455 0
M  V30 5530 C 517.619 1.68756 1.00079 0
M  V30 5531 O 516.744 1.23171 1.77927 0
M  V30 5532 C 517.339 3.27611 -0.863505 0
M  V30 5533 C 515.898 3.72133 -0.565145 0
M  V30 5534 C 515.045 2.55549 -1.07657 0
M  V30 5535 H 517.996 1.21614 -1.0196 0
M  V30 5536 H 518.017 3.8012 -0.170083 0
M  V30 5537 H 517.529 3.36082 -1.94089 0
M  V30 5538 H 515.63 3.69196 0.502536 0
M  V30 5539 H 515.743 4.65963 -1.11422 0
M  V30 5540 H 514.107 2.49788 -0.497807 0
M  V30 5541 H 514.89 2.66786 -2.16055 0
M  V30 5542 N 517.335 0.585699 1.46312 0
M  V30 5543 C 518.283 -0.158577 2.32059 0
M  V30 5544 C 519.277 -0.881427 1.44662 0
M  V30 5545 O 520.483 -0.799476 1.61271 0
M  V30 5546 H 516.858 -0.0700066 0.748734 0
M  V30 5547 H 518.829 0.583383 2.92642 0
M  V30 5548 C 517.578 -1.15701 3.27885 0
M  V30 5549 H 516.901 -0.610215 3.95116 0
M  V30 5550 H 518.341 -1.64812 3.90657 0
M  V30 5551 C 516.8 -2.21951 2.53455 0
M  V30 5552 O 517.33 -3.29352 2.29978 0
M  V30 5553 N 515.536 -1.9664 2.13965 0
M  V30 5554 H 515.083 -1.09309 2.33258 0
M  V30 5555 H 515.041 -2.6794 1.64485 0
M  V30 5556 N 518.813 -1.54241 0.323641 0
M  V30 5557 C 520.038 -2.05452 -0.283605 0
M  V30 5558 C 520.463 -1.19823 -1.44997 0
M  V30 5559 O 519.821 -0.207358 -1.8011 0
M  V30 5560 C 519.869 -3.53823 -0.695795 0
M  V30 5561 O 518.973 -3.71134 -1.79815 0
M  V30 5562 H 518.314 -0.662024 -0.0511917 0
M  V30 5563 H 520.844 -1.99079 0.472073 0
M  V30 5564 H 520.854 -3.96094 -0.978434 0
M  V30 5565 H 519.529 -4.15602 0.157287 0
M  V30 5566 H 518.106 -3.40768 -1.51431 0
M  V30 5567 N 520.291 -0.0518155 -1.57515 0
M  V30 5568 C 521.54 0.621286 -1.91893 0
M  V30 5569 C 521.853 1.71966 -0.932052 0
M  V30 5570 O 523.059 2.45096 -1.16791 0
M  V30 5571 C 521.515 1.15641 -3.40816 0
M  V30 5572 C 521.123 0.0901146 -4.47909 0
M  V30 5573 C 522.867 1.80472 -3.84227 0
M  V30 5574 C 520.774 0.638154 -5.87947 0
M  V30 5575 H 519.704 0.235835 -0.716169 0
M  V30 5576 H 522.355 -0.120809 -1.83102 0
M  V30 5577 H 520.737 1.95084 -3.44613 0
M  V30 5578 H 521.911 -0.683525 -4.55702 0
M  V30 5579 H 520.226 -0.460774 -4.13843 0
M  V30 5580 H 522.823 2.22471 -4.86221 0
M  V30 5581 H 523.166 2.65669 -3.20508 0
M  V30 5582 H 523.699 1.07683 -3.82948 0
M  V30 5583 H 520.438 -0.176202 -6.55263 0
M  V30 5584 H 519.958 1.37976 -5.83714 0
M  V30 5585 H 521.637 1.12085 -6.37217 0
M  V30 5586 N 521.769 1.56035 0.221574 0
M  V30 5587 C 523.046 1.69837 0.970301 0
M  V30 5588 C 523.426 0.599065 2.02421 0
M  V30 5589 O 522.774 -0.393929 2.25079 0
M  V30 5590 C 522.984 3.11148 1.58076 0
M  V30 5591 C 524.332 3.70555 2.07302 0
M  V30 5592 O 525.356 3.14109 1.6797 0
M  V30 5593 O 524.215 4.69562 2.79596 0
M  V30 5594 H 521.309 0.691727 0.453257 0
M  V30 5595 H 523.855 1.68353 0.213358 0
M  V30 5596 H 522.627 3.82617 0.819759 0
M  V30 5597 H 522.25 3.16749 2.40324 0
M  V30 5598 N 523.247 -0.488276 1.49845 0
M  V30 5599 C 524.658 -1.06955 1.53028 0
M  V30 5600 C 525.009 -1.9351 0.323797 0
M  V30 5601 O 524.134 -2.08891 -0.565116 0
M  V30 5602 C 524.729 -1.94643 2.77307 0
M  V30 5603 C 523.288 -2.4791 2.83227 0
M  V30 5604 C 522.435 -1.25833 2.47106 0
M  V30 5605 H 525.386 -0.271626 1.56358 0
M  V30 5606 H 525.407 -2.79496 2.5819 0
M  V30 5607 H 524.919 -1.31621 3.65099 0
M  V30 5608 H 523.02 -3.14535 1.99745 0
M  V30 5609 H 523.133 -2.84193 3.85709 0
M  V30 5610 H 521.497 -1.58764 1.99163 0
M  V30 5611 H 522.28 -0.644993 3.37186 0
M  V30 5612 N 524.725 -1.39134 -0.740242 0
M  V30 5613 C 525.688 -1.37217 -1.83587 0
M  V30 5614 C 526.688 -0.270221 -1.58513 0
M  V30 5615 O 527.878 -0.527843 -1.6601 0
M  V30 5616 C 525.01 -1.13959 -3.21288 0
M  V30 5617 H 526.203 -2.34705 -1.86691 0
M  V30 5618 H 523.756 -1.24622 -0.94335 0
M  V30 5619 H 524.491 -0.17131 -3.23847 0
M  V30 5620 H 524.276 -1.93754 -3.40884 0
M  V30 5621 H 525.766 -1.15346 -4.01354 0
M  V30 5622 N 526.204 0.969867 -1.24223 0
M  V30 5623 C 527.134 2.08191 -1.05729 0
M  V30 5624 C 528.115 1.70075 0.0290765 0
M  V30 5625 O 529.3 1.93712 -0.137583 0
M  V30 5626 C 526.43 3.40991 -0.658995 0
M  V30 5627 C 525.384 3.93054 -1.69389 0
M  V30 5628 C 524.71 5.22171 -1.15072 0
M  V30 5629 C 526.01 4.21137 -3.08935 0
M  V30 5630 H 527.704 2.23921 -1.98746 0
M  V30 5631 H 525.25 1.07602 -0.956967 0
M  V30 5632 H 527.203 4.18221 -0.51662 0
M  V30 5633 H 525.927 3.25155 0.30686 0
M  V30 5634 H 524.586 3.17977 -1.82444 0
M  V30 5635 H 524.234 5.02694 -0.175539 0
M  V30 5636 H 523.934 5.57973 -1.84229 0
M  V30 5637 H 525.458 6.02013 -1.02042 0
M  V30 5638 H 526.872 4.8908 -2.99121 0
M  V30 5639 H 525.269 4.68163 -3.75425 0
M  V30 5640 H 526.339 3.27996 -3.57137 0
M  V30 5641 N 527.682 1.05563 1.17022 0
M  V30 5642 C 529.098 0.777684 1.39371 0
M  V30 5643 C 529.298 -0.626269 1.91521 0
M  V30 5644 O 528.354 -1.38806 2.10924 0
M  V30 5645 C 529.667 1.83642 2.3811 0
M  V30 5646 C 531.215 1.85907 2.51809 0
M  V30 5647 C 531.69 2.90813 3.53824 0
M  V30 5648 N 533.181 2.898 3.61345 0
M  V30 5649 C 533.916 3.6762 4.40049 0
M  V30 5650 N 533.412 4.55237 5.22237 0
M  V30 5651 N 535.205 3.56044 4.34959 0
M  V30 5652 H 527.356 1.9614 0.815047 0
M  V30 5653 H 529.619 0.849527 0.420722 0
M  V30 5654 H 529.325 2.84425 2.06871 0
M  V30 5655 H 529.199 1.6812 3.37662 0
M  V30 5656 H 531.586 0.857865 2.82356 0
M  V30 5657 H 531.667 2.05506 1.52318 0
M  V30 5658 H 531.311 3.91122 3.24015 0
M  V30 5659 H 531.241 2.68465 4.53028 0
M  V30 5660 H 533.732 2.26274 3.02669 0
M  V30 5661 H 534.045 5.11291 5.79484 0
M  V30 5662 H 532.39 4.59296 5.21605 0
M  V30 5663 H 535.581 2.86986 3.69806 0
M  V30 5664 H 535.754 4.16938 4.96051 0
M  V30 5665 N 529.16 -1.33526 0.837174 0
M  V30 5666 C 530.576 -1.50727 0.524743 0
M  V30 5667 C 530.776 -1.77792 -0.948279 0
M  V30 5668 O 529.832 -1.83719 -1.73216 0
M  V30 5669 C 531.145 -2.66299 1.39661 0
M  V30 5670 C 532.693 -2.80183 1.39521 0
M  V30 5671 C 533.168 -3.98815 2.25189 0
M  V30 5672 N 534.659 -4.06047 2.2289 0
M  V30 5673 C 535.394 -4.97032 2.85915 0
M  V30 5674 N 534.89 -5.93143 3.57985 0
M  V30 5675 N 536.683 -4.90015 2.75394 0
M  V30 5676 H 528.834 -1.1422 1.79074 0
M  V30 5677 H 531.097 -0.561399 0.763894 0
M  V30 5678 H 530.803 -2.52974 2.4433 0
M  V30 5679 H 530.677 -3.61663 1.07145 0
M  V30 5680 H 533.064 -2.92942 0.356253 0
M  V30 5681 H 533.145 -1.85586 1.76044 0
M  V30 5682 H 532.789 -3.86817 3.29143 0
M  V30 5683 H 532.719 -4.92654 1.86009 0
M  V30 5684 H 535.21 -3.37262 1.70478 0
M  V30 5685 H 535.523 -6.59227 4.03286 0
M  V30 5686 H 533.868 -5.93223 3.62093 0
M  V30 5687 H 537.059 -4.13894 2.18654 0
M  V30 5688 H 537.232 -5.60724 3.24796 0
M  V30 5689 N 530.638 -0.59345 -1.46 0
M  V30 5690 C 531.885 -0.0831523 -2.02329 0
M  V30 5691 C 532.213 1.28093 -1.46364 0
M  V30 5692 O 531.468 1.85526 -0.622793 0
M  V30 5693 C 531.767 0.021178 -3.57394 0
M  V30 5694 C 531.433 -1.27671 -4.32448 0
M  V30 5695 C 530.095 -1.63227 -4.5267 0
M  V30 5696 C 532.447 -2.13511 -4.7546 0
M  V30 5697 C 529.775 -2.84401 -5.1316 0
M  V30 5698 C 532.127 -3.33922 -5.37289 0
M  V30 5699 C 530.791 -3.69747 -5.55737 0
M  V30 5700 H 530.061 -0.0304276 -0.740375 0
M  V30 5701 H 532.708 -0.772239 -1.75239 0
M  V30 5702 H 531.013 0.793454 -3.83682 0
M  V30 5703 H 532.71 0.431942 -3.98667 0
M  V30 5704 H 529.3 -0.989937 -4.17011 0
M  V30 5705 H 533.484 -1.87344 -4.59582 0
M  V30 5706 H 528.74 -3.12282 -5.25633 0
M  V30 5707 H 532.914 -4.00698 -5.69574 0
M  V30 5708 H 530.541 -4.6373 -6.02377 0
M  V30 5709 N 532.116 1.54067 -0.331816 0
M  V30 5710 C 533.364 2.00319 0.267739 0
M  V30 5711 C 533.685 1.22148 1.52003 0
M  V30 5712 O 532.955 0.325494 1.93177 0
M  V30 5713 H 531.535 0.740014 0.101922 0
M  V30 5714 H 534.197 1.89628 -0.450267 0
M  V30 5715 H 533.293 3.07765 0.518385 0
M  V30 5716 N 533.594 0.0601682 1.57485 0
M  V30 5717 C 535.01 -0.296422 1.56823 0
M  V30 5718 C 535.21 -1.70831 1.0686 0
M  V30 5719 O 534.266 -2.4174 0.729245 0
M  V30 5720 C 535.579 -0.116681 3.00474 0
M  V30 5721 C 537.127 -0.187103 3.1244 0
M  V30 5722 C 537.602 -0.035783 4.57986 0
M  V30 5723 N 539.093 -0.0917676 4.63109 0
M  V30 5724 C 539.828 0.00107251 5.734 0
M  V30 5725 N 539.324 0.146773 6.92645 0
M  V30 5726 N 541.117 -0.0551577 5.62073 0
M  V30 5727 H 533.268 0.983055 1.88281 0
M  V30 5728 H 535.531 0.382386 0.867459 0
M  V30 5729 H 535.237 0.85712 3.41096 0
M  V30 5730 H 535.111 -0.873929 3.66936 0
M  V30 5731 H 537.498 -1.15138 2.71712 0
M  V30 5732 H 537.579 0.601052 2.48638 0
M  V30 5733 H 537.223 0.925212 4.99402 0
M  V30 5734 H 537.153 -0.843196 5.19806 0
M  V30 5735 H 539.644 -0.203261 3.77353 0
M  V30 5736 H 539.957 0.210076 7.72514 0
M  V30 5737 H 538.302 0.181979 6.94762 0
M  V30 5738 H 541.493 -0.167605 4.678 0
M  V30 5739 H 541.666 0.020652 6.47997 0
M  V30 5740 N 535.072 -1.5615 -0.213296 0
M  V30 5741 C 536.319 -1.79546 -0.936462 0
M  V30 5742 C 536.647 -0.630337 -1.84003 0
M  V30 5743 O 535.902 0.384883 -1.91878 0
M  V30 5744 C 536.201 -3.08772 -1.79985 0
M  V30 5745 C 535.867 -4.38532 -1.04882 0
M  V30 5746 C 534.529 -4.73787 -0.841393 0
M  V30 5747 C 536.881 -5.18609 -0.51907 0
M  V30 5748 C 534.209 -5.86627 -0.0924403 0
M  V30 5749 C 536.561 -6.32229 0.216581 0
M  V30 5750 C 535.225 -6.6608 0.435191 0
M  V30 5751 H 534.495 -0.657004 -0.342676 0
M  V30 5752 H 537.142 -1.9041 -0.204051 0
M  V30 5753 H 535.447 -2.93065 -2.60038 0
M  V30 5754 H 537.144 -3.24077 -2.36168 0
M  V30 5755 H 533.734 -4.10855 -1.22048 0
M  V30 5756 H 537.918 -4.91801 -0.666775 0
M  V30 5757 H 533.174 -6.11338 0.087081 0
M  V30 5758 H 537.348 -6.93503 0.634538 0
M  V30 5759 H 534.975 -7.5336 1.01746 0
M  V30 5760 N 536.55 0.480323 -1.50102 0
M  V30 5761 C 537.827 1.24159 -1.51142 0
M  V30 5762 C 538.207 2.09605 -0.250818 0
M  V30 5763 O 537.555 2.15274 0.766118 0
M  V30 5764 C 537.765 2.08057 -2.80202 0
M  V30 5765 C 539.113 2.66556 -3.30504 0
M  V30 5766 O 540.137 2.18308 -2.81461 0
M  V30 5767 O 538.996 3.54442 -4.15973 0
M  V30 5768 H 536.09 0.562928 -0.605839 0
M  V30 5769 H 538.636 0.492899 -1.62384 0
M  V30 5770 H 537.408 1.45032 -3.6343 0
M  V30 5771 H 537.031 2.90079 -2.71919 0
M  V30 5772 N 538.028 1.39524 0.732853 0
M  V30 5773 C 539.444 1.21176 1.03868 0
M  V30 5774 C 539.644 0.0748448 2.01361 0
M  V30 5775 O 538.7 -0.57281 2.45917 0
M  V30 5776 C 540.013 2.54667 1.59892 0
M  V30 5777 C 541.561 2.6153 1.71962 0
M  V30 5778 C 542.036 3.95248 2.31394 0
M  V30 5779 N 543.527 3.96899 2.38801 0
M  V30 5780 C 544.262 4.97138 2.85729 0
M  V30 5781 N 543.758 6.07775 3.32537 0
M  V30 5782 N 545.551 4.84516 2.84957 0
M  V30 5783 H 537.702 2.12225 0.086304 0
M  V30 5784 H 539.965 0.942614 0.100907 0
M  V30 5785 H 539.671 3.38423 0.95721 0
M  V30 5786 H 539.545 2.74538 2.58668 0
M  V30 5787 H 541.932 1.78156 2.35254 0
M  V30 5788 H 542.013 2.45507 0.718327 0
M  V30 5789 H 541.657 4.79054 1.68729 0
M  V30 5790 H 541.587 4.08593 3.32204 0
M  V30 5791 H 544.078 3.16998 2.05719 0
M  V30 5792 H 544.391 6.8017 3.66862 0
M  V30 5793 H 542.736 6.11366 3.30541 0
M  V30 5794 H 545.927 3.97185 2.47713 0
M  V30 5795 H 546.1 5.62783 3.21215 0
M  V30 5796 N 539.506 -0.963266 1.24736 0
M  V30 5797 C 540.416 -2.09246 1.06082 0
M  V30 5798 C 541.432 -1.74 0.000363101 0
M  V30 5799 O 542.608 -2.0041 0.199479 0
M  V30 5800 C 539.673 -3.40115 0.672498 0
M  V30 5801 C 538.734 -3.89282 1.80993 0
M  V30 5802 C 537.967 -5.13905 1.44004 0
M  V30 5803 O 538.19 -5.69434 0.331835 0
M  V30 5804 O 537.124 -5.57566 2.26723 0
M  V30 5805 H 540.95 -2.27881 2.00759 0
M  V30 5806 H 538.535 -1.07649 1.03595 0
M  V30 5807 H 540.417 -4.18797 0.467668 0
M  V30 5808 H 539.092 -3.22771 -0.245102 0
M  V30 5809 H 537.999 -3.11642 2.06955 0
M  V30 5810 H 539.332 -4.1111 2.70646 0
M  V30 5811 N 540.985 -1.06182 -1.16461 0
M  V30 5812 C 542.231 -0.779015 -1.87241 0
M  V30 5813 C 542.564 0.692715 -1.81425 0
M  V30 5814 O 541.839 1.5074 -1.22913 0
M  V30 5815 C 542.122 -1.2728 -3.36856 0
M  V30 5816 C 541.975 -2.80821 -3.51368 0
M  V30 5817 C 543.294 -0.879799 -4.31216 0
M  V30 5818 H 540.413 -0.284464 -0.679889 0
M  V30 5819 H 543.055 -1.31755 -1.36896 0
M  V30 5820 H 541.205 -0.814673 -3.79862 0
M  V30 5821 H 542.877 -3.34833 -3.17308 0
M  V30 5822 H 541.12 -3.19606 -2.93316 0
M  V30 5823 H 541.791 -3.10435 -4.56436 0
M  V30 5824 H 544.267 -1.27436 -3.96105 0
M  V30 5825 H 543.143 -1.25278 -5.34412 0
M  V30 5826 H 543.404 0.215372 -4.41575 0
M  V30 5827 N 542.463 1.3308 -0.844243 0
M  V30 5828 C 543.74 1.92178 -0.364261 0
M  V30 5829 C 544.12 1.76961 1.15101 0
M  V30 5830 O 543.468 1.16128 1.9679 0
M  V30 5831 C 543.678 3.393 -0.817106 0
M  V30 5832 C 545.026 4.16444 -0.828236 0
M  V30 5833 O 546.05 3.47975 -0.761062 0
M  V30 5834 O 544.909 5.38685 -0.920926 0
M  V30 5835 H 542.003 0.820411 -0.10419 0
M  V30 5836 H 544.549 1.41918 -0.930453 0
M  V30 5837 H 543.321 3.44272 -1.85991 0
M  V30 5838 H 542.944 3.96947 -0.227785 0
M  V30 5839 N 543.941 0.601185 1.45683 0
M  V30 5840 C 545.19 0.0914953 2.01492 0
M  V30 5841 C 545.503 -1.28331 1.47616 0
M  V30 5842 O 546.709 -1.88537 1.95362 0
M  V30 5843 C 545.165 0.11291 3.59723 0
M  V30 5844 C 544.773 1.48717 4.22596 0
M  V30 5845 C 546.517 -0.341871 4.23121 0
M  V30 5846 C 544.424 1.46531 5.7296 0
M  V30 5847 H 543.354 0.0304365 0.753385 0
M  V30 5848 H 546.005 0.755568 1.67223 0
M  V30 5849 H 544.387 -0.617692 3.91153 0
M  V30 5850 H 545.561 2.23897 4.02749 0
M  V30 5851 H 543.876 1.88351 3.71366 0
M  V30 5852 H 546.473 -0.377304 5.33367 0
M  V30 5853 H 546.816 -1.36325 3.93346 0
M  V30 5854 H 547.349 0.335256 3.96385 0
M  V30 5855 H 544.088 2.46408 6.07423 0
M  V30 5856 H 543.608 0.755997 5.95017 0
M  V30 5857 H 545.287 1.18618 6.36034 0
M  V30 5858 N 545.419 -1.53889 0.339982 0
M  V30 5859 C 546.667 -2.00458 -0.257112 0
M  V30 5860 C 546.988 -1.22953 -1.51353 0
M  V30 5861 O 546.258 -0.335734 -1.93002 0
M  V30 5862 H 544.838 -0.740544 -0.0979965 0
M  V30 5863 H 547.5 -1.89386 0.460317 0
M  V30 5864 H 546.596 -3.08035 -0.502057 0
M  V30 5865 N 546.897 -0.0685191 -1.57451 0
M  V30 5866 C 548.146 0.600898 -1.92541 0
M  V30 5867 C 548.459 1.70967 -0.950239 0
M  V30 5868 O 549.665 2.43844 -1.19384 0
M  V30 5869 C 548.121 1.12019 -3.42023 0
M  V30 5870 C 547.729 0.0426028 -4.4798 0
M  V30 5871 C 549.473 1.76386 -3.86119 0
M  V30 5872 C 547.38 0.575759 -5.88591 0
M  V30 5873 H 546.31 0.228225 -0.71863 0
M  V30 5874 H 548.961 -0.140223 -1.82963 0
M  V30 5875 H 547.343 1.91418 -3.46663 0
M  V30 5876 H 548.517 -0.73182 -4.54952 0
M  V30 5877 H 546.832 -0.504642 -4.13331 0
M  V30 5878 H 549.429 2.17302 -4.88553 0
M  V30 5879 H 549.772 2.62255 -3.23308 0
M  V30 5880 H 550.305 1.03615 -3.84069 0
M  V30 5881 H 547.044 -0.245691 -6.55039 0
M  V30 5882 H 546.564 1.31778 -5.85145 0
M  V30 5883 H 548.243 1.0532 -6.3837 0
M  V30 5884 N 548.375 1.56261 0.205012 0
M  V30 5885 C 549.786 1.70056 0.770574 0
M  V30 5886 C 550.137 0.673398 1.84282 0
M  V30 5887 O 549.262 -0.172196 2.15714 0
M  V30 5888 C 549.857 3.08316 1.40451 0
M  V30 5889 C 548.416 3.2391 1.91727 0
M  V30 5890 C 547.563 2.66001 0.783516 0
M  V30 5891 H 550.514 1.58688 -0.019911 0
M  V30 5892 H 550.535 3.05094 2.27371 0
M  V30 5893 H 550.047 3.83053 0.623882 0
M  V30 5894 H 548.148 2.54072 2.7254 0
M  V30 5895 H 548.261 4.3131 2.08588 0
M  V30 5896 H 546.625 2.24915 1.19521 0
M  V30 5897 H 547.408 3.43297 0.0152883 0
M  V30 5898 N 549.853 -0.472356 1.50355 0
M  V30 5899 C 551.13 -1.23356 1.51798 0
M  V30 5900 C 551.51 -2.09469 0.26193 0
M  V30 5901 O 550.858 -2.15677 -0.754691 0
M  V30 5902 C 551.068 -2.06568 2.81302 0
M  V30 5903 C 552.416 -2.648 3.31913 0
M  V30 5904 O 553.44 -2.16812 2.82614 0
M  V30 5905 O 552.299 -3.52231 4.17846 0
M  V30 5906 H 549.393 -0.559707 0.608816 0
M  V30 5907 H 551.939 -0.48428 1.62643 0
M  V30 5908 H 550.711 -1.43103 3.64194 0
M  V30 5909 H 550.334 -2.88633 2.73454 0
M  V30 5910 N 551.331 -1.39911 -0.725443 0
M  V30 5911 C 552.294 -1.39156 -1.82121 0
M  V30 5912 C 553.294 -0.287018 -1.58218 0
M  V30 5913 O 554.484 -0.545421 -1.65441 0
M  V30 5914 C 551.616 -1.1736 -3.20062 0
M  V30 5915 H 552.809 -2.36672 -1.84191 0
M  V30 5916 H 550.362 -1.25615 -0.930079 0
M  V30 5917 H 551.097 -0.205648 -3.23647 0
M  V30 5918 H 550.882 -1.97358 -3.3881 0
M  V30 5919 H 552.372 -1.19596 -4.00108 0
M  V30 5920 N 552.809 0.956637 -1.25245 0
M  V30 5921 C 554.037 1.73571 -1.12608 0
M  V30 5922 C 554.452 1.86063 0.320324 0
M  V30 5923 O 553.809 1.35691 1.22042 0
M  V30 5924 C 553.86 3.15053 -1.77268 0
M  V30 5925 O 553.581 3.03174 -3.16255 0
M  V30 5926 C 555.082 4.09248 -1.70386 0
M  V30 5927 H 552.302 0.543955 -0.392879 0
M  V30 5928 H 554.846 1.20031 -1.65568 0
M  V30 5929 H 553.001 3.65543 -1.28284 0
M  V30 5930 H 553.415 3.9241 -3.48015 0
M  V30 5931 H 554.889 5.06138 -2.20291 0
M  V30 5932 H 555.366 4.34102 -0.667239 0
M  V30 5933 H 555.972 3.64672 -2.18849 0
M  V30 5934 N 554.287 1.06798 1.15896 0
M  V30 5935 C 555.535 0.786211 1.8618 0
M  V30 5936 C 555.856 -0.689547 1.82401 0
M  V30 5937 O 555.126 -1.49913 1.26107 0
M  V30 5938 H 553.706 0.287843 0.689315 0
M  V30 5939 H 556.368 1.35055 1.40521 0
M  V30 5940 H 555.464 1.1157 2.91477 0
M  V30 5941 N 555.766 -1.3263 0.851289 0
M  V30 5942 C 557.182 -1.50162 0.5407 0
M  V30 5943 C 557.382 -1.78788 -0.929369 0
M  V30 5944 O 556.438 -1.85545 -1.71258 0
M  V30 5945 C 557.751 -2.64803 1.42478 0
M  V30 5946 C 559.299 -2.78688 1.42485 0
M  V30 5947 C 559.774 -3.96405 2.29407 0
M  V30 5948 N 561.265 -4.0366 2.27184 0
M  V30 5949 C 562 -4.93971 2.9117 0
M  V30 5950 N 561.496 -5.89313 3.64256 0
M  V30 5951 N 563.289 -4.87066 2.80576 0
M  V30 5952 H 555.44 -1.12315 1.80275 0
M  V30 5953 H 557.703 -0.553266 0.769806 0
M  V30 5954 H 557.409 -2.50368 2.46999 0
M  V30 5955 H 557.283 -3.60506 1.10974 0
M  V30 5956 H 559.67 -2.92547 0.387304 0
M  V30 5957 H 559.751 -1.83708 1.78002 0
M  V30 5958 H 559.395 -3.83304 3.33228 0
M  V30 5959 H 559.325 -4.90654 1.91224 0
M  V30 5960 H 561.816 -3.35435 1.74045 0
M  V30 5961 H 562.129 -6.54913 4.10255 0
M  V30 5962 H 560.474 -5.8935 3.68364 0
M  V30 5963 H 563.665 -4.11552 2.23031 0
M  V30 5964 H 563.838 -5.57248 3.30725 0
M  V30 5965 N 557.244 -0.608902 -1.45362 0
M  V30 5966 C 558.174 0.0964526 -2.33301 0
M  V30 5967 C 559.155 0.857444 -1.46908 0
M  V30 5968 O 560.34 0.827735 -1.75676 0
M  V30 5969 C 557.47 1.09354 -3.29635 0
M  V30 5970 C 556.424 0.445676 -4.25673 0
M  V30 5971 C 555.75 1.5511 -5.11708 0
M  V30 5972 C 557.05 -0.633972 -5.18438 0
M  V30 5973 H 558.744 -0.637829 -2.92527 0
M  V30 5974 H 556.29 -0.308178 -1.40664 0
M  V30 5975 H 558.243 1.59556 -3.90025 0
M  V30 5976 H 556.967 1.85843 -2.6857 0
M  V30 5977 H 555.626 -0.0354897 -3.66583 0
M  V30 5978 H 555.274 2.30631 -4.4701 0
M  V30 5979 H 554.974 1.12311 -5.76767 0
M  V30 5980 H 556.498 2.05537 -5.74967 0
M  V30 5981 H 557.912 -0.215974 -5.72893 0
M  V30 5982 H 556.309 -0.983789 -5.91981 0
M  V30 5983 H 557.379 -1.51005 -4.60788 0
M  V30 5984 N 558.722 1.53707 -0.348139 0
M  V30 5985 C 559.632 2.28881 0.514857 0
M  V30 5986 C 560.648 1.34168 1.10793 0
M  V30 5987 O 561.824 1.6721 1.12262 0
M  V30 5988 C 558.889 3.05042 1.64774 0
M  V30 5989 C 557.95 4.15389 1.08398 0
M  V30 5990 C 557.183 4.87909 2.16287 0
M  V30 5991 O 557.406 4.60137 3.3709 0
M  V30 5992 O 556.34 5.74254 1.80323 0
M  V30 5993 H 560.166 3.03547 -0.0963699 0
M  V30 5994 H 557.751 1.48972 -0.113043 0
M  V30 5995 H 559.633 3.52656 2.30677 0
M  V30 5996 H 558.308 2.33228 2.24469 0
M  V30 5997 H 557.215 3.72068 0.389341 0
M  V30 5998 H 558.548 4.89318 0.531829 0
M  V30 5999 N 560.2 0.0768682 1.57412 0
M  V30 6000 C 561.449 -0.590679 1.92857 0
M  V30 6001 C 561.762 -1.70461 0.959293 0
M  V30 6002 O 562.968 -2.43207 1.20675 0
M  V30 6003 C 561.424 -1.10204 3.42612 0
M  V30 6004 C 561.032 -0.0188447 4.47996 0
M  V30 6005 C 562.776 -1.74336 3.87049 0
M  V30 6006 C 560.683 -0.544536 5.88888 0
M  V30 6007 H 559.613 -0.224411 0.71983 0
M  V30 6008 H 562.264 0.149924 1.82887 0
M  V30 6009 H 560.646 -1.89577 3.47673 0
M  V30 6010 H 561.82 0.755936 4.54557 0
M  V30 6011 H 560.135 0.526555 4.13057 0
M  V30 6012 H 562.732 -2.14708 4.89699 0
M  V30 6013 H 563.075 -2.60537 3.24694 0
M  V30 6014 H 563.608 -1.01577 3.84613 0
M  V30 6015 H 560.347 0.280426 6.549 0
M  V30 6016 H 559.867 -1.28673 5.85836 0
M  V30 6017 H 561.546 -1.01933 6.3892 0
M  V30 6018 N 561.678 -1.56367 -0.196722 0
M  V30 6019 C 562.608 -1.97442 -1.24655 0
M  V30 6020 C 563.589 -0.846147 -1.47561 0
M  V30 6021 O 564.774 -1.11035 -1.59326 0
M  V30 6022 C 561.904 -2.31253 -2.59112 0
M  V30 6023 C 560.858 -3.46804 -2.50821 0
M  V30 6024 C 560.184 -3.66286 -3.89536 0
M  V30 6025 C 561.484 -4.8104 -2.03465 0
M  V30 6026 H 563.178 -2.85388 -0.905216 0
M  V30 6027 H 560.724 -1.37304 -0.434002 0
M  V30 6028 H 562.677 -2.58583 -3.32736 0
M  V30 6029 H 561.401 -1.40188 -2.94983 0
M  V30 6030 H 560.06 -3.19563 -1.79653 0
M  V30 6031 H 559.708 -2.72555 -4.22756 0
M  V30 6032 H 559.408 -4.4402 -3.84864 0
M  V30 6033 H 560.932 -3.9599 -4.64784 0
M  V30 6034 H 562.346 -5.07411 -2.66846 0
M  V30 6035 H 560.743 -5.62232 -2.09798 0
M  V30 6036 H 561.813 -4.74732 -0.98781 0
M  V30 6037 N 563.156 0.464375 -1.50603 0
M  V30 6038 C 564.088 1.57916 -1.66118 0
M  V30 6039 C 565.101 1.53497 -0.54246 0
M  V30 6040 O 566.29 1.58763 -0.815877 0
M  V30 6041 C 563.39 2.96809 -1.63577 0
M  V30 6042 C 562.563 3.26026 -2.91592 0
M  V30 6043 C 561.622 4.44506 -2.81604 0
M  V30 6044 O 560.648 4.44484 -3.55559 0
M  V30 6045 N 561.85 5.46549 -1.95614 0
M  V30 6046 H 564.615 1.45022 -2.62276 0
M  V30 6047 H 562.176 0.652903 -1.48151 0
M  V30 6048 H 564.168 3.74048 -1.54499 0
M  V30 6049 H 562.738 3.03438 -0.751262 0
M  V30 6050 H 561.958 2.37337 -3.14746 0
M  V30 6051 H 563.246 3.42361 -3.76386 0
M  V30 6052 H 562.644 5.49391 -1.34854 0
M  V30 6053 H 561.201 6.22746 -1.92435 0
M  V30 6054 N 564.634 1.40294 0.718013 0
M  V30 6055 C 565.883 1.37746 1.4734 0
M  V30 6056 C 566.196 -0.0180754 1.95592 0
M  V30 6057 O 567.402 -0.166166 2.70991 0
M  V30 6058 C 565.858 2.4208 2.66318 0
M  V30 6059 C 565.466 3.87432 2.24945 0
M  V30 6060 C 567.21 2.48635 3.44065 0
M  V30 6061 C 565.117 4.83368 3.40748 0
M  V30 6062 H 564.047 0.512165 0.553356 0
M  V30 6063 H 566.698 1.66019 0.781661 0
M  V30 6064 H 565.08 2.06903 3.3765 0
M  V30 6065 H 566.254 4.3174 1.6105 0
M  V30 6066 H 564.569 3.8433 1.60249 0
M  V30 6067 H 567.166 3.17499 4.30231 0
M  V30 6068 H 567.509 1.51611 3.87711 0
M  V30 6069 H 568.042 2.82791 2.79775 0
M  V30 6070 H 564.781 5.81716 3.02136 0
M  V30 6071 H 564.301 4.43726 4.03568 0
M  V30 6072 H 565.98 5.03074 4.06848 0
M  V30 6073 N 566.112 -0.949982 1.2575 0
M  V30 6074 C 567.062 -2.03297 1.03221 0
M  V30 6075 C 568.046 -1.60867 -0.0324751 0
M  V30 6076 O 569.238 -1.76047 0.183423 0
M  V30 6077 C 566.367 -3.36938 0.657841 0
M  V30 6078 C 565.453 -3.85878 1.75952 0
M  V30 6079 N 565.844 -4.0756 2.99547 0
M  V30 6080 C 564.142 -4.14709 1.64111 0
M  V30 6081 C 564.843 -4.47961 3.71087 0
M  V30 6082 N 563.819 -4.5416 2.98731 0
M  V30 6083 H 567.621 -2.1806 1.97045 0
M  V30 6084 H 565.135 -1.13516 1.16138 0
M  V30 6085 H 567.132 -4.14155 0.477614 0
M  V30 6086 H 565.792 -3.2355 -0.273025 0
M  V30 6087 H 566.803 -3.94501 3.35544 0
M  V30 6088 H 563.48 -4.10158 0.779527 0
M  V30 6089 H 564.87 -4.73002 4.77199 0
M  V30 6090 N 567.59 -1.07411 -1.15328 0
M  V30 6091 C 568.818 -0.818782 -1.90009 0
M  V30 6092 C 569.233 0.628072 -1.78047 0
M  V30 6093 O 568.59 1.43085 -1.13282 0
M  V30 6094 C 568.641 -1.21874 -3.40337 0
M  V30 6095 O 568.362 -2.60883 -3.51954 0
M  V30 6096 C 569.863 -0.992796 -4.3204 0
M  V30 6097 H 567.083 -0.296007 -0.60218 0
M  V30 6098 H 569.627 -1.43073 -1.46117 0
M  V30 6099 H 567.782 -0.651103 -3.81889 0
M  V30 6100 H 568.196 -2.77216 -4.45255 0
M  V30 6101 H 569.67 -1.32215 -5.35932 0
M  V30 6102 H 570.147 0.0708331 -4.39143 0
M  V30 6103 H 570.753 -1.54537 -3.9623 0
M  V30 6104 N 569.068 1.32177 -0.85831 0
M  V30 6105 C 570.015 2.28794 -0.303607 0
M  V30 6106 C 570.985 1.55213 0.591453 0
M  V30 6107 O 572.17 1.83418 0.525585 0
M  V30 6108 C 569.31 3.41475 0.49889 0
M  V30 6109 C 568.423 4.2993 -0.422373 0
M  V30 6110 C 567.558 5.29743 0.393111 0
M  V30 6111 C 566.597 6.09842 -0.525317 0
M  V30 6112 N 565.734 7.01643 0.253208 0
M  V30 6113 H 570.574 2.75631 -1.13276 0
M  V30 6114 H 568.111 1.35606 -0.570026 0
M  V30 6115 H 570.069 4.05531 0.979826 0
M  V30 6116 H 568.699 2.95779 1.29284 0
M  V30 6117 H 567.751 3.66422 -1.02171 0
M  V30 6118 H 569.063 4.85899 -1.12709 0
M  V30 6119 H 568.217 5.9942 0.937056 0
M  V30 6120 H 566.956 4.744 1.13117 0
M  V30 6121 H 565.961 5.39066 -1.08112 0
M  V30 6122 H 567.186 6.6727 -1.26205 0
M  V30 6123 H 565.132 6.48725 0.974295 0
M  V30 6124 H 565.049 7.54981 -0.392398 0
M  V30 6125 H 566.317 7.756 0.778761 0
M  V30 6126 N 570.547 0.616602 1.45037 0
M  V30 6127 C 571.495 -0.109318 2.32343 0
M  V30 6128 C 572.489 -0.850543 1.465 0
M  V30 6129 O 573.695 -0.765088 1.62931 0
M  V30 6130 H 570.07 -0.0541091 0.750051 0
M  V30 6131 H 572.041 0.645326 2.91338 0
M  V30 6132 C 570.79 -1.0872 3.30266 0
M  V30 6133 H 570.113 -0.526267 3.96321 0
M  V30 6134 H 571.553 -1.56489 3.94065 0
M  V30 6135 C 570.012 -2.16525 2.58105 0
M  V30 6136 O 570.542 -3.244 2.36913 0
M  V30 6137 N 568.748 -1.92057 2.18088 0
M  V30 6138 H 568.295 -1.04337 2.35524 0
M  V30 6139 H 568.253 -2.64391 1.70131 0
M  V30 6140 N 572.025 -1.5352 0.356285 0
M  V30 6141 C 572.958 -2.2177 -0.537913 0
M  V30 6142 C 573.936 -1.20626 -1.09033 0
M  V30 6143 O 575.12 -1.49494 -1.1482 0
M  V30 6144 C 572.247 -2.90513 -1.74126 0
M  V30 6145 C 571.293 -4.05652 -1.31715 0
M  V30 6146 S 572.126 -5.34505 -0.326236 0
M  V30 6147 C 573.282 -6.06757 -1.53612 0
M  V30 6148 H 573.515 -2.97271 0.0417411 0
M  V30 6149 H 571.048 -1.53761 0.140372 0
M  V30 6150 H 573.006 -3.30735 -2.43155 0
M  V30 6151 H 571.667 -2.14754 -2.29215 0
M  V30 6152 H 570.86 -4.52733 -2.21471 0
M  V30 6153 H 570.462 -3.67272 -0.706183 0
M  V30 6154 H 572.754 -6.30924 -2.46863 0
M  V30 6155 H 573.697 -6.99395 -1.10687 0
M  V30 6156 H 574.105 -5.3708 -1.73796 0
M  V30 6157 N 573.503 -0.0852151 -1.57369 0
M  V30 6158 C 574.45 0.877268 -2.13478 0
M  V30 6159 C 575.42 1.28642 -1.05073 0
M  V30 6160 O 576.605 1.36992 -1.32808 0
M  V30 6161 C 573.745 2.13464 -2.71159 0
M  V30 6162 C 572.858 1.77691 -3.93764 0
M  V30 6163 C 571.993 2.98139 -4.39643 0
M  V30 6164 C 571.032 2.58447 -5.54862 0
M  V30 6165 N 570.169 3.71698 -5.95639 0
M  V30 6166 H 575.009 0.391933 -2.95411 0
M  V30 6167 H 572.546 0.181796 -1.45972 0
M  V30 6168 H 574.504 2.87086 -3.02717 0
M  V30 6169 H 573.134 2.59514 -1.91969 0
M  V30 6170 H 572.186 0.940768 -3.68583 0
M  V30 6171 H 573.498 1.44497 -4.77412 0
M  V30 6172 H 572.652 3.80026 -4.72933 0
M  V30 6173 H 571.391 3.34536 -3.54876 0
M  V30 6174 H 570.396 1.74984 -5.21211 0
M  V30 6175 H 571.621 2.23205 -6.41371 0
M  V30 6176 H 569.567 4.07831 -5.13819 0
M  V30 6177 H 569.484 3.42317 -6.74059 0
M  V30 6178 H 570.752 4.54123 -6.33555 0
M  V30 6179 N 574.981 1.5647 0.188427 0
M  V30 6180 C 575.911 1.98101 1.23606 0
M  V30 6181 C 576.892 0.853961 1.47111 0
M  V30 6182 O 578.077 1.11879 1.58735 0
M  V30 6183 C 575.207 2.32624 2.57882 0
M  V30 6184 C 574.161 3.48129 2.48978 0
M  V30 6185 C 573.487 3.68347 3.87588 0
M  V30 6186 C 574.787 4.82112 2.00911 0
M  V30 6187 H 576.481 2.85864 0.890068 0
M  V30 6188 H 574.027 1.37532 0.426714 0
M  V30 6189 H 575.98 2.60343 3.3136 0
M  V30 6190 H 574.704 1.41751 2.94235 0
M  V30 6191 H 573.363 3.20511 1.77956 0
M  V30 6192 H 573.011 2.74793 4.21305 0
M  V30 6193 H 572.711 4.46055 3.82503 0
M  V30 6194 H 574.235 3.98449 4.62678 0
M  V30 6195 H 575.649 5.08819 2.64151 0
M  V30 6196 H 574.046 5.63337 2.06814 0
M  V30 6197 H 575.116 4.75249 0.96262 0
M  V30 6198 N 576.459 -0.456382 1.50847 0
M  V30 6199 C 577.422 -1.53493 1.70213 0
M  V30 6200 C 578.422 -1.50264 0.572481 0
M  V30 6201 O 579.612 -1.52623 0.839751 0
M  V30 6202 C 576.744 -2.93091 1.741 0
M  V30 6203 H 577.937 -1.37633 2.66453 0
M  V30 6204 H 575.49 -0.683776 1.4055 0
M  V30 6205 H 576.225 -3.14378 0.796063 0
M  V30 6206 H 576.01 -2.9684 2.5618 0
M  V30 6207 H 577.5 -3.71368 1.90987 0
M  V30 6208 N 577.937 -1.40673 -0.710563 0
M  V30 6209 C 579.214 -1.29718 -1.46398 0
M  V30 6210 C 579.594 0.082177 -2.1094 0
M  V30 6211 O 578.942 1.09536 -2.00534 0
M  V30 6212 C 579.152 -2.43967 -2.49562 0
M  V30 6213 C 580.5 -2.84436 -3.15248 0
M  V30 6214 O 581.524 -2.43597 -2.59883 0
M  V30 6215 O 580.383 -3.55008 -4.1549 0
M  V30 6216 H 577.477 -0.509697 -0.651258 0
M  V30 6217 H 580.023 -1.52603 -0.742312 0
M  V30 6218 H 578.795 -3.36076 -2.0042 0
M  V30 6219 H 578.418 -2.22879 -3.29258 0
M  V30 6220 N 579.415 0.9433 -1.26252 0
M  V30 6221 C 580.692 1.66639 -1.02424 0
M  V30 6222 C 581.072 2.06335 0.446006 0
M  V30 6223 O 580.42 1.78551 1.42589 0
M  V30 6224 C 580.63 2.88019 -1.97094 0
M  V30 6225 C 581.978 3.59718 -2.25584 0
M  V30 6226 O 583.002 2.9812 -1.94943 0
M  V30 6227 O 581.861 4.7066 -2.77743 0
M  V30 6228 H 578.955 0.729643 -0.389294 0
M  V30 6229 H 581.501 0.995218 -1.37454 0
M  V30 6230 H 580.273 2.5556 -2.96319 0
M  V30 6231 H 579.896 3.62863 -1.62532 0
M  V30 6232 N 580.893 1.08022 1.14757 0
M  V30 6233 C 582.139 0.808705 1.85978 0
M  V30 6234 C 582.472 -0.663764 1.82504 0
M  V30 6235 O 581.747 -1.48765 1.25296 0
M  V30 6236 C 582.03 1.32623 3.34788 0
M  V30 6237 C 581.883 2.86375 3.46856 0
M  V30 6238 C 583.202 0.948291 4.29762 0
M  V30 6239 H 580.321 0.295244 0.675278 0
M  V30 6240 H 582.963 1.33917 1.34783 0
M  V30 6241 H 581.113 0.875002 3.78518 0
M  V30 6242 H 582.785 3.39839 3.11941 0
M  V30 6243 H 581.028 3.24232 2.88194 0
M  V30 6244 H 581.699 3.17658 4.51439 0
M  V30 6245 H 584.175 1.33722 3.94028 0
M  V30 6246 H 583.051 1.33765 5.32352 0
M  V30 6247 H 583.312 -0.145094 4.41862 0
M  V30 6248 N 582.371 -1.3172 0.865308 0
M  V30 6249 C 583.648 -1.91574 0.394789 0
M  V30 6250 C 584.028 -1.78769 -1.12271 0
M  V30 6251 O 583.376 -1.19245 -1.94918 0
M  V30 6252 C 583.586 -3.37957 0.870982 0
M  V30 6253 C 584.934 -4.15073 0.894384 0
M  V30 6254 O 585.958 -3.4672 0.816325 0
M  V30 6255 O 584.817 -5.37151 1.00651 0
M  V30 6256 H 581.911 -0.818649 0.117229 0
M  V30 6257 H 584.457 -1.4042 0.952913 0
M  V30 6258 H 583.229 -3.41269 1.91444 0
M  V30 6259 H 582.852 -3.96534 0.290907 0
M  V30 6260 N 583.85 -0.624285 -1.44708 0
M  V30 6261 C 584.779 0.0717025 -2.3339 0
M  V30 6262 C 585.76 0.841814 -1.47809 0
M  V30 6263 O 586.946 0.809056 -1.76544 0
M  V30 6264 C 584.076 1.05852 -3.30776 0
M  V30 6265 C 583.029 0.400503 -4.26122 0
M  V30 6266 C 582.356 1.49674 -5.13324 0
M  V30 6267 C 583.656 -0.688924 -5.17737 0
M  V30 6268 H 585.35 -0.668819 -2.91834 0
M  V30 6269 H 582.896 -0.32308 -1.40329 0
M  V30 6270 H 584.849 1.5541 -3.91696 0
M  V30 6271 H 583.572 1.82984 -2.70526 0
M  V30 6272 H 582.231 -0.0743687 -3.66525 0
M  V30 6273 H 581.88 2.25877 -4.49431 0
M  V30 6274 H 581.58 1.06188 -5.77926 0
M  V30 6275 H 583.104 1.99427 -5.77115 0
M  V30 6276 H 584.518 -0.276724 -5.72632 0
M  V30 6277 H 582.915 -1.04652 -5.90904 0
M  V30 6278 H 583.985 -1.55884 -4.5916 0
M  V30 6279 N 585.328 1.53329 -0.364422 0
M  V30 6280 C 586.238 2.29414 0.490552 0
M  V30 6281 C 587.254 1.35335 1.09363 0
M  V30 6282 O 588.43 1.68391 1.10483 0
M  V30 6283 C 585.495 3.06772 1.61529 0
M  V30 6284 C 584.556 4.16516 1.03986 0
M  V30 6285 C 583.789 4.90176 2.111 0
M  V30 6286 O 584.012 4.63687 3.32191 0
M  V30 6287 O 582.946 5.76134 1.74222 0
M  V30 6288 H 586.772 3.03428 -0.12856 0
M  V30 6289 H 584.357 1.48843 -0.128837 0
M  V30 6290 H 586.239 3.55082 2.26924 0
M  V30 6291 H 584.914 2.35596 2.21983 0
M  V30 6292 H 583.821 3.7246 0.349856 0
M  V30 6293 H 585.154 4.89855 0.4799 0
M  V30 6294 N 586.806 0.0935595 1.57322 0
M  V30 6295 C 587.738 -0.895923 2.10964 0
M  V30 6296 C 588.751 -1.24705 1.04654 0
M  V30 6297 O 589.94 -1.20044 1.32105 0
M  V30 6298 C 587.04 -2.20546 2.57318 0
M  V30 6299 C 586.213 -2.0299 3.87445 0
M  V30 6300 C 585.272 -3.17443 4.19662 0
M  V30 6301 O 584.298 -2.91474 4.88909 0
M  V30 6302 N 585.5 -4.43168 3.74943 0
M  V30 6303 H 588.265 -0.437788 2.96485 0
M  V30 6304 H 585.826 -0.0915863 1.61641 0
M  V30 6305 H 587.818 -2.9606 2.75917 0
M  V30 6306 H 586.388 -2.57789 1.76816 0
M  V30 6307 H 585.608 -1.11815 3.78009 0
M  V30 6308 H 586.896 -1.88535 4.7258 0
M  V30 6309 H 586.294 -4.67149 3.19043 0
M  V30 6310 H 584.851 -5.15637 3.987 0
M  V30 6311 N 588.284 -1.56567 -0.180126 0
M  V30 6312 C 589.53 -1.81761 -0.899497 0
M  V30 6313 C 589.863 -0.670015 -1.82276 0
M  V30 6314 O 589.138 0.328575 -1.91705 0
M  V30 6315 C 589.421 -3.17296 -1.7028 0
M  V30 6316 C 589.274 -4.4257 -0.803255 0
M  V30 6317 C 590.593 -3.49678 -2.67233 0
M  V30 6318 H 587.712 -0.661192 -0.325567 0
M  V30 6319 H 590.354 -1.89272 -0.16612 0
M  V30 6320 H 588.504 -3.11023 -2.32802 0
M  V30 6321 H 590.176 -4.60902 -0.191585 0
M  V30 6322 H 588.419 -4.33658 -0.110796 0
M  V30 6323 H 589.09 -5.33935 -1.40064 0
M  V30 6324 H 591.566 -3.56347 -2.14839 0
M  V30 6325 H 590.442 -4.45605 -3.20511 0
M  V30 6326 H 590.703 -2.73932 -3.47007 0
M  V30 6327 N 589.762 0.448376 -1.51087 0
M  V30 6328 C 590.725 1.52588 -1.71025 0
M  V30 6329 C 591.725 1.49958 -0.580442 0
M  V30 6330 O 592.915 1.52176 -0.847833 0
M  V30 6331 C 590.047 2.92163 -1.75652 0
M  V30 6332 H 591.24 1.36218 -2.67179 0
M  V30 6333 H 588.793 0.676313 -1.4091 0
M  V30 6334 H 589.528 3.13951 -0.812724 0
M  V30 6335 H 589.313 2.95478 -2.57751 0
M  V30 6336 H 590.803 3.70349 -1.92953 0
M  V30 6337 N 591.24 1.41047 0.703093 0
M  V30 6338 C 592.188 1.42494 1.83843 0
M  V30 6339 C 593.182 0.303885 1.66652 0
M  V30 6340 O 594.388 0.475544 1.73605 0
M  V30 6341 H 590.763 0.445685 0.605697 0
M  V30 6342 H 592.734 2.38194 1.79739 0
M  V30 6343 C 591.483 1.31666 3.21807 0
M  V30 6344 H 590.806 2.17212 3.35647 0
M  V30 6345 H 592.246 1.36738 4.01346 0
M  V30 6346 C 590.705 0.0281828 3.36888 0
M  V30 6347 O 591.235 -0.929995 3.90786 0
M  V30 6348 N 589.441 -0.0454322 2.90564 0
M  V30 6349 H 588.988 0.735046 2.4689 0
M  V30 6350 H 588.946 -0.906968 3.01034 0
M  V30 6351 N 592.718 -0.936591 1.26751 0
M  V30 6352 C 593.628 -2.06949 1.10496 0
M  V30 6353 C 594.644 -1.7396 0.037271 0
M  V30 6354 O 595.82 -1.99941 0.241944 0
M  V30 6355 C 592.885 -3.38612 0.744491 0
M  V30 6356 C 591.946 -3.85355 1.89209 0
M  V30 6357 C 591.179 -5.10735 1.54873 0
M  V30 6358 O 591.402 -5.68602 0.452546 0
M  V30 6359 O 590.336 -5.52632 2.38499 0
M  V30 6360 H 594.162 -2.23571 2.05547 0
M  V30 6361 H 591.747 -1.05428 1.05855 0
M  V30 6362 H 593.629 -4.17711 0.556396 0
M  V30 6363 H 592.304 -3.23218 -0.176582 0
M  V30 6364 H 591.211 -3.07182 2.13518 0
M  V30 6365 H 592.544 -4.05277 2.79305 0
M  V30 6366 N 594.196 -1.08629 -1.14182 0
M  V30 6367 C 595.424 -0.838889 -1.8913 0
M  V30 6368 C 595.839 0.609153 -1.78703 0
M  V30 6369 O 595.196 1.41876 -1.14794 0
M  V30 6370 C 595.247 -1.25477 -3.39025 0
M  V30 6371 O 594.968 -2.64601 -3.49167 0
M  V30 6372 C 596.469 -1.03856 -4.30963 0
M  V30 6373 H 593.689 -0.302377 -0.599007 0
M  V30 6374 H 596.233 -1.44615 -1.44592 0
M  V30 6375 H 594.388 -0.691571 -3.81177 0
M  V30 6376 H 594.802 -2.81922 -4.42289 0
M  V30 6377 H 596.276 -1.37892 -5.345 0
M  V30 6378 H 596.753 0.0242522 -4.39193 0
M  V30 6379 H 597.359 -1.58731 -3.94569 0
M  V30 6380 N 595.674 1.31259 -0.872281 0
M  V30 6381 C 596.624 2.26 -0.301295 0
M  V30 6382 C 597.608 1.50729 0.562991 0
M  V30 6383 O 598.8 1.72198 0.40949 0
M  V30 6384 C 595.929 3.39724 0.494227 0
M  V30 6385 C 595.015 4.22363 -0.383432 0
M  V30 6386 N 595.406 4.83724 -1.47799 0
M  V30 6387 C 593.704 4.45652 -0.176278 0
M  V30 6388 C 594.405 5.45523 -2.01939 0
M  V30 6389 N 593.381 5.27428 -1.31608 0
M  V30 6390 H 597.183 2.70981 -1.13782 0
M  V30 6391 H 594.697 1.45552 -0.720294 0
M  V30 6392 H 596.694 4.06626 0.919828 0
M  V30 6393 H 595.354 2.96286 1.32834 0
M  V30 6394 H 596.365 4.83313 -1.8609 0
M  V30 6395 H 593.042 4.12845 0.621698 0
M  V30 6396 H 594.432 6.04268 -2.93786 0
M  V30 6397 N 597.152 0.631951 1.44375 0
M  V30 6398 C 598.4 0.136497 2.01639 0
M  V30 6399 C 598.721 -1.24637 1.49969 0
M  V30 6400 O 597.991 -1.82827 0.70363 0
M  V30 6401 H 596.571 0.0474703 0.74549 0
M  V30 6402 H 599.233 0.818837 1.76865 0
M  V30 6403 H 598.329 0.104817 3.11924 0
M  V30 6404 N 598.631 -1.53133 0.372548 0
M  V30 6405 C 599.581 -2.22733 -0.487218 0
M  V30 6406 C 600.565 -1.22506 -1.04312 0
M  V30 6407 O 601.757 -1.47923 -0.972005 0
M  V30 6408 C 598.886 -3.02524 -1.62278 0
M  V30 6409 C 597.972 -4.10133 -1.07943 0
M  V30 6410 N 598.363 -5.05133 -0.259629 0
M  V30 6411 C 596.661 -4.24964 -1.35356 0
M  V30 6412 C 597.362 -5.81687 0.0386656 0
M  V30 6413 N 596.338 -5.40699 -0.560827 0
M  V30 6414 H 600.14 -2.93538 0.145853 0
M  V30 6415 H 597.654 -1.61389 0.180938 0
M  V30 6416 H 599.651 -3.50909 -2.25096 0
M  V30 6417 H 598.311 -2.33252 -2.25884 0
M  V30 6418 H 599.322 -5.178 0.101746 0
M  V30 6419 H 595.999 -3.66919 -1.9919 0
M  V30 6420 H 597.389 -6.68224 0.701841 0
M  V30 6421 N 600.109 -0.101901 -1.5727 0
M  V30 6422 C 601.355 0.561027 -1.94885 0
M  V30 6423 C 601.688 1.6741 -0.984258 0
M  V30 6424 O 600.963 1.94491 -0.0184767 0
M  V30 6425 C 601.246 1.10982 -3.42571 0
M  V30 6426 C 601.099 0.00133418 -4.498 0
M  V30 6427 C 602.418 2.00608 -3.9172 0
M  V30 6428 H 599.537 0.202467 -0.708644 0
M  V30 6429 H 602.179 -0.173992 -1.89202 0
M  V30 6430 H 600.329 1.73621 -3.47546 0
M  V30 6431 H 602.001 -0.63322 -4.56933 0
M  V30 6432 H 600.244 -0.664143 -4.28686 0
M  V30 6433 H 600.915 0.426253 -5.50352 0
M  V30 6434 H 603.391 1.47864 -3.88941 0
M  V30 6435 H 602.267 2.3593 -4.95609 0
M  V30 6436 H 602.528 2.92608 -3.3141 0
M  V30 6437 N 601.587 1.56661 0.17182 0
M  V30 6438 C 602.835 1.81606 0.886774 0
M  V30 6439 C 603.156 0.678818 1.82803 0
M  V30 6440 O 602.426 -0.301354 1.93568 0
M  V30 6441 H 601.006 0.669934 0.330451 0
M  V30 6442 H 603.668 1.94142 0.171757 0
M  V30 6443 H 602.764 2.75634 1.46398 0
M  V30 6444 N 603.065 -0.440357 1.51323 0
M  V30 6445 C 604.028 -1.51679 1.71832 0
M  V30 6446 C 605.028 -1.49648 0.588386 0
M  V30 6447 O 606.218 -1.51724 0.855891 0
M  V30 6448 C 603.35 -2.91228 1.77199 0
M  V30 6449 H 604.543 -1.34799 2.67898 0
M  V30 6450 H 602.096 -0.66883 1.41267 0
M  V30 6451 H 602.831 -3.13516 0.829363 0
M  V30 6452 H 602.616 -2.94107 2.59314 0
M  V30 6453 H 604.106 -3.69321 1.94915 0
M  V30 6454 N 604.543 -1.41418 -0.695603 0
M  V30 6455 C 605.82 -1.31264 -1.45014 0
M  V30 6456 C 606.2 0.0597994 -2.11015 0
M  V30 6457 O 605.548 1.07403 -2.01685 0
M  V30 6458 C 605.758 -2.466 -2.4696 0
M  V30 6459 C 607.106 -2.87763 -3.12214 0
M  V30 6460 O 608.13 -2.46339 -2.57285 0
M  V30 6461 O 606.989 -3.59395 -4.11701 0
M  V30 6462 H 604.083 -0.516576 -0.645816 0
M  V30 6463 H 606.629 -1.53382 -0.726084 0
M  V30 6464 H 605.401 -3.38183 -1.96845 0
M  V30 6465 H 605.024 -2.26358 -3.26876 0
M  V30 6466 N 606.021 0.929856 -1.27246 0
M  V30 6467 C 606.951 2.04722 -1.12299 0
M  V30 6468 C 607.932 1.70082 -0.0250464 0
M  V30 6469 O 609.117 1.93176 -0.199141 0
M  V30 6470 C 606.247 3.38721 -0.767145 0
M  V30 6471 C 605.201 3.87466 -1.81808 0
M  V30 6472 C 604.527 5.18246 -1.31626 0
M  V30 6473 C 605.827 4.11095 -3.22177 0
M  V30 6474 H 607.521 2.17485 -2.05769 0
M  V30 6475 H 605.067 1.04503 -0.990715 0
M  V30 6476 H 607.02 4.16366 -0.649413 0
M  V30 6477 H 605.744 3.25967 0.203259 0
M  V30 6478 H 604.403 3.12012 -1.92468 0
M  V30 6479 H 604.051 5.01881 -0.335378 0
M  V30 6480 H 603.751 5.51829 -2.01887 0
M  V30 6481 H 605.275 5.98462 -1.21143 0
M  V30 6482 H 606.689 4.79316 -3.1453 0
M  V30 6483 H 605.086 4.55982 -3.90129 0
M  V30 6484 H 606.156 3.16468 -3.67391 0
M  V30 6485 N 607.499 1.09233 1.13605 0
M  V30 6486 C 608.462 0.733553 2.17144 0
M  V30 6487 C 609.462 -0.235873 1.59061 0
M  V30 6488 O 610.652 -0.0143167 1.74194 0
M  V30 6489 C 607.784 0.084471 3.40795 0
M  V30 6490 H 608.977 1.65049 2.50397 0
M  V30 6491 H 606.53 0.891264 1.28399 0
M  V30 6492 H 607.265 -0.843795 3.1313 0
M  V30 6493 H 607.05 0.781985 3.84223 0
M  V30 6494 H 608.54 -0.151216 4.17326 0
M  V30 6495 N 608.977 -1.30795 0.87923 0
M  V30 6496 C 609.94 -2.26563 0.346676 0
M  V30 6497 C 610.94 -1.52578 -0.507597 0
M  V30 6498 O 612.13 -1.71318 -0.315575 0
M  V30 6499 C 609.262 -3.37115 -0.506611 0
M  V30 6500 H 610.455 -2.75183 1.19223 0
M  V30 6501 H 608.008 -1.41886 0.655598 0
M  V30 6502 H 608.743 -2.93802 -1.37299 0
M  V30 6503 H 608.528 -3.91959 0.105218 0
M  V30 6504 H 610.018 -4.08412 -0.871192 0
M  V30 6505 N 610.455 -0.639598 -1.44038 0
M  V30 6506 C 611.385 0.0469443 -2.33453 0
M  V30 6507 C 612.366 0.82609 -1.48694 0
M  V30 6508 O 613.551 0.790285 -1.77393 0
M  V30 6509 C 610.681 1.02338 -3.3188 0
M  V30 6510 C 609.635 0.355284 -4.26523 0
M  V30 6511 C 608.961 1.44221 -5.14883 0
M  V30 6512 C 610.261 -0.743798 -5.16977 0
M  V30 6513 H 611.955 -0.699735 -2.91108 0
M  V30 6514 H 609.501 -0.337946 -1.39978 0
M  V30 6515 H 611.454 1.51247 -3.93322 0
M  V30 6516 H 610.178 1.80105 -2.72451 0
M  V30 6517 H 608.837 -0.113239 -3.66425 0
M  V30 6518 H 608.485 2.21097 -4.51802 0
M  V30 6519 H 608.185 1.00052 -5.79019 0
M  V30 6520 H 609.709 1.93295 -5.79197 0
M  V30 6521 H 611.123 -0.337444 -5.72306 0
M  V30 6522 H 609.52 -1.10914 -5.89761 0
M  V30 6523 H 610.59 -1.60745 -4.57481 0
M  V30 6524 N 611.933 1.52934 -0.380664 0
M  V30 6525 C 613.173 2.03378 0.204161 0
M  V30 6526 C 613.537 1.26132 1.44758 0
M  V30 6527 O 614.738 1.66657 2.109 0
M  V30 6528 C 613.009 3.54241 0.474118 0
M  V30 6529 S 614.568 4.26529 1.03046 0
M  V30 6530 H 611.386 0.708608 0.0582719 0
M  V30 6531 H 613.988 1.88263 -0.527017 0
M  V30 6532 H 612.692 4.08055 -0.438088 0
M  V30 6533 H 612.223 3.73547 1.23396 0
M  V30 6534 H 614.238 4.38964 2.31354 0
M  V30 6535 N 613.412 0.11024 1.57214 0
M  V30 6536 C 614.637 -0.561179 1.99664 0
M  V30 6537 C 615.062 -1.59985 0.989266 0
M  V30 6538 O 614.42 -1.81255 -0.0402399 0
M  V30 6539 C 614.468 -1.17189 3.41027 0
M  V30 6540 O 613.572 -2.28755 3.4314 0
M  V30 6541 H 612.913 -0.14101 0.648855 0
M  V30 6542 H 615.443 0.196128 2.03658 0
M  V30 6543 H 615.453 -1.50954 3.79047 0
M  V30 6544 H 614.128 -0.411041 4.13864 0
M  V30 6545 H 612.705 -1.96495 3.16929 0
M  V30 6546 N 614.89 -1.56749 -0.16351 0
M  V30 6547 C 615.8 -2.00255 -1.2221 0
M  V30 6548 C 616.816 -0.915194 -1.47987 0
M  V30 6549 O 617.992 -1.22342 -1.59982 0
M  V30 6550 C 615.057 -2.36035 -2.53946 0
M  V30 6551 C 614.118 -3.58637 -2.35962 0
M  V30 6552 C 613.351 -3.92701 -3.61416 0
M  V30 6553 O 613.574 -3.27632 -4.66919 0
M  V30 6554 O 612.508 -4.86019 -3.55062 0
M  V30 6555 H 616.334 -2.90586 -0.882794 0
M  V30 6556 H 613.919 -1.44721 -0.370978 0
M  V30 6557 H 615.801 -2.59982 -3.31643 0
M  V30 6558 H 614.476 -1.48863 -2.8744 0
M  V30 6559 H 613.383 -3.39898 -1.5627 0
M  V30 6560 H 614.716 -4.46374 -2.0739 0
M  V30 6561 N 616.368 0.432326 -1.51554 0
M  V30 6562 C 617.331 1.50765 -1.72634 0
M  V30 6563 C 618.331 1.49334 -0.596314 0
M  V30 6564 O 619.521 1.51268 -0.863925 0
M  V30 6565 C 616.653 2.90284 -1.7874 0
M  V30 6566 H 617.846 1.33377 -2.68609 0
M  V30 6567 H 615.399 0.661329 -1.4162 0
M  V30 6568 H 616.134 3.13071 -0.845977 0
M  V30 6569 H 615.919 2.92727 -2.6087 0
M  V30 6570 H 617.409 3.68282 -1.96871 0
M  V30 6571 N 617.846 1.41785 0.688094 0
M  V30 6572 C 618.809 1.43936 1.78368 0
M  V30 6573 C 619.809 0.328866 1.57401 0
M  V30 6574 O 620.999 0.589093 1.63937 0
M  V30 6575 C 618.131 1.25804 3.16838 0
M  V30 6576 H 619.324 2.41472 1.77852 0
M  V30 6577 H 616.877 1.28037 0.896448 0
M  V30 6578 H 617.612 0.291386 3.22988 0
M  V30 6579 H 617.397 2.06272 3.33458 0
M  V30 6580 H 618.887 1.30162 3.96797 0
M  V30 6581 N 619.324 -0.923095 1.27737 0
M  V30 6582 C 620.254 -2.04124 1.13383 0
M  V30 6583 C 621.235 -1.70066 0.0340658 0
M  V30 6584 O 622.42 -1.93068 0.209383 0
M  V30 6585 C 619.55 -3.3831 0.785097 0
M  V30 6586 C 618.504 -3.86496 1.8386 0
M  V30 6587 C 617.83 -5.1754 1.34373 0
M  V30 6588 C 619.13 -4.09381 3.24353 0
M  V30 6589 H 620.824 -2.1639 2.06919 0
M  V30 6590 H 618.37 -1.03976 0.996243 0
M  V30 6591 H 620.323 -4.16016 0.671485 0
M  V30 6592 H 619.047 -3.2607 -0.185969 0
M  V30 6593 H 617.706 -3.10987 1.9412 0
M  V30 6594 H 617.354 -5.01696 0.361989 0
M  V30 6595 H 617.054 -5.50751 2.04811 0
M  V30 6596 H 618.578 -5.97811 1.24315 0
M  V30 6597 H 619.992 -4.77641 3.17067 0
M  V30 6598 H 618.389 -4.53906 3.92542 0
M  V30 6599 H 619.459 -3.14515 3.69064 0
M  V30 6600 N 620.802 -1.09834 -1.13024 0
M  V30 6601 C 621.734 -0.699379 -2.18269 0
M  V30 6602 C 622.747 0.260841 -1.60697 0
M  V30 6603 O 623.936 0.0462538 -1.7844 0
M  V30 6604 C 621.036 -0.0104537 -3.38898 0
M  V30 6605 C 620.209 -0.993275 -4.25973 0
M  V30 6606 C 619.268 -0.336982 -5.2512 0
M  V30 6607 O 618.294 -0.985892 -5.60597 0
M  V30 6608 N 619.496 0.90716 -5.73368 0
M  V30 6609 H 622.261 -1.60486 -2.5311 0
M  V30 6610 H 619.822 -0.986337 -1.28386 0
M  V30 6611 H 621.814 0.43991 -4.02302 0
M  V30 6612 H 620.384 0.797335 -3.0226 0
M  V30 6613 H 619.604 -1.62208 -3.5928 0
M  V30 6614 H 620.892 -1.65876 -4.81002 0
M  V30 6615 H 620.29 1.45384 -5.46699 0
M  V30 6616 H 618.847 1.30077 -6.38689 0
M  V30 6617 N 622.28 1.30327 -0.886154 0
M  V30 6618 C 623.243 2.26376 -0.358687 0
M  V30 6619 C 624.243 1.52845 0.499498 0
M  V30 6620 O 625.433 1.71483 0.306485 0
M  V30 6621 C 622.565 3.37379 0.488726 0
M  V30 6622 H 623.758 2.74547 -1.20681 0
M  V30 6623 H 621.311 1.41536 -0.663113 0
M  V30 6624 H 622.046 2.94526 1.35739 0
M  V30 6625 H 621.831 3.91897 -0.126003 0
M  V30 6626 H 623.321 4.08868 0.84952 0
M  V30 6627 N 623.758 0.647228 1.43697 0
M  V30 6628 C 625.007 0.155552 2.01099 0
M  V30 6629 C 625.32 -1.23569 1.51624 0
M  V30 6630 O 626.526 -1.82226 2.01261 0
M  V30 6631 C 624.982 0.227296 3.59182 0
M  V30 6632 C 624.59 1.62086 4.17651 0
M  V30 6633 C 626.334 -0.207085 4.23995 0
M  V30 6634 C 624.241 1.64685 5.68008 0
M  V30 6635 H 623.171 0.0543895 0.752036 0
M  V30 6636 H 625.822 0.808386 1.64734 0
M  V30 6637 H 624.204 -0.492937 3.9292 0
M  V30 6638 H 625.378 2.36597 3.95422 0
M  V30 6639 H 623.693 2.0007 3.65186 0
M  V30 6640 H 626.29 -0.207426 5.34298 0
M  V30 6641 H 626.633 -1.23742 3.97484 0
M  V30 6642 H 627.166 0.461193 3.95118 0
M  V30 6643 H 623.905 2.65608 5.99277 0
M  V30 6644 H 623.425 0.944914 5.9231 0
M  V30 6645 H 625.104 1.38792 6.31938 0
M  V30 6646 N 625.236 -1.5273 0.388769 0
M  V30 6647 C 626.652 -1.59553 0.0387049 0
M  V30 6648 C 626.852 -1.40278 -1.44652 0
M  V30 6649 O 625.908 -1.21951 -2.21098 0
M  V30 6650 C 627.221 -2.9625 0.515409 0
M  V30 6651 C 628.769 -3.09426 0.471621 0
M  V30 6652 C 629.244 -4.48572 0.924505 0
M  V30 6653 N 630.735 -4.54754 0.880496 0
M  V30 6654 C 631.47 -5.60653 1.20234 0
M  V30 6655 N 630.966 -6.74198 1.59463 0
M  V30 6656 N 632.759 -5.50755 1.12363 0
M  V30 6657 H 624.91 -1.63508 1.35569 0
M  V30 6658 H 627.173 -0.768097 0.555636 0
M  V30 6659 H 626.879 -3.15569 1.5527 0
M  V30 6660 H 626.753 -3.77102 -0.085792 0
M  V30 6661 H 629.14 -2.89804 -0.556588 0
M  V30 6662 H 629.221 -2.30528 1.10862 0
M  V30 6663 H 628.865 -4.68936 1.95094 0
M  V30 6664 H 628.795 -5.25935 0.264524 0
M  V30 6665 H 631.286 -3.73237 0.591815 0
M  V30 6666 H 631.599 -7.5097 1.82385 0
M  V30 6667 H 629.944 -6.75531 1.63349 0
M  V30 6668 H 633.135 -4.6093 0.816169 0
M  V30 6669 H 633.308 -6.33184 1.37777 0
M  V30 6670 N 626.714 -0.118576 -1.57153 0
M  V30 6671 C 627.661 0.831789 -2.1529 0
M  V30 6672 C 628.631 1.26385 -1.07778 0
M  V30 6673 O 629.816 1.34144 -1.35684 0
M  V30 6674 C 626.956 2.07664 -2.75626 0
M  V30 6675 C 626.069 1.69298 -3.97444 0
M  V30 6676 C 625.204 2.88747 -4.45868 0
M  V30 6677 C 624.243 2.46619 -5.60219 0
M  V30 6678 N 623.38 3.5898 -6.03389 0
M  V30 6679 H 628.22 0.329183 -2.96176 0
M  V30 6680 H 625.757 0.150792 -1.46325 0
M  V30 6681 H 627.715 2.80601 -3.08738 0
M  V30 6682 H 626.345 2.55384 -1.97431 0
M  V30 6683 H 625.397 0.862374 -3.70496 0
M  V30 6684 H 626.709 1.34338 -4.80369 0
M  V30 6685 H 625.863 3.69909 -4.80887 0
M  V30 6686 H 624.602 3.26933 -3.61892 0
M  V30 6687 H 623.607 1.63889 -5.24805 0
M  V30 6688 H 624.832 2.0955 -6.45961 0
M  V30 6689 H 622.778 3.9684 -5.22354 0
M  V30 6690 H 622.695 3.27942 -6.81168 0
M  V30 6691 H 623.963 4.40583 -6.43045 0
M  V30 6692 N 628.193 1.56834 0.155195 0
M  V30 6693 C 629.14 1.97646 1.19184 0
M  V30 6694 C 630.11 0.842788 1.4313 0
M  V30 6695 O 631.295 1.1042 1.55602 0
M  V30 6696 C 628.435 2.35527 2.52232 0
M  V30 6697 C 627.548 3.62147 2.35529 0
M  V30 6698 C 626.683 3.89167 3.61555 0
M  V30 6699 C 625.722 5.09084 3.39853 0
M  V30 6700 N 624.859 5.32156 4.5799 0
M  V30 6701 H 629.699 2.8601 0.836802 0
M  V30 6702 H 627.236 1.41507 0.401758 0
M  V30 6703 H 629.194 2.55516 3.29799 0
M  V30 6704 H 627.824 1.50253 2.85699 0
M  V30 6705 H 626.876 3.4998 1.49057 0
M  V30 6706 H 628.188 4.49871 2.15448 0
M  V30 6707 H 627.342 4.09611 4.47553 0
M  V30 6708 H 626.081 2.9985 3.84632 0
M  V30 6709 H 625.086 4.88522 2.52243 0
M  V30 6710 H 626.311 5.99947 3.18183 0
M  V30 6711 H 624.257 4.45791 4.81255 0
M  V30 6712 H 624.174 6.14133 4.40882 0
M  V30 6713 H 625.442 5.57091 5.45225 0
M  V30 6714 N 629.671 -0.424282 1.51781 0
M  V30 6715 C 630.604 -1.53633 1.68737 0
M  V30 6716 C 631.582 -1.53549 0.534915 0
M  V30 6717 O 632.766 -1.72483 0.760391 0
M  V30 6718 C 629.893 -2.92195 1.71288 0
M  V30 6719 C 628.939 -3.10251 2.92654 0
M  V30 6720 S 629.772 -2.85166 4.53256 0
M  V30 6721 C 630.928 -4.25986 4.58571 0
M  V30 6722 H 631.161 -1.39018 2.62795 0
M  V30 6723 H 628.694 -0.614854 1.41629 0
M  V30 6724 H 630.652 -3.72059 1.73443 0
M  V30 6725 H 629.313 -3.04162 0.783847 0
M  V30 6726 H 628.506 -4.1159 2.90877 0
M  V30 6727 H 628.108 -2.38231 2.88308 0
M  V30 6728 H 630.4 -5.19392 4.35015 0
M  V30 6729 H 631.343 -4.32792 5.60444 0
M  V30 6730 H 631.751 -4.1025 3.87757 0
M  V30 6731 N 631.149 -1.42148 -0.680565 0
M  V30 6732 C 632.426 -1.32795 -1.43614 0
M  V30 6733 C 632.806 0.037415 -2.11067 0
M  V30 6734 O 632.154 1.05258 -2.02813 0
M  V30 6735 C 632.364 -2.49206 -2.44331 0
M  V30 6736 C 633.712 -2.91059 -3.09144 0
M  V30 6737 O 634.736 -2.49054 -2.54657 0
M  V30 6738 O 633.595 -3.63741 -4.07866 0
M  V30 6739 H 630.689 -0.523397 -0.640301 0
M  V30 6740 H 633.235 -1.54144 -0.709775 0
M  V30 6741 H 632.007 -3.40252 -1.93247 0
M  V30 6742 H 631.63 -2.29813 -3.24456 0
M  V30 6743 N 632.627 0.916307 -1.28225 0
M  V30 6744 C 633.557 2.0352 -1.14464 0
M  V30 6745 C 634.538 1.70045 -0.0430844 0
M  V30 6746 O 635.723 1.92954 -0.219619 0
M  V30 6747 C 632.853 3.37889 -0.803027 0
M  V30 6748 C 631.807 3.85516 -1.85908 0
M  V30 6749 C 631.133 5.1682 -1.37116 0
M  V30 6750 C 632.433 4.07655 -3.26519 0
M  V30 6751 H 634.127 2.1529 -2.08064 0
M  V30 6752 H 631.673 1.03446 -1.00174 0
M  V30 6753 H 633.626 4.15654 -0.693537 0
M  V30 6754 H 632.35 3.26164 0.168674 0
M  V30 6755 H 631.009 3.09953 -1.95767 0
M  V30 6756 H 630.657 5.01497 -0.38859 0
M  V30 6757 H 630.357 5.49657 -2.07728 0
M  V30 6758 H 631.881 5.97143 -1.27484 0
M  V30 6759 H 633.295 4.75953 -3.19596 0
M  V30 6760 H 631.692 4.51818 -3.94943 0
M  V30 6761 H 632.762 3.12553 -3.70727 0
M  V30 6762 N 634.105 1.10431 1.1244 0
M  V30 6763 C 635.354 0.841539 1.83306 0
M  V30 6764 C 635.667 -0.634961 1.85007 0
M  V30 6765 O 636.873 -1.01363 2.51869 0
M  V30 6766 C 635.329 1.45565 3.29149 0
M  V30 6767 C 634.937 2.96544 3.35806 0
M  V30 6768 C 636.681 1.27227 4.04986 0
M  V30 6769 C 634.588 3.5099 4.75983 0
M  V30 6770 H 633.518 0.311156 0.686803 0
M  V30 6771 H 636.169 1.32829 1.26604 0
M  V30 6772 H 634.551 0.896574 3.85717 0
M  V30 6773 H 635.725 3.58766 2.89177 0
M  V30 6774 H 634.04 3.14036 2.73442 0
M  V30 6775 H 636.637 1.65348 5.08492 0
M  V30 6776 H 636.98 0.213834 4.1575 0
M  V30 6777 H 637.513 1.79941 3.54776 0
M  V30 6778 H 634.252 4.56499 4.70413 0
M  V30 6779 H 633.772 2.93535 5.23065 0
M  V30 6780 H 635.451 3.48808 5.44924 0
M  V30 6781 N 635.583 -1.29855 0.893053 0
M  V30 6782 C 636.86 -1.90694 0.435336 0
M  V30 6783 C 637.24 -1.8111 -1.08454 0
M  V30 6784 O 636.588 -1.23352 -1.92345 0
M  V30 6785 C 636.798 -3.36033 0.942472 0
M  V30 6786 C 638.146 -4.13083 0.982226 0
M  V30 6787 O 639.17 -3.4491 0.889686 0
M  V30 6788 O 638.029 -5.34896 1.12022 0
M  V30 6789 H 635.123 -0.815978 0.134567 0
M  V30 6790 H 637.669 -1.38367 0.982484 0
M  V30 6791 H 636.441 -3.37132 1.9864 0
M  V30 6792 H 636.064 -3.95828 0.374952 0
M  V30 6793 N 637.061 -0.65484 -1.43351 0
M  V30 6794 C 637.991 0.0221809 -2.33489 0
M  V30 6795 C 638.972 0.810272 -1.49561 0
M  V30 6796 O 640.157 0.771426 -1.78221 0
M  V30 6797 C 637.287 0.988117 -3.32947 0
M  V30 6798 C 636.241 0.310026 -4.26876 0
M  V30 6799 C 635.567 1.38752 -5.16384 0
M  V30 6800 C 636.867 -0.798589 -5.16159 0
M  V30 6801 H 638.561 -0.730571 -2.9035 0
M  V30 6802 H 636.107 -0.352773 -1.39612 0
M  V30 6803 H 638.06 1.47067 -3.94904 0
M  V30 6804 H 636.784 1.77205 -2.74346 0
M  V30 6805 H 635.443 -0.152097 -3.66284 0
M  V30 6806 H 635.091 2.16293 -4.54121 0
M  V30 6807 H 634.791 0.939051 -5.80048 0
M  V30 6808 H 636.315 1.87141 -5.81215 0
M  V30 6809 H 637.729 -0.398126 -5.71916 0
M  V30 6810 H 636.126 -1.17163 -5.88552 0
M  V30 6811 H 637.196 -1.65588 -4.55751 0
M  V30 6812 N 638.539 1.52521 -0.396863 0
M  V30 6813 C 639.449 2.30403 0.44178 0
M  V30 6814 C 640.465 1.37625 1.06468 0
M  V30 6815 O 641.641 1.70697 1.06886 0
M  V30 6816 C 638.706 3.1013 1.54986 0
M  V30 6817 C 637.767 4.18628 0.951279 0
M  V30 6818 C 637 4.94543 2.00655 0
M  V30 6819 O 637.223 4.70629 3.22281 0
M  V30 6820 O 636.157 5.797 1.61962 0
M  V30 6821 H 639.983 3.03087 -0.192892 0
M  V30 6822 H 637.568 1.48537 -0.16038 0
M  V30 6823 H 639.45 3.59816 2.19341 0
M  V30 6824 H 638.125 2.40251 2.16935 0
M  V30 6825 H 637.032 3.73119 0.270773 0
M  V30 6826 H 638.365 4.90763 0.375887 0
M  V30 6827 N 640.017 0.126909 1.57088 0
M  V30 6828 C 641.294 -0.573152 1.87014 0
M  V30 6829 C 641.674 -1.84297 1.02945 0
M  V30 6830 O 641.022 -2.28232 0.110573 0
M  V30 6831 C 641.232 -0.857984 3.38289 0
M  V30 6832 C 642.58 -1.20759 4.07066 0
M  V30 6833 O 643.604 -0.947992 3.43353 0
M  V30 6834 O 642.463 -1.69516 5.19545 0
M  V30 6835 H 639.557 -0.290082 0.774456 0
M  V30 6836 H 642.103 0.162008 1.68925 0
M  V30 6837 H 640.875 0.0415286 3.91278 0
M  V30 6838 H 640.498 -1.64803 3.61837 0
M  V30 6839 N 641.495 -1.56914 -0.146875 0
M  V30 6840 C 642.405 -2.0154 -1.20079 0
M  V30 6841 C 643.421 -0.930838 -1.47008 0
M  V30 6842 O 644.597 -1.24032 -1.58676 0
M  V30 6843 C 641.662 -2.38715 -2.51428 0
M  V30 6844 C 640.723 -3.6112 -2.32145 0
M  V30 6845 C 639.956 -3.96512 -3.57231 0
M  V30 6846 O 640.179 -3.32566 -4.63418 0
M  V30 6847 O 639.113 -4.89758 -3.49887 0
M  V30 6848 H 642.939 -2.91506 -0.851924 0
M  V30 6849 H 640.524 -1.45106 -0.355607 0
M  V30 6850 H 642.406 -2.63485 -3.28867 0
M  V30 6851 H 641.081 -1.51903 -2.85845 0
M  V30 6852 H 639.988 -3.41536 -1.52656 0
M  V30 6853 H 641.321 -4.48549 -2.02644 0
M  V30 6854 N 642.974 0.416227 -1.52004 0
M  V30 6855 C 644.202 1.18573 -1.69553 0
M  V30 6856 C 644.617 1.84472 -0.401919 0
M  V30 6857 O 643.974 1.71593 0.621463 0
M  V30 6858 C 644.025 2.25413 -2.82615 0
M  V30 6859 O 643.746 1.62205 -4.06966 0
M  V30 6860 C 645.247 3.15297 -3.11613 0
M  V30 6861 H 642.467 0.356582 -0.56841 0
M  V30 6862 H 645.011 0.490618 -1.98528 0
M  V30 6863 H 643.166 2.90604 -2.56179 0
M  V30 6864 H 643.58 2.3298 -4.69916 0
M  V30 6865 H 645.054 3.86351 -3.94255 0
M  V30 6866 H 645.531 3.77264 -2.24874 0
M  V30 6867 H 646.137 2.55783 -3.39787 0
M  V30 6868 N 644.452 1.42507 0.673017 0
M  V30 6869 C 645.701 1.42364 1.42883 0
M  V30 6870 C 646.014 0.0441598 1.9555 0
M  V30 6871 O 647.22 -0.0798679 2.71382 0
M  V30 6872 C 645.676 2.5043 2.58482 0
M  V30 6873 C 645.284 3.94392 2.12506 0
M  V30 6874 C 647.028 2.59455 3.35981 0
M  V30 6875 C 644.935 4.93964 3.25198 0
M  V30 6876 H 643.865 0.52951 0.536782 0
M  V30 6877 H 646.516 1.68422 0.728448 0
M  V30 6878 H 644.898 2.1754 3.30896 0
M  V30 6879 H 646.072 4.36645 1.47233 0
M  V30 6880 H 644.387 3.89233 1.4794 0
M  V30 6881 H 646.984 3.31025 4.19912 0
M  V30 6882 H 647.327 1.63869 3.82691 0
M  V30 6883 H 647.86 2.91549 2.70637 0
M  V30 6884 H 644.599 5.91034 2.83477 0
M  V30 6885 H 644.119 4.56341 3.89247 0
M  V30 6886 H 645.798 5.15763 3.90637 0
M  V30 6887 N 645.93 -0.909495 1.28709 0
M  V30 6888 C 647.207 -1.63865 1.06806 0
M  V30 6889 C 647.587 -2.07445 -0.391143 0
M  V30 6890 O 646.935 -1.82269 -1.37805 0
M  V30 6891 C 647.145 -2.82692 2.04661 0
M  V30 6892 C 648.493 -3.5361 2.35042 0
M  V30 6893 O 649.517 -2.92847 2.02779 0
M  V30 6894 O 648.376 -4.63131 2.90124 0
M  V30 6895 H 645.47 -0.719065 0.408502 0
M  V30 6896 H 648.016 -0.958424 1.40044 0
M  V30 6897 H 646.788 -2.47614 3.0299 0
M  V30 6898 H 646.411 -3.58426 1.72095 0
M  V30 6899 N 647.408 -1.11026 -1.11852 0
M  V30 6900 C 648.371 -0.768006 -2.1595 0
M  V30 6901 C 649.371 0.210538 -1.59416 0
M  V30 6902 O 650.561 -0.0133978 -1.74195 0
M  V30 6903 C 647.693 -0.138678 -3.40618 0
M  V30 6904 H 648.886 -1.69012 -2.4774 0
M  V30 6905 H 646.439 -0.911578 -1.26964 0
M  V30 6906 H 647.174 0.793872 -3.14433 0
M  V30 6907 H 646.959 -0.843012 -3.8293 0
M  V30 6908 H 648.449 0.0848039 -4.17514 0
M  V30 6909 N 648.886 1.2938 -0.899927 0
M  V30 6910 C 649.796 2.31462 -0.382437 0
M  V30 6911 C 650.812 1.65956 0.522929 0
M  V30 6912 O 651.988 1.97131 0.412454 0
M  V30 6913 C 649.053 3.44595 0.381472 0
M  V30 6914 C 648.114 4.25692 -0.555444 0
M  V30 6915 C 647.347 5.33422 0.172102 0
M  V30 6916 O 647.57 5.53053 1.396 0
M  V30 6917 O 646.504 5.99939 -0.485491 0
M  V30 6918 H 650.33 2.77706 -1.22934 0
M  V30 6919 H 647.915 1.33821 -0.664259 0
M  V30 6920 H 649.797 4.13474 0.813442 0
M  V30 6921 H 648.472 3.00458 1.20443 0
M  V30 6922 H 647.379 3.59453 -1.03653 0
M  V30 6923 H 648.712 4.73471 -1.34483 0
M  V30 6924 N 650.364 0.662433 1.43002 0
M  V30 6925 C 651.61 0.179857 2.02001 0
M  V30 6926 C 651.943 -1.20625 1.52195 0
M  V30 6927 O 651.218 -1.80726 0.718911 0
M  V30 6928 C 651.501 0.200845 3.59539 0
M  V30 6929 C 651.354 1.62153 4.19555 0
M  V30 6930 C 652.673 -0.457738 4.37713 0
M  V30 6931 H 649.792 0.0668305 0.733964 0
M  V30 6932 H 652.434 0.84487 1.70182 0
M  V30 6933 H 650.584 -0.365411 3.86778 0
M  V30 6934 H 652.256 2.23908 4.03315 0
M  V30 6935 H 650.499 2.16601 3.75854 0
M  V30 6936 H 651.17 1.58799 5.28665 0
M  V30 6937 H 653.646 0.0241495 4.16093 0
M  V30 6938 H 652.522 -0.412363 5.47349 0
M  V30 6939 H 652.783 -1.53336 4.14657 0
M  V30 6940 N 651.842 -1.52309 0.404946 0
M  V30 6941 C 652.775 -2.23369 -0.467087 0
M  V30 6942 C 653.753 -1.24034 -1.0514 0
M  V30 6943 O 654.937 -1.53071 -1.10006 0
M  V30 6944 C 652.064 -2.95906 -1.64795 0
M  V30 6945 C 651.11 -4.09637 -1.18743 0
M  V30 6946 S 651.943 -5.35273 -0.156022 0
M  V30 6947 C 653.099 -6.11337 -1.34231 0
M  V30 6948 H 653.332 -2.96987 0.136294 0
M  V30 6949 H 650.865 -1.53236 0.189219 0
M  V30 6950 H 652.823 -3.38304 -2.3251 0
M  V30 6951 H 651.484 -2.21937 -2.22267 0
M  V30 6952 H 650.677 -4.59549 -2.06955 0
M  V30 6953 H 650.279 -3.69333 -0.588981 0
M  V30 6954 H 652.571 -6.38458 -2.26665 0
M  V30 6955 H 653.514 -7.02563 -0.883804 0
M  V30 6956 H 653.922 -5.42338 -1.56621 0
M  V30 6957 N 653.32 -0.135238 -1.57019 0
M  V30 6958 C 654.268 0.826099 -2.17436 0
M  V30 6959 C 655.262 1.26378 -1.12805 0
M  V30 6960 O 656.468 1.23363 -1.31079 0
M  V30 6961 H 652.843 0.284568 -0.696078 0
M  V30 6962 H 654.814 0.292212 -2.96966 0
M  V30 6963 C 653.563 2.05991 -2.80112 0
M  V30 6964 H 652.886 1.73209 -3.60331 0
M  V30 6965 H 654.326 2.71225 -3.25903 0
M  V30 6966 C 652.785 2.86027 -1.78017 0
M  V30 6967 O 653.315 3.81971 -1.24344 0
M  V30 6968 N 651.521 2.50332 -1.47588 0
M  V30 6969 H 651.068 1.72377 -1.91426 0
M  V30 6970 H 651.026 3.04177 -0.795228 0
M  V30 6971 N 654.798 1.5699 0.138552 0
M  V30 6972 C 656.023 1.88344 0.86841 0
M  V30 6973 C 656.448 0.725159 1.7356 0
M  V30 6974 O 655.806 -0.324992 1.78363 0
M  V30 6975 C 655.854 3.18334 1.69398 0
M  V30 6976 O 654.958 3.02863 2.79907 0
M  V30 6977 H 654.299 0.618577 0.241367 0
M  V30 6978 H 656.829 2.04207 0.126826 0
M  V30 6979 H 656.839 3.50567 2.08726 0
M  V30 6980 H 655.514 4.02238 1.05725 0
M  V30 6981 H 654.091 2.82056 2.43924 0
M  V30 6982 N 656.276 -0.40816 1.52223 0
M  V30 6983 C 657.206 -1.5042 1.78595 0
M  V30 6984 C 658.187 -1.57723 0.636974 0
M  V30 6985 O 659.372 -1.72982 0.882664 0
M  V30 6986 C 656.502 -2.88232 1.93751 0
M  V30 6987 C 655.456 -2.95779 3.09352 0
M  V30 6988 C 654.782 -4.35855 3.09732 0
M  V30 6989 C 656.082 -2.67175 4.48793 0
M  V30 6990 H 657.776 -1.28601 2.70374 0
M  V30 6991 H 655.322 -0.617221 1.30101 0
M  V30 6992 H 657.275 -3.64895 2.10783 0
M  V30 6993 H 655.999 -3.11347 0.986443 0
M  V30 6994 H 654.658 -2.21561 2.92072 0
M  V30 6995 H 654.306 -4.55981 2.12346 0
M  V30 6996 H 654.006 -4.41829 3.87377 0
M  V30 6997 H 655.53 -5.14451 3.28895 0
M  V30 6998 H 656.944 -3.3356 4.66273 0
M  V30 6999 H 655.341 -2.84523 5.28362 0
M  V30 7000 H 656.411 -1.62609 4.56822 0
M  V30 7001 N 657.755 -1.42862 -0.66545 0
M  V30 7002 C 658.718 -1.46756 -1.76055 0
M  V30 7003 C 659.718 -0.353866 -1.56858 0
M  V30 7004 O 660.908 -0.615099 -1.62979 0
M  V30 7005 C 658.04 -1.30829 -3.14796 0
M  V30 7006 H 659.233 -2.44271 -1.73987 0
M  V30 7007 H 656.786 -1.29447 -0.875965 0
M  V30 7008 H 657.521 -0.342733 -3.22484 0
M  V30 7009 H 657.306 -2.11551 -3.30134 0
M  V30 7010 H 658.796 -1.36458 -3.94676 0
M  V30 7011 N 659.233 0.902656 -1.29189 0
M  V30 7012 C 660.479 1.65532 -1.17163 0
M  V30 7013 C 660.812 1.92216 0.276879 0
M  V30 7014 O 660.087 1.53048 1.20027 0
M  V30 7015 C 660.37 3.00629 -1.98228 0
M  V30 7016 C 660.223 2.81029 -3.51202 0
M  V30 7017 C 661.542 4.01321 -1.80635 0
M  V30 7018 H 658.661 0.60071 -0.426985 0
M  V30 7019 H 661.303 1.04578 -1.5863 0
M  V30 7020 H 659.453 3.52656 -1.62991 0
M  V30 7021 H 661.125 2.35927 -3.96404 0
M  V30 7022 H 659.368 2.1587 -3.76275 0
M  V30 7023 H 660.039 3.77014 -4.03192 0
M  V30 7024 H 662.515 3.58394 -2.11406 0
M  V30 7025 H 661.391 4.93792 -2.3971 0
M  V30 7026 H 661.652 4.35505 -0.760754 0
M  V30 7027 N 660.711 1.11618 1.11262 0
M  V30 7028 C 661.939 0.888739 1.8684 0
M  V30 7029 C 662.354 -0.561558 1.80255 0
M  V30 7030 O 661.711 -1.38782 1.18515 0
M  V30 7031 C 661.762 1.34422 3.35579 0
M  V30 7032 O 661.483 2.73766 3.42029 0
M  V30 7033 C 662.984 1.15246 4.28058 0
M  V30 7034 H 660.204 0.318152 0.590779 0
M  V30 7035 H 662.748 1.48398 1.40707 0
M  V30 7036 H 660.903 0.79239 3.7921 0
M  V30 7037 H 661.317 2.9355 4.34659 0
M  V30 7038 H 662.791 1.52015 5.30656 0
M  V30 7039 H 663.268 0.0922007 4.39103 0
M  V30 7040 H 663.874 1.69136 3.90222 0
M  V30 7041 N 662.189 -1.289 0.906776 0
M  V30 7042 C 663.122 -2.25737 0.334362 0
M  V30 7043 C 664.1 -1.52745 -0.557474 0
M  V30 7044 O 665.284 -1.81673 -0.502697 0
M  V30 7045 C 662.411 -3.34642 -0.522716 0
M  V30 7046 C 661.457 -4.25424 0.302777 0
M  V30 7047 S 662.29 -5.07629 1.70508 0
M  V30 7048 C 663.446 -6.20031 0.855118 0
M  V30 7049 H 663.679 -2.73941 1.15514 0
M  V30 7050 H 661.212 -1.37233 0.707573 0
M  V30 7051 H 663.17 -3.97845 -1.01141 0
M  V30 7052 H 661.831 -2.85119 -1.31781 0
M  V30 7053 H 661.024 -5.02767 -0.352257 0
M  V30 7054 H 660.626 -3.66908 0.724873 0
M  V30 7055 H 662.918 -6.77451 0.0816418 0
M  V30 7056 H 663.861 -6.89767 1.60087 0
M  V30 7057 H 664.269 -5.63035 0.406375 0
M  V30 7058 N 663.667 -0.670007 -1.42649 0
M  V30 7059 C 664.944 -0.119451 -1.95235 0
M  V30 7060 C 665.324 1.36461 -1.61064 0
M  V30 7061 O 664.672 2.09843 -0.904329 0
M  V30 7062 C 664.882 -0.383498 -3.46887 0
M  V30 7063 C 666.23 -0.297431 -4.23557 0
M  V30 7064 O 667.254 -0.31698 -3.54787 0
M  V30 7065 O 666.113 -0.235507 -5.45992 0
M  V30 7066 H 663.207 -8.85474e-05 -0.827 0
M  V30 7067 H 665.753 -0.744406 -1.52501 0
M  V30 7068 H 664.525 -1.41174 -3.64946 0
M  V30 7069 H 664.148 0.273702 -3.96657 0
M  V30 7070 N 665.145 1.52092 -0.413018 0
M  V30 7071 C 666.422 1.94356 0.22024 0
M  V30 7072 C 666.802 1.35017 1.62277 0
M  V30 7073 O 666.15 0.527511 2.22328 0
M  V30 7074 C 666.36 3.48289 0.222638 0
M  V30 7075 C 667.708 4.22313 0.440098 0
M  V30 7076 O 668.732 3.54919 0.301826 0
M  V30 7077 O 667.591 5.41829 0.712984 0
M  V30 7078 H 664.685 0.814536 0.14304 0
M  V30 7079 H 667.231 1.63083 -0.469242 0
M  V30 7080 H 666.003 3.83872 -0.758836 0
M  V30 7081 H 665.626 3.85934 0.956057 0
M  V30 7082 N 666.623 0.143563 1.56945 0
M  V30 7083 C 667.87 -0.508407 1.96014 0
M  V30 7084 C 668.198 -1.65099 1.02824 0
M  V30 7085 O 667.453 -1.95618 0.0567764 0
M  V30 7086 C 667.752 -1.05885 3.41355 0
M  V30 7087 C 667.418 -0.0350809 4.50886 0
M  V30 7088 C 666.08 0.246362 4.80569 0
M  V30 7089 C 668.432 0.661282 5.16988 0
M  V30 7090 C 665.76 1.23003 5.73661 0
M  V30 7091 C 668.112 1.63375 6.11139 0
M  V30 7092 C 666.776 1.92292 6.39203 0
M  V30 7093 H 666.046 -0.186039 0.717266 0
M  V30 7094 H 668.693 0.229667 1.90118 0
M  V30 7095 H 666.998 -1.87419 3.44066 0
M  V30 7096 H 668.695 -1.57183 3.6891 0
M  V30 7097 H 665.285 -0.264622 4.27782 0
M  V30 7098 H 669.469 0.457038 4.94191 0
M  V30 7099 H 664.725 1.46056 5.93698 0
M  V30 7100 H 668.899 2.17887 6.61436 0
M  V30 7101 H 666.526 2.68666 7.11142 0
M  V30 7102 N 668.101 -1.57061 -0.130224 0
M  V30 7103 C 669.517 -1.52103 -0.483413 0
M  V30 7104 C 669.717 -0.854752 -1.82473 0
M  V30 7105 O 668.773 -0.432342 -2.48771 0
M  V30 7106 C 670.086 -2.96872 -0.47825 0
M  V30 7107 C 671.634 -3.07902 -0.562592 0
M  V30 7108 C 672.109 -4.54211 -0.587929 0
M  V30 7109 N 673.6 -4.58621 -0.649684 0
M  V30 7110 C 674.335 -5.69227 -0.690551 0
M  V30 7111 N 673.831 -6.89358 -0.689743 0
M  V30 7112 N 675.624 -5.57304 -0.732708 0
M  V30 7113 H 667.775 -1.98764 0.748779 0
M  V30 7114 H 670.038 -0.907248 0.274965 0
M  V30 7115 H 669.744 -3.48944 0.439444 0
M  V30 7116 H 669.618 -3.53716 -1.31013 0
M  V30 7117 H 672.005 -2.5584 -1.47071 0
M  V30 7118 H 672.086 -2.54073 0.296764 0
M  V30 7119 H 671.73 -5.06915 0.316096 0
M  V30 7120 H 671.66 -5.0584 -1.46401 0
M  V30 7121 H 674.151 -3.72146 -0.656927 0
M  V30 7122 H 674.464 -7.69408 -0.723239 0
M  V30 7123 H 672.809 -6.91884 -0.657347 0
M  V30 7124 H 676 -4.62363 -0.730625 0
M  V30 7125 H 676.173 -6.43515 -0.76109 0
M  V30 7126 N 669.579 0.400081 -1.52437 0
M  V30 7127 C 670.825 1.14456 -1.68141 0
M  V30 7128 C 671.18 1.87965 -0.410722 0
M  V30 7129 O 670.473 1.82121 0.595195 0
M  V30 7130 C 670.667 2.15914 -2.84808 0
M  V30 7131 C 670.496 1.5237 -4.231 0
M  V30 7132 C 669.266 1.29252 -4.8849 0
M  V30 7133 C 671.464 0.979722 -5.04882 0
M  V30 7134 N 669.446 0.616955 -6.10792 0
M  V30 7135 C 670.817 0.43159 -6.18496 0
M  V30 7136 C 672.872 0.875059 -4.9015 0
M  V30 7137 C 671.575 -0.210958 -7.18991 0
M  V30 7138 C 673.601 0.246351 -5.90887 0
M  V30 7139 C 672.963 -0.291062 -7.03798 0
M  V30 7140 H 669.062 0.405181 -0.668844 0
M  V30 7141 H 671.646 0.435655 -1.89763 0
M  V30 7142 H 669.817 2.84154 -2.64785 0
M  V30 7143 H 671.549 2.8279 -2.89503 0
M  V30 7144 H 668.304 1.56451 -4.47012 0
M  V30 7145 H 668.728 0.295536 -6.76355 0
M  V30 7146 H 673.37 1.27636 -4.03074 0
M  V30 7147 H 671.088 -0.6243 -8.05685 0
M  V30 7148 H 674.674 0.166765 -5.81561 0
M  V30 7149 H 673.554 -0.76988 -7.80412 0
M  V30 7150 N 671.057 1.43213 0.657864 0
M  V30 7151 C 672.02 1.47687 1.75275 0
M  V30 7152 C 673.02 0.362179 1.56668 0
M  V30 7153 O 674.21 0.623734 1.62651 0
M  V30 7154 C 671.342 1.32497 3.14098 0
M  V30 7155 H 672.535 2.4519 1.7269 0
M  V30 7156 H 670.088 1.2991 0.869087 0
M  V30 7157 H 670.823 0.359831 3.22298 0
M  V30 7158 H 670.608 2.13299 3.29008 0
M  V30 7159 H 672.098 1.38549 3.93946 0
M  V30 7160 N 672.536 -0.895792 1.29666 0
M  V30 7161 C 673.466 -2.01673 1.17688 0
M  V30 7162 C 674.447 -1.69955 0.0701317 0
M  V30 7163 O 675.632 -1.9258 0.250289 0
M  V30 7164 C 672.762 -3.36568 0.856681 0
M  V30 7165 C 671.716 -3.82509 1.92017 0
M  V30 7166 C 671.042 -5.14574 1.4532 0
M  V30 7167 C 672.342 -4.02409 3.32963 0
M  V30 7168 H 674.036 -2.11953 2.11463 0
M  V30 7169 H 671.582 -1.01839 1.01807 0
M  V30 7170 H 673.535 -4.14498 0.759577 0
M  V30 7171 H 672.259 -3.26391 -0.116763 0
M  V30 7172 H 670.918 -3.068 2.00673 0
M  V30 7173 H 670.566 -5.00815 0.468325 0
M  V30 7174 H 670.266 -5.46283 2.16447 0
M  V30 7175 H 671.79 -5.9504 1.36968 0
M  V30 7176 H 673.204 -4.70808 3.27127 0
M  V30 7177 H 671.601 -4.45478 4.02082 0
M  V30 7178 H 672.671 -3.06616 3.75652 0
M  V30 7179 N 674.014 -1.12206 -1.10668 0
M  V30 7180 C 675.239 -0.898938 -1.86906 0
M  V30 7181 C 675.664 0.546346 -1.79991 0
M  V30 7182 O 675.022 1.38655 -1.1681 0
M  V30 7183 C 675.07 -1.37529 -3.33344 0
M  V30 7184 O 674.174 -0.55218 -4.08687 0
M  V30 7185 H 673.515 -0.323163 -0.580053 0
M  V30 7186 H 676.045 -1.49355 -1.39837 0
M  V30 7187 H 676.055 -1.3733 -3.84193 0
M  V30 7188 H 674.73 -2.42767 -3.37693 0
M  V30 7189 H 673.307 -0.620947 -3.67694 0
M  V30 7190 N 675.492 1.28418 -0.913599 0
M  V30 7191 C 676.424 2.26368 -0.359169 0
M  V30 7192 C 677.437 1.54858 0.502285 0
M  V30 7193 O 678.626 1.75659 0.31719 0
M  V30 7194 C 675.726 3.35112 0.50526 0
M  V30 7195 C 674.899 4.36126 -0.333648 0
M  V30 7196 C 673.958 5.24134 0.465845 0
M  V30 7197 O 672.984 5.6907 -0.121538 0
M  V30 7198 N 674.186 5.52892 1.76891 0
M  V30 7199 H 676.951 2.74579 -1.2011 0
M  V30 7200 H 674.512 1.41898 -0.779532 0
M  V30 7201 H 676.504 3.90926 1.04684 0
M  V30 7202 H 675.074 2.86611 1.2479 0
M  V30 7203 H 674.294 3.79776 -1.0566 0
M  V30 7204 H 675.582 5.00638 -0.907669 0
M  V30 7205 H 674.98 5.18217 2.26865 0
M  V30 7206 H 673.537 6.11464 2.25732 0
M  V30 7207 N 676.97 0.677563 1.42291 0
M  V30 7208 C 678.195 0.207901 2.06355 0
M  V30 7209 C 678.62 -1.12723 1.50583 0
M  V30 7210 O 677.978 -1.70171 0.62543 0
M  V30 7211 C 678.026 0.156489 3.6026 0
M  V30 7212 O 677.13 -0.874162 4.03029 0
M  V30 7213 H 676.471 0.106056 0.655475 0
M  V30 7214 H 679.001 0.927354 1.82377 0
M  V30 7215 H 679.011 -0.0187258 4.07996 0
M  V30 7216 H 677.686 1.13101 4.00226 0
M  V30 7217 H 676.263 -0.669764 3.66836 0
M  V30 7218 N 678.448 -1.51871 0.421078 0
M  V30 7219 C 679.396 -2.28903 -0.413066 0
M  V30 7220 C 680.39 -1.3408 -1.03532 0
M  V30 7221 O 681.596 -1.5149 -0.972146 0
M  V30 7222 H 677.971 -0.736478 -0.152003 0
M  V30 7223 H 679.942 -2.97285 0.257695 0
M  V30 7224 C 678.691 -3.13156 -1.51091 0
M  V30 7225 H 678.014 -3.85997 -1.04145 0
M  V30 7226 H 679.454 -3.7014 -2.06814 0
M  V30 7227 C 677.913 -2.27482 -2.48503 0
M  V30 7228 O 678.443 -1.92325 -3.52667 0
M  V30 7229 N 676.649 -1.91019 -2.18998 0
M  V30 7230 H 676.196 -2.19808 -1.34322 0
M  V30 7231 H 676.154 -1.3399 -2.84419 0
M  V30 7232 N 679.926 -0.151884 -1.56866 0
M  V30 7233 C 681.337 0.368128 -1.83035 0
M  V30 7234 C 681.688 1.64402 -1.07082 0
M  V30 7235 O 680.813 2.14056 -0.317647 0
M  V30 7236 C 681.408 0.674676 -3.32014 0
M  V30 7237 C 679.967 1.13919 -3.58747 0
M  V30 7238 C 679.114 0.164833 -2.7681 0
M  V30 7239 H 682.065 -0.376499 -1.54169 0
M  V30 7240 H 682.086 1.52883 -3.48435 0
M  V30 7241 H 681.598 -0.254113 -3.87267 0
M  V30 7242 H 679.699 2.08375 -3.08886 0
M  V30 7243 H 679.812 1.06179 -4.67186 0
M  V30 7244 H 678.176 0.658419 -2.46043 0
M  V30 7245 H 678.959 -0.757633 -3.34836 0
M  V30 7246 N 681.404 1.57128 0.121893 0
M  V30 7247 C 682.629 1.89254 0.848385 0
M  V30 7248 C 683.054 0.743527 1.72781 0
M  V30 7249 O 682.412 -0.306056 1.78698 0
M  V30 7250 C 682.46 3.20113 1.66012 0
M  V30 7251 O 681.564 3.05815 2.76679 0
M  V30 7252 H 680.905 0.621103 0.234793 0
M  V30 7253 H 683.435 2.0433 0.10516 0
M  V30 7254 H 683.445 3.52761 2.04996 0
M  V30 7255 H 682.12 4.03336 1.01452 0
M  V30 7256 H 680.697 2.84627 2.40918 0
M  V30 7257 N 682.882 -0.391992 1.52647 0
M  V30 7258 C 683.845 -1.46135 1.7657 0
M  V30 7259 C 684.845 -1.47701 0.635698 0
M  V30 7260 O 686.035 -1.48924 0.903728 0
M  V30 7261 C 683.167 -2.85443 1.86374 0
M  V30 7262 H 684.36 -1.26208 2.72051 0
M  V30 7263 H 681.913 -0.623549 1.43323 0
M  V30 7264 H 682.648 -3.10718 0.928685 0
M  V30 7265 H 682.433 -2.85708 2.68539 0
M  V30 7266 H 683.923 -3.62933 2.06566 0
M  V30 7267 N 684.36 -1.4356 -0.65026 0
M  V30 7268 C 685.29 -1.51758 -1.77459 0
M  V30 7269 C 686.271 -0.372019 -1.65982 0
M  V30 7270 O 687.456 -0.589627 -1.85033 0
M  V30 7271 C 684.586 -1.44302 -3.15902 0
M  V30 7272 C 683.54 -2.57138 -3.42146 0
M  V30 7273 C 682.866 -2.34735 -4.8042 0
M  V30 7274 C 684.166 -3.99373 -3.36598 0
M  V30 7275 H 685.86 -2.45863 -1.70855 0
M  V30 7276 H 683.406 -1.18333 -0.820566 0
M  V30 7277 H 685.359 -1.48641 -3.94314 0
M  V30 7278 H 684.083 -0.467026 -3.23244 0
M  V30 7279 H 682.742 -2.52157 -2.66106 0
M  V30 7280 H 682.39 -1.35372 -4.84441 0
M  V30 7281 H 682.09 -3.10375 -4.9894 0
M  V30 7282 H 683.614 -2.40862 -5.61086 0
M  V30 7283 H 685.028 -4.05826 -4.04942 0
M  V30 7284 H 683.425 -4.75063 -3.66654 0
M  V30 7285 H 684.495 -4.243 -2.34729 0
M  V30 7286 N 685.838 0.888903 -1.30139 0
M  V30 7287 C 687.254 1.17153 -1.08385 0
M  V30 7288 C 687.454 2.0088 0.157925 0
M  V30 7289 O 686.51 2.37668 0.852652 0
M  V30 7290 C 687.823 1.882 -2.34523 0
M  V30 7291 C 689.371 2.00981 -2.39949 0
M  V30 7292 C 689.846 2.75441 -3.65918 0
M  V30 7293 N 691.337 2.82989 -3.66704 0
M  V30 7294 C 692.072 3.41167 -4.60861 0
M  V30 7295 N 691.568 4.00425 -5.6536 0
M  V30 7296 N 693.361 3.38944 -4.48412 0
M  V30 7297 H 685.512 0.33053 -2.09812 0
M  V30 7298 H 687.775 0.208964 -0.924683 0
M  V30 7299 H 687.481 1.34119 -3.25123 0
M  V30 7300 H 687.355 2.88609 -2.42868 0
M  V30 7301 H 689.742 2.54234 -1.4983 0
M  V30 7302 H 689.823 0.996725 -2.35582 0
M  V30 7303 H 689.467 2.22861 -4.56394 0
M  V30 7304 H 689.397 3.77118 -3.67546 0
M  V30 7305 H 691.888 2.40912 -2.91153 0
M  V30 7306 H 692.201 4.42871 -6.33313 0
M  V30 7307 H 690.546 3.98856 -5.69157 0
M  V30 7308 H 693.737 2.91875 -3.6596 0
M  V30 7309 H 693.91 3.83989 -5.21974 0
M  V30 7310 N 687.317 1.12792 1.10072 0
M  V30 7311 C 688.227 0.812369 2.20086 0
M  V30 7312 C 689.243 -0.200349 1.72843 0
M  V30 7313 O 690.419 -0.0330262 2.01373 0
M  V30 7314 C 687.484 0.275685 3.45602 0
M  V30 7315 C 686.545 1.34881 4.07561 0
M  V30 7316 C 685.778 0.837639 5.27086 0
M  V30 7317 O 686.001 -0.327224 5.69461 0
M  V30 7318 O 684.935 1.60894 5.79997 0
M  V30 7319 H 688.761 1.73133 2.49517 0
M  V30 7320 H 686.346 0.904863 1.18881 0
M  V30 7321 H 688.228 -0.0185375 4.21396 0
M  V30 7322 H 686.903 -0.615783 3.17789 0
M  V30 7323 H 685.81 1.69625 3.33434 0
M  V30 7324 H 687.143 2.21418 4.39585 0
M  V30 7325 N 688.795 -1.27931 0.920396 0
M  V30 7326 C 690.023 -1.98805 0.573087 0
M  V30 7327 C 690.438 -1.68724 -0.847201 0
M  V30 7328 O 689.795 -0.943699 -1.56207 0
M  V30 7329 C 689.846 -3.52971 0.780633 0
M  V30 7330 O 689.567 -3.81994 2.14504 0
M  V30 7331 C 691.068 -4.411 0.44105 0
M  V30 7332 H 688.288 -0.634651 0.21785 0
M  V30 7333 H 690.832 -1.62965 1.23542 0
M  V30 7334 H 688.987 -3.87048 0.165204 0
M  V30 7335 H 689.401 -4.76609 2.18962 0
M  V30 7336 H 690.875 -5.48312 0.637006 0
M  V30 7337 H 691.352 -4.34758 -0.62306 0
M  V30 7338 H 691.958 -4.12532 1.0343 0
M  V30 7339 N 690.273 -0.685099 -1.4193 0
M  V30 7340 C 691.519 -0.211971 -2.01689 0
M  V30 7341 C 691.852 1.18189 -1.54094 0
M  V30 7342 O 691.127 1.79559 -0.747572 0
M  V30 7343 C 691.41 -0.258019 -3.59174 0
M  V30 7344 C 691.263 -1.68807 -4.16922 0
M  V30 7345 C 692.582 0.388044 -4.38386 0
M  V30 7346 H 689.701 -0.0784987 -0.732808 0
M  V30 7347 H 692.343 -0.871837 -1.68816 0
M  V30 7348 H 690.493 0.303832 -3.8731 0
M  V30 7349 H 692.165 -2.30296 -3.99702 0
M  V30 7350 H 690.408 -2.22553 -3.72361 0
M  V30 7351 H 691.079 -1.6719 -5.26072 0
M  V30 7352 H 693.555 -0.0903432 -4.16002 0
M  V30 7353 H 692.431 0.325232 -5.47936 0
M  V30 7354 H 692.692 1.4672 -4.17044 0
M  V30 7355 N 691.751 1.51645 -0.429126 0
M  V30 7356 C 692.997 2.02314 0.140286 0
M  V30 7357 C 693.33 1.31314 1.43074 0
M  V30 7358 O 692.605 0.425531 1.89788 0
M  V30 7359 C 692.888 3.5822 0.36749 0
M  V30 7360 C 692.741 4.39846 -0.941039 0
M  V30 7361 C 694.06 4.25055 1.14089 0
M  V30 7362 H 691.179 0.735335 0.0495112 0
M  V30 7363 H 693.821 1.81358 -0.566514 0
M  V30 7364 H 691.971 3.76207 0.969556 0
M  V30 7365 H 693.643 4.33527 -1.57646 0
M  V30 7366 H 691.886 4.05259 -1.54751 0
M  V30 7367 H 692.557 5.47069 -0.73621 0
M  V30 7368 H 695.033 4.11288 0.630986 0
M  V30 7369 H 693.909 5.34038 1.26863 0
M  V30 7370 H 694.17 3.85358 2.16683 0
M  V30 7371 N 693.229 0.160201 1.56784 0
M  V30 7372 C 694.139 -0.787167 2.21 0
M  V30 7373 C 695.155 -1.26167 1.19825 0
M  V30 7374 O 696.331 -1.31611 1.52448 0
M  V30 7375 C 693.396 -2.00364 2.8294 0
M  V30 7376 C 692.457 -1.5771 3.99282 0
M  V30 7377 C 691.69 -2.73558 4.58259 0
M  V30 7378 O 691.913 -3.90129 4.16119 0
M  V30 7379 O 690.847 -2.48271 5.48311 0
M  V30 7380 H 694.673 -0.270462 3.02493 0
M  V30 7381 H 692.258 -0.0674666 1.49248 0
M  V30 7382 H 694.14 -2.71529 3.22257 0
M  V30 7383 H 692.815 -2.50961 2.04451 0
M  V30 7384 H 691.722 -0.835274 3.64656 0
M  V30 7385 H 693.055 -1.11815 4.79331 0
M  V30 7386 N 694.707 -1.5719 -0.113559 0
M  V30 7387 C 695.953 -1.85412 -0.821597 0
M  V30 7388 C 696.286 -0.746722 -1.7927 0
M  V30 7389 O 695.561 0.246971 -1.92926 0
M  V30 7390 C 695.844 -3.24233 -1.56669 0
M  V30 7391 C 695.697 -4.45578 -0.614823 0
M  V30 7392 C 697.016 -3.60697 -2.52161 0
M  V30 7393 H 694.135 -0.674406 -0.29723 0
M  V30 7394 H 696.777 -1.89807 -0.085694 0
M  V30 7395 H 694.927 -3.20617 -2.19401 0
M  V30 7396 H 696.599 -4.613 0.00407137 0
M  V30 7397 H 694.842 -4.33738 0.0732332 0
M  V30 7398 H 695.513 -5.39395 -1.17292 0
M  V30 7399 H 697.989 -3.65139 -1.99532 0
M  V30 7400 H 696.865 -4.58798 -3.01323 0
M  V30 7401 H 697.126 -2.88403 -3.35076 0
M  V30 7402 N 696.185 0.383891 -1.52853 0
M  V30 7403 C 697.596 0.961591 -1.60032 0
M  V30 7404 C 697.947 1.90819 -0.456333 0
M  V30 7405 O 697.072 2.12288 0.419873 0
M  V30 7406 C 697.667 1.75078 -2.90057 0
M  V30 7407 C 696.226 2.2781 -2.99632 0
M  V30 7408 C 695.373 1.08512 -2.55187 0
M  V30 7409 H 698.324 0.163269 -1.57858 0
M  V30 7410 H 698.345 2.61046 -2.7683 0
M  V30 7411 H 697.857 1.06157 -3.73299 0
M  V30 7412 H 695.958 3.00028 -2.20939 0
M  V30 7413 H 696.071 2.56947 -4.0437 0
M  V30 7414 H 694.435 1.44667 -2.09627 0
M  V30 7415 H 695.218 0.41118 -3.40829 0
M  V30 7416 N 697.663 1.43903 0.642637 0
M  V30 7417 C 698.595 1.45857 1.768 0
M  V30 7418 C 699.608 0.353358 1.58919 0
M  V30 7419 O 700.797 0.618426 1.67445 0
M  V30 7420 C 697.897 1.26583 3.14372 0
M  V30 7421 C 697.07 2.50139 3.58817 0
M  V30 7422 C 696.129 2.25933 4.75227 0
M  V30 7423 O 695.155 2.99351 4.84125 0
M  V30 7424 N 696.357 1.28263 5.66153 0
M  V30 7425 H 699.122 2.42869 1.75598 0
M  V30 7426 H 696.683 1.39194 0.826832 0
M  V30 7427 H 698.675 1.08255 3.89953 0
M  V30 7428 H 697.245 0.37978 3.10284 0
M  V30 7429 H 696.465 2.83821 2.73568 0
M  V30 7430 H 697.753 3.32344 3.8526 0
M  V30 7431 H 697.151 0.676041 5.61646 0
M  V30 7432 H 695.708 1.15916 6.4141 0
M  V30 7433 N 699.141 -0.881989 1.30609 0
M  V30 7434 C 700.387 -1.63647 1.19781 0
M  V30 7435 C 700.72 -1.92632 -0.246265 0
M  V30 7436 O 699.995 -1.54938 -1.17577 0
M  V30 7437 C 700.278 -2.97437 2.02985 0
M  V30 7438 C 700.131 -2.75406 3.55628 0
M  V30 7439 C 701.45 -3.98397 1.86997 0
M  V30 7440 H 698.569 -0.593841 0.436488 0
M  V30 7441 H 701.211 -1.02041 1.60273 0
M  V30 7442 H 699.361 -3.50018 1.68581 0
M  V30 7443 H 701.033 -2.2959 4.00107 0
M  V30 7444 H 699.276 -2.09856 3.79662 0
M  V30 7445 H 699.947 -3.70552 4.09139 0
M  V30 7446 H 702.423 -3.54986 2.17081 0
M  V30 7447 H 701.299 -4.89916 2.47536 0
M  V30 7448 H 701.56 -4.3424 0.829943 0
M  V30 7449 N 700.619 -1.13374 -1.09472 0
M  V30 7450 C 701.847 -0.918351 -1.85402 0
M  V30 7451 C 702.262 0.53281 -1.81126 0
M  V30 7452 O 701.619 1.36879 -1.20708 0
M  V30 7453 C 701.67 -1.39743 -3.33398 0
M  V30 7454 O 701.391 -2.79172 -3.37631 0
M  V30 7455 C 702.892 -1.22042 -4.2617 0
M  V30 7456 H 700.112 -0.327511 -0.585643 0
M  V30 7457 H 702.656 -1.50617 -1.38328 0
M  V30 7458 H 700.811 -0.852619 -3.77901 0
M  V30 7459 H 701.225 -3.00428 -4.29934 0
M  V30 7460 H 702.699 -1.60438 -5.2817 0
M  V30 7461 H 703.176 -0.162047 -4.38901 0
M  V30 7462 H 703.782 -1.75323 -3.87482 0
M  V30 7463 N 702.098 1.27442 -0.927168 0
M  V30 7464 C 703.344 1.95025 -0.577651 0
M  V30 7465 C 703.699 1.71534 0.871421 0
M  V30 7466 O 702.992 1.03354 1.61333 0
M  V30 7467 C 703.186 3.47413 -0.838994 0
M  V30 7468 C 703.015 3.85721 -2.31192 0
M  V30 7469 C 701.785 4.09199 -2.96452 0
M  V30 7470 C 703.983 3.95352 -3.28939 0
M  V30 7471 N 701.965 4.34283 -4.33903 0
M  V30 7472 C 703.336 4.24805 -4.51598 0
M  V30 7473 C 705.391 3.77926 -3.24155 0
M  V30 7474 C 704.094 4.38645 -5.70073 0
M  V30 7475 C 706.12 3.9299 -4.41942 0
M  V30 7476 C 705.482 4.22829 -5.63379 0
M  V30 7477 H 701.581 0.736983 -0.261495 0
M  V30 7478 H 704.165 1.53816 -1.19368 0
M  V30 7479 H 702.336 3.87581 -0.252129 0
M  V30 7480 H 704.068 4.02166 -0.452158 0
M  V30 7481 H 700.823 4.04013 -2.47125 0
M  V30 7482 H 701.247 4.50883 -5.05008 0
M  V30 7483 H 705.889 3.53897 -2.31337 0
M  V30 7484 H 703.607 4.615 -6.63358 0
M  V30 7485 H 707.193 3.80926 -4.39757 0
M  V30 7486 H 706.073 4.34234 -6.53001 0
M  V30 7487 N 703.576 0.692616 1.41565 0
M  V30 7488 C 704.486 0.0258451 2.34586 0
M  V30 7489 C 705.502 -0.769324 1.56069 0
M  V30 7490 O 706.678 -0.707563 1.88562 0
M  V30 7491 C 703.743 -0.901289 3.3478 0
M  V30 7492 C 702.804 -0.0986579 4.29187 0
M  V30 7493 C 702.037 -0.981634 5.24595 0
M  V30 7494 O 702.26 -2.22115 5.25377 0
M  V30 7495 O 701.194 -0.432892 6.00341 0
M  V30 7496 H 705.02 0.792537 2.93177 0
M  V30 7497 H 702.605 0.452935 1.42369 0
M  V30 7498 H 704.487 -1.43302 3.96286 0
M  V30 7499 H 703.162 -1.64752 2.78637 0
M  V30 7500 H 702.069 0.477604 3.71039 0
M  V30 7501 H 703.402 0.608848 4.8842 0
M  V30 7502 N 705.054 -1.51416 0.437162 0
M  V30 7503 C 706.331 -1.94682 -0.189292 0
M  V30 7504 C 706.711 -1.37581 -1.60108 0
M  V30 7505 O 706.059 -0.562815 -2.2146 0
M  V30 7506 C 706.269 -3.48599 -0.167201 0
M  V30 7507 C 707.617 -4.2296 -0.372856 0
M  V30 7508 O 708.641 -3.55354 -0.245323 0
M  V30 7509 O 707.5 -5.42895 -0.626693 0
M  V30 7510 H 704.594 -0.816708 -0.130063 0
M  V30 7511 H 707.14 -1.62316 0.495128 0
M  V30 7512 H 705.912 -3.82616 0.81981 0
M  V30 7513 H 705.535 -3.87406 -0.894537 0
M  V30 7514 N 706.532 -0.168513 -1.56696 0
M  V30 7515 C 707.781 0.477233 -1.95973 0
M  V30 7516 C 708.094 1.64578 -1.05704 0
M  V30 7517 O 709.3 2.35758 -1.3465 0
M  V30 7518 C 707.756 0.900413 -3.48455 0
M  V30 7519 C 707.364 -0.242382 -4.47344 0
M  V30 7520 C 709.108 1.51474 -3.96555 0
M  V30 7521 C 707.015 0.200272 -5.91061 0
M  V30 7522 H 705.945 0.182061 -0.73169 0
M  V30 7523 H 708.596 -0.256297 -1.81701 0
M  V30 7524 H 706.978 1.68984 -3.58135 0
M  V30 7525 H 708.152 -1.01967 -4.49377 0
M  V30 7526 H 706.467 -0.766484 -4.09285 0
M  V30 7527 H 709.064 1.85792 -5.01384 0
M  V30 7528 H 709.407 2.41163 -3.39332 0
M  V30 7529 H 709.94 0.789802 -3.89881 0
M  V30 7530 H 706.679 -0.661775 -6.52151 0
M  V30 7531 H 706.199 0.942979 -5.92341 0
M  V30 7532 H 707.878 0.645088 -6.43776 0
M  V30 7533 N 708.01 1.57248 0.105221 0
M  V30 7534 C 709.258 1.85204 0.808951 0
M  V30 7535 C 709.579 0.75574 1.7976 0
M  V30 7536 O 708.849 -0.218984 1.94672 0
M  V30 7537 H 707.429 0.683346 0.301739 0
M  V30 7538 H 710.091 1.94695 0.0892605 0
M  V30 7539 H 709.187 2.81595 1.34575 0
M  V30 7540 N 709.488 -0.375779 1.53054 0
M  V30 7541 C 710.736 -1.11727 1.68409 0
M  V30 7542 C 711.057 -1.90127 0.43323 0
M  V30 7543 O 710.327 -1.87945 -0.552595 0
M  V30 7544 H 708.907 -0.415451 0.620813 0
M  V30 7545 H 711.569 -0.424869 1.90213 0
M  V30 7546 H 710.665 -1.8128 2.54055 0
M  V30 7547 N 710.966 -1.44241 -0.634997 0
M  V30 7548 C 711.896 -1.53632 -1.7584 0
M  V30 7549 C 712.877 -0.389603 -1.65578 0
M  V30 7550 O 714.062 -0.609219 -1.84397 0
M  V30 7551 C 711.192 -1.47644 -3.14354 0
M  V30 7552 C 710.146 -2.60752 -3.394 0
M  V30 7553 C 709.472 -2.39817 -4.77904 0
M  V30 7554 C 710.772 -4.02921 -3.32343 0
M  V30 7555 H 712.466 -2.47662 -1.68238 0
M  V30 7556 H 710.012 -1.19197 -0.807969 0
M  V30 7557 H 711.965 -1.52815 -3.92716 0
M  V30 7558 H 710.689 -0.501284 -3.2273 0
M  V30 7559 H 709.348 -2.54965 -2.63417 0
M  V30 7560 H 708.996 -1.40502 -4.82978 0
M  V30 7561 H 708.696 -3.15649 -4.9562 0
M  V30 7562 H 710.22 -2.46799 -5.585 0
M  V30 7563 H 711.634 -4.10098 -4.00615 0
M  V30 7564 H 710.031 -4.78925 -3.61595 0
M  V30 7565 H 711.101 -4.26766 -2.30215 0
M  V30 7566 N 712.444 0.87505 -1.31075 0
M  V30 7567 C 713.354 2.01441 -1.20244 0
M  V30 7568 C 714.37 1.73584 -0.120227 0
M  V30 7569 O 715.546 1.98559 -0.337063 0
M  V30 7570 C 712.611 3.34675 -0.905199 0
M  V30 7571 C 711.672 3.75889 -2.0738 0
M  V30 7572 C 710.905 5.02764 -1.79064 0
M  V30 7573 O 711.128 5.65795 -0.723318 0
M  V30 7574 O 710.062 5.40623 -2.64594 0
M  V30 7575 H 713.888 2.13509 -2.1598 0
M  V30 7576 H 711.473 1.00257 -1.10765 0
M  V30 7577 H 713.355 4.1458 -0.755057 0
M  V30 7578 H 712.03 3.23692 0.0221695 0
M  V30 7579 H 710.937 2.96645 -2.27931 0
M  V30 7580 H 712.27 3.91489 -2.98324 0
M  V30 7581 N 713.922 1.13953 1.08869 0
M  V30 7582 C 715.199 0.815768 1.77777 0
M  V30 7583 C 715.579 -0.691624 1.99449 0
M  V30 7584 O 714.927 -1.63085 1.60049 0
M  V30 7585 C 715.137 1.60916 3.09689 0
M  V30 7586 C 716.485 1.80549 3.84301 0
M  V30 7587 O 717.509 1.57562 3.19457 0
M  V30 7588 O 716.368 2.18946 5.00724 0
M  V30 7589 H 713.462 0.298445 0.771271 0
M  V30 7590 H 716.008 1.24446 1.15374 0
M  V30 7591 H 714.78 2.6333 2.89435 0
M  V30 7592 H 714.403 1.17578 3.79817 0
M  V30 7593 N 715.4 -1.26948 0.933913 0
M  V30 7594 C 716.646 -1.94374 0.57848 0
M  V30 7595 C 716.979 -1.73166 -0.879048 0
M  V30 7596 O 716.254 -1.06438 -1.62792 0
M  V30 7597 C 716.537 -3.4834 0.912739 0
M  V30 7598 C 716.39 -3.78866 2.42448 0
M  V30 7599 C 717.709 -4.38062 0.423003 0
M  V30 7600 H 714.828 -0.705959 0.211639 0
M  V30 7601 H 717.47 -1.49951 1.16682 0
M  V30 7602 H 715.62 -3.86309 0.412058 0
M  V30 7603 H 717.292 -3.50654 2.99733 0
M  V30 7604 H 715.535 -3.25198 2.87104 0
M  V30 7605 H 716.206 -4.86458 2.60887 0
M  V30 7606 H 718.682 -4.0728 0.852191 0
M  V30 7607 H 717.558 -5.44599 0.685776 0
M  V30 7608 H 717.819 -4.36886 -0.676994 0
M  V30 7609 N 716.879 -0.700114 -1.41195 0
M  V30 7610 C 717.826 -0.0376652 -2.30769 0
M  V30 7611 C 718.796 0.766544 -1.47354 0
M  V30 7612 O 719.981 0.73365 -1.76131 0
M  V30 7613 C 717.121 0.889452 -3.33441 0
M  V30 7614 C 716.234 0.076373 -4.31932 0
M  V30 7615 C 715.369 1.00155 -5.21673 0
M  V30 7616 C 714.408 0.181644 -6.1183 0
M  V30 7617 N 713.545 1.06087 -6.94039 0
M  V30 7618 H 718.385 -0.80726 -2.86858 0
M  V30 7619 H 715.922 -0.409798 -1.41277 0
M  V30 7620 H 717.88 1.44107 -3.91522 0
M  V30 7621 H 716.51 1.6254 -2.78892 0
M  V30 7622 H 715.562 -0.592223 -3.75762 0
M  V30 7623 H 716.874 -0.559076 -4.95657 0
M  V30 7624 H 716.028 1.62223 -5.8461 0
M  V30 7625 H 714.767 1.67085 -4.58186 0
M  V30 7626 H 713.772 -0.452085 -5.47938 0
M  V30 7627 H 714.997 -0.483925 -6.77374 0
M  V30 7628 H 712.943 1.7161 -6.33156 0
M  V30 7629 H 712.86 0.481094 -7.54468 0
M  V30 7630 H 714.128 1.66822 -7.6144 0
M  V30 7631 N 718.357 1.51182 -0.445186 0
M  V30 7632 C 719.773 1.59299 -0.0978954 0
M  V30 7633 C 719.973 1.4555 1.39346 0
M  V30 7634 O 719.029 1.30073 2.16419 0
M  V30 7635 C 720.342 2.94133 -0.625005 0
M  V30 7636 C 721.89 3.07463 -0.586137 0
M  V30 7637 C 722.365 4.44832 -1.09035 0
M  V30 7638 N 723.856 4.51173 -1.04867 0
M  V30 7639 C 724.591 5.55804 -1.40959 0
M  V30 7640 N 724.087 6.67816 -1.84375 0
M  V30 7641 N 725.88 5.46205 -1.32726 0
M  V30 7642 H 718.031 1.58363 -1.41544 0
M  V30 7643 H 720.294 0.746946 -0.58376 0
M  V30 7644 H 720 3.09589 -1.66876 0
M  V30 7645 H 719.874 3.77161 -0.0542262 0
M  V30 7646 H 722.261 2.9167 0.448646 0
M  V30 7647 H 722.342 2.26255 -1.19341 0
M  V30 7648 H 721.986 4.61372 -2.12364 0
M  V30 7649 H 721.916 5.24591 -0.459539 0
M  V30 7650 H 724.407 3.70783 -0.729932 0
M  V30 7651 H 724.72 7.43683 -2.10131 0
M  V30 7652 H 723.065 6.69003 -1.88308 0
M  V30 7653 H 726.256 4.57583 -0.986678 0
M  V30 7654 H 726.429 6.27634 -1.61182 0
M  V30 7655 N 719.835 0.176821 1.56605 0
M  V30 7656 C 720.745 -0.763682 2.21822 0
M  V30 7657 C 721.761 -1.24889 1.21156 0
M  V30 7658 O 722.937 -1.29987 1.53836 0
M  V30 7659 C 720.002 -1.97352 2.8505 0
M  V30 7660 C 719.063 -1.53466 4.00932 0
M  V30 7661 C 718.296 -2.68682 4.61135 0
M  V30 7662 O 718.519 -3.85694 4.20234 0
M  V30 7663 O 717.453 -2.42442 5.50913 0
M  V30 7664 H 721.279 -0.238363 3.02763 0
M  V30 7665 H 718.864 -0.0516331 1.49311 0
M  V30 7666 H 720.746 -2.68096 3.25119 0
M  V30 7667 H 719.421 -2.48779 2.07101 0
M  V30 7668 H 718.328 -0.796551 3.65521 0
M  V30 7669 H 719.661 -1.06724 4.8049 0
M  V30 7670 N 721.313 -1.57302 -0.09688 0
M  V30 7671 C 722.243 -2.0497 -1.11846 0
M  V30 7672 C 723.224 -0.938278 -1.41882 0
M  V30 7673 O 724.409 -1.20943 -1.51942 0
M  V30 7674 C 721.539 -2.47264 -2.43881 0
M  V30 7675 C 720.493 -3.62053 -2.28257 0
M  V30 7676 C 719.819 -3.90318 -3.65453 0
M  V30 7677 C 721.119 -4.93005 -1.72461 0
M  V30 7678 H 722.813 -2.90567 -0.721888 0
M  V30 7679 H 720.359 -1.39786 -0.345803 0
M  V30 7680 H 722.312 -2.7922 -3.15617 0
M  V30 7681 H 721.036 -1.58664 -2.8547 0
M  V30 7682 H 719.695 -3.30341 -1.58967 0
M  V30 7683 H 719.343 -2.98889 -4.04567 0
M  V30 7684 H 719.043 -4.67597 -3.55846 0
M  V30 7685 H 720.567 -4.24747 -4.3866 0
M  V30 7686 H 721.981 -5.23354 -2.34036 0
M  V30 7687 H 720.378 -5.74436 -1.73618 0
M  V30 7688 H 721.448 -4.80053 -0.683898 0
M  V30 7689 N 722.791 0.367657 -1.53252 0
M  V30 7690 C 723.723 1.47032 -1.75824 0
M  V30 7691 C 724.736 1.49736 -0.63898 0
M  V30 7692 O 725.925 1.53253 -0.915193 0
M  V30 7693 C 723.025 2.85805 -1.82122 0
M  V30 7694 C 722.198 3.06822 -3.11736 0
M  V30 7695 C 721.257 4.25698 -3.09302 0
M  V30 7696 O 720.283 4.20972 -3.83107 0
M  V30 7697 N 721.485 5.33002 -2.29977 0
M  V30 7698 H 724.25 1.28048 -2.70968 0
M  V30 7699 H 721.811 0.557363 -1.52004 0
M  V30 7700 H 723.803 3.63465 -1.77975 0
M  V30 7701 H 722.373 2.98046 -0.942716 0
M  V30 7702 H 721.593 2.1684 -3.29202 0
M  V30 7703 H 722.881 3.17731 -3.97397 0
M  V30 7704 H 722.279 5.39703 -1.69521 0
M  V30 7705 H 720.836 6.09247 -2.3165 0
M  V30 7706 N 724.269 1.44576 0.627338 0
M  V30 7707 C 725.179 1.54232 1.76776 0
M  V30 7708 C 726.195 0.427782 1.6866 0
M  V30 7709 O 727.371 0.685671 1.89369 0
M  V30 7710 C 724.436 1.48738 3.13174 0
M  V30 7711 C 723.497 2.71074 3.32893 0
M  V30 7712 C 722.73 2.65832 4.62784 0
M  V30 7713 O 722.953 1.72048 5.43834 0
M  V30 7714 O 721.887 3.56742 4.84787 0
M  V30 7715 H 725.713 2.50586 1.71582 0
M  V30 7716 H 723.298 1.26865 0.789028 0
M  V30 7717 H 725.18 1.48211 3.94476 0
M  V30 7718 H 723.855 0.555292 3.18902 0
M  V30 7719 H 722.762 2.77168 2.51254 0
M  V30 7720 H 724.095 3.63342 3.32029 0
M  V30 7721 N 725.747 -0.868086 1.31537 0
M  V30 7722 C 726.677 -1.99131 1.21939 0
M  V30 7723 C 727.658 -1.69768 0.106166 0
M  V30 7724 O 728.843 -1.92006 0.291081 0
M  V30 7725 C 725.973 -3.34676 0.927879 0
M  V30 7726 C 724.927 -3.7835 2.00088 0
M  V30 7727 C 724.253 -5.11375 1.56203 0
M  V30 7728 C 725.553 -3.95256 3.41424 0
M  V30 7729 H 727.247 -2.07419 2.15911 0
M  V30 7730 H 724.793 -0.996569 1.03945 0
M  V30 7731 H 726.746 -4.12793 0.847327 0
M  V30 7732 H 725.47 -3.26565 -0.0475042 0
M  V30 7733 H 724.129 -3.02474 2.07135 0
M  V30 7734 H 723.777 -4.99709 0.57445 0
M  V30 7735 H 723.477 -5.41568 2.27985 0
M  V30 7736 H 725.001 -5.92001 1.49558 0
M  V30 7737 H 726.415 -4.63764 3.3704 0
M  V30 7738 H 724.812 -4.36849 4.1144 0
M  V30 7739 H 725.882 -2.98579 3.82072 0
M  V30 7740 N 727.225 -1.14528 -1.08264 0
M  V30 7741 C 728.471 -0.91576 -1.80947 0
M  V30 7742 C 728.804 0.55623 -1.86064 0
M  V30 7743 O 728.079 1.41207 -1.33756 0
M  V30 7744 C 728.362 -1.51917 -3.26486 0
M  V30 7745 C 728.215 -3.06111 -3.2957 0
M  V30 7746 C 729.534 -1.19724 -4.23502 0
M  V30 7747 H 726.653 -0.334113 -0.656915 0
M  V30 7748 H 729.295 -1.41547 -1.26746 0
M  V30 7749 H 727.445 -1.0942 -3.72773 0
M  V30 7750 H 729.117 -3.57448 -2.91597 0
M  V30 7751 H 727.36 -3.40483 -2.688 0
M  V30 7752 H 728.031 -3.43438 -4.32151 0
M  V30 7753 H 730.507 -1.56467 -3.85561 0
M  V30 7754 H 729.383 -1.64575 -5.23647 0
M  V30 7755 H 729.644 -0.112771 -4.41956 0
M  V30 7756 N 728.703 1.26451 -0.940633 0
M  V30 7757 C 729.635 2.25556 -0.407104 0
M  V30 7758 C 730.648 1.55888 0.469324 0
M  V30 7759 O 731.837 1.76292 0.279858 0
M  V30 7760 C 728.937 3.36109 0.434064 0
M  V30 7761 C 728.11 4.3532 -0.426082 0
M  V30 7762 C 727.169 5.25004 0.354563 0
M  V30 7763 O 726.195 5.68684 -0.242219 0
M  V30 7764 N 727.397 5.5652 1.65123 0
M  V30 7765 H 730.162 2.7197 -1.25907 0
M  V30 7766 H 727.723 1.40212 -0.809456 0
M  V30 7767 H 729.715 3.93059 0.963684 0
M  V30 7768 H 728.285 2.89194 1.18683 0
M  V30 7769 H 727.505 3.77449 -1.13692 0
M  V30 7770 H 728.793 4.986 -1.01366 0
M  V30 7771 H 728.191 5.22912 2.15822 0
M  V30 7772 H 726.748 6.16115 2.12711 0
M  V30 7773 N 730.181 0.707592 1.40822 0
M  V30 7774 C 731.411 0.252706 2.05049 0
M  V30 7775 C 731.819 -1.10758 1.53393 0
M  V30 7776 O 731.162 -1.70567 0.682097 0
M  V30 7777 C 731.224 0.146001 3.59203 0
M  V30 7778 C 730.888 1.44027 4.33711 0
M  V30 7779 C 731.885 2.38058 4.62195 0
M  V30 7780 C 729.57 1.69698 4.72766 0
M  V30 7781 C 731.564 3.56013 5.28709 0
M  V30 7782 C 729.251 2.87936 5.39014 0
M  V30 7783 C 730.249 3.80915 5.66915 0
M  V30 7784 O 729.937 4.9708 6.31796 0
M  V30 7785 H 729.669 0.112784 0.666525 0
M  V30 7786 H 732.223 0.96417 1.81364 0
M  V30 7787 H 730.453 -0.621338 3.81676 0
M  V30 7788 H 732.142 -0.273275 4.04979 0
M  V30 7789 H 732.908 2.19487 4.32493 0
M  V30 7790 H 728.787 0.981835 4.50423 0
M  V30 7791 H 732.331 4.28604 5.50404 0
M  V30 7792 H 728.228 3.06419 5.68135 0
M  V30 7793 H 728.996 4.97053 6.50293 0
M  V30 7794 N 731.66 -1.50943 0.453197 0
M  V30 7795 C 733.071 -1.86699 -0.00619892 0
M  V30 7796 C 733.422 -1.3693 -1.40515 0
M  V30 7797 O 732.547 -0.726715 -2.03833 0
M  V30 7798 C 733.142 -3.38795 -0.018025 0
M  V30 7799 C 731.701 -3.74028 -0.421885 0
M  V30 7800 C 730.848 -2.74752 0.375087 0
M  V30 7801 H 733.799 -1.43942 0.668317 0
M  V30 7802 H 733.82 -3.71468 -0.824125 0
M  V30 7803 H 733.332 -3.74988 1.00028 0
M  V30 7804 H 731.433 -3.43431 -1.44521 0
M  V30 7805 H 731.546 -4.78908 -0.135664 0
M  V30 7806 H 729.91 -2.5414 -0.168794 0
M  V30 7807 H 730.693 -3.13787 1.39256 0
M  V30 7808 N 733.138 -0.185124 -1.56509 0
M  V30 7809 C 734.384 0.456934 -1.97585 0
M  V30 7810 C 734.717 1.61957 -1.07161 0
M  V30 7811 O 733.992 1.9412 -0.121546 0
M  V30 7812 C 734.275 0.926666 -3.47973 0
M  V30 7813 C 734.128 -0.237097 -4.49175 0
M  V30 7814 C 735.447 1.79561 -4.01803 0
M  V30 7815 H 732.566 0.164619 -0.71838 0
M  V30 7816 H 735.208 -0.274039 -1.88013 0
M  V30 7817 H 733.358 1.54954 -3.56261 0
M  V30 7818 H 735.03 -0.87454 -4.52934 0
M  V30 7819 H 733.273 -0.890446 -4.24563 0
M  V30 7820 H 733.944 0.133924 -5.51838 0
M  V30 7821 H 736.42 1.27039 -3.96232 0
M  V30 7822 H 735.296 2.09327 -5.07418 0
M  V30 7823 H 735.557 2.74629 -3.46455 0
M  V30 7824 N 734.616 1.57351 0.0885366 0
M  V30 7825 C 735.526 2.05858 1.12516 0
M  V30 7826 C 736.542 0.984758 1.43452 0
M  V30 7827 O 737.718 1.29836 1.53963 0
M  V30 7828 C 734.783 2.47882 2.42395 0
M  V30 7829 C 733.844 3.69487 2.18582 0
M  V30 7830 C 733.077 4.09497 3.42268 0
M  V30 7831 O 733.3 3.49536 4.50755 0
M  V30 7832 O 732.234 5.02406 3.31469 0
M  V30 7833 H 736.06 2.94467 0.743146 0
M  V30 7834 H 733.645 1.46326 0.301507 0
M  V30 7835 H 735.527 2.75509 3.18862 0
M  V30 7836 H 734.202 1.62408 2.8001 0
M  V30 7837 H 733.109 3.46967 1.39875 0
M  V30 7838 H 734.442 4.55761 1.85857 0
M  V30 7839 N 736.094 -0.359525 1.53444 0
M  V30 7840 C 737.044 -1.441 1.7669 0
M  V30 7841 C 738.028 -1.48408 0.621599 0
M  V30 7842 O 739.22 -1.53547 0.880468 0
M  V30 7843 C 736.349 -2.81455 1.96566 0
M  V30 7844 C 735.435 -2.81601 3.17115 0
M  V30 7845 N 735.826 -2.51388 4.38905 0
M  V30 7846 C 734.124 -3.12758 3.1796 0
M  V30 7847 C 734.825 -2.59365 5.20677 0
M  V30 7848 N 733.801 -2.94328 4.57025 0
M  V30 7849 H 737.603 -1.19613 2.68458 0
M  V30 7850 H 735.117 -0.567761 1.52152 0
M  V30 7851 H 737.114 -3.59357 2.11348 0
M  V30 7852 H 735.774 -3.06901 1.06029 0
M  V30 7853 H 736.785 -2.24873 4.66533 0
M  V30 7854 H 733.462 -3.43479 2.37336 0
M  V30 7855 H 734.852 -2.39301 6.27841 0
M  V30 7856 N 737.572 -1.44907 -0.619662 0
M  V30 7857 C 738.983 -1.42905 -1.20146 0
M  V30 7858 C 739.334 -0.150341 -1.95623 0
M  V30 7859 O 738.459 0.748732 -2.03034 0
M  V30 7860 C 739.054 -2.58889 -2.18545 0
M  V30 7861 C 737.613 -2.60046 -2.72127 0
M  V30 7862 C 736.76 -2.3493 -1.4732 0
M  V30 7863 H 739.711 -1.53321 -0.409666 0
M  V30 7864 H 739.732 -2.32298 -3.0136 0
M  V30 7865 H 739.244 -3.51941 -1.63583 0
M  V30 7866 H 737.345 -1.70968 -3.3106 0
M  V30 7867 H 737.458 -3.58893 -3.17384 0
M  V30 7868 H 735.822 -1.84248 -1.75855 0
M  V30 7869 H 736.605 -3.3011 -0.942442 0
M  V30 7870 N 739.05 0.861098 -1.31996 0
M  V30 7871 C 740.327 1.59788 -1.12814 0
M  V30 7872 C 740.707 2.08753 0.313882 0
M  V30 7873 O 740.055 1.87258 1.30946 0
M  V30 7874 C 740.265 2.74901 -2.15012 0
M  V30 7875 C 741.613 3.44643 -2.48004 0
M  V30 7876 O 742.637 2.85119 -2.13508 0
M  V30 7877 O 741.496 4.52044 -3.07113 0
M  V30 7878 H 738.59 0.703408 -0.434909 0
M  V30 7879 H 741.136 0.905788 -1.43505 0
M  V30 7880 H 739.908 2.36198 -3.11971 0
M  V30 7881 H 739.531 3.51792 -1.85279 0
M  V30 7882 N 740.528 1.15101 1.07655 0
M  V30 7883 C 741.475 0.844958 2.14777 0
M  V30 7884 C 742.445 -0.200798 1.64882 0
M  V30 7885 O 743.63 -0.0690278 1.90675 0
M  V30 7886 C 740.77 0.337018 3.4345 0
M  V30 7887 C 739.883 1.44398 4.07153 0
M  V30 7888 C 739.018 0.892487 5.23649 0
M  V30 7889 C 738.057 1.9766 5.79307 0
M  V30 7890 N 737.194 1.44171 6.87138 0
M  V30 7891 H 742.034 1.76242 2.40297 0
M  V30 7892 H 739.571 0.879435 1.17917 0
M  V30 7893 H 741.529 0.024256 4.17193 0
M  V30 7894 H 740.159 -0.543531 3.18191 0
M  V30 7895 H 739.211 1.87299 3.31094 0
M  V30 7896 H 740.523 2.26262 4.4453 0
M  V30 7897 H 739.677 0.532083 6.04362 0
M  V30 7898 H 738.416 0.0429854 4.87681 0
M  V30 7899 H 737.421 2.34586 4.97242 0
M  V30 7900 H 738.646 2.82982 6.17331 0
M  V30 7901 H 736.592 0.614518 6.53115 0
M  V30 7902 H 736.509 2.19665 7.23383 0
M  V30 7903 H 737.777 1.10945 7.71564 0
M  V30 7904 N 742.006 -1.2595 0.947325 0
M  V30 7905 C 743.253 -1.93463 0.598178 0
M  V30 7906 C 743.581 -1.74271 -0.863705 0
M  V30 7907 O 742.836 -1.07684 -1.63409 0
M  V30 7908 C 743.135 -3.46034 0.894158 0
M  V30 7909 C 742.801 -3.85373 2.3409 0
M  V30 7910 C 741.463 -3.95823 2.73637 0
M  V30 7911 C 743.815 -4.04986 3.2808 0
M  V30 7912 C 741.143 -4.23288 4.06257 0
M  V30 7913 C 743.495 -4.3394 4.60303 0
M  V30 7914 C 742.159 -4.42606 4.99656 0
M  V30 7915 H 741.429 -0.707933 0.218889 0
M  V30 7916 H 744.076 -1.4964 1.19499 0
M  V30 7917 H 742.381 -3.9121 0.214874 0
M  V30 7918 H 744.078 -3.96445 0.602698 0
M  V30 7919 H 740.668 -3.7779 2.02417 0
M  V30 7920 H 744.852 -3.96333 2.9872 0
M  V30 7921 H 740.108 -4.28211 4.36401 0
M  V30 7922 H 744.282 -4.48061 5.33118 0
M  V30 7923 H 741.909 -4.63641 6.02446 0
M  V30 7924 N 743.484 -0.715051 -1.40445 0
M  V30 7925 C 744.414 -0.0768699 -2.33373 0
M  V30 7926 C 745.395 0.746109 -1.52863 0
M  V30 7927 O 746.58 0.695142 -1.81332 0
M  V30 7928 C 743.71 0.846014 -3.36838 0
M  V30 7929 C 742.664 0.128694 -4.27806 0
M  V30 7930 C 741.99 1.16726 -5.21804 0
M  V30 7931 C 743.29 -1.01679 -5.12307 0
M  V30 7932 H 744.984 -0.853061 -2.8699 0
M  V30 7933 H 742.53 -0.41167 -1.3799 0
M  V30 7934 H 744.483 1.30185 -4.00786 0
M  V30 7935 H 743.207 1.6541 -2.81615 0
M  V30 7936 H 741.866 -0.307314 -3.6531 0
M  V30 7937 H 741.514 1.96838 -4.62887 0
M  V30 7938 H 741.214 0.692188 -5.83509 0
M  V30 7939 H 742.738 1.62321 -5.88629 0
M  V30 7940 H 744.152 -0.640337 -5.69713 0
M  V30 7941 H 742.549 -1.4202 -5.83053 0
M  V30 7942 H 743.619 -1.84769 -4.48317 0
M  V30 7943 N 744.962 1.50701 -0.461195 0
M  V30 7944 C 745.909 2.2831 0.338094 0
M  V30 7945 C 746.879 1.32928 0.995957 0
M  V30 7946 O 748.064 1.61857 1.0103 0
M  V30 7947 C 745.204 3.14539 1.41983 0
M  V30 7948 C 744.317 4.24942 0.77773 0
M  V30 7949 C 743.452 4.98443 1.83652 0
M  V30 7950 C 742.491 6.00733 1.17413 0
M  V30 7951 N 741.628 6.6755 2.17533 0
M  V30 7952 H 746.468 2.96167 -0.330051 0
M  V30 7953 H 744.005 1.4606 -0.174611 0
M  V30 7954 H 745.963 3.62877 2.05855 0
M  V30 7955 H 744.593 2.48749 2.05727 0
M  V30 7956 H 743.645 3.80391 0.0266924 0
M  V30 7957 H 744.957 4.98151 0.254362 0
M  V30 7958 H 744.111 5.50449 2.55129 0
M  V30 7959 H 742.85 4.24917 2.39367 0
M  V30 7960 H 741.855 5.47997 0.444944 0
M  V30 7961 H 743.08 6.76227 0.624006 0
M  V30 7962 H 741.026 5.96823 2.72284 0
M  V30 7963 H 740.943 7.36603 1.70154 0
M  V30 7964 H 742.211 7.24178 2.88421 0
M  V30 7965 N 746.441 0.193421 1.56409 0
M  V30 7966 C 747.688 -0.445789 1.97532 0
M  V30 7967 C 748.016 -1.61744 1.08024 0
M  V30 7968 O 747.271 -1.95338 0.118982 0
M  V30 7969 C 747.57 -0.949718 3.44551 0
M  V30 7970 C 747.236 0.108383 4.5077 0
M  V30 7971 C 745.898 0.399126 4.79542 0
M  V30 7972 C 748.25 0.825423 5.14622 0
M  V30 7973 C 745.578 1.41192 5.69457 0
M  V30 7974 C 747.93 1.82735 6.05632 0
M  V30 7975 C 746.594 2.12531 6.32761 0
M  V30 7976 H 745.864 -0.163126 0.722822 0
M  V30 7977 H 748.511 0.290035 1.89291 0
M  V30 7978 H 746.816 -1.76378 3.49854 0
M  V30 7979 H 748.513 -1.45367 3.73724 0
M  V30 7980 H 745.103 -0.128392 4.28408 0
M  V30 7981 H 749.287 0.61403 4.92487 0
M  V30 7982 H 744.543 1.6487 5.88751 0
M  V30 7983 H 748.717 2.3882 6.5417 0
M  V30 7984 H 746.344 2.91155 7.02234 0
M  V30 7985 N 747.919 -1.57396 -0.0801906 0
M  V30 7986 C 749.167 -1.86467 -0.779384 0
M  V30 7987 C 749.488 -0.784243 -1.78535 0
M  V30 7988 O 748.758 0.187986 -1.94996 0
M  V30 7989 H 747.338 -0.68806 -0.29083 0
M  V30 7990 H 750 -1.94813 -0.0582749 0
M  V30 7991 H 749.096 -2.83701 -1.30078 0
M  V30 7992 N 749.397 0.351382 -1.53633 0
M  V30 7993 C 750.33 1.45407 -1.75875 0
M  V30 7994 C 751.308 1.50822 -0.607566 0
M  V30 7995 O 752.492 1.68658 -0.841818 0
M  V30 7996 C 749.619 2.8369 -1.85034 0
M  V30 7997 C 748.665 2.95935 -3.07123 0
M  V30 7998 S 749.498 2.63215 -4.66345 0
M  V30 7999 C 750.654 4.03622 -4.78373 0
M  V30 8000 H 750.887 1.26322 -2.69128 0
M  V30 8001 H 748.42 0.546581 -1.44402 0
M  V30 8002 H 750.378 3.6336 -1.90996 0
M  V30 8003 H 749.039 3.00076 -0.928074 0
M  V30 8004 H 748.232 3.97243 -3.10183 0
M  V30 8005 H 747.834 2.24205 -2.99346 0
M  V30 8006 H 750.126 4.98046 -4.593 0
M  V30 8007 H 751.069 4.05559 -5.80454 0
M  V30 8008 H 751.477 3.91282 -4.06889 0
M  V30 8009 N 750.875 1.45233 0.611969 0
M  V30 8010 C 752.103 1.52539 1.39784 0
M  V30 8011 C 752.518 0.156533 1.8815 0
M  V30 8012 O 751.875 -0.84112 1.61961 0
M  V30 8013 C 751.926 2.50614 2.60528 0
M  V30 8014 O 751.647 3.8218 2.14173 0
M  V30 8015 C 753.148 2.67574 3.53439 0
M  V30 8016 H 750.368 0.51674 0.428043 0
M  V30 8017 H 752.912 1.90379 0.746727 0
M  V30 8018 H 751.067 2.15858 3.2169 0
M  V30 8019 H 751.481 4.35305 2.92592 0
M  V30 8020 H 752.955 3.40184 4.34717 0
M  V30 8021 H 753.432 1.73458 4.03496 0
M  V30 8022 H 754.038 3.0331 2.98133 0
M  V30 8023 N 752.353 -0.854086 1.3245 0
M  V30 8024 C 753.764 -1.42427 1.20712 0
M  V30 8025 C 754.115 -1.95371 -0.18013 0
M  V30 8026 O 753.24 -1.87587 -1.07889 0
M  V30 8027 C 753.835 -2.58897 2.18536 0
M  V30 8028 C 752.394 -3.11913 2.10683 0
M  V30 8029 C 751.541 -1.84661 2.06871 0
M  V30 8030 H 754.492 -0.661192 1.4427 0
M  V30 8031 H 754.513 -3.36074 1.78422 0
M  V30 8032 H 754.025 -2.20333 3.19492 0
M  V30 8033 H 752.126 -3.55059 1.12977 0
M  V30 8034 H 752.239 -3.73119 3.00532 0
M  V30 8035 H 750.603 -2.04285 1.52118 0
M  V30 8036 H 751.386 -1.48314 3.09609 0
M  V30 8037 N 753.831 -1.1567 -1.07043 0
M  V30 8038 C 755.056 -0.957946 -1.83952 0
M  V30 8039 C 755.481 0.488807 -1.81638 0
M  V30 8040 O 754.839 1.34869 -1.21162 0
M  V30 8041 C 754.887 -1.48064 -3.288 0
M  V30 8042 O 753.991 -0.681921 -4.06723 0
M  V30 8043 H 753.332 -0.341453 -0.569479 0
M  V30 8044 H 755.862 -1.53728 -1.35015 0
M  V30 8045 H 755.872 -1.49484 -3.7963 0
M  V30 8046 H 754.547 -2.53388 -3.29799 0
M  V30 8047 H 753.124 -0.737612 -3.65532 0
M  V30 8048 N 755.309 1.25446 -0.953992 0
M  V30 8049 C 756.256 2.25912 -0.472485 0
M  V30 8050 C 757.226 1.59173 0.47469 0
M  V30 8051 O 758.411 1.86812 0.388082 0
M  V30 8052 C 755.551 3.44235 0.244218 0
M  V30 8053 C 754.664 4.25613 -0.740121 0
M  V30 8054 C 753.799 5.312 -0.000922267 0
M  V30 8055 C 752.838 6.04265 -0.976236 0
M  V30 8056 N 751.975 7.01589 -0.267952 0
M  V30 8057 H 756.815 2.66469 -1.3341 0
M  V30 8058 H 754.352 1.31005 -0.669045 0
M  V30 8059 H 756.31 4.11682 0.676314 0
M  V30 8060 H 754.94 3.04554 1.06988 0
M  V30 8061 H 753.992 3.57834 -1.2907 0
M  V30 8062 H 755.304 4.762 -1.48441 0
M  V30 8063 H 754.458 6.04719 0.48984 0
M  V30 8064 H 753.197 4.81484 0.776159 0
M  V30 8065 H 752.202 5.29561 -1.478 0
M  V30 8066 H 753.427 6.5607 -1.75354 0
M  V30 8067 H 751.373 6.54164 0.490403 0
M  V30 8068 H 751.29 7.4999 -0.951344 0
M  V30 8069 H 752.558 7.7924 0.201294 0
M  V30 8070 N 756.787 0.722489 1.40064 0
M  V30 8071 C 758.035 0.264455 2.00362 0
M  V30 8072 C 758.356 -1.14847 1.57592 0
M  V30 8073 O 757.626 -1.77982 0.818477 0
M  V30 8074 H 756.206 0.0947846 0.740962 0
M  V30 8075 H 758.868 0.929659 1.71299 0
M  V30 8076 H 757.964 0.302977 3.10626 0
M  V30 8077 N 758.265 -1.50454 0.469181 0
M  V30 8078 C 759.511 -2.02615 -0.0865971 0
M  V30 8079 C 759.844 -1.35062 -1.39542 0
M  V30 8080 O 759.119 -0.475701 -1.88593 0
M  V30 8081 C 759.402 -3.59068 -0.272385 0
M  V30 8082 C 759.255 -4.37196 1.05733 0
M  V30 8083 C 760.574 -4.2793 -1.0278 0
M  V30 8084 H 757.693 -0.736389 -0.0299977 0
M  V30 8085 H 760.335 -1.79792 0.614399 0
M  V30 8086 H 758.485 -3.78646 -0.869471 0
M  V30 8087 H 760.157 -4.29195 1.69084 0
M  V30 8088 H 758.4 -4.01013 1.65442 0
M  V30 8089 H 759.071 -5.44924 0.880997 0
M  V30 8090 H 761.547 -4.12816 -0.521718 0
M  V30 8091 H 760.423 -5.37214 -1.12659 0
M  V30 8092 H 760.684 -3.90968 -2.0639 0
M  V30 8093 N 759.743 -0.201713 -1.56304 0
M  V30 8094 C 760.673 0.71155 -2.22394 0
M  V30 8095 C 761.654 1.21625 -1.18917 0
M  V30 8096 O 762.839 1.26388 -1.47444 0
M  V30 8097 C 759.969 1.92837 -2.88845 0
M  V30 8098 C 758.923 1.55831 -3.98623 0
M  V30 8099 C 758.249 2.85228 -4.52271 0
M  V30 8100 C 759.549 0.763249 -5.16693 0
M  V30 8101 H 761.243 0.160573 -2.98969 0
M  V30 8102 H 758.789 0.0757916 -1.438 0
M  V30 8103 H 760.742 2.57253 -3.33764 0
M  V30 8104 H 759.466 2.50398 -2.09686 0
M  V30 8105 H 758.125 0.9377 -3.54405 0
M  V30 8106 H 757.773 3.40893 -3.69866 0
M  V30 8107 H 757.473 2.6121 -5.26349 0
M  V30 8108 H 758.997 3.50622 -4.99897 0
M  V30 8109 H 760.411 1.31066 -5.58117 0
M  V30 8110 H 758.808 0.620935 -5.96879 0
M  V30 8111 H 759.878 -0.234322 -4.84334 0
M  V30 8112 N 761.222 1.57436 0.0718424 0
M  V30 8113 C 762.469 1.87248 0.771007 0
M  V30 8114 C 762.797 0.793441 1.7758 0
M  V30 8115 O 762.052 -0.210565 1.94564 0
M  V30 8116 C 762.351 3.23723 1.51455 0
M  V30 8117 C 762.017 4.46194 0.649736 0
M  V30 8118 C 760.679 4.79438 0.411409 0
M  V30 8119 C 763.031 5.21176 0.05004 0
M  V30 8120 C 760.359 5.85077 -0.436096 0
M  V30 8121 C 762.711 6.27712 -0.784919 0
M  V30 8122 C 761.375 6.59457 -1.03312 0
M  V30 8123 H 760.645 0.685188 0.282132 0
M  V30 8124 H 763.292 1.91474 0.0317896 0
M  V30 8125 H 761.597 3.15287 2.32597 0
M  V30 8126 H 763.294 3.44023 2.06031 0
M  V30 8127 H 759.884 4.20175 0.84562 0
M  V30 8128 H 764.068 4.95806 0.221282 0
M  V30 8129 H 759.324 6.08071 -0.637136 0
M  V30 8130 H 763.498 6.84974 -1.25635 0
M  V30 8131 H 761.125 7.4114 -1.6916 0
M  V30 8132 N 762.7 -0.34323 1.53817 0
M  V30 8133 C 763.93 -1.10188 1.74763 0
M  V30 8134 C 764.338 -1.82829 0.486856 0
M  V30 8135 O 763.681 -1.75236 -0.551198 0
M  V30 8136 C 763.743 -2.16 2.87375 0
M  V30 8137 C 763.407 -1.62931 4.26969 0
M  V30 8138 C 764.404 -1.08147 5.08528 0
M  V30 8139 C 762.089 -1.67769 4.73454 0
M  V30 8140 C 764.083 -0.589039 6.34672 0
M  V30 8141 C 761.77 -1.18138 5.99572 0
M  V30 8142 C 762.768 -0.637979 6.80014 0
M  V30 8143 O 762.456 -0.149073 8.03762 0
M  V30 8144 H 762.188 -0.33445 0.587469 0
M  V30 8145 H 764.742 -0.401109 2.01445 0
M  V30 8146 H 762.972 -2.89637 2.56218 0
M  V30 8147 H 764.661 -2.77432 2.96287 0
M  V30 8148 H 765.427 -1.03732 4.73777 0
M  V30 8149 H 761.306 -2.09004 4.10899 0
M  V30 8150 H 764.85 -0.164233 6.97407 0
M  V30 8151 H 760.747 -1.22254 6.33817 0
M  V30 8152 H 761.515 -0.266332 8.18067 0
M  V30 8153 N 764.178 -1.45556 -0.604258 0
M  V30 8154 C 765.426 -1.4945 -1.36048 0
M  V30 8155 C 765.747 -0.138933 -1.94504 0
M  V30 8156 O 765.017 0.832097 -1.7735 0
M  V30 8157 H 763.597 -0.550381 -0.505064 0
M  V30 8158 H 766.259 -1.81535 -0.709308 0
M  V30 8159 H 765.355 -2.23519 -2.17821 0
M  V30 8160 N 765.656 0.84705 -1.32902 0
M  V30 8161 C 767.067 1.41785 -1.21466 0
M  V30 8162 C 767.418 1.95464 0.169767 0
M  V30 8163 O 766.543 1.88157 1.06892 0
M  V30 8164 C 767.138 2.57734 -2.19906 0
M  V30 8165 C 765.697 3.10791 -2.12334 0
M  V30 8166 C 764.844 1.83562 -2.07847 0
M  V30 8167 H 767.795 0.653532 -1.44619 0
M  V30 8168 H 767.816 3.35123 -1.80202 0
M  V30 8169 H 767.328 2.18635 -3.20656 0
M  V30 8170 H 765.429 3.54455 -1.14858 0
M  V30 8171 H 765.542 3.71519 -3.02506 0
M  V30 8172 H 763.906 2.03475 -1.53199 0
M  V30 8173 H 764.689 1.4667 -3.10392 0
M  V30 8174 N 767.134 1.16236 1.06428 0
M  V30 8175 C 768.545 0.950942 1.60667 0
M  V30 8176 C 768.896 -0.505491 1.89576 0
M  V30 8177 O 768.021 -1.37843 1.66818 0
M  V30 8178 C 768.616 1.71982 2.91904 0
M  V30 8179 C 767.175 1.55342 3.4285 0
M  V30 8180 C 766.322 1.72942 2.16763 0
M  V30 8181 H 769.273 1.31126 0.893959 0
M  V30 8182 H 769.294 1.19483 3.61253 0
M  V30 8183 H 768.806 2.77978 2.70831 0
M  V30 8184 H 766.907 0.5178 3.68985 0
M  V30 8185 H 767.02 2.33643 4.18267 0
M  V30 8186 H 765.384 1.15673 2.26918 0
M  V30 8187 H 766.167 2.80324 1.98175 0
M  V30 8188 N 768.612 -1.24939 0.960631 0
M  V30 8189 C 769.86 -1.92437 0.617441 0
M  V30 8190 C 770.181 -1.75543 -0.849101 0
M  V30 8191 O 769.451 -1.12269 -1.60538 0
M  V30 8192 H 768.031 -0.712192 0.225371 0
M  V30 8193 H 770.693 -1.5198 1.22017 0
M  V30 8194 H 769.789 -3.00247 0.851933 0
M  V30 8195 N 770.09 -0.729906 -1.39679 0
M  V30 8196 C 771.33 -0.280232 -2.0247 0
M  V30 8197 C 771.694 1.11006 -1.56658 0
M  V30 8198 O 772.895 1.65753 -2.11612 0
M  V30 8199 C 771.166 -0.372922 -3.55449 0
M  V30 8200 S 772.725 -0.00233974 -4.388 0
M  V30 8201 H 769.543 -0.110139 -0.702418 0
M  V30 8202 H 772.145 -0.955296 -1.70571 0
M  V30 8203 H 770.849 -1.38616 -3.86282 0
M  V30 8204 H 770.38 0.320136 -3.92095 0
M  V30 8205 H 772.395 1.21544 -4.81084 0
M  V30 8206 N 771.568 1.50203 -0.477153 0
M  V30 8207 C 772.816 2.01959 0.0755889 0
M  V30 8208 C 773.137 1.3608 1.39668 0
M  V30 8209 O 772.407 0.508136 1.89195 0
M  V30 8210 H 770.987 0.74636 0.0309248 0
M  V30 8211 H 773.649 1.84473 -0.628959 0
M  V30 8212 H 772.745 3.11305 0.222683 0
M  V30 8213 N 773.046 0.209999 1.56195 0
M  V30 8214 C 773.993 -0.704854 2.19774 0
M  V30 8215 C 774.963 -1.19886 1.14964 0
M  V30 8216 O 776.148 -1.26005 1.43274 0
M  V30 8217 C 773.288 -1.91241 2.87265 0
M  V30 8218 C 772.401 -1.45838 4.06639 0
M  V30 8219 C 771.536 -2.6226 4.61945 0
M  V30 8220 C 770.575 -2.13537 5.73645 0
M  V30 8221 N 769.712 -3.2319 6.23292 0
M  V30 8222 H 774.552 -0.155944 2.97592 0
M  V30 8223 H 772.089 -0.0652235 1.46955 0
M  V30 8224 H 774.047 -2.62123 3.24573 0
M  V30 8225 H 772.677 -2.43439 2.11985 0
M  V30 8226 H 771.729 -0.644897 3.74894 0
M  V30 8227 H 773.041 -1.06103 4.87384 0
M  V30 8228 H 772.195 -3.41243 5.01636 0
M  V30 8229 H 770.934 -3.05278 3.80338 0
M  V30 8230 H 769.939 -1.33013 5.33468 0
M  V30 8231 H 771.164 -1.71533 6.57079 0
M  V30 8232 H 769.11 -3.65711 5.44602 0
M  V30 8233 H 769.027 -2.8767 6.99129 0
M  V30 8234 H 770.295 -4.02342 6.67639 0
M  V30 8235 N 774.524 -1.57472 -0.0634922 0
M  V30 8236 C 775.752 -1.91887 -0.773767 0
M  V30 8237 C 776.167 -0.806733 -1.70696 0
M  V30 8238 O 775.524 0.219383 -1.81177 0
M  V30 8239 C 775.575 -3.26092 -1.56034 0
M  V30 8240 O 775.296 -4.33029 -0.66464 0
M  V30 8241 C 776.797 -3.74573 -2.37087 0
M  V30 8242 H 774.017 -0.634074 -0.219525 0
M  V30 8243 H 776.561 -2.04476 -0.0312828 0
M  V30 8244 H 774.716 -3.15004 -2.25502 0
M  V30 8245 H 775.13 -5.10291 -1.21258 0
M  V30 8246 H 776.604 -4.71084 -2.87722 0
M  V30 8247 H 777.081 -3.04003 -3.16984 0
M  V30 8248 H 777.687 -3.88631 -1.72759 0
M  V30 8249 N 776.003 0.335068 -1.53997 0
M  V30 8250 C 776.933 1.41727 -1.85568 0
M  V30 8251 C 777.914 1.54505 -0.7115 0
M  V30 8252 O 779.099 1.68573 -0.964191 0
M  V30 8253 C 776.229 2.7866 -2.07282 0
M  V30 8254 C 775.183 2.80682 -3.23112 0
M  V30 8255 C 774.509 4.20581 -3.30175 0
M  V30 8256 C 775.809 2.45458 -4.61029 0
M  V30 8257 H 777.503 1.15555 -2.76202 0
M  V30 8258 H 775.049 0.554445 -1.32898 0
M  V30 8259 H 777.002 3.54423 -2.27952 0
M  V30 8260 H 775.726 3.06286 -1.13387 0
M  V30 8261 H 774.385 2.07373 -3.02311 0
M  V30 8262 H 774.033 4.4533 -2.33859 0
M  V30 8263 H 773.733 4.22843 -4.08016 0
M  V30 8264 H 775.257 4.98174 -3.53066 0
M  V30 8265 H 776.671 3.10934 -4.81656 0
M  V30 8266 H 775.068 2.5899 -5.41336 0
M  V30 8267 H 776.138 1.40628 -4.6406 0
M  V30 8268 N 777.481 1.45874 0.596531 0
M  V30 8269 C 778.411 1.5824 1.71705 0
M  V30 8270 C 779.392 0.433366 1.64487 0
M  V30 8271 O 780.577 0.657895 1.82717 0
M  V30 8272 C 777.707 1.55927 3.10329 0
M  V30 8273 C 776.661 2.69659 3.32367 0
M  V30 8274 C 775.987 2.52403 4.71377 0
M  V30 8275 C 777.287 4.11591 3.21544 0
M  V30 8276 H 778.981 2.52035 1.61613 0
M  V30 8277 H 776.527 1.21297 0.776082 0
M  V30 8278 H 778.48 1.63173 3.88526 0
M  V30 8279 H 777.204 0.586674 3.21288 0
M  V30 8280 H 775.863 2.61859 2.56564 0
M  V30 8281 H 775.511 1.53258 4.79083 0
M  V30 8282 H 775.211 3.28679 4.87077 0
M  V30 8283 H 776.735 2.6152 5.5176 0
M  V30 8284 H 778.149 4.20576 3.89601 0
M  V30 8285 H 776.546 4.88344 3.4877 0
M  V30 8286 H 777.616 4.32719 2.1882 0
M  V30 8287 N 778.959 -0.83999 1.33349 0
M  V30 8288 C 779.922 -1.93128 1.23426 0
M  V30 8289 C 780.922 -1.60065 0.153599 0
M  V30 8290 O 782.112 -1.69425 0.405049 0
M  V30 8291 C 779.244 -3.28761 0.901622 0
M  V30 8292 H 780.437 -2.03352 2.20427 0
M  V30 8293 H 777.99 -1.03194 1.17391 0
M  V30 8294 H 778.725 -3.24233 -0.0659337 0
M  V30 8295 H 778.51 -3.54138 1.68311 0
M  V30 8296 H 780 -4.08714 0.856913 0
M  V30 8297 N 780.437 -1.16799 -1.0581 0
M  V30 8298 C 781.384 -0.87902 -2.13405 0
M  V30 8299 C 782.354 0.174541 -1.6518 0
M  V30 8300 O 783.539 0.0386843 -1.90761 0
M  V30 8301 C 780.679 -0.391616 -3.42871 0
M  V30 8302 C 779.792 -1.50857 -4.04804 0
M  V30 8303 C 778.927 -0.975682 -5.22163 0
M  V30 8304 C 777.966 -2.06851 -5.76089 0
M  V30 8305 N 777.103 -1.55085 -6.84758 0
M  V30 8306 H 781.943 -1.80043 -2.37463 0
M  V30 8307 H 779.48 -0.898083 -1.16503 0
M  V30 8308 H 781.438 -0.0906247 -4.17102 0
M  V30 8309 H 780.068 0.49284 -3.19016 0
M  V30 8310 H 779.12 -1.92542 -3.28073 0
M  V30 8311 H 780.432 -2.33305 -4.40874 0
M  V30 8312 H 779.586 -0.628165 -6.03439 0
M  V30 8313 H 778.325 -0.120566 -4.87551 0
M  V30 8314 H 777.33 -2.42467 -4.93447 0
M  V30 8315 H 778.555 -2.92768 -6.12751 0
M  V30 8316 H 776.501 -0.718345 -6.52055 0
M  V30 8317 H 776.418 -2.31145 -7.19797 0
M  V30 8318 H 777.686 -1.23206 -7.69702 0
M  V30 8319 N 781.915 1.24427 -0.967243 0
M  V30 8320 C 782.878 2.23637 -0.501927 0
M  V30 8321 C 783.878 1.55712 0.401283 0
M  V30 8322 O 785.068 1.73085 0.196808 0
M  V30 8323 C 782.2 3.39804 0.273176 0
M  V30 8324 H 783.393 2.66317 -1.37897 0
M  V30 8325 H 780.946 1.37033 -0.751783 0
M  V30 8326 H 781.681 3.02562 1.16733 0
M  V30 8327 H 781.466 3.90303 -0.37498 0
M  V30 8328 H 782.956 4.13443 0.587776 0
M  V30 8329 N 783.393 0.737304 1.3929 0
M  V30 8330 C 784.642 0.283129 1.99703 0
M  V30 8331 C 784.955 -1.13677 1.59176 0
M  V30 8332 O 786.161 -1.69058 2.12442 0
M  V30 8333 C 784.617 0.455262 3.57009 0
M  V30 8334 C 784.225 1.88319 4.06497 0
M  V30 8335 C 785.969 0.0629786 4.24453 0
M  V30 8336 C 783.876 2.00475 5.56385 0
M  V30 8337 H 782.806 0.102106 0.747054 0
M  V30 8338 H 785.457 0.911515 1.5926 0
M  V30 8339 H 783.839 -0.242057 3.9526 0
M  V30 8340 H 785.013 2.61265 3.79575 0
M  V30 8341 H 783.328 2.2289 3.51723 0
M  V30 8342 H 785.925 0.132787 5.34535 0
M  V30 8343 H 786.268 -0.982128 4.04549 0
M  V30 8344 H 786.801 0.71154 3.91385 0
M  V30 8345 H 783.54 3.03182 5.81172 0
M  V30 8346 H 783.06 1.31969 5.85102 0
M  V30 8347 H 784.739 1.787 6.21832 0
M  V30 8348 N 784.871 -1.49948 0.485112 0
M  V30 8349 C 785.834 -2.27351 -0.290546 0
M  V30 8350 C 786.834 -1.32704 -0.908087 0
M  V30 8351 O 788.024 -1.56007 -0.775085 0
M  V30 8352 C 785.156 -3.10135 -1.41524 0
M  V30 8353 H 786.349 -2.97374 0.388454 0
M  V30 8354 H 783.902 -1.54453 0.239586 0
M  V30 8355 H 784.637 -2.44641 -2.12888 0
M  V30 8356 H 784.422 -3.79705 -0.978074 0
M  V30 8357 H 785.912 -3.68638 -1.96204 0
M  V30 8358 N 786.349 -0.21828 -1.56081 0
M  V30 8359 C 787.297 0.709679 -2.21509 0
M  V30 8360 C 788.291 1.20221 -1.19346 0
M  V30 8361 O 789.497 1.16241 -1.37433 0
M  V30 8362 H 785.872 0.247271 -0.710184 0
M  V30 8363 H 787.843 0.134386 -2.98097 0
M  V30 8364 C 786.592 1.90853 -2.90638 0
M  V30 8365 H 785.915 1.53865 -3.69006 0
M  V30 8366 H 787.355 2.53568 -3.39822 0
M  V30 8367 C 785.814 2.76189 -1.92929 0
M  V30 8368 O 786.344 3.74842 -1.44416 0
M  V30 8369 N 784.55 2.42157 -1.6065 0
M  V30 8370 H 784.097 1.61987 -2.00294 0
M  V30 8371 H 784.055 2.99534 -0.955347 0
M  V30 8372 N 787.827 1.57504 0.0551401 0
M  V30 8373 C 788.737 2.08198 1.08124 0
M  V30 8374 C 789.753 1.01496 1.41331 0
M  V30 8375 O 790.929 1.33073 1.51174 0
M  V30 8376 C 787.994 2.52968 2.37083 0
M  V30 8377 C 787.055 3.7404 2.10696 0
M  V30 8378 C 786.288 4.16665 3.33505 0
M  V30 8379 O 786.511 3.59019 4.4324 0
M  V30 8380 O 785.445 5.09324 3.20737 0
M  V30 8381 H 789.271 2.95977 0.680518 0
M  V30 8382 H 786.856 1.46933 0.270401 0
M  V30 8383 H 788.738 2.82211 3.12946 0
M  V30 8384 H 787.413 1.6831 2.76502 0
M  V30 8385 H 786.32 3.49855 1.32484 0
M  V30 8386 H 787.653 4.59601 1.76148 0
M  V30 8387 N 789.305 -0.326896 1.54172 0
M  V30 8388 C 790.545 -1.07349 1.73941 0
M  V30 8389 C 790.909 -1.85355 0.50075 0
M  V30 8390 O 792.11 -2.62562 0.575731 0
M  V30 8391 C 790.381 -1.97636 2.97783 0
M  V30 8392 S 791.94 -2.79292 3.3844 0
M  V30 8393 H 788.758 -0.362459 0.611673 0
M  V30 8394 H 791.36 -0.349884 1.92344 0
M  V30 8395 H 790.064 -1.39158 3.86087 0
M  V30 8396 H 789.595 -2.74406 2.81895 0
M  V30 8397 H 791.61 -4.00106 2.93478 0
M  V30 8398 N 790.784 -1.46188 -0.588786 0
M  V30 8399 C 791.716 -1.52319 -1.71265 0
M  V30 8400 C 792.729 -0.412096 -1.57498 0
M  V30 8401 O 793.918 -0.680146 -1.65034 0
M  V30 8402 C 791.018 -1.38164 -3.09458 0
M  V30 8403 C 790.191 -2.63284 -3.49286 0
M  V30 8404 C 789.25 -2.43415 -4.66514 0
M  V30 8405 O 788.276 -3.17113 -4.72682 0
M  V30 8406 N 789.478 -1.49187 -5.61002 0
M  V30 8407 H 792.243 -2.49219 -1.66463 0
M  V30 8408 H 789.804 -1.42167 -0.774601 0
M  V30 8409 H 791.796 -1.22653 -3.85666 0
M  V30 8410 H 790.366 -0.494678 -3.08661 0
M  V30 8411 H 789.586 -2.93779 -2.62845 0
M  V30 8412 H 790.874 -3.46413 -3.7266 0
M  V30 8413 H 790.272 -0.884027 -5.5875 0
M  V30 8414 H 788.829 -1.39642 -6.36666 0
M  V30 8415 N 792.262 0.832906 -1.33792 0
M  V30 8416 C 793.225 1.92471 -1.24449 0
M  V30 8417 C 794.225 1.59981 -0.162085 0
M  V30 8418 O 795.415 1.69208 -0.414029 0
M  V30 8419 C 792.547 3.28278 -0.919044 0
M  V30 8420 H 793.74 2.0218 -2.21502 0
M  V30 8421 H 791.293 1.0257 -1.17936 0
M  V30 8422 H 792.028 3.24263 0.048738 0
M  V30 8423 H 791.813 3.53241 -1.70187 0
M  V30 8424 H 793.303 4.08253 -0.878576 0
M  V30 8425 N 793.74 1.17359 1.05189 0
M  V30 8426 C 794.688 0.886527 2.15043 0
M  V30 8427 C 795.682 -0.148834 1.68745 0
M  V30 8428 O 796.888 -0.00175123 1.8 0
M  V30 8429 H 793.263 0.269147 0.702185 0
M  V30 8430 H 795.234 1.82016 2.36459 0
M  V30 8431 C 793.983 0.416333 3.45198 0
M  V30 8432 H 793.306 1.20449 3.81225 0
M  V30 8433 H 794.746 0.254362 4.23236 0
M  V30 8434 C 793.205 -0.866016 3.25579 0
M  V30 8435 O 793.735 -1.9328 3.52144 0
M  V30 8436 N 791.941 -0.814179 2.78961 0
M  V30 8437 H 791.488 0.0541618 2.57543 0
M  V30 8438 H 791.446 -1.67264 2.66214 0
M  V30 8439 N 795.218 -1.23913 0.973828 0
M  V30 8440 C 796.465 -1.92151 0.639079 0
M  V30 8441 C 796.793 -1.76064 -0.826545 0
M  V30 8442 O 796.048 -1.11126 -1.61088 0
M  V30 8443 C 796.347 -3.4406 0.967356 0
M  V30 8444 C 796.013 -3.80321 2.42212 0
M  V30 8445 C 794.675 -3.8993 2.81971 0
M  V30 8446 C 797.027 -3.97935 3.36596 0
M  V30 8447 C 794.355 -4.14575 4.15144 0
M  V30 8448 C 796.707 -4.24079 4.69404 0
M  V30 8449 C 795.371 -4.31908 5.08932 0
M  V30 8450 H 794.641 -0.70313 0.233856 0
M  V30 8451 H 797.288 -1.47072 1.22646 0
M  V30 8452 H 795.593 -3.90667 0.297807 0
M  V30 8453 H 797.29 -3.95077 0.686654 0
M  V30 8454 H 793.88 -3.73411 2.10385 0
M  V30 8455 H 798.064 -3.89908 3.07059 0
M  V30 8456 H 793.32 -4.18858 4.45385 0
M  V30 8457 H 797.494 -4.36652 5.42502 0
M  V30 8458 H 795.121 -4.50758 6.12145 0
M  V30 8459 N 796.696 -0.74468 -1.38897 0
M  V30 8460 C 797.945 -0.293716 -1.9955 0
M  V30 8461 C 798.258 1.12831 -1.59777 0
M  V30 8462 O 799.464 1.67929 -2.13336 0
M  V30 8463 C 797.92 -0.474188 -3.56762 0
M  V30 8464 C 797.528 -1.90472 -4.05493 0
M  V30 8465 C 799.272 -0.0854875 -4.24414 0
M  V30 8466 C 797.179 -2.03423 -5.55314 0
M  V30 8467 H 796.109 -0.106066 -0.746502 0
M  V30 8468 H 798.76 -0.919948 -1.58774 0
M  V30 8469 H 797.142 0.221092 -3.95382 0
M  V30 8470 H 798.316 -2.63274 -3.78184 0
M  V30 8471 H 796.631 -2.24752 -3.50536 0
M  V30 8472 H 799.228 -0.161133 -5.34457 0
M  V30 8473 H 799.571 0.96066 -4.05064 0
M  V30 8474 H 800.104 -0.732286 -3.91002 0
M  V30 8475 H 796.843 -3.0626 -5.79556 0
M  V30 8476 H 796.363 -1.3507 -5.84394 0
M  V30 8477 H 798.042 -1.81996 -6.20876 0
M  V30 8478 N 798.174 1.49689 -0.493057 0
M  V30 8479 C 799.399 2.07331 0.0535114 0
M  V30 8480 C 799.824 1.35196 1.30781 0
M  V30 8481 O 799.182 0.406246 1.7669 0
M  V30 8482 C 799.23 3.59364 0.29825 0
M  V30 8483 O 798.334 3.88819 1.37454 0
M  V30 8484 H 797.675 0.663612 -0.0227018 0
M  V30 8485 H 800.205 1.926 -0.690402 0
M  V30 8486 H 800.215 4.04515 0.532159 0
M  V30 8487 H 798.89 4.1128 -0.618207 0
M  V30 8488 H 797.467 3.55487 1.12621 0
M  V30 8489 N 799.652 0.226554 1.55963 0
M  V30 8490 C 800.901 -0.40417 1.97609 0
M  V30 8491 C 801.214 -1.60541 1.1174 0
M  V30 8492 O 802.42 -2.30598 1.43307 0
M  V30 8493 C 800.876 -0.770466 3.51556 0
M  V30 8494 C 800.484 0.408244 4.46136 0
M  V30 8495 C 802.228 -1.36651 4.01904 0
M  V30 8496 C 800.135 0.0192347 5.91397 0
M  V30 8497 H 799.065 -0.15478 0.737943 0
M  V30 8498 H 801.716 0.323558 1.80625 0
M  V30 8499 H 800.098 -1.55575 3.6416 0
M  V30 8500 H 801.272 1.18575 4.45283 0
M  V30 8501 H 799.587 0.917859 4.06158 0
M  V30 8502 H 802.184 -1.67055 5.07934 0
M  V30 8503 H 802.527 -2.28403 3.48049 0
M  V30 8504 H 803.06 -0.644556 3.92543 0
M  V30 8505 H 799.799 0.90336 6.49245 0
M  V30 8506 H 799.319 -0.722485 5.95433 0
M  V30 8507 H 800.998 -0.405711 6.45727 0
M  V30 8508 N 801.13 -1.57531 -0.0467866 0
M  V30 8509 C 802.077 -2.05387 -1.05285 0
M  V30 8510 C 803.047 -0.939385 -1.36985 0
M  V30 8511 O 804.232 -1.20877 -1.47626 0
M  V30 8512 C 801.372 -2.52343 -2.35408 0
M  V30 8513 C 800.485 -3.77512 -2.10022 0
M  V30 8514 C 799.62 -4.1315 -3.33887 0
M  V30 8515 C 798.659 -5.31286 -3.03976 0
M  V30 8516 N 797.796 -5.62441 -4.20243 0
M  V30 8517 H 802.636 -2.91095 -0.637788 0
M  V30 8518 H 800.173 -1.43939 -0.303322 0
M  V30 8519 H 802.131 -2.77628 -3.11413 0
M  V30 8520 H 800.761 -1.69577 -2.7467 0
M  V30 8521 H 799.813 -3.59417 -1.24594 0
M  V30 8522 H 801.125 -4.63644 -1.83945 0
M  V30 8523 H 800.279 -4.39469 -4.18273 0
M  V30 8524 H 799.018 -3.25634 -3.63062 0
M  V30 8525 H 798.023 -5.04738 -2.17991 0
M  V30 8526 H 799.248 -6.20441 -2.76098 0
M  V30 8527 H 797.194 -4.77885 -4.49402 0
M  V30 8528 H 797.111 -6.43046 -3.97528 0
M  V30 8529 H 798.379 -5.93327 -5.05553 0
M  V30 8530 N 802.608 0.318715 -1.54344 0
M  V30 8531 C 803.856 1.054 -1.72439 0
M  V30 8532 C 804.177 1.88388 -0.503495 0
M  V30 8533 O 803.447 1.89866 0.48246 0
M  V30 8534 H 802.027 0.392124 -0.635805 0
M  V30 8535 H 804.689 0.35398 -1.91659 0
M  V30 8536 H 803.785 1.71726 -2.60608 0
M  V30 8537 N 804.086 1.46499 0.581025 0
M  V30 8538 C 805.497 1.4604 1.16315 0
M  V30 8539 C 805.848 0.202154 1.95156 0
M  V30 8540 O 804.973 -0.694638 2.04948 0
M  V30 8541 C 805.568 2.64593 2.11604 0
M  V30 8542 C 804.127 2.6717 2.65136 0
M  V30 8543 C 803.274 2.38753 1.4104 0
M  V30 8544 H 806.225 1.54354 0.368871 0
M  V30 8545 H 806.246 2.40207 2.95095 0
M  V30 8546 H 805.758 3.56154 1.54194 0
M  V30 8547 H 803.859 1.79685 3.26411 0
M  V30 8548 H 803.972 3.67182 3.07757 0
M  V30 8549 H 802.336 1.88845 1.70908 0
M  V30 8550 H 803.119 3.32493 0.854588 0
M  V30 8551 N 805.565 -0.825799 1.34232 0
M  V30 8552 C 806.475 -1.9684 1.27638 0
M  V30 8553 C 807.491 -1.73018 0.184569 0
M  V30 8554 O 808.667 -1.97172 0.410525 0
M  V30 8555 C 805.732 -3.31084 1.02879 0
M  V30 8556 C 804.793 -3.67933 2.21188 0
M  V30 8557 C 804.026 -4.95772 1.976 0
M  V30 8558 O 804.249 -5.62721 0.93281 0
M  V30 8559 O 803.183 -5.30431 2.84477 0
M  V30 8560 H 807.009 -2.05346 2.23756 0
M  V30 8561 H 804.594 -0.960772 1.1441 0
M  V30 8562 H 806.476 -4.11492 0.908406 0
M  V30 8563 H 805.151 -3.23552 0.0979821 0
M  V30 8564 H 804.058 -2.87981 2.38784 0
M  V30 8565 H 805.391 -3.80147 3.12648 0
M  V30 8566 N 807.043 -1.17915 -1.04565 0
M  V30 8567 C 807.973 -0.925033 -2.14395 0
M  V30 8568 C 808.954 0.135375 -1.6956 0
M  V30 8569 O 810.139 -0.0161774 -1.94193 0
M  V30 8570 C 807.269 -0.444469 -3.44444 0
M  V30 8571 C 806.223 -1.44478 -4.02877 0
M  V30 8572 C 805.549 -0.821933 -5.28345 0
M  V30 8573 C 806.849 -2.81995 -4.39632 0
M  V30 8574 H 808.543 -1.84354 -2.35911 0
M  V30 8575 H 806.089 -0.887806 -1.13375 0
M  V30 8576 H 808.042 -0.254078 -4.20633 0
M  V30 8577 H 806.766 0.509592 -3.226 0
M  V30 8578 H 805.425 -1.62203 -3.28764 0
M  V30 8579 H 805.073 0.139161 -5.02807 0
M  V30 8580 H 804.773 -1.48976 -5.68401 0
M  V30 8581 H 806.297 -0.641959 -6.07216 0
M  V30 8582 H 807.711 -2.67952 -5.06828 0
M  V30 8583 H 806.108 -3.45414 -4.90723 0
M  V30 8584 H 807.178 -3.35927 -3.49687 0
M  V30 8585 N 808.521 1.23394 -0.980386 0
M  V30 8586 C 809.451 2.2717 -0.540024 0
M  V30 8587 C 810.432 1.64659 0.426787 0
M  V30 8588 O 811.617 1.91543 0.320153 0
M  V30 8589 C 808.747 3.46939 0.15836 0
M  V30 8590 C 807.701 4.21802 -0.725732 0
M  V30 8591 C 807.027 5.34597 0.104866 0
M  V30 8592 C 808.327 4.81802 -2.01654 0
M  V30 8593 H 810.021 2.64257 -1.40743 0
M  V30 8594 H 807.567 1.2703 -0.678193 0
M  V30 8595 H 809.52 4.18683 0.477737 0
M  V30 8596 H 808.244 3.08912 1.06022 0
M  V30 8597 H 806.903 3.51875 -1.02857 0
M  V30 8598 H 806.551 4.92812 1.00726 0
M  V30 8599 H 806.251 5.85607 -0.483557 0
M  V30 8600 H 807.775 6.09163 0.418624 0
M  V30 8601 H 809.189 5.45554 -1.76193 0
M  V30 8602 H 807.586 5.43098 -2.55273 0
M  V30 8603 H 808.656 4.02549 -2.70338 0
M  V30 8604 N 809.999 0.752036 1.385 0
M  V30 8605 C 811.227 0.318274 2.04437 0
M  V30 8606 C 811.642 -1.05285 1.56718 0
M  V30 8607 O 810.999 -1.66844 0.73956 0
M  V30 8608 C 811.05 0.330106 3.5999 0
M  V30 8609 O 810.771 1.64712 4.05957 0
M  V30 8610 C 812.272 -0.117713 4.43144 0
M  V30 8611 H 809.492 0.136228 0.657026 0
M  V30 8612 H 812.036 1.02045 1.7722 0
M  V30 8613 H 810.191 -0.323323 3.86048 0
M  V30 8614 H 810.605 1.57225 5.0038 0
M  V30 8615 H 812.079 -0.0582735 5.51969 0
M  V30 8616 H 812.556 -1.16538 4.23457 0
M  V30 8617 H 813.162 0.506784 4.2227 0
M  V30 8618 N 811.477 -1.49425 0.500989 0
M  V30 8619 C 812.41 -2.25887 -0.324087 0
M  V30 8620 C 813.388 -1.30469 -0.970388 0
M  V30 8621 O 814.572 -1.59758 -1.00049 0
M  V30 8622 C 811.699 -3.05787 -1.45643 0
M  V30 8623 C 810.745 -4.16359 -0.924508 0
M  V30 8624 S 811.578 -5.35181 0.184707 0
M  V30 8625 C 812.734 -6.18636 -0.950806 0
M  V30 8626 H 812.967 -2.95519 0.324891 0
M  V30 8627 H 810.5 -1.51723 0.286289 0
M  V30 8628 H 812.458 -3.52405 -2.10525 0
M  V30 8629 H 811.119 -2.35624 -2.07703 0
M  V30 8630 H 810.312 -4.71781 -1.77311 0
M  V30 8631 H 809.914 -3.72331 -0.352907 0
M  V30 8632 H 812.206 -6.51581 -1.85603 0
M  V30 8633 H 813.149 -7.06761 -0.435212 0
M  V30 8634 H 813.557 -5.512 -1.21813 0
M  V30 8635 N 812.955 -0.234822 -1.55841 0
M  V30 8636 C 814.201 0.387023 -1.99684 0
M  V30 8637 C 814.556 1.56439 -1.12003 0
M  V30 8638 O 813.849 1.90818 -0.172879 0
M  V30 8639 C 814.043 0.858032 -3.46947 0
M  V30 8640 C 813.872 -0.272152 -4.48876 0
M  V30 8641 C 812.642 -0.742896 -4.99809 0
M  V30 8642 C 814.84 -1.09501 -5.02508 0
M  V30 8643 N 812.822 -1.84675 -5.85464 0
M  V30 8644 C 814.193 -2.04748 -5.85217 0
M  V30 8645 C 816.248 -1.13295 -4.84839 0
M  V30 8646 C 814.951 -3.03483 -6.52143 0
M  V30 8647 C 816.977 -2.10854 -5.52535 0
M  V30 8648 C 816.339 -3.04838 -6.35022 0
M  V30 8649 H 812.438 0.107918 -0.774518 0
M  V30 8650 H 815.022 -0.349635 -1.91535 0
M  V30 8651 H 813.193 1.56401 -3.55518 0
M  V30 8652 H 814.925 1.45381 -3.77686 0
M  V30 8653 H 811.68 -0.32915 -4.72455 0
M  V30 8654 H 812.104 -2.40108 -6.32991 0
M  V30 8655 H 816.746 -0.420226 -4.20706 0
M  V30 8656 H 814.464 -3.7571 -7.15449 0
M  V30 8657 H 818.05 -2.1448 -5.40823 0
M  V30 8658 H 816.93 -3.79097 -6.8648 0
M  V30 8659 N 814.433 1.57553 0.0384317 0
M  V30 8660 C 815.68 1.88841 0.731116 0
M  V30 8661 C 816.008 0.83093 1.75857 0
M  V30 8662 O 815.263 -0.169248 1.94967 0
M  V30 8663 C 815.562 3.26862 1.44554 0
M  V30 8664 C 815.228 4.47472 0.554946 0
M  V30 8665 C 813.89 4.80203 0.309621 0
M  V30 8666 C 816.242 5.21165 -0.0605204 0
M  V30 8667 C 813.57 5.8402 -0.560101 0
M  V30 8668 C 815.922 6.25905 -0.91789 0
M  V30 8669 C 814.586 6.57117 -1.17277 0
M  V30 8670 H 813.856 0.691018 0.267534 0
M  V30 8671 H 816.503 1.91498 -0.00883195 0
M  V30 8672 H 814.808 3.2015 2.25856 0
M  V30 8673 H 816.505 3.48316 1.98688 0
M  V30 8674 H 813.095 4.21874 0.756304 0
M  V30 8675 H 817.279 4.96164 0.116064 0
M  V30 8676 H 812.535 6.06583 -0.765974 0
M  V30 8677 H 816.709 6.82155 -1.40136 0
M  V30 8678 H 814.336 7.37385 -1.84843 0
M  V30 8679 N 815.911 -0.310526 1.54511 0
M  V30 8680 C 817.159 -1.04484 1.72996 0
M  V30 8681 C 817.48 -1.88118 0.513479 0
M  V30 8682 O 816.75 -1.90119 -0.472384 0
M  V30 8683 H 815.33 -0.388747 0.637875 0
M  V30 8684 H 817.992 -0.343811 1.91844 0
M  V30 8685 H 817.088 -1.70341 2.61515 0
M  V30 8686 N 817.389 -1.46805 -0.573248 0
M  V30 8687 C 818.299 -1.60687 -1.70929 0
M  V30 8688 C 819.315 -0.490084 -1.66956 0
M  V30 8689 O 820.491 -0.755482 -1.86693 0
M  V30 8690 C 817.556 -1.60259 -3.07438 0
M  V30 8691 C 816.617 -2.83242 -3.22603 0
M  V30 8692 C 815.85 -2.82825 -4.52599 0
M  V30 8693 O 816.073 -1.92113 -5.37074 0
M  V30 8694 O 815.007 -3.74489 -4.71213 0
M  V30 8695 H 818.833 -2.56782 -1.62163 0
M  V30 8696 H 816.418 -1.29706 -0.741399 0
M  V30 8697 H 818.3 -1.6275 -3.88704 0
M  V30 8698 H 816.975 -0.673268 -3.16621 0
M  V30 8699 H 815.882 -2.86302 -2.40794 0
M  V30 8700 H 817.215 -3.75415 -3.18315 0
M  V30 8701 N 818.867 0.818669 -1.34668 0
M  V30 8702 C 820.092 1.61193 -1.30505 0
M  V30 8703 C 820.517 1.87734 0.117341 0
M  V30 8704 O 819.875 1.45591 1.08042 0
M  V30 8705 C 819.923 2.92733 -2.1057 0
M  V30 8706 O 819.027 3.85 -1.47813 0
M  V30 8707 H 818.368 0.490085 -0.44801 0
M  V30 8708 H 820.898 1.01701 -1.77534 0
M  V30 8709 H 820.908 3.42262 -2.22082 0
M  V30 8710 H 819.583 2.7274 -3.13984 0
M  V30 8711 H 818.16 3.43525 -1.45069 0
M  V30 8712 N 820.346 1.18468 1.03938 0
M  V30 8713 C 821.256 0.927889 2.1547 0
M  V30 8714 C 822.272 -0.108447 1.73662 0
M  V30 8715 O 823.448 0.0737636 2.01265 0
M  V30 8716 C 820.513 0.458494 3.43655 0
M  V30 8717 C 819.574 1.56295 3.99838 0
M  V30 8718 C 818.807 1.11586 5.21904 0
M  V30 8719 O 819.03 -0.0249057 5.70395 0
M  V30 8720 O 817.964 1.91412 5.70653 0
M  V30 8721 H 821.79 1.86116 2.39989 0
M  V30 8722 H 819.375 0.966607 1.13917 0
M  V30 8723 H 821.257 0.204861 4.20902 0
M  V30 8724 H 819.932 -0.446464 3.20606 0
M  V30 8725 H 818.839 1.87061 3.23974 0
M  V30 8726 H 820.172 2.44408 4.2723 0
M  V30 8727 N 821.824 -1.22873 0.986916 0
M  V30 8728 C 822.787 -2.2281 0.537442 0
M  V30 8729 C 823.787 -1.56331 -0.37646 0
M  V30 8730 O 824.977 -1.73376 -0.169247 0
M  V30 8731 C 822.109 -3.40195 -0.219082 0
M  V30 8732 H 823.302 -2.64089 1.42116 0
M  V30 8733 H 820.855 -1.35819 0.773488 0
M  V30 8734 H 821.59 -3.04381 -1.11905 0
M  V30 8735 H 821.375 -3.89657 0.437026 0
M  V30 8736 H 822.865 -4.14326 -0.521926 0
M  V30 8737 N 823.302 -0.75937 -1.38099 0
M  V30 8738 C 824.25 -0.124954 -2.32264 0
M  V30 8739 C 825.244 0.698863 -1.54312 0
M  V30 8740 O 826.45 0.597312 -1.698 0
M  V30 8741 H 822.825 -0.0216142 -0.751689 0
M  V30 8742 H 824.796 -0.935115 -2.83369 0
M  V30 8743 C 823.545 0.749463 -3.39527 0
M  V30 8744 H 822.868 0.124932 -3.99605 0
M  V30 8745 H 824.308 1.16055 -4.07808 0
M  V30 8746 C 822.767 1.89464 -2.78577 0
M  V30 8747 O 823.297 2.98923 -2.68343 0
M  V30 8748 N 821.503 1.69145 -2.36301 0
M  V30 8749 H 821.05 0.801157 -2.44825 0
M  V30 8750 H 821.008 2.45936 -1.95864 0
M  V30 8751 N 824.78 1.49157 -0.508906 0
M  V30 8752 C 826.026 2.02773 0.0328469 0
M  V30 8753 C 826.359 1.38714 1.35912 0
M  V30 8754 O 825.634 0.525536 1.87266 0
M  V30 8755 C 825.917 3.59664 0.177088 0
M  V30 8756 C 825.77 4.34239 -1.17287 0
M  V30 8757 C 827.089 4.30505 0.913977 0
M  V30 8758 H 824.208 0.736926 0.0104631 0
M  V30 8759 H 826.85 1.781 -0.661851 0
M  V30 8760 H 825 3.80818 0.768774 0
M  V30 8761 H 826.672 4.24561 -1.80404 0
M  V30 8762 H 824.915 3.96486 -1.76016 0
M  V30 8763 H 825.586 5.42397 -1.02516 0
M  V30 8764 H 828.062 4.14054 0.412084 0
M  V30 8765 H 826.938 5.40012 0.983759 0
M  V30 8766 H 827.199 3.96302 1.95951 0
M  V30 8767 N 826.258 0.243083 1.55714 0
M  V30 8768 C 827.674 -0.111853 1.59208 0
M  V30 8769 C 827.874 -1.5723 1.2602 0
M  V30 8770 O 826.93 -2.31608 1.00569 0
M  V30 8771 C 828.243 0.233885 2.99789 0
M  V30 8772 C 829.791 0.177873 3.12494 0
M  V30 8773 C 830.266 0.49759 4.55289 0
M  V30 8774 N 831.757 0.447949 4.61029 0
M  V30 8775 C 832.492 0.668545 5.69489 0
M  V30 8776 N 831.988 0.952064 6.86227 0
M  V30 8777 N 833.781 0.599512 5.58894 0
M  V30 8778 H 825.932 1.19554 1.75558 0
M  V30 8779 H 828.195 0.480765 0.817049 0
M  V30 8780 H 827.901 1.24835 3.28799 0
M  V30 8781 H 827.775 -0.440846 3.74615 0
M  V30 8782 H 830.162 -0.827263 2.83267 0
M  V30 8783 H 830.243 0.886399 2.39951 0
M  V30 8784 H 829.887 1.50026 4.85237 0
M  V30 8785 H 829.817 -0.232371 5.26087 0
M  V30 8786 H 832.308 0.237388 3.77154 0
M  V30 8787 H 832.621 1.10791 7.64817 0
M  V30 8788 H 830.966 0.989496 6.8792 0
M  V30 8789 H 834.157 0.378088 4.66571 0
M  V30 8790 H 834.33 0.774828 6.43351 0
M  V30 8791 N 827.736 -1.57571 -0.0300757 0
M  V30 8792 C 828.646 -2.09892 -1.04798 0
M  V30 8793 C 829.662 -1.03732 -1.39698 0
M  V30 8794 O 830.838 -1.35461 -1.49038 0
M  V30 8795 C 827.903 -2.56707 -2.33028 0
M  V30 8796 C 826.964 -3.77345 -2.04718 0
M  V30 8797 C 826.197 -4.21918 -3.26834 0
M  V30 8798 O 826.42 -3.66025 -4.37472 0
M  V30 8799 O 825.354 -5.14362 -3.12594 0
M  V30 8800 H 829.18 -2.97023 -0.633344 0
M  V30 8801 H 826.765 -1.47344 -0.246991 0
M  V30 8802 H 828.647 -2.87154 -3.08417 0
M  V30 8803 H 827.322 -1.72688 -2.73789 0
M  V30 8804 H 826.229 -3.51919 -1.26901 0
M  V30 8805 H 827.562 -4.62345 -1.68813 0
M  V30 8806 N 829.214 0.302327 -1.54673 0
M  V30 8807 C 830.463 1.03533 -1.73101 0
M  V30 8808 C 830.776 1.88473 -0.523174 0
M  V30 8809 O 831.982 2.65029 -0.589229 0
M  V30 8810 C 830.438 1.89043 -3.06252 0
M  V30 8811 C 830.046 1.09112 -4.3451 0
M  V30 8812 C 831.79 2.61951 -3.34039 0
M  V30 8813 C 829.697 1.93891 -5.58713 0
M  V30 8814 H 828.627 0.390261 -0.645145 0
M  V30 8815 H 831.278 0.2924 -1.81155 0
M  V30 8816 H 829.66 2.67319 -2.92159 0
M  V30 8817 H 830.834 0.354596 -4.59434 0
M  V30 8818 H 829.149 0.477923 -4.13648 0
M  V30 8819 H 831.746 3.25729 -4.24033 0
M  V30 8820 H 832.089 3.30711 -2.52855 0
M  V30 8821 H 832.622 1.90725 -3.49097 0
M  V30 8822 H 829.361 1.29604 -6.4256 0
M  V30 8823 H 828.881 2.6522 -5.37976 0
M  V30 8824 H 830.56 2.51971 -5.95919 0
M  V30 8825 N 830.692 1.47107 0.565454 0
M  V30 8826 C 831.939 1.53308 1.32299 0
M  V30 8827 C 832.267 0.1919 1.93551 0
M  V30 8828 O 831.522 -0.81435 1.77952 0
M  V30 8829 C 831.821 2.59309 2.45954 0
M  V30 8830 C 831.487 4.02827 2.02586 0
M  V30 8831 C 830.149 4.41897 1.90474 0
M  V30 8832 C 832.501 4.92913 1.6937 0
M  V30 8833 C 829.829 5.68898 1.4343 0
M  V30 8834 C 832.181 6.20368 1.238 0
M  V30 8835 C 830.845 6.58327 1.10278 0
M  V30 8836 H 830.115 0.560993 0.484116 0
M  V30 8837 H 832.762 1.80667 0.634965 0
M  V30 8838 H 831.067 2.25676 3.20277 0
M  V30 8839 H 832.764 2.61332 3.04149 0
M  V30 8840 H 829.354 3.71953 2.12952 0
M  V30 8841 H 833.538 4.63433 1.77605 0
M  V30 8842 H 828.794 5.97065 1.31618 0
M  V30 8843 H 832.968 6.89589 0.971586 0
M  V30 8844 H 830.595 7.56628 0.736027 0
M  V30 8845 N 832.17 -0.811516 1.35101 0
M  V30 8846 C 833.447 -1.55491 1.18667 0
M  V30 8847 C 833.827 -2.09775 -0.236189 0
M  V30 8848 O 833.175 -1.91989 -1.23905 0
M  V30 8849 C 833.385 -2.66732 2.25067 0
M  V30 8850 C 834.733 -3.35201 2.60625 0
M  V30 8851 O 835.757 -2.76998 2.23943 0
M  V30 8852 O 834.616 -4.40334 3.23679 0
M  V30 8853 H 831.71 -0.686783 0.460716 0
M  V30 8854 H 834.256 -0.851903 1.46768 0
M  V30 8855 H 833.028 -2.24457 3.20523 0
M  V30 8856 H 832.651 -3.44673 1.98208 0
M  V30 8857 N 833.648 -1.19017 -1.03309 0
M  V30 8858 C 834.595 -0.924088 -2.11493 0
M  V30 8859 C 835.565 0.139464 -1.65513 0
M  V30 8860 O 836.75 -0.00178761 -1.908 0
M  V30 8861 C 833.89 -0.464255 -3.41963 0
M  V30 8862 C 833.003 -1.5941 -4.01513 0
M  V30 8863 C 832.138 -1.08622 -5.19976 0
M  V30 8864 C 831.177 -2.19024 -5.71572 0
M  V30 8865 N 830.314 -1.69575 -6.81314 0
M  V30 8866 H 835.154 -1.85039 -2.33591 0
M  V30 8867 H 832.691 -0.922593 -1.14572 0
M  V30 8868 H 834.649 -0.179078 -4.16815 0
M  V30 8869 H 833.279 0.425062 -3.19989 0
M  V30 8870 H 832.331 -1.99458 -3.23915 0
M  V30 8871 H 833.643 -2.42604 -4.35826 0
M  V30 8872 H 832.797 -0.756022 -6.01971 0
M  V30 8873 H 831.536 -0.223955 -4.87186 0
M  V30 8874 H 830.541 -2.5288 -4.88193 0
M  V30 8875 H 831.766 -3.05699 -6.06403 0
M  V30 8876 H 829.712 -0.856494 -6.50385 0
M  V30 8877 H 829.629 -2.46361 -7.14732 0
M  V30 8878 H 830.897 -1.39505 -7.66915 0
M  V30 8879 N 835.127 1.22348 -0.993418 0
M  V30 8880 C 836.09 2.22522 -0.549251 0
M  V30 8881 C 837.09 1.56529 0.368164 0
M  V30 8882 O 838.28 1.73463 0.16005 0
M  V30 8883 C 835.412 3.40307 0.201037 0
M  V30 8884 H 836.605 2.63332 -1.43515 0
M  V30 8885 H 834.158 1.35407 -0.78068 0
M  V30 8886 H 834.893 3.0497 1.10289 0
M  V30 8887 H 834.678 3.8942 -0.457685 0
M  V30 8888 H 836.168 4.14597 0.499946 0
M  V30 8889 N 836.605 0.766683 1.37694 0
M  V30 8890 C 838.021 0.445739 1.53249 0
M  V30 8891 C 838.221 -1.03935 1.72626 0
M  V30 8892 O 837.277 -1.82525 1.74473 0
M  V30 8893 C 838.59 1.2564 2.73194 0
M  V30 8894 C 840.138 1.24779 2.87053 0
M  V30 8895 C 840.613 2.04169 4.09974 0
M  V30 8896 N 842.104 2.01497 4.17077 0
M  V30 8897 C 842.839 2.5971 5.11212 0
M  V30 8898 N 842.335 3.26691 6.10938 0
M  V30 8899 N 844.128 2.49568 5.03659 0
M  V30 8900 H 836.279 1.72899 1.23368 0
M  V30 8901 H 838.542 0.733701 0.600322 0
M  V30 8902 H 838.248 2.30859 2.65324 0
M  V30 8903 H 838.122 0.882133 3.6674 0
M  V30 8904 H 840.509 0.203603 2.94397 0
M  V30 8905 H 840.59 1.66166 1.9448 0
M  V30 8906 H 840.234 3.08606 4.03392 0
M  V30 8907 H 840.164 1.60167 5.01651 0
M  V30 8908 H 842.655 1.52728 3.45662 0
M  V30 8909 H 842.968 3.68497 6.79286 0
M  V30 8910 H 841.313 3.30789 6.11231 0
M  V30 8911 H 844.504 1.96859 4.24693 0
M  V30 8912 H 844.677 2.95231 5.76839 0
M  V30 8913 N 838.083 -1.48885 0.516809 0
M  V30 8914 C 839.015 -2.27357 -0.290061 0
M  V30 8915 C 840.028 -1.34558 -0.916406 0
M  V30 8916 O 841.217 -1.59715 -0.797073 0
M  V30 8917 C 838.317 -3.07496 -1.42476 0
M  V30 8918 C 837.49 -4.27982 -0.902793 0
M  V30 8919 C 836.549 -4.90038 -1.91701 0
M  V30 8920 O 835.575 -5.49643 -1.47922 0
M  V30 8921 N 836.777 -4.811 -3.24843 0
M  V30 8922 H 839.542 -2.97244 0.382884 0
M  V30 8923 H 837.103 -1.58064 0.35032 0
M  V30 8924 H 839.095 -3.45882 -2.10113 0
M  V30 8925 H 837.665 -2.40115 -2.00159 0
M  V30 8926 H 836.885 -3.94167 -0.0508272 0
M  V30 8927 H 838.173 -5.06003 -0.532723 0
M  V30 8928 H 837.571 -4.33801 -3.63088 0
M  V30 8929 H 836.128 -5.23625 -3.8815 0
M  V30 8930 N 839.561 -0.251338 -1.55583 0
M  V30 8931 C 840.524 0.63305 -2.20284 0
M  V30 8932 C 841.524 1.09941 -1.17344 0
M  V30 8933 O 842.714 1.00341 -1.42399 0
M  V30 8934 C 839.846 1.8706 -2.84993 0
M  V30 8935 H 841.039 0.0684846 -2.99822 0
M  V30 8936 H 838.592 -0.00181653 -1.563 0
M  V30 8937 H 839.327 2.47629 -2.09405 0
M  V30 8938 H 839.112 1.54436 -3.60405 0
M  V30 8939 H 840.602 2.50004 -3.34496 0
M  V30 8940 N 841.039 1.57585 0.0217189 0
M  V30 8941 C 842.002 2.06004 1.00474 0
M  V30 8942 C 843.002 0.965461 1.2859 0
M  V30 8943 O 844.192 1.22884 1.23471 0
M  V30 8944 C 841.324 2.48319 2.33561 0
M  V30 8945 H 842.517 2.94112 0.586346 0
M  V30 8946 H 840.07 1.53973 0.268716 0
M  V30 8947 H 840.805 1.63389 2.80133 0
M  V30 8948 H 840.59 3.28239 2.1448 0
M  V30 8949 H 842.08 2.86181 3.04122 0
M  V30 8950 N 842.517 -0.29412 1.54831 0
M  V30 8951 C 843.928 -0.866651 1.65366 0
M  V30 8952 C 844.279 -1.87834 0.56681 0
M  V30 8953 O 843.404 -2.14374 -0.295389 0
M  V30 8954 C 843.999 -1.57869 2.99771 0
M  V30 8955 C 842.558 -2.09954 3.12404 0
M  V30 8956 C 841.705 -0.934492 2.6108 0
M  V30 8957 H 844.656 -0.0709551 1.58541 0
M  V30 8958 H 844.677 -2.44462 2.91579 0
M  V30 8959 H 844.189 -0.84212 3.78853 0
M  V30 8960 H 842.29 -2.86637 2.38055 0
M  V30 8961 H 842.403 -2.32934 4.18663 0
M  V30 8962 H 840.767 -1.32199 2.17705 0
M  V30 8963 H 841.55 -0.211768 3.42646 0
M  V30 8964 N 843.995 -1.47404 -0.557645 0
M  V30 8965 C 845.235 -1.55585 -1.32562 0
M  V30 8966 C 845.599 -0.212926 -1.90816 0
M  V30 8967 O 846.8 -0.169574 -2.68265 0
M  V30 8968 C 845.071 -2.64249 -2.40639 0
M  V30 8969 S 846.63 -2.9201 -3.2753 0
M  V30 8970 H 843.448 -0.549409 -0.451298 0
M  V30 8971 H 846.05 -1.84782 -0.638438 0
M  V30 8972 H 844.754 -3.60421 -1.96277 0
M  V30 8973 H 844.285 -2.36866 -3.14099 0
M  V30 8974 H 846.3 -2.29191 -4.40098 0
M  V30 8975 N 845.473 0.80434 -1.35529 0
M  V30 8976 C 846.719 1.56385 -1.29118 0
M  V30 8977 C 847.052 1.9374 0.133536 0
M  V30 8978 O 846.327 1.6153 1.08344 0
M  V30 8979 C 846.61 2.85097 -2.19981 0
M  V30 8980 C 846.463 2.54204 -3.7108 0
M  V30 8981 C 847.782 3.86817 -2.09907 0
M  V30 8982 H 844.901 0.567382 -0.470368 0
M  V30 8983 H 847.543 0.925235 -1.6595 0
M  V30 8984 H 845.693 3.39594 -1.88701 0
M  V30 8985 H 847.365 2.05872 -4.12813 0
M  V30 8986 H 845.608 1.87364 -3.91251 0
M  V30 8987 H 846.279 3.46068 -4.30048 0
M  V30 8988 H 848.755 3.41725 -2.37409 0
M  V30 8989 H 847.631 4.7465 -2.75678 0
M  V30 8990 H 847.892 4.28663 -1.08171 0
M  V30 8991 N 846.951 1.19563 1.02676 0
M  V30 8992 C 847.881 0.959024 2.12897 0
M  V30 8993 C 848.862 -0.108382 1.69754 0
M  V30 8994 O 850.047 0.0470698 1.94143 0
M  V30 8995 C 847.177 0.499211 3.43693 0
M  V30 8996 C 846.131 1.5087 4.00528 0
M  V30 8997 C 845.457 0.905884 5.2697 0
M  V30 8998 C 846.757 2.88954 4.3509 0
M  V30 8999 H 848.451 1.88084 2.32948 0
M  V30 9000 H 845.997 0.905731 1.11949 0
M  V30 9001 H 847.95 0.320965 4.20176 0
M  V30 9002 H 846.674 -0.458205 3.2337 0
M  V30 9003 H 845.333 1.67413 3.26142 0
M  V30 9004 H 844.981 -0.0591506 5.02965 0
M  V30 9005 H 844.681 1.58 5.65959 0
M  V30 9006 H 846.205 0.73848 6.06118 0
M  V30 9007 H 847.619 2.75981 5.02501 0
M  V30 9008 H 846.016 3.53177 4.85166 0
M  V30 9009 H 847.086 3.41447 3.44299 0
M  V30 9010 N 848.429 -1.21819 0.999893 0
M  V30 9011 C 849.676 -1.90752 0.679694 0
M  V30 9012 C 850.004 -1.77777 -0.789014 0
M  V30 9013 O 849.259 -1.14518 -1.58695 0
M  V30 9014 C 849.558 -3.4193 1.04012 0
M  V30 9015 C 849.224 -3.75098 2.50225 0
M  V30 9016 C 847.886 -3.83861 2.90179 0
M  V30 9017 C 850.238 -3.90706 3.44961 0
M  V30 9018 C 847.566 -4.05676 4.23844 0
M  V30 9019 C 849.918 -4.14027 4.78294 0
M  V30 9020 C 848.582 -4.21016 5.17979 0
M  V30 9021 H 847.852 -0.698012 0.248718 0
M  V30 9022 H 850.499 -1.44437 1.25738 0
M  V30 9023 H 848.804 -3.89947 0.380606 0
M  V30 9024 H 850.501 -3.93532 0.770301 0
M  V30 9025 H 847.091 -3.68865 2.18258 0
M  V30 9026 H 851.275 -3.83307 3.15261 0
M  V30 9027 H 846.531 -4.09316 4.5417 0
M  V30 9028 H 850.705 -4.25046 5.51642 0
M  V30 9029 H 848.332 -4.37672 6.21568 0
M  V30 9030 N 849.908 -0.773975 -1.37286 0
M  V30 9031 C 851.155 -0.339306 -1.99637 0
M  V30 9032 C 851.483 1.08478 -1.61439 0
M  V30 9033 O 850.738 1.7612 -0.853252 0
M  V30 9034 C 851.037 -0.432651 -3.54772 0
M  V30 9035 C 850.703 -1.81531 -4.12744 0
M  V30 9036 C 849.365 -2.19366 -4.2829 0
M  V30 9037 C 851.717 -2.72137 -4.44512 0
M  V30 9038 C 849.045 -3.47239 -4.72908 0
M  V30 9039 C 851.397 -3.99421 -4.90556 0
M  V30 9040 C 850.061 -4.37298 -5.04308 0
M  V30 9041 H 849.331 -0.124161 -0.730524 0
M  V30 9042 H 851.978 -0.988432 -1.64019 0
M  V30 9043 H 850.283 0.30001 -3.9065 0
M  V30 9044 H 851.98 -0.0776 -4.00925 0
M  V30 9045 H 848.57 -1.51126 -4.01072 0
M  V30 9046 H 852.754 -2.44165 -4.32084 0
M  V30 9047 H 848.01 -3.76477 -4.81742 0
M  V30 9048 H 852.184 -4.69756 -5.14104 0
M  V30 9049 H 849.811 -5.36442 -5.38641 0
M  V30 9050 N 851.386 1.48609 -0.524698 0
M  V30 9051 C 852.663 1.95454 0.075465 0
M  V30 9052 C 853.043 1.46682 1.51814 0
M  V30 9053 O 852.391 0.690975 2.17802 0
M  V30 9054 C 852.601 3.48981 -0.0363273 0
M  V30 9055 C 853.949 4.24414 0.125624 0
M  V30 9056 O 854.973 3.5618 0.0377239 0
M  V30 9057 O 853.832 5.45625 0.309104 0
M  V30 9058 H 850.926 0.822902 0.0822256 0
M  V30 9059 H 853.472 1.59153 -0.588921 0
M  V30 9060 H 852.244 3.77185 -1.04149 0
M  V30 9061 H 851.867 3.91963 0.667146 0
M  V30 9062 N 852.864 0.259585 1.55447 0
M  V30 9063 C 853.774 -0.645026 2.25558 0
M  V30 9064 C 854.79 -1.18291 1.27606 0
M  V30 9065 O 855.966 -1.21649 1.6051 0
M  V30 9066 C 853.031 -1.81964 2.9511 0
M  V30 9067 C 852.092 -1.31997 4.08504 0
M  V30 9068 C 851.325 -2.43861 4.74729 0
M  V30 9069 O 851.548 -3.62876 4.40088 0
M  V30 9070 O 850.482 -2.12898 5.6299 0
M  V30 9071 H 854.308 -0.0775399 3.03601 0
M  V30 9072 H 851.893 0.0275859 1.49375 0
M  V30 9073 H 853.775 -2.50485 3.38873 0
M  V30 9074 H 852.45 -2.37451 2.19997 0
M  V30 9075 H 851.357 -0.601676 3.6923 0
M  V30 9076 H 852.69 -0.811045 4.85472 0
M  V30 9077 N 854.342 -1.57594 -0.0133615 0
M  V30 9078 C 855.272 -2.10611 -1.00823 0
M  V30 9079 C 856.253 -1.01217 -1.36708 0
M  V30 9080 O 857.438 -1.28827 -1.45318 0
M  V30 9081 C 854.568 -2.59844 -2.30431 0
M  V30 9082 C 853.522 -3.73644 -2.08745 0
M  V30 9083 C 852.848 -4.09141 -3.4425 0
M  V30 9084 C 854.148 -5.01454 -1.46086 0
M  V30 9085 H 855.842 -2.93985 -0.566849 0
M  V30 9086 H 853.388 -1.41423 -0.271219 0
M  V30 9087 H 855.341 -2.95557 -3.00373 0
M  V30 9088 H 854.065 -1.73573 -2.76658 0
M  V30 9089 H 852.724 -3.38303 -1.41232 0
M  V30 9090 H 852.372 -3.19914 -3.88155 0
M  V30 9091 H 852.072 -4.85802 -3.3056 0
M  V30 9092 H 853.596 -4.47402 -4.15528 0
M  V30 9093 H 855.01 -5.35024 -2.05966 0
M  V30 9094 H 853.407 -5.82832 -1.42924 0
M  V30 9095 H 854.477 -4.83003 -0.428471 0
M  V30 9096 N 855.82 0.285905 -1.54985 0
M  V30 9097 C 857.097 1.0397 -1.65679 0
M  V30 9098 C 857.477 2.04725 -0.514851 0
M  V30 9099 O 856.825 2.23257 0.486663 0
M  V30 9100 C 857.035 1.70807 -3.04345 0
M  V30 9101 C 858.383 2.22447 -3.61666 0
M  V30 9102 O 859.407 1.80815 -3.06895 0
M  V30 9103 O 858.266 2.98773 -4.57599 0
M  V30 9104 H 855.36 0.481473 -0.672394 0
M  V30 9105 H 857.906 0.282789 -1.67327 0
M  V30 9106 H 856.678 0.977271 -3.789 0
M  V30 9107 H 856.301 2.53217 -3.06541 0
M  V30 9108 N 857.298 1.47698 0.54982 0
M  V30 9109 C 858.523 1.58579 1.33669 0
M  V30 9110 C 858.948 0.239049 1.86575 0
M  V30 9111 O 858.306 -0.786256 1.63364 0
M  V30 9112 C 858.354 2.62029 2.47736 0
M  V30 9113 O 857.458 2.17813 3.50188 0
M  V30 9114 H 856.799 0.532447 0.396732 0
M  V30 9115 H 859.329 1.93536 0.6637 0
M  V30 9116 H 859.339 2.82682 2.94202 0
M  V30 9117 H 858.014 3.59812 2.08586 0
M  V30 9118 H 856.591 2.07291 3.09976 0
M  V30 9119 N 858.776 -0.797141 1.35954 0
M  V30 9120 C 860.025 -1.54983 1.29086 0
M  V30 9121 C 860.338 -1.95167 -0.130003 0
M  V30 9122 O 861.544 -2.69596 -0.32101 0
M  V30 9123 C 860 -2.79738 2.26439 0
M  V30 9124 C 859.608 -2.46753 3.73921 0
M  V30 9125 C 861.352 -3.57733 2.28533 0
M  V30 9126 C 859.259 -3.67858 4.63071 0
M  V30 9127 H 858.189 -0.581766 0.479651 0
M  V30 9128 H 860.84 -0.87541 1.61273 0
M  V30 9129 H 859.222 -3.48939 1.87236 0
M  V30 9130 H 860.396 -1.85499 4.21814 0
M  V30 9131 H 858.711 -1.81985 3.74527 0
M  V30 9132 H 861.308 -4.47699 2.92351 0
M  V30 9133 H 861.651 -3.95754 1.29169 0
M  V30 9134 H 862.184 -2.95504 2.66313 0
M  V30 9135 H 858.923 -3.34939 5.63468 0
M  V30 9136 H 858.443 -4.28305 4.19898 0
M  V30 9137 H 860.122 -4.34977 4.78961 0
M  V30 9138 N 860.254 -1.20106 -1.0204 0
M  V30 9139 C 861.217 -0.948261 -2.08664 0
M  V30 9140 C 862.217 0.0746753 -1.60627 0
M  V30 9141 O 863.407 -0.160981 -1.73455 0
M  V30 9142 C 860.539 -0.426854 -3.38217 0
M  V30 9143 H 861.732 -1.894 -2.32524 0
M  V30 9144 H 859.285 -1.0159 -1.18782 0
M  V30 9145 H 860.02 0.524532 -3.2003 0
M  V30 9146 H 859.805 -1.16451 -3.74408 0
M  V30 9147 H 861.295 -0.269346 -4.1673 0
M  V30 9148 N 861.732 1.21287 -1.00634 0
M  V30 9149 C 862.679 2.23705 -0.567876 0
M  V30 9150 C 863.649 1.61043 0.406753 0
M  V30 9151 O 864.834 1.88289 0.308499 0
M  V30 9152 C 861.974 3.44961 0.097996 0
M  V30 9153 C 861.087 4.22091 -0.919972 0
M  V30 9154 C 860.222 5.30718 -0.226222 0
M  V30 9155 C 859.261 5.99581 -1.23165 0
M  V30 9156 N 858.398 6.99821 -0.565278 0
M  V30 9157 H 863.238 2.60571 -1.44592 0
M  V30 9158 H 860.775 1.28049 -0.724006 0
M  V30 9159 H 862.733 4.1418 0.501097 0
M  V30 9160 H 861.363 3.08818 0.939744 0
M  V30 9161 H 860.415 3.52038 -1.44131 0
M  V30 9162 H 861.727 4.69476 -1.68505 0
M  V30 9163 H 860.881 6.06253 0.232917 0
M  V30 9164 H 859.62 4.84343 0.571247 0
M  V30 9165 H 858.625 5.22816 -1.70128 0
M  V30 9166 H 859.85 6.48042 -2.03022 0
M  V30 9167 H 857.796 6.55656 0.212508 0
M  V30 9168 H 857.713 7.4528 -1.26858 0
M  V30 9169 H 858.981 7.79393 -0.129389 0
M  V30 9170 N 863.21 0.781244 1.36873 0
M  V30 9171 C 864.173 0.180094 2.28491 0
M  V30 9172 C 865.173 -0.617798 1.48458 0
M  V30 9173 O 866.363 -0.439991 1.68552 0
M  V30 9174 C 863.495 -0.751741 3.32508 0
M  V30 9175 H 864.688 0.987837 2.83164 0
M  V30 9176 H 862.241 0.550102 1.463 0
M  V30 9177 H 862.976 -1.58413 2.82977 0
M  V30 9178 H 862.761 -0.181649 3.91679 0
M  V30 9179 H 864.251 -1.16748 4.00949 0
M  V30 9180 N 864.689 -1.48329 0.532571 0
M  V30 9181 C 866.105 -1.58458 0.190605 0
M  V30 9182 C 866.305 -1.53427 -1.30623 0
M  V30 9183 O 865.361 -1.4247 -2.08467 0
M  V30 9184 C 866.674 -2.89989 0.79543 0
M  V30 9185 C 868.222 -3.03523 0.7644 0
M  V30 9186 C 868.697 -4.37718 1.34785 0
M  V30 9187 N 870.188 -4.44292 1.30993 0
M  V30 9188 C 870.923 -5.4664 1.73124 0
M  V30 9189 N 870.419 -6.5593 2.22997 0
M  V30 9190 N 872.212 -5.37538 1.64346 0
M  V30 9191 H 864.363 -1.49842 1.50537 0
M  V30 9192 H 866.626 -0.71164 0.626316 0
M  V30 9193 H 866.332 -2.99333 1.84642 0
M  V30 9194 H 866.206 -3.76203 0.27403 0
M  V30 9195 H 868.593 -2.93789 -0.277831 0
M  V30 9196 H 868.674 -2.18912 1.3233 0
M  V30 9197 H 868.318 -4.48206 2.38902 0
M  V30 9198 H 868.248 -5.21019 0.764609 0
M  V30 9199 H 870.739 -3.65897 0.944868 0
M  V30 9200 H 871.052 -7.30167 2.53133 0
M  V30 9201 H 869.397 -6.56886 2.26992 0
M  V30 9202 H 872.588 -4.51052 1.25178 0
M  V30 9203 H 872.761 -6.17169 1.97501 0
M  V30 9204 N 866.167 -0.267825 -1.55308 0
M  V30 9205 C 867.415 0.350343 -1.9904 0
M  V30 9206 C 867.736 1.56924 -1.15758 0
M  V30 9207 O 867.006 1.94358 -0.245336 0
M  V30 9208 H 865.586 0.132435 -0.735167 0
M  V30 9209 H 868.248 -0.371471 -1.91327 0
M  V30 9210 H 867.344 0.645203 -3.05358 0
M  V30 9211 N 867.645 1.57599 0.00500368 0
M  V30 9212 C 868.893 1.89973 0.68953 0
M  V30 9213 C 869.214 0.868531 1.7459 0
M  V30 9214 O 868.484 -0.0947367 1.95671 0
M  V30 9215 H 867.064 0.701153 0.25767 0
M  V30 9216 H 869.726 1.94869 -0.0347392 0
M  V30 9217 H 868.822 2.89584 1.16394 0
M  V30 9218 N 869.123 -0.277682 1.55134 0
M  V30 9219 C 870.071 -1.36305 1.88478 0
M  V30 9220 C 871.065 -1.51362 0.760654 0
M  V30 9221 O 872.271 -1.53202 0.944943 0
M  V30 9222 H 868.646 -0.45577 0.598146 0
M  V30 9223 H 870.617 -1.05431 2.79154 0
M  V30 9224 C 869.366 -2.71739 2.16918 0
M  V30 9225 H 868.689 -2.60942 3.02901 0
M  V30 9226 H 870.129 -3.46635 2.44172 0
M  V30 9227 C 868.588 -3.22476 0.975239 0
M  V30 9228 O 869.118 -4.01164 0.207497 0
M  V30 9229 N 867.324 -2.80097 0.774219 0
M  V30 9230 H 866.871 -2.16221 1.40022 0
M  V30 9231 H 866.829 -3.14392 -0.023021 0
M  V30 9232 N 870.601 -1.47988 -0.541979 0
M  V30 9233 C 871.85 -1.5465 -1.29485 0
M  V30 9234 C 872.163 -0.220041 -1.94358 0
M  V30 9235 O 873.369 -0.164792 -2.70999 0
M  V30 9236 C 871.825 -2.72685 -2.34885 0
M  V30 9237 C 871.433 -4.11923 -1.76134 0
M  V30 9238 C 873.177 -2.88651 -3.11257 0
M  V30 9239 C 871.084 -5.21237 -2.79404 0
M  V30 9240 H 870.014 -0.575688 -0.486928 0
M  V30 9241 H 872.665 -1.74296 -0.573853 0
M  V30 9242 H 871.047 -2.46448 -3.09966 0
M  V30 9243 H 872.221 -4.48128 -1.07322 0
M  V30 9244 H 870.536 -4.00972 -1.12295 0
M  V30 9245 H 873.133 -3.67487 -3.88404 0
M  V30 9246 H 873.476 -1.97658 -3.66384 0
M  V30 9247 H 874.009 -3.14731 -2.43288 0
M  V30 9248 H 870.748 -6.14156 -2.29113 0
M  V30 9249 H 870.268 -4.89533 -3.4658 0
M  V30 9250 H 871.947 -5.48839 -3.42615 0
M  V30 9251 N 872.079 0.78992 -1.36375 0
M  V30 9252 C 873.327 1.54472 -1.30319 0
M  V30 9253 C 873.648 1.94647 0.117338 0
M  V30 9254 O 872.918 1.64906 1.05748 0
M  V30 9255 H 871.498 0.572879 -0.479394 0
M  V30 9256 H 874.16 0.941245 -1.70665 0
M  V30 9257 H 873.256 2.45252 -1.93024 0
M  V30 9258 N 873.557 1.20646 1.01402 0
M  V30 9259 C 874.834 0.927176 1.72229 0
M  V30 9260 C 875.214 -0.563382 2.03443 0
M  V30 9261 O 874.562 -1.52576 1.70096 0
M  V30 9262 C 874.772 1.80285 2.98828 0
M  V30 9263 C 876.12 2.04624 3.72041 0
M  V30 9264 O 877.144 1.77559 3.0879 0
M  V30 9265 O 876.003 2.50347 4.85787 0
M  V30 9266 H 873.097 0.346891 0.75073 0
M  V30 9267 H 875.643 1.31532 1.07227 0
M  V30 9268 H 874.415 2.81204 2.72102 0
M  V30 9269 H 874.038 1.41495 3.71571 0
M  V30 9270 N 875.035 -1.20752 1.01276 0
M  V30 9271 C 876.283 -1.89645 0.698505 0
M  V30 9272 C 876.604 -1.78986 -0.773883 0
M  V30 9273 O 875.874 -1.18977 -1.55632 0
M  V30 9274 H 874.454 -0.701992 0.255375 0
M  V30 9275 H 877.116 -1.46668 1.28353 0
M  V30 9276 H 876.212 -2.96364 0.978512 0
M  V30 9277 N 876.513 -0.788492 -1.36457 0
M  V30 9278 C 877.761 -0.359749 -1.98872 0
M  V30 9279 C 878.082 1.07197 -1.62892 0
M  V30 9280 O 877.352 1.73875 -0.902463 0
M  V30 9281 H 875.932 -0.130029 -0.735596 0
M  V30 9282 H 878.594 -1.01033 -1.66668 0
M  V30 9283 H 877.69 -0.450835 -3.08827 0
M  V30 9284 N 877.991 1.48044 -0.54043 0
M  V30 9285 C 879.239 2.02097 -0.0101367 0
M  V30 9286 C 879.56 1.41881 1.33771 0
M  V30 9287 O 878.83 0.587923 1.8687 0
M  V30 9288 H 877.41 0.747 -0.000758716 0
M  V30 9289 H 880.072 1.81639 -0.706634 0
M  V30 9290 H 879.168 3.11969 0.0904474 0
M  V30 9291 N 879.47 0.276058 1.55163 0
M  V30 9292 C 880.433 -0.597924 2.21263 0
M  V30 9293 C 881.433 -1.0806 1.19078 0
M  V30 9294 O 882.623 -0.980626 1.43977 0
M  V30 9295 C 879.755 -1.82503 2.87933 0
M  V30 9296 H 880.948 -0.0207769 2.99893 0
M  V30 9297 H 878.501 0.0266823 1.56277 0
M  V30 9298 H 879.236 -2.44266 2.13318 0
M  V30 9299 H 879.021 -1.48683 3.62816 0
M  V30 9300 H 880.511 -2.44651 3.38431 0
M  V30 9301 N 880.948 -1.576 0.00335426 0
M  V30 9302 C 881.911 -2.07576 -0.971838 0
M  V30 9303 C 882.911 -0.985796 -1.27038 0
M  V30 9304 O 884.101 -1.24833 -1.21501 0
M  V30 9305 C 881.233 -2.52003 -2.29581 0
M  V30 9306 H 882.426 -2.95008 -0.539481 0
M  V30 9307 H 879.979 -1.54381 -0.244186 0
M  V30 9308 H 880.714 -1.67825 -2.77498 0
M  V30 9309 H 880.499 -3.31609 -2.09231 0
M  V30 9310 H 881.989 -2.90983 -2.99531 0
M  V30 9311 N 882.426 0.269451 -1.5528 0
M  V30 9312 C 883.703 1.02207 -1.66773 0
M  V30 9313 C 884.083 2.04168 -0.536536 0
M  V30 9314 O 883.431 2.23761 0.462956 0
M  V30 9315 C 883.641 1.67569 -3.0614 0
M  V30 9316 C 884.989 2.18599 -3.64005 0
M  V30 9317 O 886.013 1.7755 -3.08795 0
M  V30 9318 O 884.872 2.93903 -4.60742 0
M  V30 9319 H 881.966 0.474314 -0.677462 0
M  V30 9320 H 884.512 0.265026 -1.67618 0
M  V30 9321 H 883.284 0.937029 -3.79915 0
M  V30 9322 H 882.907 2.49951 -3.09209 0
M  V30 9323 N 883.904 1.48273 0.534124 0
M  V30 9324 C 885.32 1.34302 0.862272 0
M  V30 9325 C 885.52 0.350902 1.98421 0
M  V30 9326 O 884.576 -0.229364 2.51456 0
M  V30 9327 C 885.889 2.74227 1.23371 0
M  V30 9328 C 887.437 2.82684 1.34383 0
M  V30 9329 C 887.912 4.23301 1.74871 0
M  V30 9330 N 889.403 4.25954 1.81981 0
M  V30 9331 C 890.138 5.31693 2.14686 0
M  V30 9332 N 889.634 6.47714 2.45844 0
M  V30 9333 N 891.427 5.19084 2.15657 0
M  V30 9334 H 883.578 2.11397 -0.206215 0
M  V30 9335 H 885.841 0.947537 -0.0296116 0
M  V30 9336 H 885.547 3.48368 0.482967 0
M  V30 9337 H 885.421 3.07485 2.18478 0
M  V30 9338 H 887.808 2.08801 2.08534 0
M  V30 9339 H 887.889 2.5305 0.374063 0
M  V30 9340 H 887.533 4.97699 1.01282 0
M  V30 9341 H 887.463 4.50376 2.7289 0
M  V30 9342 H 889.954 3.42266 1.60196 0
M  V30 9343 H 890.267 7.2414 2.69892 0
M  V30 9344 H 888.612 6.50995 2.43372 0
M  V30 9345 H 891.803 4.27463 1.9077 0
M  V30 9346 H 891.976 6.01592 2.40813 0
M  V30 9347 N 885.382 -0.782676 1.36792 0
M  V30 9348 C 886.628 -1.54311 1.3159 0
M  V30 9349 C 886.961 -1.93928 -0.102696 0
M  V30 9350 O 886.236 -1.63233 -1.05761 0
M  V30 9351 C 886.519 -2.81561 2.24489 0
M  V30 9352 C 886.372 -2.48268 3.75078 0
M  V30 9353 C 887.691 -3.83428 2.16034 0
M  V30 9354 H 884.81 -0.559828 0.479335 0
M  V30 9355 H 887.452 -0.898717 1.67401 0
M  V30 9356 H 885.602 -3.36549 1.9408 0
M  V30 9357 H 887.274 -1.99279 4.16036 0
M  V30 9358 H 885.517 -1.81116 3.94182 0
M  V30 9359 H 886.188 -3.39183 4.35499 0
M  V30 9360 H 888.664 -3.37905 2.42815 0
M  V30 9361 H 887.54 -4.70204 2.83194 0
M  V30 9362 H 887.801 -4.26887 1.14976 0
M  V30 9363 N 886.86 -1.21182 -1.00761 0
M  V30 9364 C 888.109 -1.02166 -1.73911 0
M  V30 9365 C 888.422 0.445638 -1.90456 0
M  V30 9366 O 889.628 0.755132 -2.60787 0
M  V30 9367 C 888.084 -1.77936 -3.12837 0
M  V30 9368 C 887.692 -3.28819 -3.04273 0
M  V30 9369 C 889.436 -1.67319 -3.90134 0
M  V30 9370 C 887.343 -3.97089 -4.38262 0
M  V30 9371 H 886.273 -0.378665 -0.652019 0
M  V30 9372 H 888.924 -1.44891 -1.12601 0
M  V30 9373 H 887.306 -1.28003 -3.74742 0
M  V30 9374 H 888.48 -3.86035 -2.51622 0
M  V30 9375 H 886.795 -3.39949 -2.40465 0
M  V30 9376 H 889.392 -2.15659 -4.8928 0
M  V30 9377 H 889.735 -0.630959 -4.11491 0
M  V30 9378 H 890.268 -2.14716 -3.34876 0
M  V30 9379 H 887.007 -5.01503 -4.22107 0
M  V30 9380 H 886.527 -3.44662 -4.90885 0
M  V30 9381 H 888.206 -4.01854 -5.07072 0
M  V30 9382 N 888.338 1.20213 -1.01915 0
M  V30 9383 C 889.286 2.25125 -0.584936 0
M  V30 9384 C 890.28 1.65138 0.377602 0
M  V30 9385 O 891.486 1.78294 0.247245 0
M  V30 9386 H 887.861 0.732333 -0.170858 0
M  V30 9387 H 889.832 2.59075 -1.48063 0
M  V30 9388 C 888.581 3.47651 0.058389 0
M  V30 9389 H 887.904 3.9409 -0.673263 0
M  V30 9390 H 889.344 4.2275 0.325285 0
M  V30 9391 C 887.803 3.10725 1.30199 0
M  V30 9392 O 888.333 3.22491 2.39505 0
M  V30 9393 N 886.539 2.6525 1.18706 0
M  V30 9394 H 886.086 2.55875 0.297618 0
M  V30 9395 H 886.044 2.40913 2.02011 0
M  V30 9396 N 889.816 0.795718 1.36037 0
M  V30 9397 C 890.748 0.156336 2.28666 0
M  V30 9398 C 891.761 -0.638075 1.49775 0
M  V30 9399 O 892.95 -0.472222 1.7214 0
M  V30 9400 C 890.05 -0.801417 3.29288 0
M  V30 9401 C 889.223 -0.0557118 4.37365 0
M  V30 9402 C 888.282 -0.930338 5.1791 0
M  V30 9403 O 887.308 -0.385266 5.67895 0
M  V30 9404 N 888.51 -2.25382 5.34961 0
M  V30 9405 H 891.275 0.952033 2.84177 0
M  V30 9406 H 888.836 0.650189 1.48271 0
M  V30 9407 H 890.828 -1.39051 3.80062 0
M  V30 9408 H 889.398 -1.49796 2.74372 0
M  V30 9409 H 888.618 0.714508 3.87671 0
M  V30 9410 H 889.906 0.458633 5.06729 0
M  V30 9411 H 889.304 -2.72073 4.95977 0
M  V30 9412 H 887.861 -2.79241 5.88955 0
M  V30 9413 N 891.294 -1.47756 0.548274 0
M  V30 9414 C 892.543 -2.01691 0.0187961 0
M  V30 9415 C 892.856 -1.42894 -1.33569 0
M  V30 9416 O 894.062 -1.88438 -1.95457 0
M  V30 9417 C 892.518 -3.59896 -0.016847 0
M  V30 9418 C 892.126 -4.27683 1.33385 0
M  V30 9419 C 893.87 -4.21614 -0.494188 0
M  V30 9420 C 891.777 -5.7787 1.2578 0
M  V30 9421 H 890.707 -0.753993 0.00325648 0
M  V30 9422 H 893.358 -1.69838 0.694792 0
M  V30 9423 H 891.74 -3.88672 -0.758304 0
M  V30 9424 H 892.914 -4.10559 2.09232 0
M  V30 9425 H 891.229 -3.77915 1.7484 0
M  V30 9426 H 893.826 -5.3166 -0.569342 0
M  V30 9427 H 894.169 -3.88176 -1.50417 0
M  V30 9428 H 894.702 -3.97336 0.192138 0
M  V30 9429 H 891.441 -6.15912 2.2435 0
M  V30 9430 H 890.961 -5.97355 0.540997 0
M  V30 9431 H 892.64 -6.39897 0.956109 0
M  V30 9432 N 892.772 -0.284283 -1.55015 0
M  V30 9433 C 893.702 0.592663 -2.25853 0
M  V30 9434 C 894.683 1.15151 -1.25197 0
M  V30 9435 O 895.868 1.18395 -1.53936 0
M  V30 9436 C 892.998 1.77254 -2.98661 0
M  V30 9437 C 891.952 1.34482 -4.06323 0
M  V30 9438 C 891.278 2.60853 -4.66754 0
M  V30 9439 C 892.578 0.488288 -5.20013 0
M  V30 9440 H 894.272 0.00187041 -2.994 0
M  V30 9441 H 891.818 -0.000540402 -1.44 0
M  V30 9442 H 893.771 2.39199 -3.46932 0
M  V30 9443 H 892.495 2.38931 -2.22664 0
M  V30 9444 H 891.154 0.748519 -3.58877 0
M  V30 9445 H 890.802 3.20808 -3.87416 0
M  V30 9446 H 890.502 2.32942 -5.39455 0
M  V30 9447 H 892.026 3.23631 -5.1778 0
M  V30 9448 H 893.44 1.01298 -5.6428 0
M  V30 9449 H 891.837 0.303669 -5.99331 0
M  V30 9450 H 892.907 -0.490727 -4.8241 0
M  V30 9451 N 894.251 1.57596 -0.0117121 0
M  V30 9452 C 895.479 1.9536 0.681334 0
M  V30 9453 C 895.894 0.887255 1.66653 0
M  V30 9454 O 895.251 -0.132692 1.82017 0
M  V30 9455 C 895.302 3.33165 1.40298 0
M  V30 9456 O 895.023 4.35707 0.45728 0
M  V30 9457 C 896.524 3.85458 2.18946 0
M  V30 9458 H 893.744 0.643826 0.189023 0
M  V30 9459 H 896.288 2.04392 -0.066311 0
M  V30 9460 H 894.443 3.25404 2.10216 0
M  V30 9461 H 894.857 5.15495 0.96773 0
M  V30 9462 H 896.331 4.84275 2.64918 0
M  V30 9463 H 896.808 3.18781 3.02118 0
M  V30 9464 H 897.414 3.96431 1.5402 0
M  V30 9465 N 895.729 -0.261212 1.5542 0
M  V30 9466 C 896.639 -1.34493 1.92221 0
M  V30 9467 C 897.655 -1.53421 0.82086 0
M  V30 9468 O 898.831 -1.6732 1.12099 0
M  V30 9469 C 895.896 -2.68209 2.19692 0
M  V30 9470 C 894.957 -2.57927 3.43179 0
M  V30 9471 C 894.19 -3.85266 3.69331 0
M  V30 9472 O 894.413 -4.86493 2.97793 0
M  V30 9473 O 893.347 -3.8476 4.62865 0
M  V30 9474 H 897.173 -1.06278 2.84497 0
M  V30 9475 H 894.758 -0.460752 1.42118 0
M  V30 9476 H 896.64 -3.47252 2.38734 0
M  V30 9477 H 895.315 -2.96186 1.30597 0
M  V30 9478 H 894.222 -1.77219 3.2946 0
M  V30 9479 H 895.555 -2.34898 4.32532 0
M  V30 9480 N 897.207 -1.48554 -0.526253 0
M  V30 9481 C 898.14 -1.57928 -1.64724 0
M  V30 9482 C 899.118 -0.429536 -1.56824 0
M  V30 9483 O 900.302 -0.641651 -1.77243 0
M  V30 9484 C 897.429 -1.51075 -3.0314 0
M  V30 9485 C 896.475 -2.70937 -3.29386 0
M  V30 9486 S 897.308 -4.3287 -3.15251 0
M  V30 9487 C 898.464 -4.28622 -4.56108 0
M  V30 9488 H 898.697 -2.52761 -1.56523 0
M  V30 9489 H 896.23 -1.37133 -0.7095 0
M  V30 9490 H 898.188 -1.47808 -3.82966 0
M  V30 9491 H 896.849 -0.57574 -3.08778 0
M  V30 9492 H 896.042 -2.62291 -4.30371 0
M  V30 9493 H 895.644 -2.71486 -2.57238 0
M  V30 9494 H 897.936 -3.98784 -5.47702 0
M  V30 9495 H 898.879 -5.29798 -4.69808 0
M  V30 9496 H 899.287 -3.59038 -4.35605 0
M  V30 9497 N 898.685 0.775411 -1.37205 0
M  V30 9498 C 899.962 1.5229 -1.22748 0
M  V30 9499 C 900.342 2.10327 0.180487 0
M  V30 9500 O 899.69 1.95206 1.18772 0
M  V30 9501 C 899.9 2.60671 -2.3206 0
M  V30 9502 C 901.248 3.28173 -2.6942 0
M  V30 9503 O 902.272 2.70963 -2.31208 0
M  V30 9504 O 901.131 4.31598 -3.3524 0
M  V30 9505 H 898.225 0.674326 -0.478762 0
M  V30 9506 H 900.771 0.812691 -1.48975 0
M  V30 9507 H 899.543 2.1588 -3.26361 0
M  V30 9508 H 899.166 3.39296 -2.07277 0
M  V30 9509 N 900.163 1.21714 1.00117 0
M  V30 9510 C 901.411 1.03465 1.73607 0
M  V30 9511 C 901.732 -0.432295 1.90148 0
M  V30 9512 O 901.002 -1.31157 1.45515 0
M  V30 9513 H 899.582 0.379857 0.643209 0
M  V30 9514 H 902.244 1.53088 1.20624 0
M  V30 9515 H 901.34 1.50574 2.73375 0
M  V30 9516 N 901.641 -1.19671 1.02551 0
M  V30 9517 C 902.574 -2.21522 0.547998 0
M  V30 9518 C 903.552 -1.57363 -0.409349 0
M  V30 9519 O 904.736 -1.85638 -0.327248 0
M  V30 9520 C 901.863 -3.38101 -0.201375 0
M  V30 9521 C 900.909 -4.20601 0.706886 0
M  V30 9522 S 901.742 -4.89066 2.18116 0
M  V30 9523 C 902.898 -6.09058 1.4422 0
M  V30 9524 H 903.131 -2.61684 1.41099 0
M  V30 9525 H 900.664 -1.29864 0.835153 0
M  V30 9526 H 902.622 -4.05674 -0.627607 0
M  V30 9527 H 901.283 -2.96381 -1.04005 0
M  V30 9528 H 900.476 -5.03836 0.128554 0
M  V30 9529 H 900.078 -3.58329 1.07129 0
M  V30 9530 H 902.37 -6.73588 0.726975 0
M  V30 9531 H 903.313 -6.71368 2.25102 0
M  V30 9532 H 903.721 -5.56599 0.941176 0
M  V30 9533 N 903.119 -0.802921 -1.35613 0
M  V30 9534 C 904.344 -0.392846 -2.03645 0
M  V30 9535 C 904.769 0.987075 -1.6012 0
M  V30 9536 O 904.127 1.63849 -0.776101 0
M  V30 9537 C 904.175 -0.480208 -3.57388 0
M  V30 9538 O 903.279 0.507751 -4.09262 0
M  V30 9539 H 902.62 -0.16464 -0.643265 0
M  V30 9540 H 905.15 -1.08779 -1.73287 0
M  V30 9541 H 905.16 -0.348683 -4.06507 0
M  V30 9542 H 903.835 -1.48675 -3.88418 0
M  V30 9543 H 902.412 0.336769 -3.71376 0
M  V30 9544 N 904.597 1.47463 -0.556102 0
M  V30 9545 C 905.825 2.06868 -0.0364585 0
M  V30 9546 C 906.24 1.40893 1.25677 0
M  V30 9547 O 905.597 0.505083 1.75371 0
M  V30 9548 C 905.648 3.61128 0.163984 0
M  V30 9549 O 905.369 4.24629 -1.07803 0
M  V30 9550 C 906.87 4.37397 0.721036 0
M  V30 9551 H 904.09 0.669466 -0.0453399 0
M  V30 9552 H 906.634 1.89482 -0.769198 0
M  V30 9553 H 904.789 3.78031 0.84685 0
M  V30 9554 H 905.203 5.17149 -0.875067 0
M  V30 9555 H 906.677 5.46016 0.810584 0
M  V30 9556 H 907.154 4.03604 1.73206 0
M  V30 9557 H 907.76 4.25236 0.073904 0
M  V30 9558 N 906.075 0.2925 1.54862 0
M  V30 9559 C 907.022 -0.587365 2.23201 0
M  V30 9560 C 907.992 -1.13623 1.21157 0
M  V30 9561 O 909.177 -1.18233 1.49752 0
M  V30 9562 C 906.317 -1.75745 2.96998 0
M  V30 9563 C 905.43 -1.24078 4.13798 0
M  V30 9564 C 904.565 -2.37405 4.75197 0
M  V30 9565 C 903.604 -1.82829 5.84157 0
M  V30 9566 N 902.741 -2.89696 6.39547 0
M  V30 9567 H 907.581 0.00202207 2.98 0
M  V30 9568 H 905.118 0.012766 1.47094 0
M  V30 9569 H 907.076 -2.44549 3.38011 0
M  V30 9570 H 905.706 -2.3186 2.24591 0
M  V30 9571 H 904.758 -0.445268 3.77785 0
M  V30 9572 H 906.07 -0.801186 4.92324 0
M  V30 9573 H 905.224 -3.14172 5.19019 0
M  V30 9574 H 903.963 -2.84688 3.95985 0
M  V30 9575 H 902.968 -1.04548 5.39768 0
M  V30 9576 H 904.193 -1.36461 6.65248 0
M  V30 9577 H 902.139 -3.36328 5.63222 0
M  V30 9578 H 902.056 -2.50206 7.13395 0
M  V30 9579 H 903.324 -3.66386 6.88027 0
M  V30 9580 N 907.553 -1.57587 0.0200696 0
M  V30 9581 C 908.5 -2.09667 -0.964791 0
M  V30 9582 C 909.47 -0.99664 -1.32877 0
M  V30 9583 O 910.655 -1.2703 -1.42366 0
M  V30 9584 C 907.795 -2.62101 -2.24493 0
M  V30 9585 C 906.908 -3.8608 -1.93821 0
M  V30 9586 C 906.043 -4.26939 -3.16064 0
M  V30 9587 C 905.082 -5.43701 -2.81169 0
M  V30 9588 N 904.219 -5.79759 -3.9601 0
M  V30 9589 H 909.059 -2.93538 -0.513751 0
M  V30 9590 H 906.596 -1.45096 -0.242 0
M  V30 9591 H 908.554 -2.90587 -2.99358 0
M  V30 9592 H 907.184 -1.81074 -2.6723 0
M  V30 9593 H 906.236 -3.64378 -1.09237 0
M  V30 9594 H 907.548 -4.71028 -1.64115 0
M  V30 9595 H 906.702 -4.56814 -3.99257 0
M  V30 9596 H 905.441 -3.40739 -3.48924 0
M  V30 9597 H 904.446 -5.13529 -1.96387 0
M  V30 9598 H 905.671 -6.31593 -2.49535 0
M  V30 9599 H 903.617 -4.96516 -4.28729 0
M  V30 9600 H 903.534 -6.59327 -3.69896 0
M  V30 9601 H 904.802 -6.14235 -4.79933 0
M  V30 9602 N 909.032 0.252966 -1.55557 0
M  V30 9603 C 909.98 1.33289 -1.90622 0
M  V30 9604 C 910.974 1.50133 -0.784638 0
M  V30 9605 O 912.18 1.51679 -0.969196 0
M  V30 9606 H 908.555 0.446196 -0.605321 0
M  V30 9607 H 910.526 1.00977 -2.80796 0
M  V30 9608 C 909.275 2.68254 -2.21213 0
M  V30 9609 H 908.598 2.5609 -3.07014 0
M  V30 9610 H 910.038 3.42707 -2.49656 0
M  V30 9611 C 908.497 3.20884 -1.02642 0
M  V30 9612 O 909.027 4.00783 -0.271292 0
M  V30 9613 N 907.233 2.7883 -0.818682 0
M  V30 9614 H 906.78 2.13966 -1.43444 0
M  V30 9615 H 906.738 3.14388 -0.0269989 0
M  V30 9616 N 910.51 1.48831 0.518367 0
M  V30 9617 C 911.756 1.57672 1.27543 0
M  V30 9618 C 912.089 0.254915 1.9252 0
M  V30 9619 O 911.364 -0.740107 1.79868 0
M  V30 9620 C 911.647 2.72345 2.35585 0
M  V30 9621 C 911.5 4.14267 1.75224 0
M  V30 9622 C 912.819 2.82726 3.37274 0
M  V30 9623 H 909.938 0.573926 0.462361 0
M  V30 9624 H 912.58 1.8105 0.576267 0
M  V30 9625 H 910.73 2.52543 2.95219 0
M  V30 9626 H 912.402 4.45539 1.19551 0
M  V30 9627 H 910.645 4.20724 1.05706 0
M  V30 9628 H 911.316 4.90345 2.53507 0
M  V30 9629 H 913.792 3.00699 2.8761 0
M  V30 9630 H 912.668 3.6467 4.10252 0
M  V30 9631 H 912.929 1.9136 3.9854 0
M  V30 9632 N 911.988 -0.768124 1.37614 0
M  V30 9633 C 913.235 -1.5268 1.33022 0
M  V30 9634 C 913.563 -1.94318 -0.0841918 0
M  V30 9635 O 912.818 -1.64623 -1.0582 0
M  V30 9636 C 913.117 -2.80204 2.21856 0
M  V30 9637 C 912.783 -2.57602 3.7007 0
M  V30 9638 C 911.445 -2.51146 4.10462 0
M  V30 9639 C 913.797 -2.37482 4.63952 0
M  V30 9640 C 911.125 -2.22566 5.42846 0
M  V30 9641 C 913.477 -2.10425 5.96577 0
M  V30 9642 C 912.141 -2.02416 6.36069 0
M  V30 9643 H 911.411 -0.558697 0.486763 0
M  V30 9644 H 914.058 -0.88447 1.69851 0
M  V30 9645 H 912.363 -3.49014 1.78034 0
M  V30 9646 H 914.06 -3.38099 2.15615 0
M  V30 9647 H 910.65 -2.63491 3.38039 0
M  V30 9648 H 914.834 -2.41457 4.33604 0
M  V30 9649 H 910.09 -2.14863 5.72402 0
M  V30 9650 H 914.264 -1.93857 6.68874 0
M  V30 9651 H 911.891 -1.80034 7.38574 0
M  V30 9652 N 913.466 -1.22244 -0.994698 0
M  V30 9653 C 914.715 -1.04005 -1.72817 0
M  V30 9654 C 915.028 0.425413 -1.90918 0
M  V30 9655 O 916.234 0.727429 -2.61574 0
M  V30 9656 C 914.69 -1.81244 -3.10932 0
M  V30 9657 C 914.298 -3.32028 -3.00768 0
M  V30 9658 C 916.042 -1.71448 -3.88337 0
M  V30 9659 C 913.949 -4.01716 -4.34026 0
M  V30 9660 H 912.879 -0.385559 -0.647966 0
M  V30 9661 H 915.53 -1.46077 -1.11058 0
M  V30 9662 H 913.912 -1.3197 -3.73363 0
M  V30 9663 H 915.086 -3.88682 -2.47513 0
M  V30 9664 H 913.401 -3.4248 -2.36846 0
M  V30 9665 H 915.998 -2.20836 -4.86965 0
M  V30 9666 H 916.341 -0.674568 -4.10798 0
M  V30 9667 H 916.874 -2.18256 -3.3258 0
M  V30 9668 H 913.613 -5.05952 -4.16765 0
M  V30 9669 H 913.133 -3.49849 -4.87202 0
M  V30 9670 H 914.812 -4.0721 -5.02782 0
M  V30 9671 N 914.944 1.19125 -1.03184 0
M  V30 9672 C 916.193 1.8821 -0.725264 0
M  V30 9673 C 916.506 1.80674 0.749411 0
M  V30 9674 O 917.712 2.45037 1.16915 0
M  V30 9675 C 916.168 3.37607 -1.24697 0
M  V30 9676 C 915.776 3.53693 -2.74964 0
M  V30 9677 C 917.52 4.12149 -1.01652 0
M  V30 9678 C 915.427 4.97001 -3.20538 0
M  V30 9679 H 914.357 0.704916 -0.267599 0
M  V30 9680 H 917.008 1.34663 -1.24652 0
M  V30 9681 H 915.39 3.90569 -0.653614 0
M  V30 9682 H 916.564 3.11046 -3.39981 0
M  V30 9683 H 914.879 2.92544 -2.96322 0
M  V30 9684 H 917.476 5.17837 -1.33226 0
M  V30 9685 H 917.819 4.16274 0.0465712 0
M  V30 9686 H 918.352 3.65334 -1.57403 0
M  V30 9687 H 915.091 4.9804 -4.26189 0
M  V30 9688 H 914.611 5.40398 -2.60251 0
M  V30 9689 H 916.29 5.65669 -3.14049 0
M  V30 9690 N 916.422 0.810101 1.35185 0
M  V30 9691 C 917.67 0.391343 1.98275 0
M  V30 9692 C 917.991 -1.04592 1.64577 0
M  V30 9693 O 917.261 -1.72417 0.93001 0
M  V30 9694 H 915.841 0.141715 0.733434 0
M  V30 9695 H 918.503 1.03672 1.6504 0
M  V30 9696 H 917.599 0.49991 3.0807 0
M  V30 9697 N 917.9 -1.47166 0.563914 0
M  V30 9698 C 918.863 -2.28571 -0.169624 0
M  V30 9699 C 919.863 -1.37331 -0.836467 0
M  V30 9700 O 921.053 -1.59896 -0.6913 0
M  V30 9701 C 918.185 -3.17201 -1.24886 0
M  V30 9702 H 919.378 -2.94896 0.545539 0
M  V30 9703 H 916.931 -1.52966 0.321121 0
M  V30 9704 H 917.666 -2.55582 -1.99621 0
M  V30 9705 H 917.451 -3.84356 -0.775426 0
M  V30 9706 H 918.941 -3.7852 -1.76388 0
M  V30 9707 N 919.378 -0.300708 -1.54705 0
M  V30 9708 C 920.606 0.31127 -2.04545 0
M  V30 9709 C 921.021 1.47542 -1.178 0
M  V30 9710 O 920.378 1.81361 -0.203571 0
M  V30 9711 C 920.429 0.767783 -3.53253 0
M  V30 9712 O 920.15 -0.350027 -4.36699 0
M  V30 9713 C 921.651 1.44494 -4.1909 0
M  V30 9714 H 918.871 0.067668 -0.667579 0
M  V30 9715 H 921.415 -0.440254 -1.99705 0
M  V30 9716 H 919.57 1.46933 -3.58454 0
M  V30 9717 H 919.984 0.00534038 -5.245 0
M  V30 9718 H 921.458 1.71553 -5.24665 0
M  V30 9719 H 921.935 2.3849 -3.68808 0
M  V30 9720 H 922.541 0.786581 -4.17963 0
M  V30 9721 N 920.856 1.57574 -0.0284266 0
M  V30 9722 C 921.804 2.11332 0.971675 0
M  V30 9723 C 922.798 1.03974 1.33738 0
M  V30 9724 O 924.004 1.22409 1.31969 0
M  V30 9725 H 920.379 0.675174 0.331125 0
M  V30 9726 H 922.35 2.943 0.49296 0
M  V30 9727 C 921.099 2.65496 2.24516 0
M  V30 9728 H 920.422 3.47753 1.9725 0
M  V30 9729 H 921.862 3.06757 2.92705 0
M  V30 9730 C 920.321 1.58207 2.97443 0
M  V30 9731 O 920.851 0.981496 3.89525 0
M  V30 9732 N 919.057 1.30269 2.59766 0
M  V30 9733 H 918.604 1.79294 1.84963 0
M  V30 9734 H 918.562 0.587085 3.0887 0
M  V30 9735 N 922.334 -0.244713 1.55689 0
M  V30 9736 C 923.75 -0.593331 1.48161 0
M  V30 9737 C 923.95 -1.88234 0.719047 0
M  V30 9738 O 923.006 -2.51266 0.249292 0
M  V30 9739 C 924.319 -0.694032 2.92581 0
M  V30 9740 C 925.867 -0.786213 3.02965 0
M  V30 9741 C 926.342 -0.918457 4.48696 0
M  V30 9742 N 927.833 -0.983272 4.52643 0
M  V30 9743 C 928.568 -1.1049 5.62654 0
M  V30 9744 N 928.064 -1.19193 6.8247 0
M  V30 9745 N 929.857 -1.13823 5.50455 0
M  V30 9746 H 922.008 0.601446 2.03707 0
M  V30 9747 H 924.271 0.207894 0.924924 0
M  V30 9748 H 923.977 0.183133 3.51223 0
M  V30 9749 H 923.851 -1.56525 3.4319 0
M  V30 9750 H 926.238 -1.65383 2.44402 0
M  V30 9751 H 926.319 0.110202 2.55563 0
M  V30 9752 H 925.963 -0.0553881 5.0787 0
M  V30 9753 H 925.893 -1.82994 4.93782 0
M  V30 9754 H 928.384 -0.927269 3.66347 0
M  V30 9755 H 928.697 -1.28387 7.62061 0
M  V30 9756 H 927.042 -1.16147 6.85226 0
M  V30 9757 H 930.233 -1.06673 4.55783 0
M  V30 9758 H 930.406 -1.22957 6.36228 0
M  V30 9759 N 923.813 -1.49104 -0.510467 0
M  V30 9760 C 925.224 -1.51423 -1.09215 0
M  V30 9761 C 925.575 -0.295035 -1.93969 0
M  V30 9762 O 924.7 0.596064 -2.08029 0
M  V30 9763 C 925.295 -2.74387 -1.98739 0
M  V30 9764 C 923.854 -2.79515 -2.52088 0
M  V30 9765 C 923.001 -2.4521 -1.29488 0
M  V30 9766 H 925.952 -1.55938 -0.294807 0
M  V30 9767 H 925.973 -2.54012 -2.83298 0
M  V30 9768 H 925.485 -3.63105 -1.37026 0
M  V30 9769 H 923.586 -1.95054 -3.17466 0
M  V30 9770 H 923.699 -3.81447 -2.89887 0
M  V30 9771 H 922.063 -1.96785 -1.61703 0
M  V30 9772 H 922.846 -3.36192 -0.694978 0
M  V30 9773 N 925.291 0.760815 -1.38019 0
M  V30 9774 C 926.568 1.5098 -1.24356 0
M  V30 9775 C 926.948 2.10507 0.158169 0
M  V30 9776 O 926.296 1.96455 1.16695 0
M  V30 9777 C 926.506 2.58195 -2.34811 0
M  V30 9778 C 927.854 3.25297 -2.72886 0
M  V30 9779 O 928.878 2.68496 -2.34069 0
M  V30 9780 O 927.737 4.28018 -3.39799 0
M  V30 9781 H 924.831 0.66921 -0.485888 0
M  V30 9782 H 927.377 0.796844 -1.49828 0
M  V30 9783 H 926.149 2.12406 -3.28633 0
M  V30 9784 H 925.772 3.37079 -2.10864 0
M  V30 9785 N 926.769 1.22769 0.988202 0
M  V30 9786 C 928.018 1.0492 1.72263 0
M  V30 9787 C 928.331 -0.415282 1.91141 0
M  V30 9788 O 929.537 -0.713547 2.61956 0
M  V30 9789 C 927.993 1.82891 3.09966 0
M  V30 9790 C 927.601 3.33618 2.99003 0
M  V30 9791 C 929.345 1.73505 3.87423 0
M  V30 9792 C 927.252 4.04012 4.3189 0
M  V30 9793 H 926.182 0.38899 0.645912 0
M  V30 9794 H 928.833 1.46664 1.10281 0
M  V30 9795 H 927.215 1.33948 3.72658 0
M  V30 9796 H 928.389 3.8999 2.45448 0
M  V30 9797 H 926.704 3.43732 2.35027 0
M  V30 9798 H 929.301 2.23416 4.85787 0
M  V30 9799 H 929.644 0.696344 4.10435 0
M  V30 9800 H 930.177 2.20016 3.31418 0
M  V30 9801 H 926.916 5.08155 4.14075 0
M  V30 9802 H 926.436 3.52428 4.8534 0
M  V30 9803 H 928.115 4.0987 5.00615 0
M  V30 9804 N 928.247 -1.18576 1.03814 0
M  V30 9805 C 929.496 -1.87822 0.735235 0
M  V30 9806 C 929.809 -1.81069 -0.739819 0
M  V30 9807 O 931.015 -2.45654 -1.15614 0
M  V30 9808 C 929.471 -3.36941 1.26486 0
M  V30 9809 C 929.079 -3.5223 2.76836 0
M  V30 9810 C 930.823 -4.11604 1.03836 0
M  V30 9811 C 928.73 -4.95294 3.23169 0
M  V30 9812 H 927.66 -0.703487 0.271333 0
M  V30 9813 H 930.311 -1.34 1.25365 0
M  V30 9814 H 928.693 -3.90217 0.674318 0
M  V30 9815 H 929.867 -3.09239 3.41625 0
M  V30 9816 H 928.182 -2.90969 2.97869 0
M  V30 9817 H 930.779 -5.17123 1.3597 0
M  V30 9818 H 931.122 -4.16293 -0.0244945 0
M  V30 9819 H 931.655 -3.64494 1.59338 0
M  V30 9820 H 928.394 -4.95772 4.28824 0
M  V30 9821 H 927.914 -5.3901 2.63113 0
M  V30 9822 H 929.593 -5.63996 3.17045 0
M  V30 9823 N 929.725 -0.817259 -1.34754 0
M  V30 9824 C 931.002 -0.325468 -1.92873 0
M  V30 9825 C 931.382 1.18643 -1.74606 0
M  V30 9826 O 930.73 1.9909 -1.1214 0
M  V30 9827 C 930.94 -0.74858 -3.40877 0
M  V30 9828 C 932.288 -0.744165 -4.18028 0
M  V30 9829 O 933.312 -0.690799 -3.49437 0
M  V30 9830 O 932.171 -0.812207 -5.40431 0
M  V30 9831 H 929.265 -0.0876397 -0.822343 0
M  V30 9832 H 931.811 -0.901671 -1.43764 0
M  V30 9833 H 930.583 -1.79017 -3.47949 0
M  V30 9834 H 930.206 -0.147764 -3.97325 0
M  V30 9835 N 931.203 1.46865 -0.571711 0
M  V30 9836 C 932.614 1.86158 -0.142181 0
M  V30 9837 C 932.965 1.47663 1.2919 0
M  V30 9838 O 932.09 0.886393 1.97413 0
M  V30 9839 C 932.685 3.37867 -0.251256 0
M  V30 9840 C 931.244 3.76198 0.123329 0
M  V30 9841 C 930.391 2.70902 -0.592232 0
M  V30 9842 H 933.342 1.38176 -0.780587 0
M  V30 9843 H 933.363 3.76842 0.526331 0
M  V30 9844 H 932.875 3.65853 -1.2951 0
M  V30 9845 H 930.976 3.53829 1.16773 0
M  V30 9846 H 931.089 4.78471 -0.24533 0
M  V30 9847 H 929.453 2.54678 -0.0336927 0
M  V30 9848 H 930.236 3.01729 -1.63751 0
M  V30 9849 N 932.681 0.308908 1.54543 0
M  V30 9850 C 933.644 -0.550857 2.22482 0
M  V30 9851 C 934.644 -1.0551 1.21344 0
M  V30 9852 O 935.834 -0.949866 1.46025 0
M  V30 9853 C 932.966 -1.76354 2.9174 0
M  V30 9854 H 934.159 0.0428395 2.99869 0
M  V30 9855 H 931.712 0.059825 1.56185 0
M  V30 9856 H 932.447 -2.39686 2.18451 0
M  V30 9857 H 932.232 -1.40954 3.65889 0
M  V30 9858 H 933.722 -2.37417 3.43545 0
M  V30 9859 N 934.159 -1.57557 0.0367827 0
M  V30 9860 C 935.408 -1.91291 -0.639569 0
M  V30 9861 C 935.721 -0.915601 -1.72847 0
M  V30 9862 O 936.927 -1.14447 -2.46199 0
M  V30 9863 C 935.383 -3.39697 -1.18888 0
M  V30 9864 C 934.991 -4.47803 -0.132851 0
M  V30 9865 C 936.735 -3.82487 -1.8413 0
M  V30 9866 C 934.642 -5.87311 -0.694229 0
M  V30 9867 H 933.572 -0.713886 -0.242658 0
M  V30 9868 H 936.223 -1.83209 0.103332 0
M  V30 9869 H 934.605 -3.42736 -1.98363 0
M  V30 9870 H 935.779 -4.56334 0.640009 0
M  V30 9871 H 934.094 -4.14264 0.421264 0
M  V30 9872 H 936.691 -4.84076 -2.27101 0
M  V30 9873 H 937.034 -3.17959 -2.68716 0
M  V30 9874 H 937.567 -3.81903 -1.11332 0
M  V30 9875 H 934.306 -6.55401 0.113667 0
M  V30 9876 H 933.826 -5.82371 -1.4354 0
M  V30 9877 H 935.505 -6.36119 -1.1816 0
M  V30 9878 N 935.637 0.236453 -1.55816 0
M  V30 9879 C 936.567 1.29639 -1.94206 0
M  V30 9880 C 937.548 1.49667 -0.808319 0
M  V30 9881 O 938.733 1.621 -1.06945 0
M  V30 9882 C 935.863 2.64914 -2.24584 0
M  V30 9883 C 934.817 2.59565 -3.40308 0
M  V30 9884 C 934.143 3.98732 -3.56254 0
M  V30 9885 C 935.443 2.15642 -4.75706 0
M  V30 9886 H 937.137 0.977552 -2.82992 0
M  V30 9887 H 934.683 0.468804 -1.36155 0
M  V30 9888 H 936.636 3.39209 -2.50031 0
M  V30 9889 H 935.36 2.98455 -1.32636 0
M  V30 9890 H 934.019 1.87728 -3.14887 0
M  V30 9891 H 933.667 4.29556 -2.61707 0
M  V30 9892 H 933.367 3.96039 -4.34082 0
M  V30 9893 H 934.891 4.74711 -3.84033 0
M  V30 9894 H 936.305 2.79673 -5.00456 0
M  V30 9895 H 934.702 2.24039 -5.56711 0
M  V30 9896 H 935.772 1.10831 -4.72064 0
M  V30 9897 N 937.115 1.49373 0.502552 0
M  V30 9898 C 938.531 1.36101 0.833591 0
M  V30 9899 C 938.731 0.392911 1.97632 0
M  V30 9900 O 937.787 -0.175975 2.51886 0
M  V30 9901 C 939.1 2.76782 1.17526 0
M  V30 9902 C 940.648 2.85471 1.28356 0
M  V30 9903 C 941.123 4.26915 1.65853 0
M  V30 9904 N 942.614 4.29719 1.72905 0
M  V30 9905 C 943.349 5.36127 2.0336 0
M  V30 9906 N 942.845 6.52782 2.32049 0
M  V30 9907 N 944.638 5.23542 2.04598 0
M  V30 9908 H 936.789 2.10912 -0.251008 0
M  V30 9909 H 939.052 0.946696 -0.0497037 0
M  V30 9910 H 938.758 3.49314 0.408965 0
M  V30 9911 H 938.632 3.1205 2.11907 0
M  V30 9912 H 941.019 2.13177 2.04058 0
M  V30 9913 H 941.1 2.53787 0.320304 0
M  V30 9914 H 940.744 4.99735 0.907022 0
M  V30 9915 H 940.674 4.56063 2.63276 0
M  V30 9916 H 943.165 3.45586 1.529 0
M  V30 9917 H 943.478 7.29701 2.54471 0
M  V30 9918 H 941.823 6.56011 2.29509 0
M  V30 9919 H 945.014 4.31413 1.8166 0
M  V30 9920 H 945.187 6.06565 2.27998 0
M  V30 9921 N 938.594 -0.753485 1.38421 0
M  V30 9922 C 940.005 -1.33081 1.30944 0
M  V30 9923 C 940.356 -1.96169 -0.0347124 0
M  V30 9924 O 939.481 -1.95073 -0.936768 0
M  V30 9925 C 940.076 -2.41973 2.37138 0
M  V30 9926 C 938.635 -2.95426 2.33239 0
M  V30 9927 C 937.782 -1.68808 2.19998 0
M  V30 9928 H 940.733 -0.552354 1.48777 0
M  V30 9929 H 940.754 -3.21913 2.02859 0
M  V30 9930 H 940.266 -1.96027 3.34956 0
M  V30 9931 H 938.367 -3.45701 1.39003 0
M  V30 9932 H 938.48 -3.49798 3.27381 0
M  V30 9933 H 936.844 -1.92438 1.66852 0
M  V30 9934 H 937.627 -1.24939 3.19758 0
M  V30 9935 N 940.072 -1.23292 -0.981677 0
M  V30 9936 C 941.32 -1.06214 -1.71939 0
M  V30 9937 C 941.641 0.401989 -1.90812 0
M  V30 9938 O 940.911 1.28825 -1.47584 0
M  V30 9939 H 939.491 -0.390042 -0.637084 0
M  V30 9940 H 942.153 -1.54988 -1.18173 0
M  V30 9941 H 941.249 -1.54904 -2.70945 0
M  V30 9942 N 941.55 1.18024 -1.04442 0
M  V30 9943 C 942.966 1.40107 -0.76435 0
M  V30 9944 C 943.166 1.90914 0.644516 0
M  V30 9945 O 942.222 2.0959 1.40813 0
M  V30 9946 C 943.535 2.39851 -1.81361 0
M  V30 9947 C 945.083 2.53571 -1.83496 0
M  V30 9948 C 945.558 3.56583 -2.87424 0
M  V30 9949 N 947.049 3.64094 -2.86339 0
M  V30 9950 C 947.784 4.43537 -3.63405 0
M  V30 9951 N 947.28 5.26557 -4.50233 0
M  V30 9952 N 949.073 4.38336 -3.51877 0
M  V30 9953 H 941.224 0.833726 -1.95353 0
M  V30 9954 H 943.487 0.42881 -0.845474 0
M  V30 9955 H 943.193 2.09576 -2.82438 0
M  V30 9956 H 943.067 3.39251 -1.6489 0
M  V30 9957 H 945.454 2.83161 -0.830883 0
M  V30 9958 H 945.535 1.54272 -2.04044 0
M  V30 9959 H 945.179 3.27733 -3.88012 0
M  V30 9960 H 945.109 4.55569 -2.6413 0
M  V30 9961 H 947.6 3.04814 -2.23376 0
M  V30 9962 H 947.913 5.84336 -5.05738 0
M  V30 9963 H 946.258 5.25964 -4.54298 0
M  V30 9964 H 949.449 3.72528 -2.83444 0
M  V30 9965 H 949.622 5.00007 -4.12186 0
M  V30 9966 N 943.028 0.824394 1.34319 0
M  V30 9967 C 943.958 0.262077 2.32025 0
M  V30 9968 C 944.939 -0.622277 1.58309 0
M  V30 9969 O 946.124 -0.548848 1.86283 0
M  V30 9970 C 943.254 -0.57567 3.42496 0
M  V30 9971 C 942.208 0.21167 4.27476 0
M  V30 9972 C 941.534 -0.748913 5.29429 0
M  V30 9973 C 942.834 1.42068 5.02607 0
M  V30 9974 H 944.528 1.07842 2.79304 0
M  V30 9975 H 942.074 0.520022 1.34282 0
M  V30 9976 H 944.027 -0.979251 4.09864 0
M  V30 9977 H 942.751 -1.42508 2.93869 0
M  V30 9978 H 941.41 0.596636 3.61712 0
M  V30 9979 H 941.058 -1.59432 4.77064 0
M  V30 9980 H 940.758 -0.226313 5.87164 0
M  V30 9981 H 942.282 -1.15032 5.99667 0
M  V30 9982 H 943.696 1.09103 5.62823 0
M  V30 9983 H 942.093 1.87903 5.69923 0
M  V30 9984 H 943.163 2.1981 4.32217 0
M  V30 9985 N 944.506 -1.46559 0.579492 0
M  V30 9986 C 945.783 -1.956 -0.00287136 0
M  V30 9987 C 946.163 -1.52215 -1.46266 0
M  V30 9988 O 945.511 -0.771335 -2.15088 0
M  V30 9989 C 945.721 -3.48606 0.165824 0
M  V30 9990 C 947.069 -4.24588 0.0319807 0
M  V30 9991 O 948.093 -3.56075 0.094496 0
M  V30 9992 O 946.952 -5.46396 -0.106386 0
M  V30 9993 H 944.046 -0.825387 -0.0516274 0
M  V30 9994 H 946.592 -1.56858 0.647584 0
M  V30 9995 H 945.364 -3.7306 1.18076 0
M  V30 9996 H 944.987 -3.94169 -0.521212 0
M  V30 9997 N 945.984 -0.3171 -1.54377 0
M  V30 9998 C 946.916 0.58571 -2.2159 0
M  V30 9999 C 947.929 1.08495 -1.21378 0
M  V30 10000 O 949.118 0.999638 -1.47883 0
M  V30 10001 C 946.218 1.8157 -2.86156 0
M  V30 10002 C 945.391 1.45625 -4.12447 0
M  V30 10003 C 944.45 2.54308 -4.60667 0
M  V30 10004 O 943.476 2.18724 -5.25498 0
M  V30 10005 N 944.678 3.85129 -4.34345 0
M  V30 10006 H 947.443 0.0102247 -2.99698 0
M  V30 10007 H 945.004 -0.140011 -1.61293 0
M  V30 10008 H 946.996 2.53657 -3.15341 0
M  V30 10009 H 945.566 2.29919 -2.11793 0
M  V30 10010 H 944.786 0.567294 -3.90097 0
M  V30 10011 H 946.074 1.19169 -4.94648 0
M  V30 10012 H 945.472 4.16841 -3.8244 0
M  V30 10013 H 944.029 4.53466 -4.68201 0
M  V30 10014 N 947.462 1.57535 -0.0451378 0
M  V30 10015 C 948.392 2.14208 0.929372 0
M  V30 10016 C 949.373 1.06221 1.32858 0
M  V30 10017 O 950.558 1.34132 1.40436 0
M  V30 10018 C 947.688 2.68217 2.20629 0
M  V30 10019 C 946.642 3.81134 1.94734 0
M  V30 10020 C 945.968 4.21636 3.28828 0
M  V30 10021 C 947.268 5.06531 1.27374 0
M  V30 10022 H 948.962 2.95886 0.457348 0
M  V30 10023 H 946.508 1.42332 0.218544 0
M  V30 10024 H 948.461 3.06502 2.89196 0
M  V30 10025 H 947.185 1.83722 2.70026 0
M  V30 10026 H 945.844 3.43312 1.28579 0
M  V30 10027 H 945.492 3.34099 3.76014 0
M  V30 10028 H 945.192 4.97736 3.12302 0
M  V30 10029 H 946.716 4.62516 3.98637 0
M  V30 10030 H 948.13 5.423 1.85967 0
M  V30 10031 H 946.527 5.87735 1.21194 0
M  V30 10032 H 947.597 4.84261 0.248913 0
M  V30 10033 N 948.94 -0.228186 1.55939 0
M  V30 10034 C 950.189 -0.951563 1.77843 0
M  V30 10035 C 950.502 -1.85763 0.612501 0
M  V30 10036 O 951.708 -2.61916 0.715006 0
M  V30 10037 C 950.164 -1.74216 3.14923 0
M  V30 10038 C 949.772 -0.882569 4.39221 0
M  V30 10039 C 951.516 -2.45715 3.46156 0
M  V30 10040 C 949.423 -1.67014 5.67327 0
M  V30 10041 H 948.353 -0.359035 0.663031 0
M  V30 10042 H 951.004 -0.205636 1.82344 0
M  V30 10043 H 949.386 -2.53075 3.0458 0
M  V30 10044 H 950.56 -0.13499 4.60602 0
M  V30 10045 H 948.875 -0.280022 4.15457 0
M  V30 10046 H 951.472 -3.05127 4.39092 0
M  V30 10047 H 951.815 -3.1827 2.68346 0
M  V30 10048 H 952.348 -1.73852 3.57799 0
M  V30 10049 H 949.087 -0.987985 6.48012 0
M  V30 10050 H 948.607 -2.3925 5.50018 0
M  V30 10051 H 950.286 -2.23252 6.07262 0
M  V30 10052 N 950.418 -1.49637 -0.494624 0
M  V30 10053 C 951.648 -1.62928 -1.27036 0
M  V30 10054 C 952.056 -0.302464 -1.86767 0
M  V30 10055 O 951.399 0.722878 -1.68879 0
M  V30 10056 C 951.461 -2.64449 -2.43531 0
M  V30 10057 C 951.125 -4.08632 -2.0462 0
M  V30 10058 C 952.122 -4.95238 -1.58225 0
M  V30 10059 C 949.807 -4.54405 -2.1406 0
M  V30 10060 C 951.801 -6.25658 -1.21782 0
M  V30 10061 C 949.488 -5.84836 -1.77228 0
M  V30 10062 C 950.486 -6.70287 -1.31165 0
M  V30 10063 O 950.174 -7.98287 -0.948339 0
M  V30 10064 H 949.906 -0.551263 -0.391261 0
M  V30 10065 H 952.46 -1.96453 -0.599621 0
M  V30 10066 H 950.69 -2.26117 -3.137 0
M  V30 10067 H 952.379 -2.67203 -3.05545 0
M  V30 10068 H 953.145 -4.611 -1.50373 0
M  V30 10069 H 949.024 -3.88056 -2.48865 0
M  V30 10070 H 952.568 -6.92309 -0.857566 0
M  V30 10071 H 948.465 -6.18502 -1.84732 0
M  V30 10072 H 949.233 -8.11353 -1.07925 0
M  V30 10073 N 951.896 0.746133 -1.38819 0
M  V30 10074 C 953.145 1.50085 -1.34749 0
M  V30 10075 C 953.458 1.95516 0.0574786 0
M  V30 10076 O 954.664 2.70601 0.22073 0
M  V30 10077 C 953.12 2.71141 -2.36665 0
M  V30 10078 C 952.728 2.32706 -3.82821 0
M  V30 10079 C 954.472 3.49005 -2.41652 0
M  V30 10080 C 952.379 3.50418 -4.76405 0
M  V30 10081 H 951.309 0.563563 -0.500912 0
M  V30 10082 H 953.96 0.814951 -1.6441 0
M  V30 10083 H 952.342 3.4175 -2.00058 0
M  V30 10084 H 953.516 1.69715 -4.28408 0
M  V30 10085 H 951.831 1.67959 -3.81023 0
M  V30 10086 H 954.428 4.36541 -3.08766 0
M  V30 10087 H 954.771 3.90687 -1.43769 0
M  V30 10088 H 955.304 2.85416 -2.77097 0
M  V30 10089 H 952.043 3.13795 -5.75511 0
M  V30 10090 H 951.563 4.12426 -4.35505 0
M  V30 10091 H 953.242 4.16901 -4.94775 0
M  V30 10092 N 953.375 1.23811 0.975125 0
M  V30 10093 C 954.786 1.0675 1.53171 0
M  V30 10094 C 955.137 -0.363475 1.92804 0
M  V30 10095 O 954.262 -1.25089 1.76583 0
M  V30 10096 C 954.857 1.93161 2.78342 0
M  V30 10097 C 953.416 1.80346 3.30382 0
M  V30 10098 C 952.563 1.88544 2.03338 0
M  V30 10099 H 955.514 1.37396 0.79423 0
M  V30 10100 H 955.535 1.45951 3.51395 0
M  V30 10101 H 955.047 2.97302 2.49465 0
M  V30 10102 H 953.148 0.790077 3.64127 0
M  V30 10103 H 953.261 2.64026 3.99784 0
M  V30 10104 H 951.625 1.32186 2.17713 0
M  V30 10105 H 952.408 2.94252 1.76836 0
M  V30 10106 N 954.853 -1.17469 1.05066 0
M  V30 10107 C 955.783 -2.23635 0.671552 0
M  V30 10108 C 956.764 -1.66867 -0.33006 0
M  V30 10109 O 957.949 -1.93084 -0.207933 0
M  V30 10110 C 955.079 -3.47272 0.0441845 0
M  V30 10111 C 954.033 -4.16854 0.97042 0
M  V30 10112 C 953.359 -5.34299 0.206998 0
M  V30 10113 C 954.659 -4.69225 2.29401 0
M  V30 10114 H 956.353 -2.55602 1.55911 0
M  V30 10115 H 953.899 -1.2286 0.751101 0
M  V30 10116 H 955.852 -4.20756 -0.23282 0
M  V30 10117 H 954.576 -3.14568 -0.878311 0
M  V30 10118 H 953.235 -3.4528 1.23197 0
M  V30 10119 H 952.883 -4.97846 -0.718222 0
M  V30 10120 H 952.583 -5.81792 0.82416 0
M  V30 10121 H 954.107 -6.10568 -0.0627525 0
M  V30 10122 H 955.521 -5.34353 2.077 0
M  V30 10123 H 953.918 -5.27291 2.86503 0
M  V30 10124 H 954.988 -3.86102 2.93348 0
M  V30 10125 N 956.331 -0.831506 -1.3388 0
M  V30 10126 C 957.742 -0.481375 -1.80388 0
M  V30 10127 C 958.093 0.998993 -1.68863 0
M  V30 10128 O 957.218 1.77795 -1.2336 0
M  V30 10129 C 957.813 -0.86699 -3.27519 0
M  V30 10130 C 956.372 -0.569105 -3.72073 0
M  V30 10131 C 955.519 -1.07929 -2.55434 0
M  V30 10132 H 958.47 -1.02089 -1.21505 0
M  V30 10133 H 958.491 -0.174128 -3.80101 0
M  V30 10134 H 958.003 -1.94447 -3.35875 0
M  V30 10135 H 956.104 0.498607 -3.69249 0
M  V30 10136 H 956.217 -1.11918 -4.65845 0
M  V30 10137 H 954.581 -0.500465 -2.49735 0
M  V30 10138 H 955.364 -2.16339 -2.66556 0
M  V30 10139 N 957.809 1.4625 -0.587256 0
M  V30 10140 C 959.086 1.95599 -0.00750181 0
M  V30 10141 C 959.466 1.52989 1.45457 0
M  V30 10142 O 958.814 0.782731 2.14676 0
M  V30 10143 C 959.024 3.48513 -0.184309 0
M  V30 10144 C 960.372 4.24565 -0.0544972 0
M  V30 10145 O 961.396 3.5602 -0.113378 0
M  V30 10146 O 960.255 5.46445 0.0774075 0
M  V30 10147 H 957.349 0.825649 0.0472495 0
M  V30 10148 H 959.895 1.56512 -0.655893 0
M  V30 10149 H 958.667 3.72428 -1.20053 0
M  V30 10150 H 958.29 3.9444 0.500301 0
M  V30 10151 N 959.287 0.325282 1.54207 0
M  V30 10152 C 960.197 -0.548778 2.28091 0
M  V30 10153 C 961.213 -1.12772 1.32508 0
M  V30 10154 O 962.389 -1.14732 1.65525 0
M  V30 10155 C 959.454 -1.69284 3.02562 0
M  V30 10156 C 958.515 -1.14553 4.13734 0
M  V30 10157 C 957.748 -2.23506 4.84645 0
M  V30 10158 O 957.971 -3.43884 4.55082 0
M  V30 10159 O 956.905 -1.88828 5.71513 0
M  V30 10160 H 960.731 0.0512974 3.03657 0
M  V30 10161 H 958.316 0.0909159 1.49123 0
M  V30 10162 H 960.198 -2.35887 3.49192 0
M  V30 10163 H 958.873 -2.27906 2.2987 0
M  V30 10164 H 957.78 -0.444532 3.71449 0
M  V30 10165 H 959.113 -0.60441 4.88475 0
M  V30 10166 N 960.765 -1.57509 0.0534917 0
M  V30 10167 C 961.712 -2.11667 -0.920101 0
M  V30 10168 C 962.682 -1.0246 -1.30733 0
M  V30 10169 O 963.867 -1.30021 -1.39639 0
M  V30 10170 C 961.007 -2.66803 -2.18883 0
M  V30 10171 C 960.12 -3.90104 -1.85588 0
M  V30 10172 C 959.255 -4.33547 -3.06937 0
M  V30 10173 C 958.294 -5.49542 -2.69573 0
M  V30 10174 N 957.431 -5.88029 -3.83623 0
M  V30 10175 H 962.271 -2.94562 -0.451371 0
M  V30 10176 H 959.808 -1.45576 -0.211168 0
M  V30 10177 H 961.766 -2.96871 -2.93127 0
M  V30 10178 H 960.396 -1.86702 -2.63329 0
M  V30 10179 H 959.448 -3.66613 -1.01484 0
M  V30 10180 H 960.76 -4.74404 -1.54087 0
M  V30 10181 H 959.914 -4.6518 -3.89477 0
M  V30 10182 H 958.653 -3.48064 -3.41618 0
M  V30 10183 H 957.658 -5.17579 -1.8545 0
M  V30 10184 H 958.883 -6.36743 -2.36082 0
M  V30 10185 H 956.829 -5.05498 -4.181 0
M  V30 10186 H 956.746 -6.67025 -3.55828 0
M  V30 10187 H 958.014 -6.24277 -4.66796 0
M  V30 10188 N 962.243 0.219913 -1.56058 0
M  V30 10189 C 963.468 0.965073 -1.83579 0
M  V30 10190 C 963.893 1.77092 -0.634024 0
M  V30 10191 O 963.251 1.76434 0.417205 0
M  V30 10192 C 963.299 1.85705 -3.09105 0
M  V30 10193 O 962.403 2.95261 -2.87914 0
M  V30 10194 H 961.744 0.273173 -0.605204 0
M  V30 10195 H 964.274 0.23273 -2.03272 0
M  V30 10196 H 964.284 2.26655 -3.39252 0
M  V30 10197 H 962.959 1.26476 -3.96203 0
M  V30 10198 H 961.536 2.58246 -2.69005 0
M  V30 10199 N 963.721 1.49897 0.486681 0
M  V30 10200 C 965.137 1.36977 0.819109 0
M  V30 10201 C 965.337 0.41385 1.97204 0
M  V30 10202 O 964.393 -0.149249 2.52059 0
M  V30 10203 C 965.706 2.78013 1.14584 0
M  V30 10204 C 967.254 2.86816 1.25321 0
M  V30 10205 C 967.729 4.28651 1.61316 0
M  V30 10206 N 969.22 4.31528 1.68337 0
M  V30 10207 C 969.955 5.38254 1.97662 0
M  V30 10208 N 969.451 6.55207 2.25113 0
M  V30 10209 N 971.244 5.25683 1.99033 0
M  V30 10210 H 963.395 2.10634 -0.273364 0
M  V30 10211 H 965.658 0.946116 -0.0597418 0
M  V30 10212 H 965.364 3.49728 0.371892 0
M  V30 10213 H 965.238 3.1428 2.08585 0
M  V30 10214 H 967.625 2.15329 2.01785 0
M  V30 10215 H 967.706 2.54112 0.293368 0
M  V30 10216 H 967.35 5.00669 0.853968 0
M  V30 10217 H 967.28 4.5883 2.58424 0
M  V30 10218 H 969.771 3.47189 1.49226 0
M  V30 10219 H 970.084 7.32359 2.46717 0
M  V30 10220 H 968.429 6.58408 2.22538 0
M  V30 10221 H 971.62 4.33316 1.77074 0
M  V30 10222 H 971.793 6.08949 2.21552 0
M  V30 10223 N 965.199 -0.738761 1.39212 0
M  V30 10224 C 966.445 -1.50046 1.36433 0
M  V30 10225 C 966.778 -1.94157 -0.0409474 0
M  V30 10226 O 966.053 -1.66515 -1.00514 0
M  V30 10227 C 966.336 -2.74277 2.33333 0
M  V30 10228 C 966.189 -2.36209 3.82786 0
M  V30 10229 C 967.508 -3.76361 2.28123 0
M  V30 10230 H 964.627 -0.544294 0.496903 0
M  V30 10231 H 967.269 -0.845005 1.70175 0
M  V30 10232 H 965.419 -3.30204 2.04689 0
M  V30 10233 H 967.091 -1.85942 4.22165 0
M  V30 10234 H 965.334 -1.68483 3.99745 0
M  V30 10235 H 966.005 -3.25156 4.46069 0
M  V30 10236 H 968.481 -3.30009 2.53443 0
M  V30 10237 H 967.357 -4.60957 2.9801 0
M  V30 10238 H 967.618 -4.23013 1.28499 0
M  V30 10239 N 966.677 -1.24326 -0.968545 0
M  V30 10240 C 967.64 -1.03591 -2.04454 0
M  V30 10241 C 968.64 0.0064809 -1.60799 0
M  V30 10242 O 969.83 -0.234404 -1.72616 0
M  V30 10243 C 966.962 -0.56992 -3.36102 0
M  V30 10244 H 968.155 -1.99092 -2.24282 0
M  V30 10245 H 965.708 -1.06537 -1.14366 0
M  V30 10246 H 966.443 0.388325 -3.21967 0
M  V30 10247 H 966.228 -1.32227 -3.69132 0
M  V30 10248 H 967.718 -0.445854 -4.15213 0
M  V30 10249 N 968.156 1.1691 -1.05688 0
M  V30 10250 C 969.405 1.86629 -0.765022 0
M  V30 10251 C 969.718 1.82223 0.710918 0
M  V30 10252 O 970.924 2.47462 1.11691 0
M  V30 10253 C 969.38 3.34886 -1.3183 0
M  V30 10254 C 968.988 3.47781 -2.82404 0
M  V30 10255 C 970.732 4.099 -1.10372 0
M  V30 10256 C 968.639 4.9009 -3.31008 0
M  V30 10257 H 967.569 0.699082 -0.282491 0
M  V30 10258 H 970.22 1.31989 -1.27481 0
M  V30 10259 H 968.602 3.89094 -0.736312 0
M  V30 10260 H 969.776 3.03765 -3.46502 0
M  V30 10261 H 968.091 2.86193 -3.02461 0
M  V30 10262 H 970.688 5.14894 -1.4418 0
M  V30 10263 H 971.031 4.16279 -0.0417372 0
M  V30 10264 H 971.564 3.61913 -1.65117 0
M  V30 10265 H 968.303 4.88887 -4.36657 0
M  V30 10266 H 967.823 5.34756 -2.71655 0
M  V30 10267 H 969.502 5.58881 -3.25977 0
M  V30 10268 N 969.634 0.838594 1.33437 0
M  V30 10269 C 970.564 0.286672 2.31734 0
M  V30 10270 C 971.545 -0.605451 1.5896 0
M  V30 10271 O 972.73 -0.529059 1.86854 0
M  V30 10272 C 969.86 -0.539311 3.43087 0
M  V30 10273 C 968.814 0.256997 4.27228 0
M  V30 10274 C 968.14 -0.692718 5.30194 0
M  V30 10275 C 969.44 1.47391 5.01072 0
M  V30 10276 H 971.134 1.10798 2.78144 0
M  V30 10277 H 968.68 0.534235 1.33723 0
M  V30 10278 H 970.633 -0.935724 4.1088 0
M  V30 10279 H 969.357 -1.39383 2.95364 0
M  V30 10280 H 968.016 0.634967 3.61059 0
M  V30 10281 H 967.664 -1.54363 4.78729 0
M  V30 10282 H 967.364 -0.164023 5.87371 0
M  V30 10283 H 968.888 -1.08665 6.00853 0
M  V30 10284 H 970.302 1.15067 5.61634 0
M  V30 10285 H 968.699 1.93937 5.67898 0
M  V30 10286 H 969.769 2.24382 4.29861 0
M  V30 10287 N 971.112 -1.45937 0.595003 0
M  V30 10288 C 972.059 -2.30427 -0.131165 0
M  V30 10289 C 973.029 -1.41355 -0.872232 0
M  V30 10290 O 974.214 -1.70296 -0.860467 0
M  V30 10291 C 971.354 -3.26045 -1.13087 0
M  V30 10292 C 970.467 -4.30218 -0.391982 0
M  V30 10293 C 969.602 -5.12953 -1.3803 0
M  V30 10294 C 968.641 -6.08865 -0.628505 0
M  V30 10295 N 967.778 -6.84425 -1.56548 0
M  V30 10296 H 972.618 -2.91992 0.595359 0
M  V30 10297 H 970.155 -1.43895 0.305405 0
M  V30 10298 H 972.113 -3.79937 -1.72348 0
M  V30 10299 H 970.743 -2.66261 -1.82496 0
M  V30 10300 H 969.795 -3.79086 0.315895 0
M  V30 10301 H 971.107 -4.98418 0.195173 0
M  V30 10302 H 970.261 -5.71184 -2.04534 0
M  V30 10303 H 969 -4.44743 -2.00138 0
M  V30 10304 H 968.005 -5.49777 0.0502431 0
M  V30 10305 H 969.23 -6.79099 -0.012641 0
M  V30 10306 H 967.176 -6.18913 -2.17444 0
M  V30 10307 H 967.093 -7.48931 -1.03145 0
M  V30 10308 H 968.361 -7.47204 -2.22049 0
M  V30 10309 N 972.59 -0.333456 -1.54032 0
M  V30 10310 C 973.553 0.515392 -2.2333 0
M  V30 10311 C 974.553 1.03566 -1.23007 0
M  V30 10312 O 975.743 0.926514 -1.47517 0
M  V30 10313 C 972.875 1.7169 -2.94508 0
M  V30 10314 H 974.068 -0.0905407 -2.99763 0
M  V30 10315 H 971.621 -0.0846651 -1.56071 0
M  V30 10316 H 972.356 2.3618 -2.22237 0
M  V30 10317 H 972.141 1.35115 -3.68085 0
M  V30 10318 H 973.631 2.31922 -3.47278 0
M  V30 10319 N 974.068 1.57479 -0.061844 0
M  V30 10320 C 975.016 2.13346 0.926629 0
M  V30 10321 C 976.01 1.06787 1.31502 0
M  V30 10322 O 977.216 1.25181 1.29343 0
M  V30 10323 H 973.591 0.682046 0.316729 0
M  V30 10324 H 975.562 2.95279 0.430424 0
M  V30 10325 C 974.311 2.70198 2.18834 0
M  V30 10326 H 973.634 3.51859 1.89829 0
M  V30 10327 H 975.074 3.12897 2.86132 0
M  V30 10328 C 973.533 1.64481 2.9402 0
M  V30 10329 O 974.063 1.0639 3.87355 0
M  V30 10330 N 972.269 1.35749 2.56944 0
M  V30 10331 H 971.816 1.83177 1.81119 0
M  V30 10332 H 971.774 0.652469 3.07555 0
M  V30 10333 N 975.546 -0.211634 1.56173 0
M  V30 10334 C 976.476 -1.26533 1.96244 0
M  V30 10335 C 977.457 -1.48362 0.832028 0
M  V30 10336 O 978.642 -1.60378 1.0951 0
M  V30 10337 C 975.772 -2.61307 2.2877 0
M  V30 10338 C 974.726 -2.54119 3.44395 0
M  V30 10339 C 974.052 -3.93014 3.62552 0
M  V30 10340 C 975.352 -2.08046 4.79076 0
M  V30 10341 H 977.046 -0.932407 2.84511 0
M  V30 10342 H 974.592 -0.447084 1.36884 0
M  V30 10343 H 976.545 -3.35188 2.55396 0
M  V30 10344 H 975.269 -2.96307 1.37367 0
M  V30 10345 H 973.928 -1.82694 3.17834 0
M  V30 10346 H 973.576 -4.25338 2.68508 0
M  V30 10347 H 973.276 -3.89083 4.40327 0
M  V30 10348 H 974.8 -4.68542 3.91537 0
M  V30 10349 H 976.214 -2.71676 5.04842 0
M  V30 10350 H 974.611 -2.15154 5.60204 0
M  V30 10351 H 975.681 -1.03306 4.73768 0
M  V30 10352 N 977.024 -1.50153 -0.478725 0
M  V30 10353 C 978.44 -1.3741 -0.811833 0
M  V30 10354 C 978.64 -0.424303 -1.96982 0
M  V30 10355 O 977.696 0.13588 -2.52134 0
M  V30 10356 C 979.009 -2.78616 -1.13108 0
M  V30 10357 C 980.557 -2.87477 -1.23798 0
M  V30 10358 C 981.032 -4.295 -1.5904 0
M  V30 10359 N 982.523 -4.32415 -1.66047 0
M  V30 10360 C 983.258 -5.39295 -1.94805 0
M  V30 10361 N 982.754 -6.56392 -2.21635 0
M  V30 10362 N 984.547 -5.26731 -1.96243 0
M  V30 10363 H 976.698 -2.10486 0.284531 0
M  V30 10364 H 978.961 -0.945786 0.0647585 0
M  V30 10365 H 978.667 -3.49921 -0.35334 0
M  V30 10366 H 978.541 -3.15382 -2.06915 0
M  V30 10367 H 980.928 -2.16396 -2.00641 0
M  V30 10368 H 981.009 -2.54264 -0.279888 0
M  V30 10369 H 980.653 -5.01115 -0.827404 0
M  V30 10370 H 980.583 -4.60194 -2.55987 0
M  V30 10371 H 983.074 -3.47975 -1.47383 0
M  V30 10372 H 983.387 -7.33658 -2.4283 0
M  V30 10373 H 981.732 -6.59579 -2.19043 0
M  V30 10374 H 984.923 -4.34249 -1.74773 0
M  V30 10375 H 985.096 -6.10115 -2.1832 0
M  V30 10376 N 978.502 0.731368 -1.39602 0
M  V30 10377 C 979.449 1.84541 -1.38612 0
M  V30 10378 C 980.419 1.64279 -0.245287 0
M  V30 10379 O 981.604 1.85635 -0.440954 0
M  V30 10380 C 978.744 3.22092 -1.23897 0
M  V30 10381 C 977.857 3.54034 -2.47555 0
M  V30 10382 C 976.992 4.81007 -2.25402 0
M  V30 10383 C 976.031 5.05804 -3.44716 0
M  V30 10384 N 975.168 6.23981 -3.21857 0
M  V30 10385 H 980.008 1.84722 -2.33841 0
M  V30 10386 H 977.545 0.902569 -1.16156 0
M  V30 10387 H 979.503 4.01499 -1.13376 0
M  V30 10388 H 978.133 3.2118 -0.322958 0
M  V30 10389 H 977.185 2.69301 -2.68665 0
M  V30 10390 H 978.497 3.68275 -3.36415 0
M  V30 10391 H 977.651 5.68401 -2.12143 0
M  V30 10392 H 976.39 4.68946 -1.33943 0
M  V30 10393 H 975.395 4.1687 -3.58468 0
M  V30 10394 H 976.62 5.19747 -4.37081 0
M  V30 10395 H 974.566 6.13202 -2.33065 0
M  V30 10396 H 974.483 6.38826 -4.04274 0
M  V30 10397 H 975.751 7.14205 -3.123 0
M  V30 10398 N 979.98 1.24838 0.961938 0
M  V30 10399 C 981.205 1.11967 1.7458 0
M  V30 10400 C 981.63 -0.323287 1.85301 0
M  V30 10401 O 980.988 -1.23412 1.32812 0
M  V30 10402 C 981.036 1.77066 3.14134 0
M  V30 10403 O 980.14 1.04534 3.98932 0
M  V30 10404 H 979.481 0.391338 0.536424 0
M  V30 10405 H 982.011 1.65259 1.20626 0
M  V30 10406 H 982.021 1.83056 3.64629 0
M  V30 10407 H 980.696 2.82052 3.05646 0
M  V30 10408 H 979.273 1.06372 3.57407 0
M  V30 10409 N 981.458 -1.16348 1.06306 0
M  V30 10410 C 982.869 -1.68491 0.80422 0
M  V30 10411 C 983.22 -1.84327 -0.672159 0
M  V30 10412 O 982.345 -1.53892 -1.52139 0
M  V30 10413 C 982.94 -3.06048 1.45328 0
M  V30 10414 C 981.499 -3.55311 1.24221 0
M  V30 10415 C 980.646 -2.31291 1.5297 0
M  V30 10416 H 983.597 -1.00708 1.22652 0
M  V30 10417 H 983.618 -3.70451 0.868674 0
M  V30 10418 H 983.13 -2.9449 2.52779 0
M  V30 10419 H 981.231 -3.72128 0.187447 0
M  V30 10420 H 981.344 -4.37397 1.95502 0
M  V30 10421 H 979.708 -2.3631 0.950241 0
M  V30 10422 H 980.491 -2.22331 2.6158 0
M  V30 10423 N 982.937 -0.845659 -1.3299 0
M  V30 10424 C 984.183 -0.445311 -1.9785 0
M  V30 10425 C 984.516 0.994476 -1.66805 0
M  V30 10426 O 983.791 1.69636 -0.95151 0
M  V30 10427 C 984.074 -0.674371 -3.53729 0
M  V30 10428 C 983.927 -2.16192 -3.94437 0
M  V30 10429 C 985.246 -0.124908 -4.39923 0
M  V30 10430 H 982.365 -0.163269 -0.718688 0
M  V30 10431 H 985.007 -1.06242 -1.5752 0
M  V30 10432 H 983.157 -0.149091 -3.88214 0
M  V30 10433 H 984.829 -2.75259 -3.70176 0
M  V30 10434 H 983.072 -2.64386 -3.43922 0
M  V30 10435 H 983.743 -2.27292 -5.03033 0
M  V30 10436 H 986.219 -0.573986 -4.12122 0
M  V30 10437 H 985.095 -0.314816 -5.47996 0
M  V30 10438 H 985.356 0.971758 -4.31288 0
M  V30 10439 N 984.415 1.45619 -0.602734 0
M  V30 10440 C 985.378 2.28941 0.108962 0
M  V30 10441 C 986.378 1.39501 0.799762 0
M  V30 10442 O 987.568 1.61673 0.648663 0
M  V30 10443 C 984.7 3.204 1.16432 0
M  V30 10444 H 985.893 2.93346 -0.623534 0
M  V30 10445 H 983.446 1.52061 -0.361565 0
M  V30 10446 H 984.181 2.60785 1.92774 0
M  V30 10447 H 983.966 3.86277 0.673248 0
M  V30 10448 H 985.456 3.83063 1.6629 0
M  V30 10449 N 985.893 0.34162 1.53853 0
M  V30 10450 C 986.84 -0.516058 2.24957 0
M  V30 10451 C 987.81 -1.09711 1.2471 0
M  V30 10452 O 988.995 -1.13409 1.53438 0
M  V30 10453 C 986.135 -1.66207 3.02439 0
M  V30 10454 C 985.248 -1.10851 4.17536 0
M  V30 10455 C 984.383 -2.22167 4.82509 0
M  V30 10456 C 983.422 -1.64152 5.89678 0
M  V30 10457 N 982.559 -2.69203 6.4844 0
M  V30 10458 H 987.399 0.0968275 2.97843 0
M  V30 10459 H 984.936 0.0595565 1.46979 0
M  V30 10460 H 986.894 -2.33672 3.4562 0
M  V30 10461 H 985.524 -2.24597 2.31853 0
M  V30 10462 H 984.576 -0.324853 3.7901 0
M  V30 10463 H 985.888 -0.644151 4.94623 0
M  V30 10464 H 985.042 -2.97501 5.28751 0
M  V30 10465 H 983.781 -2.71946 4.04842 0
M  V30 10466 H 982.786 -0.873228 5.42821 0
M  V30 10467 H 984.011 -1.15228 6.69253 0
M  V30 10468 H 981.957 -3.1824 5.73637 0
M  V30 10469 H 981.874 -2.27383 7.20994 0
M  V30 10470 H 983.142 -3.44312 6.99335 0
M  V30 10471 N 987.371 -1.57444 0.0701946 0
M  V30 10472 C 988.648 -1.84826 -0.6402 0
M  V30 10473 C 989.028 -0.962344 -1.87889 0
M  V30 10474 O 988.376 -0.0282209 -2.28483 0
M  V30 10475 C 988.586 -3.34976 -0.979382 0
M  V30 10476 C 989.934 -4.02448 -1.35355 0
M  V30 10477 O 990.958 -3.39713 -1.07116 0
M  V30 10478 O 989.817 -5.13096 -1.88136 0
M  V30 10479 H 986.911 -0.763494 -0.317813 0
M  V30 10480 H 989.457 -1.69399 0.101004 0
M  V30 10481 H 988.229 -3.91173 -0.0995576 0
M  V30 10482 H 987.852 -3.5566 -1.7774 0
M  V30 10483 N 988.849 0.203349 -1.56283 0
M  V30 10484 C 990.095 0.926381 -1.80405 0
M  V30 10485 C 990.428 1.8325 -0.642883 0
M  V30 10486 O 989.703 1.91196 0.356998 0
M  V30 10487 C 989.986 1.74972 -3.14733 0
M  V30 10488 C 989.839 0.868866 -4.41328 0
M  V30 10489 C 991.158 2.72394 -3.45672 0
M  V30 10490 H 988.277 0.335346 -0.656286 0
M  V30 10491 H 990.919 0.1942 -1.89005 0
M  V30 10492 H 989.069 2.37394 -3.07533 0
M  V30 10493 H 990.741 0.259986 -4.60567 0
M  V30 10494 H 988.984 0.175161 -4.33446 0
M  V30 10495 H 989.655 1.47975 -5.31796 0
M  V30 10496 H 992.131 2.20105 -3.53119 0
M  V30 10497 H 991.007 3.27091 -4.40798 0
M  V30 10498 H 991.268 3.51035 -2.6875 0
M  V30 10499 N 990.327 1.50405 0.470755 0
M  V30 10500 C 991.604 1.51929 1.23195 0
M  V30 10501 C 991.984 0.264159 2.09441 0
M  V30 10502 O 991.332 -0.752395 2.15757 0
M  V30 10503 C 991.542 2.81521 2.06269 0
M  V30 10504 C 992.89 3.32195 2.64446 0
M  V30 10505 O 993.914 2.82845 2.16511 0
M  V30 10506 O 992.773 4.18221 3.51786 0
M  V30 10507 H 989.867 0.609411 0.559059 0
M  V30 10508 H 992.413 1.62695 0.482549 0
M  V30 10509 H 991.185 3.64346 1.42715 0
M  V30 10510 H 990.808 2.7376 2.88342 0
M  V30 10511 N 991.805 -0.723954 1.39988 0
M  V30 10512 C 992.735 -1.85103 1.42335 0
M  V30 10513 C 993.716 -1.6769 0.285297 0
M  V30 10514 O 994.901 -1.87846 0.492716 0
M  V30 10515 C 992.031 -3.22972 1.27697 0
M  V30 10516 C 990.985 -3.55041 2.39018 0
M  V30 10517 C 990.311 -4.91965 2.09462 0
M  V30 10518 C 991.611 -3.56889 3.8135 0
M  V30 10519 H 993.305 -1.83396 2.36656 0
M  V30 10520 H 990.851 -0.880926 1.13911 0
M  V30 10521 H 992.804 -4.01503 1.27958 0
M  V30 10522 H 991.528 -3.25233 0.298487 0
M  V30 10523 H 990.187 -2.78845 2.37993 0
M  V30 10524 H 989.835 -4.90819 1.10025 0
M  V30 10525 H 989.535 -5.14389 2.84038 0
M  V30 10526 H 991.059 -5.7284 2.11391 0
M  V30 10527 H 992.473 -4.25476 3.84243 0
M  V30 10528 H 990.87 -3.90836 4.55376 0
M  V30 10529 H 991.94 -2.56452 4.11534 0
M  V30 10530 N 993.283 -1.25346 -0.955304 0
M  V30 10531 C 994.193 -1.07412 -2.08566 0
M  V30 10532 C 995.209 -0.0114424 -1.73996 0
M  V30 10533 O 996.385 -0.212236 -2.00279 0
M  V30 10534 C 993.45 -0.694141 -3.3968 0
M  V30 10535 C 992.511 -1.83468 -3.88121 0
M  V30 10536 C 991.744 -1.47274 -5.12978 0
M  V30 10537 O 991.967 -0.368086 -5.69211 0
M  V30 10538 O 990.901 -2.30269 -5.56111 0
M  V30 10539 H 994.727 -2.02206 -2.26598 0
M  V30 10540 H 992.312 -1.04279 -1.06988 0
M  V30 10541 H 994.194 -0.494325 -4.18491 0
M  V30 10542 H 992.869 0.224545 -3.2292 0
M  V30 10543 H 991.776 -2.08935 -3.10318 0
M  V30 10544 H 993.109 -2.73258 -4.09379 0
M  V30 10545 N 994.761 1.15782 -1.06922 0
M  V30 10546 C 996.008 1.86465 -0.789752 0
M  V30 10547 C 996.336 1.82075 0.684022 0
M  V30 10548 O 995.591 1.23576 1.51748 0
M  V30 10549 C 995.89 3.35284 -1.2377 0
M  V30 10550 C 995.556 3.59871 -2.71668 0
M  V30 10551 C 994.218 3.6629 -3.12066 0
M  V30 10552 C 996.57 3.69929 -3.67154 0
M  V30 10553 C 993.898 3.80275 -4.46775 0
M  V30 10554 C 996.25 3.85436 -5.01619 0
M  V30 10555 C 994.914 3.901 -5.41644 0
M  V30 10556 H 994.184 0.682324 -0.288991 0
M  V30 10557 H 996.831 1.36861 -1.33945 0
M  V30 10558 H 995.136 3.87065 -0.607309 0
M  V30 10559 H 996.833 3.88371 -0.998431 0
M  V30 10560 H 993.423 3.55512 -2.39393 0
M  V30 10561 H 997.607 3.64274 -3.37073 0
M  V30 10562 H 992.863 3.8214 -4.77262 0
M  V30 10563 H 997.037 3.92161 -5.75485 0
M  V30 10564 H 994.664 4.00688 -6.46029 0
M  V30 10565 N 996.239 0.8527 1.3254 0
M  V30 10566 C 997.169 0.311234 2.31416 0
M  V30 10567 C 998.15 -0.588557 1.59593 0
M  V30 10568 O 999.335 -0.509211 1.87405 0
M  V30 10569 C 996.465 -0.502892 3.4364 0
M  V30 10570 C 995.419 0.302296 4.26931 0
M  V30 10571 C 994.745 -0.636445 5.30899 0
M  V30 10572 C 996.045 1.52697 4.99481 0
M  V30 10573 H 997.739 1.13742 2.76953 0
M  V30 10574 H 995.285 0.548389 1.33149 0
M  V30 10575 H 997.238 -0.892092 4.11849 0
M  V30 10576 H 995.962 -1.36242 2.96826 0
M  V30 10577 H 994.621 0.673226 3.60365 0
M  V30 10578 H 994.269 -1.49277 4.80339 0
M  V30 10579 H 993.969 -0.101716 5.87512 0
M  V30 10580 H 995.493 -1.02286 6.01972 0
M  V30 10581 H 996.907 1.21017 5.60382 0
M  V30 10582 H 995.304 1.9995 5.65809 0
M  V30 10583 H 996.374 2.28929 4.27457 0
M  V30 10584 N 997.718 -1.45297 0.610449 0
M  V30 10585 C 998.681 -2.28995 -0.0968194 0
M  V30 10586 C 999.681 -1.39923 -0.792353 0
M  V30 10587 O 1000.87 -1.62014 -0.64008 0
M  V30 10588 C 998.003 -3.21013 -1.14731 0
M  V30 10589 H 999.196 -2.93012 0.639082 0
M  V30 10590 H 996.749 -1.51867 0.369624 0
M  V30 10591 H 997.484 -2.61803 -1.91388 0
M  V30 10592 H 997.269 -3.86628 -0.652753 0
M  V30 10593 H 998.759 -3.8394 -1.64256 0
M  V30 10594 N 999.196 -0.349774 -1.5367 0
M  V30 10595 C 1000.14 0.504121 -2.25227 0
M  V30 10596 C 1001.11 1.09048 -1.2529 0
M  V30 10597 O 1002.3 1.12594 -1.54037 0
M  V30 10598 C 999.438 1.64601 -3.03316 0
M  V30 10599 C 998.551 1.08635 -4.18118 0
M  V30 10600 C 997.686 2.19605 -4.83681 0
M  V30 10601 C 996.725 1.61023 -5.90541 0
M  V30 10602 N 995.862 2.6576 -6.49858 0
M  V30 10603 H 1000.7 -0.112621 -2.97787 0
M  V30 10604 H 998.239 -0.0673503 -1.46946 0
M  V30 10605 H 1000.2 2.31836 -3.46854 0
M  V30 10606 H 998.827 2.23364 -2.33041 0
M  V30 10607 H 997.879 0.304748 -3.79177 0
M  V30 10608 H 999.191 0.617911 -4.94958 0
M  V30 10609 H 998.345 2.94693 -5.30322 0
M  V30 10610 H 997.084 2.69795 -4.06278 0
M  V30 10611 H 996.089 0.844428 -5.43277 0
M  V30 10612 H 997.314 1.11677 -6.69855 0
M  V30 10613 H 995.26 3.15193 -5.75317 0
M  V30 10614 H 995.177 2.23557 -7.2219 0
M  V30 10615 H 996.445 3.40598 -7.01151 0
M  V30 10616 N 1000.67 1.57404 -0.0785433 0
M  V30 10617 C 1001.61 2.08724 0.922464 0
M  V30 10618 C 1002.58 0.993912 1.28686 0
M  V30 10619 O 1003.77 1.26776 1.39499 0
M  V30 10620 C 1000.9 2.55051 2.2286 0
M  V30 10621 C 999.942 3.75884 2.01528 0
M  V30 10622 S 1000.77 5.2026 1.26844 0
M  V30 10623 C 1001.93 5.69924 2.58723 0
M  V30 10624 H 1002.16 2.93304 0.485807 0
M  V30 10625 H 999.697 1.53814 0.134377 0
M  V30 10626 H 1001.65 2.82402 2.97926 0
M  V30 10627 H 1000.32 1.70727 2.63649 0
M  V30 10628 H 999.509 4.06311 2.98207 0
M  V30 10629 H 999.111 3.48941 1.34596 0
M  V30 10630 H 1001.4 5.7718 3.5478 0
M  V30 10631 H 1002.35 6.68704 2.32897 0
M  V30 10632 H 1002.75 4.97773 2.66237 0
M  V30 10633 N 1002.15 -0.195058 1.56388 0
M  V30 10634 C 1003.38 -0.931642 1.84738 0
M  V30 10635 C 1003.79 -1.76849 0.661046 0
M  V30 10636 O 1003.15 -1.78705 -0.370241 0
M  V30 10637 C 1003.2 -1.82777 3.11889 0
M  V30 10638 O 1002.92 -1.02471 4.25948 0
M  V30 10639 C 1004.42 -2.67603 3.53417 0
M  V30 10640 H 1001.64 -0.271821 0.613477 0
M  V30 10641 H 1004.19 -0.202299 2.03497 0
M  V30 10642 H 1002.34 -2.51074 2.95027 0
M  V30 10643 H 1002.76 -1.63539 4.98353 0
M  V30 10644 H 1004.23 -3.26138 4.45352 0
M  V30 10645 H 1004.71 -3.41314 2.76408 0
M  V30 10646 H 1005.31 -2.04678 3.7281 0
M  V30 10647 N 1003.63 -1.50653 -0.462772 0
M  V30 10648 C 1004.58 -1.70661 -1.58043 0
M  V30 10649 C 1005.57 -0.572533 -1.59432 0
M  V30 10650 O 1006.78 -0.753257 -1.63481 0
M  V30 10651 H 1003.15 -0.538805 -0.524588 0
M  V30 10652 H 1005.12 -2.64399 -1.38332 0
M  V30 10653 C 1003.87 -1.82558 -2.95919 0
M  V30 10654 H 1003.2 -2.69216 -2.95572 0
M  V30 10655 H 1004.64 -2.0058 -3.73556 0
M  V30 10656 C 1003.09 -0.57916 -3.31885 0
M  V30 10657 O 1003.62 0.277888 -4.00738 0
M  V30 10658 N 1001.83 -0.430723 -2.8739 0
M  V30 10659 H 1001.38 -1.1292 -2.31531 0
M  V30 10660 H 1001.34 0.402061 -3.11819 0
M  V30 10661 N 1005.11 0.71652 -1.4037 0
M  V30 10662 C 1006.36 1.47347 -1.38324 0
M  V30 10663 C 1006.68 1.94995 0.0139949 0
M  V30 10664 O 1005.95 1.7028 0.968585 0
M  V30 10665 H 1004.53 0.546662 -0.509087 0
M  V30 10666 H 1007.19 0.849455 -1.75415 0
M  V30 10667 H 1006.29 2.34675 -2.05752 0
M  V30 10668 N 1006.59 1.25851 0.948643 0
M  V30 10669 C 1007.83 1.10954 1.69397 0
M  V30 10670 C 1008.16 -0.348443 1.91353 0
M  V30 10671 O 1007.42 -1.27285 1.48651 0
M  V30 10672 C 1007.72 1.81565 3.07846 0
M  V30 10673 C 1007.38 3.31477 3.0567 0
M  V30 10674 C 1006.04 3.72371 3.04784 0
M  V30 10675 C 1008.4 4.27225 2.98543 0
M  V30 10676 C 1005.72 5.07416 2.94527 0
M  V30 10677 C 1008.08 5.62301 2.89828 0
M  V30 10678 C 1006.74 6.02516 2.87281 0
M  V30 10679 H 1006.01 0.406011 0.619868 0
M  V30 10680 H 1008.66 1.562 1.10787 0
M  V30 10681 H 1006.96 1.28767 3.70035 0
M  V30 10682 H 1008.66 1.67486 3.64348 0
M  V30 10683 H 1005.25 2.98941 3.07135 0
M  V30 10684 H 1009.43 3.96618 2.98342 0
M  V30 10685 H 1004.69 5.37746 2.90928 0
M  V30 10686 H 1008.86 6.36182 2.83276 0
M  V30 10687 H 1006.49 7.07116 2.79089 0
M  V30 10688 N 1008.06 -1.15214 1.07534 0
M  V30 10689 C 1009.29 -1.90463 0.820883 0
M  V30 10690 C 1009.71 -1.77578 -0.620305 0
M  V30 10691 O 1009.07 -1.10976 -1.43366 0
M  V30 10692 C 1009.12 -3.38746 1.23627 0
M  V30 10693 O 1008.22 -4.1062 0.382715 0
M  V30 10694 H 1007.57 -0.59292 0.298901 0
M  V30 10695 H 1010.1 -1.45893 1.43445 0
M  V30 10696 H 1010.11 -3.89543 1.21327 0
M  V30 10697 H 1008.78 -3.47443 2.28596 0
M  V30 10698 H 1007.36 -3.69947 0.468374 0
M  V30 10699 N 1009.54 -0.859717 -1.32086 0
M  V30 10700 C 1010.79 -0.464662 -1.96686 0
M  V30 10701 C 1011.11 0.98412 -1.68345 0
M  V30 10702 O 1010.38 1.68847 -0.993361 0
M  V30 10703 H 1008.96 -0.168838 -0.727669 0
M  V30 10704 H 1011.62 -1.09726 -1.61079 0
M  V30 10705 H 1010.72 -0.613904 -3.06003 0
M  V30 10706 N 1011.02 1.44971 -0.618145 0
M  V30 10707 C 1011.98 2.29044 0.0846739 0
M  V30 10708 C 1012.98 1.40341 0.784921 0
M  V30 10709 O 1014.17 1.62351 0.631479 0
M  V30 10710 C 1011.31 3.21617 1.13027 0
M  V30 10711 H 1012.5 2.92668 -0.654612 0
M  V30 10712 H 1010.05 1.51668 -0.377672 0
M  V30 10713 H 1010.79 2.62815 1.89997 0
M  V30 10714 H 1010.57 3.86969 0.63224 0
M  V30 10715 H 1012.06 3.84805 1.62218 0
M  V30 10716 N 1012.5 0.357919 1.53482 0
M  V30 10717 C 1013.78 -0.290164 1.93436 0
M  V30 10718 C 1014.16 -1.67039 1.29079 0
M  V30 10719 O 1013.5 -2.24085 0.447017 0
M  V30 10720 C 1013.71 -0.348055 3.4726 0
M  V30 10721 C 1015.06 -0.59206 4.20452 0
M  V30 10722 O 1016.09 -0.429581 3.536 0
M  V30 10723 O 1014.94 -0.907855 5.38907 0
M  V30 10724 H 1012.04 -0.172312 0.80885 0
M  V30 10725 H 1014.58 0.410144 1.64669 0
M  V30 10726 H 1013.36 0.619953 3.86358 0
M  V30 10727 H 1012.98 -1.09457 3.82237 0
M  V30 10728 N 1013.98 -1.5736 0.0868897 0
M  V30 10729 C 1014.91 -2.16596 -0.872252 0
M  V30 10730 C 1015.89 -1.09706 -1.29995 0
M  V30 10731 O 1017.07 -1.37808 -1.36831 0
M  V30 10732 C 1014.2 -2.73972 -2.1344 0
M  V30 10733 C 1013.16 -3.86163 -1.8456 0
M  V30 10734 C 1012.48 -4.30206 -3.17533 0
M  V30 10735 C 1013.78 -5.0973 -1.13899 0
M  V30 10736 H 1015.48 -2.96995 -0.378738 0
M  V30 10737 H 1013.02 -1.42861 -0.18073 0
M  V30 10738 H 1014.98 -3.14062 -2.80968 0
M  V30 10739 H 1013.7 -1.90817 -2.6506 0
M  V30 10740 H 1012.36 -3.466 -1.19432 0
M  V30 10741 H 1012.01 -3.43951 -3.67024 0
M  V30 10742 H 1011.71 -5.05841 -2.98996 0
M  V30 10743 H 1013.23 -4.72922 -3.86234 0
M  V30 10744 H 1014.64 -5.4704 -1.71523 0
M  V30 10745 H 1013.04 -5.90741 -1.05569 0
M  V30 10746 H 1014.11 -4.8475 -0.120432 0
M  V30 10747 N 1015.45 0.186762 -1.56489 0
M  V30 10748 C 1016.68 0.921832 -1.85229 0
M  V30 10749 C 1017.1 1.76496 -0.670416 0
M  V30 10750 O 1016.45 1.78899 0.360758 0
M  V30 10751 C 1016.51 1.81121 -3.12854 0
M  V30 10752 O 1016.23 1.00211 -4.26485 0
M  V30 10753 C 1017.73 2.65725 -3.54831 0
M  V30 10754 H 1014.95 0.268563 -0.61491 0
M  V30 10755 H 1017.49 0.191505 -2.03601 0
M  V30 10756 H 1015.65 2.49506 -2.96354 0
M  V30 10757 H 1016.06 1.60893 -4.99213 0
M  V30 10758 H 1017.53 3.23771 -4.47075 0
M  V30 10759 H 1018.01 3.39843 -2.78215 0
M  V30 10760 H 1018.62 2.02698 -3.7389 0
M  V30 10761 N 1016.93 1.50896 0.454776 0
M  V30 10762 C 1017.84 1.73762 1.5762 0
M  V30 10763 C 1018.86 0.621206 1.62533 0
M  V30 10764 O 1020.03 0.901449 1.801 0
M  V30 10765 C 1017.1 1.84183 2.9373 0
M  V30 10766 C 1016.16 3.07982 2.99075 0
M  V30 10767 C 1015.39 3.17896 4.28693 0
M  V30 10768 O 1015.62 2.34184 5.20109 0
M  V30 10769 O 1014.55 4.10749 4.39964 0
M  V30 10770 H 1018.38 2.68856 1.41245 0
M  V30 10771 H 1015.96 1.35187 0.635984 0
M  V30 10772 H 1017.84 1.93123 3.74542 0
M  V30 10773 H 1016.52 0.922742 3.10269 0
M  V30 10774 H 1015.43 3.04531 2.17282 0
M  V30 10775 H 1016.76 3.99523 2.87476 0
M  V30 10776 N 1018.41 -0.709066 1.40748 0
M  V30 10777 C 1019.66 -1.4646 1.38681 0
M  V30 10778 C 1019.97 -1.95599 -0.0056209 0
M  V30 10779 O 1021.18 -2.71091 -0.148907 0
M  V30 10780 C 1019.63 -2.64771 2.43771 0
M  V30 10781 C 1019.24 -2.22474 3.88856 0
M  V30 10782 C 1020.99 -3.42475 2.50821 0
M  V30 10783 C 1018.89 -3.37663 4.85528 0
M  V30 10784 H 1017.82 -0.550084 0.515678 0
M  V30 10785 H 1020.47 -0.771074 1.66513 0
M  V30 10786 H 1018.86 -3.36325 2.09048 0
M  V30 10787 H 1020.03 -1.58297 4.32757 0
M  V30 10788 H 1018.35 -1.57798 3.85342 0
M  V30 10789 H 1020.94 -4.28201 3.20232 0
M  V30 10790 H 1021.29 -3.86738 1.54076 0
M  V30 10791 H 1021.82 -2.77969 2.84567 0
M  V30 10792 H 1018.56 -2.98426 5.83628 0
M  V30 10793 H 1018.08 -4.00734 4.46287 0
M  V30 10794 H 1019.76 -4.03636 5.05655 0
M  V30 10795 N 1019.89 -1.26353 -0.941956 0
M  V30 10796 C 1021.13 -1.13071 -1.70277 0
M  V30 10797 C 1021.49 0.320699 -1.89303 0
M  V30 10798 O 1022.69 0.575624 -2.62564 0
M  V30 10799 C 1020.97 -1.87777 -3.04096 0
M  V30 10800 S 1022.52 -1.9054 -3.95272 0
M  V30 10801 H 1019.34 -0.403912 -0.585129 0
M  V30 10802 H 1021.94 -1.6006 -1.12254 0
M  V30 10803 H 1020.65 -2.92447 -2.87929 0
M  V30 10804 H 1020.18 -1.41226 -3.67177 0
M  V30 10805 H 1022.19 -0.991548 -4.86192 0
M  V30 10806 N 1021.37 1.14642 -1.08144 0
M  V30 10807 C 1022.3 2.19283 -0.6669 0
M  V30 10808 C 1023.31 1.60292 0.284668 0
M  V30 10809 O 1024.5 1.78352 0.0727383 0
M  V30 10810 C 1021.6 3.38877 0.0398572 0
M  V30 10811 C 1020.77 4.274 -0.929929 0
M  V30 10812 C 1019.83 5.25562 -0.258991 0
M  V30 10813 O 1018.86 5.61999 -0.902563 0
M  V30 10814 N 1020.06 5.71958 0.992177 0
M  V30 10815 H 1022.83 2.55464 -1.5671 0
M  V30 10816 H 1020.39 1.29836 -0.96717 0
M  V30 10817 H 1022.38 4.01605 0.499583 0
M  V30 10818 H 1020.95 3.01043 0.842118 0
M  V30 10819 H 1020.17 3.61649 -1.56857 0
M  V30 10820 H 1021.46 4.83411 -1.58717 0
M  V30 10821 H 1020.86 5.44481 1.53484 0
M  V30 10822 H 1019.41 6.36687 1.39544 0
M  V30 10823 N 1022.85 0.866709 1.31628 0
M  V30 10824 C 1024.26 0.558188 1.49521 0
M  V30 10825 C 1024.46 -0.90844 1.7986 0
M  V30 10826 O 1023.52 -1.6908 1.87531 0
M  V30 10827 C 1024.83 1.45559 2.63122 0
M  V30 10828 C 1026.38 1.45728 2.77006 0
M  V30 10829 C 1026.85 2.34017 3.937 0
M  V30 10830 N 1028.34 2.31879 4.00982 0
M  V30 10831 C 1029.08 2.96915 4.90539 0
M  V30 10832 N 1028.58 3.71109 5.85021 0
M  V30 10833 N 1030.37 2.86241 4.83759 0
M  V30 10834 H 1022.52 1.81574 1.10203 0
M  V30 10835 H 1024.78 0.77621 0.544244 0
M  V30 10836 H 1024.49 2.49904 2.47469 0
M  V30 10837 H 1024.36 1.15174 3.59186 0
M  V30 10838 H 1026.75 0.421419 2.92075 0
M  V30 10839 H 1026.83 1.80134 1.81619 0
M  V30 10840 H 1026.47 3.37678 3.79389 0
M  V30 10841 H 1026.4 1.96937 4.88388 0
M  V30 10842 H 1028.9 1.77948 3.33381 0
M  V30 10843 H 1029.21 4.1787 6.5008 0
M  V30 10844 H 1027.55 3.75217 5.8501 0
M  V30 10845 H 1030.74 2.27819 4.08921 0
M  V30 10846 H 1030.92 3.37206 5.5335 0
M  V30 10847 N 1024.32 -1.44642 0.625825 0
M  V30 10848 C 1025.29 -2.29085 -0.072526 0
M  V30 10849 C 1026.29 -1.40755 -0.777467 0
M  V30 10850 O 1027.48 -1.62684 -0.622861 0
M  V30 10851 C 1024.61 -3.22212 -1.1132 0
M  V30 10852 H 1025.8 -2.92317 0.670124 0
M  V30 10853 H 1023.35 -1.51466 0.38571 0
M  V30 10854 H 1024.09 -2.63819 -1.88601 0
M  V30 10855 H 1023.87 -3.87299 -0.611709 0
M  V30 10856 H 1025.36 -3.8566 -1.60175 0
M  V30 10857 N 1025.8 -0.366053 -1.5329 0
M  V30 10858 C 1027.04 0.223558 -2.03174 0
M  V30 10859 C 1027.41 1.45955 -1.24745 0
M  V30 10860 O 1028.61 2.12481 -1.64637 0
M  V30 10861 C 1026.88 0.507899 -3.53773 0
M  V30 10862 S 1028.44 1.07111 -4.25526 0
M  V30 10863 H 1025.25 0.0650309 -0.70802 0
M  V30 10864 H 1027.86 -0.509028 -1.88757 0
M  V30 10865 H 1026.56 -0.39913 -4.08455 0
M  V30 10866 H 1026.09 1.26954 -3.72352 0
M  V30 10867 H 1028.11 2.35533 -4.36737 0
M  V30 10868 N 1027.28 1.57312 -0.0952337 0
M  V30 10869 C 1028.23 2.14032 0.863657 0
M  V30 10870 C 1029.2 1.0589 1.27971 0
M  V30 10871 O 1030.38 1.33678 1.36143 0
M  V30 10872 C 1027.52 2.72513 2.11733 0
M  V30 10873 C 1026.63 3.94887 1.7518 0
M  V30 10874 C 1025.77 4.41533 2.95334 0
M  V30 10875 C 1024.81 5.56496 2.54908 0
M  V30 10876 N 1023.95 5.97993 3.67897 0
M  V30 10877 H 1028.79 2.95655 0.373115 0
M  V30 10878 H 1026.32 1.46085 0.172497 0
M  V30 10879 H 1028.28 3.04539 2.85153 0
M  V30 10880 H 1026.91 1.93618 2.58287 0
M  V30 10881 H 1025.96 3.69175 0.917279 0
M  V30 10882 H 1027.27 4.78322 1.41455 0
M  V30 10883 H 1026.43 4.75343 3.77007 0
M  V30 10884 H 1025.17 3.56999 3.3227 0
M  V30 10885 H 1024.17 5.22314 1.71662 0
M  V30 10886 H 1025.4 6.42779 2.19117 0
M  V30 10887 H 1023.34 5.16405 4.04551 0
M  V30 10888 H 1023.26 6.76225 3.38018 0
M  V30 10889 H 1024.53 6.36434 4.5008 0
M  V30 10890 N 1028.76 -0.17846 1.56586 0
M  V30 10891 C 1029.69 -1.22342 1.98884 0
M  V30 10892 C 1030.67 -1.46564 0.86331 0
M  V30 10893 O 1031.85 -1.58019 1.12887 0
M  V30 10894 C 1028.98 -2.56396 2.34261 0
M  V30 10895 C 1027.94 -2.46756 3.49708 0
M  V30 10896 C 1027.26 -3.85235 3.70807 0
M  V30 10897 C 1028.56 -1.97838 4.83381 0
M  V30 10898 H 1030.26 -0.871848 2.86425 0
M  V30 10899 H 1027.8 -0.417948 1.37801 0
M  V30 10900 H 1029.76 -3.29695 2.62448 0
M  V30 10901 H 1028.48 -2.93327 1.43621 0
M  V30 10902 H 1027.14 -1.75912 3.21637 0
M  V30 10903 H 1026.79 -4.19547 2.7747 0
M  V30 10904 H 1026.49 -3.79655 4.48481 0
M  V30 10905 H 1028.01 -4.60131 4.01387 0
M  V30 10906 H 1029.43 -2.60906 5.10491 0
M  V30 10907 H 1027.82 -2.03223 5.64642 0
M  V30 10908 H 1028.89 -0.932339 4.75852 0
M  V30 10909 N 1030.24 -1.51135 -0.446768 0
M  V30 10910 C 1031.2 -1.71187 -1.52406 0
M  V30 10911 C 1032.2 -0.582037 -1.49897 0
M  V30 10912 O 1033.39 -0.849452 -1.52085 0
M  V30 10913 C 1030.52 -1.75962 -2.91976 0
M  V30 10914 H 1031.71 -2.67324 -1.35934 0
M  V30 10915 H 1029.27 -1.40982 -0.674813 0
M  V30 10916 H 1030 -0.816065 -3.13864 0
M  V30 10917 H 1029.79 -2.58065 -2.95203 0
M  V30 10918 H 1031.28 -1.93347 -3.70144 0
M  V30 10919 N 1031.71 0.701592 -1.41122 0
M  V30 10920 C 1032.96 1.45722 -1.39456 0
M  V30 10921 C 1033.28 1.95599 -0.00475228 0
M  V30 10922 O 1034.48 2.71166 0.134529 0
M  V30 10923 C 1032.94 2.63475 -2.45172 0
M  V30 10924 C 1032.55 2.20409 -3.90031 0
M  V30 10925 C 1034.29 3.4114 -2.52633 0
M  V30 10926 C 1032.2 3.35084 -4.87312 0
M  V30 10927 H 1031.13 0.547341 -0.518588 0
M  V30 10928 H 1033.78 0.762233 -1.6692 0
M  V30 10929 H 1032.16 3.35212 -2.10829 0
M  V30 10930 H 1033.33 1.56 -4.3359 0
M  V30 10931 H 1031.65 1.55752 -3.86174 0
M  V30 10932 H 1034.25 4.26496 -3.22498 0
M  V30 10933 H 1034.59 3.85915 -1.56125 0
M  V30 10934 H 1035.12 2.76456 -2.86037 0
M  V30 10935 H 1031.86 2.95327 -5.85203 0
M  V30 10936 H 1031.38 3.98362 -4.48406 0
M  V30 10937 H 1033.06 4.00949 -5.07788 0
M  V30 10938 N 1033.19 1.2685 0.935242 0
M  V30 10939 C 1034.61 1.04091 1.20984 0
M  V30 10940 C 1034.81 -0.230242 2.0018 0
M  V30 10941 O 1033.86 -0.93778 2.3444 0
M  V30 10942 C 1035.18 2.27586 1.96533 0
M  V30 10943 C 1036.72 2.32547 2.09501 0
M  V30 10944 C 1037.2 3.55751 2.88454 0
M  V30 10945 N 1038.69 3.56263 2.96025 0
M  V30 10946 C 1039.43 4.48262 3.57559 0
M  V30 10947 N 1038.92 5.50557 4.20546 0
M  V30 10948 N 1040.71 4.35901 3.5489 0
M  V30 10949 H 1032.87 2.08484 0.405954 0
M  V30 10950 H 1035.13 0.916548 0.242164 0
M  V30 10951 H 1034.83 3.20076 1.45753 0
M  V30 10952 H 1034.71 2.32305 2.97177 0
M  V30 10953 H 1037.1 1.40568 2.5947 0
M  V30 10954 H 1037.18 2.31836 1.08101 0
M  V30 10955 H 1036.82 4.48063 2.3917 0
M  V30 10956 H 1036.75 3.53711 3.90123 0
M  V30 10957 H 1039.24 2.82278 2.51252 0
M  V30 10958 H 1039.55 6.16935 4.65415 0
M  V30 10959 H 1037.9 5.54407 4.19115 0
M  V30 10960 H 1041.09 3.552 3.04879 0
M  V30 10961 H 1041.26 5.07792 4.02557 0
M  V30 10962 N 1034.67 -1.14067 1.0875 0
M  V30 10963 C 1035.58 -2.22871 0.732498 0
M  V30 10964 C 1036.6 -1.72008 -0.26253 0
M  V30 10965 O 1037.77 -2.01123 -0.105601 0
M  V30 10966 C 1034.84 -3.46371 0.150913 0
M  V30 10967 C 1033.9 -4.12158 1.201 0
M  V30 10968 C 1033.13 -5.29763 0.647075 0
M  V30 10969 O 1033.35 -5.67911 -0.532307 0
M  V30 10970 O 1032.29 -5.8542 1.3988 0
M  V30 10971 H 1036.11 -2.55596 1.64025 0
M  V30 10972 H 1033.7 -1.22065 0.861417 0
M  V30 10973 H 1035.58 -4.21055 -0.170442 0
M  V30 10974 H 1034.26 -3.15362 -0.729948 0
M  V30 10975 H 1033.16 -3.39332 1.57494 0
M  V30 10976 H 1034.5 -4.47282 2.05426 0
M  V30 10977 N 1036.15 -0.873678 -1.31166 0
M  V30 10978 C 1037.37 -0.500242 -2.01277 0
M  V30 10979 C 1037.8 0.900811 -1.65127 0
M  V30 10980 O 1037.16 1.59504 -0.861862 0
M  V30 10981 C 1037.2 -0.668976 -3.5434 0
M  V30 10982 O 1036.31 0.290096 -4.11378 0
M  V30 10983 H 1035.65 -0.198507 -0.633633 0
M  V30 10984 H 1038.18 -1.17811 -1.67277 0
M  V30 10985 H 1038.19 -0.563673 -4.04088 0
M  V30 10986 H 1036.86 -1.69055 -3.79991 0
M  V30 10987 H 1035.44 0.139437 -3.72639 0
M  V30 10988 N 1037.63 1.44308 -0.633487 0
M  V30 10989 C 1038.88 2.01239 -0.136356 0
M  V30 10990 C 1039.19 1.50438 1.25011 0
M  V30 10991 O 1040.39 1.99513 1.84138 0
M  V30 10992 C 1038.85 3.59382 -0.193011 0
M  V30 10993 C 1038.46 4.19178 -1.58093 0
M  V30 10994 C 1040.2 4.23778 0.247534 0
M  V30 10995 C 1038.11 5.69553 -1.59258 0
M  V30 10996 H 1037.04 0.752521 -0.0472109 0
M  V30 10997 H 1039.69 1.65498 -0.79263 0
M  V30 10998 H 1038.07 3.92432 0.530408 0
M  V30 10999 H 1039.25 3.97662 -2.32813 0
M  V30 11000 H 1037.56 3.67079 -1.96576 0
M  V30 11001 H 1040.16 5.34075 0.258401 0
M  V30 11002 H 1040.5 3.96285 1.27529 0
M  V30 11003 H 1041.03 3.9554 -0.423469 0
M  V30 11004 H 1037.77 6.01784 -2.59878 0
M  V30 11005 H 1037.29 5.93185 -0.888352 0
M  V30 11006 H 1038.97 6.33234 -1.32756 0
M  V30 11007 N 1039.1 0.374177 1.53094 0
M  V30 11008 C 1040.01 -0.475935 2.29722 0
M  V30 11009 C 1041.03 -1.085 1.36029 0
M  V30 11010 O 1042.21 -1.09408 1.69091 0
M  V30 11011 C 1039.27 -1.59572 3.07795 0
M  V30 11012 C 1038.33 -1.01332 4.17169 0
M  V30 11013 C 1037.57 -2.07975 4.9151 0
M  V30 11014 O 1037.79 -3.29232 4.65793 0
M  V30 11015 O 1036.72 -1.7055 5.77232 0
M  V30 11016 H 1040.55 0.147877 3.0334 0
M  V30 11017 H 1038.13 0.138312 1.48758 0
M  V30 11018 H 1040.02 -2.24658 3.5652 0
M  V30 11019 H 1038.69 -2.20478 2.37005 0
M  V30 11020 H 1037.6 -0.326133 3.72676 0
M  V30 11021 H 1038.93 -0.4487 4.90151 0
M  V30 11022 N 1040.58 -1.57259 0.103575 0
M  V30 11023 C 1041.81 -1.99424 -0.569638 0
M  V30 11024 C 1042.23 -0.982475 -1.60403 0
M  V30 11025 O 1041.59 0.0479231 -1.81237 0
M  V30 11026 C 1041.64 -3.40527 -1.18633 0
M  V30 11027 O 1040.74 -3.42167 -2.30208 0
M  V30 11028 H 1040.08 -0.648251 -0.143759 0
M  V30 11029 H 1042.61 -2.03739 0.187493 0
M  V30 11030 H 1042.62 -3.78404 -1.5256 0
M  V30 11031 H 1041.3 -4.13686 -0.428582 0
M  V30 11032 H 1039.88 -3.16093 -1.97837 0
M  V30 11033 N 1042.06 0.170153 -1.56679 0
M  V30 11034 C 1042.97 1.23057 -1.99735 0
M  V30 11035 C 1043.99 1.48374 -0.908912 0
M  V30 11036 O 1045.16 1.60499 -1.21663 0
M  V30 11037 C 1042.23 2.54944 -2.34956 0
M  V30 11038 C 1041.29 2.3748 -3.57634 0
M  V30 11039 C 1040.52 3.63078 -3.91165 0
M  V30 11040 O 1040.74 4.68304 -3.2565 0
M  V30 11041 O 1039.68 3.57119 -4.8451 0
M  V30 11042 H 1043.5 0.895104 -2.9021 0
M  V30 11043 H 1041.09 0.377109 -1.44562 0
M  V30 11044 H 1042.97 3.32742 -2.58574 0
M  V30 11045 H 1041.65 2.88068 -1.47643 0
M  V30 11046 H 1040.55 1.57709 -3.39232 0
M  V30 11047 H 1041.89 2.0928 -4.45491 0
M  V30 11048 N 1043.54 1.5137 0.438746 0
M  V30 11049 C 1044.79 1.63202 1.18524 0
M  V30 11050 C 1045.1 0.353408 1.92381 0
M  V30 11051 O 1046.31 0.351086 2.6922 0
M  V30 11052 C 1044.76 2.88218 2.15542 0
M  V30 11053 C 1044.37 4.23078 1.47339 0
M  V30 11054 C 1046.11 3.09407 2.90633 0
M  V30 11055 C 1044.02 5.39246 2.42833 0
M  V30 11056 H 1042.95 0.607864 0.446114 0
M  V30 11057 H 1045.6 1.77835 0.452421 0
M  V30 11058 H 1043.98 2.67216 2.92253 0
M  V30 11059 H 1045.16 4.54457 0.761964 0
M  V30 11060 H 1043.47 4.07755 0.844065 0
M  V30 11061 H 1046.07 3.9337 3.62165 0
M  V30 11062 H 1046.41 2.22428 3.51897 0
M  V30 11063 H 1046.95 3.30743 2.21029 0
M  V30 11064 H 1043.69 6.2848 1.8626 0
M  V30 11065 H 1043.21 5.12245 3.12034 0
M  V30 11066 H 1044.88 5.71137 3.03992 0
M  V30 11067 N 1045.02 -0.694098 1.41492 0
M  V30 11068 C 1046.43 -1.00487 1.23994 0
M  V30 11069 C 1046.63 -2.01078 0.130346 0
M  V30 11070 O 1045.69 -2.47403 -0.504775 0
M  V30 11071 C 1047 -1.52808 2.58979 0
M  V30 11072 C 1048.55 -1.64684 2.66173 0
M  V30 11073 C 1049.02 -2.20406 4.01479 0
M  V30 11074 N 1050.52 -2.27765 4.03333 0
M  V30 11075 C 1051.25 -2.7191 5.04829 0
M  V30 11076 N 1050.75 -3.1565 6.16714 0
M  V30 11077 N 1052.54 -2.71487 4.9219 0
M  V30 11078 H 1044.69 -0.027746 2.12382 0
M  V30 11079 H 1046.95 -0.0748741 0.945039 0
M  V30 11080 H 1046.66 -0.863519 3.40934 0
M  V30 11081 H 1046.53 -2.50998 2.81566 0
M  V30 11082 H 1048.92 -2.30251 1.84576 0
M  V30 11083 H 1049 -0.65035 2.47395 0
M  V30 11084 H 1048.65 -1.55454 4.83525 0
M  V30 11085 H 1048.58 -3.2081 4.17599 0
M  V30 11086 H 1051.07 -1.96899 3.22551 0
M  V30 11087 H 1051.38 -3.47966 6.90029 0
M  V30 11088 H 1049.72 -3.13555 6.20248 0
M  V30 11089 H 1052.92 -2.36666 4.03865 0
M  V30 11090 H 1053.09 -3.05573 5.71427 0
M  V30 11091 N 1046.49 -1.27344 -0.928501 0
M  V30 11092 C 1047.91 -1.04732 -1.2043 0
M  V30 11093 C 1048.11 0.219623 -2.003 0
M  V30 11094 O 1047.17 0.925333 -2.34934 0
M  V30 11095 C 1048.48 -2.28625 -1.95323 0
M  V30 11096 C 1050.03 -2.33655 -2.08265 0
M  V30 11097 C 1050.5 -3.57275 -2.86563 0
M  V30 11098 N 1051.99 -3.57828 -2.94132 0
M  V30 11099 C 1052.73 -4.50152 -3.55177 0
M  V30 11100 N 1052.22 -5.52779 -4.17621 0
M  V30 11101 N 1054.02 -4.37777 -3.52573 0
M  V30 11102 H 1046.17 -2.08697 -0.394892 0
M  V30 11103 H 1048.43 -0.91782 -0.2373 0
M  V30 11104 H 1048.14 -3.20845 -1.44054 0
M  V30 11105 H 1048.01 -2.33878 -2.95941 0
M  V30 11106 H 1050.4 -1.41942 -2.58721 0
M  V30 11107 H 1050.48 -2.32406 -1.0687 0
M  V30 11108 H 1050.12 -4.49325 -2.3679 0
M  V30 11109 H 1050.05 -3.55775 -3.88242 0
M  V30 11110 H 1052.54 -2.83607 -2.49751 0
M  V30 11111 H 1052.86 -6.19394 -4.62137 0
M  V30 11112 H 1051.2 -5.56622 -4.16169 0
M  V30 11113 H 1054.39 -3.56811 -3.02991 0
M  V30 11114 H 1054.57 -5.09919 -3.99858 0
M  V30 11115 N 1047.97 1.13488 -1.09353 0
M  V30 11116 C 1048.88 2.2248 -0.744307 0
M  V30 11117 C 1049.9 1.72145 0.253404 0
M  V30 11118 O 1051.07 2.01176 0.0949339 0
M  V30 11119 C 1048.14 3.46286 -0.16928 0
M  V30 11120 C 1047.2 4.11516 -1.22284 0
M  V30 11121 C 1046.43 5.29412 -0.675161 0
M  V30 11122 O 1046.66 5.68185 0.502182 0
M  V30 11123 O 1045.59 5.8467 -1.42983 0
M  V30 11124 H 1049.42 2.54723 -1.65378 0
M  V30 11125 H 1047 1.21607 -0.867879 0
M  V30 11126 H 1048.88 4.2114 0.14811 0
M  V30 11127 H 1047.56 3.15745 0.713214 0
M  V30 11128 H 1046.47 3.38492 -1.59292 0
M  V30 11129 H 1047.8 4.46186 -2.07796 0
M  V30 11130 N 1049.45 0.880621 1.30701 0
M  V30 11131 C 1050.87 0.574015 1.4892 0
M  V30 11132 C 1051.07 -0.889312 1.80813 0
M  V30 11133 O 1050.12 -1.67082 1.89314 0
M  V30 11134 C 1051.44 1.48341 2.61563 0
M  V30 11135 C 1052.98 1.48658 2.75445 0
M  V30 11136 C 1053.46 2.3818 3.91196 0
M  V30 11137 N 1054.95 2.36119 3.985 0
M  V30 11138 C 1055.69 3.02101 4.87363 0
M  V30 11139 N 1055.18 3.77293 5.81052 0
M  V30 11140 N 1056.97 2.91356 4.80696 0
M  V30 11141 H 1049.13 1.82732 1.08271 0
M  V30 11142 H 1051.39 0.781939 0.535981 0
M  V30 11143 H 1051.09 2.52515 2.44804 0
M  V30 11144 H 1050.97 1.18977 3.57944 0
M  V30 11145 H 1053.36 0.452374 2.91612 0
M  V30 11146 H 1053.44 1.8205 1.79698 0
M  V30 11147 H 1053.08 3.41683 3.75786 0
M  V30 11148 H 1053.01 2.02106 4.86272 0
M  V30 11149 H 1055.5 1.81474 3.31475 0
M  V30 11150 H 1055.81 4.24742 6.45612 0
M  V30 11151 H 1054.16 3.81401 5.80998 0
M  V30 11152 H 1057.35 2.32143 4.06481 0
M  V30 11153 H 1057.52 3.43056 5.49742 0
M  V30 11154 N 1050.93 -1.4397 0.641131 0
M  V30 11155 C 1051.84 -2.34526 -0.058742 0
M  V30 11156 C 1052.86 -1.53194 -0.825088 0
M  V30 11157 O 1054.03 -1.85888 -0.775081 0
M  V30 11158 C 1051.1 -3.31313 -1.02139 0
M  V30 11159 C 1050.16 -4.28552 -0.253319 0
M  V30 11160 C 1049.39 -5.20715 -1.17012 0
M  V30 11161 O 1049.61 -5.17028 -2.40911 0
M  V30 11162 O 1048.55 -5.9839 -0.649039 0
M  V30 11163 H 1052.37 -2.95843 0.686329 0
M  V30 11164 H 1049.96 -1.43909 0.401316 0
M  V30 11165 H 1051.84 -3.90862 -1.57496 0
M  V30 11166 H 1050.52 -2.72516 -1.7469 0
M  V30 11167 H 1049.42 -3.72519 0.343531 0
M  V30 11168 H 1050.76 -4.90297 0.432372 0
M  V30 11169 N 1052.41 -0.382291 -1.52893 0
M  V30 11170 C 1053.82 -0.031941 -1.59568 0
M  V30 11171 C 1054.02 1.45245 -1.39664 0
M  V30 11172 O 1053.08 2.21612 -1.21013 0
M  V30 11173 C 1054.39 -0.502846 -2.96466 0
M  V30 11174 C 1055.94 -0.4585 -3.09624 0
M  V30 11175 C 1056.42 -0.905481 -4.4896 0
M  V30 11176 N 1057.91 -0.861211 -4.55124 0
M  V30 11177 C 1058.64 -1.17856 -5.61157 0
M  V30 11178 N 1058.14 -1.56603 -6.74868 0
M  V30 11179 N 1059.93 -1.10027 -5.51226 0
M  V30 11180 H 1052.08 -1.34875 -1.64081 0
M  V30 11181 H 1054.34 -0.552375 -0.770446 0
M  V30 11182 H 1054.05 -1.53931 -3.16225 0
M  V30 11183 H 1053.92 0.101777 -3.77063 0
M  V30 11184 H 1056.31 0.568868 -2.89565 0
M  V30 11185 H 1056.39 -1.09884 -2.30996 0
M  V30 11186 H 1056.04 -1.93105 -4.69759 0
M  V30 11187 H 1055.97 -0.242227 -5.26043 0
M  V30 11188 H 1058.46 -0.575988 -3.73485 0
M  V30 11189 H 1058.77 -1.792 -7.51736 0
M  V30 11190 H 1057.12 -1.60484 -6.76217 0
M  V30 11191 H 1060.31 -0.796623 -4.61272 0
M  V30 11192 H 1060.48 -1.35091 -6.33762 0
M  V30 11193 N 1053.89 1.57202 -0.111913 0
M  V30 11194 C 1054.82 2.11995 0.871242 0
M  V30 11195 C 1055.83 1.06102 1.23475 0
M  V30 11196 O 1057.02 1.33497 1.18494 0
M  V30 11197 C 1054.12 2.59874 2.17528 0
M  V30 11198 C 1053.29 3.89788 1.98455 0
M  V30 11199 C 1052.35 4.23339 3.12523 0
M  V30 11200 O 1051.38 4.92277 2.85748 0
M  V30 11201 N 1052.58 3.80089 4.38762 0
M  V30 11202 H 1055.34 2.96976 0.403157 0
M  V30 11203 H 1052.91 1.61737 0.0727159 0
M  V30 11204 H 1054.9 2.79354 2.9282 0
M  V30 11205 H 1053.47 1.79812 2.55707 0
M  V30 11206 H 1052.69 3.79288 1.07396 0
M  V30 11207 H 1053.98 4.74748 1.83007 0
M  V30 11208 H 1053.37 3.24473 4.63394 0
M  V30 11209 H 1051.93 4.04691 5.10949 0
M  V30 11210 N 1055.36 -0.161842 1.56767 0
M  V30 11211 C 1056.59 -0.892247 1.86672 0
M  V30 11212 C 1057.01 -1.75407 0.69841 0
M  V30 11213 O 1056.36 -1.7945 -0.332251 0
M  V30 11214 C 1056.41 -1.7612 3.15696 0
M  V30 11215 O 1056.14 -0.934131 4.28025 0
M  V30 11216 C 1057.64 -2.60046 3.59014 0
M  V30 11217 H 1054.86 -0.258747 0.619105 0
M  V30 11218 H 1057.4 -0.159089 2.0388 0
M  V30 11219 H 1055.56 -2.44759 3.00286 0
M  V30 11220 H 1055.97 -1.52931 5.01709 0
M  V30 11221 H 1057.44 -3.16618 4.5217 0
M  V30 11222 H 1057.92 -3.35374 2.83586 0
M  V30 11223 H 1058.53 -1.96724 3.77067 0
M  V30 11224 N 1056.84 -1.516 -0.430713 0
M  V30 11225 C 1057.79 -1.73975 -1.54387 0
M  V30 11226 C 1058.78 -0.606222 -1.58181 0
M  V30 11227 O 1059.99 -0.787764 -1.61846 0
M  V30 11228 H 1056.36 -0.549811 -0.513041 0
M  V30 11229 H 1058.34 -2.67274 -1.32692 0
M  V30 11230 C 1057.08 -1.88794 -2.9198 0
M  V30 11231 H 1056.41 -2.75425 -2.89795 0
M  V30 11232 H 1057.85 -2.08458 -3.69217 0
M  V30 11233 C 1056.31 -0.649427 -3.30581 0
M  V30 11234 O 1056.84 0.192823 -4.01237 0
M  V30 11235 N 1055.04 -0.491586 -2.86412 0
M  V30 11236 H 1054.59 -1.17806 -2.29084 0
M  V30 11237 H 1054.55 0.33583 -3.12601 0
M  V30 11238 N 1058.32 0.686584 -1.41858 0
M  V30 11239 C 1059.73 1.26682 -1.37145 0
M  V30 11240 C 1060.08 1.96112 -0.058922 0
M  V30 11241 O 1059.21 1.99321 0.842629 0
M  V30 11242 C 1059.8 2.30383 -2.48413 0
M  V30 11243 C 1058.36 2.83961 -2.47069 0
M  V30 11244 C 1057.51 1.58119 -2.27802 0
M  V30 11245 H 1060.46 0.480742 -1.51243 0
M  V30 11246 H 1060.48 3.11868 -2.17987 0
M  V30 11247 H 1059.99 1.79822 -3.43927 0
M  V30 11248 H 1058.09 3.38675 -1.55338 0
M  V30 11249 H 1058.21 3.3378 -3.43697 0
M  V30 11250 H 1056.57 1.84258 -1.75844 0
M  V30 11251 H 1057.35 1.09541 -3.25355 0
M  V30 11252 N 1059.8 1.27835 0.921735 0
M  V30 11253 C 1061.02 1.17465 1.70929 0
M  V30 11254 C 1061.45 -0.264171 1.86236 0
M  V30 11255 O 1060.81 -1.19124 1.36671 0
M  V30 11256 C 1060.85 1.8697 3.08342 0
M  V30 11257 O 1059.96 1.17173 3.95404 0
M  V30 11258 H 1059.3 0.408206 0.523702 0
M  V30 11259 H 1061.83 1.69013 1.15307 0
M  V30 11260 H 1061.84 1.94564 3.58621 0
M  V30 11261 H 1060.51 2.91633 2.96518 0
M  V30 11262 H 1059.09 1.17688 3.53842 0
M  V30 11263 N 1061.28 -1.12907 1.09954 0
M  V30 11264 C 1062.24 -2.16673 0.747364 0
M  V30 11265 C 1063.24 -1.59208 -0.225741 0
M  V30 11266 O 1064.43 -1.742 -0.00322482 0
M  V30 11267 C 1061.56 -3.40735 0.106169 0
M  V30 11268 H 1062.75 -2.49341 1.6664 0
M  V30 11269 H 1060.31 -1.27828 0.899421 0
M  V30 11270 H 1061.04 -3.13661 -0.82384 0
M  V30 11271 H 1060.83 -3.83717 0.806434 0
M  V30 11272 H 1062.32 -4.17414 -0.12464 0
M  V30 11273 N 1062.75 -0.88754 -1.30232 0
M  V30 11274 C 1063.69 -0.300814 -2.26209 0
M  V30 11275 C 1064.66 0.580088 -1.519 0
M  V30 11276 O 1065.85 0.529611 -1.80907 0
M  V30 11277 C 1062.98 0.572336 -3.33829 0
M  V30 11278 C 1062.02 -0.239589 -4.25827 0
M  V30 11279 S 1062.85 -1.62953 -5.10104 0
M  V30 11280 C 1064.01 -0.762979 -6.21232 0
M  V30 11281 H 1064.24 -1.11435 -2.75626 0
M  V30 11282 H 1061.78 -0.687123 -1.38268 0
M  V30 11283 H 1063.73 1.07036 -3.963 0
M  V30 11284 H 1062.4 1.35999 -2.83131 0
M  V30 11285 H 1061.59 0.426854 -5.02189 0
M  V30 11286 H 1061.19 -0.670325 -3.67944 0
M  V30 11287 H 1063.48 0.0189354 -6.77497 0
M  V30 11288 H 1064.43 -1.49829 -6.92067 0
M  V30 11289 H 1064.83 -0.322747 -5.63577 0
M  V30 11290 N 1064.23 1.43628 -0.648757 0
M  V30 11291 C 1065.14 2.34554 0.0463037 0
M  V30 11292 C 1066.16 1.53629 0.816952 0
M  V30 11293 O 1067.33 1.86297 0.765212 0
M  V30 11294 C 1064.4 3.3185 1.00381 0
M  V30 11295 C 1063.46 4.2868 0.230589 0
M  V30 11296 C 1062.69 5.21328 1.14249 0
M  V30 11297 O 1062.92 5.18298 2.38166 0
M  V30 11298 O 1061.85 5.98726 0.617296 0
M  V30 11299 H 1065.68 2.95475 -0.702008 0
M  V30 11300 H 1063.26 1.43694 -0.408942 0
M  V30 11301 H 1065.14 3.91692 1.5542 0
M  V30 11302 H 1063.82 2.73439 1.73243 0
M  V30 11303 H 1062.73 3.72332 -0.363282 0
M  V30 11304 H 1064.06 4.90061 -0.458368 0
M  V30 11305 N 1065.71 0.390394 1.52688 0
M  V30 11306 C 1066.96 -0.191729 2.01892 0
M  V30 11307 C 1067.29 -1.4637 1.27631 0
M  V30 11308 O 1066.56 -1.90809 0.377094 0
M  V30 11309 C 1066.85 -0.458535 3.57169 0
M  V30 11310 C 1066.7 0.828796 4.42098 0
M  V30 11311 C 1068.02 -1.2487 4.22014 0
M  V30 11312 H 1065.14 -0.0682091 0.733837 0
M  V30 11313 H 1067.78 0.520176 1.82741 0
M  V30 11314 H 1065.93 -1.06498 3.73618 0
M  V30 11315 H 1067.6 1.46562 4.37398 0
M  V30 11316 H 1065.85 1.44388 4.09066 0
M  V30 11317 H 1066.52 0.596746 5.48765 0
M  V30 11318 H 1068.99 -0.735452 4.09549 0
M  V30 11319 H 1067.87 -1.40412 5.30637 0
M  V30 11320 H 1068.13 -2.2642 3.79719 0
M  V30 11321 N 1067.19 -1.57141 0.120249 0
M  V30 11322 C 1068.1 -2.18925 -0.843155 0
M  V30 11323 C 1069.11 -1.16575 -1.29175 0
M  V30 11324 O 1070.29 -1.4905 -1.35448 0
M  V30 11325 C 1067.36 -2.7775 -2.075 0
M  V30 11326 C 1066.42 -3.95139 -1.6782 0
M  V30 11327 C 1065.65 -4.51149 -2.85132 0
M  V30 11328 O 1065.87 -4.06056 -4.00593 0
M  V30 11329 O 1064.81 -5.41815 -2.62145 0
M  V30 11330 H 1068.63 -3.01707 -0.347357 0
M  V30 11331 H 1066.22 -1.49028 -0.105427 0
M  V30 11332 H 1068.1 -3.15243 -2.79643 0
M  V30 11333 H 1066.77 -1.97998 -2.56083 0
M  V30 11334 H 1065.68 -3.62412 -0.927807 0
M  V30 11335 H 1067.01 -4.7633 -1.23977 0
M  V30 11336 N 1068.67 0.153526 -1.5685 0
M  V30 11337 C 1069.58 1.20932 -2.01029 0
M  V30 11338 C 1070.59 1.47401 -0.924598 0
M  V30 11339 O 1071.77 1.592 -1.23359 0
M  V30 11340 C 1068.83 2.52438 -2.37647 0
M  V30 11341 C 1067.89 2.33673 -3.60132 0
M  V30 11342 C 1067.13 3.58909 -3.94994 0
M  V30 11343 O 1067.35 4.64823 -3.30599 0
M  V30 11344 O 1066.28 3.5196 -4.8827 0
M  V30 11345 H 1070.11 0.864273 -2.91143 0
M  V30 11346 H 1067.7 0.361755 -1.44954 0
M  V30 11347 H 1069.58 3.29981 -2.62088 0
M  V30 11348 H 1068.25 2.86486 -1.5069 0
M  V30 11349 H 1067.16 1.54102 -3.40886 0
M  V30 11350 H 1068.49 2.04544 -4.47686 0
M  V30 11351 N 1070.14 1.51827 0.422667 0
M  V30 11352 C 1071.42 1.55772 1.18299 0
M  V30 11353 C 1071.8 0.330657 2.08494 0
M  V30 11354 O 1071.15 -0.683373 2.18042 0
M  V30 11355 C 1071.36 2.87941 1.97208 0
M  V30 11356 C 1072.71 3.4044 2.53744 0
M  V30 11357 O 1073.73 2.8959 2.07403 0
M  V30 11358 O 1072.59 4.29201 3.38303 0
M  V30 11359 H 1069.68 0.626889 0.539388 0
M  V30 11360 H 1072.23 1.64147 0.430545 0
M  V30 11361 H 1071 3.68702 1.31052 0
M  V30 11362 H 1070.63 2.82795 2.79486 0
M  V30 11363 N 1071.62 -0.679052 1.4222 0
M  V30 11364 C 1072.9 -1.43473 1.32947 0
M  V30 11365 C 1073.28 -2.11071 -0.0351689 0
M  V30 11366 O 1072.63 -2.02925 -1.05042 0
M  V30 11367 C 1072.84 -2.44065 2.49466 0
M  V30 11368 C 1074.19 -3.08834 2.91387 0
M  V30 11369 O 1075.21 -2.54392 2.49325 0
M  V30 11370 O 1074.07 -4.07478 3.64175 0
M  V30 11371 H 1071.16 -0.639743 0.524078 0
M  V30 11372 H 1073.71 -0.708134 1.54219 0
M  V30 11373 H 1072.48 -1.92884 3.40457 0
M  V30 11374 H 1072.1 -3.24212 2.30158 0
M  V30 11375 N 1073.1 -1.28322 -0.914942 0
M  V30 11376 C 1074.51 -1.13937 -1.47903 0
M  V30 11377 C 1074.86 0.271072 -1.94318 0
M  V30 11378 O 1073.99 1.16522 -1.8235 0
M  V30 11379 C 1074.58 -2.06221 -2.68809 0
M  V30 11380 C 1073.14 -1.95903 -3.21402 0
M  V30 11381 C 1072.29 -1.98031 -1.94111 0
M  V30 11382 H 1075.24 -1.41029 -0.727772 0
M  V30 11383 H 1075.26 -1.6255 -3.44031 0
M  V30 11384 H 1074.77 -3.08866 -2.34997 0
M  V30 11385 H 1072.87 -0.962907 -3.59943 0
M  V30 11386 H 1072.99 -2.82799 -3.86732 0
M  V30 11387 H 1071.35 -1.42423 -2.11158 0
M  V30 11388 H 1072.13 -3.02354 -1.62595 0
M  V30 11389 N 1074.58 1.12322 -1.10551 0
M  V30 11390 C 1075.82 1.8413 -0.849932 0
M  V30 11391 C 1076.16 1.83938 0.622946 0
M  V30 11392 O 1075.43 1.28579 1.45937 0
M  V30 11393 C 1075.72 3.31751 -1.40048 0
M  V30 11394 C 1075.57 3.40391 -2.9403 0
M  V30 11395 C 1076.89 4.27543 -1.04379 0
M  V30 11396 H 1074.01 0.668533 -0.310213 0
M  V30 11397 H 1076.65 1.31766 -1.36886 0
M  V30 11398 H 1074.8 3.76475 -0.959102 0
M  V30 11399 H 1076.47 3.04294 -3.46703 0
M  V30 11400 H 1074.71 2.809 -3.30571 0
M  V30 11401 H 1075.38 4.44252 -3.27635 0
M  V30 11402 H 1077.86 3.90951 -1.42466 0
M  V30 11403 H 1076.74 5.2924 -1.4559 0
M  V30 11404 H 1077 4.42075 0.0466316 0
M  V30 11405 N 1076.06 0.894434 1.2976 0
M  V30 11406 C 1077.47 0.566892 1.77885 0
M  V30 11407 C 1077.82 -0.917289 1.73437 0
M  V30 11408 O 1076.94 -1.71707 1.31703 0
M  V30 11409 C 1077.54 1.02227 3.2301 0
M  V30 11410 C 1076.1 0.745978 3.68934 0
M  V30 11411 C 1075.24 1.19993 2.49994 0
M  V30 11412 H 1078.2 1.0777 1.16496 0
M  V30 11413 H 1078.22 0.355281 3.78838 0
M  V30 11414 H 1077.73 2.1025 3.26215 0
M  V30 11415 H 1075.83 -0.321866 3.71207 0
M  V30 11416 H 1075.94 1.34017 4.59974 0
M  V30 11417 H 1074.31 0.619047 2.47063 0
M  V30 11418 H 1075.09 2.28811 2.55931 0
M  V30 11419 N 1077.53 -1.43282 0.656365 0
M  V30 11420 C 1078.44 -2.34576 -0.033864 0
M  V30 11421 C 1079.46 -1.5406 -0.808793 0
M  V30 11422 O 1080.64 -1.867 -0.755322 0
M  V30 11423 C 1077.7 -3.32378 -0.986197 0
M  V30 11424 C 1076.76 -4.28797 -0.207851 0
M  V30 11425 C 1076 -5.21927 -1.11482 0
M  V30 11426 O 1076.22 -5.19554 -2.35414 0
M  V30 11427 O 1075.15 -5.99045 -0.585536 0
M  V30 11428 H 1078.98 -2.95099 0.717668 0
M  V30 11429 H 1076.56 -1.43475 0.416556 0
M  V30 11430 H 1078.45 -3.9251 -1.53341 0
M  V30 11431 H 1077.12 -2.74354 -1.7179 0
M  V30 11432 H 1076.03 -3.72134 0.383022 0
M  V30 11433 H 1077.36 -4.89811 0.48435 0
M  V30 11434 N 1079.01 -0.398486 -1.52479 0
M  V30 11435 C 1080.26 0.182046 -2.00877 0
M  V30 11436 C 1080.58 1.47128 -1.2889 0
M  V30 11437 O 1081.78 2.13242 -1.68048 0
M  V30 11438 C 1080.24 0.374978 -3.57941 0
M  V30 11439 C 1079.85 -0.901544 -4.38835 0
M  V30 11440 C 1081.59 0.911378 -4.14601 0
M  V30 11441 C 1079.5 -0.676385 -5.87519 0
M  V30 11442 H 1078.43 0.0718068 -0.750573 0
M  V30 11443 H 1081.08 -0.522297 -1.7591 0
M  V30 11444 H 1079.46 1.14139 -3.79194 0
M  V30 11445 H 1080.63 -1.67329 -4.29346 0
M  V30 11446 H 1078.95 -1.36357 -3.93441 0
M  V30 11447 H 1081.55 1.09569 -5.23353 0
M  V30 11448 H 1081.89 1.88306 -3.71277 0
M  V30 11449 H 1082.42 0.204296 -3.97275 0
M  V30 11450 H 1079.16 -1.61933 -6.35184 0
M  V30 11451 H 1078.68 0.0562542 -5.99774 0
M  V30 11452 H 1080.36 -0.314454 -6.46235 0
M  V30 11453 N 1080.49 1.57075 -0.12858 0
M  V30 11454 C 1081.91 1.57964 0.227961 0
M  V30 11455 C 1082.11 1.14186 1.66023 0
M  V30 11456 O 1081.16 0.833655 2.38341 0
M  V30 11457 C 1082.48 3.00697 -0.0140648 0
M  V30 11458 C 1084.02 3.12958 0.0510876 0
M  V30 11459 C 1084.5 4.57709 -0.163368 0
M  V30 11460 N 1085.99 4.6307 -0.109663 0
M  V30 11461 C 1086.73 5.72853 -0.250366 0
M  V30 11462 N 1086.22 6.91351 -0.447772 0
M  V30 11463 N 1088.01 5.61781 -0.189265 0
M  V30 11464 H 1080.17 1.83829 -1.06398 0
M  V30 11465 H 1082.43 0.850014 -0.419739 0
M  V30 11466 H 1082.13 3.37047 -1.00461 0
M  V30 11467 H 1082.01 3.70389 0.713571 0
M  V30 11468 H 1084.4 2.7646 1.03216 0
M  V30 11469 H 1084.48 2.4579 -0.708583 0
M  V30 11470 H 1084.12 4.94907 -1.14146 0
M  V30 11471 H 1084.05 5.2298 0.616405 0
M  V30 11472 H 1086.54 3.7788 0.0390086 0
M  V30 11473 H 1086.85 7.70871 -0.54574 0
M  V30 11474 H 1085.2 6.93314 -0.483866 0
M  V30 11475 H 1088.39 4.68086 -0.0359374 0
M  V30 11476 H 1088.56 6.47294 -0.302359 0
M  V30 11477 N 1081.97 -0.145205 1.5693 0
M  V30 11478 C 1083.39 -0.497905 1.51635 0
M  V30 11479 C 1083.59 -1.8328 0.837301 0
M  V30 11480 O 1082.64 -2.49172 0.408584 0
M  V30 11481 C 1083.95 -0.506557 2.96403 0
M  V30 11482 C 1085.5 -0.591947 3.07352 0
M  V30 11483 C 1085.98 -0.631244 4.53629 0
M  V30 11484 N 1087.47 -0.693417 4.5798 0
M  V30 11485 C 1088.2 -0.744836 5.68542 0
M  V30 11486 N 1087.7 -0.755492 6.88668 0
M  V30 11487 N 1089.49 -0.785854 5.5658 0
M  V30 11488 H 1081.64 0.729779 1.99469 0
M  V30 11489 H 1083.91 0.266295 0.90983 0
M  V30 11490 H 1083.61 0.406127 3.49347 0
M  V30 11491 H 1083.49 -1.34383 3.5245 0
M  V30 11492 H 1085.87 -1.49505 2.54425 0
M  V30 11493 H 1085.95 0.272507 2.54344 0
M  V30 11494 H 1085.6 0.26771 5.07194 0
M  V30 11495 H 1085.53 -1.51221 5.0442 0
M  V30 11496 H 1088.02 -0.692408 3.71503 0
M  V30 11497 H 1088.33 -0.796624 7.68683 0
M  V30 11498 H 1086.68 -0.723339 6.91226 0
M  V30 11499 H 1089.87 -0.774712 4.61645 0
M  V30 11500 H 1090.04 -0.822461 6.42759 0
M  V30 11501 N 1083.45 -1.52049 -0.414609 0
M  V30 11502 C 1084.72 -1.56397 -1.17471 0
M  V30 11503 C 1085.1 -0.34171 -2.08316 0
M  V30 11504 O 1084.45 0.6718 -2.18401 0
M  V30 11505 C 1084.66 -2.88983 -1.95678 0
M  V30 11506 C 1086.01 -3.41781 -2.51935 0
M  V30 11507 O 1087.03 -2.90686 -2.05865 0
M  V30 11508 O 1085.89 -4.30989 -3.36022 0
M  V30 11509 H 1082.99 -0.62974 -0.536056 0
M  V30 11510 H 1085.53 -1.64374 -0.421834 0
M  V30 11511 H 1084.31 -3.69392 -1.29094 0
M  V30 11512 H 1083.93 -2.84274 -2.77983 0
M  V30 11513 N 1084.93 0.6715 -1.42579 0
M  V30 11514 C 1085.88 1.77767 -1.42769 0
M  V30 11515 C 1086.86 1.58106 -0.298568 0
M  V30 11516 O 1088.05 1.68528 -0.541037 0
M  V30 11517 C 1085.18 3.16248 -1.33574 0
M  V30 11518 C 1084.27 3.41521 -2.51445 0
M  V30 11519 N 1084.66 3.37361 -3.76857 0
M  V30 11520 C 1082.96 3.7217 -2.45776 0
M  V30 11521 C 1083.66 3.62209 -4.5517 0
M  V30 11522 N 1082.63 3.83134 -3.85628 0
M  V30 11523 H 1086.43 1.72949 -2.37626 0
M  V30 11524 H 1083.95 0.872467 -1.36974 0
M  V30 11525 H 1085.95 3.9552 -1.31793 0
M  V30 11526 H 1084.61 3.22261 -0.397223 0
M  V30 11527 H 1085.62 3.17187 -4.09406 0
M  V30 11528 H 1082.29 3.85408 -1.6052 0
M  V30 11529 H 1083.68 3.64925 -5.64162 0
M  V30 11530 N 1086.4 1.28806 0.908124 0
M  V30 11531 C 1087.65 1.16287 1.65781 0
M  V30 11532 C 1087.98 -0.287389 1.92365 0
M  V30 11533 O 1087.23 -1.22491 1.52625 0
M  V30 11534 C 1087.53 1.91267 3.01914 0
M  V30 11535 C 1087.2 3.41033 2.9497 0
M  V30 11536 C 1085.86 3.81879 2.92783 0
M  V30 11537 C 1088.21 4.36507 2.848 0
M  V30 11538 C 1085.54 5.16529 2.78235 0
M  V30 11539 C 1087.89 5.71237 2.71792 0
M  V30 11540 C 1086.56 6.11351 2.67967 0
M  V30 11541 H 1085.83 0.425526 0.606637 0
M  V30 11542 H 1088.47 1.59646 1.05762 0
M  V30 11543 H 1086.78 1.40474 3.65752 0
M  V30 11544 H 1088.48 1.78992 3.58835 0
M  V30 11545 H 1085.07 3.08561 2.97469 0
M  V30 11546 H 1089.25 4.05909 2.85573 0
M  V30 11547 H 1084.51 5.4673 2.73672 0
M  V30 11548 H 1088.68 6.44872 2.62892 0
M  V30 11549 H 1086.31 7.15637 2.56451 0
M  V30 11550 N 1087.88 -1.11734 1.11145 0
M  V30 11551 C 1088.79 -2.21267 0.779607 0
M  V30 11552 C 1089.81 -1.72526 -0.225986 0
M  V30 11553 O 1090.98 -2.01302 -0.0629166 0
M  V30 11554 C 1088.05 -3.45973 0.22435 0
M  V30 11555 C 1087.11 -4.09518 1.28816 0
M  V30 11556 C 1086.34 -5.28271 0.7593 0
M  V30 11557 O 1086.57 -5.68912 -0.411725 0
M  V30 11558 O 1085.5 -5.82322 1.52266 0
M  V30 11559 H 1089.33 -2.5206 1.6941 0
M  V30 11560 H 1086.91 -1.20211 0.887115 0
M  V30 11561 H 1088.79 -4.21322 -0.0810921 0
M  V30 11562 H 1087.47 -3.1684 -0.662891 0
M  V30 11563 H 1086.37 -3.35915 1.64657 0
M  V30 11564 H 1087.71 -4.42824 2.14868 0
M  V30 11565 N 1089.36 -0.901303 -1.29284 0
M  V30 11566 C 1090.27 -0.3849 -2.31421 0
M  V30 11567 C 1091.29 0.521163 -1.66012 0
M  V30 11568 O 1092.46 0.410356 -1.97175 0
M  V30 11569 C 1089.53 0.377804 -3.44635 0
M  V30 11570 C 1088.59 -0.559974 -4.25632 0
M  V30 11571 C 1087.82 0.166425 -5.3344 0
M  V30 11572 O 1088.04 1.39012 -5.53202 0
M  V30 11573 O 1086.98 -0.491875 -5.99887 0
M  V30 11574 H 1090.8 -1.2323 -2.77575 0
M  V30 11575 H 1088.39 -0.665683 -1.3375 0
M  V30 11576 H 1090.27 0.809041 -4.13561 0
M  V30 11577 H 1088.95 1.20124 -3.00586 0
M  V30 11578 H 1087.85 -1.04036 -3.59343 0
M  V30 11579 H 1089.19 -1.34987 -4.73328 0
M  V30 11580 N 1090.84 1.42931 -0.663954 0
M  V30 11581 C 1091.8 2.29197 0.0117626 0
M  V30 11582 C 1092.8 1.42767 0.739875 0
M  V30 11583 O 1093.99 1.64278 0.579509 0
M  V30 11584 C 1091.12 3.2505 1.02738 0
M  V30 11585 H 1092.32 2.90438 -0.747391 0
M  V30 11586 H 1089.87 1.5039 -0.425733 0
M  V30 11587 H 1090.6 2.68726 1.8154 0
M  V30 11588 H 1090.39 3.88785 0.508809 0
M  V30 11589 H 1091.88 3.89771 1.49893 0
M  V30 11590 N 1092.32 0.406567 1.52266 0
M  V30 11591 C 1093.25 -0.464709 2.23418 0
M  V30 11592 C 1094.23 -1.05008 1.24146 0
M  V30 11593 O 1095.41 -1.09843 1.53188 0
M  V30 11594 C 1092.54 -1.64481 2.96081 0
M  V30 11595 C 1091.58 -1.18307 4.09763 0
M  V30 11596 S 1092.42 -0.150326 5.35289 0
M  V30 11597 C 1093.57 -1.3358 6.11479 0
M  V30 11598 H 1093.81 0.139455 2.96973 0
M  V30 11599 H 1091.34 0.19085 1.53216 0
M  V30 11600 H 1093.3 -2.3215 3.38551 0
M  V30 11601 H 1091.96 -2.22031 2.22174 0
M  V30 11602 H 1091.15 -2.06466 4.59769 0
M  V30 11603 H 1090.75 -0.58505 3.69396 0
M  V30 11604 H 1093.04 -2.25986 6.38699 0
M  V30 11605 H 1093.99 -0.876328 7.02656 0
M  V30 11606 H 1094.4 -1.56044 5.42504 0
M  V30 11607 N 1093.79 -1.57004 0.136909 0
M  V30 11608 C 1095.21 -1.58082 -0.21958 0
M  V30 11609 C 1095.41 -1.15065 -1.65415 0
M  V30 11610 O 1094.47 -0.846284 -2.37896 0
M  V30 11611 C 1095.78 -3.00685 0.0300112 0
M  V30 11612 C 1097.33 -3.12981 -0.0344899 0
M  V30 11613 C 1097.8 -4.57615 0.187639 0
M  V30 11614 N 1099.29 -4.63005 0.134219 0
M  V30 11615 C 1100.03 -5.72712 0.280743 0
M  V30 11616 N 1099.52 -6.91104 0.48443 0
M  V30 11617 N 1101.32 -5.61673 0.219055 0
M  V30 11618 H 1093.47 -1.83262 1.07372 0
M  V30 11619 H 1095.73 -0.847776 0.424241 0
M  V30 11620 H 1095.44 -3.36509 1.02247 0
M  V30 11621 H 1095.31 -3.70762 -0.693918 0
M  V30 11622 H 1097.7 -2.77004 -1.01749 0
M  V30 11623 H 1097.78 -2.45411 0.721608 0
M  V30 11624 H 1097.42 -4.94295 1.16769 0
M  V30 11625 H 1097.35 -5.23299 -0.588661 0
M  V30 11626 H 1099.84 -3.77895 -0.0189681 0
M  V30 11627 H 1100.16 -7.7057 0.586613 0
M  V30 11628 H 1098.5 -6.93047 0.520627 0
M  V30 11629 H 1101.69 -4.68061 0.0607606 0
M  V30 11630 H 1101.87 -6.47125 0.336683 0
M  V30 11631 N 1095.27 0.136881 -1.57004 0
M  V30 11632 C 1096.52 0.847775 -1.83899 0
M  V30 11633 C 1096.85 1.80709 -0.719332 0
M  V30 11634 O 1096.1 1.93527 0.290838 0
M  V30 11635 C 1096.4 1.64711 -3.17183 0
M  V30 11636 C 1096.07 0.833683 -4.43126 0
M  V30 11637 C 1094.73 0.609306 -4.77327 0
M  V30 11638 C 1097.08 0.265504 -5.20523 0
M  V30 11639 C 1094.41 -0.193793 -5.8638 0
M  V30 11640 C 1096.76 -0.524688 -6.3042 0
M  V30 11641 C 1095.43 -0.759548 -6.63164 0
M  V30 11642 H 1094.7 0.310223 -0.672936 0
M  V30 11643 H 1097.34 0.110937 -1.91178 0
M  V30 11644 H 1095.65 2.45435 -3.054 0
M  V30 11645 H 1097.34 2.20081 -3.3521 0
M  V30 11646 H 1093.93 1.01864 -4.16319 0
M  V30 11647 H 1098.12 0.426109 -4.94467 0
M  V30 11648 H 1093.37 -0.385153 -6.10186 0
M  V30 11649 H 1097.55 -0.972033 -6.89583 0
M  V30 11650 H 1095.18 -1.38369 -7.47501 0
M  V30 11651 N 1096.75 1.52266 0.40654 0
M  V30 11652 C 1097.71 1.75168 1.47814 0
M  V30 11653 C 1098.71 0.621575 1.48301 0
M  V30 11654 O 1099.9 0.889476 1.4978 0
M  V30 11655 C 1097.04 1.83642 2.87208 0
M  V30 11656 H 1098.23 2.70834 1.28798 0
M  V30 11657 H 1095.78 1.42722 0.637196 0
M  V30 11658 H 1096.52 0.898994 3.1159 0
M  V30 11659 H 1096.3 2.65801 2.88257 0
M  V30 11660 H 1097.79 2.03093 3.64888 0
M  V30 11661 N 1098.23 -0.663929 1.42933 0
M  V30 11662 C 1099.64 -0.978346 1.26097 0
M  V30 11663 C 1099.84 -2.00756 0.172968 0
M  V30 11664 O 1098.9 -2.48418 -0.452184 0
M  V30 11665 C 1100.21 -1.4728 2.62162 0
M  V30 11666 C 1101.76 -1.59001 2.69606 0
M  V30 11667 C 1102.24 -2.1184 4.06064 0
M  V30 11668 N 1103.73 -2.19158 4.08074 0
M  V30 11669 C 1104.46 -2.61141 5.10483 0
M  V30 11670 N 1103.96 -3.02498 6.23271 0
M  V30 11671 N 1105.75 -2.60986 4.97838 0
M  V30 11672 H 1097.9 0.0173096 2.12393 0
M  V30 11673 H 1100.17 -0.0548116 0.946414 0
M  V30 11674 H 1099.87 -0.791008 3.42689 0
M  V30 11675 H 1099.75 -2.4497 2.86827 0
M  V30 11676 H 1102.13 -2.26284 1.89418 0
M  V30 11677 H 1102.21 -0.597728 2.48718 0
M  V30 11678 H 1101.86 -1.45162 4.86714 0
M  V30 11679 H 1101.79 -3.1188 4.2431 0
M  V30 11680 H 1104.28 -1.90013 3.26655 0
M  V30 11681 H 1104.59 -3.33251 6.97254 0
M  V30 11682 H 1102.94 -3.00328 6.2676 0
M  V30 11683 H 1106.13 -2.28046 4.08794 0
M  V30 11684 H 1106.3 -2.93384 5.7778 0
M  V30 11685 N 1099.71 -1.29285 -0.901281 0
M  V30 11686 C 1101.12 -1.07263 -1.18182 0
M  V30 11687 C 1101.32 0.177087 -2.0072 0
M  V30 11688 O 1100.38 0.875292 -2.36844 0
M  V30 11689 C 1101.69 -2.32717 -1.9043 0
M  V30 11690 C 1103.24 -2.3802 -2.03262 0
M  V30 11691 C 1103.71 -3.63273 -2.7892 0
M  V30 11692 N 1105.21 -3.63986 -2.86475 0
M  V30 11693 C 1105.94 -4.57585 -3.45549 0
M  V30 11694 N 1105.44 -5.61513 -4.05801 0
M  V30 11695 N 1107.23 -4.45157 -3.43208 0
M  V30 11696 H 1099.38 -2.09487 -0.350536 0
M  V30 11697 H 1101.64 -0.922647 -0.217778 0
M  V30 11698 H 1101.35 -3.23828 -1.37216 0
M  V30 11699 H 1101.22 -2.40102 -2.90913 0
M  V30 11700 H 1103.61 -1.47398 -2.55652 0
M  V30 11701 H 1103.69 -2.3462 -1.01916 0
M  V30 11702 H 1103.34 -4.54246 -2.27206 0
M  V30 11703 H 1103.27 -3.6393 -3.80608 0
M  V30 11704 H 1105.76 -2.8884 -2.43679 0
M  V30 11705 H 1106.07 -6.29058 -4.48894 0
M  V30 11706 H 1104.41 -5.65325 -4.04268 0
M  V30 11707 H 1107.61 -3.63158 -2.95354 0
M  V30 11708 H 1107.78 -5.18286 -3.88952 0
M  V30 11709 N 1101.18 1.11143 -1.11736 0
M  V30 11710 C 1102.41 1.87285 -0.891007 0
M  V30 11711 C 1102.83 1.79758 0.553971 0
M  V30 11712 O 1102.19 1.16221 1.39149 0
M  V30 11713 C 1102.24 3.33924 -1.36114 0
M  V30 11714 O 1101.34 4.08917 -0.534851 0
M  V30 11715 H 1100.69 0.581418 -0.320701 0
M  V30 11716 H 1103.22 1.40469 -1.4876 0
M  V30 11717 H 1103.23 3.84772 -1.35701 0
M  V30 11718 H 1101.9 3.38719 -2.41334 0
M  V30 11719 H 1100.48 3.67954 -0.605355 0
M  V30 11720 N 1102.66 0.908147 1.28804 0
M  V30 11721 C 1103.91 0.539201 1.95501 0
M  V30 11722 C 1104.24 -0.913759 1.7136 0
M  V30 11723 O 1103.52 -1.64904 1.03136 0
M  V30 11724 C 1103.8 0.842372 3.50109 0
M  V30 11725 C 1103.65 2.34765 3.83673 0
M  V30 11726 C 1104.97 0.334658 4.38826 0
M  V30 11727 H 1102.09 0.197373 0.71008 0
M  V30 11728 H 1104.73 1.13637 1.52272 0
M  V30 11729 H 1102.88 0.334143 3.8706 0
M  V30 11730 H 1104.55 2.92607 3.56621 0
M  V30 11731 H 1102.8 2.80494 3.30916 0
M  V30 11732 H 1103.47 2.51034 4.91616 0
M  V30 11733 H 1105.94 0.769961 4.08914 0
M  V30 11734 H 1104.82 0.575914 5.4587 0
M  V30 11735 H 1105.08 -0.764878 4.35433 0
M  V30 11736 N 1104.14 -1.42577 0.671525 0
M  V30 11737 C 1105.37 -2.06442 0.199152 0
M  V30 11738 C 1105.79 -1.50104 -1.1336 0
M  V30 11739 O 1105.15 -0.618211 -1.70434 0
M  V30 11740 C 1105.2 -3.60323 0.141215 0
M  V30 11741 O 1104.3 -4.02655 -0.891238 0
M  V30 11742 H 1103.64 -0.655919 0.103277 0
M  V30 11743 H 1106.17 -1.82768 0.919614 0
M  V30 11744 H 1106.18 -4.07984 -0.0360209 0
M  V30 11745 H 1104.86 -4.00702 1.11403 0
M  V30 11746 H 1103.43 -3.66549 -0.685309 0
M  V30 11747 N 1105.62 -0.414636 -1.52048 0
M  V30 11748 C 1106.9 0.218172 -1.94379 0
M  V30 11749 C 1107.28 1.62133 -1.35189 0
M  V30 11750 O 1106.62 2.22271 -0.529877 0
M  V30 11751 C 1106.83 0.218932 -3.48313 0
M  V30 11752 C 1108.18 0.435604 -4.2236 0
M  V30 11753 O 1109.21 0.298049 -3.54951 0
M  V30 11754 O 1108.06 0.707217 -5.41905 0
M  V30 11755 H 1105.16 0.142173 -0.814688 0
M  V30 11756 H 1107.7 -0.470977 -1.63033 0
M  V30 11757 H 1106.48 -0.76292 -3.83791 0
M  V30 11758 H 1106.1 0.951949 -3.86036 0
M  V30 11759 N 1107.1 1.56929 -0.145233 0
M  V30 11760 C 1108.04 2.17958 0.812237 0
M  V30 11761 C 1109.04 1.13608 1.25657 0
M  V30 11762 O 1110.24 1.31861 1.22526 0
M  V30 11763 H 1106.62 0.697876 0.28013 0
M  V30 11764 H 1108.59 2.97146 0.273297 0
M  V30 11765 C 1107.34 2.81418 2.04203 0
M  V30 11766 H 1106.66 3.61427 1.70911 0
M  V30 11767 H 1108.1 3.27624 2.69144 0
M  V30 11768 C 1106.56 1.79835 2.84888 0
M  V30 11769 O 1107.09 1.26773 3.81171 0
M  V30 11770 N 1105.3 1.49179 2.49387 0
M  V30 11771 H 1104.84 1.9252 1.71154 0
M  V30 11772 H 1104.8 0.81458 3.03664 0
M  V30 11773 N 1108.58 -0.128553 1.57075 0
M  V30 11774 C 1109.85 -0.867766 1.75297 0
M  V30 11775 C 1110.23 -1.98508 0.718176 0
M  V30 11776 O 1109.58 -2.2702 -0.259616 0
M  V30 11777 C 1109.79 -1.39326 3.19983 0
M  V30 11778 C 1111.14 -1.84939 3.82208 0
M  V30 11779 O 1112.16 -1.49027 3.23527 0
M  V30 11780 O 1111.02 -2.51227 4.85332 0
M  V30 11781 H 1108.12 -0.411393 0.717415 0
M  V30 11782 H 1110.66 -0.113038 1.69323 0
M  V30 11783 H 1109.43 -0.591172 3.86809 0
M  V30 11784 H 1109.06 -2.21097 3.30457 0
M  V30 11785 N 1110.05 -1.5248 -0.398459 0
M  V30 11786 C 1111.3 -1.66287 -1.14155 0
M  V30 11787 C 1111.62 -0.40429 -1.91376 0
M  V30 11788 O 1112.82 -0.422341 -2.68195 0
M  V30 11789 C 1111.28 -2.93831 -2.07825 0
M  V30 11790 C 1110.89 -4.26836 -1.3607 0
M  V30 11791 C 1112.63 -3.17004 -2.82327 0
M  V30 11792 C 1110.54 -5.45495 -2.28451 0
M  V30 11793 H 1109.47 -0.619478 -0.42984 0
M  V30 11794 H 1112.12 -1.78972 -0.405112 0
M  V30 11795 H 1110.5 -2.7487 -2.85065 0
M  V30 11796 H 1111.67 -4.56317 -0.641205 0
M  V30 11797 H 1109.99 -4.0985 -0.735659 0
M  V30 11798 H 1112.59 -4.02834 -3.51609 0
M  V30 11799 H 1112.93 -2.3168 -3.45876 0
M  V30 11800 H 1113.46 -3.36487 -2.12183 0
M  V30 11801 H 1110.2 -6.33198 -1.69532 0
M  V30 11802 H 1109.72 -5.20338 -2.98343 0
M  V30 11803 H 1111.4 -5.78996 -2.88743 0
M  V30 11804 N 1111.53 0.65634 -1.43283 0
M  V30 11805 C 1112.95 0.971645 -1.26614 0
M  V30 11806 C 1113.15 2.00662 -0.183612 0
M  V30 11807 O 1112.2 2.48654 0.439003 0
M  V30 11808 C 1113.52 1.45888 -2.6294 0
M  V30 11809 C 1115.06 1.57569 -2.70446 0
M  V30 11810 C 1115.54 2.09684 -4.07181 0
M  V30 11811 N 1117.03 2.16991 -4.0923 0
M  V30 11812 C 1117.77 2.5843 -5.11861 0
M  V30 11813 N 1117.26 2.99188 -6.24867 0
M  V30 11814 N 1119.05 2.58342 -4.99215 0
M  V30 11815 H 1111.21 -0.028573 -2.12381 0
M  V30 11816 H 1113.47 0.0497918 -0.946691 0
M  V30 11817 H 1113.17 0.772823 -3.43104 0
M  V30 11818 H 1113.05 2.43445 -2.88122 0
M  V30 11819 H 1115.44 2.25277 -1.90616 0
M  V30 11820 H 1115.52 0.584529 -2.49032 0
M  V30 11821 H 1115.16 1.42579 -4.87477 0
M  V30 11822 H 1115.09 3.09625 -4.25958 0
M  V30 11823 H 1117.58 1.88278 -3.27658 0
M  V30 11824 H 1117.89 3.29549 -6.99012 0
M  V30 11825 H 1116.24 2.97 -6.28344 0
M  V30 11826 H 1119.43 2.25875 -4.09998 0
M  V30 11827 H 1119.6 2.90316 -5.79328 0
M  V30 11828 N 1113.01 1.29761 0.894412 0
M  V30 11829 C 1113.96 1.15341 1.99912 0
M  V30 11830 C 1114.93 0.0453488 1.66038 0
M  V30 11831 O 1116.11 0.213829 1.89598 0
M  V30 11832 C 1113.25 0.841432 3.34685 0
M  V30 11833 C 1112.36 2.03046 3.81309 0
M  V30 11834 C 1111.5 1.65739 5.04682 0
M  V30 11835 C 1110.54 2.81191 5.43689 0
M  V30 11836 N 1109.68 2.44244 6.58247 0
M  V30 11837 H 1114.52 2.09854 2.11578 0
M  V30 11838 H 1112.05 1.04421 1.03608 0
M  V30 11839 H 1114.01 0.641211 4.12243 0
M  V30 11840 H 1112.64 -0.066797 3.22731 0
M  V30 11841 H 1111.69 2.34222 2.9974 0
M  V30 11842 H 1113 2.89538 4.06164 0
M  V30 11843 H 1112.16 1.42036 5.8984 0
M  V30 11844 H 1110.9 0.764019 4.81678 0
M  V30 11845 H 1109.9 3.0557 4.57064 0
M  V30 11846 H 1111.13 3.712 5.68672 0
M  V30 11847 H 1109.07 1.57402 6.36837 0
M  V30 11848 H 1108.99 3.24269 6.82924 0
M  V30 11849 H 1110.26 2.23875 7.46659 0
M  V30 11850 N 1114.49 -1.10549 1.12324 0
M  V30 11851 C 1115.72 -1.86 0.899312 0
M  V30 11852 C 1116.13 -1.80881 -0.554854 0
M  V30 11853 O 1115.47 -1.19485 -1.39531 0
M  V30 11854 C 1115.53 -3.35384 1.29452 0
M  V30 11855 C 1115.19 -3.64263 2.75974 0
M  V30 11856 C 1116.19 -3.60962 3.74169 0
M  V30 11857 C 1113.88 -3.92976 3.1285 0
M  V30 11858 C 1115.87 -3.85966 5.07256 0
M  V30 11859 C 1113.56 -4.17637 4.4612 0
M  V30 11860 C 1114.56 -4.14122 5.43132 0
M  V30 11861 O 1114.24 -4.38156 6.73999 0
M  V30 11862 H 1113.98 -0.594743 0.321337 0
M  V30 11863 H 1116.53 -1.40674 1.49667 0
M  V30 11864 H 1114.76 -3.81361 0.640358 0
M  V30 11865 H 1116.45 -3.9222 1.04491 0
M  V30 11866 H 1117.21 -3.38819 3.47025 0
M  V30 11867 H 1113.09 -3.94843 2.3795 0
M  V30 11868 H 1116.64 -3.83138 5.82967 0
M  V30 11869 H 1112.53 -4.39258 4.72993 0
M  V30 11870 H 1113.3 -4.55677 6.79927 0
M  V30 11871 N 1115.97 -0.914965 -1.28321 0
M  V30 11872 C 1116.88 -0.409424 -2.31 0
M  V30 11873 C 1117.89 0.503526 -1.66555 0
M  V30 11874 O 1119.07 0.38942 -1.97599 0
M  V30 11875 C 1116.13 0.34123 -3.45017 0
M  V30 11876 C 1115.19 -0.605087 -4.25014 0
M  V30 11877 C 1114.43 0.109837 -5.33587 0
M  V30 11878 O 1114.65 1.33136 -5.54645 0
M  V30 11879 O 1113.58 -0.555474 -5.99331 0
M  V30 11880 H 1117.41 -1.26167 -2.76253 0
M  V30 11881 H 1114.99 -0.679831 -1.33036 0
M  V30 11882 H 1116.88 0.765132 -4.14396 0
M  V30 11883 H 1115.55 1.16929 -3.01843 0
M  V30 11884 H 1114.46 -1.07841 -3.58219 0
M  V30 11885 H 1115.79 -1.39999 -4.7187 0
M  V30 11886 N 1117.44 1.42219 -0.679077 0
M  V30 11887 C 1118.38 2.28152 0.0468359 0
M  V30 11888 C 1119.35 1.41307 0.804433 0
M  V30 11889 O 1120.54 1.70744 0.798673 0
M  V30 11890 C 1117.67 3.21236 1.07355 0
M  V30 11891 C 1116.71 4.24515 0.411042 0
M  V30 11892 S 1117.54 5.28958 -0.834506 0
M  V30 11893 C 1118.7 6.25608 0.191029 0
M  V30 11894 H 1118.93 2.89371 -0.682045 0
M  V30 11895 H 1116.47 1.47112 -0.468767 0
M  V30 11896 H 1118.42 3.75402 1.66082 0
M  V30 11897 H 1117.09 2.59145 1.7749 0
M  V30 11898 H 1116.28 4.89849 1.1859 0
M  V30 11899 H 1115.88 3.73859 -0.102742 0
M  V30 11900 H 1118.17 6.69323 1.04944 0
M  V30 11901 H 1119.12 7.06806 -0.427959 0
M  V30 11902 H 1119.52 5.61926 0.538422 0
M  V30 11903 N 1118.92 0.422693 1.51826 0
M  V30 11904 C 1120.17 -0.148641 2.01954 0
M  V30 11905 C 1120.5 -1.43982 1.30765 0
M  V30 11906 O 1119.75 -1.91428 0.406668 0
M  V30 11907 C 1120.05 -0.429516 3.5481 0
M  V30 11908 C 1119.72 0.774088 4.44206 0
M  V30 11909 C 1118.38 1.1042 4.6836 0
M  V30 11910 C 1120.73 1.5777 4.96747 0
M  V30 11911 C 1118.06 2.23887 5.42302 0
M  V30 11912 C 1120.41 2.70325 5.71933 0
M  V30 11913 C 1119.07 3.03807 5.94355 0
M  V30 11914 H 1118.34 -0.0543917 0.739001 0
M  V30 11915 H 1120.99 0.566892 1.82917 0
M  V30 11916 H 1119.3 -1.22678 3.72099 0
M  V30 11917 H 1120.99 -0.884761 3.91118 0
M  V30 11918 H 1117.58 0.506834 4.25593 0
M  V30 11919 H 1121.77 1.33589 4.77983 0
M  V30 11920 H 1117.02 2.50159 5.5788 0
M  V30 11921 H 1121.2 3.32974 6.11638 0
M  V30 11922 H 1118.82 3.91844 6.51431 0
M  V30 11923 N 1120.4 -1.5685 0.153553 0
M  V30 11924 C 1121.36 -2.15894 -0.769564 0
M  V30 11925 C 1122.36 -1.10239 -1.17064 0
M  V30 11926 O 1123.55 -1.35845 -1.09049 0
M  V30 11927 C 1120.68 -2.72738 -2.04516 0
M  V30 11928 H 1121.88 -2.98807 -0.255842 0
M  V30 11929 H 1119.43 -1.56005 -0.0959279 0
M  V30 11930 H 1120.17 -1.9351 -2.60239 0
M  V30 11931 H 1119.95 -3.50042 -1.76672 0
M  V30 11932 H 1121.44 -3.18208 -2.70432 0
M  V30 11933 N 1121.88 0.120221 -1.57141 0
M  V30 11934 C 1122.81 1.1732 -1.96898 0
M  V30 11935 C 1123.82 1.37722 -0.868134 0
M  V30 11936 O 1125.01 1.36818 -1.14643 0
M  V30 11937 C 1122.11 2.53343 -2.25102 0
M  V30 11938 C 1121.28 2.53559 -3.56408 0
M  V30 11939 C 1120.34 3.71319 -3.72838 0
M  V30 11940 O 1119.37 3.54961 -4.44962 0
M  V30 11941 N 1120.57 4.89836 -3.11514 0
M  V30 11942 H 1123.34 0.835023 -2.87832 0
M  V30 11943 H 1120.9 0.309508 -1.58914 0
M  V30 11944 H 1122.89 3.30679 -2.3331 0
M  V30 11945 H 1121.46 2.79347 -1.403 0
M  V30 11946 H 1120.68 1.61946 -3.59398 0
M  V30 11947 H 1121.97 2.5076 -4.42716 0
M  V30 11948 H 1121.37 5.0603 -2.52884 0
M  V30 11949 H 1119.92 5.64853 -3.25246 0
M  V30 11950 N 1123.36 1.52689 0.390367 0
M  V30 11951 C 1124.58 1.71541 1.15678 0
M  V30 11952 C 1125 0.433171 1.83764 0
M  V30 11953 O 1124.36 -0.592248 1.72623 0
M  V30 11954 C 1124.41 2.864 2.20584 0
M  V30 11955 O 1124.13 4.0966 1.55274 0
M  V30 11956 C 1125.63 3.1692 3.09962 0
M  V30 11957 H 1122.85 0.574381 0.346883 0
M  V30 11958 H 1125.39 1.99332 0.456851 0
M  V30 11959 H 1123.55 2.61075 2.86214 0
M  V30 11960 H 1123.96 4.73802 2.2497 0
M  V30 11961 H 1125.44 4.00755 3.79604 0
M  V30 11962 H 1125.91 2.31245 3.73393 0
M  V30 11963 H 1126.52 3.4408 2.49979 0
M  V30 11964 N 1124.83 -0.648732 1.43629 0
M  V30 11965 C 1125.76 -1.77298 1.51947 0
M  V30 11966 C 1126.75 -1.65942 0.373785 0
M  V30 11967 O 1127.93 -1.8497 0.591596 0
M  V30 11968 C 1125.06 -3.15749 1.44638 0
M  V30 11969 C 1124.01 -3.41872 2.57502 0
M  V30 11970 C 1123.34 -4.8017 2.35246 0
M  V30 11971 C 1124.64 -3.36173 3.99731 0
M  V30 11972 H 1126.33 -1.70594 2.46045 0
M  V30 11973 H 1123.88 -0.819306 1.1842 0
M  V30 11974 H 1125.83 -3.94156 1.4906 0
M  V30 11975 H 1124.56 -3.23194 0.470466 0
M  V30 11976 H 1123.22 -2.65838 2.5244 0
M  V30 11977 H 1122.86 -4.84297 1.35887 0
M  V30 11978 H 1122.56 -4.9861 3.10906 0
M  V30 11979 H 1124.09 -5.6083 2.41459 0
M  V30 11980 H 1125.5 -4.0451 4.06257 0
M  V30 11981 H 1123.9 -3.66148 4.75453 0
M  V30 11982 H 1124.97 -2.34277 4.24549 0
M  V30 11983 N 1126.31 -1.30234 -0.887518 0
M  V30 11984 C 1127.24 -1.12212 -1.99853 0
M  V30 11985 C 1128.26 -0.0660929 -1.62666 0
M  V30 11986 O 1129.45 -0.311853 -1.75755 0
M  V30 11987 C 1126.55 -0.688591 -3.31831 0
M  V30 11988 C 1125.72 -1.82581 -3.97471 0
M  V30 11989 C 1124.78 -1.38126 -5.07748 0
M  V30 11990 O 1123.8 -2.08805 -5.29518 0
M  V30 11991 N 1125.01 -0.258868 -5.79923 0
M  V30 11992 H 1127.77 -2.07901 -2.15864 0
M  V30 11993 H 1125.33 -1.22336 -1.06045 0
M  V30 11994 H 1127.32 -0.374252 -4.02966 0
M  V30 11995 H 1125.89 0.176185 -3.12103 0
M  V30 11996 H 1125.11 -2.3084 -3.19541 0
M  V30 11997 H 1126.4 -2.58798 -4.38065 0
M  V30 11998 H 1125.8 0.330131 -5.64736 0
M  V30 11999 H 1124.36 -0.00396813 -6.518 0
M  V30 12000 N 1127.79 1.09952 -1.12909 0
M  V30 12001 C 1128.72 2.16257 -0.759305 0
M  V30 12002 C 1129.74 1.61355 0.216427 0
M  V30 12003 O 1130.92 1.785 -0.00297224 0
M  V30 12004 C 1128.02 3.38741 -0.103908 0
M  V30 12005 C 1127.2 4.23072 -1.11037 0
M  V30 12006 C 1126.26 5.23991 -0.481667 0
M  V30 12007 O 1125.28 5.57665 -1.14011 0
M  V30 12008 N 1126.48 5.75652 0.748698 0
M  V30 12009 H 1129.25 2.48588 -1.67405 0
M  V30 12010 H 1126.81 1.25617 -1.02137 0
M  V30 12011 H 1128.8 4.03362 0.328799 0
M  V30 12012 H 1127.37 3.04344 0.713677 0
M  V30 12013 H 1126.59 3.5467 -1.72054 0
M  V30 12014 H 1127.88 4.76244 -1.79078 0
M  V30 12015 H 1127.28 5.505 1.30253 0
M  V30 12016 H 1125.84 6.42033 1.12415 0
M  V30 12017 N 1129.27 0.921757 1.27833 0
M  V30 12018 C 1130.49 0.574599 1.99281 0
M  V30 12019 C 1130.92 -0.838905 1.68357 0
M  V30 12020 O 1130.28 -1.56196 0.920468 0
M  V30 12021 C 1130.32 0.800027 3.51613 0
M  V30 12022 O 1129.43 -0.137215 4.12172 0
M  V30 12023 H 1128.77 0.221887 0.625829 0
M  V30 12024 H 1131.3 1.23939 1.62789 0
M  V30 12025 H 1131.31 0.71326 4.01717 0
M  V30 12026 H 1129.98 1.83042 3.73455 0
M  V30 12027 H 1128.56 -0.00103872 3.729 0
M  V30 12028 N 1130.75 -1.41857 0.686609 0
M  V30 12029 C 1132.16 -1.55549 0.357288 0
M  V30 12030 C 1132.36 -1.66394 -1.13646 0
M  V30 12031 O 1131.42 -1.63739 -1.92213 0
M  V30 12032 C 1132.73 -2.79938 1.09796 0
M  V30 12033 C 1134.28 -2.93724 1.08143 0
M  V30 12034 C 1134.75 -4.20989 1.80367 0
M  V30 12035 N 1136.25 -4.27927 1.77293 0
M  V30 12036 C 1136.98 -5.2524 2.30022 0
M  V30 12037 N 1136.48 -6.28636 2.91185 0
M  V30 12038 N 1138.27 -5.17118 2.20329 0
M  V30 12039 H 1130.42 -1.33063 1.65554 0
M  V30 12040 H 1132.68 -0.641335 0.698135 0
M  V30 12041 H 1132.39 -2.78104 2.15293 0
M  V30 12042 H 1132.26 -3.71188 0.670763 0
M  V30 12043 H 1134.65 -2.9508 0.0347554 0
M  V30 12044 H 1134.73 -2.03673 1.54761 0
M  V30 12045 H 1134.38 -4.20395 2.85009 0
M  V30 12046 H 1134.31 -5.09997 1.3119 0
M  V30 12047 H 1136.8 -3.53838 1.32692 0
M  V30 12048 H 1137.11 -6.99265 3.29011 0
M  V30 12049 H 1135.45 -6.29164 2.95259 0
M  V30 12050 H 1138.65 -4.35265 1.72226 0
M  V30 12051 H 1138.82 -5.92792 2.61728 0
M  V30 12052 N 1132.22 -0.430739 -1.51599 0
M  V30 12053 C 1133.47 0.137657 -2.01631 0
M  V30 12054 C 1133.79 1.43787 -1.31721 0
M  V30 12055 O 1133.06 1.90668 -0.449717 0
M  V30 12056 H 1131.64 0.0538611 -0.745056 0
M  V30 12057 H 1134.31 -0.571935 -1.86319 0
M  V30 12058 H 1133.4 0.318305 -3.10473 0
M  V30 12059 N 1133.7 1.56767 -0.161869 0
M  V30 12060 C 1134.95 1.96594 0.485496 0
M  V30 12061 C 1135.28 1.04743 1.63887 0
M  V30 12062 O 1134.53 0.079602 1.95538 0
M  V30 12063 C 1134.83 3.42567 1.01894 0
M  V30 12064 C 1134.5 4.50897 -0.0175419 0
M  V30 12065 C 1133.16 4.80249 -0.302429 0
M  V30 12066 C 1135.51 5.16181 -0.721572 0
M  V30 12067 C 1132.84 5.72187 -1.2969 0
M  V30 12068 C 1135.19 6.09191 -1.70496 0
M  V30 12069 C 1133.86 6.36915 -1.99739 0
M  V30 12070 H 1133.13 0.719388 0.177656 0
M  V30 12071 H 1135.77 1.89837 -0.251839 0
M  V30 12072 H 1134.08 3.4623 1.83391 0
M  V30 12073 H 1135.77 3.70719 1.52867 0
M  V30 12074 H 1132.36 4.28062 0.21468 0
M  V30 12075 H 1136.55 4.93624 -0.514681 0
M  V30 12076 H 1131.8 5.91953 -1.52974 0
M  V30 12077 H 1135.98 6.58849 -2.25591 0
M  V30 12078 H 1133.61 7.07958 -2.76948 0
M  V30 12079 N 1135.18 -0.111886 1.57202 0
M  V30 12080 C 1136.43 -0.816794 1.84859 0
M  V30 12081 C 1136.75 -1.80079 0.748113 0
M  V30 12082 O 1136.02 -1.94578 -0.227235 0
M  V30 12083 H 1134.6 -0.304633 0.682061 0
M  V30 12084 H 1137.26 -0.097513 1.94656 0
M  V30 12085 H 1136.36 -1.35768 2.81022 0
M  V30 12086 N 1136.66 -1.52894 -0.382264 0
M  V30 12087 C 1137.88 -1.72453 -1.15216 0
M  V30 12088 C 1138.31 -0.444925 -1.82762 0
M  V30 12089 O 1137.67 0.599825 -1.7109 0
M  V30 12090 C 1137.71 -2.87939 -2.17079 0
M  V30 12091 O 1136.82 -2.55383 -3.23811 0
M  V30 12092 H 1136.16 -0.57324 -0.335099 0
M  V30 12093 H 1138.69 -1.99713 -0.444495 0
M  V30 12094 H 1138.7 -3.13628 -2.60963 0
M  V30 12095 H 1137.37 -3.80765 -1.67305 0
M  V30 12096 H 1135.95 -2.40457 -2.85018 0
M  V30 12097 N 1138.14 0.641106 -1.43971 0
M  V30 12098 C 1139.38 1.40084 -1.46228 0
M  V30 12099 C 1139.71 1.94287 -0.0911011 0
M  V30 12100 O 1138.97 1.73481 0.905688 0
M  V30 12101 C 1139.27 2.59092 -2.46183 0
M  V30 12102 C 1138.93 2.23237 -3.9176 0
M  V30 12103 C 1137.59 2.13171 -4.31407 0
M  V30 12104 C 1139.95 1.94746 -4.83449 0
M  V30 12105 C 1137.27 1.72788 -5.60679 0
M  V30 12106 C 1139.63 1.55858 -6.13099 0
M  V30 12107 C 1138.29 1.44326 -6.5171 0
M  V30 12108 H 1137.56 0.512603 -0.535088 0
M  V30 12109 H 1140.21 0.727956 -1.77124 0
M  V30 12110 H 1138.51 3.31568 -2.08734 0
M  V30 12111 H 1140.21 3.17313 -2.4518 0
M  V30 12112 H 1136.8 2.31986 -3.60389 0
M  V30 12113 H 1140.98 2.01438 -4.53582 0
M  V30 12114 H 1136.24 1.62455 -5.89422 0
M  V30 12115 H 1140.41 1.32848 -6.83611 0
M  V30 12116 H 1138.04 1.12806 -7.51784 0
M  V30 12117 N 1139.62 1.30703 0.880598 0
M  V30 12118 C 1141.03 1.09129 1.1646 0
M  V30 12119 C 1141.23 -0.145131 2.00977 0
M  V30 12120 O 1140.29 -0.837502 2.38206 0
M  V30 12121 C 1141.6 2.35717 1.86703 0
M  V30 12122 C 1143.15 2.41224 1.9945 0
M  V30 12123 C 1143.62 3.67665 2.73105 0
M  V30 12124 N 1145.11 3.68498 2.80648 0
M  V30 12125 C 1145.85 4.63024 3.38225 0
M  V30 12126 N 1145.35 5.67898 3.96817 0
M  V30 12127 N 1147.14 4.50561 3.36082 0
M  V30 12128 H 1139.29 2.10019 0.317164 0
M  V30 12129 H 1141.55 0.925994 0.203072 0
M  V30 12130 H 1141.26 3.2597 1.32046 0
M  V30 12131 H 1141.13 2.447 2.87057 0
M  V30 12132 H 1143.52 1.51446 2.53275 0
M  V30 12133 H 1143.6 2.36212 0.981704 0
M  V30 12134 H 1143.24 4.57803 2.19951 0
M  V30 12135 H 1143.17 3.69939 3.7477 0
M  V30 12136 H 1145.67 2.92681 2.39053 0
M  V30 12137 H 1145.98 6.3612 4.3883 0
M  V30 12138 H 1144.32 5.71685 3.95223 0
M  V30 12139 H 1147.51 3.67811 2.89539 0
M  V30 12140 H 1147.69 5.24408 3.80657 0
M  V30 12141 N 1141.09 -1.09351 1.1349 0
M  V30 12142 C 1142.34 -1.81543 0.897123 0
M  V30 12143 C 1142.67 -1.85754 -0.576703 0
M  V30 12144 O 1141.92 -1.32213 -1.44285 0
M  V30 12145 C 1142.22 -3.27498 1.43108 0
M  V30 12146 C 1141.89 -3.4342 2.92188 0
M  V30 12147 C 1140.55 -3.47473 3.32891 0
M  V30 12148 C 1142.9 -3.47894 3.88097 0
M  V30 12149 C 1140.23 -3.5358 4.68186 0
M  V30 12150 C 1142.58 -3.55535 5.23238 0
M  V30 12151 C 1141.25 -3.57857 5.63467 0
M  V30 12152 H 1140.52 -0.664314 0.32828 0
M  V30 12153 H 1143.16 -1.28819 1.41697 0
M  V30 12154 H 1141.47 -3.82865 0.831946 0
M  V30 12155 H 1143.17 -3.8189 1.22316 0
M  V30 12156 H 1139.76 -3.4095 2.59713 0
M  V30 12157 H 1143.94 -3.44002 3.57737 0
M  V30 12158 H 1139.2 -3.53665 4.9873 0
M  V30 12159 H 1143.37 -3.57942 5.9737 0
M  V30 12160 H 1141 -3.62341 6.68291 0
M  V30 12161 N 1142.57 -0.928524 -1.27343 0
M  V30 12162 C 1143.98 -0.613856 -1.7632 0
M  V30 12163 C 1144.33 0.870983 -1.75808 0
M  V30 12164 O 1143.46 1.68155 -1.36209 0
M  V30 12165 C 1144.05 -1.10755 -3.20186 0
M  V30 12166 C 1142.61 -0.843532 -3.66826 0
M  V30 12167 C 1141.76 -1.26579 -2.46724 0
M  V30 12168 H 1144.71 -1.10821 -1.13598 0
M  V30 12169 H 1144.73 -0.455598 -3.77763 0
M  V30 12170 H 1144.24 -2.18825 -3.20526 0
M  V30 12171 H 1142.34 0.223334 -3.7193 0
M  V30 12172 H 1142.46 -1.46165 -4.56259 0
M  V30 12173 H 1140.82 -0.684334 -2.45334 0
M  V30 12174 H 1141.6 -2.35516 -2.49774 0
M  V30 12175 N 1144.05 1.41491 -0.694123 0
M  V30 12176 C 1145.27 2.06099 -0.23197 0
M  V30 12177 C 1145.7 1.51888 1.10958 0
M  V30 12178 O 1145.06 0.645247 1.69429 0
M  V30 12179 C 1145.11 3.60053 -0.198522 0
M  V30 12180 O 1144.21 4.04021 0.827067 0
M  V30 12181 H 1143.55 0.654193 -0.113699 0
M  V30 12182 H 1146.08 1.81282 -0.948575 0
M  V30 12183 H 1146.09 4.0799 -0.0288904 0
M  V30 12184 H 1144.77 3.98879 -1.17764 0
M  V30 12185 H 1143.34 3.67593 0.626908 0
M  V30 12186 N 1145.53 0.438773 1.51369 0
M  V30 12187 C 1146.78 -0.126962 2.01701 0
M  V30 12188 C 1147.1 -1.43086 1.32481 0
M  V30 12189 O 1146.37 -1.90427 0.459823 0
M  V30 12190 H 1144.95 -0.0499092 0.745331 0
M  V30 12191 H 1147.61 0.581808 1.86013 0
M  V30 12192 H 1146.7 -0.301836 3.10637 0
M  V30 12193 N 1147.01 -1.56678 0.170181 0
M  V30 12194 C 1147.95 -2.19222 -0.777459 0
M  V30 12195 C 1148.95 -1.15592 -1.23834 0
M  V30 12196 O 1150.15 -1.33794 -1.20412 0
M  V30 12197 H 1146.53 -0.702244 -0.268992 0
M  V30 12198 H 1148.5 -2.97543 -0.225989 0
M  V30 12199 C 1147.25 -2.84631 -1.997 0
M  V30 12200 H 1146.57 -3.641 -1.65139 0
M  V30 12201 H 1148.01 -3.31864 -2.63898 0
M  V30 12202 C 1146.47 -1.84345 -2.81991 0
M  V30 12203 O 1147 -1.32821 -3.79106 0
M  V30 12204 N 1145.21 -1.53127 -2.46983 0
M  V30 12205 H 1144.75 -1.95219 -1.6807 0
M  V30 12206 H 1144.71 -0.862787 -3.0233 0
M  V30 12207 N 1148.48 0.103547 -1.57259 0
M  V30 12208 C 1149.42 1.15225 -1.98131 0
M  V30 12209 C 1150.43 1.36793 -0.882692 0
M  V30 12210 O 1151.62 1.35595 -1.16088 0
M  V30 12211 C 1148.72 2.50941 -2.27776 0
M  V30 12212 C 1147.89 2.49765 -3.59077 0
M  V30 12213 C 1146.95 3.67344 -3.76756 0
M  V30 12214 O 1145.98 3.50221 -4.48702 0
M  V30 12215 N 1147.18 4.86504 -3.16692 0
M  V30 12216 H 1149.94 0.804448 -2.88702 0
M  V30 12217 H 1147.5 0.292636 -1.59233 0
M  V30 12218 H 1149.5 3.28186 -2.36804 0
M  V30 12219 H 1148.07 2.77843 -1.43255 0
M  V30 12220 H 1147.29 1.58125 -3.61096 0
M  V30 12221 H 1148.57 2.4605 -4.4535 0
M  V30 12222 H 1147.97 5.03319 -2.58236 0
M  V30 12223 H 1146.53 5.61371 -3.31218 0
M  V30 12224 N 1149.96 1.53094 0.37415 0
M  V30 12225 C 1151.21 1.68527 1.11548 0
M  V30 12226 C 1151.53 0.435253 1.9008 0
M  V30 12227 O 1150.8 -0.550594 1.88003 0
M  V30 12228 H 1149.38 0.621255 0.41479 0
M  V30 12229 H 1152.04 1.90258 0.422844 0
M  V30 12230 H 1151.14 2.54248 1.81009 0
M  V30 12231 N 1151.44 -0.633461 1.44309 0
M  V30 12232 C 1152.69 -1.39031 1.46679 0
M  V30 12233 C 1153.01 -1.94745 0.0997165 0
M  V30 12234 O 1152.28 -1.75637 -0.867659 0
M  V30 12235 H 1150.86 -0.516051 0.540093 0
M  V30 12236 H 1153.52 -0.745739 1.80069 0
M  V30 12237 H 1152.62 -2.2228 2.19085 0
M  V30 12238 N 1152.92 -1.31168 -0.873655 0
M  V30 12239 C 1153.88 -1.18471 -1.96207 0
M  V30 12240 C 1154.88 -0.112814 -1.60404 0
M  V30 12241 O 1156.07 -0.3618 -1.70401 0
M  V30 12242 C 1153.2 -0.817662 -3.30949 0
M  V30 12243 H 1154.4 -2.1518 -2.08896 0
M  V30 12244 H 1151.95 -1.14727 -1.06149 0
M  V30 12245 H 1152.68 0.148428 -3.2396 0
M  V30 12246 H 1152.47 -1.59244 -3.58307 0
M  V30 12247 H 1153.96 -0.75262 -4.10762 0
M  V30 12248 N 1154.4 1.08748 -1.14068 0
M  V30 12249 C 1155.64 1.80707 -0.904947 0
M  V30 12250 C 1155.97 1.86478 0.570167 0
M  V30 12251 O 1155.24 1.35536 1.41445 0
M  V30 12252 H 1153.82 0.669261 -0.331811 0
M  V30 12253 H 1156.48 1.31494 -1.43859 0
M  V30 12254 H 1155.57 2.83653 -1.30182 0
M  V30 12255 N 1155.87 0.935264 1.26849 0
M  V30 12256 C 1157.29 0.623198 1.75992 0
M  V30 12257 C 1157.64 -0.861647 1.76267 0
M  V30 12258 O 1156.76 -1.6743 1.37099 0
M  V30 12259 C 1157.36 1.12451 3.19594 0
M  V30 12260 C 1155.92 0.862974 3.66374 0
M  V30 12261 C 1155.06 1.27886 2.4605 0
M  V30 12262 H 1158.01 1.11422 1.13008 0
M  V30 12263 H 1158.03 0.475626 3.77516 0
M  V30 12264 H 1157.55 2.20522 3.19361 0
M  V30 12265 H 1155.65 -0.203606 3.72043 0
M  V30 12266 H 1155.76 1.48582 4.55478 0
M  V30 12267 H 1154.12 0.697335 2.44968 0
M  V30 12268 H 1154.91 2.36837 2.48522 0
M  V30 12269 N 1157.35 -1.41121 0.701616 0
M  V30 12270 C 1158.58 -2.05973 0.242896 0
M  V30 12271 C 1159 -1.52474 -1.10151 0
M  V30 12272 O 1158.36 -0.654224 -1.69085 0
M  V30 12273 C 1158.41 -3.59943 0.217614 0
M  V30 12274 O 1157.51 -4.04454 -0.805629 0
M  V30 12275 H 1156.85 -0.653581 0.117166 0
M  V30 12276 H 1159.38 -1.80777 0.958175 0
M  V30 12277 H 1159.39 -4.07969 0.0505267 0
M  V30 12278 H 1158.07 -3.98249 1.19877 0
M  V30 12279 H 1156.65 -3.6792 -0.607404 0
M  V30 12280 N 1158.83 -0.446794 -1.51134 0
M  V30 12281 C 1159.76 0.395804 -2.25757 0
M  V30 12282 C 1160.78 0.978178 -1.30137 0
M  V30 12283 O 1161.96 0.87071 -1.55823 0
M  V30 12284 C 1159.06 1.56665 -3.00515 0
M  V30 12285 C 1158.24 1.10146 -4.23305 0
M  V30 12286 C 1157.3 2.14352 -4.80562 0
M  V30 12287 O 1156.32 1.73401 -5.42145 0
M  V30 12288 N 1157.52 3.46932 -4.65423 0
M  V30 12289 H 1160.29 -0.243808 -2.98707 0
M  V30 12290 H 1157.85 -0.276205 -1.59527 0
M  V30 12291 H 1159.84 2.26019 -3.35704 0
M  V30 12292 H 1158.41 2.11142 -2.30516 0
M  V30 12293 H 1157.63 0.234644 -3.93501 0
M  V30 12294 H 1158.92 0.768185 -5.02968 0
M  V30 12295 H 1158.32 3.82929 -4.16391 0
M  V30 12296 H 1156.88 4.12154 -5.04948 0
M  V30 12297 N 1160.31 1.56586 -0.178487 0
M  V30 12298 C 1161.56 1.96709 0.4637 0
M  V30 12299 C 1161.88 1.06586 1.63292 0
M  V30 12300 O 1161.15 0.133683 1.95443 0
M  V30 12301 H 1159.73 0.726381 0.174299 0
M  V30 12302 H 1162.39 1.9314 -0.261345 0
M  V30 12303 H 1161.49 3.01164 0.818934 0
M  V30 12304 N 1161.79 -0.095206 1.57312 0
M  V30 12305 C 1163.01 -0.81614 1.90667 0
M  V30 12306 C 1163.44 -1.71494 0.772746 0
M  V30 12307 O 1162.79 -1.79192 -0.275682 0
M  V30 12308 C 1162.84 -1.60555 3.22885 0
M  V30 12309 O 1161.95 -2.71448 3.10467 0
M  V30 12310 H 1161.29 -0.224217 0.624998 0
M  V30 12311 H 1163.82 -0.070464 2.04479 0
M  V30 12312 H 1163.83 -1.98979 3.5619 0
M  V30 12313 H 1162.5 -0.945918 4.05 0
M  V30 12314 H 1161.08 -2.36053 2.88675 0
M  V30 12315 N 1163.26 -1.53291 -0.366026 0
M  V30 12316 C 1164.51 -1.69117 -1.10653 0
M  V30 12317 C 1164.83 -0.445327 -1.89847 0
M  V30 12318 O 1164.1 0.540616 -1.88293 0
M  V30 12319 H 1162.68 -0.623446 -0.41149 0
M  V30 12320 H 1165.35 -1.90479 -0.412749 0
M  V30 12321 H 1164.44 -2.55205 -1.79658 0
M  V30 12322 N 1164.74 0.6258 -1.44643 0
M  V30 12323 C 1165.99 1.38251 -1.47414 0
M  V30 12324 C 1166.31 1.94689 -0.110043 0
M  V30 12325 O 1165.58 1.76095 0.858333 0
M  V30 12326 H 1164.16 0.513179 -0.542823 0
M  V30 12327 H 1166.82 0.736179 -1.80462 0
M  V30 12328 H 1165.92 2.21115 -2.2026 0
M  V30 12329 N 1166.22 1.31629 0.866686 0
M  V30 12330 C 1167.47 1.21263 1.61678 0
M  V30 12331 C 1167.79 -0.228562 1.93656 0
M  V30 12332 O 1167.06 -1.15014 1.58583 0
M  V30 12333 H 1165.64 0.445817 0.59938 0
M  V30 12334 H 1168.3 1.64998 1.03739 0
M  V30 12335 H 1167.4 1.78669 2.55898 0
M  V30 12336 N 1167.7 -1.08142 1.14644 0
M  V30 12337 C 1168.93 -1.84318 0.939926 0
M  V30 12338 C 1169.34 -1.81735 -0.511636 0
M  V30 12339 O 1168.7 -1.22297 -1.35461 0
M  V30 12340 C 1168.75 -3.31744 1.43625 0
M  V30 12341 O 1168.47 -3.3435 2.83094 0
M  V30 12342 C 1169.97 -4.24717 1.27007 0
M  V30 12343 H 1167.19 -0.581781 0.334323 0
M  V30 12344 H 1169.74 -1.36561 1.52221 0
M  V30 12345 H 1167.89 -3.7688 0.896664 0
M  V30 12346 H 1168.31 -4.26399 3.05425 0
M  V30 12347 H 1169.78 -5.26262 1.66591 0
M  V30 12348 H 1170.26 -4.38682 0.213257 0
M  V30 12349 H 1170.86 -3.85409 1.79833 0
M  V30 12350 N 1169.18 -0.941978 -1.26351 0
M  V30 12351 C 1170.43 -0.588806 -1.93333 0
M  V30 12352 C 1170.75 0.875067 -1.74263 0
M  V30 12353 O 1170.02 1.62187 -1.09873 0
M  V30 12354 H 1168.6 -0.214774 -0.715459 0
M  V30 12355 H 1171.26 -1.19747 -1.53774 0
M  V30 12356 H 1170.35 -0.807267 -3.01479 0
M  V30 12357 N 1170.66 1.40747 -0.709091 0
M  V30 12358 C 1171.9 2.00606 -0.245324 0
M  V30 12359 C 1172.22 1.56489 1.16346 0
M  V30 12360 O 1171.49 0.801456 1.78755 0
M  V30 12361 H 1170.07 0.741833 -0.0877098 0
M  V30 12362 H 1172.74 1.72178 -0.913271 0
M  V30 12363 H 1171.83 3.10901 -0.273322 0
M  V30 12364 N 1172.13 0.454803 1.50895 0
M  V30 12365 C 1173.36 -0.106259 2.07128 0
M  V30 12366 C 1173.78 -1.3418 1.31823 0
M  V30 12367 O 1173.14 -1.77667 0.361147 0
M  V30 12368 C 1173.19 -0.389609 3.58489 0
M  V30 12369 O 1172.29 -1.47305 3.85195 0
M  V30 12370 H 1171.63 0.00580588 0.663975 0
M  V30 12371 H 1174.16 0.641163 1.94294 0
M  V30 12372 H 1174.17 -0.634934 4.03029 0
M  V30 12373 H 1172.85 0.513338 4.1272 0
M  V30 12374 H 1171.43 -1.21631 3.52506 0
M  V30 12375 N 1173.61 -1.56489 0.186789 0
M  V30 12376 C 1174.86 -1.97634 -0.454831 0
M  V30 12377 C 1175.19 -1.07334 -1.61843 0
M  V30 12378 O 1174.47 -0.123612 -1.94107 0
M  V30 12379 C 1174.75 -3.48071 -0.922962 0
M  V30 12380 C 1174.6 -4.49149 0.241877 0
M  V30 12381 C 1175.92 -4.01994 -1.79134 0
M  V30 12382 H 1173.04 -0.718555 -0.163854 0
M  V30 12383 H 1175.68 -1.87984 0.27604 0
M  V30 12384 H 1173.83 -3.56425 -1.54575 0
M  V30 12385 H 1175.5 -4.52841 0.87936 0
M  V30 12386 H 1173.75 -4.24468 0.894964 0
M  V30 12387 H 1174.42 -5.51851 -0.128051 0
M  V30 12388 H 1176.89 -3.96367 -1.26618 0
M  V30 12389 H 1175.77 -5.07641 -2.08787 0
M  V30 12390 H 1176.03 -3.46747 -2.74261 0
M  V30 12391 N 1175.09 0.086862 -1.5736 0
M  V30 12392 C 1176.32 0.801004 -1.9044 0
M  V30 12393 C 1176.73 1.72396 -0.779513 0
M  V30 12394 O 1176.07 1.81894 0.256972 0
M  V30 12395 C 1176.13 1.66055 -3.18851 0
M  V30 12396 C 1175.8 0.908561 -4.47877 0
M  V30 12397 C 1176.79 0.234621 -5.1937 0
M  V30 12398 C 1174.48 0.8802 -4.94528 0
M  V30 12399 C 1176.47 -0.45762 -6.35755 0
M  V30 12400 C 1174.16 0.184179 -6.10822 0
M  V30 12401 C 1175.16 -0.483545 -6.81286 0
M  V30 12402 O 1174.85 -1.16839 -7.95364 0
M  V30 12403 H 1174.58 0.233794 -0.634284 0
M  V30 12404 H 1177.13 0.0660113 -2.05294 0
M  V30 12405 H 1175.36 2.43798 -3.00165 0
M  V30 12406 H 1177.05 2.252 -3.37698 0
M  V30 12407 H 1177.82 0.247938 -4.84366 0
M  V30 12408 H 1173.7 1.38938 -4.39565 0
M  V30 12409 H 1177.24 -0.979369 -6.90691 0
M  V30 12410 H 1173.14 0.168737 -6.45279 0
M  V30 12411 H 1173.9 -1.07612 -8.11395 0
M  V30 12412 N 1176.57 1.53483 0.357892 0
M  V30 12413 C 1177.8 1.73956 1.12013 0
M  V30 12414 C 1178.21 0.472053 1.82803 0
M  V30 12415 O 1177.57 -0.555499 1.7384 0
M  V30 12416 C 1177.62 2.91015 2.14459 0
M  V30 12417 O 1177.34 4.12862 1.4655 0
M  V30 12418 C 1178.84 3.23423 3.0317 0
M  V30 12419 H 1176.06 0.58161 0.334621 0
M  V30 12420 H 1178.6 2.00256 0.414467 0
M  V30 12421 H 1176.76 2.67087 2.80612 0
M  V30 12422 H 1177.17 4.78468 2.14869 0
M  V30 12423 H 1178.65 4.08717 3.71018 0
M  V30 12424 H 1179.12 2.39114 3.68404 0
M  V30 12425 H 1179.73 3.49305 2.42624 0
M  V30 12426 N 1178.05 -0.61812 1.44973 0
M  V30 12427 C 1178.96 -1.7579 1.55355 0
M  V30 12428 C 1179.97 -1.68384 0.438512 0
M  V30 12429 O 1181.15 -1.88928 0.697715 0
M  V30 12430 C 1178.21 -3.1222 1.50729 0
M  V30 12431 C 1177.27 -3.3116 2.73188 0
M  V30 12432 C 1176.51 -4.61082 2.68774 0
M  V30 12433 O 1176.73 -5.42728 1.75507 0
M  V30 12434 O 1175.66 -4.82506 3.59821 0
M  V30 12435 H 1179.49 -1.69983 2.51674 0
M  V30 12436 H 1177.07 -0.780934 1.27365 0
M  V30 12437 H 1178.96 -3.93524 1.5072 0
M  V30 12438 H 1177.63 -3.18541 0.575587 0
M  V30 12439 H 1176.54 -2.49485 2.78762 0
M  V30 12440 H 1177.87 -3.29709 3.65449 0
M  V30 12441 N 1179.52 -1.32087 -0.859693 0
M  V30 12442 C 1180.8 -1.12984 -1.59668 0
M  V30 12443 C 1181.18 0.311661 -2.08787 0
M  V30 12444 O 1180.53 1.30746 -1.87397 0
M  V30 12445 C 1180.74 -2.15305 -2.74672 0
M  V30 12446 C 1182.09 -2.48371 -3.44379 0
M  V30 12447 O 1183.11 -2.13811 -2.84891 0
M  V30 12448 O 1181.97 -3.07594 -4.51717 0
M  V30 12449 H 1179.06 -0.435657 -0.702945 0
M  V30 12450 H 1181.61 -1.43601 -0.90426 0
M  V30 12451 H 1180.38 -3.12223 -2.35866 0
M  V30 12452 H 1180 -1.85653 -3.51594 0
M  V30 12453 N 1181 1.07532 -1.15215 0
M  V30 12454 C 1181.95 2.16785 -0.843022 0
M  V30 12455 C 1182.94 1.68411 0.182802 0
M  V30 12456 O 1184.15 1.7996 0.0380164 0
M  V30 12457 H 1180.52 0.707465 -0.254945 0
M  V30 12458 H 1182.5 2.40078 -1.77215 0
M  V30 12459 C 1181.24 3.45967 -0.346699 0
M  V30 12460 H 1180.57 3.83574 -1.12744 0
M  V30 12461 H 1182.01 4.23663 -0.169039 0
M  V30 12462 C 1180.47 3.23768 0.931437 0
M  V30 12463 O 1181 3.48179 2.00336 0
M  V30 12464 N 1179.2 2.77264 0.870217 0
M  V30 12465 H 1178.75 2.576 -0.00226223 0
M  V30 12466 H 1178.71 2.6279 1.72594 0
M  V30 12467 N 1182.48 0.948665 1.2585 0
M  V30 12468 C 1183.76 0.517832 1.88621 0
M  V30 12469 C 1184.14 -1.00477 1.85654 0
M  V30 12470 O 1183.49 -1.868 1.31598 0
M  V30 12471 C 1183.7 1.08768 3.31618 0
M  V30 12472 C 1185.04 1.16089 4.08422 0
M  V30 12473 O 1186.07 1.0388 3.40716 0
M  V30 12474 O 1184.93 1.35172 5.29519 0
M  V30 12475 H 1182.02 0.169916 0.809356 0
M  V30 12476 H 1184.57 1.04171 1.33964 0
M  V30 12477 H 1183.34 2.13109 3.28177 0
M  V30 12478 H 1182.96 0.54669 3.93824 0
M  V30 12479 N 1183.96 -1.40369 0.716545 0
M  V30 12480 C 1185.24 -1.94737 0.183576 0
M  V30 12481 C 1185.62 -1.65464 -1.31092 0
M  V30 12482 O 1184.96 -0.972832 -2.06756 0
M  V30 12483 C 1185.17 -3.45438 0.497339 0
M  V30 12484 C 1186.52 -4.2235 0.436526 0
M  V30 12485 O 1187.55 -3.53553 0.433454 0
M  V30 12486 O 1186.4 -5.44923 0.41489 0
M  V30 12487 H 1183.5 -0.82655 0.0272785 0
M  V30 12488 H 1186.04 -1.49972 0.794143 0
M  V30 12489 H 1184.82 -3.60107 1.53097 0
M  V30 12490 H 1184.44 -3.97342 -0.143141 0
M  V30 12491 N 1185.44 -0.462799 -1.50652 0
M  V30 12492 C 1186.71 0.156221 -1.94975 0
M  V30 12493 C 1187.09 1.5775 -1.40279 0
M  V30 12494 O 1186.44 2.20473 -0.600323 0
M  V30 12495 C 1186.65 0.108008 -3.48833 0
M  V30 12496 C 1188 0.301013 -4.23532 0
M  V30 12497 O 1189.02 0.184973 -3.55719 0
M  V30 12498 O 1187.88 0.534457 -5.4388 0
M  V30 12499 H 1184.98 0.116182 -0.818798 0
M  V30 12500 H 1187.52 -0.522607 -1.61453 0
M  V30 12501 H 1186.29 -0.884634 -3.81169 0
M  V30 12502 H 1185.92 0.828653 -3.88869 0
M  V30 12503 N 1186.91 1.56388 -0.195085 0
M  V30 12504 C 1187.84 2.22091 0.720971 0
M  V30 12505 C 1188.83 1.184 1.22128 0
M  V30 12506 O 1190.01 1.46907 1.27012 0
M  V30 12507 C 1187.14 2.88025 1.94059 0
M  V30 12508 C 1186.09 3.97959 1.5752 0
M  V30 12509 C 1185.42 4.51058 2.87143 0
M  V30 12510 C 1186.72 5.16365 0.785145 0
M  V30 12511 H 1188.41 2.98898 0.173245 0
M  V30 12512 H 1185.96 1.43767 0.0818868 0
M  V30 12513 H 1187.91 3.32671 2.58666 0
M  V30 12514 H 1186.64 2.08623 2.51285 0
M  V30 12515 H 1185.3 3.54004 0.952715 0
M  V30 12516 H 1184.94 3.68418 3.42458 0
M  V30 12517 H 1184.64 5.25237 2.63439 0
M  V30 12518 H 1186.17 4.98406 3.52738 0
M  V30 12519 H 1187.58 5.57556 1.33431 0
M  V30 12520 H 1185.98 5.9661 0.646231 0
M  V30 12521 H 1187.05 4.84428 -0.213789 0
M  V30 12522 N 1188.39 -0.0785156 1.57404 0
M  V30 12523 C 1189.62 -0.790893 1.90862 0
M  V30 12524 C 1190.03 -1.7198 0.788644 0
M  V30 12525 O 1189.37 -1.82027 -0.247322 0
M  V30 12526 C 1189.44 -1.64362 3.19727 0
M  V30 12527 C 1189.1 -0.884796 4.48353 0
M  V30 12528 C 1190.1 -0.207074 5.19487 0
M  V30 12529 C 1187.78 -0.853962 4.94988 0
M  V30 12530 C 1189.78 0.491329 6.35504 0
M  V30 12531 C 1187.46 -0.151783 6.10911 0
M  V30 12532 C 1188.46 0.519669 6.8102 0
M  V30 12533 O 1188.15 1.21055 7.94733 0
M  V30 12534 H 1187.88 -0.230427 0.635515 0
M  V30 12535 H 1190.43 -0.0551231 2.05326 0
M  V30 12536 H 1188.66 -2.42203 3.01454 0
M  V30 12537 H 1190.35 -2.23406 3.38887 0
M  V30 12538 H 1191.12 -0.222247 4.84491 0
M  V30 12539 H 1187 -1.36605 4.40296 0
M  V30 12540 H 1190.54 1.01598 6.90162 0
M  V30 12541 H 1186.44 -0.134514 6.4536 0
M  V30 12542 H 1187.21 1.11914 8.10813 0
M  V30 12543 N 1189.87 -1.5367 -0.349747 0
M  V30 12544 C 1191.12 -1.70281 -1.08853 0
M  V30 12545 C 1191.44 -0.465438 -1.89364 0
M  V30 12546 O 1190.71 0.520615 -1.88856 0
M  V30 12547 H 1189.29 -0.627775 -0.404854 0
M  V30 12548 H 1191.95 -1.90906 -0.392523 0
M  V30 12549 H 1191.05 -2.57096 -1.76941 0
M  V30 12550 O 1191.39 0.495726 -1.53704 0
M  V30 12551 H 1192.08 1.15052 -1.55829 0
M  V30 END ATOM
M  V30 BEGIN BOND
M  V30 END BOND
M  V30 END CTAB
M  END
$$$$
