drugbank_target|P55196 Afadin (DB08574)
 OpenBabel12092120513D

  0  0  0     0  0            999 V3000
M  V30 BEGIN CTAB
M  V30 COUNTS 28827 29127 0 0 0
M  V30 BEGIN ATOM
M  V30 1 H -0.908 1.98254 -0.117106 0
M  V30 2 N 0 1.576 0 0
M  V30 3 C 0.933 2.03868 1.02534 0
M  V30 4 C 1.911 0.928543 1.3348 0
M  V30 5 O 3.095 1.19667 1.45644 0
M  V30 6 C 0.222 2.43627 2.35294 0
M  V30 7 C -0.732 3.65373 2.2001 0
M  V30 8 S 0.101 5.13292 1.52614 0
M  V30 9 C 1.257 5.56322 2.86805 0
M  V30 10 H 1.49 2.90518 0.631377 0
M  V30 11 H -0.977 1.52953 0.210867 0
M  V30 12 H 0.981 2.67203 3.11629 0
M  V30 13 H -0.358 1.57376 2.7183 0
M  V30 14 H -1.165 3.90944 3.18086 0
M  V30 15 H -1.563 3.418 1.51819 0
M  V30 16 H 0.729 5.58782 3.83104 0
M  V30 17 H 1.672 6.56266 2.65933 0
M  V30 18 H 2.08 4.83886 2.90714 0
M  V30 19 N 1.4781 -0.272755 1.55222 0
M  V30 20 C 2.7031 -1.02683 1.80197 0
M  V30 21 C 3.1281 -1.79142 0.573551 0
M  V30 22 O 2.4861 -1.74917 -0.476849 0
M  V30 23 C 2.5341 -1.9609 3.02624 0
M  V30 24 O 1.6381 -3.04863 2.77727 0
M  V30 25 H 0.9791 -0.293557 0.595584 0
M  V30 26 H 3.5091 -0.30159 2.02365 0
M  V30 27 H 3.5191 -2.38039 3.31363 0
M  V30 28 H 2.1941 -1.39851 3.91682 0
M  V30 29 H 0.7711 -2.67228 2.60084 0
M  V30 30 N 2.9562 -1.48159 -0.537278 0
M  V30 31 C 3.9192 -1.61665 -1.62472 0
M  V30 32 C 4.9192 -0.490395 -1.5314 0
M  V30 33 O 6.1092 -0.755998 -1.5694 0
M  V30 34 C 3.2412 -1.57997 -3.02076 0
M  V30 35 H 4.4342 -2.58621 -1.51839 0
M  V30 36 H 1.9872 -1.36647 -0.758771 0
M  V30 37 H 2.7222 -0.624913 -3.18222 0
M  V30 38 H 2.5072 -2.39755 -3.10258 0
M  V30 39 H 3.9972 -1.70627 -3.81151 0
M  V30 40 N 4.4343 0.785586 -1.36625 0
M  V30 41 C 5.6823 1.54057 -1.30808 0
M  V30 42 C 6.0033 1.94683 0.111157 0
M  V30 43 O 5.2733 1.65241 1.05224 0
M  V30 44 H 3.8533 0.571354 -0.481211 0
M  V30 45 H 6.5153 0.935821 -1.70963 0
M  V30 46 H 5.6113 2.44637 -1.93801 0
M  V30 47 N 5.9124 1.20967 1.01018 0
M  V30 48 C 7.1604 1.02172 1.74371 0
M  V30 49 C 7.4814 -0.446414 1.89821 0
M  V30 50 O 6.7514 -1.32234 1.44537 0
M  V30 51 H 5.3314 0.375066 0.646014 0
M  V30 52 H 7.9934 1.52187 1.21758 0
M  V30 53 H 7.0894 1.48538 2.74487 0
M  V30 54 N 7.3905 -1.2043 1.01659 0
M  V30 55 C 8.8065 -1.41852 0.731442 0
M  V30 56 C 9.0065 -1.89358 -0.688898 0
M  V30 57 O 8.0625 -2.06247 -1.45666 0
M  V30 58 C 9.3755 -2.44019 1.75714 0
M  V30 59 C 10.9235 -2.57785 1.77527 0
M  V30 60 C 11.3985 -3.63194 2.79023 0
M  V30 61 N 12.8895 -3.70678 2.77763 0
M  V30 62 C 13.6245 -4.51897 3.52954 0
M  V30 63 N 13.1205 -5.36921 4.37821 0
M  V30 64 N 14.9135 -4.4643 3.41551 0
M  V30 65 H 7.0645 -0.879093 1.93354 0
M  V30 66 H 9.3275 -0.448425 0.835236 0
M  V30 67 H 9.0335 -2.1611 2.77469 0
M  V30 68 H 8.9075 -3.43007 1.56927 0
M  V30 69 H 11.2945 -2.85023 0.764569 0
M  V30 70 H 11.3755 -1.58992 2.00387 0
M  V30 71 H 11.0195 -3.36699 3.80258 0
M  V30 72 H 10.9495 -4.61609 2.53425 0
M  V30 73 H 13.4405 -3.09944 2.16201 0
M  V30 74 H 13.7535 -5.95981 4.91962 0
M  V30 75 H 12.0985 -5.36424 4.41899 0
M  V30 76 H 15.2895 -3.79042 2.74672 0
M  V30 77 H 15.4625 -5.09491 4.00404 0
M  V30 78 N 8.8686 -0.792821 -1.36206 0
M  V30 79 C 10.1456 -0.290627 -1.93429 0
M  V30 80 C 10.5256 1.21773 -1.72437 0
M  V30 81 O 9.8736 2.0108 -1.08531 0
M  V30 82 C 10.0836 -0.686973 -3.42172 0
M  V30 83 C 11.4316 -0.668643 -4.19302 0
M  V30 84 O 12.4556 -0.627658 -3.50626 0
M  V30 85 O 11.3146 -0.714597 -5.41808 0
M  V30 86 H 8.4086 -0.0727927 -0.82379 0
M  V30 87 H 10.9546 -0.875593 -1.45367 0
M  V30 88 H 9.7266 -1.72711 -3.51122 0
M  V30 89 H 9.3496 -0.0760733 -3.97527 0
M  V30 90 N 10.3467 1.47872 -0.545128 0
M  V30 91 C 11.2567 2.33633 0.212746 0
M  V30 92 C 12.2727 1.4744 0.923983 0
M  V30 93 O 13.4487 1.80393 0.895572 0
M  V30 94 C 10.5137 3.23884 1.23693 0
M  V30 95 C 9.5747 4.25961 0.534417 0
M  V30 96 C 8.8077 5.11899 1.5098 0
M  V30 97 O 9.0307 5.00077 2.7437 0
M  V30 98 O 7.9647 5.92831 1.0409 0
M  V30 99 H 11.7907 2.99714 -0.490416 0
M  V30 100 H 9.3757 1.46235 -0.305871 0
M  V30 101 H 11.2577 3.79666 1.82843 0
M  V30 102 H 9.9327 2.60446 1.92222 0
M  V30 103 H 8.8397 3.73972 -0.0979679 0
M  V30 104 H 10.1727 4.92079 -0.109213 0
M  V30 105 N 11.8248 0.280983 1.55075 0
M  V30 106 C 12.7348 -0.61388 2.26426 0
M  V30 107 C 13.7508 -1.16521 1.29224 0
M  V30 108 O 14.9268 -1.19426 1.62171 0
M  V30 109 C 11.9918 -1.7788 2.9759 0
M  V30 110 C 11.0528 -1.26355 4.10284 0
M  V30 111 C 10.2858 -2.37295 4.78045 0
M  V30 112 O 10.5088 -3.56777 4.45047 0
M  V30 113 O 9.4428 -2.05119 5.65871 0
M  V30 114 H 13.2688 -0.0356932 3.03679 0
M  V30 115 H 10.8538 0.0481686 1.49322 0
M  V30 116 H 12.7358 -2.45791 3.42293 0
M  V30 117 H 11.4108 -2.34397 2.23249 0
M  V30 118 H 10.3178 -0.550735 3.70024 0
M  V30 119 H 11.6508 -0.744065 4.86543 0
M  V30 120 N 13.3029 -1.57598 0.00835791 0
M  V30 121 C 14.7189 -1.55764 -0.347822 0
M  V30 122 C 14.9189 -1.01186 -1.74252 0
M  V30 123 O 13.9749 -0.649371 -2.44007 0
M  V30 124 C 15.2879 -2.99927 -0.215407 0
M  V30 125 C 16.8359 -3.11656 -0.289725 0
M  V30 126 C 17.3109 -4.57621 -0.18634 0
M  V30 127 N 18.8019 -4.62557 -0.243978 0
M  V30 128 C 19.5369 -5.73094 -0.18745 0
M  V30 129 N 19.0329 -6.92753 -0.0810331 0
M  V30 130 N 20.8259 -5.61588 -0.239925 0
M  V30 131 H 12.9769 -1.91411 0.92062 0
M  V30 132 H 15.2399 -0.879562 0.353659 0
M  V30 133 H 14.9459 -3.43729 0.744512 0
M  V30 134 H 14.8199 -3.63865 -0.994097 0
M  V30 135 H 17.2069 -2.67779 -1.24009 0
M  V30 136 H 17.2879 -2.5048 0.51898 0
M  V30 137 H 16.9319 -5.02174 0.760519 0
M  V30 138 H 16.8619 -5.16752 -1.01364 0
M  V30 139 H 19.3529 -3.76481 -0.327217 0
M  V30 140 H 19.6659 -7.72787 -0.0440241 0
M  V30 141 H 18.0109 -6.94984 -0.0465419 0
M  V30 142 H 21.2019 -4.66996 -0.321317 0
M  V30 143 H 21.3749 -6.47714 -0.192407 0
M  V30 144 N 14.781 0.264519 -1.55364 0
M  V30 145 C 16.197 0.61215 -1.47394 0
M  V30 146 C 16.397 1.89134 -0.695018 0
M  V30 147 O 15.453 2.51563 -0.217275 0
M  V30 148 C 16.766 0.731235 -2.91674 0
M  V30 149 C 18.314 0.82473 -3.01939 0
M  V30 150 C 18.789 0.975522 -4.4749 0
M  V30 151 N 20.28 1.04083 -4.51354 0
M  V30 152 C 21.015 1.17646 -5.61201 0
M  V30 153 N 20.511 1.27874 -6.80896 0
M  V30 154 N 22.304 1.20823 -5.48961 0
M  V30 155 H 14.455 -0.575456 -2.04456 0
M  V30 156 H 16.718 -0.196099 -0.927496 0
M  V30 157 H 16.424 -0.138392 -3.51428 0
M  V30 158 H 16.298 1.60883 -3.41169 0
M  V30 159 H 18.685 1.68482 -2.42276 0
M  V30 160 H 18.766 -0.0776479 -2.55682 0
M  V30 161 H 18.41 0.120058 -5.07758 0
M  V30 162 H 18.34 1.89268 -4.91412 0
M  V30 163 H 20.831 0.973846 -3.65136 0
M  V30 164 H 21.144 1.38081 -7.60364 0
M  V30 165 H 19.489 1.24863 -6.83692 0
M  V30 166 H 22.68 1.12469 -4.54388 0
M  V30 167 H 22.853 1.31049 -6.3461 0
M  V30 168 N 16.2591 1.48442 0.529413 0
M  V30 169 C 17.2061 1.63007 1.63394 0
M  V30 170 C 18.1761 0.47212 1.59249 0
M  V30 171 O 19.3611 0.695673 1.77666 0
M  V30 172 C 16.5011 1.6763 3.01653 0
M  V30 173 C 15.6141 2.94535 3.16027 0
M  V30 174 C 14.7491 2.90316 4.44849 0
M  V30 175 C 13.7881 4.11923 4.52754 0
M  V30 176 N 12.9251 4.05777 5.72965 0
M  V30 177 H 17.7651 2.5733 1.50285 0
M  V30 178 H 15.3021 1.27613 0.731656 0
M  V30 179 H 17.2601 1.68292 3.81751 0
M  V30 180 H 15.8901 0.76797 3.13532 0
M  V30 181 H 14.9421 3.03615 2.29177 0
M  V30 182 H 16.2541 3.84512 3.17729 0
M  V30 183 H 15.4081 2.89382 5.33238 0
M  V30 184 H 14.1471 1.98068 4.45668 0
M  V30 185 H 13.1521 4.13131 3.62771 0
M  V30 186 H 14.3771 5.0533 4.53672 0
M  V30 187 H 12.3231 3.16351 5.74681 0
M  V30 188 H 12.2401 4.8946 5.76164 0
M  V30 189 H 13.5081 4.08904 6.6364 0
M  V30 190 N 17.7372 -0.778329 1.37039 0
M  V30 191 C 18.6672 -1.90546 1.34962 0
M  V30 192 C 19.6482 -1.68681 0.219274 0
M  V30 193 O 20.8332 -1.89634 0.418624 0
M  V30 194 C 17.9632 -3.27734 1.14925 0
M  V30 195 C 16.9172 -3.64147 2.24902 0
M  V30 196 C 16.2432 -4.99806 1.89996 0
M  V30 197 C 17.5432 -3.71579 3.67051 0
M  V30 198 H 19.2372 -1.92541 2.29277 0
M  V30 199 H 16.7832 -0.924948 1.10366 0
M  V30 200 H 18.7362 -4.06215 1.12104 0
M  V30 201 H 17.4602 -3.26154 0.170631 0
M  V30 202 H 16.1192 -2.8797 2.26868 0
M  V30 203 H 15.7672 -4.94759 0.906796 0
M  V30 204 H 15.4672 -5.25139 2.63634 0
M  V30 205 H 16.9912 -5.80694 1.88749 0
M  V30 206 H 18.4052 -4.40227 3.67251 0
M  V30 207 H 16.8022 -4.08405 4.39688 0
M  V30 208 H 17.8722 -2.72404 4.01154 0
M  V30 209 N 19.2153 -1.21501 -1.00376 0
M  V30 210 C 20.1783 -0.976927 -2.07337 0
M  V30 211 C 21.1783 0.0525322 -1.60714 0
M  V30 212 O 22.3683 -0.184869 -1.73216 0
M  V30 213 C 19.5003 -0.473423 -3.37597 0
M  V30 214 H 20.6933 -1.92587 -2.29892 0
M  V30 215 H 18.2463 -1.03217 -1.17371 0
M  V30 216 H 18.9813 0.480379 -3.20722 0
M  V30 217 H 18.7663 -1.216 -3.72768 0
M  V30 218 H 20.2563 -0.32675 -4.1632 0
M  V30 219 N 20.6934 1.19889 -1.02296 0
M  V30 220 C 21.9704 1.85148 -0.630832 0
M  V30 221 C 22.3504 1.91385 0.890782 0
M  V30 222 O 21.6984 1.42642 1.78509 0
M  V30 223 C 21.9084 3.24442 -1.28602 0
M  V30 224 C 23.2564 4.00663 -1.4055 0
M  V30 225 O 24.2804 3.33818 -1.24273 0
M  V30 226 O 23.1394 5.20387 -1.66913 0
M  V30 227 H 20.2334 0.797613 -0.218499 0
M  V30 228 H 22.7794 1.27427 -1.12074 0
M  V30 229 H 21.5514 3.14704 -2.32545 0
M  V30 230 H 21.1744 3.89802 -0.7836 0
M  V30 231 N 22.1715 0.800033 1.35784 0
M  V30 232 C 23.4205 0.37387 1.98205 0
M  V30 233 C 23.7335 -1.06302 1.64193 0
M  V30 234 O 24.9395 -1.59198 2.19928 0
M  V30 235 C 23.3955 0.617532 3.54562 0
M  V30 236 C 23.0035 2.06654 3.9749 0
M  V30 237 C 24.7475 0.256401 4.23725 0
M  V30 238 C 22.6545 2.2563 5.46667 0
M  V30 239 H 21.5845 0.136055 0.741623 0
M  V30 240 H 24.2355 0.983166 1.54939 0
M  V30 241 H 22.6175 -0.0616248 3.95952 0
M  V30 242 H 23.7915 2.78296 3.67271 0
M  V30 243 H 22.1065 2.38691 3.41197 0
M  V30 244 H 24.7035 0.376318 5.33374 0
M  V30 245 H 25.0465 -0.796692 4.08606 0
M  V30 246 H 25.5795 0.889214 3.87734 0
M  V30 247 H 22.3185 3.2936 5.66747 0
M  V30 248 H 21.8385 1.58504 5.78478 0
M  V30 249 H 23.5175 2.06861 6.1304 0
M  V30 250 N 23.6496 -1.47581 0.552962 0
M  V30 251 C 24.8986 -2.01684 0.0251995 0
M  V30 252 C 25.2116 -1.43317 -1.33115 0
M  V30 253 O 26.4176 -1.89057 -1.94858 0
M  V30 254 C 24.8736 -3.599 -0.00542052 0
M  V30 255 C 24.4816 -4.27257 1.34742 0
M  V30 256 C 26.2256 -4.21768 -0.4808 0
M  V30 257 C 24.1326 -5.77467 1.27614 0
M  V30 258 H 23.0626 -0.753979 0.00565033 0
M  V30 259 H 25.7136 -1.69616 0.70018 0
M  V30 260 H 24.0956 -3.88911 -0.745961 0
M  V30 261 H 25.2696 -4.09893 2.10534 0
M  V30 262 H 23.5846 -3.77358 1.76039 0
M  V30 263 H 26.1816 -5.31838 -0.55246 0
M  V30 264 H 26.5246 -3.88651 -1.49184 0
M  V30 265 H 27.0576 -3.97273 0.204752 0
M  V30 266 H 23.7966 -6.15196 2.26304 0
M  V30 267 H 23.3166 -5.9718 0.55996 0
M  V30 268 H 24.9956 -6.3959 0.976421 0
M  V30 269 N 25.1277 -0.289203 -1.54924 0
M  V30 270 C 26.0777 0.606939 -2.19773 0
M  V30 271 C 27.0617 1.10783 -1.16687 0
M  V30 272 O 28.2537 1.05057 -1.4245 0
M  V30 273 C 25.3827 1.78398 -2.93307 0
M  V30 274 C 24.4687 1.29961 -4.03697 0
M  V30 275 N 24.8597 0.532377 -5.0299 0
M  V30 276 C 23.1577 1.58136 -4.17024 0
M  V30 277 C 23.8587 0.275912 -5.81045 0
M  V30 278 N 22.8347 0.852365 -5.36876 0
M  V30 279 H 26.6367 0.0130779 -2.93897 0
M  V30 280 H 24.1507 -0.09341 -1.62131 0
M  V30 281 H 26.1477 2.43741 -3.38225 0
M  V30 282 H 24.8077 2.38166 -2.20697 0
M  V30 283 H 25.8187 0.17838 -5.17593 0
M  V30 284 H 22.4957 2.18738 -3.55612 0
M  V30 285 H 23.8857 -0.339502 -6.71042 0
M  V30 286 N 26.6058 1.57591 -0.0167156 0
M  V30 287 C 27.5558 2.05953 0.978137 0
M  V30 288 C 28.5398 0.957532 1.29306 0
M  V30 289 O 29.7318 1.22119 1.28125 0
M  V30 290 C 26.8608 2.58006 2.26468 0
M  V30 291 C 25.9468 3.75113 1.97867 0
M  V30 292 N 26.3378 4.86187 1.39486 0
M  V30 293 C 24.6358 3.83363 2.27924 0
M  V30 294 C 25.3368 5.67502 1.27735 0
M  V30 295 N 24.3128 5.14023 1.76866 0
M  V30 296 H 28.1148 2.89236 0.521522 0
M  V30 297 H 25.6288 1.61301 0.188596 0
M  V30 298 H 27.6258 2.90937 2.98599 0
M  V30 299 H 26.2858 1.76148 2.72767 0
M  V30 300 H 27.2968 5.06695 1.07147 0
M  V30 301 H 23.9738 3.1239 2.76982 0
M  V30 302 H 25.3638 6.66791 0.826978 0
M  V30 303 N 28.0839 -0.256276 1.55502 0
M  V30 304 C 29.3299 -0.982884 1.78076 0
M  V30 305 C 29.6849 -1.83319 0.584109 0
M  V30 306 O 28.9779 -1.86875 -0.422877 0
M  V30 307 C 29.1719 -1.88432 3.03691 0
M  V30 308 C 29.0009 -1.12276 4.35459 0
M  V30 309 C 27.7709 -0.831647 4.98409 0
M  V30 310 C 29.9689 -0.504933 5.11815 0
M  V30 311 N 27.9509 -0.0450423 6.13883 0
M  V30 312 C 29.3219 0.146696 6.19826 0
M  V30 313 C 31.3769 -0.414455 4.96172 0
M  V30 314 C 30.0799 0.880103 7.13895 0
M  V30 315 C 32.1059 0.305398 5.90611 0
M  V30 316 C 31.4679 0.945701 6.98023 0
M  V30 317 H 27.5669 -0.341084 0.703694 0
M  V30 318 H 30.1509 -0.256909 1.92998 0
M  V30 319 H 28.3219 -2.58241 2.90114 0
M  V30 320 H 30.0539 -2.54579 3.14598 0
M  V30 321 H 26.8089 -1.14111 4.59647 0
M  V30 322 H 27.2329 0.336079 6.76165 0
M  V30 323 H 31.8749 -0.895163 4.13215 0
M  V30 324 H 29.5929 1.37244 7.9636 0
M  V30 325 H 33.1789 0.375946 5.80584 0
M  V30 326 H 32.0589 1.49383 7.6984 0
M  V30 327 N 29.562 -1.4872 -0.521534 0
M  V30 328 C 30.51 -1.64328 -1.64618 0
M  V30 329 C 31.504 -0.50953 -1.61555 0
M  V30 330 O 32.71 -0.688525 -1.66311 0
M  V30 331 H 29.085 -0.517805 -0.545328 0
M  V30 332 H 31.056 -2.58767 -1.48601 0
M  V30 333 C 29.805 -1.70805 -3.02855 0
M  V30 334 H 29.128 -2.5741 -3.05909 0
M  V30 335 H 30.568 -1.85766 -3.81139 0
M  V30 336 C 29.027 -0.448479 -3.33902 0
M  V30 337 O 29.557 0.434928 -3.99339 0
M  V30 338 N 27.763 -0.317616 -2.88859 0
M  V30 339 H 27.31 -1.03748 -2.35784 0
M  V30 340 H 27.268 0.524113 -3.10001 0
M  V30 341 N 31.0401 0.771051 -1.3745 0
M  V30 342 C 32.0031 1.86598 -1.33093 0
M  V30 343 C 33.0031 1.59076 -0.234845 0
M  V30 344 O 34.1931 1.67145 -0.490732 0
M  V30 345 C 31.3251 3.23747 -1.06773 0
M  V30 346 H 32.5181 1.91873 -2.30488 0
M  V30 347 H 30.0711 0.970876 -1.2249 0
M  V30 348 H 30.8061 3.24148 -0.099129 0
M  V30 349 H 30.5911 3.45115 -1.86112 0
M  V30 350 H 32.0811 4.03824 -1.06377 0
M  V30 351 N 32.5182 1.22032 0.997298 0
M  V30 352 C 33.4662 0.983634 2.10778 0
M  V30 353 C 34.4602 -0.0717564 1.69248 0
M  V30 354 O 35.6662 0.080304 1.79821 0
M  V30 355 H 32.0412 0.300877 0.689186 0
M  V30 356 H 34.0122 1.92606 2.27916 0
M  V30 357 C 32.7612 0.57326 3.42942 0
M  V30 358 H 32.0842 1.37702 3.75338 0
M  V30 359 H 33.5242 0.447031 4.21637 0
M  V30 360 C 31.9832 -0.7167 3.29188 0
M  V30 361 O 32.5132 -1.77027 3.60589 0
M  V30 362 N 30.7192 -0.686167 2.82383 0
M  V30 363 H 30.2662 0.171507 2.57028 0
M  V30 364 H 30.2242 -1.54955 2.73562 0
M  V30 365 N 33.9963 -1.19345 1.0293 0
M  V30 366 C 35.4123 -1.41069 0.746446 0
M  V30 367 C 35.6123 -1.90078 -0.668776 0
M  V30 368 O 34.6683 -2.0778 -1.4347 0
M  V30 369 C 35.9813 -2.42141 1.78292 0
M  V30 370 C 37.5293 -2.55887 1.80252 0
M  V30 371 C 38.0043 -3.60214 2.8286 0
M  V30 372 N 39.4953 -3.67711 2.81679 0
M  V30 373 C 40.2303 -4.48128 3.57727 0
M  V30 374 N 39.7263 -5.32248 4.43491 0
M  V30 375 N 41.5193 -4.42782 3.46267 0
M  V30 376 H 33.6703 -0.858536 1.94275 0
M  V30 377 H 35.9333 -0.439541 0.839945 0
M  V30 378 H 35.6393 -2.13155 2.79746 0
M  V30 379 H 35.5133 -3.41323 1.60557 0
M  V30 380 H 37.9003 -2.84196 0.794757 0
M  V30 381 H 37.9813 -1.56858 2.02062 0
M  V30 382 H 37.6253 -3.32647 3.83807 0
M  V30 383 H 37.5553 -4.58895 2.58307 0
M  V30 384 H 40.0463 -3.07634 2.19476 0
M  V30 385 H 40.3593 -5.90729 4.98256 0
M  V30 386 H 38.7043 -5.31707 4.47564 0
M  V30 387 H 41.8953 -3.76107 2.78677 0
M  V30 388 H 42.0683 -5.05215 4.05785 0
M  V30 389 N 35.4744 -0.807222 -1.35358 0
M  V30 390 C 36.4044 -0.232509 -2.3234 0
M  V30 391 C 37.3854 0.642386 -1.57504 0
M  V30 392 O 38.5704 0.572526 -1.85569 0
M  V30 393 C 35.7004 0.619238 -3.41735 0
M  V30 394 C 34.6544 -0.157215 -4.27711 0
M  V30 395 C 33.9804 0.816273 -5.28433 0
M  V30 396 C 35.2804 -1.35656 -5.04376 0
M  V30 397 H 36.9744 -1.04276 -2.80654 0
M  V30 398 H 34.5204 -0.50288 -1.34934 0
M  V30 399 H 36.4734 1.03137 -4.08584 0
M  V30 400 H 35.1974 1.46239 -2.92031 0
M  V30 401 H 33.8564 -0.550525 -3.62443 0
M  V30 402 H 33.5044 1.65494 -4.74996 0
M  V30 403 H 33.2044 0.301067 -5.86828 0
M  V30 404 H 34.7284 1.22659 -5.98153 0
M  V30 405 H 36.1424 -1.01927 -5.64166 0
M  V30 406 H 34.5394 -1.8063 -5.7227 0
M  V30 407 H 35.6094 -2.14288 -4.34981 0
M  V30 408 N 36.9525 1.47285 -0.560781 0
M  V30 409 C 38.2295 1.9558 0.0277798 0
M  V30 410 C 38.6095 1.5034 1.48192 0
M  V30 411 O 37.9575 0.743882 2.16052 0
M  V30 412 C 38.1675 3.48789 -0.121418 0
M  V30 413 C 39.5155 4.24594 0.0220912 0
M  V30 414 O 40.5395 3.56166 -0.0491439 0
M  V30 415 O 39.3985 5.46217 0.175958 0
M  V30 416 H 36.4925 0.824663 0.0621342 0
M  V30 417 H 39.0385 1.5767 -0.627556 0
M  V30 418 H 37.8105 3.74533 -1.13316 0
M  V30 419 H 37.4335 3.93473 0.571366 0
M  V30 420 N 38.4306 0.297415 1.54768 0
M  V30 421 C 39.3606 -0.573494 2.26348 0
M  V30 422 C 40.3416 -1.14085 1.26169 0
M  V30 423 O 41.5266 -1.17086 1.54934 0
M  V30 424 C 38.6566 -1.74716 3.00153 0
M  V30 425 C 37.6106 -1.31032 4.07449 0
M  V30 426 C 36.9366 -2.56887 4.68949 0
M  V30 427 C 38.2366 -0.444183 5.20408 0
M  V30 428 H 39.9306 0.0235131 2.99391 0
M  V30 429 H 37.4766 0.0127488 1.43994 0
M  V30 430 H 39.4296 -2.3625 3.48947 0
M  V30 431 H 38.1536 -2.37035 2.24682 0
M  V30 432 H 36.8126 -0.718066 3.59499 0
M  V30 433 H 36.4606 -3.17512 3.90122 0
M  V30 434 H 36.1606 -2.2836 5.41411 0
M  V30 435 H 37.6846 -3.19229 5.20505 0
M  V30 436 H 39.0986 -0.9651 5.65118 0
M  V30 437 H 37.4956 -0.252846 5.99567 0
M  V30 438 H 38.5656 0.531609 4.81977 0
M  V30 439 N 39.9087 -1.5758 0.0250728 0
M  V30 440 C 41.1557 -1.91633 -0.654444 0
M  V30 441 C 41.4837 -0.901103 -1.72367 0
M  V30 442 O 40.7387 0.0905647 -1.9549 0
M  V30 443 C 41.0377 -3.32421 -1.31268 0
M  V30 444 C 40.7037 -4.49344 -0.374223 0
M  V30 445 C 39.3657 -4.8106 -0.115911 0
M  V30 446 C 41.7177 -5.20498 0.270432 0
M  V30 447 C 39.0457 -5.8129 0.79493 0
M  V30 448 C 41.3977 -6.21699 1.1693 0
M  V30 449 C 40.0617 -6.51859 1.43655 0
M  V30 450 H 39.3317 -0.701236 -0.239478 0
M  V30 451 H 41.9787 -1.91307 0.0859734 0
M  V30 452 H 40.2837 -3.28989 -2.12775 0
M  V30 453 H 41.9807 -3.56038 -1.84494 0
M  V30 454 H 38.5707 -4.24579 -0.58573 0
M  V30 455 H 42.7547 -4.96229 0.0839194 0
M  V30 456 H 38.0107 -6.03005 1.00973 0
M  V30 457 H 42.1847 -6.75955 1.67504 0
M  V30 458 H 39.8117 -7.2934 2.144 0
M  V30 459 N 41.3868 0.248026 -1.55636 0
M  V30 460 C 42.2968 1.32859 -1.93354 0
M  V30 461 C 43.3128 1.52719 -0.833838 0
M  V30 462 O 44.4888 1.66363 -1.13513 0
M  V30 463 C 41.5538 2.66337 -2.21958 0
M  V30 464 C 40.6148 2.55008 -3.45354 0
M  V30 465 C 39.8478 3.82121 -3.72584 0
M  V30 466 O 40.0708 4.83951 -3.01907 0
M  V30 467 O 39.0048 3.80822 -4.6611 0
M  V30 468 H 42.8308 1.03862 -2.85388 0
M  V30 469 H 40.4158 0.448686 -1.42503 0
M  V30 470 H 42.2978 3.45216 -2.4167 0
M  V30 471 H 40.9728 2.95068 -1.33103 0
M  V30 472 H 39.8798 1.7442 -3.30951 0
M  V30 473 H 41.2128 2.31222 -4.34508 0
M  V30 474 N 42.8649 1.48995 0.513639 0
M  V30 475 C 44.1139 1.57093 1.2651 0
M  V30 476 C 44.4269 0.257091 1.93903 0
M  V30 477 O 45.6329 0.216478 2.70636 0
M  V30 478 C 44.0889 2.77118 2.29638 0
M  V30 479 C 43.6969 4.15209 1.68241 0
M  V30 480 C 45.4409 2.94538 3.05692 0
M  V30 481 C 43.3479 5.26474 2.69406 0
M  V30 482 H 42.2779 0.584876 0.475854 0
M  V30 483 H 44.9289 1.7536 0.540487 0
M  V30 484 H 43.3109 2.52319 3.05207 0
M  V30 485 H 44.4849 4.50094 0.987505 0
M  V30 486 H 42.7999 4.03042 1.04623 0
M  V30 487 H 45.3969 3.74832 3.8132 0
M  V30 488 H 45.7399 2.04614 3.62545 0
M  V30 489 H 46.2729 3.19316 2.37238 0
M  V30 490 H 43.0119 6.18417 2.17351 0
M  V30 491 H 42.5319 4.96058 3.37175 0
M  V30 492 H 44.2109 5.55277 3.32078 0
M  V30 493 N 44.343 -0.763751 1.37857 0
M  V30 494 C 45.568 -1.55805 1.36893 0
M  V30 495 C 45.993 -1.88054 -0.0416135 0
M  V30 496 O 45.351 -1.49825 -1.02089 0
M  V30 497 C 45.399 -2.84012 2.22192 0
M  V30 498 O 44.503 -3.78732 1.63204 0
M  V30 499 H 43.844 -0.471638 0.46739 0
M  V30 500 H 46.374 -0.944657 1.81487 0
M  V30 501 H 46.384 -3.33037 2.35691 0
M  V30 502 H 45.059 -2.59869 3.24716 0
M  V30 503 H 43.636 -3.37402 1.58791 0
M  V30 504 N 45.8211 -1.22559 -0.990812 0
M  V30 505 C 46.7531 -0.955325 -2.08342 0
M  V30 506 C 47.7661 0.0668408 -1.62663 0
M  V30 507 O 48.9551 -0.167421 -1.77713 0
M  V30 508 C 46.0551 -0.415566 -3.36342 0
M  V30 509 C 45.2281 -1.49544 -4.11042 0
M  V30 510 C 44.2871 -0.962399 -5.17324 0
M  V30 511 O 43.3131 -1.64907 -5.44788 0
M  V30 512 N 44.5151 0.215134 -5.80101 0
M  V30 513 H 47.2801 -1.89596 -2.32106 0
M  V30 514 H 44.8411 -1.13276 -1.15673 0
M  V30 515 H 46.8331 -0.0442386 -4.04676 0
M  V30 516 H 45.4031 0.430232 -3.09625 0
M  V30 517 H 44.6231 -2.04 -3.37309 0
M  V30 518 H 45.9111 -2.22195 -4.57719 0
M  V30 519 H 45.3091 0.789779 -5.6016 0
M  V30 520 H 43.8661 0.527826 -6.49659 0
M  V30 521 N 47.2992 1.18797 -1.03562 0
M  V30 522 C 48.7102 1.70322 -0.764676 0
M  V30 523 C 49.0612 1.82708 0.714996 0
M  V30 524 O 48.1862 1.50299 1.55689 0
M  V30 525 C 48.7812 3.09356 -1.38145 0
M  V30 526 C 47.3402 3.58114 -1.15895 0
M  V30 527 C 46.4872 2.34798 -1.4753 0
M  V30 528 H 49.4382 1.03543 -1.20268 0
M  V30 529 H 49.4592 3.72378 -0.781977 0
M  V30 530 H 48.9712 3.00309 -2.45837 0
M  V30 531 H 47.0722 3.72464 -0.100544 0
M  V30 532 H 47.1852 4.4184 -1.8524 0
M  V30 533 H 45.5492 2.38464 -0.894829 0
M  V30 534 H 46.3322 2.28375 -2.56319 0
M  V30 535 N 48.7773 0.814389 1.34928 0
M  V30 536 C 50.0053 0.411136 2.02774 0
M  V30 537 C 50.4203 -0.980316 1.61354 0
M  V30 538 O 49.7773 -1.63299 0.814847 0
M  V30 539 C 49.8283 0.493865 3.58111 0
M  V30 540 O 49.5493 1.83047 3.98027 0
M  V30 541 C 51.0503 0.0844174 4.4322 0
M  V30 542 H 48.2703 0.166037 0.650133 0
M  V30 543 H 50.8143 1.10018 1.72384 0
M  V30 544 H 48.9693 -0.147006 3.87121 0
M  V30 545 H 49.3833 1.79872 4.92693 0
M  V30 546 H 50.8573 0.193404 5.51661 0
M  V30 547 H 51.3343 -0.97113 4.28329 0
M  V30 548 H 51.9403 0.69875 4.19521 0
M  V30 549 N 50.2554 -1.46986 0.568584 0
M  V30 550 C 51.1654 -2.33942 -0.17555 0
M  V30 551 C 52.1814 -1.48891 -0.90041 0
M  V30 552 O 53.3574 -1.81794 -0.86676 0
M  V30 553 C 50.4224 -3.25811 -1.18524 0
M  V30 554 C 49.4834 -4.26757 -0.466582 0
M  V30 555 C 48.7164 -5.14236 -1.42817 0
M  V30 556 O 48.9394 -5.04379 -2.66379 0
M  V30 557 O 47.8734 -5.94412 -0.946453 0
M  V30 558 H 51.6994 -2.98896 0.538036 0
M  V30 559 H 49.2844 -1.4573 0.329097 0
M  V30 560 H 51.1664 -3.82527 -1.76779 0
M  V30 561 H 49.8414 -2.63471 -1.88055 0
M  V30 562 H 48.7484 -3.73769 0.157451 0
M  V30 563 H 50.0814 -4.91843 0.187485 0
M  V30 564 N 51.7335 -0.305618 -1.54608 0
M  V30 565 C 53.0105 0.355652 -1.92339 0
M  V30 566 C 53.3905 1.71324 -1.23335 0
M  V30 567 O 52.7385 2.25473 -0.370702 0
M  V30 568 C 52.9485 0.46572 -3.45879 0
M  V30 569 C 54.2965 0.734426 -4.182 0
M  V30 570 O 55.3205 0.54935 -3.51938 0
M  V30 571 O 54.1795 1.09024 -5.35515 0
M  V30 572 H 51.2735 0.199666 -0.802535 0
M  V30 573 H 53.8195 -0.354017 -1.65966 0
M  V30 574 H 52.5915 -0.488461 -3.88239 0
M  V30 575 H 52.2145 1.22367 -3.78301 0
M  V30 576 N 53.2116 1.57565 -0.0334293 0
M  V30 577 C 54.1416 2.13511 0.945265 0
M  V30 578 C 55.1226 1.05231 1.33643 0
M  V30 579 O 56.3076 1.33084 1.41429 0
M  V30 580 C 53.4376 2.6657 2.22616 0
M  V30 581 C 52.3916 3.79676 1.97561 0
M  V30 582 C 51.7176 4.1918 3.31952 0
M  V30 583 C 53.0176 5.0557 1.31135 0
M  V30 584 H 54.7116 2.95538 0.479325 0
M  V30 585 H 52.2576 1.42166 0.229115 0
M  V30 586 H 54.2106 3.04344 2.91466 0
M  V30 587 H 52.9346 1.8171 2.71384 0
M  V30 588 H 51.5936 3.42347 1.31127 0
M  V30 589 H 51.2416 3.31296 3.78487 0
M  V30 590 H 50.9416 4.95402 3.15992 0
M  V30 591 H 52.4656 4.59541 4.02063 0
M  V30 592 H 53.8796 5.40903 1.89992 0
M  V30 593 H 52.2766 5.86818 1.25559 0
M  V30 594 H 53.3466 4.84062 0.284894 0
M  V30 595 N 54.6897 -0.239769 1.55765 0
M  V30 596 C 55.5997 -1.31831 1.94056 0
M  V30 597 C 56.6157 -1.52275 0.841925 0
M  V30 598 O 57.7917 -1.65759 1.14394 0
M  V30 599 C 54.8567 -2.65156 2.23368 0
M  V30 600 C 53.9177 -2.53173 3.46701 0
M  V30 601 C 53.1507 -3.8014 3.74606 0
M  V30 602 O 53.3737 -4.82343 3.04469 0
M  V30 603 O 52.3077 -3.78344 4.68123 0
M  V30 604 H 56.1337 -1.02347 2.85935 0
M  V30 605 H 53.7187 -0.441123 1.42739 0
M  V30 606 H 55.6007 -3.43929 2.43497 0
M  V30 607 H 54.2757 -2.94358 1.34666 0
M  V30 608 H 53.1827 -1.72662 3.31871 0
M  V30 609 H 54.5157 -2.28915 4.35728 0
M  V30 610 N 56.1678 -1.49265 -0.50573 0
M  V30 611 C 57.4148 -1.58513 -1.26015 0
M  V30 612 C 57.7428 -0.26972 -1.92621 0
M  V30 613 O 56.9978 0.741997 -1.81088 0
M  V30 614 C 57.2968 -2.69008 -2.35308 0
M  V30 615 C 56.9628 -4.10662 -1.86192 0
M  V30 616 C 55.6248 -4.49212 -1.72516 0
M  V30 617 C 57.9768 -4.99336 -1.49375 0
M  V30 618 C 55.3048 -5.74214 -1.20394 0
M  V30 619 C 57.6568 -6.24852 -0.987072 0
M  V30 620 C 56.3208 -6.62236 -0.836669 0
M  V30 621 H 55.5908 -0.580041 -0.461122 0
M  V30 622 H 58.2378 -1.83078 -0.561665 0
M  V30 623 H 56.5428 -2.38396 -3.10926 0
M  V30 624 H 58.2398 -2.73373 -2.93374 0
M  V30 625 H 54.8298 -3.8023 -1.97795 0
M  V30 626 H 59.0138 -4.70212 -1.5879 0
M  V30 627 H 54.2698 -6.01883 -1.07458 0
M  V30 628 H 58.4438 -6.92944 -0.692983 0
M  V30 629 H 56.0708 -7.58979 -0.430607 0
M  V30 630 N 57.6459 0.756429 -1.3826 0
M  V30 631 C 58.5959 1.86069 -1.31766 0
M  V30 632 C 59.5799 1.59621 -0.202483 0
M  V30 633 O 60.7719 1.7149 -0.438211 0
M  V30 634 C 57.9009 3.23742 -1.1422 0
M  V30 635 C 56.9869 3.56091 -2.30348 0
M  V30 636 N 57.3779 3.59517 -3.55783 0
M  V30 637 C 55.6759 3.86341 -2.22838 0
M  V30 638 C 56.3769 3.89052 -4.32451 0
M  V30 639 N 55.3529 4.05736 -3.61772 0
M  V30 640 H 59.1549 1.86992 -2.26741 0
M  V30 641 H 56.6689 0.953643 -1.31451 0
M  V30 642 H 58.6659 4.02761 -1.07652 0
M  V30 643 H 57.3259 3.24073 -0.201763 0
M  V30 644 H 58.3369 3.41347 -3.89491 0
M  V30 645 H 55.0139 3.94404 -1.36937 0
M  V30 646 H 56.4039 3.98349 -5.4108 0
M  V30 647 N 59.124 1.23083 0.984299 0
M  V30 648 C 60.372 1.05848 1.72165 0
M  V30 649 C 60.693 -0.406049 1.90726 0
M  V30 650 O 59.963 -1.29139 1.47309 0
M  V30 651 H 58.543 0.388685 0.637913 0
M  V30 652 H 61.205 1.54736 1.18503 0
M  V30 653 H 60.301 1.54327 2.71274 0
M  V30 654 N 60.6021 -1.18246 1.0419 0
M  V30 655 C 61.8481 -1.88536 0.747122 0
M  V30 656 C 62.1811 -1.80223 -0.723409 0
M  V30 657 O 61.4561 -1.20337 -1.52804 0
M  V30 658 C 61.7391 -3.38968 1.21544 0
M  V30 659 C 61.5921 -3.56084 2.74816 0
M  V30 660 C 62.9111 -4.32648 0.806482 0
M  V30 661 H 60.0301 -0.684619 0.272883 0
M  V30 662 H 62.6721 -1.39113 1.29413 0
M  V30 663 H 60.8221 -3.8119 0.750081 0
M  V30 664 H 62.4941 -3.22946 3.29399 0
M  V30 665 H 60.7371 -2.98699 3.14582 0
M  V30 666 H 61.4081 -4.61639 3.02644 0
M  V30 667 H 63.8841 -3.98211 1.20695 0
M  V30 668 H 62.7601 -5.36462 1.1619 0
M  V30 669 H 63.0211 -4.41146 -0.29029 0
M  V30 670 N 62.0802 -0.821533 -1.34494 0
M  V30 671 C 63.0132 -0.187704 -2.27427 0
M  V30 672 C 63.9912 0.65507 -1.48821 0
M  V30 673 O 65.1752 0.619111 -1.78043 0
M  V30 674 C 62.3022 0.737996 -3.30562 0
M  V30 675 C 61.3482 -0.0270713 -4.26491 0
M  V30 676 S 62.1812 -1.37329 -5.17592 0
M  V30 677 C 63.3372 -0.452427 -6.24263 0
M  V30 678 H 63.5702 -0.975598 -2.80837 0
M  V30 679 H 61.1032 -0.61736 -1.4152 0
M  V30 680 H 63.0612 1.26654 -3.90473 0
M  V30 681 H 61.7222 1.4994 -2.76001 0
M  V30 682 H 60.9152 0.6766 -4.99438 0
M  V30 683 H 60.5172 -0.48612 -3.70827 0
M  V30 684 H 62.8092 0.356557 -6.76561 0
M  V30 685 H 63.7522 -1.15153 -6.98674 0
M  V30 686 H 64.1602 -0.0414755 -5.64485 0
M  V30 687 N 63.5583 1.46682 -0.576371 0
M  V30 688 C 64.9743 1.57822 -0.237562 0
M  V30 689 C 65.1743 1.57237 1.26011 0
M  V30 690 O 64.2303 1.48596 2.04146 0
M  V30 691 C 65.5433 2.87499 -0.881168 0
M  V30 692 C 67.0913 3.01119 -0.85417 0
M  V30 693 C 67.5663 4.33524 -1.4772 0
M  V30 694 N 69.0573 4.40207 -1.44125 0
M  V30 695 C 69.7923 5.4126 -1.89276 0
M  V30 696 N 69.2883 6.49021 -2.42371 0
M  V30 697 N 71.0813 5.32422 -1.80231 0
M  V30 698 H 63.2323 1.45306 -1.54919 0
M  V30 699 H 65.4953 0.692733 -0.647167 0
M  V30 700 H 65.2013 2.9372 -1.93447 0
M  V30 701 H 65.0753 3.75224 -0.385592 0
M  V30 702 H 67.4623 2.94485 0.190491 0
M  V30 703 H 67.5433 2.14887 -1.3877 0
M  V30 704 H 67.1873 4.40916 -2.52103 0
M  V30 705 H 67.1173 5.1852 -0.918947 0
M  V30 706 H 69.6083 3.62931 -1.05307 0
M  V30 707 H 69.9213 7.2233 -2.74698 0
M  V30 708 H 68.2663 6.49858 -2.46393 0
M  V30 709 H 71.4573 4.47137 -1.38514 0
M  V30 710 H 71.6303 6.11034 -2.15735 0
M  V30 711 N 65.0364 0.313813 1.54444 0
M  V30 712 C 66.2834 -0.291675 2.00388 0
M  V30 713 C 66.6114 -1.52904 1.2021 0
M  V30 714 O 65.8664 -1.93833 0.269707 0
M  V30 715 C 66.1654 -0.680386 3.50864 0
M  V30 716 C 65.8314 0.456699 4.48581 0
M  V30 717 C 64.4934 0.768824 4.75018 0
M  V30 718 C 66.8454 1.22098 5.06697 0
M  V30 719 C 64.1734 1.84812 5.56831 0
M  V30 720 C 66.5254 2.29029 5.89685 0
M  V30 721 C 65.1894 2.60834 6.14428 0
M  V30 722 H 64.4594 -0.106732 0.733273 0
M  V30 723 H 67.1064 0.43557 1.86481 0
M  V30 724 H 65.4114 -1.48791 3.62448 0
M  V30 725 H 67.1084 -1.16026 3.83847 0
M  V30 726 H 63.6984 0.203337 4.28117 0
M  V30 727 H 67.8824 0.993096 4.86263 0
M  V30 728 H 63.1384 2.09912 5.74236 0
M  V30 729 H 67.3124 2.887 6.33739 0
M  V30 730 H 64.9394 3.44596 6.77612 0
M  V30 731 N 66.5145 -1.57545 0.0417849 0
M  V30 732 C 67.7445 -1.96339 -0.642995 0
M  V30 733 C 68.1525 -0.917536 -1.65463 0
M  V30 734 O 67.4955 0.107747 -1.83384 0
M  V30 735 C 67.5575 -3.31333 -1.39494 0
M  V30 736 C 67.2215 -4.53796 -0.540204 0
M  V30 737 C 68.2185 -5.19553 0.189806 0
M  V30 738 C 65.9035 -5.0006 -0.473886 0
M  V30 739 C 67.8975 -6.29904 0.974674 0
M  V30 740 C 65.5845 -6.10289 0.314677 0
M  V30 741 C 66.5825 -6.75072 1.03765 0
M  V30 742 O 66.2705 -7.83183 1.81327 0
M  V30 743 H 66.0025 -0.651241 -0.181277 0
M  V30 744 H 68.5565 -2.05148 0.101665 0
M  V30 745 H 66.7865 -3.19052 -2.18502 0
M  V30 746 H 68.4755 -3.54942 -1.96904 0
M  V30 747 H 69.2415 -4.84774 0.147981 0
M  V30 748 H 65.1205 -4.49433 -1.0262 0
M  V30 749 H 68.6645 -6.80401 1.5395 0
M  V30 750 H 64.5615 -6.44506 0.358174 0
M  V30 751 H 65.3295 -7.99913 1.73438 0
M  V30 752 N 67.9926 0.231505 -1.5589 0
M  V30 753 C 69.2396 0.957352 -1.78441 0
M  V30 754 C 69.5676 1.84726 -0.60882 0
M  V30 755 O 68.8226 1.91416 0.40725 0
M  V30 756 C 69.1216 1.83577 -3.0665 0
M  V30 757 C 68.7876 1.09993 -4.37278 0
M  V30 758 C 67.4496 0.896629 -4.72773 0
M  V30 759 C 69.8016 0.579558 -5.17968 0
M  V30 760 C 67.1296 0.160896 -5.86479 0
M  V30 761 C 69.4816 -0.142783 -6.32439 0
M  V30 762 C 68.1456 -0.357427 -6.66542 0
M  V30 763 H 67.4156 0.35032 -0.65296 0
M  V30 764 H 70.0626 0.226259 -1.90159 0
M  V30 765 H 68.3676 2.63441 -2.90011 0
M  V30 766 H 70.0646 2.39934 -3.21298 0
M  V30 767 H 66.6546 1.26835 -4.09403 0
M  V30 768 H 70.8386 0.724125 -4.90989 0
M  V30 769 H 66.0946 -0.0157293 -6.11398 0
M  V30 770 H 70.2686 -0.553559 -6.94196 0
M  V30 771 H 67.8956 -0.929466 -7.54497 0
M  V30 772 N 69.4707 1.49531 0.497807 0
M  V30 773 C 70.4027 1.62559 1.61578 0
M  V30 774 C 71.4157 0.508134 1.54667 0
M  V30 775 O 72.6047 0.780309 1.60541 0
M  V30 776 C 69.7047 1.56925 3.00379 0
M  V30 777 C 68.8777 2.84257 3.3244 0
M  V30 778 C 67.9367 2.71632 4.50669 0
M  V30 779 O 66.9627 3.4557 4.52294 0
M  V30 780 N 68.1647 1.83391 5.5077 0
M  V30 781 H 70.9297 2.58981 1.50828 0
M  V30 782 H 68.4907 1.4666 0.685743 0
M  V30 783 H 70.4827 1.46129 3.77397 0
M  V30 784 H 69.0527 0.683483 3.05037 0
M  V30 785 H 68.2727 3.09381 2.44289 0
M  V30 786 H 69.5607 3.68666 3.5066 0
M  V30 787 H 68.9587 1.22583 5.52259 0
M  V30 788 H 67.5157 1.78515 6.26878 0
M  V30 789 N 70.9488 -0.749086 1.3866 0
M  V30 790 C 72.2258 -1.4992 1.25632 0
M  V30 791 C 72.6058 -2.10633 -0.140317 0
M  V30 792 O 71.9538 -1.97437 -1.15025 0
M  V30 793 C 72.1638 -2.56195 2.36992 0
M  V30 794 C 73.5118 -3.22972 2.75634 0
M  V30 795 O 74.5358 -2.66502 2.36337 0
M  V30 796 O 73.3948 -4.25122 3.43415 0
M  V30 797 H 70.4888 -0.665067 0.491544 0
M  V30 798 H 73.0348 -0.784113 1.50498 0
M  V30 799 H 71.8068 -2.09612 3.30422 0
M  V30 800 H 71.4298 -3.35279 2.13714 0
M  V30 801 N 72.4269 -1.23603 -0.977757 0
M  V30 802 C 73.3739 -1.01954 -2.07061 0
M  V30 803 C 74.3439 0.0638697 -1.65977 0
M  V30 804 O 75.5289 -0.0887624 -1.90593 0
M  V30 805 C 72.6689 -0.619658 -3.39491 0
M  V30 806 C 71.7819 -1.77547 -3.93829 0
M  V30 807 C 70.9169 -1.32212 -5.14484 0
M  V30 808 C 69.9559 -2.44852 -5.60994 0
M  V30 809 N 69.0929 -2.00456 -6.72876 0
M  V30 810 H 73.9329 -1.95495 -2.24913 0
M  V30 811 H 71.4699 -0.973861 -1.10247 0
M  V30 812 H 73.4279 -0.368898 -4.15566 0
M  V30 813 H 72.0579 0.278752 -3.21594 0
M  V30 814 H 71.1099 -2.14016 -3.14486 0
M  V30 815 H 72.4219 -2.62219 -4.24314 0
M  V30 816 H 71.5759 -1.02965 -5.97899 0
M  V30 817 H 70.3149 -0.445808 -4.85658 0
M  V30 818 H 69.3199 -2.74871 -4.76157 0
M  V30 819 H 70.5449 -3.33024 -5.91837 0
M  V30 820 H 68.4909 -1.15208 -6.45804 0
M  V30 821 H 68.4079 -2.78687 -7.02759 0
M  V30 822 H 69.6759 -1.7432 -7.59758 0
M  V30 823 N 73.905 1.17692 -1.04816 0
M  V30 824 C 74.868 2.19787 -0.650117 0
M  V30 825 C 75.868 1.58044 0.296427 0
M  V30 826 O 77.058 1.74012 0.0808097 0
M  V30 827 C 74.19 3.40869 0.0456987 0
M  V30 828 H 75.383 2.56516 -1.5537 0
M  V30 829 H 72.936 1.31708 -0.841594 0
M  V30 830 H 73.671 3.09681 0.962726 0
M  V30 831 H 73.456 3.86928 -0.634727 0
M  V30 832 H 74.946 4.16445 0.310432 0
M  V30 833 N 75.3831 0.828654 1.34056 0
M  V30 834 C 76.3461 0.259927 2.27721 0
M  V30 835 C 77.3461 -0.565478 1.50529 0
M  V30 836 O 78.5361 -0.38075 1.69988 0
M  V30 837 C 75.6681 -0.634944 3.34935 0
M  V30 838 H 76.8611 1.0863 2.79534 0
M  V30 839 H 74.4141 0.600951 1.44285 0
M  V30 840 H 75.1491 -1.48416 2.88346 0
M  V30 841 H 74.9341 -0.0444999 3.92075 0
M  V30 842 H 76.4241 -1.02648 4.04788 0
M  V30 843 N 76.8612 -1.46375 0.584142 0
M  V30 844 C 78.1092 -2.01978 0.0701287 0
M  V30 845 C 78.4302 -1.4579 -1.295 0
M  V30 846 O 77.7002 -0.64314 -1.85042 0
M  V30 847 H 76.2802 -0.746648 0.0229345 0
M  V30 848 H 78.9422 -1.79461 0.760245 0
M  V30 849 H 78.0382 -3.121 0.0022064 0
M  V30 850 N 78.3393 -0.321999 -1.54275 0
M  V30 851 C 79.2873 0.560206 -2.25753 0
M  V30 852 C 80.2813 1.11984 -1.27106 0
M  V30 853 O 81.4873 1.06806 -1.44888 0
M  V30 854 H 77.8623 0.199304 -0.725108 0
M  V30 855 H 79.8333 -0.0649365 -2.98329 0
M  V30 856 C 78.5823 1.71023 -3.02731 0
M  V30 857 H 77.9053 1.28885 -3.78456 0
M  V30 858 H 79.3453 2.30314 -3.55993 0
M  V30 859 C 77.8043 2.62692 -2.10938 0
M  V30 860 O 78.3343 3.64364 -1.6912 0
M  V30 861 N 76.5403 2.30891 -1.76459 0
M  V30 862 H 76.0873 1.48253 -2.10663 0
M  V30 863 H 76.0453 2.92487 -1.1532 0
M  V30 864 N 79.8174 1.5752 -0.0501392 0
M  V30 865 C 81.0644 1.9265 0.623874 0
M  V30 866 C 81.3924 0.928411 1.70912 0
M  V30 867 O 80.6474 -0.0594525 1.9561 0
M  V30 868 C 80.9464 3.34467 1.25963 0
M  V30 869 C 80.6124 4.49883 0.302689 0
M  V30 870 C 79.2744 4.81184 0.0393636 0
M  V30 871 C 81.6264 5.20002 -0.353205 0
M  V30 872 C 78.9544 5.79951 -0.887308 0
M  V30 873 C 81.3064 6.1976 -1.26806 0
M  V30 874 C 79.9704 6.49491 -1.54007 0
M  V30 875 H 79.2404 0.704957 0.228292 0
M  V30 876 H 81.8874 1.91146 -0.116398 0
M  V30 877 H 80.1924 3.32333 2.07514 0
M  V30 878 H 81.8894 3.58928 1.78806 0
M  V30 879 H 78.4794 4.25457 0.518109 0
M  V30 880 H 82.6634 4.96033 -0.162854 0
M  V30 881 H 77.9194 6.01322 -1.10553 0
M  V30 882 H 82.0934 6.73205 -1.78236 0
M  V30 883 H 79.7204 7.25837 -2.25976 0
M  V30 884 N 81.2955 -0.223234 1.56011 0
M  V30 885 C 82.2585 -1.26014 1.9145 0
M  V30 886 C 83.2585 -1.3989 0.792937 0
M  V30 887 O 84.4485 -1.38184 1.0607 0
M  V30 888 C 81.5805 -2.63422 2.16383 0
M  V30 889 H 82.7735 -0.95796 2.84189 0
M  V30 890 H 80.3265 -0.463576 1.49267 0
M  V30 891 H 81.0615 -2.98741 1.2619 0
M  V30 892 H 80.8465 -2.54728 2.98088 0
M  V30 893 H 82.3365 -3.38249 2.44903 0
M  V30 894 N 82.7736 -1.49793 -0.48987 0
M  V30 895 C 84.0016 -1.63568 -1.26701 0
M  V30 896 C 84.4166 -0.311465 -1.86213 0
M  V30 897 O 83.7736 0.704416 -1.68357 0
M  V30 898 C 83.8246 -2.71284 -2.38929 0
M  V30 899 O 83.5456 -3.9857 -1.81861 0
M  V30 900 C 85.0466 -2.95864 -3.3012 0
M  V30 901 H 82.2666 -0.550342 -0.383881 0
M  V30 902 H 84.8106 -1.95898 -0.586864 0
M  V30 903 H 82.9656 -2.417 -3.02753 0
M  V30 904 H 83.3796 -4.57993 -2.55622 0
M  V30 905 H 84.8536 -3.74941 -4.05121 0
M  V30 906 H 85.3306 -2.06206 -3.87783 0
M  V30 907 H 85.9366 -3.26907 -2.72051 0
M  V30 908 N 84.2517 0.741722 -1.39055 0
M  V30 909 C 85.1987 1.85566 -1.37237 0
M  V30 910 C 86.1687 1.64457 -0.233072 0
M  V30 911 O 87.3537 1.85957 -0.427147 0
M  V30 912 C 84.4937 3.23004 -1.215 0
M  V30 913 C 83.6067 3.55864 -2.44918 0
M  V30 914 C 82.7417 4.82669 -2.21821 0
M  V30 915 C 81.7807 5.08351 -3.40948 0
M  V30 916 N 80.9177 6.26356 -3.17211 0
M  V30 917 H 85.7577 1.86455 -2.32462 0
M  V30 918 H 83.2947 0.911176 -1.15482 0
M  V30 919 H 85.2527 4.02331 -1.10389 0
M  V30 920 H 83.8827 3.21411 -0.29908 0
M  V30 921 H 82.9347 2.7129 -2.66657 0
M  V30 922 H 84.2467 3.70765 -3.33668 0
M  V30 923 H 83.4007 5.69962 -2.07914 0
M  V30 924 H 82.1397 4.69929 -1.30454 0
M  V30 925 H 81.1447 4.19522 -3.55361 0
M  V30 926 H 82.3697 5.22981 -4.33207 0
M  V30 927 H 80.3157 6.14917 -2.28502 0
M  V30 928 H 80.2327 6.41813 -3.99515 0
M  V30 929 H 81.5007 7.16506 -3.06984 0
M  V30 930 N 85.7298 1.2412 0.971189 0
M  V30 931 C 86.9698 1.09066 1.7287 0
M  V30 932 C 87.3338 -0.364794 1.88503 0
M  V30 933 O 88.5348 -0.636748 2.61149 0
M  V30 934 C 86.8058 1.80629 3.08396 0
M  V30 935 S 88.3648 1.81263 3.99611 0
M  V30 936 H 85.1828 0.390145 0.594397 0
M  V30 937 H 87.7848 1.57397 1.15959 0
M  V30 938 H 86.4888 2.85647 2.94676 0
M  V30 939 H 86.0198 1.32617 3.70373 0
M  V30 940 H 88.0348 0.877804 4.88374 0
M  V30 941 N 87.2079 -1.17134 1.05439 0
M  V30 942 C 88.4569 -1.86791 0.761049 0
M  V30 943 C 88.7699 -1.82072 -0.714795 0
M  V30 944 O 89.9759 -2.47223 -1.12218 0
M  V30 945 C 88.4319 -3.35166 1.31117 0
M  V30 946 C 88.0399 -3.48381 2.81664 0
M  V30 947 C 89.7839 -4.10134 1.09499 0
M  V30 948 C 87.6909 -4.90793 3.29964 0
M  V30 949 H 86.6209 -0.699681 0.281002 0
M  V30 950 H 89.2719 -1.3226 1.27199 0
M  V30 951 H 87.6539 -3.8925 0.72803 0
M  V30 952 H 88.8279 -3.04502 3.45855 0
M  V30 953 H 87.1429 -2.86836 3.01851 0
M  V30 954 H 89.7399 -5.152 1.43084 0
M  V30 955 H 90.0829 -4.16287 0.0328772 0
M  V30 956 H 90.6159 -3.62264 1.64346 0
M  V30 957 H 87.3549 -4.89816 4.35616 0
M  V30 958 H 86.8749 -5.35333 2.70516 0
M  V30 959 H 88.5539 -5.59573 3.24787 0
M  V30 960 N 88.686 -0.835752 -1.33615 0
M  V30 961 C 90.102 -0.523139 -1.50783 0
M  V30 962 C 90.302 0.950171 -1.77691 0
M  V30 963 O 89.358 1.73411 -1.83534 0
M  V30 964 C 90.671 -1.39378 -2.66448 0
M  V30 965 C 92.219 -1.39223 -2.80332 0
M  V30 966 C 92.694 -2.24765 -3.99055 0
M  V30 967 N 94.185 -2.22458 -4.06284 0
M  V30 968 C 94.92 -2.85386 -4.97336 0
M  V30 969 N 94.416 -3.57354 -5.93523 0
M  V30 970 N 96.209 -2.74872 -4.90308 0
M  V30 971 H 88.36 -1.78952 -1.14411 0
M  V30 972 H 90.623 -0.763297 -0.562212 0
M  V30 973 H 90.329 -2.44061 -2.53234 0
M  V30 974 H 90.203 -1.0676 -3.61776 0
M  V30 975 H 92.59 -0.353136 -2.92979 0
M  V30 976 H 92.671 -1.75846 -1.85773 0
M  V30 977 H 92.315 -3.28732 -3.87167 0
M  V30 978 H 92.245 -1.85485 -4.92852 0
M  V30 979 H 94.736 -1.70119 -3.37443 0
M  V30 980 H 95.049 -4.02584 -6.59656 0
M  V30 981 H 93.394 -3.61461 -5.93608 0
M  V30 982 H 96.585 -2.18213 -4.14126 0
M  V30 983 H 96.758 -3.24199 -5.61069 0
M  V30 984 N 90.1641 1.46063 -0.591896 0
M  V30 985 C 91.4101 2.02638 -0.0811191 0
M  V30 986 C 91.7431 1.4613 1.27905 0
M  V30 987 O 91.0181 0.629908 1.84017 0
M  V30 988 C 91.3011 3.60091 -0.0252436 0
M  V30 989 C 91.1541 4.26965 -1.41496 0
M  V30 990 C 92.4731 4.3496 0.670685 0
M  V30 991 H 89.5921 0.73635 -0.0309524 0
M  V30 992 H 92.2341 1.741 -0.760859 0
M  V30 993 H 90.3841 3.84535 0.553624 0
M  V30 994 H 92.0561 4.13756 -2.0397 0
M  V30 995 H 90.2991 3.85971 -1.98011 0
M  V30 996 H 90.9701 5.35781 -1.32825 0
M  V30 997 H 93.4461 4.15716 0.178825 0
M  V30 998 H 92.3221 5.44686 0.678837 0
M  V30 999 H 92.5831 4.06685 1.73379 0
M  V30 1000 N 91.6422 0.330177 1.54103 0
M  V30 1001 C 92.8672 -0.274893 2.0557 0
M  V30 1002 C 93.2922 -1.44487 1.20437 0
M  V30 1003 O 92.6502 -1.80021 0.214991 0
M  V30 1004 C 92.6982 -0.68079 3.54115 0
M  V30 1005 O 91.8022 -1.7824 3.71893 0
M  V30 1006 H 91.1432 -0.0483849 0.662235 0
M  V30 1007 H 93.6732 0.480508 1.98878 0
M  V30 1008 H 93.6832 -0.961635 3.96505 0
M  V30 1009 H 92.3582 0.174903 4.15532 0
M  V30 1010 H 90.9352 -1.49985 3.41407 0
M  V30 1011 N 93.1203 -1.57491 0.0584922 0
M  V30 1012 C 94.3453 -1.97711 -0.62652 0
M  V30 1013 C 94.7703 -0.936132 -1.63151 0
M  V30 1014 O 94.1283 0.099811 -1.81025 0
M  V30 1015 C 94.1763 -3.36989 -1.28338 0
M  V30 1016 O 93.2803 -3.35433 -2.39913 0
M  V30 1017 H 92.6213 -0.643868 -0.162266 0
M  V30 1018 H 95.1513 -2.04193 0.129064 0
M  V30 1019 H 95.1613 -3.73879 -1.63335 0
M  V30 1020 H 93.8363 -4.12289 -0.546889 0
M  V30 1021 H 92.4133 -3.10298 -2.06809 0
M  V30 1022 N 94.5984 0.214957 -1.56127 0
M  V30 1023 C 95.8264 0.955092 -1.83536 0
M  V30 1024 C 96.2414 1.77677 -0.638472 0
M  V30 1025 O 95.5984 1.78219 0.392968 0
M  V30 1026 C 95.6494 1.86734 -3.09536 0
M  V30 1027 O 95.3704 1.07887 -4.24608 0
M  V30 1028 C 96.8714 2.72082 -3.4998 0
M  V30 1029 H 94.0914 0.279611 -0.609966 0
M  V30 1030 H 96.6354 0.228197 -2.03223 0
M  V30 1031 H 94.7904 2.5481 -2.91806 0
M  V30 1032 H 95.2044 1.69872 -4.9623 0
M  V30 1033 H 96.6784 3.31782 -4.41163 0
M  V30 1034 H 97.1554 3.44806 -2.7204 0
M  V30 1035 H 97.7614 2.09409 -3.70173 0
M  V30 1036 N 96.0765 1.50051 0.48192 0
M  V30 1037 C 97.0395 1.67584 1.5636 0
M  V30 1038 C 98.0395 0.546894 1.51214 0
M  V30 1039 O 99.2295 0.813725 1.54026 0
M  V30 1040 C 96.3615 1.691 2.96003 0
M  V30 1041 H 97.5545 2.64078 1.42136 0
M  V30 1042 H 95.1075 1.39369 0.707533 0
M  V30 1043 H 95.8425 0.742589 3.15684 0
M  V30 1044 H 95.6275 2.51105 3.01146 0
M  V30 1045 H 97.1175 1.84656 3.74556 0
M  V30 1046 N 97.5546 -0.734337 1.39446 0
M  V30 1047 C 98.7826 -1.52358 1.39981 0
M  V30 1048 C 99.1976 -1.88799 -0.0054975 0
M  V30 1049 O 98.5546 -1.54146 -0.976998 0
M  V30 1050 C 98.6056 -2.81072 2.27333 0
M  V30 1051 O 98.3266 -2.46178 3.62392 0
M  V30 1052 C 99.8276 -3.75096 2.36259 0
M  V30 1053 H 97.0476 -0.470806 0.478103 0
M  V30 1054 H 99.5916 -0.907339 1.83269 0
M  V30 1055 H 97.7466 -3.39026 1.87457 0
M  V30 1056 H 98.1606 -3.28866 4.08592 0
M  V30 1057 H 99.6346 -4.62305 3.01626 0
M  V30 1058 H 100.112 -4.16892 1.38194 0
M  V30 1059 H 100.718 -3.23061 2.76608 0
M  V30 1060 N 99.0327 -1.24633 -0.964593 0
M  V30 1061 C 100.261 -1.11501 -1.74285 0
M  V30 1062 C 100.676 0.332165 -1.85855 0
M  V30 1063 O 100.033 1.22903 -1.34911 0
M  V30 1064 C 100.084 -1.75258 -3.16175 0
M  V30 1065 O 99.8047 -3.14318 -3.05182 0
M  V30 1066 C 101.306 -1.67776 -4.10324 0
M  V30 1067 H 98.5257 -0.389407 -0.546446 0
M  V30 1068 H 101.07 -1.64801 -1.21083 0
M  V30 1069 H 99.2247 -1.25954 -3.66353 0
M  V30 1070 H 99.6387 -3.4551 -3.94618 0
M  V30 1071 H 101.113 -2.17064 -5.0753 0
M  V30 1072 H 101.59 -0.639584 -4.34518 0
M  V30 1073 H 102.196 -2.16522 -3.66058 0
M  V30 1074 N 100.511 1.16574 -1.06058 0
M  V30 1075 C 101.443 2.2045 -0.627239 0
M  V30 1076 C 102.456 1.59752 0.313534 0
M  V30 1077 O 103.645 1.78192 0.104896 0
M  V30 1078 C 100.745 3.3875 0.100974 0
M  V30 1079 C 99.9178 4.29008 -0.852687 0
M  V30 1080 C 98.9768 5.25944 -0.164152 0
M  V30 1081 O 98.0028 5.63535 -0.801047 0
M  V30 1082 N 99.2048 5.70075 1.09518 0
M  V30 1083 H 101.97 2.58249 -1.52077 0
M  V30 1084 H 99.5308 1.3156 -0.943594 0
M  V30 1085 H 101.523 4.00638 0.57194 0
M  V30 1086 H 100.093 2.99476 0.89628 0
M  V30 1087 H 99.3128 3.64419 -1.50308 0
M  V30 1088 H 100.601 4.86195 -1.49972 0
M  V30 1089 H 99.9988 5.41624 1.6328 0
M  V30 1090 H 98.5558 6.34067 1.51006 0
M  V30 1091 N 101.989 0.842826 1.3317 0
M  V30 1092 C 103.266 0.362216 1.92217 0
M  V30 1093 C 103.646 -1.15289 1.76838 0
M  V30 1094 O 102.994 -1.96914 1.15919 0
M  V30 1095 C 103.204 0.813495 3.39387 0
M  V30 1096 C 104.552 0.823804 4.16532 0
M  V30 1097 O 105.576 0.757358 3.48055 0
M  V30 1098 O 104.435 0.915193 5.38782 0
M  V30 1099 H 101.529 0.103317 0.820521 0
M  V30 1100 H 104.075 0.928942 1.42017 0
M  V30 1101 H 102.847 1.85624 3.4447 0
M  V30 1102 H 102.47 0.223561 3.96971 0
M  V30 1103 N 103.467 -1.45747 0.599634 0
M  V30 1104 C 104.713 -2.02592 0.0918643 0
M  V30 1105 C 105.046 -1.46806 -1.27128 0
M  V30 1106 O 104.321 -0.639658 -1.83681 0
M  V30 1107 C 104.604 -3.60073 0.0443398 0
M  V30 1108 C 104.457 -4.26208 1.43759 0
M  V30 1109 C 105.776 -4.35309 -0.647608 0
M  V30 1110 H 102.895 -0.736175 0.034857 0
M  V30 1111 H 105.537 -1.73694 0.770081 0
M  V30 1112 H 103.687 -3.84823 -0.533224 0
M  V30 1113 H 105.359 -4.12668 2.06162 0
M  V30 1114 H 103.602 -3.84916 2.00056 0
M  V30 1115 H 104.273 -5.35069 1.35665 0
M  V30 1116 H 106.749 -4.15805 -0.156776 0
M  V30 1117 H 105.625 -5.45038 -0.649942 0
M  V30 1118 H 105.886 -4.07598 -1.71219 0
M  V30 1119 N 104.945 -0.338344 -1.53925 0
M  V30 1120 C 106.194 0.260732 -2.00008 0
M  V30 1121 C 106.507 1.52073 -1.23017 0
M  V30 1122 O 107.713 2.19672 -1.5955 0
M  V30 1123 C 106.169 0.51515 -3.56194 0
M  V30 1124 C 105.777 -0.728645 -4.42035 0
M  V30 1125 C 107.521 1.07337 -4.10706 0
M  V30 1126 C 105.428 -0.445315 -5.89721 0
M  V30 1127 H 104.358 0.101205 -0.747177 0
M  V30 1128 H 107.009 -0.452866 -1.77824 0
M  V30 1129 H 105.391 1.28932 -3.74423 0
M  V30 1130 H 106.565 -1.50352 -4.35581 0
M  V30 1131 H 104.88 -1.20813 -3.98489 0
M  V30 1132 H 107.477 1.30022 -5.18651 0
M  V30 1133 H 107.82 2.0273 -3.63602 0
M  V30 1134 H 108.353 0.360034 -3.96167 0
M  V30 1135 H 105.092 -1.36883 -6.41049 0
M  V30 1136 H 104.612 0.291569 -5.99091 0
M  V30 1137 H 106.291 -0.0606218 -6.46972 0
M  V30 1138 N 106.423 1.57458 -0.0668435 0
M  V30 1139 C 107.333 2.15937 0.916975 0
M  V30 1140 C 108.349 1.12123 1.33058 0
M  V30 1141 O 109.525 1.44366 1.40429 0
M  V30 1142 C 106.59 2.70547 2.16807 0
M  V30 1143 C 105.651 3.89215 1.81135 0
M  V30 1144 C 104.884 4.41211 3.0028 0
M  V30 1145 O 105.107 3.92225 4.14144 0
M  V30 1146 O 104.041 5.32605 2.80384 0
M  V30 1147 H 107.867 3.00354 0.449561 0
M  V30 1148 H 105.452 1.48584 0.155949 0
M  V30 1149 H 107.334 3.0557 2.90181 0
M  V30 1150 H 106.009 1.89192 2.62656 0
M  V30 1151 H 104.916 3.59054 1.05028 0
M  V30 1152 H 106.249 4.71848 1.40073 0
M  V30 1153 N 107.901 -0.206675 1.56239 0
M  V30 1154 C 109.129 -0.945345 1.8404 0
M  V30 1155 C 109.544 -1.77336 0.647885 0
M  V30 1156 O 108.901 -1.78425 -0.383511 0
M  V30 1157 C 108.952 -1.8509 3.10522 0
M  V30 1158 O 108.673 -1.05634 4.25174 0
M  V30 1159 C 110.174 -2.70222 3.51418 0
M  V30 1160 H 107.394 -0.276372 0.61144 0
M  V30 1161 H 109.938 -0.217417 2.03341 0
M  V30 1162 H 108.093 -2.53259 2.93153 0
M  V30 1163 H 108.507 -1.67238 4.97124 0
M  V30 1164 H 109.981 -3.29438 4.42916 0
M  V30 1165 H 110.458 -3.43358 2.73864 0
M  V30 1166 H 111.064 -2.07443 3.71278 0
M  V30 1167 N 109.379 -1.50304 -0.473955 0
M  V30 1168 C 110.309 -1.71886 -1.58042 0
M  V30 1169 C 111.29 -0.567799 -1.60344 0
M  V30 1170 O 112.475 -0.806623 -1.76656 0
M  V30 1171 C 109.605 -1.81036 -2.96384 0
M  V30 1172 C 108.559 -2.962 -3.08949 0
M  V30 1173 C 107.885 -2.9049 -4.48909 0
M  V30 1174 C 109.185 -4.36752 -2.86434 0
M  V30 1175 H 110.879 -2.64527 -1.40234 0
M  V30 1176 H 108.425 -1.27295 -0.673201 0
M  V30 1177 H 110.378 -1.94719 -3.73714 0
M  V30 1178 H 109.102 -0.850147 -3.15341 0
M  V30 1179 H 107.761 -2.82164 -2.3405 0
M  V30 1180 H 107.409 -1.92321 -4.64781 0
M  V30 1181 H 107.109 -3.67802 -4.58253 0
M  V30 1182 H 108.633 -3.06218 -5.28264 0
M  V30 1183 H 110.047 -4.5133 -3.53517 0
M  V30 1184 H 108.444 -5.15493 -3.07225 0
M  V30 1185 H 109.514 -4.49321 -1.82316 0
M  V30 1186 N 110.857 0.726932 -1.39834 0
M  V30 1187 C 111.82 1.82269 -1.38962 0
M  V30 1188 C 112.82 1.58248 -0.285334 0
M  V30 1189 O 114.01 1.65499 -0.54366 0
M  V30 1190 C 111.142 3.20186 -1.17019 0
M  V30 1191 H 112.335 1.84443 -2.36476 0
M  V30 1192 H 109.888 0.931416 -1.25516 0
M  V30 1193 H 110.623 3.23669 -0.202204 0
M  V30 1194 H 110.408 3.3902 -1.96998 0
M  V30 1195 H 111.898 4.00235 -1.1917 0
M  V30 1196 N 112.336 1.25143 0.95797 0
M  V30 1197 C 113.246 1.06968 2.08794 0
M  V30 1198 C 114.262 0.00773911 1.73998 0
M  V30 1199 O 115.438 0.207972 2.00323 0
M  V30 1200 C 112.503 0.68691 3.39827 0
M  V30 1201 C 111.564 1.82641 3.88511 0
M  V30 1202 C 110.797 1.46181 5.1329 0
M  V30 1203 O 111.02 0.355971 5.69288 0
M  V30 1204 O 109.954 2.29085 5.566 0
M  V30 1205 H 113.78 2.01723 2.27027 0
M  V30 1206 H 111.365 1.04051 1.07209 0
M  V30 1207 H 113.247 0.485417 4.18595 0
M  V30 1208 H 111.922 -0.231417 3.22872 0
M  V30 1209 H 110.829 2.08274 3.10762 0
M  V30 1210 H 112.162 2.72386 4.09959 0
M  V30 1211 N 113.814 -1.1601 1.06675 0
M  V30 1212 C 114.761 -2.20525 0.680967 0
M  V30 1213 C 115.731 -1.62904 -0.324283 0
M  V30 1214 O 116.916 -1.89615 -0.212294 0
M  V30 1215 C 114.056 -3.45013 0.0776551 0
M  V30 1216 C 113.169 -4.16863 1.13355 0
M  V30 1217 C 112.304 -5.2888 0.49597 0
M  V30 1218 C 111.343 -5.92537 1.53513 0
M  V30 1219 N 110.48 -6.96038 0.920631 0
M  V30 1220 H 115.32 -2.52876 1.57663 0
M  V30 1221 H 112.857 -1.24199 0.788223 0
M  V30 1222 H 114.815 -4.16193 -0.289704 0
M  V30 1223 H 113.445 -3.132 -0.781393 0
M  V30 1224 H 112.497 -3.44248 1.61857 0
M  V30 1225 H 113.809 -4.60294 1.92174 0
M  V30 1226 H 112.963 -6.06653 0.0758604 0
M  V30 1227 H 111.702 -4.86622 -0.324062 0
M  V30 1228 H 110.707 -5.13482 1.9651 0
M  V30 1229 H 111.932 -6.36873 2.35733 0
M  V30 1230 H 109.878 -6.55888 0.12138 0
M  V30 1231 H 109.795 -7.3786 1.64616 0
M  V30 1232 H 111.063 -7.77725 0.525795 0
M  V30 1233 N 115.292 -0.849877 -1.32721 0
M  V30 1234 C 116.539 -0.450923 -1.97416 0
M  V30 1235 C 116.867 0.992376 -1.67279 0
M  V30 1236 O 116.122 1.71048 -0.950845 0
M  V30 1237 C 116.421 -0.631272 -3.51781 0
M  V30 1238 C 116.087 -2.04432 -4.01894 0
M  V30 1239 C 114.749 -2.4308 -4.1529 0
M  V30 1240 C 117.101 -2.96679 -4.28522 0
M  V30 1241 C 114.429 -3.73257 -4.52654 0
M  V30 1242 C 116.781 -4.26349 -4.67343 0
M  V30 1243 C 115.445 -4.64939 -4.78945 0
M  V30 1244 H 114.715 -0.165004 -0.722395 0
M  V30 1245 H 117.362 -1.07901 -1.58207 0
M  V30 1246 H 115.667 0.0800767 -3.91718 0
M  V30 1247 H 117.364 -0.302709 -3.99856 0
M  V30 1248 H 113.954 -1.73419 -3.91949 0
M  V30 1249 H 118.138 -2.68054 -4.17685 0
M  V30 1250 H 113.394 -4.02946 -4.59831 0
M  V30 1251 H 117.568 -4.97895 -4.86902 0
M  V30 1252 H 115.195 -5.65855 -5.07654 0
M  V30 1253 N 116.77 1.45427 -0.607355 0
M  V30 1254 C 118.186 1.57283 -0.270985 0
M  V30 1255 C 118.386 1.59875 1.22647 0
M  V30 1256 O 117.442 1.52893 2.00948 0
M  V30 1257 C 118.755 2.85566 -0.941952 0
M  V30 1258 C 120.303 2.9924 -0.917849 0
M  V30 1259 C 120.778 4.30293 -1.56882 0
M  V30 1260 N 122.269 4.37051 -1.5343 0
M  V30 1261 C 123.004 5.37123 -2.00715 0
M  V30 1262 N 122.5 6.43734 -2.56084 0
M  V30 1263 N 124.293 5.28479 -1.91484 0
M  V30 1264 H 116.444 1.41988 -1.57966 0
M  V30 1265 H 118.707 0.67885 -0.661715 0
M  V30 1266 H 118.413 2.8955 -1.99633 0
M  V30 1267 H 118.287 3.74322 -0.465096 0
M  V30 1268 H 120.674 2.94822 0.127984 0
M  V30 1269 H 120.755 2.11895 -1.43297 0
M  V30 1270 H 120.399 4.35469 -2.61398 0
M  V30 1271 H 120.329 5.16454 -1.02873 0
M  V30 1272 H 122.82 3.60615 -1.12982 0
M  V30 1273 H 123.133 7.16341 -2.89958 0
M  V30 1274 H 121.478 6.44485 -2.60122 0
M  V30 1275 H 124.669 4.44098 -1.47967 0
M  V30 1276 H 124.842 6.0632 -2.28648 0
M  V30 1277 N 118.248 0.346503 1.53744 0
M  V30 1278 C 119.659 -0.136779 1.86198 0
M  V30 1279 C 120.01 -1.49749 1.26766 0
M  V30 1280 O 119.135 -2.08417 0.582355 0
M  V30 1281 C 119.73 -0.254966 3.37839 0
M  V30 1282 C 118.289 -0.682482 3.70161 0
M  V30 1283 C 117.436 0.181981 2.76702 0
M  V30 1284 H 120.387 0.565994 1.48264 0
M  V30 1285 H 120.408 -1.08195 3.64793 0
M  V30 1286 H 119.92 0.735526 3.81066 0
M  V30 1287 H 118.021 -1.68189 3.3248 0
M  V30 1288 H 118.134 -0.470326 4.76786 0
M  V30 1289 H 116.498 -0.34615 2.52337 0
M  V30 1290 H 117.281 1.16966 3.2276 0
M  V30 1291 N 119.726 -1.57421 0.075193 0
M  V30 1292 C 121.003 -1.85029 -0.634329 0
M  V30 1293 C 121.383 -0.968305 -1.87582 0
M  V30 1294 O 120.731 -0.0354749 -2.28472 0
M  V30 1295 C 120.941 -3.35286 -0.968742 0
M  V30 1296 C 122.289 -4.02875 -1.34077 0
M  V30 1297 O 123.313 -3.40051 -1.06037 0
M  V30 1298 O 122.172 -5.13691 -1.86506 0
M  V30 1299 H 119.266 -0.7645 -0.315387 0
M  V30 1300 H 121.812 -1.69366 0.106382 0
M  V30 1301 H 120.584 -3.91203 -0.0871376 0
M  V30 1302 H 120.207 -3.56223 -1.7661 0
M  V30 1303 N 121.204 0.198386 -1.56346 0
M  V30 1304 C 122.137 1.27381 -1.89339 0
M  V30 1305 C 123.115 1.44106 -0.753134 0
M  V30 1306 O 124.299 1.59549 -1.00381 0
M  V30 1307 C 121.426 2.6409 -2.12071 0
M  V30 1308 C 120.472 2.64253 -3.34772 0
M  V30 1309 S 121.305 2.16013 -4.89999 0
M  V30 1310 C 122.461 3.54553 -5.15794 0
M  V30 1311 H 122.694 0.992058 -2.8026 0
M  V30 1312 H 120.227 0.401726 -1.49082 0
M  V30 1313 H 122.185 3.42786 -2.2585 0
M  V30 1314 H 120.846 2.89478 -1.21906 0
M  V30 1315 H 120.039 3.64768 -3.47794 0
M  V30 1316 H 119.641 1.93637 -3.1997 0
M  V30 1317 H 121.933 4.50396 -5.06112 0
M  V30 1318 H 122.876 3.46428 -6.1757 0
M  V30 1319 H 123.284 3.49313 -4.43442 0
M  V30 1320 N 122.682 1.50554 0.465978 0
M  V30 1321 C 124.098 1.38093 0.800154 0
M  V30 1322 C 124.298 0.440988 1.96615 0
M  V30 1323 O 123.354 -0.114499 2.5224 0
M  V30 1324 C 124.667 2.79565 1.10742 0
M  V30 1325 C 126.215 2.88516 1.21357 0
M  V30 1326 C 126.69 4.30833 1.55393 0
M  V30 1327 N 128.181 4.33807 1.62375 0
M  V30 1328 C 128.916 5.40927 1.90225 0
M  V30 1329 N 128.412 6.58247 2.16062 0
M  V30 1330 N 130.205 5.28376 1.9177 0
M  V30 1331 H 122.356 2.10237 -0.302366 0
M  V30 1332 H 124.619 0.945203 -0.0727746 0
M  V30 1333 H 124.325 3.50208 0.323661 0
M  V30 1334 H 124.199 3.17125 2.04234 0
M  V30 1335 H 126.586 2.1809 1.98799 0
M  V30 1336 H 126.667 2.54492 0.258321 0
M  V30 1337 H 126.311 5.01799 0.784889 0
M  V30 1338 H 126.241 4.62347 2.52076 0
M  V30 1339 H 128.732 3.49212 1.44427 0
M  V30 1340 H 129.045 7.3569 2.36601 0
M  V30 1341 H 127.39 6.61413 2.13444 0
M  V30 1342 H 130.581 4.35715 1.71085 0
M  V30 1343 H 130.754 6.11944 2.13139 0
M  V30 1344 N 124.16 -0.719506 1.40217 0
M  V30 1345 C 125.093 -1.84298 1.34571 0
M  V30 1346 C 126.071 -1.61149 0.216741 0
M  V30 1347 O 127.255 -1.84212 0.399756 0
M  V30 1348 C 124.382 -3.20568 1.09335 0
M  V30 1349 C 123.428 -3.62551 2.24631 0
M  V30 1350 S 124.261 -3.7012 3.87004 0
M  V30 1351 C 125.417 -5.09154 3.64024 0
M  V30 1352 H 125.65 -1.88807 2.2965 0
M  V30 1353 H 123.183 -0.885901 1.26456 0
M  V30 1354 H 125.141 -3.99246 0.954602 0
M  V30 1355 H 123.802 -3.13696 0.159164 0
M  V30 1356 H 122.995 -4.61483 2.02606 0
M  V30 1357 H 122.597 -2.91119 2.34789 0
M  V30 1358 H 124.889 -5.95955 3.22248 0
M  V30 1359 H 125.832 -5.36213 4.62473 0
M  V30 1360 H 126.24 -4.79562 2.97793 0
M  V30 1361 N 125.638 -1.25649 -0.95132 0
M  V30 1362 C 126.568 -1.08808 -2.06599 0
M  V30 1363 C 127.549 0.00382547 -1.701 0
M  V30 1364 O 128.734 -0.166325 -1.93486 0
M  V30 1365 C 125.864 -0.709542 -3.39975 0
M  V30 1366 C 124.818 -1.75206 -3.90496 0
M  V30 1367 C 124.144 -1.22811 -5.20405 0
M  V30 1368 C 125.444 -3.15153 -4.16504 0
M  V30 1369 H 127.138 -2.02048 -2.20946 0
M  V30 1370 H 124.684 -0.972835 -1.06169 0
M  V30 1371 H 126.637 -0.578649 -4.17408 0
M  V30 1372 H 125.361 0.258556 -3.25575 0
M  V30 1373 H 124.02 -1.87145 -3.15234 0
M  V30 1374 H 123.668 -0.250145 -5.02378 0
M  V30 1375 H 123.368 -1.92492 -5.55176 0
M  V30 1376 H 124.892 -1.10968 -6.00432 0
M  V30 1377 H 126.306 -3.06349 -4.84586 0
M  V30 1378 H 124.703 -3.82333 -4.62538 0
M  V30 1379 H 125.773 -3.61966 -3.22658 0
M  V30 1380 N 127.117 1.15442 -1.07289 0
M  V30 1381 C 128.342 1.90638 -0.816828 0
M  V30 1382 C 128.767 1.77445 0.624083 0
M  V30 1383 O 128.125 1.10671 1.43602 0
M  V30 1384 C 128.173 3.39008 -1.22906 0
M  V30 1385 O 127.277 4.10701 -0.373975 0
M  V30 1386 H 126.618 0.593555 -0.297638 0
M  V30 1387 H 129.148 1.46198 -1.43134 0
M  V30 1388 H 129.158 3.89801 -1.20497 0
M  V30 1389 H 127.833 3.47929 -2.27856 0
M  V30 1390 H 126.41 3.70046 -0.460499 0
M  V30 1391 N 128.595 0.856903 1.32268 0
M  V30 1392 C 129.82 0.474569 2.01897 0
M  V30 1393 C 130.245 -0.921766 1.63967 0
M  V30 1394 O 129.603 -1.60589 0.84148 0
M  V30 1395 C 129.651 0.623799 3.55164 0
M  V30 1396 O 128.755 -0.342459 4.10976 0
M  V30 1397 H 128.096 0.190422 0.63611 0
M  V30 1398 H 130.626 1.15672 1.68764 0
M  V30 1399 H 130.636 0.512169 4.04773 0
M  V30 1400 H 129.311 1.64202 3.82113 0
M  V30 1401 H 127.888 -0.18688 3.72431 0
M  V30 1402 N 130.073 -1.45103 0.615059 0
M  V30 1403 C 131.484 -1.85654 0.197383 0
M  V30 1404 C 131.835 -1.51433 -1.24749 0
M  V30 1405 O 130.96 -0.944608 -1.94695 0
M  V30 1406 C 131.555 -3.36972 0.351448 0
M  V30 1407 C 130.114 -3.76398 -0.011593 0
M  V30 1408 C 129.261 -2.69024 0.672394 0
M  V30 1409 H 132.212 -1.35797 0.821263 0
M  V30 1410 H 132.233 -3.78239 -0.414227 0
M  V30 1411 H 131.745 -3.61847 1.40314 0
M  V30 1412 H 129.846 -3.5714 -1.06217 0
M  V30 1413 H 129.959 -4.77532 0.387265 0
M  V30 1414 H 128.323 -2.54465 0.109284 0
M  V30 1415 H 129.106 -2.96735 1.72636 0
M  V30 1416 N 131.551 -0.354651 -1.53558 0
M  V30 1417 C 132.498 0.496968 -2.25386 0
M  V30 1418 C 133.468 1.0865 -1.25636 0
M  V30 1419 O 134.653 1.12104 -1.54394 0
M  V30 1420 C 131.793 1.63637 -3.03837 0
M  V30 1421 C 130.906 1.07307 -4.18461 0
M  V30 1422 C 130.041 2.18068 -4.84376 0
M  V30 1423 C 129.08 1.59147 -5.91049 0
M  V30 1424 N 128.217 2.63695 -6.50699 0
M  V30 1425 H 133.057 -0.122075 -2.9775 0
M  V30 1426 H 130.594 -0.0720154 -1.46924 0
M  V30 1427 H 132.552 2.30734 -3.47589 0
M  V30 1428 H 131.182 2.22623 -2.33749 0
M  V30 1429 H 130.234 0.292708 -3.79272 0
M  V30 1430 H 131.546 0.602193 -4.95152 0
M  V30 1431 H 130.7 2.93007 -5.31255 0
M  V30 1432 H 129.439 2.68504 -4.07133 0
M  V30 1433 H 128.444 0.827175 -5.43542 0
M  V30 1434 H 129.669 1.09549 -6.70206 0
M  V30 1435 H 127.615 3.13365 -5.76315 0
M  V30 1436 H 127.532 2.21263 -7.22896 0
M  V30 1437 H 128.8 3.3837 -7.02229 0
M  V30 1438 N 133.029 1.57378 -0.0835403 0
M  V30 1439 C 134.259 1.97975 0.590713 0
M  V30 1440 C 134.667 0.961083 1.62972 0
M  V30 1441 O 134.01 -0.0590879 1.83605 0
M  V30 1442 C 134.072 3.34915 1.3066 0
M  V30 1443 C 133.736 4.55069 0.419698 0
M  V30 1444 C 134.733 5.18868 -0.32749 0
M  V30 1445 C 132.418 5.0114 0.341137 0
M  V30 1446 C 134.412 6.27098 -1.14134 0
M  V30 1447 C 132.099 6.0924 -0.476374 0
M  V30 1448 C 133.097 6.72083 -1.21627 0
M  V30 1449 O 132.785 7.781 -2.02028 0
M  V30 1450 H 132.517 0.655818 0.163947 0
M  V30 1451 H 135.071 2.04807 -0.156021 0
M  V30 1452 H 133.301 3.24733 2.09966 0
M  V30 1453 H 134.99 3.60037 1.87424 0
M  V30 1454 H 135.756 4.84211 -0.276459 0
M  V30 1455 H 131.635 4.51996 0.90668 0
M  V30 1456 H 135.179 6.7608 -1.71935 0
M  V30 1457 H 131.076 6.43329 -0.528927 0
M  V30 1458 H 131.844 7.95034 -1.94586 0
M  V30 1459 N 134.507 -0.190092 1.56449 0
M  V30 1460 C 135.732 -0.929864 1.85387 0
M  V30 1461 C 136.157 -1.7585 0.667704 0
M  V30 1462 O 135.515 -1.77198 -0.383459 0
M  V30 1463 C 135.563 -1.79773 3.12593 0
M  V30 1464 O 134.667 -2.89713 2.93496 0
M  V30 1465 H 134.008 -0.261574 0.610307 0
M  V30 1466 H 136.538 -0.193896 2.03679 0
M  V30 1467 H 136.548 -2.20139 3.43515 0
M  V30 1468 H 135.223 -1.18892 3.98544 0
M  V30 1469 H 133.8 -2.53065 2.73884 0
M  V30 1470 N 135.985 -1.50799 -0.457987 0
M  V30 1471 C 136.915 -1.73553 -1.5621 0
M  V30 1472 C 137.896 -0.584774 -1.59732 0
M  V30 1473 O 139.081 -0.825314 -1.7579 0
M  V30 1474 C 136.211 -1.84169 -2.94447 0
M  V30 1475 C 135.165 -2.99461 -3.0579 0
M  V30 1476 C 134.491 -2.95235 -4.45803 0
M  V30 1477 C 135.791 -4.39766 -2.81786 0
M  V30 1478 H 137.485 -2.66 -1.37421 0
M  V30 1479 H 135.031 -1.28002 -0.659662 0
M  V30 1480 H 136.984 -1.98672 -3.71628 0
M  V30 1481 H 135.708 -0.883545 -3.14422 0
M  V30 1482 H 134.367 -2.8463 -2.31044 0
M  V30 1483 H 134.015 -1.97239 -4.62715 0
M  V30 1484 H 133.715 -3.72642 -4.54326 0
M  V30 1485 H 135.239 -3.11803 -5.24987 0
M  V30 1486 H 136.653 -4.55054 -3.4871 0
M  V30 1487 H 135.05 -5.18722 -3.0174 0
M  V30 1488 H 136.12 -4.51229 -1.7754 0
M  V30 1489 N 137.463 0.71206 -1.40597 0
M  V30 1490 C 138.693 1.49894 -1.42181 0
M  V30 1491 C 139.101 1.89189 -0.0208078 0
M  V30 1492 O 138.444 1.56223 0.966436 0
M  V30 1493 C 138.506 2.80215 -2.25211 0
M  V30 1494 C 138.17 2.63221 -3.73582 0
M  V30 1495 C 139.167 2.30249 -4.66135 0
M  V30 1496 C 136.852 2.79376 -4.17438 0
M  V30 1497 C 138.846 2.13645 -6.00529 0
M  V30 1498 C 136.533 2.6239 -5.51901 0
M  V30 1499 C 137.531 2.29573 -6.43262 0
M  V30 1500 O 137.219 2.12719 -7.75246 0
M  V30 1501 H 136.951 0.469031 -0.486812 0
M  V30 1502 H 139.505 0.88564 -1.85326 0
M  V30 1503 H 137.735 3.4389 -1.76852 0
M  V30 1504 H 139.424 3.41947 -2.18694 0
M  V30 1505 H 140.19 2.17398 -4.33547 0
M  V30 1506 H 136.069 3.03906 -3.46644 0
M  V30 1507 H 139.613 1.87953 -6.71803 0
M  V30 1508 H 135.51 2.74826 -5.84073 0
M  V30 1509 H 136.278 2.27611 -7.86216 0
M  V30 1510 N 138.941 1.26152 0.944643 0
M  V30 1511 C 139.851 1.09176 2.07648 0
M  V30 1512 C 140.867 0.0261935 1.7398 0
M  V30 1513 O 142.043 0.229208 2.00091 0
M  V30 1514 C 139.108 0.722915 3.39079 0
M  V30 1515 C 138.169 1.86752 3.86552 0
M  V30 1516 C 137.402 1.51617 5.11711 0
M  V30 1517 O 137.625 0.416331 5.68879 0
M  V30 1518 O 136.559 2.34975 5.54139 0
M  V30 1519 H 140.385 2.0412 2.24875 0
M  V30 1520 H 137.97 1.05182 1.061 0
M  V30 1521 H 139.852 0.529787 4.18056 0
M  V30 1522 H 138.527 -0.197159 3.23099 0
M  V30 1523 H 137.434 2.11558 3.08535 0
M  V30 1524 H 138.767 2.76719 4.07047 0
M  V30 1525 N 140.419 -1.14872 1.07899 0
M  V30 1526 C 141.665 -1.86064 0.806725 0
M  V30 1527 C 141.998 -1.82434 -0.665706 0
M  V30 1528 O 141.273 -1.25138 -1.48899 0
M  V30 1529 C 141.556 -3.34929 1.32267 0
M  V30 1530 C 141.409 -3.47161 2.86006 0
M  V30 1531 C 142.728 -4.29863 0.943717 0
M  V30 1532 H 139.847 -0.675591 0.294526 0
M  V30 1533 H 142.489 -1.34925 1.33773 0
M  V30 1534 H 140.639 -3.78611 0.870974 0
M  V30 1535 H 142.311 -3.12302 3.39507 0
M  V30 1536 H 140.554 -2.88539 3.23925 0
M  V30 1537 H 141.225 -4.51777 3.17177 0
M  V30 1538 H 143.701 -3.9417 1.33302 0
M  V30 1539 H 142.577 -5.32494 1.33198 0
M  V30 1540 H 142.838 -4.41846 -0.149796 0
M  V30 1541 N 141.898 -0.863906 -1.31812 0
M  V30 1542 C 142.848 -0.286898 -2.26188 0
M  V30 1543 C 143.832 0.572577 -1.50367 0
M  V30 1544 O 145.024 0.420447 -1.71934 0
M  V30 1545 C 142.153 0.515849 -3.39402 0
M  V30 1546 C 141.239 -0.356531 -4.22599 0
M  V30 1547 N 141.63 -1.44716 -4.84656 0
M  V30 1548 C 139.928 -0.147898 -4.45755 0
M  V30 1549 C 140.629 -1.98462 -5.46798 0
M  V30 1550 N 139.605 -1.28247 -5.28255 0
M  V30 1551 H 143.407 -1.12055 -2.717 0
M  V30 1552 H 140.921 -0.711012 -1.46008 0
M  V30 1553 H 142.918 0.945701 -4.06032 0
M  V30 1554 H 141.578 1.34718 -2.95434 0
M  V30 1555 H 142.589 -1.83008 -4.84488 0
M  V30 1556 H 139.266 0.647973 -4.12441 0
M  V30 1557 H 140.656 -2.89932 -6.06126 0
M  V30 1558 N 143.376 1.44774 -0.622745 0
M  V30 1559 C 144.622 2.0242 -0.124083 0
M  V30 1560 C 144.955 1.4881 1.24777 0
M  V30 1561 O 144.23 0.668799 1.8264 0
M  V30 1562 C 144.513 3.59957 -0.101619 0
M  V30 1563 C 144.366 4.23867 -1.50521 0
M  V30 1564 C 145.685 4.36284 0.578272 0
M  V30 1565 H 142.804 0.735528 -0.0465645 0
M  V30 1566 H 145.446 1.72447 -0.797617 0
M  V30 1567 H 143.596 3.85623 0.471934 0
M  V30 1568 H 145.268 4.09336 -2.12701 0
M  V30 1569 H 143.511 3.81684 -2.06154 0
M  V30 1570 H 144.182 5.32843 -1.4416 0
M  V30 1571 H 146.658 4.16001 0.0906057 0
M  V30 1572 H 145.534 5.46004 0.563149 0
M  V30 1573 H 145.795 4.10271 1.64713 0
M  V30 1574 N 144.854 0.36279 1.53368 0
M  V30 1575 C 146.079 -0.231226 2.06107 0
M  V30 1576 C 146.504 -1.419 1.23474 0
M  V30 1577 O 145.862 -1.79524 0.253128 0
M  V30 1578 C 145.91 -0.605523 3.5548 0
M  V30 1579 O 145.014 -1.70312 3.7559 0
M  V30 1580 H 144.355 -0.034327 0.663112 0
M  V30 1581 H 146.885 0.522584 1.97814 0
M  V30 1582 H 146.895 -0.877314 3.98456 0
M  V30 1583 H 145.57 0.263004 4.15068 0
M  V30 1584 H 144.147 -1.4271 3.44512 0
M  V30 1585 N 146.332 -1.57332 0.0918853 0
M  V30 1586 C 147.58 -1.93853 -0.571446 0
M  V30 1587 C 147.901 -0.974212 -1.6892 0
M  V30 1588 O 147.171 -0.0257254 -1.95883 0
M  V30 1589 H 145.751 -0.715666 -0.214082 0
M  V30 1590 H 148.413 -1.94287 0.154464 0
M  V30 1591 H 147.509 -2.96191 -0.983729 0
M  V30 1592 N 147.81 0.181792 -1.56548 0
M  V30 1593 C 148.72 1.24538 -1.98815 0
M  V30 1594 C 149.736 1.49045 -0.897861 0
M  V30 1595 O 150.912 1.61399 -1.20467 0
M  V30 1596 C 147.977 2.56683 -2.33055 0
M  V30 1597 C 147.038 2.40131 -3.55859 0
M  V30 1598 C 146.271 3.65975 -3.88456 0
M  V30 1599 O 146.494 4.70711 -3.22161 0
M  V30 1600 O 145.428 3.6071 -4.81842 0
M  V30 1601 H 149.254 0.916647 -2.89536 0
M  V30 1602 H 146.839 0.387842 -1.44278 0
M  V30 1603 H 148.721 3.34655 -2.56094 0
M  V30 1604 H 147.396 2.89157 -1.45498 0
M  V30 1605 H 146.303 1.60226 -3.38051 0
M  V30 1606 H 147.636 2.12585 -4.43924 0
M  V30 1607 N 149.288 1.51039 0.449983 0
M  V30 1608 C 150.704 1.38934 0.785462 0
M  V30 1609 C 150.904 0.461817 1.96136 0
M  V30 1610 O 149.96 -0.0877389 2.52348 0
M  V30 1611 C 151.273 2.80724 1.0777 0
M  V30 1612 C 152.821 2.89787 1.1829 0
M  V30 1613 C 153.296 4.32457 1.50815 0
M  V30 1614 N 154.787 4.35505 1.57764 0
M  V30 1615 C 155.522 5.42914 1.84477 0
M  V30 1616 N 155.018 6.60502 2.09068 0
M  V30 1617 N 156.811 5.3038 1.86155 0
M  V30 1618 H 148.962 2.09904 -0.324647 0
M  V30 1619 H 151.225 0.944378 -0.0827957 0
M  V30 1620 H 150.931 3.50531 0.286498 0
M  V30 1621 H 150.805 3.19273 2.00859 0
M  V30 1622 H 153.192 2.20186 1.96474 0
M  V30 1623 H 153.273 2.54752 0.231314 0
M  V30 1624 H 152.917 5.02603 0.731622 0
M  V30 1625 H 152.847 4.64995 2.47158 0
M  V30 1626 H 155.338 3.50724 1.40715 0
M  V30 1627 H 155.651 7.38158 2.28785 0
M  V30 1628 H 153.996 6.63639 2.06416 0
M  V30 1629 H 157.187 4.37505 1.66454 0
M  V30 1630 H 157.36 6.1417 2.06637 0
M  V30 1631 N 150.766 -0.704594 1.40972 0
M  V30 1632 C 152.182 -1.01406 1.23244 0
M  V30 1633 C 152.382 -2.01169 0.115399 0
M  V30 1634 O 151.438 -2.47021 -0.523147 0
M  V30 1635 C 152.751 -1.54728 2.57836 0
M  V30 1636 C 154.299 -1.66658 2.64942 0
M  V30 1637 C 154.774 -2.23383 3.9983 0
M  V30 1638 N 156.265 -2.30756 4.01629 0
M  V30 1639 C 157 -2.75655 5.02794 0
M  V30 1640 N 156.496 -3.20225 6.14352 0
M  V30 1641 N 158.289 -2.75138 4.90159 0
M  V30 1642 H 150.44 -0.0435285 2.12355 0
M  V30 1643 H 152.703 -0.0818951 0.944456 0
M  V30 1644 H 152.409 -0.888832 3.40283 0
M  V30 1645 H 152.283 -2.53084 2.79693 0
M  V30 1646 H 154.67 -2.31617 1.8286 0
M  V30 1647 H 154.751 -0.668717 2.46904 0
M  V30 1648 H 154.395 -1.59043 4.82357 0
M  V30 1649 H 154.325 -3.23904 4.15203 0
M  V30 1650 H 156.816 -1.99291 3.21079 0
M  V30 1651 H 157.129 -3.53084 6.87424 0
M  V30 1652 H 155.474 -3.18156 6.17901 0
M  V30 1653 H 158.665 -2.39661 4.02095 0
M  V30 1654 H 158.838 -3.09812 5.6914 0
M  V30 1655 N 152.244 -1.26651 -0.937939 0
M  V30 1656 C 153.174 -1.10993 -2.05433 0
M  V30 1657 C 154.155 -0.0142161 -1.70094 0
M  V30 1658 O 155.34 -0.186837 -1.93299 0
M  V30 1659 C 152.47 -0.745561 -3.39203 0
M  V30 1660 C 151.424 -1.79337 -3.88616 0
M  V30 1661 C 150.75 -1.28324 -5.19073 0
M  V30 1662 C 152.05 -3.19553 -4.13138 0
M  V30 1663 H 153.744 -2.0438 -2.1879 0
M  V30 1664 H 151.29 -0.984041 -1.05131 0
M  V30 1665 H 153.243 -0.622888 -4.16771 0
M  V30 1666 H 151.967 0.22401 -3.25831 0
M  V30 1667 H 150.626 -1.90477 -3.13231 0
M  V30 1668 H 150.274 -0.303414 -5.02084 0
M  V30 1669 H 149.974 -1.98369 -5.53103 0
M  V30 1670 H 151.498 -1.1733 -5.99221 0
M  V30 1671 H 152.912 -3.11471 -4.81309 0
M  V30 1672 H 151.309 -3.87218 -4.58457 0
M  V30 1673 H 152.379 -3.65368 -3.18801 0
M  V30 1674 N 153.722 1.14298 -1.08507 0
M  V30 1675 C 154.999 1.81544 -0.728088 0
M  V30 1676 C 155.379 1.95838 0.78808 0
M  V30 1677 O 154.727 1.51904 1.70697 0
M  V30 1678 C 154.937 3.17169 -1.45619 0
M  V30 1679 C 156.285 3.9265 -1.61591 0
M  V30 1680 O 157.309 3.26762 -1.41793 0
M  V30 1681 O 156.168 5.10807 -1.94263 0
M  V30 1682 H 153.262 0.78491 -0.260471 0
M  V30 1683 H 155.808 1.21307 -1.18671 0
M  V30 1684 H 154.58 3.01934 -2.489 0
M  V30 1685 H 154.203 3.851 -0.989124 0
M  V30 1686 N 155.201 0.870884 1.31352 0
M  V30 1687 C 156.45 0.478408 1.95944 0
M  V30 1688 C 156.763 -0.974493 1.69597 0
M  V30 1689 O 157.969 -1.47316 2.28058 0
M  V30 1690 C 156.425 0.804609 3.50791 0
M  V30 1691 C 156.033 2.27433 3.85977 0
M  V30 1692 C 157.777 0.480648 4.2177 0
M  V30 1693 C 155.684 2.5429 5.33939 0
M  V30 1694 H 154.614 0.175175 0.733369 0
M  V30 1695 H 157.265 1.06391 1.4951 0
M  V30 1696 H 155.647 0.148347 3.95722 0
M  V30 1697 H 156.821 2.97373 3.52002 0
M  V30 1698 H 155.136 2.56442 3.28065 0
M  V30 1699 H 157.733 0.658519 5.30629 0
M  V30 1700 H 158.076 -0.578979 4.12254 0
M  V30 1701 H 158.609 1.09349 3.82476 0
M  V30 1702 H 155.348 3.58939 5.48491 0
M  V30 1703 H 154.868 1.88945 5.69263 0
M  V30 1704 H 156.547 2.39066 6.01212 0
M  V30 1705 N 156.679 -1.44442 0.630414 0
M  V30 1706 C 157.956 -1.9549 0.0655657 0
M  V30 1707 C 158.336 -1.5724 -1.40851 0
M  V30 1708 O 157.684 -0.846116 -2.12257 0
M  V30 1709 C 157.894 -3.47812 0.287691 0
M  V30 1710 C 159.242 -4.24216 0.180513 0
M  V30 1711 O 160.266 -3.55526 0.219019 0
M  V30 1712 O 159.125 -5.46434 0.0848493 0
M  V30 1713 H 156.219 -0.826688 -0.0227177 0
M  V30 1714 H 158.765 -1.54496 0.702068 0
M  V30 1715 H 157.537 -3.687 1.31056 0
M  V30 1716 H 157.16 -3.95751 -0.382984 0
M  V30 1717 N 158.157 -0.370918 -1.53173 0
M  V30 1718 C 159.067 0.480823 -2.2962 0
M  V30 1719 C 160.083 1.08789 -1.35798 0
M  V30 1720 O 161.259 1.09768 -1.68858 0
M  V30 1721 C 158.324 1.60227 -3.07454 0
M  V30 1722 C 157.385 1.0222 -4.16953 0
M  V30 1723 C 156.618 2.0902 -4.91066 0
M  V30 1724 O 156.841 3.30222 -4.65091 0
M  V30 1725 O 155.775 1.71778 -5.76867 0
M  V30 1726 H 159.601 -0.141421 -3.03371 0
M  V30 1727 H 157.186 -0.135146 -1.48787 0
M  V30 1728 H 159.068 2.25417 -3.56041 0
M  V30 1729 H 157.743 2.20982 -2.36535 0
M  V30 1730 H 156.65 0.334064 -3.72605 0
M  V30 1731 H 157.983 0.459131 -4.90054 0
M  V30 1732 N 159.635 1.57281 -0.100228 0
M  V30 1733 C 160.582 2.14305 0.856858 0
M  V30 1734 C 161.552 1.06296 1.27634 0
M  V30 1735 O 162.737 1.34109 1.35718 0
M  V30 1736 C 159.877 2.73184 2.10866 0
M  V30 1737 C 158.99 3.95442 1.73925 0
M  V30 1738 C 158.125 4.42468 2.93931 0
M  V30 1739 C 157.164 5.57303 2.5314 0
M  V30 1740 N 156.301 5.99158 3.65997 0
M  V30 1741 H 161.141 2.95772 0.363726 0
M  V30 1742 H 158.678 1.46139 0.167858 0
M  V30 1743 H 160.636 3.05442 2.84185 0
M  V30 1744 H 159.266 1.94437 2.57671 0
M  V30 1745 H 158.318 3.69464 0.905554 0
M  V30 1746 H 159.63 4.78769 1.39935 0
M  V30 1747 H 158.784 4.76537 3.75496 0
M  V30 1748 H 157.523 3.58052 3.31134 0
M  V30 1749 H 156.528 5.22857 1.70003 0
M  V30 1750 H 157.753 6.43471 2.17075 0
M  V30 1751 H 155.699 5.17687 4.02909 0
M  V30 1752 H 155.616 6.77295 3.35869 0
M  V30 1753 H 156.884 6.3786 4.48057 0
M  V30 1754 N 161.113 -0.173488 1.56642 0
M  V30 1755 C 162.524 -0.736155 1.71574 0
M  V30 1756 C 162.875 -1.82888 0.710389 0
M  V30 1757 O 162 -2.16017 -0.1287 0
M  V30 1758 C 162.595 -1.34211 3.11083 0
M  V30 1759 C 161.154 -1.85162 3.27707 0
M  V30 1760 C 160.301 -0.729765 2.67525 0
M  V30 1761 H 163.252 0.0518786 1.58615 0
M  V30 1762 H 163.273 -2.21178 3.09613 0
M  V30 1763 H 162.785 -0.546579 3.84232 0
M  V30 1764 H 160.886 -2.67366 2.59512 0
M  V30 1765 H 160.999 -1.99855 4.35425 0
M  V30 1766 H 159.363 -1.14965 2.27278 0
M  V30 1767 H 160.146 0.0538806 3.43258 0
M  V30 1768 N 162.591 -1.51276 -0.441967 0
M  V30 1769 C 163.521 -1.752 -1.54361 0
M  V30 1770 C 164.502 -0.601682 -1.59103 0
M  V30 1771 O 165.687 -0.843913 -1.74905 0
M  V30 1772 C 162.817 -1.87282 -2.92477 0
M  V30 1773 C 161.771 -3.02687 -3.02596 0
M  V30 1774 C 161.097 -2.99947 -4.42647 0
M  V30 1775 C 162.397 -4.4273 -2.77106 0
M  V30 1776 H 164.091 -2.67442 -1.34592 0
M  V30 1777 H 161.637 -1.28694 -0.646048 0
M  V30 1778 H 163.59 -2.02602 -3.695 0
M  V30 1779 H 162.314 -0.916844 -3.13467 0
M  V30 1780 H 160.973 -2.87065 -2.28012 0
M  V30 1781 H 160.621 -2.02136 -4.60597 0
M  V30 1782 H 160.321 -3.77439 -4.50348 0
M  V30 1783 H 161.845 -3.17354 -5.2165 0
M  V30 1784 H 163.259 -4.58727 -3.43864 0
M  V30 1785 H 161.656 -5.21893 -2.96222 0
M  V30 1786 H 162.726 -4.53087 -1.72744 0
M  V30 1787 N 164.069 0.697108 -1.41344 0
M  V30 1788 C 165.315 1.4593 -1.40827 0
M  V30 1789 C 165.648 1.94193 -0.0167098 0
M  V30 1790 O 164.923 1.69425 0.955263 0
M  V30 1791 C 165.206 2.67229 -2.41373 0
M  V30 1792 C 165.059 2.24741 -3.8963 0
M  V30 1793 C 166.378 3.69423 -2.39196 0
M  V30 1794 H 163.497 0.529303 -0.512842 0
M  V30 1795 H 166.139 0.794112 -1.72609 0
M  V30 1796 H 164.289 3.23982 -2.14401 0
M  V30 1797 H 165.961 1.73327 -4.27499 0
M  V30 1798 H 164.204 1.56542 -4.0457 0
M  V30 1799 H 164.875 3.1177 -4.55525 0
M  V30 1800 H 167.351 3.2234 -2.63128 0
M  V30 1801 H 166.227 4.51907 -3.11563 0
M  V30 1802 H 166.488 4.19012 -1.41001 0
M  V30 1803 N 165.547 1.27147 0.931209 0
M  V30 1804 C 166.793 1.13446 1.68101 0
M  V30 1805 C 167.126 -0.319628 1.91552 0
M  V30 1806 O 166.401 -1.23407 1.50336 0
M  V30 1807 C 166.684 1.91482 3.0497 0
M  V30 1808 C 166.537 3.44855 2.88782 0
M  V30 1809 C 167.856 1.71651 4.05246 0
M  V30 1810 H 164.975 0.413498 0.610072 0
M  V30 1811 H 167.617 1.56261 1.08086 0
M  V30 1812 H 165.767 1.55095 3.56199 0
M  V30 1813 H 167.439 3.9105 2.44698 0
M  V30 1814 H 165.682 3.71373 2.24198 0
M  V30 1815 H 166.353 3.94694 3.85902 0
M  V30 1816 H 168.829 2.0337 3.63015 0
M  V30 1817 H 167.705 2.28651 4.99009 0
M  V30 1818 H 167.966 0.663555 4.37092 0
M  V30 1819 N 167.025 -1.13721 1.09112 0
M  V30 1820 C 167.957 -2.1871 0.685467 0
M  V30 1821 C 168.97 -1.60527 -0.271068 0
M  V30 1822 O 170.159 -1.78407 -0.0576148 0
M  V30 1823 C 167.259 -3.38898 -0.0111255 0
M  V30 1824 C 166.432 -4.26597 0.966131 0
M  V30 1825 C 165.491 -5.25324 0.303539 0
M  V30 1826 O 164.517 -5.61213 0.950177 0
M  V30 1827 N 165.719 -5.72779 -0.943651 0
M  V30 1828 H 168.484 -2.54126 1.58871 0
M  V30 1829 H 166.045 -1.29012 0.978143 0
M  V30 1830 H 168.037 -4.02014 -0.465517 0
M  V30 1831 H 166.607 -3.01747 -0.816565 0
M  V30 1832 H 165.827 -3.60306 1.59917 0
M  V30 1833 H 167.115 -4.82048 1.6281 0
M  V30 1834 H 166.513 -5.45762 -1.48862 0
M  V30 1835 H 165.07 -6.37847 -1.34142 0
M  V30 1836 N 168.503 -0.877838 -1.30888 0
M  V30 1837 C 169.433 -0.35534 -2.3078 0
M  V30 1838 C 170.414 0.557994 -1.60687 0
M  V30 1839 O 171.599 0.473355 -1.88343 0
M  V30 1840 C 168.729 0.437221 -3.44537 0
M  V30 1841 C 167.683 -0.383715 -4.26276 0
M  V30 1842 C 167.009 0.535014 -5.32017 0
M  V30 1843 C 168.309 -1.62201 -4.96476 0
M  V30 1844 H 170.003 -1.19007 -2.74732 0
M  V30 1845 H 167.549 -0.573698 -1.32078 0
M  V30 1846 H 169.502 0.813334 -4.13477 0
M  V30 1847 H 168.226 1.30553 -2.99372 0
M  V30 1848 H 166.885 -0.741874 -3.59015 0
M  V30 1849 H 166.533 1.40083 -4.831 0
M  V30 1850 H 166.233 -0.0104211 -5.87599 0
M  V30 1851 H 167.757 0.907799 -6.03814 0
M  V30 1852 H 169.171 -1.31689 -5.5797 0
M  V30 1853 H 167.568 -2.10711 -5.61891 0
M  V30 1854 H 168.638 -2.37044 -4.23011 0
M  V30 1855 N 169.982 1.44106 -0.638065 0
M  V30 1856 C 170.93 2.3248 0.0748149 0
M  V30 1857 C 171.924 1.47746 0.828702 0
M  V30 1858 O 173.13 1.64049 0.740816 0
M  V30 1859 H 169.505 0.750771 0.0429686 0
M  V30 1860 H 171.476 2.90348 -0.688504 0
M  V30 1861 C 170.225 3.31843 1.03805 0
M  V30 1862 H 169.548 3.97059 0.467375 0
M  V30 1863 H 170.988 3.96345 1.50622 0
M  V30 1864 C 169.447 2.61291 2.1267 0
M  V30 1865 O 169.977 2.41702 3.20847 0
M  V30 1866 N 168.183 2.20915 1.88798 0
M  V30 1867 H 167.73 2.37047 1.00829 0
M  V30 1868 H 167.688 1.74038 2.61836 0
M  V30 1869 N 171.46 0.379036 1.52974 0
M  V30 1870 C 172.706 -0.199244 2.02422 0
M  V30 1871 C 173.061 -1.4532 1.26095 0
M  V30 1872 O 172.354 -1.88377 0.34996 0
M  V30 1873 C 172.548 -0.53096 3.53434 0
M  V30 1874 C 172.377 0.689298 4.44386 0
M  V30 1875 C 171.147 1.20546 4.9071 0
M  V30 1876 C 173.345 1.55856 4.90116 0
M  V30 1877 N 171.327 2.38434 5.65705 0
M  V30 1878 C 172.698 2.58396 5.63588 0
M  V30 1879 C 174.753 1.57986 4.7217 0
M  V30 1880 C 173.456 3.62939 6.21022 0
M  V30 1881 C 175.482 2.6143 5.30479 0
M  V30 1882 C 174.844 3.62693 6.03849 0
M  V30 1883 H 170.943 -0.0352671 0.781204 0
M  V30 1884 H 173.527 0.526614 1.87443 0
M  V30 1885 H 171.698 -1.22588 3.68547 0
M  V30 1886 H 173.43 -1.0955 3.89591 0
M  V30 1887 H 170.185 0.768022 4.67331 0
M  V30 1888 H 170.609 2.98055 6.07859 0
M  V30 1889 H 175.251 0.810475 4.14959 0
M  V30 1890 H 172.969 4.40751 6.77321 0
M  V30 1891 H 176.555 2.63949 5.18481 0
M  V30 1892 H 175.435 4.41424 6.48163 0
M  V30 1893 N 172.938 -1.57226 0.108567 0
M  V30 1894 C 173.886 -2.16002 -0.862885 0
M  V30 1895 C 174.88 -1.10644 -1.28274 0
M  V30 1896 O 176.086 -1.28966 -1.2557 0
M  V30 1897 H 172.461 -0.691148 -0.296342 0
M  V30 1898 H 174.432 -2.96427 -0.342575 0
M  V30 1899 C 173.181 -2.76576 -2.10716 0
M  V30 1900 H 172.504 -3.5734 -1.793 0
M  V30 1901 H 173.944 -3.21253 -2.76717 0
M  V30 1902 C 172.403 -1.73137 -2.89007 0
M  V30 1903 O 172.933 -1.17842 -3.84026 0
M  V30 1904 N 171.139 -1.43317 -2.52801 0
M  V30 1905 H 170.686 -1.88473 -1.75601 0
M  V30 1906 H 170.644 -0.743485 -3.05483 0
M  V30 1907 N 174.416 0.165178 -1.56732 0
M  V30 1908 C 175.363 1.2044 -1.96883 0
M  V30 1909 C 176.333 1.43664 -0.833657 0
M  V30 1910 O 177.518 1.56302 -1.09427 0
M  V30 1911 C 174.658 2.53727 -2.33916 0
M  V30 1912 C 173.771 2.3783 -3.6064 0
M  V30 1913 C 172.906 3.64026 -3.86857 0
M  V30 1914 C 171.945 3.43088 -5.06909 0
M  V30 1915 N 171.082 4.61369 -5.29229 0
M  V30 1916 H 175.922 0.854996 -2.85471 0
M  V30 1917 H 173.459 0.41076 -1.41249 0
M  V30 1918 H 175.417 3.31419 -2.53411 0
M  V30 1919 H 174.047 2.8665 -1.48431 0
M  V30 1920 H 173.099 1.51282 -3.49024 0
M  V30 1921 H 174.411 2.18308 -4.4849 0
M  V30 1922 H 173.565 4.50152 -4.06753 0
M  V30 1923 H 172.304 3.86533 -2.97394 0
M  V30 1924 H 171.309 2.55349 -4.86906 0
M  V30 1925 H 172.534 3.21997 -5.97909 0
M  V30 1926 H 170.48 4.84084 -4.42718 0
M  V30 1927 H 170.397 4.44783 -6.11313 0
M  V30 1928 H 171.665 5.48761 -5.53608 0
M  V30 1929 N 175.894 1.51508 0.433938 0
M  V30 1930 C 177.171 1.54888 1.19453 0
M  V30 1931 C 177.551 0.315154 2.08734 0
M  V30 1932 O 176.899 -0.699558 2.17528 0
M  V30 1933 C 177.109 2.86467 1.99342 0
M  V30 1934 C 178.457 3.38545 2.56267 0
M  V30 1935 O 179.481 2.88041 2.0955 0
M  V30 1936 O 178.34 4.26675 3.41483 0
M  V30 1937 H 175.434 0.622863 0.544032 0
M  V30 1938 H 177.98 1.63823 0.442732 0
M  V30 1939 H 176.752 3.67718 1.33788 0
M  V30 1940 H 176.375 2.8071 2.8158 0
M  V30 1941 N 177.372 -0.689602 1.41712 0
M  V30 1942 C 178.649 -1.44457 1.31877 0
M  V30 1943 C 179.029 -2.11039 -0.0508537 0
M  V30 1944 O 178.377 -2.02138 -1.06547 0
M  V30 1945 C 178.587 -2.45913 2.47645 0
M  V30 1946 C 179.935 -3.10991 2.89084 0
M  V30 1947 O 180.959 -2.56238 2.47428 0
M  V30 1948 O 179.818 -4.10174 3.61137 0
M  V30 1949 H 176.912 -0.64362 0.519309 0
M  V30 1950 H 179.458 -0.719576 1.53689 0
M  V30 1951 H 178.23 -1.95409 3.39015 0
M  V30 1952 H 177.853 -3.25913 2.27742 0
M  V30 1953 N 178.85 -1.27639 -0.924453 0
M  V30 1954 C 180.266 -1.05113 -1.20097 0
M  V30 1955 C 180.466 0.213262 -2.00368 0
M  V30 1956 O 179.522 0.91787 -2.35226 0
M  V30 1957 C 180.835 -2.29244 -1.94596 0
M  V30 1958 C 182.383 -2.34315 -2.07522 0
M  V30 1959 C 182.858 -3.58183 -2.85427 0
M  V30 1960 N 184.349 -3.5876 -2.92994 0
M  V30 1961 C 185.084 -4.51277 -3.53746 0
M  V30 1962 N 184.58 -5.54102 -4.15863 0
M  V30 1963 N 186.373 -4.38894 -3.51181 0
M  V30 1964 H 178.524 -2.08821 -0.388264 0
M  V30 1965 H 180.787 -0.918568 -0.234385 0
M  V30 1966 H 180.493 -3.21301 -1.43034 0
M  V30 1967 H 180.367 -2.34816 -2.95197 0
M  V30 1968 H 182.754 -1.42762 -2.58269 0
M  V30 1969 H 182.835 -2.32744 -1.06131 0
M  V30 1970 H 182.479 -4.50074 -2.35363 0
M  V30 1971 H 182.409 -3.57006 -3.8711 0
M  V30 1972 H 184.9 -2.84398 -2.4885 0
M  V30 1973 H 185.213 -6.20859 -4.60168 0
M  V30 1974 H 183.558 -5.57941 -4.144 0
M  V30 1975 H 186.749 -3.57772 -3.01856 0
M  V30 1976 H 186.922 -5.11186 -3.98237 0
M  V30 1977 N 180.328 1.1314 -1.09713 0
M  V30 1978 C 181.238 2.22242 -0.751367 0
M  V30 1979 C 182.254 1.72224 0.247938 0
M  V30 1980 O 183.43 2.01205 0.0885463 0
M  V30 1981 C 180.495 3.46231 -0.180274 0
M  V30 1982 C 179.556 4.11125 -1.2359 0
M  V30 1983 C 178.789 5.29195 -0.691966 0
M  V30 1984 O 179.012 5.68342 0.48414 0
M  V30 1985 O 177.946 5.84214 -1.44838 0
M  V30 1986 H 181.772 2.54197 -1.66186 0
M  V30 1987 H 179.357 1.21331 -0.871735 0
M  V30 1988 H 181.239 4.21185 0.134739 0
M  V30 1989 H 179.914 3.1597 0.703185 0
M  V30 1990 H 178.821 3.37985 -1.60366 0
M  V30 1991 H 180.154 4.45524 -2.09211 0
M  V30 1992 N 181.806 0.884767 1.30421 0
M  V30 1993 C 183.054 0.502112 1.95763 0
M  V30 1994 C 183.375 -0.951815 1.70192 0
M  V30 1995 O 182.645 -1.6692 1.0254 0
M  V30 1996 H 181.225 0.182694 0.724315 0
M  V30 1997 H 183.887 1.1278 1.58955 0
M  V30 1998 H 182.983 0.672188 3.04775 0
M  V30 1999 N 183.284 -1.43765 0.645699 0
M  V30 2000 C 184.7 -1.56509 0.312591 0
M  V30 2001 C 184.9 -1.6307 -1.18365 0
M  V30 2002 O 183.956 -1.58167 -1.96824 0
M  V30 2003 C 185.269 -2.82968 1.01733 0
M  V30 2004 C 186.817 -2.96701 0.996865 0
M  V30 2005 C 187.292 -4.25982 1.68236 0
M  V30 2006 N 188.783 -4.32829 1.64964 0
M  V30 2007 C 189.518 -5.31613 2.14885 0
M  V30 2008 N 189.014 -6.36718 2.73061 0
M  V30 2009 N 190.807 -5.23217 2.05428 0
M  V30 2010 H 182.958 -1.3775 1.61675 0
M  V30 2011 H 185.221 -0.661067 0.679481 0
M  V30 2012 H 184.927 -2.84156 2.0724 0
M  V30 2013 H 184.801 -3.72957 0.564177 0
M  V30 2014 H 187.188 -2.95058 -0.0497719 0
M  V30 2015 H 187.269 -2.08022 1.48865 0
M  V30 2016 H 186.913 -4.28386 2.72852 0
M  V30 2017 H 186.843 -5.13545 1.16529 0
M  V30 2018 H 189.334 -3.57493 1.22503 0
M  V30 2019 H 189.647 -7.08401 3.08848 0
M  V30 2020 H 187.992 -6.37362 2.77118 0
M  V30 2021 H 191.183 -4.40019 1.59689 0
M  V30 2022 H 191.356 -6.00045 2.44643 0
M  V30 2023 N 184.763 -0.387143 -1.52771 0
M  V30 2024 C 186.01 0.195735 -2.01552 0
M  V30 2025 C 186.338 1.46995 -1.27369 0
M  V30 2026 O 185.593 1.92325 -0.361879 0
M  V30 2027 C 185.892 0.512209 -3.53711 0
M  V30 2028 C 185.558 -0.670202 -4.45891 0
M  V30 2029 C 184.22 -0.994586 -4.70809 0
M  V30 2030 C 186.572 -1.46134 -5.00294 0
M  V30 2031 C 183.9 -2.11169 -5.4738 0
M  V30 2032 C 186.252 -2.56903 -5.78086 0
M  V30 2033 C 184.916 -2.89852 -6.01284 0
M  V30 2034 H 184.186 0.0716246 -0.73753 0
M  V30 2035 H 186.833 -0.524046 -1.8419 0
M  V30 2036 H 185.138 1.31329 -3.69134 0
M  V30 2037 H 186.835 0.975804 -3.88946 0
M  V30 2038 H 183.425 -0.407366 -4.2666 0
M  V30 2039 H 187.609 -1.22397 -4.80971 0
M  V30 2040 H 182.865 -2.3707 -5.63567 0
M  V30 2041 H 187.039 -3.18608 -6.19243 0
M  V30 2042 H 184.666 -3.76533 -6.60399 0
M  V30 2043 N 186.241 1.57166 -0.116904 0
M  V30 2044 C 187.487 1.95412 0.542405 0
M  V30 2045 C 187.82 1.00019 1.66463 0
M  V30 2046 O 187.095 0.0370346 1.94465 0
M  V30 2047 C 187.378 3.43615 1.07708 0
M  V30 2048 C 187.231 4.49781 -0.0415868 0
M  V30 2049 C 188.55 3.93616 1.96861 0
M  V30 2050 H 185.669 0.710543 0.195696 0
M  V30 2051 H 188.311 1.89027 -0.192038 0
M  V30 2052 H 186.461 3.49187 1.70296 0
M  V30 2053 H 188.133 4.56308 -0.676793 0
M  V30 2054 H 186.376 4.28033 -0.705019 0
M  V30 2055 H 187.047 5.50733 0.373717 0
M  V30 2056 H 189.523 3.90335 1.44146 0
M  V30 2057 H 188.399 4.97838 2.3119 0
M  V30 2058 H 188.66 3.34188 2.89432 0
M  V30 2059 N 187.719 -0.156864 1.56817 0
M  V30 2060 C 188.649 -1.19589 2.00551 0
M  V30 2061 C 189.63 -1.4536 0.883426 0
M  V30 2062 O 190.815 -1.56449 1.15054 0
M  V30 2063 C 187.945 -2.53143 2.37773 0
M  V30 2064 C 186.899 -2.41913 3.53075 0
M  V30 2065 C 186.225 -3.80088 3.76081 0
M  V30 2066 C 187.525 -1.91157 4.86062 0
M  V30 2067 H 189.219 -0.832293 2.87599 0
M  V30 2068 H 186.765 -0.398918 1.38364 0
M  V30 2069 H 188.718 -3.26047 2.66967 0
M  V30 2070 H 187.442 -2.91319 1.4765 0
M  V30 2071 H 186.101 -1.71462 3.24031 0
M  V30 2072 H 185.749 -4.15683 2.83225 0
M  V30 2073 H 185.449 -3.73439 4.53671 0
M  V30 2074 H 186.973 -4.54556 4.0769 0
M  V30 2075 H 188.387 -2.53846 5.14038 0
M  V30 2076 H 186.784 -1.95422 5.67389 0
M  V30 2077 H 187.854 -0.866673 4.77092 0
M  V30 2078 N 189.197 -1.51736 -0.425897 0
M  V30 2079 C 190.144 -1.73875 -1.51776 0
M  V30 2080 C 191.114 -0.580702 -1.55618 0
M  V30 2081 O 192.299 -0.81641 -1.72451 0
M  V30 2082 C 189.439 -1.88012 -2.89388 0
M  V30 2083 C 188.552 -3.15606 -2.94986 0
M  V30 2084 C 187.687 -3.20271 -4.23793 0
M  V30 2085 C 186.726 -4.42134 -4.23302 0
M  V30 2086 N 185.863 -4.44284 -5.43651 0
M  V30 2087 H 190.703 -2.67071 -1.32201 0
M  V30 2088 H 188.24 -1.32351 -0.642008 0
M  V30 2089 H 190.198 -1.9419 -3.69251 0
M  V30 2090 H 188.828 -0.98213 -3.07496 0
M  V30 2091 H 187.88 -3.18681 -2.07717 0
M  V30 2092 H 189.192 -4.05486 -2.90486 0
M  V30 2093 H 188.346 -3.25428 -5.12036 0
M  V30 2094 H 187.085 -2.28299 -4.30965 0
M  V30 2095 H 186.09 -4.3714 -3.3345 0
M  V30 2096 H 187.315 -5.35382 -4.17783 0
M  V30 2097 H 185.261 -3.55188 -5.51523 0
M  V30 2098 H 185.178 -5.27988 -5.41078 0
M  V30 2099 H 186.446 -4.53649 -6.33895 0
M  V30 2100 N 190.675 0.682077 -1.42076 0
M  V30 2101 C 191.623 1.81707 -1.45208 0
M  V30 2102 C 192.617 1.66183 -0.328591 0
M  V30 2103 O 193.823 1.7288 -0.501264 0
M  V30 2104 H 190.198 0.599014 -0.454628 0
M  V30 2105 H 192.169 1.76183 -2.40836 0
M  V30 2106 C 190.918 3.19816 -1.36428 0
M  V30 2107 H 190.241 3.32385 -2.22171 0
M  V30 2108 H 191.681 3.99272 -1.42681 0
M  V30 2109 C 190.14 3.36809 -0.078191 0
M  V30 2110 O 190.67 3.92124 0.87188 0
M  V30 2111 N 188.876 2.906 0.00229266 0
M  V30 2112 H 188.423 2.45772 -0.771616 0
M  V30 2113 H 188.381 3.02347 0.862179 0
M  V30 2114 N 192.153 1.28127 0.917671 0
M  V30 2115 C 193.063 1.13556 2.05286 0
M  V30 2116 C 194.079 0.0630914 1.73886 0
M  V30 2117 O 195.255 0.271598 1.9956 0
M  V30 2118 C 192.32 0.794676 3.3747 0
M  V30 2119 C 191.381 1.94909 3.82504 0
M  V30 2120 C 190.614 1.62437 5.0838 0
M  V30 2121 O 190.837 0.536905 5.67867 0
M  V30 2122 O 189.771 2.46677 5.4903 0
M  V30 2123 H 193.597 2.08844 2.20495 0
M  V30 2124 H 191.182 1.07409 1.03845 0
M  V30 2125 H 193.064 0.618344 4.16839 0
M  V30 2126 H 191.739 -0.128581 3.23445 0
M  V30 2127 H 190.646 2.18055 3.03978 0
M  V30 2128 H 191.979 2.85291 4.01086 0
M  V30 2129 N 193.631 -1.12557 1.10312 0
M  V30 2130 C 194.579 -2.20325 0.745629 0
M  V30 2131 C 195.573 -1.67429 -0.25763 0
M  V30 2132 O 196.779 -1.79612 -0.118132 0
M  V30 2133 H 193.154 -0.718118 0.223182 0
M  V30 2134 H 195.125 -2.47733 1.66346 0
M  V30 2135 C 193.874 -3.47168 0.192262 0
M  V30 2136 H 193.197 -3.88215 0.955475 0
M  V30 2137 H 194.637 -4.23995 -0.0198274 0
M  V30 2138 C 193.096 -3.19298 -1.07472 0
M  V30 2139 O 193.626 -3.3891 -2.15645 0
M  V30 2140 N 191.832 -2.73113 -0.992847 0
M  V30 2141 H 191.379 -2.57354 -0.112474 0
M  V30 2142 H 191.337 -2.54842 -1.84127 0
M  V30 2143 N 195.109 -0.891671 -1.2995 0
M  V30 2144 C 196.386 -0.433307 -1.9074 0
M  V30 2145 C 196.766 1.08646 -1.80995 0
M  V30 2146 O 196.114 1.92476 -1.23147 0
M  V30 2147 C 196.324 -0.938895 -3.36134 0
M  V30 2148 C 197.672 -0.977829 -4.13187 0
M  V30 2149 O 198.696 -0.886015 -3.45005 0
M  V30 2150 O 197.555 -1.11453 -5.35015 0
M  V30 2151 H 194.649 -0.133699 -0.816121 0
M  V30 2152 H 197.195 -0.981011 -1.38471 0
M  V30 2153 H 195.967 -1.98281 -3.37343 0
M  V30 2154 H 195.59 -0.37074 -3.95868 0
M  V30 2155 N 196.587 1.43421 -0.653314 0
M  V30 2156 C 197.55 2.29182 0.0287951 0
M  V30 2157 C 198.55 1.42213 0.750465 0
M  V30 2158 O 199.74 1.63843 0.591701 0
M  V30 2159 C 196.872 3.24278 1.05151 0
M  V30 2160 H 198.065 2.90985 -0.725786 0
M  V30 2161 H 195.618 1.50702 -0.414545 0
M  V30 2162 H 196.353 2.6737 1.83532 0
M  V30 2163 H 196.138 3.88396 0.537687 0
M  V30 2164 H 197.628 3.88647 1.52786 0
M  V30 2165 N 198.065 0.39524 1.52563 0
M  V30 2166 C 199.314 -0.186321 2.00838 0
M  V30 2167 C 199.627 -1.47402 1.28577 0
M  V30 2168 O 200.833 -2.13599 1.67593 0
M  V30 2169 C 199.289 -0.382595 3.57861 0
M  V30 2170 C 198.897 0.892202 4.39026 0
M  V30 2171 C 200.641 -0.9202 4.14406 0
M  V30 2172 C 198.548 0.66388 5.87662 0
M  V30 2173 H 197.478 -0.0734041 0.750418 0
M  V30 2174 H 200.129 0.518552 1.76021 0
M  V30 2175 H 198.511 -1.14946 3.7895 0
M  V30 2176 H 199.685 1.66414 4.29701 0
M  V30 2177 H 198 1.35519 3.9373 0
M  V30 2178 H 200.597 -1.10683 5.23119 0
M  V30 2179 H 200.94 -1.89096 3.70875 0
M  V30 2180 H 201.473 -0.212751 3.97231 0
M  V30 2181 H 198.212 1.6058 6.35527 0
M  V30 2182 H 197.732 -0.0690193 5.9976 0
M  V30 2183 H 199.411 0.300699 6.46301 0
M  V30 2184 N 199.544 -1.57102 0.125237 0
M  V30 2185 C 200.955 -1.82384 -0.399142 0
M  V30 2186 C 201.306 -1.04276 -1.66195 0
M  V30 2187 O 200.431 -0.281269 -2.14564 0
M  V30 2188 C 201.026 -3.30821 -0.730932 0
M  V30 2189 C 199.585 -3.56762 -1.19992 0
M  V30 2190 C 198.732 -2.7649 -0.211792 0
M  V30 2191 H 201.683 -1.54786 0.350277 0
M  V30 2192 H 201.704 -3.4579 -1.58775 0
M  V30 2193 H 201.216 -3.87643 0.188345 0
M  V30 2194 H 199.317 -3.05305 -2.13588 0
M  V30 2195 H 199.43 -4.65317 -1.14093 0
M  V30 2196 H 197.794 -2.4489 -0.700085 0
M  V30 2197 H 198.577 -3.36073 0.700691 0
M  V30 2198 N 201.022 0.148545 -1.56898 0
M  V30 2199 C 202.433 0.708766 -1.72723 0
M  V30 2200 C 202.784 1.81734 -0.739395 0
M  V30 2201 O 201.909 2.16194 0.0943169 0
M  V30 2202 C 202.504 1.29245 -3.13179 0
M  V30 2203 C 201.063 1.79925 -3.30611 0
M  V30 2204 C 200.21 0.687111 -2.68652 0
M  V30 2205 H 203.161 -0.0771063 -1.58513 0
M  V30 2206 H 203.182 2.16224 -3.13093 0
M  V30 2207 H 202.694 0.485382 -3.85053 0
M  V30 2208 H 200.795 2.63203 -2.63732 0
M  V30 2209 H 200.908 1.92903 -4.38549 0
M  V30 2210 H 199.272 1.11335 -2.29078 0
M  V30 2211 H 200.055 -0.108483 -3.43129 0
M  V30 2212 N 202.5 1.5196 0.417844 0
M  V30 2213 C 203.447 1.74678 1.50852 0
M  V30 2214 C 204.417 0.588947 1.55308 0
M  V30 2215 O 205.602 0.825544 1.72016 0
M  V30 2216 C 202.742 1.89544 2.88387 0
M  V30 2217 C 201.855 3.17166 2.93309 0
M  V30 2218 C 200.99 3.22513 4.22088 0
M  V30 2219 C 200.029 4.44372 4.20951 0
M  V30 2220 N 199.166 4.47161 5.41287 0
M  V30 2221 H 204.006 2.67768 1.30783 0
M  V30 2222 H 201.543 1.32689 0.63498 0
M  V30 2223 H 203.501 1.96146 3.68216 0
M  V30 2224 H 202.131 0.998424 3.06971 0
M  V30 2225 H 201.183 3.19778 2.06024 0
M  V30 2226 H 202.495 4.07021 2.88332 0
M  V30 2227 H 201.649 3.28139 5.10303 0
M  V30 2228 H 200.388 2.30581 4.29748 0
M  V30 2229 H 199.393 4.38902 3.31127 0
M  V30 2230 H 200.618 5.3759 4.14938 0
M  V30 2231 H 198.564 3.58108 5.49632 0
M  V30 2232 H 198.481 5.3085 5.3827 0
M  V30 2233 H 199.749 4.57005 6.3148 0
M  V30 2234 N 203.978 -0.674533 1.42435 0
M  V30 2235 C 204.925 -1.78807 1.45934 0
M  V30 2236 C 205.895 -1.63157 0.311271 0
M  V30 2237 O 207.08 -1.83707 0.515383 0
M  V30 2238 C 204.22 -3.16839 1.36773 0
M  V30 2239 C 203.333 -3.43774 2.61617 0
M  V30 2240 C 202.468 -4.71536 2.44597 0
M  V30 2241 C 201.507 -4.91505 3.64814 0
M  V30 2242 N 200.644 -6.10508 3.46734 0
M  V30 2243 H 205.484 -1.75151 2.41093 0
M  V30 2244 H 203.021 -0.85504 1.19697 0
M  V30 2245 H 204.979 -3.96606 1.29459 0
M  V30 2246 H 203.609 -3.19619 0.452089 0
M  V30 2247 H 202.661 -2.58259 2.79297 0
M  V30 2248 H 203.973 -3.54423 3.50978 0
M  V30 2249 H 203.127 -5.59393 2.3487 0
M  V30 2250 H 201.866 -4.6317 1.52726 0
M  V30 2251 H 200.871 -4.0209 3.74972 0
M  V30 2252 H 202.096 -5.01716 4.57665 0
M  V30 2253 H 200.042 -6.03315 2.5758 0
M  V30 2254 H 199.959 -6.2202 4.29682 0
M  V30 2255 H 201.227 -7.01044 3.40819 0
M  V30 2256 N 205.456 -1.28612 -0.910864 0
M  V30 2257 C 206.419 -1.12803 -1.9952 0
M  V30 2258 C 207.419 -0.0668264 -1.60661 0
M  V30 2259 O 208.609 -0.312847 -1.71368 0
M  V30 2260 C 205.741 -0.72254 -3.33155 0
M  V30 2261 H 206.934 -2.09109 -2.14973 0
M  V30 2262 H 204.487 -1.11639 -1.09391 0
M  V30 2263 H 205.222 0.241152 -3.23402 0
M  V30 2264 H 205.007 -1.48916 -3.62721 0
M  V30 2265 H 206.497 -0.634666 -4.12749 0
M  V30 2266 N 206.934 1.1197 -1.10907 0
M  V30 2267 C 207.866 2.17592 -0.720175 0
M  V30 2268 C 208.879 1.60938 0.245495 0
M  V30 2269 O 210.068 1.78476 0.0292245 0
M  V30 2270 C 207.168 3.38873 -0.0427917 0
M  V30 2271 C 206.341 4.25006 -1.03388 0
M  V30 2272 C 205.4 5.24774 -0.387075 0
M  V30 2273 O 204.426 5.59631 -1.03934 0
M  V30 2274 N 205.628 5.74208 0.852407 0
M  V30 2275 H 208.393 2.51567 -1.62893 0
M  V30 2276 H 205.954 1.27439 -0.998543 0
M  V30 2277 H 207.946 4.02703 0.401501 0
M  V30 2278 H 206.516 3.03007 0.768456 0
M  V30 2279 H 205.736 3.57716 -1.65629 0
M  V30 2280 H 207.024 4.79397 -1.70458 0
M  V30 2281 H 206.422 5.48062 1.40161 0
M  V30 2282 H 204.979 6.39901 1.23977 0
M  V30 2283 N 208.412 0.89855 1.29475 0
M  V30 2284 C 209.637 0.538561 2.00285 0
M  V30 2285 C 210.062 -0.869135 1.66816 0
M  V30 2286 O 209.42 -1.57831 0.892145 0
M  V30 2287 C 209.468 0.736475 3.52999 0
M  V30 2288 O 208.572 -0.211537 4.11857 0
M  V30 2289 H 207.913 0.210563 0.62973 0
M  V30 2290 H 210.443 1.20982 1.64998 0
M  V30 2291 H 210.453 0.640685 4.02938 0
M  V30 2292 H 209.128 1.76276 3.76696 0
M  V30 2293 H 207.705 -0.0682991 3.72837 0
M  V30 2294 N 209.89 -1.43072 0.660911 0
M  V30 2295 C 210.838 -2.32569 -0.0378199 0
M  V30 2296 C 211.832 -1.49046 -0.805092 0
M  V30 2297 O 213.038 -1.65206 -0.714624 0
M  V30 2298 H 209.413 -0.75136 -0.031019 0
M  V30 2299 H 211.384 -2.89216 0.734609 0
M  V30 2300 C 210.133 -3.33453 -0.985124 0
M  V30 2301 H 209.456 -3.97752 -0.404147 0
M  V30 2302 H 210.896 -3.98691 -1.44297 0
M  V30 2303 C 209.355 -2.64642 -2.08486 0
M  V30 2304 O 209.885 -2.46776 -3.16961 0
M  V30 2305 N 208.091 -2.23891 -1.8526 0
M  V30 2306 H 207.638 -2.38621 -0.970449 0
M  V30 2307 H 207.596 -1.78181 -2.59034 0
M  V30 2308 N 211.368 -0.403325 -1.52352 0
M  V30 2309 C 212.616 0.174003 -2.0135 0
M  V30 2310 C 212.937 1.46139 -1.29106 0
M  V30 2311 O 212.207 1.91448 -0.415253 0
M  V30 2312 H 210.787 0.0672911 -0.743963 0
M  V30 2313 H 213.449 -0.538235 -1.87321 0
M  V30 2314 H 212.545 0.374254 -3.09848 0
M  V30 2315 N 212.846 1.57033 -0.133567 0
M  V30 2316 C 214.257 1.82593 0.389464 0
M  V30 2317 C 214.608 1.05156 1.6564 0
M  V30 2318 O 213.733 0.292644 2.14412 0
M  V30 2319 C 214.328 3.31204 0.713377 0
M  V30 2320 C 212.887 3.57393 1.18098 0
M  V30 2321 C 212.034 2.76598 0.197126 0
M  V30 2322 H 214.985 1.54598 -0.358481 0
M  V30 2323 H 215.006 3.46627 1.56939 0
M  V30 2324 H 214.518 3.87537 -0.2089 0
M  V30 2325 H 212.619 3.06433 2.11966 0
M  V30 2326 H 212.732 4.65915 1.11624 0
M  V30 2327 H 211.096 2.45257 0.687088 0
M  V30 2328 H 211.879 3.35697 -0.718504 0
M  V30 2329 N 214.325 -0.140222 1.56975 0
M  V30 2330 C 215.235 -1.19223 2.02047 0
M  V30 2331 C 216.251 -1.46612 0.937062 0
M  V30 2332 O 217.427 -1.58148 1.24704 0
M  V30 2333 C 214.492 -2.50414 2.39778 0
M  V30 2334 C 213.553 -2.30612 3.621 0
M  V30 2335 C 212.786 -3.55547 3.98023 0
M  V30 2336 O 213.009 -4.62004 3.34528 0
M  V30 2337 O 211.943 -3.47808 4.91237 0
M  V30 2338 H 215.769 -0.839559 2.91865 0
M  V30 2339 H 213.354 -0.349453 1.45256 0
M  V30 2340 H 215.236 -3.27747 2.64877 0
M  V30 2341 H 213.911 -2.85198 1.53114 0
M  V30 2342 H 212.818 -1.51207 3.4218 0
M  V30 2343 H 214.151 -2.00741 4.49404 0
M  V30 2344 N 215.803 -1.52179 -0.40978 0
M  V30 2345 C 216.75 -1.75475 -1.49924 0
M  V30 2346 C 217.72 -0.597175 -1.54994 0
M  V30 2347 O 218.905 -0.834655 -1.71575 0
M  V30 2348 C 216.045 -1.9107 -2.87378 0
M  V30 2349 C 215.158 -3.18717 -2.91622 0
M  V30 2350 C 214.293 -3.24747 -4.20372 0
M  V30 2351 C 213.332 -4.46598 -4.18588 0
M  V30 2352 N 212.469 -4.50025 -5.38908 0
M  V30 2353 H 217.309 -2.68458 -1.29361 0
M  V30 2354 H 214.846 -1.33024 -0.627934 0
M  V30 2355 H 216.804 -1.98096 -3.6717 0
M  V30 2356 H 215.434 -1.01469 -3.06437 0
M  V30 2357 H 214.486 -3.20866 -2.04326 0
M  V30 2358 H 215.798 -4.08544 -2.86169 0
M  V30 2359 H 214.952 -3.30841 -5.08556 0
M  V30 2360 H 213.691 -2.32857 -4.28519 0
M  V30 2361 H 212.696 -4.40652 -3.28794 0
M  V30 2362 H 213.921 -5.39783 -4.12081 0
M  V30 2363 H 211.867 -3.61017 -5.47725 0
M  V30 2364 H 211.784 -5.33697 -5.35447 0
M  V30 2365 H 213.052 -4.60347 -6.29048 0
M  V30 2366 N 217.281 0.66697 -1.42791 0
M  V30 2367 C 218.213 1.7925 -1.42836 0
M  V30 2368 C 219.226 1.59496 -0.326333 0
M  V30 2369 O 220.415 1.6847 -0.589916 0
M  V30 2370 C 217.515 3.16476 -1.21229 0
M  V30 2371 C 216.688 3.63011 -2.44013 0
M  V30 2372 C 215.747 4.78993 -2.17834 0
M  V30 2373 O 214.773 4.89137 -2.91091 0
M  V30 2374 N 215.975 5.68248 -1.18635 0
M  V30 2375 H 218.74 1.79695 -2.39854 0
M  V30 2376 H 216.301 0.850338 -1.37771 0
M  V30 2377 H 218.293 3.91734 -1.01621 0
M  V30 2378 H 216.863 3.10884 -0.32706 0
M  V30 2379 H 216.083 2.78346 -2.79137 0
M  V30 2380 H 217.371 3.90845 -3.25757 0
M  V30 2381 H 216.769 5.62712 -0.580615 0
M  V30 2382 H 215.326 6.43285 -1.05013 0
M  V30 2383 N 218.759 1.29093 0.90403 0
M  V30 2384 C 219.669 1.15727 2.0407 0
M  V30 2385 C 220.685 0.0815308 1.73809 0
M  V30 2386 O 221.861 0.292749 1.99261 0
M  V30 2387 C 218.926 0.830424 3.36608 0
M  V30 2388 C 217.987 1.98955 3.80415 0
M  V30 2389 C 217.22 1.6782 5.06628 0
M  V30 2390 O 217.443 0.597105 5.67266 0
M  V30 2391 O 216.377 2.52486 5.46383 0
M  V30 2392 H 220.203 2.11171 2.18267 0
M  V30 2393 H 217.788 1.08504 1.027 0
M  V30 2394 H 219.67 0.662521 4.16159 0
M  V30 2395 H 218.345 -0.0942678 3.23563 0
M  V30 2396 H 217.252 2.21267 3.01648 0
M  V30 2397 H 218.585 2.89529 3.98037 0
M  V30 2398 N 220.237 -1.11381 1.11499 0
M  V30 2399 C 221.184 -2.17439 0.773887 0
M  V30 2400 C 222.154 -1.64132 -0.254899 0
M  V30 2401 O 223.339 -1.90345 -0.13168 0
M  V30 2402 C 220.479 -3.44373 0.223917 0
M  V30 2403 C 219.592 -4.1168 1.30934 0
M  V30 2404 C 218.727 -5.263 0.71984 0
M  V30 2405 C 217.766 -5.85493 1.78507 0
M  V30 2406 N 216.903 -6.91507 1.21502 0
M  V30 2407 H 221.743 -2.45962 1.68246 0
M  V30 2408 H 219.28 -1.20744 0.840191 0
M  V30 2409 H 221.238 -4.17047 -0.112921 0
M  V30 2410 H 219.868 -3.16232 -0.647851 0
M  V30 2411 H 218.92 -3.37073 1.76312 0
M  V30 2412 H 220.232 -4.51729 2.11524 0
M  V30 2413 H 219.386 -6.05785 0.333094 0
M  V30 2414 H 218.125 -4.87559 -0.117377 0
M  V30 2415 H 217.13 -5.04686 2.18111 0
M  V30 2416 H 218.355 -6.26301 2.62533 0
M  V30 2417 H 216.301 -6.54783 0.399455 0
M  V30 2418 H 216.218 -7.30214 1.95763 0
M  V30 2419 H 217.486 -7.74795 0.855181 0
M  V30 2420 N 221.715 -0.905404 -1.28997 0
M  V30 2421 C 222.625 -0.392246 -2.31298 0
M  V30 2422 C 223.641 0.515889 -1.66176 0
M  V30 2423 O 224.817 0.404093 -1.97304 0
M  V30 2424 C 221.882 0.36686 -3.44754 0
M  V30 2425 C 220.943 -0.573485 -4.25452 0
M  V30 2426 C 220.176 0.149488 -5.33491 0
M  V30 2427 O 220.399 1.37255 -5.5364 0
M  V30 2428 O 219.333 -0.510919 -5.99728 0
M  V30 2429 H 223.159 -1.2411 -2.77183 0
M  V30 2430 H 220.744 -0.669926 -1.33538 0
M  V30 2431 H 222.626 0.795907 -4.13816 0
M  V30 2432 H 221.301 1.19169 -3.00966 0
M  V30 2433 H 220.208 -1.05176 -3.59011 0
M  V30 2434 H 221.541 -1.36489 -4.72897 0
M  V30 2435 N 223.193 1.4272 -0.668489 0
M  V30 2436 C 224.441 2.01226 -0.187769 0
M  V30 2437 C 224.762 1.53092 1.2078 0
M  V30 2438 O 224.032 0.74993 1.80977 0
M  V30 2439 H 222.612 0.744041 -0.0664272 0
M  V30 2440 H 225.274 1.74723 -0.863583 0
M  V30 2441 H 224.37 3.11556 -0.184166 0
M  V30 2442 N 224.671 0.411399 1.52136 0
M  V30 2443 C 225.917 -0.163888 2.02137 0
M  V30 2444 C 226.25 -1.44597 1.29636 0
M  V30 2445 O 225.525 -1.90272 0.403353 0
M  V30 2446 C 225.808 -0.40927 3.57767 0
M  V30 2447 C 225.661 0.889643 4.40914 0
M  V30 2448 C 226.98 -1.19042 4.23694 0
M  V30 2449 H 224.099 -0.0580896 0.734707 0
M  V30 2450 H 226.741 0.54531 1.82007 0
M  V30 2451 H 224.891 -1.0134 3.7505 0
M  V30 2452 H 226.563 1.52575 4.35337 0
M  V30 2453 H 224.806 1.50011 4.07037 0
M  V30 2454 H 225.477 0.672314 5.4789 0
M  V30 2455 H 227.953 -0.678942 4.10524 0
M  V30 2456 H 226.829 -1.33086 5.32522 0
M  V30 2457 H 227.09 -2.21166 3.82803 0
M  V30 2458 N 226.149 -1.5696 0.141893 0
M  V30 2459 C 227.398 -1.95135 -0.510427 0
M  V30 2460 C 227.711 -1.02896 -1.66348 0
M  V30 2461 O 228.917 -1.30629 -2.38009 0
M  V30 2462 C 227.373 -3.46876 -0.959427 0
M  V30 2463 C 226.981 -4.47691 0.166419 0
M  V30 2464 C 228.725 -3.93927 -1.58183 0
M  V30 2465 C 226.632 -5.90636 -0.300565 0
M  V30 2466 H 225.562 -0.728494 -0.194454 0
M  V30 2467 H 228.213 -1.8211 0.22542 0
M  V30 2468 H 226.595 -3.55215 -1.75038 0
M  V30 2469 H 227.769 -4.51043 0.94325 0
M  V30 2470 H 226.084 -4.10527 0.696905 0
M  V30 2471 H 228.681 -4.98158 -1.94275 0
M  V30 2472 H 229.024 -3.3519 -2.46888 0
M  V30 2473 H 229.557 -3.88484 -0.855863 0
M  V30 2474 H 226.296 -6.5318 0.550989 0
M  V30 2475 H 225.816 -5.90655 -1.04338 0
M  V30 2476 H 227.495 -6.42588 -0.754265 0
M  V30 2477 N 227.627 0.131896 -1.57047 0
M  V30 2478 C 228.559 1.1878 -1.9602 0
M  V30 2479 C 229.572 1.38363 -0.857875 0
M  V30 2480 O 230.761 1.37666 -1.13623 0
M  V30 2481 C 227.861 2.55008 -2.23213 0
M  V30 2482 C 227.034 2.56201 -3.54513 0
M  V30 2483 C 226.093 3.7408 -3.70069 0
M  V30 2484 O 225.119 3.58258 -4.42312 0
M  V30 2485 N 226.321 4.92137 -3.07866 0
M  V30 2486 H 229.086 0.85639 -2.87204 0
M  V30 2487 H 226.647 0.321309 -1.5868 0
M  V30 2488 H 228.639 3.32404 -2.30846 0
M  V30 2489 H 227.209 2.80382 -1.3822 0
M  V30 2490 H 226.429 1.64613 -3.58185 0
M  V30 2491 H 227.717 2.54043 -4.4084 0
M  V30 2492 H 227.115 5.07895 -2.49116 0
M  V30 2493 H 225.672 5.67254 -3.21039 0
M  V30 2494 N 229.106 1.52395 0.401703 0
M  V30 2495 C 230.054 1.7689 1.51039 0
M  V30 2496 C 231.048 0.636298 1.56996 0
M  V30 2497 O 232.254 0.818507 1.60314 0
M  V30 2498 H 228.629 0.559502 0.502456 0
M  V30 2499 H 230.6 2.69757 1.27568 0
M  V30 2500 C 229.349 1.94331 2.88324 0
M  V30 2501 H 228.672 2.80905 2.84486 0
M  V30 2502 H 230.112 2.15466 3.65172 0
M  V30 2503 C 228.571 0.712396 3.29282 0
M  V30 2504 O 229.101 -0.116218 4.01532 0
M  V30 2505 N 227.307 0.546154 2.85422 0
M  V30 2506 H 226.854 1.22156 2.26794 0
M  V30 2507 H 226.812 -0.276113 3.13185 0
M  V30 2508 N 230.584 -0.659388 1.43143 0
M  V30 2509 C 231.831 -1.41935 1.44433 0
M  V30 2510 C 232.159 -1.94387 0.0663522 0
M  V30 2511 O 231.414 -1.72314 -0.927706 0
M  V30 2512 C 231.713 -2.62206 2.42864 0
M  V30 2513 C 231.379 -2.28208 3.88886 0
M  V30 2514 C 230.041 -2.18647 4.28657 0
M  V30 2515 C 232.393 -2.00887 4.8093 0
M  V30 2516 C 229.721 -1.79914 5.58433 0
M  V30 2517 C 232.073 -1.63653 6.11065 0
M  V30 2518 C 230.737 -1.52614 6.49819 0
M  V30 2519 H 230.007 -0.519376 0.528517 0
M  V30 2520 H 232.654 -0.750453 1.76183 0
M  V30 2521 H 230.959 -3.34199 2.04495 0
M  V30 2522 H 232.656 -3.2041 2.41119 0
M  V30 2523 H 229.246 -2.36557 3.57406 0
M  V30 2524 H 233.43 -2.07198 4.5098 0
M  V30 2525 H 228.686 -1.69948 5.87305 0
M  V30 2526 H 232.86 -1.41543 6.81864 0
M  V30 2527 H 230.487 -1.22371 7.50286 0
M  V30 2528 N 232.062 -1.29571 -0.897171 0
M  V30 2529 C 233.009 -1.14916 -2.00158 0
M  V30 2530 C 233.979 -0.0418149 -1.66047 0
M  V30 2531 O 235.164 -0.209793 -1.89643 0
M  V30 2532 C 232.304 -0.834307 -3.34863 0
M  V30 2533 C 231.417 -2.02234 -3.8174 0
M  V30 2534 C 230.552 -1.64664 -5.05034 0
M  V30 2535 C 229.591 -2.80033 -5.44286 0
M  V30 2536 N 228.728 -2.42843 -6.58765 0
M  V30 2537 H 233.568 -2.09403 -2.12025 0
M  V30 2538 H 231.105 -1.042 -1.0383 0
M  V30 2539 H 233.063 -0.632436 -4.12379 0
M  V30 2540 H 231.693 0.0736656 -3.22716 0
M  V30 2541 H 230.745 -2.33583 -3.00238 0
M  V30 2542 H 232.057 -2.88673 -4.06779 0
M  V30 2543 H 231.211 -1.4078 -5.9014 0
M  V30 2544 H 229.95 -0.753766 -4.8184 0
M  V30 2545 H 228.955 -3.04596 -4.57713 0
M  V30 2546 H 230.18 -3.69989 -5.6946 0
M  V30 2547 H 228.126 -1.56046 -6.3717 0
M  V30 2548 H 228.043 -3.22815 -6.83613 0
M  V30 2549 H 229.311 -2.22285 -7.47134 0
M  V30 2550 N 233.54 1.10788 -1.12088 0
M  V30 2551 C 234.956 1.34691 -0.856186 0
M  V30 2552 C 235.156 1.94791 0.515615 0
M  V30 2553 O 234.212 2.18524 1.26505 0
M  V30 2554 C 235.525 2.27208 -1.9697 0
M  V30 2555 C 237.073 2.40755 -2.00016 0
M  V30 2556 C 237.548 3.36598 -3.1059 0
M  V30 2557 N 239.039 3.44164 -3.10008 0
M  V30 2558 C 239.774 4.18284 -3.92206 0
M  V30 2559 N 239.27 4.95322 -4.84384 0
M  V30 2560 N 241.063 4.13865 -3.80357 0
M  V30 2561 H 233.214 0.70144 -2.00483 0
M  V30 2562 H 235.477 0.371405 -0.872217 0
M  V30 2563 H 235.183 1.90251 -2.958 0
M  V30 2564 H 235.057 3.27485 -1.87172 0
M  V30 2565 H 237.444 2.76982 -1.01808 0
M  V30 2566 H 237.525 1.40305 -2.13888 0
M  V30 2567 H 237.169 3.01096 -4.09028 0
M  V30 2568 H 237.099 4.36918 -2.93956 0
M  V30 2569 H 239.59 2.8922 -2.43228 0
M  V30 2570 H 239.903 5.49267 -5.43623 0
M  V30 2571 H 238.248 4.94459 -4.884 0
M  V30 2572 H 241.439 3.52773 -3.07683 0
M  V30 2573 H 241.612 4.71372 -4.44649 0
M  V30 2574 N 235.018 0.912232 1.28515 0
M  V30 2575 C 236.246 0.560416 1.99166 0
M  V30 2576 C 236.661 -0.857927 1.68182 0
M  V30 2577 O 236.018 -1.56805 0.933733 0
M  V30 2578 C 236.069 0.758142 3.53461 0
M  V30 2579 O 235.79 2.12067 3.83352 0
M  V30 2580 C 237.291 0.412954 4.41372 0
M  V30 2581 H 234.511 0.213805 0.636026 0
M  V30 2582 H 237.055 1.22502 1.63749 0
M  V30 2583 H 235.21 0.140556 3.87145 0
M  V30 2584 H 235.624 2.15923 4.77993 0
M  V30 2585 H 237.098 0.60208 5.48707 0
M  V30 2586 H 237.575 -0.65073 4.34353 0
M  V30 2587 H 238.181 1.00802 4.13182 0
M  V30 2588 N 236.496 -1.42363 0.676048 0
M  V30 2589 C 237.426 -2.33497 0.0124832 0
M  V30 2590 C 238.407 -1.50748 -0.787981 0
M  V30 2591 O 239.592 -1.79346 -0.744884 0
M  V30 2592 C 236.722 -3.34377 -0.938582 0
M  V30 2593 C 235.676 -4.27289 -0.246622 0
M  V30 2594 C 235.002 -5.18386 -1.31071 0
M  V30 2595 C 236.302 -5.14916 0.875125 0
M  V30 2596 H 237.996 -2.89233 0.773593 0
M  V30 2597 H 235.542 -1.39073 0.37346 0
M  V30 2598 H 237.495 -3.97044 -1.41188 0
M  V30 2599 H 236.219 -2.76947 -1.73113 0
M  V30 2600 H 234.878 -3.66018 0.206456 0
M  V30 2601 H 234.526 -4.57282 -2.09528 0
M  V30 2602 H 234.226 -5.81378 -0.852839 0
M  V30 2603 H 235.75 -5.83929 -1.78492 0
M  V30 2604 H 237.164 -5.71262 0.482983 0
M  V30 2605 H 235.561 -5.86747 1.25887 0
M  V30 2606 H 236.631 -4.53242 1.72335 0
M  V30 2607 N 237.974 -0.419461 -1.51915 0
M  V30 2608 C 239.199 0.154572 -2.06823 0
M  V30 2609 C 239.624 1.3722 -1.28656 0
M  V30 2610 O 238.982 1.78461 -0.319583 0
M  V30 2611 C 239.03 0.473172 -3.57482 0
M  V30 2612 O 238.134 1.56255 -3.81652 0
M  V30 2613 H 237.475 0.0096924 -0.663929 0
M  V30 2614 H 240.005 -0.595642 -1.95738 0
M  V30 2615 H 240.015 0.728825 -4.01438 0
M  V30 2616 H 238.69 -0.416873 -4.13805 0
M  V30 2617 H 237.267 1.29825 -3.49571 0
M  V30 2618 N 239.452 1.56882 -0.150215 0
M  V30 2619 C 240.399 2.16922 0.788244 0
M  V30 2620 C 241.369 1.10303 1.24187 0
M  V30 2621 O 242.554 1.38359 1.31383 0
M  V30 2622 C 239.694 2.79754 2.02068 0
M  V30 2623 C 238.807 4.00775 1.61257 0
M  V30 2624 C 237.942 4.51595 2.79705 0
M  V30 2625 C 236.981 5.65074 2.35282 0
M  V30 2626 N 236.118 6.10499 3.4675 0
M  V30 2627 H 240.958 2.96779 0.269444 0
M  V30 2628 H 238.495 1.46599 0.12128 0
M  V30 2629 H 240.453 3.14329 2.74323 0
M  V30 2630 H 239.083 2.02536 2.51354 0
M  V30 2631 H 238.135 3.72158 0.787553 0
M  V30 2632 H 239.447 4.82978 1.24633 0
M  V30 2633 H 238.601 4.88242 3.60145 0
M  V30 2634 H 237.34 3.68406 3.19576 0
M  V30 2635 H 236.345 5.28 1.53283 0
M  V30 2636 H 237.57 6.50052 1.96493 0
M  V30 2637 H 235.516 5.30243 3.86236 0
M  V30 2638 H 235.433 6.87637 3.14152 0
M  V30 2639 H 236.701 6.51791 4.27537 0
M  V30 2640 N 240.93 -0.123565 1.57115 0
M  V30 2641 C 241.877 -1.15177 2.00007 0
M  V30 2642 C 242.847 -1.41403 0.871454 0
M  V30 2643 O 244.032 -1.53346 1.13533 0
M  V30 2644 C 241.172 -2.47436 2.40561 0
M  V30 2645 C 240.285 -2.28184 3.66819 0
M  V30 2646 C 239.42 -3.53641 3.96373 0
M  V30 2647 C 238.459 -3.29528 5.15827 0
M  V30 2648 N 237.596 -4.47175 5.41275 0
M  V30 2649 H 242.436 -0.779008 2.87638 0
M  V30 2650 H 239.973 -0.373166 1.42288 0
M  V30 2651 H 241.931 -3.24584 2.62109 0
M  V30 2652 H 240.561 -2.82614 1.55978 0
M  V30 2653 H 239.613 -1.41976 3.52912 0
M  V30 2654 H 240.925 -2.0634 4.5412 0
M  V30 2655 H 240.079 -4.39209 4.18545 0
M  V30 2656 H 238.818 -3.78512 3.07538 0
M  V30 2657 H 237.823 -2.42349 4.93505 0
M  V30 2658 H 239.048 -3.06031 6.06236 0
M  V30 2659 H 236.994 -4.72175 4.55397 0
M  V30 2660 H 236.911 -4.28419 6.22891 0
M  V30 2661 H 238.179 -5.3389 5.67963 0
M  V30 2662 N 242.408 -1.52605 -0.393616 0
M  V30 2663 C 243.318 -1.79971 -1.50492 0
M  V30 2664 C 244.334 -0.686181 -1.59899 0
M  V30 2665 O 245.51 -0.973274 -1.76322 0
M  V30 2666 C 242.575 -1.95867 -2.86072 0
M  V30 2667 C 241.636 -3.19781 -2.86424 0
M  V30 2668 C 240.869 -3.34909 -4.15538 0
M  V30 2669 O 241.092 -2.54948 -5.10253 0
M  V30 2670 O 240.026 -4.28141 -4.23059 0
M  V30 2671 H 243.852 -2.74328 -1.30299 0
M  V30 2672 H 241.437 -1.3764 -0.581005 0
M  V30 2673 H 243.319 -2.08056 -3.66457 0
M  V30 2674 H 241.994 -1.04699 -3.063 0
M  V30 2675 H 240.901 -3.13038 -2.04837 0
M  V30 2676 H 242.234 -4.1078 -2.71147 0
M  V30 2677 N 243.887 0.651787 -1.4349 0
M  V30 2678 C 244.834 1.76462 -1.4876 0
M  V30 2679 C 245.804 1.62641 -0.337189 0
M  V30 2680 O 246.989 1.82864 -0.544544 0
M  V30 2681 C 244.129 3.14623 -1.41796 0
M  V30 2682 C 243.242 3.39568 -2.67053 0
M  V30 2683 C 242.377 4.67585 -2.52068 0
M  V30 2684 C 241.416 4.85639 -3.72587 0
M  V30 2685 N 240.553 6.04915 -3.56402 0
M  V30 2686 H 245.393 1.71293 -2.43849 0
M  V30 2687 H 242.93 0.835889 -1.21043 0
M  V30 2688 H 244.888 3.94496 -1.35753 0
M  V30 2689 H 243.518 3.18859 -0.50288 0
M  V30 2690 H 242.57 2.53783 -2.8337 0
M  V30 2691 H 243.882 3.48795 -3.56572 0
M  V30 2692 H 243.036 5.55586 -2.4374 0
M  V30 2693 H 241.775 4.60681 -1.60075 0
M  V30 2694 H 240.78 3.96073 -3.81321 0
M  V30 2695 H 242.005 4.94372 -4.65589 0
M  V30 2696 H 239.951 5.9914 -2.67146 0
M  V30 2697 H 239.868 6.15106 -4.39524 0
M  V30 2698 H 241.136 6.95533 -3.51929 0
M  V30 2699 N 245.365 1.30045 0.890287 0
M  V30 2700 C 246.312 1.15976 1.99545 0
M  V30 2701 C 247.282 0.0506202 1.66023 0
M  V30 2702 O 248.467 0.219847 1.89529 0
M  V30 2703 C 245.607 0.852054 3.34416 0
M  V30 2704 C 244.72 2.04255 3.80662 0
M  V30 2705 C 243.855 1.6734 5.04154 0
M  V30 2706 C 242.894 2.82916 5.42794 0
M  V30 2707 N 242.031 2.46333 6.57468 0
M  V30 2708 H 246.871 2.10524 2.10911 0
M  V30 2709 H 244.408 1.04749 1.03276 0
M  V30 2710 H 246.366 0.654296 4.12037 0
M  V30 2711 H 244.996 -0.0565502 3.2275 0
M  V30 2712 H 244.048 2.35172 2.98995 0
M  V30 2713 H 245.36 2.90826 4.05242 0
M  V30 2714 H 244.514 1.43908 5.89386 0
M  V30 2715 H 243.253 0.779308 4.81433 0
M  V30 2716 H 242.258 3.0702 4.56091 0
M  V30 2717 H 243.483 3.73004 5.6749 0
M  V30 2718 H 241.429 1.59423 6.36334 0
M  V30 2719 H 241.346 3.26436 6.81891 0
M  V30 2720 H 242.614 2.26244 7.45945 0
M  V30 2721 N 246.843 -1.10192 1.12674 0
M  V30 2722 C 247.753 -2.20172 0.810026 0
M  V30 2723 C 248.769 -1.72821 -0.202188 0
M  V30 2724 O 249.945 -2.01369 -0.0351691 0
M  V30 2725 C 247.01 -3.45631 0.272007 0
M  V30 2726 C 246.071 -4.07704 1.34447 0
M  V30 2727 C 245.304 -5.27175 0.832029 0
M  V30 2728 O 245.527 -5.69425 -0.333284 0
M  V30 2729 O 244.461 -5.80168 1.60277 0
M  V30 2730 H 248.287 -2.49701 1.72867 0
M  V30 2731 H 245.872 -1.18977 0.903597 0
M  V30 2732 H 247.754 -4.21394 -0.0230219 0
M  V30 2733 H 246.429 -3.17723 -0.619164 0
M  V30 2734 H 245.336 -3.33614 1.6927 0
M  V30 2735 H 246.669 -4.3982 2.2095 0
M  V30 2736 N 248.321 -0.919034 -1.28029 0
M  V30 2737 C 249.268 -0.410005 -2.27129 0
M  V30 2738 C 250.238 0.518405 -1.57803 0
M  V30 2739 O 251.423 0.439451 -1.8567 0
M  V30 2740 C 248.563 0.339054 -3.4343 0
M  V30 2741 C 247.676 -0.622468 -4.27492 0
M  V30 2742 C 246.811 0.145567 -5.31001 0
M  V30 2743 C 245.85 -0.809226 -6.06727 0
M  V30 2744 N 244.987 -0.0743728 -7.02061 0
M  V30 2745 H 249.827 -1.26011 -2.70047 0
M  V30 2746 H 247.364 -0.632663 -1.328 0
M  V30 2747 H 249.322 0.789586 -4.0966 0
M  V30 2748 H 247.952 1.15346 -3.01488 0
M  V30 2749 H 247.004 -1.19153 -3.61257 0
M  V30 2750 H 248.316 -1.35252 -4.80113 0
M  V30 2751 H 247.47 0.656417 -6.03139 0
M  V30 2752 H 246.209 0.908643 -4.79161 0
M  V30 2753 H 245.214 -1.3314 -5.33436 0
M  V30 2754 H 246.439 -1.57194 -6.60656 0
M  V30 2755 H 244.385 0.670616 -6.52563 0
M  V30 2756 H 244.302 -0.744157 -7.52329 0
M  V30 2757 H 245.57 0.416109 -7.78389 0
M  V30 2758 N 249.799 1.42003 -0.683588 0
M  V30 2759 C 250.746 2.30798 -0.0107309 0
M  V30 2760 C 251.716 1.4645 0.783688 0
M  V30 2761 O 252.901 1.75263 0.754156 0
M  V30 2762 C 250.041 3.3238 0.928306 0
M  V30 2763 C 249.154 4.31814 0.126776 0
M  V30 2764 C 248.289 5.20468 1.06236 0
M  V30 2765 C 247.328 6.11577 0.253035 0
M  V30 2766 N 246.465 6.92754 1.14179 0
M  V30 2767 H 251.305 2.8778 -0.773727 0
M  V30 2768 H 248.842 1.41745 -0.393283 0
M  V30 2769 H 250.8 3.89813 1.48666 0
M  V30 2770 H 249.43 2.76976 1.65783 0
M  V30 2771 H 248.482 3.76427 -0.54833 0
M  V30 2772 H 249.794 4.96276 -0.501192 0
M  V30 2773 H 248.948 5.82677 1.69035 0
M  V30 2774 H 247.687 4.56204 1.7242 0
M  V30 2775 H 246.692 5.48428 -0.388108 0
M  V30 2776 H 247.917 6.77892 -0.404839 0
M  V30 2777 H 245.863 6.3111 1.78987 0
M  V30 2778 H 245.78 7.53855 0.569111 0
M  V30 2779 H 247.048 7.59441 1.75697 0
M  V30 2780 N 251.277 0.427512 1.51691 0
M  V30 2781 C 252.224 -0.388867 2.275 0
M  V30 2782 C 253.194 -1.02532 1.30677 0
M  V30 2783 O 254.379 -1.0461 1.59566 0
M  V30 2784 C 251.519 -1.48954 3.11298 0
M  V30 2785 C 250.632 -0.872194 4.23104 0
M  V30 2786 C 249.767 -1.94709 4.94228 0
M  V30 2787 C 248.806 -1.30766 5.97969 0
M  V30 2788 N 247.943 -2.32349 6.62539 0
M  V30 2789 H 252.783 0.263997 2.96828 0
M  V30 2790 H 250.32 0.142033 1.46413 0
M  V30 2791 H 252.278 -2.13887 3.58201 0
M  V30 2792 H 250.908 -2.11217 2.44105 0
M  V30 2793 H 249.96 -0.111419 3.80237 0
M  V30 2794 H 251.272 -0.365264 4.97461 0
M  V30 2795 H 250.426 -2.67327 5.44629 0
M  V30 2796 H 249.165 -2.48773 4.1948 0
M  V30 2797 H 248.17 -0.566902 5.4687 0
M  V30 2798 H 249.395 -0.774483 6.74669 0
M  V30 2799 H 247.341 -2.85511 5.90609 0
M  V30 2800 H 247.258 -1.8652 7.3263 0
M  V30 2801 H 248.526 -3.04481 7.17574 0
M  V30 2802 N 252.755 -1.56801 0.158532 0
M  V30 2803 C 254.171 -1.5837 -0.197774 0
M  V30 2804 C 254.371 -1.17334 -1.63814 0
M  V30 2805 O 253.427 -0.878988 -2.36707 0
M  V30 2806 C 254.74 -3.00615 0.0714459 0
M  V30 2807 C 256.288 -3.12999 0.00864533 0
M  V30 2808 C 256.763 -4.57313 0.250685 0
M  V30 2809 N 258.254 -4.62777 0.198014 0
M  V30 2810 C 258.989 -5.72271 0.359642 0
M  V30 2811 N 258.485 -6.90371 0.579625 0
M  V30 2812 N 260.278 -5.61318 0.296438 0
M  V30 2813 H 252.429 -1.81765 1.09887 0
M  V30 2814 H 254.692 -0.841849 0.435884 0
M  V30 2815 H 254.398 -3.35068 1.06874 0
M  V30 2816 H 254.272 -3.71683 -0.642757 0
M  V30 2817 H 256.659 -2.7838 -0.979217 0
M  V30 2818 H 256.74 -2.44393 0.755359 0
M  V30 2819 H 256.384 -4.92639 1.2357 0
M  V30 2820 H 256.314 -5.24061 -0.516489 0
M  V30 2821 H 258.805 -3.77885 0.0331115 0
M  V30 2822 H 259.118 -7.69689 0.69275 0
M  V30 2823 H 257.463 -6.92264 0.616087 0
M  V30 2824 H 260.654 -4.67932 0.125258 0
M  V30 2825 H 260.827 -6.46599 0.425831 0
M  V30 2826 N 254.233 0.115231 -1.57178 0
M  V30 2827 C 255.143 1.15994 -2.03918 0
M  V30 2828 C 256.159 1.45103 -0.960268 0
M  V30 2829 O 257.335 1.56144 -1.27204 0
M  V30 2830 C 254.4 2.46568 -2.43732 0
M  V30 2831 C 253.461 2.24822 -3.65723 0
M  V30 2832 C 252.694 3.4917 -4.03629 0
M  V30 2833 O 252.917 4.56623 -3.41835 0
M  V30 2834 O 251.851 3.39949 -4.96708 0
M  V30 2835 H 255.677 0.793019 -2.93164 0
M  V30 2836 H 253.262 0.3263 -1.45793 0
M  V30 2837 H 255.144 3.23492 -2.70057 0
M  V30 2838 H 253.819 2.82726 -1.57631 0
M  V30 2839 H 252.726 1.45744 -3.44542 0
M  V30 2840 H 254.059 1.93566 -4.52541 0
M  V30 2841 N 255.711 1.52812 0.385517 0
M  V30 2842 C 256.658 1.77838 1.47113 0
M  V30 2843 C 257.628 0.621757 1.54024 0
M  V30 2844 O 258.813 0.861846 1.70226 0
M  V30 2845 C 255.953 1.95618 2.84302 0
M  V30 2846 C 255.066 3.23316 2.86515 0
M  V30 2847 C 254.201 3.31394 4.15152 0
M  V30 2848 C 253.24 4.53201 4.1143 0
M  V30 2849 N 252.377 4.58542 5.3168 0
M  V30 2850 H 257.217 2.70482 1.25073 0
M  V30 2851 H 254.754 1.34006 0.606692 0
M  V30 2852 H 256.712 2.03912 3.63972 0
M  V30 2853 H 255.342 1.06331 3.04784 0
M  V30 2854 H 254.394 3.24076 1.99195 0
M  V30 2855 H 255.706 4.13045 2.79634 0
M  V30 2856 H 254.86 3.3889 5.03228 0
M  V30 2857 H 253.599 2.39645 4.24761 0
M  V30 2858 H 252.604 4.45827 3.21742 0
M  V30 2859 H 253.829 5.46271 4.03442 0
M  V30 2860 H 251.775 3.69686 5.41912 0
M  V30 2861 H 251.692 5.42148 5.26889 0
M  V30 2862 H 252.96 4.70296 6.21644 0
M  V30 2863 N 257.189 -0.644168 1.43834 0
M  V30 2864 C 258.099 -1.78563 1.52159 0
M  V30 2865 C 259.115 -1.69147 0.408069 0
M  V30 2866 O 260.291 -1.90156 0.663524 0
M  V30 2867 C 257.356 -3.14888 1.45073 0
M  V30 2868 C 256.417 -3.36034 2.6717 0
M  V30 2869 C 255.65 -4.65855 2.60413 0
M  V30 2870 O 255.873 -5.45805 1.65689 0
M  V30 2871 O 254.807 -4.88918 3.5106 0
M  V30 2872 H 258.633 -1.74494 2.48567 0
M  V30 2873 H 256.218 -0.80378 1.25935 0
M  V30 2874 H 258.1 -3.96179 1.43597 0
M  V30 2875 H 256.775 -3.19528 0.518037 0
M  V30 2876 H 255.682 -2.54472 2.74217 0
M  V30 2877 H 257.015 -3.36247 3.59442 0
M  V30 2878 N 258.668 -1.30515 -0.883378 0
M  V30 2879 C 259.631 -1.1701 -1.97082 0
M  V30 2880 C 260.631 -0.10089 -1.60483 0
M  V30 2881 O 261.821 -0.349127 -1.70666 0
M  V30 2882 C 258.953 -0.793045 -3.31547 0
M  V30 2883 H 260.146 -2.13622 -2.10489 0
M  V30 2884 H 257.699 -1.13935 -1.06998 0
M  V30 2885 H 258.434 0.172499 -3.23841 0
M  V30 2886 H 258.219 -1.56576 -3.5948 0
M  V30 2887 H 259.709 -0.722073 -4.1131 0
M  V30 2888 N 260.146 1.09593 -1.13257 0
M  V30 2889 C 261.076 2.18214 -0.830946 0
M  V30 2890 C 262.057 1.68812 0.208966 0
M  V30 2891 O 263.242 1.9408 0.0682666 0
M  V30 2892 C 260.372 3.46051 -0.294296 0
M  V30 2893 C 259.326 4.08778 -1.26826 0
M  V30 2894 C 258.652 5.31419 -0.591449 0
M  V30 2895 C 259.952 4.51476 -2.62615 0
M  V30 2896 H 261.646 2.43703 -1.73923 0
M  V30 2897 H 259.192 1.17128 -0.837675 0
M  V30 2898 H 261.145 4.2134 -0.0709606 0
M  V30 2899 H 259.869 3.20079 0.649366 0
M  V30 2900 H 258.528 3.35505 -1.47756 0
M  V30 2901 H 258.176 5.01727 0.357633 0
M  V30 2902 H 257.876 5.74341 -1.24123 0
M  V30 2903 H 259.4 6.09433 -0.377355 0
M  V30 2904 H 260.814 5.17999 -2.45663 0
M  V30 2905 H 259.211 5.05277 -3.23752 0
M  V30 2906 H 260.281 3.63962 -3.20406 0
M  V30 2907 N 261.624 0.925811 1.2754 0
M  V30 2908 C 263.04 0.625767 1.46821 0
M  V30 2909 C 263.24 -0.825506 1.83814 0
M  V30 2910 O 262.296 -1.60356 1.95044 0
M  V30 2911 C 263.609 1.57402 2.56213 0
M  V30 2912 C 265.157 1.58204 2.70075 0
M  V30 2913 C 265.632 2.51721 3.82623 0
M  V30 2914 N 267.123 2.49917 3.89994 0
M  V30 2915 C 267.858 3.18968 4.76494 0
M  V30 2916 N 267.354 3.97391 5.67496 0
M  V30 2917 N 269.147 3.07996 4.70208 0
M  V30 2918 H 261.298 1.86409 1.01811 0
M  V30 2919 H 263.561 0.800213 0.508295 0
M  V30 2920 H 263.267 2.60925 2.35819 0
M  V30 2921 H 263.141 1.31428 3.53563 0
M  V30 2922 H 265.528 0.554124 2.89851 0
M  V30 2923 H 265.609 1.88226 1.73218 0
M  V30 2924 H 265.253 3.54622 3.63601 0
M  V30 2925 H 265.183 2.18996 4.78903 0
M  V30 2926 H 267.674 1.9296 3.24923 0
M  V30 2927 H 267.987 4.4707 6.30356 0
M  V30 2928 H 266.332 4.01495 5.67298 0
M  V30 2929 H 269.523 2.46223 3.9811 0
M  V30 2930 H 269.696 3.6208 5.37403 0
M  V30 2931 N 263.102 -1.41638 0.69111 0
M  V30 2932 C 264.034 -2.29194 -0.0161523 0
M  V30 2933 C 265.047 -1.44549 -0.748955 0
M  V30 2934 O 266.236 -1.681 -0.6004 0
M  V30 2935 C 263.336 -3.22325 -1.0469 0
M  V30 2936 C 262.509 -4.35706 -0.384621 0
M  V30 2937 C 261.568 -5.09443 -1.31737 0
M  V30 2938 O 260.594 -5.63386 -0.811451 0
M  V30 2939 N 261.796 -5.16487 -2.64993 0
M  V30 2940 H 264.561 -2.90534 0.735523 0
M  V30 2941 H 262.122 -1.52742 0.53679 0
M  V30 2942 H 264.114 -3.68522 -1.67252 0
M  V30 2943 H 262.684 -2.62323 -1.70015 0
M  V30 2944 H 261.904 -3.91948 0.420804 0
M  V30 2945 H 263.192 -5.08743 0.0760765 0
M  V30 2946 H 262.59 -4.741 -3.08619 0
M  V30 2947 H 261.147 -5.66276 -3.22761 0
M  V30 2948 N 264.58 -0.43555 -1.51462 0
M  V30 2949 C 265.543 0.365137 -2.26273 0
M  V30 2950 C 266.543 0.951227 -1.29647 0
M  V30 2951 O 267.733 0.825958 -1.53374 0
M  V30 2952 C 264.865 1.51645 -3.05314 0
M  V30 2953 H 266.058 -0.290474 -2.9849 0
M  V30 2954 H 263.611 -0.188676 -1.55157 0
M  V30 2955 H 264.346 2.20816 -2.3751 0
M  V30 2956 H 264.131 1.10238 -3.76284 0
M  V30 2957 H 265.621 2.08218 -3.61987 0
M  V30 2958 N 266.058 1.56714 -0.166846 0
M  V30 2959 C 267.283 2.01557 0.488833 0
M  V30 2960 C 267.708 1.0463 1.56314 0
M  V30 2961 O 267.066 0.0251304 1.81283 0
M  V30 2962 C 267.114 3.4503 1.04818 0
M  V30 2963 O 266.218 3.51163 2.16236 0
M  V30 2964 H 265.559 0.653516 0.117526 0
M  V30 2965 H 268.089 2.02818 -0.269421 0
M  V30 2966 H 268.099 3.84243 1.37191 0
M  V30 2967 H 266.774 4.15077 0.261572 0
M  V30 2968 H 265.351 3.23807 1.84942 0
M  V30 2969 N 267.536 -0.106894 1.57237 0
M  V30 2970 C 268.813 -0.843526 1.76477 0
M  V30 2971 C 269.193 -1.97499 0.745464 0
M  V30 2972 O 268.541 -2.27357 -0.228306 0
M  V30 2973 C 268.751 -1.34903 3.21873 0
M  V30 2974 C 270.099 -1.79654 3.8472 0
M  V30 2975 O 271.123 -1.44554 3.2555 0
M  V30 2976 O 269.982 -2.44515 4.88748 0
M  V30 2977 H 267.076 -0.401468 0.723016 0
M  V30 2978 H 269.622 -0.0896927 1.69463 0
M  V30 2979 H 268.394 -0.53781 3.87586 0
M  V30 2980 H 268.017 -2.16522 3.33473 0
M  V30 2981 N 269.014 -1.53014 -0.377408 0
M  V30 2982 C 269.961 -1.78616 -1.46168 0
M  V30 2983 C 270.931 -0.629917 -1.53692 0
M  V30 2984 O 272.116 -0.870861 -1.69766 0
M  V30 2985 C 269.256 -1.97123 -2.8326 0
M  V30 2986 C 268.369 -3.24831 -2.84796 0
M  V30 2987 C 267.504 -3.33591 -4.13389 0
M  V30 2988 C 266.543 -4.55377 -4.09021 0
M  V30 2989 N 265.68 -4.61355 -5.29241 0
M  V30 2990 H 270.52 -2.71142 -1.23637 0
M  V30 2991 H 268.057 -1.34326 -0.599577 0
M  V30 2992 H 270.015 -2.05839 -3.62886 0
M  V30 2993 H 268.645 -1.07946 -3.04216 0
M  V30 2994 H 267.697 -3.25128 -1.97474 0
M  V30 2995 H 269.009 -4.14523 -2.77439 0
M  V30 2996 H 268.163 -3.41554 -5.01424 0
M  V30 2997 H 266.902 -2.41894 -4.23484 0
M  V30 2998 H 265.907 -4.47527 -3.19373 0
M  V30 2999 H 267.132 -5.48402 -4.00539 0
M  V30 3000 H 265.078 -3.72554 -5.39944 0
M  V30 3001 H 264.995 -5.44935 -5.24006 0
M  V30 3002 H 266.263 -4.73586 -6.19141 0
M  V30 3003 N 270.492 0.636531 -1.44174 0
M  V30 3004 C 271.769 1.39463 -1.37148 0
M  V30 3005 C 272.149 2.11082 -0.027507 0
M  V30 3006 O 271.497 2.05954 0.989716 0
M  V30 3007 C 271.707 2.36552 -2.56601 0
M  V30 3008 C 273.055 3.00048 -3.00427 0
M  V30 3009 O 274.079 2.46878 -2.56767 0
M  V30 3010 O 272.938 3.96488 -3.76111 0
M  V30 3011 H 270.032 0.623903 -0.542839 0
M  V30 3012 H 272.578 0.662039 -1.56253 0
M  V30 3013 H 271.35 1.82692 -3.46034 0
M  V30 3014 H 270.973 3.17236 -2.39681 0
M  V30 3015 N 271.97 1.30982 0.876444 0
M  V30 3016 C 273.247 1.10942 1.61094 0
M  V30 3017 C 273.627 -0.338223 2.08373 0
M  V30 3018 O 272.975 -1.33122 1.85717 0
M  V30 3019 C 273.185 2.11789 2.77392 0
M  V30 3020 C 274.533 2.43965 3.47514 0
M  V30 3021 O 275.557 2.10166 2.87591 0
M  V30 3022 O 274.416 3.01817 4.55597 0
M  V30 3023 H 271.51 0.42667 0.708436 0
M  V30 3024 H 274.056 1.42438 0.922474 0
M  V30 3025 H 272.828 3.09194 2.39823 0
M  V30 3026 H 272.451 1.81161 3.5393 0
M  V30 3027 N 273.449 -1.08991 1.13837 0
M  V30 3028 C 274.865 -1.33312 0.877506 0
M  V30 3029 C 275.065 -1.95587 -0.48456 0
M  V30 3030 O 274.121 -2.20509 -1.23013 0
M  V30 3031 C 275.434 -2.24045 2.0056 0
M  V30 3032 C 276.982 -2.37542 2.03821 0
M  V30 3033 C 277.457 -3.31614 3.15905 0
M  V30 3034 N 278.948 -3.39189 3.15445 0
M  V30 3035 C 279.683 -4.11992 3.98811 0
M  V30 3036 N 279.179 -4.87553 4.92203 0
M  V30 3037 N 280.972 -4.07762 3.86894 0
M  V30 3038 H 273.123 -0.669456 2.01574 0
M  V30 3039 H 275.386 -0.357482 0.878015 0
M  V30 3040 H 275.092 -1.85521 2.98789 0
M  V30 3041 H 274.966 -3.24466 1.92359 0
M  V30 3042 H 277.353 -2.75327 1.06202 0
M  V30 3043 H 277.434 -1.36884 2.16093 0
M  V30 3044 H 277.078 -2.94551 4.13766 0
M  V30 3045 H 277.008 -4.32186 3.0087 0
M  V30 3046 H 279.499 -2.85314 2.47799 0
M  V30 3047 H 279.812 -5.40549 5.52292 0
M  V30 3048 H 278.157 -4.86627 4.96205 0
M  V30 3049 H 281.348 -3.47833 3.13257 0
M  V30 3050 H 281.521 -4.64238 4.52092 0
M  V30 3051 N 274.927 -0.932562 -1.27047 0
M  V30 3052 C 276.338 -0.619451 -1.76124 0
M  V30 3053 C 276.689 0.865397 -1.76083 0
M  V30 3054 O 275.814 1.67722 -1.36742 0
M  V30 3055 C 276.409 -1.11771 -3.19832 0
M  V30 3056 C 274.968 -0.855174 -3.66557 0
M  V30 3057 C 274.115 -1.27362 -2.46321 0
M  V30 3058 H 277.066 -1.11181 -1.13245 0
M  V30 3059 H 277.087 -0.46759 -3.77616 0
M  V30 3060 H 276.599 -2.19842 -3.1983 0
M  V30 3061 H 274.7 0.211524 -3.71999 0
M  V30 3062 H 274.813 -1.47613 -4.55793 0
M  V30 3063 H 273.177 -0.692119 -2.45116 0
M  V30 3064 H 273.96 -2.36307 -2.49025 0
M  V30 3065 N 276.405 1.4127 -0.698611 0
M  V30 3066 C 277.652 2.0118 -0.230865 0
M  V30 3067 C 277.98 1.55338 1.17049 0
M  V30 3068 O 277.235 0.756775 1.80475 0
M  V30 3069 C 277.534 3.56592 -0.240192 0
M  V30 3070 C 277.2 4.21955 -1.58948 0
M  V30 3071 C 275.862 4.39524 -1.95887 0
M  V30 3072 C 278.214 4.58576 -2.47704 0
M  V30 3073 C 275.542 4.90992 -3.2116 0
M  V30 3074 C 277.894 5.11435 -3.72313 0
M  V30 3075 C 276.558 5.27215 -4.0939 0
M  V30 3076 H 275.828 0.736169 -0.0844796 0
M  V30 3077 H 278.475 1.69124 -0.8983 0
M  V30 3078 H 276.78 3.88456 0.510797 0
M  V30 3079 H 278.477 4.00758 0.139296 0
M  V30 3080 H 275.067 4.08657 -1.29219 0
M  V30 3081 H 279.251 4.44654 -2.20445 0
M  V30 3082 H 274.507 5.01393 -3.49878 0
M  V30 3083 H 278.681 5.38752 -4.4127 0
M  V30 3084 H 276.308 5.66859 -5.06533 0
M  V30 3085 N 277.883 0.443576 1.51229 0
M  V30 3086 C 278.815 -0.400608 2.25672 0
M  V30 3087 C 279.828 -0.980945 1.29928 0
M  V30 3088 O 281.017 -0.874024 1.55638 0
M  V30 3089 C 278.117 -1.57304 3.00181 0
M  V30 3090 C 277.29 -1.11046 4.23069 0
M  V30 3091 C 276.349 -2.15374 4.80105 0
M  V30 3092 O 275.375 -1.74554 5.41774 0
M  V30 3093 N 276.577 -3.47922 4.64683 0
M  V30 3094 H 279.342 0.23745 2.98758 0
M  V30 3095 H 276.903 0.272809 1.59585 0
M  V30 3096 H 278.895 -2.26733 3.35223 0
M  V30 3097 H 277.465 -2.11632 2.30066 0
M  V30 3098 H 276.685 -0.243019 3.9345 0
M  V30 3099 H 277.973 -0.778888 5.02803 0
M  V30 3100 H 277.371 -3.83815 4.15575 0
M  V30 3101 H 275.928 -4.13228 5.0407 0
M  V30 3102 N 279.361 -1.56624 0.175154 0
M  V30 3103 C 280.609 -1.96609 -0.467885 0
M  V30 3104 C 280.93 -1.06238 -1.63519 0
M  V30 3105 O 280.2 -0.129523 -1.95471 0
M  V30 3106 H 278.78 -0.726008 -0.175845 0
M  V30 3107 H 281.442 -1.93195 0.257234 0
M  V30 3108 H 280.538 -3.00989 -0.825342 0
M  V30 3109 N 280.839 0.0985539 -1.57292 0
M  V30 3110 C 281.749 1.13824 -2.05137 0
M  V30 3111 C 282.765 1.44076 -0.975604 0
M  V30 3112 O 283.941 1.54786 -1.28853 0
M  V30 3113 C 281.006 2.43969 -2.46333 0
M  V30 3114 C 280.067 2.2093 -3.68087 0
M  V30 3115 C 279.3 3.44869 -4.0731 0
M  V30 3116 O 279.523 4.52972 -3.46659 0
M  V30 3117 O 278.457 3.34661 -5.00285 0
M  V30 3118 H 282.283 0.761881 -2.93988 0
M  V30 3119 H 279.868 0.310818 -1.46131 0
M  V30 3120 H 281.75 3.20609 -2.73473 0
M  V30 3121 H 280.425 2.81038 -1.60621 0
M  V30 3122 H 279.332 1.42081 -3.46069 0
M  V30 3123 H 280.665 1.88755 -4.54568 0
M  V30 3124 N 282.317 1.53212 0.369288 0
M  V30 3125 C 283.594 1.59815 1.12776 0
M  V30 3126 C 283.974 0.403402 2.0721 0
M  V30 3127 O 283.322 -0.606667 2.20299 0
M  V30 3128 C 283.532 2.94664 1.87013 0
M  V30 3129 C 284.88 3.49109 2.41677 0
M  V30 3130 O 285.904 2.96669 1.97144 0
M  V30 3131 O 284.763 4.40775 3.23079 0
M  V30 3132 H 281.857 0.645376 0.517125 0
M  V30 3133 H 284.403 1.65553 0.37285 0
M  V30 3134 H 283.175 3.73061 1.18071 0
M  V30 3135 H 282.798 2.92401 2.69421 0
M  V30 3136 N 283.795 -0.628877 1.44509 0
M  V30 3137 C 285.041 -1.39045 1.47629 0
M  V30 3138 C 285.374 -1.93892 0.109343 0
M  V30 3139 O 284.649 -1.7379 -0.87334 0
M  V30 3140 C 284.932 -2.55408 2.53848 0
M  V30 3141 C 284.785 -2.05896 3.99909 0
M  V30 3142 C 286.104 -3.5759 2.56549 0
M  V30 3143 H 283.223 -0.504232 0.537512 0
M  V30 3144 H 285.865 -0.710854 1.76201 0
M  V30 3145 H 284.015 -3.13384 2.29615 0
M  V30 3146 H 285.687 -1.52734 4.35282 0
M  V30 3147 H 283.93 -1.37061 4.11578 0
M  V30 3148 H 284.601 -2.89681 4.69882 0
M  V30 3149 H 287.077 -3.09419 2.78207 0
M  V30 3150 H 285.953 -4.36527 3.32769 0
M  V30 3151 H 286.214 -4.11808 1.60832 0
M  V30 3152 N 285.273 -1.31445 -0.869486 0
M  V30 3153 C 286.183 -1.21097 -2.0093 0
M  V30 3154 C 287.199 -0.127584 -1.73532 0
M  V30 3155 O 288.375 -0.345477 -1.98415 0
M  V30 3156 C 285.44 -0.919378 -3.34288 0
M  V30 3157 C 284.501 -2.08971 -3.75006 0
M  V30 3158 C 283.734 -1.81194 -5.02001 0
M  V30 3159 O 283.957 -0.747296 -5.65484 0
M  V30 3160 O 282.891 -2.66883 -5.39497 0
M  V30 3161 H 286.717 -2.16883 -2.12592 0
M  V30 3162 H 284.302 -1.11189 -0.997868 0
M  V30 3163 H 286.184 -0.772625 -4.14257 0
M  V30 3164 H 284.859 0.00844772 -3.23699 0
M  V30 3165 H 283.766 -2.29187 -2.95676 0
M  V30 3166 H 285.099 -2.9998 -3.90221 0
M  V30 3167 N 286.751 1.08385 -1.14413 0
M  V30 3168 C 287.699 2.17406 -0.826888 0
M  V30 3169 C 288.693 1.6827 0.195312 0
M  V30 3170 O 289.899 1.79927 0.0513892 0
M  V30 3171 H 286.274 0.70934 -0.249681 0
M  V30 3172 H 288.245 2.41388 -1.75426 0
M  V30 3173 C 286.994 3.46215 -0.320979 0
M  V30 3174 H 286.317 3.84401 -1.0989 0
M  V30 3175 H 287.757 4.23777 -0.137549 0
M  V30 3176 C 286.216 3.23067 0.955472 0
M  V30 3177 O 286.746 3.4668 2.02918 0
M  V30 3178 N 284.952 2.7661 0.890798 0
M  V30 3179 H 284.499 2.57594 0.0168815 0
M  V30 3180 H 284.457 2.61501 1.74542 0
M  V30 3181 N 288.23 0.939286 1.26551 0
M  V30 3182 C 289.455 0.602008 1.98471 0
M  V30 3183 C 289.88 -0.815624 1.69497 0
M  V30 3184 O 289.238 -1.54912 0.941905 0
M  V30 3185 C 289.286 0.848407 3.50477 0
M  V30 3186 O 288.39 -0.0804009 4.12322 0
M  V30 3187 H 287.731 0.23049 0.622712 0
M  V30 3188 H 290.261 1.2617 1.61066 0
M  V30 3189 H 290.271 0.768553 4.00696 0
M  V30 3190 H 288.946 1.88171 3.70897 0
M  V30 3191 H 287.523 0.0503508 3.72866 0
M  V30 3192 N 289.708 -1.40897 0.706093 0
M  V30 3193 C 291.124 -1.55042 0.37869 0
M  V30 3194 C 291.324 -1.67944 -1.11342 0
M  V30 3195 O 290.38 -1.66372 -1.89938 0
M  V30 3196 C 291.693 -2.78398 1.13643 0
M  V30 3197 C 293.241 -2.92206 1.12181 0
M  V30 3198 C 293.716 -4.18463 1.86152 0
M  V30 3199 N 295.207 -4.25443 1.83173 0
M  V30 3200 C 295.942 -5.2202 2.37239 0
M  V30 3201 N 295.438 -6.24563 2.99821 0
M  V30 3202 N 297.231 -5.14033 2.27435 0
M  V30 3203 H 289.382 -1.30769 1.67372 0
M  V30 3204 H 291.645 -0.631653 0.706907 0
M  V30 3205 H 291.351 -2.7511 2.19106 0
M  V30 3206 H 291.225 -3.70228 0.721853 0
M  V30 3207 H 293.612 -2.95004 0.0754171 0
M  V30 3208 H 293.693 -2.01521 1.57554 0
M  V30 3209 H 293.337 -4.16427 2.90776 0
M  V30 3210 H 293.267 -5.08141 1.38206 0
M  V30 3211 H 295.758 -3.51976 1.37556 0
M  V30 3212 H 296.071 -6.94665 3.38616 0
M  V30 3213 H 294.416 -6.25035 3.03902 0
M  V30 3214 H 297.607 -4.3285 1.78208 0
M  V30 3215 H 297.78 -5.89129 2.69873 0
M  V30 3216 N 291.186 -0.45159 -1.50991 0
M  V30 3217 C 292.116 0.342898 -2.30969 0
M  V30 3218 C 293.097 1.00815 -1.37005 0
M  V30 3219 O 294.282 1.00907 -1.65926 0
M  V30 3220 C 291.412 1.43637 -3.16205 0
M  V30 3221 C 290.366 0.893818 -4.18563 0
M  V30 3222 C 289.692 2.08411 -4.92411 0
M  V30 3223 C 290.992 -0.0815568 -5.22236 0
M  V30 3224 H 292.686 -0.324556 -2.97636 0
M  V30 3225 H 290.232 -0.157531 -1.43136 0
M  V30 3226 H 292.185 1.9995 -3.70942 0
M  V30 3227 H 290.909 2.13232 -2.47386 0
M  V30 3228 H 289.568 0.352798 -3.64898 0
M  V30 3229 H 289.216 2.76658 -4.20082 0
M  V30 3230 H 288.916 1.72741 -5.61636 0
M  V30 3231 H 290.44 2.65251 -5.49976 0
M  V30 3232 H 291.854 0.391742 -5.7196 0
M  V30 3233 H 290.251 -0.351551 -5.99069 0
M  V30 3234 H 291.321 -1.01374 -4.74185 0
M  V30 3235 N 292.664 1.56529 -0.183458 0
M  V30 3236 C 293.627 2.17324 0.728223 0
M  V30 3237 C 294.627 1.12453 1.14939 0
M  V30 3238 O 295.817 1.37902 1.06437 0
M  V30 3239 C 292.949 2.76591 1.99274 0
M  V30 3240 H 294.142 2.99241 0.198772 0
M  V30 3241 H 291.695 1.5616 0.0661391 0
M  V30 3242 H 292.43 1.98441 2.56499 0
M  V30 3243 H 292.215 3.5335 1.69959 0
M  V30 3244 H 293.705 3.23311 2.6431 0
M  V30 3245 N 294.142 -0.090211 1.57342 0
M  V30 3246 C 295.105 -1.09335 2.01441 0
M  V30 3247 C 296.105 -1.32666 0.908641 0
M  V30 3248 O 297.295 -1.28697 1.174 0
M  V30 3249 C 294.427 -2.44136 2.3793 0
M  V30 3250 H 295.62 -0.713662 2.91285 0
M  V30 3251 H 293.173 -0.335404 1.52659 0
M  V30 3252 H 293.908 -2.86972 1.51055 0
M  V30 3253 H 293.693 -2.28548 3.18603 0
M  V30 3254 H 295.183 -3.16277 2.72688 0
M  V30 3255 N 295.62 -1.53406 -0.361157 0
M  V30 3256 C 296.53 -1.83122 -1.4664 0
M  V30 3257 C 297.546 -0.719943 -1.58407 0
M  V30 3258 O 298.722 -1.01046 -1.74218 0
M  V30 3259 C 295.787 -2.01891 -2.81853 0
M  V30 3260 C 294.848 -3.25784 -2.79577 0
M  V30 3261 C 294.081 -3.43648 -4.0834 0
M  V30 3262 O 294.304 -2.65714 -5.0473 0
M  V30 3263 O 293.238 -4.37018 -4.13883 0
M  V30 3264 H 297.064 -2.7703 -1.24451 0
M  V30 3265 H 294.649 -1.38841 -0.551678 0
M  V30 3266 H 296.531 -2.15782 -3.61962 0
M  V30 3267 H 295.206 -1.11173 -3.0401 0
M  V30 3268 H 294.113 -3.17312 -1.98151 0
M  V30 3269 H 295.446 -4.16439 -2.62373 0
M  V30 3270 N 297.098 0.621204 -1.44841 0
M  V30 3271 C 298.344 1.3826 -1.48365 0
M  V30 3272 C 298.677 1.93831 -0.119624 0
M  V30 3273 O 297.952 1.74251 0.864111 0
M  V30 3274 C 298.235 2.54058 -2.55199 0
M  V30 3275 C 298.088 2.03772 -4.00995 0
M  V30 3276 C 299.407 3.56225 -2.58442 0
M  V30 3277 H 296.526 0.501374 -0.540179 0
M  V30 3278 H 299.168 0.7015 -1.76576 0
M  V30 3279 H 297.318 3.12162 -2.31274 0
M  V30 3280 H 298.99 1.50423 -4.36086 0
M  V30 3281 H 297.233 1.34876 -4.12299 0
M  V30 3282 H 297.904 2.87185 -4.71411 0
M  V30 3283 H 300.38 3.07939 -2.79844 0
M  V30 3284 H 299.256 4.34756 -3.3508 0
M  V30 3285 H 299.517 4.10949 -1.63013 0
M  V30 3286 N 298.576 1.31904 0.862503 0
M  V30 3287 C 299.806 1.24817 1.64634 0
M  V30 3288 C 300.214 -0.187579 1.88268 0
M  V30 3289 O 299.557 -1.13253 1.44635 0
M  V30 3290 C 299.619 1.92996 3.03303 0
M  V30 3291 C 299.283 3.42336 3.02746 0
M  V30 3292 C 300.28 4.37956 2.80162 0
M  V30 3293 C 297.965 3.84147 3.2363 0
M  V30 3294 C 299.959 5.73361 2.78453 0
M  V30 3295 C 297.646 5.19663 3.21549 0
M  V30 3296 C 298.644 6.14081 2.98988 0
M  V30 3297 O 298.332 7.47118 2.96766 0
M  V30 3298 H 298.064 0.432222 0.519769 0
M  V30 3299 H 300.618 1.7445 1.08427 0
M  V30 3300 H 298.848 1.37922 3.61268 0
M  V30 3301 H 300.537 1.79723 3.63943 0
M  V30 3302 H 301.303 4.06981 2.63802 0
M  V30 3303 H 297.182 3.11083 3.40218 0
M  V30 3304 H 300.726 6.4703 2.60763 0
M  V30 3305 H 296.623 5.5027 3.37451 0
M  V30 3306 H 297.391 7.56382 3.12775 0
M  V30 3307 N 300.054 -1.07777 1.14986 0
M  V30 3308 C 301.001 -2.14867 0.842672 0
M  V30 3309 C 301.971 -1.6486 -0.202552 0
M  V30 3310 O 303.156 -1.90668 -0.0710568 0
M  V30 3311 C 300.296 -3.43486 0.333363 0
M  V30 3312 C 299.409 -4.07306 1.43965 0
M  V30 3313 C 298.544 -5.23744 0.886914 0
M  V30 3314 C 297.583 -5.79517 1.97043 0
M  V30 3315 N 296.72 -6.87291 1.4344 0
M  V30 3316 H 301.56 -2.40485 1.75986 0
M  V30 3317 H 299.097 -1.1801 0.878179 0
M  V30 3318 H 301.055 -4.17195 0.0198163 0
M  V30 3319 H 299.685 -3.18133 -0.546916 0
M  V30 3320 H 298.737 -3.31293 1.86946 0
M  V30 3321 H 300.049 -4.44771 2.25788 0
M  V30 3322 H 299.203 -6.04419 0.525651 0
M  V30 3323 H 297.942 -4.87685 0.0377957 0
M  V30 3324 H 296.947 -4.97491 2.34057 0
M  V30 3325 H 298.172 -6.17632 2.82325 0
M  V30 3326 H 296.118 -6.5318 0.607567 0
M  V30 3327 H 296.035 -7.23617 2.18895 0
M  V30 3328 H 297.303 -7.71682 1.10124 0
M  V30 3329 N 301.532 -0.945985 -1.26051 0
M  V30 3330 C 302.809 -0.513816 -1.88731 0
M  V30 3331 C 303.189 1.00872 -1.8544 0
M  V30 3332 O 302.537 1.8708 -1.312 0
M  V30 3333 C 302.747 -1.08062 -3.31849 0
M  V30 3334 C 304.095 -1.1522 -4.08668 0
M  V30 3335 O 305.119 -1.03155 -3.40936 0
M  V30 3336 O 303.978 -1.34044 -5.29806 0
M  V30 3337 H 301.072 -0.168193 -0.809716 0
M  V30 3338 H 303.618 -1.03886 -1.34186 0
M  V30 3339 H 302.39 -2.1241 -3.2863 0
M  V30 3340 H 302.013 -0.538307 -3.93939 0
M  V30 3341 N 303.011 1.40521 -0.713556 0
M  V30 3342 C 303.944 2.28198 -0.00881422 0
M  V30 3343 C 304.922 1.43227 0.769735 0
M  V30 3344 O 306.106 1.72641 0.756799 0
M  V30 3345 C 303.233 3.23758 0.994899 0
M  V30 3346 C 302.279 4.25391 0.3074 0
M  V30 3347 S 303.112 5.26765 -0.963247 0
M  V30 3348 C 304.268 6.25888 0.0384143 0
M  V30 3349 H 304.501 2.87622 -0.752407 0
M  V30 3350 H 302.034 1.45925 -0.504502 0
M  V30 3351 H 303.992 3.79341 1.56879 0
M  V30 3352 H 302.653 2.63396 1.71118 0
M  V30 3353 H 301.846 4.92596 1.0661 0
M  V30 3354 H 301.448 3.73497 -0.193879 0
M  V30 3355 H 303.74 6.71683 0.885912 0
M  V30 3356 H 304.683 7.05552 -0.60019 0
M  V30 3357 H 305.091 5.63072 0.401233 0
M  V30 3358 N 304.489 0.459591 1.5075 0
M  V30 3359 C 305.9 0.00171547 1.867 0
M  V30 3360 C 306.251 -1.39934 1.37525 0
M  V30 3361 O 305.376 -2.03523 0.735349 0
M  V30 3362 C 305.971 -0.00366298 3.388 0
M  V30 3363 C 304.53 -0.406026 3.74204 0
M  V30 3364 C 303.677 0.38673 2.7459 0
M  V30 3365 H 306.628 0.674413 1.43657 0
M  V30 3366 H 306.649 -0.808371 3.71814 0
M  V30 3367 H 306.161 1.01617 3.74561 0
M  V30 3368 H 304.262 -1.43063 3.4404 0
M  V30 3369 H 304.375 -0.115362 4.78961 0
M  V30 3370 H 302.739 -0.158019 2.54209 0
M  V30 3371 H 303.522 1.40585 3.13194 0
M  V30 3372 N 305.967 -1.56429 0.191757 0
M  V30 3373 C 306.877 -2.22541 -0.742481 0
M  V30 3374 C 307.893 -1.22342 -1.23727 0
M  V30 3375 O 309.069 -1.55069 -1.28513 0
M  V30 3376 C 306.134 -2.8692 -1.94623 0
M  V30 3377 C 305.195 -4.02378 -1.49633 0
M  V30 3378 C 304.428 -4.63678 -2.6427 0
M  V30 3379 O 304.651 -4.23895 -3.81666 0
M  V30 3380 O 303.585 -5.53202 -2.37174 0
M  V30 3381 H 307.411 -3.02977 -0.209462 0
M  V30 3382 H 304.996 -1.49353 -0.0373832 0
M  V30 3383 H 306.878 -3.27663 -2.64982 0
M  V30 3384 H 305.553 -2.09466 -2.46791 0
M  V30 3385 H 304.46 -3.66265 -0.761636 0
M  V30 3386 H 305.793 -4.81487 -1.02134 0
M  V30 3387 N 307.445 0.0818655 -1.57387 0
M  V30 3388 C 308.673 0.796108 -1.9097 0
M  V30 3389 C 309.088 1.71626 -0.786757 0
M  V30 3390 O 308.445 1.80908 0.240513 0
M  V30 3391 C 308.496 1.59829 -3.24248 0
M  V30 3392 O 308.217 0.715131 -4.32224 0
M  V30 3393 C 309.718 2.41442 -3.7178 0
M  V30 3394 H 306.938 0.22691 -0.631469 0
M  V30 3395 H 309.482 0.0551439 -2.04426 0
M  V30 3396 H 307.637 2.29163 -3.12351 0
M  V30 3397 H 308.051 1.27205 -5.08841 0
M  V30 3398 H 309.525 2.932 -4.67694 0
M  V30 3399 H 310.002 3.2051 -3.00283 0
M  V30 3400 H 310.608 1.77283 -3.86589 0
M  V30 3401 N 308.923 1.53595 0.353017 0
M  V30 3402 C 310.148 1.7462 1.11904 0
M  V30 3403 C 310.573 0.479721 1.8188 0
M  V30 3404 O 309.931 -0.567066 1.72204 0
M  V30 3405 C 309.979 2.92029 2.11545 0
M  V30 3406 O 309.083 2.61516 3.18878 0
M  V30 3407 H 308.424 0.579531 0.324099 0
M  V30 3408 H 310.954 2.00525 0.406301 0
M  V30 3409 H 310.964 3.18551 2.5493 0
M  V30 3410 H 309.639 3.83888 1.60008 0
M  V30 3411 H 308.216 2.45852 2.80377 0
M  V30 3412 N 310.401 -0.613514 1.45168 0
M  V30 3413 C 311.648 -1.37268 1.48875 0
M  V30 3414 C 311.976 -1.94077 0.128161 0
M  V30 3415 O 311.231 -1.75178 -0.872416 0
M  V30 3416 C 311.53 -2.54347 2.51083 0
M  V30 3417 C 311.196 -2.1572 3.95949 0
M  V30 3418 C 309.858 -2.04899 4.35396 0
M  V30 3419 C 312.21 -1.85485 4.87078 0
M  V30 3420 C 309.538 -1.62057 5.63875 0
M  V30 3421 C 311.89 -1.4413 6.15962 0
M  V30 3422 C 310.554 -1.31863 6.54346 0
M  V30 3423 H 309.824 -0.502299 0.544773 0
M  V30 3424 H 312.471 -0.694021 1.78481 0
M  V30 3425 H 310.776 -3.27524 2.15024 0
M  V30 3426 H 312.473 -3.12577 2.51191 0
M  V30 3427 H 309.063 -2.25066 3.64751 0
M  V30 3428 H 313.247 -1.92745 4.57343 0
M  V30 3429 H 308.503 -1.51177 5.92415 0
M  V30 3430 H 312.677 -1.19778 6.86022 0
M  V30 3431 H 310.304 -0.984392 7.538 0
M  V30 3432 N 311.879 -1.3236 -0.855495 0
M  V30 3433 C 313.107 -1.2587 -1.64208 0
M  V30 3434 C 313.522 0.173457 -1.88002 0
M  V30 3435 O 312.879 1.11027 -1.44842 0
M  V30 3436 C 312.93 -2.01424 -3.00184 0
M  V30 3437 O 312.651 -3.39051 -2.77445 0
M  V30 3438 C 314.152 -2.01948 -3.94629 0
M  V30 3439 H 311.372 -0.434318 -0.511477 0
M  V30 3440 H 313.916 -1.74469 -1.0668 0
M  V30 3441 H 312.071 -1.56549 -3.5436 0
M  V30 3442 H 312.485 -3.77711 -3.63916 0
M  V30 3443 H 313.959 -2.59297 -4.87308 0
M  V30 3444 H 314.436 -1.00554 -4.27534 0
M  V30 3445 H 315.042 -2.46767 -3.4639 0
M  V30 3446 N 313.357 1.07166 -1.15556 0
M  V30 3447 C 314.773 1.31899 -0.898603 0
M  V30 3448 C 314.973 1.96333 0.453383 0
M  V30 3449 O 314.029 2.22438 1.19489 0
M  V30 3450 C 315.342 2.20826 -2.04099 0
M  V30 3451 C 316.89 2.34269 -2.07574 0
M  V30 3452 C 317.365 3.26546 -3.21141 0
M  V30 3453 N 318.856 3.34127 -3.20801 0
M  V30 3454 C 319.591 4.05595 -4.05315 0
M  V30 3455 N 319.087 4.79661 -4.99897 0
M  V30 3456 N 320.88 4.01555 -3.93332 0
M  V30 3457 H 313.031 0.637302 -2.02613 0
M  V30 3458 H 315.294 0.343468 -0.883591 0
M  V30 3459 H 315 1.80744 -3.01703 0
M  V30 3460 H 314.874 3.21364 -1.97496 0
M  V30 3461 H 317.261 2.73603 -1.10568 0
M  V30 3462 H 317.342 1.33429 -2.18244 0
M  V30 3463 H 316.986 2.87931 -4.184 0
M  V30 3464 H 316.916 4.27345 -3.07708 0
M  V30 3465 H 319.407 2.81336 -2.52306 0
M  V30 3466 H 319.72 5.31694 -5.60822 0
M  V30 3467 H 318.065 4.78671 -5.03884 0
M  V30 3468 H 321.256 3.42806 -3.18751 0
M  V30 3469 H 321.429 4.56987 -4.5942 0
M  V30 3470 N 314.835 0.952656 1.25548 0
M  V30 3471 C 316.063 0.623496 1.97282 0
M  V30 3472 C 316.478 -0.803987 1.70826 0
M  V30 3473 O 315.835 -1.53755 0.983147 0
M  V30 3474 C 315.886 0.870209 3.5087 0
M  V30 3475 O 315.607 2.24156 3.76412 0
M  V30 3476 C 317.108 0.553164 4.39835 0
M  V30 3477 H 314.328 0.233931 0.628902 0
M  V30 3478 H 316.872 1.27649 1.59768 0
M  V30 3479 H 315.027 0.263652 3.86502 0
M  V30 3480 H 315.441 2.31021 4.70882 0
M  V30 3481 H 316.915 0.776342 5.46513 0
M  V30 3482 H 317.392 -0.512215 4.36203 0
M  V30 3483 H 317.998 1.13896 4.09766 0
M  V30 3484 N 316.313 -1.40141 0.720998 0
M  V30 3485 C 317.562 -2.0002 0.259804 0
M  V30 3486 C 317.875 -1.57839 -1.15526 0
M  V30 3487 O 319.081 -2.10455 -1.71525 0
M  V30 3488 C 317.537 -3.57516 0.413566 0
M  V30 3489 C 317.145 -4.08667 1.83562 0
M  V30 3490 C 318.889 -4.24498 0.0134387 0
M  V30 3491 C 316.796 -5.58686 1.93968 0
M  V30 3492 H 315.726 -0.748195 0.0933806 0
M  V30 3493 H 318.377 -1.60313 0.892866 0
M  V30 3494 H 316.759 -3.9495 -0.288169 0
M  V30 3495 H 317.933 -3.82598 2.56817 0
M  V30 3496 H 316.248 -3.543 2.1877 0
M  V30 3497 H 318.845 -5.34654 0.0703954 0
M  V30 3498 H 319.188 -4.03375 -1.02927 0
M  V30 3499 H 319.721 -3.92188 0.665815 0
M  V30 3500 H 316.46 -5.8467 2.96379 0
M  V30 3501 H 315.98 -5.86602 1.25131 0
M  V30 3502 H 317.659 -6.23875 1.71431 0
M  V30 3503 N 317.792 -0.46758 -1.50504 0
M  V30 3504 C 319.017 0.0886943 -2.0721 0
M  V30 3505 C 319.442 1.33057 -1.32956 0
M  V30 3506 O 318.8 1.77354 -0.376197 0
M  V30 3507 C 318.848 0.359202 -3.58806 0
M  V30 3508 O 317.952 1.44034 -3.8643 0
M  V30 3509 H 317.293 -0.0114349 -0.663902 0
M  V30 3510 H 319.823 -0.657613 -1.93744 0
M  V30 3511 H 319.833 0.600742 -4.03553 0
M  V30 3512 H 318.508 -0.548311 -4.1227 0
M  V30 3513 H 317.085 1.18638 -3.53524 0
M  V30 3514 N 319.27 1.56325 -0.20005 0
M  V30 3515 C 320.218 2.20666 0.735482 0
M  V30 3516 C 321.212 1.17934 1.21605 0
M  V30 3517 O 322.418 1.36068 1.17837 0
M  V30 3518 H 318.793 0.70725 0.255542 0
M  V30 3519 H 320.764 2.9792 0.169166 0
M  V30 3520 C 319.513 2.88391 1.94232 0
M  V30 3521 H 318.836 3.67185 1.58161 0
M  V30 3522 H 320.276 3.3684 2.57517 0
M  V30 3523 C 318.735 1.89692 2.78421 0
M  V30 3524 O 319.265 1.40032 3.76502 0
M  V30 3525 N 317.471 1.57813 2.44015 0
M  V30 3526 H 317.018 1.9839 1.64314 0
M  V30 3527 H 316.976 0.920325 3.00628 0
M  V30 3528 N 320.748 -0.0735177 1.57428 0
M  V30 3529 C 322.159 -0.625551 1.75908 0
M  V30 3530 C 322.51 -1.78 0.825261 0
M  V30 3531 O 321.635 -2.16398 0.00893964 0
M  V30 3532 C 322.23 -1.14155 3.18989 0
M  V30 3533 C 320.789 -1.63946 3.38819 0
M  V30 3534 C 319.936 -0.558151 2.71625 0
M  V30 3535 H 322.887 0.152647 1.57964 0
M  V30 3536 H 322.908 -2.0104 3.23053 0
M  V30 3537 H 322.42 -0.301116 3.8693 0
M  V30 3538 H 320.521 -2.50321 2.7599 0
M  V30 3539 H 320.634 -1.71759 4.47253 0
M  V30 3540 H 318.998 -1.00278 2.34129 0
M  V30 3541 H 319.781 0.272071 3.4222 0
M  V30 3542 N 322.226 -1.5378 -0.344866 0
M  V30 3543 C 323.136 -1.84667 -1.4469 0
M  V30 3544 C 324.152 -0.736704 -1.57635 0
M  V30 3545 O 325.328 -1.02888 -1.73136 0
M  V30 3546 C 322.393 -2.04869 -2.79696 0
M  V30 3547 C 321.454 -3.28731 -2.76106 0
M  V30 3548 C 320.687 -3.4796 -4.04673 0
M  V30 3549 O 320.91 -2.71052 -5.01883 0
M  V30 3550 O 319.844 -4.41383 -4.09224 0
M  V30 3551 H 323.67 -2.78334 -1.21506 0
M  V30 3552 H 321.255 -1.39418 -0.536921 0
M  V30 3553 H 323.137 -2.19609 -3.59652 0
M  V30 3554 H 321.812 -1.14391 -3.02814 0
M  V30 3555 H 320.719 -3.19396 -1.94774 0
M  V30 3556 H 322.052 -4.19198 -2.57941 0
M  V30 3557 N 323.704 0.605807 -1.45491 0
M  V30 3558 C 324.95 1.36679 -1.49823 0
M  V30 3559 C 325.283 1.93693 -0.140175 0
M  V30 3560 O 324.558 1.75158 0.845581 0
M  V30 3561 C 324.841 2.51337 -2.57879 0
M  V30 3562 C 324.694 1.99508 -4.03134 0
M  V30 3563 C 326.013 3.53463 -2.62205 0
M  V30 3564 H 323.132 0.495617 -0.545466 0
M  V30 3565 H 325.774 0.682732 -1.7731 0
M  V30 3566 H 323.924 3.09691 -2.34571 0
M  V30 3567 H 325.596 1.45789 -4.37656 0
M  V30 3568 H 323.839 1.30496 -4.13707 0
M  V30 3569 H 324.51 2.82169 -4.74431 0
M  V30 3570 H 326.986 3.04953 -2.83095 0
M  V30 3571 H 325.862 4.31178 -3.39672 0
M  V30 3572 H 326.123 4.09197 -1.67363 0
M  V30 3573 N 325.182 1.32811 0.848464 0
M  V30 3574 C 326.428 1.23907 1.60546 0
M  V30 3575 C 326.761 -0.197161 1.93197 0
M  V30 3576 O 326.036 -1.13596 1.5788 0
M  V30 3577 C 326.319 2.10489 2.92175 0
M  V30 3578 C 326.172 3.62522 2.66266 0
M  V30 3579 C 327.491 1.97075 3.93509 0
M  V30 3580 H 324.61 0.451459 0.58254 0
M  V30 3581 H 327.252 1.62818 0.979296 0
M  V30 3582 H 325.402 1.77434 3.45614 0
M  V30 3583 H 327.074 4.05821 2.19334 0
M  V30 3584 H 325.317 3.84879 2.00126 0
M  V30 3585 H 325.988 4.18437 3.6002 0
M  V30 3586 H 328.464 2.26045 3.49346 0
M  V30 3587 H 327.34 2.59923 4.83457 0
M  V30 3588 H 327.601 0.940186 4.31987 0
M  V30 3589 N 326.66 -1.06551 1.16123 0
M  V30 3590 C 327.593 -2.13382 0.80892 0
M  V30 3591 C 328.571 -1.61128 -0.21827 0
M  V30 3592 O 329.755 -1.88219 -0.102952 0
M  V30 3593 C 326.882 -3.38083 0.204303 0
M  V30 3594 C 325.928 -4.09133 1.20469 0
M  V30 3595 S 326.761 -4.5948 2.75024 0
M  V30 3596 C 327.917 -5.87446 2.16005 0
M  V30 3597 H 328.15 -2.42937 1.71373 0
M  V30 3598 H 325.683 -1.18947 0.984428 0
M  V30 3599 H 327.641 -4.10268 -0.138081 0
M  V30 3600 H 326.302 -3.0669 -0.678234 0
M  V30 3601 H 325.495 -4.98685 0.730019 0
M  V30 3602 H 325.097 -3.4295 1.49202 0
M  V30 3603 H 327.389 -6.60065 1.5271 0
M  V30 3604 H 328.332 -6.39639 3.03756 0
M  V30 3605 H 328.74 -5.41354 1.59989 0
M  V30 3606 N 328.138 -0.959301 -1.25041 0
M  V30 3607 C 329.085 -0.482057 -2.2571 0
M  V30 3608 C 330.055 0.467939 -1.59372 0
M  V30 3609 O 331.24 0.380159 -1.86974 0
M  V30 3610 C 328.38 0.229623 -3.44335 0
M  V30 3611 C 327.493 -0.758156 -4.25295 0
M  V30 3612 C 326.628 -0.0234403 -5.31195 0
M  V30 3613 C 325.667 -1.00184 -6.03846 0
M  V30 3614 N 324.804 -0.29769 -7.01469 0
M  V30 3615 H 329.644 -1.34538 -2.65901 0
M  V30 3616 H 327.181 -0.674592 -1.3072 0
M  V30 3617 H 329.139 0.658856 -4.11965 0
M  V30 3618 H 327.769 1.05696 -3.05005 0
M  V30 3619 H 326.821 -1.30586 -3.57284 0
M  V30 3620 H 328.133 -1.50458 -4.75567 0
M  V30 3621 H 327.287 0.464201 -6.04922 0
M  V30 3622 H 326.026 0.755741 -4.81809 0
M  V30 3623 H 325.031 -1.50044 -5.2893 0
M  V30 3624 H 326.256 -1.78133 -6.55321 0
M  V30 3625 H 324.202 0.462668 -6.54366 0
M  V30 3626 H 324.119 -0.983128 -7.4958 0
M  V30 3627 H 325.387 0.16826 -7.79318 0
M  V30 3628 N 329.616 1.39756 -0.72842 0
M  V30 3629 C 331.032 1.5442 -0.403308 0
M  V30 3630 C 331.232 1.69694 1.08656 0
M  V30 3631 O 330.288 1.69373 1.87267 0
M  V30 3632 C 331.601 2.76555 -1.18058 0
M  V30 3633 C 333.149 2.90384 -1.16815 0
M  V30 3634 C 333.624 4.15449 -1.92785 0
M  V30 3635 N 335.115 4.22475 -1.89918 0
M  V30 3636 C 335.85 5.1818 -2.45514 0
M  V30 3637 N 335.346 6.19714 -3.09719 0
M  V30 3638 N 337.139 5.1035 -2.35584 0
M  V30 3639 H 329.29 1.28089 -1.69431 0
M  V30 3640 H 331.553 0.620327 -0.716867 0
M  V30 3641 H 331.259 2.7159 -2.23455 0
M  V30 3642 H 331.133 3.69033 -0.780662 0
M  V30 3643 H 333.52 2.94846 -0.12234 0
M  V30 3644 H 333.601 1.98988 -1.6074 0
M  V30 3645 H 333.245 4.11749 -2.97364 0
M  V30 3646 H 333.175 5.05877 -1.46272 0
M  V30 3647 H 335.666 3.49743 -1.43138 0
M  V30 3648 H 335.979 6.8919 -3.49625 0
M  V30 3649 H 334.324 6.20121 -3.13807 0
M  V30 3650 H 337.515 4.2996 -1.85072 0
M  V30 3651 H 337.688 5.84761 -2.79211 0
M  V30 3652 N 331.094 0.475555 1.50254 0
M  V30 3653 C 332.51 0.12997 1.5907 0
M  V30 3654 C 332.71 -1.36385 1.48328 0
M  V30 3655 O 331.766 -2.13754 1.34407 0
M  V30 3656 C 333.079 0.684139 2.92814 0
M  V30 3657 C 334.627 0.647965 3.0622 0
M  V30 3658 C 335.102 1.17975 4.42545 0
M  V30 3659 N 336.593 1.13936 4.48969 0
M  V30 3660 C 337.328 1.52129 5.52851 0
M  V30 3661 N 336.824 1.97793 6.63965 0
M  V30 3662 N 338.617 1.43704 5.4342 0
M  V30 3663 H 330.768 1.44706 1.55479 0
M  V30 3664 H 333.031 0.598691 0.735033 0
M  V30 3665 H 332.737 1.73079 3.06164 0
M  V30 3666 H 332.611 0.130204 3.76975 0
M  V30 3667 H 334.998 -0.38979 2.92514 0
M  V30 3668 H 335.079 1.23876 2.23805 0
M  V30 3669 H 334.723 2.21616 4.57 0
M  V30 3670 H 334.653 0.565138 5.23559 0
M  V30 3671 H 337.144 0.804488 3.69238 0
M  V30 3672 H 337.457 2.25072 7.39299 0
M  V30 3673 H 335.802 2.01749 6.65073 0
M  V30 3674 H 338.993 1.07867 4.55502 0
M  V30 3675 H 339.166 1.73794 6.24259 0
M  V30 3676 N 332.573 -1.56217 0.208337 0
M  V30 3677 C 333.989 -1.58919 -0.14729 0
M  V30 3678 C 334.189 -1.22486 -1.59998 0
M  V30 3679 O 333.245 -0.953849 -2.3379 0
M  V30 3680 C 334.558 -3.00236 0.167048 0
M  V30 3681 C 336.106 -3.12813 0.108219 0
M  V30 3682 C 336.581 -4.56284 0.396049 0
M  V30 3683 N 338.072 -4.61912 0.345142 0
M  V30 3684 C 338.807 -5.70837 0.541523 0
M  V30 3685 N 338.303 -6.88178 0.798968 0
M  V30 3686 N 340.096 -5.60091 0.474867 0
M  V30 3687 H 332.247 -1.78177 1.15614 0
M  V30 3688 H 334.51 -0.827555 0.462446 0
M  V30 3689 H 334.216 -3.31499 1.1748 0
M  V30 3690 H 334.09 -3.7354 -0.524184 0
M  V30 3691 H 336.477 -2.81354 -0.890157 0
M  V30 3692 H 336.558 -2.41866 0.832729 0
M  V30 3693 H 336.202 -4.88458 1.3918 0
M  V30 3694 H 336.132 -5.25439 -0.349502 0
M  V30 3695 H 338.623 -3.77589 0.153316 0
M  V30 3696 H 338.936 -7.67095 0.93727 0
M  V30 3697 H 337.281 -6.89953 0.836013 0
M  V30 3698 H 340.472 -4.67297 0.274064 0
M  V30 3699 H 340.645 -6.44917 0.631326 0
M  V30 3700 N 334.051 0.0651679 -1.57465 0
M  V30 3701 C 334.983 1.10359 -2.00882 0
M  V30 3702 C 335.996 1.346 -0.915788 0
M  V30 3703 O 337.185 1.32723 -1.1936 0
M  V30 3704 C 334.285 2.45312 -2.33828 0
M  V30 3705 C 333.458 2.40934 -3.65061 0
M  V30 3706 C 332.517 3.58047 -3.85602 0
M  V30 3707 O 331.543 3.39175 -4.57109 0
M  V30 3708 N 332.745 4.78637 -3.28462 0
M  V30 3709 H 335.51 0.733807 -2.90578 0
M  V30 3710 H 333.071 0.253719 -1.599 0
M  V30 3711 H 335.063 3.22314 -2.44737 0
M  V30 3712 H 333.633 2.74267 -1.49988 0
M  V30 3713 H 332.853 1.49273 -3.64844 0
M  V30 3714 H 334.141 2.35117 -4.51218 0
M  V30 3715 H 333.539 4.96872 -2.70433 0
M  V30 3716 H 332.096 5.53127 -3.44809 0
M  V30 3717 N 335.529 1.53961 0.336706 0
M  V30 3718 C 336.461 1.78751 1.4346 0
M  V30 3719 C 337.474 0.669019 1.48418 0
M  V30 3720 O 338.663 0.945884 1.51378 0
M  V30 3721 C 335.763 1.87844 2.82078 0
M  V30 3722 C 334.936 3.17854 3.00479 0
M  V30 3723 C 333.995 3.17816 4.19379 0
M  V30 3724 O 333.021 3.91511 4.13168 0
M  V30 3725 N 334.223 2.40669 5.2826 0
M  V30 3726 H 336.988 2.73493 1.22563 0
M  V30 3727 H 334.549 1.53096 0.526625 0
M  V30 3728 H 336.541 1.85261 3.59806 0
M  V30 3729 H 335.111 1.00257 2.96086 0
M  V30 3730 H 334.331 3.33504 2.10163 0
M  V30 3731 H 335.619 4.03718 3.0966 0
M  V30 3732 H 335.017 1.8036 5.36178 0
M  V30 3733 H 333.574 2.43877 6.04456 0
M  V30 3734 N 337.007 -0.598083 1.45811 0
M  V30 3735 C 337.954 -1.7082 1.55207 0
M  V30 3736 C 338.924 -1.61278 0.39732 0
M  V30 3737 O 340.109 -1.80717 0.612038 0
M  V30 3738 C 337.249 -3.09144 1.53376 0
M  V30 3739 C 336.362 -3.29423 2.79472 0
M  V30 3740 C 335.497 -4.57907 2.69248 0
M  V30 3741 C 334.536 -4.71476 3.90354 0
M  V30 3742 N 333.673 -5.9127 3.78608 0
M  V30 3743 H 338.513 -1.62125 2.50039 0
M  V30 3744 H 336.05 -0.790389 1.24062 0
M  V30 3745 H 338.008 -3.89186 1.50301 0
M  V30 3746 H 336.638 -3.16773 0.620876 0
M  V30 3747 H 335.69 -2.43091 2.92594 0
M  V30 3748 H 337.002 -3.3532 3.69272 0
M  V30 3749 H 336.156 -5.46157 2.64192 0
M  V30 3750 H 334.895 -4.54423 1.77063 0
M  V30 3751 H 333.9 -3.81648 3.95759 0
M  V30 3752 H 335.125 -4.76751 4.83617 0
M  V30 3753 H 333.071 -5.88813 2.89199 0
M  V30 3754 H 332.988 -5.98369 4.6205 0
M  V30 3755 H 334.256 -6.81992 3.77501 0
M  V30 3756 N 338.485 -1.33259 -0.841409 0
M  V30 3757 C 339.415 -1.25926 -1.96634 0
M  V30 3758 C 340.396 -0.140349 -1.6952 0
M  V30 3759 O 341.581 -0.329707 -1.91381 0
M  V30 3760 C 338.711 -0.99512 -3.32738 0
M  V30 3761 C 337.665 -2.0767 -3.74242 0
M  V30 3762 C 336.991 -1.66474 -5.08125 0
M  V30 3763 C 338.291 -3.49318 -3.88297 0
M  V30 3764 H 339.985 -2.20046 -2.03027 0
M  V30 3765 H 337.531 -1.05931 -0.975425 0
M  V30 3766 H 339.484 -0.930323 -4.11002 0
M  V30 3767 H 338.208 -0.0183004 -3.26595 0
M  V30 3768 H 336.867 -2.13187 -2.98239 0
M  V30 3769 H 336.515 -0.675012 -4.9845 0
M  V30 3770 H 336.215 -2.3885 -5.36865 0
M  V30 3771 H 337.739 -1.61455 -5.88867 0
M  V30 3772 H 339.153 -3.46316 -4.56879 0
M  V30 3773 H 337.55 -4.20158 -4.28471 0
M  V30 3774 H 338.62 -3.8801 -2.9082 0
M  V30 3775 N 339.963 1.05934 -1.16686 0
M  V30 3776 C 340.873 2.17014 -0.891183 0
M  V30 3777 C 341.889 1.73453 0.137907 0
M  V30 3778 O 343.065 2.01361 -0.039592 0
M  V30 3779 C 340.13 3.44384 -0.400099 0
M  V30 3780 C 339.191 4.02433 -1.49486 0
M  V30 3781 C 338.424 5.23723 -1.02711 0
M  V30 3782 O 338.647 5.7027 0.121716 0
M  V30 3783 O 337.581 5.7382 -1.81699 0
M  V30 3784 H 341.407 2.43113 -1.82015 0
M  V30 3785 H 338.992 1.15541 -0.947132 0
M  V30 3786 H 340.874 4.21189 -0.133392 0
M  V30 3787 H 339.549 3.19802 0.500817 0
M  V30 3788 H 338.456 3.27102 -1.81535 0
M  V30 3789 H 339.789 4.31317 -2.37121 0
M  V30 3790 N 341.441 0.965919 1.2453 0
M  V30 3791 C 342.388 0.49402 2.25451 0
M  V30 3792 C 343.358 -0.45948 1.59618 0
M  V30 3793 O 344.543 -0.370238 1.87173 0
M  V30 3794 C 341.683 -0.211359 3.44452 0
M  V30 3795 C 340.796 0.7807 4.24887 0
M  V30 3796 C 339.931 0.0516105 5.31175 0
M  V30 3797 C 338.97 1.03385 6.03306 0
M  V30 3798 N 338.107 0.334887 7.01301 0
M  V30 3799 H 342.947 1.35946 2.65184 0
M  V30 3800 H 340.484 0.681515 1.3036 0
M  V30 3801 H 342.442 -0.637 4.12308 0
M  V30 3802 H 341.072 -1.04077 3.05562 0
M  V30 3803 H 340.124 1.32479 3.56586 0
M  V30 3804 H 341.436 1.52978 4.74762 0
M  V30 3805 H 340.59 -0.432114 6.05159 0
M  V30 3806 H 339.329 -0.730179 4.82203 0
M  V30 3807 H 338.334 1.52847 5.28127 0
M  V30 3808 H 339.559 1.81606 6.54367 0
M  V30 3809 H 337.505 -0.427959 6.54603 0
M  V30 3810 H 337.422 1.02287 7.49048 0
M  V30 3811 H 338.69 -0.126928 7.79397 0
M  V30 3812 N 342.919 -1.39368 0.735821 0
M  V30 3813 C 344.335 -1.54204 0.411492 0
M  V30 3814 C 344.535 -1.70268 -1.07755 0
M  V30 3815 O 343.591 -1.70364 -1.86366 0
M  V30 3816 C 344.904 -2.75925 1.19523 0
M  V30 3817 C 346.452 -2.89761 1.18354 0
M  V30 3818 C 346.927 -4.14421 1.94986 0
M  V30 3819 N 348.418 -4.21462 1.92156 0
M  V30 3820 C 349.153 -5.16871 2.48258 0
M  V30 3821 N 348.649 -6.18063 3.13001 0
M  V30 3822 N 350.442 -5.09093 2.38287 0
M  V30 3823 H 342.593 -1.27189 1.70108 0
M  V30 3824 H 344.856 -0.616517 0.720147 0
M  V30 3825 H 344.562 -2.70401 2.24892 0
M  V30 3826 H 344.436 -3.68614 0.800222 0
M  V30 3827 H 346.823 -2.94777 0.137975 0
M  V30 3828 H 346.904 -1.98133 1.61793 0
M  V30 3829 H 346.548 -4.10166 2.99543 0
M  V30 3830 H 346.478 -5.05095 1.48953 0
M  V30 3831 H 348.969 -3.48979 1.44991 0
M  V30 3832 H 349.282 -6.87326 3.53275 0
M  V30 3833 H 347.627 -6.18448 3.17091 0
M  V30 3834 H 350.818 -4.28973 1.8735 0
M  V30 3835 H 350.991 -5.83272 2.82308 0
M  V30 3836 N 344.397 -0.483516 -1.5 0
M  V30 3837 C 345.33 0.350427 -2.25493 0
M  V30 3838 C 346.308 0.985549 -1.29328 0
M  V30 3839 O 347.492 1.01906 -1.58579 0
M  V30 3840 C 344.619 1.49202 -3.04066 0
M  V30 3841 C 343.665 0.973036 -4.15252 0
M  V30 3842 S 344.498 -0.122237 -5.3536 0
M  V30 3843 C 345.654 1.02294 -6.17484 0
M  V30 3844 H 345.887 -0.290381 -2.95878 0
M  V30 3845 H 343.42 -0.268562 -1.52046 0
M  V30 3846 H 345.378 2.14623 -3.49925 0
M  V30 3847 H 344.039 2.10438 -2.33183 0
M  V30 3848 H 343.232 1.82804 -4.69679 0
M  V30 3849 H 342.834 0.396335 -3.71894 0
M  V30 3850 H 345.126 1.93195 -6.49371 0
M  V30 3851 H 346.069 0.517664 -7.06205 0
M  V30 3852 H 346.477 1.28238 -5.49741 0
M  V30 3853 N 345.875 1.56104 -0.216619 0
M  V30 3854 C 346.807 2.17339 0.72776 0
M  V30 3855 C 347.82 1.14109 1.16116 0
M  V30 3856 O 349.009 1.4111 1.09317 0
M  V30 3857 C 346.109 2.73818 1.99693 0
M  V30 3858 C 345.282 4.02168 1.71988 0
M  V30 3859 C 344.341 4.43259 2.83562 0
M  V30 3860 O 343.367 5.10257 2.52244 0
M  V30 3861 N 344.569 4.08535 4.12407 0
M  V30 3862 H 347.334 2.99005 0.203983 0
M  V30 3863 H 344.895 1.61861 -0.0354289 0
M  V30 3864 H 346.887 2.9828 2.73516 0
M  V30 3865 H 345.457 1.96483 2.43132 0
M  V30 3866 H 344.677 3.85612 0.818337 0
M  V30 3867 H 345.965 4.85907 1.50903 0
M  V30 3868 H 345.363 3.54687 4.40696 0
M  V30 3869 H 343.92 4.37901 4.8279 0
M  V30 3870 N 347.353 -0.0568162 1.57498 0
M  V30 3871 C 348.263 -1.08346 2.08083 0
M  V30 3872 C 349.279 -1.41439 1.01346 0
M  V30 3873 O 350.455 -1.51316 1.32912 0
M  V30 3874 C 347.52 -2.37352 2.52715 0
M  V30 3875 C 346.581 -2.11093 3.73816 0
M  V30 3876 C 345.814 -3.33949 4.1631 0
M  V30 3877 O 346.037 -4.43622 3.58547 0
M  V30 3878 O 344.971 -3.21279 5.08983 0
M  V30 3879 H 348.797 -0.683667 2.95905 0
M  V30 3880 H 346.382 -0.271965 1.46904 0
M  V30 3881 H 348.264 -3.13246 2.81877 0
M  V30 3882 H 346.939 -2.76681 1.68016 0
M  V30 3883 H 345.846 -1.32856 3.49714 0
M  V30 3884 H 347.179 -1.76637 4.59413 0
M  V30 3885 N 348.832 -1.54138 -0.328536 0
M  V30 3886 C 350.079 -1.72105 -1.06706 0
M  V30 3887 C 350.407 -0.492111 -1.88171 0
M  V30 3888 O 349.662 0.526153 -1.88494 0
M  V30 3889 C 349.961 -2.9457 -2.02393 0
M  V30 3890 C 349.627 -4.29544 -1.37122 0
M  V30 3891 C 348.289 -4.6624 -1.19052 0
M  V30 3892 C 350.641 -5.1333 -0.902331 0
M  V30 3893 C 347.969 -5.84325 -0.527331 0
M  V30 3894 C 350.321 -6.32094 -0.252988 0
M  V30 3895 C 348.985 -6.67473 -0.0600901 0
M  V30 3896 H 348.255 -0.629775 -0.390466 0
M  V30 3897 H 350.902 -1.88372 -0.34473 0
M  V30 3898 H 349.207 -2.72969 -2.81061 0
M  V30 3899 H 350.904 -3.05665 -2.59557 0
M  V30 3900 H 347.494 -4.0067 -1.52188 0
M  V30 3901 H 351.678 -4.855 -1.02974 0
M  V30 3902 H 346.934 -6.103 -0.366634 0
M  V30 3903 H 351.108 -6.96299 0.118366 0
M  V30 3904 H 348.735 -7.58832 0.455828 0
M  V30 3905 N 350.31 0.590341 -1.46126 0
M  V30 3906 C 351.726 0.912917 -1.30912 0
M  V30 3907 C 351.926 1.99616 -0.274893 0
M  V30 3908 O 350.982 2.50397 0.325197 0
M  V30 3909 C 352.295 1.3375 -2.69317 0
M  V30 3910 C 353.843 1.45077 -2.77348 0
M  V30 3911 C 354.318 1.90904 -4.16317 0
M  V30 3912 N 355.809 1.9811 -4.18696 0
M  V30 3913 C 356.544 2.34828 -5.23109 0
M  V30 3914 N 356.04 2.70393 -6.37856 0
M  V30 3915 N 357.833 2.35317 -5.10473 0
M  V30 3916 H 349.984 -0.125358 -2.1203 0
M  V30 3917 H 352.247 0.00658481 -0.947977 0
M  V30 3918 H 351.953 0.615614 -3.4627 0
M  V30 3919 H 351.827 2.30058 -2.9892 0
M  V30 3920 H 354.214 2.16353 -2.00687 0
M  V30 3921 H 354.295 0.4704 -2.51438 0
M  V30 3922 H 353.939 1.20209 -4.9347 0
M  V30 3923 H 353.869 2.89886 -4.39629 0
M  V30 3924 H 356.36 1.73146 -3.359 0
M  V30 3925 H 356.673 2.97341 -7.13308 0
M  V30 3926 H 355.018 2.68048 -6.41229 0
M  V30 3927 H 358.209 2.0695 -4.19868 0
M  V30 3928 H 358.382 2.63605 -5.9196 0
M  V30 3929 N 351.788 1.33704 0.83433 0
M  V30 3930 C 353.013 1.28615 1.62705 0
M  V30 3931 C 353.438 -0.139242 1.87584 0
M  V30 3932 O 352.796 -1.09734 1.4432 0
M  V30 3933 C 352.844 2.07139 2.95171 0
M  V30 3934 O 351.948 1.4331 3.86699 0
M  V30 3935 H 351.289 0.44226 0.49528 0
M  V30 3936 H 353.819 1.76335 1.03766 0
M  V30 3937 H 353.829 2.18073 3.44831 0
M  V30 3938 H 352.504 3.10779 2.76386 0
M  V30 3939 H 351.081 1.4105 3.45195 0
M  V30 3940 N 353.266 -1.05314 1.17247 0
M  V30 3941 C 354.491 -1.82509 0.985148 0
M  V30 3942 C 354.916 -1.82343 -0.461788 0
M  V30 3943 O 354.274 -1.23151 -1.33055 0
M  V30 3944 C 354.322 -3.26566 1.52929 0
M  V30 3945 O 353.426 -4.05666 0.742225 0
M  V30 3946 H 352.767 -0.564347 0.349869 0
M  V30 3947 H 355.297 -1.32718 1.55715 0
M  V30 3948 H 355.307 -3.77369 1.55103 0
M  V30 3949 H 353.982 -3.26001 2.58256 0
M  V30 3950 H 352.559 -3.64397 0.791794 0
M  V30 3951 N 354.744 -0.972509 -1.24016 0
M  V30 3952 C 356.021 -0.553733 -1.87598 0
M  V30 3953 C 356.401 0.969158 -1.87538 0
M  V30 3954 O 355.749 1.84255 -1.35139 0
M  V30 3955 C 355.959 -1.15076 -3.29482 0
M  V30 3956 C 357.307 -1.23862 -4.06132 0
M  V30 3957 O 358.331 -1.10363 -3.38672 0
M  V30 3958 O 357.19 -1.45252 -5.26844 0
M  V30 3959 H 354.284 -0.185331 -0.805966 0
M  V30 3960 H 356.83 -1.06709 -1.31952 0
M  V30 3961 H 355.602 -2.19333 -3.2405 0
M  V30 3962 H 355.225 -0.621746 -3.92709 0
M  V30 3963 N 356.222 1.38976 -0.743202 0
M  V30 3964 C 357.47 1.99948 -0.29417 0
M  V30 3965 C 357.791 1.59279 1.12495 0
M  V30 3966 O 357.061 0.844808 1.76748 0
M  V30 3967 H 355.641 0.739473 -0.105774 0
M  V30 3968 H 358.303 1.699 -0.954986 0
M  V30 3969 H 357.399 3.10142 -0.349056 0
M  V30 3970 N 357.7 0.491464 1.49741 0
M  V30 3971 C 359.116 0.146835 1.58923 0
M  V30 3972 C 359.316 -1.34804 1.49767 0
M  V30 3973 O 358.372 -2.12317 1.36667 0
M  V30 3974 C 359.685 0.715157 2.92072 0
M  V30 3975 C 361.233 0.680407 3.05515 0
M  V30 3976 C 361.708 1.22663 4.41269 0
M  V30 3977 N 363.199 1.18691 4.47735 0
M  V30 3978 C 363.934 1.57984 5.51207 0
M  V30 3979 N 363.43 2.04824 6.6183 0
M  V30 3980 N 365.223 1.49459 5.41866 0
M  V30 3981 H 357.374 1.46347 1.53936 0
M  V30 3982 H 359.637 0.606453 0.728642 0
M  V30 3983 H 359.343 1.76317 3.04311 0
M  V30 3984 H 359.217 0.17018 3.76816 0
M  V30 3985 H 361.604 -0.358743 2.92911 0
M  V30 3986 H 361.685 1.26242 2.22478 0
M  V30 3987 H 361.329 2.26451 4.54623 0
M  V30 3988 H 361.259 0.620637 5.2293 0
M  V30 3989 H 363.75 0.843605 3.68364 0
M  V30 3990 H 364.063 2.32901 7.3687 0
M  V30 3991 H 362.408 2.08791 6.62896 0
M  V30 3992 H 365.599 1.12692 4.54333 0
M  V30 3993 H 365.772 1.80406 6.22381 0
M  V30 3994 N 359.178 -1.55987 0.224894 0
M  V30 3995 C 360.589 -1.84553 -0.282345 0
M  V30 3996 C 360.94 -1.14634 -1.59227 0
M  V30 3997 O 360.065 -0.417155 -2.12341 0
M  V30 3998 C 360.66 -3.348 -0.519062 0
M  V30 3999 C 359.219 -3.63671 -0.970604 0
M  V30 4000 C 358.366 -2.77277 -0.0355261 0
M  V30 4001 H 361.317 -1.52245 0.448006 0
M  V30 4002 H 361.338 -3.55187 -1.36463 0
M  V30 4003 H 360.85 -3.8566 0.43449 0
M  V30 4004 H 358.951 -3.1827 -1.9374 0
M  V30 4005 H 359.064 -4.71631 -0.842698 0
M  V30 4006 H 357.428 -2.48846 -0.542927 0
M  V30 4007 H 358.211 -3.30937 0.913003 0
M  V30 4008 N 360.656 0.0484629 -1.57525 0
M  V30 4009 C 361.933 0.777447 -1.79486 0
M  V30 4010 C 362.313 1.94597 -0.818251 0
M  V30 4011 O 361.661 2.28047 0.143767 0
M  V30 4012 C 361.871 1.22864 -3.26658 0
M  V30 4013 C 363.219 1.65251 -3.91123 0
M  V30 4014 O 364.243 1.32372 -3.3069 0
M  V30 4015 O 363.102 2.26207 -4.97486 0
M  V30 4016 H 360.196 0.374357 -0.737419 0
M  V30 4017 H 362.742 0.0267359 -1.69679 0
M  V30 4018 H 361.514 0.393589 -3.89316 0
M  V30 4019 H 361.137 2.03996 -3.41279 0
M  V30 4020 N 362.134 1.5431 0.320358 0
M  V30 4021 C 363.359 1.76954 1.08175 0
M  V30 4022 C 363.784 0.518193 1.80821 0
M  V30 4023 O 363.142 -0.530411 1.73368 0
M  V30 4024 C 363.19 2.96451 2.05303 0
M  V30 4025 O 362.294 2.68221 3.13259 0
M  V30 4026 H 361.635 0.586275 0.311733 0
M  V30 4027 H 364.165 2.01342 0.363676 0
M  V30 4028 H 364.175 3.23887 2.48116 0
M  V30 4029 H 362.85 3.87196 1.51829 0
M  V30 4030 H 361.427 2.51744 2.75099 0
M  V30 4031 N 363.613 -0.582584 1.46437 0
M  V30 4032 C 364.861 -1.33814 1.51453 0
M  V30 4033 C 365.182 -1.94277 0.167792 0
M  V30 4034 O 364.452 -1.78566 -0.805677 0
M  V30 4035 H 363.032 -0.496838 0.557818 0
M  V30 4036 H 365.694 -0.682281 1.82568 0
M  V30 4037 H 364.79 -2.14479 2.26728 0
M  V30 4038 N 365.091 -1.34144 -0.827227 0
M  V30 4039 C 366.339 -1.26009 -1.58007 0
M  V30 4040 C 366.66 0.170971 -1.94249 0
M  V30 4041 O 365.93 1.10256 -1.61927 0
M  V30 4042 H 364.51 -0.463414 -0.585881 0
M  V30 4043 H 367.172 -1.68005 -0.987951 0
M  V30 4044 H 366.268 -1.86187 -2.50481 0
M  V30 4045 N 366.569 1.04691 -1.17803 0
M  V30 4046 C 367.797 1.81446 -0.99423 0
M  V30 4047 C 368.212 1.83174 0.457459 0
M  V30 4048 O 367.569 1.26265 1.31771 0
M  V30 4049 C 367.62 3.27334 -1.5341 0
M  V30 4050 O 367.341 3.25798 -2.92895 0
M  V30 4051 C 368.842 4.20759 -1.39559 0
M  V30 4052 H 366.062 0.571599 -0.351447 0
M  V30 4053 H 368.606 1.31982 -1.56208 0
M  V30 4054 H 366.761 3.74052 -1.00815 0
M  V30 4055 H 367.175 4.17144 -3.17949 0
M  V30 4056 H 368.649 5.21084 -1.82141 0
M  V30 4057 H 369.126 4.37856 -0.343394 0
M  V30 4058 H 369.732 3.79901 -1.91195 0
M  V30 4059 N 368.047 0.979072 1.23499 0
M  V30 4060 C 368.977 0.537606 2.27227 0
M  V30 4061 C 369.958 -0.428539 1.64613 0
M  V30 4062 O 371.143 -0.322191 1.91509 0
M  V30 4063 C 368.273 -0.162052 3.46922 0
M  V30 4064 C 367.227 0.721242 4.21879 0
M  V30 4065 C 366.553 -0.110555 5.34586 0
M  V30 4066 C 367.853 2.01141 4.82016 0
M  V30 4067 H 369.547 1.40462 2.64406 0
M  V30 4068 H 367.093 0.67684 1.27102 0
M  V30 4069 H 369.046 -0.482192 4.18632 0
M  V30 4070 H 367.77 -1.06351 3.08799 0
M  V30 4071 H 366.429 1.02482 3.51984 0
M  V30 4072 H 366.077 -1.0125 4.92704 0
M  V30 4073 H 365.777 0.477325 5.85658 0
M  V30 4074 H 367.301 -0.425107 6.09118 0
M  V30 4075 H 368.715 1.75612 5.45741 0
M  V30 4076 H 367.112 2.54695 5.43369 0
M  V30 4077 H 368.182 2.69909 4.02836 0
M  V30 4078 N 369.525 -1.3858 0.750561 0
M  V30 4079 C 370.941 -1.53759 0.427824 0
M  V30 4080 C 371.141 -1.71401 -1.05943 0
M  V30 4081 O 370.197 -1.72331 -1.84549 0
M  V30 4082 C 371.51 -2.74642 1.22443 0
M  V30 4083 C 373.058 -2.88489 1.2142 0
M  V30 4084 C 373.533 -4.12329 1.9937 0
M  V30 4085 N 375.024 -4.194 1.96616 0
M  V30 4086 C 375.759 -5.14209 2.53727 0
M  V30 4087 N 375.255 -6.14709 3.19539 0
M  V30 4088 N 377.048 -5.06537 2.43673 0
M  V30 4089 H 369.199 -1.25377 1.71447 0
M  V30 4090 H 371.462 -0.608844 0.726645 0
M  V30 4091 H 371.168 -2.68 2.27747 0
M  V30 4092 H 371.042 -3.67745 0.839273 0
M  V30 4093 H 373.429 -2.94614 0.169232 0
M  V30 4094 H 373.51 -1.96406 1.63885 0
M  V30 4095 H 373.154 -4.06966 3.03877 0
M  V30 4096 H 373.084 -5.03486 1.54302 0
M  V30 4097 H 375.575 -3.47421 1.48684 0
M  V30 4098 H 375.888 -6.8354 3.60545 0
M  V30 4099 H 374.233 -6.1505 3.23633 0
M  V30 4100 H 377.424 -4.26962 1.91889 0
M  V30 4101 H 377.597 -5.80245 2.88479 0
M  V30 4102 N 371.003 -0.499398 -1.49478 0
M  V30 4103 C 372.252 0.0475259 -2.01644 0
M  V30 4104 C 372.565 1.38195 -1.38425 0
M  V30 4105 O 373.771 2.01547 -1.8191 0
M  V30 4106 C 372.227 0.135164 -3.59646 0
M  V30 4107 C 371.835 -1.19252 -4.31837 0
M  V30 4108 C 373.579 0.632538 -4.19761 0
M  V30 4109 C 371.486 -1.06713 -5.81693 0
M  V30 4110 H 370.416 0.0215349 -0.753692 0
M  V30 4111 H 373.067 -0.638577 -1.7203 0
M  V30 4112 H 371.449 0.885681 -3.85969 0
M  V30 4113 H 372.623 -1.9562 -4.17216 0
M  V30 4114 H 370.938 -1.62321 -3.83459 0
M  V30 4115 H 373.535 0.743833 -5.29501 0
M  V30 4116 H 373.878 1.63098 -3.83021 0
M  V30 4117 H 374.411 -0.0613987 -3.97753 0
M  V30 4118 H 371.15 -2.03979 -6.22955 0
M  V30 4119 H 370.67 -0.344307 -5.98811 0
M  V30 4120 H 372.349 -0.745208 -6.42694 0
M  V30 4121 N 372.481 1.55866 -0.233164 0
M  V30 4122 C 373.711 2.02704 0.399325 0
M  V30 4123 C 374.119 1.11204 1.53069 0
M  V30 4124 O 373.462 0.116182 1.83332 0
M  V30 4125 C 373.524 3.45844 0.981429 0
M  V30 4126 C 373.188 4.56997 -0.0159561 0
M  V30 4127 C 374.185 5.13384 -0.820552 0
M  V30 4128 C 371.87 5.0211 -0.138072 0
M  V30 4129 C 373.864 6.13365 -1.73386 0
M  V30 4130 C 371.551 6.01926 -1.0549 0
M  V30 4131 C 372.549 6.57431 -1.85132 0
M  V30 4132 O 372.237 7.55302 -2.75272 0
M  V30 4133 H 371.969 0.668459 0.100692 0
M  V30 4134 H 374.523 2.02387 -0.35052 0
M  V30 4135 H 372.753 3.43267 1.78058 0
M  V30 4136 H 374.442 3.76262 1.52255 0
M  V30 4137 H 375.208 4.79372 -0.736721 0
M  V30 4138 H 371.087 4.5858 0.471737 0
M  V30 4139 H 374.631 6.56614 -2.35592 0
M  V30 4140 H 370.528 6.35359 -1.1397 0
M  V30 4141 H 371.296 7.72867 -2.69477 0
M  V30 4142 N 373.959 -0.0401083 1.57549 0
M  V30 4143 C 374.922 -1.02871 2.04817 0
M  V30 4144 C 375.922 -1.29708 0.950388 0
M  V30 4145 O 377.112 -1.24897 1.21435 0
M  V30 4146 C 374.244 -2.36443 2.45576 0
M  V30 4147 H 375.437 -0.620631 2.93408 0
M  V30 4148 H 372.99 -0.286667 1.53649 0
M  V30 4149 H 373.725 -2.82021 1.60108 0
M  V30 4150 H 373.51 -2.18296 3.25713 0
M  V30 4151 H 375 -3.07441 2.82612 0
M  V30 4152 N 375.437 -1.54477 -0.31217 0
M  V30 4153 C 376.714 -1.63891 -1.06767 0
M  V30 4154 C 377.094 -0.480028 -2.0557 0
M  V30 4155 O 376.442 0.524487 -2.22399 0
M  V30 4156 C 376.652 -3.01402 -1.75948 0
M  V30 4157 C 378 -3.57838 -2.28554 0
M  V30 4158 O 379.024 -3.03782 -1.85998 0
M  V30 4159 O 377.883 -4.52462 -3.06497 0
M  V30 4160 H 374.977 -0.664125 -0.492816 0
M  V30 4161 H 377.523 -1.66823 -0.311149 0
M  V30 4162 H 376.295 -3.77187 -1.04144 0
M  V30 4163 H 375.918 -3.02199 -2.58383 0
M  V30 4164 N 376.915 0.57481 -1.46744 0
M  V30 4165 C 378.14 1.36341 -1.56288 0
M  V30 4166 C 378.565 1.86954 -0.207347 0
M  V30 4167 O 377.923 1.62006 0.813871 0
M  V30 4168 C 377.971 2.52147 -2.57787 0
M  V30 4169 O 377.075 3.53834 -2.11838 0
M  V30 4170 H 376.416 0.405713 -0.525636 0
M  V30 4171 H 378.946 0.696453 -1.92382 0
M  V30 4172 H 378.956 2.98958 -2.77648 0
M  V30 4173 H 377.631 2.14663 -3.5622 0
M  V30 4174 H 376.208 3.1345 -2.01999 0
M  V30 4175 N 378.394 1.34581 0.820102 0
M  V30 4176 C 379.324 1.29038 1.94606 0
M  V30 4177 C 380.305 0.1673 1.69275 0
M  V30 4178 O 381.49 0.360112 1.90832 0
M  V30 4179 C 378.62 1.04793 3.31113 0
M  V30 4180 C 377.574 2.13597 3.70891 0
M  V30 4181 C 376.9 1.74537 5.05412 0
M  V30 4182 C 378.2 3.55451 3.8269 0
M  V30 4183 H 379.894 2.23248 1.99501 0
M  V30 4184 H 377.44 1.0747 0.958449 0
M  V30 4185 H 379.393 0.995592 4.0947 0
M  V30 4186 H 378.117 0.0702565 3.26524 0
M  V30 4187 H 376.776 2.17905 2.9481 0
M  V30 4188 H 376.424 0.754226 4.97313 0
M  V30 4189 H 376.124 2.47361 5.32997 0
M  V30 4190 H 377.648 1.70803 5.86224 0
M  V30 4191 H 379.062 3.5354 4.51312 0
M  V30 4192 H 377.459 4.26922 4.21732 0
M  V30 4193 H 378.529 3.92587 2.84611 0
M  V30 4194 N 379.872 -1.04064 1.18357 0
M  V30 4195 C 380.819 -2.12077 0.910603 0
M  V30 4196 C 381.789 -1.65421 -0.15 0
M  V30 4197 O 382.974 -1.90797 -0.0103614 0
M  V30 4198 C 380.114 -3.42252 0.442472 0
M  V30 4199 C 379.227 -4.0252 1.5685 0
M  V30 4200 C 378.362 -5.20657 1.05309 0
M  V30 4201 C 377.401 -5.72955 2.1538 0
M  V30 4202 N 376.538 -6.8238 1.65233 0
M  V30 4203 H 381.378 -2.34764 1.83548 0
M  V30 4204 H 378.915 -1.15157 0.915279 0
M  V30 4205 H 380.873 -4.16921 0.152534 0
M  V30 4206 H 379.503 -3.19712 -0.445428 0
M  V30 4207 H 378.555 -3.25178 1.97391 0
M  V30 4208 H 379.867 -4.37362 2.39824 0
M  V30 4209 H 379.021 -6.0244 0.717677 0
M  V30 4210 H 377.76 -4.87318 0.19293 0
M  V30 4211 H 376.765 -4.89793 2.49766 0
M  V30 4212 H 377.99 -6.08337 3.01832 0
M  V30 4213 H 375.936 -6.50917 0.815064 0
M  V30 4214 H 375.853 -7.16286 2.41805 0
M  V30 4215 H 377.121 -7.67788 1.34619 0
M  V30 4216 N 381.35 -0.985608 -1.22978 0
M  V30 4217 C 382.761 -0.693593 -1.73338 0
M  V30 4218 C 383.112 0.789935 -1.79595 0
M  V30 4219 O 382.237 1.61771 -1.43733 0
M  V30 4220 C 382.832 -1.25235 -3.14804 0
M  V30 4221 C 381.391 -1.00987 -3.626 0
M  V30 4222 C 380.538 -1.37695 -2.40698 0
M  V30 4223 H 383.489 -1.15884 -1.08428 0
M  V30 4224 H 383.51 -0.627329 -3.75293 0
M  V30 4225 H 383.022 -2.33209 -3.10218 0
M  V30 4226 H 381.123 0.0535565 -3.72562 0
M  V30 4227 H 381.236 -1.66812 -4.49122 0
M  V30 4228 H 379.6 -0.795459 -2.4196 0
M  V30 4229 H 380.383 -2.46657 -2.38779 0
M  V30 4230 N 382.828 1.3818 -0.7579 0
M  V30 4231 C 383.776 2.32277 -0.122482 0
M  V30 4232 C 384.77 1.54238 0.700505 0
M  V30 4233 O 385.976 1.69737 0.599119 0
M  V30 4234 H 382.351 0.751712 -0.0208143 0
M  V30 4235 H 384.322 2.83469 -0.932099 0
M  V30 4236 C 383.071 3.39447 0.753076 0
M  V30 4237 H 382.394 3.99591 0.129184 0
M  V30 4238 H 383.834 4.07684 1.16489 0
M  V30 4239 C 382.293 2.78375 1.8976 0
M  V30 4240 O 382.823 2.68025 2.99208 0
M  V30 4241 N 381.029 2.36121 1.69397 0
M  V30 4242 H 380.576 2.4474 0.803762 0
M  V30 4243 H 380.534 1.95602 2.46145 0
M  V30 4244 N 384.306 0.507319 1.49211 0
M  V30 4245 C 385.555 -0.0368315 2.01666 0
M  V30 4246 C 385.868 -1.37459 1.39156 0
M  V30 4247 O 387.074 -2.00579 1.82976 0
M  V30 4248 C 385.53 -0.116089 3.59713 0
M  V30 4249 C 385.138 1.2154 4.31198 0
M  V30 4250 C 386.882 -0.610268 4.2009 0
M  V30 4251 C 384.789 1.09796 5.81119 0
M  V30 4252 H 383.719 -0.0175376 0.753796 0
M  V30 4253 H 386.37 0.647691 1.71689 0
M  V30 4254 H 384.752 -0.8652 3.86433 0
M  V30 4255 H 385.926 1.9783 4.16173 0
M  V30 4256 H 384.241 1.64352 3.82593 0
M  V30 4257 H 386.838 -0.715742 5.29888 0
M  V30 4258 H 387.181 -1.61064 3.8388 0
M  V30 4259 H 387.714 0.0824916 3.97714 0
M  V30 4260 H 384.453 2.0728 6.21864 0
M  V30 4261 H 383.973 0.376058 5.9862 0
M  V30 4262 H 385.652 0.779281 6.4229 0
M  V30 4263 N 385.784 -1.5574 0.241426 0
M  V30 4264 C 387.195 -1.84842 -0.262755 0
M  V30 4265 C 387.546 -1.16317 -1.58003 0
M  V30 4266 O 386.671 -0.439653 -2.11887 0
M  V30 4267 C 387.266 -3.35332 -0.483523 0
M  V30 4268 C 385.825 -3.6468 -0.931977 0
M  V30 4269 C 384.972 -2.77299 -0.0061151 0
M  V30 4270 H 387.923 -1.51761 0.464129 0
M  V30 4271 H 387.944 -3.56615 -1.32688 0
M  V30 4272 H 387.456 -3.85178 0.47537 0
M  V30 4273 H 385.557 -3.20307 -1.90353 0
M  V30 4274 H 385.67 -4.72498 -0.792628 0
M  V30 4275 H 384.034 -2.49408 -0.516503 0
M  V30 4276 H 384.817 -3.2995 0.948052 0
M  V30 4277 N 387.262 0.0317525 -1.57568 0
M  V30 4278 C 388.492 0.733884 -1.93126 0
M  V30 4279 C 388.9 1.69563 -0.839352 0
M  V30 4280 O 388.243 1.82681 0.193175 0
M  V30 4281 C 388.305 1.54798 -3.24465 0
M  V30 4282 C 387.969 0.751304 -4.50782 0
M  V30 4283 C 388.966 0.0527632 -5.19873 0
M  V30 4284 C 386.651 0.706639 -4.97305 0
M  V30 4285 C 388.645 -0.679774 -6.33765 0
M  V30 4286 C 386.332 -0.0296449 -6.11093 0
M  V30 4287 C 387.33 -0.721614 -6.79177 0
M  V30 4288 O 387.018 -1.44595 -7.90789 0
M  V30 4289 H 386.75 0.211459 -0.642076 0
M  V30 4290 H 389.304 -0.00585615 -2.05399 0
M  V30 4291 H 387.534 2.33147 -3.08512 0
M  V30 4292 H 389.223 2.13247 -3.4537 0
M  V30 4293 H 389.989 0.0783188 -4.84937 0
M  V30 4294 H 385.868 1.23474 -4.44157 0
M  V30 4295 H 389.412 -1.22042 -6.86842 0
M  V30 4296 H 385.309 -0.0571331 -6.45475 0
M  V30 4297 H 386.077 -1.35935 -8.07133 0
M  V30 4298 N 388.74 1.54641 0.303973 0
M  V30 4299 C 389.687 1.85386 1.37479 0
M  V30 4300 C 390.657 0.702528 1.50512 0
M  V30 4301 O 391.842 0.950867 1.65418 0
M  V30 4302 C 388.982 2.10413 2.73533 0
M  V30 4303 C 388.095 3.38049 2.68974 0
M  V30 4304 C 387.23 3.52934 3.97002 0
M  V30 4305 C 386.269 4.74373 3.86829 0
M  V30 4306 N 385.406 4.8608 5.06627 0
M  V30 4307 H 390.246 2.76732 1.1056 0
M  V30 4308 H 387.783 1.37034 0.534805 0
M  V30 4309 H 389.741 2.22919 3.52652 0
M  V30 4310 H 388.371 1.22338 2.98719 0
M  V30 4311 H 387.423 3.3418 1.81736 0
M  V30 4312 H 388.735 4.27288 2.57346 0
M  V30 4313 H 387.889 3.65088 4.84557 0
M  V30 4314 H 386.628 2.61824 4.1146 0
M  V30 4315 H 385.633 4.62255 2.97658 0
M  V30 4316 H 386.858 5.66888 3.73918 0
M  V30 4317 H 384.804 3.97891 5.21554 0
M  V30 4318 H 384.721 5.69315 4.9741 0
M  V30 4319 H 385.989 5.02587 5.95841 0
M  V30 4320 N 390.218 -0.567019 1.47046 0
M  V30 4321 C 391.446 -1.35027 1.56765 0
M  V30 4322 C 391.861 -1.8758 0.214316 0
M  V30 4323 O 391.218 -1.64471 -0.790919 0
M  V30 4324 C 391.269 -2.52698 2.58507 0
M  V30 4325 O 390.99 -2.0232 3.88585 0
M  V30 4326 C 392.491 -3.45043 2.78316 0
M  V30 4327 H 389.711 -0.41195 0.529658 0
M  V30 4328 H 392.255 -0.687832 1.92585 0
M  V30 4329 H 390.41 -3.149 2.25648 0
M  V30 4330 H 390.824 -2.79068 4.44096 0
M  V30 4331 H 392.298 -4.2405 3.53391 0
M  V30 4332 H 392.775 -3.97971 1.85784 0
M  V30 4333 H 393.381 -2.88665 3.12334 0
M  V30 4334 N 391.696 -1.35014 -0.812953 0
M  V30 4335 C 392.945 -1.27269 -1.56479 0
M  V30 4336 C 393.258 0.152771 -1.95002 0
M  V30 4337 O 394.464 0.352451 -2.69203 0
M  V30 4338 C 392.92 -2.23159 -2.82362 0
M  V30 4339 C 392.528 -3.71016 -2.511 0
M  V30 4340 C 394.272 -2.24342 -3.60376 0
M  V30 4341 C 392.179 -4.58746 -3.73237 0
M  V30 4342 H 391.109 -0.472829 -0.587324 0
M  V30 4343 H 393.76 -1.6024 -0.894171 0
M  V30 4344 H 392.142 -1.83151 -3.51101 0
M  V30 4345 H 393.316 -4.1962 -1.90409 0
M  V30 4346 H 391.631 -3.72378 -1.86343 0
M  V30 4347 H 394.228 -2.87107 -4.51081 0
M  V30 4348 H 394.571 -1.24542 -3.97234 0
M  V30 4349 H 395.104 -2.62846 -2.98591 0
M  V30 4350 H 391.843 -5.59521 -3.41492 0
M  V30 4351 H 391.363 -4.14871 -4.33176 0
M  V30 4352 H 393.042 -4.73852 -4.40537 0
M  V30 4353 N 393.175 1.03435 -1.18907 0
M  V30 4354 C 394.105 2.13503 -0.945448 0
M  V30 4355 C 395.086 1.69682 0.119189 0
M  V30 4356 O 396.271 1.94169 -0.034707 0
M  V30 4357 C 393.401 3.44004 -0.477316 0
M  V30 4358 C 392.355 4.0148 -1.48316 0
M  V30 4359 C 391.681 5.27537 -0.872311 0
M  V30 4360 C 392.981 4.36921 -2.86177 0
M  V30 4361 H 394.675 2.34141 -1.86597 0
M  V30 4362 H 392.221 1.12523 -0.898584 0
M  V30 4363 H 394.174 4.20372 -0.294204 0
M  V30 4364 H 392.898 3.23072 0.478786 0
M  V30 4365 H 391.557 3.27201 -1.65332 0
M  V30 4366 H 391.205 5.02917 0.0911752 0
M  V30 4367 H 390.905 5.66954 -1.54393 0
M  V30 4368 H 392.429 6.06576 -0.699871 0
M  V30 4369 H 393.843 5.04248 -2.72776 0
M  V30 4370 H 392.24 4.87405 -3.50081 0
M  V30 4371 H 393.31 3.46466 -3.39248 0
M  V30 4372 N 394.653 0.992116 1.22453 0
M  V30 4373 C 395.583 0.561677 2.26644 0
M  V30 4374 C 396.564 -0.411055 1.65059 0
M  V30 4375 O 397.749 -0.301861 1.9184 0
M  V30 4376 C 394.879 -0.125247 3.47074 0
M  V30 4377 C 393.833 0.765948 4.21091 0
M  V30 4378 C 393.159 -0.0538484 5.34673 0
M  V30 4379 C 394.459 2.06242 4.79856 0
M  V30 4380 H 396.153 1.43259 2.62902 0
M  V30 4381 H 393.699 0.690283 1.26377 0
M  V30 4382 H 395.652 -0.437764 4.1912 0
M  V30 4383 H 394.376 -1.03069 3.0991 0
M  V30 4384 H 393.035 1.0621 3.50878 0
M  V30 4385 H 392.683 -0.960188 4.9375 0
M  V30 4386 H 392.383 0.539415 5.85119 0
M  V30 4387 H 393.907 -0.360477 6.09535 0
M  V30 4388 H 395.321 1.8139 5.43848 0
M  V30 4389 H 393.718 2.60444 5.40638 0
M  V30 4390 H 394.788 2.74167 3.99951 0
M  V30 4391 N 396.131 -1.37776 0.765217 0
M  V30 4392 C 397.356 -2.04651 0.336537 0
M  V30 4393 C 397.781 -1.57337 -1.03086 0
M  V30 4394 O 397.139 -0.730621 -1.65927 0
M  V30 4395 C 397.187 -3.58577 0.381468 0
M  V30 4396 O 396.291 -4.07706 -0.62042 0
M  V30 4397 H 395.632 -0.64756 0.146838 0
M  V30 4398 H 398.162 -1.76221 1.03959 0
M  V30 4399 H 398.172 -4.07314 0.236448 0
M  V30 4400 H 396.847 -3.9237 1.37907 0
M  V30 4401 H 395.424 -3.70306 -0.439056 0
M  V30 4402 N 397.609 -0.515225 -1.4894 0
M  V30 4403 C 398.837 0.0206034 -2.0689 0
M  V30 4404 C 399.252 1.29514 -1.37374 0
M  V30 4405 O 398.609 1.76698 -0.456529 0
M  V30 4406 C 398.66 0.26351 -3.60538 0
M  V30 4407 O 398.381 -0.960517 -4.27441 0
M  V30 4408 C 399.882 0.841383 -4.35242 0
M  V30 4409 H 397.102 -0.0268608 -0.670462 0
M  V30 4410 H 399.646 -0.716651 -1.91532 0
M  V30 4411 H 397.801 0.950777 -3.75552 0
M  V30 4412 H 398.215 -0.73212 -5.19365 0
M  V30 4413 H 399.689 0.96085 -5.43573 0
M  V30 4414 H 400.166 1.8427 -3.98674 0
M  V30 4415 H 400.772 0.191143 -4.2487 0
M  V30 4416 N 399.087 1.5561 -0.249682 0
M  V30 4417 C 400.315 2.03411 0.378352 0
M  V30 4418 C 400.73 1.12886 1.51335 0
M  V30 4419 O 400.087 0.143833 1.81932 0
M  V30 4420 C 400.138 3.50537 0.88351 0
M  V30 4421 O 399.859 4.37614 -0.20626 0
M  V30 4422 C 401.36 4.14113 1.58195 0
M  V30 4423 H 398.58 0.664994 0.08958 0
M  V30 4424 H 401.124 2.01044 -0.374357 0
M  V30 4425 H 399.279 3.5343 1.58639 0
M  V30 4426 H 399.693 5.24199 0.177782 0
M  V30 4427 H 401.167 5.18741 1.8871 0
M  V30 4428 H 401.644 3.60767 2.50487 0
M  V30 4429 H 402.25 4.15151 0.923573 0
M  V30 4430 N 400.565 -0.0233959 1.57583 0
M  V30 4431 C 401.842 -0.748794 1.807 0
M  V30 4432 C 402.222 -1.9327 0.849106 0
M  V30 4433 O 401.57 -2.28247 -0.107468 0
M  V30 4434 C 401.78 -1.17651 3.28571 0
M  V30 4435 C 403.128 -1.59008 3.93702 0
M  V30 4436 O 404.152 -1.27094 3.32755 0
M  V30 4437 O 403.011 -2.18264 5.01022 0
M  V30 4438 H 400.105 -0.362578 0.743281 0
M  V30 4439 H 402.651 0.000261958 1.697 0
M  V30 4440 H 401.423 -0.331603 3.89892 0
M  V30 4441 H 401.046 -1.98541 3.44481 0
M  V30 4442 N 402.043 -1.548 -0.295768 0
M  V30 4443 C 403.454 -1.65274 -0.868411 0
M  V30 4444 C 403.805 -0.56481 -1.87894 0
M  V30 4445 O 402.93 0.29767 -2.14343 0
M  V30 4446 C 403.525 -2.99603 -1.58188 0
M  V30 4447 C 402.084 -3.12181 -2.10286 0
M  V30 4448 C 401.231 -2.6098 -0.93727 0
M  V30 4449 H 404.182 -1.58534 -0.0726422 0
M  V30 4450 H 404.203 -2.91319 -2.44772 0
M  V30 4451 H 403.715 -3.78764 -0.846151 0
M  V30 4452 H 401.816 -2.3775 -2.8689 0
M  V30 4453 H 401.929 -4.18415 -2.33379 0
M  V30 4454 H 400.293 -2.17564 -1.32431 0
M  V30 4455 H 401.076 -3.42623 -0.215414 0
M  V30 4456 N 403.521 0.559213 -1.47345 0
M  V30 4457 C 404.484 1.64854 -1.59235 0
M  V30 4458 C 405.484 1.53851 -0.467607 0
M  V30 4459 O 406.674 1.58045 -0.732617 0
M  V30 4460 C 403.806 3.04388 -1.53496 0
M  V30 4461 H 404.999 1.55662 -2.56339 0
M  V30 4462 H 402.552 0.778973 -1.35505 0
M  V30 4463 H 403.287 3.19115 -0.577604 0
M  V30 4464 H 403.072 3.13783 -2.35123 0
M  V30 4465 H 404.562 3.83642 -1.6495 0
M  V30 4466 N 404.999 1.35443 0.805782 0
M  V30 4467 C 406.276 1.19325 1.54987 0
M  V30 4468 C 406.656 -0.227294 2.09873 0
M  V30 4469 O 406.004 -1.2309 1.92512 0
M  V30 4470 C 406.214 2.26196 2.65775 0
M  V30 4471 C 407.562 2.62043 3.34094 0
M  V30 4472 O 408.586 2.25115 2.76046 0
M  V30 4473 O 407.445 3.25542 4.38958 0
M  V30 4474 H 404.539 0.463623 0.684823 0
M  V30 4475 H 407.085 1.47127 0.845674 0
M  V30 4476 H 405.857 3.21471 2.23096 0
M  V30 4477 H 405.48 1.99667 3.43829 0
M  V30 4478 N 406.477 -1.02803 1.19454 0
M  V30 4479 C 407.724 -1.76217 0.997693 0
M  V30 4480 C 408.052 -1.887 -0.47144 0
M  V30 4481 O 407.307 -1.4011 -1.3663 0
M  V30 4482 C 407.606 -3.18941 1.6128 0
M  V30 4483 C 407.272 -3.26463 3.11019 0
M  V30 4484 C 405.934 -3.28223 3.51885 0
M  V30 4485 C 408.286 -3.25542 4.07028 0
M  V30 4486 C 405.614 -3.26719 4.8731 0
M  V30 4487 C 407.966 -3.25579 5.42385 0
M  V30 4488 C 406.63 -3.25637 5.82681 0
M  V30 4489 H 405.9 -0.644823 0.365082 0
M  V30 4490 H 408.547 -1.20655 1.4871 0
M  V30 4491 H 406.852 -3.77587 1.04572 0
M  V30 4492 H 408.549 -3.74415 1.43577 0
M  V30 4493 H 405.139 -3.25822 2.78457 0
M  V30 4494 H 409.323 -3.23362 3.76498 0
M  V30 4495 H 404.579 -3.25089 5.1781 0
M  V30 4496 H 408.753 -3.23817 6.16535 0
M  V30 4497 H 406.38 -3.24226 6.87591 0
M  V30 4498 N 407.956 -0.998596 -1.21925 0
M  V30 4499 C 408.919 -0.558679 -2.22287 0
M  V30 4500 C 409.919 0.361525 -1.56683 0
M  V30 4501 O 411.109 0.152695 -1.73529 0
M  V30 4502 C 408.241 0.18661 -3.40389 0
M  V30 4503 H 409.434 -1.4463 -2.62721 0
M  V30 4504 H 406.987 -0.786413 -1.35075 0
M  V30 4505 H 407.722 1.08996 -3.05435 0
M  V30 4506 H 407.507 -0.474188 -3.89222 0
M  V30 4507 H 408.997 0.482367 -4.14805 0
M  V30 4508 N 409.434 1.37368 -0.772513 0
M  V30 4509 C 410.68 1.99969 -0.337681 0
M  V30 4510 C 411.013 1.61184 1.08321 0
M  V30 4511 O 410.288 0.858395 1.74533 0
M  V30 4512 C 410.571 3.56858 -0.482121 0
M  V30 4513 C 410.424 4.0555 -1.94549 0
M  V30 4514 C 411.743 4.39955 0.113143 0
M  V30 4515 H 408.862 0.726464 -0.124171 0
M  V30 4516 H 411.504 1.63034 -0.975699 0
M  V30 4517 H 409.654 3.88452 0.0610361 0
M  V30 4518 H 411.326 3.84518 -2.54841 0
M  V30 4519 H 409.569 3.57715 -2.45403 0
M  V30 4520 H 410.24 5.14587 -1.9976 0
M  V30 4521 H 412.716 4.14623 -0.35031 0
M  V30 4522 H 411.592 5.48897 -0.0180514 0
M  V30 4523 H 411.853 4.25403 1.20354 0
M  V30 4524 N 410.912 0.523116 1.48665 0
M  V30 4525 C 411.875 -0.232592 2.28017 0
M  V30 4526 C 412.875 -0.874021 1.34972 0
M  V30 4527 O 414.065 -0.735132 1.57929 0
M  V30 4528 C 411.197 -1.33586 3.13636 0
M  V30 4529 H 412.39 0.464008 2.96289 0
M  V30 4530 H 409.943 0.278816 1.53793 0
M  V30 4531 H 410.678 -2.06593 2.4998 0
M  V30 4532 H 410.463 -0.881125 3.82071 0
M  V30 4533 H 411.953 -1.86759 3.73511 0
M  V30 4534 N 412.39 -1.55475 0.257931 0
M  V30 4535 C 413.3 -2.2549 -0.647425 0
M  V30 4536 C 414.316 -1.2748 -1.18427 0
M  V30 4537 O 415.492 -1.6038 -1.2182 0
M  V30 4538 C 412.557 -2.94916 -1.82278 0
M  V30 4539 C 411.618 -4.08363 -1.32432 0
M  V30 4540 C 410.851 -4.74469 -2.44366 0
M  V30 4541 O 411.074 -4.39701 -3.63344 0
M  V30 4542 O 410.008 -5.62763 -2.13497 0
M  V30 4543 H 413.834 -3.03593 -0.0807707 0
M  V30 4544 H 411.419 -1.49377 0.0259962 0
M  V30 4545 H 413.301 -3.38606 -2.50846 0
M  V30 4546 H 411.976 -2.19744 -2.37685 0
M  V30 4547 H 410.883 -3.69166 -0.605605 0
M  V30 4548 H 412.216 -4.85385 -0.816211 0
M  V30 4549 N 413.868 0.0150385 -1.57593 0
M  V30 4550 C 414.831 0.995996 -2.06428 0
M  V30 4551 C 415.831 1.2818 -0.970903 0
M  V30 4552 O 417.021 1.22949 -1.23406 0
M  V30 4553 C 414.153 2.32506 -2.49307 0
M  V30 4554 H 415.346 0.573873 -2.94358 0
M  V30 4555 H 412.899 0.262186 -1.54085 0
M  V30 4556 H 413.634 2.79438 -1.64575 0
M  V30 4557 H 413.419 2.13087 -3.29145 0
M  V30 4558 H 414.909 3.02906 -2.87468 0
M  V30 4559 N 415.346 1.54954 0.287554 0
M  V30 4560 C 416.276 1.89839 1.35954 0
M  V30 4561 C 417.257 0.758675 1.52244 0
M  V30 4562 O 418.442 1.01557 1.65529 0
M  V30 4563 C 415.572 2.15753 2.72154 0
M  V30 4564 C 414.526 3.3159 2.70614 0
M  V30 4565 C 413.852 3.42952 4.10229 0
M  V30 4566 C 415.152 4.68359 2.31165 0
M  V30 4567 H 416.846 2.79625 1.07007 0
M  V30 4568 H 414.392 1.3454 0.513316 0
M  V30 4569 H 416.345 2.38743 3.47246 0
M  V30 4570 H 415.069 1.22752 3.02654 0
M  V30 4571 H 413.728 3.08545 1.97979 0
M  V30 4572 H 413.376 2.47443 4.37928 0
M  V30 4573 H 413.076 4.20826 4.10097 0
M  V30 4574 H 414.6 3.68218 4.87081 0
M  V30 4575 H 416.014 4.9099 2.95976 0
M  V30 4576 H 414.411 5.49044 2.42221 0
M  V30 4577 H 415.481 4.68165 1.26291 0
M  V30 4578 N 416.824 -0.551391 1.4764 0
M  V30 4579 C 417.734 -1.68525 1.63207 0
M  V30 4580 C 418.75 -1.6621 0.514815 0
M  V30 4581 O 419.926 -1.85551 0.783113 0
M  V30 4582 C 416.991 -3.05025 1.64805 0
M  V30 4583 C 416.052 -3.18362 2.88 0
M  V30 4584 C 415.285 -4.4835 2.89513 0
M  V30 4585 O 415.508 -5.34163 2.00065 0
M  V30 4586 O 414.442 -4.65602 3.81443 0
M  V30 4587 H 418.268 -1.58333 2.59161 0
M  V30 4588 H 415.853 -0.722063 1.30792 0
M  V30 4589 H 417.735 -3.86245 1.68502 0
M  V30 4590 H 416.41 -3.15587 0.720197 0
M  V30 4591 H 415.317 -2.36518 2.89845 0
M  V30 4592 H 416.65 -3.12707 3.80099 0
M  V30 4593 N 418.302 -1.35869 -0.798587 0
M  V30 4594 C 419.249 -1.29446 -1.91082 0
M  V30 4595 C 420.219 -0.16487 -1.6528 0
M  V30 4596 O 421.404 -0.349888 -1.87564 0
M  V30 4597 C 418.544 -1.0804 -3.27752 0
M  V30 4598 C 417.657 -2.29993 -3.65687 0
M  V30 4599 C 416.792 -2.01673 -4.91428 0
M  V30 4600 C 415.831 -3.19636 -5.22015 0
M  V30 4601 N 414.968 -2.91039 -6.38937 0
M  V30 4602 H 419.808 -2.24553 -1.95907 0
M  V30 4603 H 417.345 -1.11615 -0.958148 0
M  V30 4604 H 419.303 -0.936586 -4.06551 0
M  V30 4605 H 417.933 -0.16592 -3.22373 0
M  V30 4606 H 416.985 -2.55211 -2.82085 0
M  V30 4607 H 418.297 -3.18052 -3.84245 0
M  V30 4608 H 417.451 -1.84168 -5.78072 0
M  V30 4609 H 416.19 -1.10911 -4.74921 0
M  V30 4610 H 415.195 -3.37709 -4.33858 0
M  V30 4611 H 416.42 -4.11211 -5.40447 0
M  V30 4612 H 414.366 -2.0288 -6.2384 0
M  V30 4613 H 414.283 -3.72635 -6.57784 0
M  V30 4614 H 415.551 -2.77093 -7.28587 0
M  V30 4615 N 419.78 1.02168 -1.19998 0
M  V30 4616 C 421.01 1.79036 -1.031 0
M  V30 4617 C 421.418 1.84409 0.423078 0
M  V30 4618 O 420.761 1.29228 1.30559 0
M  V30 4619 C 420.823 3.25185 -1.53281 0
M  V30 4620 C 420.487 3.43431 -3.01503 0
M  V30 4621 C 421.484 3.33063 -3.99206 0
M  V30 4622 C 419.169 3.69412 -3.40353 0
M  V30 4623 C 421.163 3.48413 -5.33748 0
M  V30 4624 C 418.85 3.84406 -4.75053 0
M  V30 4625 C 419.848 3.7391 -5.71559 0
M  V30 4626 O 419.536 3.88452 -7.03818 0
M  V30 4627 H 419.268 0.570043 -0.363355 0
M  V30 4628 H 421.822 1.29524 -1.59414 0
M  V30 4629 H 420.052 3.75756 -0.913483 0
M  V30 4630 H 421.741 3.83671 -1.32481 0
M  V30 4631 H 422.507 3.12934 -3.70537 0
M  V30 4632 H 418.386 3.76671 -2.65782 0
M  V30 4633 H 421.93 3.40137 -6.09059 0
M  V30 4634 H 417.827 4.04035 -5.03415 0
M  V30 4635 H 418.595 4.055 -7.10993 0
M  V30 4636 N 421.258 1.00505 1.21394 0
M  V30 4637 C 422.506 0.686415 1.90086 0
M  V30 4638 C 422.827 -0.785264 1.7849 0
M  V30 4639 O 422.097 -1.56387 1.17983 0
M  V30 4640 H 420.677 0.2509 0.703604 0
M  V30 4641 H 423.339 1.27417 1.47482 0
M  V30 4642 H 422.435 0.959621 2.96981 0
M  V30 4643 N 422.737 -1.36956 0.779787 0
M  V30 4644 C 423.667 -2.32761 0.185651 0
M  V30 4645 C 424.648 -1.56177 -0.673989 0
M  V30 4646 O 425.833 -1.84378 -0.609797 0
M  V30 4647 C 422.963 -3.40418 -0.687964 0
M  V30 4648 C 421.917 -4.27941 0.0710102 0
M  V30 4649 C 421.243 -5.26681 -0.922573 0
M  V30 4650 C 422.543 -5.07006 1.25467 0
M  V30 4651 H 424.237 -2.82698 0.986008 0
M  V30 4652 H 421.783 -1.3592 0.475592 0
M  V30 4653 H 423.736 -4.06423 -1.11348 0
M  V30 4654 H 422.46 -2.89025 -1.52093 0
M  V30 4655 H 421.119 -3.63478 0.47739 0
M  V30 4656 H 420.767 -4.71565 -1.7503 0
M  V30 4657 H 420.467 -5.86103 -0.419237 0
M  V30 4658 H 421.991 -5.9556 -1.34686 0
M  V30 4659 H 423.405 -5.66105 0.905401 0
M  V30 4660 H 421.802 -5.75793 1.69063 0
M  V30 4661 H 422.872 -4.3921 2.05481 0
M  V30 4662 N 424.215 -0.530993 -1.48385 0
M  V30 4663 C 425.125 0.23503 -2.3342 0
M  V30 4664 C 426.141 0.93801 -1.46552 0
M  V30 4665 O 427.317 0.912745 -1.7953 0
M  V30 4666 C 424.382 1.26778 -3.22689 0
M  V30 4667 C 423.443 0.575038 -4.25431 0
M  V30 4668 C 422.676 1.55858 -5.10435 0
M  V30 4669 O 422.899 2.79129 -4.97437 0
M  V30 4670 O 421.833 1.09742 -5.91811 0
M  V30 4671 H 425.659 -0.461794 -3.00169 0
M  V30 4672 H 423.244 -0.291903 -1.46521 0
M  V30 4673 H 425.126 1.86457 -3.77904 0
M  V30 4674 H 423.801 1.94699 -2.586 0
M  V30 4675 H 422.708 -0.0622782 -3.74048 0
M  V30 4676 H 424.041 -0.062253 -4.92161 0
M  V30 4677 N 425.693 1.55336 -0.266172 0
M  V30 4678 C 426.64 2.22172 0.625165 0
M  V30 4679 C 427.61 1.19211 1.15663 0
M  V30 4680 O 428.795 1.47723 1.20758 0
M  V30 4681 C 425.935 2.93972 1.8076 0
M  V30 4682 C 425.048 4.11632 1.31084 0
M  V30 4683 C 424.183 4.71099 2.45436 0
M  V30 4684 C 423.222 5.8097 1.92718 0
M  V30 4685 N 422.359 6.34538 3.00509 0
M  V30 4686 H 427.199 2.9796 0.0485582 0
M  V30 4687 H 424.736 1.47095 0.0122024 0
M  V30 4688 H 426.694 3.33811 2.50251 0
M  V30 4689 H 425.324 2.20623 2.35638 0
M  V30 4690 H 424.376 3.76975 0.509326 0
M  V30 4691 H 425.688 4.90893 0.884633 0
M  V30 4692 H 424.842 5.13612 3.22936 0
M  V30 4693 H 423.581 3.91096 2.91368 0
M  V30 4694 H 422.586 5.37916 1.13695 0
M  V30 4695 H 423.811 6.62836 1.47733 0
M  V30 4696 H 421.757 5.57433 3.45839 0
M  V30 4697 H 421.674 7.09046 2.62279 0
M  V30 4698 H 422.942 6.81709 3.78011 0
M  V30 4699 N 427.171 -0.0066808 1.57599 0
M  V30 4700 C 428.081 -1.01671 2.11424 0
M  V30 4701 C 429.097 -1.38143 1.05795 0
M  V30 4702 O 430.273 -1.47011 1.37658 0
M  V30 4703 C 427.338 -2.29192 2.60139 0
M  V30 4704 C 426.399 -1.99094 3.80342 0
M  V30 4705 C 425.632 -3.20535 4.26724 0
M  V30 4706 O 425.855 -4.3199 3.72479 0
M  V30 4707 O 424.789 -3.04924 5.18946 0
M  V30 4708 H 428.615 -0.589181 2.9793 0
M  V30 4709 H 426.2 -0.225091 1.47695 0
M  V30 4710 H 428.082 -3.0412 2.917 0
M  V30 4711 H 426.757 -2.71195 1.76733 0
M  V30 4712 H 425.664 -1.21663 3.53764 0
M  V30 4713 H 426.997 -1.61931 4.648 0
M  V30 4714 N 428.649 -1.55105 -0.279332 0
M  V30 4715 C 429.597 -1.88333 -1.36505 0
M  V30 4716 C 430.591 -0.759043 -1.51443 0
M  V30 4717 O 431.797 -0.943312 -1.53302 0
M  V30 4718 H 428.172 -0.59766 -0.456406 0
M  V30 4719 H 430.143 -2.79041 -1.05728 0
M  V30 4720 C 428.892 -2.16628 -2.7197 0
M  V30 4721 H 428.215 -3.02624 -2.61264 0
M  V30 4722 H 429.655 -2.43803 -3.46895 0
M  V30 4723 C 428.114 -0.971807 -3.22579 0
M  V30 4724 O 428.644 -0.203228 -4.01186 0
M  V30 4725 N 426.85 -0.771238 -2.80179 0
M  V30 4726 H 426.397 -1.39792 -2.1637 0
M  V30 4727 H 426.355 0.0263667 -3.14389 0
M  V30 4728 N 430.127 0.543554 -1.4793 0
M  V30 4729 C 431.538 1.12561 -1.48953 0
M  V30 4730 C 431.889 1.94578 -0.251754 0
M  V30 4731 O 431.014 2.0665 0.642255 0
M  V30 4732 C 431.609 2.04801 -2.69892 0
M  V30 4733 C 430.168 2.58251 -2.73831 0
M  V30 4734 C 429.315 1.34918 -2.42265 0
M  V30 4735 H 432.266 0.32947 -1.55242 0
M  V30 4736 H 432.287 2.88886 -2.47639 0
M  V30 4737 H 431.799 1.4508 -3.59963 0
M  V30 4738 H 429.9 3.21732 -1.87934 0
M  V30 4739 H 430.013 2.98312 -3.74895 0
M  V30 4740 H 428.377 1.66046 -1.93134 0
M  V30 4741 H 429.16 0.769693 -3.3456 0
M  V30 4742 N 431.605 1.3629 0.791371 0
M  V30 4743 C 432.552 1.30458 1.90393 0
M  V30 4744 C 433.522 0.173632 1.6519 0
M  V30 4745 O 434.707 0.35983 1.87376 0
M  V30 4746 C 431.847 1.09777 3.27174 0
M  V30 4747 C 430.96 2.31929 3.64462 0
M  V30 4748 C 430.095 2.04276 4.90352 0
M  V30 4749 C 429.134 3.224 5.20312 0
M  V30 4750 N 428.271 2.94424 6.37385 0
M  V30 4751 H 433.111 2.25589 1.94714 0
M  V30 4752 H 430.648 1.12122 0.952216 0
M  V30 4753 H 432.606 0.958133 4.06049 0
M  V30 4754 H 431.236 0.183014 3.22281 0
M  V30 4755 H 430.288 2.56703 2.80727 0
M  V30 4756 H 431.6 3.20085 3.82553 0
M  V30 4757 H 430.754 1.87231 5.77087 0
M  V30 4758 H 429.493 1.13428 4.74326 0
M  V30 4759 H 428.498 3.40005 4.32061 0
M  V30 4760 H 429.723 4.14071 5.38258 0
M  V30 4761 H 427.669 2.06185 6.22755 0
M  V30 4762 H 427.586 3.76118 6.55798 0
M  V30 4763 H 428.854 2.80953 7.27108 0
M  V30 4764 N 433.083 -1.0153 1.20538 0
M  V30 4765 C 434.36 -1.72327 0.925343 0
M  V30 4766 C 434.74 -2.03383 -0.565547 0
M  V30 4767 O 434.088 -1.69934 -1.52757 0
M  V30 4768 C 434.298 -2.9902 1.79967 0
M  V30 4769 C 435.646 -3.72258 2.04228 0
M  V30 4770 O 436.67 -3.08979 1.77231 0
M  V30 4771 O 435.529 -4.86053 2.4983 0
M  V30 4772 H 432.623 -0.751099 0.346092 0
M  V30 4773 H 435.169 -1.07366 1.31417 0
M  V30 4774 H 433.941 -2.72402 2.80915 0
M  V30 4775 H 433.564 -3.71721 1.41099 0
M  V30 4776 N 434.561 -1.01147 -1.20859 0
M  V30 4777 C 435.791 -0.715872 -1.93801 0
M  V30 4778 C 436.199 0.726592 -1.74692 0
M  V30 4779 O 435.542 1.50397 -1.05482 0
M  V30 4780 C 435.604 -0.965269 -3.46299 0
M  V30 4781 C 435.268 -2.39584 -3.89164 0
M  V30 4782 C 436.265 -3.3764 -3.95342 0
M  V30 4783 C 433.95 -2.73522 -4.21297 0
M  V30 4784 C 435.944 -4.67698 -4.33056 0
M  V30 4785 C 433.631 -4.03794 -4.58687 0
M  V30 4786 C 434.629 -5.00693 -4.64538 0
M  V30 4787 O 434.317 -6.28635 -5.01072 0
M  V30 4788 H 434.049 -0.262524 -0.622942 0
M  V30 4789 H 436.603 -1.35413 -1.54443 0
M  V30 4790 H 434.833 -0.269847 -3.85757 0
M  V30 4791 H 436.522 -0.662051 -4.00464 0
M  V30 4792 H 437.288 -3.12757 -3.70686 0
M  V30 4793 H 433.167 -1.9879 -4.15937 0
M  V30 4794 H 436.711 -5.4333 -4.37537 0
M  V30 4795 H 432.608 -4.28459 -4.82797 0
M  V30 4796 H 433.376 -6.32847 -5.19083 0
M  V30 4797 N 436.039 1.36541 -0.78704 0
M  V30 4798 C 437.279 2.01138 -0.363714 0
M  V30 4799 C 437.643 1.61114 1.04433 0
M  V30 4800 O 438.844 2.18285 1.56861 0
M  V30 4801 C 437.115 3.53603 -0.519582 0
M  V30 4802 S 438.674 4.38415 -0.183782 0
M  V30 4803 H 435.492 0.697263 -0.13909 0
M  V30 4804 H 438.094 1.66475 -1.02501 0
M  V30 4805 H 436.798 3.8022 -1.5447 0
M  V30 4806 H 436.329 3.93084 0.15773 0
M  V30 4807 H 438.344 4.85698 1.01547 0
M  V30 4808 N 437.518 0.538854 1.48102 0
M  V30 4809 C 438.767 0.0059532 2.01699 0
M  V30 4810 C 439.08 -1.34476 1.42041 0
M  V30 4811 O 440.286 -1.96653 1.87189 0
M  V30 4812 C 438.742 -0.0397627 3.59878 0
M  V30 4813 C 438.35 1.30659 4.28523 0
M  V30 4814 C 440.094 -0.521024 4.2129 0
M  V30 4815 C 438.001 1.22098 5.78659 0
M  V30 4816 H 436.931 -0.00154456 0.753998 0
M  V30 4817 H 439.582 0.683963 1.70277 0
M  V30 4818 H 437.964 -0.783037 3.88181 0
M  V30 4819 H 439.138 2.06613 4.11883 0
M  V30 4820 H 437.453 1.7243 3.79021 0
M  V30 4821 H 440.05 -0.603184 5.31287 0
M  V30 4822 H 440.393 -1.52885 3.8721 0
M  V30 4823 H 440.926 0.166834 3.9745 0
M  V30 4824 H 437.665 2.20424 6.17328 0
M  V30 4825 H 437.185 0.50295 5.97688 0
M  V30 4826 H 438.864 0.915345 6.40492 0
M  V30 4827 N 438.996 -1.55193 0.274407 0
M  V30 4828 C 439.959 -2.212 -0.600279 0
M  V30 4829 C 440.959 -1.18963 -1.08187 0
M  V30 4830 O 442.149 -1.43873 -0.982158 0
M  V30 4831 C 439.281 -2.87739 -1.82809 0
M  V30 4832 H 440.474 -2.9989 -0.0239682 0
M  V30 4833 H 438.027 -1.5628 0.0250192 0
M  V30 4834 H 438.762 -2.13058 -2.44493 0
M  V30 4835 H 438.547 -3.62658 -1.49069 0
M  V30 4836 H 440.037 -3.38171 -2.45011 0
M  V30 4837 N 440.474 -0.00167713 -1.576 0
M  V30 4838 C 441.89 0.354422 -1.55615 0
M  V30 4839 C 442.09 1.74679 -1.00447 0
M  V30 4840 O 441.146 2.4428 -0.639022 0
M  V30 4841 C 442.459 0.22812 -2.99833 0
M  V30 4842 C 444.007 0.302934 -3.11531 0
M  V30 4843 C 444.482 0.205737 -4.57538 0
M  V30 4844 N 445.973 0.263584 -4.62449 0
M  V30 4845 C 446.708 0.211742 -5.73009 0
M  V30 4846 N 446.204 0.110399 -6.92712 0
M  V30 4847 N 447.997 0.263729 -5.61481 0
M  V30 4848 H 440.148 -0.912498 -1.918 0
M  V30 4849 H 442.411 -0.349928 -0.881053 0
M  V30 4850 H 442.117 -0.729934 -3.44042 0
M  V30 4851 H 441.991 1.00951 -3.6344 0
M  V30 4852 H 444.378 1.25143 -2.67251 0
M  V30 4853 H 444.459 -0.508357 -2.50698 0
M  V30 4854 H 444.103 -0.739225 -5.02492 0
M  V30 4855 H 444.033 1.03554 -5.16318 0
M  V30 4856 H 446.524 0.343173 -3.76339 0
M  V30 4857 H 446.837 0.0767828 -7.72762 0
M  V30 4858 H 445.182 0.0760025 -6.94958 0
M  V30 4859 H 448.373 0.34111 -4.66855 0
M  V30 4860 H 448.546 0.219862 -6.47627 0
M  V30 4861 N 441.952 1.55251 0.271103 0
M  V30 4862 C 443.198 1.76207 1.00394 0
M  V30 4863 C 443.531 0.562604 1.85872 0
M  V30 4864 O 442.806 -0.439785 1.89463 0
M  V30 4865 C 443.089 3.06828 1.8849 0
M  V30 4866 C 442.942 4.37134 1.05992 0
M  V30 4867 C 444.261 3.33503 2.87165 0
M  V30 4868 H 441.38 0.641086 0.363562 0
M  V30 4869 H 444.022 1.87982 0.276189 0
M  V30 4870 H 442.172 2.96921 2.5054 0
M  V30 4871 H 443.844 4.59001 0.459978 0
M  V30 4872 H 442.087 4.32275 0.363443 0
M  V30 4873 H 442.758 5.2486 1.70955 0
M  V30 4874 H 445.234 3.43215 2.3525 0
M  V30 4875 H 444.11 4.2616 3.45946 0
M  V30 4876 H 444.371 2.53235 3.62387 0
M  V30 4877 N 443.43 -0.535701 1.48216 0
M  V30 4878 C 444.363 -1.65726 1.56876 0
M  V30 4879 C 445.341 -1.57094 0.419542 0
M  V30 4880 O 446.525 -1.77648 0.630352 0
M  V30 4881 C 443.652 -3.04096 1.49142 0
M  V30 4882 C 442.698 -3.31105 2.68834 0
M  V30 4883 S 443.531 -3.18001 4.30854 0
M  V30 4884 C 444.687 -4.58828 4.25709 0
M  V30 4885 H 444.92 -1.58129 2.51759 0
M  V30 4886 H 442.453 -0.718218 1.36678 0
M  V30 4887 H 444.411 -3.839 1.45366 0
M  V30 4888 H 443.072 -3.09139 0.556067 0
M  V30 4889 H 442.265 -4.32033 2.59545 0
M  V30 4890 H 441.867 -2.58961 2.69843 0
M  V30 4891 H 444.159 -5.5023 3.95289 0
M  V30 4892 H 445.102 -4.73172 5.26796 0
M  V30 4893 H 445.51 -4.37883 3.56257 0
M  V30 4894 N 444.908 -1.36708 -0.784132 0
M  V30 4895 C 445.838 -1.34153 -1.91116 0
M  V30 4896 C 446.819 -0.212121 -1.68772 0
M  V30 4897 O 448.004 -0.410581 -1.8981 0
M  V30 4898 C 445.134 -1.13535 -3.28218 0
M  V30 4899 C 444.088 -2.23356 -3.65097 0
M  V30 4900 C 443.414 -1.87875 -5.00607 0
M  V30 4901 C 444.714 -3.65473 -3.73131 0
M  V30 4902 H 446.408 -2.28459 -1.93512 0
M  V30 4903 H 443.954 -1.09973 -0.929618 0
M  V30 4904 H 445.907 -1.10381 -4.06687 0
M  V30 4905 H 444.631 -0.156804 -3.26223 0
M  V30 4906 H 443.29 -2.25645 -2.88929 0
M  V30 4907 H 442.938 -0.885814 -4.95139 0
M  V30 4908 H 442.638 -2.61406 -5.26252 0
M  V30 4909 H 444.162 -1.86286 -5.81489 0
M  V30 4910 H 445.576 -3.65382 -4.41779 0
M  V30 4911 H 443.973 -4.37953 -4.10265 0
M  V30 4912 H 445.043 -3.99995 -2.74102 0
M  V30 4913 N 446.386 1.0089 -1.21074 0
M  V30 4914 C 447.797 1.56056 -1.02486 0
M  V30 4915 C 448.148 1.91728 0.416506 0
M  V30 4916 O 447.273 1.73066 1.29912 0
M  V30 4917 C 447.868 2.83563 -1.85411 0
M  V30 4918 C 446.427 3.3523 -1.71166 0
M  V30 4919 C 445.574 2.0846 -1.82865 0
M  V30 4920 H 448.525 0.831818 -1.35154 0
M  V30 4921 H 448.546 3.55286 -1.36205 0
M  V30 4922 H 448.058 2.57569 -2.9031 0
M  V30 4923 H 446.159 3.66167 -0.689361 0
M  V30 4924 H 446.272 4.06913 -2.52901 0
M  V30 4925 H 444.636 2.21275 -1.26132 0
M  V30 4926 H 445.419 1.84883 -2.89263 0
M  V30 4927 N 447.864 1.01787 1.20321 0
M  V30 4928 C 449.275 0.739307 1.71438 0
M  V30 4929 C 449.626 -0.742041 1.81627 0
M  V30 4930 O 448.751 -1.57903 1.47971 0
M  V30 4931 C 449.346 1.33538 3.11373 0
M  V30 4932 C 447.905 1.10566 3.59795 0
M  V30 4933 C 447.052 1.44028 2.36962 0
M  V30 4934 H 450.003 1.18718 1.05317 0
M  V30 4935 H 450.024 0.726611 3.73498 0
M  V30 4936 H 449.536 2.41352 3.03926 0
M  V30 4937 H 447.637 0.0452405 3.72573 0
M  V30 4938 H 447.75 1.78661 4.44542 0
M  V30 4939 H 446.114 0.85933 2.39766 0
M  V30 4940 H 446.897 2.52901 2.32155 0
M  V30 4941 N 449.342 -1.36122 0.79427 0
M  V30 4942 C 450.59 -1.98718 0.368177 0
M  V30 4943 C 450.911 -1.63345 -1.06506 0
M  V30 4944 O 450.181 -0.909825 -1.73491 0
M  V30 4945 H 448.761 -0.735038 0.133146 0
M  V30 4946 H 451.423 -1.66239 1.01739 0
M  V30 4947 H 450.519 -3.08633 0.463923 0
M  V30 4948 N 450.82 -0.546701 -1.47814 0
M  V30 4949 C 451.783 0.196287 -2.28358 0
M  V30 4950 C 452.783 0.852437 -1.36346 0
M  V30 4951 O 453.973 0.709913 -1.59078 0
M  V30 4952 C 451.105 1.28579 -3.15722 0
M  V30 4953 H 452.298 -0.511086 -2.95513 0
M  V30 4954 H 449.851 -0.303248 -1.5333 0
M  V30 4955 H 450.586 2.0259 -2.53235 0
M  V30 4956 H 450.371 0.820229 -3.83425 0
M  V30 4957 H 451.861 1.80793 -3.76435 0
M  V30 4958 N 452.299 1.55045 -0.282633 0
M  V30 4959 C 453.231 2.2023 0.634924 0
M  V30 4960 C 454.244 1.18931 1.11172 0
M  V30 4961 O 455.433 1.4562 1.03233 0
M  V30 4962 C 452.533 2.82041 1.87899 0
M  V30 4963 C 451.706 4.091 1.54776 0
M  V30 4964 C 450.765 4.54887 2.64507 0
M  V30 4965 O 449.791 5.20496 2.30375 0
M  V30 4966 N 450.993 4.25659 3.94709 0
M  V30 4967 H 453.758 2.99601 0.0769811 0
M  V30 4968 H 451.319 1.61565 -0.104048 0
M  V30 4969 H 453.311 3.09613 2.60619 0
M  V30 4970 H 451.881 2.06618 2.3458 0
M  V30 4971 H 451.101 3.88736 0.654049 0
M  V30 4972 H 452.389 4.9187 1.30158 0
M  V30 4973 H 451.787 3.7306 4.25256 0
M  V30 4974 H 450.344 4.57984 4.63782 0
M  V30 4975 N 453.777 0.010035 1.57597 0
M  V30 4976 C 454.727 -0.986858 2.05536 0
M  V30 4977 C 455.711 -1.29711 0.952042 0
M  V30 4978 O 456.903 -1.28641 1.21575 0
M  V30 4979 C 454.032 -2.2756 2.57043 0
M  V30 4980 C 453.118 -1.99455 3.74271 0
M  V30 4981 N 453.509 -1.41546 4.85591 0
M  V30 4982 C 451.807 -2.29547 3.82393 0
M  V30 4983 C 452.508 -1.3014 5.66956 0
M  V30 4984 N 451.484 -1.79044 5.13268 0
M  V30 4985 H 455.286 -0.533778 2.89012 0
M  V30 4986 H 452.8 -0.195432 1.6122 0
M  V30 4987 H 454.797 -2.99829 2.89669 0
M  V30 4988 H 453.457 -2.73512 1.7499 0
M  V30 4989 H 454.468 -1.09294 5.06236 0
M  V30 4990 H 451.145 -2.78304 3.11213 0
M  V30 4991 H 452.535 -0.855237 6.66435 0
M  V30 4992 N 455.255 -1.55392 -0.262866 0
M  V30 4993 C 456.48 -1.80847 -1.01533 0
M  V30 4994 C 456.905 -0.584946 -1.78774 0
M  V30 4995 O 456.263 0.465701 -1.75217 0
M  V30 4996 C 456.311 -3.03866 -1.94159 0
M  V30 4997 O 455.415 -2.79662 -3.03089 0
M  V30 4998 H 454.756 -0.597441 -0.289759 0
M  V30 4999 H 457.286 -2.02553 -0.288698 0
M  V30 5000 H 457.296 -3.32872 -2.35924 0
M  V30 5001 H 455.971 -3.92564 -1.37354 0
M  V30 5002 H 454.548 -2.61781 -2.65566 0
M  V30 5003 N 456.733 0.527833 -1.48498 0
M  V30 5004 C 458.01 1.28905 -1.47115 0
M  V30 5005 C 458.39 2.10297 -0.184007 0
M  V30 5006 O 457.738 2.12728 0.834218 0
M  V30 5007 C 457.948 2.16866 -2.73441 0
M  V30 5008 C 459.296 2.76936 -3.21857 0
M  V30 5009 O 460.32 2.27152 -2.74373 0
M  V30 5010 O 459.179 3.67496 -4.04486 0
M  V30 5011 H 456.273 0.581918 -0.587623 0
M  V30 5012 H 458.819 0.544311 -1.60734 0
M  V30 5013 H 457.591 1.56521 -3.58632 0
M  V30 5014 H 457.214 2.98583 -2.62553 0
M  V30 5015 N 458.211 1.37122 0.776871 0
M  V30 5016 C 459.121 1.34651 1.9211 0
M  V30 5017 C 460.137 0.246824 1.7224 0
M  V30 5018 O 461.313 0.48134 1.95563 0
M  V30 5019 C 458.378 1.14748 3.2716 0
M  V30 5020 C 457.439 2.34308 3.5972 0
M  V30 5021 C 456.672 2.15345 4.88326 0
M  V30 5022 O 456.895 1.13507 5.58992 0
M  V30 5023 O 455.829 3.03414 5.1983 0
M  V30 5024 H 459.655 2.31013 1.97146 0
M  V30 5025 H 457.24 1.17799 0.918901 0
M  V30 5026 H 459.122 1.05616 4.0795 0
M  V30 5027 H 457.797 0.214562 3.22988 0
M  V30 5028 H 456.704 2.49011 2.79185 0
M  V30 5029 H 458.037 3.26149 3.68629 0
M  V30 5030 N 459.689 -1.00246 1.21608 0
M  V30 5031 C 460.636 -2.09073 0.977613 0
M  V30 5032 C 461.606 -1.65815 -0.097297 0
M  V30 5033 O 462.791 -1.90734 0.0503445 0
M  V30 5034 C 459.931 -3.40671 0.551133 0
M  V30 5035 C 459.044 -3.97326 1.69576 0
M  V30 5036 C 458.179 -5.17043 1.2182 0
M  V30 5037 C 457.218 -5.65813 2.335 0
M  V30 5038 N 456.355 -6.76778 1.86859 0
M  V30 5039 H 461.195 -2.28806 1.90924 0
M  V30 5040 H 458.732 -1.12186 0.951452 0
M  V30 5041 H 460.69 -4.16225 0.285097 0
M  V30 5042 H 459.32 -3.20967 -0.343489 0
M  V30 5043 H 458.372 -3.18734 2.07637 0
M  V30 5044 H 459.684 -4.29511 2.53617 0
M  V30 5045 H 458.838 -5.99852 0.908975 0
M  V30 5046 H 457.577 -4.86458 0.347869 0
M  V30 5047 H 456.582 -4.81599 2.65222 0
M  V30 5048 H 457.807 -5.98427 3.21033 0
M  V30 5049 H 455.753 -6.47994 1.02174 0
M  V30 5050 H 455.67 -7.08231 2.64471 0
M  V30 5051 H 456.938 -7.63116 1.58978 0
M  V30 5052 N 461.167 -1.02423 -1.1978 0
M  V30 5053 C 462.415 -0.716569 -1.8897 0
M  V30 5054 C 462.736 0.756769 -1.79716 0
M  V30 5055 O 462.006 1.5449 -1.20456 0
M  V30 5056 H 460.586 -0.262062 -0.699523 0
M  V30 5057 H 463.248 -1.29747 -1.45436 0
M  V30 5058 H 462.344 -1.00675 -2.95417 0
M  V30 5059 N 462.645 1.35699 -0.801477 0
M  V30 5060 C 463.608 2.28199 -0.213994 0
M  V30 5061 C 464.608 1.49359 0.595691 0
M  V30 5062 O 465.798 1.69186 0.414921 0
M  V30 5063 C 462.93 3.33587 0.702297 0
M  V30 5064 H 464.123 2.81666 -1.02976 0
M  V30 5065 H 461.676 1.45467 -0.571759 0
M  V30 5066 H 462.411 2.85297 1.54195 0
M  V30 5067 H 462.196 3.91906 0.123484 0
M  V30 5068 H 463.686 4.02638 1.10783 0
M  V30 5069 N 464.123 0.554532 1.47522 0
M  V30 5070 C 465.07 -0.19466 2.29978 0
M  V30 5071 C 466.04 -0.910882 1.38896 0
M  V30 5072 O 467.225 -0.907102 1.67858 0
M  V30 5073 C 464.365 -1.22035 3.22802 0
M  V30 5074 C 463.478 -0.510474 4.28973 0
M  V30 5075 C 462.613 -1.52123 5.08952 0
M  V30 5076 C 461.652 -0.796173 6.069 0
M  V30 5077 N 460.789 -1.75363 6.79847 0
M  V30 5078 H 465.629 0.51461 2.93523 0
M  V30 5079 H 463.166 0.265607 1.44682 0
M  V30 5080 H 465.124 -1.8276 3.7504 0
M  V30 5081 H 463.754 -1.89769 2.61127 0
M  V30 5082 H 462.806 0.211234 3.79813 0
M  V30 5083 H 464.118 0.0576503 4.98767 0
M  V30 5084 H 463.272 -2.20207 5.65326 0
M  V30 5085 H 462.011 -2.12327 4.39054 0
M  V30 5086 H 461.016 -0.101388 5.49707 0
M  V30 5087 H 462.241 -0.199911 6.78806 0
M  V30 5088 H 460.187 -2.3443 6.12682 0
M  V30 5089 H 460.104 -1.23759 7.45801 0
M  V30 5090 H 461.372 -2.4257 7.40797 0
M  V30 5091 N 465.601 -1.54893 0.290851 0
M  V30 5092 C 466.511 -2.26812 -0.59945 0
M  V30 5093 C 467.527 -1.29963 -1.15696 0
M  V30 5094 O 468.703 -1.62928 -1.18391 0
M  V30 5095 C 465.768 -2.98716 -1.75982 0
M  V30 5096 C 464.829 -4.1108 -1.2374 0
M  V30 5097 C 464.062 -4.79546 -2.34246 0
M  V30 5098 O 464.285 -4.47309 -3.53936 0
M  V30 5099 O 463.219 -5.67165 -2.01512 0
M  V30 5100 H 467.045 -3.03696 -0.0163561 0
M  V30 5101 H 464.63 -1.49289 0.0576755 0
M  V30 5102 H 466.512 -3.43851 -2.43607 0
M  V30 5103 H 465.187 -2.24737 -2.3297 0
M  V30 5104 H 464.094 -3.70367 -0.527163 0
M  V30 5105 H 465.427 -4.87007 -0.71307 0
M  V30 5106 N 467.08 -0.0183926 -1.57589 0
M  V30 5107 C 468.329 0.66185 -1.90532 0
M  V30 5108 C 468.642 1.73904 -0.895366 0
M  V30 5109 O 469.848 2.47518 -1.11566 0
M  V30 5110 C 468.304 1.22844 -3.38286 0
M  V30 5111 C 467.912 0.185103 -4.47617 0
M  V30 5112 C 469.656 1.88581 -3.80312 0
M  V30 5113 C 467.563 0.762723 -5.86461 0
M  V30 5114 H 466.493 0.250972 -0.711006 0
M  V30 5115 H 469.144 -0.0819435 -1.83317 0
M  V30 5116 H 467.526 2.0235 -3.40398 0
M  V30 5117 H 468.7 -0.58671 -4.5705 0
M  V30 5118 H 467.015 -0.372889 -4.14727 0
M  V30 5119 H 469.612 2.32735 -4.81392 0
M  V30 5120 H 469.955 2.72408 -3.14801 0
M  V30 5121 H 470.488 1.15782 -3.80578 0
M  V30 5122 H 467.227 -0.0371713 -6.55489 0
M  V30 5123 H 466.747 1.50327 -5.80656 0
M  V30 5124 H 468.426 1.25576 -6.34697 0
M  V30 5125 N 468.558 1.5553 0.254621 0
M  V30 5126 C 469.807 1.76202 0.981612 0
M  V30 5127 C 470.12 0.580883 1.86776 0
M  V30 5128 O 471.326 0.670448 2.63092 0
M  V30 5129 C 469.782 3.11921 1.79537 0
M  V30 5130 C 469.39 4.37659 0.956991 0
M  V30 5131 C 471.134 3.41936 2.51555 0
M  V30 5132 C 469.041 5.64411 1.76619 0
M  V30 5133 H 467.971 0.656841 0.370237 0
M  V30 5134 H 470.622 1.81969 0.236556 0
M  V30 5135 H 469.004 3.00241 2.58208 0
M  V30 5136 H 470.178 4.60307 0.21315 0
M  V30 5137 H 468.493 4.14922 0.350497 0
M  V30 5138 H 471.09 4.33849 3.12536 0
M  V30 5139 H 471.433 2.62905 3.22779 0
M  V30 5140 H 471.966 3.54797 1.799 0
M  V30 5141 H 468.705 6.46241 1.09783 0
M  V30 5142 H 468.225 5.45877 2.48551 0
M  V30 5143 H 469.904 6.03386 2.33527 0
M  V30 5144 N 470.036 -0.519951 1.48776 0
M  V30 5145 C 470.966 -1.63253 1.66945 0
M  V30 5146 C 471.947 -1.62014 0.518224 0
M  V30 5147 O 473.132 -1.79053 0.751919 0
M  V30 5148 C 470.262 -3.0181 1.71836 0
M  V30 5149 C 469.216 -3.17911 2.8656 0
M  V30 5150 C 468.542 -4.5763 2.76548 0
M  V30 5151 C 469.842 -2.99729 4.27738 0
M  V30 5152 H 471.536 -1.48302 2.6009 0
M  V30 5153 H 469.082 -0.712026 1.25165 0
M  V30 5154 H 471.035 -3.79525 1.83135 0
M  V30 5155 H 469.759 -3.17806 0.752775 0
M  V30 5156 H 468.418 -2.42616 2.74833 0
M  V30 5157 H 468.066 -4.70476 1.77937 0
M  V30 5158 H 467.766 -4.69346 3.53536 0
M  V30 5159 H 469.29 -5.37431 2.89828 0
M  V30 5160 H 470.704 -3.67228 4.40246 0
M  V30 5161 H 469.101 -3.22932 5.05801 0
M  V30 5162 H 470.171 -1.96047 4.43502 0
M  V30 5163 N 471.514 -1.37532 -0.769588 0
M  V30 5164 C 472.791 -1.23392 -1.51768 0
M  V30 5165 C 473.171 0.17157 -2.10402 0
M  V30 5166 O 472.519 1.17943 -1.95708 0
M  V30 5167 C 472.729 -2.33163 -2.59685 0
M  V30 5168 C 474.077 -2.70809 -3.27028 0
M  V30 5169 O 475.101 -2.32355 -2.69981 0
M  V30 5170 O 473.96 -3.37066 -4.30173 0
M  V30 5171 H 471.054 -0.481617 -0.67229 0
M  V30 5172 H 473.6 -1.49318 -0.806368 0
M  V30 5173 H 472.372 -3.27273 -2.14494 0
M  V30 5174 H 471.995 -2.08713 -3.38415 0
M  V30 5175 N 472.992 0.995999 -1.22138 0
M  V30 5176 C 474.269 1.70834 -0.952642 0
M  V30 5177 C 474.649 2.04257 0.533119 0
M  V30 5178 O 473.997 1.72343 1.50034 0
M  V30 5179 C 474.207 2.96119 -1.84701 0
M  V30 5180 C 475.555 3.68962 -2.10124 0
M  V30 5181 O 476.579 3.0612 -1.82124 0
M  V30 5182 O 475.438 4.82017 -2.57531 0
M  V30 5183 H 472.532 0.745498 -0.357997 0
M  V30 5184 H 475.078 1.05262 -1.33109 0
M  V30 5185 H 473.85 2.67898 -2.85213 0
M  V30 5186 H 473.473 3.6943 -1.46995 0
M  V30 5187 N 474.47 1.03057 1.19235 0
M  V30 5188 C 475.747 0.642608 1.84743 0
M  V30 5189 C 476.127 -0.878577 1.91948 0
M  V30 5190 O 475.475 -1.77597 1.43776 0
M  V30 5191 C 475.685 1.30665 3.23616 0
M  V30 5192 C 477.033 1.43098 3.9976 0
M  V30 5193 O 478.057 1.26396 3.3302 0
M  V30 5194 O 476.916 1.70223 5.19313 0
M  V30 5195 H 474.01 0.223573 0.796206 0
M  V30 5196 H 476.556 1.12883 1.26711 0
M  V30 5197 H 475.328 2.34544 3.13217 0
M  V30 5198 H 474.951 0.808405 3.89295 0
M  V30 5199 N 475.948 -1.35272 0.808662 0
M  V30 5200 C 476.858 -2.33546 0.222079 0
M  V30 5201 C 477.874 -1.6196 -0.636011 0
M  V30 5202 O 479.05 -1.93822 -0.547274 0
M  V30 5203 C 476.115 -3.41148 -0.61795 0
M  V30 5204 C 475.176 -4.28507 0.260875 0
M  V30 5205 C 474.409 -5.3097 -0.539156 0
M  V30 5206 O 474.632 -5.42123 -1.77367 0
M  V30 5207 O 473.566 -6.01858 0.0710526 0
M  V30 5208 H 477.392 -2.85515 1.03512 0
M  V30 5209 H 474.977 -1.38079 0.570495 0
M  V30 5210 H 476.859 -4.06889 -1.09634 0
M  V30 5211 H 475.534 -2.91447 -1.40855 0
M  V30 5212 H 474.441 -3.6574 0.786451 0
M  V30 5213 H 475.774 -4.81611 1.01547 0
M  V30 5214 N 477.426 -0.562348 -1.47226 0
M  V30 5215 C 478.666 -0.0426374 -2.04356 0
M  V30 5216 C 479.03 1.28487 -1.42671 0
M  V30 5217 O 480.231 1.89259 -1.90878 0
M  V30 5218 C 478.502 0.0433826 -3.57374 0
M  V30 5219 S 480.061 0.508472 -4.35844 0
M  V30 5220 H 476.879 -0.0276234 -0.710463 0
M  V30 5221 H 479.481 -0.750245 -1.80531 0
M  V30 5222 H 478.185 -0.927072 -3.99792 0
M  V30 5223 H 477.716 0.774387 -3.85703 0
M  V30 5224 H 479.731 1.76719 -4.63665 0
M  V30 5225 N 478.904 1.54736 -0.299062 0
M  V30 5226 C 480.315 1.8569 0.193971 0
M  V30 5227 C 480.666 1.22101 1.53577 0
M  V30 5228 O 479.791 0.51799 2.10109 0
M  V30 5229 C 480.386 3.36895 0.358733 0
M  V30 5230 C 478.945 3.67887 0.795986 0
M  V30 5231 C 478.092 2.77131 -0.096807 0
M  V30 5232 H 481.043 1.49934 -0.520134 0
M  V30 5233 H 481.064 3.61294 1.19361 0
M  V30 5234 H 480.576 3.83148 -0.617998 0
M  V30 5235 H 478.677 3.27151 1.78334 0
M  V30 5236 H 478.79 4.75114 0.616718 0
M  V30 5237 H 477.154 2.51153 0.423581 0
M  V30 5238 H 477.937 3.26204 -1.06986 0
M  V30 5239 N 480.382 0.0267497 1.57577 0
M  V30 5240 C 481.312 -0.954308 2.13108 0
M  V30 5241 C 482.293 -1.34088 1.04663 0
M  V30 5242 O 483.478 -1.41992 1.32484 0
M  V30 5243 C 480.608 -2.23744 2.65624 0
M  V30 5244 C 479.562 -1.99168 3.78835 0
M  V30 5245 C 478.888 -3.33726 4.17769 0
M  V30 5246 C 480.188 -1.33277 5.0501 0
M  V30 5247 H 481.882 -0.491848 2.95332 0
M  V30 5248 H 479.428 -0.23514 1.42067 0
M  V30 5249 H 481.381 -2.92754 3.03106 0
M  V30 5250 H 480.105 -2.72151 1.80558 0
M  V30 5251 H 478.764 -1.32577 3.41788 0
M  V30 5252 H 478.412 -3.79888 3.29688 0
M  V30 5253 H 478.112 -3.18089 4.94058 0
M  V30 5254 H 479.636 -4.04008 4.57832 0
M  V30 5255 H 481.05 -1.92283 5.40093 0
M  V30 5256 H 479.447 -1.28045 5.8628 0
M  V30 5257 H 480.517 -0.305411 4.83937 0
M  V30 5258 N 481.861 -1.55662 -0.24637 0
M  V30 5259 C 482.793 -1.86811 -1.32794 0
M  V30 5260 C 483.806 -0.754413 -1.44265 0
M  V30 5261 O 484.995 -1.03253 -1.45606 0
M  V30 5262 C 482.095 -2.0397 -2.70646 0
M  V30 5263 C 481.268 -3.34832 -2.81436 0
M  V30 5264 C 480.327 -3.41727 -4.00136 0
M  V30 5265 O 479.353 -4.14934 -3.89639 0
M  V30 5266 N 480.555 -2.71058 -5.1333 0
M  V30 5267 H 483.32 -2.80174 -1.06409 0
M  V30 5268 H 480.881 -1.55906 -0.43647 0
M  V30 5269 H 482.873 -2.05924 -3.48393 0
M  V30 5270 H 481.443 -1.1735 -2.89738 0
M  V30 5271 H 480.663 -3.4519 -1.90361 0
M  V30 5272 H 481.951 -4.21085 -2.85595 0
M  V30 5273 H 481.349 -2.11314 -5.2475 0
M  V30 5274 H 479.906 -2.78704 -5.89209 0
M  V30 5275 N 483.339 0.512053 -1.4905 0
M  V30 5276 C 484.588 1.26343 -1.57227 0
M  V30 5277 C 484.901 1.93876 -0.259155 0
M  V30 5278 O 486.107 2.70612 -0.219358 0
M  V30 5279 C 484.563 2.29343 -2.77362 0
M  V30 5280 C 484.171 1.67799 -4.15388 0
M  V30 5281 C 485.915 3.05378 -2.94864 0
M  V30 5282 C 483.822 2.68845 -5.2676 0
M  V30 5283 H 482.752 0.475231 -0.585382 0
M  V30 5284 H 485.403 0.53862 -1.75417 0
M  V30 5285 H 483.785 3.04938 -2.52643 0
M  V30 5286 H 484.959 0.982715 -4.50199 0
M  V30 5287 H 483.274 1.04194 -4.03153 0
M  V30 5288 H 485.871 3.80921 -3.75238 0
M  V30 5289 H 486.214 3.62327 -2.05 0
M  V30 5290 H 486.747 2.36898 -3.19569 0
M  V30 5291 H 483.486 2.16692 -6.18647 0
M  V30 5292 H 483.006 3.36647 -4.96416 0
M  V30 5293 H 484.685 3.31487 -5.5563 0
M  V30 5294 N 484.817 1.37938 0.762283 0
M  V30 5295 C 486.064 1.33668 1.52115 0
M  V30 5296 C 486.392 -0.0759538 1.94352 0
M  V30 5297 O 485.647 -1.05121 1.6507 0
M  V30 5298 C 485.946 2.23042 2.79261 0
M  V30 5299 C 485.612 3.71159 2.56031 0
M  V30 5300 C 484.274 4.11523 2.49404 0
M  V30 5301 C 486.626 4.64955 2.35513 0
M  V30 5302 C 483.954 5.43784 2.20263 0
M  V30 5303 C 486.306 5.97464 2.07894 0
M  V30 5304 C 484.97 6.36922 1.99718 0
M  V30 5305 H 484.24 0.489127 0.556629 0
M  V30 5306 H 486.887 1.70224 0.877262 0
M  V30 5307 H 485.192 1.79512 3.48256 0
M  V30 5308 H 486.889 2.17047 3.37182 0
M  V30 5309 H 483.479 3.39153 2.62056 0
M  V30 5310 H 487.663 4.34623 2.39617 0
M  V30 5311 H 482.919 5.73307 2.12435 0
M  V30 5312 H 487.093 6.6969 1.91019 0
M  V30 5313 H 484.72 7.39331 1.76902 0
M  V30 5314 N 486.295 -0.989507 1.22664 0
M  V30 5315 C 487.711 -1.25395 0.987331 0
M  V30 5316 C 487.911 -1.9899 -0.317056 0
M  V30 5317 O 486.967 -2.30141 -1.03882 0
M  V30 5318 C 488.28 -2.06242 2.18826 0
M  V30 5319 C 489.828 -2.19413 2.23219 0
M  V30 5320 C 490.303 -3.03648 3.42873 0
M  V30 5321 N 491.794 -3.11234 3.43056 0
M  V30 5322 C 492.529 -3.7671 4.32293 0
M  V30 5323 N 492.025 -4.44085 5.31752 0
M  V30 5324 N 493.818 -3.73505 4.2006 0
M  V30 5325 H 485.969 -0.496212 2.06522 0
M  V30 5326 H 488.232 -0.281784 0.905153 0
M  V30 5327 H 487.938 -1.59531 3.13437 0
M  V30 5328 H 487.812 -3.06996 2.19165 0
M  V30 5329 H 490.199 -2.65336 1.29154 0
M  V30 5330 H 490.28 -1.18078 2.26917 0
M  V30 5331 H 489.924 -2.58424 4.37241 0
M  V30 5332 H 489.854 -4.05132 3.36416 0
M  V30 5333 H 492.345 -2.63287 2.71088 0
M  V30 5334 H 492.658 -4.91797 5.96117 0
M  V30 5335 H 491.003 -4.42822 5.35662 0
M  V30 5336 H 494.194 -3.20033 3.41609 0
M  V30 5337 H 494.367 -4.24253 4.8981 0
M  V30 5338 N 487.773 -1.03688 -1.18687 0
M  V30 5339 C 488.683 -0.634908 -2.25845 0
M  V30 5340 C 489.699 0.337065 -1.70704 0
M  V30 5341 O 490.875 0.192943 -2.00474 0
M  V30 5342 C 487.94 -0.000180054 -3.467 0
M  V30 5343 C 487.001 -1.02067 -4.1699 0
M  V30 5344 C 486.234 -0.41614 -5.32075 0
M  V30 5345 O 486.457 0.778712 -5.65059 0
M  V30 5346 O 485.391 -1.14296 -5.90948 0
M  V30 5347 H 489.217 -1.52757 -2.62486 0
M  V30 5348 H 486.802 -0.807533 -1.25695 0
M  V30 5349 H 488.684 0.353342 -4.19916 0
M  V30 5350 H 487.359 0.866367 -3.11891 0
M  V30 5351 H 486.266 -1.42592 -3.45859 0
M  V30 5352 H 487.599 -1.85786 -4.5579 0
M  V30 5353 N 489.251 1.34841 -0.815825 0
M  V30 5354 C 490.497 1.99219 -0.410288 0
M  V30 5355 C 490.852 1.63532 1.01366 0
M  V30 5356 O 490.145 0.893093 1.69512 0
M  V30 5357 C 490.339 3.53273 -0.541541 0
M  V30 5358 C 490.168 4.03927 -1.9767 0
M  V30 5359 C 488.938 4.32852 -2.60706 0
M  V30 5360 C 491.136 4.21808 -2.9425 0
M  V30 5361 N 489.118 4.69494 -3.95536 0
M  V30 5362 C 490.489 4.6155 -4.13971 0
M  V30 5363 C 492.544 4.04038 -2.9096 0
M  V30 5364 C 491.247 4.85381 -5.30847 0
M  V30 5365 C 493.273 4.29031 -4.07046 0
M  V30 5366 C 492.635 4.69054 -5.25517 0
M  V30 5367 H 488.734 0.756494 -0.198094 0
M  V30 5368 H 491.318 1.63379 -1.05902 0
M  V30 5369 H 489.489 3.88323 0.0772544 0
M  V30 5370 H 491.221 4.04551 -0.109694 0
M  V30 5371 H 487.976 4.23503 -2.11995 0
M  V30 5372 H 488.4 4.92061 -4.64979 0
M  V30 5373 H 493.042 3.7223 -2.00512 0
M  V30 5374 H 490.76 5.16059 -6.21859 0
M  V30 5375 H 494.346 4.16826 -4.05891 0
M  V30 5376 H 493.226 4.88014 -6.1385 0
M  V30 5377 N 490.729 0.570148 1.46925 0
M  V30 5378 C 492.14 0.1402 1.86173 0
M  V30 5379 C 492.491 -1.29347 1.47526 0
M  V30 5380 O 491.616 -1.97508 0.884292 0
M  V30 5381 C 492.211 0.247661 3.37894 0
M  V30 5382 C 490.77 -0.127332 3.76185 0
M  V30 5383 C 489.917 0.589349 2.70965 0
M  V30 5384 H 492.868 0.779117 1.38259 0
M  V30 5385 H 492.889 -0.530341 3.76786 0
M  V30 5386 H 492.401 1.29121 3.65991 0
M  V30 5387 H 490.502 -1.17149 3.53704 0
M  V30 5388 H 490.615 0.240238 4.78497 0
M  V30 5389 H 488.979 0.0309824 2.54681 0
M  V30 5390 H 489.762 1.6343 3.01903 0
M  V30 5391 N 492.207 -1.54576 0.307264 0
M  V30 5392 C 493.432 -2.05139 -0.305379 0
M  V30 5393 C 493.857 -1.18278 -1.46259 0
M  V30 5394 O 493.215 -0.188243 -1.8032 0
M  V30 5395 C 493.263 -3.53066 -0.733283 0
M  V30 5396 O 492.367 -3.69206 -1.83741 0
M  V30 5397 H 491.708 -0.661444 -0.0582105 0
M  V30 5398 H 494.238 -1.99569 0.450931 0
M  V30 5399 H 494.248 -3.95034 -1.02039 0
M  V30 5400 H 492.923 -4.15746 0.113198 0
M  V30 5401 H 491.5 -3.39143 -1.55037 0
M  V30 5402 N 493.685 -0.035106 -1.57561 0
M  V30 5403 C 494.962 0.681212 -1.83354 0
M  V30 5404 C 495.342 1.89986 -0.920252 0
M  V30 5405 O 494.69 2.28489 0.0226815 0
M  V30 5406 C 494.9 1.05376 -3.32712 0
M  V30 5407 C 496.248 1.44286 -3.99333 0
M  V30 5408 O 497.272 1.14656 -3.37242 0
M  V30 5409 O 496.131 1.99518 -5.08778 0
M  V30 5410 H 493.225 0.334741 -0.756226 0
M  V30 5411 H 495.771 -0.0632448 -1.69582 0
M  V30 5412 H 494.543 0.186668 -3.90854 0
M  V30 5413 H 494.166 1.85619 -3.51613 0
M  V30 5414 N 495.163 1.55791 0.238111 0
M  V30 5415 C 496.11 1.9105 1.29493 0
M  V30 5416 C 497.08 0.765733 1.47397 0
M  V30 5417 O 498.265 1.02017 1.61236 0
M  V30 5418 C 495.405 2.21826 2.64362 0
M  V30 5419 C 494.518 3.49153 2.54394 0
M  V30 5420 C 493.653 3.69455 3.81676 0
M  V30 5421 C 492.692 4.90353 3.66361 0
M  V30 5422 N 491.829 5.07131 4.85554 0
M  V30 5423 H 496.669 2.81172 0.987233 0
M  V30 5424 H 494.206 1.39179 0.476203 0
M  V30 5425 H 496.164 2.37675 3.4288 0
M  V30 5426 H 494.794 1.34897 2.93262 0
M  V30 5427 H 493.846 3.41587 1.67399 0
M  V30 5428 H 495.158 4.37818 2.38991 0
M  V30 5429 H 494.312 3.85311 4.68636 0
M  V30 5430 H 493.051 2.7904 3.99985 0
M  V30 5431 H 492.056 4.74464 2.77784 0
M  V30 5432 H 493.281 5.82237 3.49538 0
M  V30 5433 H 491.227 4.19654 5.04209 0
M  V30 5434 H 491.144 5.89899 4.72816 0
M  V30 5435 H 492.412 5.27407 5.73988 0
M  V30 5436 N 496.642 -0.504142 1.49319 0
M  V30 5437 C 497.89 -1.25598 1.58334 0
M  V30 5438 C 498.211 -1.93114 0.270538 0
M  V30 5439 O 497.481 -1.82585 -0.709891 0
M  V30 5440 H 496.061 -0.466571 0.58337 0
M  V30 5441 H 498.723 -0.584547 1.85928 0
M  V30 5442 H 497.819 -2.02159 2.37778 0
M  V30 5443 N 498.12 -1.38341 -0.754957 0
M  V30 5444 C 499.369 -1.33791 -1.5094 0
M  V30 5445 C 499.682 0.0699267 -1.95475 0
M  V30 5446 O 500.888 0.237956 -2.70455 0
M  V30 5447 C 499.344 -2.34934 -2.72643 0
M  V30 5448 C 498.952 -3.81332 -2.35138 0
M  V30 5449 C 500.696 -2.39425 -3.50536 0
M  V30 5450 C 498.603 -4.74164 -3.53444 0
M  V30 5451 H 497.533 -0.497314 -0.566741 0
M  V30 5452 H 500.184 -1.63888 -0.825403 0
M  V30 5453 H 498.566 -1.97878 -3.43017 0
M  V30 5454 H 499.74 -4.27319 -1.7244 0
M  V30 5455 H 498.055 -3.79946 -1.70382 0
M  V30 5456 H 500.652 -3.0598 -4.38498 0
M  V30 5457 H 500.995 -1.41278 -3.91594 0
M  V30 5458 H 501.528 -2.75274 -2.87174 0
M  V30 5459 H 498.267 -5.73501 -3.17453 0
M  V30 5460 H 497.787 -4.3287 -4.15191 0
M  V30 5461 H 499.466 -4.92111 -4.20043 0
M  V30 5462 N 499.598 0.982988 -1.23187 0
M  V30 5463 C 500.528 2.09301 -1.03515 0
M  V30 5464 C 501.509 1.70035 0.0471136 0
M  V30 5465 O 502.694 1.93847 -0.117029 0
M  V30 5466 C 499.824 3.4167 -0.622791 0
M  V30 5467 C 498.778 3.94828 -1.65211 0
M  V30 5468 C 498.104 5.23362 -1.09527 0
M  V30 5469 C 499.404 4.2439 -3.04451 0
M  V30 5470 H 501.098 2.26016 -1.96359 0
M  V30 5471 H 498.644 1.08611 -0.945501 0
M  V30 5472 H 500.597 4.18746 -0.472233 0
M  V30 5473 H 499.321 3.24811 0.341329 0
M  V30 5474 H 497.98 3.19895 -1.79061 0
M  V30 5475 H 497.628 5.02852 -0.122211 0
M  V30 5476 H 497.328 5.59895 -1.783 0
M  V30 5477 H 498.852 6.03062 -0.956511 0
M  V30 5478 H 500.266 4.92225 -2.93917 0
M  V30 5479 H 498.663 4.72118 -3.70438 0
M  V30 5480 H 499.733 3.31765 -3.53638 0
M  V30 5481 N 501.076 1.04316 1.18135 0
M  V30 5482 C 502.322 0.749128 1.88457 0
M  V30 5483 C 502.655 -0.72149 1.803 0
M  V30 5484 O 501.93 -1.52676 1.205 0
M  V30 5485 C 502.213 1.21905 3.38838 0
M  V30 5486 C 502.066 2.75195 3.55792 0
M  V30 5487 C 503.385 0.811085 4.32561 0
M  V30 5488 H 500.504 0.273611 0.684329 0
M  V30 5489 H 503.146 1.29561 1.38975 0
M  V30 5490 H 501.296 0.754137 3.8111 0
M  V30 5491 H 502.968 3.29743 3.22595 0
M  V30 5492 H 501.211 3.14899 2.98364 0
M  V30 5493 H 501.882 3.03135 4.61317 0
M  V30 5494 H 504.358 1.21118 3.98082 0
M  V30 5495 H 503.234 1.16761 5.36338 0
M  V30 5496 H 503.495 -0.285596 4.41177 0
M  V30 5497 N 502.554 -1.34406 0.822964 0
M  V30 5498 C 503.801 -1.98284 0.411057 0
M  V30 5499 C 504.129 -1.65245 -1.02588 0
M  V30 5500 O 503.384 -0.91619 -1.72929 0
M  V30 5501 C 503.683 -3.52981 0.560268 0
M  V30 5502 C 503.349 -4.05931 1.96293 0
M  V30 5503 C 502.011 -4.20103 2.34664 0
M  V30 5504 C 504.363 -4.34412 2.87985 0
M  V30 5505 C 501.691 -4.60082 3.64062 0
M  V30 5506 C 504.043 -4.75838 4.16847 0
M  V30 5507 C 502.707 -4.88215 4.55195 0
M  V30 5508 H 501.977 -0.725573 0.150416 0
M  V30 5509 H 504.624 -1.60349 1.04692 0
M  V30 5510 H 502.929 -3.91477 -0.158982 0
M  V30 5511 H 504.626 -4.00385 0.222087 0
M  V30 5512 H 501.216 -3.95363 1.65487 0
M  V30 5513 H 505.4 -4.23001 2.59584 0
M  V30 5514 H 500.656 -4.67856 3.93599 0
M  V30 5515 H 504.83 -4.96834 4.87984 0
M  V30 5516 H 502.457 -5.18952 5.55512 0
M  V30 5517 N 504.032 -0.577932 -1.46621 0
M  V30 5518 C 504.964 0.195801 -2.28362 0
M  V30 5519 C 505.977 0.859983 -1.38232 0
M  V30 5520 O 507.166 0.730349 -1.62875 0
M  V30 5521 C 504.266 1.29639 -3.13124 0
M  V30 5522 C 503.439 0.725049 -4.31349 0
M  V30 5523 C 502.498 1.71274 -4.97546 0
M  V30 5524 O 501.524 1.25067 -5.5529 0
M  V30 5525 N 502.726 3.04672 -4.94121 0
M  V30 5526 H 505.491 -0.505468 -2.95407 0
M  V30 5527 H 503.052 -0.415381 -1.56481 0
M  V30 5528 H 505.044 1.95631 -3.54275 0
M  V30 5529 H 503.614 1.90059 -2.48186 0
M  V30 5530 H 502.834 -0.112205 -3.9404 0
M  V30 5531 H 504.122 0.323034 -5.07774 0
M  V30 5532 H 503.52 3.4484 -4.48444 0
M  V30 5533 H 502.077 3.66166 -5.39227 0
M  V30 5534 N 505.51 1.54411 -0.315457 0
M  V30 5535 C 506.44 2.27002 0.547039 0
M  V30 5536 C 507.421 1.27492 1.12605 0
M  V30 5537 O 508.606 1.5629 1.15269 0
M  V30 5538 C 505.736 3.02171 1.71201 0
M  V30 5539 C 504.69 4.0895 1.26268 0
M  V30 5540 C 504.016 4.71915 2.51396 0
M  V30 5541 C 505.316 5.20891 0.383419 0
M  V30 5542 H 507.01 2.99343 -0.0584517 0
M  V30 5543 H 504.556 1.4397 -0.0295527 0
M  V30 5544 H 506.509 3.51681 2.32161 0
M  V30 5545 H 505.233 2.27433 2.34397 0
M  V30 5546 H 503.892 3.60312 0.676062 0
M  V30 5547 H 503.54 3.93801 3.12937 0
M  V30 5548 H 503.24 5.44039 2.22026 0
M  V30 5549 H 504.764 5.24195 3.13133 0
M  V30 5550 H 506.178 5.66206 0.899082 0
M  V30 5551 H 504.575 5.99821 0.182857 0
M  V30 5552 H 505.645 4.81324 -0.587821 0
M  V30 5553 N 506.988 0.0434614 1.5754 0
M  V30 5554 C 507.935 -0.93356 2.11077 0
M  V30 5555 C 508.905 -1.31383 1.01626 0
M  V30 5556 O 510.09 -1.40465 1.29129 0
M  V30 5557 C 507.23 -2.20578 2.65404 0
M  V30 5558 C 506.343 -1.88068 3.88914 0
M  V30 5559 C 505.478 -3.09691 4.31584 0
M  V30 5560 C 504.517 -2.73067 5.47815 0
M  V30 5561 N 503.654 -3.87359 5.85574 0
M  V30 5562 H 508.494 -0.470118 2.94268 0
M  V30 5563 H 506.031 -0.220434 1.45439 0
M  V30 5564 H 507.989 -2.95011 2.94999 0
M  V30 5565 H 506.619 -2.64513 1.85021 0
M  V30 5566 H 505.671 -1.03816 3.6596 0
M  V30 5567 H 506.983 -1.57104 4.73413 0
M  V30 5568 H 506.137 -3.92431 4.62691 0
M  V30 5569 H 504.876 -3.43827 3.45882 0
M  V30 5570 H 503.881 -1.88742 5.16388 0
M  V30 5571 H 505.106 -2.40131 6.35227 0
M  V30 5572 H 503.052 -4.21311 5.02825 0
M  V30 5573 H 502.969 -3.60068 6.64746 0
M  V30 5574 H 504.237 -4.70761 6.21292 0
M  V30 5575 N 508.466 -1.55915 -0.229846 0
M  V30 5576 C 509.882 -1.48721 -0.579166 0
M  V30 5577 C 510.082 -0.736976 -1.87539 0
M  V30 5578 O 509.138 -0.273258 -2.51017 0
M  V30 5579 C 510.451 -2.9323 -0.666082 0
M  V30 5580 C 511.999 -3.03701 -0.757267 0
M  V30 5581 C 512.474 -4.49552 -0.8756 0
M  V30 5582 N 513.965 -4.53561 -0.940035 0
M  V30 5583 C 514.7 -5.63683 -1.05116 0
M  V30 5584 N 514.196 -6.83576 -1.12675 0
M  V30 5585 N 515.989 -5.51516 -1.08565 0
M  V30 5586 H 508.14 -2.03123 0.620857 0
M  V30 5587 H 510.403 -0.922898 0.21671 0
M  V30 5588 H 510.109 -3.51032 0.21664 0
M  V30 5589 H 509.983 -3.44668 -1.53243 0
M  V30 5590 H 512.37 -2.45969 -1.63043 0
M  V30 5591 H 512.451 -2.55446 0.134583 0
M  V30 5592 H 512.095 -5.079 -0.00692351 0
M  V30 5593 H 512.025 -4.95506 -1.78274 0
M  V30 5594 H 514.516 -3.67215 -0.892269 0
M  V30 5595 H 514.829 -7.63251 -1.21109 0
M  V30 5596 H 513.174 -6.86303 -1.09603 0
M  V30 5597 H 516.365 -4.5678 -1.02319 0
M  V30 5598 H 516.538 -6.37372 -1.1688 0
M  V30 5599 N 509.944 0.496216 -1.49584 0
M  V30 5600 C 511.36 0.827814 -1.36453 0
M  V30 5601 C 511.56 1.97464 -0.401285 0
M  V30 5602 O 510.616 2.51958 0.165296 0
M  V30 5603 C 511.929 1.16352 -2.77277 0
M  V30 5604 C 513.477 1.27145 -2.86013 0
M  V30 5605 C 513.952 1.64042 -4.27615 0
M  V30 5606 N 515.443 1.71082 -4.30448 0
M  V30 5607 C 516.178 2.01085 -5.36984 0
M  V30 5608 N 515.674 2.2928 -6.5376 0
M  V30 5609 N 517.467 2.02376 -5.24405 0
M  V30 5610 H 509.618 -0.259947 -2.10803 0
M  V30 5611 H 511.881 -0.0537163 -0.946477 0
M  V30 5612 H 511.587 0.394153 -3.49484 0
M  V30 5613 H 511.461 2.10582 -3.12946 0
M  V30 5614 H 513.848 2.03152 -2.1404 0
M  V30 5615 H 513.929 0.309542 -2.5392 0
M  V30 5616 H 513.573 0.88583 -5.00115 0
M  V30 5617 H 513.503 2.6134 -4.57175 0
M  V30 5618 H 515.994 1.51434 -3.46232 0
M  V30 5619 H 516.307 2.51376 -7.30774 0
M  V30 5620 H 514.652 2.26726 -6.56978 0
M  V30 5621 H 517.843 1.79829 -4.32179 0
M  V30 5622 H 518.016 2.25425 -6.07526 0
M  V30 5623 N 511.423 1.38739 0.74761 0
M  V30 5624 C 512.834 1.31507 1.32524 0
M  V30 5625 C 513.185 -0.0263963 1.96182 0
M  V30 5626 O 512.31 -0.92849 1.95469 0
M  V30 5627 C 512.905 2.38162 2.40966 0
M  V30 5628 C 511.464 2.34489 2.94434 0
M  V30 5629 C 510.611 2.20712 1.67873 0
M  V30 5630 H 513.562 1.4901 0.546043 0
M  V30 5631 H 513.583 2.04222 3.21051 0
M  V30 5632 H 513.095 3.35783 1.94605 0
M  V30 5633 H 511.196 1.40467 3.45108 0
M  V30 5634 H 511.309 3.28861 3.48407 0
M  V30 5635 H 509.673 1.67667 1.91729 0
M  V30 5636 H 510.456 3.20285 1.23582 0
M  V30 5637 N 512.901 -0.976442 1.23707 0
M  V30 5638 C 514.312 -1.53284 1.06587 0
M  V30 5639 C 514.663 -1.92765 -0.365526 0
M  V30 5640 O 513.788 -1.7645 -1.25277 0
M  V30 5641 C 514.383 -2.78548 1.92864 0
M  V30 5642 C 512.942 -3.30574 1.79994 0
M  V30 5643 C 512.089 -2.03538 1.88328 0
M  V30 5644 H 515.04 -0.795692 1.37311 0
M  V30 5645 H 515.061 -3.5155 1.45577 0
M  V30 5646 H 514.573 -2.49782 2.97037 0
M  V30 5647 H 512.674 -3.64211 0.786202 0
M  V30 5648 H 512.787 -4.00065 2.636 0
M  V30 5649 H 511.151 -2.17853 1.31954 0
M  V30 5650 H 511.934 -1.77149 2.94063 0
M  V30 5651 N 514.379 -1.04941 -1.1758 0
M  V30 5652 C 515.656 -0.671918 -1.83697 0
M  V30 5653 C 516.036 0.847929 -1.93322 0
M  V30 5654 O 515.384 1.75287 -1.46583 0
M  V30 5655 C 515.594 -1.35797 -3.21497 0
M  V30 5656 C 516.942 -1.4944 -3.97433 0
M  V30 5657 O 517.966 -1.31678 -3.30967 0
M  V30 5658 O 516.825 -1.78463 -5.1654 0
M  V30 5659 H 513.919 -0.236212 -0.792548 0
M  V30 5660 H 516.465 -1.14884 -1.24899 0
M  V30 5661 H 515.237 -2.39498 -3.09446 0
M  V30 5662 H 514.86 -0.870236 -3.8796 0
M  V30 5663 N 515.857 1.33968 -0.830081 0
M  V30 5664 C 516.807 2.26845 -0.229242 0
M  V30 5665 C 517.791 1.48862 0.610659 0
M  V30 5666 O 518.983 1.70808 0.464067 0
M  V30 5667 C 516.112 3.3798 0.602057 0
M  V30 5668 C 515.198 4.23369 -0.248866 0
M  V30 5669 N 515.589 4.88182 -1.32334 0
M  V30 5670 C 513.887 4.45987 -0.0344077 0
M  V30 5671 C 514.588 5.51671 -1.84482 0
M  V30 5672 N 513.564 5.31348 -1.14762 0
M  V30 5673 H 517.366 2.74464 -1.05104 0
M  V30 5674 H 514.88 1.4777 -0.673623 0
M  V30 5675 H 516.877 4.03494 1.04873 0
M  V30 5676 H 515.537 2.9191 1.42193 0
M  V30 5677 H 516.548 4.88988 -1.70619 0
M  V30 5678 H 513.225 4.10658 0.752727 0
M  V30 5679 H 514.615 6.13308 -2.74413 0
M  V30 5680 N 517.335 0.585699 1.46312 0
M  V30 5681 C 518.584 0.0701192 2.01578 0
M  V30 5682 C 518.897 -1.29889 1.46247 0
M  V30 5683 O 520.103 -1.90598 1.93351 0
M  V30 5684 C 518.559 0.0747499 3.59822 0
M  V30 5685 C 518.167 1.44226 4.24149 0
M  V30 5686 C 519.911 -0.38673 4.22735 0
M  V30 5687 C 517.818 1.40446 5.74481 0
M  V30 5688 H 516.748 0.0224441 0.753666 0
M  V30 5689 H 519.399 0.737789 1.68015 0
M  V30 5690 H 517.781 -0.659144 3.90476 0
M  V30 5691 H 518.955 2.19612 4.05101 0
M  V30 5692 H 517.27 1.84401 3.73343 0
M  V30 5693 H 519.867 -0.433853 5.32937 0
M  V30 5694 H 520.21 -1.40489 3.91878 0
M  V30 5695 H 520.743 0.293195 3.96718 0
M  V30 5696 H 517.482 2.39952 6.10003 0
M  V30 5697 H 517.002 0.692845 5.95785 0
M  V30 5698 H 518.681 1.11865 6.37256 0
M  V30 5699 N 518.813 -1.54241 0.323641 0
M  V30 5700 C 520.224 -1.85975 -0.164405 0
M  V30 5701 C 520.575 -1.24529 -1.51615 0
M  V30 5702 O 519.7 -0.551351 -2.09258 0
M  V30 5703 C 520.295 -3.37424 -0.305091 0
M  V30 5704 C 518.854 -3.69107 -0.737358 0
M  V30 5705 C 518.001 -2.76942 0.140884 0
M  V30 5706 H 520.952 -1.49088 0.543922 0
M  V30 5707 H 520.973 -3.63147 -1.13598 0
M  V30 5708 H 520.485 -3.82116 0.678876 0
M  V30 5709 H 518.586 -3.29947 -1.73107 0
M  V30 5710 H 518.699 -4.76035 -0.541053 0
M  V30 5711 H 517.063 -2.51795 -0.383572 0
M  V30 5712 H 517.846 -3.24461 1.12162 0
M  V30 5713 N 520.291 -0.0518155 -1.57515 0
M  V30 5714 C 521.238 0.922352 -2.11569 0
M  V30 5715 C 522.208 1.30842 -1.02321 0
M  V30 5716 O 523.393 1.39778 -1.29872 0
M  V30 5717 C 520.533 2.19167 -2.6657 0
M  V30 5718 C 519.646 1.86003 -3.89906 0
M  V30 5719 C 518.781 3.07398 -4.33221 0
M  V30 5720 C 517.82 2.70158 -5.49255 0
M  V30 5721 N 516.957 3.84248 -5.8762 0
M  V30 5722 H 521.797 0.454506 -2.94514 0
M  V30 5723 H 519.334 0.212718 -1.45554 0
M  V30 5724 H 521.292 2.93443 -2.96559 0
M  V30 5725 H 519.922 2.63528 -1.86421 0
M  V30 5726 H 518.974 1.01874 -3.66505 0
M  V30 5727 H 520.286 1.54592 -4.74239 0
M  V30 5728 H 519.44 3.89972 -4.64765 0
M  V30 5729 H 518.179 3.41988 -3.477 0
M  V30 5730 H 517.184 1.86001 -5.17382 0
M  V30 5731 H 518.409 2.36759 -6.36492 0
M  V30 5732 H 516.355 4.18638 -5.05053 0
M  V30 5733 H 516.272 3.56538 -6.66646 0
M  V30 5734 H 517.54 4.6746 -6.2378 0
M  V30 5735 N 521.769 1.56035 0.221574 0
M  V30 5736 C 522.716 1.92413 1.27459 0
M  V30 5737 C 523.686 0.781323 1.46576 0
M  V30 5738 O 524.871 1.03721 1.60145 0
M  V30 5739 C 522.011 2.24617 2.61995 0
M  V30 5740 C 521.124 3.51831 2.50677 0
M  V30 5741 C 520.259 3.73482 3.77736 0
M  V30 5742 C 519.298 4.94211 3.6114 0
M  V30 5743 N 518.435 5.12252 4.80148 0
M  V30 5744 H 523.275 2.82203 0.957355 0
M  V30 5745 H 520.812 1.39676 0.461415 0
M  V30 5746 H 522.77 2.41298 3.40339 0
M  V30 5747 H 521.4 1.38 2.91815 0
M  V30 5748 H 520.452 3.43343 1.63767 0
M  V30 5749 H 521.764 4.40328 2.34334 0
M  V30 5750 H 520.918 3.9026 4.64523 0
M  V30 5751 H 519.657 2.83266 3.97003 0
M  V30 5752 H 518.662 4.77384 2.72736 0
M  V30 5753 H 519.887 5.85912 3.43343 0
M  V30 5754 H 517.833 4.24978 4.99729 0
M  V30 5755 H 517.75 5.94881 4.66532 0
M  V30 5756 H 519.018 5.33465 5.68362 0
M  V30 5757 N 523.247 -0.488276 1.49845 0
M  V30 5758 C 524.475 -1.26527 1.63702 0
M  V30 5759 C 524.89 -1.8618 0.313447 0
M  V30 5760 O 524.247 -1.68432 -0.702624 0
M  V30 5761 C 524.298 -2.3864 2.71538 0
M  V30 5762 O 524.019 -1.81437 3.98763 0
M  V30 5763 C 525.52 -3.29805 2.96215 0
M  V30 5764 H 522.74 -0.383295 0.55075 0
M  V30 5765 H 525.284 -0.584779 1.95961 0
M  V30 5766 H 523.439 -3.02496 2.42023 0
M  V30 5767 H 523.853 -2.55135 4.58265 0
M  V30 5768 H 525.327 -4.04722 3.75372 0
M  V30 5769 H 525.804 -3.87563 2.06619 0
M  V30 5770 H 526.41 -2.71703 3.27196 0
M  V30 5771 N 524.725 -1.39134 -0.740242 0
M  V30 5772 C 525.672 -1.37434 -1.8542 0
M  V30 5773 C 526.642 -0.234822 -1.64432 0
M  V30 5774 O 527.827 -0.429125 -1.85912 0
M  V30 5775 C 524.967 -1.21844 -3.22875 0
M  V30 5776 C 524.08 -2.45296 -3.55603 0
M  V30 5777 C 523.215 -2.22334 -4.82432 0
M  V30 5778 C 522.254 -3.41488 -5.07988 0
M  V30 5779 N 521.391 -3.17877 -6.26018 0
M  V30 5780 H 526.231 -2.3266 -1.86207 0
M  V30 5781 H 523.768 -1.15578 -0.909946 0
M  V30 5782 H 525.726 -1.10818 -4.02213 0
M  V30 5783 H 524.356 -0.3025 -3.21379 0
M  V30 5784 H 523.408 -2.66945 -2.71006 0
M  V30 5785 H 524.72 -3.34063 -3.7041 0
M  V30 5786 H 523.874 -2.0852 -5.69741 0
M  V30 5787 H 522.613 -1.30954 -4.6979 0
M  V30 5788 H 521.618 -3.55807 -4.19144 0
M  V30 5789 H 522.843 -4.33763 -5.22519 0
M  V30 5790 H 520.789 -2.29156 -6.14673 0
M  V30 5791 H 520.706 -4.00198 -6.41387 0
M  V30 5792 H 521.974 -3.07746 -7.16179 0
M  V30 5793 N 526.204 0.969867 -1.24223 0
M  V30 5794 C 527.151 2.06407 -1.0327 0
M  V30 5795 C 528.121 1.66014 0.0533 0
M  V30 5796 O 529.306 1.90533 -0.100896 0
M  V30 5797 C 526.446 3.3909 -0.641262 0
M  V30 5798 C 525.559 3.9269 -1.80051 0
M  V30 5799 C 524.694 5.13631 -1.35486 0
M  V30 5800 C 523.733 5.59423 -2.48419 0
M  V30 5801 N 522.87 6.71586 -2.04737 0
M  V30 5802 H 527.71 2.23663 -1.96923 0
M  V30 5803 H 525.247 1.09624 -0.980862 0
M  V30 5804 H 527.205 4.15323 -0.395351 0
M  V30 5805 H 525.835 3.21765 0.258269 0
M  V30 5806 H 524.887 3.13116 -2.16014 0
M  V30 5807 H 526.199 4.22636 -2.64916 0
M  V30 5808 H 525.353 5.97231 -1.0677 0
M  V30 5809 H 524.092 4.85364 -0.476722 0
M  V30 5810 H 523.097 4.74398 -2.77897 0
M  V30 5811 H 524.322 5.89705 -3.36786 0
M  V30 5812 H 522.268 6.45058 -1.19318 0
M  V30 5813 H 522.185 7.0097 -2.83156 0
M  V30 5814 H 523.453 7.58633 -1.79154 0
M  V30 5815 N 527.682 1.05563 1.17022 0
M  V30 5816 C 528.632 0.630007 2.19123 0
M  V30 5817 C 529.616 -0.335472 1.57364 0
M  V30 5818 O 530.808 -0.1521 1.76345 0
M  V30 5819 C 527.937 0.0101676 3.43298 0
M  V30 5820 C 527.023 0.999698 4.12149 0
M  V30 5821 N 527.414 2.17251 4.56766 0
M  V30 5822 C 525.712 0.829 4.38228 0
M  V30 5823 C 526.413 2.79883 5.09942 0
M  V30 5824 N 525.389 2.07656 5.02374 0
M  V30 5825 H 529.191 1.52353 2.51328 0
M  V30 5826 H 526.705 0.926288 1.33393 0
M  V30 5827 H 528.702 -0.312541 4.15727 0
M  V30 5828 H 527.362 -0.878707 3.12584 0
M  V30 5829 H 528.373 2.55067 4.50734 0
M  V30 5830 H 525.05 -0.00850974 4.17499 0
M  V30 5831 H 526.44 3.79362 5.54558 0
M  V30 5832 N 529.16 -1.33526 0.837174 0
M  V30 5833 C 530.09 -2.31764 0.284206 0
M  V30 5834 C 531.071 -1.58896 -0.607142 0
M  V30 5835 O 532.256 -1.86798 -0.531047 0
M  V30 5836 C 529.386 -3.43029 -0.542962 0
M  V30 5837 C 528.34 -4.27255 0.252451 0
M  V30 5838 C 527.666 -5.3012 -0.69836 0
M  V30 5839 C 528.966 -5.01229 1.46858 0
M  V30 5840 H 530.66 -2.78262 1.10502 0
M  V30 5841 H 528.206 -1.3378 0.532812 0
M  V30 5842 H 530.159 -4.1078 -0.940096 0
M  V30 5843 H 528.883 -2.95216 -1.39697 0
M  V30 5844 H 527.542 -3.61127 0.631124 0
M  V30 5845 H 527.19 -4.78564 -1.54872 0
M  V30 5846 H 526.89 -5.87353 -0.170274 0
M  V30 5847 H 528.414 -6.00737 -1.09305 0
M  V30 5848 H 529.828 -5.61756 1.14469 0
M  V30 5849 H 528.225 -5.68104 1.93333 0
M  V30 5850 H 529.295 -4.301 2.23924 0
M  V30 5851 N 530.638 -0.59345 -1.46 0
M  V30 5852 C 531.548 0.135817 -2.34207 0
M  V30 5853 C 532.564 0.875008 -1.50398 0
M  V30 5854 O 533.74 0.835778 -1.83239 0
M  V30 5855 C 530.805 1.12977 -3.27776 0
M  V30 5856 C 529.866 0.394081 -4.27487 0
M  V30 5857 C 529.099 1.34068 -5.16586 0
M  V30 5858 O 529.322 2.5778 -5.08828 0
M  V30 5859 O 528.256 0.845426 -5.95933 0
M  V30 5860 H 532.082 -0.588691 -2.9794 0
M  V30 5861 H 529.667 -0.353784 -1.45151 0
M  V30 5862 H 531.549 1.70261 -3.85473 0
M  V30 5863 H 530.224 1.83556 -2.66625 0
M  V30 5864 H 529.131 -0.220869 -3.73447 0
M  V30 5865 H 530.464 -0.270939 -4.91454 0
M  V30 5866 N 532.116 1.54067 -0.331816 0
M  V30 5867 C 533.364 2.00319 0.267739 0
M  V30 5868 C 533.685 1.22148 1.52003 0
M  V30 5869 O 532.955 0.325494 1.93177 0
M  V30 5870 H 531.535 0.740014 0.101922 0
M  V30 5871 H 534.197 1.89628 -0.450267 0
M  V30 5872 H 533.293 3.07765 0.518385 0
M  V30 5873 N 533.594 0.0601682 1.57485 0
M  V30 5874 C 534.541 -0.91112 2.12055 0
M  V30 5875 C 535.511 -1.30298 1.03013 0
M  V30 5876 O 536.696 -1.39087 1.30612 0
M  V30 5877 C 533.836 -2.1775 2.67729 0
M  V30 5878 C 532.949 -1.83933 3.90887 0
M  V30 5879 C 532.084 -3.05096 4.34845 0
M  V30 5880 C 531.123 -2.67241 5.5068 0
M  V30 5881 N 530.26 -3.81127 5.8965 0
M  V30 5882 H 535.1 -0.43888 2.9475 0
M  V30 5883 H 532.637 -0.204995 1.45665 0
M  V30 5884 H 534.595 -2.91866 2.98111 0
M  V30 5885 H 533.225 -2.62535 1.87816 0
M  V30 5886 H 532.277 -0.999287 3.6704 0
M  V30 5887 H 533.589 -1.52074 4.75052 0
M  V30 5888 H 532.743 -3.87502 4.66827 0
M  V30 5889 H 531.482 -3.40139 3.49509 0
M  V30 5890 H 530.487 -1.83254 5.18361 0
M  V30 5891 H 531.712 -2.3338 6.37738 0
M  V30 5892 H 529.658 -4.15954 5.07266 0
M  V30 5893 H 529.575 -3.52997 6.68528 0
M  V30 5894 H 530.843 -4.64145 6.2625 0
M  V30 5895 N 535.072 -1.5615 -0.213296 0
M  V30 5896 C 536.3 -1.83638 -0.953139 0
M  V30 5897 C 536.715 -0.640362 -1.77609 0
M  V30 5898 O 536.072 0.391071 -1.78261 0
M  V30 5899 C 536.123 -3.09735 -1.86405 0
M  V30 5900 O 535.844 -4.24723 -1.07435 0
M  V30 5901 C 537.345 -3.5027 -2.71709 0
M  V30 5902 H 534.565 -0.610263 -0.278962 0
M  V30 5903 H 537.109 -2.03247 -0.226035 0
M  V30 5904 H 535.264 -2.92077 -2.545 0
M  V30 5905 H 535.678 -4.9641 -1.69343 0
M  V30 5906 H 537.152 -4.41515 -3.31313 0
M  V30 5907 H 537.629 -2.72406 -3.44516 0
M  V30 5908 H 538.235 -3.70396 -2.09015 0
M  V30 5909 N 536.55 0.480323 -1.50102 0
M  V30 5910 C 537.961 1.06142 -1.53593 0
M  V30 5911 C 538.312 1.93335 -0.334055 0
M  V30 5912 O 537.437 2.09188 0.55403 0
M  V30 5913 C 538.032 1.9317 -2.78336 0
M  V30 5914 C 536.591 2.46405 -2.84538 0
M  V30 5915 C 535.738 1.24521 -2.4777 0
M  V30 5916 H 538.689 0.26333 -1.565 0
M  V30 5917 H 538.71 2.78123 -2.59669 0
M  V30 5918 H 538.222 1.29683 -3.65792 0
M  V30 5919 H 536.323 3.13472 -2.01411 0
M  V30 5920 H 536.436 2.82143 -3.87211 0
M  V30 5921 H 534.8 1.57706 -2.00003 0
M  V30 5922 H 535.583 0.627102 -3.37524 0
M  V30 5923 N 538.028 1.39524 0.732853 0
M  V30 5924 C 538.975 1.38416 1.84688 0
M  V30 5925 C 539.945 0.243539 1.64305 0
M  V30 5926 O 541.13 0.438979 1.85681 0
M  V30 5927 C 538.27 1.23555 3.22224 0
M  V30 5928 C 537.383 2.47179 3.54298 0
M  V30 5929 C 536.518 2.2489 4.81246 0
M  V30 5930 C 535.557 3.44178 5.0617 0
M  V30 5931 N 534.694 3.21192 6.24323 0
M  V30 5932 H 539.534 2.33645 1.84971 0
M  V30 5933 H 537.071 1.16059 0.903804 0
M  V30 5934 H 539.029 1.12949 4.0162 0
M  V30 5935 H 537.659 0.31954 3.21215 0
M  V30 5936 H 536.711 2.68379 2.69587 0
M  V30 5937 H 538.023 3.36022 3.68633 0
M  V30 5938 H 537.177 2.11538 5.68627 0
M  V30 5939 H 535.916 1.33443 4.69089 0
M  V30 5940 H 534.921 3.58025 4.17251 0
M  V30 5941 H 536.146 4.36528 5.20212 0
M  V30 5942 H 534.092 2.32413 6.1345 0
M  V30 5943 H 534.009 4.03594 6.39256 0
M  V30 5944 H 535.277 3.1154 7.14537 0
M  V30 5945 N 539.506 -0.963266 1.24736 0
M  V30 5946 C 540.754 -1.70343 1.08755 0
M  V30 5947 C 541.075 -1.91387 -0.373619 0
M  V30 5948 O 540.345 -1.4948 -1.2662 0
M  V30 5949 H 538.925 -0.631224 0.399456 0
M  V30 5950 H 541.587 -1.15859 1.56725 0
M  V30 5951 H 540.683 -2.68616 1.58909 0
M  V30 5952 N 540.985 -1.06182 -1.16461 0
M  V30 5953 C 541.932 -0.671613 -2.20812 0
M  V30 5954 C 542.902 0.331186 -1.62765 0
M  V30 5955 O 544.087 0.22033 -1.89524 0
M  V30 5956 C 541.227 -0.063029 -3.45042 0
M  V30 5957 C 540.34 -1.11587 -4.1734 0
M  V30 5958 C 539.475 -0.473546 -5.29085 0
M  V30 5959 C 538.514 -1.51 -5.93182 0
M  V30 5960 N 537.651 -0.891118 -6.96422 0
M  V30 5961 H 542.491 -1.56589 -2.53542 0
M  V30 5962 H 540.028 -0.782951 -1.24532 0
M  V30 5963 H 541.986 0.307344 -4.16066 0
M  V30 5964 H 540.616 0.794663 -3.12866 0
M  V30 5965 H 539.668 -1.60396 -3.44931 0
M  V30 5966 H 540.98 -1.90221 -4.61104 0
M  V30 5967 H 540.134 -0.0501432 -6.06679 0
M  V30 5968 H 538.873 0.344687 -4.8648 0
M  V30 5969 H 537.878 -1.94331 -5.14311 0
M  V30 5970 H 539.103 -2.33031 -6.37866 0
M  V30 5971 H 537.049 -0.0935753 -6.55933 0
M  V30 5972 H 536.966 -1.61486 -7.38551 0
M  V30 5973 H 538.234 -0.492822 -7.77941 0
M  V30 5974 N 542.463 1.3308 -0.844243 0
M  V30 5975 C 543.373 2.32876 -0.283922 0
M  V30 5976 C 544.389 1.63589 0.592846 0
M  V30 5977 O 545.565 1.95205 0.495693 0
M  V30 5978 C 542.63 3.42667 0.527283 0
M  V30 5979 C 541.691 4.27664 -0.374394 0
M  V30 5980 C 540.924 5.32212 0.39819 0
M  V30 5981 O 541.147 5.46635 1.62932 0
M  V30 5982 O 540.081 6.01458 -0.2306 0
M  V30 5983 H 543.907 2.82671 -1.11045 0
M  V30 5984 H 541.492 1.36518 -0.606903 0
M  V30 5985 H 543.374 4.09652 0.988078 0
M  V30 5986 H 542.049 2.95079 1.33078 0
M  V30 5987 H 540.956 3.63526 -0.883144 0
M  V30 5988 H 542.289 4.78749 -1.1428 0
M  V30 5989 N 543.941 0.601185 1.45683 0
M  V30 5990 C 545.357 0.264315 1.57396 0
M  V30 5991 C 545.557 -1.23324 1.59353 0
M  V30 5992 O 544.613 -2.01594 1.52039 0
M  V30 5993 C 545.926 0.929839 2.85962 0
M  V30 5994 C 547.474 0.905156 2.99626 0
M  V30 5995 C 547.949 1.55057 4.30954 0
M  V30 5996 N 549.44 1.51576 4.37697 0
M  V30 5997 C 550.175 1.98436 5.37969 0
M  V30 5998 N 549.671 2.53352 6.44813 0
M  V30 5999 N 551.464 1.89242 5.29286 0
M  V30 6000 H 543.615 1.57363 1.42656 0
M  V30 6001 H 545.878 0.658831 0.681649 0
M  V30 6002 H 545.584 1.98404 2.90394 0
M  V30 6003 H 545.458 0.449224 3.74515 0
M  V30 6004 H 547.845 -0.14048 2.94765 0
M  V30 6005 H 547.926 1.42397 2.12501 0
M  V30 6006 H 547.57 2.5955 4.36573 0
M  V30 6007 H 547.5 1.00682 5.16886 0
M  V30 6008 H 549.991 1.11452 3.61091 0
M  V30 6009 H 550.304 2.86918 7.17564 0
M  V30 6010 H 548.649 2.57388 6.45582 0
M  V30 6011 H 551.84 1.46083 4.44722 0
M  V30 6012 H 552.013 2.26075 6.07284 0
M  V30 6013 N 545.419 -1.53889 0.339982 0
M  V30 6014 C 546.382 -2.23547 -0.50592 0
M  V30 6015 C 547.382 -1.23445 -1.03044 0
M  V30 6016 O 548.572 -1.47909 -0.920253 0
M  V30 6017 C 545.704 -2.95234 -1.7044 0
M  V30 6018 H 546.897 -2.99722 0.103247 0
M  V30 6019 H 544.45 -1.56033 0.0912804 0
M  V30 6020 H 545.185 -2.23236 -2.35236 0
M  V30 6021 H 544.97 -3.68654 -1.33553 0
M  V30 6022 H 546.46 -3.48258 -2.30447 0
M  V30 6023 N 546.897 -0.0685191 -1.57451 0
M  V30 6024 C 548.174 0.642167 -1.84758 0
M  V30 6025 C 548.554 1.87991 -0.960344 0
M  V30 6026 O 547.902 2.28485 -0.0257894 0
M  V30 6027 C 548.112 0.982946 -3.34872 0
M  V30 6028 C 549.46 1.35784 -4.02303 0
M  V30 6029 O 550.484 1.07477 -3.39598 0
M  V30 6030 O 549.343 1.88681 -5.12895 0
M  V30 6031 H 546.437 0.318625 -0.763156 0
M  V30 6032 H 548.983 -0.0992015 -1.6941 0
M  V30 6033 H 547.755 0.10372 -3.91163 0
M  V30 6034 H 547.378 1.78119 -3.55471 0
M  V30 6035 N 548.375 1.56261 0.205012 0
M  V30 6036 C 549.623 1.79684 0.925096 0
M  V30 6037 C 549.944 0.63989 1.84202 0
M  V30 6038 O 549.214 -0.342345 1.92885 0
M  V30 6039 H 547.794 0.662774 0.344587 0
M  V30 6040 H 550.456 1.93734 0.212899 0
M  V30 6041 H 549.552 2.72467 1.52211 0
M  V30 6042 N 549.853 -0.472356 1.50355 0
M  V30 6043 C 551.078 -1.25251 1.65309 0
M  V30 6044 C 551.503 -1.85081 0.335643 0
M  V30 6045 O 550.861 -1.67227 -0.700335 0
M  V30 6046 C 550.909 -2.3379 2.74544 0
M  V30 6047 O 550.013 -3.38401 2.35709 0
M  V30 6048 H 549.354 -0.368539 0.552336 0
M  V30 6049 H 551.884 -0.562271 1.96722 0
M  V30 6050 H 551.894 -2.79121 2.97583 0
M  V30 6051 H 550.569 -1.89614 3.70161 0
M  V30 6052 H 549.146 -2.9879 2.23112 0
M  V30 6053 N 551.331 -1.39911 -0.725443 0
M  V30 6054 C 552.579 -1.37382 -1.48224 0
M  V30 6055 C 552.9 0.0264107 -1.94982 0
M  V30 6056 O 552.17 0.979408 -1.6966 0
M  V30 6057 H 550.75 -0.505596 -0.549892 0
M  V30 6058 H 553.412 -1.7487 -0.860608 0
M  V30 6059 H 552.508 -2.04254 -2.3598 0
M  V30 6060 N 552.809 0.956637 -1.25245 0
M  V30 6061 C 554.039 1.7332 -1.12445 0
M  V30 6062 C 554.447 1.86392 0.324732 0
M  V30 6063 O 553.79 1.35967 1.23526 0
M  V30 6064 C 553.852 3.16603 -1.70303 0
M  V30 6065 C 553.516 3.26966 -3.19284 0
M  V30 6066 C 554.513 3.11434 -4.16299 0
M  V30 6067 C 552.198 3.50851 -3.59456 0
M  V30 6068 C 554.192 3.1963 -5.51467 0
M  V30 6069 C 551.879 3.58684 -4.94761 0
M  V30 6070 C 552.877 3.43087 -5.90576 0
M  V30 6071 O 552.565 3.50598 -7.2342 0
M  V30 6072 H 552.297 0.549981 -0.393061 0
M  V30 6073 H 554.851 1.20892 -1.66055 0
M  V30 6074 H 553.081 3.70385 -1.11138 0
M  V30 6075 H 554.77 3.76109 -1.52632 0
M  V30 6076 H 555.536 2.92853 -3.86604 0
M  V30 6077 H 551.415 3.62053 -2.85375 0
M  V30 6078 H 554.959 3.07373 -6.26233 0
M  V30 6079 H 550.856 3.76782 -5.24124 0
M  V30 6080 H 551.624 3.67242 -7.31489 0
M  V30 6081 N 554.287 1.06798 1.15896 0
M  V30 6082 C 555.535 0.786211 1.8618 0
M  V30 6083 C 555.856 -0.689547 1.82401 0
M  V30 6084 O 555.126 -1.49913 1.26107 0
M  V30 6085 H 553.706 0.287843 0.689315 0
M  V30 6086 H 556.368 1.35055 1.40521 0
M  V30 6087 H 555.464 1.1157 2.91477 0
M  V30 6088 N 555.766 -1.3263 0.851289 0
M  V30 6089 C 556.991 -2.02097 0.466006 0
M  V30 6090 C 557.416 -1.63574 -0.928709 0
M  V30 6091 O 556.774 -0.834665 -1.60944 0
M  V30 6092 C 556.822 -3.55425 0.608737 0
M  V30 6093 O 555.926 -4.10827 -0.359878 0
M  V30 6094 H 555.267 -0.636911 0.187724 0
M  V30 6095 H 557.797 -1.69253 1.14955 0
M  V30 6096 H 557.807 -4.04986 0.495006 0
M  V30 6097 H 556.482 -3.82806 1.62581 0
M  V30 6098 H 555.059 -3.72349 -0.202666 0
M  V30 6099 N 557.244 -0.608902 -1.45362 0
M  V30 6100 C 558.472 -0.111013 -2.06602 0
M  V30 6101 C 558.887 1.20516 -1.45332 0
M  V30 6102 O 558.244 1.73437 -0.567978 0
M  V30 6103 C 558.295 0.033688 -3.61484 0
M  V30 6104 O 558.016 -1.23041 -4.20467 0
M  V30 6105 C 559.517 0.562882 -4.39712 0
M  V30 6106 H 556.737 -0.0694453 -0.667397 0
M  V30 6107 H 559.281 -0.837008 -1.86586 0
M  V30 6108 H 557.436 0.710016 -3.80838 0
M  V30 6109 H 557.85 -1.06094 -5.13658 0
M  V30 6110 H 559.324 0.613213 -5.48583 0
M  V30 6111 H 559.801 1.58543 -4.09586 0
M  V30 6112 H 560.407 -0.0794454 -4.25226 0
M  V30 6113 N 558.722 1.53707 -0.348139 0
M  V30 6114 C 559.652 2.28111 0.498766 0
M  V30 6115 C 560.633 1.29851 1.09876 0
M  V30 6116 O 561.818 1.587 1.11928 0
M  V30 6117 C 558.948 3.05735 1.64753 0
M  V30 6118 C 557.902 4.11537 1.17565 0
M  V30 6119 C 557.228 4.77142 2.4133 0
M  V30 6120 C 558.528 5.21587 0.272844 0
M  V30 6121 H 560.222 2.99152 -0.121934 0
M  V30 6122 H 557.768 1.43875 -0.0600842 0
M  V30 6123 H 559.721 3.56526 2.24649 0
M  V30 6124 H 558.445 2.32354 2.2952 0
M  V30 6125 H 557.104 3.61665 0.599483 0
M  V30 6126 H 556.752 4.0035 3.04514 0
M  V30 6127 H 556.452 5.48626 2.10436 0
M  V30 6128 H 557.976 5.30719 3.01943 0
M  V30 6129 H 559.39 5.67986 0.778779 0
M  V30 6130 H 557.787 6.00074 0.0555849 0
M  V30 6131 H 558.857 4.79969 -0.689785 0
M  V30 6132 N 560.2 0.0768682 1.57412 0
M  V30 6133 C 561.611 -0.455037 1.8107 0
M  V30 6134 C 561.962 -1.69323 0.991162 0
M  V30 6135 O 561.087 -2.15328 0.215156 0
M  V30 6136 C 561.682 -0.832316 3.28417 0
M  V30 6137 C 560.241 -1.30906 3.52903 0
M  V30 6138 C 559.388 -0.296714 2.75708 0
M  V30 6139 H 562.339 0.302514 1.5579 0
M  V30 6140 H 562.36 -1.69333 3.40744 0
M  V30 6141 H 561.872 0.0690532 3.88039 0
M  V30 6142 H 559.973 -2.22875 2.98592 0
M  V30 6143 H 560.086 -1.28348 4.61588 0
M  V30 6144 H 558.45 -0.775059 2.42621 0
M  V30 6145 H 559.233 0.597015 3.38069 0
M  V30 6146 N 561.678 -1.56367 -0.196722 0
M  V30 6147 C 563.089 -1.70462 -0.761545 0
M  V30 6148 C 563.44 -0.683161 -1.83922 0
M  V30 6149 O 562.565 0.160753 -2.15802 0
M  V30 6150 C 563.16 -3.09057 -1.38814 0
M  V30 6151 C 561.719 -3.24922 -1.90007 0
M  V30 6152 C 560.866 -2.66412 -0.769399 0
M  V30 6153 H 563.817 -1.58675 0.0283263 0
M  V30 6154 H 563.838 -3.06296 -2.2575 0
M  V30 6155 H 563.35 -3.83378 -0.603559 0
M  V30 6156 H 561.451 -2.55514 -2.71189 0
M  V30 6157 H 561.564 -4.3241 -2.06297 0
M  V30 6158 H 559.928 -2.25546 -1.18326 0
M  V30 6159 H 560.711 -3.433 0.00291773 0
M  V30 6160 N 563.156 0.464375 -1.50603 0
M  V30 6161 C 564.066 1.58723 -1.72754 0
M  V30 6162 C 565.082 1.62925 -0.610844 0
M  V30 6163 O 566.258 1.8067 -0.889963 0
M  V30 6164 C 563.323 2.94897 -1.82309 0
M  V30 6165 C 562.384 3.0103 -3.06071 0
M  V30 6166 C 561.617 4.30708 -3.1516 0
M  V30 6167 O 561.84 5.2159 -2.30868 0
M  V30 6168 O 560.774 4.42571 -4.0794 0
M  V30 6169 H 564.6 1.42954 -2.67951 0
M  V30 6170 H 562.185 0.644579 -1.3478 0
M  V30 6171 H 564.067 3.75764 -1.90735 0
M  V30 6172 H 562.742 3.10851 -0.902967 0
M  V30 6173 H 561.649 2.19217 -3.03142 0
M  V30 6174 H 562.982 2.90014 -3.97684 0
M  V30 6175 N 564.634 1.40294 0.718013 0
M  V30 6176 C 565.581 1.40367 1.8321 0
M  V30 6177 C 566.551 0.260952 1.64037 0
M  V30 6178 O 567.736 0.458648 1.85205 0
M  V30 6179 C 564.876 1.26965 3.20895 0
M  V30 6180 C 563.989 2.50922 3.51656 0
M  V30 6181 C 563.124 2.29981 4.78834 0
M  V30 6182 C 562.163 3.49527 5.02491 0
M  V30 6183 N 561.3 3.27796 6.20882 0
M  V30 6184 H 566.14 2.35593 1.82482 0
M  V30 6185 H 563.677 1.17012 0.891444 0
M  V30 6186 H 565.635 1.17202 4.00399 0
M  V30 6187 H 564.265 0.353591 3.20858 0
M  V30 6188 H 563.317 2.71223 2.66725 0
M  V30 6189 H 564.629 3.39913 3.65048 0
M  V30 6190 H 563.783 2.17558 5.66351 0
M  V30 6191 H 562.522 1.38411 4.67647 0
M  V30 6192 H 561.527 3.6243 4.1343 0
M  V30 6193 H 562.752 4.42021 5.15553 0
M  V30 6194 H 560.698 2.38906 6.1095 0
M  V30 6195 H 560.615 4.10351 6.34939 0
M  V30 6196 H 561.883 3.19101 7.11193 0
M  V30 6197 N 566.112 -0.949982 1.2575 0
M  V30 6198 C 567.042 -2.06483 1.09028 0
M  V30 6199 C 568.023 -1.701 -0.00201532 0
M  V30 6200 O 569.208 -1.93469 0.168383 0
M  V30 6201 C 566.338 -3.39899 0.71316 0
M  V30 6202 C 565.292 -3.90309 1.75621 0
M  V30 6203 C 564.618 -5.20274 1.23365 0
M  V30 6204 C 565.918 -4.16169 3.15596 0
M  V30 6205 H 567.612 -2.20731 2.02283 0
M  V30 6206 H 565.158 -1.06066 0.973964 0
M  V30 6207 H 567.111 -4.17346 0.58309 0
M  V30 6208 H 565.835 -3.25602 -0.255091 0
M  V30 6209 H 564.494 -3.15035 1.8748 0
M  V30 6210 H 564.142 -5.02351 0.255491 0
M  V30 6211 H 563.842 -5.54971 1.93082 0
M  V30 6212 H 565.366 -6.00314 1.11607 0
M  V30 6213 H 566.78 -4.84259 3.06864 0
M  V30 6214 H 565.177 -4.62131 3.82825 0
M  V30 6215 H 566.247 -3.22273 3.6231 0
M  V30 6216 N 567.59 -1.07411 -1.15328 0
M  V30 6217 C 569.001 -0.820261 -1.67716 0
M  V30 6218 C 569.352 0.654539 -1.8496 0
M  V30 6219 O 568.477 1.50664 -1.55337 0
M  V30 6220 C 569.072 -1.48242 -3.04647 0
M  V30 6221 C 567.631 -1.27606 -3.5411 0
M  V30 6222 C 566.778 -1.5517 -2.29821 0
M  V30 6223 H 569.729 -1.23608 -0.995332 0
M  V30 6224 H 569.75 -0.903984 -3.69606 0
M  V30 6225 H 569.262 -2.55578 -2.92064 0
M  V30 6226 H 567.363 -0.222948 -3.71932 0
M  V30 6227 H 567.476 -1.99667 -4.35511 0
M  V30 6228 H 565.84 -0.972747 -2.35393 0
M  V30 6229 H 566.623 -2.63689 -2.19824 0
M  V30 6230 N 569.068 1.32177 -0.85831 0
M  V30 6231 C 570.298 2.01021 -0.476889 0
M  V30 6232 C 570.706 1.64653 0.931995 0
M  V30 6233 O 570.049 0.865713 1.62022 0
M  V30 6234 C 570.111 3.55413 -0.540528 0
M  V30 6235 C 569.775 4.1522 -1.90895 0
M  V30 6236 C 570.772 4.3318 -2.87491 0
M  V30 6237 C 568.457 4.51212 -2.20709 0
M  V30 6238 C 570.451 4.86306 -4.1205 0
M  V30 6239 C 568.138 5.04042 -3.45521 0
M  V30 6240 C 569.136 5.21538 -4.41007 0
M  V30 6241 O 568.824 5.73238 -5.63608 0
M  V30 6242 H 568.556 0.650059 -0.18547 0
M  V30 6243 H 571.11 1.69648 -1.15796 0
M  V30 6244 H 569.34 3.86196 0.19741 0
M  V30 6245 H 571.029 4.05526 -0.174191 0
M  V30 6246 H 571.795 4.05704 -2.65762 0
M  V30 6247 H 567.674 4.36878 -1.4717 0
M  V30 6248 H 571.218 4.99877 -4.86589 0
M  V30 6249 H 567.115 5.30952 -3.67098 0
M  V30 6250 H 567.883 5.91625 -5.65617 0
M  V30 6251 N 570.547 0.616602 1.45037 0
M  V30 6252 C 571.477 -0.0840787 2.33349 0
M  V30 6253 C 572.458 -0.849641 1.4736 0
M  V30 6254 O 573.643 -0.818407 1.76113 0
M  V30 6255 C 570.773 -1.07604 3.3021 0
M  V30 6256 C 569.727 -0.423096 4.25904 0
M  V30 6257 C 569.053 -1.52394 5.12523 0
M  V30 6258 C 570.353 0.661457 5.18095 0
M  V30 6259 H 572.047 0.653333 2.92185 0
M  V30 6260 H 569.593 0.315634 1.40498 0
M  V30 6261 H 571.546 -1.57485 3.90866 0
M  V30 6262 H 570.27 -1.84416 2.69552 0
M  V30 6263 H 568.929 0.05493 3.66559 0
M  V30 6264 H 568.577 -2.28257 4.48227 0
M  V30 6265 H 568.277 -1.09251 5.77354 0
M  V30 6266 H 569.801 -2.02485 5.76049 0
M  V30 6267 H 571.215 0.246353 5.7277 0
M  V30 6268 H 569.612 1.01517 5.91451 0
M  V30 6269 H 570.682 1.53446 4.59981 0
M  V30 6270 N 572.025 -1.5352 0.356285 0
M  V30 6271 C 573.271 -2.01414 -0.236653 0
M  V30 6272 C 573.604 -1.24339 -1.49176 0
M  V30 6273 O 572.879 -0.334496 -1.91602 0
M  V30 6274 C 573.162 -3.56059 -0.537982 0
M  V30 6275 C 573.015 -4.43835 0.730112 0
M  V30 6276 C 574.334 -4.19127 -1.34239 0
M  V30 6277 H 571.453 -0.732135 -0.0845386 0
M  V30 6278 H 574.095 -1.83854 0.479341 0
M  V30 6279 H 572.245 -3.71153 -1.14795 0
M  V30 6280 H 573.917 -4.40555 1.36782 0
M  V30 6281 H 572.16 -4.1218 1.3524 0
M  V30 6282 H 572.831 -5.49958 0.474358 0
M  V30 6283 H 575.307 -4.07809 -0.826498 0
M  V30 6284 H 574.183 -5.27378 -1.52198 0
M  V30 6285 H 574.444 -3.74581 -2.34822 0
M  V30 6286 N 573.503 -0.0852151 -1.57369 0
M  V30 6287 C 574.413 0.891712 -2.16992 0
M  V30 6288 C 575.429 1.3174 -1.13669 0
M  V30 6289 O 576.605 1.38735 -1.45995 0
M  V30 6290 C 573.67 2.13635 -2.73059 0
M  V30 6291 C 572.731 1.7658 -3.91303 0
M  V30 6292 C 571.964 2.95111 -4.44686 0
M  V30 6293 O 572.187 4.09539 -3.97032 0
M  V30 6294 O 571.121 2.74149 -5.35841 0
M  V30 6295 H 574.947 0.414477 -3.00858 0
M  V30 6296 H 572.532 0.138598 -1.48756 0
M  V30 6297 H 574.414 2.86595 -3.08935 0
M  V30 6298 H 573.089 2.6043 -1.92244 0
M  V30 6299 H 571.996 1.00831 -3.60255 0
M  V30 6300 H 573.329 1.34557 -4.7345 0
M  V30 6301 N 574.981 1.5647 0.188427 0
M  V30 6302 C 575.911 1.98101 1.23606 0
M  V30 6303 C 576.892 0.853961 1.47111 0
M  V30 6304 O 578.077 1.11879 1.58735 0
M  V30 6305 C 575.207 2.32624 2.57882 0
M  V30 6306 C 574.161 3.48129 2.48978 0
M  V30 6307 C 573.487 3.68347 3.87588 0
M  V30 6308 C 574.787 4.82112 2.00911 0
M  V30 6309 H 576.481 2.85864 0.890068 0
M  V30 6310 H 574.027 1.37532 0.426714 0
M  V30 6311 H 575.98 2.60343 3.3136 0
M  V30 6312 H 574.704 1.41751 2.94235 0
M  V30 6313 H 573.363 3.20511 1.77956 0
M  V30 6314 H 573.011 2.74793 4.21305 0
M  V30 6315 H 572.711 4.46055 3.82503 0
M  V30 6316 H 574.235 3.98449 4.62678 0
M  V30 6317 H 575.649 5.08819 2.64151 0
M  V30 6318 H 574.046 5.63337 2.06814 0
M  V30 6319 H 575.116 4.75249 0.96262 0
M  V30 6320 N 576.459 -0.456382 1.50847 0
M  V30 6321 C 577.684 -1.2349 1.66628 0
M  V30 6322 C 578.109 -1.84715 0.355254 0
M  V30 6323 O 577.467 -1.67961 -0.682559 0
M  V30 6324 C 577.515 -2.30865 2.77009 0
M  V30 6325 O 576.619 -3.35882 2.39285 0
M  V30 6326 H 575.96 -0.36266 0.556214 0
M  V30 6327 H 578.49 -0.541374 1.97308 0
M  V30 6328 H 578.5 -2.75949 3.00526 0
M  V30 6329 H 577.175 -1.85677 3.72152 0
M  V30 6330 H 575.752 -2.96406 2.26269 0
M  V30 6331 N 577.937 -1.40673 -0.710563 0
M  V30 6332 C 579.348 -1.34975 -1.28991 0
M  V30 6333 C 579.699 -0.0256272 -1.96183 0
M  V30 6334 O 578.824 0.876339 -1.97862 0
M  V30 6335 C 579.419 -2.44467 -2.34567 0
M  V30 6336 C 577.978 -2.42213 -2.88114 0
M  V30 6337 C 577.125 -2.25085 -1.61963 0
M  V30 6338 H 580.076 -1.50406 -0.506343 0
M  V30 6339 H 580.097 -2.12663 -3.15523 0
M  V30 6340 H 579.609 -3.40825 -1.85634 0
M  V30 6341 H 577.71 -1.49568 -3.41263 0
M  V30 6342 H 577.823 -3.37983 -3.39565 0
M  V30 6343 H 576.187 -1.72691 -1.87216 0
M  V30 6344 H 576.97 -3.23449 -1.15047 0
M  V30 6345 N 579.415 0.9433 -1.26252 0
M  V30 6346 C 580.663 1.68592 -1.11451 0
M  V30 6347 C 580.984 1.91957 0.343123 0
M  V30 6348 O 580.254 1.51475 1.24226 0
M  V30 6349 H 578.834 0.624789 -0.409448 0
M  V30 6350 H 581.496 1.13351 -1.58548 0
M  V30 6351 H 580.592 2.66054 -1.63162 0
M  V30 6352 N 580.893 1.08022 1.14757 0
M  V30 6353 C 582.309 0.807072 1.3769 0
M  V30 6354 C 582.509 -0.585504 1.92806 0
M  V30 6355 O 581.565 -1.34301 2.13821 0
M  V30 6356 C 582.878 1.88651 2.34161 0
M  V30 6357 C 584.426 1.91206 2.47809 0
M  V30 6358 C 584.901 2.98253 3.47576 0
M  V30 6359 N 586.392 2.974 3.55117 0
M  V30 6360 C 587.127 3.76872 4.32152 0
M  V30 6361 N 586.623 4.66212 5.12463 0
M  V30 6362 N 588.416 3.6519 4.27309 0
M  V30 6363 H 580.567 1.97824 0.77326 0
M  V30 6364 H 582.83 0.85826 0.402608 0
M  V30 6365 H 582.536 2.88749 2.00791 0
M  V30 6366 H 582.41 1.75244 3.3402 0
M  V30 6367 H 584.797 0.917564 2.80472 0
M  V30 6368 H 584.878 2.08691 1.47925 0
M  V30 6369 H 584.522 3.97907 3.15646 0
M  V30 6370 H 584.452 2.78014 4.47231 0
M  V30 6371 H 586.943 2.32643 2.97801 0
M  V30 6372 H 587.256 5.23468 5.68508 0
M  V30 6373 H 585.601 4.70257 5.11745 0
M  V30 6374 H 588.792 2.94765 3.63636 0
M  V30 6375 H 588.965 4.27366 4.87095 0
M  V30 6376 N 582.371 -1.3172 0.865308 0
M  V30 6377 C 583.787 -1.4958 0.556596 0
M  V30 6378 C 583.987 -1.79763 -0.910353 0
M  V30 6379 O 583.043 -1.87351 -1.6928 0
M  V30 6380 C 584.356 -2.63277 1.45279 0
M  V30 6381 C 585.904 -2.77161 1.45433 0
M  V30 6382 C 586.379 -3.93949 2.33598 0
M  V30 6383 N 587.87 -4.01228 2.31453 0
M  V30 6384 C 588.605 -4.90855 2.96393 0
M  V30 6385 N 588.101 -5.85416 3.70486 0
M  V30 6386 N 589.894 -4.84063 2.85726 0
M  V30 6387 H 582.045 -1.10396 1.81456 0
M  V30 6388 H 584.308 -0.54507 0.775631 0
M  V30 6389 H 584.014 -2.47734 2.49641 0
M  V30 6390 H 583.888 -3.59309 1.14792 0
M  V30 6391 H 586.275 -2.9212 0.41831 0
M  V30 6392 H 586.356 -1.8181 1.79941 0
M  V30 6393 H 586 -3.79748 3.37274 0
M  V30 6394 H 585.93 -4.88598 1.96417 0
M  V30 6395 H 588.421 -3.3357 1.77593 0
M  V30 6396 H 588.734 -6.50525 4.17178 0
M  V30 6397 H 587.079 -5.85409 3.74594 0
M  V30 6398 H 590.27 -4.09163 2.27384 0
M  V30 6399 H 590.443 -5.53708 3.36617 0
M  V30 6400 N 583.85 -0.624285 -1.44708 0
M  V30 6401 C 584.798 0.0969952 -2.32398 0
M  V30 6402 C 585.792 0.842762 -1.46949 0
M  V30 6403 O 586.998 0.756436 -1.63334 0
M  V30 6404 H 583.373 0.0501306 -0.750327 0
M  V30 6405 H 585.344 -0.660767 -2.90992 0
M  V30 6406 C 584.093 1.06967 -3.30837 0
M  V30 6407 H 583.416 0.505242 -3.96595 0
M  V30 6408 H 584.856 1.54397 -3.94889 0
M  V30 6409 C 583.315 2.15153 -2.5925 0
M  V30 6410 O 583.845 3.23139 -2.3863 0
M  V30 6411 N 582.051 1.90898 -2.19103 0
M  V30 6412 H 581.598 1.03086 -2.36074 0
M  V30 6413 H 581.556 2.63485 -1.71531 0
M  V30 6414 N 585.328 1.53329 -0.364422 0
M  V30 6415 C 586.278 2.22472 0.499024 0
M  V30 6416 C 587.262 1.21952 1.0496 0
M  V30 6417 O 588.454 1.47405 0.979836 0
M  V30 6418 C 585.583 3.01659 1.6388 0
M  V30 6419 C 584.669 4.09555 1.10116 0
M  V30 6420 N 585.06 5.04988 0.286414 0
M  V30 6421 C 583.358 4.2424 1.37608 0
M  V30 6422 C 584.059 5.81699 -0.00781682 0
M  V30 6423 N 583.035 5.40394 0.589494 0
M  V30 6424 H 586.837 2.93611 -0.130284 0
M  V30 6425 H 584.351 1.61483 -0.172377 0
M  V30 6426 H 586.348 3.4971 2.26954 0
M  V30 6427 H 585.008 2.32051 2.27118 0
M  V30 6428 H 586.019 5.17847 -0.0742839 0
M  V30 6429 H 582.696 3.65858 2.01133 0
M  V30 6430 H 584.086 6.68587 -0.666394 0
M  V30 6431 N 586.806 0.0935595 1.57322 0
M  V30 6432 C 588.053 -0.570509 1.94297 0
M  V30 6433 C 588.381 -1.68286 0.97519 0
M  V30 6434 O 587.636 -1.95699 -0.00548655 0
M  V30 6435 C 587.935 -1.16692 3.37813 0
M  V30 6436 C 587.601 -0.178509 4.50547 0
M  V30 6437 C 586.263 0.0933475 4.81109 0
M  V30 6438 C 588.615 0.496472 5.1883 0
M  V30 6439 C 585.943 1.0469 5.77284 0
M  V30 6440 C 588.295 1.43849 6.16028 0
M  V30 6441 C 586.959 1.71859 6.44997 0
M  V30 6442 H 586.229 -0.208764 0.710984 0
M  V30 6443 H 588.876 0.169066 1.90752 0
M  V30 6444 H 587.181 -1.98271 3.37929 0
M  V30 6445 H 588.878 -1.6884 3.63722 0
M  V30 6446 H 585.468 -0.400584 4.26724 0
M  V30 6447 H 589.652 0.299584 4.95395 0
M  V30 6448 H 584.908 1.27094 5.98044 0
M  V30 6449 H 589.082 1.96734 6.68034 0
M  V30 6450 H 586.709 2.45906 7.19329 0
M  V30 6451 N 588.284 -1.56567 -0.180126 0
M  V30 6452 C 589.247 -1.94852 -1.20686 0
M  V30 6453 C 590.247 -0.831212 -1.3765 0
M  V30 6454 O 591.437 -1.09841 -1.35206 0
M  V30 6455 C 588.569 -2.23565 -2.57355 0
M  V30 6456 H 589.762 -2.86722 -0.879225 0
M  V30 6457 H 587.315 -1.50489 -0.422237 0
M  V30 6458 H 588.05 -1.34381 -2.95148 0
M  V30 6459 H 587.835 -3.04999 -2.46411 0
M  V30 6460 H 589.325 -2.54137 -3.31367 0
M  V30 6461 N 589.762 0.448376 -1.51087 0
M  V30 6462 C 590.992 1.21965 -1.66757 0
M  V30 6463 C 591.4 1.85748 -0.359753 0
M  V30 6464 O 590.743 1.71022 0.670604 0
M  V30 6465 C 590.805 2.35284 -2.71812 0
M  V30 6466 C 590.469 1.91957 -4.1473 0
M  V30 6467 C 591.466 1.42921 -4.9987 0
M  V30 6468 C 589.151 1.99985 -4.60772 0
M  V30 6469 C 591.145 1.02485 -6.29107 0
M  V30 6470 C 588.832 1.5916 -5.90009 0
M  V30 6471 C 589.83 1.10491 -6.74004 0
M  V30 6472 O 589.518 0.702413 -8.00825 0
M  V30 6473 H 589.25 0.374125 -0.563034 0
M  V30 6474 H 591.804 0.538927 -1.98204 0
M  V30 6475 H 590.034 3.06599 -2.35657 0
M  V30 6476 H 591.723 2.97184 -2.76472 0
M  V30 6477 H 592.489 1.36123 -4.65506 0
M  V30 6478 H 588.368 2.36814 -3.95525 0
M  V30 6479 H 591.912 0.644271 -6.94619 0
M  V30 6480 H 587.809 1.65626 -6.2389 0
M  V30 6481 H 588.577 0.829248 -8.14288 0
M  V30 6482 N 591.24 1.41047 0.703093 0
M  V30 6483 C 592.47 1.43133 1.48985 0
M  V30 6484 C 592.878 0.0328537 1.89171 0
M  V30 6485 O 592.221 -0.956469 1.56835 0
M  V30 6486 C 592.283 2.26991 2.78775 0
M  V30 6487 C 591.947 3.7525 2.60837 0
M  V30 6488 C 592.944 4.67591 2.27276 0
M  V30 6489 C 590.629 4.19208 2.76712 0
M  V30 6490 C 592.623 6.01877 2.09817 0
M  V30 6491 C 590.31 5.53561 2.5887 0
M  V30 6492 C 591.308 6.4471 2.25472 0
M  V30 6493 O 590.996 7.76584 2.07778 0
M  V30 6494 H 590.728 0.489788 0.465922 0
M  V30 6495 H 593.282 1.85886 0.873822 0
M  V30 6496 H 591.512 1.79038 3.42757 0
M  V30 6497 H 593.201 2.20867 3.40547 0
M  V30 6498 H 593.967 4.34923 2.14633 0
M  V30 6499 H 589.846 3.48572 3.01693 0
M  V30 6500 H 593.39 6.72986 1.83671 0
M  V30 6501 H 589.287 5.85811 2.71102 0
M  V30 6502 H 590.055 7.87649 2.22601 0
M  V30 6503 N 592.718 -0.936591 1.26751 0
M  V30 6504 C 593.666 -2.0573 1.08527 0
M  V30 6505 C 594.66 -1.69397 0.0108784 0
M  V30 6506 O 595.866 -1.79215 0.167915 0
M  V30 6507 H 592.241 -0.673691 0.334133 0
M  V30 6508 H 594.212 -2.1825 2.03493 0
M  V30 6509 C 592.961 -3.39738 0.739845 0
M  V30 6510 H 592.284 -3.68174 1.55845 0
M  V30 6511 H 593.724 -4.18955 0.652149 0
M  V30 6512 C 592.183 -3.32292 -0.555288 0
M  V30 6513 O 592.713 -3.68794 -1.59229 0
M  V30 6514 N 590.919 -2.85394 -0.54762 0
M  V30 6515 H 590.466 -2.55886 0.296667 0
M  V30 6516 H 590.424 -2.80795 -1.41427 0
M  V30 6517 N 594.196 -1.08629 -1.14182 0
M  V30 6518 C 595.426 -0.837673 -1.88856 0
M  V30 6519 C 595.834 0.614024 -1.78959 0
M  V30 6520 O 595.177 1.43384 -1.14833 0
M  V30 6521 C 595.239 -1.18355 -3.39459 0
M  V30 6522 C 594.903 -2.63848 -3.73139 0
M  V30 6523 C 595.9 -3.62099 -3.73069 0
M  V30 6524 C 593.585 -2.99761 -4.03049 0
M  V30 6525 C 595.579 -4.94292 -4.02435 0
M  V30 6526 C 593.266 -4.32147 -4.32078 0
M  V30 6527 C 594.264 -5.29223 -4.31755 0
M  V30 6528 O 593.952 -6.59229 -4.60079 0
M  V30 6529 H 593.684 -0.301609 -0.604986 0
M  V30 6530 H 596.238 -1.44961 -1.45518 0
M  V30 6531 H 594.468 -0.514628 -3.8326 0
M  V30 6532 H 596.157 -0.915391 -3.95443 0
M  V30 6533 H 596.923 -3.35698 -3.50046 0
M  V30 6534 H 592.802 -2.2484 -4.02453 0
M  V30 6535 H 596.346 -5.70055 -4.02098 0
M  V30 6536 H 592.243 -4.58296 -4.54571 0
M  V30 6537 H 593.011 -6.64578 -4.77785 0
M  V30 6538 N 595.674 1.31259 -0.872281 0
M  V30 6539 C 596.624 2.26 -0.301295 0
M  V30 6540 C 597.608 1.50729 0.562991 0
M  V30 6541 O 598.8 1.72198 0.40949 0
M  V30 6542 C 595.929 3.39724 0.494227 0
M  V30 6543 C 595.015 4.22363 -0.383432 0
M  V30 6544 N 595.406 4.83724 -1.47799 0
M  V30 6545 C 593.704 4.45652 -0.176278 0
M  V30 6546 C 594.405 5.45523 -2.01939 0
M  V30 6547 N 593.381 5.27428 -1.31608 0
M  V30 6548 H 597.183 2.70981 -1.13782 0
M  V30 6549 H 594.697 1.45552 -0.720294 0
M  V30 6550 H 596.694 4.06626 0.919828 0
M  V30 6551 H 595.354 2.96286 1.32834 0
M  V30 6552 H 596.365 4.83313 -1.8609 0
M  V30 6553 H 593.042 4.12845 0.621698 0
M  V30 6554 H 594.432 6.04268 -2.93786 0
M  V30 6555 N 597.152 0.631951 1.44375 0
M  V30 6556 C 598.38 0.143867 2.06399 0
M  V30 6557 C 598.795 -1.18188 1.47231 0
M  V30 6558 O 598.152 -1.72511 0.595498 0
M  V30 6559 C 598.203 0.0238253 3.61492 0
M  V30 6560 O 597.924 1.29715 4.18456 0
M  V30 6561 C 599.425 -0.492856 4.40552 0
M  V30 6562 H 596.645 0.0800542 0.666207 0
M  V30 6563 H 599.189 0.866586 1.85231 0
M  V30 6564 H 597.344 -0.649338 3.81919 0
M  V30 6565 H 597.758 1.14252 5.11905 0
M  V30 6566 H 599.232 -0.525861 5.49489 0
M  V30 6567 H 599.709 -1.52006 4.12057 0
M  V30 6568 H 600.315 0.147085 4.25046 0
M  V30 6569 N 598.631 -1.53133 0.372548 0
M  V30 6570 C 599.861 -2.05476 -0.215202 0
M  V30 6571 C 600.269 -1.24534 -1.42436 0
M  V30 6572 O 599.612 -0.280771 -1.81542 0
M  V30 6573 C 599.674 -3.53276 -0.666068 0
M  V30 6574 C 599.338 -4.54998 0.427342 0
M  V30 6575 C 600.335 -5.03911 1.27944 0
M  V30 6576 C 598.02 -4.98828 0.589579 0
M  V30 6577 C 600.014 -5.95263 2.27905 0
M  V30 6578 C 597.701 -5.89984 1.59255 0
M  V30 6579 C 598.699 -6.38093 2.43571 0
M  V30 6580 O 598.387 -7.27451 3.42156 0
M  V30 6581 H 598.119 -0.67481 -0.040099 0
M  V30 6582 H 600.673 -1.98409 0.531312 0
M  V30 6583 H 598.903 -3.57904 -1.4643 0
M  V30 6584 H 600.592 -3.88442 -1.1776 0
M  V30 6585 H 601.358 -4.70792 1.16532 0
M  V30 6586 H 597.237 -4.60965 -0.0569456 0
M  V30 6587 H 600.781 -6.32736 2.93753 0
M  V30 6588 H 596.678 -6.22518 1.70711 0
M  V30 6589 H 597.446 -7.45467 3.37967 0
M  V30 6590 N 600.109 -0.101901 -1.5727 0
M  V30 6591 C 601.019 0.868647 -2.17926 0
M  V30 6592 C 602.035 1.30527 -1.1506 0
M  V30 6593 O 603.211 1.37178 -1.47459 0
M  V30 6594 C 600.276 2.10727 -2.75309 0
M  V30 6595 C 599.337 1.7242 -3.93154 0
M  V30 6596 C 598.57 2.90377 -4.47791 0
M  V30 6597 O 598.793 4.05305 -4.01353 0
M  V30 6598 O 597.727 2.6845 -5.38719 0
M  V30 6599 H 601.553 0.382544 -3.01281 0
M  V30 6600 H 599.138 0.122812 -1.48894 0
M  V30 6601 H 601.02 2.83303 -3.11958 0
M  V30 6602 H 599.695 2.58376 -1.94996 0
M  V30 6603 H 598.602 0.970039 -3.61305 0
M  V30 6604 H 599.935 1.29528 -4.74851 0
M  V30 6605 N 601.587 1.56661 0.17182 0
M  V30 6606 C 602.864 1.72838 0.915778 0
M  V30 6607 C 603.244 0.66316 2.00413 0
M  V30 6608 O 602.592 -0.322123 2.26218 0
M  V30 6609 C 602.802 3.16019 1.48097 0
M  V30 6610 C 604.15 3.76962 1.95408 0
M  V30 6611 O 605.174 3.19294 1.57892 0
M  V30 6612 O 604.033 4.78219 2.64516 0
M  V30 6613 H 601.127 0.705797 0.431021 0
M  V30 6614 H 603.673 1.68947 0.159689 0
M  V30 6615 H 602.445 3.85031 0.697618 0
M  V30 6616 H 602.068 3.24234 2.30126 0
M  V30 6617 N 603.065 -0.440357 1.51323 0
M  V30 6618 C 604.313 -1.18769 1.63518 0
M  V30 6619 C 604.634 -1.91793 0.352201 0
M  V30 6620 O 603.904 -1.85432 -0.631811 0
M  V30 6621 H 602.484 -0.441408 0.602634 0
M  V30 6622 H 605.146 -0.505162 1.8824 0
M  V30 6623 H 604.242 -1.91892 2.46138 0
M  V30 6624 N 604.543 -1.41418 -0.695603 0
M  V30 6625 C 605.768 -1.44329 -1.48942 0
M  V30 6626 C 606.193 -0.0501579 -1.88033 0
M  V30 6627 O 605.551 0.946598 -1.54626 0
M  V30 6628 C 605.599 -2.3578 -2.72837 0
M  V30 6629 O 604.703 -1.81482 -3.70322 0
M  V30 6630 H 604.044 -0.489838 -0.44828 0
M  V30 6631 H 606.574 -1.85878 -0.855014 0
M  V30 6632 H 606.584 -2.51654 -3.21145 0
M  V30 6633 H 605.259 -3.37005 -2.43722 0
M  V30 6634 H 603.836 -1.75058 -3.29255 0
M  V30 6635 N 606.021 0.929856 -1.27246 0
M  V30 6636 C 607.298 1.65544 -1.04186 0
M  V30 6637 C 607.678 2.06796 0.424097 0
M  V30 6638 O 607.026 1.80053 1.40688 0
M  V30 6639 C 607.236 2.85912 -2.00138 0
M  V30 6640 C 608.584 3.57305 -2.29387 0
M  V30 6641 O 609.608 2.96036 -1.98094 0
M  V30 6642 O 608.467 4.67688 -2.82719 0
M  V30 6643 H 605.561 0.725473 -0.397011 0
M  V30 6644 H 608.107 0.980583 -1.38501 0
M  V30 6645 H 606.879 2.52403 -2.99013 0
M  V30 6646 H 606.502 3.61118 -1.66371 0
M  V30 6647 N 607.499 1.09233 1.13605 0
M  V30 6648 C 608.724 0.849067 1.89224 0
M  V30 6649 C 609.149 -0.593875 1.78479 0
M  V30 6650 O 608.507 -1.41703 1.13092 0
M  V30 6651 C 608.555 1.28642 3.36873 0
M  V30 6652 O 607.659 0.44363 4.10007 0
M  V30 6653 H 607 0.30767 0.588417 0
M  V30 6654 H 609.53 1.45595 1.43748 0
M  V30 6655 H 609.54 1.27096 3.87699 0
M  V30 6656 H 608.215 2.33729 3.44011 0
M  V30 6657 H 606.792 0.523241 3.69211 0
M  V30 6658 N 608.977 -1.30795 0.87923 0
M  V30 6659 C 610.393 -1.48981 0.57243 0
M  V30 6660 C 610.593 -1.80719 -0.891236 0
M  V30 6661 O 609.649 -1.89136 -1.67283 0
M  V30 6662 C 610.962 -2.61721 1.48063 0
M  V30 6663 C 612.51 -2.75603 1.48365 0
M  V30 6664 C 612.985 -3.91449 2.37763 0
M  V30 6665 N 614.476 -3.98751 2.35695 0
M  V30 6666 C 615.211 -4.87684 3.01583 0
M  V30 6667 N 614.707 -5.81454 3.76674 0
M  V30 6668 N 616.5 -4.81005 2.90844 0
M  V30 6669 H 608.651 -1.08465 1.82617 0
M  V30 6670 H 610.914 -0.536813 0.781368 0
M  V30 6671 H 610.62 -2.45073 2.52254 0
M  V30 6672 H 610.494 -3.58071 1.18596 0
M  V30 6673 H 612.881 -2.9166 0.44927 0
M  V30 6674 H 612.962 -1.79891 1.81859 0
M  V30 6675 H 612.606 -3.76149 3.41283 0
M  V30 6676 H 612.536 -4.86487 2.01589 0
M  V30 6677 H 615.027 -3.31668 1.81121 0
M  V30 6678 H 615.34 -6.46063 4.24054 0
M  V30 6679 H 613.685 -5.81403 3.80782 0
M  V30 6680 H 616.876 -4.06728 2.31711 0
M  V30 6681 H 617.049 -5.50107 3.42471 0
M  V30 6682 N 610.455 -0.639598 -1.44038 0
M  V30 6683 C 611.732 -0.078012 -1.95444 0
M  V30 6684 C 612.112 1.39847 -1.58133 0
M  V30 6685 O 611.46 2.11714 -0.859614 0
M  V30 6686 C 611.67 -0.309832 -3.47622 0
M  V30 6687 C 613.018 -0.207521 -4.24093 0
M  V30 6688 O 614.042 -0.241653 -3.55379 0
M  V30 6689 O 612.901 -0.119641 -5.46369 0
M  V30 6690 H 609.995 0.0174534 -0.826816 0
M  V30 6691 H 612.541 -0.711891 -1.54046 0
M  V30 6692 H 611.313 -1.33401 -3.67858 0
M  V30 6693 H 610.936 0.357777 -3.95987 0
M  V30 6694 N 611.933 1.52934 -0.380664 0
M  V30 6695 C 612.88 2.26197 0.458641 0
M  V30 6696 C 613.85 1.27462 1.06502 0
M  V30 6697 O 615.035 1.56274 1.09467 0
M  V30 6698 C 612.175 3.06571 1.58456 0
M  V30 6699 C 611.288 4.20222 1.00189 0
M  V30 6700 C 610.423 4.88007 2.09815 0
M  V30 6701 C 609.462 5.93665 1.49092 0
M  V30 6702 N 608.599 6.55081 2.52613 0
M  V30 6703 H 613.439 2.975 -0.172595 0
M  V30 6704 H 610.976 1.4678 -0.0969426 0
M  V30 6705 H 612.934 3.51455 2.24801 0
M  V30 6706 H 611.564 2.37494 2.18624 0
M  V30 6707 H 610.616 3.79714 0.228292 0
M  V30 6708 H 611.928 4.96102 0.518064 0
M  V30 6709 H 611.082 5.36151 2.83948 0
M  V30 6710 H 609.821 4.11632 2.61555 0
M  V30 6711 H 608.826 5.44868 0.7348 0
M  V30 6712 H 610.051 6.71969 0.981582 0
M  V30 6713 H 607.997 5.8155 3.03538 0
M  V30 6714 H 607.914 7.26548 2.08961 0
M  V30 6715 H 609.182 7.07871 3.26402 0
M  V30 6716 N 613.412 0.11024 1.57214 0
M  V30 6717 C 614.823 -0.416527 1.81994 0
M  V30 6718 C 615.174 -1.67183 1.02686 0
M  V30 6719 O 614.299 -2.14823 0.260782 0
M  V30 6720 C 614.894 -0.762466 3.30109 0
M  V30 6721 C 613.453 -1.23391 3.556 0
M  V30 6722 C 612.6 -0.238166 2.76275 0
M  V30 6723 H 615.551 0.335491 1.55113 0
M  V30 6724 H 615.572 -1.62068 3.44259 0
M  V30 6725 H 615.084 0.151346 3.87805 0
M  V30 6726 H 613.185 -2.16492 3.03253 0
M  V30 6727 H 613.298 -1.18528 4.64207 0
M  V30 6728 H 611.662 -0.723421 2.4421 0
M  V30 6729 H 612.445 0.668591 3.36727 0
M  V30 6730 N 614.89 -1.56749 -0.16351 0
M  V30 6731 C 615.837 -1.97011 -1.2023 0
M  V30 6732 C 616.807 -0.835186 -1.43575 0
M  V30 6733 O 617.992 -1.09594 -1.56185 0
M  V30 6734 C 615.132 -2.34186 -2.53478 0
M  V30 6735 C 614.245 -3.60893 -2.37446 0
M  V30 6736 C 613.38 -3.87245 -3.63614 0
M  V30 6737 C 612.419 -5.07274 -3.42548 0
M  V30 6738 N 611.556 -5.29719 -4.60806 0
M  V30 6739 H 616.396 -2.85562 -0.851958 0
M  V30 6740 H 613.933 -1.41292 -0.409257 0
M  V30 6741 H 615.891 -2.53764 -3.31149 0
M  V30 6742 H 614.521 -1.48736 -2.86492 0
M  V30 6743 H 613.573 -3.49185 -1.50911 0
M  V30 6744 H 614.885 -4.48722 -2.1783 0
M  V30 6745 H 614.039 -4.07232 -4.49719 0
M  V30 6746 H 612.778 -2.97806 -3.86216 0
M  V30 6747 H 611.783 -4.87177 -2.5483 0
M  V30 6748 H 613.008 -5.98251 -3.2136 0
M  V30 6749 H 610.954 -4.43233 -4.83612 0
M  V30 6750 H 610.871 -6.11786 -4.44132 0
M  V30 6751 H 612.139 -5.54192 -5.48171 0
M  V30 6752 N 616.368 0.432326 -1.51554 0
M  V30 6753 C 617.298 1.53242 -1.76179 0
M  V30 6754 C 618.279 1.58717 -0.611801 0
M  V30 6755 O 619.464 1.74364 -0.855033 0
M  V30 6756 C 616.594 2.91278 -1.89141 0
M  V30 6757 C 615.548 3.00663 -3.04608 0
M  V30 6758 C 614.874 4.40728 -3.02759 0
M  V30 6759 C 616.174 2.74281 -4.44485 0
M  V30 6760 H 617.868 1.32886 -2.68294 0
M  V30 6761 H 615.414 0.637841 -1.29103 0
M  V30 6762 H 617.367 3.68203 -2.04951 0
M  V30 6763 H 616.091 3.12877 -0.936785 0
M  V30 6764 H 614.75 2.26179 -2.88511 0
M  V30 6765 H 614.398 4.59301 -2.05065 0
M  V30 6766 H 614.098 4.47936 -3.80299 0
M  V30 6767 H 615.622 5.19619 -3.20669 0
M  V30 6768 H 617.036 3.40936 -4.60907 0
M  V30 6769 H 615.433 2.92893 -5.23769 0
M  V30 6770 H 616.503 1.69856 -4.54177 0
M  V30 6771 N 617.846 1.41785 0.688094 0
M  V30 6772 C 619.076 1.44705 1.47459 0
M  V30 6773 C 619.484 0.052916 1.89126 0
M  V30 6774 O 618.827 -0.939781 1.57841 0
M  V30 6775 C 618.889 2.29935 2.76352 0
M  V30 6776 C 618.553 3.77996 2.56843 0
M  V30 6777 C 619.55 4.69976 2.22304 0
M  V30 6778 C 617.235 4.2212 2.7225 0
M  V30 6779 C 619.229 6.04068 2.03421 0
M  V30 6780 C 616.916 5.56275 2.52985 0
M  V30 6781 C 617.914 6.47065 2.18621 0
M  V30 6782 O 617.602 7.78744 1.9953 0
M  V30 6783 H 617.334 0.494703 0.460701 0
M  V30 6784 H 619.888 1.86802 0.854057 0
M  V30 6785 H 618.118 1.82664 3.40839 0
M  V30 6786 H 619.807 2.24467 3.38186 0
M  V30 6787 H 620.573 4.37175 2.10008 0
M  V30 6788 H 616.452 3.51752 2.97979 0
M  V30 6789 H 619.996 6.74897 1.76523 0
M  V30 6790 H 615.893 5.88653 2.64873 0
M  V30 6791 H 616.661 7.89966 2.14234 0
M  V30 6792 N 619.324 -0.923095 1.27737 0
M  V30 6793 C 620.74 -1.19985 1.05241 0
M  V30 6794 C 620.94 -2.00391 -0.21113 0
M  V30 6795 O 619.996 -2.35324 -0.915366 0
M  V30 6796 C 621.309 -1.94352 2.29451 0
M  V30 6797 C 622.857 -2.07273 2.34536 0
M  V30 6798 C 623.332 -2.85046 3.58487 0
M  V30 6799 N 624.823 -2.92612 3.59072 0
M  V30 6800 C 625.558 -3.53266 4.51654 0
M  V30 6801 N 625.054 -4.15274 5.54545 0
M  V30 6802 N 626.847 -3.50714 4.39268 0
M  V30 6803 H 618.998 -0.386042 2.08862 0
M  V30 6804 H 621.261 -0.233407 0.918817 0
M  V30 6805 H 620.967 -1.42692 3.21453 0
M  V30 6806 H 620.841 -2.94947 2.3513 0
M  V30 6807 H 623.228 -2.58117 1.43037 0
M  V30 6808 H 623.309 -1.05884 2.32857 0
M  V30 6809 H 622.953 -2.34884 4.50324 0
M  V30 6810 H 622.883 -3.8673 3.57418 0
M  V30 6811 H 625.374 -2.48547 2.84663 0
M  V30 6812 H 625.687 -4.59507 6.21348 0
M  V30 6813 H 624.032 -4.13806 5.58382 0
M  V30 6814 H 627.223 -3.01475 3.58093 0
M  V30 6815 H 627.396 -3.97693 5.1161 0
M  V30 6816 N 620.802 -1.09834 -1.13024 0
M  V30 6817 C 621.732 -0.763451 -2.20666 0
M  V30 6818 C 622.713 0.260778 -1.68089 0
M  V30 6819 O 623.898 0.127915 -1.93778 0
M  V30 6820 C 621.028 -0.187744 -3.46792 0
M  V30 6821 C 619.982 -1.14196 -4.12484 0
M  V30 6822 C 619.308 -0.427755 -5.32986 0
M  V30 6823 C 620.608 -2.48607 -4.59338 0
M  V30 6824 H 622.302 -1.66347 -2.48936 0
M  V30 6825 H 619.848 -0.801261 -1.19649 0
M  V30 6826 H 621.801 0.0586375 -4.21359 0
M  V30 6827 H 620.525 0.747485 -3.17931 0
M  V30 6828 H 619.184 -1.37369 -3.3989 0
M  V30 6829 H 618.832 0.511747 -5.0039 0
M  V30 6830 H 618.532 -1.06403 -5.77886 0
M  V30 6831 H 620.056 -0.189772 -6.10305 0
M  V30 6832 H 621.47 -2.29618 -5.25308 0
M  V30 6833 H 619.867 -3.08062 -5.14993 0
M  V30 6834 H 620.937 -3.09062 -3.73642 0
M  V30 6835 N 622.28 1.30327 -0.886154 0
M  V30 6836 C 623.212 2.27079 -0.311072 0
M  V30 6837 C 624.225 1.53758 0.53502 0
M  V30 6838 O 625.414 1.74947 0.354378 0
M  V30 6839 C 622.514 3.33965 0.576228 0
M  V30 6840 C 621.687 4.36735 -0.241064 0
M  V30 6841 C 620.746 5.23028 0.576916 0
M  V30 6842 O 619.772 5.692 -0.000802231 0
M  V30 6843 N 620.974 5.49016 1.88579 0
M  V30 6844 H 623.739 2.77065 -1.14259 0
M  V30 6845 H 621.3 1.43519 -0.749258 0
M  V30 6846 H 623.292 3.88618 1.12953 0
M  V30 6847 H 621.862 2.839 1.30842 0
M  V30 6848 H 621.082 3.81932 -0.975805 0
M  V30 6849 H 622.37 5.02451 -0.801272 0
M  V30 6850 H 621.768 5.13288 2.37806 0
M  V30 6851 H 620.325 6.06539 2.38651 0
M  V30 6852 N 623.758 0.647228 1.43697 0
M  V30 6853 C 624.688 -0.0345631 2.33474 0
M  V30 6854 C 625.669 -0.818193 1.4913 0
M  V30 6855 O 626.854 -0.780867 1.77809 0
M  V30 6856 C 623.984 -1.00576 3.32418 0
M  V30 6857 C 622.938 -0.33266 4.26705 0
M  V30 6858 C 622.264 -1.41489 5.1564 0
M  V30 6859 C 623.564 0.771204 5.16575 0
M  V30 6860 H 625.258 0.715163 2.90733 0
M  V30 6861 H 622.804 0.345364 1.39797 0
M  V30 6862 H 624.757 -1.49159 3.94119 0
M  V30 6863 H 623.481 -1.78657 2.73403 0
M  V30 6864 H 622.14 0.13267 3.6636 0
M  V30 6865 H 621.788 -2.18698 4.52968 0
M  V30 6866 H 621.488 -0.969799 5.79542 0
M  V30 6867 H 623.012 -1.9022 5.80214 0
M  V30 6868 H 624.426 0.36779 5.72119 0
M  V30 6869 H 622.823 1.1404 5.89165 0
M  V30 6870 H 623.893 1.63169 4.56622 0
M  V30 6871 N 625.236 -1.5273 0.388769 0
M  V30 6872 C 626.461 -2.0647 -0.19621 0
M  V30 6873 C 626.886 -1.25865 -1.39784 0
M  V30 6874 O 626.244 -0.283562 -1.79069 0
M  V30 6875 C 626.292 -3.56456 -0.5451 0
M  V30 6876 O 625.396 -3.78426 -1.63912 0
M  V30 6877 H 624.737 -0.663599 -0.023067 0
M  V30 6878 H 627.267 -1.96898 0.556084 0
M  V30 6879 H 627.277 -3.99888 -0.809557 0
M  V30 6880 H 625.952 -4.14561 0.333417 0
M  V30 6881 H 624.529 -3.46884 -1.36842 0
M  V30 6882 N 626.714 -0.118576 -1.57153 0
M  V30 6883 C 627.96 0.540326 -1.95469 0
M  V30 6884 C 628.293 1.66356 -1.00196 0
M  V30 6885 O 627.568 1.94461 -0.039104 0
M  V30 6886 C 627.851 1.07342 -3.43729 0
M  V30 6887 C 627.704 -0.0463732 -4.49776 0
M  V30 6888 C 629.023 1.96442 -3.93826 0
M  V30 6889 H 626.142 0.19494 -0.710751 0
M  V30 6890 H 628.784 -0.19405 -1.89006 0
M  V30 6891 H 626.934 1.69925 -3.49368 0
M  V30 6892 H 628.606 -0.681648 -4.56236 0
M  V30 6893 H 626.849 -0.709574 -4.27957 0
M  V30 6894 H 627.52 0.367856 -5.50773 0
M  V30 6895 H 629.996 1.43731 -3.90488 0
M  V30 6896 H 628.872 2.3066 -4.98084 0
M  V30 6897 H 629.133 2.89077 -3.34495 0
M  V30 6898 N 628.193 1.56834 0.155195 0
M  V30 6899 C 629.421 1.87049 0.884326 0
M  V30 6900 C 629.836 0.705839 1.7511 0
M  V30 6901 O 629.193 -0.324641 1.79589 0
M  V30 6902 C 629.244 3.1644 1.74781 0
M  V30 6903 O 628.965 4.28417 0.915978 0
M  V30 6904 C 630.466 3.60113 2.58522 0
M  V30 6905 H 627.686 0.620196 0.25612 0
M  V30 6906 H 630.23 2.03946 0.150445 0
M  V30 6907 H 628.385 3.01321 2.43484 0
M  V30 6908 H 628.799 5.02353 1.50803 0
M  V30 6909 H 630.273 4.53508 3.14698 0
M  V30 6910 H 630.75 2.85005 3.34169 0
M  V30 6911 H 631.356 3.77898 1.95124 0
M  V30 6912 N 629.671 -0.424282 1.51781 0
M  V30 6913 C 630.581 -1.54087 1.76902 0
M  V30 6914 C 631.597 -1.61249 0.653826 0
M  V30 6915 O 632.773 -1.78247 0.937552 0
M  V30 6916 C 629.838 -2.8996 1.90063 0
M  V30 6917 C 628.899 -2.92809 3.13945 0
M  V30 6918 C 628.132 -4.22201 3.26469 0
M  V30 6919 O 628.355 -5.15286 2.44616 0
M  V30 6920 O 627.289 -4.31599 4.1953 0
M  V30 6921 H 631.115 -1.358 2.71647 0
M  V30 6922 H 628.7 -0.608618 1.36441 0
M  V30 6923 H 630.582 -3.70575 2.0063 0
M  V30 6924 H 629.257 -3.08347 0.985067 0
M  V30 6925 H 628.164 -2.11102 3.08847 0
M  V30 6926 H 629.497 -2.79369 4.05233 0
M  V30 6927 N 631.149 -1.42148 -0.680565 0
M  V30 6928 C 632.395 -1.42521 -1.44277 0
M  V30 6929 C 632.728 -0.0393718 -1.9416 0
M  V30 6930 O 632.003 0.935425 -1.70529 0
M  V30 6931 C 632.286 -2.44475 -2.64394 0
M  V30 6932 C 632.139 -3.92226 -2.20179 0
M  V30 6933 C 633.458 -2.43491 -3.66606 0
M  V30 6934 H 630.577 -0.518985 -0.523282 0
M  V30 6935 H 633.219 -1.73524 -0.773914 0
M  V30 6936 H 631.369 -2.18168 -3.21458 0
M  V30 6937 H 633.041 -4.29493 -1.68327 0
M  V30 6938 H 631.284 -4.0637 -1.5181 0
M  V30 6939 H 631.955 -4.59133 -3.06433 0
M  V30 6940 H 634.431 -2.66872 -3.19247 0
M  V30 6941 H 633.307 -3.16816 -4.4824 0
M  V30 6942 H 633.568 -1.45881 -4.17338 0
M  V30 6943 N 632.627 0.916307 -1.28225 0
M  V30 6944 C 633.875 1.6619 -1.15002 0
M  V30 6945 C 634.196 1.92642 0.302329 0
M  V30 6946 O 633.466 1.54076 1.20985 0
M  V30 6947 H 632.046 0.615964 -0.422608 0
M  V30 6948 H 634.708 1.09963 -1.60917 0
M  V30 6949 H 633.804 2.62533 -1.68769 0
M  V30 6950 N 634.105 1.10431 1.1244 0
M  V30 6951 C 635.333 0.868872 1.87772 0
M  V30 6952 C 635.748 -0.580645 1.7965 0
M  V30 6953 O 635.105 -1.40031 1.17036 0
M  V30 6954 C 635.156 1.30855 3.36986 0
M  V30 6955 O 634.877 2.70123 3.44914 0
M  V30 6956 C 636.378 1.107 4.29256 0
M  V30 6957 H 633.598 0.311868 0.59412 0
M  V30 6958 H 636.142 1.46897 1.42273 0
M  V30 6959 H 634.297 0.752126 3.80029 0
M  V30 6960 H 634.711 2.88923 4.37748 0
M  V30 6961 H 636.185 1.46378 5.32238 0
M  V30 6962 H 636.662 0.0456228 4.39176 0
M  V30 6963 H 637.268 1.64988 3.91994 0
M  V30 6964 N 635.583 -1.29855 0.893053 0
M  V30 6965 C 636.493 -2.31661 0.370157 0
M  V30 6966 C 637.509 -1.65677 -0.531723 0
M  V30 6967 O 638.685 -1.9691 -0.422902 0
M  V30 6968 C 635.75 -3.44388 -0.399741 0
M  V30 6969 C 634.811 -4.2598 0.532861 0
M  V30 6970 C 634.044 -5.33324 -0.200388 0
M  V30 6971 O 634.267 -5.52305 -1.42531 0
M  V30 6972 O 633.201 -6.00188 0.453668 0
M  V30 6973 H 637.027 -2.78354 1.2146 0
M  V30 6974 H 634.612 -1.34171 0.657153 0
M  V30 6975 H 636.494 -4.13037 -0.835358 0
M  V30 6976 H 635.169 -2.99815 -1.22035 0
M  V30 6977 H 634.076 -3.59998 1.01746 0
M  V30 6978 H 635.409 -4.74178 1.3197 0
M  V30 6979 N 637.061 -0.65484 -1.43351 0
M  V30 6980 C 638.008 0.0357713 -2.30772 0
M  V30 6981 C 638.978 0.813035 -1.44841 0
M  V30 6982 O 640.163 0.789314 -1.73708 0
M  V30 6983 C 637.303 0.995084 -3.30442 0
M  V30 6984 C 636.416 0.21375 -4.31471 0
M  V30 6985 C 635.551 1.16701 -5.18222 0
M  V30 6986 C 634.59 0.376201 -6.10943 0
M  V30 6987 N 633.727 1.28113 -6.90313 0
M  V30 6988 H 638.567 -0.71559 -2.89281 0
M  V30 6989 H 636.104 -0.364645 -1.42509 0
M  V30 6990 H 638.062 1.5649 -3.86739 0
M  V30 6991 H 636.692 1.7133 -2.7358 0
M  V30 6992 H 635.744 -0.472377 -3.77456 0
M  V30 6993 H 637.056 -0.401103 -4.97185 0
M  V30 6994 H 636.21 1.8074 -5.79153 0
M  V30 6995 H 634.949 1.81577 -4.52638 0
M  V30 6996 H 633.954 -0.277534 -5.49099 0
M  V30 6997 H 635.179 -0.268178 -6.7857 0
M  V30 6998 H 633.125 1.91666 -6.27376 0
M  V30 6999 H 633.042 0.720879 -7.52555 0
M  V30 7000 H 634.31 1.90962 -7.55747 0
M  V30 7001 N 638.539 1.52521 -0.396863 0
M  V30 7002 C 639.469 2.29582 0.425941 0
M  V30 7003 C 640.45 1.33281 1.05689 0
M  V30 7004 O 641.635 1.62181 1.06823 0
M  V30 7005 C 638.765 3.10821 1.54943 0
M  V30 7006 C 637.719 4.15069 1.04413 0
M  V30 7007 C 637.045 4.84578 2.26028 0
M  V30 7008 C 638.345 5.22191 0.106767 0
M  V30 7009 H 640.039 2.98612 -0.217045 0
M  V30 7010 H 637.585 1.43611 -0.105826 0
M  V30 7011 H 639.538 3.63492 2.13193 0
M  V30 7012 H 638.262 2.39538 2.22011 0
M  V30 7013 H 636.921 3.63389 0.484118 0
M  V30 7014 H 636.569 4.09835 2.91623 0
M  V30 7015 H 636.269 5.55043 1.92876 0
M  V30 7016 H 637.793 5.40056 2.84906 0
M  V30 7017 H 639.207 5.70176 0.597685 0
M  V30 7018 H 637.604 5.99947 -0.135352 0
M  V30 7019 H 638.674 4.77531 -0.842134 0
M  V30 7020 N 640.017 0.126909 1.57088 0
M  V30 7021 C 641.294 -0.573152 1.87014 0
M  V30 7022 C 641.674 -1.84297 1.02945 0
M  V30 7023 O 641.022 -2.28232 0.110573 0
M  V30 7024 C 641.232 -0.857984 3.38289 0
M  V30 7025 C 642.58 -1.20759 4.07066 0
M  V30 7026 O 643.604 -0.947992 3.43353 0
M  V30 7027 O 642.463 -1.69516 5.19545 0
M  V30 7028 H 639.557 -0.290082 0.774456 0
M  V30 7029 H 642.103 0.162008 1.68925 0
M  V30 7030 H 640.875 0.0415286 3.91278 0
M  V30 7031 H 640.498 -1.64803 3.61837 0
M  V30 7032 N 641.495 -1.56914 -0.146875 0
M  V30 7033 C 642.772 -1.74273 -0.888165 0
M  V30 7034 C 643.152 -0.69496 -1.99333 0
M  V30 7035 O 642.5 0.286093 -2.26702 0
M  V30 7036 C 642.71 -3.18336 -1.43051 0
M  V30 7037 C 644.058 -3.80024 -1.89387 0
M  V30 7038 O 645.082 -3.21765 -1.52792 0
M  V30 7039 O 643.941 -4.82367 -2.56874 0
M  V30 7040 H 641.035 -0.712565 -0.419738 0
M  V30 7041 H 643.581 -1.6918 -0.132791 0
M  V30 7042 H 642.353 -3.86092 -0.636274 0
M  V30 7043 H 641.976 -3.27854 -2.24938 0
M  V30 7044 N 642.974 0.416227 -1.52004 0
M  V30 7045 C 643.922 1.5272 -1.7544 0
M  V30 7046 C 644.916 1.57596 -0.621289 0
M  V30 7047 O 646.122 1.61087 -0.803172 0
M  V30 7048 H 642.497 0.507772 -0.554682 0
M  V30 7049 H 644.468 1.30136 -2.68528 0
M  V30 7050 C 643.217 2.90165 -1.91571 0
M  V30 7051 H 642.54 2.87154 -2.78178 0
M  V30 7052 H 643.98 3.67211 -2.11972 0
M  V30 7053 C 642.439 3.29947 -0.680942 0
M  V30 7054 O 642.969 4.01403 0.154527 0
M  V30 7055 N 641.175 2.8593 -0.518894 0
M  V30 7056 H 640.722 2.2795 -1.19986 0
M  V30 7057 H 640.68 3.12907 0.305985 0
M  V30 7058 N 644.452 1.42507 0.673017 0
M  V30 7059 C 645.677 1.4668 1.46627 0
M  V30 7060 C 646.102 0.080066 1.8793 0
M  V30 7061 O 645.46 -0.921879 1.56112 0
M  V30 7062 C 645.508 2.40091 2.69051 0
M  V30 7063 O 644.612 1.8735 3.67387 0
M  V30 7064 H 643.953 0.496908 0.44043 0
M  V30 7065 H 646.483 1.87215 0.825334 0
M  V30 7066 H 646.493 2.56731 3.17101 0
M  V30 7067 H 645.168 3.4084 2.3833 0
M  V30 7068 H 643.745 1.80274 3.26429 0
M  V30 7069 N 645.93 -0.909495 1.28709 0
M  V30 7070 C 647.179 -1.65365 1.15487 0
M  V30 7071 C 647.492 -1.93364 -0.294941 0
M  V30 7072 O 648.698 -2.65905 -0.548338 0
M  V30 7073 C 647.154 -2.97923 2.01916 0
M  V30 7074 C 646.762 -2.77556 3.51663 0
M  V30 7075 C 648.506 -3.75814 1.97393 0
M  V30 7076 C 646.413 -4.0578 4.30229 0
M  V30 7077 H 645.343 -0.620323 0.42862 0
M  V30 7078 H 647.994 -1.00894 1.53273 0
M  V30 7079 H 646.376 -3.63552 1.5699 0
M  V30 7080 H 647.55 -2.2058 4.04575 0
M  V30 7081 H 645.865 -2.13072 3.57756 0
M  V30 7082 H 648.462 -4.70866 2.53357 0
M  V30 7083 H 648.805 -4.05277 0.951643 0
M  V30 7084 H 649.338 -3.1701 2.40311 0
M  V30 7085 H 646.077 -3.81488 5.33055 0
M  V30 7086 H 645.597 -4.62351 3.82089 0
M  V30 7087 H 647.276 -4.74004 4.40374 0
M  V30 7088 N 647.408 -1.11026 -1.11852 0
M  V30 7089 C 648.34 -0.72249 -2.17515 0
M  V30 7090 C 649.353 0.243782 -1.60964 0
M  V30 7091 O 650.542 0.0273252 -1.78479 0
M  V30 7092 C 647.642 -0.0463979 -3.38868 0
M  V30 7093 C 646.815 -1.0384 -4.24895 0
M  V30 7094 C 645.874 -0.392659 -5.24733 0
M  V30 7095 O 644.9 -1.0453 -5.5952 0
M  V30 7096 N 646.102 0.846296 -5.74298 0
M  V30 7097 H 648.867 -1.63161 -2.51393 0
M  V30 7098 H 646.428 -0.999899 -1.27333 0
M  V30 7099 H 648.42 0.397215 -4.02746 0
M  V30 7100 H 646.99 0.765231 -3.03089 0
M  V30 7101 H 646.21 -1.6601 -3.57539 0
M  V30 7102 H 647.498 -1.70968 -4.79215 0
M  V30 7103 H 646.896 1.39578 -5.4821 0
M  V30 7104 H 645.453 1.23296 -6.40032 0
M  V30 7105 N 648.886 1.2938 -0.899927 0
M  V30 7106 C 649.816 2.30144 -0.39446 0
M  V30 7107 C 650.797 1.61611 0.530639 0
M  V30 7108 O 651.982 1.89119 0.441319 0
M  V30 7109 C 649.112 3.45229 0.37868 0
M  V30 7110 C 648.066 4.25564 -0.456012 0
M  V30 7111 C 647.392 5.32848 0.444637 0
M  V30 7112 C 648.692 4.93651 -1.70605 0
M  V30 7113 H 650.386 2.72673 -1.23653 0
M  V30 7114 H 647.932 1.31086 -0.596034 0
M  V30 7115 H 649.885 4.14797 0.743037 0
M  V30 7116 H 648.609 3.01545 1.25453 0
M  V30 7117 H 647.268 3.57704 -0.802704 0
M  V30 7118 H 646.916 4.85408 1.31863 0
M  V30 7119 H 646.616 5.87497 -0.110154 0
M  V30 7120 H 648.14 6.05268 0.805182 0
M  V30 7121 H 649.554 5.55655 -1.41141 0
M  V30 7122 H 647.951 5.58233 -2.20217 0
M  V30 7123 H 649.021 4.18926 -2.4419 0
M  V30 7124 N 650.364 0.662433 1.43002 0
M  V30 7125 C 651.611 0.179591 2.01702 0
M  V30 7126 C 651.939 -1.20964 1.52309 0
M  V30 7127 O 651.194 -1.82343 0.7106 0
M  V30 7128 C 651.493 0.149363 3.57088 0
M  V30 7129 C 651.159 1.48158 4.25864 0
M  V30 7130 C 649.821 1.84638 4.44367 0
M  V30 7131 C 652.173 2.35953 4.64732 0
M  V30 7132 C 649.501 3.08561 4.99006 0
M  V30 7133 C 651.853 3.59176 5.20745 0
M  V30 7134 C 650.517 3.95841 5.37463 0
M  V30 7135 H 649.787 0.0657172 0.73808 0
M  V30 7136 H 652.434 0.854968 1.71355 0
M  V30 7137 H 650.739 -0.609491 3.8703 0
M  V30 7138 H 652.436 -0.241241 4.00274 0
M  V30 7139 H 649.026 1.18777 4.11813 0
M  V30 7140 H 653.21 2.09058 4.50121 0
M  V30 7141 H 648.466 3.37005 5.10135 0
M  V30 7142 H 652.64 4.27417 5.49807 0
M  V30 7143 H 650.267 4.91942 5.79566 0
M  V30 7144 N 651.842 -1.52309 0.404946 0
M  V30 7145 C 653.09 -2.01368 -0.17186 0
M  V30 7146 C 653.411 -1.29261 -1.46002 0
M  V30 7147 O 652.681 -0.41729 -1.91404 0
M  V30 7148 H 651.261 -0.744034 -0.0664993 0
M  V30 7149 H 653.923 -1.87263 0.540228 0
M  V30 7150 H 653.019 -3.09888 -0.370957 0
M  V30 7151 N 653.32 -0.135238 -1.57019 0
M  V30 7152 C 654.731 0.387521 -1.82634 0
M  V30 7153 C 655.082 1.65528 -1.05332 0
M  V30 7154 O 654.207 2.14381 -0.294926 0
M  V30 7155 C 654.802 0.709852 -3.3128 0
M  V30 7156 C 653.361 1.17718 -3.57518 0
M  V30 7157 C 652.508 0.194183 -2.76619 0
M  V30 7158 H 655.459 -0.360126 -1.5456 0
M  V30 7159 H 655.48 1.5657 -3.46794 0
M  V30 7160 H 654.992 -0.213024 -3.87515 0
M  V30 7161 H 653.093 2.1164 -3.06658 0
M  V30 7162 H 653.206 1.11128 -4.66034 0
M  V30 7163 H 651.57 0.684478 -2.4533 0
M  V30 7164 H 652.353 -0.722076 -3.3562 0
M  V30 7165 N 654.798 1.5699 0.138552 0
M  V30 7166 C 656.046 1.83446 0.848053 0
M  V30 7167 C 656.367 0.71744 1.81322 0
M  V30 7168 O 655.637 -0.260228 1.94164 0
M  V30 7169 H 654.217 0.676792 0.316166 0
M  V30 7170 H 656.879 1.94462 0.130538 0
M  V30 7171 H 655.975 2.78677 1.40518 0
M  V30 7172 N 656.276 -0.40816 1.52223 0
M  V30 7173 C 657.525 -1.15212 1.65557 0
M  V30 7174 C 657.838 -1.9163 0.392096 0
M  V30 7175 O 659.044 -2.68458 0.405256 0
M  V30 7176 C 657.5 -2.09691 2.92502 0
M  V30 7177 C 657.108 -1.38785 4.25961 0
M  V30 7178 C 658.852 -2.8434 3.152 0
M  V30 7179 C 656.759 -2.31919 5.44029 0
M  V30 7180 H 655.689 -0.433776 0.616729 0
M  V30 7181 H 658.34 -0.4165 1.78711 0
M  V30 7182 H 656.722 -2.8681 2.7305 0
M  V30 7183 H 657.896 -0.670248 4.55899 0
M  V30 7184 H 656.211 -0.761741 4.09373 0
M  V30 7185 H 658.808 -3.54166 4.00587 0
M  V30 7186 H 659.151 -3.47344 2.29473 0
M  V30 7187 H 659.684 -2.14321 3.35129 0
M  V30 7188 H 656.423 -1.7356 6.32105 0
M  V30 7189 H 655.943 -3.0165 5.18428 0
M  V30 7190 H 657.622 -2.92424 5.77146 0
M  V30 7191 N 657.755 -1.42862 -0.66545 0
M  V30 7192 C 658.687 -1.43026 -1.79098 0
M  V30 7193 C 659.7 -0.32803 -1.59461 0
M  V30 7194 O 660.889 -0.591709 -1.68407 0
M  V30 7195 C 657.989 -1.21566 -3.16346 0
M  V30 7196 C 657.162 -2.44399 -3.62751 0
M  V30 7197 C 656.221 -2.18344 -4.78761 0
M  V30 7198 O 655.247 -2.91611 -4.88827 0
M  V30 7199 N 656.449 -1.1924 -5.68122 0
M  V30 7200 H 659.214 -2.40045 -1.79439 0
M  V30 7201 H 656.775 -1.37861 -0.848872 0
M  V30 7202 H 658.767 -1.02037 -3.91625 0
M  V30 7203 H 657.337 -0.330368 -3.10849 0
M  V30 7204 H 656.557 -2.79433 -2.78048 0
M  V30 7205 H 657.845 -3.26173 -3.90498 0
M  V30 7206 H 657.243 -0.586603 -5.6265 0
M  V30 7207 H 655.8 -1.05698 -6.43173 0
M  V30 7208 N 659.233 0.902656 -1.29189 0
M  V30 7209 C 660.644 1.46809 -1.15343 0
M  V30 7210 C 660.995 1.94568 0.252517 0
M  V30 7211 O 660.12 1.83454 1.14777 0
M  V30 7212 C 660.715 2.66829 -2.08776 0
M  V30 7213 C 659.274 3.19518 -1.98961 0
M  V30 7214 C 658.421 1.92212 -1.99874 0
M  V30 7215 H 661.372 0.714282 -1.41717 0
M  V30 7216 H 661.393 3.42465 -1.65826 0
M  V30 7217 H 660.905 2.32039 -3.11094 0
M  V30 7218 H 659.006 3.59008 -0.99721 0
M  V30 7219 H 659.119 3.84016 -2.86477 0
M  V30 7220 H 657.483 2.0979 -1.44431 0
M  V30 7221 H 658.266 1.59702 -3.03891 0
M  V30 7222 N 660.711 1.11618 1.11262 0
M  V30 7223 C 661.661 0.745274 2.15475 0
M  V30 7224 C 662.645 -0.251585 1.58921 0
M  V30 7225 O 663.837 -0.0584093 1.76904 0
M  V30 7226 C 660.966 0.192128 3.42762 0
M  V30 7227 C 660.052 1.21676 4.0627 0
M  V30 7228 N 660.443 2.41158 4.44608 0
M  V30 7229 C 658.741 1.06013 4.33217 0
M  V30 7230 C 659.442 3.0652 4.94389 0
M  V30 7231 N 658.418 2.33994 4.9066 0
M  V30 7232 H 662.22 1.65462 2.42898 0
M  V30 7233 H 659.734 0.995695 1.28295 0
M  V30 7234 H 661.731 -0.0917339 4.16799 0
M  V30 7235 H 660.391 -0.711778 3.16802 0
M  V30 7236 H 661.402 2.786 4.3658 0
M  V30 7237 H 658.079 0.212809 4.16957 0
M  V30 7238 H 659.469 4.08225 5.33669 0
M  V30 7239 N 662.189 -1.289 0.906776 0
M  V30 7240 C 663.139 -2.25122 0.361109 0
M  V30 7241 C 664.123 -1.52169 -0.52283 0
M  V30 7242 O 665.315 -1.73223 -0.363691 0
M  V30 7243 C 662.444 -3.40915 -0.403982 0
M  V30 7244 C 661.53 -4.21198 0.495279 0
M  V30 7245 N 661.921 -4.79636 1.60572 0
M  V30 7246 C 660.219 -4.45027 0.294372 0
M  V30 7247 C 660.92 -5.39977 2.16332 0
M  V30 7248 N 659.896 -5.23753 1.45546 0
M  V30 7249 H 663.698 -2.67869 1.20927 0
M  V30 7250 H 661.212 -1.43592 0.758632 0
M  V30 7251 H 663.209 -4.08922 -0.811695 0
M  V30 7252 H 661.869 -2.99703 -1.24932 0
M  V30 7253 H 662.88 -4.78209 1.98838 0
M  V30 7254 H 659.557 -4.14348 -0.512021 0
M  V30 7255 H 660.947 -5.96266 3.09704 0
M  V30 7256 N 663.667 -0.670007 -1.42649 0
M  V30 7257 C 664.907 -0.194106 -2.03476 0
M  V30 7258 C 665.271 1.1755 -1.51809 0
M  V30 7259 O 666.472 1.74579 -2.04391 0
M  V30 7260 C 664.743 -0.221828 -3.56711 0
M  V30 7261 S 666.302 0.183772 -4.38415 0
M  V30 7262 H 663.12 -0.0802478 -0.706457 0
M  V30 7263 H 665.722 -0.882092 -1.74469 0
M  V30 7264 H 664.426 -1.22107 -3.91814 0
M  V30 7265 H 663.957 0.486149 -3.90385 0
M  V30 7266 H 665.972 1.41839 -4.75496 0
M  V30 7267 N 665.145 1.52092 -0.413018 0
M  V30 7268 C 666.422 1.94356 0.22024 0
M  V30 7269 C 666.802 1.35017 1.62277 0
M  V30 7270 O 666.15 0.527511 2.22328 0
M  V30 7271 C 666.36 3.48289 0.222638 0
M  V30 7272 C 667.708 4.22313 0.440098 0
M  V30 7273 O 668.732 3.54919 0.301826 0
M  V30 7274 O 667.591 5.41829 0.712984 0
M  V30 7275 H 664.685 0.814536 0.14304 0
M  V30 7276 H 667.231 1.63083 -0.469242 0
M  V30 7277 H 666.003 3.83872 -0.758836 0
M  V30 7278 H 665.626 3.85934 0.956057 0
M  V30 7279 N 666.623 0.143563 1.56945 0
M  V30 7280 C 667.553 -0.7936 2.196 0
M  V30 7281 C 668.534 -1.25955 1.14321 0
M  V30 7282 O 669.719 -1.31773 1.42651 0
M  V30 7283 C 666.849 -2.03424 2.81489 0
M  V30 7284 C 665.803 -1.70519 3.92565 0
M  V30 7285 C 665.129 -3.01817 4.41373 0
M  V30 7286 C 666.429 -0.95449 5.13504 0
M  V30 7287 H 668.123 -0.271423 2.98167 0
M  V30 7288 H 665.669 -0.12911 1.4342 0
M  V30 7289 H 667.622 -2.69463 3.23987 0
M  V30 7290 H 666.346 -2.58008 2.00248 0
M  V30 7291 H 665.005 -1.06859 3.5068 0
M  V30 7292 H 664.653 -3.54386 3.56959 0
M  V30 7293 H 664.353 -2.80565 5.16292 0
M  V30 7294 H 665.877 -3.68934 4.86539 0
M  V30 7295 H 667.291 -1.5169 5.52868 0
M  V30 7296 H 665.688 -0.842035 5.94163 0
M  V30 7297 H 666.758 0.0544033 4.84869 0
M  V30 7298 N 668.101 -1.57061 -0.130224 0
M  V30 7299 C 669.329 -1.88432 -0.854456 0
M  V30 7300 C 669.744 -0.733608 -1.73964 0
M  V30 7301 O 669.101 0.296029 -1.80083 0
M  V30 7302 C 669.152 -3.1918 -1.69724 0
M  V30 7303 O 668.873 -4.2982 -0.847705 0
M  V30 7304 C 670.374 -3.6418 -2.5276 0
M  V30 7305 H 667.594 -0.624193 -0.246221 0
M  V30 7306 H 670.138 -2.04159 -0.11798 0
M  V30 7307 H 668.293 -3.05156 -2.3866 0
M  V30 7308 H 668.707 -5.04689 -1.42792 0
M  V30 7309 H 670.181 -4.58457 -3.07443 0
M  V30 7310 H 670.658 -2.90285 -3.29592 0
M  V30 7311 H 671.264 -3.80954 -1.89087 0
M  V30 7312 N 669.579 0.400081 -1.52437 0
M  V30 7313 C 670.527 1.50851 -1.7705 0
M  V30 7314 C 671.521 1.56928 -0.637969 0
M  V30 7315 O 672.727 1.60226 -0.820212 0
M  V30 7316 H 669.102 0.50186 -0.560036 0
M  V30 7317 H 671.073 1.27281 -2.69893 0
M  V30 7318 C 669.822 2.88117 -1.94638 0
M  V30 7319 H 669.145 2.84187 -2.81208 0
M  V30 7320 H 670.585 3.64942 -2.15855 0
M  V30 7321 C 669.044 3.29206 -0.715899 0
M  V30 7322 O 669.574 4.01544 0.111944 0
M  V30 7323 N 667.78 2.85363 -0.549191 0
M  V30 7324 H 667.327 2.26664 -1.22397 0
M  V30 7325 H 667.285 3.13214 0.27278 0
M  V30 7326 N 671.057 1.43213 0.657864 0
M  V30 7327 C 671.99 1.42456 1.78273 0
M  V30 7328 C 672.968 0.286598 1.60054 0
M  V30 7329 O 674.152 0.479467 1.823 0
M  V30 7330 C 671.279 1.23169 3.15511 0
M  V30 7331 C 670.325 2.40181 3.52442 0
M  V30 7332 S 671.158 4.02729 3.52944 0
M  V30 7333 C 672.314 3.85816 4.92846 0
M  V30 7334 H 672.547 2.37642 1.78644 0
M  V30 7335 H 670.08 1.30188 0.830084 0
M  V30 7336 H 672.038 1.12728 3.94719 0
M  V30 7337 H 670.699 0.295398 3.12708 0
M  V30 7338 H 669.892 2.22478 4.52239 0
M  V30 7339 H 669.494 2.47224 2.80636 0
M  V30 7340 H 671.786 3.47853 5.81381 0
M  V30 7341 H 672.729 4.85348 5.15599 0
M  V30 7342 H 673.137 3.18361 4.66162 0
M  V30 7343 N 672.536 -0.895792 1.29666 0
M  V30 7344 C 673.813 -1.62723 1.08538 0
M  V30 7345 C 674.193 -2.07848 -0.369119 0
M  V30 7346 O 673.541 -1.8372 -1.35864 0
M  V30 7347 C 673.751 -2.80505 2.07648 0
M  V30 7348 C 675.099 -3.51098 2.3878 0
M  V30 7349 O 676.123 -2.90679 2.05874 0
M  V30 7350 O 674.982 -4.60028 2.9502 0
M  V30 7351 H 672.076 -0.714692 0.416106 0
M  V30 7352 H 674.622 -0.943517 1.41053 0
M  V30 7353 H 673.394 -2.44386 3.05599 0
M  V30 7354 H 673.017 -3.5658 1.75887 0
M  V30 7355 N 674.014 -1.12206 -1.10668 0
M  V30 7356 C 675.262 -0.874144 -1.82217 0
M  V30 7357 C 675.583 0.601736 -1.85484 0
M  V30 7358 O 674.853 1.43725 -1.33116 0
M  V30 7359 H 673.433 -0.320404 -0.674797 0
M  V30 7360 H 676.095 -1.41606 -1.33917 0
M  V30 7361 H 675.191 -1.25349 -2.85822 0
M  V30 7362 N 675.492 1.28418 -0.913599 0
M  V30 7363 C 676.738 1.9527 -0.547484 0
M  V30 7364 C 677.071 1.71745 0.906486 0
M  V30 7365 O 676.346 1.03834 1.64465 0
M  V30 7366 C 676.629 3.49748 -0.857205 0
M  V30 7367 C 676.482 3.82675 -2.3639 0
M  V30 7368 C 677.801 4.3868 -0.353258 0
M  V30 7369 H 674.92 0.709236 -0.200381 0
M  V30 7370 H 677.562 1.51789 -1.14281 0
M  V30 7371 H 675.712 3.86915 -0.350548 0
M  V30 7372 H 677.384 3.55378 -2.94116 0
M  V30 7373 H 675.627 3.29724 -2.81894 0
M  V30 7374 H 676.298 4.90547 -2.53115 0
M  V30 7375 H 678.774 4.08584 -0.787288 0
M  V30 7376 H 677.65 5.45621 -0.599049 0
M  V30 7377 H 677.911 4.35753 0.746413 0
M  V30 7378 N 676.97 0.677563 1.42291 0
M  V30 7379 C 678.216 0.201272 2.01799 0
M  V30 7380 C 678.549 -1.19004 1.53465 0
M  V30 7381 O 677.824 -1.79953 0.738039 0
M  V30 7382 C 678.107 0.238968 3.59306 0
M  V30 7383 C 677.96 1.66594 4.17812 0
M  V30 7384 C 679.279 -0.411287 4.38174 0
M  V30 7385 H 676.398 0.0746114 0.733214 0
M  V30 7386 H 679.04 0.862872 1.69276 0
M  V30 7387 H 677.19 -0.324368 3.87144 0
M  V30 7388 H 678.862 2.28173 4.00917 0
M  V30 7389 H 677.105 2.20576 3.73536 0
M  V30 7390 H 677.776 1.64398 5.26951 0
M  V30 7391 H 680.252 0.0682804 4.16044 0
M  V30 7392 H 679.128 -0.354286 5.47755 0
M  V30 7393 H 679.389 -1.4893 4.1626 0
M  V30 7394 N 678.448 -1.51871 0.421078 0
M  V30 7395 C 679.676 -2.06356 -0.14994 0
M  V30 7396 C 680.091 -1.29006 -1.37851 0
M  V30 7397 O 679.448 -0.345139 -1.79207 0
M  V30 7398 C 679.499 -3.58185 -0.488454 0
M  V30 7399 O 679.22 -4.32611 0.691341 0
M  V30 7400 C 680.721 -4.29129 -1.11191 0
M  V30 7401 H 677.941 -0.67083 -0.0151186 0
M  V30 7402 H 680.485 -1.95638 0.595476 0
M  V30 7403 H 678.64 -3.68871 -1.18376 0
M  V30 7404 H 679.054 -5.22927 0.405906 0
M  V30 7405 H 680.528 -5.36501 -1.29889 0
M  V30 7406 H 681.005 -3.86371 -2.0884 0
M  V30 7407 H 681.611 -4.22843 -0.456458 0
M  V30 7408 N 679.926 -0.151884 -1.56866 0
M  V30 7409 C 681.172 0.498742 -1.96572 0
M  V30 7410 C 681.505 1.64194 -1.03702 0
M  V30 7411 O 680.78 1.94334 -0.0803432 0
M  V30 7412 C 681.063 1.00027 -3.45929 0
M  V30 7413 C 680.916 -0.141767 -4.49577 0
M  V30 7414 C 682.235 1.88044 -3.97904 0
M  V30 7415 H 679.354 0.17982 -0.714726 0
M  V30 7416 H 681.996 -0.234097 -1.88552 0
M  V30 7417 H 680.146 1.62476 -3.52894 0
M  V30 7418 H 681.818 -0.778269 -4.54687 0
M  V30 7419 H 680.061 -0.80019 -4.26356 0
M  V30 7420 H 680.732 0.250947 -5.51429 0
M  V30 7421 H 683.208 1.35416 -3.93449 0
M  V30 7422 H 682.084 2.20043 -5.02864 0
M  V30 7423 H 682.345 2.81916 -3.40552 0
M  V30 7424 N 681.404 1.57128 0.121893 0
M  V30 7425 C 682.632 1.88883 0.844451 0
M  V30 7426 C 683.047 0.742824 1.73573 0
M  V30 7427 O 682.404 -0.286475 1.80238 0
M  V30 7428 C 682.455 3.20076 1.68029 0
M  V30 7429 O 682.176 4.30264 0.824898 0
M  V30 7430 C 683.677 3.65515 2.50826 0
M  V30 7431 H 680.897 0.62549 0.242907 0
M  V30 7432 H 683.441 2.04219 0.107151 0
M  V30 7433 H 681.596 3.06418 2.37038 0
M  V30 7434 H 682.01 5.05439 1.40113 0
M  V30 7435 H 683.484 4.60081 3.05008 0
M  V30 7436 H 683.961 2.92029 3.28048 0
M  V30 7437 H 684.567 3.81952 1.87064 0
M  V30 7438 N 682.882 -0.391992 1.52647 0
M  V30 7439 C 684.293 -0.970064 1.5952 0
M  V30 7440 C 684.644 -1.91059 0.446207 0
M  V30 7441 O 683.769 -2.12062 -0.431125 0
M  V30 7442 C 684.364 -1.76614 2.89125 0
M  V30 7443 C 682.923 -2.29396 2.9842 0
M  V30 7444 C 682.07 -1.09864 2.54608 0
M  V30 7445 H 685.021 -0.171638 1.57769 0
M  V30 7446 H 685.042 -2.62511 2.75442 0
M  V30 7447 H 684.554 -1.08135 3.72731 0
M  V30 7448 H 682.655 -3.01196 2.19344 0
M  V30 7449 H 682.768 -2.59088 4.03002 0
M  V30 7450 H 681.132 -1.45777 2.08857 0
M  V30 7451 H 681.915 -0.429249 3.40606 0
M  V30 7452 N 684.36 -1.4356 -0.65026 0
M  V30 7453 C 685.776 -1.27025 -0.966269 0
M  V30 7454 C 685.976 -0.192117 -2.00582 0
M  V30 7455 O 685.032 0.428459 -2.48838 0
M  V30 7456 C 686.345 -2.63556 -1.44772 0
M  V30 7457 C 687.893 -2.71111 -1.56421 0
M  V30 7458 C 688.368 -4.08067 -2.07956 0
M  V30 7459 N 689.859 -4.10146 -2.15254 0
M  V30 7460 C 690.594 -5.12952 -2.56258 0
M  V30 7461 N 690.09 -6.26129 -2.96537 0
M  V30 7462 N 691.883 -5.00306 -2.56224 0
M  V30 7463 H 684.034 -2.12367 0.0375758 0
M  V30 7464 H 686.297 -0.946894 -0.0457782 0
M  V30 7465 H 686.003 -3.43429 -0.758271 0
M  V30 7466 H 685.877 -2.89152 -2.42221 0
M  V30 7467 H 688.264 -1.91569 -2.24467 0
M  V30 7468 H 688.345 -2.49277 -0.573967 0
M  V30 7469 H 687.989 -4.88077 -1.40511 0
M  V30 7470 H 687.919 -4.27266 -3.07817 0
M  V30 7471 H 690.41 -3.28453 -1.86887 0
M  V30 7472 H 690.723 -7.00403 -3.26582 0
M  V30 7473 H 689.068 -6.29597 -2.94334 0
M  V30 7474 H 692.259 -4.10952 -2.24135 0
M  V30 7475 H 692.432 -5.80553 -2.87857 0
M  V30 7476 N 685.838 0.888903 -1.30139 0
M  V30 7477 C 687.063 1.67884 -1.21777 0
M  V30 7478 C 687.488 1.86848 0.216689 0
M  V30 7479 O 686.846 1.39659 1.15608 0
M  V30 7480 C 686.894 3.03483 -1.94757 0
M  V30 7481 O 685.998 3.92294 -1.27198 0
M  V30 7482 H 685.339 0.513144 -0.421402 0
M  V30 7483 H 687.869 1.10968 -1.71893 0
M  V30 7484 H 687.879 3.53553 -2.03627 0
M  V30 7485 H 686.554 2.89 -2.99085 0
M  V30 7486 H 685.131 3.50732 -1.26655 0
M  V30 7487 N 687.317 1.12792 1.10072 0
M  V30 7488 C 688.25 0.742921 2.15768 0
M  V30 7489 C 689.228 -0.267714 1.60381 0
M  V30 7490 O 690.412 -0.160782 1.87813 0
M  V30 7491 C 687.539 0.100244 3.38552 0
M  V30 7492 C 686.585 1.07831 4.12644 0
M  V30 7493 S 687.418 2.60765 4.6772 0
M  V30 7494 C 688.574 1.97838 5.9381 0
M  V30 7495 H 688.807 1.63822 2.48092 0
M  V30 7496 H 686.34 0.947385 1.21918 0
M  V30 7497 H 688.298 -0.264175 4.09649 0
M  V30 7498 H 686.959 -0.772223 3.04459 0
M  V30 7499 H 686.152 0.576325 5.00694 0
M  V30 7500 H 685.754 1.38586 3.47376 0
M  V30 7501 H 688.046 1.32341 6.64449 0
M  V30 7502 H 688.989 2.83943 6.48677 0
M  V30 7503 H 689.397 1.43267 5.46017 0
M  V30 7504 N 688.795 -1.27931 0.920396 0
M  V30 7505 C 690.072 -1.89728 0.475687 0
M  V30 7506 C 690.452 -1.8337 -1.04588 0
M  V30 7507 O 689.8 -1.27404 -1.89685 0
M  V30 7508 C 690.01 -3.33959 1.01354 0
M  V30 7509 C 691.358 -4.10907 1.06963 0
M  V30 7510 O 692.382 -3.42945 0.962646 0
M  V30 7511 O 691.241 -5.32399 1.23343 0
M  V30 7512 H 688.335 -0.81294 0.151845 0
M  V30 7513 H 690.881 -1.36252 1.01161 0
M  V30 7514 H 689.653 -3.32843 2.05746 0
M  V30 7515 H 689.276 -3.94944 0.458829 0
M  V30 7516 N 690.273 -0.685099 -1.4193 0
M  V30 7517 C 691.236 -0.0222632 -2.29189 0
M  V30 7518 C 692.236 0.7186 -1.4385 0
M  V30 7519 O 693.426 0.555058 -1.6512 0
M  V30 7520 C 690.558 0.979013 -3.2654 0
M  V30 7521 H 691.751 -0.790424 -2.89296 0
M  V30 7522 H 689.304 -0.448012 -1.49742 0
M  V30 7523 H 690.039 1.77531 -2.71392 0
M  V30 7524 H 689.824 0.451037 -3.89497 0
M  V30 7525 H 691.314 1.44091 -3.91954 0
M  V30 7526 N 691.751 1.51645 -0.429126 0
M  V30 7527 C 692.661 2.31288 0.392809 0
M  V30 7528 C 693.677 1.39852 1.03525 0
M  V30 7529 O 694.853 1.72926 1.03241 0
M  V30 7530 C 691.918 3.13347 1.48372 0
M  V30 7531 C 690.979 4.20551 0.862268 0
M  V30 7532 C 690.212 4.98688 1.9012 0
M  V30 7533 O 690.435 4.77359 3.12225 0
M  V30 7534 O 689.369 5.83005 1.4963 0
M  V30 7535 H 693.195 3.02609 -0.257138 0
M  V30 7536 H 690.78 1.48163 -0.191851 0
M  V30 7537 H 692.662 3.64387 2.1166 0
M  V30 7538 H 691.337 2.44799 2.1179 0
M  V30 7539 H 690.244 3.73609 0.191568 0
M  V30 7540 H 691.577 4.91449 0.271704 0
M  V30 7541 N 693.229 0.160201 1.56784 0
M  V30 7542 C 694.457 -0.494165 2.00912 0
M  V30 7543 C 694.872 -1.57548 1.04038 0
M  V30 7544 O 694.229 -1.82457 0.0394581 0
M  V30 7545 C 694.28 -1.08271 3.44905 0
M  V30 7546 O 694.001 -0.0445704 4.38077 0
M  V30 7547 C 695.502 -1.8164 4.04378 0
M  V30 7548 H 692.722 -0.127498 0.658776 0
M  V30 7549 H 695.266 0.258665 2.02858 0
M  V30 7550 H 693.421 -1.78609 3.4377 0
M  V30 7551 H 693.835 -0.477544 5.22322 0
M  V30 7552 H 695.309 -2.18094 5.07089 0
M  V30 7553 H 695.786 -2.70727 3.45838 0
M  V30 7554 H 696.392 -1.15969 4.09184 0
M  V30 7555 N 694.707 -1.5719 -0.113559 0
M  V30 7556 C 695.937 -1.89053 -0.833212 0
M  V30 7557 C 696.345 -0.750139 -1.73694 0
M  V30 7558 O 695.688 0.287808 -1.81431 0
M  V30 7559 C 695.75 -3.15986 -1.71443 0
M  V30 7560 C 695.414 -4.46271 -0.984449 0
M  V30 7561 C 696.411 -5.18897 -0.322741 0
M  V30 7562 C 694.096 -4.92963 -0.964011 0
M  V30 7563 C 696.09 -6.3644 0.349646 0
M  V30 7564 C 693.777 -6.10422 -0.287828 0
M  V30 7565 C 694.775 -6.82009 0.36784 0
M  V30 7566 O 694.463 -7.97233 1.03322 0
M  V30 7567 H 694.195 -0.630225 -0.244526 0
M  V30 7568 H 696.749 -2.05152 -0.100847 0
M  V30 7569 H 694.979 -2.95984 -2.48858 0
M  V30 7570 H 696.668 -3.33826 -2.309 0
M  V30 7571 H 697.434 -4.83875 -0.330114 0
M  V30 7572 H 693.313 -4.37143 -1.46379 0
M  V30 7573 H 696.857 -6.92254 0.861996 0
M  V30 7574 H 692.754 -6.449 -0.278237 0
M  V30 7575 H 693.522 -8.13105 0.938247 0
M  V30 7576 N 696.185 0.383891 -1.52853 0
M  V30 7577 C 697.431 1.13009 -1.68395 0
M  V30 7578 C 697.764 1.89488 -0.425195 0
M  V30 7579 O 697.039 1.8574 0.577136 0
M  V30 7580 C 697.322 2.10419 -2.92226 0
M  V30 7581 C 697.175 1.3767 -4.28214 0
M  V30 7582 C 698.494 3.10781 -3.11614 0
M  V30 7583 H 695.613 0.409463 -0.612788 0
M  V30 7584 H 698.255 0.412895 -1.85459 0
M  V30 7585 H 696.405 2.71579 -2.77808 0
M  V30 7586 H 698.077 0.794352 -4.54409 0
M  V30 7587 H 696.32 0.678533 -4.2846 0
M  V30 7588 H 696.991 2.08874 -5.10956 0
M  V30 7589 H 699.467 2.59715 -3.25096 0
M  V30 7590 H 698.343 3.76179 -3.99725 0
M  V30 7591 H 698.604 3.79933 -2.2606 0
M  V30 7592 N 697.663 1.43903 0.642637 0
M  V30 7593 C 698.573 1.52349 1.78401 0
M  V30 7594 C 699.589 0.409869 1.69104 0
M  V30 7595 O 700.765 0.665548 1.90085 0
M  V30 7596 C 697.83 1.45408 3.14734 0
M  V30 7597 C 696.891 2.67528 3.35749 0
M  V30 7598 C 696.124 2.60909 4.65577 0
M  V30 7599 O 696.347 1.6627 5.45628 0
M  V30 7600 O 695.281 3.5158 4.88544 0
M  V30 7601 H 699.107 2.48752 1.7423 0
M  V30 7602 H 696.692 1.26021 0.802439 0
M  V30 7603 H 698.574 1.44019 3.96026 0
M  V30 7604 H 697.249 0.521437 3.19473 0
M  V30 7605 H 696.156 2.74487 2.5418 0
M  V30 7606 H 697.489 3.598 3.35864 0
M  V30 7607 N 699.141 -0.881989 1.30609 0
M  V30 7608 C 700.389 -1.63082 1.19368 0
M  V30 7609 C 700.71 -1.93376 -0.251147 0
M  V30 7610 O 699.98 -1.5723 -1.16857 0
M  V30 7611 H 698.56 -0.604542 0.438791 0
M  V30 7612 H 701.222 -1.05658 1.63776 0
M  V30 7613 H 700.318 -2.57966 1.7567 0
M  V30 7614 N 700.619 -1.13374 -1.09472 0
M  V30 7615 C 701.551 -0.768466 -2.15933 0
M  V30 7616 C 702.564 0.209585 -1.61445 0
M  V30 7617 O 703.753 -0.010539 -1.78497 0
M  V30 7618 C 700.853 -0.118266 -3.38694 0
M  V30 7619 C 700.026 -1.12829 -4.22597 0
M  V30 7620 C 699.085 -0.503875 -5.23782 0
M  V30 7621 O 698.111 -1.16374 -5.57177 0
M  V30 7622 N 699.313 0.724288 -5.75964 0
M  V30 7623 H 702.078 -1.68457 -2.47876 0
M  V30 7624 H 699.639 -1.02668 -1.25183 0
M  V30 7625 H 701.631 0.311698 -4.03498 0
M  V30 7626 H 700.201 0.700769 -3.04644 0
M  V30 7627 H 699.421 -1.73556 -3.53938 0
M  V30 7628 H 700.709 -1.81095 -4.75481 0
M  V30 7629 H 700.107 1.27918 -5.51048 0
M  V30 7630 H 698.664 1.09692 -6.42504 0
M  V30 7631 N 702.098 1.27442 -0.927168 0
M  V30 7632 C 703.514 1.46754 -0.627329 0
M  V30 7633 C 703.714 1.83902 0.823549 0
M  V30 7634 O 702.77 1.95215 1.60148 0
M  V30 7635 C 704.083 2.56045 -1.57674 0
M  V30 7636 C 705.631 2.69906 -1.58491 0
M  V30 7637 C 706.106 3.82355 -2.52128 0
M  V30 7638 N 707.597 3.89728 -2.50332 0
M  V30 7639 C 708.332 4.76155 -3.19475 0
M  V30 7640 N 707.828 5.67073 -3.97995 0
M  V30 7641 N 709.621 4.6988 -3.08496 0
M  V30 7642 H 701.772 1.01613 -1.86517 0
M  V30 7643 H 704.035 0.507443 -0.800753 0
M  V30 7644 H 703.741 2.35542 -2.61176 0
M  V30 7645 H 703.615 3.53423 -1.31804 0
M  V30 7646 H 706.002 2.89792 -0.557208 0
M  V30 7647 H 706.083 1.73018 -1.8841 0
M  V30 7648 H 705.727 3.63224 -3.55008 0
M  V30 7649 H 705.657 4.7867 -2.19505 0
M  V30 7650 H 708.148 3.24717 -1.93306 0
M  V30 7651 H 708.461 6.2988 -4.4774 0
M  V30 7652 H 706.806 5.6687 -4.02098 0
M  V30 7653 H 709.997 3.97848 -2.46646 0
M  V30 7654 H 710.17 5.37017 -3.62652 0
M  V30 7655 N 703.576 0.692616 1.41565 0
M  V30 7656 C 704.825 0.219452 2.00503 0
M  V30 7657 C 705.138 -1.18683 1.55479 0
M  V30 7658 O 706.344 -1.75731 2.06956 0
M  V30 7659 C 704.8 0.341451 3.58277 0
M  V30 7660 C 704.408 1.75291 4.12283 0
M  V30 7661 C 706.152 -0.0720899 4.24439 0
M  V30 7662 C 704.059 1.82673 5.62481 0
M  V30 7663 H 702.989 0.0782874 0.749925 0
M  V30 7664 H 705.64 0.860386 1.62079 0
M  V30 7665 H 704.022 -0.367683 3.94289 0
M  V30 7666 H 705.196 2.49057 3.87695 0
M  V30 7667 H 703.511 2.11587 3.58636 0
M  V30 7668 H 706.108 -0.0373385 5.34687 0
M  V30 7669 H 706.451 -1.11034 4.0122 0
M  V30 7670 H 706.984 0.586663 3.9345 0
M  V30 7671 H 703.723 2.84539 5.90523 0
M  V30 7672 H 703.243 1.13288 5.89004 0
M  V30 7673 H 704.922 1.58827 6.27203 0
M  V30 7674 N 705.054 -1.51416 0.437162 0
M  V30 7675 C 706.279 -2.0699 -0.130424 0
M  V30 7676 C 706.704 -1.30249 -1.35709 0
M  V30 7677 O 706.062 -0.340388 -1.78076 0
M  V30 7678 C 706.11 -3.5801 -0.43142 0
M  V30 7679 O 705.214 -3.8345 -1.5179 0
M  V30 7680 H 704.555 -0.663997 -0.00194339 0
M  V30 7681 H 707.085 -1.95029 0.618445 0
M  V30 7682 H 707.095 -4.02261 -0.681926 0
M  V30 7683 H 705.77 -4.13291 0.465137 0
M  V30 7684 H 704.347 -3.51062 -1.25737 0
M  V30 7685 N 706.532 -0.168513 -1.56696 0
M  V30 7686 C 707.442 0.775435 -2.21414 0
M  V30 7687 C 708.458 1.25529 -1.20492 0
M  V30 7688 O 709.634 1.30801 -1.53144 0
M  V30 7689 C 706.699 1.9886 -2.83999 0
M  V30 7690 C 705.76 1.5559 -4.00113 0
M  V30 7691 C 704.993 2.71124 -4.59704 0
M  V30 7692 O 705.216 3.87917 -4.18182 0
M  V30 7693 O 704.15 2.4536 -5.4962 0
M  V30 7694 H 707.976 0.254416 -3.02632 0
M  V30 7695 H 705.561 0.0595507 -1.49281 0
M  V30 7696 H 707.443 2.69816 -3.23693 0
M  V30 7697 H 706.118 2.49874 -2.05779 0
M  V30 7698 H 705.025 0.815924 -3.65094 0
M  V30 7699 H 706.358 1.09271 -4.79917 0
M  V30 7700 N 708.01 1.57248 0.105221 0
M  V30 7701 C 709.238 1.89768 0.82437 0
M  V30 7702 C 709.653 0.761192 1.72775 0
M  V30 7703 O 709.01 -0.267342 1.80531 0
M  V30 7704 C 709.061 3.2184 1.64625 0
M  V30 7705 O 708.782 4.31115 0.779217 0
M  V30 7706 C 710.283 3.68155 2.46935 0
M  V30 7707 H 707.503 0.628031 0.236259 0
M  V30 7708 H 710.047 2.04321 0.085485 0
M  V30 7709 H 708.202 3.08915 2.33775 0
M  V30 7710 H 708.616 5.06897 1.34745 0
M  V30 7711 H 710.09 4.6329 3.00111 0
M  V30 7712 H 710.567 2.95492 3.24932 0
M  V30 7713 H 711.173 3.83914 1.83002 0
M  V30 7714 N 709.488 -0.375779 1.53054 0
M  V30 7715 C 710.716 -1.14036 1.72637 0
M  V30 7716 C 711.131 -1.83342 0.450687 0
M  V30 7717 O 710.488 -1.7318 -0.575749 0
M  V30 7718 C 710.539 -2.17841 2.88492 0
M  V30 7719 O 710.26 -1.51358 4.11123 0
M  V30 7720 C 711.761 -3.06924 3.19863 0
M  V30 7721 H 708.981 -0.341386 0.577665 0
M  V30 7722 H 711.525 -0.437809 1.99759 0
M  V30 7723 H 709.68 -2.8371 2.63794 0
M  V30 7724 H 710.094 -2.20439 4.75928 0
M  V30 7725 H 711.568 -3.75763 4.04359 0
M  V30 7726 H 712.045 -3.71169 2.34798 0
M  V30 7727 H 712.651 -2.46684 3.46449 0
M  V30 7728 N 710.966 -1.44241 -0.634997 0
M  V30 7729 C 711.899 -1.45274 -1.75985 0
M  V30 7730 C 712.877 -0.312025 -1.59578 0
M  V30 7731 O 714.061 -0.508409 -1.81514 0
M  V30 7732 C 711.188 -1.28173 -3.13511 0
M  V30 7733 C 710.234 -2.45757 -3.48576 0
M  V30 7734 S 711.067 -4.08293 -3.46492 0
M  V30 7735 C 712.223 -3.93608 -4.86645 0
M  V30 7736 H 712.456 -2.40454 -1.74841 0
M  V30 7737 H 709.989 -1.31492 -0.809268 0
M  V30 7738 H 711.947 -1.18993 -3.92875 0
M  V30 7739 H 710.608 -0.34511 -3.12198 0
M  V30 7740 H 709.801 -2.29644 -4.48642 0
M  V30 7741 H 709.403 -2.51657 -2.76667 0
M  V30 7742 H 711.695 -3.57059 -5.75774 0
M  V30 7743 H 712.638 -4.9349 -5.07813 0
M  V30 7744 H 713.046 -3.25737 -4.61038 0
M  V30 7745 N 712.444 0.87505 -1.31075 0
M  V30 7746 C 713.374 1.99775 -1.20881 0
M  V30 7747 C 714.355 1.69822 -0.0971612 0
M  V30 7748 O 715.54 1.92158 -0.280895 0
M  V30 7749 C 712.67 3.35163 -0.910118 0
M  V30 7750 C 711.624 3.79406 -1.98078 0
M  V30 7751 C 710.95 5.12197 -1.53488 0
M  V30 7752 C 712.25 3.97061 -3.39323 0
M  V30 7753 H 713.944 2.08562 -2.14808 0
M  V30 7754 H 711.49 1.00207 -1.03415 0
M  V30 7755 H 713.443 4.13237 -0.825423 0
M  V30 7756 H 712.167 3.26536 0.064822 0
M  V30 7757 H 710.826 3.03568 -2.05528 0
M  V30 7758 H 710.474 5.00007 -0.547941 0
M  V30 7759 H 710.174 5.4277 -2.2511 0
M  V30 7760 H 711.698 5.92785 -1.46417 0
M  V30 7761 H 713.112 4.65545 -3.34576 0
M  V30 7762 H 711.509 4.39025 -4.09118 0
M  V30 7763 H 712.579 3.00601 -3.80483 0
M  V30 7764 N 713.922 1.13953 1.08869 0
M  V30 7765 C 714.854 0.779906 2.15523 0
M  V30 7766 C 715.867 -0.20102 1.61554 0
M  V30 7767 O 717.056 0.0200049 1.78489 0
M  V30 7768 C 714.156 0.136226 3.38626 0
M  V30 7769 C 713.329 1.15069 4.21993 0
M  V30 7770 C 712.388 0.531645 5.23507 0
M  V30 7771 O 711.414 1.19327 5.56552 0
M  V30 7772 N 712.616 -0.693734 5.7634 0
M  V30 7773 H 715.381 1.69769 2.46979 0
M  V30 7774 H 712.942 1.03331 1.24637 0
M  V30 7775 H 714.934 -0.290295 4.03658 0
M  V30 7776 H 713.504 -0.684603 3.05011 0
M  V30 7777 H 712.724 1.75431 3.53012 0
M  V30 7778 H 714.012 1.83614 4.74514 0
M  V30 7779 H 713.41 -1.24994 5.51718 0
M  V30 7780 H 711.967 -1.06283 6.43076 0
M  V30 7781 N 715.4 -1.26948 0.933913 0
M  V30 7782 C 716.625 -1.98724 0.593589 0
M  V30 7783 C 717.05 -1.6915 -0.822801 0
M  V30 7784 O 716.408 -0.93533 -1.5531 0
M  V30 7785 C 716.456 -3.50834 0.833542 0
M  V30 7786 O 715.56 -4.12284 -0.0978788 0
M  V30 7787 H 714.901 -0.623683 0.227849 0
M  V30 7788 H 717.431 -1.61599 1.25486 0
M  V30 7789 H 717.441 -4.01018 0.75156 0
M  V30 7790 H 716.116 -3.71691 1.86597 0
M  V30 7791 H 714.693 -3.72884 0.0345443 0
M  V30 7792 N 716.879 -0.700114 -1.41195 0
M  V30 7793 C 718.127 -0.232546 -2.00758 0
M  V30 7794 C 718.448 1.1734 -1.55745 0
M  V30 7795 O 717.718 1.79262 -0.790058 0
M  V30 7796 H 716.298 -0.0829845 -0.742376 0
M  V30 7797 H 718.96 -0.902289 -1.72756 0
M  V30 7798 H 718.056 -0.253521 -3.11069 0
M  V30 7799 N 718.357 1.51182 -0.445186 0
M  V30 7800 C 719.29 2.24528 0.4077 0
M  V30 7801 C 720.268 1.26778 1.01814 0
M  V30 7802 O 721.452 1.55934 1.05909 0
M  V30 7803 C 718.579 3.00171 1.56892 0
M  V30 7804 C 717.625 4.12641 1.0784 0
M  V30 7805 S 718.458 5.35498 0.014049 0
M  V30 7806 C 719.614 6.14681 1.17975 0
M  V30 7807 H 719.847 2.96522 -0.214987 0
M  V30 7808 H 717.38 1.52681 -0.229781 0
M  V30 7809 H 719.338 3.44349 2.23459 0
M  V30 7810 H 717.999 2.27752 2.16304 0
M  V30 7811 H 717.192 4.64875 1.94698 0
M  V30 7812 H 716.794 3.70765 0.490852 0
M  V30 7813 H 719.086 6.44244 2.09658 0
M  V30 7814 H 720.029 7.04659 0.697222 0
M  V30 7815 H 720.437 5.46299 1.42187 0
M  V30 7816 N 719.835 0.176821 1.56605 0
M  V30 7817 C 720.782 -0.751312 2.18229 0
M  V30 7818 C 721.752 -1.22297 1.12395 0
M  V30 7819 O 722.937 -1.29015 1.40569 0
M  V30 7820 C 720.077 -1.97291 2.83143 0
M  V30 7821 C 719.19 -1.54431 4.03454 0
M  V30 7822 C 718.325 -2.72 4.56278 0
M  V30 7823 C 717.364 -2.25657 5.68986 0
M  V30 7824 N 716.501 -3.36338 6.16296 0
M  V30 7825 H 721.341 -0.219033 2.97194 0
M  V30 7826 H 718.878 -0.0963803 1.46784 0
M  V30 7827 H 720.836 -2.68949 3.1894 0
M  V30 7828 H 719.466 -2.4788 2.06773 0
M  V30 7829 H 718.518 -0.724273 3.73441 0
M  V30 7830 H 719.83 -1.16417 4.85024 0
M  V30 7831 H 718.984 -3.51806 4.94285 0
M  V30 7832 H 717.723 -3.13277 3.73777 0
M  V30 7833 H 716.728 -1.44299 5.30526 0
M  V30 7834 H 717.953 -1.85432 6.53293 0
M  V30 7835 H 715.899 -3.7718 5.36723 0
M  V30 7836 H 715.816 -3.02435 6.9287 0
M  V30 7837 H 717.084 -4.16413 6.58954 0
M  V30 7838 N 721.313 -1.57302 -0.09688 0
M  V30 7839 C 722.559 -1.86273 -0.801885 0
M  V30 7840 C 722.892 -0.765694 -1.78468 0
M  V30 7841 O 722.167 0.226495 -1.93177 0
M  V30 7842 C 722.45 -3.25876 -1.53221 0
M  V30 7843 C 722.303 -4.46205 -0.567529 0
M  V30 7844 C 723.622 -3.63352 -2.48321 0
M  V30 7845 H 720.741 -0.67752 -0.29006 0
M  V30 7846 H 723.383 -1.89887 -0.0655577 0
M  V30 7847 H 721.533 -3.22926 -2.15988 0
M  V30 7848 H 723.205 -4.6127 0.0529982 0
M  V30 7849 H 721.448 -4.33636 0.119233 0
M  V30 7850 H 722.119 -5.40608 -1.11564 0
M  V30 7851 H 724.595 -3.67234 -1.95648 0
M  V30 7852 H 723.471 -4.61968 -2.9644 0
M  V30 7853 H 723.732 -2.91941 -3.31998 0
M  V30 7854 N 722.791 0.367657 -1.53252 0
M  V30 7855 C 723.723 1.47032 -1.75824 0
M  V30 7856 C 724.736 1.49736 -0.63898 0
M  V30 7857 O 725.925 1.53253 -0.915193 0
M  V30 7858 C 723.025 2.85805 -1.82122 0
M  V30 7859 C 722.198 3.06822 -3.11736 0
M  V30 7860 C 721.257 4.25698 -3.09302 0
M  V30 7861 O 720.283 4.20972 -3.83107 0
M  V30 7862 N 721.485 5.33002 -2.29977 0
M  V30 7863 H 724.25 1.28048 -2.70968 0
M  V30 7864 H 721.811 0.557363 -1.52004 0
M  V30 7865 H 723.803 3.63465 -1.77975 0
M  V30 7866 H 722.373 2.98046 -0.942716 0
M  V30 7867 H 721.593 2.1684 -3.29202 0
M  V30 7868 H 722.881 3.17731 -3.97397 0
M  V30 7869 H 722.279 5.39703 -1.69521 0
M  V30 7870 H 720.836 6.09247 -2.3165 0
M  V30 7871 N 724.269 1.44576 0.627338 0
M  V30 7872 C 725.516 1.47558 1.38682 0
M  V30 7873 C 725.844 0.109636 1.94191 0
M  V30 7874 O 725.099 -0.889092 1.74338 0
M  V30 7875 C 725.398 2.48644 2.56731 0
M  V30 7876 C 725.064 3.93873 2.19489 0
M  V30 7877 C 723.726 4.33421 2.09045 0
M  V30 7878 C 726.078 4.85286 1.90124 0
M  V30 7879 C 723.406 5.62303 1.6743 0
M  V30 7880 C 725.758 6.14559 1.50001 0
M  V30 7881 C 724.422 6.53058 1.38101 0
M  V30 7882 H 723.692 0.539955 0.507474 0
M  V30 7883 H 726.339 1.77811 0.711021 0
M  V30 7884 H 724.644 2.11889 3.29561 0
M  V30 7885 H 726.341 2.48197 3.14959 0
M  V30 7886 H 722.931 3.62587 2.28537 0
M  V30 7887 H 727.115 4.55483 1.971 0
M  V30 7888 H 722.371 5.90945 1.56823 0
M  V30 7889 H 726.545 6.84848 1.26319 0
M  V30 7890 H 724.172 7.52826 1.05628 0
M  V30 7891 N 725.747 -0.868086 1.31537 0
M  V30 7892 C 726.995 -1.61807 1.21091 0
M  V30 7893 C 727.316 -1.93631 -0.230623 0
M  V30 7894 O 726.586 -1.5846 -1.15183 0
M  V30 7895 H 725.166 -0.599854 0.445178 0
M  V30 7896 H 727.828 -1.03915 1.64887 0
M  V30 7897 H 726.924 -2.56088 1.78396 0
M  V30 7898 N 727.225 -1.14528 -1.08264 0
M  V30 7899 C 728.188 -0.83632 -2.13397 0
M  V30 7900 C 729.188 0.159715 -1.60005 0
M  V30 7901 O 730.378 -0.0688098 -1.74064 0
M  V30 7902 C 727.51 -0.246973 -3.40004 0
M  V30 7903 H 728.703 -1.76808 -2.42237 0
M  V30 7904 H 726.256 -0.951509 -1.24 0
M  V30 7905 H 726.991 0.693436 -3.168 0
M  V30 7906 H 726.776 -0.964412 -3.80055 0
M  V30 7907 H 728.266 -0.0480679 -4.17572 0
M  V30 7908 N 728.703 1.26451 -0.940633 0
M  V30 7909 C 729.928 1.98407 -0.60412 0
M  V30 7910 C 730.353 1.69584 0.81382 0
M  V30 7911 O 729.711 0.943553 1.54812 0
M  V30 7912 C 729.759 3.50387 -0.852136 0
M  V30 7913 O 728.863 4.1233 0.076013 0
M  V30 7914 H 728.204 0.622466 -0.231153 0
M  V30 7915 H 730.734 1.60932 -1.26342 0
M  V30 7916 H 730.744 4.00614 -0.772816 0
M  V30 7917 H 729.419 3.70696 -1.88566 0
M  V30 7918 H 727.996 3.7286 -0.0543187 0
M  V30 7919 N 730.181 0.707592 1.40822 0
M  V30 7920 C 731.131 0.0265008 2.27985 0
M  V30 7921 C 732.115 -0.740685 1.42838 0
M  V30 7922 O 733.307 -0.6142 1.66002 0
M  V30 7923 C 730.436 -0.900382 3.31282 0
M  V30 7924 C 729.522 -0.128807 4.23904 0
M  V30 7925 N 729.913 0.883744 4.9802 0
M  V30 7926 C 728.211 -0.362539 4.44524 0
M  V30 7927 C 728.912 1.34666 5.65898 0
M  V30 7928 N 727.888 0.670306 5.39451 0
M  V30 7929 H 731.69 0.802667 2.82727 0
M  V30 7930 H 729.204 0.539475 1.53178 0
M  V30 7931 H 731.201 -1.40357 3.92563 0
M  V30 7932 H 729.861 -1.67601 2.781 0
M  V30 7933 H 730.872 1.26435 5.0223 0
M  V30 7934 H 727.549 -1.11512 4.02332 0
M  V30 7935 H 728.939 2.18756 6.35292 0
M  V30 7936 N 731.66 -1.50943 0.453197 0
M  V30 7937 C 732.906 -2.02512 -0.108082 0
M  V30 7938 C 733.239 -1.33574 -1.40967 0
M  V30 7939 O 732.514 -0.455671 -1.89087 0
M  V30 7940 C 732.797 -3.58759 -0.310453 0
M  V30 7941 C 732.65 -4.38293 1.0109 0
M  V30 7942 C 733.969 -4.26816 -1.07313 0
M  V30 7943 H 731.088 -0.73603 -0.0378064 0
M  V30 7944 H 733.73 -1.80433 0.595295 0
M  V30 7945 H 731.88 -3.77702 -0.909582 0
M  V30 7946 H 733.552 -4.30964 1.64523 0
M  V30 7947 H 731.795 -4.02745 1.61179 0
M  V30 7948 H 732.466 -5.45828 0.82315 0
M  V30 7949 H 734.942 -4.1224 -0.565473 0
M  V30 7950 H 733.818 -5.35989 -1.1835 0
M  V30 7951 H 734.079 -3.88757 -2.10525 0
M  V30 7952 N 733.138 -0.185124 -1.56509 0
M  V30 7953 C 734.385 0.456258 -1.97293 0
M  V30 7954 C 734.713 1.62314 -1.07165 0
M  V30 7955 O 733.968 1.95398 -0.108621 0
M  V30 7956 C 734.267 0.967977 -3.44042 0
M  V30 7957 C 733.933 -0.084476 -4.50821 0
M  V30 7958 C 732.595 -0.373689 -4.79747 0
M  V30 7959 C 734.947 -0.79812 -5.15053 0
M  V30 7960 C 732.275 -1.3817 -5.70198 0
M  V30 7961 C 734.627 -1.79521 -6.06593 0
M  V30 7962 C 733.291 -2.09172 -6.3388 0
M  V30 7963 H 732.561 0.166957 -0.721946 0
M  V30 7964 H 735.208 -0.279992 -1.89442 0
M  V30 7965 H 733.513 1.78231 -3.48914 0
M  V30 7966 H 735.21 1.47347 -3.72948 0
M  V30 7967 H 731.8 0.15111 -4.28334 0
M  V30 7968 H 735.984 -0.587903 -4.92806 0
M  V30 7969 H 731.24 -1.61745 -5.89617 0
M  V30 7970 H 735.414 -2.35347 -6.55427 0
M  V30 7971 H 733.041 -2.87427 -7.03768 0
M  V30 7972 N 734.616 1.57351 0.0885366 0
M  V30 7973 C 735.563 2.02523 1.10693 0
M  V30 7974 C 736.533 0.902736 1.39427 0
M  V30 7975 O 737.718 1.16921 1.50779 0
M  V30 7976 C 734.858 2.46013 2.42016 0
M  V30 7977 C 733.971 3.7181 2.19957 0
M  V30 7978 C 733.106 4.04152 3.44724 0
M  V30 7979 C 732.145 5.2304 3.17956 0
M  V30 7980 N 731.282 5.51102 4.35007 0
M  V30 7981 H 736.122 2.89302 0.714742 0
M  V30 7982 H 733.659 1.43084 0.341378 0
M  V30 7983 H 735.617 2.69274 3.18665 0
M  V30 7984 H 734.247 1.62235 2.79069 0
M  V30 7985 H 733.299 3.55987 1.34079 0
M  V30 7986 H 734.611 4.58604 1.96173 0
M  V30 7987 H 733.765 4.28225 4.29777 0
M  V30 7988 H 732.504 3.15893 3.71568 0
M  V30 7989 H 731.509 4.98781 2.31296 0
M  V30 7990 H 732.734 6.12902 2.92451 0
M  V30 7991 H 730.68 4.65802 4.61914 0
M  V30 7992 H 730.597 6.3228 4.14437 0
M  V30 7993 H 731.865 5.79714 5.21106 0
M  V30 7994 N 736.094 -0.359525 1.53444 0
M  V30 7995 C 737.341 -1.10152 1.6992 0
M  V30 7996 C 737.669 -1.89125 0.4541 0
M  V30 7997 O 736.924 -1.87396 -0.564023 0
M  V30 7998 C 737.223 -2.08287 2.90433 0
M  V30 7999 C 736.889 -1.45749 4.26694 0
M  V30 8000 C 735.551 -1.28421 4.63747 0
M  V30 8001 C 737.903 -1.00557 5.11408 0
M  V30 8002 C 735.231 -0.644951 5.83144 0
M  V30 8003 C 737.583 -0.380288 6.31456 0
M  V30 8004 C 736.247 -0.194557 6.67216 0
M  V30 8005 H 735.517 -0.403076 0.621781 0
M  V30 8006 H 738.164 -0.382612 1.87639 0
M  V30 8007 H 736.469 -2.86503 2.67251 0
M  V30 8008 H 738.166 -2.65662 3.00374 0
M  V30 8009 H 734.756 -1.6023 3.97523 0
M  V30 8010 H 738.94 -1.12735 4.83326 0
M  V30 8011 H 734.196 -0.48952 6.09437 0
M  V30 8012 H 738.37 -0.0219455 6.96397 0
M  V30 8013 H 735.997 0.30285 7.59597 0
M  V30 8014 N 737.572 -1.44907 -0.619662 0
M  V30 8015 C 738.818 -1.48512 -1.38102 0
M  V30 8016 C 739.151 -0.121686 -1.93818 0
M  V30 8017 O 738.426 0.862256 -1.74343 0
M  V30 8018 C 738.709 -2.55469 -2.53787 0
M  V30 8019 C 738.562 -4.01212 -2.03345 0
M  V30 8020 C 739.881 -2.58821 -3.55949 0
M  V30 8021 H 737 -0.540712 -0.500799 0
M  V30 8022 H 739.642 -1.7665 -0.69962 0
M  V30 8023 H 737.792 -2.31606 -3.11915 0
M  V30 8024 H 739.464 -4.36245 -1.49959 0
M  V30 8025 H 737.707 -4.12443 -1.34438 0
M  V30 8026 H 738.378 -4.71717 -2.86683 0
M  V30 8027 H 740.854 -2.80172 -3.07641 0
M  V30 8028 H 739.73 -3.35542 -4.34399 0
M  V30 8029 H 739.991 -1.63451 -4.10775 0
M  V30 8030 N 739.05 0.861098 -1.31996 0
M  V30 8031 C 740.327 1.59788 -1.12814 0
M  V30 8032 C 740.707 2.08753 0.313882 0
M  V30 8033 O 740.055 1.87258 1.30946 0
M  V30 8034 C 740.265 2.74901 -2.15012 0
M  V30 8035 C 741.613 3.44643 -2.48004 0
M  V30 8036 O 742.637 2.85119 -2.13508 0
M  V30 8037 O 741.496 4.52044 -3.07113 0
M  V30 8038 H 738.59 0.703408 -0.434909 0
M  V30 8039 H 741.136 0.905788 -1.43505 0
M  V30 8040 H 739.908 2.36198 -3.11971 0
M  V30 8041 H 739.531 3.51792 -1.85279 0
M  V30 8042 N 740.528 1.15101 1.07655 0
M  V30 8043 C 741.939 0.933848 1.61667 0
M  V30 8044 C 742.29 -0.525569 1.8903 0
M  V30 8045 O 741.415 -1.39605 1.65346 0
M  V30 8046 C 742.01 1.68876 2.93711 0
M  V30 8047 C 740.569 1.51697 3.44478 0
M  V30 8048 C 739.716 1.70633 2.18586 0
M  V30 8049 H 742.667 1.30171 0.907816 0
M  V30 8050 H 742.688 1.15645 3.625 0
M  V30 8051 H 742.2 2.7509 2.73764 0
M  V30 8052 H 740.301 0.478635 3.69513 0
M  V30 8053 H 740.414 2.29194 4.20722 0
M  V30 8054 H 738.778 1.13259 2.28132 0
M  V30 8055 H 739.561 2.78206 2.01137 0
M  V30 8056 N 742.006 -1.2595 0.947325 0
M  V30 8057 C 743.231 -1.98083 0.614633 0
M  V30 8058 C 743.656 -1.70013 -0.804815 0
M  V30 8059 O 743.014 -0.95175 -1.54309 0
M  V30 8060 C 743.062 -3.4993 0.870706 0
M  V30 8061 O 742.166 -4.12364 -0.0541451 0
M  V30 8062 H 741.507 -0.621232 0.234451 0
M  V30 8063 H 744.037 -1.60259 1.27193 0
M  V30 8064 H 744.047 -4.00198 0.794051 0
M  V30 8065 H 742.722 -3.69691 1.90529 0
M  V30 8066 H 741.299 -3.72826 0.0740917 0
M  V30 8067 N 743.484 -0.715051 -1.40445 0
M  V30 8068 C 744.416 -0.0227516 -2.29189 0
M  V30 8069 C 745.429 0.724313 -1.458 0
M  V30 8070 O 746.618 0.571781 -1.69094 0
M  V30 8071 C 743.718 0.992038 -3.24055 0
M  V30 8072 C 742.891 0.310613 -4.36296 0
M  V30 8073 C 741.95 1.23071 -5.11605 0
M  V30 8074 O 740.976 0.71571 -5.64682 0
M  V30 8075 N 742.178 2.56188 -5.2091 0
M  V30 8076 H 744.943 -0.78473 -2.89244 0
M  V30 8077 H 742.504 -0.562637 -1.51809 0
M  V30 8078 H 744.496 1.60973 -3.71308 0
M  V30 8079 H 743.066 1.65538 -2.65171 0
M  V30 8080 H 742.286 -0.487269 -3.91177 0
M  V30 8081 H 743.574 -0.162415 -5.08541 0
M  V30 8082 H 742.972 3.00527 -4.7927 0
M  V30 8083 H 741.529 3.13103 -5.71673 0
M  V30 8084 N 744.962 1.50701 -0.461195 0
M  V30 8085 C 746.239 1.94958 0.158296 0
M  V30 8086 C 746.619 1.40111 1.57899 0
M  V30 8087 O 745.967 0.597976 2.20537 0
M  V30 8088 C 746.177 3.48821 0.11172 0
M  V30 8089 C 747.525 4.23499 0.30552 0
M  V30 8090 O 748.549 3.557 0.188758 0
M  V30 8091 O 747.408 5.43823 0.540244 0
M  V30 8092 H 744.502 0.818674 0.117054 0
M  V30 8093 H 747.048 1.61508 -0.520888 0
M  V30 8094 H 745.82 3.81263 -0.880577 0
M  V30 8095 H 745.443 3.88781 0.832791 0
M  V30 8096 N 746.441 0.193421 1.56409 0
M  V30 8097 C 747.391 -0.74089 2.15627 0
M  V30 8098 C 748.375 -1.17747 1.09656 0
M  V30 8099 O 749.567 -1.13615 1.35723 0
M  V30 8100 C 746.696 -1.96091 2.81786 0
M  V30 8101 C 745.782 -1.54531 3.94944 0
M  V30 8102 N 746.173 -0.840569 4.98767 0
M  V30 8103 C 744.471 -1.83473 4.06514 0
M  V30 8104 C 745.172 -0.632571 5.7825 0
M  V30 8105 N 744.148 -1.18078 5.30621 0
M  V30 8106 H 747.95 -0.193718 2.93261 0
M  V30 8107 H 745.464 -0.00643211 1.62399 0
M  V30 8108 H 747.461 -2.64071 3.22602 0
M  V30 8109 H 746.121 -2.51282 2.05639 0
M  V30 8110 H 747.132 -0.496218 5.15517 0
M  V30 8111 H 743.809 -2.40184 3.41493 0
M  V30 8112 H 745.199 -0.0736433 6.7186 0
M  V30 8113 N 747.919 -1.57396 -0.0801906 0
M  V30 8114 C 748.882 -2.02133 -1.0805 0
M  V30 8115 C 749.882 -0.91707 -1.32085 0
M  V30 8116 O 751.072 -1.18217 -1.27947 0
M  V30 8117 C 748.204 -2.39479 -2.42616 0
M  V30 8118 H 749.397 -2.91733 -0.6951 0
M  V30 8119 H 746.95 -1.52869 -0.325677 0
M  V30 8120 H 747.685 -1.52879 -2.86004 0
M  V30 8121 H 747.47 -3.20052 -2.26515 0
M  V30 8122 H 748.96 -2.74697 -3.14534 0
M  V30 8123 N 749.397 0.351382 -1.53633 0
M  V30 8124 C 750.327 1.43688 -1.84055 0
M  V30 8125 C 751.308 1.55251 -0.695073 0
M  V30 8126 O 752.493 1.69587 -0.946257 0
M  V30 8127 C 749.623 2.80843 -2.04315 0
M  V30 8128 C 748.577 2.84094 -3.20117 0
M  V30 8129 C 747.903 4.2406 -3.25696 0
M  V30 8130 C 749.203 2.50334 -4.58399 0
M  V30 8131 H 750.897 1.18478 -2.74961 0
M  V30 8132 H 748.443 0.568509 -1.32303 0
M  V30 8133 H 750.396 3.56821 -2.2418 0
M  V30 8134 H 749.12 3.07471 -1.10132 0
M  V30 8135 H 747.779 2.10568 -3.00094 0
M  V30 8136 H 747.427 4.47785 -2.29123 0
M  V30 8137 H 747.127 4.27147 -4.03509 0
M  V30 8138 H 748.651 5.0189 -3.47762 0
M  V30 8139 H 750.065 3.16025 -4.78332 0
M  V30 8140 H 748.462 2.64717 -5.38558 0
M  V30 8141 H 749.532 1.45542 -4.62543 0
M  V30 8142 N 750.875 1.45233 0.611969 0
M  V30 8143 C 751.838 1.53189 1.70487 0
M  V30 8144 C 752.838 0.411839 1.55437 0
M  V30 8145 O 754.028 0.675164 1.60584 0
M  V30 8146 C 751.16 1.42422 3.09723 0
M  V30 8147 H 752.353 2.5056 1.64802 0
M  V30 8148 H 749.906 1.32609 0.827318 0
M  V30 8149 H 750.641 0.462185 3.2099 0
M  V30 8150 H 750.426 2.23658 3.22055 0
M  V30 8151 H 751.916 1.51012 3.89339 0
M  V30 8152 N 752.353 -0.854086 1.3245 0
M  V30 8153 C 753.3 -1.96271 1.21434 0
M  V30 8154 C 754.27 -1.6582 0.0963851 0
M  V30 8155 O 755.455 -1.88851 0.27203 0
M  V30 8156 C 752.595 -3.31939 0.943952 0
M  V30 8157 C 751.708 -3.74885 2.14675 0
M  V30 8158 C 750.843 -4.99347 1.81179 0
M  V30 8159 C 749.882 -5.34785 2.97777 0
M  V30 8160 N 749.019 -6.50425 2.6437 0
M  V30 8161 H 753.859 -2.05025 2.16261 0
M  V30 8162 H 751.396 -1.00348 1.07558 0
M  V30 8163 H 753.354 -4.10076 0.767675 0
M  V30 8164 H 751.984 -3.22784 0.0324763 0
M  V30 8165 H 751.036 -2.92396 2.43328 0
M  V30 8166 H 752.348 -3.97068 3.01891 0
M  V30 8167 H 751.502 -5.85193 1.60107 0
M  V30 8168 H 750.241 -4.79101 0.911777 0
M  V30 8169 H 749.246 -4.47451 3.1948 0
M  V30 8170 H 750.471 -5.56988 3.88511 0
M  V30 8171 H 748.417 -6.31695 1.7691 0
M  V30 8172 H 748.334 -6.7263 3.45116 0
M  V30 8173 H 749.602 -7.39422 2.46729 0
M  V30 8174 N 753.831 -1.1567 -1.07043 0
M  V30 8175 C 755.247 -0.900006 -1.31803 0
M  V30 8176 C 755.447 0.451293 -1.96381 0
M  V30 8177 O 754.503 1.19252 -2.22565 0
M  V30 8178 C 755.816 -2.04334 -2.20609 0
M  V30 8179 C 757.364 -2.07823 -2.34048 0
M  V30 8180 C 757.839 -3.21488 -3.26204 0
M  V30 8181 N 759.33 -3.21156 -3.33786 0
M  V30 8182 C 760.065 -4.05746 -4.05163 0
M  V30 8183 N 759.561 -5.00407 -4.79129 0
M  V30 8184 N 761.354 -3.93759 -4.01136 0
M  V30 8185 H 753.505 -2.02681 -0.635146 0
M  V30 8186 H 755.768 -0.883956 -0.342528 0
M  V30 8187 H 755.474 -3.01895 -1.80423 0
M  V30 8188 H 755.348 -1.97838 -3.21154 0
M  V30 8189 H 757.735 -1.1086 -2.73485 0
M  V30 8190 H 757.816 -2.18386 -1.33197 0
M  V30 8191 H 757.46 -4.18706 -2.87485 0
M  V30 8192 H 757.39 -3.08162 -4.27017 0
M  V30 8193 H 759.881 -2.52606 -2.81067 0
M  V30 8194 H 760.194 -5.61387 -5.31097 0
M  V30 8195 H 758.539 -5.04393 -4.78135 0
M  V30 8196 H 761.73 -3.19115 -3.42466 0
M  V30 8197 H 761.903 -4.59906 -4.56498 0
M  V30 8198 N 755.309 1.25446 -0.953992 0
M  V30 8199 C 756.534 1.97755 -0.625129 0
M  V30 8200 C 756.959 1.70437 0.795787 0
M  V30 8201 O 756.317 0.95992 1.53803 0
M  V30 8202 C 756.365 3.49463 -0.889251 0
M  V30 8203 O 755.469 4.12387 0.0322757 0
M  V30 8204 H 754.81 0.61998 -0.237742 0
M  V30 8205 H 757.34 1.59582 -1.28041 0
M  V30 8206 H 757.35 3.99772 -0.815263 0
M  V30 8207 H 756.025 3.68676 -1.92487 0
M  V30 8208 H 754.602 3.72782 -0.0938625 0
M  V30 8209 N 756.787 0.722489 1.40064 0
M  V30 8210 C 758.033 0.265371 2.01056 0
M  V30 8211 C 758.366 -1.14062 1.57174 0
M  V30 8212 O 757.641 -1.77514 0.794916 0
M  V30 8213 C 757.924 0.353157 3.58364 0
M  V30 8214 C 757.777 1.79802 4.123 0
M  V30 8215 C 759.096 -0.271677 4.39261 0
M  V30 8216 H 756.215 0.0979002 0.730469 0
M  V30 8217 H 758.857 0.916289 1.66446 0
M  V30 8218 H 757.007 -0.201037 3.87979 0
M  V30 8219 H 758.679 2.40813 3.93455 0
M  V30 8220 H 756.922 2.32348 3.66329 0
M  V30 8221 H 757.593 1.81079 5.21454 0
M  V30 8222 H 760.069 0.200607 4.15616 0
M  V30 8223 H 758.945 -0.179843 5.48605 0
M  V30 8224 H 759.206 -1.35611 4.20787 0
M  V30 8225 N 758.265 -1.50454 0.469181 0
M  V30 8226 C 759.542 -1.9504 -0.147955 0
M  V30 8227 C 759.922 -1.40946 -1.57154 0
M  V30 8228 O 759.27 -0.609663 -2.20217 0
M  V30 8229 C 759.48 -3.48875 -0.0932198 0
M  V30 8230 C 760.828 -4.23655 -0.283056 0
M  V30 8231 O 761.852 -3.55795 -0.169892 0
M  V30 8232 O 760.711 -5.44102 -0.511396 0
M  V30 8233 H 757.805 -0.819283 -0.11271 0
M  V30 8234 H 760.351 -1.6123 0.529446 0
M  V30 8235 H 759.123 -3.80791 0.900784 0
M  V30 8236 H 758.746 -3.89217 -0.812161 0
M  V30 8237 N 759.743 -0.201713 -1.56304 0
M  V30 8238 C 760.991 0.434447 -1.97375 0
M  V30 8239 C 761.312 1.61692 -1.08998 0
M  V30 8240 O 760.582 1.95223 -0.162682 0
M  V30 8241 H 759.162 0.163497 -0.728888 0
M  V30 8242 H 761.824 -0.289988 -1.92731 0
M  V30 8243 H 760.92 0.774136 -3.02347 0
M  V30 8244 N 761.222 1.57436 0.0718424 0
M  V30 8245 C 762.47 1.86878 0.769484 0
M  V30 8246 C 762.791 0.7937 1.78116 0
M  V30 8247 O 762.061 -0.177642 1.95093 0
M  V30 8248 H 760.641 0.689593 0.287177 0
M  V30 8249 H 763.303 1.94841 0.0479427 0
M  V30 8250 H 762.399 2.84387 1.28572 0
M  V30 8251 N 762.7 -0.34323 1.53817 0
M  V30 8252 C 763.63 -1.42709 1.84814 0
M  V30 8253 C 764.611 -1.5488 0.703297 0
M  V30 8254 O 765.796 -1.69082 0.955237 0
M  V30 8255 C 762.926 -2.79756 2.05801 0
M  V30 8256 C 761.88 -2.82392 3.21619 0
M  V30 8257 C 761.206 -4.22326 3.2794 0
M  V30 8258 C 762.506 -2.479 4.59721 0
M  V30 8259 H 764.2 -1.17018 2.75585 0
M  V30 8260 H 761.746 -0.561485 1.32602 0
M  V30 8261 H 763.699 -3.55627 2.26069 0
M  V30 8262 H 762.423 -3.06883 1.11761 0
M  V30 8263 H 761.082 -2.08974 3.01207 0
M  V30 8264 H 760.73 -4.46564 2.31494 0
M  V30 8265 H 760.43 -4.25001 4.05768 0
M  V30 8266 H 761.954 -5.00039 3.50419 0
M  V30 8267 H 763.368 -3.13484 4.80001 0
M  V30 8268 H 761.765 -2.61857 5.39954 0
M  V30 8269 H 762.835 -1.43087 4.63308 0
M  V30 8270 N 764.178 -1.45556 -0.604258 0
M  V30 8271 C 765.111 -1.48975 -1.72863 0
M  V30 8272 C 766.089 -0.345803 -1.5888 0
M  V30 8273 O 767.273 -0.546796 -1.80395 0
M  V30 8274 C 764.4 -1.34794 -3.10722 0
M  V30 8275 C 763.446 -2.53096 -3.43285 0
M  V30 8276 S 764.279 -4.15551 -3.37754 0
M  V30 8277 C 765.435 -4.03842 -4.78187 0
M  V30 8278 H 765.668 -2.44108 -1.69701 0
M  V30 8279 H 763.201 -1.33179 -0.781194 0
M  V30 8280 H 765.159 -1.273 -3.90263 0
M  V30 8281 H 763.82 -0.411254 -3.11396 0
M  V30 8282 H 763.013 -2.39109 -4.4367 0
M  V30 8283 H 762.615 -2.57469 -2.71267 0
M  V30 8284 H 764.907 -3.69191 -5.6807 0
M  V30 8285 H 765.85 -5.0415 -4.97231 0
M  V30 8286 H 766.258 -3.35443 -4.54025 0
M  V30 8287 N 765.656 0.84705 -1.32902 0
M  V30 8288 C 766.902 1.60414 -1.24078 0
M  V30 8289 C 767.235 1.93217 0.195105 0
M  V30 8290 O 766.51 1.58001 1.13428 0
M  V30 8291 C 766.793 2.91951 -2.108 0
M  V30 8292 C 766.646 2.6588 -3.62805 0
M  V30 8293 C 767.965 3.93299 -1.97494 0
M  V30 8294 H 765.084 0.58206 -0.452079 0
M  V30 8295 H 767.726 0.977562 -1.62922 0
M  V30 8296 H 765.876 3.45425 -1.77802 0
M  V30 8297 H 767.548 2.18902 -4.06054 0
M  V30 8298 H 765.791 1.99716 -3.85092 0
M  V30 8299 H 766.462 3.59574 -4.1882 0
M  V30 8300 H 768.938 3.49105 -2.26417 0
M  V30 8301 H 767.814 4.8318 -2.60438 0
M  V30 8302 H 768.075 4.31887 -0.944782 0
M  V30 8303 N 767.134 1.16236 1.06428 0
M  V30 8304 C 768.081 0.86769 2.13869 0
M  V30 8305 C 769.051 -0.183298 1.65086 0
M  V30 8306 O 770.236 -0.0488002 1.90738 0
M  V30 8307 C 767.376 0.373427 3.43074 0
M  V30 8308 C 766.489 1.48708 4.05598 0
M  V30 8309 C 765.624 0.947977 5.22673 0
M  V30 8310 C 764.663 2.03793 5.77178 0
M  V30 8311 N 763.8 1.51451 6.85571 0
M  V30 8312 H 768.64 1.78781 2.38414 0
M  V30 8313 H 766.177 0.891892 1.16977 0
M  V30 8314 H 768.135 0.0685035 4.17144 0
M  V30 8315 H 766.765 -0.509752 3.1875 0
M  V30 8316 H 765.817 1.908 3.29089 0
M  V30 8317 H 767.129 2.30964 4.42105 0
M  V30 8318 H 766.283 0.596154 6.03764 0
M  V30 8319 H 765.022 0.0947081 4.87608 0
M  V30 8320 H 764.027 2.39847 4.94726 0
M  V30 8321 H 765.252 2.89514 6.14295 0
M  V30 8322 H 763.198 0.683755 6.52427 0
M  V30 8323 H 763.115 2.27325 7.21013 0
M  V30 8324 H 764.383 1.19123 7.70344 0
M  V30 8325 N 768.612 -1.24939 0.960631 0
M  V30 8326 C 769.86 -1.92437 0.617441 0
M  V30 8327 C 770.181 -1.75543 -0.849101 0
M  V30 8328 O 769.451 -1.12269 -1.60538 0
M  V30 8329 H 768.031 -0.712192 0.225371 0
M  V30 8330 H 770.693 -1.5198 1.22017 0
M  V30 8331 H 769.789 -3.00247 0.851933 0
M  V30 8332 N 770.09 -0.729906 -1.39679 0
M  V30 8333 C 771.501 -0.346241 -1.83461 0
M  V30 8334 C 771.852 1.1215 -1.60987 0
M  V30 8335 O 770.977 1.86456 -1.09832 0
M  V30 8336 C 771.572 -0.621656 -3.33048 0
M  V30 8337 C 770.131 -0.291543 -3.75269 0
M  V30 8338 C 769.278 -0.886844 -2.62736 0
M  V30 8339 H 772.229 -0.927949 -1.28743 0
M  V30 8340 H 772.25 0.108301 -3.80346 0
M  V30 8341 H 771.762 -1.68996 -3.49373 0
M  V30 8342 H 769.863 0.771133 -3.64533 0
M  V30 8343 H 769.976 -0.770544 -4.72863 0
M  V30 8344 H 768.34 -0.313839 -2.52759 0
M  V30 8345 H 769.123 -1.95971 -2.81869 0
M  V30 8346 N 771.568 1.50203 -0.477153 0
M  V30 8347 C 772.984 1.59056 -0.131663 0
M  V30 8348 C 773.184 1.48473 1.36227 0
M  V30 8349 O 772.24 1.34635 2.13611 0
M  V30 8350 C 773.553 2.92741 -0.687254 0
M  V30 8351 C 775.101 3.0615 -0.651223 0
M  V30 8352 C 775.576 4.42419 -1.18446 0
M  V30 8353 N 777.067 4.48847 -1.14413 0
M  V30 8354 C 777.802 5.52689 -1.52717 0
M  V30 8355 N 777.298 6.63754 -1.98499 0
M  V30 8356 N 779.091 5.43267 -1.44282 0
M  V30 8357 H 771.242 1.55325 -1.44872 0
M  V30 8358 H 773.505 0.734395 -0.599473 0
M  V30 8359 H 773.211 3.0598 -1.73405 0
M  V30 8360 H 773.085 3.76961 -0.134215 0
M  V30 8361 H 775.472 2.92556 0.386677 0
M  V30 8362 H 775.553 2.23673 -1.24114 0
M  V30 8363 H 775.197 4.56763 -2.22103 0
M  V30 8364 H 775.127 5.23498 -0.570709 0
M  V30 8365 H 777.618 3.69152 -0.808416 0
M  V30 8366 H 777.931 7.39059 -2.25859 0
M  V30 8367 H 776.276 6.64858 -2.02456 0
M  V30 8368 H 779.467 4.55387 -1.08352 0
M  V30 8369 H 779.64 6.24074 -1.74459 0
M  V30 8370 N 773.046 0.209999 1.56195 0
M  V30 8371 C 773.996 -0.717978 2.164 0
M  V30 8372 C 774.98 -1.16577 1.10899 0
M  V30 8373 O 776.172 -1.12169 1.3692 0
M  V30 8374 C 773.301 -1.93091 2.8385 0
M  V30 8375 C 772.387 -1.50333 3.96561 0
M  V30 8376 N 772.778 -0.787621 4.9963 0
M  V30 8377 C 771.076 -1.79151 4.08437 0
M  V30 8378 C 771.777 -0.571204 5.78889 0
M  V30 8379 N 770.753 -1.12444 5.31843 0
M  V30 8380 H 774.555 -0.162603 2.9345 0
M  V30 8381 H 772.069 0.0107928 1.62396 0
M  V30 8382 H 774.066 -2.60635 3.25384 0
M  V30 8383 H 772.726 -2.49087 2.08293 0
M  V30 8384 H 773.737 -0.441513 5.16015 0
M  V30 8385 H 770.414 -2.36549 3.44022 0
M  V30 8386 H 771.804 -0.00237941 6.719 0
M  V30 8387 N 774.524 -1.57472 -0.0634922 0
M  V30 8388 C 775.471 -2.04258 -1.07457 0
M  V30 8389 C 776.441 -0.924804 -1.37973 0
M  V30 8390 O 777.626 -1.19305 -1.48899 0
M  V30 8391 C 774.766 -2.49832 -2.38071 0
M  V30 8392 C 773.879 -3.75263 -2.14014 0
M  V30 8393 C 773.014 -4.09585 -3.38251 0
M  V30 8394 C 772.053 -5.28032 -3.09594 0
M  V30 8395 N 771.19 -5.57953 -4.26185 0
M  V30 8396 H 776.03 -2.90402 -0.668626 0
M  V30 8397 H 773.567 -1.43609 -0.318572 0
M  V30 8398 H 775.525 -2.7431 -3.14341 0
M  V30 8399 H 774.155 -1.66654 -2.76453 0
M  V30 8400 H 773.207 -3.58075 -1.28399 0
M  V30 8401 H 774.519 -4.61667 -1.88852 0
M  V30 8402 H 773.673 -4.35008 -4.2291 0
M  V30 8403 H 772.412 -3.21765 -3.66495 0
M  V30 8404 H 771.417 -5.02397 -2.23332 0
M  V30 8405 H 772.642 -6.17477 -2.82663 0
M  V30 8406 H 770.588 -4.73092 -4.54445 0
M  V30 8407 H 770.505 -6.38793 -4.04326 0
M  V30 8408 H 771.773 -5.87931 -5.11817 0
M  V30 8409 N 776.003 0.335068 -1.53997 0
M  V30 8410 C 777.414 0.910191 -1.6301 0
M  V30 8411 C 777.765 1.89271 -0.516809 0
M  V30 8412 O 776.89 2.13516 0.352123 0
M  V30 8413 C 777.485 1.65761 -2.9548 0
M  V30 8414 C 776.044 2.18163 -3.06728 0
M  V30 8415 C 775.191 1.00338 -2.5851 0
M  V30 8416 H 778.142 0.112965 -1.58297 0
M  V30 8417 H 778.163 2.52107 -2.84995 0
M  V30 8418 H 777.675 0.94227 -3.76488 0
M  V30 8419 H 775.776 2.92847 -2.30372 0
M  V30 8420 H 775.889 2.43952 -4.1234 0
M  V30 8421 H 774.253 1.37925 -2.14124 0
M  V30 8422 H 775.036 0.30254 -3.41964 0
M  V30 8423 N 777.481 1.45874 0.596531 0
M  V30 8424 C 778.729 1.5017 1.35253 0
M  V30 8425 C 779.05 0.149246 1.94428 0
M  V30 8426 O 778.32 -0.82268 1.77789 0
M  V30 8427 H 776.9 0.553052 0.502138 0
M  V30 8428 H 779.562 1.81908 0.699671 0
M  V30 8429 H 778.658 2.24671 2.16632 0
M  V30 8430 N 778.959 -0.83999 1.33349 0
M  V30 8431 C 780.208 -1.59011 1.2409 0
M  V30 8432 C 780.521 -1.94655 -0.192029 0
M  V30 8433 O 781.727 -2.68438 -0.406617 0
M  V30 8434 C 780.183 -2.86801 2.17425 0
M  V30 8435 C 779.791 -2.58525 3.65881 0
M  V30 8436 C 781.535 -3.64823 2.17036 0
M  V30 8437 C 779.442 -3.82404 4.51133 0
M  V30 8438 H 778.372 -0.596731 0.460899 0
M  V30 8439 H 781.023 -0.926274 1.58406 0
M  V30 8440 H 779.405 -3.54719 1.7604 0
M  V30 8441 H 780.579 -1.98824 4.15699 0
M  V30 8442 H 778.894 -1.93808 3.68548 0
M  V30 8443 H 781.491 -4.56774 2.7796 0
M  V30 8444 H 781.834 -3.99663 1.16513 0
M  V30 8445 H 782.367 -3.03826 2.56777 0
M  V30 8446 H 779.106 -3.52696 5.52527 0
M  V30 8447 H 778.626 -4.41447 4.0606 0
M  V30 8448 H 780.305 -4.49995 4.6488 0
M  V30 8449 N 780.437 -1.16799 -1.0581 0
M  V30 8450 C 781.683 -0.953935 -1.78963 0
M  V30 8451 C 782.016 0.516638 -1.87202 0
M  V30 8452 O 781.291 1.38338 -1.36721 0
M  V30 8453 C 781.574 -1.58808 -3.23191 0
M  V30 8454 C 781.427 -3.13032 -3.23003 0
M  V30 8455 C 782.746 -1.2868 -4.20867 0
M  V30 8456 H 779.865 -0.347972 -0.64968 0
M  V30 8457 H 782.507 -1.44204 -1.23715 0
M  V30 8458 H 780.657 -1.17303 -3.70368 0
M  V30 8459 H 782.329 -3.63553 -2.83949 0
M  V30 8460 H 780.572 -3.46108 -2.61518 0
M  V30 8461 H 781.243 -3.52527 -4.24769 0
M  V30 8462 H 783.719 -1.6461 -3.82155 0
M  V30 8463 H 782.595 -1.75645 -5.20038 0
M  V30 8464 H 782.856 -0.206491 -4.41618 0
M  V30 8465 N 781.915 1.24427 -0.967243 0
M  V30 8466 C 782.847 2.24641 -0.454856 0
M  V30 8467 C 783.86 1.56849 0.436152 0
M  V30 8468 O 785.049 1.76846 0.242401 0
M  V30 8469 C 782.149 3.36954 0.362672 0
M  V30 8470 C 781.322 4.34318 -0.518324 0
M  V30 8471 C 780.381 5.25638 0.243122 0
M  V30 8472 O 779.407 5.68043 -0.362791 0
M  V30 8473 N 780.609 5.59897 1.53282 0
M  V30 8474 H 783.374 2.69238 -1.31648 0
M  V30 8475 H 780.935 1.38464 -0.839015 0
M  V30 8476 H 782.927 3.95014 0.880094 0
M  V30 8477 H 781.497 2.91646 1.12522 0
M  V30 8478 H 780.717 3.74953 -1.21672 0
M  V30 8479 H 782.005 4.96338 -1.11919 0
M  V30 8480 H 781.403 5.27373 2.04682 0
M  V30 8481 H 779.96 6.20488 1.99594 0
M  V30 8482 N 783.393 0.737304 1.3929 0
M  V30 8483 C 784.303 0.100464 2.34385 0
M  V30 8484 C 785.319 -0.719282 1.58437 0
M  V30 8485 O 786.495 -0.647216 1.90717 0
M  V30 8486 C 783.56 -0.794325 3.37478 0
M  V30 8487 C 782.621 0.0379345 4.29283 0
M  V30 8488 C 781.854 -0.814241 5.27452 0
M  V30 8489 O 782.077 -2.05288 5.32177 0
M  V30 8490 O 781.011 -0.241679 6.01415 0
M  V30 8491 H 784.837 0.885407 2.90507 0
M  V30 8492 H 782.422 0.497999 1.40856 0
M  V30 8493 H 784.304 -1.30622 4.00644 0
M  V30 8494 H 782.979 -1.55804 2.83737 0
M  V30 8495 H 781.886 0.595405 3.69331 0
M  V30 8496 H 783.219 0.763926 4.86236 0
M  V30 8497 N 784.871 -1.49948 0.485112 0
M  V30 8498 C 786.099 -2.06806 -0.0622824 0
M  V30 8499 C 786.514 -1.34736 -1.32256 0
M  V30 8500 O 785.871 -0.420836 -1.77582 0
M  V30 8501 C 785.922 -3.59934 -0.336096 0
M  V30 8502 O 785.643 -4.29289 0.874203 0
M  V30 8503 C 787.144 -4.33459 -0.928903 0
M  V30 8504 H 784.364 -0.670867 0.0133472 0
M  V30 8505 H 786.908 -1.92937 0.677917 0
M  V30 8506 H 785.063 -3.7356 -1.02625 0
M  V30 8507 H 785.477 -5.20735 0.627332 0
M  V30 8508 H 786.951 -5.41527 -1.07017 0
M  V30 8509 H 787.428 -3.94881 -1.92265 0
M  V30 8510 H 788.034 -4.24399 -0.276705 0
M  V30 8511 N 786.349 -0.21828 -1.56081 0
M  V30 8512 C 787.577 0.419258 -2.02608 0
M  V30 8513 C 787.992 1.53578 -1.09814 0
M  V30 8514 O 787.349 1.82185 -0.107149 0
M  V30 8515 C 787.4 0.953955 -3.48686 0
M  V30 8516 O 787.121 -0.11805 -4.37941 0
M  V30 8517 C 788.622 1.66506 -4.10841 0
M  V30 8518 H 785.842 0.10296 -0.663054 0
M  V30 8519 H 788.386 -0.333776 -2.01758 0
M  V30 8520 H 786.541 1.65727 -3.50162 0
M  V30 8521 H 786.955 0.283359 -5.23734 0
M  V30 8522 H 788.429 1.99123 -5.14834 0
M  V30 8523 H 788.906 2.57705 -3.55647 0
M  V30 8524 H 789.512 1.00703 -4.13206 0
M  V30 8525 N 787.827 1.57504 0.0551401 0
M  V30 8526 C 789.074 1.88055 0.751104 0
M  V30 8527 C 789.402 0.812231 1.76729 0
M  V30 8528 O 788.657 -0.189918 1.94776 0
M  V30 8529 C 788.956 3.25311 1.48013 0
M  V30 8530 C 788.622 4.46858 0.602375 0
M  V30 8531 C 787.284 4.79847 0.360536 0
M  V30 8532 C 789.636 5.212 -0.00524047 0
M  V30 8533 C 786.964 5.84582 -0.498127 0
M  V30 8534 C 789.316 6.26844 -0.851453 0
M  V30 8535 C 787.98 6.58324 -1.103 0
M  V30 8536 H 787.25 0.688142 0.274848 0
M  V30 8537 H 789.897 1.91497 0.0114795 0
M  V30 8538 H 788.202 3.17737 2.29239 0
M  V30 8539 H 789.899 3.46189 2.02371 0
M  V30 8540 H 786.489 4.21049 0.801007 0
M  V30 8541 H 790.673 4.96013 0.168682 0
M  V30 8542 H 785.929 6.07361 -0.701594 0
M  V30 8543 H 790.103 6.83603 -1.32893 0
M  V30 8544 H 787.73 7.39304 -1.77011 0
M  V30 8545 N 789.305 -0.326896 1.54172 0
M  V30 8546 C 790.582 -1.08326 1.62864 0
M  V30 8547 C 790.962 -2.06018 0.46039 0
M  V30 8548 O 790.31 -2.21889 -0.545685 0
M  V30 8549 C 790.52 -1.78816 2.9971 0
M  V30 8550 C 791.868 -2.31958 3.55641 0
M  V30 8551 O 792.892 -1.88888 3.01993 0
M  V30 8552 O 791.751 -3.10801 4.49517 0
M  V30 8553 H 788.845 -0.499131 0.659392 0
M  V30 8554 H 791.391 -0.327054 1.66519 0
M  V30 8555 H 790.163 -1.07739 3.76176 0
M  V30 8556 H 789.786 -2.61255 2.99719 0
M  V30 8557 N 790.784 -1.46188 -0.588786 0
M  V30 8558 C 791.714 -1.59148 -1.70863 0
M  V30 8559 C 792.695 -0.442083 -1.64255 0
M  V30 8560 O 793.88 -0.667575 -1.82365 0
M  V30 8561 C 791.01 -1.5757 -3.09498 0
M  V30 8562 C 789.964 -2.71418 -3.30932 0
M  V30 8563 C 789.29 -2.549 -4.70032 0
M  V30 8564 C 790.59 -4.1329 -3.19356 0
M  V30 8565 H 792.284 -2.52889 -1.60274 0
M  V30 8566 H 789.83 -1.21707 -0.769638 0
M  V30 8567 H 791.783 -1.65231 -3.87655 0
M  V30 8568 H 790.507 -0.603705 -3.20972 0
M  V30 8569 H 789.166 -2.63216 -2.55172 0
M  V30 8570 H 788.814 -1.55797 -4.78264 0
M  V30 8571 H 788.514 -3.31257 -4.85327 0
M  V30 8572 H 790.038 -2.64443 -5.50366 0
M  V30 8573 H 791.452 -4.22636 -3.87365 0
M  V30 8574 H 789.849 -4.90187 -3.46175 0
M  V30 8575 H 790.919 -4.33874 -2.16522 0
M  V30 8576 N 792.262 0.832906 -1.33792 0
M  V30 8577 C 793.51 1.58539 -1.25338 0
M  V30 8578 C 793.831 1.94175 0.179204 0
M  V30 8579 O 793.101 1.61458 1.10941 0
M  V30 8580 H 791.681 0.58784 -0.460926 0
M  V30 8581 H 794.343 0.995064 -1.67584 0
M  V30 8582 H 793.439 2.51268 -1.85123 0
M  V30 8583 N 793.74 1.17359 1.05189 0
M  V30 8584 C 794.988 0.960087 1.77839 0
M  V30 8585 C 795.309 -0.512554 1.88143 0
M  V30 8586 O 794.579 -1.3721 1.39822 0
M  V30 8587 H 793.159 0.352234 0.658741 0
M  V30 8588 H 795.821 1.47834 1.27008 0
M  V30 8589 H 794.917 1.38843 2.79516 0
M  V30 8590 N 795.218 -1.23913 0.973828 0
M  V30 8591 C 796.495 -1.87539 0.555729 0
M  V30 8592 C 796.875 -1.87641 -0.967162 0
M  V30 8593 O 796.223 -1.35335 -1.84111 0
M  V30 8594 C 796.433 -3.29359 1.15427 0
M  V30 8595 C 797.781 -4.06 1.24294 0
M  V30 8596 O 798.805 -3.38554 1.10723 0
M  V30 8597 O 797.664 -5.26689 1.45813 0
M  V30 8598 H 794.758 -0.805769 0.186188 0
M  V30 8599 H 797.304 -1.31838 1.06849 0
M  V30 8600 H 796.076 -3.23817 2.19678 0
M  V30 8601 H 795.699 -3.92642 0.625925 0
M  V30 8602 N 796.696 -0.74468 -1.38897 0
M  V30 8603 C 797.945 -0.293716 -1.9955 0
M  V30 8604 C 798.258 1.12831 -1.59777 0
M  V30 8605 O 799.464 1.67929 -2.13336 0
M  V30 8606 C 797.92 -0.474188 -3.56762 0
M  V30 8607 C 797.528 -1.90472 -4.05493 0
M  V30 8608 C 799.272 -0.0854875 -4.24414 0
M  V30 8609 C 797.179 -2.03423 -5.55314 0
M  V30 8610 H 796.109 -0.106066 -0.746502 0
M  V30 8611 H 798.76 -0.919948 -1.58774 0
M  V30 8612 H 797.142 0.221092 -3.95382 0
M  V30 8613 H 798.316 -2.63274 -3.78184 0
M  V30 8614 H 796.631 -2.24752 -3.50536 0
M  V30 8615 H 799.228 -0.161133 -5.34457 0
M  V30 8616 H 799.571 0.96066 -4.05064 0
M  V30 8617 H 800.104 -0.732286 -3.91002 0
M  V30 8618 H 796.843 -3.0626 -5.79556 0
M  V30 8619 H 796.363 -1.3507 -5.84394 0
M  V30 8620 H 798.042 -1.81996 -6.20876 0
M  V30 8621 N 798.174 1.49689 -0.493057 0
M  V30 8622 C 799.124 2.25901 0.308682 0
M  V30 8623 C 800.108 1.30408 0.94247 0
M  V30 8624 O 801.3 1.55179 0.851384 0
M  V30 8625 C 798.429 3.14463 1.37725 0
M  V30 8626 C 797.515 4.17414 0.7501 0
M  V30 8627 N 797.906 5.05599 -0.142597 0
M  V30 8628 C 796.204 4.34377 1.01159 0
M  V30 8629 C 796.905 5.7954 -0.500782 0
M  V30 8630 N 795.881 5.43446 0.129386 0
M  V30 8631 H 799.683 2.91451 -0.378652 0
M  V30 8632 H 797.197 1.59441 -0.308614 0
M  V30 8633 H 799.194 3.67687 1.965 0
M  V30 8634 H 797.854 2.50464 2.06635 0
M  V30 8635 H 798.865 5.15354 -0.512894 0
M  V30 8636 H 795.542 3.81588 1.69402 0
M  V30 8637 H 796.932 6.60534 -1.23063 0
M  V30 8638 N 799.652 0.226554 1.55963 0
M  V30 8639 C 800.877 -0.411527 2.03276 0
M  V30 8640 C 801.302 -1.52206 1.10521 0
M  V30 8641 O 800.66 -1.81054 0.0943217 0
M  V30 8642 C 800.708 -0.915694 3.4878 0
M  V30 8643 O 799.812 -2.02672 3.59163 0
M  V30 8644 H 799.153 -0.0924907 0.657527 0
M  V30 8645 H 801.683 0.346656 2.01642 0
M  V30 8646 H 801.693 -1.22421 3.892 0
M  V30 8647 H 800.368 -0.102915 4.15773 0
M  V30 8648 H 798.945 -1.72445 3.30632 0
M  V30 8649 N 801.13 -1.57531 -0.0467866 0
M  V30 8650 C 802.378 -1.88078 -0.739656 0
M  V30 8651 C 802.699 -0.821936 -1.76831 0
M  V30 8652 O 801.969 0.146582 -1.95351 0
M  V30 8653 H 800.549 -0.694075 -0.276169 0
M  V30 8654 H 803.211 -1.94893 -0.0169391 0
M  V30 8655 H 802.307 -2.86396 -1.24031 0
M  V30 8656 N 802.608 0.318715 -1.54344 0
M  V30 8657 C 803.836 1.0755 -1.7675 0
M  V30 8658 C 804.251 1.81543 -0.518422 0
M  V30 8659 O 803.608 1.75198 0.511078 0
M  V30 8660 C 803.659 2.06983 -2.96378 0
M  V30 8661 O 803.38 1.35995 -4.16458 0
M  V30 8662 C 804.881 2.94841 -3.31034 0
M  V30 8663 H 802.101 0.319711 -0.589937 0
M  V30 8664 H 804.645 0.363369 -2.01246 0
M  V30 8665 H 802.8 2.73724 -2.74142 0
M  V30 8666 H 803.214 2.02623 -4.83781 0
M  V30 8667 H 804.688 3.60496 -4.18027 0
M  V30 8668 H 805.165 3.62199 -2.48412 0
M  V30 8669 H 805.771 2.33656 -3.55366 0
M  V30 8670 N 804.086 1.46499 0.581025 0
M  V30 8671 C 805.049 1.5677 1.672 0
M  V30 8672 C 806.049 0.444716 1.54528 0
M  V30 8673 O 807.239 0.709074 1.59116 0
M  V30 8674 C 804.371 1.4896 3.06633 0
M  V30 8675 H 805.564 2.54 1.5945 0
M  V30 8676 H 803.117 1.34334 0.799003 0
M  V30 8677 H 803.852 0.530168 3.19937 0
M  V30 8678 H 803.637 2.30439 3.17239 0
M  V30 8679 H 805.127 1.59237 3.86048 0
M  V30 8680 N 805.565 -0.825799 1.34232 0
M  V30 8681 C 806.495 -1.95151 1.28212 0
M  V30 8682 C 807.476 -1.69345 0.160123 0
M  V30 8683 O 808.661 -1.90983 0.352019 0
M  V30 8684 C 805.791 -3.31554 1.03388 0
M  V30 8685 C 804.745 -3.71793 2.12023 0
M  V30 8686 C 804.071 -5.06147 1.72392 0
M  V30 8687 C 805.371 -3.84193 3.53826 0
M  V30 8688 H 807.065 -2.00445 2.22401 0
M  V30 8689 H 804.611 -0.962996 1.07063 0
M  V30 8690 H 806.564 -4.09889 0.978225 0
M  V30 8691 H 805.288 -3.26551 0.0564142 0
M  V30 8692 H 803.947 -2.95731 2.16654 0
M  V30 8693 H 803.595 -4.97628 0.733137 0
M  V30 8694 H 803.295 -5.34041 2.451 0
M  V30 8695 H 804.819 -5.86943 1.68317 0
M  V30 8696 H 806.233 -4.52806 3.51624 0
M  V30 8697 H 804.63 -4.23538 4.2513 0
M  V30 8698 H 805.7 -2.86272 3.91377 0
M  V30 8699 N 807.043 -1.17915 -1.04565 0
M  V30 8700 C 808.454 -0.976383 -1.59134 0
M  V30 8701 C 808.805 0.475267 -1.90357 0
M  V30 8702 O 807.93 1.35172 -1.6899 0
M  V30 8703 C 808.525 -1.76604 -2.89131 0
M  V30 8704 C 807.084 -1.60777 -3.40335 0
M  V30 8705 C 806.231 -1.76369 -2.13985 0
M  V30 8706 H 809.182 -1.32532 -0.872985 0
M  V30 8707 H 809.203 -1.25215 -3.59307 0
M  V30 8708 H 808.715 -2.82252 -2.66375 0
M  V30 8709 H 806.816 -0.576436 -3.68114 0
M  V30 8710 H 806.929 -2.40268 -4.14497 0
M  V30 8711 H 805.293 -1.19268 -2.25049 0
M  V30 8712 H 806.076 -2.83441 -1.9369 0
M  V30 8713 N 808.521 1.23394 -0.980386 0
M  V30 8714 C 809.749 1.95844 -0.667286 0
M  V30 8715 C 810.164 1.72574 0.765735 0
M  V30 8716 O 809.521 1.01715 1.51526 0
M  V30 8717 C 809.572 3.48844 -0.948151 0
M  V30 8718 O 809.293 3.71325 -2.32485 0
M  V30 8719 C 810.794 4.38494 -0.651002 0
M  V30 8720 H 808.014 0.623535 -0.247882 0
M  V30 8721 H 810.558 1.56885 -1.31176 0
M  V30 8722 H 808.713 3.85819 -0.349681 0
M  V30 8723 H 809.127 4.65619 -2.41452 0
M  V30 8724 H 810.601 5.44648 -0.897887 0
M  V30 8725 H 811.078 4.37236 0.414922 0
M  V30 8726 H 811.684 4.07127 -1.22995 0
M  V30 8727 N 809.999 0.752036 1.385 0
M  V30 8728 C 811.224 0.316993 2.04963 0
M  V30 8729 C 811.649 -1.04582 1.56346 0
M  V30 8730 O 811.007 -1.66616 0.714755 0
M  V30 8731 C 811.055 0.347235 3.58924 0
M  V30 8732 O 810.159 -0.659296 4.07096 0
M  V30 8733 H 809.5 0.140652 0.648932 0
M  V30 8734 H 812.03 1.02272 1.77205 0
M  V30 8735 H 812.04 0.19757 4.07521 0
M  V30 8736 H 810.715 1.34157 3.93668 0
M  V30 8737 H 809.292 -0.474371 3.6987 0
M  V30 8738 N 811.477 -1.49425 0.500989 0
M  V30 8739 C 812.424 -2.29126 -0.277443 0
M  V30 8740 C 813.394 -1.35522 -0.960363 0
M  V30 8741 O 814.579 -1.64479 -0.967027 0
M  V30 8742 C 811.719 -3.18193 -1.33593 0
M  V30 8743 C 810.832 -4.26854 -0.664791 0
M  V30 8744 C 809.967 -5.03137 -1.70372 0
M  V30 8745 C 809.006 -6.03635 -1.01445 0
M  V30 8746 N 808.143 -6.73083 -1.99758 0
M  V30 8747 H 812.983 -2.95187 0.408458 0
M  V30 8748 H 810.52 -1.45546 0.213275 0
M  V30 8749 H 812.478 -3.68207 -1.96161 0
M  V30 8750 H 811.108 -2.54116 -1.9906 0
M  V30 8751 H 810.16 -3.80328 0.0741708 0
M  V30 8752 H 811.472 -4.9865 -0.122197 0
M  V30 8753 H 810.626 -5.5702 -2.40445 0
M  V30 8754 H 809.365 -4.31114 -2.28017 0
M  V30 8755 H 808.37 -5.48984 -0.299496 0
M  V30 8756 H 809.595 -6.77644 -0.444497 0
M  V30 8757 H 807.541 -6.03832 -2.56365 0
M  V30 8758 H 807.458 -7.40855 -1.50565 0
M  V30 8759 H 808.726 -7.3157 -2.69119 0
M  V30 8760 N 812.955 -0.234822 -1.55841 0
M  V30 8761 C 814.18 0.400741 -2.03492 0
M  V30 8762 C 814.605 1.51618 -1.11327 0
M  V30 8763 O 813.963 1.81002 -0.103922 0
M  V30 8764 C 814.011 0.897184 -3.49261 0
M  V30 8765 O 813.115 2.00764 -3.60233 0
M  V30 8766 H 812.456 0.0890023 -0.658008 0
M  V30 8767 H 814.986 -0.357345 -2.01455 0
M  V30 8768 H 814.996 1.20356 -3.89844 0
M  V30 8769 H 813.671 0.0808639 -4.15821 0
M  V30 8770 H 812.248 1.70689 -3.31541 0
M  V30 8771 N 814.433 1.57553 0.0384317 0
M  V30 8772 C 815.661 1.93093 0.743141 0
M  V30 8773 C 816.076 0.833787 1.69391 0
M  V30 8774 O 815.433 -0.190532 1.81503 0
M  V30 8775 C 815.484 3.28533 1.50826 0
M  V30 8776 O 815.205 4.34032 0.595665 0
M  V30 8777 C 816.706 3.78297 2.31098 0
M  V30 8778 H 813.926 0.637486 0.20941 0
M  V30 8779 H 816.47 2.045 -0.00125154 0
M  V30 8780 H 814.625 3.18552 2.20462 0
M  V30 8781 H 815.039 5.12155 1.13124 0
M  V30 8782 H 816.513 4.75602 2.80191 0
M  V30 8783 H 816.99 3.09008 3.12107 0
M  V30 8784 H 817.596 3.91331 1.66555 0
M  V30 8785 N 815.911 -0.310526 1.54511 0
M  V30 8786 C 817.139 -1.06611 1.77318 0
M  V30 8787 C 817.554 -1.81265 0.528043 0
M  V30 8788 O 816.911 -1.75466 -0.50178 0
M  V30 8789 C 816.962 -2.05409 2.97472 0
M  V30 8790 O 816.683 -1.33785 4.17173 0
M  V30 8791 C 818.184 -2.93082 3.32593 0
M  V30 8792 H 815.404 -0.316578 0.591624 0
M  V30 8793 H 817.948 -0.352691 2.01436 0
M  V30 8794 H 816.103 -2.72266 2.7559 0
M  V30 8795 H 816.517 -2.00055 4.84849 0
M  V30 8796 H 817.991 -3.58274 4.19933 0
M  V30 8797 H 818.468 -3.60877 2.50329 0
M  V30 8798 H 819.074 -2.31768 3.566 0
M  V30 8799 N 817.389 -1.46805 -0.573248 0
M  V30 8800 C 818.805 -1.31969 -0.897577 0
M  V30 8801 C 819.005 -0.298171 -1.99282 0
M  V30 8802 O 818.061 0.295953 -2.5076 0
M  V30 8803 C 819.374 -2.70859 -1.30598 0
M  V30 8804 C 820.922 -2.79022 -1.4183 0
M  V30 8805 C 821.397 -4.18516 -1.86033 0
M  V30 8806 N 822.888 -4.2098 -1.9321 0
M  V30 8807 C 823.623 -5.25814 -2.28707 0
M  V30 8808 N 823.119 -6.40968 -2.6293 0
M  V30 8809 N 824.912 -5.13184 -2.29343 0
M  V30 8810 H 817.063 -2.11869 0.150094 0
M  V30 8811 H 819.326 -0.947989 0.00447895 0
M  V30 8812 H 819.032 -3.46965 -0.575161 0
M  V30 8813 H 818.906 -3.01585 -2.26554 0
M  V30 8814 H 821.293 -2.03198 -2.13996 0
M  V30 8815 H 821.374 -2.51969 -0.441024 0
M  V30 8816 H 821.018 -4.94839 -1.14442 0
M  V30 8817 H 820.948 -4.42982 -2.84735 0
M  V30 8818 H 823.439 -3.37898 -1.69214 0
M  V30 8819 H 823.752 -7.16729 -2.88996 0
M  V30 8820 H 822.097 -6.44314 -2.60547 0
M  V30 8821 H 825.288 -4.22255 -2.02036 0
M  V30 8822 H 825.461 -5.94996 -2.56679 0
M  V30 8823 N 818.867 0.818669 -1.34668 0
M  V30 8824 C 819.797 1.94468 -1.29245 0
M  V30 8825 C 820.778 1.69257 -0.169101 0
M  V30 8826 O 821.963 1.90794 -0.362143 0
M  V30 8827 C 819.093 3.31001 -1.05145 0
M  V30 8828 C 818.047 3.70663 -2.13992 0
M  V30 8829 C 817.373 5.05226 -1.75074 0
M  V30 8830 C 818.673 3.82312 -3.55858 0
M  V30 8831 H 820.367 1.99263 -2.2346 0
M  V30 8832 H 817.913 0.957304 -1.07572 0
M  V30 8833 H 819.866 4.09364 -0.999949 0
M  V30 8834 H 818.59 3.26517 -0.0737312 0
M  V30 8835 H 817.249 2.94578 -2.18219 0
M  V30 8836 H 816.897 4.97233 -0.759518 0
M  V30 8837 H 816.597 5.32734 -2.47928 0
M  V30 8838 H 818.121 5.86042 -1.71427 0
M  V30 8839 H 819.535 4.50935 -3.5402 0
M  V30 8840 H 817.932 4.21278 -4.2737 0
M  V30 8841 H 819.002 2.84193 -3.9289 0
M  V30 8842 N 820.346 1.18468 1.03938 0
M  V30 8843 C 821.623 0.890435 1.74157 0
M  V30 8844 C 822.003 -0.606409 2.02203 0
M  V30 8845 O 821.351 -1.5615 1.66822 0
M  V30 8846 C 821.561 1.73906 3.02585 0
M  V30 8847 C 822.909 1.96686 3.76297 0
M  V30 8848 O 823.933 1.70969 3.12487 0
M  V30 8849 O 822.792 2.39986 4.90988 0
M  V30 8850 H 819.886 0.330889 0.757919 0
M  V30 8851 H 822.432 1.29228 1.09992 0
M  V30 8852 H 821.204 2.75369 2.78006 0
M  V30 8853 H 820.827 1.33581 3.74489 0
M  V30 8854 N 821.824 -1.22873 0.986916 0
M  V30 8855 C 823.049 -1.96028 0.677341 0
M  V30 8856 C 823.474 -1.72487 -0.750319 0
M  V30 8857 O 822.832 -1.00036 -1.51203 0
M  V30 8858 C 822.88 -3.46983 0.981593 0
M  V30 8859 O 821.984 -4.12328 0.0770729 0
M  V30 8860 H 821.325 -0.613458 0.254096 0
M  V30 8861 H 823.855 -1.56132 1.32227 0
M  V30 8862 H 823.865 -3.9747 0.920969 0
M  V30 8863 H 822.54 -3.63442 2.02194 0
M  V30 8864 H 821.117 -3.72402 0.192666 0
M  V30 8865 N 823.302 -0.75937 -1.38099 0
M  V30 8866 C 824.579 -0.243371 -1.9408 0
M  V30 8867 C 824.959 1.25942 -1.69416 0
M  V30 8868 O 824.307 2.03667 -1.03595 0
M  V30 8869 C 824.517 -0.603328 -3.43745 0
M  V30 8870 C 825.865 -0.566195 -4.20808 0
M  V30 8871 O 826.889 -0.541969 -3.52053 0
M  V30 8872 O 825.748 -0.582261 -5.43389 0
M  V30 8873 H 822.842 -0.0526825 -0.82532 0
M  V30 8874 H 825.388 -0.839884 -1.47459 0
M  V30 8875 H 824.16 -1.64098 -3.55229 0
M  V30 8876 H 823.783 0.0208887 -3.97595 0
M  V30 8877 N 824.78 1.49157 -0.508906 0
M  V30 8878 C 826.196 1.58741 -0.165372 0
M  V30 8879 C 826.396 1.5133 1.33047 0
M  V30 8880 O 825.452 1.39135 2.10707 0
M  V30 8881 C 826.765 2.91217 -0.749194 0
M  V30 8882 C 828.313 3.047 -0.716015 0
M  V30 8883 C 828.788 4.39807 -1.27804 0
M  V30 8884 N 830.279 4.46319 -1.23908 0
M  V30 8885 C 831.014 5.49325 -1.64406 0
M  V30 8886 N 830.51 6.59395 -2.12534 0
M  V30 8887 N 832.303 5.40084 -1.55773 0
M  V30 8888 H 824.454 1.52217 -1.48134 0
M  V30 8889 H 826.717 0.721514 -0.614915 0
M  V30 8890 H 826.423 3.02233 -1.79856 0
M  V30 8891 H 826.297 3.76592 -0.214144 0
M  V30 8892 H 828.684 2.9331 0.324535 0
M  V30 8893 H 828.765 2.2099 -1.2883 0
M  V30 8894 H 828.409 4.5195 -2.31741 0
M  V30 8895 H 828.339 5.2217 -0.681623 0
M  V30 8896 H 830.83 3.67354 -0.886537 0
M  V30 8897 H 831.143 7.34102 -2.41485 0
M  V30 8898 H 829.488 6.60414 -2.16513 0
M  V30 8899 H 832.679 4.52986 -1.17987 0
M  V30 8900 H 832.852 6.20233 -1.87657 0
M  V30 8901 N 826.258 0.243083 1.55714 0
M  V30 8902 C 827.504 -0.383287 1.99145 0
M  V30 8903 C 827.837 -1.57868 1.13098 0
M  V30 8904 O 827.112 -1.93535 0.193509 0
M  V30 8905 C 827.395 -0.796879 3.51172 0
M  V30 8906 C 827.248 0.403642 4.47985 0
M  V30 8907 C 828.567 -1.64525 4.08191 0
M  V30 8908 H 825.686 -0.137843 0.723995 0
M  V30 8909 H 828.328 0.343631 1.86867 0
M  V30 8910 H 826.478 -1.41625 3.61766 0
M  V30 8911 H 828.15 1.04204 4.49376 0
M  V30 8912 H 826.393 1.04741 4.20965 0
M  V30 8913 H 827.064 0.0709794 5.51954 0
M  V30 8914 H 829.54 -1.12246 4.00674 0
M  V30 8915 H 828.416 -1.9035 5.14838 0
M  V30 8916 H 828.677 -2.61582 3.56409 0
M  V30 8917 N 827.736 -1.57571 -0.0300757 0
M  V30 8918 C 828.961 -1.93879 -0.736601 0
M  V30 8919 C 829.386 -0.842998 -1.68152 0
M  V30 8920 O 828.744 0.20135 -1.80178 0
M  V30 8921 C 828.792 -3.29247 -1.47066 0
M  V30 8922 O 827.896 -3.21426 -2.58378 0
M  V30 8923 H 827.237 -0.633735 -0.198181 0
M  V30 8924 H 829.767 -2.04595 0.0141485 0
M  V30 8925 H 829.777 -3.64113 -1.84081 0
M  V30 8926 H 828.452 -4.08565 -0.77764 0
M  V30 8927 H 827.029 -2.98189 -2.23914 0
M  V30 8928 N 829.214 0.302327 -1.54673 0
M  V30 8929 C 830.439 1.06103 -1.78205 0
M  V30 8930 C 830.864 1.80204 -0.53926 0
M  V30 8931 O 830.222 1.73975 0.510142 0
M  V30 8932 C 830.27 2.01829 -2.98827 0
M  V30 8933 O 829.374 3.10108 -2.71858 0
M  V30 8934 H 828.715 0.30487 -0.589873 0
M  V30 8935 H 831.245 0.340153 -2.01753 0
M  V30 8936 H 831.255 2.44319 -3.2676 0
M  V30 8937 H 829.93 1.473 -3.88942 0
M  V30 8938 H 828.507 2.72142 -2.54937 0
M  V30 8939 N 830.692 1.47107 0.565454 0
M  V30 8940 C 831.655 1.58535 1.65527 0
M  V30 8941 C 832.655 0.461081 1.54048 0
M  V30 8942 O 833.845 0.725911 1.58355 0
M  V30 8943 C 830.977 1.52204 3.05036 0
M  V30 8944 H 832.17 2.55676 1.56747 0
M  V30 8945 H 829.723 1.35174 0.78471 0
M  V30 8946 H 830.458 0.564071 3.19357 0
M  V30 8947 H 830.243 2.3379 3.14777 0
M  V30 8948 H 831.733 1.63322 3.84338 0
M  V30 8949 N 832.17 -0.811516 1.35101 0
M  V30 8950 C 833.395 -1.60499 1.31358 0
M  V30 8951 C 833.82 -1.87793 -0.107383 0
M  V30 8952 O 833.178 -1.46161 -1.07268 0
M  V30 8953 C 833.226 -2.91612 2.12119 0
M  V30 8954 O 832.33 -3.84211 1.49853 0
M  V30 8955 H 831.671 -0.487702 0.450603 0
M  V30 8956 H 834.201 -1.00758 1.7807 0
M  V30 8957 H 834.211 -3.4108 2.23894 0
M  V30 8958 H 832.886 -2.71071 3.15426 0
M  V30 8959 H 831.463 -3.42751 1.46889 0
M  V30 8960 N 833.648 -1.19017 -1.03309 0
M  V30 8961 C 834.873 -1.01598 -1.80811 0
M  V30 8962 C 835.298 0.430773 -1.83101 0
M  V30 8963 O 834.656 1.30946 -1.25391 0
M  V30 8964 C 834.704 -1.5845 -3.23923 0
M  V30 8965 O 833.808 -0.810972 -4.04348 0
M  V30 8966 H 833.149 -0.359398 -0.558327 0
M  V30 8967 H 835.679 -1.57945 -1.30055 0
M  V30 8968 H 835.689 -1.61486 -3.74682 0
M  V30 8969 H 834.364 -2.63752 -3.21571 0
M  V30 8970 H 832.941 -0.85353 -3.63 0
M  V30 8971 N 835.127 1.22348 -0.993418 0
M  V30 8972 C 836.355 1.95125 -0.688021 0
M  V30 8973 C 836.77 1.73377 0.747388 0
M  V30 8974 O 836.127 1.03317 1.50439 0
M  V30 8975 C 836.178 3.47819 -0.985097 0
M  V30 8976 O 835.899 3.68838 -2.3641 0
M  V30 8977 C 837.4 4.37779 -0.697474 0
M  V30 8978 H 834.62 0.62087 -0.254481 0
M  V30 8979 H 837.164 1.55485 -1.32833 0
M  V30 8980 H 835.319 3.85426 -0.390583 0
M  V30 8981 H 835.733 4.63032 -2.46377 0
M  V30 8982 H 837.207 5.43666 -0.955604 0
M  V30 8983 H 837.684 4.37651 0.368524 0
M  V30 8984 H 838.29 4.05799 -1.27306 0
M  V30 8985 N 836.605 0.766683 1.37694 0
M  V30 8986 C 837.568 0.155849 2.2867 0
M  V30 8987 C 838.568 -0.633509 1.47795 0
M  V30 8988 O 839.758 -0.457844 1.68076 0
M  V30 8989 C 836.89 -0.786965 3.31692 0
M  V30 8990 H 838.083 0.957748 2.84196 0
M  V30 8991 H 835.636 0.534554 1.46875 0
M  V30 8992 H 836.371 -1.61406 2.8128 0
M  V30 8993 H 836.156 -0.223182 3.91464 0
M  V30 8994 H 837.646 -1.20994 3.99688 0
M  V30 8995 N 838.083 -1.48885 0.516809 0
M  V30 8996 C 838.993 -2.33185 -0.257293 0
M  V30 8997 C 840.009 -1.4565 -0.951952 0
M  V30 8998 O 841.185 -1.78651 -0.929834 0
M  V30 8999 C 838.25 -3.21465 -1.29851 0
M  V30 9000 C 837.311 -4.24863 -0.615608 0
M  V30 9001 C 836.544 -5.08925 -1.60722 0
M  V30 9002 O 836.767 -4.9475 -2.83863 0
M  V30 9003 O 835.701 -5.90737 -1.15384 0
M  V30 9004 H 839.527 -3.00596 0.433131 0
M  V30 9005 H 837.112 -1.46792 0.277908 0
M  V30 9006 H 838.994 -3.76108 -1.90055 0
M  V30 9007 H 837.669 -2.5673 -1.97158 0
M  V30 9008 H 836.576 -3.74091 0.0265829 0
M  V30 9009 H 837.909 -4.92198 0.0152871 0
M  V30 9010 N 839.561 -0.251338 -1.55583 0
M  V30 9011 C 840.977 0.103409 -1.59265 0
M  V30 9012 C 841.177 1.56559 -1.26852 0
M  V30 9013 O 840.233 2.31071 -1.01796 0
M  V30 9014 C 841.546 -0.249781 -2.99661 0
M  V30 9015 C 843.094 -0.194442 -3.12395 0
M  V30 9016 C 843.569 -0.521728 -4.55019 0
M  V30 9017 N 845.06 -0.472393 -4.60785 0
M  V30 9018 C 845.795 -0.698737 -5.69127 0
M  V30 9019 N 845.291 -0.988443 -6.85713 0
M  V30 9020 N 847.084 -0.629143 -5.58568 0
M  V30 9021 H 839.235 -1.20484 -1.74921 0
M  V30 9022 H 841.498 -0.485092 -0.814488 0
M  V30 9023 H 841.204 -1.26577 -3.28133 0
M  V30 9024 H 841.078 0.420973 -3.74844 0
M  V30 9025 H 843.465 0.812229 -2.83702 0
M  V30 9026 H 843.546 -0.899111 -2.39478 0
M  V30 9027 H 843.19 -1.52597 -4.84434 0
M  V30 9028 H 843.12 0.204468 -5.26203 0
M  V30 9029 H 845.611 -0.257386 -3.77022 0
M  V30 9030 H 845.924 -1.14846 -7.64219 0
M  V30 9031 H 844.269 -1.02596 -6.87386 0
M  V30 9032 H 847.46 -0.402826 -4.66364 0
M  V30 9033 H 847.633 -0.808935 -6.42931 0
M  V30 9034 N 841.039 1.57585 0.0217189 0
M  V30 9035 C 842.287 1.89231 0.709641 0
M  V30 9036 C 842.608 0.849964 1.75501 0
M  V30 9037 O 841.878 -0.115485 1.95559 0
M  V30 9038 H 840.458 0.69838 0.265092 0
M  V30 9039 H 843.12 1.94895 -0.0140688 0
M  V30 9040 H 842.216 2.88333 1.19459 0
M  V30 9041 N 842.517 -0.29412 1.54831 0
M  V30 9042 C 843.45 -1.38779 1.81151 0
M  V30 9043 C 844.428 -1.48464 0.663124 0
M  V30 9044 O 845.612 -1.65418 0.903835 0
M  V30 9045 C 842.739 -2.76627 1.95436 0
M  V30 9046 C 841.785 -2.84333 3.17895 0
M  V30 9047 S 842.618 -2.45726 4.75793 0
M  V30 9048 C 843.774 -3.85589 4.93023 0
M  V30 9049 H 844.007 -1.16246 2.73631 0
M  V30 9050 H 841.54 -0.492611 1.46331 0
M  V30 9051 H 843.498 -3.56021 2.04351 0
M  V30 9052 H 842.159 -2.96425 1.03881 0
M  V30 9053 H 841.352 -3.85457 3.24713 0
M  V30 9054 H 840.954 -2.1294 3.07461 0
M  V30 9055 H 843.246 -4.80656 4.77468 0
M  V30 9056 H 844.189 -3.83737 5.95107 0
M  V30 9057 H 844.597 -3.75911 4.21131 0
M  V30 9058 N 843.995 -1.47404 -0.557645 0
M  V30 9059 C 845.241 -1.54235 -1.31679 0
M  V30 9060 C 845.574 -0.203782 -1.93128 0
M  V30 9061 O 844.849 0.787536 -1.77843 0
M  V30 9062 C 845.132 -2.66003 -2.42723 0
M  V30 9063 C 844.985 -4.09475 -1.86145 0
M  V30 9064 C 846.304 -2.73685 -3.44652 0
M  V30 9065 H 843.423 -0.561466 -0.477415 0
M  V30 9066 H 846.065 -1.79459 -0.624067 0
M  V30 9067 H 844.215 -2.44627 -3.01811 0
M  V30 9068 H 845.887 -4.42213 -1.31321 0
M  V30 9069 H 844.13 -4.17774 -1.16823 0
M  V30 9070 H 844.801 -4.83451 -2.66418 0
M  V30 9071 H 847.277 -2.92968 -2.95481 0
M  V30 9072 H 846.153 -3.53665 -4.19777 0
M  V30 9073 H 846.414 -1.80726 -4.03473 0
M  V30 9074 N 845.473 0.80434 -1.35529 0
M  V30 9075 C 846.42 1.91629 -1.28635 0
M  V30 9076 C 847.39 1.65348 -0.157862 0
M  V30 9077 O 848.575 1.87711 -0.341934 0
M  V30 9078 C 845.715 3.28207 -1.0665 0
M  V30 9079 C 844.828 3.66659 -2.28441 0
M  V30 9080 C 843.963 4.92279 -1.99588 0
M  V30 9081 C 843.002 5.23365 -3.1742 0
M  V30 9082 N 842.139 6.40165 -2.88328 0
M  V30 9083 H 846.979 1.96858 -2.23721 0
M  V30 9084 H 844.516 0.962871 -1.11208 0
M  V30 9085 H 846.474 4.06945 -0.919343 0
M  V30 9086 H 845.104 3.22441 -0.152253 0
M  V30 9087 H 844.156 2.83164 -2.54013 0
M  V30 9088 H 845.468 3.8559 -3.1642 0
M  V30 9089 H 844.622 5.78847 -1.81715 0
M  V30 9090 H 843.361 4.75387 -1.08896 0
M  V30 9091 H 842.366 4.35285 -3.35867 0
M  V30 9092 H 843.591 5.42185 -4.08916 0
M  V30 9093 H 841.537 6.24694 -2.00233 0
M  V30 9094 H 841.454 6.59357 -3.69843 0
M  V30 9095 H 842.722 7.29755 -2.74002 0
M  V30 9096 N 846.951 1.19563 1.02676 0
M  V30 9097 C 848.362 1.00158 1.57561 0
M  V30 9098 C 848.713 -0.444922 1.91089 0
M  V30 9099 O 847.838 -1.32466 1.71119 0
M  V30 9100 C 848.433 1.81181 2.86284 0
M  V30 9101 C 846.992 1.66171 3.37734 0
M  V30 9102 C 846.139 1.7975 2.11152 0
M  V30 9103 H 849.09 1.33904 0.85179 0
M  V30 9104 H 849.111 1.30916 3.57269 0
M  V30 9105 H 848.623 2.86454 2.6185 0
M  V30 9106 H 846.724 0.634927 3.6715 0
M  V30 9107 H 846.837 2.46832 4.10622 0
M  V30 9108 H 845.201 1.22833 2.23123 0
M  V30 9109 H 845.984 2.86487 1.89157 0
M  V30 9110 N 848.429 -1.21819 0.999893 0
M  V30 9111 C 849.362 -2.22635 0.500887 0
M  V30 9112 C 850.34 -1.56459 -0.442636 0
M  V30 9113 O 851.524 -1.84902 -0.366551 0
M  V30 9114 C 848.651 -3.37598 -0.273046 0
M  V30 9115 C 847.697 -4.22006 0.617511 0
M  V30 9116 S 848.53 -4.93583 2.07693 0
M  V30 9117 C 849.686 -6.1198 1.31269 0
M  V30 9118 H 849.919 -2.64618 1.35516 0
M  V30 9119 H 847.452 -1.31606 0.807419 0
M  V30 9120 H 849.41 -4.04251 -0.713515 0
M  V30 9121 H 848.071 -2.94108 -1.10268 0
M  V30 9122 H 847.264 -5.03995 0.0216543 0
M  V30 9123 H 846.866 -3.6052 0.99504 0
M  V30 9124 H 849.158 -6.74979 0.583933 0
M  V30 9125 H 850.101 -6.75991 2.10811 0
M  V30 9126 H 850.509 -5.5847 0.822901 0
M  V30 9127 N 849.908 -0.773975 -1.37286 0
M  V30 9128 C 851.157 -0.335977 -1.98882 0
M  V30 9129 C 851.47 1.09416 -1.62134 0
M  V30 9130 O 852.676 1.63366 -2.1685 0
M  V30 9131 C 851.132 -0.549756 -3.55676 0
M  V30 9132 C 850.74 -1.9903 -4.01361 0
M  V30 9133 C 852.484 -0.175493 -4.24137 0
M  V30 9134 C 850.391 -2.15156 -5.50874 0
M  V30 9135 H 849.321 -0.121877 -0.744085 0
M  V30 9136 H 851.972 -0.953419 -1.56787 0
M  V30 9137 H 850.354 0.137175 -3.95762 0
M  V30 9138 H 851.528 -2.71237 -3.72515 0
M  V30 9139 H 849.843 -2.32137 -3.4569 0
M  V30 9140 H 852.44 -0.274463 -5.33995 0
M  V30 9141 H 852.783 0.874524 -4.07011 0
M  V30 9142 H 853.316 -0.815058 -3.89361 0
M  V30 9143 H 850.055 -3.18485 -5.72929 0
M  V30 9144 H 849.575 -1.47435 -5.81397 0
M  V30 9145 H 851.254 -1.95124 -6.16876 0
M  V30 9146 N 851.386 1.48609 -0.524698 0
M  V30 9147 C 852.802 1.58557 -0.182199 0
M  V30 9148 C 853.002 1.52732 1.31435 0
M  V30 9149 O 852.058 1.41362 2.0922 0
M  V30 9150 C 853.371 2.90406 -0.78004 0
M  V30 9151 C 854.919 3.03924 -0.748293 0
M  V30 9152 C 855.394 4.38427 -1.32462 0
M  V30 9153 N 856.885 4.4498 -1.28635 0
M  V30 9154 C 857.62 5.47551 -1.70223 0
M  V30 9155 N 857.116 6.57103 -2.19515 0
M  V30 9156 N 858.909 5.38402 -1.61493 0
M  V30 9157 H 851.06 1.50638 -1.4974 0
M  V30 9158 H 853.323 0.714952 -0.622533 0
M  V30 9159 H 853.029 3.00308 -1.83052 0
M  V30 9160 H 852.903 3.76343 -0.254075 0
M  V30 9161 H 855.29 2.93638 0.293407 0
M  V30 9162 H 855.371 2.19611 -1.31167 0
M  V30 9163 H 855.015 4.49466 -2.36522 0
M  V30 9164 H 854.945 5.21418 -0.736967 0
M  V30 9165 H 857.436 3.66393 -0.92545 0
M  V30 9166 H 857.749 7.31499 -2.49257 0
M  V30 9167 H 856.094 6.58081 -2.23506 0
M  V30 9168 H 859.285 4.5171 -1.22785 0
M  V30 9169 H 859.458 6.18208 -1.94225 0
M  V30 9170 N 852.864 0.259585 1.55447 0
M  V30 9171 C 854.11 -0.362143 1.9954 0
M  V30 9172 C 854.443 -1.5666 1.14767 0
M  V30 9173 O 853.718 -1.93319 0.214025 0
M  V30 9174 C 854.001 -0.759588 3.51998 0
M  V30 9175 C 853.854 0.451134 4.47532 0
M  V30 9176 C 855.173 -1.60186 4.09913 0
M  V30 9177 H 852.292 -0.130157 0.725416 0
M  V30 9178 H 854.934 0.363431 1.86492 0
M  V30 9179 H 853.084 -1.3778 3.63248 0
M  V30 9180 H 854.756 1.08965 4.48246 0
M  V30 9181 H 852.999 1.092 4.19831 0
M  V30 9182 H 853.67 0.129518 5.51848 0
M  V30 9183 H 856.146 -1.0799 4.01842 0
M  V30 9184 H 855.022 -1.84879 5.16828 0
M  V30 9185 H 855.283 -2.57787 3.59163 0
M  V30 9186 N 854.342 -1.57594 -0.0133615 0
M  V30 9187 C 855.252 -2.10991 -1.02566 0
M  V30 9188 C 856.268 -1.05208 -1.3859 0
M  V30 9189 O 857.444 -1.37034 -1.47593 0
M  V30 9190 C 854.509 -2.59165 -2.30292 0
M  V30 9191 C 853.57 -3.79495 -2.00704 0
M  V30 9192 C 852.803 -4.25361 -3.22341 0
M  V30 9193 O 853.026 -3.70645 -4.33565 0
M  V30 9194 O 851.96 -5.17649 -3.07121 0
M  V30 9195 H 855.786 -2.97678 -0.601806 0
M  V30 9196 H 853.371 -1.47598 -0.23135 0
M  V30 9197 H 855.253 -2.90409 -3.05354 0
M  V30 9198 H 853.928 -1.75582 -2.71942 0
M  V30 9199 H 852.835 -3.53245 -1.23161 0
M  V30 9200 H 854.168 -4.64109 -1.639 0
M  V30 9201 N 855.82 0.285905 -1.54985 0
M  V30 9202 C 856.752 1.37505 -1.83371 0
M  V30 9203 C 857.765 1.46138 -0.717454 0
M  V30 9204 O 858.954 1.48186 -0.995142 0
M  V30 9205 C 856.054 2.7575 -1.97016 0
M  V30 9206 C 855.227 2.89866 -3.27561 0
M  V30 9207 C 854.286 4.08704 -3.31433 0
M  V30 9208 O 853.312 4.00073 -4.04883 0
M  V30 9209 N 854.514 5.20062 -2.57907 0
M  V30 9210 H 857.279 1.13505 -2.77375 0
M  V30 9211 H 854.84 0.476006 -1.54744 0
M  V30 9212 H 856.832 3.5352 -1.96991 0
M  V30 9213 H 855.402 2.9263 -1.09938 0
M  V30 9214 H 854.622 1.99085 -3.40234 0
M  V30 9215 H 855.91 2.96219 -4.13681 0
M  V30 9216 H 855.308 5.29958 -1.97891 0
M  V30 9217 H 853.865 5.96111 -2.63619 0
M  V30 9218 N 857.298 1.47698 0.54982 0
M  V30 9219 C 858.23 1.56806 1.67166 0
M  V30 9220 C 859.243 0.453709 1.5635 0
M  V30 9221 O 860.432 0.723663 1.63173 0
M  V30 9222 C 857.532 1.4632 3.05686 0
M  V30 9223 C 856.705 2.72452 3.42182 0
M  V30 9224 C 855.764 2.55698 4.59897 0
M  V30 9225 O 854.79 3.29534 4.64108 0
M  V30 9226 N 855.992 1.64009 5.56849 0
M  V30 9227 H 858.757 2.53545 1.59797 0
M  V30 9228 H 856.318 1.44171 0.736635 0
M  V30 9229 H 858.31 1.32835 3.82279 0
M  V30 9230 H 856.88 0.57634 3.07241 0
M  V30 9231 H 856.1 3.00644 2.54964 0
M  V30 9232 H 857.388 3.56172 3.63344 0
M  V30 9233 H 856.786 1.03186 5.5621 0
M  V30 9234 H 855.343 1.56473 6.3274 0
M  V30 9235 N 858.776 -0.797141 1.35954 0
M  V30 9236 C 860.187 -1.37179 1.26644 0
M  V30 9237 C 860.538 -1.9596 -0.0971046 0
M  V30 9238 O 859.663 -1.91994 -0.998355 0
M  V30 9239 C 860.258 -2.49395 2.2932 0
M  V30 9240 C 858.817 -3.02697 2.23722 0
M  V30 9241 C 857.964 -1.75721 2.14517 0
M  V30 9242 H 860.915 -0.599407 1.46945 0
M  V30 9243 H 860.936 -3.28204 1.92515 0
M  V30 9244 H 860.448 -2.06584 3.2855 0
M  V30 9245 H 858.549 -3.49948 1.27934 0
M  V30 9246 H 858.662 -3.60036 3.16087 0
M  V30 9247 H 857.026 -1.97649 1.60646 0
M  V30 9248 H 857.809 -1.35049 3.15621 0
M  V30 9249 N 860.254 -1.20106 -1.0204 0
M  V30 9250 C 861.531 -0.918029 -1.72718 0
M  V30 9251 C 861.911 0.574163 -2.03142 0
M  V30 9252 O 861.259 1.53476 -1.69285 0
M  V30 9253 C 861.469 -1.78698 -2.9978 0
M  V30 9254 C 862.817 -2.02648 -3.7312 0
M  V30 9255 O 863.841 -1.75919 -3.09727 0
M  V30 9256 O 862.7 -2.47767 -4.87107 0
M  V30 9257 H 859.794 -0.342904 -0.752559 0
M  V30 9258 H 862.34 -1.30961 -1.07923 0
M  V30 9259 H 861.112 -2.79757 -2.7359 0
M  V30 9260 H 860.735 -1.39522 -3.72316 0
M  V30 9261 N 861.732 1.21287 -1.00634 0
M  V30 9262 C 862.962 1.94103 -0.70765 0
M  V30 9263 C 863.37 1.74382 0.733991 0
M  V30 9264 O 862.713 1.04843 1.50843 0
M  V30 9265 C 862.775 3.46705 -0.950581 0
M  V30 9266 C 862.439 3.90176 -2.37932 0
M  V30 9267 C 863.436 3.96769 -3.35961 0
M  V30 9268 C 861.121 4.22453 -2.71733 0
M  V30 9269 C 863.115 4.35034 -4.65858 0
M  V30 9270 C 860.802 4.60394 -4.01846 0
M  V30 9271 C 861.8 4.66656 -4.9872 0
M  V30 9272 O 861.488 5.03732 -6.26505 0
M  V30 9273 H 861.22 0.62405 -0.259881 0
M  V30 9274 H 863.774 1.55015 -1.34757 0
M  V30 9275 H 862.004 3.85868 -0.253492 0
M  V30 9276 H 863.693 4.00741 -0.645069 0
M  V30 9277 H 864.459 3.72009 -3.11182 0
M  V30 9278 H 860.338 4.16776 -1.97025 0
M  V30 9279 H 863.882 4.39836 -5.4147 0
M  V30 9280 H 859.779 4.84609 -4.26409 0
M  V30 9281 H 860.547 5.21761 -6.30641 0
M  V30 9282 N 863.21 0.781244 1.36873 0
M  V30 9283 C 864.626 0.461968 1.52768 0
M  V30 9284 C 864.826 -1.02099 1.73719 0
M  V30 9285 O 863.882 -1.80665 1.76399 0
M  V30 9286 C 865.195 1.2853 2.71846 0
M  V30 9287 C 866.743 1.27817 2.85713 0
M  V30 9288 C 867.218 2.08506 4.07786 0
M  V30 9289 N 868.709 2.05909 4.14917 0
M  V30 9290 C 869.444 2.65118 5.08429 0
M  V30 9291 N 868.94 3.33152 6.07438 0
M  V30 9292 N 870.733 2.54896 5.00983 0
M  V30 9293 H 862.884 1.74198 1.21527 0
M  V30 9294 H 865.147 0.740027 0.592506 0
M  V30 9295 H 864.853 2.3366 2.62861 0
M  V30 9296 H 864.727 0.920981 3.65784 0
M  V30 9297 H 867.114 0.234817 2.94164 0
M  V30 9298 H 867.195 1.68219 1.92707 0
M  V30 9299 H 866.839 3.12867 4.00096 0
M  V30 9300 H 866.769 1.65479 4.99924 0
M  V30 9301 H 869.26 1.56386 3.44023 0
M  V30 9302 H 869.573 3.75681 6.75339 0
M  V30 9303 H 867.918 3.37253 6.07689 0
M  V30 9304 H 871.109 2.01352 4.22581 0
M  V30 9305 H 871.282 3.01332 5.73675 0
M  V30 9306 N 864.689 -1.48329 0.532571 0
M  V30 9307 C 866.105 -1.58458 0.190605 0
M  V30 9308 C 866.305 -1.53427 -1.30623 0
M  V30 9309 O 865.361 -1.4247 -2.08467 0
M  V30 9310 C 866.674 -2.89989 0.79543 0
M  V30 9311 C 868.222 -3.03523 0.7644 0
M  V30 9312 C 868.697 -4.37718 1.34785 0
M  V30 9313 N 870.188 -4.44292 1.30993 0
M  V30 9314 C 870.923 -5.4664 1.73124 0
M  V30 9315 N 870.419 -6.5593 2.22997 0
M  V30 9316 N 872.212 -5.37538 1.64346 0
M  V30 9317 H 864.363 -1.49842 1.50537 0
M  V30 9318 H 866.626 -0.71164 0.626316 0
M  V30 9319 H 866.332 -2.99333 1.84642 0
M  V30 9320 H 866.206 -3.76203 0.27403 0
M  V30 9321 H 868.593 -2.93789 -0.277831 0
M  V30 9322 H 868.674 -2.18912 1.3233 0
M  V30 9323 H 868.318 -4.48206 2.38902 0
M  V30 9324 H 868.248 -5.21019 0.764609 0
M  V30 9325 H 870.739 -3.65897 0.944868 0
M  V30 9326 H 871.052 -7.30167 2.53133 0
M  V30 9327 H 869.397 -6.56886 2.26992 0
M  V30 9328 H 872.588 -4.51052 1.25178 0
M  V30 9329 H 872.761 -6.17169 1.97501 0
M  V30 9330 N 866.167 -0.267825 -1.55308 0
M  V30 9331 C 867.099 0.65591 -2.19614 0
M  V30 9332 C 868.112 1.12302 -1.17865 0
M  V30 9333 O 869.301 1.04618 -1.44628 0
M  V30 9334 C 866.401 1.90582 -2.80235 0
M  V30 9335 C 865.574 1.58673 -4.07605 0
M  V30 9336 C 864.633 2.68836 -4.52343 0
M  V30 9337 O 863.659 2.35331 -5.18274 0
M  V30 9338 N 864.861 3.98752 -4.21873 0
M  V30 9339 H 867.626 0.105566 -2.99514 0
M  V30 9340 H 865.187 -0.0886263 -1.61657 0
M  V30 9341 H 867.179 2.63561 -3.07112 0
M  V30 9342 H 865.749 2.3654 -2.04371 0
M  V30 9343 H 864.969 0.691113 -3.88094 0
M  V30 9344 H 866.257 1.34845 -4.90606 0
M  V30 9345 H 865.655 4.28797 -3.68985 0
M  V30 9346 H 864.212 4.68131 -4.53537 0
M  V30 9347 N 867.645 1.57599 0.00500368 0
M  V30 9348 C 868.555 2.11532 1.01446 0
M  V30 9349 C 869.571 1.05941 1.3803 0
M  V30 9350 O 870.747 1.37815 1.46864 0
M  V30 9351 C 867.812 2.60382 2.28915 0
M  V30 9352 C 866.873 3.80554 1.98689 0
M  V30 9353 C 866.106 4.27064 3.20081 0
M  V30 9354 O 866.329 3.72939 4.31593 0
M  V30 9355 O 865.263 5.1927 3.04371 0
M  V30 9356 H 869.089 2.97993 0.586011 0
M  V30 9357 H 866.674 1.47718 0.223519 0
M  V30 9358 H 868.556 2.92024 3.03809 0
M  V30 9359 H 867.231 1.77022 2.71007 0
M  V30 9360 H 866.138 3.53893 1.21286 0
M  V30 9361 H 867.471 4.64972 1.61437 0
M  V30 9362 N 869.123 -0.277682 1.55134 0
M  V30 9363 C 870.348 -1.03254 1.7987 0
M  V30 9364 C 870.773 -1.79324 0.567861 0
M  V30 9365 O 870.131 -1.74764 -0.4824 0
M  V30 9366 C 870.179 -1.9705 3.02 0
M  V30 9367 O 869.283 -3.05744 2.76757 0
M  V30 9368 H 868.624 -0.295447 0.594649 0
M  V30 9369 H 871.154 -0.308013 2.02268 0
M  V30 9370 H 871.164 -2.3909 3.30606 0
M  V30 9371 H 869.839 -1.41094 3.91236 0
M  V30 9372 H 868.416 -2.68052 2.59235 0
M  V30 9373 N 870.601 -1.47988 -0.541979 0
M  V30 9374 C 872.017 -1.33843 -0.869383 0
M  V30 9375 C 872.217 -0.340374 -1.98604 0
M  V30 9376 O 871.273 0.242696 -2.51331 0
M  V30 9377 C 872.586 -2.73568 -1.24823 0
M  V30 9378 C 874.134 -2.81967 -1.3588 0
M  V30 9379 C 874.609 -4.22368 -1.77114 0
M  V30 9380 N 876.1 -4.24983 -1.84237 0
M  V30 9381 C 876.835 -5.30547 -2.17503 0
M  V30 9382 N 876.331 -6.46401 -2.49275 0
M  V30 9383 N 878.124 -5.17933 -2.18406 0
M  V30 9384 H 870.275 -2.11503 0.195001 0
M  V30 9385 H 872.538 -0.947681 0.0245862 0
M  V30 9386 H 872.244 -3.48107 -0.501435 0
M  V30 9387 H 872.118 -3.06322 -2.20106 0
M  V30 9388 H 874.505 -2.07692 -2.09638 0
M  V30 9389 H 874.586 -2.52848 -0.387478 0
M  V30 9390 H 874.23 -4.97155 -1.0392 0
M  V30 9391 H 874.16 -4.48922 -2.75275 0
M  V30 9392 H 876.651 -3.41411 -1.62009 0
M  V30 9393 H 876.964 -7.22698 -2.73729 0
M  V30 9394 H 875.309 -6.49696 -2.46821 0
M  V30 9395 H 878.5 -4.26445 -1.93034 0
M  V30 9396 H 878.673 -6.00307 -2.44 0
M  V30 9397 N 872.079 0.78992 -1.36375 0
M  V30 9398 C 873.307 1.57873 -1.3373 0
M  V30 9399 C 873.722 1.88624 0.0815544 0
M  V30 9400 O 873.079 1.50085 1.03831 0
M  V30 9401 C 873.13 2.90003 -2.15825 0
M  V30 9402 O 872.851 2.60578 -3.5218 0
M  V30 9403 C 874.352 3.84309 -2.20955 0
M  V30 9404 H 871.572 0.489685 -0.458748 0
M  V30 9405 H 874.116 0.980436 -1.79465 0
M  V30 9406 H 872.271 3.46303 -1.73646 0
M  V30 9407 H 872.685 3.4506 -3.95011 0
M  V30 9408 H 874.159 4.74081 -2.82756 0
M  V30 9409 H 874.636 4.22121 -1.21287 0
M  V30 9410 H 875.242 3.33942 -2.63368 0
M  V30 9411 N 873.557 1.20646 1.01402 0
M  V30 9412 C 874.489 0.915392 2.10127 0
M  V30 9413 C 875.502 -0.0978705 1.62506 0
M  V30 9414 O 876.691 0.133477 1.78 0
M  V30 9415 C 873.791 0.351304 3.37074 0
M  V30 9416 C 872.964 1.41673 4.13821 0
M  V30 9417 C 872.023 0.8635 5.19067 0
M  V30 9418 O 871.049 1.54481 5.47836 0
M  V30 9419 N 872.251 -0.325799 5.79585 0
M  V30 9420 H 875.016 1.85132 2.35682 0
M  V30 9421 H 872.577 1.11048 1.17813 0
M  V30 9422 H 874.569 -0.032996 4.04687 0
M  V30 9423 H 873.139 -0.489242 3.08748 0
M  V30 9424 H 872.359 1.97526 3.41141 0
M  V30 9425 H 873.647 2.1342 4.61876 0
M  V30 9426 H 873.045 -0.896534 5.58551 0
M  V30 9427 H 871.602 -0.651708 6.48534 0
M  V30 9428 N 875.035 -1.20752 1.01276 0
M  V30 9429 C 876.312 -1.85676 0.615112 0
M  V30 9430 C 876.692 -1.90623 -0.906976 0
M  V30 9431 O 876.04 -1.41124 -1.79712 0
M  V30 9432 C 876.25 -3.2552 1.25847 0
M  V30 9433 C 877.598 -4.0184 1.37148 0
M  V30 9434 O 878.622 -3.3486 1.21438 0
M  V30 9435 O 877.481 -5.21783 1.62495 0
M  V30 9436 H 874.575 -0.799437 0.211729 0
M  V30 9437 H 877.121 -1.28372 1.10989 0
M  V30 9438 H 875.893 -3.16664 2.29869 0
M  V30 9439 H 875.516 -3.90452 0.750524 0
M  V30 9440 N 876.513 -0.788492 -1.36457 0
M  V30 9441 C 877.476 -0.192209 -2.28393 0
M  V30 9442 C 878.476 0.609916 -1.48784 0
M  V30 9443 O 879.666 0.431046 -1.68783 0
M  V30 9444 C 876.798 0.734096 -3.32902 0
M  V30 9445 H 877.991 -1.00284 -2.82636 0
M  V30 9446 H 875.544 -0.557852 -1.46006 0
M  V30 9447 H 876.279 1.5691 -2.83813 0
M  V30 9448 H 876.064 0.160875 -3.9177 0
M  V30 9449 H 877.554 1.1462 -4.01562 0
M  V30 9450 N 877.991 1.48044 -0.54043 0
M  V30 9451 C 879.216 2.07396 -0.0124765 0
M  V30 9452 C 879.641 1.39288 1.26414 0
M  V30 9453 O 878.999 0.462252 1.75308 0
M  V30 9454 C 879.047 3.60131 0.18377 0
M  V30 9455 O 878.151 3.92995 1.25014 0
M  V30 9456 H 877.492 0.662554 -0.0438026 0
M  V30 9457 H 880.022 1.90306 -0.751327 0
M  V30 9458 H 880.032 4.06003 0.403197 0
M  V30 9459 H 878.707 4.09105 -0.74874 0
M  V30 9460 H 877.284 3.5889 1.01254 0
M  V30 9461 N 879.47 0.276058 1.55163 0
M  V30 9462 C 880.718 -0.339782 1.99223 0
M  V30 9463 C 881.039 -1.56307 1.16589 0
M  V30 9464 O 880.309 -1.94225 0.25564 0
M  V30 9465 H 878.889 -0.128534 0.735859 0
M  V30 9466 H 881.551 0.381612 1.91128 0
M  V30 9467 H 880.647 -0.629 3.05696 0
M  V30 9468 N 880.948 -1.576 0.00335426 0
M  V30 9469 C 882.359 -1.7875 -0.539008 0
M  V30 9470 C 882.71 -0.911097 -1.73763 0
M  V30 9471 O 881.835 -0.114476 -2.16097 0
M  V30 9472 C 882.43 -3.24177 -0.984611 0
M  V30 9473 C 880.989 -3.46412 -1.47226 0
M  V30 9474 C 880.136 -2.74024 -0.425004 0
M  V30 9475 H 883.087 -1.57032 0.229511 0
M  V30 9476 H 883.108 -3.32474 -1.85044 0
M  V30 9477 H 882.62 -3.87938 -0.112035 0
M  V30 9478 H 880.721 -2.8787 -2.36562 0
M  V30 9479 H 880.834 -4.55098 -1.49741 0
M  V30 9480 H 879.198 -2.38741 -0.887394 0
M  V30 9481 H 879.981 -3.40486 0.438662 0
M  V30 9482 N 882.426 0.269451 -1.5528 0
M  V30 9483 C 883.336 1.35511 -1.91505 0
M  V30 9484 C 884.352 1.53854 -0.812712 0
M  V30 9485 O 885.528 1.67912 -1.1121 0
M  V30 9486 C 882.593 2.6937 -2.18267 0
M  V30 9487 C 881.654 2.59743 -3.41807 0
M  V30 9488 C 880.887 3.87219 -3.67283 0
M  V30 9489 O 881.11 4.88066 -2.95208 0
M  V30 9490 O 880.044 3.87209 -4.60818 0
M  V30 9491 H 883.87 1.07785 -2.8393 0
M  V30 9492 H 881.455 0.468282 -1.41871 0
M  V30 9493 H 883.337 3.48513 -2.36889 0
M  V30 9494 H 882.012 2.96874 -1.29024 0
M  V30 9495 H 880.919 1.78964 -3.28516 0
M  V30 9496 H 882.252 2.37188 -4.3128 0
M  V30 9497 N 883.904 1.48273 0.534124 0
M  V30 9498 C 884.834 1.6538 1.64839 0
M  V30 9499 C 885.815 0.502741 1.62501 0
M  V30 9500 O 887 0.734799 1.79762 0
M  V30 9501 C 884.13 1.68949 3.03436 0
M  V30 9502 C 883.084 2.83513 3.20631 0
M  V30 9503 C 882.41 2.72169 4.60248 0
M  V30 9504 C 883.71 4.24858 3.03797 0
M  V30 9505 H 885.404 2.58663 1.50777 0
M  V30 9506 H 882.95 1.24479 0.723937 0
M  V30 9507 H 884.903 1.79505 3.81256 0
M  V30 9508 H 883.627 0.722415 3.1851 0
M  V30 9509 H 882.286 2.72505 2.45227 0
M  V30 9510 H 881.934 1.7344 4.72152 0
M  V30 9511 H 881.634 3.49042 4.72698 0
M  V30 9512 H 883.158 2.84687 5.40172 0
M  V30 9513 H 884.572 4.36721 3.71413 0
M  V30 9514 H 882.969 5.02697 3.27743 0
M  V30 9515 H 884.039 4.41611 2.0027 0
M  V30 9516 N 885.382 -0.782676 1.36792 0
M  V30 9517 C 886.631 -1.53605 1.30723 0
M  V30 9518 C 886.944 -1.95294 -0.109296 0
M  V30 9519 O 888.15 -2.69921 -0.292398 0
M  V30 9520 C 886.606 -2.77321 2.29393 0
M  V30 9521 C 886.214 -2.42774 3.76517 0
M  V30 9522 C 887.958 -3.55289 2.32314 0
M  V30 9523 C 885.865 -3.62926 4.66947 0
M  V30 9524 H 884.795 -0.576646 0.485794 0
M  V30 9525 H 887.446 -0.858255 1.62192 0
M  V30 9526 H 885.828 -3.46934 1.90927 0
M  V30 9527 H 887.002 -1.81014 4.23758 0
M  V30 9528 H 885.317 -1.78002 3.76436 0
M  V30 9529 H 887.914 -4.44573 2.97083 0
M  V30 9530 H 888.257 -3.94361 1.3336 0
M  V30 9531 H 888.79 -2.92662 2.69432 0
M  V30 9532 H 885.529 -3.28944 5.66989 0
M  V30 9533 H 885.049 -4.23828 4.24418 0
M  V30 9534 H 886.728 -4.29873 4.83548 0
M  V30 9535 N 886.86 -1.21182 -1.00761 0
M  V30 9536 C 887.79 -0.992773 -2.11344 0
M  V30 9537 C 888.771 0.0813618 -1.69905 0
M  V30 9538 O 889.956 -0.0779503 -1.94043 0
M  V30 9539 C 887.086 -0.553826 -3.42856 0
M  V30 9540 C 886.04 -1.57223 -3.98077 0
M  V30 9541 C 885.366 -0.989605 -5.25463 0
M  V30 9542 C 886.666 -2.95839 -4.30438 0
M  V30 9543 H 888.36 -1.91766 -2.29927 0
M  V30 9544 H 885.906 -0.923426 -1.10494 0
M  V30 9545 H 887.859 -0.387771 -4.19612 0
M  V30 9546 H 886.583 0.406702 -3.24058 0
M  V30 9547 H 885.242 -1.7258 -3.23437 0
M  V30 9548 H 884.89 -0.0208743 -5.02996 0
M  V30 9549 H 884.59 -1.66984 -5.63374 0
M  V30 9550 H 886.114 -0.834815 -6.04866 0
M  V30 9551 H 887.528 -2.8394 -4.98047 0
M  V30 9552 H 885.925 -3.60851 -4.79486 0
M  V30 9553 H 886.995 -3.46882 -3.38823 0
M  V30 9554 N 888.338 1.20213 -1.01915 0
M  V30 9555 C 889.749 1.7136 -0.741131 0
M  V30 9556 C 890.1 1.81705 0.740107 0
M  V30 9557 O 889.225 1.48139 1.57746 0
M  V30 9558 C 889.82 3.11231 -1.33869 0
M  V30 9559 C 888.379 3.59677 -1.10948 0
M  V30 9560 C 887.526 2.36809 -1.4428 0
M  V30 9561 H 890.477 1.05191 -1.1883 0
M  V30 9562 H 890.498 3.7342 -0.730585 0
M  V30 9563 H 890.01 3.03669 -2.41675 0
M  V30 9564 H 888.111 3.72568 -0.0492052 0
M  V30 9565 H 888.224 4.44351 -1.79134 0
M  V30 9566 H 886.588 2.39674 -0.861881 0
M  V30 9567 H 887.371 2.31886 -2.53148 0
M  V30 9568 N 889.816 0.795718 1.36037 0
M  V30 9569 C 890.779 0.204318 2.28287 0
M  V30 9570 C 891.779 -0.602017 1.49105 0
M  V30 9571 O 892.969 -0.422089 1.69009 0
M  V30 9572 C 890.101 -0.716431 3.33287 0
M  V30 9573 H 891.294 1.01781 2.821 0
M  V30 9574 H 888.847 0.565588 1.45708 0
M  V30 9575 H 889.582 -1.55403 2.84641 0
M  V30 9576 H 889.367 -0.140096 3.9185 0
M  V30 9577 H 890.857 -1.12488 4.02164 0
M  V30 9578 N 891.294 -1.47756 0.548274 0
M  V30 9579 C 892.519 -2.07387 0.023475 0
M  V30 9580 C 892.944 -1.39956 -1.25674 0
M  V30 9581 O 892.302 -0.471543 -1.7506 0
M  V30 9582 C 892.35 -3.60224 -0.164669 0
M  V30 9583 O 891.454 -3.93653 -1.22928 0
M  V30 9584 H 890.795 -0.662312 0.0473156 0
M  V30 9585 H 893.325 -1.89905 0.761409 0
M  V30 9586 H 893.335 -4.06211 -0.38166 0
M  V30 9587 H 892.01 -4.08702 0.770425 0
M  V30 9588 H 890.587 -3.59422 -0.993495 0
M  V30 9589 N 892.772 -0.284283 -1.55015 0
M  V30 9590 C 894.021 0.33055 -1.98973 0
M  V30 9591 C 894.334 1.56284 -1.17621 0
M  V30 9592 O 895.54 2.2512 -1.51767 0
M  V30 9593 C 893.996 0.639457 -3.54174 0
M  V30 9594 C 893.604 -0.573543 -4.44313 0
M  V30 9595 C 895.348 1.21641 -4.06699 0
M  V30 9596 C 893.255 -0.238715 -5.90918 0
M  V30 9597 H 892.185 0.127285 -0.743179 0
M  V30 9598 H 894.836 -0.390372 -1.793 0
M  V30 9599 H 893.218 1.41953 -3.69683 0
M  V30 9600 H 894.392 -1.3502 -4.40575 0
M  V30 9601 H 892.707 -1.06797 -4.02472 0
M  V30 9602 H 895.304 1.48088 -5.13784 0
M  V30 9603 H 895.647 2.15328 -3.56286 0
M  V30 9604 H 896.18 0.498422 -3.94665 0
M  V30 9605 H 892.919 -1.1437 -6.45445 0
M  V30 9606 H 892.439 0.500997 -5.97704 0
M  V30 9607 H 894.118 0.165774 -6.46788 0
M  V30 9608 N 894.251 1.57596 -0.0117121 0
M  V30 9609 C 895.161 2.12596 0.991964 0
M  V30 9610 C 896.177 1.07399 1.36899 0
M  V30 9611 O 897.353 1.39365 1.45394 0
M  V30 9612 C 894.418 2.62796 2.2614 0
M  V30 9613 C 893.479 3.8264 1.94642 0
M  V30 9614 C 892.712 4.30435 3.15533 0
M  V30 9615 O 892.935 3.77495 4.27614 0
M  V30 9616 O 891.869 5.22469 2.98847 0
M  V30 9617 H 895.695 2.98597 0.554371 0
M  V30 9618 H 893.28 1.47947 0.207839 0
M  V30 9619 H 895.162 2.9523 3.00695 0
M  V30 9620 H 893.837 1.79886 2.69114 0
M  V30 9621 H 892.744 3.5516 1.17526 0
M  V30 9622 H 894.077 4.66658 1.56496 0
M  V30 9623 N 895.729 -0.261212 1.5542 0
M  V30 9624 C 896.976 -0.99123 1.76581 0
M  V30 9625 C 897.304 -1.85854 0.573457 0
M  V30 9626 O 896.559 -1.90604 -0.443705 0
M  V30 9627 C 896.858 -1.89395 3.03091 0
M  V30 9628 C 896.524 -1.18318 4.351 0
M  V30 9629 C 895.186 -0.986688 4.70975 0
M  V30 9630 C 897.538 -0.678299 5.16767 0
M  V30 9631 C 894.866 -0.272788 5.86065 0
M  V30 9632 C 897.218 0.0220646 6.32596 0
M  V30 9633 C 895.882 0.230161 6.67103 0
M  V30 9634 H 895.152 -0.362717 0.646156 0
M  V30 9635 H 897.799 -0.262506 1.89692 0
M  V30 9636 H 896.104 -2.68927 2.8493 0
M  V30 9637 H 897.801 -2.46022 3.16661 0
M  V30 9638 H 894.391 -1.34625 4.06908 0
M  V30 9639 H 898.575 -0.817691 4.89518 0
M  V30 9640 H 893.831 -0.10095 6.11317 0
M  V30 9641 H 898.005 0.420981 6.95126 0
M  V30 9642 H 895.632 0.785312 7.56133 0
M  V30 9643 N 897.207 -1.48554 -0.526253 0
M  V30 9644 C 898.623 -1.34757 -0.855138 0
M  V30 9645 C 898.823 -0.36142 -1.98232 0
M  V30 9646 O 897.879 0.216026 -2.51574 0
M  V30 9647 C 899.192 -2.74877 -1.21915 0
M  V30 9648 C 900.74 -2.83393 -1.32882 0
M  V30 9649 C 901.215 -4.24223 -1.72624 0
M  V30 9650 N 902.706 -4.26913 -1.7972 0
M  V30 9651 C 903.441 -5.32824 -2.11863 0
M  V30 9652 N 902.937 -6.49008 -2.42405 0
M  V30 9653 N 904.73 -5.20221 -2.12901 0
M  V30 9654 H 896.881 -2.11284 0.217422 0
M  V30 9655 H 899.144 -0.947367 0.0346362 0
M  V30 9656 H 898.85 -3.48619 -0.464486 0
M  V30 9657 H 898.724 -3.0864 -2.16844 0
M  V30 9658 H 901.111 -2.09904 -2.07424 0
M  V30 9659 H 901.192 -2.53245 -0.360638 0
M  V30 9660 H 900.836 -4.98229 -0.986411 0
M  V30 9661 H 900.766 -4.51817 -2.70498 0
M  V30 9662 H 903.257 -3.4311 -1.58379 0
M  V30 9663 H 903.57 -7.25561 -2.66048 0
M  V30 9664 H 901.915 -6.52277 -2.39917 0
M  V30 9665 H 905.106 -4.28469 -1.885 0
M  V30 9666 H 905.279 -6.02861 -2.37619 0
M  V30 9667 N 898.685 0.775411 -1.37205 0
M  V30 9668 C 899.595 1.91967 -1.34855 0
M  V30 9669 C 900.611 1.72214 -0.248656 0
M  V30 9670 O 901.787 1.95512 -0.483421 0
M  V30 9671 C 898.852 3.27038 -1.15096 0
M  V30 9672 C 897.913 3.5947 -2.34691 0
M  V30 9673 C 897.146 4.88097 -2.15865 0
M  V30 9674 O 897.369 5.58871 -1.14102 0
M  V30 9675 O 896.303 5.19507 -3.03967 0
M  V30 9676 H 900.129 1.969 -2.31223 0
M  V30 9677 H 897.714 0.917647 -1.17897 0
M  V30 9678 H 899.596 4.07837 -1.0605 0
M  V30 9679 H 898.271 3.22965 -0.217999 0
M  V30 9680 H 897.178 2.7892 -2.49308 0
M  V30 9681 H 898.511 3.68282 -3.26541 0
M  V30 9682 N 900.163 1.21714 1.00117 0
M  V30 9683 C 901.388 1.06357 1.78054 0
M  V30 9684 C 901.813 -0.382075 1.84179 0
M  V30 9685 O 901.171 -1.27575 1.28819 0
M  V30 9686 C 901.219 1.66982 3.19608 0
M  V30 9687 O 900.323 0.917892 4.02055 0
M  V30 9688 H 899.664 0.374074 0.548602 0
M  V30 9689 H 902.194 1.61338 1.25822 0
M  V30 9690 H 902.204 1.71363 3.70268 0
M  V30 9691 H 900.879 2.72185 3.14465 0
M  V30 9692 H 899.456 0.949473 3.6061 0
M  V30 9693 N 901.641 -1.19671 1.02551 0
M  V30 9694 C 902.866 -1.93774 0.739363 0
M  V30 9695 C 903.291 -1.74787 -0.695064 0
M  V30 9696 O 902.649 -1.04796 -1.47944 0
M  V30 9697 C 902.697 -3.43684 1.09149 0
M  V30 9698 O 901.801 -4.11874 0.208213 0
M  V30 9699 H 901.142 -0.605064 0.273484 0
M  V30 9700 H 903.672 -1.51846 1.37128 0
M  V30 9701 H 903.682 -3.94339 1.04695 0
M  V30 9702 H 902.357 -3.56826 2.13654 0
M  V30 9703 H 900.934 -3.716 0.311045 0
M  V30 9704 N 903.119 -0.802921 -1.35613 0
M  V30 9705 C 904.029 -0.212177 -2.33639 0
M  V30 9706 C 905.045 0.642871 -1.61689 0
M  V30 9707 O 906.221 0.555485 -1.93588 0
M  V30 9708 C 903.286 0.632406 -3.40883 0
M  V30 9709 C 902.347 -0.242708 -4.28613 0
M  V30 9710 C 901.58 0.56166 -5.30736 0
M  V30 9711 O 901.803 1.79664 -5.41366 0
M  V30 9712 O 900.737 -0.0455387 -6.01883 0
M  V30 9713 H 904.563 -1.023 -2.85952 0
M  V30 9714 H 902.148 -0.564636 -1.38319 0
M  V30 9715 H 904.03 1.11358 -4.0642 0
M  V30 9716 H 902.705 1.42089 -2.90848 0
M  V30 9717 H 901.612 -0.77094 -3.6607 0
M  V30 9718 H 902.945 -0.995046 -4.82037 0
M  V30 9719 N 904.597 1.47463 -0.556102 0
M  V30 9720 C 905.874 1.9557 0.0339892 0
M  V30 9721 C 906.254 1.49869 1.48669 0
M  V30 9722 O 905.602 0.737019 2.16288 0
M  V30 9723 C 905.812 3.48826 -0.110343 0
M  V30 9724 C 907.16 4.24585 0.0355716 0
M  V30 9725 O 908.184 3.5618 -0.0378356 0
M  V30 9726 O 907.043 5.46158 0.193299 0
M  V30 9727 H 904.137 0.824461 0.0647521 0
M  V30 9728 H 906.683 1.57868 -0.622547 0
M  V30 9729 H 905.455 3.74891 -1.12126 0
M  V30 9730 H 905.078 3.9329 0.583855 0
M  V30 9731 N 906.075 0.2925 1.54862 0
M  V30 9732 C 907.3 -0.32494 2.04839 0
M  V30 9733 C 907.725 -1.47381 1.16877 0
M  V30 9734 O 907.083 -1.80492 0.171028 0
M  V30 9735 C 907.131 -0.76694 3.5235 0
M  V30 9736 O 906.235 -1.87256 3.67436 0
M  V30 9737 H 905.576 -0.0645195 0.660858 0
M  V30 9738 H 908.106 0.431867 1.9999 0
M  V30 9739 H 908.116 -1.05804 3.94043 0
M  V30 9740 H 906.791 0.0735212 4.15835 0
M  V30 9741 H 905.368 -1.58266 3.37648 0
M  V30 9742 N 907.553 -1.57587 0.0200696 0
M  V30 9743 C 908.8 -1.91424 -0.660525 0
M  V30 9744 C 909.128 -0.895626 -1.72652 0
M  V30 9745 O 908.383 0.096771 -1.95461 0
M  V30 9746 C 908.682 -3.32002 -1.32323 0
M  V30 9747 C 908.348 -4.49223 -0.388487 0
M  V30 9748 C 907.01 -4.81021 -0.131184 0
M  V30 9749 C 909.362 -5.20581 0.253906 0
M  V30 9750 C 906.69 -5.81539 0.776471 0
M  V30 9751 C 909.042 -6.22067 1.14956 0
M  V30 9752 C 907.706 -6.52311 1.41584 0
M  V30 9753 H 906.976 -0.700472 -0.241703 0
M  V30 9754 H 909.623 -1.91333 0.0798991 0
M  V30 9755 H 907.928 -3.28312 -2.13819 0
M  V30 9756 H 909.625 -3.5545 -1.85623 0
M  V30 9757 H 906.215 -4.24391 -0.599207 0
M  V30 9758 H 910.399 -4.96253 0.068164 0
M  V30 9759 H 905.655 -6.03322 0.990575 0
M  V30 9760 H 909.829 -6.76484 1.65357 0
M  V30 9761 H 907.456 -7.30017 2.12083 0
M  V30 9762 N 909.032 0.252966 -1.55557 0
M  V30 9763 C 909.962 1.31691 -1.9282 0
M  V30 9764 C 910.943 1.50516 -0.7924 0
M  V30 9765 O 912.128 1.63225 -1.05219 0
M  V30 9766 C 909.258 2.67281 -2.21762 0
M  V30 9767 C 908.212 2.6316 -3.37536 0
M  V30 9768 C 907.538 4.02488 -3.52005 0
M  V30 9769 C 908.838 2.20675 -4.73392 0
M  V30 9770 H 910.532 1.00751 -2.81939 0
M  V30 9771 H 908.078 0.483219 -1.3565 0
M  V30 9772 H 910.031 3.41842 -2.46419 0
M  V30 9773 H 908.755 2.99845 -1.29463 0
M  V30 9774 H 907.414 1.91057 -3.12878 0
M  V30 9775 H 907.062 4.32307 -2.57137 0
M  V30 9776 H 906.762 4.00621 -4.29857 0
M  V30 9777 H 908.286 4.78758 -3.78977 0
M  V30 9778 H 909.7 2.84965 -4.97461 0
M  V30 9779 H 908.097 2.29931 -5.54303 0
M  V30 9780 H 909.167 1.15831 -4.70862 0
M  V30 9781 N 910.51 1.48831 0.518367 0
M  V30 9782 C 911.735 1.61379 1.30275 0
M  V30 9783 C 912.16 0.278571 1.86026 0
M  V30 9784 O 911.518 -0.751427 1.64995 0
M  V30 9785 C 911.566 2.67225 2.42122 0
M  V30 9786 O 910.67 2.25192 3.45489 0
M  V30 9787 H 910.011 0.540742 0.385349 0
M  V30 9788 H 912.541 1.949 0.622498 0
M  V30 9789 H 912.551 2.88859 2.8814 0
M  V30 9790 H 911.226 3.64155 2.00907 0
M  V30 9791 H 909.803 2.13819 3.05509 0
M  V30 9792 N 911.988 -0.768124 1.37614 0
M  V30 9793 C 912.951 -1.86314 1.3349 0
M  V30 9794 C 913.951 -1.59025 0.23823 0
M  V30 9795 O 915.141 -1.6704 0.494288 0
M  V30 9796 C 912.273 -3.23519 1.07462 0
M  V30 9797 H 913.466 -1.91382 2.30896 0
M  V30 9798 H 911.019 -0.968267 1.22696 0
M  V30 9799 H 911.754 -3.24127 0.106028 0
M  V30 9800 H 911.539 -3.44719 1.86846 0
M  V30 9801 H 913.029 -4.03597 1.07236 0
M  V30 9802 N 913.466 -1.22244 -0.994698 0
M  V30 9803 C 914.715 -1.04005 -1.72817 0
M  V30 9804 C 915.028 0.425413 -1.90918 0
M  V30 9805 O 916.234 0.727429 -2.61574 0
M  V30 9806 C 914.69 -1.81244 -3.10932 0
M  V30 9807 C 914.298 -3.32028 -3.00768 0
M  V30 9808 C 916.042 -1.71448 -3.88337 0
M  V30 9809 C 913.949 -4.01716 -4.34026 0
M  V30 9810 H 912.879 -0.385559 -0.647966 0
M  V30 9811 H 915.53 -1.46077 -1.11058 0
M  V30 9812 H 913.912 -1.3197 -3.73363 0
M  V30 9813 H 915.086 -3.88682 -2.47513 0
M  V30 9814 H 913.401 -3.4248 -2.36846 0
M  V30 9815 H 915.998 -2.20836 -4.86965 0
M  V30 9816 H 916.341 -0.674568 -4.10798 0
M  V30 9817 H 916.874 -2.18256 -3.3258 0
M  V30 9818 H 913.613 -5.05952 -4.16765 0
M  V30 9819 H 913.133 -3.49849 -4.87202 0
M  V30 9820 H 914.812 -4.0721 -5.02782 0
M  V30 9821 N 914.944 1.19125 -1.03184 0
M  V30 9822 C 916.193 1.8821 -0.725264 0
M  V30 9823 C 916.506 1.80674 0.749411 0
M  V30 9824 O 917.712 2.45037 1.16915 0
M  V30 9825 C 916.168 3.37607 -1.24697 0
M  V30 9826 C 915.776 3.53693 -2.74964 0
M  V30 9827 C 917.52 4.12149 -1.01652 0
M  V30 9828 C 915.427 4.97001 -3.20538 0
M  V30 9829 H 914.357 0.704916 -0.267599 0
M  V30 9830 H 917.008 1.34663 -1.24652 0
M  V30 9831 H 915.39 3.90569 -0.653614 0
M  V30 9832 H 916.564 3.11046 -3.39981 0
M  V30 9833 H 914.879 2.92544 -2.96322 0
M  V30 9834 H 917.476 5.17837 -1.33226 0
M  V30 9835 H 917.819 4.16274 0.0465712 0
M  V30 9836 H 918.352 3.65334 -1.57403 0
M  V30 9837 H 915.091 4.9804 -4.26189 0
M  V30 9838 H 914.611 5.40398 -2.60251 0
M  V30 9839 H 916.29 5.65669 -3.14049 0
M  V30 9840 N 916.422 0.810101 1.35185 0
M  V30 9841 C 917.37 0.211071 2.3164 0
M  V30 9842 C 918.364 -0.641109 1.568 0
M  V30 9843 O 919.57 -0.533881 1.719 0
M  V30 9844 H 915.945 0.0494978 0.750369 0
M  V30 9845 H 917.916 1.03964 2.79703 0
M  V30 9846 C 916.665 -0.622933 3.42074 0
M  V30 9847 H 915.988 0.0234648 3.99793 0
M  V30 9848 H 917.428 -1.0084 4.11834 0
M  V30 9849 C 915.887 -1.78994 2.85417 0
M  V30 9850 O 916.417 -2.88758 2.79252 0
M  V30 9851 N 914.623 -1.60259 2.42416 0
M  V30 9852 H 914.17 -0.70974 2.4763 0
M  V30 9853 H 914.128 -2.38498 2.04857 0
M  V30 9854 N 917.9 -1.47166 0.563914 0
M  V30 9855 C 919.13 -2.06546 0.0473599 0
M  V30 9856 C 919.538 -1.41607 -1.25476 0
M  V30 9857 O 918.881 -0.50894 -1.76509 0
M  V30 9858 C 918.943 -3.58873 -0.212249 0
M  V30 9859 C 918.607 -4.45893 1.00144 0
M  V30 9860 C 919.604 -4.83594 1.90873 0
M  V30 9861 C 917.289 -4.87309 1.218 0
M  V30 9862 C 919.283 -5.61519 3.01621 0
M  V30 9863 C 916.97 -5.64997 2.32856 0
M  V30 9864 C 917.968 -6.02013 3.22597 0
M  V30 9865 O 917.656 -6.78135 4.31727 0
M  V30 9866 H 917.388 -0.674441 0.0458823 0
M  V30 9867 H 919.942 -1.9006 0.778865 0
M  V30 9868 H 918.172 -3.73596 -0.998145 0
M  V30 9869 H 919.861 -4.00248 -0.675005 0
M  V30 9870 H 920.627 -4.52192 1.7535 0
M  V30 9871 H 916.506 -4.57959 0.528641 0
M  V30 9872 H 920.05 -5.90331 3.71693 0
M  V30 9873 H 915.947 -5.95813 2.48349 0
M  V30 9874 H 916.715 -6.96537 4.29859 0
M  V30 9875 N 919.378 -0.300708 -1.54705 0
M  V30 9876 C 920.606 0.31127 -2.04545 0
M  V30 9877 C 921.021 1.47542 -1.178 0
M  V30 9878 O 920.378 1.81361 -0.203571 0
M  V30 9879 C 920.429 0.767783 -3.53253 0
M  V30 9880 O 920.15 -0.350027 -4.36699 0
M  V30 9881 C 921.651 1.44494 -4.1909 0
M  V30 9882 H 918.871 0.067668 -0.667579 0
M  V30 9883 H 921.415 -0.440254 -1.99705 0
M  V30 9884 H 919.57 1.46933 -3.58454 0
M  V30 9885 H 919.984 0.00534038 -5.245 0
M  V30 9886 H 921.458 1.71553 -5.24665 0
M  V30 9887 H 921.935 2.3849 -3.68808 0
M  V30 9888 H 922.541 0.786581 -4.17963 0
M  V30 9889 N 920.856 1.57574 -0.0284266 0
M  V30 9890 C 921.804 2.11332 0.971675 0
M  V30 9891 C 922.798 1.03974 1.33738 0
M  V30 9892 O 924.004 1.22409 1.31969 0
M  V30 9893 H 920.379 0.675174 0.331125 0
M  V30 9894 H 922.35 2.943 0.49296 0
M  V30 9895 C 921.099 2.65496 2.24516 0
M  V30 9896 H 920.422 3.47753 1.9725 0
M  V30 9897 H 921.862 3.06757 2.92705 0
M  V30 9898 C 920.321 1.58207 2.97443 0
M  V30 9899 O 920.851 0.981496 3.89525 0
M  V30 9900 N 919.057 1.30269 2.59766 0
M  V30 9901 H 918.604 1.79294 1.84963 0
M  V30 9902 H 918.562 0.587085 3.0887 0
M  V30 9903 N 922.334 -0.244713 1.55689 0
M  V30 9904 C 923.559 -0.994157 1.8202 0
M  V30 9905 C 923.984 -1.78079 0.60577 0
M  V30 9906 O 923.342 -1.75748 -0.445221 0
M  V30 9907 C 923.39 -1.90599 3.06111 0
M  V30 9908 O 922.494 -2.99804 2.8318 0
M  V30 9909 H 921.835 -0.282767 0.600782 0
M  V30 9910 H 924.365 -0.26504 2.02876 0
M  V30 9911 H 924.375 -2.32023 3.35603 0
M  V30 9912 H 923.05 -1.32763 3.9414 0
M  V30 9913 H 921.627 -2.62493 2.64862 0
M  V30 9914 N 923.813 -1.49104 -0.510467 0
M  V30 9915 C 925.038 -1.62068 -1.29417 0
M  V30 9916 C 925.463 -0.288432 -1.85875 0
M  V30 9917 O 924.821 0.742667 -1.65391 0
M  V30 9918 C 924.869 -2.68506 -2.40701 0
M  V30 9919 O 923.973 -2.27021 -3.4429 0
M  V30 9920 H 923.314 -0.542778 -0.382476 0
M  V30 9921 H 925.844 -1.95228 -0.612154 0
M  V30 9922 H 925.854 -2.90383 -2.86604 0
M  V30 9923 H 924.529 -3.65216 -1.98973 0
M  V30 9924 H 923.106 -2.15436 -3.04371 0
M  V30 9925 N 925.291 0.760815 -1.38019 0
M  V30 9926 C 926.519 1.55001 -1.37048 0
M  V30 9927 C 926.934 1.88754 0.0415261 0
M  V30 9928 O 926.291 1.52254 1.00624 0
M  V30 9929 C 926.342 2.8536 -2.21928 0
M  V30 9930 O 926.063 2.53049 -3.57628 0
M  V30 9931 C 927.564 3.79536 -2.29057 0
M  V30 9932 H 924.784 0.479844 -0.469032 0
M  V30 9933 H 927.328 0.942148 -1.81504 0
M  V30 9934 H 925.483 3.42542 -1.80953 0
M  V30 9935 H 925.897 3.36604 -4.02241 0
M  V30 9936 H 927.371 4.67977 -2.92749 0
M  V30 9937 H 927.848 4.19453 -1.30213 0
M  V30 9938 H 928.454 3.28281 -2.70392 0
M  V30 9939 N 926.769 1.22769 0.988202 0
M  V30 9940 C 928.015 1.05665 1.73097 0
M  V30 9941 C 928.348 -0.406615 1.89895 0
M  V30 9942 O 927.623 -1.30132 1.44554 0
M  V30 9943 C 927.906 1.77381 3.13382 0
M  V30 9944 C 927.759 3.31332 3.04203 0
M  V30 9945 C 929.078 1.52999 4.12649 0
M  V30 9946 H 926.197 0.385258 0.628288 0
M  V30 9947 H 928.839 1.51171 1.15097 0
M  V30 9948 H 926.989 1.38696 3.62899 0
M  V30 9949 H 928.661 3.79489 2.6227 0
M  V30 9950 H 926.904 3.60767 2.40894 0
M  V30 9951 H 927.575 3.76692 4.03493 0
M  V30 9952 H 930.051 1.86611 3.71908 0
M  V30 9953 H 928.927 2.05666 5.08913 0
M  V30 9954 H 929.188 0.463615 4.39662 0
M  V30 9955 N 928.247 -1.18576 1.03814 0
M  V30 9956 C 929.197 -2.20034 0.597409 0
M  V30 9957 C 930.181 -1.56849 -0.358796 0
M  V30 9958 O 931.373 -1.761 -0.178262 0
M  V30 9959 C 928.502 -3.43276 -0.0407965 0
M  V30 9960 C 927.588 -4.13588 0.938404 0
M  V30 9961 N 927.979 -4.59941 2.10447 0
M  V30 9962 C 926.277 -4.3941 0.763853 0
M  V30 9963 C 926.978 -5.1404 2.72282 0
M  V30 9964 N 925.954 -5.05401 2.00176 0
M  V30 9965 H 929.756 -2.53562 1.48606 0
M  V30 9966 H 927.27 -1.34753 0.906384 0
M  V30 9967 H 929.267 -4.15217 -0.374222 0
M  V30 9968 H 927.927 -3.11245 -0.925014 0
M  V30 9969 H 928.938 -4.54471 2.48347 0
M  V30 9970 H 925.615 -4.1744 -0.0704869 0
M  V30 9971 H 927.005 -5.60128 3.71088 0
M  V30 9972 N 929.725 -0.817259 -1.34754 0
M  V30 9973 C 930.972 -0.402648 -1.98457 0
M  V30 9974 C 931.3 1.03287 -1.64809 0
M  V30 9975 O 930.555 1.73316 -0.908851 0
M  V30 9976 C 930.854 -0.5453 -3.53216 0
M  V30 9977 C 930.52 -1.9457 -4.06759 0
M  V30 9978 C 929.182 -2.32881 -4.21094 0
M  V30 9979 C 931.534 -2.86141 -4.35629 0
M  V30 9980 C 928.862 -3.62108 -4.61622 0
M  V30 9981 C 931.214 -4.14826 -4.776 0
M  V30 9982 C 929.878 -4.53121 -4.9014 0
M  V30 9983 H 929.148 -0.147339 -0.726204 0
M  V30 9984 H 931.795 -1.04011 -1.60791 0
M  V30 9985 H 930.1 0.175576 -3.91406 0
M  V30 9986 H 931.797 -0.205112 -4.00475 0
M  V30 9987 H 928.387 -1.6381 -3.96061 0
M  V30 9988 H 932.571 -2.57788 -4.24098 0
M  V30 9989 H 927.827 -3.91613 -4.69521 0
M  V30 9990 H 932.001 -4.85874 -4.98899 0
M  V30 9991 H 929.628 -5.53307 -5.21302 0
M  V30 9992 N 931.203 1.46865 -0.571711 0
M  V30 9993 C 932.15 2.30189 0.167808 0
M  V30 9994 C 933.12 1.3995 0.89461 0
M  V30 9995 O 934.305 1.68905 0.887451 0
M  V30 9996 C 931.445 3.24205 1.1826 0
M  V30 9997 C 930.558 4.2954 0.460376 0
M  V30 9998 C 929.693 5.10693 1.46173 0
M  V30 9999 C 928.732 6.07788 0.725291 0
M  V30 10000 N 927.869 6.81847 1.67417 0
M  V30 10001 H 932.709 2.92902 -0.548831 0
M  V30 10002 H 930.246 1.44362 -0.282474 0
M  V30 10003 H 932.204 3.77147 1.7837 0
M  V30 10004 H 930.834 2.63324 1.86709 0
M  V30 10005 H 929.886 3.79541 -0.255546 0
M  V30 10006 H 931.198 4.98665 -0.115855 0
M  V30 10007 H 930.352 5.67857 2.13595 0
M  V30 10008 H 929.091 4.41502 2.07188 0
M  V30 10009 H 928.096 5.49787 0.037228 0
M  V30 10010 H 929.321 6.78993 0.120678 0
M  V30 10011 H 927.267 6.15376 2.27263 0
M  V30 10012 H 927.184 7.47195 1.15046 0
M  V30 10013 H 928.452 7.43577 2.33908 0
M  V30 10014 N 932.681 0.308908 1.54543 0
M  V30 10015 C 933.611 -0.556657 2.26768 0
M  V30 10016 C 934.592 -1.13145 1.27013 0
M  V30 10017 O 935.777 -1.15931 1.558 0
M  V30 10018 C 932.907 -1.72481 3.01443 0
M  V30 10019 C 931.861 -1.28001 4.08411 0
M  V30 10020 C 931.187 -2.53395 4.70845 0
M  V30 10021 C 932.487 -0.405497 5.20724 0
M  V30 10022 H 934.181 0.0457618 2.99365 0
M  V30 10023 H 931.727 0.0234495 1.43981 0
M  V30 10024 H 933.68 -2.3365 3.50693 0
M  V30 10025 H 932.404 -2.35359 2.26437 0
M  V30 10026 H 931.063 -0.69133 3.60022 0
M  V30 10027 H 930.711 -3.14604 3.92471 0
M  V30 10028 H 930.411 -2.2433 5.43093 0
M  V30 10029 H 931.935 -3.15352 5.22863 0
M  V30 10030 H 933.349 -0.923076 5.6582 0
M  V30 10031 H 931.746 -0.208282 5.99738 0
M  V30 10032 H 932.816 0.567412 4.81569 0
M  V30 10033 N 934.159 -1.57557 0.0367827 0
M  V30 10034 C 935.384 -1.96828 -0.653707 0
M  V30 10035 C 935.809 -0.913559 -1.64425 0
M  V30 10036 O 935.167 0.124749 -1.8087 0
M  V30 10037 C 935.215 -3.35189 -1.32969 0
M  V30 10038 O 934.319 -3.32095 -2.44513 0
M  V30 10039 H 933.66 -0.64157 -0.171124 0
M  V30 10040 H 936.19 -2.04351 0.100912 0
M  V30 10041 H 936.2 -3.71593 -1.68472 0
M  V30 10042 H 934.875 -4.11496 -0.603654 0
M  V30 10043 H 933.452 -3.07418 -2.11065 0
M  V30 10044 N 935.637 0.236453 -1.55816 0
M  V30 10045 C 937.048 0.80468 -1.68469 0
M  V30 10046 C 937.399 1.85601 -0.636133 0
M  V30 10047 O 936.524 2.15323 0.215622 0
M  V30 10048 C 937.119 1.46634 -3.05424 0
M  V30 10049 C 935.678 1.98214 -3.19981 0
M  V30 10050 C 934.825 0.83695 -2.64368 0
M  V30 10051 H 937.776 0.0120647 -1.58695 0
M  V30 10052 H 937.797 2.33472 -3.00451 0
M  V30 10053 H 937.309 0.700931 -3.81718 0
M  V30 10054 H 935.41 2.77604 -2.4853 0
M  V30 10055 H 935.523 2.17235 -4.2702 0
M  V30 10056 H 933.887 1.24028 -2.22462 0
M  V30 10057 H 934.67 0.084451 -3.43196 0
M  V30 10058 N 937.115 1.49373 0.502552 0
M  V30 10059 C 938.343 1.62488 1.28084 0
M  V30 10060 C 938.758 0.295667 1.86471 0
M  V30 10061 O 938.115 -0.718664 1.67754 0
M  V30 10062 C 938.166 2.69249 2.4122 0
M  V30 10063 O 937.887 3.97014 1.85234 0
M  V30 10064 C 939.388 2.93054 3.32617 0
M  V30 10065 H 936.608 0.547068 0.388533 0
M  V30 10066 H 939.152 1.95394 0.603452 0
M  V30 10067 H 937.307 2.39125 3.04792 0
M  V30 10068 H 937.721 4.55809 2.59496 0
M  V30 10069 H 939.195 3.71493 4.08285 0
M  V30 10070 H 939.672 2.02911 3.89517 0
M  V30 10071 H 940.278 3.24589 2.74813 0
M  V30 10072 N 938.594 -0.753485 1.38421 0
M  V30 10073 C 939.824 -1.54049 1.37669 0
M  V30 10074 C 940.232 -1.89167 -0.0353656 0
M  V30 10075 O 939.575 -1.53285 -1.01239 0
M  V30 10076 C 939.637 -2.86777 2.16793 0
M  V30 10077 C 939.301 -2.74196 3.65603 0
M  V30 10078 C 940.298 -2.43985 4.59094 0
M  V30 10079 C 937.983 -2.91645 4.0896 0
M  V30 10080 C 939.977 -2.31379 5.93921 0
M  V30 10081 C 937.664 -2.78658 5.43868 0
M  V30 10082 C 938.662 -2.48568 6.36163 0
M  V30 10083 O 938.35 -2.3564 7.68589 0
M  V30 10084 H 938.082 -0.483276 0.472673 0
M  V30 10085 H 940.636 -0.940267 1.82615 0
M  V30 10086 H 938.866 -3.48988 1.66565 0
M  V30 10087 H 940.555 -3.48289 2.08446 0
M  V30 10088 H 941.321 -2.30172 4.26902 0
M  V30 10089 H 937.2 -3.14063 3.37469 0
M  V30 10090 H 940.744 -2.07813 6.65927 0
M  V30 10091 H 936.641 -2.92044 5.75656 0
M  V30 10092 H 937.409 -2.50851 7.79112 0
M  V30 10093 N 940.072 -1.23292 -0.981677 0
M  V30 10094 C 941.318 -1.06582 -1.72535 0
M  V30 10095 C 941.651 0.396538 -1.90108 0
M  V30 10096 O 940.926 1.29363 -1.45243 0
M  V30 10097 C 941.209 -1.7904 -3.12437 0
M  V30 10098 C 941.062 -3.32941 -3.02441 0
M  V30 10099 C 942.381 -1.55185 -4.11832 0
M  V30 10100 H 939.5 -0.388585 -0.626236 0
M  V30 10101 H 942.142 -1.51779 -1.14293 0
M  V30 10102 H 940.292 -1.40619 -3.62158 0
M  V30 10103 H 941.964 -3.80875 -2.60254 0
M  V30 10104 H 940.207 -3.62039 -2.38977 0
M  V30 10105 H 940.878 -3.78827 -4.0149 0
M  V30 10106 H 943.354 -1.88581 -3.70913 0
M  V30 10107 H 942.23 -2.08362 -5.07815 0
M  V30 10108 H 942.491 -0.486925 -4.3941 0
M  V30 10109 N 941.55 1.18024 -1.04442 0
M  V30 10110 C 942.48 2.23988 -0.659683 0
M  V30 10111 C 943.461 1.6669 0.338904 0
M  V30 10112 O 944.646 1.92971 0.21817 0
M  V30 10113 C 941.776 3.4729 -0.0257672 0
M  V30 10114 C 940.73 4.17362 -0.948299 0
M  V30 10115 C 940.056 5.34401 -0.17866 0
M  V30 10116 C 941.356 4.70435 -2.26909 0
M  V30 10117 H 943.05 2.56425 -1.54553 0
M  V30 10118 H 940.596 1.23256 -0.744575 0
M  V30 10119 H 942.549 4.20627 0.255131 0
M  V30 10120 H 941.273 3.14098 0.894981 0
M  V30 10121 H 939.932 3.45928 -1.21364 0
M  V30 10122 H 939.58 4.97458 0.744614 0
M  V30 10123 H 939.28 5.8222 -0.793294 0
M  V30 10124 H 940.804 6.10526 0.0951315 0
M  V30 10125 H 942.218 5.35447 -2.04864 0
M  V30 10126 H 940.615 5.28803 -2.83703 0
M  V30 10127 H 941.685 3.87653 -2.91296 0
M  V30 10128 N 943.028 0.824394 1.34319 0
M  V30 10129 C 944.258 0.425576 2.02169 0
M  V30 10130 C 944.666 -0.973596 1.62227 0
M  V30 10131 O 944.009 -1.64173 0.824199 0
M  V30 10132 C 944.071 0.449902 3.56674 0
M  V30 10133 C 943.735 1.80266 4.19944 0
M  V30 10134 C 944.732 2.76373 4.40357 0
M  V30 10135 C 942.417 2.09155 4.56683 0
M  V30 10136 C 944.411 3.9954 4.96635 0
M  V30 10137 C 942.098 3.32581 5.12672 0
M  V30 10138 C 943.096 4.27591 5.32592 0
M  V30 10139 O 942.784 5.48837 5.87395 0
M  V30 10140 H 942.516 0.168866 0.654569 0
M  V30 10141 H 945.07 1.11441 1.7254 0
M  V30 10142 H 943.3 -0.295631 3.85568 0
M  V30 10143 H 944.989 0.0709302 4.05838 0
M  V30 10144 H 945.755 2.55351 4.12336 0
M  V30 10145 H 941.634 1.36004 4.40481 0
M  V30 10146 H 945.178 4.73709 5.12099 0
M  V30 10147 H 941.075 3.53466 5.40122 0
M  V30 10148 H 941.843 5.50377 6.05828 0
M  V30 10149 N 944.506 -1.46559 0.579492 0
M  V30 10150 C 945.439 -2.27287 -0.203894 0
M  V30 10151 C 946.417 -1.3543 -0.899865 0
M  V30 10152 O 947.601 -1.64836 -0.914398 0
M  V30 10153 C 944.728 -3.13077 -1.2923 0
M  V30 10154 C 943.774 -4.20675 -0.702505 0
M  V30 10155 S 944.607 -5.3345 0.468136 0
M  V30 10156 C 945.763 -6.22806 -0.621544 0
M  V30 10157 H 945.996 -2.93382 0.481083 0
M  V30 10158 H 943.529 -1.49992 0.366311 0
M  V30 10159 H 945.487 -3.63069 -1.91548 0
M  V30 10160 H 944.148 -2.46302 -1.94921 0
M  V30 10161 H 943.341 -4.80516 -1.52053 0
M  V30 10162 H 942.943 -3.73678 -0.155046 0
M  V30 10163 H 945.235 -6.60503 -1.50803 0
M  V30 10164 H 946.178 -7.08075 -0.059961 0
M  V30 10165 H 946.586 -5.56882 -0.924242 0
M  V30 10166 N 945.984 -0.3171 -1.54377 0
M  V30 10167 C 946.947 0.53905 -2.22771 0
M  V30 10168 C 947.947 1.04865 -1.21901 0
M  V30 10169 O 949.137 0.942108 -1.46526 0
M  V30 10170 C 946.269 1.74804 -2.92671 0
M  V30 10171 H 947.462 -0.0587417 -2.99842 0
M  V30 10172 H 945.015 -0.068107 -1.56152 0
M  V30 10173 H 945.75 2.38524 -2.1972 0
M  V30 10174 H 945.535 1.39011 -3.66631 0
M  V30 10175 H 947.025 2.35592 -3.44799 0
M  V30 10176 N 947.462 1.57535 -0.0451378 0
M  V30 10177 C 948.702 1.9432 0.633955 0
M  V30 10178 C 949.066 0.922924 1.68363 0
M  V30 10179 O 950.267 1.17751 2.41636 0
M  V30 10180 C 948.538 3.35933 1.21999 0
M  V30 10181 S 950.097 3.94666 1.91793 0
M  V30 10182 H 946.915 0.679798 0.208318 0
M  V30 10183 H 949.517 1.95175 -0.112633 0
M  V30 10184 H 948.221 4.07993 0.443821 0
M  V30 10185 H 947.752 3.38559 2.00353 0
M  V30 10186 H 949.767 3.79401 3.19796 0
M  V30 10187 N 948.94 -0.228186 1.55939 0
M  V30 10188 C 950.356 -0.577583 1.48782 0
M  V30 10189 C 950.556 -1.87461 0.738972 0
M  V30 10190 O 949.612 -2.50988 0.275929 0
M  V30 10191 C 950.925 -0.662961 2.93301 0
M  V30 10192 C 952.473 -0.754035 3.03782 0
M  V30 10193 C 952.948 -0.870815 4.49645 0
M  V30 10194 N 954.439 -0.935208 4.53661 0
M  V30 10195 C 955.174 -1.04516 5.63794 0
M  V30 10196 N 954.67 -1.11948 6.83696 0
M  V30 10197 N 956.463 -1.07978 5.51631 0
M  V30 10198 H 948.614 0.623018 2.03057 0
M  V30 10199 H 950.877 0.217692 0.922667 0
M  V30 10200 H 950.583 0.220375 3.51009 0
M  V30 10201 H 950.457 -1.52876 3.44831 0
M  V30 10202 H 952.844 -1.62782 2.46143 0
M  V30 10203 H 952.925 0.137301 2.55431 0
M  V30 10204 H 952.569 -0.0015186 5.079 0
M  V30 10205 H 952.499 -1.77747 4.95695 0
M  V30 10206 H 954.99 -0.88836 3.6731 0
M  V30 10207 H 955.303 -1.20297 7.6338 0
M  V30 10208 H 953.648 -1.08873 6.8642 0
M  V30 10209 H 956.839 -1.01833 4.56889 0
M  V30 10210 H 957.012 -1.16202 6.37496 0
M  V30 10211 N 950.418 -1.49637 -0.494624 0
M  V30 10212 C 951.648 -1.62928 -1.27036 0
M  V30 10213 C 952.056 -0.302464 -1.86767 0
M  V30 10214 O 951.399 0.722878 -1.68879 0
M  V30 10215 C 951.461 -2.64449 -2.43531 0
M  V30 10216 C 951.125 -4.08632 -2.0462 0
M  V30 10217 C 952.122 -4.95238 -1.58225 0
M  V30 10218 C 949.807 -4.54405 -2.1406 0
M  V30 10219 C 951.801 -6.25658 -1.21782 0
M  V30 10220 C 949.488 -5.84836 -1.77228 0
M  V30 10221 C 950.486 -6.70287 -1.31165 0
M  V30 10222 O 950.174 -7.98287 -0.948339 0
M  V30 10223 H 949.906 -0.551263 -0.391261 0
M  V30 10224 H 952.46 -1.96453 -0.599621 0
M  V30 10225 H 950.69 -2.26117 -3.137 0
M  V30 10226 H 952.379 -2.67203 -3.05545 0
M  V30 10227 H 953.145 -4.611 -1.50373 0
M  V30 10228 H 949.024 -3.88056 -2.48865 0
M  V30 10229 H 952.568 -6.92309 -0.857566 0
M  V30 10230 H 948.465 -6.18502 -1.84732 0
M  V30 10231 H 949.233 -8.11353 -1.07925 0
M  V30 10232 N 951.896 0.746133 -1.38819 0
M  V30 10233 C 953.142 1.50768 -1.35635 0
M  V30 10234 C 953.475 1.94132 0.0512435 0
M  V30 10235 O 952.75 1.65979 1.01396 0
M  V30 10236 C 953.033 2.7551 -2.31875 0
M  V30 10237 C 952.886 2.38236 -3.81528 0
M  V30 10238 C 954.205 3.77566 -2.26124 0
M  V30 10239 H 951.324 0.546922 -0.494009 0
M  V30 10240 H 953.966 0.854017 -1.69725 0
M  V30 10241 H 952.116 3.31285 -2.02935 0
M  V30 10242 H 953.788 1.88178 -4.21173 0
M  V30 10243 H 952.031 1.70601 -3.98846 0
M  V30 10244 H 952.702 3.27517 -4.44339 0
M  V30 10245 H 955.178 3.31349 -2.51689 0
M  V30 10246 H 954.054 4.62531 -2.95561 0
M  V30 10247 H 954.315 4.23689 -1.26254 0
M  V30 10248 N 953.375 1.23811 0.975125 0
M  V30 10249 C 954.305 1.04846 2.08638 0
M  V30 10250 C 955.286 -0.0362859 1.70061 0
M  V30 10251 O 956.471 0.12937 1.93769 0
M  V30 10252 C 953.601 0.644534 3.41267 0
M  V30 10253 C 952.555 1.67722 3.93768 0
M  V30 10254 C 951.881 1.12857 5.22654 0
M  V30 10255 C 953.181 3.07147 4.22443 0
M  V30 10256 H 954.875 1.97795 2.24761 0
M  V30 10257 H 952.421 0.952397 1.08006 0
M  V30 10258 H 954.374 0.498887 4.18436 0
M  V30 10259 H 953.098 -0.320641 3.25022 0
M  V30 10260 H 951.757 1.81095 3.18748 0
M  V30 10261 H 951.405 0.154227 5.02764 0
M  V30 10262 H 951.105 1.81862 5.58749 0
M  V30 10263 H 952.629 0.994891 6.0244 0
M  V30 10264 H 954.043 2.97045 4.90344 0
M  V30 10265 H 952.44 3.73437 4.6975 0
M  V30 10266 H 953.51 3.55743 3.29507 0
M  V30 10267 N 954.853 -1.17469 1.05066 0
M  V30 10268 C 956.078 -1.92162 0.780298 0
M  V30 10269 C 956.503 -1.76222 -0.657832 0
M  V30 10270 O 955.861 -1.0791 -1.45688 0
M  V30 10271 C 955.909 -3.41292 1.16414 0
M  V30 10272 O 955.013 -4.1134 0.295531 0
M  V30 10273 H 954.354 -0.599127 0.286257 0
M  V30 10274 H 956.884 -1.48903 1.40318 0
M  V30 10275 H 956.894 -3.92029 1.13036 0
M  V30 10276 H 955.569 -3.52214 2.21175 0
M  V30 10277 H 954.146 -3.70857 0.389797 0
M  V30 10278 N 956.331 -0.831506 -1.3388 0
M  V30 10279 C 957.279 -0.247896 -2.31275 0
M  V30 10280 C 958.273 0.616083 -1.578 0
M  V30 10281 O 959.479 0.506465 -1.72728 0
M  V30 10282 H 955.854 -0.0614293 -0.749487 0
M  V30 10283 H 957.825 -1.08401 -2.78014 0
M  V30 10284 C 956.574 0.568434 -3.43022 0
M  V30 10285 H 955.897 -0.0870654 -3.99705 0
M  V30 10286 H 957.337 0.942751 -4.13386 0
M  V30 10287 C 955.796 1.74431 -2.88228 0
M  V30 10288 O 956.326 2.84278 -2.83811 0
M  V30 10289 N 954.532 1.56382 -2.44935 0
M  V30 10290 H 954.079 0.670255 -2.48727 0
M  V30 10291 H 954.037 2.35208 -2.08625 0
M  V30 10292 N 957.809 1.4625 -0.587256 0
M  V30 10293 C 958.741 2.28482 0.181256 0
M  V30 10294 C 959.754 1.38777 0.851163 0
M  V30 10295 O 960.943 1.63336 0.719963 0
M  V30 10296 C 958.043 3.13944 1.27643 0
M  V30 10297 C 957.216 4.31802 0.697569 0
M  V30 10298 C 956.275 4.98626 1.68102 0
M  V30 10299 O 955.301 5.56075 1.21529 0
M  V30 10300 N 956.503 4.96051 3.0152 0
M  V30 10301 H 959.268 2.95079 -0.524267 0
M  V30 10302 H 956.829 1.56213 -0.425336 0
M  V30 10303 H 958.821 3.55513 1.93371 0
M  V30 10304 H 957.391 2.49391 1.88475 0
M  V30 10305 H 956.611 3.93961 -0.137293 0
M  V30 10306 H 957.899 5.07969 0.290696 0
M  V30 10307 H 957.297 4.5063 3.41978 0
M  V30 10308 H 955.854 5.41547 3.62725 0
M  V30 10309 N 959.287 0.325282 1.54207 0
M  V30 10310 C 960.517 -0.278285 2.04717 0
M  V30 10311 C 960.925 -1.46198 1.20095 0
M  V30 10312 O 960.268 -1.82319 0.224813 0
M  V30 10313 C 960.33 -0.774387 3.51061 0
M  V30 10314 C 959.994 0.287225 4.56096 0
M  V30 10315 C 960.991 1.12388 5.07607 0
M  V30 10316 C 958.676 0.435908 5.00405 0
M  V30 10317 C 960.67 2.09492 6.0199 0
M  V30 10318 C 958.357 1.41037 5.94602 0
M  V30 10319 C 959.355 2.23834 6.45281 0
M  V30 10320 O 959.043 3.19625 7.37628 0
M  V30 10321 H 958.775 -0.0608309 0.673257 0
M  V30 10322 H 961.329 0.470049 1.99949 0
M  V30 10323 H 959.559 -1.57366 3.53232 0
M  V30 10324 H 961.248 -1.29649 3.84637 0
M  V30 10325 H 962.014 1.02 4.74153 0
M  V30 10326 H 957.893 -0.198668 4.60572 0
M  V30 10327 H 961.437 2.74157 6.4147 0
M  V30 10328 H 957.334 1.51487 6.27473 0
M  V30 10329 H 958.102 3.14884 7.55507 0
M  V30 10330 N 960.765 -1.57509 0.0534917 0
M  V30 10331 C 962.181 -1.56696 -0.303067 0
M  V30 10332 C 962.381 -1.06135 -1.71282 0
M  V30 10333 O 961.437 -0.71899 -2.42047 0
M  V30 10334 C 962.75 -3.00421 -0.129418 0
M  V30 10335 C 964.298 -3.12358 -0.200346 0
M  V30 10336 C 964.773 -4.57967 -0.0551971 0
M  V30 10337 N 966.264 -4.63066 -0.111398 0
M  V30 10338 C 966.999 -5.73395 -0.0232344 0
M  V30 10339 N 966.495 -6.92701 0.11741 0
M  V30 10340 N 968.288 -5.62045 -0.078984 0
M  V30 10341 H 960.439 -1.88696 0.975064 0
M  V30 10342 H 962.702 -0.869072 0.378706 0
M  V30 10343 H 962.408 -3.41456 0.842653 0
M  V30 10344 H 962.282 -3.66563 -0.889476 0
M  V30 10345 H 964.669 -2.71221 -1.16289 0
M  V30 10346 H 964.75 -2.48891 0.590506 0
M  V30 10347 H 964.394 -4.9979 0.904034 0
M  V30 10348 H 964.324 -5.19443 -0.865223 0
M  V30 10349 H 966.815 -3.77263 -0.219256 0
M  V30 10350 H 967.128 -7.72597 0.177326 0
M  V30 10351 H 965.473 -6.94833 0.152526 0
M  V30 10352 H 968.664 -4.67725 -0.187434 0
M  V30 10353 H 968.837 -6.48 -0.00681731 0
M  V30 10354 N 962.243 0.219913 -1.56058 0
M  V30 10355 C 963.654 0.786766 -1.69313 0
M  V30 10356 C 964.005 1.84916 -0.655782 0
M  V30 10357 O 963.13 2.1554 0.192772 0
M  V30 10358 C 963.725 1.43387 -3.06962 0
M  V30 10359 C 962.284 1.94809 -3.22066 0
M  V30 10360 C 961.431 0.808863 -2.65241 0
M  V30 10361 H 964.382 -0.00476777 -1.58699 0
M  V30 10362 H 964.403 2.30272 -3.02911 0
M  V30 10363 H 963.915 0.660405 -3.8244 0
M  V30 10364 H 962.016 2.74952 -2.5146 0
M  V30 10365 H 962.129 2.12694 -4.293 0
M  V30 10366 H 960.493 1.21661 -2.23765 0
M  V30 10367 H 961.276 0.0480458 -3.43266 0
M  V30 10368 N 963.721 1.49897 0.486681 0
M  V30 10369 C 964.998 1.50614 1.24799 0
M  V30 10370 C 965.378 0.24193 2.09709 0
M  V30 10371 O 964.726 -0.775237 2.14947 0
M  V30 10372 C 964.936 2.79318 2.09243 0
M  V30 10373 C 966.284 3.29371 2.67955 0
M  V30 10374 O 967.308 2.80533 2.19499 0
M  V30 10375 O 966.167 4.14466 3.56202 0
M  V30 10376 H 963.261 0.603447 0.565491 0
M  V30 10377 H 965.807 1.62174 0.499778 0
M  V30 10378 H 964.579 3.62812 1.46572 0
M  V30 10379 H 964.202 2.70687 2.91229 0
M  V30 10380 N 965.199 -0.738761 1.39212 0
M  V30 10381 C 966.448 -1.49368 1.35543 0
M  V30 10382 C 966.761 -1.95543 -0.0471091 0
M  V30 10383 O 967.967 -2.70714 -0.206376 0
M  V30 10384 C 966.423 -2.69882 2.381 0
M  V30 10385 C 966.031 -2.30672 3.8405 0
M  V30 10386 C 967.775 -3.47718 2.435 0
M  V30 10387 C 965.682 -3.47886 4.78256 0
M  V30 10388 H 964.612 -0.560898 0.503894 0
M  V30 10389 H 967.263 -0.806221 1.6484 0
M  V30 10390 H 965.645 -3.40684 2.01867 0
M  V30 10391 H 966.819 -1.67441 4.29302 0
M  V30 10392 H 965.134 -1.65936 3.81909 0
M  V30 10393 H 967.731 -4.34897 3.11077 0
M  V30 10394 H 968.074 -3.89919 1.45838 0
M  V30 10395 H 968.607 -2.83942 2.78606 0
M  V30 10396 H 965.346 -3.10739 5.77167 0
M  V30 10397 H 964.866 -4.10111 4.37686 0
M  V30 10398 H 966.545 -4.14271 4.96979 0
M  V30 10399 N 966.677 -1.24326 -0.968545 0
M  V30 10400 C 967.902 -1.1104 -1.75171 0
M  V30 10401 C 968.327 0.333109 -1.85127 0
M  V30 10402 O 967.685 1.24115 -1.32156 0
M  V30 10403 C 967.733 -1.75397 -3.15068 0
M  V30 10404 O 966.837 -1.02417 -3.9948 0
M  V30 10405 H 966.178 -0.388488 -0.538491 0
M  V30 10406 H 968.708 -1.64617 -1.215 0
M  V30 10407 H 968.718 -1.8112 -3.65595 0
M  V30 10408 H 967.393 -2.80427 -3.07138 0
M  V30 10409 H 965.97 -1.04475 -3.57966 0
M  V30 10410 N 968.156 1.1691 -1.05688 0
M  V30 10411 C 969.567 1.68915 -0.795273 0
M  V30 10412 C 969.918 1.83968 0.681925 0
M  V30 10413 O 969.043 1.53083 1.52953 0
M  V30 10414 C 969.638 3.06814 -1.43703 0
M  V30 10415 C 968.197 3.55965 -1.22335 0
M  V30 10416 C 967.344 2.32099 -1.51741 0
M  V30 10417 H 970.295 1.01357 -1.22116 0
M  V30 10418 H 970.316 3.70907 -0.849016 0
M  V30 10419 H 969.828 2.95826 -2.51214 0
M  V30 10420 H 967.929 3.72222 -0.16771 0
M  V30 10421 H 968.042 4.38427 -1.9318 0
M  V30 10422 H 966.406 2.36811 -0.937696 0
M  V30 10423 H 967.189 2.23715 -2.60397 0
M  V30 10424 N 969.634 0.838594 1.33437 0
M  V30 10425 C 970.862 0.447644 2.01999 0
M  V30 10426 C 971.277 -0.951053 1.63096 0
M  V30 10427 O 970.634 -1.61802 0.844169 0
M  V30 10428 C 970.685 0.558378 3.57162 0
M  V30 10429 O 970.406 1.90196 3.94661 0
M  V30 10430 C 971.907 0.164348 4.42995 0
M  V30 10431 H 969.127 0.177736 0.647032 0
M  V30 10432 H 971.671 1.13109 1.70372 0
M  V30 10433 H 969.826 -0.0771563 3.87323 0
M  V30 10434 H 970.24 1.88729 4.89369 0
M  V30 10435 H 971.714 0.292876 5.51222 0
M  V30 10436 H 972.191 -0.893713 4.30011 0
M  V30 10437 H 972.797 0.774306 4.18192 0
M  V30 10438 N 971.112 -1.45937 0.595003 0
M  V30 10439 C 972.022 -2.34221 -0.133325 0
M  V30 10440 C 973.038 -1.50491 -0.873407 0
M  V30 10441 O 974.214 -1.83328 -0.833828 0
M  V30 10442 C 971.279 -3.27896 -1.12628 0
M  V30 10443 C 970.34 -4.27529 -0.389532 0
M  V30 10444 C 969.573 -5.16729 -1.33519 0
M  V30 10445 O 969.796 -5.09102 -2.57238 0
M  V30 10446 O 968.73 -5.96023 -0.839084 0
M  V30 10447 H 972.556 -2.97877 0.591861 0
M  V30 10448 H 970.141 -1.45113 0.355329 0
M  V30 10449 H 972.023 -3.85654 -1.69851 0
M  V30 10450 H 970.698 -2.6682 -1.83272 0
M  V30 10451 H 969.605 -3.73424 0.224843 0
M  V30 10452 H 970.938 -4.91425 0.276169 0
M  V30 10453 N 972.59 -0.333456 -1.54032 0
M  V30 10454 C 974.006 0.0188405 -1.59589 0
M  V30 10455 C 974.206 1.49615 -1.34972 0
M  V30 10456 O 973.262 2.2535 -1.13901 0
M  V30 10457 C 974.575 -0.408273 -2.97915 0
M  V30 10458 C 976.123 -0.359763 -3.10926 0
M  V30 10459 C 976.598 -0.76219 -4.51613 0
M  V30 10460 N 978.089 -0.715981 -4.57633 0
M  V30 10461 C 978.824 -0.999436 -5.64623 0
M  V30 10462 N 978.32 -1.35053 -6.79509 0
M  V30 10463 N 980.113 -0.924343 -5.54448 0
M  V30 10464 H 972.264 -1.29587 -1.68289 0
M  V30 10465 H 974.527 -0.527584 -0.787629 0
M  V30 10466 H 974.233 -1.43793 -3.20962 0
M  V30 10467 H 974.107 0.221685 -3.76548 0
M  V30 10468 H 976.494 0.660703 -2.87609 0
M  V30 10469 H 976.575 -1.02479 -2.34375 0
M  V30 10470 H 976.219 -1.78062 -4.75664 0
M  V30 10471 H 976.149 -0.0747478 -5.26547 0
M  V30 10472 H 978.64 -0.456875 -3.75128 0
M  V30 10473 H 978.953 -1.55194 -7.57057 0
M  V30 10474 H 977.298 -1.38889 -6.80981 0
M  V30 10475 H 980.489 -0.649469 -4.63573 0
M  V30 10476 H 980.662 -1.1486 -6.37739 0
M  V30 10477 N 974.068 1.57479 -0.061844 0
M  V30 10478 C 975.296 1.97429 0.618837 0
M  V30 10479 C 975.711 0.939826 1.63746 0
M  V30 10480 O 975.068 -0.0747173 1.82347 0
M  V30 10481 C 975.119 3.3746 1.29628 0
M  V30 10482 O 974.84 4.36941 0.318431 0
M  V30 10483 C 976.341 3.92228 2.06572 0
M  V30 10484 H 973.561 0.649513 0.168444 0
M  V30 10485 H 976.105 2.04078 -0.131303 0
M  V30 10486 H 974.26 3.31928 1.99757 0
M  V30 10487 H 974.674 5.18313 0.803239 0
M  V30 10488 H 976.148 4.92458 2.49377 0
M  V30 10489 H 976.625 3.28231 2.91824 0
M  V30 10490 H 977.231 4.01131 1.4133 0
M  V30 10491 N 975.546 -0.211634 1.56173 0
M  V30 10492 C 976.496 -1.26602 1.8962 0
M  V30 10493 C 977.48 -1.41808 0.760222 0
M  V30 10494 O 978.672 -1.44456 1.02281 0
M  V30 10495 C 975.801 -2.61438 2.22497 0
M  V30 10496 C 974.887 -2.50094 3.42511 0
M  V30 10497 N 975.278 -2.0841 4.60868 0
M  V30 10498 C 973.576 -2.81028 3.46322 0
M  V30 10499 C 974.277 -2.08557 5.43028 0
M  V30 10500 N 973.253 -2.49427 4.82998 0
M  V30 10501 H 977.055 -0.934806 2.78637 0
M  V30 10502 H 974.569 -0.420154 1.56871 0
M  V30 10503 H 976.566 -3.37577 2.44638 0
M  V30 10504 H 975.226 -2.95397 1.34798 0
M  V30 10505 H 976.237 -1.79382 4.85842 0
M  V30 10506 H 972.914 -3.19294 2.68994 0
M  V30 10507 H 974.304 -1.7837 6.47791 0
M  V30 10508 N 977.024 -1.50153 -0.478725 0
M  V30 10509 C 977.971 -1.68458 -1.57767 0
M  V30 10510 C 978.941 -0.5259 -1.57555 0
M  V30 10511 O 980.126 -0.755574 -1.75202 0
M  V30 10512 C 977.266 -1.77772 -2.95789 0
M  V30 10513 C 976.379 -3.05092 -3.05848 0
M  V30 10514 C 975.514 -3.05247 -4.34739 0
M  V30 10515 C 974.553 -4.27053 -4.38512 0
M  V30 10516 N 973.69 -4.24991 -5.58862 0
M  V30 10517 H 978.53 -2.62282 -1.41464 0
M  V30 10518 H 976.067 -1.30023 -0.687921 0
M  V30 10519 H 978.025 -1.81152 -3.75819 0
M  V30 10520 H 976.655 -0.873944 -3.10744 0
M  V30 10521 H 975.707 -3.11219 -2.1874 0
M  V30 10522 H 977.019 -3.95075 -3.04495 0
M  V30 10523 H 976.173 -3.07314 -5.23109 0
M  V30 10524 H 974.912 -2.13081 -4.38689 0
M  V30 10525 H 973.917 -4.25206 -3.4854 0
M  V30 10526 H 975.142 -5.20437 -4.36259 0
M  V30 10527 H 973.088 -3.35674 -5.63612 0
M  V30 10528 H 973.005 -5.08734 -5.59219 0
M  V30 10529 H 974.273 -4.31193 -6.49379 0
M  V30 10530 N 978.502 0.731368 -1.39602 0
M  V30 10531 C 979.748 1.49321 -1.37227 0
M  V30 10532 C 980.081 1.94176 0.0306502 0
M  V30 10533 O 979.356 1.67046 0.996294 0
M  V30 10534 C 979.639 2.73035 -2.34784 0
M  V30 10535 C 979.492 2.34176 -3.84033 0
M  V30 10536 C 980.811 3.75146 -2.30116 0
M  V30 10537 H 977.93 0.541652 -0.499783 0
M  V30 10538 H 980.572 0.835968 -1.70621 0
M  V30 10539 H 978.722 3.29114 -2.06437 0
M  V30 10540 H 980.394 1.83701 -4.23145 0
M  V30 10541 H 978.637 1.66361 -4.00633 0
M  V30 10542 H 979.308 3.22786 -4.47787 0
M  V30 10543 H 981.784 3.28661 -2.55189 0
M  V30 10544 H 980.66 4.5937 -3.00451 0
M  V30 10545 H 980.921 4.22326 -1.30741 0
M  V30 10546 N 979.98 1.24838 0.961938 0
M  V30 10547 C 981.229 1.0855 1.69999 0
M  V30 10548 C 981.542 -0.374645 1.91979 0
M  V30 10549 O 982.748 -0.657822 2.6341 0
M  V30 10550 C 981.204 1.89424 3.06017 0
M  V30 10551 C 980.812 3.39885 2.9186 0
M  V30 10552 C 982.556 1.81684 3.83655 0
M  V30 10553 C 980.463 4.13082 4.23223 0
M  V30 10554 H 979.393 0.402603 0.637516 0
M  V30 10555 H 982.044 1.4897 1.07146 0
M  V30 10556 H 980.426 1.41823 3.69733 0
M  V30 10557 H 981.6 3.95108 2.37121 0
M  V30 10558 H 979.915 3.4864 2.27683 0
M  V30 10559 H 982.512 2.3367 4.80939 0
M  V30 10560 H 982.855 0.783247 4.08865 0
M  V30 10561 H 983.388 2.26997 3.26676 0
M  V30 10562 H 980.127 5.16824 4.03204 0
M  V30 10563 H 979.647 3.62644 4.77755 0
M  V30 10564 H 981.326 4.20397 4.91808 0
M  V30 10565 N 981.458 -1.16348 1.06306 0
M  V30 10566 C 982.421 -2.18941 0.678053 0
M  V30 10567 C 983.421 -1.58409 -0.276277 0
M  V30 10568 O 984.611 -1.74101 -0.0586435 0
M  V30 10569 C 981.743 -3.409 -0.00228684 0
M  V30 10570 H 982.936 -2.54516 1.58624 0
M  V30 10571 H 980.489 -1.30625 0.858298 0
M  V30 10572 H 981.224 -3.10881 -0.923212 0
M  V30 10573 H 981.009 -3.86089 0.683949 0
M  V30 10574 H 982.499 -4.16806 -0.257374 0
M  V30 10575 N 982.937 -0.845659 -1.3299 0
M  V30 10576 C 984.183 -0.445311 -1.9785 0
M  V30 10577 C 984.516 0.994476 -1.66805 0
M  V30 10578 O 983.791 1.69636 -0.95151 0
M  V30 10579 C 984.074 -0.674371 -3.53729 0
M  V30 10580 C 983.927 -2.16192 -3.94437 0
M  V30 10581 C 985.246 -0.124908 -4.39923 0
M  V30 10582 H 982.365 -0.163269 -0.718688 0
M  V30 10583 H 985.007 -1.06242 -1.5752 0
M  V30 10584 H 983.157 -0.149091 -3.88214 0
M  V30 10585 H 984.829 -2.75259 -3.70176 0
M  V30 10586 H 983.072 -2.64386 -3.43922 0
M  V30 10587 H 983.743 -2.27292 -5.03033 0
M  V30 10588 H 986.219 -0.573986 -4.12122 0
M  V30 10589 H 985.095 -0.314816 -5.47996 0
M  V30 10590 H 985.356 0.971758 -4.31288 0
M  V30 10591 N 984.415 1.45619 -0.602734 0
M  V30 10592 C 985.661 2.02572 -0.0961759 0
M  V30 10593 C 985.994 1.47076 1.26815 0
M  V30 10594 O 985.269 0.643566 1.83544 0
M  V30 10595 C 985.552 3.60062 -0.0520032 0
M  V30 10596 C 985.405 4.25901 -1.44665 0
M  V30 10597 C 986.724 4.35446 0.638342 0
M  V30 10598 H 983.843 0.736099 -0.0364238 0
M  V30 10599 H 986.485 1.7353 -0.773776 0
M  V30 10600 H 984.635 3.84936 0.525032 0
M  V30 10601 H 986.307 4.12228 -2.0704 0
M  V30 10602 H 984.55 3.84489 -2.00874 0
M  V30 10603 H 985.221 5.34779 -1.36803 0
M  V30 10604 H 987.697 4.15837 0.147926 0
M  V30 10605 H 986.573 5.45176 0.63834 0
M  V30 10606 H 986.834 4.07962 1.70351 0
M  V30 10607 N 985.893 0.34162 1.53853 0
M  V30 10608 C 986.841 -0.531412 2.26448 0
M  V30 10609 C 987.835 -1.10357 1.28521 0
M  V30 10610 O 989.041 -1.04953 1.46236 0
M  V30 10611 H 985.416 -0.190054 0.727588 0
M  V30 10612 H 987.387 0.102922 2.98222 0
M  V30 10613 C 986.136 -1.67154 3.04885 0
M  V30 10614 H 985.459 -1.24055 3.80066 0
M  V30 10615 H 986.899 -2.25762 3.58898 0
M  V30 10616 C 985.358 -2.59984 2.14266 0
M  V30 10617 O 985.888 -3.62181 1.73746 0
M  V30 10618 N 984.094 -2.28625 1.79385 0
M  V30 10619 H 983.641 -1.45559 2.12533 0
M  V30 10620 H 983.599 -2.90995 1.19035 0
M  V30 10621 N 987.371 -1.57444 0.0701946 0
M  V30 10622 C 988.318 -2.12631 -0.897599 0
M  V30 10623 C 989.288 -1.03841 -1.29639 0
M  V30 10624 O 990.473 -1.31495 -1.38253 0
M  V30 10625 C 987.613 -2.6911 -2.16041 0
M  V30 10626 C 986.726 -3.9205 -1.8144 0
M  V30 10627 C 985.861 -4.36778 -3.02321 0
M  V30 10628 C 984.9 -5.52371 -2.63729 0
M  V30 10629 N 984.037 -5.92065 -3.77364 0
M  V30 10630 H 988.877 -2.95024 -0.420104 0
M  V30 10631 H 986.414 -1.45792 -0.195716 0
M  V30 10632 H 988.372 -2.99963 -2.89962 0
M  V30 10633 H 987.002 -1.89484 -2.61334 0
M  V30 10634 H 986.054 -3.67669 -0.975896 0
M  V30 10635 H 987.366 -4.76011 -1.49046 0
M  V30 10636 H 986.52 -4.69285 -3.84521 0
M  V30 10637 H 985.259 -3.51668 -3.37907 0
M  V30 10638 H 984.264 -5.19517 -1.7995 0
M  V30 10639 H 985.489 -6.39212 -2.29315 0
M  V30 10640 H 983.435 -5.09904 -4.12715 0
M  V30 10641 H 983.352 -6.70762 -3.48733 0
M  V30 10642 H 984.62 -6.29193 -4.60148 0
M  V30 10643 N 988.849 0.203349 -1.56283 0
M  V30 10644 C 989.782 1.27982 -1.88934 0
M  V30 10645 C 990.76 1.44345 -0.748555 0
M  V30 10646 O 991.944 1.59867 -0.998741 0
M  V30 10647 C 989.071 2.64762 -2.11231 0
M  V30 10648 C 988.117 2.65315 -3.33932 0
M  V30 10649 S 988.95 2.17568 -4.8931 0
M  V30 10650 C 990.106 3.56189 -5.14665 0
M  V30 10651 H 990.339 1.00095 -2.79943 0
M  V30 10652 H 987.872 0.406458 -1.48954 0
M  V30 10653 H 989.83 3.43501 -2.2476 0
M  V30 10654 H 988.491 2.89864 -1.20986 0
M  V30 10655 H 987.684 3.6587 -3.46634 0
M  V30 10656 H 987.286 1.94652 -3.19353 0
M  V30 10657 H 989.578 4.52001 -5.0468 0
M  V30 10658 H 990.521 3.48387 -6.16467 0
M  V30 10659 H 990.929 3.50719 -4.42331 0
M  V30 10660 N 990.327 1.50405 0.470755 0
M  V30 10661 C 991.573 1.6165 1.22462 0
M  V30 10662 C 991.906 0.316034 1.91611 0
M  V30 10663 O 991.181 -0.682509 1.82132 0
M  V30 10664 C 991.464 2.79702 2.26801 0
M  V30 10665 C 991.317 4.19631 1.61955 0
M  V30 10666 C 992.636 2.93313 3.28109 0
M  V30 10667 H 989.755 0.588345 0.443868 0
M  V30 10668 H 992.397 1.82792 0.518376 0
M  V30 10669 H 990.547 2.61807 2.87036 0
M  V30 10670 H 992.219 4.49117 1.05316 0
M  V30 10671 H 990.462 4.23874 0.922674 0
M  V30 10672 H 991.133 4.98162 2.37779 0
M  V30 10673 H 993.609 3.09697 2.77897 0
M  V30 10674 H 992.485 3.77537 3.98443 0
M  V30 10675 H 992.746 2.03942 3.9225 0
M  V30 10676 N 991.805 -0.723954 1.39988 0
M  V30 10677 C 993.03 -1.5182 1.41299 0
M  V30 10678 C 993.455 -1.88096 0.0122636 0
M  V30 10679 O 992.813 -1.52687 -0.977559 0
M  V30 10680 C 992.861 -2.77532 2.30235 0
M  V30 10681 O 991.965 -3.73903 1.73984 0
M  V30 10682 H 991.306 -0.458058 0.480707 0
M  V30 10683 H 993.836 -0.892291 1.84118 0
M  V30 10684 H 993.846 -3.2615 2.45132 0
M  V30 10685 H 992.521 -2.50462 3.32026 0
M  V30 10686 H 991.098 -3.32715 1.68389 0
M  V30 10687 N 993.283 -1.25346 -0.955304 0
M  V30 10688 C 994.216 -0.999933 -2.05126 0
M  V30 10689 C 995.194 0.070585 -1.62447 0
M  V30 10690 O 996.378 -0.0689306 -1.88374 0
M  V30 10691 C 993.505 -0.511425 -3.34817 0
M  V30 10692 C 992.551 -1.57237 -3.96458 0
M  V30 10693 S 993.384 -3.15736 -4.32517 0
M  V30 10694 C 994.54 -2.68619 -5.65327 0
M  V30 10695 H 994.773 -1.92791 -2.26316 0
M  V30 10696 H 992.306 -1.08869 -1.09485 0
M  V30 10697 H 994.264 -0.236219 -4.0982 0
M  V30 10698 H 992.925 0.39604 -3.11593 0
M  V30 10699 H 992.118 -1.18125 -4.89962 0
M  V30 10700 H 991.72 -1.79822 -3.27933 0
M  V30 10701 H 994.012 -2.12203 -6.4341 0
M  V30 10702 H 994.955 -3.6076 -6.09309 0
M  V30 10703 H 995.363 -2.08638 -5.24529 0
M  V30 10704 N 994.761 1.15782 -1.06922 0
M  V30 10705 C 995.694 2.19336 -0.629837 0
M  V30 10706 C 996.672 1.58774 0.350663 0
M  V30 10707 O 997.856 1.86724 0.258124 0
M  V30 10708 C 994.983 3.38615 0.0757526 0
M  V30 10709 C 994.029 4.17688 -0.862503 0
M  V30 10710 S 994.862 4.80634 -2.36117 0
M  V30 10711 C 996.018 6.03286 -1.66725 0
M  V30 10712 H 996.251 2.56267 -1.50714 0
M  V30 10713 H 993.784 1.26674 -0.882776 0
M  V30 10714 H 995.742 4.07724 0.476611 0
M  V30 10715 H 994.403 3.00037 0.929332 0
M  V30 10716 H 993.596 5.03012 -0.315461 0
M  V30 10717 H 993.198 3.54106 -1.20354 0
M  V30 10718 H 995.49 6.70426 -0.976472 0
M  V30 10719 H 996.433 6.62551 -2.49864 0
M  V30 10720 H 996.841 5.52722 -1.14711 0
M  V30 10721 N 996.239 0.8527 1.3254 0
M  V30 10722 C 997.149 0.298744 2.3269 0
M  V30 10723 C 998.165 -0.582418 1.63963 0
M  V30 10724 O 999.341 -0.483253 1.95516 0
M  V30 10725 C 996.406 -0.505453 3.42996 0
M  V30 10726 C 995.467 0.401618 4.27417 0
M  V30 10727 C 994.7 -0.364294 5.32455 0
M  V30 10728 O 994.923 -1.59448 5.47661 0
M  V30 10729 O 993.857 0.268892 6.01299 0
M  V30 10730 H 997.683 1.12843 2.81958 0
M  V30 10731 H 995.268 0.615584 1.36128 0
M  V30 10732 H 997.15 -0.961974 4.10273 0
M  V30 10733 H 995.825 -1.31197 2.95921 0
M  V30 10734 H 994.732 0.906274 3.62957 0
M  V30 10735 H 996.065 1.17327 4.78012 0
M  V30 10736 N 997.718 -1.45297 0.610449 0
M  V30 10737 C 998.966 -2.01819 0.106548 0
M  V30 10738 C 999.287 -1.48102 -1.26849 0
M  V30 10739 O 998.557 -0.676411 -1.83852 0
M  V30 10740 H 997.137 -0.746113 0.0363982 0
M  V30 10741 H 999.799 -1.78061 0.792491 0
M  V30 10742 H 998.895 -3.12045 0.0585 0
M  V30 10743 N 999.196 -0.349774 -1.5367 0
M  V30 10744 C 1000.44 0.245189 -2.01312 0
M  V30 10745 C 1000.77 1.49702 -1.23705 0
M  V30 10746 O 1000.05 1.91742 -0.326371 0
M  V30 10747 C 1000.33 0.553071 -3.55827 0
M  V30 10748 C 1000.19 -0.71129 -4.4414 0
M  V30 10749 C 1001.5 1.36015 -4.18555 0
M  V30 10750 H 998.624 0.0876415 -0.73177 0
M  V30 10751 H 1001.27 -0.471543 -1.84056 0
M  V30 10752 H 999.416 1.16367 -3.70663 0
M  V30 10753 H 1001.09 -1.34913 -4.41131 0
M  V30 10754 H 999.331 -1.33491 -4.1275 0
M  V30 10755 H 1000 -0.45104 -5.50154 0
M  V30 10756 H 1002.48 0.843778 -4.07455 0
M  V30 10757 H 1001.35 1.54432 -5.26728 0
M  V30 10758 H 1001.61 2.36408 -3.73582 0
M  V30 10759 N 1000.67 1.57404 -0.0785433 0
M  V30 10760 C 1001.92 1.9292 0.588626 0
M  V30 10761 C 1002.24 0.961106 1.70359 0
M  V30 10762 O 1003.44 1.20934 2.43079 0
M  V30 10763 C 1001.9 3.42729 1.09839 0
M  V30 10764 C 1001.51 4.47998 0.0140773 0
M  V30 10765 C 1003.25 3.87235 1.73924 0
M  V30 10766 C 1001.16 5.88945 0.538269 0
M  V30 10767 H 1000.09 0.720069 0.223645 0
M  V30 10768 H 1002.74 1.8287 -0.15187 0
M  V30 10769 H 1001.12 3.47875 1.89207 0
M  V30 10770 H 1002.29 4.54476 -0.760773 0
M  V30 10771 H 1000.61 4.13001 -0.53095 0
M  V30 10772 H 1003.21 4.89927 2.14186 0
M  V30 10773 H 1003.55 3.24971 2.60191 0
M  V30 10774 H 1004.08 3.84721 1.01168 0
M  V30 10775 H 1000.82 6.5487 -0.287395 0
M  V30 10776 H 1000.34 5.85972 1.28049 0
M  V30 10777 H 1002.02 6.39028 1.01253 0
M  V30 10778 N 1002.15 -0.195058 1.56388 0
M  V30 10779 C 1003.08 -1.26581 1.91076 0
M  V30 10780 C 1004.1 -1.41707 0.801436 0
M  V30 10781 O 1005.29 -1.42132 1.07985 0
M  V30 10782 C 1002.39 -2.63794 2.12758 0
M  V30 10783 C 1001.56 -2.70275 3.43904 0
M  V30 10784 C 1000.62 -3.88685 3.54698 0
M  V30 10785 O 999.644 -3.75786 4.2752 0
M  V30 10786 N 1000.85 -5.04141 2.87789 0
M  V30 10787 H 1003.61 -0.971401 2.83521 0
M  V30 10788 H 1001.17 -0.384976 1.57256 0
M  V30 10789 H 1003.16 -3.41434 2.17267 0
M  V30 10790 H 1001.73 -2.85723 1.26812 0
M  V30 10791 H 1000.95 -1.78909 3.51262 0
M  V30 10792 H 1002.24 -2.71597 4.30247 0
M  V30 10793 H 1001.64 -5.17519 2.28452 0
M  V30 10794 H 1000.2 -5.79727 2.97925 0
M  V30 10795 N 1003.63 -1.50653 -0.462772 0
M  V30 10796 C 1004.58 -1.70122 -1.55971 0
M  V30 10797 C 1005.55 -0.542581 -1.56988 0
M  V30 10798 O 1006.73 -0.774114 -1.74391 0
M  V30 10799 C 1003.87 -1.80899 -2.93887 0
M  V30 10800 C 1002.98 -3.08318 -3.02595 0
M  V30 10801 C 1002.12 -3.09841 -4.31477 0
M  V30 10802 C 1001.16 -4.3168 -4.33957 0
M  V30 10803 N 1000.3 -4.30894 -5.54323 0
M  V30 10804 H 1005.14 -2.63768 -1.38674 0
M  V30 10805 H 1002.67 -1.30746 -0.674091 0
M  V30 10806 H 1004.63 -1.85128 -3.73876 0
M  V30 10807 H 1003.26 -0.906854 -3.098 0
M  V30 10808 H 1002.31 -3.13521 -2.15427 0
M  V30 10809 H 1003.62 -3.98282 -3.00288 0
M  V30 10810 H 1002.78 -3.12845 -5.1982 0
M  V30 10811 H 1001.52 -2.17722 -4.36404 0
M  V30 10812 H 1000.52 -4.28879 -3.4401 0
M  V30 10813 H 1001.75 -5.25035 -4.30715 0
M  V30 10814 H 999.694 -3.41633 -5.6002 0
M  V30 10815 H 999.611 -5.14636 -5.53792 0
M  V30 10816 H 1000.88 -4.38056 -6.44769 0
M  V30 10817 N 1005.11 0.71652 -1.4037 0
M  V30 10818 C 1006.04 1.84138 -1.36477 0
M  V30 10819 C 1007.05 1.6054 -0.27033 0
M  V30 10820 O 1008.24 1.70431 -0.530612 0
M  V30 10821 C 1005.34 3.20523 -1.10082 0
M  V30 10822 C 1004.52 3.71326 -2.31162 0
M  V30 10823 C 1003.57 4.86322 -2.00942 0
M  V30 10824 O 1002.6 4.99022 -2.73799 0
M  V30 10825 N 1003.8 5.72051 -0.986812 0
M  V30 10826 H 1006.57 1.87977 -2.3342 0
M  V30 10827 H 1004.13 0.89802 -1.34712 0
M  V30 10828 H 1006.12 3.95049 -0.878526 0
M  V30 10829 H 1004.69 3.11838 -0.21809 0
M  V30 10830 H 1003.91 2.87941 -2.69227 0
M  V30 10831 H 1005.2 4.02003 -3.11883 0
M  V30 10832 H 1004.6 5.64399 -0.383381 0
M  V30 10833 H 1003.15 6.46565 -0.824419 0
M  V30 10834 N 1006.59 1.25851 0.948643 0
M  V30 10835 C 1007.53 1.06759 2.04625 0
M  V30 10836 C 1008.5 -0.0251144 1.66081 0
M  V30 10837 O 1009.69 0.133221 1.90334 0
M  V30 10838 C 1006.83 0.698724 3.37952 0
M  V30 10839 C 1005.94 1.8669 3.89578 0
M  V30 10840 C 1005.08 1.44184 5.11258 0
M  V30 10841 C 1004.12 2.57878 5.55126 0
M  V30 10842 N 1003.25 2.16106 6.68014 0
M  V30 10843 H 1008.09 2.00691 2.20289 0
M  V30 10844 H 1005.63 0.999327 1.07944 0
M  V30 10845 H 1007.59 0.465788 4.14592 0
M  V30 10846 H 1006.22 -0.203618 3.22157 0
M  V30 10847 H 1005.27 2.21298 3.09405 0
M  V30 10848 H 1006.58 2.72051 4.18079 0
M  V30 10849 H 1005.74 1.16891 5.95333 0
M  V30 10850 H 1004.47 0.559035 4.84485 0
M  V30 10851 H 1003.48 2.85909 4.69612 0
M  V30 10852 H 1004.7 3.46747 5.83904 0
M  V30 10853 H 1002.65 1.3025 6.42939 0
M  V30 10854 H 1002.57 2.95012 6.96063 0
M  V30 10855 H 1003.84 1.92005 7.55483 0
M  V30 10856 N 1008.06 -1.15214 1.07534 0
M  V30 10857 C 1009.01 -2.22078 0.69168 0
M  V30 10858 C 1010.01 -1.66751 -0.298382 0
M  V30 10859 O 1011.21 -1.7927 -0.161897 0
M  V30 10860 H 1007.59 -0.723347 0.205604 0
M  V30 10861 H 1009.56 -2.51716 1.60256 0
M  V30 10862 C 1008.31 -3.47534 0.107546 0
M  V30 10863 H 1007.63 -3.90429 0.860522 0
M  V30 10864 H 1009.07 -4.23821 -0.123215 0
M  V30 10865 C 1007.53 -3.16583 -1.15226 0
M  V30 10866 O 1008.06 -3.33551 -2.23845 0
M  V30 10867 N 1006.27 -2.70611 -1.05915 0
M  V30 10868 H 1005.81 -2.57004 -0.175198 0
M  V30 10869 H 1005.77 -2.50277 -1.90287 0
M  V30 10870 N 1009.54 -0.859717 -1.32086 0
M  V30 10871 C 1010.79 -0.461779 -1.96343 0
M  V30 10872 C 1011.1 0.988837 -1.68764 0
M  V30 10873 O 1012.31 1.49244 -2.268 0
M  V30 10874 C 1010.77 -0.77484 -3.5146 0
M  V30 10875 C 1010.37 -2.24153 -3.87891 0
M  V30 10876 C 1012.12 -0.444873 -4.22162 0
M  V30 10877 C 1010.03 -2.49754 -5.36075 0
M  V30 10878 H 1008.96 -0.168951 -0.734828 0
M  V30 10879 H 1011.61 -1.0512 -1.50406 0
M  V30 10880 H 1009.99 -0.114792 -3.95834 0
M  V30 10881 H 1011.16 -2.94378 -3.54511 0
M  V30 10882 H 1009.48 -2.53651 -3.30227 0
M  V30 10883 H 1012.07 -0.613508 -5.31169 0
M  V30 10884 H 1012.42 0.61391 -4.11749 0
M  V30 10885 H 1012.95 -1.06103 -3.83389 0
M  V30 10886 H 1009.69 -3.54276 -5.51515 0
M  V30 10887 H 1009.21 -1.84112 -5.70844 0
M  V30 10888 H 1010.89 -2.3396 -6.03218 0
M  V30 10889 N 1011.02 1.44971 -0.618145 0
M  V30 10890 C 1011.98 2.29044 0.0846739 0
M  V30 10891 C 1012.98 1.40341 0.784921 0
M  V30 10892 O 1014.17 1.62351 0.631479 0
M  V30 10893 C 1011.31 3.21617 1.13027 0
M  V30 10894 H 1012.5 2.92668 -0.654612 0
M  V30 10895 H 1010.05 1.51668 -0.377672 0
M  V30 10896 H 1010.79 2.62815 1.89997 0
M  V30 10897 H 1010.57 3.86969 0.63224 0
M  V30 10898 H 1012.06 3.84805 1.62218 0
M  V30 10899 N 1012.5 0.357919 1.53482 0
M  V30 10900 C 1013.75 -0.2337 2.00744 0
M  V30 10901 C 1014.07 -1.49908 1.2471 0
M  V30 10902 O 1013.34 -1.92597 0.358235 0
M  V30 10903 H 1011.92 -0.0893474 0.741637 0
M  V30 10904 H 1014.58 0.482388 1.88836 0
M  V30 10905 H 1013.68 -0.466073 3.086 0
M  V30 10906 N 1013.98 -1.5736 0.0868897 0
M  V30 10907 C 1014.94 -2.12436 -0.860439 0
M  V30 10908 C 1015.94 -1.05175 -1.21634 0
M  V30 10909 O 1017.13 -1.31098 -1.14713 0
M  V30 10910 C 1014.26 -2.63818 -2.159 0
M  V30 10911 H 1015.45 -2.97453 -0.382346 0
M  V30 10912 H 1013.01 -1.55458 -0.162009 0
M  V30 10913 H 1013.74 -1.82298 -2.68212 0
M  V30 10914 H 1013.53 -3.42234 -1.91359 0
M  V30 10915 H 1015.02 -3.06452 -2.83685 0
M  V30 10916 N 1015.45 0.186762 -1.56489 0
M  V30 10917 C 1016.38 1.23395 -1.98232 0
M  V30 10918 C 1017.37 1.4702 -0.855526 0
M  V30 10919 O 1018.55 1.58616 -1.12048 0
M  V30 10920 C 1015.68 2.57635 -2.32898 0
M  V30 10921 C 1014.63 2.48607 -3.48394 0
M  V30 10922 C 1013.96 3.87196 -3.68759 0
M  V30 10923 C 1015.26 2.00398 -4.82325 0
M  V30 10924 H 1016.95 0.887026 -2.85958 0
M  V30 10925 H 1014.5 0.42525 -1.37578 0
M  V30 10926 H 1016.45 3.31082 -2.60696 0
M  V30 10927 H 1015.18 2.94084 -1.42064 0
M  V30 10928 H 1013.84 1.77615 -3.207 0
M  V30 10929 H 1013.48 4.21012 -2.75241 0
M  V30 10930 H 1013.18 3.82029 -4.46462 0
M  V30 10931 H 1014.71 4.62253 -3.98941 0
M  V30 10932 H 1016.12 2.6361 -5.091 0
M  V30 10933 H 1014.52 2.06214 -5.63556 0
M  V30 10934 H 1015.59 0.957562 -4.75351 0
M  V30 10935 N 1016.93 1.50896 0.454776 0
M  V30 10936 C 1017.9 1.70377 1.53312 0
M  V30 10937 C 1018.9 0.57408 1.50203 0
M  V30 10938 O 1020.09 0.841374 1.52534 0
M  V30 10939 C 1017.22 1.74411 2.92905 0
M  V30 10940 H 1018.41 2.66599 1.37349 0
M  V30 10941 H 1015.96 1.40622 0.68228 0
M  V30 10942 H 1016.7 0.799408 3.14293 0
M  V30 10943 H 1016.48 2.56496 2.96568 0
M  V30 10944 H 1017.97 1.91382 3.71164 0
M  V30 10945 N 1018.41 -0.709066 1.40748 0
M  V30 10946 C 1019.66 -1.46901 1.39378 0
M  V30 10947 C 1019.99 -1.945 -0.0016993 0
M  V30 10948 O 1019.24 -1.68963 -0.987426 0
M  V30 10949 C 1019.54 -2.70543 2.33541 0
M  V30 10950 C 1019.21 -2.41674 3.80663 0
M  V30 10951 C 1017.87 -2.33511 4.20745 0
M  V30 10952 C 1020.22 -2.1759 4.73607 0
M  V30 10953 C 1017.55 -1.99342 5.51797 0
M  V30 10954 C 1019.9 -1.84933 6.04965 0
M  V30 10955 C 1018.56 -1.75256 6.44082 0
M  V30 10956 H 1017.83 -0.537549 0.510021 0
M  V30 10957 H 1020.48 -0.811635 1.7345 0
M  V30 10958 H 1018.79 -3.41149 1.92677 0
M  V30 10959 H 1020.48 -3.2865 2.29761 0
M  V30 10960 H 1017.07 -2.48917 3.4891 0
M  V30 10961 H 1021.26 -2.22849 4.43454 0
M  V30 10962 H 1016.51 -1.90392 5.81 0
M  V30 10963 H 1020.69 -1.65313 6.76494 0
M  V30 10964 H 1018.31 -1.48547 7.45545 0
M  V30 10965 N 1019.89 -1.26353 -0.941956 0
M  V30 10966 C 1021.14 -1.13026 -1.69106 0
M  V30 10967 C 1021.49 0.323264 -1.89665 0
M  V30 10968 O 1020.78 1.23405 -1.46566 0
M  V30 10969 C 1020.98 -1.83195 -3.06879 0
M  V30 10970 C 1020.81 -3.35221 -2.99762 0
M  V30 10971 C 1019.58 -4.04509 -3.02821 0
M  V30 10972 C 1021.77 -4.31425 -2.79959 0
M  V30 10973 N 1019.76 -5.43212 -2.85995 0
M  V30 10974 C 1021.13 -5.57299 -2.71694 0
M  V30 10975 C 1023.18 -4.21686 -2.64736 0
M  V30 10976 C 1021.89 -6.74546 -2.49761 0
M  V30 10977 C 1023.91 -5.38639 -2.44177 0
M  V30 10978 C 1023.27 -6.6346 -2.36643 0
M  V30 10979 H 1019.37 -0.468375 -0.626218 0
M  V30 10980 H 1021.96 -1.59629 -1.11476 0
M  V30 10981 H 1020.13 -1.39068 -3.62649 0
M  V30 10982 H 1021.86 -1.62498 -3.70644 0
M  V30 10983 H 1018.61 -3.55863 -3.12503 0
M  V30 10984 H 1019.04 -6.16042 -2.80752 0
M  V30 10985 H 1023.68 -3.25918 -2.69328 0
M  V30 10986 H 1021.4 -7.70411 -2.4391 0
M  V30 10987 H 1024.98 -5.32973 -2.33305 0
M  V30 10988 H 1023.86 -7.52431 -2.20945 0
M  V30 10989 N 1021.37 1.14642 -1.08144 0
M  V30 10990 C 1022.3 2.18656 -0.653066 0
M  V30 10991 C 1023.28 1.59137 0.333803 0
M  V30 10992 O 1024.46 1.86988 0.238305 0
M  V30 10993 C 1021.59 3.38677 0.0398337 0
M  V30 10994 C 1020.64 4.1675 -0.906755 0
M  V30 10995 S 1021.47 4.78103 -2.41201 0
M  V30 10996 C 1022.62 6.01483 -1.73115 0
M  V30 10997 H 1022.86 2.54654 -1.53423 0
M  V30 10998 H 1020.39 1.25731 -0.896162 0
M  V30 10999 H 1022.35 4.08206 0.43334 0
M  V30 11000 H 1021.01 3.01006 0.897457 0
M  V30 11001 H 1020.2 5.02649 -0.368795 0
M  V30 11002 H 1019.8 3.52809 -1.24103 0
M  V30 11003 H 1022.1 6.69353 -1.04752 0
M  V30 11004 H 1023.04 6.59863 -2.56878 0
M  V30 11005 H 1023.45 5.51474 -1.20566 0
M  V30 11006 N 1022.85 0.866709 1.31628 0
M  V30 11007 C 1023.81 0.325041 2.26883 0
M  V30 11008 C 1024.81 -0.522133 1.52087 0
M  V30 11009 O 1026 -0.331908 1.71009 0
M  V30 11010 C 1023.13 -0.538756 3.36616 0
M  V30 11011 H 1024.32 1.16592 2.76308 0
M  V30 11012 H 1021.88 0.642029 1.42505 0
M  V30 11013 H 1022.61 -1.40096 2.92478 0
M  V30 11014 H 1022.4 0.0678115 3.92041 0
M  V30 11015 H 1023.89 -0.910123 4.07562 0
M  V30 11016 N 1024.32 -1.44642 0.625825 0
M  V30 11017 C 1025.27 -2.32408 -0.0945221 0
M  V30 11018 C 1026.27 -1.47038 -0.841198 0
M  V30 11019 O 1027.47 -1.63415 -0.754698 0
M  V30 11020 H 1023.85 -0.75038 -0.0493321 0
M  V30 11021 H 1025.82 -2.90922 0.663863 0
M  V30 11022 C 1024.57 -3.30951 -1.06615 0
M  V30 11023 H 1023.89 -3.96648 -0.501021 0
M  V30 11024 H 1025.33 -3.95054 -1.53976 0
M  V30 11025 C 1023.79 -2.59479 -2.14877 0
M  V30 11026 O 1024.32 -2.38974 -3.22885 0
M  V30 11027 N 1022.52 -2.19307 -1.90665 0
M  V30 11028 H 1022.07 -2.36184 -1.02835 0
M  V30 11029 H 1022.03 -1.71811 -2.63303 0
M  V30 11030 N 1025.8 -0.366053 -1.5329 0
M  V30 11031 C 1026.76 0.467904 -2.24373 0
M  V30 11032 C 1027.76 1.00934 -1.25176 0
M  V30 11033 O 1028.95 0.895015 -1.49449 0
M  V30 11034 C 1026.09 1.65405 -2.98084 0
M  V30 11035 H 1027.28 -0.154105 -2.99504 0
M  V30 11036 H 1024.83 -0.117751 -1.55856 0
M  V30 11037 H 1025.57 2.31413 -2.27197 0
M  V30 11038 H 1025.35 1.27277 -3.70868 0
M  V30 11039 H 1026.84 2.24503 -3.52119 0
M  V30 11040 N 1027.28 1.57312 -0.0952337 0
M  V30 11041 C 1028.5 1.99119 0.580206 0
M  V30 11042 C 1028.93 0.973955 1.60922 0
M  V30 11043 O 1028.29 -0.0575338 1.81209 0
M  V30 11044 C 1028.34 3.39893 1.20438 0
M  V30 11045 O 1027.44 3.40941 2.32019 0
M  V30 11046 H 1026.78 0.64748 0.147195 0
M  V30 11047 H 1029.31 2.03836 -0.176686 0
M  V30 11048 H 1029.32 3.7759 1.54564 0
M  V30 11049 H 1028 4.13453 0.450514 0
M  V30 11050 H 1026.57 3.1504 1.9951 0
M  V30 11051 N 1028.76 -0.17846 1.56586 0
M  V30 11052 C 1029.67 -1.24115 1.9908 0
M  V30 11053 C 1030.68 -1.48854 0.901031 0
M  V30 11054 O 1031.86 -1.61142 1.2081 0
M  V30 11055 C 1028.92 -2.56187 2.33601 0
M  V30 11056 C 1027.99 -2.39373 3.56369 0
M  V30 11057 C 1027.22 -3.65147 3.89234 0
M  V30 11058 O 1027.44 -4.70024 3.23162 0
M  V30 11059 O 1026.38 -3.59683 4.82609 0
M  V30 11060 H 1030.2 -0.910482 2.89731 0
M  V30 11061 H 1027.79 -0.38477 1.4436 0
M  V30 11062 H 1029.67 -3.34109 2.56806 0
M  V30 11063 H 1028.34 -2.88847 1.46113 0
M  V30 11064 H 1027.25 -1.59506 3.38391 0
M  V30 11065 H 1028.58 -2.1164 4.44375 0
M  V30 11066 N 1030.24 -1.51135 -0.446768 0
M  V30 11067 C 1031.17 -1.74709 -1.54916 0
M  V30 11068 C 1032.15 -0.596628 -1.59293 0
M  V30 11069 O 1033.33 -0.838356 -1.75172 0
M  V30 11070 C 1030.46 -1.86353 -2.9307 0
M  V30 11071 C 1029.42 -3.01725 -3.03556 0
M  V30 11072 C 1028.74 -2.9854 -4.43597 0
M  V30 11073 C 1030.04 -4.41848 -2.7851 0
M  V30 11074 H 1031.74 -2.67014 -1.3544 0
M  V30 11075 H 1029.28 -1.28489 -0.650131 0
M  V30 11076 H 1031.23 -2.01428 -3.70141 0
M  V30 11077 H 1029.96 -0.906887 -3.13756 0
M  V30 11078 H 1028.62 -2.86339 -2.28922 0
M  V30 11079 H 1028.27 -2.00673 -4.61237 0
M  V30 11080 H 1027.97 -3.76008 -4.51544 0
M  V30 11081 H 1029.49 -3.15696 -5.22655 0
M  V30 11082 H 1030.9 -4.57633 -3.45319 0
M  V30 11083 H 1029.3 -5.2095 -2.97877 0
M  V30 11084 H 1030.37 -4.52536 -1.74182 0
M  V30 11085 N 1031.71 0.701592 -1.41122 0
M  V30 11086 C 1032.64 1.82815 -1.45262 0
M  V30 11087 C 1033.62 1.67215 -0.311939 0
M  V30 11088 O 1034.81 1.87038 -0.522538 0
M  V30 11089 C 1031.94 3.20899 -1.32819 0
M  V30 11090 C 1030.89 3.51194 -2.44636 0
M  V30 11091 C 1030.22 4.8857 -2.17263 0
M  V30 11092 C 1031.52 3.50777 -3.86979 0
M  V30 11093 H 1033.21 1.79608 -2.39544 0
M  V30 11094 H 1030.76 0.862693 -1.15298 0
M  V30 11095 H 1032.71 3.99417 -1.34329 0
M  V30 11096 H 1031.44 3.24717 -0.350191 0
M  V30 11097 H 1030.1 2.75024 -2.42399 0
M  V30 11098 H 1029.74 4.89007 -1.17819 0
M  V30 11099 H 1029.44 5.09805 -2.92186 0
M  V30 11100 H 1030.97 5.69405 -2.20478 0
M  V30 11101 H 1032.38 4.19309 -3.90964 0
M  V30 11102 H 1030.78 3.83542 -4.61536 0
M  V30 11103 H 1031.85 2.49873 -4.15562 0
M  V30 11104 N 1033.19 1.2685 0.935242 0
M  V30 11105 C 1034.14 1.08746 2.05614 0
M  V30 11106 C 1035.13 0.012681 1.69395 0
M  V30 11107 O 1036.34 0.169822 1.79197 0
M  V30 11108 H 1032.71 0.33485 0.673335 0
M  V30 11109 H 1034.69 2.03725 2.18033 0
M  V30 11110 C 1033.43 0.74346 3.39659 0
M  V30 11111 H 1032.76 1.56236 3.68008 0
M  V30 11112 H 1034.2 0.656607 4.18885 0
M  V30 11113 C 1032.66 -0.551751 3.32351 0
M  V30 11114 O 1033.19 -1.58836 3.68963 0
M  V30 11115 N 1031.39 -0.544583 2.85452 0
M  V30 11116 H 1030.94 0.29939 2.55854 0
M  V30 11117 H 1030.9 -1.41129 2.80945 0
M  V30 11118 N 1034.67 -1.14067 1.0875 0
M  V30 11119 C 1035.92 -1.85185 0.819317 0
M  V30 11120 C 1036.25 -1.8314 -0.654969 0
M  V30 11121 O 1035.5 -1.25974 -1.49763 0
M  V30 11122 C 1035.8 -3.33273 1.29089 0
M  V30 11123 C 1035.47 -3.55504 2.77359 0
M  V30 11124 C 1034.13 -3.61279 3.17853 0
M  V30 11125 C 1036.48 -3.64041 3.72992 0
M  V30 11126 C 1033.81 -3.73119 4.52768 0
M  V30 11127 C 1036.16 -3.77407 5.07687 0
M  V30 11128 C 1034.82 -3.81433 5.47782 0
M  V30 11129 H 1034.09 -0.67764 0.299809 0
M  V30 11130 H 1036.74 -1.34713 1.36106 0
M  V30 11131 H 1035.05 -3.86049 0.668811 0
M  V30 11132 H 1036.74 -3.86734 1.06009 0
M  V30 11133 H 1033.33 -3.51659 2.45019 0
M  V30 11134 H 1037.52 -3.58866 3.42825 0
M  V30 11135 H 1032.77 -3.74499 4.83281 0
M  V30 11136 H 1036.95 -3.82956 5.81651 0
M  V30 11137 H 1034.57 -3.9036 6.52321 0
M  V30 11138 N 1036.15 -0.873678 -1.31166 0
M  V30 11139 C 1037.4 -0.482577 -1.95842 0
M  V30 11140 C 1037.71 0.970881 -1.69804 0
M  V30 11141 O 1038.92 1.4683 -2.28371 0
M  V30 11142 C 1037.37 -0.812074 -3.50619 0
M  V30 11143 C 1036.98 -2.28254 -3.85492 0
M  V30 11144 C 1038.72 -0.489624 -4.21667 0
M  V30 11145 C 1036.63 -2.55426 -5.33396 0
M  V30 11146 H 1035.56 -0.176736 -0.732994 0
M  V30 11147 H 1038.21 -1.06709 -1.49283 0
M  V30 11148 H 1036.59 -0.156769 -3.9569 0
M  V30 11149 H 1037.77 -2.98122 -3.51369 0
M  V30 11150 H 1036.08 -2.5714 -3.27518 0
M  V30 11151 H 1038.68 -0.669811 -5.30488 0
M  V30 11152 H 1039.02 0.570204 -4.12376 0
M  V30 11153 H 1039.56 -1.10163 -3.82242 0
M  V30 11154 H 1036.3 -3.60106 -5.47726 0
M  V30 11155 H 1035.82 -1.90156 -5.68859 0
M  V30 11156 H 1037.49 -2.40345 -6.00702 0
M  V30 11157 N 1037.63 1.44308 -0.633487 0
M  V30 11158 C 1038.57 2.30694 0.0700257 0
M  V30 11159 C 1039.54 1.43618 0.834447 0
M  V30 11160 O 1040.73 1.72517 0.815014 0
M  V30 11161 C 1037.87 3.28929 1.04403 0
M  V30 11162 C 1036.98 4.31106 0.277779 0
M  V30 11163 C 1036.12 5.16433 1.24381 0
M  V30 11164 C 1035.16 6.10317 0.466855 0
M  V30 11165 N 1034.29 6.88335 1.38347 0
M  V30 11166 H 1039.13 2.90311 -0.672567 0
M  V30 11167 H 1036.67 1.43034 -0.343449 0
M  V30 11168 H 1038.63 3.84373 1.62214 0
M  V30 11169 H 1037.26 2.71006 1.75372 0
M  V30 11170 H 1036.31 3.78115 -0.416292 0
M  V30 11171 H 1037.62 4.97725 -0.327251 0
M  V30 11172 H 1036.78 5.76406 1.89318 0
M  V30 11173 H 1035.51 4.49893 1.88276 0
M  V30 11174 H 1034.52 5.49451 -0.195989 0
M  V30 11175 H 1035.74 6.78894 -0.167414 0
M  V30 11176 H 1033.69 6.24461 2.00959 0
M  V30 11177 H 1033.61 7.51402 0.832517 0
M  V30 11178 H 1034.88 7.52829 2.0216 0
M  V30 11179 N 1039.1 0.374177 1.53094 0
M  V30 11180 C 1040.04 -0.503065 2.23611 0
M  V30 11181 C 1041.05 -1.03915 1.25321 0
M  V30 11182 O 1042.24 -0.944064 1.51492 0
M  V30 11183 C 1039.34 -1.70825 2.92698 0
M  V30 11184 C 1038.51 -1.30217 4.17567 0
M  V30 11185 C 1037.57 -2.37036 4.69788 0
M  V30 11186 O 1036.6 -1.99069 5.33254 0
M  V30 11187 N 1037.8 -3.68743 4.4834 0
M  V30 11188 H 1040.56 0.101013 2.9953 0
M  V30 11189 H 1038.12 0.199778 1.60663 0
M  V30 11190 H 1040.12 -2.41779 3.24538 0
M  V30 11191 H 1038.69 -2.219 2.2018 0
M  V30 11192 H 1037.91 -0.422121 3.91933 0
M  V30 11193 H 1039.19 -1.00728 4.9873 0
M  V30 11194 H 1038.59 -4.0236 3.97647 0
M  V30 11195 H 1037.15 -4.35776 4.84709 0
M  V30 11196 N 1040.58 -1.57259 0.103575 0
M  V30 11197 C 1041.86 -1.86143 -0.600852 0
M  V30 11198 C 1042.24 -1.00198 -1.85805 0
M  V30 11199 O 1041.59 -0.0766791 -2.28371 0
M  V30 11200 C 1041.8 -3.36978 -0.908108 0
M  V30 11201 C 1043.15 -4.05228 -1.26788 0
M  V30 11202 O 1044.17 -3.41908 -0.998859 0
M  V30 11203 O 1043.03 -5.16971 -1.7721 0
M  V30 11204 H 1040.12 -0.770064 -0.301547 0
M  V30 11205 H 1042.67 -1.69147 0.136914 0
M  V30 11206 H 1041.44 -3.91296 -0.0165615 0
M  V30 11207 H 1041.06 -3.5935 -1.70156 0
M  V30 11208 N 1042.06 0.170153 -1.56679 0
M  V30 11209 C 1043.48 0.521966 -1.50823 0
M  V30 11210 C 1043.68 1.84589 -0.808037 0
M  V30 11211 O 1042.73 2.49791 -0.368891 0
M  V30 11212 C 1044.05 0.553648 -2.95559 0
M  V30 11213 C 1045.59 0.640769 -3.06371 0
M  V30 11214 C 1046.07 0.703332 -4.52567 0
M  V30 11215 N 1047.56 0.76619 -4.56819 0
M  V30 11216 C 1048.29 0.835192 -5.67285 0
M  V30 11217 N 1047.79 0.864957 -6.87379 0
M  V30 11218 N 1049.58 0.874302 -5.55259 0
M  V30 11219 H 1041.73 -0.697952 -2.00605 0
M  V30 11220 H 1044 -0.251787 -0.913952 0
M  V30 11221 H 1043.7 -0.350498 -3.49949 0
M  V30 11222 H 1043.58 1.39973 -3.50268 0
M  V30 11223 H 1045.96 1.53534 -2.52015 0
M  V30 11224 H 1046.05 -0.232008 -2.54746 0
M  V30 11225 H 1045.69 -0.186986 -5.07556 0
M  V30 11226 H 1045.62 1.59227 -5.0195 0
M  V30 11227 H 1048.11 0.751424 -3.70354 0
M  V30 11228 H 1048.42 0.918814 -7.67318 0
M  V30 11229 H 1046.77 0.833215 -6.89987 0
M  V30 11230 H 1049.96 0.848057 -4.60354 0
M  V30 11231 H 1050.13 0.924615 -6.4137 0
M  V30 11232 N 1043.54 1.5137 0.438746 0
M  V30 11233 C 1044.82 1.54508 1.19944 0
M  V30 11234 C 1045.2 0.308525 2.08833 0
M  V30 11235 O 1044.54 -0.706461 2.17305 0
M  V30 11236 C 1044.75 2.85833 2.00251 0
M  V30 11237 C 1046.1 3.37729 2.5734 0
M  V30 11238 O 1047.13 2.87374 2.10463 0
M  V30 11239 O 1045.98 4.25589 3.42836 0
M  V30 11240 H 1043.08 0.621132 0.546007 0
M  V30 11241 H 1045.62 1.63682 0.447931 0
M  V30 11242 H 1044.4 3.67291 1.34955 0
M  V30 11243 H 1044.02 2.79815 2.8247 0
M  V30 11244 N 1045.02 -0.694098 1.41492 0
M  V30 11245 C 1045.95 -1.82042 1.46229 0
M  V30 11246 C 1046.93 -1.67047 0.320803 0
M  V30 11247 O 1048.11 -1.86758 0.53245 0
M  V30 11248 C 1045.24 -3.2019 1.34519 0
M  V30 11249 C 1044.2 -3.49892 2.46495 0
M  V30 11250 C 1043.52 -4.87411 2.1985 0
M  V30 11251 C 1044.82 -3.4872 3.88834 0
M  V30 11252 H 1046.52 -1.78335 2.40493 0
M  V30 11253 H 1044.06 -0.856566 1.15754 0
M  V30 11254 H 1046.02 -3.98699 1.36445 0
M  V30 11255 H 1044.74 -3.24527 0.367406 0
M  V30 11256 H 1043.4 -2.73734 2.43854 0
M  V30 11257 H 1043.05 -4.88375 1.20411 0
M  V30 11258 H 1042.75 -5.08248 2.94885 0
M  V30 11259 H 1044.27 -5.68228 2.23494 0
M  V30 11260 H 1045.68 -4.1723 3.93182 0
M  V30 11261 H 1044.08 -3.81089 4.63564 0
M  V30 11262 H 1045.15 -2.47665 4.16881 0
M  V30 11263 N 1046.49 -1.27344 -0.928501 0
M  V30 11264 C 1047.72 -1.16557 -1.7155 0
M  V30 11265 C 1048.14 0.274044 -1.86093 0
M  V30 11266 O 1047.5 1.19847 -1.36038 0
M  V30 11267 C 1047.55 -1.85332 -3.09329 0
M  V30 11268 O 1046.65 -1.15074 -3.9602 0
M  V30 11269 H 1046 -0.405423 -0.525859 0
M  V30 11270 H 1048.53 -1.68399 -1.16202 0
M  V30 11271 H 1048.54 -1.92659 -3.59648 0
M  V30 11272 H 1047.21 -2.90056 -2.98061 0
M  V30 11273 H 1045.79 -1.1581 -3.54461 0
M  V30 11274 N 1047.97 1.13488 -1.09353 0
M  V30 11275 C 1049.39 1.36739 -0.823086 0
M  V30 11276 C 1049.59 1.93476 0.562963 0
M  V30 11277 O 1048.64 2.15374 1.31796 0
M  V30 11278 C 1049.96 2.31943 -1.91371 0
M  V30 11279 C 1051.51 2.4556 -1.94085 0
M  V30 11280 C 1051.98 3.44072 -3.02289 0
M  V30 11281 N 1053.47 3.51622 -3.01524 0
M  V30 11282 C 1054.21 4.27724 -3.8189 0
M  V30 11283 N 1053.7 5.06987 -4.72161 0
M  V30 11284 N 1055.5 4.23018 -3.70152 0
M  V30 11285 H 1047.65 0.75012 -1.98713 0
M  V30 11286 H 1049.91 0.392564 -0.862901 0
M  V30 11287 H 1049.62 1.97408 -2.91072 0
M  V30 11288 H 1049.49 3.31952 -1.79131 0
M  V30 11289 H 1051.88 2.79382 -0.950234 0
M  V30 11290 H 1051.96 1.45479 -2.10403 0
M  V30 11291 H 1051.6 3.10981 -4.01564 0
M  V30 11292 H 1051.53 4.43956 -2.83214 0
M  V30 11293 H 1054.02 2.95066 -2.36103 0
M  V30 11294 H 1054.34 5.6236 -5.30067 0
M  V30 11295 H 1052.68 5.06222 -4.76197 0
M  V30 11296 H 1055.87 3.60171 -2.98989 0
M  V30 11297 H 1056.04 4.82075 -4.33022 0
M  V30 11298 N 1049.45 0.880621 1.30701 0
M  V30 11299 C 1050.7 0.492957 1.95583 0
M  V30 11300 C 1051.01 -0.961863 1.70316 0
M  V30 11301 O 1052.22 -1.45617 2.29146 0
M  V30 11302 C 1050.68 0.830656 3.50183 0
M  V30 11303 C 1050.28 2.30295 3.84276 0
M  V30 11304 C 1052.03 0.511979 4.21401 0
M  V30 11305 C 1049.93 2.58251 5.32034 0
M  V30 11306 H 1048.86 0.18062 0.732047 0
M  V30 11307 H 1051.52 1.075 1.48715 0
M  V30 11308 H 1049.9 0.177752 3.95601 0
M  V30 11309 H 1051.07 2.99981 3.49783 0
M  V30 11310 H 1049.39 2.58873 3.2615 0
M  V30 11311 H 1051.98 0.697935 5.30125 0
M  V30 11312 H 1052.33 -0.548327 4.12673 0
M  V30 11313 H 1052.86 1.12189 3.81652 0
M  V30 11314 H 1049.6 3.63005 5.45809 0
M  V30 11315 H 1049.12 1.9317 5.67843 0
M  V30 11316 H 1050.8 2.43527 5.99419 0
M  V30 11317 N 1050.93 -1.4397 0.641131 0
M  V30 11318 C 1052.16 -2.06303 0.157006 0
M  V30 11319 C 1052.57 -1.47981 -1.17248 0
M  V30 11320 O 1051.93 -0.606471 -1.72128 0
M  V30 11321 C 1051.98 -3.6147 0.0468425 0
M  V30 11322 O 1051.7 -4.17622 1.32376 0
M  V30 11323 C 1053.2 -4.40857 -0.464795 0
M  V30 11324 H 1050.42 -0.665684 0.0842946 0
M  V30 11325 H 1052.97 -1.84675 0.878363 0
M  V30 11326 H 1051.12 -3.82325 -0.625006 0
M  V30 11327 H 1051.54 -5.11167 1.17509 0
M  V30 11328 H 1053.01 -5.49813 -0.490862 0
M  V30 11329 H 1053.49 -4.13016 -1.4938 0
M  V30 11330 H 1054.09 -4.24943 0.174146 0
M  V30 11331 N 1052.41 -0.382291 -1.52893 0
M  V30 11332 C 1053.34 0.447829 -2.29165 0
M  V30 11333 C 1054.32 1.06956 -1.32267 0
M  V30 11334 O 1055.5 1.08365 -1.61154 0
M  V30 11335 C 1052.63 1.57902 -3.09329 0
M  V30 11336 C 1051.59 1.08369 -4.14053 0
M  V30 11337 C 1050.91 2.30641 -4.82399 0
M  V30 11338 C 1052.21 0.156591 -5.22065 0
M  V30 11339 H 1053.91 -0.188541 -2.98806 0
M  V30 11340 H 1051.45 -0.0921179 -1.43705 0
M  V30 11341 H 1053.41 2.16652 -3.61442 0
M  V30 11342 H 1052.13 2.24287 -2.37409 0
M  V30 11343 H 1050.79 0.518772 -3.62911 0
M  V30 11344 H 1050.44 2.9552 -4.07034 0
M  V30 11345 H 1050.14 1.98163 -5.53177 0
M  V30 11346 H 1051.66 2.90047 -5.37313 0
M  V30 11347 H 1053.08 0.652065 -5.6958 0
M  V30 11348 H 1051.47 -0.0780978 -6.00049 0
M  V30 11349 H 1052.54 -0.796529 -4.78313 0
M  V30 11350 N 1053.89 1.57202 -0.111913 0
M  V30 11351 C 1055.16 1.86459 0.590972 0
M  V30 11352 C 1055.54 1.01182 1.85271 0
M  V30 11353 O 1054.89 0.0887891 2.28327 0
M  V30 11354 C 1055.1 3.37455 0.890225 0
M  V30 11355 C 1056.45 4.05895 1.24638 0
M  V30 11356 O 1057.47 3.42433 0.980713 0
M  V30 11357 O 1056.33 5.17903 1.74466 0
M  V30 11358 H 1053.43 0.771652 0.297459 0
M  V30 11359 H 1055.97 1.69072 -0.145882 0
M  V30 11360 H 1054.74 3.913 -0.00419012 0
M  V30 11361 H 1054.37 3.60248 1.68248 0
M  V30 11362 N 1055.36 -0.161842 1.56767 0
M  V30 11363 C 1056.33 -1.18404 1.96247 0
M  V30 11364 C 1057.33 -1.3667 0.84722 0
M  V30 11365 O 1058.52 -1.33915 1.11411 0
M  V30 11366 C 1055.65 -2.54728 2.26553 0
M  V30 11367 H 1056.84 -0.845703 2.87729 0
M  V30 11368 H 1054.39 -0.404645 1.50971 0
M  V30 11369 H 1055.13 -2.93559 1.37816 0
M  V30 11370 H 1054.91 -2.42834 3.07854 0
M  V30 11371 H 1056.4 -3.28378 2.57987 0
M  V30 11372 N 1056.84 -1.516 -0.430713 0
M  V30 11373 C 1057.77 -1.69594 -1.54177 0
M  V30 11374 C 1058.79 -0.576518 -1.5225 0
M  V30 11375 O 1059.98 -0.85104 -1.56906 0
M  V30 11376 C 1057.08 -1.70148 -2.93092 0
M  V30 11377 C 1056.25 -2.98782 -3.1945 0
M  V30 11378 C 1055.31 -2.91435 -4.38123 0
M  V30 11379 O 1054.33 -3.65372 -4.36454 0
M  V30 11380 N 1055.54 -2.0774 -5.42056 0
M  V30 11381 H 1058.3 -2.65442 -1.39143 0
M  V30 11382 H 1055.86 -1.49569 -0.61974 0
M  V30 11383 H 1057.85 -1.62793 -3.70514 0
M  V30 11384 H 1056.42 -0.818667 -3.0169 0
M  V30 11385 H 1055.64 -3.19954 -2.30267 0
M  V30 11386 H 1056.93 -3.83919 -3.33892 0
M  V30 11387 H 1056.33 -1.47059 -5.46251 0
M  V30 11388 H 1054.89 -2.06259 -6.18305 0
M  V30 11389 N 1058.32 0.686584 -1.41858 0
M  V30 11390 C 1059.6 1.44176 -1.32185 0
M  V30 11391 C 1059.98 2.11049 0.046362 0
M  V30 11392 O 1059.32 2.02365 1.06117 0
M  V30 11393 C 1059.53 2.45385 -2.48168 0
M  V30 11394 C 1060.88 3.10375 -2.89746 0
M  V30 11395 O 1061.91 2.55711 -2.47973 0
M  V30 11396 O 1060.77 4.09404 -3.62009 0
M  V30 11397 H 1057.86 0.642513 -0.520678 0
M  V30 11398 H 1060.41 0.716303 -1.53841 0
M  V30 11399 H 1059.18 1.94687 -3.3943 0
M  V30 11400 H 1058.8 3.25428 -2.28435 0
M  V30 11401 N 1059.8 1.27835 0.921735 0
M  V30 11402 C 1061.04 1.14692 1.67253 0
M  V30 11403 C 1061.38 -0.305384 1.91784 0
M  V30 11404 O 1060.65 -1.22286 1.51249 0
M  V30 11405 C 1060.93 1.93743 3.03539 0
M  V30 11406 C 1060.79 3.46991 2.86212 0
M  V30 11407 C 1062.11 1.74658 4.03959 0
M  V30 11408 H 1059.23 0.418021 0.606983 0
M  V30 11409 H 1061.87 1.5706 1.06922 0
M  V30 11410 H 1060.02 1.57738 3.55037 0
M  V30 11411 H 1061.69 3.92858 2.41785 0
M  V30 11412 H 1059.93 3.73029 2.21432 0
M  V30 11413 H 1060.6 3.97551 3.82958 0
M  V30 11414 H 1063.08 2.06063 3.61493 0
M  V30 11415 H 1061.96 2.32353 4.97296 0
M  V30 11416 H 1062.22 0.696019 4.36587 0
M  V30 11417 N 1061.28 -1.12907 1.09954 0
M  V30 11418 C 1062.21 -2.20585 0.765799 0
M  V30 11419 C 1063.19 -1.68117 -0.258989 0
M  V30 11420 O 1064.37 -1.93792 -0.125853 0
M  V30 11421 C 1061.5 -3.46772 0.191435 0
M  V30 11422 C 1060.46 -4.12363 1.14635 0
M  V30 11423 C 1059.78 -5.3294 0.433426 0
M  V30 11424 C 1061.08 -4.59073 2.49096 0
M  V30 11425 H 1062.78 -2.48759 1.66612 0
M  V30 11426 H 1060.32 -1.19563 0.802534 0
M  V30 11427 H 1062.27 -4.21365 -0.0541535 0
M  V30 11428 H 1061 -3.18011 -0.744101 0
M  V30 11429 H 1059.66 -3.39744 1.37731 0
M  V30 11430 H 1059.31 -5.00444 -0.506422 0
M  V30 11431 H 1059.01 -5.77772 1.07018 0
M  V30 11432 H 1060.53 -6.10284 0.196267 0
M  V30 11433 H 1061.94 -5.25063 2.30177 0
M  V30 11434 H 1060.34 -5.14665 3.0861 0
M  V30 11435 H 1061.41 -3.73313 3.0946 0
M  V30 11436 N 1062.75 -0.88754 -1.30232 0
M  V30 11437 C 1063.72 -0.361095 -2.26338 0
M  V30 11438 C 1064.72 0.497871 -1.52898 0
M  V30 11439 O 1065.91 0.30466 -1.71515 0
M  V30 11440 C 1063.04 0.485135 -3.3743 0
M  V30 11441 H 1064.23 -1.20973 -2.74419 0
M  V30 11442 H 1061.78 -0.664619 -1.41466 0
M  V30 11443 H 1062.52 1.35425 -2.9467 0
M  V30 11444 H 1062.3 -0.130173 -3.91884 0
M  V30 11445 H 1063.79 0.845169 -4.08958 0
M  V30 11446 N 1064.23 1.43628 -0.648757 0
M  V30 11447 C 1065.18 2.27899 0.0677939 0
M  V30 11448 C 1066.17 1.39653 0.799115 0
M  V30 11449 O 1067.36 1.6332 0.682317 0
M  V30 11450 C 1064.49 3.27276 1.0366 0
M  V30 11451 C 1063.57 4.23009 0.303982 0
M  V30 11452 N 1063.96 5.01248 -0.677056 0
M  V30 11453 C 1062.26 4.42645 0.546041 0
M  V30 11454 C 1062.96 5.70982 -1.11151 0
M  V30 11455 N 1061.94 5.41762 -0.446669 0
M  V30 11456 H 1065.74 2.85804 -0.685073 0
M  V30 11457 H 1063.26 1.55277 -0.475674 0
M  V30 11458 H 1065.25 3.86423 1.5647 0
M  V30 11459 H 1063.91 2.70932 1.78958 0
M  V30 11460 H 1064.92 5.07028 -1.0556 0
M  V30 11461 H 1061.6 3.97377 1.28053 0
M  V30 11462 H 1062.99 6.43794 -1.923 0
M  V30 11463 N 1065.71 0.390394 1.52688 0
M  V30 11464 C 1066.64 -0.43567 2.294 0
M  V30 11465 C 1067.62 -1.06253 1.32832 0
M  V30 11466 O 1068.81 -1.07509 1.61726 0
M  V30 11467 C 1065.94 -1.56259 3.10162 0
M  V30 11468 C 1064.89 -1.06172 4.14622 0
M  V30 11469 C 1064.22 -2.2808 4.83615 0
M  V30 11470 C 1065.52 -0.128902 5.22141 0
M  V30 11471 H 1067.21 0.204384 2.98702 0
M  V30 11472 H 1064.76 0.0997377 1.43654 0
M  V30 11473 H 1066.71 -2.14732 3.62585 0
M  V30 11474 H 1065.43 -2.23025 2.38595 0
M  V30 11475 H 1064.09 -0.499518 3.63181 0
M  V30 11476 H 1063.74 -2.93358 4.08595 0
M  V30 11477 H 1063.44 -1.95227 5.5422 0
M  V30 11478 H 1064.96 -2.87193 5.38844 0
M  V30 11479 H 1066.38 -0.621849 5.69917 0
M  V30 11480 H 1064.78 0.109919 5.99999 0
M  V30 11481 H 1065.85 0.821884 4.77884 0
M  V30 11482 N 1067.19 -1.57141 0.120249 0
M  V30 11483 C 1068.43 -1.95527 -0.538245 0
M  V30 11484 C 1068.77 -1.00373 -1.6625 0
M  V30 11485 O 1068.04 -0.0411734 -1.94456 0
M  V30 11486 C 1068.33 -3.43843 -1.06976 0
M  V30 11487 C 1068.18 -4.49771 0.0511596 0
M  V30 11488 C 1069.5 -3.94035 -1.96022 0
M  V30 11489 H 1066.62 -0.710958 -0.194183 0
M  V30 11490 H 1069.26 -1.88986 0.196061 0
M  V30 11491 H 1067.41 -3.49548 -1.69553 0
M  V30 11492 H 1069.08 -4.56163 0.686503 0
M  V30 11493 H 1067.32 -4.27882 0.714127 0
M  V30 11494 H 1067.99 -5.50812 -0.361995 0
M  V30 11495 H 1070.47 -3.9064 -1.43315 0
M  V30 11496 H 1069.35 -4.98329 -2.3013 0
M  V30 11497 H 1069.61 -3.34803 -2.8872 0
M  V30 11498 N 1068.67 0.153526 -1.5685 0
M  V30 11499 C 1069.6 1.2147 -1.94365 0
M  V30 11500 C 1070.61 1.39532 -0.838726 0
M  V30 11501 O 1071.8 1.39219 -1.11715 0
M  V30 11502 C 1068.9 2.5806 -2.19677 0
M  V30 11503 C 1068.07 2.61062 -3.50949 0
M  V30 11504 C 1067.13 3.79144 -3.64878 0
M  V30 11505 O 1066.16 3.64319 -4.37333 0
M  V30 11506 N 1067.36 4.96333 -3.01054 0
M  V30 11507 H 1070.13 0.895889 -2.85996 0
M  V30 11508 H 1067.69 0.343147 -1.58222 0
M  V30 11509 H 1069.68 3.35553 -2.26243 0
M  V30 11510 H 1068.25 2.8226 -1.34343 0
M  V30 11511 H 1067.47 1.69533 -3.55882 0
M  V30 11512 H 1068.76 2.60094 -4.37297 0
M  V30 11513 H 1068.15 5.1128 -2.42093 0
M  V30 11514 H 1066.71 5.71625 -3.13191 0
M  V30 11515 N 1070.14 1.51827 0.422667 0
M  V30 11516 C 1071.08 1.68901 1.53453 0
M  V30 11517 C 1072.06 0.536549 1.53492 0
M  V30 11518 O 1073.24 0.762226 1.72402 0
M  V30 11519 C 1070.37 1.71599 2.92013 0
M  V30 11520 C 1069.41 2.92984 3.0994 0
M  V30 11521 S 1070.25 4.53559 2.84683 0
M  V30 11522 C 1071.4 4.59024 4.25498 0
M  V30 11523 H 1071.63 2.62943 1.38739 0
M  V30 11524 H 1069.17 1.41695 0.613347 0
M  V30 11525 H 1071.13 1.73838 3.71874 0
M  V30 11526 H 1069.79 0.787083 3.04079 0
M  V30 11527 H 1068.98 2.91315 4.1128 0
M  V30 11528 H 1068.58 2.88562 2.37924 0
M  V30 11529 H 1070.87 4.35567 5.18929 0
M  V30 11530 H 1071.82 5.60904 4.32195 0
M  V30 11531 H 1072.22 3.88193 4.09837 0
M  V30 11532 N 1071.62 -0.679052 1.4222 0
M  V30 11533 C 1072.59 -1.77448 1.45069 0
M  V30 11534 C 1073.59 -1.57189 0.338882 0
M  V30 11535 O 1074.78 -1.63559 0.599519 0
M  V30 11536 C 1071.91 -3.1603 1.27819 0
M  V30 11537 H 1073.1 -1.7631 2.426 0
M  V30 11538 H 1070.65 -0.888277 1.28605 0
M  V30 11539 H 1071.39 -3.22796 0.311946 0
M  V30 11540 H 1071.17 -3.32138 2.08391 0
M  V30 11541 H 1072.66 -3.9596 1.32686 0
M  V30 11542 N 1073.1 -1.28322 -0.914942 0
M  V30 11543 C 1074.35 -1.15407 -1.66396 0
M  V30 11544 C 1074.68 0.297587 -1.9221 0
M  V30 11545 O 1073.93 1.23299 -1.51973 0
M  V30 11546 C 1074.23 -1.89663 -3.02924 0
M  V30 11547 C 1073.9 -3.39464 -2.96774 0
M  V30 11548 C 1072.56 -3.80321 -2.94804 0
M  V30 11549 C 1074.91 -4.3499 -2.87111 0
M  V30 11550 C 1072.24 -5.15046 -2.8097 0
M  V30 11551 C 1074.59 -5.69788 -2.74818 0
M  V30 11552 C 1073.25 -6.09921 -2.71205 0
M  V30 11553 H 1072.52 -0.422303 -0.608885 0
M  V30 11554 H 1075.17 -1.59082 -1.06607 0
M  V30 11555 H 1073.48 -1.38533 -3.66491 0
M  V30 11556 H 1075.17 -1.77087 -3.59779 0
M  V30 11557 H 1071.76 -3.06979 -2.99101 0
M  V30 11558 H 1075.95 -4.04389 -2.87721 0
M  V30 11559 H 1071.2 -5.45271 -2.76568 0
M  V30 11560 H 1075.38 -6.43469 -2.66309 0
M  V30 11561 H 1073 -7.14267 -2.60243 0
M  V30 11562 N 1074.58 1.12322 -1.10551 0
M  V30 11563 C 1075.53 2.18087 -0.755424 0
M  V30 11564 C 1076.5 1.6391 0.268805 0
M  V30 11565 O 1077.68 1.90227 0.147813 0
M  V30 11566 C 1074.82 3.4455 -0.194713 0
M  V30 11567 C 1073.93 4.12775 -1.27439 0
M  V30 11568 C 1073.07 5.26891 -0.675194 0
M  V30 11569 C 1072.11 5.86985 -1.73536 0
M  V30 11570 N 1071.24 6.92512 -1.15635 0
M  V30 11571 H 1076.08 2.47379 -1.66155 0
M  V30 11572 H 1073.62 1.21452 -0.829924 0
M  V30 11573 H 1075.58 4.16936 0.148275 0
M  V30 11574 H 1074.21 3.15671 0.674638 0
M  V30 11575 H 1073.26 3.38556 -1.73448 0
M  V30 11576 H 1074.57 4.53506 -2.07687 0
M  V30 11577 H 1073.73 6.06046 -0.281723 0
M  V30 11578 H 1072.47 4.87442 0.158708 0
M  V30 11579 H 1071.47 5.06517 -2.13825 0
M  V30 11580 H 1072.7 6.28505 -2.57213 0
M  V30 11581 H 1070.64 6.55098 -0.343928 0
M  V30 11582 H 1070.56 7.31848 -1.89565 0
M  V30 11583 H 1071.83 7.75492 -0.789463 0
M  V30 11584 N 1076.06 0.894434 1.2976 0
M  V30 11585 C 1077.29 0.532143 1.99629 0
M  V30 11586 C 1077.69 -0.886234 1.6716 0
M  V30 11587 O 1077.04 -1.59573 0.910065 0
M  V30 11588 C 1077.1 0.638335 3.53787 0
M  V30 11589 C 1076.76 2.02273 4.09798 0
M  V30 11590 C 1077.76 2.99327 4.25087 0
M  V30 11591 C 1075.45 2.33069 4.44954 0
M  V30 11592 C 1077.44 4.25304 4.74758 0
M  V30 11593 C 1075.13 3.59289 4.94322 0
M  V30 11594 C 1076.12 4.55222 5.09178 0
M  V30 11595 O 1075.81 5.79202 5.57477 0
M  V30 11596 H 1075.54 0.203326 0.644697 0
M  V30 11597 H 1078.1 1.2043 1.6639 0
M  V30 11598 H 1076.33 -0.0908338 3.86593 0
M  V30 11599 H 1078.02 0.285956 4.04891 0
M  V30 11600 H 1078.78 2.76849 3.9822 0
M  V30 11601 H 1074.66 1.59162 4.32653 0
M  V30 11602 H 1078.21 5.00189 4.86269 0
M  V30 11603 H 1074.1 3.816 5.20626 0
M  V30 11604 H 1074.87 5.81717 5.75802 0
M  V30 11605 N 1077.53 -1.43282 0.656365 0
M  V30 11606 C 1078.46 -2.33492 -0.0196962 0
M  V30 11607 C 1079.45 -1.49647 -0.80868 0
M  V30 11608 O 1080.63 -1.78303 -0.769529 0
M  V30 11609 C 1077.76 -3.33052 -0.984574 0
M  V30 11610 C 1076.71 -4.26908 -0.305483 0
M  V30 11611 C 1076.04 -5.16531 -1.38202 0
M  V30 11612 C 1077.34 -5.16073 0.804081 0
M  V30 11613 H 1079.03 -2.90272 0.733661 0
M  V30 11614 H 1076.58 -1.39574 0.354259 0
M  V30 11615 H 1078.53 -3.9506 -1.46647 0
M  V30 11616 H 1077.26 -2.74535 -1.76913 0
M  V30 11617 H 1075.92 -3.66268 0.155995 0
M  V30 11618 H 1075.56 -4.54351 -2.1581 0
M  V30 11619 H 1075.26 -5.80148 -0.932878 0
M  V30 11620 H 1076.79 -5.81414 -1.86522 0
M  V30 11621 H 1078.2 -5.71873 0.404212 0
M  V30 11622 H 1076.6 -5.88427 1.17789 0
M  V30 11623 H 1077.67 -4.55574 1.66073 0
M  V30 11624 N 1079.01 -0.398486 -1.52479 0
M  V30 11625 C 1080.26 0.181019 -2.0199 0
M  V30 11626 C 1080.59 1.45691 -1.28405 0
M  V30 11627 O 1079.87 1.90607 -0.387207 0
M  V30 11628 C 1080.15 0.439587 -3.57407 0
M  V30 11629 C 1080 -0.85223 -4.41653 0
M  V30 11630 C 1081.32 1.2263 -4.2267 0
M  V30 11631 H 1078.44 0.0643164 -0.734188 0
M  V30 11632 H 1081.08 -0.52986 -1.82462 0
M  V30 11633 H 1079.23 1.04516 -3.74177 0
M  V30 11634 H 1080.91 -1.48879 -4.36615 0
M  V30 11635 H 1079.15 -1.46555 -4.08294 0
M  V30 11636 H 1079.82 -0.625839 -5.48441 0
M  V30 11637 H 1082.3 0.713722 -4.09933 0
M  V30 11638 H 1081.17 1.37596 -5.31374 0
M  V30 11639 H 1081.43 2.24403 -3.80914 0
M  V30 11640 N 1080.49 1.57075 -0.12858 0
M  V30 11641 C 1081.44 2.12379 0.829418 0
M  V30 11642 C 1082.43 1.04694 1.2218 0
M  V30 11643 O 1083.62 1.30909 1.1913 0
M  V30 11644 C 1080.75 2.73436 2.07575 0
M  V30 11645 C 1079.83 3.88217 1.7073 0
M  V30 11646 N 1080.22 4.94864 1.04609 0
M  V30 11647 C 1078.52 3.9858 2.00125 0
M  V30 11648 C 1079.22 5.7514 0.871137 0
M  V30 11649 N 1078.2 5.25284 1.39918 0
M  V30 11650 H 1082 2.92209 0.314816 0
M  V30 11651 H 1079.51 1.62233 0.0735788 0
M  V30 11652 H 1081.51 3.11406 2.77185 0
M  V30 11653 H 1080.17 1.95073 2.5957 0
M  V30 11654 H 1081.18 5.13025 0.708961 0
M  V30 11655 H 1077.86 3.3127 2.541 0
M  V30 11656 H 1079.25 6.7098 0.351395 0
M  V30 11657 N 1081.97 -0.145205 1.5693 0
M  V30 11658 C 1083.21 -0.863709 1.85255 0
M  V30 11659 C 1083.57 -1.78266 0.713112 0
M  V30 11660 O 1084.77 -2.54075 0.877459 0
M  V30 11661 C 1083.05 -1.61628 3.18765 0
M  V30 11662 S 1084.6 -2.37996 3.68651 0
M  V30 11663 H 1081.42 -0.288792 0.649708 0
M  V30 11664 H 1084.02 -0.123603 1.95109 0
M  V30 11665 H 1082.73 -0.932688 3.99661 0
M  V30 11666 H 1082.26 -2.39726 3.11921 0
M  V30 11667 H 1084.27 -3.63223 3.38058 0
M  V30 11668 N 1083.45 -1.52049 -0.414609 0
M  V30 11669 C 1084.38 -1.77956 -1.51175 0
M  V30 11670 C 1085.36 -0.630282 -1.57992 0
M  V30 11671 O 1086.54 -0.875324 -1.73354 0
M  V30 11672 C 1083.67 -1.92527 -2.89051 0
M  V30 11673 C 1082.63 -3.08096 -2.97087 0
M  V30 11674 C 1081.95 -3.07882 -4.37164 0
M  V30 11675 C 1083.25 -4.47656 -2.69075 0
M  V30 11676 H 1084.95 -2.69827 -1.29746 0
M  V30 11677 H 1082.49 -1.29839 -0.62273 0
M  V30 11678 H 1084.45 -2.09234 -3.65786 0
M  V30 11679 H 1083.17 -0.973235 -3.11762 0
M  V30 11680 H 1081.83 -2.91131 -2.22797 0
M  V30 11681 H 1081.48 -2.10411 -4.56877 0
M  V30 11682 H 1081.18 -3.85501 -4.43467 0
M  V30 11683 H 1082.7 -3.26712 -5.15841 0
M  V30 11684 H 1084.12 -4.64855 -3.35534 0
M  V30 11685 H 1082.51 -5.27151 -2.8676 0
M  V30 11686 H 1083.58 -4.56129 -1.64544 0
M  V30 11687 N 1084.93 0.6715 -1.42579 0
M  V30 11688 C 1085.86 1.79703 -1.42266 0
M  V30 11689 C 1086.87 1.59599 -0.321268 0
M  V30 11690 O 1088.06 1.68657 -0.584564 0
M  V30 11691 C 1085.16 3.16859 -1.20224 0
M  V30 11692 C 1084.33 3.63783 -2.42859 0
M  V30 11693 C 1083.39 4.79683 -2.16312 0
M  V30 11694 O 1082.42 4.90058 -2.89537 0
M  V30 11695 N 1083.62 5.68622 -1.16831 0
M  V30 11696 H 1086.38 1.80455 -2.39282 0
M  V30 11697 H 1083.95 0.854708 -1.375 0
M  V30 11698 H 1085.94 3.92054 -1.00376 0
M  V30 11699 H 1084.51 3.10987 -0.317188 0
M  V30 11700 H 1083.73 2.7923 -2.78252 0
M  V30 11701 H 1085.02 3.91877 -3.24514 0
M  V30 11702 H 1084.41 5.62894 -0.562746 0
M  V30 11703 H 1082.97 6.43615 -1.0297 0
M  V30 11704 N 1086.4 1.28806 0.908124 0
M  V30 11705 C 1087.63 1.19271 1.69674 0
M  V30 11706 C 1088.05 -0.244403 1.86505 0
M  V30 11707 O 1087.41 -1.17668 1.37927 0
M  V30 11708 C 1087.46 1.9023 3.06341 0
M  V30 11709 O 1086.56 1.2136 3.94139 0
M  V30 11710 H 1085.9 0.413738 0.519343 0
M  V30 11711 H 1088.43 1.70227 1.13508 0
M  V30 11712 H 1088.44 1.98356 3.56537 0
M  V30 11713 H 1087.12 2.94762 2.93408 0
M  V30 11714 H 1085.7 1.21435 3.52573 0
M  V30 11715 N 1087.88 -1.11734 1.11145 0
M  V30 11716 C 1088.79 -2.21267 0.779607 0
M  V30 11717 C 1089.81 -1.72526 -0.225986 0
M  V30 11718 O 1090.98 -2.01302 -0.0629166 0
M  V30 11719 C 1088.05 -3.45973 0.22435 0
M  V30 11720 C 1087.11 -4.09518 1.28816 0
M  V30 11721 C 1086.34 -5.28271 0.7593 0
M  V30 11722 O 1086.57 -5.68912 -0.411725 0
M  V30 11723 O 1085.5 -5.82322 1.52266 0
M  V30 11724 H 1089.33 -2.5206 1.6941 0
M  V30 11725 H 1086.91 -1.20211 0.887115 0
M  V30 11726 H 1088.79 -4.21322 -0.0810921 0
M  V30 11727 H 1087.47 -3.1684 -0.662891 0
M  V30 11728 H 1086.37 -3.35915 1.64657 0
M  V30 11729 H 1087.71 -4.42824 2.14868 0
M  V30 11730 N 1089.36 -0.901303 -1.29284 0
M  V30 11731 C 1090.29 -0.396909 -2.30102 0
M  V30 11732 C 1091.27 0.528919 -1.61668 0
M  V30 11733 O 1092.46 0.439306 -1.89166 0
M  V30 11734 C 1089.59 0.375006 -3.45269 0
M  V30 11735 C 1088.54 -0.46054 -4.25515 0
M  V30 11736 C 1087.87 0.438967 -5.32895 0
M  V30 11737 C 1089.17 -1.7113 -4.93469 0
M  V30 11738 H 1090.86 -1.23943 -2.72541 0
M  V30 11739 H 1088.41 -0.597428 -1.31022 0
M  V30 11740 H 1090.36 0.738622 -4.14876 0
M  V30 11741 H 1089.08 1.25132 -3.01678 0
M  V30 11742 H 1087.74 -0.80651 -3.57618 0
M  V30 11743 H 1087.39 1.31346 -4.85548 0
M  V30 11744 H 1087.09 -0.116406 -5.87485 0
M  V30 11745 H 1088.61 0.79874 -6.05353 0
M  V30 11746 H 1090.03 -1.41732 -5.55504 0
M  V30 11747 H 1088.42 -2.20811 -5.57999 0
M  V30 11748 H 1089.49 -2.44636 -4.18666 0
M  V30 11749 N 1090.84 1.42931 -0.663954 0
M  V30 11750 C 1091.79 2.32577 0.03287 0
M  V30 11751 C 1092.78 1.49217 0.801918 0
M  V30 11752 O 1093.99 1.65358 0.711106 0
M  V30 11753 H 1090.36 0.751424 0.0294198 0
M  V30 11754 H 1092.33 2.89059 -0.740763 0
M  V30 11755 C 1091.08 3.33661 0.978025 0
M  V30 11756 H 1090.4 3.97837 0.395681 0
M  V30 11757 H 1091.84 3.98997 1.43448 0
M  V30 11758 C 1090.3 2.65085 2.07922 0
M  V30 11759 O 1090.83 2.4745 3.16435 0
M  V30 11760 N 1089.04 2.24285 1.84783 0
M  V30 11761 H 1088.59 2.38827 0.965368 0
M  V30 11762 H 1088.54 1.78732 2.58655 0
M  V30 11763 N 1092.32 0.406567 1.52266 0
M  V30 11764 C 1093.26 -0.43489 2.28498 0
M  V30 11765 C 1094.26 -1.04806 1.33086 0
M  V30 11766 O 1095.46 -0.986557 1.50556 0
M  V30 11767 H 1091.84 -0.159023 0.734994 0
M  V30 11768 H 1093.81 0.229316 2.97518 0
M  V30 11769 C 1092.56 -1.54073 3.117 0
M  V30 11770 H 1091.88 -1.07824 3.84986 0
M  V30 11771 H 1093.32 -2.10337 3.6815 0
M  V30 11772 C 1091.78 -2.50662 2.251 0
M  V30 11773 O 1092.31 -3.54486 1.88951 0
M  V30 11774 N 1090.52 -2.20811 1.8892 0
M  V30 11775 H 1090.06 -1.36413 2.18516 0
M  V30 11776 H 1090.02 -2.85684 1.3127 0
M  V30 11777 N 1093.79 -1.57004 0.136909 0
M  V30 11778 C 1095.02 -1.99866 -0.523177 0
M  V30 11779 C 1095.43 -1.01584 -1.59616 0
M  V30 11780 O 1094.78 -0.00326426 -1.837 0
M  V30 11781 C 1094.84 -3.39157 -1.19217 0
M  V30 11782 C 1094.5 -4.56231 -0.265 0
M  V30 11783 C 1095.5 -5.17457 0.503412 0
M  V30 11784 C 1093.18 -5.02009 -0.170846 0
M  V30 11785 C 1095.18 -6.22863 1.35353 0
M  V30 11786 C 1092.86 -6.07273 0.682884 0
M  V30 11787 C 1093.86 -6.67568 1.44369 0
M  V30 11788 O 1093.55 -7.70795 2.28321 0
M  V30 11789 H 1093.28 -0.661005 -0.141593 0
M  V30 11790 H 1095.84 -2.04159 0.225445 0
M  V30 11791 H 1094.07 -3.31672 -1.98823 0
M  V30 11792 H 1095.76 -3.66191 -1.75096 0
M  V30 11793 H 1096.52 -4.82994 0.440648 0
M  V30 11794 H 1092.4 -4.54813 -0.752744 0
M  V30 11795 H 1095.94 -6.69855 1.94783 0
M  V30 11796 H 1091.84 -6.41163 0.746978 0
M  V30 11797 H 1092.61 -7.87971 2.21458 0
M  V30 11798 N 1095.27 0.136881 -1.57004 0
M  V30 11799 C 1096.21 1.19853 -1.94192 0
M  V30 11800 C 1097.18 1.4104 -0.809103 0
M  V30 11801 O 1098.37 1.55487 -1.06565 0
M  V30 11802 C 1095.49 2.55565 -2.22271 0
M  V30 11803 C 1094.54 2.50913 -3.44884 0
M  V30 11804 S 1095.37 1.96619 -4.98098 0
M  V30 11805 C 1096.53 3.34039 -5.2931 0
M  V30 11806 H 1096.76 0.881316 -2.83937 0
M  V30 11807 H 1094.3 0.342915 -1.50544 0
M  V30 11808 H 1096.25 3.33659 -2.39127 0
M  V30 11809 H 1094.91 2.84472 -1.33172 0
M  V30 11810 H 1094.11 3.50839 -3.6184 0
M  V30 11811 H 1093.71 1.80932 -3.27322 0
M  V30 11812 H 1096 4.30189 -5.23397 0
M  V30 11813 H 1096.94 3.21927 -6.30689 0
M  V30 11814 H 1097.35 3.31642 -4.56808 0
M  V30 11815 N 1096.75 1.52266 0.40654 0
M  V30 11816 C 1098.16 1.58587 0.985241 0
M  V30 11817 C 1098.51 0.427955 1.91476 0
M  V30 11818 O 1097.64 -0.451341 2.11641 0
M  V30 11819 C 1098.23 2.87426 1.79365 0
M  V30 11820 C 1096.79 2.96217 2.32233 0
M  V30 11821 C 1095.94 2.53548 1.12288 0
M  V30 11822 H 1098.89 1.57598 0.186685 0
M  V30 11823 H 1098.91 2.72925 2.65127 0
M  V30 11824 H 1098.42 3.71682 1.11687 0
M  V30 11825 H 1096.52 2.1646 3.03275 0
M  V30 11826 H 1096.64 4.00511 2.62922 0
M  V30 11827 H 1095 2.07457 1.47763 0
M  V30 11828 H 1095.78 3.40181 0.461731 0
M  V30 11829 N 1098.23 -0.663929 1.42933 0
M  V30 11830 C 1099.19 -1.75899 1.46943 0
M  V30 11831 C 1100.19 -1.5682 0.355535 0
M  V30 11832 O 1101.38 -1.62914 0.616833 0
M  V30 11833 C 1098.51 -3.14657 1.31164 0
M  V30 11834 H 1099.71 -1.73727 2.44456 0
M  V30 11835 H 1097.26 -0.874587 1.2954 0
M  V30 11836 H 1097.99 -3.22447 0.346165 0
M  V30 11837 H 1097.78 -3.29909 2.11902 0
M  V30 11838 H 1099.27 -3.9453 1.36878 0
M  V30 11839 N 1099.71 -1.29285 -0.901281 0
M  V30 11840 C 1100.95 -1.17165 -1.65162 0
M  V30 11841 C 1101.28 0.277184 -1.92515 0
M  V30 11842 O 1100.54 1.2168 -1.53273 0
M  V30 11843 C 1100.84 -1.92865 -3.00895 0
M  V30 11844 C 1100.5 -3.42593 -2.93157 0
M  V30 11845 C 1099.16 -3.83426 -2.90754 0
M  V30 11846 C 1101.52 -4.38011 -2.82481 0
M  V30 11847 C 1098.84 -5.17997 -2.75492 0
M  V30 11848 C 1101.2 -5.7267 -2.68759 0
M  V30 11849 C 1099.86 -6.12764 -2.64721 0
M  V30 11850 H 1099.13 -0.428737 -0.604372 0
M  V30 11851 H 1101.78 -1.60204 -1.04914 0
M  V30 11852 H 1100.08 -1.42412 -3.65001 0
M  V30 11853 H 1101.78 -1.80893 -3.57881 0
M  V30 11854 H 1098.37 -3.10134 -2.95829 0
M  V30 11855 H 1102.55 -4.07417 -2.83416 0
M  V30 11856 H 1097.81 -5.48173 -2.70769 0
M  V30 11857 H 1101.98 -6.46258 -2.59469 0
M  V30 11858 H 1099.61 -7.16987 -2.52652 0
M  V30 11859 N 1101.18 1.11143 -1.11736 0
M  V30 11860 C 1102.11 2.19339 -0.800795 0
M  V30 11861 C 1103.1 1.68508 0.23221 0
M  V30 11862 O 1104.28 1.93967 0.0950063 0
M  V30 11863 C 1101.41 3.46424 -0.246579 0
M  V30 11864 C 1100.36 4.10487 -1.21181 0
M  V30 11865 C 1099.69 5.32183 -0.518158 0
M  V30 11866 C 1100.99 4.55052 -2.56368 0
M  V30 11867 H 1102.68 2.46077 -1.70548 0
M  V30 11868 H 1100.23 1.18271 -0.821454 0
M  V30 11869 H 1102.18 4.21398 -0.0128889 0
M  V30 11870 H 1100.91 3.19154 0.693415 0
M  V30 11871 H 1099.57 3.3751 -1.43118 0
M  V30 11872 H 1099.21 5.01187 0.426742 0
M  V30 11873 H 1098.91 5.75997 -1.16196 0
M  V30 11874 H 1100.44 6.09895 -0.293333 0
M  V30 11875 H 1101.85 5.21335 -2.38501 0
M  V30 11876 H 1100.25 5.0969 -3.16758 0
M  V30 11877 H 1101.32 3.68343 -3.1536 0
M  V30 11878 N 1102.66 0.908147 1.28804 0
M  V30 11879 C 1103.94 0.457561 1.90173 0
M  V30 11880 C 1104.32 -1.06333 1.82364 0
M  V30 11881 O 1103.67 -1.90892 1.25589 0
M  V30 11882 C 1103.88 0.981624 3.34911 0
M  V30 11883 C 1105.23 1.03037 4.11908 0
M  V30 11884 O 1106.25 0.929878 3.43848 0
M  V30 11885 O 1105.11 1.18257 5.33552 0
M  V30 11886 H 1102.2 0.144081 0.814352 0
M  V30 11887 H 1104.75 0.998565 1.37211 0
M  V30 11888 H 1103.52 2.02561 3.34791 0
M  V30 11889 H 1103.14 0.421122 3.95364 0
M  V30 11890 N 1104.14 -1.42577 0.671525 0
M  V30 11891 C 1105.42 -1.95222 0.121529 0
M  V30 11892 C 1105.8 -1.61209 -1.36289 0
M  V30 11893 O 1105.15 -0.906561 -2.09747 0
M  V30 11894 C 1105.36 -3.46846 0.387189 0
M  V30 11895 C 1106.7 -4.23525 0.301938 0
M  V30 11896 O 1107.73 -3.54753 0.320755 0
M  V30 11897 O 1106.59 -5.45967 0.241317 0
M  V30 11898 H 1103.68 -0.826999 0.000968615 0
M  V30 11899 H 1106.23 -1.52422 0.746029 0
M  V30 11900 H 1105 -3.64795 1.41563 0
M  V30 11901 H 1104.62 -3.96686 -0.26948 0
M  V30 11902 N 1105.62 -0.414636 -1.52048 0
M  V30 11903 C 1107.03 0.0537107 -1.86623 0
M  V30 11904 C 1107.38 1.43955 -1.3331 0
M  V30 11905 O 1106.51 2.05616 -0.674606 0
M  V30 11906 C 1107.1 0.104241 -3.3864 0
M  V30 11907 C 1105.66 0.516936 -3.72833 0
M  V30 11908 C 1104.81 -0.305042 -2.75617 0
M  V30 11909 H 1107.76 -0.631469 -1.45596 0
M  V30 11910 H 1107.78 0.918395 -3.6925 0
M  V30 11911 H 1107.29 -0.904523 -3.77412 0
M  V30 11912 H 1105.39 1.53214 -3.39641 0
M  V30 11913 H 1105.5 0.2575 -4.78408 0
M  V30 11914 H 1103.87 0.233416 -2.53628 0
M  V30 11915 H 1104.65 -1.31226 -3.1723 0
M  V30 11916 N 1107.1 1.56929 -0.145233 0
M  V30 11917 C 1108.01 2.20238 0.808219 0
M  V30 11918 C 1109.02 1.18615 1.27304 0
M  V30 11919 O 1110.2 1.51186 1.3306 0
M  V30 11920 C 1107.26 2.81016 2.03055 0
M  V30 11921 C 1106.32 3.97759 1.61512 0
M  V30 11922 C 1105.56 4.55628 2.77918 0
M  V30 11923 O 1105.78 4.12378 3.94082 0
M  V30 11924 O 1104.71 5.45917 2.53492 0
M  V30 11925 H 1108.54 3.02221 0.299314 0
M  V30 11926 H 1106.13 1.49176 0.0817051 0
M  V30 11927 H 1108.01 3.19652 2.74592 0
M  V30 11928 H 1106.68 2.02047 2.52901 0
M  V30 11929 H 1105.59 3.63842 0.870033 0
M  V30 11930 H 1106.92 4.78242 1.16383 0
M  V30 11931 N 1108.58 -0.128553 1.57075 0
M  V30 11932 C 1109.49 -1.17718 2.02927 0
M  V30 11933 C 1110.5 -1.45912 0.947932 0
M  V30 11934 O 1111.68 -1.57217 1.25876 0
M  V30 11935 C 1108.74 -2.48625 2.41633 0
M  V30 11936 C 1107.8 -2.27914 3.63804 0
M  V30 11937 C 1107.04 -3.52579 4.00654 0
M  V30 11938 O 1107.26 -4.59505 3.37952 0
M  V30 11939 O 1106.19 -3.44147 4.93808 0
M  V30 11940 H 1110.02 -0.817846 2.92481 0
M  V30 11941 H 1107.6 -0.338649 1.45511 0
M  V30 11942 H 1109.49 -3.2577 2.67305 0
M  V30 11943 H 1108.16 -2.84052 1.55229 0
M  V30 11944 H 1107.07 -1.4866 3.43294 0
M  V30 11945 H 1108.4 -1.97395 4.50883 0
M  V30 11946 N 1110.05 -1.5248 -0.398459 0
M  V30 11947 C 1111 -1.77211 -1.50662 0
M  V30 11948 C 1112 -0.639638 -1.5686 0
M  V30 11949 O 1113.2 -0.821917 -1.60139 0
M  V30 11950 H 1109.58 -0.56057 -0.501264 0
M  V30 11951 H 1111.55 -2.70028 -1.26993 0
M  V30 11952 C 1110.3 -1.94944 -2.8791 0
M  V30 11953 H 1109.62 -2.8151 -2.83888 0
M  V30 11954 H 1111.06 -2.16243 -3.64712 0
M  V30 11955 C 1109.52 -0.719402 -3.29129 0
M  V30 11956 O 1110.05 0.107671 -4.01556 0
M  V30 11957 N 1108.25 -0.552228 -2.85305 0
M  V30 11958 H 1107.8 -1.22638 -2.26534 0
M  V30 11959 H 1107.76 0.269447 -3.13243 0
M  V30 11960 N 1111.53 0.65634 -1.43283 0
M  V30 11961 C 1112.76 1.44906 -1.48382 0
M  V30 11962 C 1113.18 1.87823 -0.101993 0
M  V30 11963 O 1112.54 1.57178 0.903597 0
M  V30 11964 C 1112.59 2.66231 -2.43215 0
M  V30 11965 O 1111.69 3.65176 -1.91625 0
M  V30 11966 H 1111.03 0.434601 -0.502014 0
M  V30 11967 H 1113.56 0.803429 -1.88165 0
M  V30 11968 H 1113.57 3.14083 -2.60414 0
M  V30 11969 H 1112.25 2.34336 -3.43598 0
M  V30 11970 H 1110.82 3.24302 -1.84072 0
M  V30 11971 N 1113.01 1.29761 0.894412 0
M  V30 11972 C 1113.94 1.17902 2.01547 0
M  V30 11973 C 1114.92 0.0719402 1.69948 0
M  V30 11974 O 1116.11 0.252338 1.92554 0
M  V30 11975 C 1113.24 0.860262 3.36477 0
M  V30 11976 C 1112.19 1.92424 3.82305 0
M  V30 11977 C 1111.52 1.45868 5.14419 0
M  V30 11978 C 1112.82 3.33391 4.02054 0
M  V30 11979 H 1114.51 2.11688 2.11727 0
M  V30 11980 H 1112.06 1.01916 1.01731 0
M  V30 11981 H 1114.01 0.763987 4.14417 0
M  V30 11982 H 1112.73 -0.113289 3.26403 0
M  V30 11983 H 1111.39 2.00999 3.06586 0
M  V30 11984 H 1111.04 0.473654 5.00765 0
M  V30 11985 H 1110.74 2.17028 5.46052 0
M  V30 11986 H 1112.26 1.37601 5.94894 0
M  V30 11987 H 1113.68 3.27628 4.7046 0
M  V30 11988 H 1112.07 4.02555 4.4505 0
M  V30 11989 H 1113.14 3.75978 3.06216 0
M  V30 11990 N 1114.49 -1.10549 1.12324 0
M  V30 11991 C 1115.42 -2.16657 0.747826 0
M  V30 11992 C 1116.43 -1.61238 -0.224981 0
M  V30 11993 O 1117.62 -1.78499 -0.00649408 0
M  V30 11994 C 1114.72 -3.38791 0.0859421 0
M  V30 11995 C 1113.89 -4.23655 1.08792 0
M  V30 11996 C 1112.95 -5.24239 0.453871 0
M  V30 11997 O 1111.98 -5.58262 1.11052 0
M  V30 11998 N 1113.18 -5.75246 -0.779215 0
M  V30 11999 H 1115.95 -2.49472 1.66084 0
M  V30 12000 H 1113.51 -1.26157 1.01469 0
M  V30 12001 H 1115.5 -4.03182 -0.350186 0
M  V30 12002 H 1114.07 -3.03961 -0.729807 0
M  V30 12003 H 1113.29 -3.55578 1.70171 0
M  V30 12004 H 1114.58 -4.77187 1.76549 0
M  V30 12005 H 1113.98 -5.49802 -1.3317 0
M  V30 12006 H 1112.53 -6.41428 -1.15818 0
M  V30 12007 N 1115.97 -0.914965 -1.28321 0
M  V30 12008 C 1117.38 -0.613297 -1.47346 0
M  V30 12009 C 1117.58 0.84106 -1.83108 0
M  V30 12010 O 1116.64 1.62004 -1.93678 0
M  V30 12011 C 1117.95 -1.55224 -2.57538 0
M  V30 12012 C 1119.5 -1.55909 -2.71407 0
M  V30 12013 C 1119.97 -2.48468 -3.84744 0
M  V30 12014 N 1121.46 -2.46602 -3.92099 0
M  V30 12015 C 1122.2 -3.14917 -4.79182 0
M  V30 12016 N 1121.7 -3.92566 -5.70845 0
M  V30 12017 N 1123.49 -3.03998 -4.72802 0
M  V30 12018 H 1115.64 -1.85539 -1.03388 0
M  V30 12019 H 1117.9 -0.795875 -0.515061 0
M  V30 12020 H 1117.61 -2.58917 -2.38023 0
M  V30 12021 H 1117.48 -1.28426 -3.54664 0
M  V30 12022 H 1119.87 -0.52953 -2.9031 0
M  V30 12023 H 1119.95 -1.86751 -1.74808 0
M  V30 12024 H 1119.59 -3.51526 -3.66595 0
M  V30 12025 H 1119.52 -2.14928 -4.80743 0
M  V30 12026 H 1122.02 -1.90199 -3.26547 0
M  V30 12027 H 1122.33 -4.41709 -6.34123 0
M  V30 12028 H 1120.67 -3.96671 -5.70681 0
M  V30 12029 H 1123.86 -2.42839 -4.00184 0
M  V30 12030 H 1124.04 -3.57511 -5.40454 0
M  V30 12031 N 1117.44 1.42219 -0.679077 0
M  V30 12032 C 1118.85 1.8459 -0.279877 0
M  V30 12033 C 1119.21 1.56839 1.17881 0
M  V30 12034 O 1118.33 1.03039 1.90294 0
M  V30 12035 C 1118.93 3.35072 -0.501185 0
M  V30 12036 C 1117.48 3.76076 -0.156065 0
M  V30 12037 C 1116.63 2.65763 -0.791549 0
M  V30 12038 H 1119.58 1.32005 -0.880932 0
M  V30 12039 H 1119.6 3.79708 0.245349 0
M  V30 12040 H 1119.12 3.55239 -1.56291 0
M  V30 12041 H 1117.22 3.61516 0.90205 0
M  V30 12042 H 1117.33 4.75334 -0.599572 0
M  V30 12043 H 1115.69 2.53726 -0.222514 0
M  V30 12044 H 1116.48 2.88751 -1.85682 0
M  V30 12045 N 1118.92 0.422693 1.51826 0
M  V30 12046 C 1119.87 -0.396088 2.27376 0
M  V30 12047 C 1120.84 -1.02946 1.30351 0
M  V30 12048 O 1122.02 -1.05116 1.59233 0
M  V30 12049 C 1119.16 -1.49942 3.10824 0
M  V30 12050 C 1118.28 -0.885623 4.22825 0
M  V30 12051 C 1117.41 -1.96278 4.93608 0
M  V30 12052 C 1116.45 -1.32664 5.97551 0
M  V30 12053 N 1115.59 -2.34452 6.61798 0
M  V30 12054 H 1120.43 0.254571 2.96911 0
M  V30 12055 H 1117.96 0.137383 1.46457 0
M  V30 12056 H 1119.92 -2.15023 3.57521 0
M  V30 12057 H 1118.55 -2.11991 2.43433 0
M  V30 12058 H 1117.6 -0.123491 3.80199 0
M  V30 12059 H 1118.92 -0.381057 4.97342 0
M  V30 12060 H 1118.07 -2.69055 5.43778 0
M  V30 12061 H 1116.81 -2.50103 4.18688 0
M  V30 12062 H 1115.81 -0.584262 5.46687 0
M  V30 12063 H 1117.04 -0.7959 6.7442 0
M  V30 12064 H 1114.99 -2.87385 5.897 0
M  V30 12065 H 1114.9 -1.88845 7.32034 0
M  V30 12066 H 1116.17 -3.06757 7.16603 0
M  V30 12067 N 1120.4 -1.5685 0.153553 0
M  V30 12068 C 1121.65 -1.95509 -0.495911 0
M  V30 12069 C 1121.96 -1.04129 -1.65579 0
M  V30 12070 O 1123.17 -1.32394 -2.37032 0
M  V30 12071 C 1121.62 -3.47579 -0.933622 0
M  V30 12072 C 1121.23 -4.47555 0.199684 0
M  V30 12073 C 1122.98 -3.95092 -1.55251 0
M  V30 12074 C 1120.88 -5.90843 -0.256663 0
M  V30 12075 H 1119.81 -0.729919 -0.189035 0
M  V30 12076 H 1122.46 -1.81938 0.238947 0
M  V30 12077 H 1120.85 -3.56506 -1.72394 0
M  V30 12078 H 1122.02 -4.50329 0.976744 0
M  V30 12079 H 1120.33 -4.09997 0.727394 0
M  V30 12080 H 1122.93 -4.99588 -1.90567 0
M  V30 12081 H 1123.27 -3.37015 -2.4439 0
M  V30 12082 H 1123.81 -3.89109 -0.826969 0
M  V30 12083 H 1120.55 -6.52753 0.599515 0
M  V30 12084 H 1120.07 -5.91414 -0.999458 0
M  V30 12085 H 1121.75 -6.43131 -0.70649 0
M  V30 12086 N 1121.88 0.120221 -1.57141 0
M  V30 12087 C 1123.15 0.858458 -1.75755 0
M  V30 12088 C 1123.53 1.98124 -0.728693 0
M  V30 12089 O 1122.88 2.27155 0.247573 0
M  V30 12090 C 1123.09 1.37627 -3.20718 0
M  V30 12091 C 1124.44 1.82909 -3.83183 0
M  V30 12092 O 1125.46 1.47309 -3.24312 0
M  V30 12093 O 1124.32 2.4865 -4.86657 0
M  V30 12094 H 1121.42 0.407583 -0.719587 0
M  V30 12095 H 1123.96 0.104057 -1.69381 0
M  V30 12096 H 1122.74 0.570651 -3.87117 0
M  V30 12097 H 1122.36 2.19341 -3.31625 0
M  V30 12098 N 1123.36 1.52689 0.390367 0
M  V30 12099 C 1124.63 1.58246 1.14968 0
M  V30 12100 C 1125.01 0.374808 2.07746 0
M  V30 12101 O 1124.36 -0.636969 2.19442 0
M  V30 12102 C 1124.57 2.92059 1.91056 0
M  V30 12103 C 1125.92 3.45745 2.46466 0
M  V30 12104 O 1126.94 2.93924 2.01214 0
M  V30 12105 O 1125.8 4.3628 3.29122 0
M  V30 12106 H 1122.9 0.638189 0.52597 0
M  V30 12107 H 1125.44 1.65024 0.39563 0
M  V30 12108 H 1124.21 3.71399 1.23201 0
M  V30 12109 H 1123.84 2.8866 2.73425 0
M  V30 12110 N 1124.83 -0.648732 1.43629 0
M  V30 12111 C 1126.08 -1.41066 1.45699 0
M  V30 12112 C 1126.41 -1.94024 0.082612 0
M  V30 12113 O 1125.69 -1.7257 -0.897207 0
M  V30 12114 C 1125.97 -2.58882 2.50304 0
M  V30 12115 C 1125.82 -2.11387 3.97033 0
M  V30 12116 C 1127.14 -3.61092 2.51597 0
M  V30 12117 H 1124.26 -0.511591 0.530512 0
M  V30 12118 H 1126.9 -0.735069 1.75205 0
M  V30 12119 H 1125.05 -3.16518 2.25274 0
M  V30 12120 H 1126.73 -1.58718 4.33136 0
M  V30 12121 H 1124.97 -1.4272 4.0965 0
M  V30 12122 H 1125.64 -2.96129 4.65845 0
M  V30 12123 H 1128.12 -3.13223 2.73917 0
M  V30 12124 H 1126.99 -4.41071 3.26722 0
M  V30 12125 H 1127.25 -4.13985 1.55141 0
M  V30 12126 N 1126.31 -1.30234 -0.887518 0
M  V30 12127 C 1127.24 -1.18969 -2.00919 0
M  V30 12128 C 1128.22 -0.080952 -1.69907 0
M  V30 12129 O 1129.41 -0.262546 -1.92417 0
M  V30 12130 C 1126.54 -0.878094 -3.36016 0
M  V30 12131 C 1125.49 -1.94449 -3.81279 0
M  V30 12132 C 1124.82 -1.48594 -5.13638 0
M  V30 12133 C 1126.12 -3.35519 -4.00281 0
M  V30 12134 H 1127.81 -2.12808 -2.10602 0
M  V30 12135 H 1125.36 -1.02454 -1.01189 0
M  V30 12136 H 1127.31 -0.785954 -4.14006 0
M  V30 12137 H 1126.04 0.0959779 -3.26459 0
M  V30 12138 H 1124.69 -2.02622 -3.05516 0
M  V30 12139 H 1124.34 -0.500204 -5.00507 0
M  V30 12140 H 1124.04 -2.19921 -5.44893 0
M  V30 12141 H 1125.57 -1.40754 -5.94156 0
M  V30 12142 H 1126.98 -3.30119 -4.68716 0
M  V30 12143 H 1125.38 -4.0491 -4.42909 0
M  V30 12144 H 1126.45 -3.77597 -3.04218 0
M  V30 12145 N 1127.79 1.09952 -1.12909 0
M  V30 12146 C 1128.74 2.14591 -0.77037 0
M  V30 12147 C 1129.72 1.59204 0.233021 0
M  V30 12148 O 1130.92 1.7696 0.0377599 0
M  V30 12149 C 1128.05 3.42514 -0.232117 0
M  V30 12150 C 1127.13 4.04823 -1.26409 0
M  V30 12151 N 1127.52 4.41763 -2.46331 0
M  V30 12152 C 1125.82 4.31951 -1.11062 0
M  V30 12153 C 1126.52 4.90778 -3.12269 0
M  V30 12154 N 1125.5 4.87896 -2.39704 0
M  V30 12155 H 1129.3 2.40951 -1.68285 0
M  V30 12156 H 1126.81 1.27125 -1.0106 0
M  V30 12157 H 1128.81 4.16878 0.0430853 0
M  V30 12158 H 1127.47 3.17612 0.674757 0
M  V30 12159 H 1128.48 4.33299 -2.83677 0
M  V30 12160 H 1125.16 4.16681 -0.261456 0
M  V30 12161 H 1126.55 5.28868 -4.14425 0
M  V30 12162 N 1129.27 0.921757 1.27833 0
M  V30 12163 C 1130.5 0.575202 1.98744 0
M  V30 12164 C 1130.91 -0.845405 1.68815 0
M  V30 12165 O 1130.27 -1.56106 0.94536 0
M  V30 12166 C 1130.32 0.784389 3.52888 0
M  V30 12167 O 1130.04 2.1491 3.81766 0
M  V30 12168 C 1131.54 0.445744 4.41053 0
M  V30 12169 H 1128.76 0.218525 0.634419 0
M  V30 12170 H 1131.31 1.23715 1.62834 0
M  V30 12171 H 1129.46 0.169323 3.8703 0
M  V30 12172 H 1129.87 2.19469 4.76375 0
M  V30 12173 H 1131.35 0.64284 5.48244 0
M  V30 12174 H 1131.83 -0.618433 4.34824 0
M  V30 12175 H 1132.43 1.03869 4.12421 0
M  V30 12176 N 1130.75 -1.41857 0.686609 0
M  V30 12177 C 1131.68 -2.33481 0.0298353 0
M  V30 12178 C 1132.66 -1.51329 -0.776756 0
M  V30 12179 O 1133.84 -1.79895 -0.731535 0
M  V30 12180 C 1130.97 -3.35065 -0.913707 0
M  V30 12181 C 1129.93 -4.2746 -0.214861 0
M  V30 12182 C 1129.25 -5.19346 -1.27215 0
M  V30 12183 C 1130.55 -5.14252 0.913367 0
M  V30 12184 H 1132.25 -2.8865 0.795067 0
M  V30 12185 H 1129.79 -1.38792 0.383785 0
M  V30 12186 H 1131.75 -3.98082 -1.38234 0
M  V30 12187 H 1130.47 -2.78226 -1.7105 0
M  V30 12188 H 1129.13 -3.65855 0.233651 0
M  V30 12189 H 1128.78 -4.58827 -2.06124 0
M  V30 12190 H 1128.48 -5.81996 -0.80961 0
M  V30 12191 H 1130 -5.85239 -1.74147 0
M  V30 12192 H 1131.41 -5.70887 0.525424 0
M  V30 12193 H 1129.81 -5.85796 1.30244 0
M  V30 12194 H 1130.88 -4.51949 1.75699 0
M  V30 12195 N 1132.22 -0.430739 -1.51599 0
M  V30 12196 C 1133.45 0.136797 -2.06447 0
M  V30 12197 C 1133.87 1.37027 -1.29881 0
M  V30 12198 O 1133.22 1.78983 -0.356543 0
M  V30 12199 C 1133.28 0.465637 -3.58489 0
M  V30 12200 O 1133 -0.718873 -4.32162 0
M  V30 12201 C 1134.5 1.08456 -4.29828 0
M  V30 12202 H 1131.72 0.0108468 -0.670912 0
M  V30 12203 H 1134.26 -0.607921 -1.95255 0
M  V30 12204 H 1132.42 1.16025 -3.69617 0
M  V30 12205 H 1132.83 -0.439195 -5.22658 0
M  V30 12206 H 1134.3 1.2647 -5.37317 0
M  V30 12207 H 1134.78 2.06376 -3.87693 0
M  V30 12208 H 1135.39 0.429525 -4.23125 0
M  V30 12209 N 1133.7 1.56767 -0.161869 0
M  V30 12210 C 1134.95 1.96206 0.484537 0
M  V30 12211 C 1135.27 1.04848 1.64414 0
M  V30 12212 O 1134.54 0.112946 1.95574 0
M  V30 12213 H 1133.12 0.724491 0.181994 0
M  V30 12214 H 1135.78 1.93406 -0.240845 0
M  V30 12215 H 1134.88 3.00279 0.85083 0
M  V30 12216 N 1135.18 -0.111886 1.57202 0
M  V30 12217 C 1136.14 -1.12101 1.99915 0
M  V30 12218 C 1137.14 -1.33906 0.890272 0
M  V30 12219 O 1138.33 -1.30303 1.15615 0
M  V30 12220 C 1135.47 -2.47392 2.34543 0
M  V30 12221 H 1136.66 -0.753736 2.90274 0
M  V30 12222 H 1134.21 -0.35641 1.52182 0
M  V30 12223 H 1134.95 -2.89026 1.47086 0
M  V30 12224 H 1134.73 -2.32917 3.15423 0
M  V30 12225 H 1136.22 -3.20004 2.68304 0
M  V30 12226 N 1136.66 -1.52894 -0.382264 0
M  V30 12227 C 1137.59 -1.7291 -1.48921 0
M  V30 12228 C 1138.57 -0.577056 -1.52016 0
M  V30 12229 O 1139.75 -0.807667 -1.7032 0
M  V30 12230 C 1136.88 -1.79281 -2.87361 0
M  V30 12231 C 1135.93 -3.01099 -3.02063 0
M  V30 12232 S 1136.76 -4.60947 -2.72558 0
M  V30 12233 C 1137.92 -4.70144 -4.13178 0
M  V30 12234 H 1138.15 -2.66529 -1.31718 0
M  V30 12235 H 1135.68 -1.43271 -0.575563 0
M  V30 12236 H 1137.64 -1.83637 -3.67134 0
M  V30 12237 H 1136.3 -0.867428 -3.01885 0
M  V30 12238 H 1135.49 -3.02117 -4.03412 0
M  V30 12239 H 1135.1 -2.94769 -2.3019 0
M  V30 12240 H 1137.39 -4.49173 -5.07198 0
M  V30 12241 H 1138.33 -5.72166 -4.17172 0
M  V30 12242 H 1138.74 -3.98923 -3.99401 0
M  V30 12243 N 1138.14 0.641106 -1.43971 0
M  V30 12244 C 1139.36 1.43324 -1.4991 0
M  V30 12245 C 1139.79 1.87705 -0.121908 0
M  V30 12246 O 1139.15 1.58127 0.886875 0
M  V30 12247 C 1139.19 2.63637 -2.46025 0
M  V30 12248 O 1138.3 3.63123 -1.95488 0
M  V30 12249 H 1137.64 0.429252 -0.506595 0
M  V30 12250 H 1140.17 0.783427 -1.89007 0
M  V30 12251 H 1140.18 3.11304 -2.63731 0
M  V30 12252 H 1138.85 2.30678 -3.46064 0
M  V30 12253 H 1137.43 3.22332 -1.87501 0
M  V30 12254 N 1139.62 1.30703 0.880598 0
M  V30 12255 C 1140.55 1.20033 2.00286 0
M  V30 12256 C 1141.53 0.0899614 1.69862 0
M  V30 12257 O 1142.71 0.272747 1.92275 0
M  V30 12258 C 1139.84 0.895902 3.35546 0
M  V30 12259 C 1138.8 1.96468 3.80242 0
M  V30 12260 C 1138.12 1.51316 5.12843 0
M  V30 12261 C 1139.42 3.37637 3.98496 0
M  V30 12262 H 1141.12 2.13922 2.0947 0
M  V30 12263 H 1138.66 1.02989 1.00644 0
M  V30 12264 H 1140.61 0.807899 4.13583 0
M  V30 12265 H 1139.34 -0.0786636 3.26505 0
M  V30 12266 H 1138 2.0424 3.04437 0
M  V30 12267 H 1137.65 0.52674 5.00234 0
M  V30 12268 H 1137.35 2.22807 5.43719 0
M  V30 12269 H 1138.87 1.43903 5.93401 0
M  V30 12270 H 1140.28 3.326 4.66959 0
M  V30 12271 H 1138.68 4.07253 4.40755 0
M  V30 12272 H 1139.75 3.79205 3.02211 0
M  V30 12273 N 1141.09 -1.09351 1.1349 0
M  V30 12274 C 1142.02 -2.18037 0.835588 0
M  V30 12275 C 1143 -1.68856 -0.205373 0
M  V30 12276 O 1144.19 -1.94094 -0.0641357 0
M  V30 12277 C 1141.32 -3.45987 0.301661 0
M  V30 12278 C 1140.27 -4.08507 1.27696 0
M  V30 12279 C 1139.6 -5.31292 0.602758 0
M  V30 12280 C 1140.9 -4.50916 2.63575 0
M  V30 12281 H 1142.59 -2.43332 1.74441 0
M  V30 12282 H 1140.14 -1.1695 0.840166 0
M  V30 12283 H 1142.09 -4.21324 0.079928 0
M  V30 12284 H 1140.82 -3.20217 -0.642552 0
M  V30 12285 H 1139.48 -3.3519 1.4847 0
M  V30 12286 H 1139.12 -5.01802 -0.346953 0
M  V30 12287 H 1138.82 -5.74075 1.25345 0
M  V30 12288 H 1140.35 -6.09351 0.390325 0
M  V30 12289 H 1141.76 -5.17474 2.46765 0
M  V30 12290 H 1140.16 -5.04586 3.24827 0
M  V30 12291 H 1141.23 -3.63279 3.2118 0
M  V30 12292 N 1142.57 -0.928524 -1.27343 0
M  V30 12293 C 1143.99 -0.62889 -1.46687 0
M  V30 12294 C 1144.19 0.821592 -1.83989 0
M  V30 12295 O 1143.24 1.59941 -1.95385 0
M  V30 12296 C 1144.56 -1.57947 -2.55878 0
M  V30 12297 C 1146.1 -1.58778 -2.69738 0
M  V30 12298 C 1146.58 -2.52535 -3.82087 0
M  V30 12299 N 1148.07 -2.50747 -3.89462 0
M  V30 12300 C 1148.81 -3.19981 -4.75814 0
M  V30 12301 N 1148.3 -3.98598 -5.66649 0
M  V30 12302 N 1150.09 -3.08996 -4.69551 0
M  V30 12303 H 1142.25 -1.86625 -1.01414 0
M  V30 12304 H 1144.51 -0.801293 -0.50659 0
M  V30 12305 H 1144.21 -2.61427 -2.35264 0
M  V30 12306 H 1144.09 -1.3218 -3.53282 0
M  V30 12307 H 1146.48 -0.560292 -2.89732 0
M  V30 12308 H 1146.56 -1.88594 -1.72817 0
M  V30 12309 H 1146.2 -3.55395 -3.62846 0
M  V30 12310 H 1146.13 -2.20015 -4.78436 0
M  V30 12311 H 1148.62 -1.93651 -3.24511 0
M  V30 12312 H 1148.93 -4.4841 -6.29403 0
M  V30 12313 H 1147.28 -4.02701 -5.66442 0
M  V30 12314 H 1150.47 -2.4707 -3.97585 0
M  V30 12315 H 1150.64 -3.63223 -5.36631 0
M  V30 12316 N 1144.05 1.41491 -0.694123 0
M  V30 12317 C 1145.47 1.55358 -0.365532 0
M  V30 12318 C 1145.67 1.66994 1.12762 0
M  V30 12319 O 1144.72 1.64756 1.91342 0
M  V30 12320 C 1146.03 2.79352 -1.11279 0
M  V30 12321 C 1147.58 2.93147 -1.097 0
M  V30 12322 C 1148.06 4.20027 -1.82597 0
M  V30 12323 N 1149.55 4.26981 -1.7956 0
M  V30 12324 C 1150.28 5.24013 -2.32805 0
M  V30 12325 N 1149.78 6.27083 -2.94515 0
M  V30 12326 N 1151.57 5.15943 -2.23069 0
M  V30 12327 H 1143.72 1.32183 -1.66257 0
M  V30 12328 H 1145.99 0.637624 -0.701527 0
M  V30 12329 H 1145.69 2.76958 -2.16765 0
M  V30 12330 H 1145.57 3.70827 -0.690439 0
M  V30 12331 H 1147.95 2.95057 -0.0504037 0
M  V30 12332 H 1148.03 2.02849 -1.55839 0
M  V30 12333 H 1147.68 4.18878 -2.87235 0
M  V30 12334 H 1147.61 5.09294 -1.33893 0
M  V30 12335 H 1150.1 3.53129 -1.34567 0
M  V30 12336 H 1150.41 6.97511 -3.32714 0
M  V30 12337 H 1148.76 6.27589 -2.98592 0
M  V30 12338 H 1151.95 4.34346 -1.74532 0
M  V30 12339 H 1152.12 5.91396 -2.64868 0
M  V30 12340 N 1145.53 0.438773 1.51369 0
M  V30 12341 C 1146.77 -0.126367 2.04009 0
M  V30 12342 C 1147.13 -1.39837 1.31566 0
M  V30 12343 O 1148.33 -2.04384 1.74587 0
M  V30 12344 C 1146.6 -0.338531 3.55793 0
M  V30 12345 S 1148.16 -0.866869 4.30152 0
M  V30 12346 H 1144.98 -0.0311763 0.710316 0
M  V30 12347 H 1147.58 0.598507 1.86113 0
M  V30 12348 H 1146.29 0.593555 4.06085 0
M  V30 12349 H 1145.82 -1.09044 3.77985 0
M  V30 12350 H 1147.83 -2.14427 4.47477 0
M  V30 12351 N 1147.01 -1.56678 0.170181 0
M  V30 12352 C 1148.42 -1.58512 -0.185999 0
M  V30 12353 C 1148.62 -1.18548 -1.62937 0
M  V30 12354 O 1147.68 -0.896554 -2.36047 0
M  V30 12355 C 1148.99 -3.00554 0.0937842 0
M  V30 12356 C 1150.54 -3.12984 0.0319057 0
M  V30 12357 C 1151.01 -4.57115 0.284664 0
M  V30 12358 N 1152.5 -4.62617 0.2324 0
M  V30 12359 C 1153.24 -5.71988 0.40216 0
M  V30 12360 N 1152.74 -6.89921 0.630915 0
M  V30 12361 N 1154.53 -5.61082 0.338144 0
M  V30 12362 H 1146.68 -1.80944 1.11235 0
M  V30 12363 H 1148.94 -0.838586 0.442128 0
M  V30 12364 H 1148.65 -3.34265 1.09362 0
M  V30 12365 H 1148.52 -3.72151 -0.615118 0
M  V30 12366 H 1150.91 -2.791 -0.958502 0
M  V30 12367 H 1150.99 -2.43825 0.773501 0
M  V30 12368 H 1150.63 -4.91707 1.27227 0
M  V30 12369 H 1150.56 -5.2443 -0.477529 0
M  V30 12370 H 1153.06 -3.7785 0.0611933 0
M  V30 12371 H 1153.37 -7.69153 0.749931 0
M  V30 12372 H 1151.71 -6.91787 0.667516 0
M  V30 12373 H 1154.9 -4.67826 0.16003 0
M  V30 12374 H 1155.08 -6.46265 0.473872 0
M  V30 12375 N 1148.48 0.103547 -1.57259 0
M  V30 12376 C 1149.73 0.809774 -1.85931 0
M  V30 12377 C 1150.06 1.78791 -0.758122 0
M  V30 12378 O 1149.34 1.93079 0.234682 0
M  V30 12379 C 1149.62 1.54601 -3.25224 0
M  V30 12380 C 1149.47 0.586439 -4.45961 0
M  V30 12381 C 1150.79 2.4986 -3.62296 0
M  V30 12382 H 1147.91 0.29293 -0.676285 0
M  V30 12383 H 1150.55 0.0736065 -1.89857 0
M  V30 12384 H 1148.7 2.17355 -3.22008 0
M  V30 12385 H 1150.38 -0.0334441 -4.61288 0
M  V30 12386 H 1148.62 -0.10085 -4.33683 0
M  V30 12387 H 1149.29 1.13855 -5.40131 0
M  V30 12388 H 1151.77 1.97203 -3.66402 0
M  V30 12389 H 1150.64 2.98396 -4.60707 0
M  V30 12390 H 1150.9 3.33233 -2.90531 0
M  V30 12391 N 1149.96 1.53094 0.37415 0
M  V30 12392 C 1150.91 1.79585 1.47824 0
M  V30 12393 C 1151.9 0.664513 1.55822 0
M  V30 12394 O 1153.11 0.84729 1.58811 0
M  V30 12395 H 1149.48 0.568474 0.492282 0
M  V30 12396 H 1151.46 2.72014 1.22681 0
M  V30 12397 C 1150.2 1.995 2.84772 0
M  V30 12398 H 1149.53 2.85991 2.79373 0
M  V30 12399 H 1150.97 2.22018 3.61226 0
M  V30 12400 C 1149.43 0.771673 3.27943 0
M  V30 12401 O 1149.96 -0.0437737 4.01676 0
M  V30 12402 N 1148.16 0.597547 2.8439 0
M  V30 12403 H 1147.71 1.26227 2.24554 0
M  V30 12404 H 1147.67 -0.219578 3.13632 0
M  V30 12405 N 1151.44 -0.633461 1.44309 0
M  V30 12406 C 1152.4 -1.72743 1.50641 0
M  V30 12407 C 1153.4 -1.56031 0.388718 0
M  V30 12408 O 1154.59 -1.61568 0.651251 0
M  V30 12409 C 1151.72 -3.11804 1.37809 0
M  V30 12410 H 1152.92 -1.68503 2.48086 0
M  V30 12411 H 1150.47 -0.846912 1.31366 0
M  V30 12412 H 1151.21 -3.2164 0.414483 0
M  V30 12413 H 1150.99 -3.2534 2.18852 0
M  V30 12414 H 1152.48 -3.91538 1.45216 0
M  V30 12415 N 1152.92 -1.31168 -0.873655 0
M  V30 12416 C 1153.88 -1.18471 -1.96207 0
M  V30 12417 C 1154.88 -0.112814 -1.60404 0
M  V30 12418 O 1156.07 -0.3618 -1.70401 0
M  V30 12419 C 1153.2 -0.817662 -3.30949 0
M  V30 12420 H 1154.4 -2.1518 -2.08896 0
M  V30 12421 H 1151.95 -1.14727 -1.06149 0
M  V30 12422 H 1152.68 0.148428 -3.2396 0
M  V30 12423 H 1152.47 -1.59244 -3.58307 0
M  V30 12424 H 1153.96 -0.75262 -4.10762 0
M  V30 12425 N 1154.4 1.08748 -1.14068 0
M  V30 12426 C 1155.33 2.17591 -0.84714 0
M  V30 12427 C 1156.31 1.68962 0.196415 0
M  V30 12428 O 1157.49 1.94125 0.0538415 0
M  V30 12429 C 1154.62 3.45823 -0.320005 0
M  V30 12430 C 1153.58 4.07824 -1.2986 0
M  V30 12431 C 1152.9 5.30965 -0.630925 0
M  V30 12432 C 1154.2 4.49512 -2.65963 0
M  V30 12433 H 1155.9 2.42404 -1.75729 0
M  V30 12434 H 1153.44 1.16502 -0.846356 0
M  V30 12435 H 1155.4 4.21276 -0.102271 0
M  V30 12436 H 1154.12 3.20553 0.625561 0
M  V30 12437 H 1152.78 3.34398 -1.50245 0
M  V30 12438 H 1152.43 5.01979 0.320337 0
M  V30 12439 H 1152.13 5.73402 -1.28388 0
M  V30 12440 H 1153.65 6.09136 -0.422635 0
M  V30 12441 H 1155.06 5.16159 -2.49506 0
M  V30 12442 H 1153.46 5.02857 -3.27498 0
M  V30 12443 H 1154.53 3.6157 -3.23102 0
M  V30 12444 N 1155.87 0.935264 1.26849 0
M  V30 12445 C 1157.1 0.596249 1.98122 0
M  V30 12446 C 1157.52 -0.827452 1.69702 0
M  V30 12447 O 1156.87 -1.55095 0.961864 0
M  V30 12448 C 1156.93 0.821773 3.52036 0
M  V30 12449 O 1156.65 2.18947 3.79465 0
M  V30 12450 C 1158.15 0.492498 4.40556 0
M  V30 12451 H 1155.37 0.225242 0.632066 0
M  V30 12452 H 1157.91 1.25435 1.61512 0
M  V30 12453 H 1156.07 0.210363 3.86828 0
M  V30 12454 H 1156.48 2.24509 4.74021 0
M  V30 12455 H 1157.95 0.700953 5.47531 0
M  V30 12456 H 1158.43 -0.57228 4.35456 0
M  V30 12457 H 1159.04 1.08238 4.11296 0
M  V30 12458 N 1157.35 -1.41121 0.701616 0
M  V30 12459 C 1158.6 -2.00359 0.232214 0
M  V30 12460 C 1158.91 -1.56231 -1.17691 0
M  V30 12461 O 1160.12 -2.08071 -1.74409 0
M  V30 12462 C 1158.58 -3.58052 0.364257 0
M  V30 12463 C 1158.18 -4.11158 1.77913 0
M  V30 12464 C 1159.93 -4.24476 -0.0450628 0
M  V30 12465 C 1157.84 -5.61306 1.8625 0
M  V30 12466 H 1156.77 -0.749411 0.0830609 0
M  V30 12467 H 1159.42 -1.61528 0.870689 0
M  V30 12468 H 1157.8 -3.94515 -0.342569 0
M  V30 12469 H 1158.97 -3.86101 2.5152 0
M  V30 12470 H 1157.29 -3.57282 2.13866 0
M  V30 12471 H 1159.88 -5.347 -0.00329209 0
M  V30 12472 H 1160.23 -4.01919 -1.08477 0
M  V30 12473 H 1160.76 -3.93069 0.611704 0
M  V30 12474 H 1157.5 -5.88699 2.88294 0
M  V30 12475 H 1157.02 -5.88271 1.17036 0
M  V30 12476 H 1158.7 -6.26179 1.62817 0
M  V30 12477 N 1158.83 -0.446794 -1.51134 0
M  V30 12478 C 1159.76 0.395804 -2.25757 0
M  V30 12479 C 1160.78 0.978178 -1.30137 0
M  V30 12480 O 1161.96 0.87071 -1.55823 0
M  V30 12481 C 1159.06 1.56665 -3.00515 0
M  V30 12482 C 1158.24 1.10146 -4.23305 0
M  V30 12483 C 1157.3 2.14352 -4.80562 0
M  V30 12484 O 1156.32 1.73401 -5.42145 0
M  V30 12485 N 1157.52 3.46932 -4.65423 0
M  V30 12486 H 1160.29 -0.243808 -2.98707 0
M  V30 12487 H 1157.85 -0.276205 -1.59527 0
M  V30 12488 H 1159.84 2.26019 -3.35704 0
M  V30 12489 H 1158.41 2.11142 -2.30516 0
M  V30 12490 H 1157.63 0.234644 -3.93501 0
M  V30 12491 H 1158.92 0.768185 -5.02968 0
M  V30 12492 H 1158.32 3.82929 -4.16391 0
M  V30 12493 H 1156.88 4.12154 -5.04948 0
M  V30 12494 N 1160.31 1.56586 -0.178487 0
M  V30 12495 C 1161.24 2.21313 0.744486 0
M  V30 12496 C 1162.22 1.17098 1.23377 0
M  V30 12497 O 1163.4 1.45551 1.28563 0
M  V30 12498 C 1160.53 2.8595 1.97103 0
M  V30 12499 C 1159.49 3.96266 1.61732 0
M  V30 12500 C 1158.81 4.47987 2.91911 0
M  V30 12501 C 1160.11 5.15503 0.839868 0
M  V30 12502 H 1161.81 2.98698 0.204938 0
M  V30 12503 H 1159.35 1.43672 0.0971306 0
M  V30 12504 H 1161.31 3.29909 2.6218 0
M  V30 12505 H 1160.03 2.05946 2.53484 0
M  V30 12506 H 1158.69 3.52974 0.990208 0
M  V30 12507 H 1158.34 3.64765 3.46346 0
M  V30 12508 H 1158.04 5.22413 2.68995 0
M  V30 12509 H 1159.56 4.94637 3.58004 0
M  V30 12510 H 1160.98 5.5611 1.39337 0
M  V30 12511 H 1159.37 5.95891 0.709473 0
M  V30 12512 H 1160.44 4.84628 -0.162396 0
M  V30 12513 N 1161.79 -0.095206 1.57312 0
M  V30 12514 C 1163.03 -0.798719 1.86083 0
M  V30 12515 C 1163.36 -1.78739 0.766991 0
M  V30 12516 O 1162.62 -1.9423 -0.239425 0
M  V30 12517 C 1162.92 -1.56244 3.21438 0
M  V30 12518 C 1162.58 -0.715903 4.4518 0
M  V30 12519 C 1161.24 -0.482537 4.78774 0
M  V30 12520 C 1163.6 -0.127404 5.21044 0
M  V30 12521 C 1160.92 0.349193 5.8566 0
M  V30 12522 C 1163.28 0.691649 6.28808 0
M  V30 12523 C 1161.94 0.935107 6.60918 0
M  V30 12524 H 1161.21 -0.292272 0.680924 0
M  V30 12525 H 1163.86 -0.0602105 1.91405 0
M  V30 12526 H 1162.16 -2.37251 3.118 0
M  V30 12527 H 1163.86 -2.11116 3.40927 0
M  V30 12528 H 1160.45 -0.907902 4.18874 0
M  V30 12529 H 1164.63 -0.29486 4.95423 0
M  V30 12530 H 1159.89 0.546797 6.0895 0
M  V30 12531 H 1164.06 1.15452 6.86763 0
M  V30 12532 H 1161.69 1.58139 7.4357 0
M  V30 12533 N 1163.26 -1.53291 -0.366026 0
M  V30 12534 C 1164.49 -1.73665 -1.13381 0
M  V30 12535 C 1164.91 -0.464284 -1.8228 0
M  V30 12536 O 1164.27 0.581645 -1.71717 0
M  V30 12537 C 1164.32 -2.90225 -2.14013 0
M  V30 12538 O 1163.42 -2.58803 -3.21084 0
M  V30 12539 H 1162.77 -0.576762 -0.329 0
M  V30 12540 H 1165.3 -2.00174 -0.423287 0
M  V30 12541 H 1165.31 -3.16378 -2.57622 0
M  V30 12542 H 1163.98 -3.82518 -1.63257 0
M  V30 12543 H 1162.56 -2.43466 -2.82451 0
M  V30 12544 N 1164.74 0.6258 -1.44643 0
M  V30 12545 C 1165.67 1.75086 -1.47911 0
M  V30 12546 C 1166.69 1.58496 -0.37188 0
M  V30 12547 O 1167.88 1.66712 -0.637925 0
M  V30 12548 C 1164.98 3.12874 -1.30243 0
M  V30 12549 C 1164.15 3.55873 -2.54309 0
M  V30 12550 C 1163.21 4.72558 -2.31464 0
M  V30 12551 O 1162.23 4.80599 -3.04981 0
M  V30 12552 N 1163.44 5.64617 -1.34862 0
M  V30 12553 H 1166.2 1.72751 -2.44902 0
M  V30 12554 H 1163.76 0.810531 -1.4015 0
M  V30 12555 H 1165.75 3.88663 -1.12798 0
M  V30 12556 H 1164.32 3.0982 -0.415966 0
M  V30 12557 H 1163.54 2.70237 -2.86994 0
M  V30 12558 H 1164.83 3.81355 -3.36817 0
M  V30 12559 H 1164.23 5.60819 -0.741542 0
M  V30 12560 H 1162.79 6.40013 -1.23394 0
M  V30 12561 N 1166.22 1.31629 0.866686 0
M  V30 12562 C 1167.15 1.22151 1.99001 0
M  V30 12563 C 1168.13 0.107972 1.69757 0
M  V30 12564 O 1169.32 0.293125 1.91975 0
M  V30 12565 C 1166.45 0.93144 3.34577 0
M  V30 12566 C 1165.4 2.0049 3.78137 0
M  V30 12567 C 1164.73 1.56747 5.11209 0
M  V30 12568 C 1166.03 3.41844 3.94892 0
M  V30 12569 H 1167.72 2.16132 2.0719 0
M  V30 12570 H 1165.27 1.04051 0.995463 0
M  V30 12571 H 1167.22 0.851719 4.12703 0
M  V30 12572 H 1165.94 -0.0440289 3.2657 0
M  V30 12573 H 1164.6 2.07457 3.02253 0
M  V30 12574 H 1164.25 0.579767 4.99648 0
M  V30 12575 H 1163.95 2.28562 5.41326 0
M  V30 12576 H 1165.47 1.50188 5.91841 0
M  V30 12577 H 1166.89 3.37534 4.63405 0
M  V30 12578 H 1165.29 4.11905 4.36411 0
M  V30 12579 H 1166.36 3.82389 2.98172 0
M  V30 12580 N 1167.7 -1.08142 1.14644 0
M  V30 12581 C 1168.95 -1.80582 0.916327 0
M  V30 12582 C 1169.27 -1.86355 -0.556969 0
M  V30 12583 O 1168.53 -1.33736 -1.42875 0
M  V30 12584 C 1168.83 -3.25962 1.46573 0
M  V30 12585 C 1168.49 -3.40302 2.95814 0
M  V30 12586 C 1167.16 -3.43922 3.36557 0
M  V30 12587 C 1169.51 -3.43758 3.91765 0
M  V30 12588 C 1166.84 -3.48594 4.7191 0
M  V30 12589 C 1169.19 -3.49965 5.26979 0
M  V30 12590 C 1167.85 -3.5186 5.67231 0
M  V30 12591 H 1167.12 -0.660795 0.335308 0
M  V30 12592 H 1169.77 -1.27309 1.43055 0
M  V30 12593 H 1168.07 -3.81961 0.872507 0
M  V30 12594 H 1169.77 -3.80571 1.2636 0
M  V30 12595 H 1166.36 -3.38176 2.63315 0
M  V30 12596 H 1170.55 -3.40189 3.61366 0
M  V30 12597 H 1165.8 -3.48355 5.02453 0
M  V30 12598 H 1169.98 -3.51585 6.01133 0
M  V30 12599 H 1167.6 -3.55233 6.72097 0
M  V30 12600 N 1169.18 -0.941978 -1.26351 0
M  V30 12601 C 1170.13 -0.423053 -2.24041 0
M  V30 12602 C 1171.11 0.480668 -1.53553 0
M  V30 12603 O 1172.3 0.315783 -1.7416 0
M  V30 12604 C 1169.43 0.309814 -3.41899 0
M  V30 12605 C 1168.52 -0.611245 -4.19672 0
M  V30 12606 N 1168.91 -1.73738 -4.75025 0
M  V30 12607 C 1167.21 -0.416985 -4.44046 0
M  V30 12608 C 1167.91 -2.31141 -5.33806 0
M  V30 12609 N 1166.88 -1.59934 -5.1954 0
M  V30 12610 H 1170.69 -1.28268 -2.64433 0
M  V30 12611 H 1168.2 -0.797941 -1.41445 0
M  V30 12612 H 1170.2 0.698618 -4.11005 0
M  V30 12613 H 1168.86 1.1662 -3.03035 0
M  V30 12614 H 1169.87 -2.1195 -4.72544 0
M  V30 12615 H 1166.55 0.397561 -4.15603 0
M  V30 12616 H 1167.94 -3.26029 -5.87499 0
M  V30 12617 N 1170.66 1.40747 -0.709091 0
M  V30 12618 C 1171.9 2.01003 -0.24581 0
M  V30 12619 C 1172.23 1.56203 1.15891 0
M  V30 12620 O 1171.49 0.770166 1.79908 0
M  V30 12621 C 1171.78 3.56404 -0.266685 0
M  V30 12622 C 1171.45 4.20762 -1.6208 0
M  V30 12623 C 1170.11 4.38056 -1.99148 0
M  V30 12624 C 1172.46 4.56723 -2.51105 0
M  V30 12625 C 1169.79 4.88591 -3.248 0
M  V30 12626 C 1172.14 5.08654 -3.76103 0
M  V30 12627 C 1170.81 5.24158 -4.13297 0
M  V30 12628 H 1170.08 0.73552 -0.0899481 0
M  V30 12629 H 1172.73 1.68451 -0.910844 0
M  V30 12630 H 1171.03 3.88825 0.481915 0
M  V30 12631 H 1172.73 4.0085 0.109509 0
M  V30 12632 H 1169.32 4.07685 -1.32252 0
M  V30 12633 H 1173.5 4.43004 -2.23744 0
M  V30 12634 H 1168.76 4.98779 -3.53595 0
M  V30 12635 H 1172.93 5.35457 -4.45262 0
M  V30 12636 H 1170.56 5.63079 -5.10731 0
M  V30 12637 N 1172.13 0.454803 1.50895 0
M  V30 12638 C 1173.38 -0.107367 2.01414 0
M  V30 12639 C 1173.7 -1.42243 1.34262 0
M  V30 12640 O 1174.9 -2.06858 1.75846 0
M  V30 12641 C 1173.36 -0.241872 3.59086 0
M  V30 12642 C 1172.97 1.06379 4.35187 0
M  V30 12643 C 1174.71 -0.756873 4.17698 0
M  V30 12644 C 1172.62 0.893973 5.84604 0
M  V30 12645 H 1171.55 -0.0439003 0.752721 0
M  V30 12646 H 1174.2 0.587225 1.7385 0
M  V30 12647 H 1172.58 -0.999873 3.83169 0
M  V30 12648 H 1173.75 1.83148 4.2284 0
M  V30 12649 H 1172.07 1.50865 3.88109 0
M  V30 12650 H 1174.67 -0.900697 5.27059 0
M  V30 12651 H 1175.01 -1.74397 3.7801 0
M  V30 12652 H 1175.54 -0.0567088 3.9776 0
M  V30 12653 H 1172.28 1.85395 6.28736 0
M  V30 12654 H 1171.8 0.166387 5.99569 0
M  V30 12655 H 1173.48 0.554084 6.44623 0
M  V30 12656 N 1173.61 -1.56489 0.186789 0
M  V30 12657 C 1174.56 -2.20034 -0.754164 0
M  V30 12658 C 1175.55 -1.16899 -1.22601 0
M  V30 12659 O 1176.76 -1.35064 -1.18987 0
M  V30 12660 H 1173.13 -0.705058 -0.261529 0
M  V30 12661 H 1175.11 -2.97766 -0.194418 0
M  V30 12662 C 1173.85 -2.86733 -1.9667 0
M  V30 12663 H 1173.18 -3.65831 -1.61268 0
M  V30 12664 H 1174.62 -3.34645 -2.60363 0
M  V30 12665 C 1173.08 -1.87325 -2.8002 0
M  V30 12666 O 1173.61 -1.36835 -3.77676 0
M  V30 12667 N 1171.81 -1.55738 -2.45345 0
M  V30 12668 H 1171.36 -1.9699 -1.6599 0
M  V30 12669 H 1171.32 -0.894805 -3.01398 0
M  V30 12670 N 1175.09 0.086862 -1.5736 0
M  V30 12671 C 1176.02 1.13614 -1.97907 0
M  V30 12672 C 1177 1.38395 -0.853564 0
M  V30 12673 O 1178.18 1.52018 -1.11457 0
M  V30 12674 C 1175.31 2.48364 -2.30289 0
M  V30 12675 C 1174.36 2.39814 -3.52692 0
M  V30 12676 S 1175.19 1.80673 -5.04101 0
M  V30 12677 C 1176.35 3.17031 -5.39669 0
M  V30 12678 H 1176.58 0.790538 -2.86597 0
M  V30 12679 H 1174.11 0.294847 -1.51559 0
M  V30 12680 H 1176.07 3.25883 -2.49621 0
M  V30 12681 H 1174.73 2.80091 -1.42154 0
M  V30 12682 H 1173.92 3.3915 -3.72818 0
M  V30 12683 H 1173.53 1.70427 -3.32912 0
M  V30 12684 H 1175.82 4.13319 -5.36818 0
M  V30 12685 H 1176.76 3.017 -6.40611 0
M  V30 12686 H 1177.17 3.16942 -4.67128 0
M  V30 12687 N 1176.57 1.53483 0.357892 0
M  V30 12688 C 1177.81 1.71233 1.09776 0
M  V30 12689 C 1178.17 0.462401 1.86761 0
M  V30 12690 O 1177.46 -0.544746 1.83693 0
M  V30 12691 C 1177.66 2.90654 2.07978 0
M  V30 12692 C 1177.48 4.27141 1.40644 0
M  V30 12693 C 1176.25 4.91868 1.15732 0
M  V30 12694 C 1178.45 5.07392 0.840118 0
M  V30 12695 N 1176.43 6.12261 0.448282 0
M  V30 12696 C 1177.81 6.19451 0.260863 0
M  V30 12697 C 1179.86 4.92377 0.739558 0
M  V30 12698 C 1178.56 7.18135 -0.409153 0
M  V30 12699 C 1180.59 5.91341 0.0833084 0
M  V30 12700 C 1179.95 7.02728 -0.485038 0
M  V30 12701 H 1176.05 0.679764 0.386582 0
M  V30 12702 H 1178.63 1.90893 0.383158 0
M  V30 12703 H 1176.81 2.7252 2.76744 0
M  V30 12704 H 1178.54 2.97192 2.74698 0
M  V30 12705 H 1175.29 4.51157 1.44064 0
M  V30 12706 H 1175.72 6.76912 0.108905 0
M  V30 12707 H 1180.36 4.06441 1.16472 0
M  V30 12708 H 1178.08 8.03657 -0.846247 0
M  V30 12709 H 1181.66 5.818 0.00632482 0
M  V30 12710 H 1180.54 7.77992 -0.984802 0
M  V30 12711 N 1178.05 -0.61812 1.44973 0
M  V30 12712 C 1178.98 -1.74035 1.55673 0
M  V30 12713 C 1179.96 -1.65112 0.4089 0
M  V30 12714 O 1181.14 -1.83673 0.630698 0
M  V30 12715 C 1178.27 -3.1261 1.51303 0
M  V30 12716 C 1177.23 -3.36334 2.64696 0
M  V30 12717 C 1176.55 -4.75072 2.45378 0
M  V30 12718 C 1177.85 -3.27618 4.06772 0
M  V30 12719 H 1179.55 -1.65336 2.49608 0
M  V30 12720 H 1177.09 -0.794003 1.20132 0
M  V30 12721 H 1179.04 -3.90906 1.57388 0
M  V30 12722 H 1177.77 -3.22123 0.538914 0
M  V30 12723 H 1176.43 -2.60423 2.58022 0
M  V30 12724 H 1176.08 -4.81306 1.46129 0
M  V30 12725 H 1175.78 -4.91903 3.21412 0
M  V30 12726 H 1177.3 -5.55582 2.53301 0
M  V30 12727 H 1178.71 -3.95802 4.14746 0
M  V30 12728 H 1177.11 -3.55981 4.83113 0
M  V30 12729 H 1178.18 -2.25219 4.29423 0
M  V30 12730 N 1179.52 -1.32087 -0.859693 0
M  V30 12731 C 1180.77 -1.2236 -1.61351 0
M  V30 12732 C 1181.1 0.215796 -1.93299 0
M  V30 12733 O 1180.35 1.16742 -1.57066 0
M  V30 12734 C 1180.65 -2.0234 -2.94607 0
M  V30 12735 C 1180.32 -3.51746 -2.82109 0
M  V30 12736 C 1178.98 -3.92482 -2.78408 0
M  V30 12737 C 1181.33 -4.46776 -2.68403 0
M  V30 12738 C 1178.66 -5.265 -2.58873 0
M  V30 12739 C 1181.01 -5.80931 -2.50404 0
M  V30 12740 C 1179.68 -6.20875 -2.45092 0
M  V30 12741 H 1178.95 -0.447748 -0.590426 0
M  V30 12742 H 1181.59 -1.63461 -0.997637 0
M  V30 12743 H 1179.9 -1.53952 -3.60286 0
M  V30 12744 H 1181.6 -1.92187 -3.51945 0
M  V30 12745 H 1178.19 -3.19389 -2.85812 0
M  V30 12746 H 1182.37 -4.16228 -2.70311 0
M  V30 12747 H 1177.63 -5.5651 -2.53192 0
M  V30 12748 H 1181.8 -6.54185 -2.38777 0
M  V30 12749 H 1179.43 -7.24662 -2.29714 0
M  V30 12750 N 1181 1.07532 -1.15215 0
M  V30 12751 C 1181.95 2.16785 -0.843022 0
M  V30 12752 C 1182.94 1.68411 0.182802 0
M  V30 12753 O 1184.15 1.7996 0.0380164 0
M  V30 12754 H 1180.52 0.707465 -0.254945 0
M  V30 12755 H 1182.5 2.40078 -1.77215 0
M  V30 12756 C 1181.24 3.45967 -0.346699 0
M  V30 12757 H 1180.57 3.83574 -1.12744 0
M  V30 12758 H 1182.01 4.23663 -0.169039 0
M  V30 12759 C 1180.47 3.23768 0.931437 0
M  V30 12760 O 1181 3.48179 2.00336 0
M  V30 12761 N 1179.2 2.77264 0.870217 0
M  V30 12762 H 1178.75 2.576 -0.00226223 0
M  V30 12763 H 1178.71 2.6279 1.72594 0
M  V30 12764 N 1182.48 0.948665 1.2585 0
M  V30 12765 C 1183.9 0.652147 1.45668 0
M  V30 12766 C 1184.1 -0.792217 1.85273 0
M  V30 12767 O 1183.15 -1.56812 1.97905 0
M  V30 12768 C 1184.47 1.61998 2.53332 0
M  V30 12769 C 1186.01 1.6305 2.67178 0
M  V30 12770 C 1186.49 2.58582 3.78021 0
M  V30 12771 N 1187.98 2.56911 3.85423 0
M  V30 12772 C 1188.71 3.27511 4.70664 0
M  V30 12773 N 1188.21 4.07563 5.60236 0
M  V30 12774 N 1190 3.16427 4.64576 0
M  V30 12775 H 1182.15 1.88215 0.984325 0
M  V30 12776 H 1184.42 0.809251 0.493778 0
M  V30 12777 H 1184.12 2.65137 2.31075 0
M  V30 12778 H 1184 1.37784 3.51134 0
M  V30 12779 H 1186.38 0.606315 2.88804 0
M  V30 12780 H 1186.47 1.9132 1.69795 0
M  V30 12781 H 1186.11 3.61122 3.57146 0
M  V30 12782 H 1186.04 2.27598 4.74875 0
M  V30 12783 H 1188.53 1.9879 3.21389 0
M  V30 12784 H 1188.84 4.58367 6.22189 0
M  V30 12785 H 1187.19 4.11662 5.59964 0
M  V30 12786 H 1190.38 2.53364 3.93604 0
M  V30 12787 H 1190.55 3.71714 5.30785 0
M  V30 12788 N 1183.96 -1.40369 0.716545 0
M  V30 12789 C 1184.89 -2.33365 0.0793533 0
M  V30 12790 C 1185.87 -1.52943 -0.744482 0
M  V30 12791 O 1187.05 -1.81406 -0.693212 0
M  V30 12792 C 1184.18 -3.36928 -0.842429 0
M  V30 12793 C 1183.14 -4.2782 -0.124142 0
M  V30 12794 C 1182.46 -5.21928 -1.1617 0
M  V30 12795 C 1183.76 -5.12199 1.02224 0
M  V30 12796 H 1185.46 -2.86899 0.856115 0
M  V30 12797 H 1183 -1.37946 0.413138 0
M  V30 12798 H 1184.96 -4.00925 -1.29759 0
M  V30 12799 H 1183.68 -2.81791 -1.6511 0
M  V30 12800 H 1182.34 -3.65277 0.311201 0
M  V30 12801 H 1181.99 -4.63096 -1.96345 0
M  V30 12802 H 1181.69 -5.83582 -0.685978 0
M  V30 12803 H 1183.21 -5.88802 -1.61694 0
M  V30 12804 H 1184.63 -5.69644 0.646399 0
M  V30 12805 H 1183.02 -5.82901 1.4264 0
M  V30 12806 H 1184.09 -4.4812 1.85246 0
M  V30 12807 N 1185.44 -0.462799 -1.50652 0
M  V30 12808 C 1186.68 0.0951853 -2.02576 0
M  V30 12809 C 1187.02 1.40113 -1.34469 0
M  V30 12810 O 1186.29 1.88793 -0.467702 0
M  V30 12811 C 1186.57 0.287603 -3.5895 0
M  V30 12812 C 1186.43 -1.03878 -4.37641 0
M  V30 12813 C 1187.75 1.04593 -4.27491 0
M  V30 12814 H 1184.86 0.0331191 -0.736255 0
M  V30 12815 H 1187.51 -0.606772 -1.80051 0
M  V30 12816 H 1185.66 0.885514 -3.78274 0
M  V30 12817 H 1187.33 -1.67263 -4.29908 0
M  V30 12818 H 1185.57 -1.6374 -4.01711 0
M  V30 12819 H 1186.24 -0.857889 -5.45293 0
M  V30 12820 H 1188.72 0.539213 -4.12591 0
M  V30 12821 H 1187.59 1.14935 -5.36732 0
M  V30 12822 H 1187.86 2.08045 -3.90089 0
M  V30 12823 N 1186.91 1.56388 -0.195085 0
M  V30 12824 C 1188.14 2.01963 0.449289 0
M  V30 12825 C 1188.56 1.07522 1.55192 0
M  V30 12826 O 1187.91 0.0800915 1.82324 0
M  V30 12827 C 1187.97 3.47231 1.00561 0
M  V30 12828 O 1187.69 4.38068 -0.0530241 0
M  V30 12829 C 1189.19 4.08324 1.72587 0
M  V30 12830 H 1186.41 0.661452 0.112792 0
M  V30 12831 H 1188.95 2.02231 -0.303788 0
M  V30 12832 H 1187.11 3.47663 1.70907 0
M  V30 12833 H 1187.52 5.23256 0.361076 0
M  V30 12834 H 1188.99 5.11821 2.06744 0
M  V30 12835 H 1189.47 3.51782 2.62956 0
M  V30 12836 H 1190.08 4.11665 1.06826 0
M  V30 12837 N 1188.39 -0.0785156 1.57404 0
M  V30 12838 C 1189.67 -0.811557 1.77969 0
M  V30 12839 C 1190.05 -1.96123 0.780966 0
M  V30 12840 O 1189.4 -2.27731 -0.18726 0
M  V30 12841 C 1189.61 -1.29075 3.24254 0
M  V30 12842 C 1190.96 -1.72685 3.87898 0
M  V30 12843 O 1191.98 -1.38658 3.28104 0
M  V30 12844 O 1190.84 -2.3566 4.93079 0
M  V30 12845 H 1187.93 -0.388361 0.73014 0
M  V30 12846 H 1190.48 -0.0591118 1.69597 0
M  V30 12847 H 1189.25 -0.467813 3.88494 0
M  V30 12848 H 1188.87 -2.10472 3.37324 0
M  V30 12849 N 1189.87 -1.5367 -0.349747 0
M  V30 12850 C 1191.28 -1.62135 -0.925704 0
M  V30 12851 C 1191.63 -0.498725 -1.89756 0
M  V30 12852 O 1190.76 0.372481 -2.1317 0
M  V30 12853 C 1191.35 -2.93885 -1.68573 0
M  V30 12854 C 1189.91 -3.04632 -2.2108 0
M  V30 12855 C 1189.06 -2.57541 -1.02801 0
M  V30 12856 H 1192.01 -1.58182 -0.128065 0
M  V30 12857 H 1192.03 -2.82577 -2.54815 0
M  V30 12858 H 1191.54 -3.75571 -0.978153 0
M  V30 12859 H 1189.64 -2.27567 -2.95032 0
M  V30 12860 H 1189.76 -4.09993 -2.47876 0
M  V30 12861 H 1188.12 -2.12798 -1.39962 0
M  V30 12862 H 1188.9 -3.4166 -0.335157 0
M  V30 12863 N 1191.35 0.610423 -1.45298 0
M  V30 12864 C 1192.63 1.36966 -1.39641 0
M  V30 12865 C 1193.01 2.10998 -0.0655757 0
M  V30 12866 O 1192.35 2.07705 0.952407 0
M  V30 12867 C 1192.56 2.31885 -2.60826 0
M  V30 12868 C 1193.91 2.9458 -3.05791 0
M  V30 12869 O 1194.94 2.42207 -2.61179 0
M  V30 12870 O 1193.79 3.89639 -3.83202 0
M  V30 12871 H 1190.89 0.61401 -0.554004 0
M  V30 12872 H 1193.43 0.633748 -1.57422 0
M  V30 12873 H 1192.21 1.76421 -3.49272 0
M  V30 12874 H 1191.83 3.12861 -2.45364 0
M  V30 12875 N 1192.83 1.32541 0.852676 0
M  V30 12876 C 1194.05 1.2636 1.64462 0
M  V30 12877 C 1194.48 -0.16508 1.87374 0
M  V30 12878 O 1193.83 -1.11712 1.42794 0
M  V30 12879 C 1193.88 2.03052 2.97997 0
M  V30 12880 O 1192.99 1.37967 3.88637 0
M  V30 12881 H 1192.33 0.435393 0.501327 0
M  V30 12882 H 1194.86 1.74888 1.06186 0
M  V30 12883 H 1194.87 2.133 3.47803 0
M  V30 12884 H 1193.54 3.06941 2.80642 0
M  V30 12885 H 1192.12 1.36279 3.47106 0
M  V30 12886 N 1194.3 -1.0692 1.15784 0
M  V30 12887 C 1195.55 -1.79245 0.933581 0
M  V30 12888 C 1195.87 -1.87362 -0.540427 0
M  V30 12889 O 1195.14 -1.37769 -1.39271 0
M  V30 12890 H 1193.72 -0.663898 0.342416 0
M  V30 12891 H 1196.39 -1.29189 1.45932 0
M  V30 12892 H 1195.48 -2.81546 1.34679 0
M  V30 12893 N 1195.78 -0.955326 -1.25345 0
M  V30 12894 C 1196.71 -0.494145 -2.28211 0
M  V30 12895 C 1197.69 0.459875 -1.63766 0
M  V30 12896 O 1198.88 0.358679 -1.90859 0
M  V30 12897 C 1196.01 0.228228 -3.46549 0
M  V30 12898 C 1194.96 -0.640601 -4.23179 0
M  V30 12899 C 1194.29 0.212553 -5.34277 0
M  V30 12900 C 1195.59 -1.91906 -4.85767 0
M  V30 12901 H 1197.28 -1.35391 -2.67039 0
M  V30 12902 H 1194.83 -0.652462 -1.2837 0
M  V30 12903 H 1196.78 0.561995 -4.17636 0
M  V30 12904 H 1195.51 1.12224 -3.06714 0
M  V30 12905 H 1194.16 -0.957462 -3.53876 0
M  V30 12906 H 1193.81 1.10634 -4.90682 0
M  V30 12907 H 1193.51 -0.365473 -5.86462 0
M  V30 12908 H 1195.04 0.541271 -6.08196 0
M  V30 12909 H 1196.45 -1.65165 -5.48993 0
M  V30 12910 H 1194.85 -2.44279 -5.48131 0
M  V30 12911 H 1195.92 -2.62173 -4.07914 0
M  V30 12912 N 1197.26 1.39987 -0.723979 0
M  V30 12913 C 1198.5 2.02587 -0.271647 0
M  V30 12914 C 1198.87 1.56186 1.11669 0
M  V30 12915 O 1200.07 2.10907 1.66648 0
M  V30 12916 C 1198.34 3.55604 -0.357851 0
M  V30 12917 S 1199.9 4.38797 0.0162614 0
M  V30 12918 H 1196.71 0.702878 -0.10716 0
M  V30 12919 H 1199.32 1.70974 -0.948057 0
M  V30 12920 H 1198.02 3.86866 -1.36977 0
M  V30 12921 H 1197.55 3.91956 0.336754 0
M  V30 12922 H 1199.57 4.80564 1.23582 0
M  V30 12923 N 1198.74 0.470782 1.50404 0
M  V30 12924 C 1199.96 -0.084284 2.07229 0
M  V30 12925 C 1200.39 -1.32774 1.33239 0
M  V30 12926 O 1199.75 -1.77274 0.379971 0
M  V30 12927 C 1199.8 -0.351565 3.58882 0
M  V30 12928 O 1198.9 -1.43211 3.86736 0
M  V30 12929 H 1198.24 0.0128479 0.663876 0
M  V30 12930 H 1200.77 0.661735 1.93603 0
M  V30 12931 H 1200.78 -0.592151 4.0368 0
M  V30 12932 H 1199.46 0.557084 4.12152 0
M  V30 12933 H 1198.03 -1.17886 3.53776 0
M  V30 12934 N 1200.22 -1.56282 0.203376 0
M  V30 12935 C 1201.17 -2.16094 -0.727145 0
M  V30 12936 C 1202.15 -1.10404 -1.17046 0
M  V30 12937 O 1203.34 -1.36444 -1.12748 0
M  V30 12938 C 1200.47 -2.83029 -1.94293 0
M  V30 12939 C 1199.56 -3.9592 -1.52013 0
M  V30 12940 N 1199.95 -4.99292 -0.808794 0
M  V30 12941 C 1198.25 -4.07674 -1.80881 0
M  V30 12942 C 1198.95 -5.78641 -0.595738 0
M  V30 12943 N 1197.92 -5.31362 -1.14697 0
M  V30 12944 H 1201.73 -2.93378 -0.175041 0
M  V30 12945 H 1199.24 -1.624 0.00390859 0
M  V30 12946 H 1201.24 -3.24277 -2.62012 0
M  V30 12947 H 1199.9 -2.07235 -2.49968 0
M  V30 12948 H 1200.91 -5.15823 -0.463383 0
M  V30 12949 H 1197.59 -3.43016 -2.38005 0
M  V30 12950 H 1198.98 -6.71893 -0.0308618 0
M  V30 12951 N 1201.7 0.070167 -1.57444 0
M  V30 12952 C 1202.93 0.78076 -1.91279 0
M  V30 12953 C 1203.33 1.71559 -0.797754 0
M  V30 12954 O 1202.68 1.82156 0.237665 0
M  V30 12955 C 1202.74 1.62664 -3.20594 0
M  V30 12956 C 1202.4 0.861007 -4.48816 0
M  V30 12957 C 1203.4 0.179522 -5.1959 0
M  V30 12958 C 1201.08 0.8277 -4.95434 0
M  V30 12959 C 1203.08 -0.525024 -6.35234 0
M  V30 12960 C 1200.77 0.119382 -6.10983 0
M  V30 12961 C 1201.76 -0.555778 -6.80735 0
M  V30 12962 O 1201.45 -1.25268 -7.9408 0
M  V30 12963 H 1201.18 0.227053 -0.636728 0
M  V30 12964 H 1203.74 0.0442334 -2.05352 0
M  V30 12965 H 1201.97 2.40601 -3.02734 0
M  V30 12966 H 1203.66 2.21606 -3.40067 0
M  V30 12967 H 1204.42 0.19655 -4.84602 0
M  V30 12968 H 1200.3 1.34268 -4.41014 0
M  V30 12969 H 1203.85 -1.05257 -6.89613 0
M  V30 12970 H 1199.74 0.100287 -6.45422 0
M  V30 12971 H 1200.51 -1.16212 -8.10208 0
M  V30 12972 N 1203.17 1.53854 0.341593 0
M  V30 12973 C 1204.42 1.72388 1.07954 0
M  V30 12974 C 1204.77 0.482184 1.8626 0
M  V30 12975 O 1204.07 -0.525232 1.8426 0
M  V30 12976 C 1204.26 2.92844 2.04884 0
M  V30 12977 C 1204.09 4.28609 1.36105 0
M  V30 12978 C 1202.86 4.93068 1.10508 0
M  V30 12979 C 1205.06 5.08254 0.786255 0
M  V30 12980 N 1203.04 6.12702 0.383319 0
M  V30 12981 C 1204.41 6.19693 0.195147 0
M  V30 12982 C 1206.47 4.93134 0.687293 0
M  V30 12983 C 1205.17 7.17661 -0.485298 0
M  V30 12984 C 1207.2 5.91396 0.0205841 0
M  V30 12985 C 1206.56 7.02174 -0.559545 0
M  V30 12986 H 1202.66 0.683826 0.37935 0
M  V30 12987 H 1205.24 1.91288 0.36289 0
M  V30 12988 H 1203.41 2.7544 2.73838 0
M  V30 12989 H 1205.14 3.00088 2.71531 0
M  V30 12990 H 1201.9 4.52659 1.39271 0
M  V30 12991 H 1202.32 6.7699 0.0371033 0
M  V30 12992 H 1206.96 4.07653 1.12155 0
M  V30 12993 H 1204.68 8.02714 -0.931438 0
M  V30 12994 H 1208.27 5.81774 -0.0553832 0
M  V30 12995 H 1207.15 7.76904 -1.06726 0
M  V30 12996 N 1204.65 -0.602709 1.4562 0
M  V30 12997 C 1205.9 -1.35889 1.49595 0
M  V30 12998 C 1206.22 -1.9449 0.141002 0
M  V30 12999 O 1205.49 -1.77438 -0.830209 0
M  V30 13000 H 1204.07 -0.504478 0.550918 0
M  V30 13001 H 1206.73 -0.707376 1.8161 0
M  V30 13002 H 1205.83 -2.17583 2.2375 0
M  V30 13003 N 1206.13 -1.32992 -0.845635 0
M  V30 13004 C 1207.09 -1.22607 -1.9365 0
M  V30 13005 C 1208.09 -0.146812 -1.60128 0
M  V30 13006 O 1209.28 -0.397863 -1.69596 0
M  V30 13007 C 1206.41 -0.887677 -3.2914 0
M  V30 13008 H 1207.61 -2.19563 -2.04285 0
M  V30 13009 H 1205.16 -1.16952 -1.03691 0
M  V30 13010 H 1205.9 0.0796777 -3.24202 0
M  V30 13011 H 1205.68 -1.66808 -3.54849 0
M  V30 13012 H 1207.17 -0.83958 -4.09073 0
M  V30 13013 N 1207.61 1.06304 -1.1635 0
M  V30 13014 C 1208.86 1.78487 -0.939423 0
M  V30 13015 C 1209.17 1.8817 0.533998 0
M  V30 13016 O 1210.38 2.56981 0.875962 0
M  V30 13017 C 1208.83 3.20796 -1.63149 0
M  V30 13018 C 1208.44 3.19281 -3.14267 0
M  V30 13019 C 1210.18 3.97514 -1.48938 0
M  V30 13020 C 1208.09 4.56309 -3.76213 0
M  V30 13021 H 1207.02 0.668973 -0.347837 0
M  V30 13022 H 1209.67 1.19237 -1.3948 0
M  V30 13023 H 1208.05 3.80305 -1.10382 0
M  V30 13024 H 1209.23 2.69356 -3.73877 0
M  V30 13025 H 1207.54 2.56062 -3.28362 0
M  V30 13026 H 1210.14 4.98808 -1.926 0
M  V30 13027 H 1210.48 4.13986 -0.438319 0
M  V30 13028 H 1211.02 3.44528 -1.98861 0
M  V30 13029 H 1207.75 4.45042 -4.81267 0
M  V30 13030 H 1207.27 5.06429 -3.21388 0
M  V30 13031 H 1208.95 5.25266 -3.77762 0
M  V30 13032 N 1209.09 0.96196 1.24836 0
M  V30 13033 C 1210.33 0.616342 1.92052 0
M  V30 13034 C 1210.65 -0.851601 1.76088 0
M  V30 13035 O 1211.85 -1.3075 2.37943 0
M  V30 13036 C 1210.31 1.05168 3.44191 0
M  V30 13037 C 1209.92 2.54268 3.68852 0
M  V30 13038 C 1211.66 0.778938 4.17292 0
M  V30 13039 C 1209.57 2.91564 5.14533 0
M  V30 13040 H 1208.5 0.22681 0.719078 0
M  V30 13041 H 1211.15 1.1674 1.41577 0
M  V30 13042 H 1209.53 0.428979 3.9367 0
M  V30 13043 H 1210.71 3.21619 3.29997 0
M  V30 13044 H 1209.02 2.79091 3.09026 0
M  V30 13045 H 1211.62 1.03366 5.24614 0
M  V30 13046 H 1211.96 -0.284772 4.15325 0
M  V30 13047 H 1212.49 1.36233 3.73745 0
M  V30 13048 H 1209.23 3.96982 5.21618 0
M  V30 13049 H 1208.75 2.28892 5.54408 0
M  V30 13050 H 1210.43 2.81155 5.82718 0
M  V30 13051 N 1210.56 -1.39601 0.731392 0
M  V30 13052 C 1211.98 -1.54334 0.406594 0
M  V30 13053 C 1212.18 -1.69925 -1.08295 0
M  V30 13054 O 1211.24 -1.69771 -1.86906 0
M  V30 13055 C 1212.55 -2.76303 1.18647 0
M  V30 13056 C 1214.1 -2.90135 1.17433 0
M  V30 13057 C 1214.57 -4.15038 1.93669 0
M  V30 13058 N 1216.06 -4.2207 1.90817 0
M  V30 13059 C 1216.8 -5.17656 2.46616 0
M  V30 13060 N 1216.29 -6.19054 3.11037 0
M  V30 13061 N 1218.09 -5.09847 2.3667 0
M  V30 13062 H 1210.24 -1.27728 1.69703 0
M  V30 13063 H 1212.5 -0.6188 0.718186 0
M  V30 13064 H 1212.21 -2.71113 2.24032 0
M  V30 13065 H 1212.08 -3.68866 0.788514 0
M  V30 13066 H 1214.47 -2.9482 0.128615 0
M  V30 13067 H 1214.55 -1.98646 1.61163 0
M  V30 13068 H 1214.19 -4.11115 2.9824 0
M  V30 13069 H 1214.12 -5.05565 1.47349 0
M  V30 13070 H 1216.61 -3.49437 1.43882 0
M  V30 13071 H 1216.93 -6.88444 3.51091 0
M  V30 13072 H 1215.27 -6.19452 3.15126 0
M  V30 13073 H 1218.46 -4.29566 1.85987 0
M  V30 13074 H 1218.64 -5.84165 2.80455 0
M  V30 13075 N 1212.04 -0.478751 -1.50152 0
M  V30 13076 C 1212.97 0.347829 -2.26545 0
M  V30 13077 C 1213.99 0.950354 -1.32182 0
M  V30 13078 O 1215.18 0.837462 -1.57635 0
M  V30 13079 C 1212.28 1.50255 -3.0377 0
M  V30 13080 C 1211.45 1.01142 -4.25546 0
M  V30 13081 C 1210.51 2.0411 -4.85 0
M  V30 13082 O 1209.53 1.61862 -5.45701 0
M  V30 13083 N 1210.74 3.36982 -4.72677 0
M  V30 13084 H 1213.5 -0.307113 -2.98122 0
M  V30 13085 H 1211.06 -0.309981 -1.58905 0
M  V30 13086 H 1213.05 2.18848 -3.40423 0
M  V30 13087 H 1211.62 2.06205 -2.34943 0
M  V30 13088 H 1210.84 0.151124 -3.9391 0
M  V30 13089 H 1212.13 0.661326 -5.04484 0
M  V30 13090 H 1211.53 3.74011 -4.2442 0
M  V30 13091 H 1210.09 4.0135 -5.13577 0
M  V30 13092 N 1213.52 1.56172 -0.211661 0
M  V30 13093 C 1214.45 2.17107 0.734657 0
M  V30 13094 C 1215.47 1.1374 1.16478 0
M  V30 13095 O 1216.65 1.40763 1.09764 0
M  V30 13096 C 1213.75 2.73182 2.00561 0
M  V30 13097 C 1212.93 4.0162 1.73264 0
M  V30 13098 C 1211.99 4.42357 2.84968 0
M  V30 13099 O 1211.01 5.09453 2.53863 0
M  V30 13100 N 1212.21 4.07223 4.13702 0
M  V30 13101 H 1214.98 2.98939 0.213475 0
M  V30 13102 H 1212.54 1.61872 -0.0302898 0
M  V30 13103 H 1214.53 2.97411 2.74461 0
M  V30 13104 H 1213.1 1.9571 2.43754 0
M  V30 13105 H 1212.32 3.85351 0.830575 0
M  V30 13106 H 1213.61 4.85426 1.52445 0
M  V30 13107 H 1213.01 3.53286 4.4182 0
M  V30 13108 H 1211.57 4.36366 4.84178 0
M  V30 13109 N 1215 -0.0618163 1.57479 0
M  V30 13110 C 1215.93 -1.07252 2.07411 0
M  V30 13111 C 1216.91 -1.39756 0.969649 0
M  V30 13112 O 1218.09 -1.4921 1.24298 0
M  V30 13113 C 1215.22 -2.38313 2.52635 0
M  V30 13114 C 1214.18 -2.20136 3.67048 0
M  V30 13115 C 1213.5 -3.56668 3.98361 0
M  V30 13116 C 1214.8 -1.61437 4.96725 0
M  V30 13117 H 1216.5 -0.656983 2.92103 0
M  V30 13118 H 1214.04 -0.314579 1.40522 0
M  V30 13119 H 1216 -3.09319 2.86181 0
M  V30 13120 H 1214.72 -2.81865 1.64984 0
M  V30 13121 H 1213.38 -1.51569 3.338 0
M  V30 13122 H 1213.03 -3.97809 3.07826 0
M  V30 13123 H 1212.73 -3.45342 4.75408 0
M  V30 13124 H 1214.25 -4.2909 4.34413 0
M  V30 13125 H 1215.67 -2.2232 5.28438 0
M  V30 13126 H 1214.06 -1.60779 5.78161 0
M  V30 13127 H 1215.13 -0.576795 4.81457 0
M  V30 13128 N 1216.48 -1.54033 -0.333429 0
M  V30 13129 C 1217.72 -1.71426 -1.0704 0
M  V30 13130 C 1218.05 -0.485496 -1.8886 0
M  V30 13131 O 1217.32 0.500555 -1.89397 0
M  V30 13132 H 1215.9 -0.632034 -0.398173 0
M  V30 13133 H 1218.56 -1.91312 -0.372252 0
M  V30 13134 H 1217.65 -2.58958 -1.74205 0
M  V30 13135 N 1217.95 0.594978 -1.45938 0
M  V30 13136 C 1218.9 1.69949 -1.51991 0
M  V30 13137 C 1219.89 1.56301 -0.381956 0
M  V30 13138 O 1221.08 1.65423 -0.62961 0
M  V30 13139 C 1218.21 3.08723 -1.5015 0
M  V30 13140 C 1217.3 3.27712 -2.69194 0
M  V30 13141 N 1217.69 3.1691 -3.9421 0
M  V30 13142 C 1215.98 3.58618 -2.65158 0
M  V30 13143 C 1216.69 3.37572 -4.7373 0
M  V30 13144 N 1215.66 3.62154 -4.05395 0
M  V30 13145 H 1219.46 1.60109 -2.46459 0
M  V30 13146 H 1216.98 0.798634 -1.41406 0
M  V30 13147 H 1218.97 3.87978 -1.52573 0
M  V30 13148 H 1217.63 3.19702 -0.567488 0
M  V30 13149 H 1218.65 2.95039 -4.25643 0
M  V30 13150 H 1215.32 3.76358 -1.80724 0
M  V30 13151 H 1216.71 3.34507 -5.82713 0
M  V30 13152 N 1219.43 1.33438 0.838571 0
M  V30 13153 C 1220.68 1.24259 1.58879 0
M  V30 13154 C 1220.99 -0.189957 1.94675 0
M  V30 13155 O 1222.2 -0.40376 2.68481 0
M  V30 13156 C 1220.66 2.1773 2.86569 0
M  V30 13157 C 1220.26 3.66156 2.58135 0
M  V30 13158 C 1222.01 2.17424 3.64591 0
M  V30 13159 C 1219.92 4.5154 3.81923 0
M  V30 13160 H 1218.85 0.461534 0.59624 0
M  V30 13161 H 1221.5 1.58504 0.924588 0
M  V30 13162 H 1219.88 1.76418 3.54532 0
M  V30 13163 H 1221.05 4.1591 1.98382 0
M  V30 13164 H 1219.37 3.68754 1.93416 0
M  V30 13165 H 1221.96 2.78446 4.56478 0
M  V30 13166 H 1222.31 1.16939 3.99539 0
M  V30 13167 H 1222.84 2.571 3.03553 0
M  V30 13168 H 1219.58 5.52902 3.52107 0
M  V30 13169 H 1219.1 4.06529 4.41015 0
M  V30 13170 H 1220.78 4.65359 4.495 0
M  V30 13171 N 1220.91 -1.05686 1.16912 0
M  V30 13172 C 1221.82 -2.16824 0.8958 0
M  V30 13173 C 1222.84 -1.73482 -0.134215 0
M  V30 13174 O 1224.01 -2.01352 0.0438776 0
M  V30 13175 C 1221.08 -3.44298 0.407427 0
M  V30 13176 C 1220.14 -4.02114 1.50342 0
M  V30 13177 C 1219.37 -5.23503 1.03826 0
M  V30 13178 O 1219.59 -5.70295 -0.109579 0
M  V30 13179 O 1218.53 -5.73432 1.8292 0
M  V30 13180 H 1222.35 -2.42725 1.82533 0
M  V30 13181 H 1219.94 -1.15339 0.949589 0
M  V30 13182 H 1221.82 -4.21159 0.142356 0
M  V30 13183 H 1220.5 -3.19908 -0.494009 0
M  V30 13184 H 1219.4 -3.26715 1.82231 0
M  V30 13185 H 1220.74 -4.30811 2.38039 0
M  V30 13186 N 1222.39 -0.968567 -1.24324 0
M  V30 13187 C 1223.35 -0.504307 -2.23583 0
M  V30 13188 C 1224.35 0.399626 -1.55755 0
M  V30 13189 O 1225.54 0.194966 -1.73106 0
M  V30 13190 C 1222.67 0.26956 -3.39833 0
M  V30 13191 H 1223.87 -1.3818 -2.6617 0
M  V30 13192 H 1221.42 -0.753241 -1.36952 0
M  V30 13193 H 1222.15 1.16411 -3.02686 0
M  V30 13194 H 1221.94 -0.379133 -3.90263 0
M  V30 13195 H 1223.43 0.583376 -4.13505 0
M  V30 13196 N 1223.87 1.39211 -0.738786 0
M  V30 13197 C 1225.11 2.01209 -0.297722 0
M  V30 13198 C 1225.47 1.57579 1.10393 0
M  V30 13199 O 1224.76 0.796454 1.74262 0
M  V30 13200 C 1224.95 3.55758 -0.342224 0
M  V30 13201 C 1224.78 4.14393 -1.74666 0
M  V30 13202 C 1223.55 4.46814 -2.35978 0
M  V30 13203 C 1225.75 4.37672 -2.70089 0
M  V30 13204 N 1223.73 4.90973 -3.68536 0
M  V30 13205 C 1225.1 4.84077 -3.87388 0
M  V30 13206 C 1227.16 4.19746 -2.67802 0
M  V30 13207 C 1225.86 5.14436 -5.02741 0
M  V30 13208 C 1227.89 4.51221 -3.82301 0
M  V30 13209 C 1227.25 4.97836 -4.98336 0
M  V30 13210 H 1223.35 0.766427 -0.155283 0
M  V30 13211 H 1225.93 1.69071 -0.965568 0
M  V30 13212 H 1224.1 3.87276 0.295285 0
M  V30 13213 H 1225.84 4.04529 0.117748 0
M  V30 13214 H 1222.59 4.34744 -1.87869 0
M  V30 13215 H 1223.02 5.17405 -4.36602 0
M  V30 13216 H 1227.66 3.82906 -1.79284 0
M  V30 13217 H 1225.38 5.50179 -5.91886 0
M  V30 13218 H 1228.96 4.3897 -3.81834 0
M  V30 13219 H 1227.84 5.21728 -5.85465 0
M  V30 13220 N 1225.34 0.486708 1.49896 0
M  V30 13221 C 1226.31 -0.288126 2.27382 0
M  V30 13222 C 1227.31 -0.906675 1.32801 0
M  V30 13223 O 1228.5 -0.773425 1.56089 0
M  V30 13224 C 1225.63 -1.41194 3.10285 0
M  V30 13225 H 1226.82 0.391618 2.97332 0
M  V30 13226 H 1224.38 0.24123 1.54427 0
M  V30 13227 H 1225.11 -2.12627 2.44868 0
M  V30 13228 H 1224.9 -0.974033 3.79809 0
M  V30 13229 H 1226.39 -1.95812 3.68846 0
M  V30 13230 N 1226.82 -1.56058 0.219941 0
M  V30 13231 C 1227.73 -2.23844 -0.70222 0
M  V30 13232 C 1228.75 -1.24554 -1.215 0
M  V30 13233 O 1229.93 -1.57362 -1.25695 0
M  V30 13234 C 1226.99 -2.90384 -1.89416 0
M  V30 13235 C 1226.05 -4.05012 -1.42351 0
M  V30 13236 C 1225.28 -4.68369 -2.55863 0
M  V30 13237 O 1225.51 -4.3071 -3.73958 0
M  V30 13238 O 1224.44 -5.5739 -2.27157 0
M  V30 13239 H 1228.27 -3.03305 -0.15478 0
M  V30 13240 H 1225.85 -1.49396 -0.010438 0
M  V30 13241 H 1227.73 -3.32389 -2.59028 0
M  V30 13242 H 1226.41 -2.13883 -2.42973 0
M  V30 13243 H 1225.32 -3.67579 -0.695448 0
M  V30 13244 H 1226.65 -4.83251 -0.934332 0
M  V30 13245 N 1228.3 0.053464 -1.57509 0
M  V30 13246 C 1229.25 1.06155 -2.04939 0
M  V30 13247 C 1230.22 1.37382 -0.93357 0
M  V30 13248 O 1231.4 1.48137 -1.2025 0
M  V30 13249 C 1228.54 2.36476 -2.51343 0
M  V30 13250 C 1227.66 2.1162 -3.76618 0
M  V30 13251 C 1226.79 3.35636 -4.11731 0
M  V30 13252 C 1225.83 3.06226 -5.29993 0
M  V30 13253 N 1224.97 4.22623 -5.60655 0
M  V30 13254 H 1229.81 0.650122 -2.90822 0
M  V30 13255 H 1227.34 0.309421 -1.43809 0
M  V30 13256 H 1229.3 3.12588 -2.76306 0
M  V30 13257 H 1227.93 2.75386 -1.68411 0
M  V30 13258 H 1226.98 1.26116 -3.58886 0
M  V30 13259 H 1228.3 1.85909 -4.6286 0
M  V30 13260 H 1227.45 4.20132 -4.37692 0
M  V30 13261 H 1226.19 3.64439 -3.24092 0
M  V30 13262 H 1225.19 2.20128 -5.03809 0
M  V30 13263 H 1226.42 2.78726 -6.19265 0
M  V30 13264 H 1224.37 4.51424 -4.75976 0
M  V30 13265 H 1224.28 4.0025 -6.41355 0
M  V30 13266 H 1225.55 5.08063 -5.91178 0
M  V30 13267 N 1229.78 1.54207 0.325255 0
M  V30 13268 C 1230.71 1.79812 1.42128 0
M  V30 13269 C 1231.72 0.68003 1.47917 0
M  V30 13270 O 1232.91 0.957107 1.50671 0
M  V30 13271 C 1230.01 1.89935 2.80674 0
M  V30 13272 C 1229.19 3.20078 2.98108 0
M  V30 13273 C 1228.25 3.20924 4.17006 0
M  V30 13274 O 1227.27 3.94571 4.10247 0
M  V30 13275 N 1228.47 2.44588 5.26457 0
M  V30 13276 H 1231.24 2.74396 1.20527 0
M  V30 13277 H 1228.8 1.53483 0.515233 0
M  V30 13278 H 1230.79 1.8793 3.58419 0
M  V30 13279 H 1229.36 1.02455 2.95333 0
M  V30 13280 H 1228.58 3.35057 2.07679 0
M  V30 13281 H 1229.87 4.06008 3.06651 0
M  V30 13282 H 1229.27 1.8434 5.34823 0
M  V30 13283 H 1227.82 2.48363 6.02627 0
M  V30 13284 N 1231.26 -0.58723 1.46251 0
M  V30 13285 C 1232.51 -1.34294 1.51028 0
M  V30 13286 C 1232.83 -1.94329 0.161623 0
M  V30 13287 O 1232.1 -1.78309 -0.811342 0
M  V30 13288 H 1230.68 -0.498607 0.556238 0
M  V30 13289 H 1233.34 -0.688074 1.8235 0
M  V30 13290 H 1232.43 -2.15197 2.26045 0
M  V30 13291 N 1232.74 -1.33881 -0.831482 0
M  V30 13292 C 1233.67 -1.27384 -1.95693 0
M  V30 13293 C 1234.65 -0.152943 -1.69411 0
M  V30 13294 O 1235.83 -0.34392 -1.9113 0
M  V30 13295 C 1232.96 -1.01982 -3.31989 0
M  V30 13296 C 1231.92 -2.10445 -3.72689 0
M  V30 13297 C 1231.24 -1.70245 -5.06873 0
M  V30 13298 C 1232.54 -3.52194 -3.8569 0
M  V30 13299 H 1234.24 -2.21549 -2.01386 0
M  V30 13300 H 1231.78 -1.06653 -0.967526 0
M  V30 13301 H 1233.73 -0.960841 -4.103 0
M  V30 13302 H 1232.46 -0.0425709 -3.26572 0
M  V30 13303 H 1231.12 -2.15398 -2.96647 0
M  V30 13304 H 1230.77 -0.712036 -4.97935 0
M  V30 13305 H 1230.47 -2.42834 -5.35075 0
M  V30 13306 H 1231.99 -1.65827 -5.87651 0
M  V30 13307 H 1233.4 -3.49701 -4.54293 0
M  V30 13308 H 1231.8 -4.23331 -4.25336 0
M  V30 13309 H 1232.87 -3.9016 -2.87929 0
M  V30 13310 N 1234.21 1.05064 -1.1747 0
M  V30 13311 C 1235.12 2.16346 -0.907286 0
M  V30 13312 C 1236.14 1.7355 0.125013 0
M  V30 13313 O 1237.32 2.01326 -0.0545551 0
M  V30 13314 C 1234.38 3.44077 -0.425681 0
M  V30 13315 C 1233.44 4.01311 -1.52473 0
M  V30 13316 C 1232.67 5.22946 -1.06601 0
M  V30 13317 O 1232.9 5.70345 0.0793329 0
M  V30 13318 O 1231.83 5.72454 -1.85958 0
M  V30 13319 H 1235.66 2.41754 -1.83817 0
M  V30 13320 H 1233.24 1.14834 -0.955693 0
M  V30 13321 H 1235.12 4.21078 -0.164689 0
M  V30 13322 H 1233.8 3.20166 0.477037 0
M  V30 13323 H 1232.71 3.25744 -1.83961 0
M  V30 13324 H 1234.04 4.29543 -2.4032 0
M  V30 13325 N 1235.69 0.975146 1.23809 0
M  V30 13326 C 1236.62 0.530389 2.27396 0
M  V30 13327 C 1237.6 -0.433763 1.64476 0
M  V30 13328 O 1238.79 -0.32827 1.91405 0
M  V30 13329 C 1235.92 -0.173066 3.46869 0
M  V30 13330 C 1234.87 0.707844 4.22106 0
M  V30 13331 C 1234.2 -0.127527 5.34548 0
M  V30 13332 C 1235.5 1.99609 4.82652 0
M  V30 13333 H 1237.19 1.39622 2.64851 0
M  V30 13334 H 1234.74 0.672802 1.27316 0
M  V30 13335 H 1236.69 -0.495481 4.18477 0
M  V30 13336 H 1235.41 -1.0733 3.0846 0
M  V30 13337 H 1234.07 1.01364 3.52308 0
M  V30 13338 H 1233.72 -1.02814 4.9238 0
M  V30 13339 H 1233.42 0.458728 5.85807 0
M  V30 13340 H 1234.95 -0.444443 6.0898 0
M  V30 13341 H 1236.36 1.73878 5.46296 0
M  V30 13342 H 1234.76 2.52969 5.44175 0
M  V30 13343 H 1235.83 2.68629 4.03691 0
M  V30 13344 N 1237.17 -1.38817 0.746158 0
M  V30 13345 C 1238.13 -2.28876 0.121886 0
M  V30 13346 C 1239.13 -1.46838 -0.655379 0
M  V30 13347 O 1240.32 -1.67377 -0.482744 0
M  V30 13348 C 1237.45 -3.30487 -0.836118 0
M  V30 13349 H 1238.65 -2.85586 0.915453 0
M  V30 13350 H 1236.2 -1.47652 0.512691 0
M  V30 13351 H 1236.94 -2.78853 -1.65563 0
M  V30 13352 H 1236.72 -3.9109 -0.281271 0
M  V30 13353 H 1238.21 -3.97848 -1.26914 0
M  V30 13354 N 1238.65 -0.49465 -1.49636 0
M  V30 13355 C 1239.61 0.276064 -2.27531 0
M  V30 13356 C 1240.61 0.899619 -1.3328 0
M  V30 13357 O 1241.8 0.765136 -1.56497 0
M  V30 13358 C 1238.93 1.39547 -3.1103 0
M  V30 13359 H 1240.13 -0.407381 -2.9712 0
M  V30 13360 H 1237.68 -0.249416 -1.54297 0
M  V30 13361 H 1238.41 2.11326 -2.45992 0
M  V30 13362 H 1238.2 0.953877 -3.8032 0
M  V30 13363 H 1239.69 1.93853 -3.69879 0
M  V30 13364 N 1240.13 1.55939 -0.228214 0
M  V30 13365 C 1241.4 1.90329 0.451033 0
M  V30 13366 C 1241.78 1.14646 1.77255 0
M  V30 13367 O 1241.13 0.257912 2.2704 0
M  V30 13368 C 1241.34 3.43129 0.637456 0
M  V30 13369 C 1242.69 4.14022 0.94186 0
M  V30 13370 O 1243.71 3.48764 0.724002 0
M  V30 13371 O 1242.57 5.29418 1.35568 0
M  V30 13372 H 1239.67 0.791591 0.2394 0
M  V30 13373 H 1242.21 1.67524 -0.270893 0
M  V30 13374 H 1240.98 3.90191 -0.294435 0
M  V30 13375 H 1240.61 3.71735 1.41062 0
M  V30 13376 N 1241.6 -0.0451101 1.57535 0
M  V30 13377 C 1242.84 -0.744146 1.90373 0
M  V30 13378 C 1243.21 -1.7337 0.825039 0
M  V30 13379 O 1244.41 -2.4798 1.03726 0
M  V30 13380 C 1242.68 -1.41028 3.28399 0
M  V30 13381 S 1244.24 -2.14069 3.8304 0
M  V30 13382 H 1241.06 -0.246888 0.666759 0
M  V30 13383 H 1243.66 0.000729019 1.955 0
M  V30 13384 H 1242.36 -0.67663 4.04784 0
M  V30 13385 H 1241.89 -2.19404 3.26536 0
M  V30 13386 H 1243.91 -3.40988 3.60474 0
M  V30 13387 N 1243.08 -1.54377 -0.317073 0
M  V30 13388 C 1244.03 -1.80597 -1.39172 0
M  V30 13389 C 1245.02 -0.662289 -1.46637 0
M  V30 13390 O 1246.21 -0.922477 -1.51061 0
M  V30 13391 C 1243.34 -2.04252 -2.75927 0
M  V30 13392 C 1242.42 -3.2476 -2.72749 0
M  V30 13393 N 1242.81 -4.45671 -2.39189 0
M  V30 13394 C 1241.11 -3.26464 -3.03871 0
M  V30 13395 C 1241.81 -5.27631 -2.44908 0
M  V30 13396 N 1240.79 -4.64968 -2.81613 0
M  V30 13397 H 1244.59 -2.71655 -1.12164 0
M  V30 13398 H 1242.11 -1.5366 -0.525586 0
M  V30 13399 H 1244.1 -2.21178 -3.53392 0
M  V30 13400 H 1242.76 -1.14452 -3.0386 0
M  V30 13401 H 1243.77 -4.72556 -2.11922 0
M  V30 13402 H 1240.45 -2.46718 -3.36803 0
M  V30 13403 H 1241.84 -6.34202 -2.21896 0
M  V30 13404 N 1244.56 0.579466 -1.4656 0
M  V30 13405 C 1245.49 1.69846 -1.60233 0
M  V30 13406 C 1246.47 1.6397 -0.452533 0
M  V30 13407 O 1247.66 1.81936 -0.679174 0
M  V30 13408 C 1244.79 3.08488 -1.59538 0
M  V30 13409 C 1243.74 3.29197 -2.7352 0
M  V30 13410 C 1243.07 4.684 -2.57887 0
M  V30 13411 C 1244.37 3.16718 -4.15315 0
M  V30 13412 H 1246.06 1.5866 -2.53904 0
M  V30 13413 H 1243.61 0.761873 -1.22194 0
M  V30 13414 H 1245.56 3.86595 -1.67696 0
M  V30 13415 H 1244.28 3.20581 -0.62413 0
M  V30 13416 H 1242.94 2.53491 -2.64836 0
M  V30 13417 H 1242.59 4.77262 -1.58839 0
M  V30 13418 H 1242.29 4.83208 -3.34341 0
M  V30 13419 H 1243.81 5.48671 -2.67942 0
M  V30 13420 H 1245.23 3.84666 -4.25094 0
M  V30 13421 H 1243.63 3.43047 -4.92381 0
M  V30 13422 H 1244.7 2.13755 -4.35244 0
M  V30 13423 N 1246.04 1.3432 0.824371 0
M  V30 13424 C 1247.26 1.2982 1.61745 0
M  V30 13425 C 1247.69 -0.125298 1.87682 0
M  V30 13426 O 1247.05 -1.08658 1.45131 0
M  V30 13427 C 1247.09 2.09327 2.93623 0
M  V30 13428 O 1246.2 1.4618 3.85623 0
M  V30 13429 H 1245.54 0.445929 0.491979 0
M  V30 13430 H 1248.07 1.77101 1.02452 0
M  V30 13431 H 1248.08 2.20629 3.43201 0
M  V30 13432 H 1246.75 3.12825 2.74069 0
M  V30 13433 H 1245.33 1.43611 3.44137 0
M  V30 13434 N 1247.52 -1.0444 1.18026 0
M  V30 13435 C 1248.93 -1.29766 0.929143 0
M  V30 13436 C 1249.13 -1.97338 -0.407436 0
M  V30 13437 O 1248.19 -2.25166 -1.14265 0
M  V30 13438 C 1249.5 -2.16002 2.09197 0
M  V30 13439 C 1251.05 -2.29361 2.12985 0
M  V30 13440 C 1251.52 -3.18962 3.28675 0
M  V30 13441 N 1253.02 -3.26549 3.28512 0
M  V30 13442 C 1253.75 -3.96025 4.14671 0
M  V30 13443 N 1253.25 -4.67863 5.10956 0
M  V30 13444 N 1255.04 -3.92266 4.02597 0
M  V30 13445 H 1247.19 -0.58984 2.04046 0
M  V30 13446 H 1249.45 -0.322752 0.891367 0
M  V30 13447 H 1249.16 -1.73653 3.05839 0
M  V30 13448 H 1249.03 -3.16667 2.04943 0
M  V30 13449 H 1251.42 -2.70948 1.16924 0
M  V30 13450 H 1251.5 -1.28299 2.21298 0
M  V30 13451 H 1251.15 -2.78087 4.25006 0
M  V30 13452 H 1251.08 -4.20047 3.17598 0
M  V30 13453 H 1253.57 -2.75371 2.58804 0
M  V30 13454 H 1253.88 -5.1846 5.73079 0
M  V30 13455 H 1252.22 -4.6678 5.14919 0
M  V30 13456 H 1255.42 -3.35273 3.26665 0
M  V30 13457 H 1255.59 -4.4614 4.69961 0
M  V30 13458 N 1248.99 -0.981699 -1.2329 0
M  V30 13459 C 1250.24 -0.646818 -1.91048 0
M  V30 13460 C 1250.56 0.823479 -1.77421 0
M  V30 13461 O 1251.76 1.26948 -2.39993 0
M  V30 13462 C 1250.22 -1.1063 -3.42475 0
M  V30 13463 C 1249.83 -2.60103 -3.6476 0
M  V30 13464 C 1251.57 -0.845227 -4.16 0
M  V30 13465 C 1249.48 -2.99712 -5.0983 0
M  V30 13466 H 1248.41 -0.238221 -0.715379 0
M  V30 13467 H 1251.06 -1.18977 -1.39702 0
M  V30 13468 H 1249.44 -0.491554 -3.92937 0
M  V30 13469 H 1250.61 -3.26828 -3.24839 0
M  V30 13470 H 1248.93 -2.83972 -3.04547 0
M  V30 13471 H 1251.53 -1.11699 -5.22903 0
M  V30 13472 H 1251.87 0.218661 -4.15725 0
M  V30 13473 H 1252.4 -1.42162 -3.7153 0
M  V30 13474 H 1249.14 -4.0523 -5.15237 0
M  V30 13475 H 1248.66 -2.37683 -5.50697 0
M  V30 13476 H 1250.34 -2.9039 -5.78172 0
M  V30 13477 N 1250.47 1.3842 -0.753509 0
M  V30 13478 C 1251.72 2.00415 -0.310091 0
M  V30 13479 C 1252.05 1.59675 1.10532 0
M  V30 13480 O 1251.33 0.834261 1.757 0
M  V30 13481 C 1251.61 3.57488 -0.432897 0
M  V30 13482 C 1251.46 4.08193 -1.88941 0
M  V30 13483 C 1252.78 4.39757 0.173763 0
M  V30 13484 H 1249.9 0.728107 -0.114147 0
M  V30 13485 H 1252.54 1.64363 -0.953138 0
M  V30 13486 H 1250.69 3.88331 0.114563 0
M  V30 13487 H 1252.36 3.87993 -2.49517 0
M  V30 13488 H 1250.61 3.61063 -2.4045 0
M  V30 13489 H 1251.28 5.17291 -1.9265 0
M  V30 13490 H 1253.75 4.15066 -0.293137 0
M  V30 13491 H 1252.63 5.4887 0.057594 0
M  V30 13492 H 1252.89 4.23704 1.26205 0
M  V30 13493 N 1251.95 0.502579 1.49372 0
M  V30 13494 C 1252.88 -0.311743 2.2707 0
M  V30 13495 C 1253.9 -0.929204 1.33677 0
M  V30 13496 O 1255.08 -0.812277 1.58948 0
M  V30 13497 C 1252.18 -1.45404 3.06122 0
M  V30 13498 C 1251.36 -0.943591 4.27101 0
M  V30 13499 C 1250.42 -1.96368 4.88186 0
M  V30 13500 O 1249.44 -1.5316 5.48207 0
M  V30 13501 N 1250.64 -3.29419 4.77978 0
M  V30 13502 H 1253.41 0.354503 2.97596 0
M  V30 13503 H 1250.97 0.335222 1.58392 0
M  V30 13504 H 1252.96 -2.13404 3.43862 0
M  V30 13505 H 1251.53 -2.02441 2.38194 0
M  V30 13506 H 1250.75 -0.0884372 3.94101 0
M  V30 13507 H 1252.04 -0.580983 5.05472 0
M  V30 13508 H 1251.44 -3.67211 4.30317 0
M  V30 13509 H 1250 -3.93129 5.19897 0
M  V30 13510 N 1253.43 -1.55816 0.23648 0
M  V30 13511 C 1254.39 -2.1967 -0.654041 0
M  V30 13512 C 1255.39 -1.1629 -1.11056 0
M  V30 13513 O 1256.58 -1.41435 -1.01695 0
M  V30 13514 C 1253.71 -2.83196 -1.89771 0
M  V30 13515 H 1254.91 -2.99743 -0.0970911 0
M  V30 13516 H 1252.46 -1.56295 -0.013098 0
M  V30 13517 H 1253.19 -2.07033 -2.49616 0
M  V30 13518 H 1252.98 -3.58915 -1.57868 0
M  V30 13519 H 1254.47 -3.32095 -2.53184 0
M  V30 13520 N 1254.91 0.036755 -1.57557 0
M  V30 13521 C 1256.13 0.741086 -1.93172 0
M  V30 13522 C 1256.55 1.69303 -0.835589 0
M  V30 13523 O 1255.91 1.81523 0.1886 0
M  V30 13524 C 1255.96 1.50477 -3.28693 0
M  V30 13525 O 1255.68 0.591046 -4.34095 0
M  V30 13526 C 1257.18 2.30695 -3.78543 0
M  V30 13527 H 1254.4 0.208731 -0.637709 0
M  V30 13528 H 1256.94 -0.00342776 -2.045 0
M  V30 13529 H 1255.1 2.20123 -3.18786 0
M  V30 13530 H 1255.51 1.12579 -5.12276 0
M  V30 13531 H 1256.99 2.79685 -4.759 0
M  V30 13532 H 1257.46 3.11778 -3.0934 0
M  V30 13533 H 1258.07 1.66138 -3.91508 0
M  V30 13534 N 1256.39 1.54543 0.308881 0
M  V30 13535 C 1257.61 1.77431 1.06422 0
M  V30 13536 C 1258.03 0.529972 1.81209 0
M  V30 13537 O 1257.39 -0.499912 1.7552 0
M  V30 13538 C 1257.44 2.9769 2.05092 0
M  V30 13539 O 1257.16 4.17315 1.33341 0
M  V30 13540 C 1258.66 3.32905 2.92727 0
M  V30 13541 H 1255.88 0.591961 0.315948 0
M  V30 13542 H 1258.42 2.01473 0.350547 0
M  V30 13543 H 1256.58 2.7588 2.71973 0
M  V30 13544 H 1256.99 4.85061 1.99539 0
M  V30 13545 H 1258.47 4.20314 3.57827 0
M  V30 13546 H 1258.94 2.50713 3.6061 0
M  V30 13547 H 1259.55 3.56847 2.31388 0
M  V30 13548 N 1257.86 -0.571685 1.46866 0
M  V30 13549 C 1258.79 -1.68994 1.61131 0
M  V30 13550 C 1259.77 -1.63728 0.461222 0
M  V30 13551 O 1260.96 -1.81574 0.688813 0
M  V30 13552 C 1258.09 -3.07638 1.61172 0
M  V30 13553 C 1257.04 -3.27742 2.75262 0
M  V30 13554 C 1256.37 -4.67025 2.60368 0
M  V30 13555 C 1257.67 -3.14511 4.16989 0
M  V30 13556 H 1259.36 -1.57311 2.54742 0
M  V30 13557 H 1256.91 -0.755382 1.22597 0
M  V30 13558 H 1258.86 -3.857 1.69744 0
M  V30 13559 H 1257.59 -3.20245 0.641122 0
M  V30 13560 H 1256.25 -2.52083 2.66176 0
M  V30 13561 H 1255.89 -4.76413 1.61368 0
M  V30 13562 H 1255.59 -4.81428 3.36899 0
M  V30 13563 H 1257.12 -5.47242 2.70848 0
M  V30 13564 H 1258.53 -3.82407 4.27128 0
M  V30 13565 H 1256.93 -3.40431 4.94193 0
M  V30 13566 H 1258 -2.11443 4.36371 0
M  V30 13567 N 1259.34 -1.34755 -0.817236 0
M  V30 13568 C 1260.27 -1.29452 -1.94331 0
M  V30 13569 C 1261.25 -0.170902 -1.69239 0
M  V30 13570 O 1262.44 -0.364173 -1.90755 0
M  V30 13571 C 1259.57 -1.05497 -3.30889 0
M  V30 13572 C 1258.52 -2.14386 -3.70436 0
M  V30 13573 C 1257.85 -1.75612 -5.05039 0
M  V30 13574 C 1259.15 -3.56265 -3.81933 0
M  V30 13575 H 1260.84 -2.23672 -1.99025 0
M  V30 13576 H 1258.39 -1.07674 -0.956159 0
M  V30 13577 H 1260.34 -1.0043 -4.09257 0
M  V30 13578 H 1259.06 -0.0772059 -3.26509 0
M  V30 13579 H 1257.72 -2.18532 -2.94345 0
M  V30 13580 H 1257.37 -0.764809 -4.97152 0
M  V30 13581 H 1257.07 -2.48495 -5.3247 0
M  V30 13582 H 1258.6 -1.72051 -5.85859 0
M  V30 13583 H 1260.01 -3.545 -4.50558 0
M  V30 13584 H 1258.41 -4.27818 -4.20822 0
M  V30 13585 H 1259.48 -3.93192 -2.83775 0
M  V30 13586 N 1260.82 1.03812 -1.18578 0
M  V30 13587 C 1262.05 1.80702 -1.00769 0
M  V30 13588 C 1262.46 1.83509 0.443833 0
M  V30 13589 O 1261.82 1.2724 1.30829 0
M  V30 13590 C 1261.87 3.26185 -1.55838 0
M  V30 13591 O 1261.59 3.23612 -2.95308 0
M  V30 13592 C 1263.09 4.1971 -1.42682 0
M  V30 13593 H 1260.31 0.568972 -0.355685 0
M  V30 13594 H 1262.86 1.30817 -1.57185 0
M  V30 13595 H 1261.01 3.73293 -1.03592 0
M  V30 13596 H 1261.43 4.14769 -3.2104 0
M  V30 13597 H 1262.9 5.19716 -1.86008 0
M  V30 13598 H 1263.38 4.37588 -0.375924 0
M  V30 13599 H 1263.98 3.78469 -1.94013 0
M  V30 13600 N 1262.3 0.988223 1.22768 0
M  V30 13601 C 1263.23 0.47962 2.23103 0
M  V30 13602 C 1264.21 -0.457546 1.5603 0
M  V30 13603 O 1265.39 -0.384178 1.84544 0
M  V30 13604 C 1262.52 -0.305248 3.37322 0
M  V30 13605 C 1261.57 0.577215 4.22576 0
M  V30 13606 S 1262.4 2.02974 4.95542 0
M  V30 13607 C 1263.55 1.25423 6.13205 0
M  V30 13608 H 1263.79 1.32985 2.65899 0
M  V30 13609 H 1261.32 0.794824 1.3237 0
M  V30 13610 H 1263.28 -0.752057 4.03552 0
M  V30 13611 H 1261.94 -1.1307 2.93043 0
M  V30 13612 H 1261.13 -0.0264391 5.03993 0
M  V30 13613 H 1260.73 0.960593 3.61453 0
M  V30 13614 H 1263.03 0.519499 6.75505 0
M  V30 13615 H 1263.97 2.04351 6.77972 0
M  V30 13616 H 1264.38 0.769573 5.5923 0
M  V30 13617 N 1263.78 -1.38018 0.760839 0
M  V30 13618 C 1265.05 -1.94054 0.245437 0
M  V30 13619 C 1265.43 -1.6955 -1.25761 0
M  V30 13620 O 1264.78 -1.03812 -2.03557 0
M  V30 13621 C 1264.99 -3.43681 0.606986 0
M  V30 13622 C 1266.34 -4.20748 0.570673 0
M  V30 13623 O 1267.36 -3.51995 0.545715 0
M  V30 13624 O 1266.22 -5.43327 0.588043 0
M  V30 13625 H 1263.32 -0.825264 0.0535607 0
M  V30 13626 H 1265.86 -1.47369 0.841453 0
M  V30 13627 H 1264.63 -3.55054 1.64476 0
M  V30 13628 H 1264.26 -3.97597 -0.0166576 0
M  V30 13629 N 1265.25 -0.510493 -1.49103 0
M  V30 13630 C 1266.2 0.262848 -2.29298 0
M  V30 13631 C 1267.17 0.951714 -1.36131 0
M  V30 13632 O 1268.36 0.956534 -1.65091 0
M  V30 13633 C 1265.5 1.31565 -3.19037 0
M  V30 13634 C 1264.61 0.637598 -4.27269 0
M  V30 13635 C 1263.74 1.67165 -5.04212 0
M  V30 13636 C 1262.78 0.975992 -6.04269 0
M  V30 13637 N 1261.92 1.95468 -6.74342 0
M  V30 13638 H 1266.76 -0.427246 -2.94921 0
M  V30 13639 H 1264.3 -0.222538 -1.45407 0
M  V30 13640 H 1266.25 1.93813 -3.69449 0
M  V30 13641 H 1264.88 1.97438 -2.55379 0
M  V30 13642 H 1263.94 -0.0983863 -3.80273 0
M  V30 13643 H 1265.25 0.0904435 -4.98718 0
M  V30 13644 H 1264.4 2.36893 -5.5854 0
M  V30 13645 H 1263.14 2.25267 -4.32557 0
M  V30 13646 H 1262.15 0.264534 -5.49163 0
M  V30 13647 H 1263.37 0.40134 -6.77913 0
M  V30 13648 H 1261.32 2.52515 -6.05452 0
M  V30 13649 H 1261.23 1.45845 -7.41799 0
M  V30 13650 H 1262.5 2.64455 -7.33269 0
M  V30 13651 N 1266.73 1.55688 -0.24474 0
M  V30 13652 C 1267.96 2.02995 0.38425 0
M  V30 13653 C 1268.37 1.12339 1.52239 0
M  V30 13654 O 1267.71 0.129803 1.83241 0
M  V30 13655 C 1267.77 3.46564 0.955701 0
M  V30 13656 C 1267.44 4.56973 -0.0499176 0
M  V30 13657 C 1268.44 5.1276 -0.858682 0
M  V30 13658 C 1266.12 5.01994 -0.175383 0
M  V30 13659 C 1268.11 6.12059 -1.77939 0
M  V30 13660 C 1265.8 6.01126 -1.0996 0
M  V30 13661 C 1266.8 6.56037 -1.90013 0
M  V30 13662 O 1266.49 7.53235 -2.80877 0
M  V30 13663 H 1266.22 0.669189 0.0957212 0
M  V30 13664 H 1268.77 2.02121 -0.36555 0
M  V30 13665 H 1267 3.44581 1.75502 0
M  V30 13666 H 1268.69 3.77383 1.49454 0
M  V30 13667 H 1269.46 4.78811 -0.772325 0
M  V30 13668 H 1265.34 4.58918 0.437644 0
M  V30 13669 H 1268.88 6.54845 -2.40465 0
M  V30 13670 H 1264.78 6.34494 -1.18689 0
M  V30 13671 H 1265.55 7.70844 -2.75214 0
M  V30 13672 N 1268.21 -0.0283989 1.57574 0
M  V30 13673 C 1269.17 -1.01346 2.05576 0
M  V30 13674 C 1270.17 -1.28999 0.960001 0
M  V30 13675 O 1271.36 -1.23991 1.2236 0
M  V30 13676 C 1268.49 -2.34611 2.47327 0
M  V30 13677 H 1269.69 -0.598809 2.93861 0
M  V30 13678 H 1267.24 -0.27524 1.53857 0
M  V30 13679 H 1267.98 -2.80823 1.622 0
M  V30 13680 H 1267.76 -2.1587 3.27326 0
M  V30 13681 H 1269.25 -3.05332 2.84889 0
M  V30 13682 N 1269.69 -1.54705 -0.300681 0
M  V30 13683 C 1271.1 -1.64998 -0.873654 0
M  V30 13684 C 1271.45 -0.558842 -1.88073 0
M  V30 13685 O 1270.57 0.304474 -2.14247 0
M  V30 13686 C 1271.17 -2.99099 -1.59138 0
M  V30 13687 C 1269.73 -3.11512 -2.11276 0
M  V30 13688 C 1268.88 -2.60681 -0.945551 0
M  V30 13689 H 1271.83 -1.5851 -0.0776752 0
M  V30 13690 H 1271.85 -2.9054 -2.45696 0
M  V30 13691 H 1271.36 -3.78493 -0.858172 0
M  V30 13692 H 1269.46 -2.36838 -2.87643 0
M  V30 13693 H 1269.57 -4.17672 -2.34707 0
M  V30 13694 H 1267.94 -2.17143 -1.33121 0
M  V30 13695 H 1268.72 -3.42553 -0.226291 0
M  V30 13696 N 1271.17 0.563888 -1.47167 0
M  V30 13697 C 1272.44 1.32454 -1.43928 0
M  V30 13698 C 1272.82 2.10683 -0.13267 0
M  V30 13699 O 1272.17 2.1063 0.885845 0
M  V30 13700 C 1272.38 2.2347 -2.68071 0
M  V30 13701 C 1273.73 2.84702 -3.15008 0
M  V30 13702 O 1274.75 2.33775 -2.68752 0
M  V30 13703 O 1273.61 3.77251 -3.95404 0
M  V30 13704 H 1270.71 0.596074 -0.573258 0
M  V30 13705 H 1273.25 0.583345 -1.59359 0
M  V30 13706 H 1272.02 1.6522 -3.54708 0
M  V30 13707 H 1271.65 3.04897 -2.55193 0
M  V30 13708 N 1272.64 1.35187 0.810078 0
M  V30 13709 C 1273.92 1.18832 1.55365 0
M  V30 13710 C 1274.3 -0.233956 2.098 0
M  V30 13711 O 1273.65 -1.23701 1.92121 0
M  V30 13712 C 1273.86 2.25351 2.66492 0
M  V30 13713 C 1275.21 2.60981 3.34924 0
M  V30 13714 O 1276.23 2.24238 2.7676 0
M  V30 13715 O 1275.09 3.24147 4.3999 0
M  V30 13716 H 1272.18 0.461446 0.686292 0
M  V30 13717 H 1274.73 1.46858 0.850341 0
M  V30 13718 H 1273.5 3.20762 2.24115 0
M  V30 13719 H 1273.13 1.98575 3.44462 0
M  V30 13720 N 1274.12 -1.03182 1.19127 0
M  V30 13721 C 1275.37 -1.75934 0.986415 0
M  V30 13722 C 1275.68 -1.89519 -0.48392 0
M  V30 13723 O 1276.89 -2.59213 -0.80752 0
M  V30 13724 C 1275.35 -3.16358 1.71597 0
M  V30 13725 C 1274.95 -3.10836 3.22622 0
M  V30 13726 C 1276.7 -3.93426 1.59425 0
M  V30 13727 C 1274.61 -4.46174 3.88179 0
M  V30 13728 H 1273.54 -0.659516 0.365451 0
M  V30 13729 H 1276.19 -1.15497 1.42593 0
M  V30 13730 H 1274.57 -3.77245 1.20426 0
M  V30 13731 H 1275.74 -2.59348 3.80887 0
M  V30 13732 H 1274.06 -2.47266 3.35035 0
M  V30 13733 H 1276.65 -4.93526 2.05757 0
M  V30 13734 H 1277 -4.12678 0.547926 0
M  V30 13735 H 1277.53 -3.39134 2.07925 0
M  V30 13736 H 1274.27 -4.32126 4.92897 0
M  V30 13737 H 1273.79 -4.97729 3.34702 0
M  V30 13738 H 1275.47 -5.15066 3.91556 0
M  V30 13739 N 1275.6 -0.99472 -1.22242 0
M  V30 13740 C 1277.01 -0.706456 -1.72818 0
M  V30 13741 C 1277.36 0.776566 -1.80177 0
M  V30 13742 O 1276.49 1.60698 -1.44931 0
M  V30 13743 C 1277.08 -1.27571 -3.13865 0
M  V30 13744 C 1275.64 -1.03679 -3.61839 0
M  V30 13745 C 1274.79 -1.3948 -2.39668 0
M  V30 13746 H 1277.74 -1.16687 -1.07564 0
M  V30 13747 H 1277.76 -0.655202 -3.74816 0
M  V30 13748 H 1277.27 -2.35508 -3.08476 0
M  V30 13749 H 1275.37 0.0258679 -3.72591 0
M  V30 13750 H 1275.49 -1.70145 -4.4787 0
M  V30 13751 H 1273.85 -0.813418 -2.41362 0
M  V30 13752 H 1274.63 -2.48425 -2.36939 0
M  V30 13753 N 1277.08 1.37613 -0.768148 0
M  V30 13754 C 1278.03 2.3218 -0.13974 0
M  V30 13755 C 1279.02 1.54754 0.689023 0
M  V30 13756 O 1280.23 1.70177 0.586489 0
M  V30 13757 H 1276.6 0.751536 -0.0264001 0
M  V30 13758 H 1278.57 2.82768 -0.953139 0
M  V30 13759 C 1277.32 3.39997 0.727829 0
M  V30 13760 H 1276.64 3.99676 0.0994851 0
M  V30 13761 H 1278.08 4.08538 1.13456 0
M  V30 13762 C 1276.54 2.79778 1.87686 0
M  V30 13763 O 1277.07 2.70241 2.97208 0
M  V30 13764 N 1275.28 2.37373 1.67637 0
M  V30 13765 H 1274.83 2.4533 0.785552 0
M  V30 13766 H 1274.78 1.97426 2.44684 0
M  V30 13767 N 1278.56 0.518393 1.4883 0
M  V30 13768 C 1279.81 -0.0218436 2.01688 0
M  V30 13769 C 1280.12 -1.36421 1.40174 0
M  V30 13770 O 1281.32 -1.99214 1.84461 0
M  V30 13771 C 1279.78 -0.0893538 3.59789 0
M  V30 13772 C 1279.39 1.24741 4.30283 0
M  V30 13773 C 1281.13 -0.579032 4.20532 0
M  V30 13774 C 1279.04 1.14112 5.80286 0
M  V30 13775 H 1277.97 -0.0119353 0.753906 0
M  V30 13776 H 1280.62 0.660432 1.71203 0
M  V30 13777 H 1279 -0.836458 3.87065 0
M  V30 13778 H 1280.18 2.00917 4.14691 0
M  V30 13779 H 1278.49 1.67191 3.81361 0
M  V30 13780 H 1281.09 -0.676343 5.30405 0
M  V30 13781 H 1281.43 -1.58207 3.85067 0
M  V30 13782 H 1281.96 0.112046 3.97642 0
M  V30 13783 H 1278.7 2.11895 6.20307 0
M  V30 13784 H 1278.22 0.420535 5.98324 0
M  V30 13785 H 1279.9 0.826992 6.41693 0
M  V30 13786 N 1280.03 -1.55556 0.252993 0
M  V30 13787 C 1280.98 -2.23035 -0.660161 0
M  V30 13788 C 1281.98 -1.21994 -1.17532 0
M  V30 13789 O 1283.18 -1.39989 -1.13151 0
M  V30 13790 H 1279.56 -0.715516 -0.23139 0
M  V30 13791 H 1281.53 -2.98323 -0.0679506 0
M  V30 13792 C 1280.28 -2.94817 -1.84332 0
M  V30 13793 H 1279.6 -3.72342 -1.45607 0
M  V30 13794 H 1281.04 -3.45386 -2.45936 0
M  V30 13795 C 1279.5 -1.99033 -2.71822 0
M  V30 13796 O 1280.03 -1.5273 -3.71533 0
M  V30 13797 N 1278.24 -1.66004 -2.38518 0
M  V30 13798 H 1277.78 -2.03853 -1.57485 0
M  V30 13799 H 1277.74 -1.02183 -2.97331 0
M  V30 13800 N 1281.51 0.0200419 -1.57587 0
M  V30 13801 C 1282.74 0.724241 -1.94344 0
M  V30 13802 C 1283.16 1.67612 -0.853688 0
M  V30 13803 O 1282.52 1.80303 0.189873 0
M  V30 13804 C 1282.57 1.44967 -3.30177 0
M  V30 13805 O 1281.67 2.56326 -3.23064 0
M  V30 13806 H 1281.01 0.194142 -0.634984 0
M  V30 13807 H 1283.54 -0.0271756 -2.04582 0
M  V30 13808 H 1283.55 1.81758 -3.65278 0
M  V30 13809 H 1282.23 0.75161 -4.09052 0
M  V30 13810 H 1280.81 2.22011 -2.99609 0
M  V30 13811 N 1282.99 1.54862 0.292472 0
M  V30 13812 C 1284.22 1.7855 1.04534 0
M  V30 13813 C 1284.63 0.549161 1.80637 0
M  V30 13814 O 1283.99 -0.481268 1.7604 0
M  V30 13815 C 1284.04 2.99849 2.01923 0
M  V30 13816 O 1283.76 4.18706 1.28907 0
M  V30 13817 C 1285.26 3.35991 2.8918 0
M  V30 13818 H 1282.48 0.595279 0.309652 0
M  V30 13819 H 1285.03 2.01834 0.329159 0
M  V30 13820 H 1283.18 2.78749 2.69032 0
M  V30 13821 H 1283.6 4.87151 1.94383 0
M  V30 13822 H 1285.07 4.24085 3.53349 0
M  V30 13823 H 1285.55 2.54524 3.57931 0
M  V30 13824 H 1286.15 3.59281 2.27591 0
M  V30 13825 N 1284.47 -0.556076 1.47464 0
M  V30 13826 C 1285.71 -1.32397 1.55726 0
M  V30 13827 C 1286.07 -1.90793 0.214956 0
M  V30 13828 O 1287.27 -2.68246 0.172429 0
M  V30 13829 C 1285.54 -2.40358 2.64505 0
M  V30 13830 S 1287.1 -3.27219 2.92358 0
M  V30 13831 H 1283.92 -0.450713 0.549889 0
M  V30 13832 H 1286.52 -0.636471 1.84849 0
M  V30 13833 H 1285.23 -1.95893 3.6063 0
M  V30 13834 H 1284.76 -3.13847 2.372 0
M  V30 13835 H 1286.77 -4.39854 2.29659 0
M  V30 13836 N 1285.95 -1.35615 -0.802897 0
M  V30 13837 C 1287.19 -1.29094 -1.56016 0
M  V30 13838 C 1287.52 0.133617 -1.9404 0
M  V30 13839 O 1286.78 1.09975 -1.61876 0
M  V30 13840 C 1287.08 -2.14653 -2.8576 0
M  V30 13841 C 1286.74 -3.63395 -2.66936 0
M  V30 13842 C 1285.4 -4.03937 -2.61511 0
M  V30 13843 C 1287.76 -4.57758 -2.49212 0
M  V30 13844 C 1285.08 -5.37006 -2.36309 0
M  V30 13845 C 1287.44 -5.91029 -2.25539 0
M  V30 13846 C 1286.1 -6.30712 -2.18538 0
M  V30 13847 H 1285.37 -0.472387 -0.570904 0
M  V30 13848 H 1288.02 -1.67545 -0.92741 0
M  V30 13849 H 1286.32 -1.69095 -3.53432 0
M  V30 13850 H 1288.02 -2.06941 -3.43477 0
M  V30 13851 H 1284.61 -3.31224 -2.72009 0
M  V30 13852 H 1288.79 -4.27318 -2.52414 0
M  V30 13853 H 1284.05 -5.66748 -2.29361 0
M  V30 13854 H 1288.22 -6.63724 -2.10816 0
M  V30 13855 H 1285.85 -7.33753 -1.98772 0
M  V30 13856 N 1287.43 1.02549 -1.19673 0
M  V30 13857 C 1288.37 2.109 -0.937536 0
M  V30 13858 C 1289.34 1.65599 0.128923 0
M  V30 13859 O 1290.53 1.90795 -0.0139366 0
M  V30 13860 C 1287.67 3.4166 -0.48602 0
M  V30 13861 C 1286.78 4.0049 -1.61963 0
M  V30 13862 C 1285.92 5.19273 -1.11931 0
M  V30 13863 C 1284.95 5.70166 -2.22659 0
M  V30 13864 N 1284.09 6.80221 -1.73909 0
M  V30 13865 H 1288.93 2.32408 -1.86523 0
M  V30 13866 H 1286.47 1.13982 -0.929869 0
M  V30 13867 H 1288.43 4.16693 -0.205614 0
M  V30 13868 H 1287.06 3.20253 0.404678 0
M  V30 13869 H 1286.11 3.22638 -2.01516 0
M  V30 13870 H 1287.42 4.34273 -2.45374 0
M  V30 13871 H 1286.57 6.01478 -0.794336 0
M  V30 13872 H 1285.31 4.87033 -0.254972 0
M  V30 13873 H 1284.32 4.86572 -2.55983 0
M  V30 13874 H 1285.54 6.04444 -3.09554 0
M  V30 13875 H 1283.49 6.49826 -0.897889 0
M  V30 13876 H 1283.41 7.13149 -2.50907 0
M  V30 13877 H 1284.67 7.66011 -1.44386 0
M  V30 13878 N 1288.9 1.00119 1.21713 0
M  V30 13879 C 1289.83 0.578504 2.2622 0
M  V30 13880 C 1290.81 -0.398777 1.6536 0
M  V30 13881 O 1292 -0.287596 1.92059 0
M  V30 13882 C 1289.13 -0.0994508 3.47158 0
M  V30 13883 C 1288.08 0.79722 4.2051 0
M  V30 13884 C 1287.41 -0.0141125 5.34698 0
M  V30 13885 C 1288.71 2.09802 4.7831 0
M  V30 13886 H 1290.4 1.45208 2.6183 0
M  V30 13887 H 1287.95 0.699656 1.2586 0
M  V30 13888 H 1289.9 -0.406605 4.19434 0
M  V30 13889 H 1288.63 -1.00763 3.10667 0
M  V30 13890 H 1287.29 1.08814 3.50079 0
M  V30 13891 H 1286.93 -0.923468 4.9445 0
M  V30 13892 H 1286.63 0.582883 5.84702 0
M  V30 13893 H 1288.16 -0.31517 6.09786 0
M  V30 13894 H 1289.57 1.85427 5.42485 0
M  V30 13895 H 1287.97 2.64455 5.38687 0
M  V30 13896 H 1289.04 2.77132 3.97902 0
M  V30 13897 N 1290.38 -1.37203 0.775435 0
M  V30 13898 C 1291.33 -2.32102 0.152051 0
M  V30 13899 C 1292.32 -1.55117 -0.680806 0
M  V30 13900 O 1293.53 -1.70486 -0.577455 0
M  V30 13901 H 1289.9 -0.751386 0.0303853 0
M  V30 13902 H 1291.88 -2.82259 0.968121 0
M  V30 13903 C 1290.62 -3.40378 -0.709788 0
M  V30 13904 H 1289.95 -3.99723 -0.0782879 0
M  V30 13905 H 1291.39 -4.09134 -1.11288 0
M  V30 13906 C 1289.85 -2.80769 -1.862 0
M  V30 13907 O 1290.38 -2.71813 -2.95771 0
M  V30 13908 N 1288.58 -2.38259 -1.66376 0
M  V30 13909 H 1288.13 -2.45743 -0.772531 0
M  V30 13910 H 1288.09 -1.98721 -2.43634 0
M  V30 13911 N 1291.86 -0.526279 -1.48553 0
M  V30 13912 C 1293.08 0.00731432 -2.07399 0
M  V30 13913 C 1293.51 1.27737 -1.38075 0
M  V30 13914 O 1292.87 1.75741 -0.445503 0
M  V30 13915 C 1292.92 0.218126 -3.5994 0
M  V30 13916 O 1292.02 1.28759 -3.91784 0
M  V30 13917 H 1291.36 -0.0374784 -0.662941 0
M  V30 13918 H 1293.89 -0.733133 -1.91014 0
M  V30 13919 H 1293.9 0.44192 -4.056 0
M  V30 13920 H 1292.58 -0.709668 -4.09801 0
M  V30 13921 H 1291.15 1.04674 -3.57907 0
M  V30 13922 N 1293.34 1.5542 -0.261239 0
M  V30 13923 C 1294.27 2.24949 0.626126 0
M  V30 13924 C 1295.25 1.23474 1.16997 0
M  V30 13925 O 1296.43 1.52161 1.20667 0
M  V30 13926 C 1293.56 2.95996 1.81669 0
M  V30 13927 C 1292.52 4.04282 1.40499 0
M  V30 13928 C 1291.84 4.62831 2.67753 0
M  V30 13929 C 1293.14 5.1923 0.56543 0
M  V30 13930 H 1294.84 2.99364 0.0463164 0
M  V30 13931 H 1292.38 1.43985 0.0208366 0
M  V30 13932 H 1294.34 3.43343 2.44323 0
M  V30 13933 H 1293.06 2.19093 2.42211 0
M  V30 13934 H 1291.72 3.57726 0.801712 0
M  V30 13935 H 1291.37 3.82611 3.26524 0
M  V30 13936 H 1291.07 5.35938 2.40925 0
M  V30 13937 H 1292.59 5.12918 3.31281 0
M  V30 13938 H 1294.01 5.62714 1.09663 0
M  V30 13939 H 1292.4 5.98814 0.392607 0
M  V30 13940 H 1293.47 4.83086 -0.419059 0
M  V30 13941 N 1294.82 -0.0116844 1.57596 0
M  V30 13942 C 1295.75 -1.03477 2.04512 0
M  V30 13943 C 1296.76 -1.31414 0.960945 0
M  V30 13944 O 1297.95 -1.28596 1.23796 0
M  V30 13945 C 1295.05 -2.37234 2.42019 0
M  V30 13946 C 1294.22 -2.28405 3.73028 0
M  V30 13947 C 1293.28 -3.44753 3.97532 0
M  V30 13948 O 1292.31 -3.23465 4.68358 0
M  V30 13949 N 1293.51 -4.67212 3.44518 0
M  V30 13950 H 1296.27 -0.634758 2.92901 0
M  V30 13951 H 1293.84 -0.1993 1.60669 0
M  V30 13952 H 1295.83 -3.13821 2.55535 0
M  V30 13953 H 1294.4 -2.69018 1.5921 0
M  V30 13954 H 1293.62 -1.36804 3.697 0
M  V30 13955 H 1294.91 -2.19666 4.58938 0
M  V30 13956 H 1294.3 -4.87407 2.87142 0
M  V30 13957 H 1292.86 -5.41105 3.63384 0
M  V30 13958 N 1296.29 -1.55015 -0.284256 0
M  V30 13959 C 1297.22 -1.90128 -1.3555 0
M  V30 13960 C 1298.2 -0.761914 -1.52082 0
M  V30 13961 O 1299.39 -1.01909 -1.65312 0
M  V30 13962 C 1296.52 -2.16332 -2.71695 0
M  V30 13963 C 1295.47 -3.32166 -2.69907 0
M  V30 13964 C 1294.8 -3.43824 -4.09498 0
M  V30 13965 C 1296.1 -4.6885 -2.30168 0
M  V30 13966 H 1297.79 -2.79852 -1.06411 0
M  V30 13967 H 1295.34 -1.34649 -0.510451 0
M  V30 13968 H 1297.29 -2.39482 -3.46737 0
M  V30 13969 H 1296.02 -1.23395 -3.02392 0
M  V30 13970 H 1294.68 -3.08965 -1.97322 0
M  V30 13971 H 1294.32 -2.48375 -4.374 0
M  V30 13972 H 1294.02 -4.21698 -4.092 0
M  V30 13973 H 1295.55 -3.69254 -4.86296 0
M  V30 13974 H 1296.96 -4.91619 -2.9493 0
M  V30 13975 H 1295.36 -5.49558 -2.41052 0
M  V30 13976 H 1296.43 -4.68433 -1.25294 0
M  V30 13977 N 1297.77 0.548248 -1.47757 0
M  V30 13978 C 1298.7 1.66999 -1.56984 0
M  V30 13979 C 1299.72 1.56302 -0.455372 0
M  V30 13980 O 1300.91 1.63096 -0.725399 0
M  V30 13981 C 1298.01 3.0553 -1.46645 0
M  V30 13982 C 1297.18 3.41892 -2.72816 0
M  V30 13983 C 1296.24 4.59624 -2.56187 0
M  V30 13984 O 1295.26 4.63757 -3.30028 0
M  V30 13985 N 1296.47 5.56675 -1.64601 0
M  V30 13986 H 1299.23 1.59527 -2.53715 0
M  V30 13987 H 1296.79 0.735101 -1.44249 0
M  V30 13988 H 1298.78 3.82137 -1.33242 0
M  V30 13989 H 1297.35 3.0718 -0.57961 0
M  V30 13990 H 1296.57 2.54644 -3.00916 0
M  V30 13991 H 1297.86 3.62965 -3.56559 0
M  V30 13992 H 1297.26 5.561 -1.03778 0
M  V30 13993 H 1295.82 6.32573 -1.57146 0
M  V30 13994 N 1299.25 1.36039 0.795694 0
M  V30 13995 C 1300.21 1.29709 1.88966 0
M  V30 13996 C 1301.21 0.206142 1.59473 0
M  V30 13997 O 1302.4 0.460534 1.68002 0
M  V30 13998 C 1299.53 1.00922 3.25619 0
M  V30 13999 H 1300.73 2.26993 1.95995 0
M  V30 14000 H 1298.28 1.2072 0.992791 0
M  V30 14001 H 1299.02 0.0407027 3.24274 0
M  V30 14002 H 1298.8 1.79863 3.48413 0
M  V30 14003 H 1300.29 0.990826 4.05675 0
M  V30 14004 N 1300.73 -1.01913 1.20215 0
M  V30 14005 C 1301.66 -2.12282 0.97256 0
M  V30 14006 C 1302.64 -1.6982 -0.0975709 0
M  V30 14007 O 1303.82 -1.94109 0.0594307 0
M  V30 14008 C 1300.95 -3.43369 0.521085 0
M  V30 14009 C 1299.91 -3.99559 1.53417 0
M  V30 14010 C 1299.23 -5.26383 0.93942 0
M  V30 14011 C 1300.53 -4.33241 2.91718 0
M  V30 14012 H 1302.23 -2.31746 1.89563 0
M  V30 14013 H 1299.77 -1.1137 0.912841 0
M  V30 14014 H 1301.73 -4.19963 0.347713 0
M  V30 14015 H 1300.45 -3.23655 -0.437605 0
M  V30 14016 H 1299.11 -3.25069 1.69486 0
M  V30 14017 H 1298.76 -5.02993 -0.0271236 0
M  V30 14018 H 1298.46 -5.64942 1.616 0
M  V30 14019 H 1299.98 -6.05635 0.777059 0
M  V30 14020 H 1301.4 -5.00734 2.79175 0
M  V30 14021 H 1299.79 -4.82907 3.56259 0
M  V30 14022 H 1300.86 -3.42118 3.43633 0
M  V30 14023 N 1302.21 -1.00763 -1.2118 0
M  V30 14024 C 1303.14 -0.590493 -2.2591 0
M  V30 14025 C 1304.12 0.390002 -1.65569 0
M  V30 14026 O 1305.3 0.277406 -1.92208 0
M  V30 14027 C 1302.43 0.0810388 -3.47205 0
M  V30 14028 C 1301.39 -0.81951 -4.20081 0
M  V30 14029 C 1300.71 -0.014244 -5.34698 0
M  V30 14030 C 1302.01 -2.12336 -4.7719 0
M  V30 14031 H 1303.71 -1.46595 -2.61056 0
M  V30 14032 H 1301.25 -0.706321 -1.25487 0
M  V30 14033 H 1303.21 0.384355 -4.19644 0
M  V30 14034 H 1301.93 0.991145 -3.11197 0
M  V30 14035 H 1300.59 -1.10669 -3.49497 0
M  V30 14036 H 1300.24 0.897233 -4.94933 0
M  V30 14037 H 1299.94 -0.613883 -5.84384 0
M  V30 14038 H 1301.46 0.282827 -6.09945 0
M  V30 14039 H 1302.87 -1.88301 -5.41494 0
M  V30 14040 H 1301.27 -2.67308 -5.37277 0
M  V30 14041 H 1302.34 -2.79238 -3.96427 0
M  V30 14042 N 1303.68 1.3679 -0.7827 0
M  V30 14043 C 1304.62 2.28805 -0.13451 0
M  V30 14044 C 1305.63 1.49159 0.652338 0
M  V30 14045 O 1306.82 1.71682 0.488626 0
M  V30 14046 C 1303.92 3.28508 0.832802 0
M  V30 14047 C 1303.09 4.37291 0.0974435 0
M  V30 14048 C 1302.15 5.16999 0.979715 0
M  V30 14049 O 1301.18 5.67501 0.439439 0
M  V30 14050 N 1302.38 5.32786 2.30477 0
M  V30 14051 H 1305.14 2.85072 -0.924873 0
M  V30 14052 H 1302.7 1.48884 -0.636012 0
M  V30 14053 H 1304.7 3.78718 1.42671 0
M  V30 14054 H 1303.27 2.7293 1.52408 0
M  V30 14055 H 1302.49 3.88335 -0.677483 0
M  V30 14056 H 1303.77 5.07143 -0.410259 0
M  V30 14057 H 1303.17 4.93358 2.76793 0
M  V30 14058 H 1301.73 5.86264 2.84848 0
M  V30 14059 N 1305.16 0.53415 1.48272 0
M  V30 14060 C 1306.11 -0.239672 2.31362 0
M  V30 14061 C 1307.1 -0.931501 1.4149 0
M  V30 14062 O 1308.31 -0.855411 1.58375 0
M  V30 14063 H 1304.69 -0.09616 0.745827 0
M  V30 14064 H 1306.66 0.480638 2.94504 0
M  V30 14065 C 1305.41 -1.27102 3.23636 0
M  V30 14066 H 1304.73 -0.748082 3.92739 0
M  V30 14067 H 1306.17 -1.78379 3.84652 0
M  V30 14068 C 1304.63 -2.30683 2.45534 0
M  V30 14069 O 1305.16 -3.37197 2.18314 0
M  V30 14070 N 1303.36 -2.04006 2.06954 0
M  V30 14071 H 1302.91 -1.17403 2.29291 0
M  V30 14072 H 1302.87 -2.73531 1.5501 0
M  V30 14073 N 1306.64 -1.55279 0.269478 0
M  V30 14074 C 1307.87 -2.03581 -0.351907 0
M  V30 14075 C 1308.28 -1.14747 -1.50432 0
M  V30 14076 O 1307.62 -0.158939 -1.83011 0
M  V30 14077 C 1307.68 -3.48041 -0.900444 0
M  V30 14078 C 1307.35 -4.56835 0.122612 0
M  V30 14079 C 1308.34 -5.11329 0.940149 0
M  V30 14080 C 1306.03 -5.01651 0.255224 0
M  V30 14081 C 1308.02 -6.09151 1.87654 0
M  V30 14082 C 1305.71 -5.993 1.19509 0
M  V30 14083 C 1306.71 -6.52931 2.00426 0
M  V30 14084 O 1306.4 -7.48671 2.92825 0
M  V30 14085 H 1306.13 -0.670627 -0.0850629 0
M  V30 14086 H 1308.68 -2.01514 0.39766 0
M  V30 14087 H 1306.91 -3.47329 -1.69998 0
M  V30 14088 H 1308.6 -3.79713 -1.43431 0
M  V30 14089 H 1309.37 -4.77522 0.848402 0
M  V30 14090 H 1305.25 -4.59556 -0.364579 0
M  V30 14091 H 1308.79 -6.50937 2.50853 0
M  V30 14092 H 1304.69 -6.32526 1.28768 0
M  V30 14093 H 1305.46 -7.66368 2.87442 0
M  V30 14094 N 1308.12 0.00332656 -1.576 0
M  V30 14095 C 1309.07 1.00425 -2.04692 0
M  V30 14096 C 1310.05 1.30514 -0.941011 0
M  V30 14097 O 1311.24 1.29667 -1.2048 0
M  V30 14098 C 1308.37 2.29731 -2.55105 0
M  V30 14099 C 1307.46 2.02621 -3.72566 0
M  V30 14100 N 1307.85 1.45657 -4.84373 0
M  V30 14101 C 1306.15 2.3278 -3.80433 0
M  V30 14102 C 1306.85 1.34942 -5.65832 0
M  V30 14103 N 1305.83 1.83389 -5.11732 0
M  V30 14104 H 1309.63 0.558262 -2.88549 0
M  V30 14105 H 1307.14 0.209094 -1.61048 0
M  V30 14106 H 1309.14 3.02274 -2.87116 0
M  V30 14107 H 1307.8 2.74985 -1.72665 0
M  V30 14108 H 1308.81 1.13582 -5.05291 0
M  V30 14109 H 1305.49 2.80932 -3.08842 0
M  V30 14110 H 1306.88 0.911707 -6.65686 0
M  V30 14111 N 1309.6 1.55164 0.276031 0
M  V30 14112 C 1310.84 1.77377 1.01572 0
M  V30 14113 C 1311.2 0.56142 1.83608 0
M  V30 14114 O 1312.4 0.661745 2.60527 0
M  V30 14115 C 1310.67 3.0412 1.87738 0
M  V30 14116 S 1312.23 3.4744 2.68013 0
M  V30 14117 H 1309.05 0.62326 0.342153 0
M  V30 14118 H 1311.65 1.9339 0.286456 0
M  V30 14119 H 1310.36 3.90453 1.26389 0
M  V30 14120 H 1309.89 2.90764 2.6499 0
M  V30 14121 H 1311.9 3.06474 3.90241 0
M  V30 14122 N 1311.07 -0.540404 1.48045 0
M  V30 14123 C 1312.04 -1.62813 1.61322 0
M  V30 14124 C 1313.04 -1.53243 0.487161 0
M  V30 14125 O 1314.23 -1.571 0.752684 0
M  V30 14126 C 1311.36 -3.02408 1.5736 0
M  V30 14127 H 1312.55 -1.52385 2.583 0
M  V30 14128 H 1310.11 -0.761654 1.36486 0
M  V30 14129 H 1310.84 -3.18353 0.618195 0
M  V30 14130 H 1310.63 -3.10763 2.39099 0
M  V30 14131 H 1312.12 -3.8151 1.69822 0
M  V30 14132 N 1312.55 -1.36459 -0.788468 0
M  V30 14133 C 1313.96 -1.27515 -1.3637 0
M  V30 14134 C 1314.31 0.0846251 -1.96017 0
M  V30 14135 O 1313.44 0.98611 -1.92626 0
M  V30 14136 C 1314.03 -2.30903 -2.4793 0
M  V30 14137 C 1312.59 -2.25645 -3.01266 0
M  V30 14138 C 1311.74 -2.15631 -1.74352 0
M  V30 14139 H 1314.69 -1.47324 -0.590039 0
M  V30 14140 H 1314.71 -1.94601 -3.26972 0
M  V30 14141 H 1314.22 -3.29858 -2.04487 0
M  V30 14142 H 1312.33 -1.3016 -3.49126 0
M  V30 14143 H 1312.44 -3.18373 -3.58016 0
M  V30 14144 H 1310.8 -1.61901 -1.96622 0
M  V30 14145 H 1311.59 -3.16475 -1.33036 0
M  V30 14146 N 1314.03 1.01274 -1.20754 0
M  V30 14147 C 1315.31 1.7213 -0.929008 0
M  V30 14148 C 1315.69 2.03503 0.561217 0
M  V30 14149 O 1315.04 1.70259 1.52395 0
M  V30 14150 C 1315.25 2.98636 -1.80603 0
M  V30 14151 C 1316.59 3.71823 -2.0502 0
M  V30 14152 O 1317.62 3.08601 -1.77888 0
M  V30 14153 O 1316.48 4.8552 -2.50864 0
M  V30 14154 H 1313.57 0.750361 -0.347689 0
M  V30 14155 H 1316.12 1.07086 -1.31646 0
M  V30 14156 H 1314.89 2.71803 -2.81494 0
M  V30 14157 H 1314.51 3.7142 -1.4189 0
M  V30 14158 N 1315.51 1.01404 1.20644 0
M  V30 14159 C 1316.42 0.591693 2.27016 0
M  V30 14160 C 1317.44 -0.36958 1.7003 0
M  V30 14161 O 1318.61 -0.231165 2.00069 0
M  V30 14162 C 1315.68 -0.0659827 3.46637 0
M  V30 14163 C 1314.74 0.940911 4.18862 0
M  V30 14164 C 1313.97 0.314526 5.32772 0
M  V30 14165 O 1314.19 -0.886404 5.63471 0
M  V30 14166 O 1313.13 1.02998 5.93022 0
M  V30 14167 H 1316.95 1.4772 2.65353 0
M  V30 14168 H 1314.54 0.783399 1.27213 0
M  V30 14169 H 1316.42 -0.433412 4.19165 0
M  V30 14170 H 1315.1 -0.925729 3.10181 0
M  V30 14171 H 1314 1.35966 3.48517 0
M  V30 14172 H 1315.34 1.77054 4.59252 0
M  V30 14173 N 1316.99 -1.36373 0.789944 0
M  V30 14174 C 1318.4 -1.81783 0.425677 0
M  V30 14175 C 1318.75 -1.65711 -1.05045 0
M  V30 14176 O 1317.87 -1.17835 -1.81505 0
M  V30 14177 C 1318.47 -3.3003 0.765866 0
M  V30 14178 C 1317.03 -3.73647 0.454421 0
M  V30 14179 C 1316.18 -2.58632 1.00023 0
M  V30 14180 H 1319.13 -1.24587 0.983044 0
M  V30 14181 H 1319.15 -3.80457 0.0571624 0
M  V30 14182 H 1318.66 -3.41696 1.84026 0
M  V30 14183 H 1316.76 -3.67541 -0.611918 0
M  V30 14184 H 1316.87 -4.69066 0.975401 0
M  V30 14185 H 1315.24 -2.51156 0.423434 0
M  V30 14186 H 1316.02 -2.73083 2.0804 0
M  V30 14187 N 1318.47 -0.542005 -1.47987 0
M  V30 14188 C 1319.71 -0.0123116 -2.02496 0
M  V30 14189 C 1320.04 1.33136 -1.41793 0
M  V30 14190 O 1319.3 1.87591 -0.557501 0
M  V30 14191 C 1319.59 0.146208 -3.57101 0
M  V30 14192 C 1319.26 -1.12463 -4.3665 0
M  V30 14193 C 1317.92 -1.47289 -4.58104 0
M  V30 14194 C 1320.27 -1.96746 -4.82639 0
M  V30 14195 C 1317.6 -2.66273 -5.22796 0
M  V30 14196 C 1319.95 -3.14919 -5.48643 0
M  V30 14197 C 1318.62 -3.50077 -5.68333 0
M  V30 14198 H 1317.89 -0.00450514 -0.740986 0
M  V30 14199 H 1320.54 -0.710455 -1.77834 0
M  V30 14200 H 1318.84 0.927209 -3.80671 0
M  V30 14201 H 1320.54 0.571161 -3.96912 0
M  V30 14202 H 1317.13 -0.843429 -4.20219 0
M  V30 14203 H 1321.31 -1.71149 -4.65856 0
M  V30 14204 H 1316.57 -2.937 -5.36237 0
M  V30 14205 H 1320.74 -3.80525 -5.83244 0
M  V30 14206 H 1318.37 -4.42371 -6.18233 0
M  V30 14207 N 1319.94 1.55134 -0.277709 0
M  V30 14208 C 1321.19 1.98831 0.338982 0
M  V30 14209 C 1321.51 1.16958 1.56781 0
M  V30 14210 O 1322.71 1.50811 2.25762 0
M  V30 14211 C 1321.17 3.53899 0.654465 0
M  V30 14212 C 1320.78 4.44553 -0.554703 0
M  V30 14213 C 1322.52 4.06179 1.23364 0
M  V30 14214 C 1320.43 5.91014 -0.213663 0
M  V30 14215 H 1319.36 0.742632 0.130434 0
M  V30 14216 H 1322.01 1.79463 -0.382768 0
M  V30 14217 H 1320.39 3.69078 1.43519 0
M  V30 14218 H 1321.56 4.41143 -1.33151 0
M  V30 14219 H 1319.88 4.02921 -1.0509 0
M  V30 14220 H 1322.48 5.13152 1.50265 0
M  V30 14221 H 1322.82 3.5537 2.16836 0
M  V30 14222 H 1323.35 3.9445 0.515147 0
M  V30 14223 H 1320.09 6.45924 -1.11633 0
M  V30 14224 H 1319.61 5.97486 0.526329 0
M  V30 14225 H 1321.29 6.46712 0.19319 0
M  V30 14226 N 1321.42 0.00503138 1.57599 0
M  V30 14227 C 1322.83 -0.537106 1.78807 0
M  V30 14228 C 1323.18 -1.73666 0.912945 0
M  V30 14229 O 1322.31 -2.16085 0.116775 0
M  V30 14230 C 1322.9 -0.98116 3.24282 0
M  V30 14231 C 1321.46 -1.46857 3.46569 0
M  V30 14232 C 1320.61 -0.422088 2.74069 0
M  V30 14233 H 1323.56 0.231182 1.57007 0
M  V30 14234 H 1323.58 -1.8469 3.32671 0
M  V30 14235 H 1323.09 -0.107907 3.8795 0
M  V30 14236 H 1321.19 -2.36255 2.88122 0
M  V30 14237 H 1321.31 -1.49256 4.55258 0
M  V30 14238 H 1319.67 -0.884853 2.38836 0
M  V30 14239 H 1320.45 0.442285 3.40439 0
M  V30 14240 N 1322.9 -1.55308 -0.267798 0
M  V30 14241 C 1324.13 -1.80191 -1.01681 0
M  V30 14242 C 1324.54 -0.57783 -1.7974 0
M  V30 14243 O 1323.9 0.4532 -1.76783 0
M  V30 14244 C 1323.95 -3.03023 -1.97127 0
M  V30 14245 O 1323.67 -4.20704 -1.22229 0
M  V30 14246 C 1325.17 -3.40549 -2.83798 0
M  V30 14247 H 1322.39 -0.60013 -0.300142 0
M  V30 14248 H 1324.94 -2.02332 -0.297007 0
M  V30 14249 H 1323.09 -2.82993 -2.64563 0
M  V30 14250 H 1323.51 -4.90181 -1.86608 0
M  V30 14251 H 1324.98 -4.29653 -3.46557 0
M  V30 14252 H 1325.46 -2.60186 -3.53836 0
M  V30 14253 H 1326.06 -3.62856 -2.21846 0
M  V30 14254 N 1324.38 0.532545 -1.4833 0
M  V30 14255 C 1325.65 1.29371 -1.46705 0
M  V30 14256 C 1326.03 2.10354 -0.177329 0
M  V30 14257 O 1325.38 2.12462 0.840968 0
M  V30 14258 C 1325.59 2.17733 -2.72751 0
M  V30 14259 C 1326.94 2.77956 -3.20976 0
M  V30 14260 O 1327.96 2.28022 -2.7365 0
M  V30 14261 O 1326.82 3.68779 -4.03317 0
M  V30 14262 H 1323.92 0.58378 -0.585773 0
M  V30 14263 H 1326.46 0.549411 -1.6056 0
M  V30 14264 H 1325.24 1.57659 -3.58133 0
M  V30 14265 H 1324.86 2.99415 -2.61603 0
M  V30 14266 N 1325.86 1.36875 0.78122 0
M  V30 14267 C 1326.79 1.34559 1.9083 0
M  V30 14268 C 1327.77 0.215713 1.68727 0
M  V30 14269 O 1328.95 0.41462 1.89722 0
M  V30 14270 C 1326.08 1.14233 3.27976 0
M  V30 14271 C 1325.04 2.24132 3.64621 0
M  V30 14272 C 1324.36 1.8894 5.00206 0
M  V30 14273 C 1325.66 3.66266 3.72353 0
M  V30 14274 H 1327.36 2.28871 1.93025 0
M  V30 14275 H 1324.9 1.10171 0.927275 0
M  V30 14276 H 1326.85 1.11246 4.06451 0
M  V30 14277 H 1325.58 0.163747 3.26189 0
M  V30 14278 H 1324.24 2.26259 2.88448 0
M  V30 14279 H 1323.89 0.896351 4.94949 0
M  V30 14280 H 1323.59 2.62525 5.25694 0
M  V30 14281 H 1325.11 1.87523 5.81092 0
M  V30 14282 H 1326.52 3.66321 4.41001 0
M  V30 14283 H 1324.92 4.38825 4.09332 0
M  V30 14284 H 1325.99 4.00578 2.7325 0
M  V30 14285 N 1327.33 -1.00632 1.21289 0
M  V30 14286 C 1328.58 -1.73802 1.02351 0
M  V30 14287 C 1328.9 -1.90503 -0.443611 0
M  V30 14288 O 1330.1 -2.60868 -0.752356 0
M  V30 14289 C 1328.56 -3.12647 1.78269 0
M  V30 14290 C 1328.17 -3.03923 3.29142 0
M  V30 14291 C 1329.91 -3.89956 1.67735 0
M  V30 14292 C 1327.82 -4.3784 3.97556 0
M  V30 14293 H 1326.75 -0.651616 0.379358 0
M  V30 14294 H 1329.4 -1.12446 1.45011 0
M  V30 14295 H 1327.78 -3.74605 1.28401 0
M  V30 14296 H 1328.95 -2.51211 3.86303 0
M  V30 14297 H 1327.27 -2.40103 3.40205 0
M  V30 14298 H 1329.87 -4.89051 2.1618 0
M  V30 14299 H 1330.21 -4.11423 0.635338 0
M  V30 14300 H 1330.74 -3.34647 2.15072 0
M  V30 14301 H 1327.48 -4.21573 5.01952 0
M  V30 14302 H 1327 -4.90518 3.45184 0
M  V30 14303 H 1328.68 -5.06644 4.02393 0
M  V30 14304 N 1328.81 -1.02043 -1.20104 0
M  V30 14305 C 1329.72 -0.603724 -2.26699 0
M  V30 14306 C 1330.74 0.360558 -1.70223 0
M  V30 14307 O 1331.91 0.220552 -2.00189 0
M  V30 14308 C 1328.98 0.0475988 -3.46667 0
M  V30 14309 C 1328.04 -0.963111 -4.18357 0
M  V30 14310 C 1327.27 -0.342775 -5.32598 0
M  V30 14311 O 1327.5 0.856509 -5.63933 0
M  V30 14312 O 1326.43 -1.06141 -5.92467 0
M  V30 14313 H 1330.26 -1.49125 -2.64566 0
M  V30 14314 H 1327.84 -0.790134 -1.26796 0
M  V30 14315 H 1329.72 0.411177 -4.19389 0
M  V30 14316 H 1328.4 0.909266 -3.10667 0
M  V30 14317 H 1327.3 -1.37813 -3.47791 0
M  V30 14318 H 1328.64 -1.79487 -4.58307 0
M  V30 14319 N 1330.29 1.35952 -0.797165 0
M  V30 14320 C 1331.24 2.31831 -0.188958 0
M  V30 14321 C 1332.23 1.56181 0.656042 0
M  V30 14322 O 1333.44 1.71383 0.550259 0
M  V30 14323 H 1329.81 0.750807 -0.0423354 0
M  V30 14324 H 1331.78 2.80683 -1.0129 0
M  V30 14325 C 1330.53 3.41464 0.655547 0
M  V30 14326 H 1329.86 3.99797 0.0146854 0
M  V30 14327 H 1331.3 4.10853 1.04765 0
M  V30 14328 C 1329.76 2.83696 1.81709 0
M  V30 14329 O 1330.29 2.76484 2.91409 0
M  V30 14330 N 1328.49 2.40876 1.62564 0
M  V30 14331 H 1328.04 2.46941 0.733337 0
M  V30 14332 H 1328 2.02572 2.40441 0
M  V30 14333 N 1331.77 0.549846 1.47697 0
M  V30 14334 C 1333.01 0.0230845 2.02787 0
M  V30 14335 C 1333.35 -1.32035 1.42409 0
M  V30 14336 O 1332.62 -1.85745 0.576978 0
M  V30 14337 C 1332.91 -0.0778363 3.60016 0
M  V30 14338 C 1332.76 1.29217 4.3084 0
M  V30 14339 C 1334.08 -0.794909 4.32862 0
M  V30 14340 H 1331.2 0.00986307 0.736934 0
M  V30 14341 H 1333.84 0.710714 1.76207 0
M  V30 14342 H 1331.99 -0.663464 3.82793 0
M  V30 14343 H 1333.66 1.92044 4.19424 0
M  V30 14344 H 1331.9 1.86883 3.91481 0
M  V30 14345 H 1332.57 1.17435 5.39364 0
M  V30 14346 H 1335.05 -0.297743 4.15033 0
M  V30 14347 H 1333.93 -0.834466 5.4252 0
M  V30 14348 H 1334.19 -1.84948 4.01555 0
M  V30 14349 N 1333.25 -1.54984 0.285932 0
M  V30 14350 C 1334.49 -2.00126 -0.328223 0
M  V30 14351 C 1334.83 -1.17409 -1.54689 0
M  V30 14352 O 1334.1 -0.246806 -1.92928 0
M  V30 14353 C 1334.38 -3.53236 -0.699733 0
M  V30 14354 C 1334.24 -4.46702 0.527029 0
M  V30 14355 C 1335.56 -4.12572 -1.53206 0
M  V30 14356 H 1332.67 -0.727521 -0.117825 0
M  V30 14357 H 1335.32 -1.85848 0.395032 0
M  V30 14358 H 1333.47 -3.65534 -1.31594 0
M  V30 14359 H 1335.14 -4.46332 1.16557 0
M  V30 14360 H 1333.38 -4.17917 1.1631 0
M  V30 14361 H 1334.05 -5.51549 0.223165 0
M  V30 14362 H 1336.53 -4.03618 -1.01154 0
M  V30 14363 H 1335.4 -5.19891 -1.7608 0
M  V30 14364 H 1335.67 -3.63487 -2.51654 0
M  V30 14365 N 1334.72 -0.0133892 -1.57594 0
M  V30 14366 C 1335.95 0.679255 -1.95432 0
M  V30 14367 C 1336.37 1.66558 -0.889028 0
M  V30 14368 O 1335.72 1.82031 0.130755 0
M  V30 14369 C 1335.78 1.39943 -3.33314 0
M  V30 14370 O 1335.5 0.452643 -4.35755 0
M  V30 14371 C 1337 2.18535 -3.85691 0
M  V30 14372 H 1334.22 0.188337 -0.644026 0
M  V30 14373 H 1336.76 -0.0684861 -2.04385 0
M  V30 14374 H 1334.92 2.0987 -3.25628 0
M  V30 14375 H 1335.33 0.962243 -5.15598 0
M  V30 14376 H 1336.8 2.64403 -4.84557 0
M  V30 14377 H 1337.28 3.01779 -3.19102 0
M  V30 14378 H 1337.89 1.53598 -3.96595 0
M  V30 14379 N 1336.2 1.55448 0.259558 0
M  V30 14380 C 1337.45 1.76948 0.990816 0
M  V30 14381 C 1337.78 0.576401 1.85449 0
M  V30 14382 O 1337.06 -0.425693 1.89784 0
M  V30 14383 C 1337.34 3.08221 1.86204 0
M  V30 14384 C 1337.19 4.37909 1.0274 0
M  V30 14385 C 1338.51 3.35627 2.84679 0
M  V30 14386 H 1335.63 0.64377 0.358788 0
M  V30 14387 H 1338.27 1.88182 0.262211 0
M  V30 14388 H 1336.42 2.98775 2.48326 0
M  V30 14389 H 1338.09 4.5933 0.425855 0
M  V30 14390 H 1336.34 4.32533 0.331308 0
M  V30 14391 H 1337.01 5.26116 1.6705 0
M  V30 14392 H 1339.48 3.44954 2.32693 0
M  V30 14393 H 1338.36 4.28719 3.42769 0
M  V30 14394 H 1338.62 2.55921 3.60496 0
M  V30 14395 N 1337.68 -0.524672 1.4861 0
M  V30 14396 C 1338.64 -1.61092 1.63039 0
M  V30 14397 C 1339.64 -1.52718 0.503387 0
M  V30 14398 O 1340.83 -1.56293 0.769304 0
M  V30 14399 C 1337.97 -3.00722 1.60558 0
M  V30 14400 H 1339.16 -1.49636 2.59902 0
M  V30 14401 H 1336.71 -0.747135 1.37287 0
M  V30 14402 H 1337.45 -3.1768 0.651926 0
M  V30 14403 H 1337.23 -3.0821 2.42382 0
M  V30 14404 H 1338.72 -3.79688 1.73859 0
M  V30 14405 N 1339.16 -1.37287 -0.77395 0
M  V30 14406 C 1340.07 -1.35059 -1.91823 0
M  V30 14407 C 1341.08 -0.250489 -1.72188 0
M  V30 14408 O 1342.26 -0.485501 -1.95461 0
M  V30 14409 C 1339.33 -1.15444 -3.26915 0
M  V30 14410 C 1338.39 -2.35073 -3.5922 0
M  V30 14411 C 1337.62 -2.16384 -4.87867 0
M  V30 14412 O 1337.84 -1.14696 -5.58749 0
M  V30 14413 O 1336.78 -3.0452 -5.19183 0
M  V30 14414 H 1340.6 -2.31432 -1.96654 0
M  V30 14415 H 1338.19 -1.17994 -0.916392 0
M  V30 14416 H 1340.07 -1.06484 -4.07724 0
M  V30 14417 H 1338.74 -0.221435 -3.22942 0
M  V30 14418 H 1337.65 -2.49604 -2.78655 0
M  V30 14419 H 1338.98 -3.26933 -3.67934 0
M  V30 14420 N 1340.64 0.999871 -1.21821 0
M  V30 14421 C 1341.58 2.10985 -0.979183 0
M  V30 14422 C 1342.58 1.69232 0.0753287 0
M  V30 14423 O 1343.78 1.79837 -0.0765083 0
M  V30 14424 H 1340.16 0.689819 -0.299421 0
M  V30 14425 H 1342.13 2.28322 -1.92124 0
M  V30 14426 C 1340.88 3.43062 -0.56602 0
M  V30 14427 H 1340.2 3.75627 -1.36909 0
M  V30 14428 H 1341.64 4.2173 -0.43813 0
M  V30 14429 C 1340.1 3.29036 0.723647 0
M  V30 14430 O 1340.63 3.60214 1.77788 0
M  V30 14431 N 1338.84 2.82237 0.692126 0
M  V30 14432 H 1338.38 2.57064 -0.166082 0
M  V30 14433 H 1338.34 2.73235 1.55532 0
M  V30 14434 N 1342.11 1.02678 1.19562 0
M  V30 14435 C 1343.34 0.741569 1.93154 0
M  V30 14436 C 1343.76 -0.699292 1.75372 0
M  V30 14437 O 1343.11 -1.47533 1.07426 0
M  V30 14438 C 1343.17 1.08064 3.4497 0
M  V30 14439 O 1342.89 2.46492 3.62179 0
M  V30 14440 C 1344.39 0.817935 4.35689 0
M  V30 14441 H 1341.61 0.271506 0.613617 0
M  V30 14442 H 1344.15 1.3707 1.51763 0
M  V30 14443 H 1342.31 0.496723 3.84202 0
M  V30 14444 H 1342.72 2.59053 4.56061 0
M  V30 14445 H 1344.19 1.10517 5.40823 0
M  V30 14446 H 1344.67 -0.247693 4.38501 0
M  V30 14447 H 1345.28 1.38449 4.02134 0
M  V30 14448 N 1343.59 -1.35528 0.804364 0
M  V30 14449 C 1344.56 -2.28153 0.21885 0
M  V30 14450 C 1345.56 -1.49486 -0.592511 0
M  V30 14451 O 1346.75 -1.69274 -0.411319 0
M  V30 14452 C 1343.88 -3.33736 -0.695195 0
M  V30 14453 H 1345.07 -2.81446 1.03576 0
M  V30 14454 H 1342.62 -1.45345 0.574854 0
M  V30 14455 H 1343.36 -2.85625 -1.53587 0
M  V30 14456 H 1343.14 -3.91931 -0.115143 0
M  V30 14457 H 1344.63 -4.02872 -1.09925 0
M  V30 14458 N 1345.07 -0.557671 -1.47404 0
M  V30 14459 C 1346.35 0.031908 -1.95574 0
M  V30 14460 C 1346.73 1.48509 -1.50027 0
M  V30 14461 O 1346.08 2.16209 -0.73932 0
M  V30 14462 C 1346.29 -0.114055 -3.48814 0
M  V30 14463 C 1347.63 0.0310533 -4.24589 0
M  V30 14464 O 1348.66 -0.041626 -3.56176 0
M  V30 14465 O 1347.52 0.187487 -5.46178 0
M  V30 14466 H 1344.61 0.0638747 -0.82453 0
M  V30 14467 H 1347.16 -0.624227 -1.57802 0
M  V30 14468 H 1345.93 -1.12525 -3.74772 0
M  V30 14469 H 1345.55 0.57967 -3.93352 0
M  V30 14470 N 1346.55 1.54831 -0.294147 0
M  V30 14471 C 1347.46 2.26939 0.594621 0
M  V30 14472 C 1348.48 1.30209 1.15419 0
M  V30 14473 O 1349.65 1.6318 1.18044 0
M  V30 14474 C 1346.72 2.9909 1.75345 0
M  V30 14475 C 1345.78 4.11342 1.22865 0
M  V30 14476 C 1345.01 4.80043 2.33225 0
M  V30 14477 O 1345.23 4.48062 3.52983 0
M  V30 14478 O 1344.17 5.67593 2.00304 0
M  V30 14479 H 1347.99 3.03698 0.00989235 0
M  V30 14480 H 1345.58 1.49276 -0.0608528 0
M  V30 14481 H 1347.46 3.44369 2.42875 0
M  V30 14482 H 1346.14 2.25232 2.32492 0
M  V30 14483 H 1345.04 3.70478 0.519279 0
M  V30 14484 H 1346.38 4.87158 0.702703 0
M  V30 14485 N 1348.03 0.0217466 1.57585 0
M  V30 14486 C 1348.96 -0.961069 2.12804 0
M  V30 14487 C 1349.94 -1.3442 1.04237 0
M  V30 14488 O 1351.12 -1.42412 1.32032 0
M  V30 14489 C 1348.25 -2.24586 2.64912 0
M  V30 14490 C 1347.21 -2.0037 3.78201 0
M  V30 14491 C 1346.53 -3.35051 4.16708 0
M  V30 14492 C 1347.83 -1.34879 5.04584 0
M  V30 14493 H 1349.53 -0.501222 2.95175 0
M  V30 14494 H 1347.07 -0.239649 1.41992 0
M  V30 14495 H 1349.03 -2.93715 3.02175 0
M  V30 14496 H 1347.75 -2.72723 1.79693 0
M  V30 14497 H 1346.41 -1.33662 3.41365 0
M  V30 14498 H 1346.06 -3.80932 3.28481 0
M  V30 14499 H 1345.76 -3.19656 4.93045 0
M  V30 14500 H 1347.28 -4.05459 4.56547 0
M  V30 14501 H 1348.7 -1.93997 5.3948 0
M  V30 14502 H 1347.09 -1.29906 5.85871 0
M  V30 14503 H 1348.16 -0.320774 4.83838 0
M  V30 14504 N 1349.51 -1.55583 -0.251311 0
M  V30 14505 C 1350.47 -1.89148 -1.29443 0
M  V30 14506 C 1351.47 -0.7676 -1.41296 0
M  V30 14507 O 1352.66 -1.03563 -1.40073 0
M  V30 14508 C 1349.79 -2.11601 -2.67279 0
M  V30 14509 H 1350.98 -2.82416 -1.00901 0
M  V30 14510 H 1348.54 -1.48407 -0.490398 0
M  V30 14511 H 1349.27 -1.20787 -3.00967 0
M  V30 14512 H 1349.06 -2.93449 -2.60058 0
M  V30 14513 H 1350.55 -2.38768 -3.42607 0
M  V30 14514 N 1350.98 0.516783 -1.48886 0
M  V30 14515 C 1352.4 0.84654 -1.35299 0
M  V30 14516 C 1352.6 1.97998 -0.374035 0
M  V30 14517 O 1351.66 2.51707 0.200003 0
M  V30 14518 C 1352.97 1.20162 -2.75648 0
M  V30 14519 C 1354.52 1.31074 -2.84233 0
M  V30 14520 C 1354.99 1.69919 -4.25313 0
M  V30 14521 N 1356.48 1.76998 -4.28049 0
M  V30 14522 C 1357.22 2.08466 -5.34162 0
M  V30 14523 N 1356.71 2.38268 -6.50538 0
M  V30 14524 N 1358.51 2.09584 -5.21566 0
M  V30 14525 H 1350.66 -0.230871 -2.11142 0
M  V30 14526 H 1352.92 -0.0406678 -0.947127 0
M  V30 14527 H 1352.63 0.442278 -3.48908 0
M  V30 14528 H 1352.5 2.14875 -3.10014 0
M  V30 14529 H 1354.89 2.06083 -2.1122 0
M  V30 14530 H 1354.97 0.344506 -2.5347 0
M  V30 14531 H 1354.61 0.954667 -4.98847 0
M  V30 14532 H 1354.54 2.67616 -4.5353 0
M  V30 14533 H 1357.03 1.56191 -3.44112 0
M  V30 14534 H 1357.35 2.61423 -7.2724 0
M  V30 14535 H 1355.69 2.35758 -6.53791 0
M  V30 14536 H 1358.88 1.85768 -4.2966 0
M  V30 14537 H 1359.06 2.33776 -6.04362 0
M  V30 14538 N 1352.46 1.37696 0.766659 0
M  V30 14539 C 1353.69 1.36564 1.56093 0
M  V30 14540 C 1354.11 -0.0455828 1.88045 0
M  V30 14541 O 1353.47 -1.02405 1.49609 0
M  V30 14542 C 1353.52 2.21592 2.84481 0
M  V30 14543 O 1352.62 1.62404 3.79076 0
M  V30 14544 H 1351.96 0.466394 0.472623 0
M  V30 14545 H 1354.49 1.81287 0.948486 0
M  V30 14546 H 1354.5 2.34987 3.33534 0
M  V30 14547 H 1353.18 3.24167 2.60554 0
M  V30 14548 H 1351.75 1.58078 3.37736 0
M  V30 14549 N 1353.94 -0.993397 1.22349 0
M  V30 14550 C 1355.22 -1.7063 0.956275 0
M  V30 14551 C 1355.6 -2.0437 -0.52877 0
M  V30 14552 O 1354.94 -1.72662 -1.49667 0
M  V30 14553 C 1355.15 -2.95725 1.85331 0
M  V30 14554 C 1356.5 -3.68514 2.10909 0
M  V30 14555 O 1357.53 -3.05732 1.82775 0
M  V30 14556 O 1356.39 -4.81468 2.58556 0
M  V30 14557 H 1353.48 -0.744734 0.359583 0
M  V30 14558 H 1356.03 -1.04979 1.33333 0
M  V30 14559 H 1354.8 -2.6729 2.85782 0
M  V30 14560 H 1354.42 -3.69116 1.47781 0
M  V30 14561 N 1355.42 -1.03311 -1.19015 0
M  V30 14562 C 1356.67 -0.730593 -1.88432 0
M  V30 14563 C 1356.99 0.743392 -1.80274 0
M  V30 14564 O 1356.26 1.5359 -1.21601 0
M  V30 14565 H 1354.84 -0.267253 -0.697556 0
M  V30 14566 H 1357.5 -1.30824 -1.44468 0
M  V30 14567 H 1356.59 -1.02867 -2.9466 0
M  V30 14568 N 1356.9 1.35099 -0.81154 0
M  V30 14569 C 1358.31 1.51701 -0.495883 0
M  V30 14570 C 1358.51 1.7595 0.982035 0
M  V30 14571 O 1357.57 1.8038 1.7669 0
M  V30 14572 C 1358.88 2.68916 -1.34554 0
M  V30 14573 C 1360.43 2.82795 -1.34149 0
M  V30 14574 C 1360.9 4.0304 -2.17538 0
M  V30 14575 N 1362.39 4.10227 -2.151 0
M  V30 14576 C 1363.13 5.02397 -2.76377 0
M  V30 14577 N 1362.63 5.99866 -3.46601 0
M  V30 14578 N 1364.42 4.95181 -2.65992 0
M  V30 14579 H 1356.57 1.17617 -1.76862 0
M  V30 14580 H 1358.83 0.575875 -0.753042 0
M  V30 14581 H 1358.54 2.57591 -2.39458 0
M  V30 14582 H 1358.41 3.63641 -1.00223 0
M  V30 14583 H 1360.8 2.93568 -0.300285 0
M  V30 14584 H 1360.88 1.88912 -1.7247 0
M  V30 14585 H 1360.52 3.93027 -3.21702 0
M  V30 14586 H 1360.45 4.96114 -1.76574 0
M  V30 14587 H 1362.95 3.40454 -1.6401 0
M  V30 14588 H 1363.26 6.66803 -3.90632 0
M  V30 14589 H 1361.6 6.00025 -3.50706 0
M  V30 14590 H 1364.79 4.17991 -2.10715 0
M  V30 14591 H 1364.97 5.6682 -3.14036 0
M  V30 14592 N 1358.37 0.56548 1.47106 0
M  V30 14593 C 1359.28 -0.180488 2.33905 0
M  V30 14594 C 1360.3 -0.90355 1.48701 0
M  V30 14595 O 1361.48 -0.870595 1.81611 0
M  V30 14596 C 1358.54 -1.19212 3.2556 0
M  V30 14597 C 1357.6 -0.475589 4.26658 0
M  V30 14598 C 1356.83 -1.43902 5.13934 0
M  V30 14599 O 1357.06 -2.67443 5.03816 0
M  V30 14600 O 1355.99 -0.958998 5.94211 0
M  V30 14601 H 1359.82 0.531726 2.99009 0
M  V30 14602 H 1357.4 0.32602 1.45799 0
M  V30 14603 H 1359.28 -1.77586 3.82153 0
M  V30 14604 H 1357.96 -1.8861 2.63074 0
M  V30 14605 H 1356.87 0.149561 3.73801 0
M  V30 14606 H 1358.2 0.177103 4.91881 0
M  V30 14607 N 1359.85 -1.54672 0.302354 0
M  V30 14608 C 1361.1 -2.00463 -0.306978 0
M  V30 14609 C 1361.43 -1.19043 -1.53435 0
M  V30 14610 O 1360.71 -0.267255 -1.92655 0
M  V30 14611 C 1360.99 -3.53958 -0.662229 0
M  V30 14612 C 1360.84 -4.46118 0.574378 0
M  V30 14613 C 1362.16 -4.14174 -1.48821 0
M  V30 14614 H 1359.28 -0.728729 -0.110102 0
M  V30 14615 H 1361.92 -1.85419 0.414722 0
M  V30 14616 H 1360.07 -3.66909 -1.2771 0
M  V30 14617 H 1361.74 -4.45071 1.21284 0
M  V30 14618 H 1359.99 -4.1666 1.20736 0
M  V30 14619 H 1360.66 -5.51281 0.281651 0
M  V30 14620 H 1363.13 -4.04668 -0.968674 0
M  V30 14621 H 1362.01 -5.2173 -1.70556 0
M  V30 14622 H 1362.27 -3.66136 -2.47784 0
M  V30 14623 N 1361.33 -0.0301034 -1.57571 0
M  V30 14624 C 1362.26 0.980187 -2.07183 0
M  V30 14625 C 1363.28 1.2882 -0.995449 0
M  V30 14626 O 1364.46 1.25268 -1.27162 0
M  V30 14627 C 1361.56 2.30734 -2.48224 0
M  V30 14628 C 1360.74 2.18434 -3.78953 0
M  V30 14629 C 1359.8 3.34092 -4.06533 0
M  V30 14630 O 1358.82 3.10934 -4.76769 0
M  V30 14631 N 1360.02 4.57914 -3.56784 0
M  V30 14632 H 1362.79 0.556877 -2.94481 0
M  V30 14633 H 1360.35 0.156632 -1.61141 0
M  V30 14634 H 1362.34 3.06936 -2.63766 0
M  V30 14635 H 1360.91 2.64703 -1.66287 0
M  V30 14636 H 1360.13 1.26953 -3.73198 0
M  V30 14637 H 1361.42 2.07421 -4.64601 0
M  V30 14638 H 1360.82 4.79623 -2.99964 0
M  V30 14639 H 1359.38 5.31281 -3.77603 0
M  V30 14640 N 1362.81 1.55714 0.243056 0
M  V30 14641 C 1363.74 1.93655 1.30461 0
M  V30 14642 C 1364.72 0.801968 1.50008 0
M  V30 14643 O 1365.9 1.06256 1.62552 0
M  V30 14644 C 1363.03 2.23459 2.65863 0
M  V30 14645 C 1361.99 3.39205 2.61006 0
M  V30 14646 C 1361.31 3.5456 4.00239 0
M  V30 14647 C 1362.61 4.74787 2.17656 0
M  V30 14648 H 1364.31 2.82575 0.98954 0
M  V30 14649 H 1361.85 1.35955 0.474572 0
M  V30 14650 H 1363.81 2.48591 3.40266 0
M  V30 14651 H 1362.53 1.31369 2.99014 0
M  V30 14652 H 1361.19 3.14088 1.89061 0
M  V30 14653 H 1360.84 2.59884 4.30661 0
M  V30 14654 H 1360.54 4.32399 3.97876 0
M  V30 14655 H 1362.06 3.82017 4.76335 0
M  V30 14656 H 1363.48 4.99266 2.81792 0
M  V30 14657 H 1361.87 5.55756 2.26397 0
M  V30 14658 H 1362.94 4.7159 1.12831 0
M  V30 14659 N 1364.29 -0.50888 1.49158 0
M  V30 14660 C 1365.2 -1.63782 1.67966 0
M  V30 14661 C 1366.21 -1.64667 0.562207 0
M  V30 14662 O 1367.39 -1.83232 0.835935 0
M  V30 14663 C 1364.45 -3.00179 1.73474 0
M  V30 14664 C 1363.51 -3.09983 2.97 0
M  V30 14665 C 1362.75 -4.39875 3.02235 0
M  V30 14666 O 1362.97 -5.28214 2.15282 0
M  V30 14667 O 1361.9 -4.54486 3.94621 0
M  V30 14668 H 1365.73 -1.50846 2.63589 0
M  V30 14669 H 1363.32 -0.684306 1.32807 0
M  V30 14670 H 1365.2 -3.8126 1.79495 0
M  V30 14671 H 1363.87 -3.13394 0.810287 0
M  V30 14672 H 1362.78 -2.28119 2.965 0
M  V30 14673 H 1364.11 -3.01693 3.88899 0
M  V30 14674 N 1365.76 -1.381 -0.759346 0
M  V30 14675 C 1366.67 -1.37086 -1.9038 0
M  V30 14676 C 1367.69 -0.268738 -1.71912 0
M  V30 14677 O 1368.87 -0.506205 -1.94935 0
M  V30 14678 C 1365.93 -1.18905 -3.25672 0
M  V30 14679 C 1364.99 -2.3887 -3.56707 0
M  V30 14680 C 1364.23 -2.21546 -4.85544 0
M  V30 14681 O 1364.45 -1.20616 -5.57501 0
M  V30 14682 O 1363.38 -3.10009 -5.15924 0
M  V30 14683 H 1367.21 -2.33505 -1.94188 0
M  V30 14684 H 1364.79 -1.18959 -0.903826 0
M  V30 14685 H 1366.68 -1.10803 -4.06572 0
M  V30 14686 H 1365.35 -0.255675 -3.22689 0
M  V30 14687 H 1364.26 -2.52546 -2.75992 0
M  V30 14688 H 1365.59 -3.30817 -3.64446 0
M  V30 14689 N 1367.24 0.986894 -1.22875 0
M  V30 14690 C 1368.52 1.70121 -0.965311 0
M  V30 14691 C 1368.9 2.04648 0.517924 0
M  V30 14692 O 1368.25 1.73453 1.48749 0
M  V30 14693 C 1368.46 2.94738 -1.86897 0
M  V30 14694 C 1369.81 3.6739 -2.12861 0
M  V30 14695 O 1370.83 3.04758 -1.84394 0
M  V30 14696 O 1369.69 4.8009 -2.61106 0
M  V30 14697 H 1366.78 0.742817 -0.363527 0
M  V30 14698 H 1369.33 1.0427 -1.33887 0
M  V30 14699 H 1368.1 2.65771 -2.87196 0
M  V30 14700 H 1367.72 3.68327 -1.49736 0
M  V30 14701 N 1368.72 1.0394 1.18466 0
M  V30 14702 C 1370.13 0.77011 1.70077 0
M  V30 14703 C 1370.48 -0.70916 1.82935 0
M  V30 14704 O 1369.61 -1.55209 1.50795 0
M  V30 14705 C 1370.2 1.39132 3.08914 0
M  V30 14706 C 1368.76 1.17037 3.57742 0
M  V30 14707 C 1367.91 1.48279 2.34326 0
M  V30 14708 H 1370.86 1.20598 1.03159 0
M  V30 14709 H 1370.88 0.793861 3.72126 0
M  V30 14710 H 1370.39 2.46795 2.99523 0
M  V30 14711 H 1368.49 0.112435 3.7243 0
M  V30 14712 H 1368.61 1.8665 4.41247 0
M  V30 14713 H 1366.97 0.902438 2.38177 0
M  V30 14714 H 1367.75 2.57047 2.27556 0
M  V30 14715 N 1370.2 -1.34667 0.818693 0
M  V30 14716 C 1371.48 -1.92838 0.327521 0
M  V30 14717 C 1371.86 -1.74732 -1.18457 0
M  V30 14718 O 1371.2 -1.12352 -1.98971 0
M  V30 14719 C 1371.41 -3.40797 0.752207 0
M  V30 14720 C 1372.76 -4.17948 0.748613 0
M  V30 14721 O 1373.79 -3.49364 0.694517 0
M  V30 14722 O 1372.64 -5.40344 0.817958 0
M  V30 14723 H 1369.74 -0.822249 0.0885148 0
M  V30 14724 H 1372.28 -1.43668 0.9032 0
M  V30 14725 H 1371.06 -3.47759 1.79387 0
M  V30 14726 H 1370.68 -3.97309 0.151992 0
M  V30 14727 N 1371.68 -0.573274 -1.46804 0
M  V30 14728 C 1372.61 0.153316 -2.32996 0
M  V30 14729 C 1373.59 0.893013 -1.44773 0
M  V30 14730 O 1374.77 0.870329 -1.73606 0
M  V30 14731 C 1371.9 1.1736 -3.2687 0
M  V30 14732 C 1370.86 0.549347 -4.2446 0
M  V30 14733 C 1370.18 1.67542 -5.07773 0
M  V30 14734 C 1371.48 -0.50736 -5.1983 0
M  V30 14735 H 1373.18 -0.566305 -2.93995 0
M  V30 14736 H 1370.72 -0.273785 -1.41373 0
M  V30 14737 H 1372.68 1.6902 -3.86019 0
M  V30 14738 H 1371.4 1.92337 -2.63958 0
M  V30 14739 H 1370.06 0.0539142 -3.6656 0
M  V30 14740 H 1369.71 2.41463 -4.41253 0
M  V30 14741 H 1369.41 1.26343 -5.73856 0
M  V30 14742 H 1370.93 2.19496 -5.69784 0
M  V30 14743 H 1372.34 -0.0762061 -5.73249 0
M  V30 14744 H 1370.74 -0.839139 -5.94204 0
M  V30 14745 H 1371.81 -1.39723 -4.64333 0
M  V30 14746 N 1373.15 1.5451 -0.310553 0
M  V30 14747 C 1374.09 2.2134 0.595098 0
M  V30 14748 C 1375.1 1.20917 1.09009 0
M  V30 14749 O 1376.29 1.47458 1.0059 0
M  V30 14750 C 1373.39 2.85384 1.82782 0
M  V30 14751 C 1372.56 4.11826 1.47372 0
M  V30 14752 C 1371.62 4.59584 2.56259 0
M  V30 14753 O 1370.65 5.24567 2.20949 0
M  V30 14754 N 1371.85 4.32709 3.86967 0
M  V30 14755 H 1374.61 2.99691 0.0229291 0
M  V30 14756 H 1372.17 1.61351 -0.133173 0
M  V30 14757 H 1374.17 3.14263 2.54992 0
M  V30 14758 H 1372.74 2.10816 2.30815 0
M  V30 14759 H 1371.96 3.89853 0.583826 0
M  V30 14760 H 1373.24 4.94138 1.21265 0
M  V30 14761 H 1372.64 3.80669 4.18458 0
M  V30 14762 H 1371.2 4.66275 4.55446 0
M  V30 14763 N 1374.63 0.0384594 1.57553 0
M  V30 14764 C 1375.56 -0.938444 2.13812 0
M  V30 14765 C 1376.54 -1.33307 1.05657 0
M  V30 14766 O 1377.73 -1.41003 1.33535 0
M  V30 14767 C 1374.86 -2.21764 2.67279 0
M  V30 14768 C 1373.81 -1.96347 3.80305 0
M  V30 14769 C 1373.14 -3.30612 4.20238 0
M  V30 14770 C 1374.44 -1.2952 5.05986 0
M  V30 14771 H 1376.13 -0.469887 2.9569 0
M  V30 14772 H 1373.68 -0.224576 1.42238 0
M  V30 14773 H 1375.63 -2.90493 3.05273 0
M  V30 14774 H 1374.36 -2.70802 1.82576 0
M  V30 14775 H 1373.02 -1.30033 3.42764 0
M  V30 14776 H 1372.66 -3.77427 3.32502 0
M  V30 14777 H 1372.36 -3.14409 4.96408 0
M  V30 14778 H 1373.89 -4.00594 4.60822 0
M  V30 14779 H 1375.3 -1.88264 5.41507 0
M  V30 14780 H 1373.7 -1.23685 5.87216 0
M  V30 14781 H 1374.77 -0.269439 4.84151 0
M  V30 14782 N 1376.11 -1.55841 -0.234795 0
M  V30 14783 C 1377.52 -1.68555 -0.802886 0
M  V30 14784 C 1377.87 -0.638107 -1.85533 0
M  V30 14785 O 1377 0.21333 -2.15346 0
M  V30 14786 C 1377.59 -3.0558 -1.46309 0
M  V30 14787 C 1376.15 -3.20192 -1.97874 0
M  V30 14788 C 1375.3 -2.64457 -0.834136 0
M  V30 14789 H 1378.25 -1.58697 -0.0103759 0
M  V30 14790 H 1378.27 -3.007 -2.33152 0
M  V30 14791 H 1377.78 -3.81792 -0.696868 0
M  V30 14792 H 1375.88 -2.48825 -2.77339 0
M  V30 14793 H 1376 -4.27251 -2.1678 0
M  V30 14794 H 1374.36 -2.22593 -1.23791 0
M  V30 14795 H 1375.14 -3.43205 -0.0807988 0
M  V30 14796 N 1377.59 0.500963 -1.49426 0
M  V30 14797 C 1378.84 1.25509 -1.58915 0
M  V30 14798 C 1379.16 1.92534 -0.275868 0
M  V30 14799 O 1378.42 1.81324 0.736212 0
M  V30 14800 C 1378.72 2.34448 -2.69757 0
M  V30 14801 C 1378.38 1.8488 -4.11254 0
M  V30 14802 C 1377.05 1.71081 -4.49761 0
M  V30 14803 C 1379.4 1.4778 -4.9981 0
M  V30 14804 C 1376.73 1.18561 -5.74596 0
M  V30 14805 C 1379.08 0.967118 -6.25164 0
M  V30 14806 C 1377.74 0.815523 -6.62499 0
M  V30 14807 H 1377.01 0.459268 -0.58151 0
M  V30 14808 H 1379.66 0.555817 -1.83256 0
M  V30 14809 H 1377.96 3.10163 -2.39387 0
M  V30 14810 H 1379.66 2.925 -2.74308 0
M  V30 14811 H 1376.25 1.9658 -3.8086 0
M  V30 14812 H 1380.44 1.57288 -4.70717 0
M  V30 14813 H 1375.69 1.05536 -6.02223 0
M  V30 14814 H 1379.87 0.670857 -6.93161 0
M  V30 14815 H 1377.49 0.406375 -7.59113 0
M  V30 14816 N 1379.07 1.38501 0.752011 0
M  V30 14817 C 1380 1.38577 1.87933 0
M  V30 14818 C 1380.98 0.251454 1.68231 0
M  V30 14819 O 1382.16 0.45477 1.888 0
M  V30 14820 C 1379.29 1.21164 3.25479 0
M  V30 14821 C 1378.25 2.31816 3.59785 0
M  V30 14822 C 1377.57 1.99508 4.96085 0
M  V30 14823 C 1378.87 3.74082 3.645 0
M  V30 14824 H 1380.57 2.32913 1.88127 0
M  V30 14825 H 1378.11 1.12113 0.903698 0
M  V30 14826 H 1380.07 1.19842 4.04 0
M  V30 14827 H 1378.79 0.232899 3.25769 0
M  V30 14828 H 1377.45 2.32327 2.83584 0
M  V30 14829 H 1377.1 1.00114 4.92936 0
M  V30 14830 H 1376.8 2.73617 5.20007 0
M  V30 14831 H 1378.32 1.99807 5.76983 0
M  V30 14832 H 1379.74 3.75593 4.33131 0
M  V30 14833 H 1378.13 4.47409 3.99931 0
M  V30 14834 H 1379.2 4.06284 2.64692 0
M  V30 14835 N 1380.55 -0.980364 1.23396 0
M  V30 14836 C 1381.48 -2.0908 1.0396 0
M  V30 14837 C 1382.46 -1.70044 -0.0434946 0
M  V30 14838 O 1383.64 -1.93822 0.121155 0
M  V30 14839 C 1380.77 -3.41537 0.630061 0
M  V30 14840 C 1379.73 -3.94476 1.66051 0
M  V30 14841 C 1379.05 -5.23128 1.10641 0
M  V30 14842 C 1380.35 -4.23741 3.05354 0
M  V30 14843 H 1382.05 -2.25598 1.9684 0
M  V30 14844 H 1379.59 -1.08409 0.94781 0
M  V30 14845 H 1381.54 -4.18644 0.481145 0
M  V30 14846 H 1380.27 -3.24883 -0.334416 0
M  V30 14847 H 1378.93 -3.19513 1.79742 0
M  V30 14848 H 1378.58 -5.02824 0.132913 0
M  V30 14849 H 1378.28 -5.59515 1.79492 0
M  V30 14850 H 1379.8 -6.02857 0.969344 0
M  V30 14851 H 1381.21 -4.91598 2.94964 0
M  V30 14852 H 1379.61 -4.71329 3.71442 0
M  V30 14853 H 1380.68 -3.31012 3.54343 0
M  V30 14854 N 1382.02 -1.04567 -1.17913 0
M  V30 14855 C 1383.43 -0.779118 -1.69666 0
M  V30 14856 C 1383.79 0.699448 -1.83309 0
M  V30 14857 O 1382.91 1.54407 -1.51616 0
M  V30 14858 C 1383.51 -1.40769 -3.08171 0
M  V30 14859 C 1382.06 -1.18933 -3.57116 0
M  V30 14860 C 1381.21 -1.49519 -2.33536 0
M  V30 14861 H 1384.16 -1.21144 -1.02518 0
M  V30 14862 H 1384.18 -0.813584 -3.717 0
M  V30 14863 H 1383.7 -2.4838 -2.9821 0
M  V30 14864 H 1381.8 -0.132184 -3.72365 0
M  V30 14865 H 1381.91 -1.88987 -4.40251 0
M  V30 14866 H 1380.27 -0.915056 -2.37695 0
M  V30 14867 H 1381.06 -2.5825 -2.26189 0
M  V30 14868 N 1383.5 1.34231 -0.825823 0
M  V30 14869 C 1384.41 2.33245 -0.251803 0
M  V30 14870 C 1385.43 1.62756 0.615334 0
M  V30 14871 O 1386.6 1.94503 0.522547 0
M  V30 14872 C 1383.67 3.41908 0.574456 0
M  V30 14873 C 1382.73 4.2814 -0.315422 0
M  V30 14874 C 1381.96 5.31613 0.471496 0
M  V30 14875 O 1382.19 5.44337 1.70449 0
M  V30 14876 O 1381.12 6.01719 -0.147691 0
M  V30 14877 H 1384.95 2.84174 -1.07139 0
M  V30 14878 H 1382.53 1.37341 -0.588032 0
M  V30 14879 H 1384.41 4.08252 1.04444 0
M  V30 14880 H 1383.09 2.93217 1.37132 0
M  V30 14881 H 1381.99 3.64709 -0.832963 0
M  V30 14882 H 1383.33 4.80279 -1.07672 0
M  V30 14883 N 1384.98 0.581051 1.46498 0
M  V30 14884 C 1386.26 -0.000789846 1.956 0
M  V30 14885 C 1386.64 -1.46104 1.52371 0
M  V30 14886 O 1385.98 -2.15005 0.773623 0
M  V30 14887 C 1386.19 0.169534 3.48588 0
M  V30 14888 C 1387.54 0.036499 4.24584 0
M  V30 14889 O 1388.57 0.0982852 3.56064 0
M  V30 14890 O 1387.43 -0.100571 5.46407 0
M  V30 14891 H 1384.52 -0.050749 0.825441 0
M  V30 14892 H 1387.07 0.649252 1.56789 0
M  V30 14893 H 1385.84 1.18473 3.72934 0
M  V30 14894 H 1385.46 -0.517017 3.94224 0
M  V30 14895 N 1386.46 -1.54343 0.318742 0
M  V30 14896 C 1387.71 -2.00084 -0.284713 0
M  V30 14897 C 1388.03 -1.20855 -1.53033 0
M  V30 14898 O 1387.3 -0.309104 -1.93446 0
M  V30 14899 H 1385.88 -0.739123 -0.108193 0
M  V30 14900 H 1388.54 -1.90002 0.434174 0
M  V30 14901 H 1387.63 -3.07314 -0.544459 0
M  V30 14902 N 1387.94 -0.0468143 -1.5753 0
M  V30 14903 C 1389.17 0.636723 -1.96544 0
M  V30 14904 C 1389.57 1.65169 -0.922814 0
M  V30 14905 O 1388.92 1.83417 0.101892 0
M  V30 14906 C 1388.98 1.38435 -3.31777 0
M  V30 14907 C 1388.64 0.525714 -4.53966 0
M  V30 14908 C 1389.64 -0.206392 -5.1949 0
M  V30 14909 C 1387.32 0.457919 -5.00208 0
M  V30 14910 C 1389.32 -0.994779 -6.29589 0
M  V30 14911 C 1387.01 -0.334159 -6.10186 0
M  V30 14912 C 1388 -1.0592 -6.74737 0
M  V30 14913 O 1387.69 -1.83826 -7.826 0
M  V30 14914 H 1387.42 0.179197 -0.651816 0
M  V30 14915 H 1389.98 -0.108214 -2.05115 0
M  V30 14916 H 1388.21 2.17482 -3.19748 0
M  V30 14917 H 1389.9 1.9577 -3.55568 0
M  V30 14918 H 1390.66 -0.163457 -4.84724 0
M  V30 14919 H 1386.54 1.01185 -4.49758 0
M  V30 14920 H 1390.09 -1.56121 -6.79906 0
M  V30 14921 H 1385.98 -0.378748 -6.44388 0
M  V30 14922 H 1386.75 -1.75991 -7.99356 0
M  V30 14923 N 1389.41 1.55964 0.226527 0
M  V30 14924 C 1390.64 1.83168 0.972846 0
M  V30 14925 C 1391.06 0.626512 1.7736 0
M  V30 14926 O 1390.42 -0.42468 1.76256 0
M  V30 14927 C 1390.47 3.08315 1.87014 0
M  V30 14928 O 1389.57 2.8666 2.96479 0
M  V30 14929 H 1388.92 0.604041 0.275736 0
M  V30 14930 H 1391.45 2.03172 0.241345 0
M  V30 14931 H 1391.46 3.38288 2.28091 0
M  V30 14932 H 1390.13 3.95663 1.28154 0
M  V30 14933 H 1388.71 2.67907 2.59384 0
M  V30 14934 N 1390.89 -0.493031 1.4969 0
M  V30 14935 C 1392.13 -1.25673 1.61201 0
M  V30 14936 C 1392.5 -1.8971 0.295685 0
M  V30 14937 O 1393.7 -2.67274 0.286046 0
M  V30 14938 C 1391.97 -2.28923 2.74462 0
M  V30 14939 S 1393.53 -3.14525 3.05973 0
M  V30 14940 H 1390.35 -0.426985 0.568511 0
M  V30 14941 H 1392.95 -0.557497 1.87383 0
M  V30 14942 H 1391.65 -1.80421 3.68614 0
M  V30 14943 H 1391.18 -3.03504 2.50298 0
M  V30 14944 H 1393.2 -4.29717 2.48108 0
M  V30 14945 N 1392.37 -1.38898 -0.744656 0
M  V30 14946 C 1393.65 -1.2611 -1.49518 0
M  V30 14947 C 1394.03 0.133592 -2.10677 0
M  V30 14948 O 1393.38 1.14394 -1.97804 0
M  V30 14949 C 1393.59 -2.37809 -2.55437 0
M  V30 14950 C 1394.93 -2.76664 -3.22091 0
M  V30 14951 O 1395.96 -2.37187 -2.65746 0
M  V30 14952 O 1394.82 -3.44771 -4.24023 0
M  V30 14953 H 1391.91 -0.493664 -0.663494 0
M  V30 14954 H 1394.46 -1.50748 -0.779304 0
M  V30 14955 H 1393.23 -3.31089 -2.08556 0
M  V30 14956 H 1392.85 -2.14783 -3.34595 0
M  V30 14957 N 1393.85 0.973806 -1.23914 0
M  V30 14958 C 1395.09 1.71852 -1.07678 0
M  V30 14959 C 1395.43 1.90357 0.384425 0
M  V30 14960 O 1394.7 1.46063 1.28436 0
M  V30 14961 C 1394.99 3.1129 -1.81026 0
M  V30 14962 C 1394.84 3.00315 -3.3486 0
M  V30 14963 C 1396.16 4.10835 -1.57805 0
M  V30 14964 H 1393.28 0.623749 -0.392564 0
M  V30 14965 H 1395.92 1.13325 -1.52504 0
M  V30 14966 H 1394.07 3.61255 -1.42922 0
M  V30 14967 H 1395.74 2.57823 -3.82524 0
M  V30 14968 H 1393.98 2.36667 -3.63553 0
M  V30 14969 H 1394.65 3.9907 -3.81376 0
M  V30 14970 H 1397.13 3.69705 -1.90939 0
M  V30 14971 H 1396.01 5.06478 -2.11591 0
M  V30 14972 H 1396.27 4.39091 -0.514894 0
M  V30 14973 N 1395.33 1.05191 1.17357 0
M  V30 14974 C 1396.57 0.763113 1.87895 0
M  V30 14975 C 1396.91 -0.708071 1.80831 0
M  V30 14976 O 1396.18 -1.51777 1.21631 0
M  V30 14977 C 1396.46 1.2442 3.37923 0
M  V30 14978 C 1396.32 2.77832 3.53737 0
M  V30 14979 C 1397.64 0.843209 4.31947 0
M  V30 14980 H 1394.75 0.27869 0.682276 0
M  V30 14981 H 1397.4 1.3059 1.38008 0
M  V30 14982 H 1395.55 0.782438 3.80539 0
M  V30 14983 H 1397.22 3.32131 3.20135 0
M  V30 14984 H 1395.46 3.17108 2.96015 0
M  V30 14985 H 1396.13 3.06555 4.59052 0
M  V30 14986 H 1398.61 1.24073 3.97171 0
M  V30 14987 H 1397.48 1.20743 5.35455 0
M  V30 14988 H 1397.75 -0.252802 4.41377 0
M  V30 14989 N 1396.8 -1.33791 0.83293 0
M  V30 14990 C 1398.22 -1.50893 0.519955 0
M  V30 14991 C 1398.42 -1.7749 -0.953919 0
M  V30 14992 O 1397.48 -1.83168 -1.73798 0
M  V30 14993 C 1398.79 -2.66741 1.38815 0
M  V30 14994 C 1400.34 -2.80625 1.38631 0
M  V30 14995 C 1400.81 -3.99528 2.23922 0
M  V30 14996 N 1402.3 -4.06753 2.21599 0
M  V30 14997 C 1403.04 -4.97937 2.84335 0
M  V30 14998 N 1402.53 -5.94276 3.561 0
M  V30 14999 N 1404.33 -4.90887 2.73837 0
M  V30 15000 H 1396.48 -1.14788 1.7871 0
M  V30 15001 H 1398.74 -0.563822 0.762108 0
M  V30 15002 H 1398.45 -2.53748 2.43525 0
M  V30 15003 H 1398.32 -3.62001 1.05996 0
M  V30 15004 H 1400.71 -2.93053 0.346951 0
M  V30 15005 H 1400.79 -1.86144 1.75454 0
M  V30 15006 H 1400.43 -3.8786 3.27914 0
M  V30 15007 H 1400.36 -4.93242 1.84444 0
M  V30 15008 H 1402.85 -3.37802 1.69406 0
M  V30 15009 H 1403.17 -6.60504 4.01191 0
M  V30 15010 H 1401.51 -5.9437 3.60207 0
M  V30 15011 H 1404.7 -4.14586 2.17338 0
M  V30 15012 H 1404.88 -5.61752 3.23014 0
M  V30 15013 N 1398.28 -0.588812 -1.46187 0
M  V30 15014 C 1399.23 0.153638 -2.32092 0
M  V30 15015 C 1400.22 0.878346 -1.4485 0
M  V30 15016 O 1401.43 0.796042 -1.61441 0
M  V30 15017 H 1397.81 0.0684129 -0.748882 0
M  V30 15018 H 1399.78 -0.58961 -2.92517 0
M  V30 15019 C 1398.53 1.15003 -3.28131 0
M  V30 15020 H 1397.85 0.601804 -3.95245 0
M  V30 15021 H 1399.29 1.6398 -3.91007 0
M  V30 15022 C 1397.75 2.21411 -2.53926 0
M  V30 15023 O 1398.28 3.28862 -2.30679 0
M  V30 15024 N 1396.48 1.96184 -2.14383 0
M  V30 15025 H 1396.03 1.08812 -2.3349 0
M  V30 15026 H 1395.99 2.6759 -1.65055 0
M  V30 15027 N 1399.76 1.54172 -0.326923 0
M  V30 15028 C 1401.01 1.99809 0.275554 0
M  V30 15029 C 1401.32 1.21886 1.52981 0
M  V30 15030 O 1402.53 1.57917 2.20849 0
M  V30 15031 C 1400.98 3.55802 0.541543 0
M  V30 15032 C 1400.59 4.42563 -0.695853 0
M  V30 15033 C 1402.34 4.09898 1.10379 0
M  V30 15034 C 1400.24 5.90035 -0.401581 0
M  V30 15035 H 1399.17 0.746406 0.106742 0
M  V30 15036 H 1401.82 1.78155 -0.439669 0
M  V30 15037 H 1400.21 3.73457 1.31704 0
M  V30 15038 H 1401.38 4.36684 -1.47118 0
M  V30 15039 H 1399.7 3.99373 -1.17855 0
M  V30 15040 H 1402.29 5.17672 1.33863 0
M  V30 15041 H 1402.64 3.62089 2.0542 0
M  V30 15042 H 1403.17 3.9589 0.389395 0
M  V30 15043 H 1399.91 6.42046 -1.32126 0
M  V30 15044 H 1399.43 5.98858 0.335977 0
M  V30 15045 H 1401.11 6.46999 -0.0126539 0
M  V30 15046 N 1401.24 0.0551678 1.57503 0
M  V30 15047 C 1402.65 -0.479948 1.80426 0
M  V30 15048 C 1403 -1.70673 0.967733 0
M  V30 15049 O 1402.13 -2.15604 0.185462 0
M  V30 15050 C 1402.72 -0.877496 3.27239 0
M  V30 15051 C 1401.28 -1.35757 3.51066 0
M  V30 15052 C 1400.43 -0.334681 2.75273 0
M  V30 15053 H 1403.38 0.281016 1.56192 0
M  V30 15054 H 1403.4 -1.74013 3.38378 0
M  V30 15055 H 1402.91 0.015571 3.88097 0
M  V30 15056 H 1401.01 -2.26969 2.95492 0
M  V30 15057 H 1401.12 -1.34697 4.59776 0
M  V30 15058 H 1399.49 -0.808421 2.4153 0
M  V30 15059 H 1400.27 0.550369 3.3886 0
M  V30 15060 N 1402.72 -1.56081 -0.218252 0
M  V30 15061 C 1403.66 -1.93544 -1.2901 0
M  V30 15062 C 1404.66 -0.817886 -1.48348 0
M  V30 15063 O 1405.86 -1.00274 -1.49483 0
M  V30 15064 H 1402.24 -0.61511 -0.432601 0
M  V30 15065 H 1404.21 -2.82975 -0.946966 0
M  V30 15066 C 1402.96 -2.27134 -2.63259 0
M  V30 15067 H 1402.28 -3.12643 -2.49188 0
M  V30 15068 H 1403.72 -2.57228 -3.3706 0
M  V30 15069 C 1402.18 -1.09764 -3.18518 0
M  V30 15070 O 1402.71 -0.360501 -4.00079 0
M  V30 15071 N 1400.92 -0.880589 -2.76937 0
M  V30 15072 H 1400.46 -1.48175 -2.10718 0
M  V30 15073 H 1400.42 -0.0970234 -3.1425 0
M  V30 15074 N 1404.2 0.485086 -1.49949 0
M  V30 15075 C 1405.44 1.23571 -1.5992 0
M  V30 15076 C 1405.76 1.92754 -0.295108 0
M  V30 15077 O 1405.03 1.83474 0.686582 0
M  V30 15078 H 1403.61 0.459104 -0.589264 0
M  V30 15079 H 1406.28 0.560822 -1.86657 0
M  V30 15080 H 1405.37 1.99114 -2.40333 0
M  V30 15081 N 1405.67 1.39291 0.737279 0
M  V30 15082 C 1406.6 1.40562 1.86452 0
M  V30 15083 C 1407.58 0.269283 1.67955 0
M  V30 15084 O 1408.77 0.474769 1.88307 0
M  V30 15085 C 1405.9 1.2461 3.24175 0
M  V30 15086 C 1404.85 2.35619 3.57306 0
M  V30 15087 C 1404.18 2.04758 4.93941 0
M  V30 15088 C 1405.48 3.77927 3.60512 0
M  V30 15089 H 1407.17 2.34896 1.85646 0
M  V30 15090 H 1404.72 1.13065 0.891756 0
M  V30 15091 H 1406.67 1.2412 4.02706 0
M  V30 15092 H 1405.4 0.267438 3.25503 0
M  V30 15093 H 1404.06 2.35322 2.81104 0
M  V30 15094 H 1403.7 1.05336 4.91847 0
M  V30 15095 H 1403.4 2.79117 5.17076 0
M  V30 15096 H 1404.93 2.05915 5.74832 0
M  V30 15097 H 1406.34 3.80166 4.29123 0
M  V30 15098 H 1404.74 4.51626 3.95164 0
M  V30 15099 H 1405.81 4.09068 2.60368 0
M  V30 15100 N 1407.15 -0.967221 1.24429 0
M  V30 15101 C 1408.08 -2.06479 0.994946 0
M  V30 15102 C 1409.1 -1.62761 -0.0357582 0
M  V30 15103 O 1410.29 -1.77361 0.201336 0
M  V30 15104 C 1407.39 -3.35487 0.479736 0
M  V30 15105 C 1406.56 -4.0811 1.57368 0
M  V30 15106 C 1405.62 -5.15392 1.06104 0
M  V30 15107 O 1404.64 -5.41539 1.75283 0
M  V30 15108 N 1405.85 -5.80406 -0.104288 0
M  V30 15109 H 1408.61 -2.28443 1.93995 0
M  V30 15110 H 1406.17 -1.13488 1.15465 0
M  V30 15111 H 1408.16 -4.04517 0.121528 0
M  V30 15112 H 1406.73 -3.1039 -0.371012 0
M  V30 15113 H 1405.95 -3.33351 2.10406 0
M  V30 15114 H 1407.24 -4.53391 2.30897 0
M  V30 15115 H 1406.64 -5.61566 -0.682638 0
M  V30 15116 H 1405.2 -6.50549 -0.403638 0
M  V30 15117 N 1408.63 -1.05812 -1.16797 0
M  V30 15118 C 1409.54 -0.675541 -2.24663 0
M  V30 15119 C 1410.56 0.30622 -1.71284 0
M  V30 15120 O 1411.73 0.156752 -2.00789 0
M  V30 15121 C 1408.8 -0.0627149 -3.46643 0
M  V30 15122 C 1407.86 -1.09572 -4.15081 0
M  V30 15123 C 1407.09 -0.512044 -5.31238 0
M  V30 15124 O 1407.31 0.676665 -5.66372 0
M  V30 15125 O 1406.25 -1.24936 -5.88791 0
M  V30 15126 H 1410.07 -1.57467 -2.59688 0
M  V30 15127 H 1407.66 -0.830073 -1.24218 0
M  V30 15128 H 1409.54 0.277543 -4.20485 0
M  V30 15129 H 1408.22 0.80997 -3.13403 0
M  V30 15130 H 1407.12 -1.48807 -3.4323 0
M  V30 15131 H 1408.46 -1.93977 -4.52365 0
M  V30 15132 N 1410.11 1.33347 -0.840014 0
M  V30 15133 C 1411.35 1.97745 -0.436274 0
M  V30 15134 C 1411.68 1.66538 1.00475 0
M  V30 15135 O 1410.94 0.938137 1.71748 0
M  V30 15136 C 1411.24 3.52239 -0.605173 0
M  V30 15137 C 1410.9 4.03398 -2.01446 0
M  V30 15138 C 1409.56 4.1708 -2.39994 0
M  V30 15139 C 1411.92 4.3071 -2.93494 0
M  V30 15140 C 1409.24 4.55409 -3.69891 0
M  V30 15141 C 1411.6 4.70491 -4.22873 0
M  V30 15142 C 1410.26 4.82379 -4.61375 0
M  V30 15143 H 1409.53 0.723599 -0.159644 0
M  V30 15144 H 1412.18 1.59003 -1.06725 0
M  V30 15145 H 1410.48 3.91648 0.109116 0
M  V30 15146 H 1412.18 4.00069 -0.273056 0
M  V30 15147 H 1408.77 3.93224 -1.70508 0
M  V30 15148 H 1412.95 4.19661 -2.64949 0
M  V30 15149 H 1408.21 4.62806 -3.99525 0
M  V30 15150 H 1412.38 4.9058 -4.94271 0
M  V30 15151 H 1410.01 5.11835 -5.62075 0
M  V30 15152 N 1411.59 0.596556 1.45873 0
M  V30 15153 C 1412.52 -0.116229 2.33211 0
M  V30 15154 C 1413.5 -0.869868 1.46176 0
M  V30 15155 O 1414.68 -0.842599 1.74968 0
M  V30 15156 C 1411.81 -1.12145 3.28696 0
M  V30 15157 C 1410.77 -0.481749 4.2528 0
M  V30 15158 C 1410.09 -1.59443 5.10374 0
M  V30 15159 C 1411.39 0.589996 5.18957 0
M  V30 15160 H 1413.09 0.613005 2.93057 0
M  V30 15161 H 1410.63 0.296242 1.4092 0
M  V30 15162 H 1412.58 -1.62857 3.88659 0
M  V30 15163 H 1411.31 -1.88114 2.66985 0
M  V30 15164 H 1409.97 0.0044092 3.666 0
M  V30 15165 H 1409.62 -2.34413 4.45039 0
M  V30 15166 H 1409.32 -1.17197 5.75794 0
M  V30 15167 H 1410.84 -2.10404 5.73204 0
M  V30 15168 H 1412.25 0.167395 5.73056 0
M  V30 15169 H 1410.65 0.933565 5.92794 0
M  V30 15170 H 1411.72 1.47093 4.62052 0
M  V30 15171 N 1413.06 -1.53996 0.335095 0
M  V30 15172 C 1414.34 -1.92984 -0.318848 0
M  V30 15173 C 1414.72 -1.26585 -1.68936 0
M  V30 15174 O 1414.07 -0.413702 -2.24724 0
M  V30 15175 C 1414.28 -3.46705 -0.399568 0
M  V30 15176 C 1415.63 -4.19527 -0.654411 0
M  V30 15177 O 1416.65 -3.52923 -0.482026 0
M  V30 15178 O 1415.51 -5.37499 -0.987756 0
M  V30 15179 H 1412.6 -0.806202 -0.1843 0
M  V30 15180 H 1415.15 -1.6526 0.385653 0
M  V30 15181 H 1413.92 -3.87235 0.56253 0
M  V30 15182 H 1413.54 -3.8057 -1.15119 0
M  V30 15183 N 1414.54 -0.0635198 -1.57472 0
M  V30 15184 C 1415.95 0.470372 -1.80678 0
M  V30 15185 C 1416.3 1.70158 -0.976771 0
M  V30 15186 O 1415.43 2.15502 -0.196893 0
M  V30 15187 C 1416.02 0.860129 -3.277 0
M  V30 15188 C 1414.58 1.33893 -3.51781 0
M  V30 15189 C 1413.73 0.320078 -2.75447 0
M  V30 15190 H 1416.68 -0.289295 -1.56041 0
M  V30 15191 H 1416.7 1.72216 -3.39296 0
M  V30 15192 H 1416.21 -0.0361525 -3.88083 0
M  V30 15193 H 1414.31 2.25399 -2.96692 0
M  V30 15194 H 1414.43 1.32257 -4.60483 0
M  V30 15195 H 1412.79 0.795601 -2.41955 0
M  V30 15196 H 1413.57 -0.568332 -3.38563 0
M  V30 15197 N 1416.02 1.56195 0.209972 0
M  V30 15198 C 1416.95 1.96378 1.26324 0
M  V30 15199 C 1417.93 0.833606 1.48273 0
M  V30 15200 O 1419.12 1.0968 1.60262 0
M  V30 15201 C 1416.25 2.29048 2.61064 0
M  V30 15202 C 1415.2 3.44665 2.53752 0
M  V30 15203 C 1414.53 3.6297 3.92628 0
M  V30 15204 C 1415.83 4.79297 2.07536 0
M  V30 15205 H 1417.52 2.8461 0.929379 0
M  V30 15206 H 1415.07 1.36931 0.445627 0
M  V30 15207 H 1417.02 2.55752 3.34916 0
M  V30 15208 H 1415.74 1.37682 2.96161 0
M  V30 15209 H 1414.4 3.18028 1.82356 0
M  V30 15210 H 1414.05 2.68961 4.25052 0
M  V30 15211 H 1413.75 4.40741 3.88614 0
M  V30 15212 H 1415.27 3.92035 4.68125 0
M  V30 15213 H 1416.69 5.05131 2.71138 0
M  V30 15214 H 1415.08 5.60433 2.14557 0
M  V30 15215 H 1416.15 4.73877 1.02802 0
M  V30 15216 N 1417.5 -0.477127 1.50204 0
M  V30 15217 C 1418.74 -1.23956 1.62525 0
M  V30 15218 C 1419.1 -1.89385 0.315789 0
M  V30 15219 O 1420.3 -2.66955 0.314378 0
M  V30 15220 C 1418.57 -2.25999 2.76874 0
M  V30 15221 S 1420.13 -3.11262 3.09292 0
M  V30 15222 H 1416.95 -0.420931 0.573008 0
M  V30 15223 H 1419.55 -0.537592 1.87963 0
M  V30 15224 H 1418.26 -1.76501 3.70507 0
M  V30 15225 H 1417.79 -3.00832 2.53503 0
M  V30 15226 H 1419.8 -4.27061 2.52652 0
M  V30 15227 N 1418.98 -1.3968 -0.729882 0
M  V30 15228 C 1419.91 -1.34713 -1.85432 0
M  V30 15229 C 1420.92 -0.254999 -1.60791 0
M  V30 15230 O 1422.11 -0.514324 -1.7093 0
M  V30 15231 C 1419.21 -1.07019 -3.21559 0
M  V30 15232 C 1418.38 -2.27609 -3.73515 0
M  V30 15233 C 1417.44 -1.96292 -4.88217 0
M  V30 15234 O 1416.47 -2.69025 -5.01612 0
M  V30 15235 N 1417.67 -0.932181 -5.72967 0
M  V30 15236 H 1420.44 -2.31616 -1.90195 0
M  V30 15237 H 1418 -1.33849 -0.910834 0
M  V30 15238 H 1419.99 -0.84079 -3.9587 0
M  V30 15239 H 1418.56 -0.188323 -3.12032 0
M  V30 15240 H 1417.78 -2.66468 -2.90497 0
M  V30 15241 H 1419.07 -3.08033 -4.04961 0
M  V30 15242 H 1418.46 -0.329507 -5.6474 0
M  V30 15243 H 1417.02 -0.762684 -6.47322 0
M  V30 15244 N 1420.45 0.960609 -1.2494 0
M  V30 15245 C 1421.87 1.23057 -1.01633 0
M  V30 15246 C 1422.07 1.99676 0.270527 0
M  V30 15247 O 1421.13 2.32503 0.984823 0
M  V30 15248 C 1422.44 2.01078 -2.2358 0
M  V30 15249 C 1423.99 2.14144 -2.28279 0
M  V30 15250 C 1424.46 2.95563 -3.49867 0
M  V30 15251 N 1425.95 3.03143 -3.50227 0
M  V30 15252 C 1426.69 3.66518 -4.40967 0
M  V30 15253 N 1426.18 4.31553 -5.41972 0
M  V30 15254 N 1427.98 3.636 -4.28663 0
M  V30 15255 H 1420.13 0.447876 -2.07624 0
M  V30 15256 H 1422.39 0.260581 -0.911483 0
M  V30 15257 H 1422.1 1.52172 -3.17075 0
M  V30 15258 H 1421.97 3.01797 -2.2627 0
M  V30 15259 H 1424.36 2.6225 -1.35311 0
M  V30 15260 H 1424.44 1.1275 -2.29611 0
M  V30 15261 H 1424.08 2.48149 -4.43153 0
M  V30 15262 H 1424.01 3.9717 -3.45779 0
M  V30 15263 H 1426.5 2.56888 -2.77159 0
M  V30 15264 H 1426.82 4.7775 -6.07433 0
M  V30 15265 H 1425.16 4.302 -5.45851 0
M  V30 15266 H 1428.35 3.11973 -3.48985 0
M  V30 15267 H 1428.53 4.12706 -4.99578 0
M  V30 15268 N 1421.93 1.0643 1.16234 0
M  V30 15269 C 1423.18 0.780296 1.86429 0
M  V30 15270 C 1423.5 -0.695335 1.82181 0
M  V30 15271 O 1422.77 -1.50312 1.2563 0
M  V30 15272 H 1421.35 0.285654 0.690225 0
M  V30 15273 H 1424.01 1.34609 1.40949 0
M  V30 15274 H 1423.11 1.10644 2.91829 0
M  V30 15275 N 1423.41 -1.329 0.847073 0
M  V30 15276 C 1424.66 -1.9751 0.446755 0
M  V30 15277 C 1424.99 -1.67069 -0.995905 0
M  V30 15278 O 1424.24 -0.947232 -1.71248 0
M  V30 15279 C 1424.54 -3.51913 0.623845 0
M  V30 15280 C 1424.21 -4.02324 2.03583 0
M  V30 15281 C 1422.87 -4.15802 2.42203 0
M  V30 15282 C 1425.22 -4.29147 2.95774 0
M  V30 15283 C 1422.55 -4.53441 3.72301 0
M  V30 15284 C 1424.9 -4.68242 4.25362 0
M  V30 15285 C 1423.56 -4.79925 4.63927 0
M  V30 15286 H 1422.83 -0.722742 0.163479 0
M  V30 15287 H 1425.48 -1.58435 1.07567 0
M  V30 15288 H 1423.79 -3.917 -0.0883447 0
M  V30 15289 H 1425.48 -3.99919 0.294268 0
M  V30 15290 H 1422.07 -3.92314 1.72591 0
M  V30 15291 H 1426.26 -4.1825 2.67171 0
M  V30 15292 H 1421.51 -4.60681 4.01974 0
M  V30 15293 H 1425.69 -4.87952 4.96866 0
M  V30 15294 H 1423.31 -5.08847 5.64782 0
M  V30 15295 N 1424.89 -0.604284 -1.45555 0
M  V30 15296 C 1426.13 -0.101149 -2.0415 0
M  V30 15297 C 1426.49 1.24348 -1.46292 0
M  V30 15298 O 1427.69 1.83714 -1.9622 0
M  V30 15299 C 1425.96 -0.0589898 -3.57351 0
M  V30 15300 S 1427.52 0.383434 -4.37122 0
M  V30 15301 H 1424.34 -0.0479603 -0.709381 0
M  V30 15302 H 1426.94 -0.801643 -1.78309 0
M  V30 15303 H 1425.65 -1.04119 -3.96973 0
M  V30 15304 H 1425.18 0.663601 -3.87763 0
M  V30 15305 H 1427.19 1.63367 -4.68536 0
M  V30 15306 N 1426.37 1.53816 -0.343257 0
M  V30 15307 C 1427.78 1.59598 0.00867849 0
M  V30 15308 C 1427.98 1.35922 1.48753 0
M  V30 15309 O 1427.04 1.15334 2.2462 0
M  V30 15310 C 1428.35 2.97649 -0.427234 0
M  V30 15311 C 1429.9 3.1069 -0.379554 0
M  V30 15312 C 1430.37 4.51119 -0.79093 0
M  V30 15313 N 1431.87 4.57168 -0.745105 0
M  V30 15314 C 1432.6 5.63975 -1.03537 0
M  V30 15315 N 1432.1 6.78635 -1.39377 0
M  V30 15316 N 1433.89 5.53848 -0.959628 0
M  V30 15317 H 1426.04 1.6746 -1.30656 0
M  V30 15318 H 1428.3 0.784254 -0.532588 0
M  V30 15319 H 1428.01 3.2004 -1.45834 0
M  V30 15320 H 1427.88 3.76682 0.197704 0
M  V30 15321 H 1430.27 2.88024 0.642376 0
M  V30 15322 H 1430.35 2.33718 -1.03969 0
M  V30 15323 H 1430 4.74521 -1.81087 0
M  V30 15324 H 1429.93 5.26489 -0.108274 0
M  V30 15325 H 1432.42 3.7483 -0.480752 0
M  V30 15326 H 1432.73 7.56053 -1.60011 0
M  V30 15327 H 1431.07 6.80083 -1.43222 0
M  V30 15328 H 1434.27 4.6315 -0.678974 0
M  V30 15329 H 1434.44 6.36995 -1.18919 0
M  V30 15330 N 1427.84 0.0718701 1.57436 0
M  V30 15331 C 1428.77 -0.89288 2.15754 0
M  V30 15332 C 1429.76 -1.31036 1.0846 0
M  V30 15333 O 1430.94 -1.38139 1.36496 0
M  V30 15334 C 1428.07 -2.16044 2.71923 0
M  V30 15335 C 1427.02 -1.88236 3.84384 0
M  V30 15336 C 1426.35 -3.21624 4.27156 0
M  V30 15337 C 1427.65 -1.18758 5.0862 0
M  V30 15338 H 1429.34 -0.407061 2.9662 0
M  V30 15339 H 1426.89 -0.194354 1.42682 0
M  V30 15340 H 1428.84 -2.83952 3.11366 0
M  V30 15341 H 1427.57 -2.66868 1.88279 0
M  V30 15342 H 1426.23 -1.22734 3.45445 0
M  V30 15343 H 1425.87 -3.70289 3.40433 0
M  V30 15344 H 1425.57 -3.03809 5.02965 0
M  V30 15345 H 1427.1 -3.90729 4.69215 0
M  V30 15346 H 1428.51 -1.76735 5.45378 0
M  V30 15347 H 1426.91 -1.11201 5.89707 0
M  V30 15348 H 1427.98 -0.166682 4.84613 0
M  V30 15349 N 1429.32 -1.56304 -0.201686 0
M  V30 15350 C 1430.57 -1.79433 -0.921241 0
M  V30 15351 C 1430.88 -0.643943 -1.84696 0
M  V30 15352 O 1432.09 -0.759359 -2.60665 0
M  V30 15353 C 1430.55 -3.17835 -1.68846 0
M  V30 15354 C 1430.15 -4.40655 -0.807892 0
M  V30 15355 C 1431.9 -3.50277 -2.39805 0
M  V30 15356 C 1429.81 -5.7008 -1.5736 0
M  V30 15357 H 1428.74 -0.669029 -0.34773 0
M  V30 15358 H 1431.39 -1.82667 -0.174657 0
M  V30 15359 H 1429.77 -3.08832 -2.47869 0
M  V30 15360 H 1430.94 -4.60765 -0.0567923 0
M  V30 15361 H 1429.26 -4.15873 -0.209465 0
M  V30 15362 H 1431.85 -4.44207 -2.97631 0
M  V30 15363 H 1432.2 -2.7371 -3.1367 0
M  V30 15364 H 1432.73 -3.60698 -1.67754 0
M  V30 15365 H 1429.47 -6.49595 -0.877855 0
M  V30 15366 H 1428.99 -5.53999 -2.2988 0
M  V30 15367 H 1430.67 -6.10964 -2.12912 0
M  V30 15368 N 1430.8 0.469154 -1.50455 0
M  V30 15369 C 1432.21 1.04997 -1.54378 0
M  V30 15370 C 1432.56 1.93082 -0.348414 0
M  V30 15371 O 1431.69 2.09594 0.538469 0
M  V30 15372 C 1432.28 1.91096 -2.79764 0
M  V30 15373 C 1430.84 2.44283 -2.86361 0
M  V30 15374 C 1429.99 1.22676 -2.48688 0
M  V30 15375 H 1432.94 0.251692 -1.56691 0
M  V30 15376 H 1432.96 2.76186 -2.61728 0
M  V30 15377 H 1432.47 1.26961 -3.66746 0
M  V30 15378 H 1430.57 3.11966 -2.03735 0
M  V30 15379 H 1430.69 2.79258 -3.89297 0
M  V30 15380 H 1429.05 1.56215 -2.01169 0
M  V30 15381 H 1429.83 0.602002 -3.37981 0
M  V30 15382 N 1432.28 1.40065 0.722464 0
M  V30 15383 C 1433.23 1.36267 1.82798 0
M  V30 15384 C 1434.21 0.241375 1.59079 0
M  V30 15385 O 1435.4 0.479929 1.70369 0
M  V30 15386 C 1432.53 1.22086 3.20858 0
M  V30 15387 C 1431.62 2.38969 3.50364 0
M  V30 15388 N 1432.01 3.6445 3.50727 0
M  V30 15389 C 1430.31 2.32199 3.80788 0
M  V30 15390 C 1431.01 4.41816 3.78383 0
M  V30 15391 N 1429.99 3.71565 3.96787 0
M  V30 15392 H 1433.79 2.31236 1.81403 0
M  V30 15393 H 1431.3 1.33739 0.92128 0
M  V30 15394 H 1433.3 1.17448 4.00014 0
M  V30 15395 H 1431.96 0.280787 3.23484 0
M  V30 15396 H 1432.97 3.97705 3.3174 0
M  V30 15397 H 1429.65 1.46521 3.90945 0
M  V30 15398 H 1431.04 5.5064 3.85027 0
M  V30 15399 N 1433.76 -0.95397 1.25448 0
M  V30 15400 C 1434.99 -1.73331 1.12977 0
M  V30 15401 C 1435.4 -1.86131 -0.316364 0
M  V30 15402 O 1434.76 -1.35951 -1.21753 0
M  V30 15403 C 1434.81 -3.14675 1.77938 0
M  V30 15404 O 1434.53 -3.025 3.16899 0
M  V30 15405 C 1436.03 -4.08884 1.71256 0
M  V30 15406 H 1433.25 -0.543118 0.394036 0
M  V30 15407 H 1435.79 -1.19678 1.65823 0
M  V30 15408 H 1433.95 -3.6527 1.29062 0
M  V30 15409 H 1434.36 -3.91668 3.4885 0
M  V30 15410 H 1435.84 -5.05668 2.21368 0
M  V30 15411 H 1436.31 -4.33959 0.676476 0
M  V30 15412 H 1436.92 -3.64205 2.19624 0
M  V30 15413 N 1435.24 -1.07045 -1.15668 0
M  V30 15414 C 1436.65 -0.795369 -1.38369 0
M  V30 15415 C 1436.85 0.601829 -1.92303 0
M  V30 15416 O 1435.91 1.36109 -2.12675 0
M  V30 15417 C 1437.22 -1.86659 -2.35752 0
M  V30 15418 C 1438.77 -1.89098 -2.49421 0
M  V30 15419 C 1439.24 -2.95296 -3.50092 0
M  V30 15420 N 1440.73 -2.94378 -3.57625 0
M  V30 15421 C 1441.47 -3.73194 -4.35331 0
M  V30 15422 N 1440.97 -4.61851 -5.16397 0
M  V30 15423 N 1442.76 -3.61554 -4.30389 0
M  V30 15424 H 1434.91 -1.97162 -0.790004 0
M  V30 15425 H 1437.17 -0.854816 -0.40987 0
M  V30 15426 H 1436.88 -2.87036 -2.03232 0
M  V30 15427 H 1436.75 -1.72406 -3.35494 0
M  V30 15428 H 1439.14 -0.893752 -2.8124 0
M  V30 15429 H 1439.22 -2.07429 -1.49689 0
M  V30 15430 H 1438.86 -3.95217 -3.19008 0
M  V30 15431 H 1438.79 -2.74212 -4.49572 0
M  V30 15432 H 1441.29 -2.3011 -2.99763 0
M  V30 15433 H 1441.6 -5.18629 -5.72926 0
M  V30 15434 H 1439.94 -4.65902 -5.15714 0
M  V30 15435 H 1443.13 -2.91672 -3.66122 0
M  V30 15436 H 1443.31 -4.23221 -4.90701 0
M  V30 15437 N 1436.71 1.32449 -0.85411 0
M  V30 15438 C 1437.94 2.01997 -0.470307 0
M  V30 15439 C 1438.36 1.63772 0.925225 0
M  V30 15440 O 1437.72 0.838089 1.60766 0
M  V30 15441 C 1437.77 3.55294 -0.616301 0
M  V30 15442 O 1436.87 4.10902 0.351133 0
M  V30 15443 H 1436.21 0.63651 -0.189079 0
M  V30 15444 H 1438.74 1.69008 -1.15315 0
M  V30 15445 H 1438.75 4.0488 -0.503624 0
M  V30 15446 H 1437.43 3.82459 -1.63396 0
M  V30 15447 H 1436.01 3.72391 0.194741 0
M  V30 15448 N 1438.19 0.611994 1.45232 0
M  V30 15449 C 1439.6 0.193464 1.85695 0
M  V30 15450 C 1439.95 -1.25069 1.5117 0
M  V30 15451 O 1439.08 -1.94894 0.940497 0
M  V30 15452 C 1439.67 0.344334 3.37046 0
M  V30 15453 C 1438.23 -0.0195378 3.76395 0
M  V30 15454 C 1437.38 0.666714 2.69166 0
M  V30 15455 H 1440.33 0.818395 1.35971 0
M  V30 15456 H 1440.35 -0.422209 3.7815 0
M  V30 15457 H 1439.86 1.3955 3.62143 0
M  V30 15458 H 1437.96 -1.06971 3.56915 0
M  V30 15459 H 1438.08 0.377184 4.77613 0
M  V30 15460 H 1436.44 0.103912 2.54488 0
M  V30 15461 H 1437.22 1.7201 2.97099 0
M  V30 15462 N 1439.67 -1.53632 0.351409 0
M  V30 15463 C 1440.92 -2.00643 -0.242208 0
M  V30 15464 C 1441.24 -1.24074 -1.50435 0
M  V30 15465 O 1440.51 -0.350067 -1.92747 0
M  V30 15466 H 1439.09 -0.741252 -0.0924904 0
M  V30 15467 H 1441.75 -1.89039 0.474379 0
M  V30 15468 H 1440.85 -3.084 -0.479151 0
M  V30 15469 N 1441.15 -0.0802183 -1.57396 0
M  V30 15470 C 1442.38 0.595754 -1.98137 0
M  V30 15471 C 1442.79 1.62638 -0.958871 0
M  V30 15472 O 1442.15 1.82422 0.0534316 0
M  V30 15473 C 1442.2 1.2568 -3.38949 0
M  V30 15474 O 1441.92 0.267417 -4.37283 0
M  V30 15475 C 1443.42 2.0198 -3.94612 0
M  V30 15476 H 1440.64 0.160853 -0.651435 0
M  V30 15477 H 1443.18 -0.155111 -2.03911 0
M  V30 15478 H 1441.34 1.9587 -3.34236 0
M  V30 15479 H 1441.75 0.742695 -5.19215 0
M  V30 15480 H 1443.23 2.43613 -4.95335 0
M  V30 15481 H 1443.7 2.87973 -3.31614 0
M  V30 15482 H 1444.31 1.36639 -4.02753 0
M  V30 15483 N 1442.63 1.56409 0.193394 0
M  V30 15484 C 1443.87 1.81892 0.910313 0
M  V30 15485 C 1444.23 0.65752 1.80816 0
M  V30 15486 O 1443.52 -0.347215 1.88428 0
M  V30 15487 C 1443.71 3.11039 1.76039 0
M  V30 15488 C 1443.54 4.3963 0.946334 0
M  V30 15489 C 1442.31 5.01356 0.63009 0
M  V30 15490 C 1444.51 5.13435 0.298238 0
M  V30 15491 N 1442.49 6.13566 -0.202417 0
M  V30 15492 C 1443.86 6.18732 -0.396395 0
M  V30 15493 C 1445.92 4.97439 0.214139 0
M  V30 15494 C 1444.62 7.09768 -1.16712 0
M  V30 15495 C 1446.65 5.889 -0.543193 0
M  V30 15496 C 1446.01 6.93644 -1.22627 0
M  V30 15497 H 1442.11 0.71687 0.312445 0
M  V30 15498 H 1444.69 1.93876 0.178914 0
M  V30 15499 H 1442.86 3.00287 2.46338 0
M  V30 15500 H 1444.6 3.24603 2.41692 0
M  V30 15501 H 1441.35 4.63873 0.954919 0
M  V30 15502 H 1441.77 6.74261 -0.608331 0
M  V30 15503 H 1446.42 4.16487 0.727891 0
M  V30 15504 H 1444.13 7.90182 -1.6923 0
M  V30 15505 H 1447.72 5.78597 -0.609642 0
M  V30 15506 H 1446.6 7.63194 -1.8029 0
M  V30 15507 N 1444.1 -0.461169 1.50702 0
M  V30 15508 C 1445.33 -1.23554 1.65958 0
M  V30 15509 C 1445.75 -1.85584 0.346977 0
M  V30 15510 O 1445.1 -1.69672 -0.672129 0
M  V30 15511 C 1445.15 -2.33704 2.75799 0
M  V30 15512 O 1444.88 -1.74215 4.01971 0
M  V30 15513 C 1446.38 -3.24409 3.02116 0
M  V30 15514 H 1443.6 -0.373299 0.557574 0
M  V30 15515 H 1446.14 -0.549338 1.96984 0
M  V30 15516 H 1444.3 -2.98081 2.47439 0
M  V30 15517 H 1444.71 -2.46827 4.62792 0
M  V30 15518 H 1446.18 -3.97885 3.82611 0
M  V30 15519 H 1446.66 -3.83774 2.13576 0
M  V30 15520 H 1447.27 -2.65757 3.32044 0
M  V30 15521 N 1445.58 -1.40446 -0.715026 0
M  V30 15522 C 1446.83 -1.38059 -1.47046 0
M  V30 15523 C 1447.14 0.0139125 -1.95595 0
M  V30 15524 O 1448.35 0.160398 -2.71026 0
M  V30 15525 C 1446.81 -2.42646 -2.65802 0
M  V30 15526 C 1446.41 -3.8791 -2.2412 0
M  V30 15527 C 1448.16 -2.49367 -3.43535 0
M  V30 15528 C 1446.06 -4.84092 -3.39719 0
M  V30 15529 H 1444.99 -0.513341 -0.552265 0
M  V30 15530 H 1447.65 -1.66185 -0.778126 0
M  V30 15531 H 1446.03 -2.07621 -3.37208 0
M  V30 15532 H 1447.2 -4.32082 -1.6013 0
M  V30 15533 H 1445.52 -3.8467 -1.5943 0
M  V30 15534 H 1448.11 -3.18414 -4.29554 0
M  V30 15535 H 1448.46 -1.52436 -3.87388 0
M  V30 15536 H 1448.99 -2.83386 -2.79173 0
M  V30 15537 H 1445.73 -5.82358 -3.00898 0
M  V30 15538 H 1445.25 -4.44584 -4.02623 0
M  V30 15539 H 1446.93 -5.03939 -4.05776 0
M  V30 15540 N 1447.06 0.947303 -1.25952 0
M  V30 15541 C 1448.29 1.72479 -1.1373 0
M  V30 15542 C 1448.7 1.86629 0.310871 0
M  V30 15543 O 1448.04 1.36882 1.22512 0
M  V30 15544 C 1448.1 3.15328 -1.72651 0
M  V30 15545 C 1447.77 3.24584 -3.21705 0
M  V30 15546 C 1448.76 3.08331 -4.18602 0
M  V30 15547 C 1446.45 3.4817 -3.62054 0
M  V30 15548 C 1448.44 3.15523 -5.53827 0
M  V30 15549 C 1446.13 3.54997 -4.97413 0
M  V30 15550 C 1447.13 3.38689 -5.93109 0
M  V30 15551 O 1446.82 3.45212 -7.26005 0
M  V30 15552 H 1446.55 0.547044 -0.397138 0
M  V30 15553 H 1449.1 1.19654 -1.66949 0
M  V30 15554 H 1447.33 3.69549 -1.13887 0
M  V30 15555 H 1449.02 3.74965 -1.55423 0
M  V30 15556 H 1449.79 2.89971 -3.88769 0
M  V30 15557 H 1445.67 3.59922 -2.88057 0
M  V30 15558 H 1449.21 3.02711 -6.285 0
M  V30 15559 H 1445.11 3.72876 -5.26909 0
M  V30 15560 H 1445.87 3.61796 -7.34198 0
M  V30 15561 N 1448.54 1.07657 1.15099 0
M  V30 15562 C 1449.79 0.801609 1.85958 0
M  V30 15563 C 1450.11 -0.672415 1.82507 0
M  V30 15564 O 1449.37 -1.50958 1.2454 0
M  V30 15565 C 1449.67 1.25903 3.3449 0
M  V30 15566 C 1449.33 2.73954 3.58134 0
M  V30 15567 C 1448 3.14392 3.64296 0
M  V30 15568 C 1450.35 3.69502 3.67584 0
M  V30 15569 C 1447.68 4.49187 3.77422 0
M  V30 15570 C 1450.03 5.04063 3.82235 0
M  V30 15571 C 1448.69 5.44117 3.86643 0
M  V30 15572 H 1447.96 0.293329 0.68047 0
M  V30 15573 H 1450.61 1.34814 1.36005 0
M  V30 15574 H 1448.91 0.631943 3.8667 0
M  V30 15575 H 1450.61 1.02314 3.87728 0
M  V30 15576 H 1447.2 2.41652 3.53981 0
M  V30 15577 H 1451.38 3.39385 3.62121 0
M  V30 15578 H 1446.64 4.79685 3.79094 0
M  V30 15579 H 1450.81 5.7797 3.88489 0
M  V30 15580 H 1448.44 6.48567 3.96567 0
M  V30 15581 N 1450.02 -1.31994 0.861122 0
M  V30 15582 C 1450.93 -2.32495 0.313555 0
M  V30 15583 C 1451.94 -1.64331 -0.571966 0
M  V30 15584 O 1453.12 -1.9582 -0.470794 0
M  V30 15585 C 1450.18 -3.43311 -0.483603 0
M  V30 15586 C 1449.24 -4.27153 0.428825 0
M  V30 15587 C 1448.48 -5.32676 -0.330383 0
M  V30 15588 O 1448.7 -5.48665 -1.55957 0
M  V30 15589 O 1447.63 -6.01116 0.307174 0
M  V30 15590 H 1451.46 -2.81234 1.14636 0
M  V30 15591 H 1449.05 -1.35734 0.624239 0
M  V30 15592 H 1450.93 -4.10877 -0.935831 0
M  V30 15593 H 1449.6 -2.9675 -1.2931 0
M  V30 15594 H 1448.51 -3.62372 0.929366 0
M  V30 15595 H 1449.84 -4.77255 1.20368 0
M  V30 15596 N 1451.49 -0.619688 -1.44906 0
M  V30 15597 C 1452.74 -0.119397 -2.01747 0
M  V30 15598 C 1453.06 1.25904 -1.48907 0
M  V30 15599 O 1452.33 1.83417 -0.688104 0
M  V30 15600 H 1450.91 -0.0411482 -0.745866 0
M  V30 15601 H 1453.58 -0.803813 -1.77552 0
M  V30 15602 H 1452.67 -0.078368 -3.12002 0
M  V30 15603 N 1452.97 1.53444 -0.359552 0
M  V30 15604 C 1453.94 2.24173 0.477412 0
M  V30 15605 C 1454.94 1.24747 1.01464 0
M  V30 15606 O 1456.13 1.49069 0.901343 0
M  V30 15607 C 1453.26 2.9738 1.66667 0
M  V30 15608 H 1454.45 2.99566 -0.141407 0
M  V30 15609 H 1452 1.55904 -0.111143 0
M  V30 15610 H 1452.74 2.26214 2.32374 0
M  V30 15611 H 1452.52 3.70325 1.28848 0
M  V30 15612 H 1454.01 3.51165 2.25994 0
M  V30 15613 N 1454.45 0.0885642 1.57351 0
M  V30 15614 C 1455.73 -0.618587 1.85561 0
M  V30 15615 C 1456.11 -1.86753 0.984206 0
M  V30 15616 O 1455.46 -2.28434 0.0548839 0
M  V30 15617 C 1455.67 -0.940222 3.36096 0
M  V30 15618 C 1457.01 -1.30649 4.04 0
M  V30 15619 O 1458.04 -1.03144 3.4094 0
M  V30 15620 O 1456.9 -1.82135 5.15256 0
M  V30 15621 H 1453.99 -0.308881 0.767152 0
M  V30 15622 H 1456.54 0.120767 1.6927 0
M  V30 15623 H 1455.31 -0.0538991 3.91263 0
M  V30 15624 H 1454.93 -1.73577 3.5771 0
M  V30 15625 N 1455.93 -1.56509 -0.185096 0
M  V30 15626 C 1457.16 -1.85058 -0.918527 0
M  V30 15627 C 1457.57 -0.670181 -1.76933 0
M  V30 15628 O 1456.91 0.370215 -1.79931 0
M  V30 15629 C 1456.97 -3.07843 -1.85669 0
M  V30 15630 C 1456.64 -4.41319 -1.18686 0
M  V30 15631 C 1457.63 -5.16887 -0.558946 0
M  V30 15632 C 1455.32 -4.88056 -1.18773 0
M  V30 15633 C 1457.31 -6.37373 0.0591595 0
M  V30 15634 C 1455 -6.08475 -0.565791 0
M  V30 15635 C 1456 -6.82977 0.0565621 0
M  V30 15636 O 1455.68 -8.01114 0.668726 0
M  V30 15637 H 1455.42 -0.618423 -0.273001 0
M  V30 15638 H 1457.97 -2.04479 -0.194261 0
M  V30 15639 H 1456.2 -2.84332 -2.62092 0
M  V30 15640 H 1457.89 -3.22954 -2.45877 0
M  V30 15641 H 1458.66 -4.81867 -0.550347 0
M  V30 15642 H 1454.53 -4.30016 -1.66154 0
M  V30 15643 H 1458.08 -6.95464 0.545534 0
M  V30 15644 H 1453.98 -6.42961 -0.571927 0
M  V30 15645 H 1454.74 -8.16536 0.566616 0
M  V30 15646 N 1457.41 0.45317 -1.50944 0
M  V30 15647 C 1458.32 1.57435 -1.73929 0
M  V30 15648 C 1459.33 1.62467 -0.622935 0
M  V30 15649 O 1460.51 1.80004 -0.903365 0
M  V30 15650 C 1457.57 2.93534 -1.84495 0
M  V30 15651 C 1456.63 2.98747 -3.083 0
M  V30 15652 C 1455.87 4.28354 -3.18352 0
M  V30 15653 O 1456.09 5.1986 -2.34738 0
M  V30 15654 O 1455.02 4.39527 -4.11217 0
M  V30 15655 H 1458.85 1.40959 -2.69006 0
M  V30 15656 H 1456.44 0.634545 -1.35255 0
M  V30 15657 H 1458.32 3.74336 -1.93522 0
M  V30 15658 H 1456.99 3.10171 -0.926044 0
M  V30 15659 H 1455.9 2.16958 -3.04762 0
M  V30 15660 H 1457.23 2.87051 -3.99828 0
M  V30 15661 N 1458.88 1.40823 0.707568 0
M  V30 15662 C 1460.11 1.43061 1.50161 0
M  V30 15663 C 1460.53 0.0342144 1.88069 0
M  V30 15664 O 1459.89 -0.959674 1.53818 0
M  V30 15665 C 1459.94 2.33459 2.74826 0
M  V30 15666 O 1459.04 1.78336 3.71847 0
M  V30 15667 H 1458.39 0.48602 0.452417 0
M  V30 15668 H 1460.92 1.85147 0.870742 0
M  V30 15669 H 1460.93 2.48922 3.23267 0
M  V30 15670 H 1459.6 3.34927 2.46571 0
M  V30 15671 H 1458.18 1.7226 3.30728 0
M  V30 15672 N 1460.36 -0.94061 1.26453 0
M  V30 15673 C 1461.31 -2.02524 1.04728 0
M  V30 15674 C 1462.3 -1.60887 -0.0205193 0
M  V30 15675 O 1463.49 -1.75906 0.196501 0
M  V30 15676 C 1460.62 -3.3644 0.682862 0
M  V30 15677 C 1459.7 -3.84559 1.78815 0
M  V30 15678 N 1460.09 -4.05323 3.02567 0
M  V30 15679 C 1458.39 -4.13478 1.67188 0
M  V30 15680 C 1459.09 -4.45191 3.74406 0
M  V30 15681 N 1458.07 -4.51927 3.02098 0
M  V30 15682 H 1461.87 -2.1659 1.9866 0
M  V30 15683 H 1459.39 -1.12649 1.16978 0
M  V30 15684 H 1461.38 -4.13789 0.508379 0
M  V30 15685 H 1460.04 -3.23744 -0.248973 0
M  V30 15686 H 1461.05 -3.91996 3.38466 0
M  V30 15687 H 1457.73 -4.09567 0.809986 0
M  V30 15688 H 1459.12 -4.69442 4.80701 0
M  V30 15689 N 1461.84 -1.08266 -1.14527 0
M  V30 15690 C 1462.77 -0.732968 -2.21698 0
M  V30 15691 C 1463.75 0.283917 -1.67714 0
M  V30 15692 O 1464.94 0.154607 -1.93584 0
M  V30 15693 C 1462.07 -0.139935 -3.47018 0
M  V30 15694 C 1461.02 -1.08501 -4.14019 0
M  V30 15695 C 1460.35 -0.354263 -5.33525 0
M  V30 15696 C 1461.65 -2.42254 -4.62721 0
M  V30 15697 H 1463.34 -1.629 -2.51205 0
M  V30 15698 H 1460.89 -0.784696 -1.20742 0
M  V30 15699 H 1462.84 0.1167 -4.21238 0
M  V30 15700 H 1461.56 0.791228 -3.16871 0
M  V30 15701 H 1460.22 -1.32672 -3.41751 0
M  V30 15702 H 1459.87 0.580658 -4.99637 0
M  V30 15703 H 1459.57 -0.984287 -5.79297 0
M  V30 15704 H 1461.09 -0.105648 -6.10509 0
M  V30 15705 H 1462.51 -2.22357 -5.28422 0
M  V30 15706 H 1460.91 -3.00935 -5.1919 0
M  V30 15707 H 1461.98 -3.03884 -3.77866 0
M  V30 15708 N 1463.32 1.31536 -0.86811 0
M  V30 15709 C 1464.25 2.31037 -0.33822 0
M  V30 15710 C 1465.23 1.60269 0.569892 0
M  V30 15711 O 1466.42 1.87987 0.487305 0
M  V30 15712 C 1463.55 3.44203 0.462753 0
M  V30 15713 C 1462.5 4.26549 -0.3521 0
M  V30 15714 C 1461.83 5.31605 0.574443 0
M  V30 15715 C 1463.13 4.97665 -1.58516 0
M  V30 15716 H 1464.82 2.75607 -1.16967 0
M  V30 15717 H 1462.37 1.325 -0.56389 0
M  V30 15718 H 1464.32 4.12862 0.843967 0
M  V30 15719 H 1463.04 2.98396 1.32769 0
M  V30 15720 H 1461.7 3.59555 -0.715237 0
M  V30 15721 H 1461.35 4.82048 1.43661 0
M  V30 15722 H 1461.05 5.87591 0.0331436 0
M  V30 15723 H 1462.57 6.03124 0.952541 0
M  V30 15724 H 1463.99 5.58931 -1.27549 0
M  V30 15725 H 1462.38 5.63437 -2.06539 0
M  V30 15726 H 1463.45 4.24756 -2.33902 0
M  V30 15727 N 1464.8 0.627364 1.44575 0
M  V30 15728 C 1466.21 0.292662 1.56894 0
M  V30 15729 C 1466.41 -1.20429 1.61552 0
M  V30 15730 O 1465.47 -1.98819 1.55651 0
M  V30 15731 C 1466.78 0.981267 2.84239 0
M  V30 15732 C 1468.33 0.959053 2.97945 0
M  V30 15733 C 1468.81 1.62805 4.28087 0
M  V30 15734 N 1470.3 1.59446 4.34892 0
M  V30 15735 C 1471.03 2.08107 5.34302 0
M  V30 15736 N 1470.53 2.64942 6.40139 0
M  V30 15737 N 1472.32 1.98758 5.25787 0
M  V30 15738 H 1464.47 1.5991 1.39795 0
M  V30 15739 H 1466.73 0.671019 0.669655 0
M  V30 15740 H 1466.44 2.0361 2.86768 0
M  V30 15741 H 1466.31 0.516703 3.73644 0
M  V30 15742 H 1468.7 -0.0872902 2.94971 0
M  V30 15743 H 1468.78 1.46207 2.09898 0
M  V30 15744 H 1468.43 2.67382 4.31821 0
M  V30 15745 H 1468.36 1.09989 5.14985 0
M  V30 15746 H 1470.85 1.17947 3.59022 0
M  V30 15747 H 1471.16 2.99814 7.12272 0
M  V30 15748 H 1469.51 2.68991 6.40835 0
M  V30 15749 H 1472.7 1.54081 4.42014 0
M  V30 15750 H 1472.87 2.36992 6.03107 0
M  V30 15751 N 1466.28 -1.53251 0.367684 0
M  V30 15752 C 1467.19 -2.29518 -0.485669 0
M  V30 15753 C 1468.2 -1.35568 -1.09075 0
M  V30 15754 O 1469.38 -1.68626 -1.10124 0
M  V30 15755 C 1466.44 -3.07115 -1.60876 0
M  V30 15756 C 1465.5 -4.16736 -1.031 0
M  V30 15757 C 1464.74 -4.90624 -2.10056 0
M  V30 15758 O 1464.96 -4.64393 -3.31203 0
M  V30 15759 O 1463.89 -5.76503 -1.72996 0
M  V30 15760 H 1467.72 -3.034 0.135017 0
M  V30 15761 H 1465.3 -1.48816 0.132005 0
M  V30 15762 H 1467.19 -3.55564 -2.26168 0
M  V30 15763 H 1465.86 -2.36068 -2.21481 0
M  V30 15764 H 1464.77 -3.72534 -0.341928 0
M  V30 15765 H 1466.1 -4.89956 -0.469473 0
M  V30 15766 N 1467.75 -0.0969077 -1.57302 0
M  V30 15767 C 1468.7 0.878876 -2.15357 0
M  V30 15768 C 1469.7 1.29091 -1.0969 0
M  V30 15769 O 1470.9 1.26523 -1.28031 0
M  V30 15770 H 1467.28 0.301458 -0.688932 0
M  V30 15771 H 1469.25 0.364542 -2.96165 0
M  V30 15772 C 1468 2.12761 -2.75006 0
M  V30 15773 H 1467.32 1.81944 -3.56 0
M  V30 15774 H 1468.76 2.79092 -3.19193 0
M  V30 15775 C 1467.22 2.90283 -1.70989 0
M  V30 15776 O 1467.75 3.84889 -1.14992 0
M  V30 15777 N 1465.95 2.53857 -1.41439 0
M  V30 15778 H 1465.5 1.76993 -1.87166 0
M  V30 15779 H 1465.46 3.06025 -0.720816 0
M  V30 15780 N 1469.23 1.56605 0.176793 0
M  V30 15781 C 1470.46 1.85812 0.910019 0
M  V30 15782 C 1470.87 0.68164 1.76066 0
M  V30 15783 O 1470.23 -0.34936 1.79125 0
M  V30 15784 C 1470.28 3.14001 1.79125 0
M  V30 15785 O 1470 4.27114 0.974931 0
M  V30 15786 C 1471.5 3.56516 2.6346 0
M  V30 15787 H 1468.72 0.616608 0.264643 0
M  V30 15788 H 1471.27 2.03719 0.178537 0
M  V30 15789 H 1469.42 2.97937 2.47613 0
M  V30 15790 H 1469.84 5.00227 1.57711 0
M  V30 15791 H 1471.31 4.49128 3.20918 0
M  V30 15792 H 1471.79 2.80373 3.38065 0
M  V30 15793 H 1472.39 3.75173 2.00313 0
M  V30 15794 N 1470.71 -0.445159 1.51182 0
M  V30 15795 C 1471.62 -1.5651 1.74762 0
M  V30 15796 C 1472.64 -1.62134 0.631542 0
M  V30 15797 O 1473.81 -1.79522 0.912898 0
M  V30 15798 C 1470.88 -2.92552 1.86049 0
M  V30 15799 C 1469.94 -2.97108 3.0988 0
M  V30 15800 C 1469.17 -4.2666 3.2062 0
M  V30 15801 O 1469.39 -5.18608 2.37491 0
M  V30 15802 O 1468.33 -4.3734 4.13542 0
M  V30 15803 H 1472.15 -1.3953 2.6975 0
M  V30 15804 H 1469.74 -0.627363 1.3559 0
M  V30 15805 H 1471.62 -3.73304 1.95504 0
M  V30 15806 H 1470.3 -3.09676 0.94248 0
M  V30 15807 H 1469.2 -2.15338 3.05909 0
M  V30 15808 H 1470.54 -2.84927 4.01345 0
M  V30 15809 N 1472.19 -1.41197 -0.700089 0
M  V30 15810 C 1473.12 -1.45456 -1.8266 0
M  V30 15811 C 1474.1 -0.313719 -1.67182 0
M  V30 15812 O 1475.28 -0.524528 -1.86982 0
M  V30 15813 C 1472.41 -1.33161 -3.20758 0
M  V30 15814 C 1471.37 -2.4501 -3.50933 0
M  V30 15815 C 1470.69 -2.17782 -4.88339 0
M  V30 15816 C 1471.99 -3.87352 -3.50365 0
M  V30 15817 H 1473.69 -2.39735 -1.79353 0
M  V30 15818 H 1471.23 -1.1539 -0.861465 0
M  V30 15819 H 1473.19 -1.34754 -3.99274 0
M  V30 15820 H 1471.91 -0.353646 -3.2468 0
M  V30 15821 H 1470.57 -2.42692 -2.74766 0
M  V30 15822 H 1470.22 -1.1834 -4.88881 0
M  V30 15823 H 1469.92 -2.92728 -5.09494 0
M  V30 15824 H 1471.44 -2.21083 -5.6917 0
M  V30 15825 H 1472.86 -3.9141 -4.18893 0
M  V30 15826 H 1471.25 -4.61944 -3.83051 0
M  V30 15827 H 1472.32 -4.15827 -2.4943 0
M  V30 15828 N 1473.67 0.933891 -1.2695 0
M  V30 15829 C 1474.63 2.0152 -1.0919 0
M  V30 15830 C 1475.63 1.60755 -0.037865 0
M  V30 15831 O 1476.82 1.71904 -0.281917 0
M  V30 15832 C 1473.95 3.34403 -0.66239 0
M  V30 15833 H 1475.14 2.18706 -2.05201 0
M  V30 15834 H 1472.7 1.11385 -1.0965 0
M  V30 15835 H 1473.43 3.22915 0.299388 0
M  V30 15836 H 1473.22 3.65345 -1.42356 0
M  V30 15837 H 1474.71 4.13826 -0.560187 0
M  V30 15838 N 1475.14 1.08871 1.13951 0
M  V30 15839 C 1476.08 0.680849 2.18854 0
M  V30 15840 C 1477.09 -0.274456 1.6047 0
M  V30 15841 O 1478.28 -0.0613804 1.78394 0
M  V30 15842 C 1475.38 -0.0182788 3.38895 0
M  V30 15843 C 1474.55 0.957125 4.268 0
M  V30 15844 C 1473.61 0.29245 5.25387 0
M  V30 15845 O 1472.64 0.938329 5.61413 0
M  V30 15846 N 1473.84 -0.955738 5.72578 0
M  V30 15847 H 1476.6 1.58334 2.54461 0
M  V30 15848 H 1474.16 0.975417 1.29218 0
M  V30 15849 H 1476.16 -0.474001 4.01915 0
M  V30 15850 H 1474.73 -0.822932 3.01574 0
M  V30 15851 H 1473.95 1.59156 3.60642 0
M  V30 15852 H 1475.23 1.61792 4.82391 0
M  V30 15853 H 1474.63 -1.50014 5.45447 0
M  V30 15854 H 1473.19 -1.35488 6.37563 0
M  V30 15855 N 1476.62 -1.31073 0.875073 0
M  V30 15856 C 1478.03 -1.78707 0.540422 0
M  V30 15857 C 1478.38 -1.72056 -0.942935 0
M  V30 15858 O 1477.51 -1.29139 -1.73643 0
M  V30 15859 C 1478.1 -3.24491 0.974203 0
M  V30 15860 C 1476.66 -3.70001 0.691127 0
M  V30 15861 C 1475.81 -2.51748 1.16269 0
M  V30 15862 H 1478.76 -1.18083 1.06029 0
M  V30 15863 H 1478.78 -3.79323 0.299003 0
M  V30 15864 H 1478.29 -3.29301 2.05384 0
M  V30 15865 H 1476.39 -3.70688 -0.376937 0
M  V30 15866 H 1476.51 -4.61913 1.27173 0
M  V30 15867 H 1474.87 -2.47954 0.582302 0
M  V30 15868 H 1475.65 -2.59299 2.24986 0
M  V30 15869 N 1478.1 -0.635022 -1.4424 0
M  V30 15870 C 1479.03 0.0543561 -2.33437 0
M  V30 15871 C 1480.01 0.830807 -1.48431 0
M  V30 15872 O 1481.2 0.795913 -1.77141 0
M  V30 15873 C 1478.33 1.03391 -3.31553 0
M  V30 15874 C 1477.28 0.368824 -4.26408 0
M  V30 15875 C 1476.61 1.45855 -5.14422 0
M  V30 15876 C 1477.91 -0.727381 -5.1721 0
M  V30 15877 H 1479.6 -0.690489 -2.91329 0
M  V30 15878 H 1477.15 -0.3335 -1.40085 0
M  V30 15879 H 1479.1 1.52495 -3.9284 0
M  V30 15880 H 1477.82 1.80969 -2.71878 0
M  V30 15881 H 1476.48 -0.101605 -3.66459 0
M  V30 15882 H 1476.13 2.22531 -4.51098 0
M  V30 15883 H 1475.83 1.0189 -5.78699 0
M  V30 15884 H 1477.35 1.95132 -5.78581 0
M  V30 15885 H 1478.77 -0.319272 -5.7241 0
M  V30 15886 H 1477.17 -1.09041 -5.9011 0
M  V30 15887 H 1478.24 -1.59292 -4.57989 0
M  V30 15888 N 1479.58 1.53054 -0.375806 0
M  V30 15889 C 1480.99 1.5958 -0.0251765 0
M  V30 15890 C 1481.19 1.39047 1.45836 0
M  V30 15891 O 1480.25 1.20073 2.22123 0
M  V30 15892 C 1481.56 2.96676 -0.490274 0
M  V30 15893 C 1483.11 3.09815 -0.44537 0
M  V30 15894 C 1483.59 4.4934 -0.886442 0
M  V30 15895 N 1485.08 4.55484 -0.84191 0
M  V30 15896 C 1485.81 5.61652 -1.15476 0
M  V30 15897 N 1485.31 6.75526 -1.53741 0
M  V30 15898 N 1487.1 5.51688 -1.07689 0
M  V30 15899 H 1479.25 1.64651 -1.34178 0
M  V30 15900 H 1481.52 0.77278 -0.549104 0
M  V30 15901 H 1481.22 3.16874 -1.52589 0
M  V30 15902 H 1481.1 3.77016 0.11776 0
M  V30 15903 H 1483.48 2.89321 0.581138 0
M  V30 15904 H 1483.56 2.3146 -1.08903 0
M  V30 15905 H 1483.21 4.70573 -1.91111 0
M  V30 15906 H 1483.14 5.26141 -0.219925 0
M  V30 15907 H 1485.63 3.73725 -0.56015 0
M  V30 15908 H 1485.94 7.52489 -1.76012 0
M  V30 15909 H 1484.29 6.76892 -1.57616 0
M  V30 15910 H 1487.48 4.61605 -0.777062 0
M  V30 15911 H 1487.65 6.34329 -1.32403 0
M  V30 15912 N 1481.06 0.105248 1.57248 0
M  V30 15913 C 1482 -0.850012 2.14577 0
M  V30 15914 C 1482.97 -1.27294 1.06703 0
M  V30 15915 O 1484.16 -1.35289 1.34542 0
M  V30 15916 C 1481.3 -2.09993 2.73856 0
M  V30 15917 C 1480.41 -1.72662 3.95995 0
M  V30 15918 C 1479.55 -2.92517 4.43404 0
M  V30 15919 C 1478.59 -2.5136 5.58108 0
M  V30 15920 N 1477.72 -3.64082 6.00324 0
M  V30 15921 H 1482.56 -0.354282 2.95887 0
M  V30 15922 H 1480.1 -0.163192 1.46192 0
M  V30 15923 H 1482.06 -2.83208 3.06348 0
M  V30 15924 H 1480.69 -2.57048 1.95259 0
M  V30 15925 H 1479.74 -0.893754 3.69752 0
M  V30 15926 H 1481.05 -1.38406 4.79213 0
M  V30 15927 H 1480.21 -3.73973 4.77734 0
M  V30 15928 H 1478.94 -3.2999 3.59107 0
M  V30 15929 H 1477.95 -1.68333 5.23397 0
M  V30 15930 H 1479.17 -2.15019 6.44161 0
M  V30 15931 H 1477.12 -4.01255 5.18971 0
M  V30 15932 H 1477.04 -3.33705 6.78363 0
M  V30 15933 H 1478.31 -4.46019 6.39287 0
M  V30 15934 N 1482.53 -1.56697 -0.168486 0
M  V30 15935 C 1483.44 -1.99866 -1.22845 0
M  V30 15936 C 1484.46 -0.910491 -1.48277 0
M  V30 15937 O 1485.64 -1.21834 -1.6037 0
M  V30 15938 C 1482.7 -2.35227 -2.54694 0
M  V30 15939 C 1481.76 -3.57886 -2.37099 0
M  V30 15940 C 1481 -3.91551 -3.62661 0
M  V30 15941 O 1481.22 -3.26148 -4.67957 0
M  V30 15942 O 1480.15 -4.8489 -3.56603 0
M  V30 15943 H 1483.98 -2.90305 -0.892015 0
M  V30 15944 H 1481.56 -1.44602 -0.375571 0
M  V30 15945 H 1483.45 -2.58928 -3.32467 0
M  V30 15946 H 1482.12 -1.4795 -2.87911 0
M  V30 15947 H 1481.03 -3.394 -1.57348 0
M  V30 15948 H 1482.36 -4.45714 -2.08806 0
M  V30 15949 N 1484.01 0.437135 -1.51416 0
M  V30 15950 C 1485.42 1.01699 -1.5657 0
M  V30 15951 C 1485.77 1.92299 -0.389291 0
M  V30 15952 O 1484.9 2.10689 0.49389 0
M  V30 15953 C 1485.49 1.85119 -2.83754 0
M  V30 15954 C 1484.05 2.38154 -2.91478 0
M  V30 15955 C 1483.2 1.17374 -2.51234 0
M  V30 15956 H 1486.15 0.218399 -1.5719 0
M  V30 15957 H 1486.17 2.70572 -2.67528 0
M  V30 15958 H 1485.68 1.19153 -3.69357 0
M  V30 15959 H 1483.79 3.07575 -2.10306 0
M  V30 15960 H 1483.9 2.70937 -3.95133 0
M  V30 15961 H 1482.26 1.51913 -2.04437 0
M  V30 15962 H 1483.05 0.530176 -3.39181 0
M  V30 15963 N 1485.49 1.41566 0.692592 0
M  V30 15964 C 1486.4 1.46014 1.83622 0
M  V30 15965 C 1487.42 0.350453 1.70434 0
M  V30 15966 O 1488.59 0.598634 1.92298 0
M  V30 15967 C 1485.66 1.34308 3.19628 0
M  V30 15968 C 1484.72 2.55617 3.44904 0
M  V30 15969 C 1483.95 2.4446 4.74421 0
M  V30 15970 O 1484.17 1.47078 5.51112 0
M  V30 15971 O 1483.11 3.34272 5.00546 0
M  V30 15972 H 1486.93 2.42504 1.82826 0
M  V30 15973 H 1484.52 1.23136 0.846039 0
M  V30 15974 H 1486.4 1.30075 4.00822 0
M  V30 15975 H 1485.08 0.409343 3.21101 0
M  V30 15976 H 1483.98 2.65426 2.63628 0
M  V30 15977 H 1485.32 3.47829 3.48247 0
M  V30 15978 N 1486.97 -0.927146 1.27443 0
M  V30 15979 C 1488.22 -1.66941 1.13197 0
M  V30 15980 C 1488.53 -1.92939 -0.32156 0
M  V30 15981 O 1489.74 -2.65124 -0.584931 0
M  V30 15982 C 1488.19 -3.00677 1.97791 0
M  V30 15983 C 1487.8 -2.82376 3.47805 0
M  V30 15984 C 1489.54 -3.78499 1.92195 0
M  V30 15985 C 1487.45 -4.1167 4.24596 0
M  V30 15986 H 1486.38 -0.626171 0.420031 0
M  V30 15987 H 1489.03 -1.02997 1.51868 0
M  V30 15988 H 1487.41 -3.65681 1.51965 0
M  V30 15989 H 1488.59 -2.26135 4.01497 0
M  V30 15990 H 1486.9 -2.17982 3.54786 0
M  V30 15991 H 1489.5 -4.74312 2.46844 0
M  V30 15992 H 1489.84 -4.0655 0.895702 0
M  V30 15993 H 1490.38 -3.20292 2.35919 0
M  V30 15994 H 1487.12 -3.88798 5.27747 0
M  V30 15995 H 1486.64 -4.67573 3.75681 0
M  V30 15996 H 1488.31 -4.80028 4.338 0
M  V30 15997 N 1488.45 -1.09474 -1.13372 0
M  V30 15998 C 1489.7 -0.825968 -1.84013 0
M  V30 15999 C 1490.01 0.650623 -1.84462 0
M  V30 16000 O 1491.21 1.03495 -2.51 0
M  V30 16001 C 1489.67 -1.42769 -3.30371 0
M  V30 16002 C 1489.28 -2.93686 -3.38308 0
M  V30 16003 C 1491.02 -1.23788 -4.0605 0
M  V30 16004 C 1488.93 -3.46942 -4.78942 0
M  V30 16005 H 1487.86 -0.305322 -0.689416 0
M  V30 16006 H 1490.51 -1.31751 -1.27726 0
M  V30 16007 H 1488.89 -0.86384 -3.86463 0
M  V30 16008 H 1490.07 -3.56302 -2.92208 0
M  V30 16009 H 1488.38 -3.11706 -2.76094 0
M  V30 16010 H 1490.98 -1.61031 -5.09876 0
M  V30 16011 H 1491.32 -0.178578 -4.15917 0
M  V30 16012 H 1491.85 -1.76927 -3.56289 0
M  V30 16013 H 1488.59 -4.52495 -4.74267 0
M  V30 16014 H 1488.11 -2.8909 -5.25535 0
M  V30 16015 H 1489.79 -3.44176 -5.47861 0
M  V30 16016 N 1489.92 1.30607 -0.882012 0
M  V30 16017 C 1491.15 2.00418 -0.513815 0
M  V30 16018 C 1491.57 1.66135 0.896916 0
M  V30 16019 O 1490.92 0.89691 1.5894 0
M  V30 16020 C 1490.98 3.55133 -0.675503 0
M  V30 16021 O 1490.7 3.88194 -2.03069 0
M  V30 16022 C 1492.2 4.42215 -0.309906 0
M  V30 16023 H 1489.42 0.640839 -0.198913 0
M  V30 16024 H 1491.96 1.66561 -1.1865 0
M  V30 16025 H 1490.12 3.87367 -0.0502289 0
M  V30 16026 H 1490.53 4.82899 -2.04717 0
M  V30 16027 H 1492 5.49962 -0.473948 0
M  V30 16028 H 1492.48 4.32717 0.751852 0
M  V30 16029 H 1493.09 4.1542 -0.91138 0
M  V30 16030 N 1491.4 0.642663 1.43901 0
M  V30 16031 C 1492.65 0.152003 2.0223 0
M  V30 16032 C 1492.98 -1.22711 1.50518 0
M  V30 16033 O 1492.26 -1.817 0.693937 0
M  V30 16034 C 1492.54 0.151278 3.59782 0
M  V30 16035 C 1492.39 1.56356 4.2175 0
M  V30 16036 C 1493.71 -0.518016 4.37041 0
M  V30 16037 H 1490.83 0.0567094 0.734815 0
M  V30 16038 H 1493.47 0.821337 1.7133 0
M  V30 16039 H 1491.62 -0.418679 3.86237 0
M  V30 16040 H 1493.29 2.18329 4.06362 0
M  V30 16041 H 1491.54 2.11401 3.78803 0
M  V30 16042 H 1492.21 1.51499 5.30803 0
M  V30 16043 H 1494.68 -0.0331947 4.16087 0
M  V30 16044 H 1493.56 -0.487754 5.46729 0
M  V30 16045 H 1493.82 -1.59036 4.12504 0
M  V30 16046 N 1492.88 -1.52852 0.383918 0
M  V30 16047 C 1494.11 -2.05929 -0.200216 0
M  V30 16048 C 1494.52 -1.25606 -1.40956 0
M  V30 16049 O 1493.88 -0.301336 -1.79995 0
M  V30 16050 C 1493.93 -3.56887 -0.575655 0
M  V30 16051 O 1493.65 -4.34168 0.58564 0
M  V30 16052 C 1495.15 -4.2629 -1.21623 0
M  V30 16053 H 1492.37 -0.670261 -0.0314727 0
M  V30 16054 H 1494.92 -1.97032 0.547591 0
M  V30 16055 H 1493.07 -3.65875 -1.27336 0
M  V30 16056 H 1493.49 -5.23761 0.278267 0
M  V30 16057 H 1494.96 -5.33174 -1.42933 0
M  V30 16058 H 1495.44 -3.81163 -2.182 0
M  V30 16059 H 1496.04 -4.21605 -0.559435 0
M  V30 16060 N 1494.36 -0.113586 -1.5719 0
M  V30 16061 C 1495.29 0.835363 -2.18046 0
M  V30 16062 C 1496.27 1.28114 -1.11897 0
M  V30 16063 O 1497.46 1.34472 -1.40111 0
M  V30 16064 C 1494.59 2.08759 -2.77556 0
M  V30 16065 C 1493.54 1.77979 -3.8924 0
M  V30 16066 C 1492.87 3.10185 -4.35533 0
M  V30 16067 C 1494.17 1.05231 -5.11589 0
M  V30 16068 H 1495.86 0.328275 -2.97595 0
M  V30 16069 H 1493.41 0.156456 -1.43148 0
M  V30 16070 H 1495.36 2.75597 -3.18785 0
M  V30 16071 H 1494.08 2.61783 -1.95288 0
M  V30 16072 H 1492.74 1.13532 -3.48577 0
M  V30 16073 H 1492.39 3.61133 -3.50131 0
M  V30 16074 H 1492.09 2.90367 -5.10843 0
M  V30 16075 H 1493.61 3.78151 -4.7941 0
M  V30 16076 H 1495.03 1.62213 -5.49872 0
M  V30 16077 H 1493.42 0.955269 -5.92448 0
M  V30 16078 H 1494.49 0.038137 -4.84885 0
M  V30 16079 N 1495.84 1.56784 0.160173 0
M  V30 16080 C 1496.78 1.97267 1.1981 0
M  V30 16081 C 1497.75 0.83824 1.43397 0
M  V30 16082 O 1498.94 1.09926 1.55952 0
M  V30 16083 C 1496.08 2.34725 2.52979 0
M  V30 16084 C 1495.19 3.61397 2.36677 0
M  V30 16085 C 1494.33 3.88018 3.62789 0
M  V30 16086 C 1493.37 5.08002 3.41468 0
M  V30 16087 N 1492.5 5.30699 4.59677 0
M  V30 16088 H 1497.34 2.85743 0.845878 0
M  V30 16089 H 1494.88 1.41379 0.406249 0
M  V30 16090 H 1496.84 2.54468 3.30608 0
M  V30 16091 H 1495.47 1.49345 2.86175 0
M  V30 16092 H 1494.52 3.49505 1.50167 0
M  V30 16093 H 1495.83 4.49185 2.16875 0
M  V30 16094 H 1494.99 4.08188 4.48851 0
M  V30 16095 H 1493.73 2.98627 3.85582 0
M  V30 16096 H 1492.73 4.87718 2.53793 0
M  V30 16097 H 1493.96 5.98934 3.20086 0
M  V30 16098 H 1491.9 4.44261 4.82668 0
M  V30 16099 H 1491.82 6.1273 4.42829 0
M  V30 16100 H 1493.09 5.55357 5.46991 0
M  V30 16101 N 1497.32 -0.429099 1.51646 0
M  V30 16102 C 1498.26 -1.52143 1.73554 0
M  V30 16103 C 1499.23 -1.55741 0.577416 0
M  V30 16104 O 1500.42 -1.72623 0.812768 0
M  V30 16105 C 1497.56 -2.89785 1.874 0
M  V30 16106 C 1496.67 -2.95652 3.14982 0
M  V30 16107 C 1495.81 -4.24468 3.19375 0
M  V30 16108 C 1494.84 -4.24234 4.41239 0
M  V30 16109 N 1493.98 -5.44587 4.43135 0
M  V30 16110 H 1498.82 -1.32764 2.66791 0
M  V30 16111 H 1496.36 -0.6448 1.32215 0
M  V30 16112 H 1498.32 -3.6966 1.9341 0
M  V30 16113 H 1496.95 -3.07703 0.975638 0
M  V30 16114 H 1496 -2.0839 3.18242 0
M  V30 16115 H 1497.31 -2.91342 4.04872 0
M  V30 16116 H 1496.46 -5.12722 3.24347 0
M  V30 16117 H 1495.2 -4.31446 2.27389 0
M  V30 16118 H 1494.21 -3.34371 4.36435 0
M  V30 16119 H 1495.43 -4.18913 5.34499 0
M  V30 16120 H 1493.38 -5.52271 3.54023 0
M  V30 16121 H 1493.3 -5.42191 5.26845 0
M  V30 16122 H 1494.56 -6.34851 4.5231 0
M  V30 16123 N 1498.79 -1.41931 -0.685074 0
M  V30 16124 C 1499.73 -1.40545 -1.81052 0
M  V30 16125 C 1500.74 -0.306024 -1.59898 0
M  V30 16126 O 1501.93 -0.568444 -1.69207 0
M  V30 16127 C 1499.03 -1.17194 -3.17992 0
M  V30 16128 C 1498.2 -2.39376 -3.66084 0
M  V30 16129 C 1497.26 -2.11725 -4.81725 0
M  V30 16130 O 1496.29 -2.84847 -4.92799 0
M  V30 16131 N 1497.49 -1.11399 -5.69711 0
M  V30 16132 H 1500.25 -2.37549 -1.8273 0
M  V30 16133 H 1497.81 -1.36679 -0.86779 0
M  V30 16134 H 1499.81 -0.966307 -3.92994 0
M  V30 16135 H 1498.38 -0.287499 -3.11275 0
M  V30 16136 H 1497.6 -2.75575 -2.81873 0
M  V30 16137 H 1498.88 -3.2076 -3.94956 0
M  V30 16138 H 1498.28 -0.509008 -5.63405 0
M  V30 16139 H 1496.84 -0.968239 -6.44568 0
M  V30 16140 N 1500.27 0.920374 -1.27933 0
M  V30 16141 C 1501.22 2.04331 -1.11138 0
M  V30 16142 C 1502.21 1.69369 -0.0324493 0
M  V30 16143 O 1503.42 1.78987 -0.190723 0
M  V30 16144 H 1499.79 0.669381 -0.342685 0
M  V30 16145 H 1501.77 2.15641 -2.06256 0
M  V30 16146 C 1500.51 3.38768 -0.783049 0
M  V30 16147 H 1499.84 3.6616 -1.60521 0
M  V30 16148 H 1501.28 4.1809 -0.705448 0
M  V30 16149 C 1499.74 3.32972 0.512927 0
M  V30 16150 O 1500.27 3.70792 1.54519 0
M  V30 16151 N 1498.47 2.86068 0.511232 0
M  V30 16152 H 1498.02 2.55487 -0.329229 0
M  V30 16153 H 1497.98 2.82573 1.3784 0
M  V30 16154 N 1501.75 1.10074 1.1279 0
M  V30 16155 C 1503 0.839212 1.83852 0
M  V30 16156 C 1503.32 -0.637023 1.84301 0
M  V30 16157 O 1502.59 -1.46239 1.30349 0
M  V30 16158 H 1501.17 0.307468 0.680788 0
M  V30 16159 H 1503.83 1.39025 1.36595 0
M  V30 16160 H 1502.93 1.19872 2.88162 0
M  V30 16161 N 1503.23 -1.30138 0.888926 0
M  V30 16162 C 1504.16 -2.26177 0.303221 0
M  V30 16163 C 1505.14 -1.51962 -0.578471 0
M  V30 16164 O 1506.32 -1.80963 -0.527685 0
M  V30 16165 C 1503.45 -3.3389 -0.568783 0
M  V30 16166 C 1502.5 -4.25801 0.24412 0
M  V30 16167 S 1503.33 -5.09931 1.63496 0
M  V30 16168 C 1504.48 -6.21151 0.76959 0
M  V30 16169 H 1504.72 -2.75507 1.11728 0
M  V30 16170 H 1502.25 -1.38195 0.688594 0
M  V30 16171 H 1504.21 -3.96413 -1.06614 0
M  V30 16172 H 1502.87 -2.83276 -1.35697 0
M  V30 16173 H 1502.06 -5.02234 -0.42151 0
M  V30 16174 H 1501.66 -3.67872 0.67424 0
M  V30 16175 H 1503.96 -6.77499 -0.0117256 0
M  V30 16176 H 1504.9 -6.91907 1.50566 0
M  V30 16177 H 1505.31 -5.63542 0.328744 0
M  V30 16178 N 1504.71 -0.650285 -1.43559 0
M  V30 16179 C 1505.95 -0.162164 -2.01448 0
M  V30 16180 C 1506.27 1.22717 -1.51544 0
M  V30 16181 O 1505.54 1.81917 -0.726855 0
M  V30 16182 H 1504.12 -0.0569599 -0.744825 0
M  V30 16183 H 1506.79 -0.841294 -1.75807 0
M  V30 16184 H 1505.88 -0.144531 -3.11765 0
M  V30 16185 N 1506.18 1.52647 -0.392018 0
M  V30 16186 C 1507.11 2.29446 0.433228 0
M  V30 16187 C 1508.09 1.32945 1.06111 0
M  V30 16188 O 1509.28 1.61841 1.07337 0
M  V30 16189 C 1506.41 3.10328 1.55929 0
M  V30 16190 C 1505.36 4.14735 1.05731 0
M  V30 16191 C 1504.69 4.83858 2.27565 0
M  V30 16192 C 1505.99 5.22154 0.123346 0
M  V30 16193 H 1507.68 2.9868 -0.207563 0
M  V30 16194 H 1505.23 1.43643 -0.101266 0
M  V30 16195 H 1507.18 3.62814 2.14346 0
M  V30 16196 H 1505.91 2.38832 2.22771 0
M  V30 16197 H 1504.57 3.63234 0.495653 0
M  V30 16198 H 1504.21 4.08907 2.92923 0
M  V30 16199 H 1503.91 5.54428 1.94637 0
M  V30 16200 H 1505.44 5.39149 2.86619 0
M  V30 16201 H 1506.85 5.69983 0.615784 0
M  V30 16202 H 1505.25 5.99987 -0.116304 0
M  V30 16203 H 1506.32 4.77796 -0.826969 0
M  V30 16204 N 1507.66 0.121921 1.57128 0
M  V30 16205 C 1508.89 -0.546325 2.00075 0
M  V30 16206 C 1509.31 -1.59245 1.00113 0
M  V30 16207 O 1508.67 -1.8128 -0.0267687 0
M  V30 16208 C 1508.72 -1.14651 3.41888 0
M  V30 16209 O 1507.82 -2.26199 3.4483 0
M  V30 16210 H 1507.16 -0.136184 0.649885 0
M  V30 16211 H 1509.69 0.211257 2.03506 0
M  V30 16212 H 1509.7 -1.48133 3.80159 0
M  V30 16213 H 1508.38 -0.380273 4.14158 0
M  V30 16214 H 1506.96 -1.94134 3.18381 0
M  V30 16215 N 1509.14 -1.56867 -0.151857 0
M  V30 16216 C 1510.39 -1.82273 -0.863689 0
M  V30 16217 C 1510.7 -0.702377 -1.82554 0
M  V30 16218 O 1511.91 -0.841903 -2.58117 0
M  V30 16219 C 1510.36 -3.23046 -1.58649 0
M  V30 16220 C 1509.97 -4.43003 -0.667292 0
M  V30 16221 C 1511.72 -3.57729 -2.28539 0
M  V30 16222 C 1509.62 -5.74798 -1.39144 0
M  V30 16223 H 1508.55 -0.679753 -0.326269 0
M  V30 16224 H 1511.2 -1.8313 -0.116454 0
M  V30 16225 H 1509.59 -3.16561 -2.37918 0
M  V30 16226 H 1510.76 -4.60712 0.0898254 0
M  V30 16227 H 1509.08 -4.16329 -0.0770521 0
M  V30 16228 H 1511.67 -4.53451 -2.83348 0
M  V30 16229 H 1512.02 -2.8355 -3.04803 0
M  V30 16230 H 1512.55 -3.65853 -1.56194 0
M  V30 16231 H 1509.29 -6.52059 -0.670747 0
M  V30 16232 H 1508.81 -5.61032 -2.12139 0
M  V30 16233 H 1510.49 -6.17429 -1.93367 0
M  V30 16234 N 1510.62 0.421051 -1.51871 0
M  V30 16235 C 1511.86 1.17082 -1.65589 0
M  V30 16236 C 1512.2 1.90469 -0.378861 0
M  V30 16237 O 1511.47 1.84277 0.622259 0
M  V30 16238 C 1511.76 2.17483 -2.87007 0
M  V30 16239 C 1511.61 1.48071 -4.24729 0
M  V30 16240 C 1512.93 3.18288 -3.03942 0
M  V30 16241 H 1510.05 0.424284 -0.602621 0
M  V30 16242 H 1512.69 0.457998 -1.84397 0
M  V30 16243 H 1510.84 2.78273 -2.71102 0
M  V30 16244 H 1512.51 0.904926 -4.52337 0
M  V30 16245 H 1510.75 0.782814 -4.26678 0
M  V30 16246 H 1511.42 2.21272 -5.0571 0
M  V30 16247 H 1513.9 2.67565 -3.18666 0
M  V30 16248 H 1512.78 3.85815 -3.90433 0
M  V30 16249 H 1513.04 3.85333 -2.16728 0
M  V30 16250 N 1512.1 1.42293 0.677538 0
M  V30 16251 C 1513.06 1.45258 1.77293 0
M  V30 16252 C 1514.06 0.340554 1.57152 0
M  V30 16253 O 1515.25 0.601259 1.63495 0
M  V30 16254 C 1512.38 1.28156 3.15894 0
M  V30 16255 H 1513.57 2.42787 1.76052 0
M  V30 16256 H 1511.13 1.287 0.886908 0
M  V30 16257 H 1511.86 0.315381 3.22763 0
M  V30 16258 H 1511.65 2.08744 3.31916 0
M  V30 16259 H 1513.14 1.33107 3.95818 0
M  V30 16260 N 1513.57 -0.913576 1.28419 0
M  V30 16261 C 1514.54 -1.99757 1.12382 0
M  V30 16262 C 1515.54 -1.60675 0.063435 0
M  V30 16263 O 1516.73 -1.71433 0.30923 0
M  V30 16264 C 1513.86 -3.33307 0.715506 0
M  V30 16265 H 1515.05 -2.15414 2.08655 0
M  V30 16266 H 1512.61 -1.09626 1.11408 0
M  V30 16267 H 1513.34 -3.23351 -0.247977 0
M  V30 16268 H 1513.13 -3.63034 1.4815 0
M  V30 16269 H 1514.62 -4.12882 0.625953 0
M  V30 16270 N 1515.05 -1.1067 -1.12204 0
M  V30 16271 C 1516 -0.757745 -2.18007 0
M  V30 16272 C 1516.97 0.26706 -1.63939 0
M  V30 16273 O 1518.15 0.145789 -1.90242 0
M  V30 16274 C 1515.29 -0.198379 -3.44529 0
M  V30 16275 C 1514.41 -1.27878 -4.12639 0
M  V30 16276 C 1513.54 -0.6808 -5.26819 0
M  V30 16277 C 1512.58 -1.74161 -5.868 0
M  V30 16278 N 1511.72 -1.16372 -6.92389 0
M  V30 16279 H 1516.56 -1.66418 -2.47202 0
M  V30 16280 H 1514.1 -0.831216 -1.21364 0
M  V30 16281 H 1516.05 0.143838 -4.16952 0
M  V30 16282 H 1514.68 0.671279 -3.15743 0
M  V30 16283 H 1513.74 -1.73808 -3.38371 0
M  V30 16284 H 1515.05 -2.08169 -4.53285 0
M  V30 16285 H 1514.2 -0.288172 -6.06015 0
M  V30 16286 H 1512.94 0.153521 -4.87458 0
M  V30 16287 H 1511.95 -2.14364 -5.06289 0
M  V30 16288 H 1513.17 -2.57882 -6.28231 0
M  V30 16289 H 1511.12 -0.350899 -6.55061 0
M  V30 16290 H 1511.03 -1.90344 -7.31646 0
M  V30 16291 H 1512.3 -0.797715 -7.75407 0
M  V30 16292 N 1516.53 1.29665 -0.895815 0
M  V30 16293 C 1517.78 1.9533 -0.518725 0
M  V30 16294 C 1518.1 1.70995 0.937322 0
M  V30 16295 O 1517.37 1.03955 1.66043 0
M  V30 16296 H 1515.95 0.722736 -0.188841 0
M  V30 16297 H 1518.61 1.57991 -1.14126 0
M  V30 16298 H 1517.71 3.04193 -0.698057 0
M  V30 16299 N 1518.01 0.657889 1.43212 0
M  V30 16300 C 1518.97 -0.0214783 2.2919 0
M  V30 16301 C 1519.97 -0.745921 1.42452 0
M  V30 16302 O 1521.16 -0.586468 1.64031 0
M  V30 16303 C 1518.29 -1.04115 3.24612 0
M  V30 16304 H 1519.49 0.735072 2.90752 0
M  V30 16305 H 1517.04 0.419354 1.50569 0
M  V30 16306 H 1517.77 -1.82677 2.67954 0
M  V30 16307 H 1517.56 -0.525285 3.88566 0
M  V30 16308 H 1519.05 -1.51544 3.89132 0
M  V30 16309 N 1519.49 -1.52437 0.400108 0
M  V30 16310 C 1520.73 -2.01312 -0.178252 0
M  V30 16311 C 1521.06 -1.28797 -1.46411 0
M  V30 16312 O 1520.33 -0.411211 -1.91536 0
M  V30 16313 H 1518.91 -0.743819 -0.0688613 0
M  V30 16314 H 1521.57 -1.87434 0.53428 0
M  V30 16315 H 1520.66 -3.09768 -0.380793 0
M  V30 16316 N 1520.96 -0.130252 -1.57061 0
M  V30 16317 C 1521.9 0.846442 -2.12998 0
M  V30 16318 C 1522.91 1.22229 -1.07536 0
M  V30 16319 O 1524.1 1.16928 -1.34871 0
M  V30 16320 C 1521.2 2.14481 -2.62395 0
M  V30 16321 C 1520.37 1.93892 -3.92077 0
M  V30 16322 C 1519.43 3.07562 -4.26957 0
M  V30 16323 O 1518.46 2.79983 -4.95578 0
M  V30 16324 N 1519.66 4.34297 -3.85184 0
M  V30 16325 H 1522.42 0.368471 -2.97426 0
M  V30 16326 H 1519.98 0.0538355 -1.6181 0
M  V30 16327 H 1521.98 2.8954 -2.82752 0
M  V30 16328 H 1520.55 2.53592 -1.82784 0
M  V30 16329 H 1519.77 1.02962 -3.80516 0
M  V30 16330 H 1521.05 1.77454 -4.76852 0
M  V30 16331 H 1520.45 4.59575 -3.29859 0
M  V30 16332 H 1519.01 5.06191 -4.10626 0
M  V30 16333 N 1522.44 1.56945 0.143535 0
M  V30 16334 C 1523.72 1.74461 0.884454 0
M  V30 16335 C 1524.1 0.699201 1.99184 0
M  V30 16336 O 1523.45 -0.281267 2.26762 0
M  V30 16337 C 1523.66 3.18639 1.42373 0
M  V30 16338 C 1525.01 3.80426 1.88577 0
M  V30 16339 O 1526.03 3.2209 1.52107 0
M  V30 16340 O 1524.89 4.82913 2.55847 0
M  V30 16341 H 1521.98 0.713457 0.41822 0
M  V30 16342 H 1524.53 1.69208 0.12919 0
M  V30 16343 H 1523.3 3.86227 0.628056 0
M  V30 16344 H 1522.92 3.28332 2.2424 0
M  V30 16345 N 1523.92 -0.412991 1.52093 0
M  V30 16346 C 1524.87 -1.50294 1.75158 0
M  V30 16347 C 1525.84 -1.55119 0.593902 0
M  V30 16348 O 1527.02 -1.71751 0.831032 0
M  V30 16349 C 1524.16 -2.87781 1.90463 0
M  V30 16350 C 1523.28 -2.92295 3.181 0
M  V30 16351 C 1522.41 -4.21056 3.23859 0
M  V30 16352 C 1521.45 -4.1953 4.45714 0
M  V30 16353 N 1520.59 -5.39857 4.48886 0
M  V30 16354 H 1525.43 -1.29927 2.68185 0
M  V30 16355 H 1522.96 -0.630741 1.32891 0
M  V30 16356 H 1524.92 -3.67588 1.9732 0
M  V30 16357 H 1523.55 -3.06651 1.00822 0
M  V30 16358 H 1522.6 -2.05002 3.20434 0
M  V30 16359 H 1523.92 -2.87031 4.0794 0
M  V30 16360 H 1523.07 -5.09253 3.29767 0
M  V30 16361 H 1521.81 -4.2901 2.31952 0
M  V30 16362 H 1520.81 -3.29724 4.39957 0
M  V30 16363 H 1522.04 -4.1322 5.38912 0
M  V30 16364 H 1519.99 -5.48486 3.59861 0
M  V30 16365 H 1519.9 -5.36572 5.32566 0
M  V30 16366 H 1521.17 -6.30018 4.59018 0
M  V30 16367 N 1525.4 -1.4265 -0.669982 0
M  V30 16368 C 1526.33 -1.49298 -1.79534 0
M  V30 16369 C 1527.31 -0.34911 -1.66479 0
M  V30 16370 O 1528.5 -0.564072 -1.85828 0
M  V30 16371 C 1525.63 -1.39935 -3.17861 0
M  V30 16372 C 1524.58 -2.52398 -3.45657 0
M  V30 16373 C 1523.91 -2.28092 -4.8361 0
M  V30 16374 C 1525.21 -3.94697 -3.4207 0
M  V30 16375 H 1526.9 -2.43486 -1.74227 0
M  V30 16376 H 1524.45 -1.17191 -0.836796 0
M  V30 16377 H 1526.4 -1.43193 -3.96325 0
M  V30 16378 H 1525.12 -0.422436 -3.23857 0
M  V30 16379 H 1523.78 -2.48465 -2.69556 0
M  V30 16380 H 1523.43 -1.28683 -4.86261 0
M  V30 16381 H 1523.13 -3.03469 -5.0317 0
M  V30 16382 H 1524.65 -2.33107 -5.64352 0
M  V30 16383 H 1526.07 -4.00207 -4.10496 0
M  V30 16384 H 1524.46 -4.69965 -3.73166 0
M  V30 16385 H 1525.53 -4.21025 -2.40554 0
M  V30 16386 N 1526.88 0.906753 -1.28902 0
M  V30 16387 C 1528.13 1.6533 -1.16234 0
M  V30 16388 C 1528.45 1.92861 0.288004 0
M  V30 16389 O 1527.72 1.54971 1.19837 0
M  V30 16390 H 1526.3 0.612806 -0.427174 0
M  V30 16391 H 1528.96 1.08764 -1.6173 0
M  V30 16392 H 1528.05 2.61271 -1.70715 0
M  V30 16393 N 1528.36 1.11264 1.11616 0
M  V30 16394 C 1529.6 0.855139 1.82675 0
M  V30 16395 C 1529.92 -0.621194 1.85474 0
M  V30 16396 O 1531.12 -0.994886 2.52615 0
M  V30 16397 C 1529.58 1.48007 3.28058 0
M  V30 16398 C 1529.19 2.99031 3.33593 0
M  V30 16399 C 1530.93 1.30233 4.04029 0
M  V30 16400 C 1528.84 3.54517 4.73362 0
M  V30 16401 H 1527.77 0.316252 0.684471 0
M  V30 16402 H 1530.42 1.33766 1.25614 0
M  V30 16403 H 1528.8 0.925214 3.8504 0
M  V30 16404 H 1529.98 3.60905 2.86503 0
M  V30 16405 H 1528.29 3.16059 2.711 0
M  V30 16406 H 1530.89 1.69122 5.07249 0
M  V30 16407 H 1531.23 0.244724 4.1558 0
M  V30 16408 H 1531.76 1.82573 3.53429 0
M  V30 16409 H 1528.5 4.59982 4.67008 0
M  V30 16410 H 1528.02 2.97414 5.20869 0
M  V30 16411 H 1529.7 3.52848 5.42316 0
M  V30 16412 N 1529.83 -1.29188 0.902679 0
M  V30 16413 C 1531.06 -1.99286 0.544844 0
M  V30 16414 C 1531.47 -1.67721 -0.875572 0
M  V30 16415 O 1530.81 -0.920207 -1.5899 0
M  V30 16416 C 1530.88 -3.53374 0.660849 0
M  V30 16417 C 1530.54 -4.08502 2.04878 0
M  V30 16418 C 1531.54 -4.23173 3.02028 0
M  V30 16419 C 1529.22 -4.43461 2.35897 0
M  V30 16420 C 1531.22 -4.7204 4.28318 0
M  V30 16421 C 1528.9 -4.92024 3.6243 0
M  V30 16422 C 1529.9 -5.06269 4.58455 0
M  V30 16423 O 1529.59 -5.53778 5.8274 0
M  V30 16424 H 1529.32 -0.64339 0.207427 0
M  V30 16425 H 1531.88 -1.6562 1.21487 0
M  V30 16426 H 1530.11 -3.86643 -0.066216 0
M  V30 16427 H 1531.79 -4.04701 0.311732 0
M  V30 16428 H 1532.56 -3.96449 2.79379 0
M  V30 16429 H 1528.44 -4.31631 1.61913 0
M  V30 16430 H 1531.98 -4.83074 5.03275 0
M  V30 16431 H 1527.88 -5.18186 3.84907 0
M  V30 16432 H 1528.65 -5.72086 5.85372 0
M  V30 16433 N 1531.31 -0.665475 -1.42861 0
M  V30 16434 C 1532.56 -0.184156 -2.01962 0
M  V30 16435 C 1532.89 1.20301 -1.52451 0
M  V30 16436 O 1532.17 1.80573 -0.722756 0
M  V30 16437 C 1532.45 -0.208497 -3.59496 0
M  V30 16438 C 1532.3 -1.63045 -4.19209 0
M  V30 16439 C 1533.62 0.448421 -4.3781 0
M  V30 16440 H 1530.74 -0.0683924 -0.73382 0
M  V30 16441 H 1533.38 -0.84849 -1.70002 0
M  V30 16442 H 1531.53 0.357179 -3.86855 0
M  V30 16443 H 1533.2 -2.24766 -4.02837 0
M  V30 16444 H 1531.45 -2.17401 -3.75392 0
M  V30 16445 H 1532.12 -1.59924 -5.28326 0
M  V30 16446 H 1534.59 -0.0330053 -4.16087 0
M  V30 16447 H 1533.47 0.400713 -5.47435 0
M  V30 16448 H 1533.73 1.52454 -4.14982 0
M  V30 16449 N 1532.79 1.52222 -0.408187 0
M  V30 16450 C 1533.74 2.26988 0.417767 0
M  V30 16451 C 1534.71 1.29362 1.04185 0
M  V30 16452 O 1535.89 1.58223 1.06631 0
M  V30 16453 C 1533.03 3.09379 1.52901 0
M  V30 16454 C 1532.14 4.2196 0.92593 0
M  V30 16455 C 1531.28 4.91712 2.00979 0
M  V30 16456 C 1530.32 5.96258 1.3836 0
M  V30 16457 N 1529.46 6.59531 2.40756 0
M  V30 16458 H 1534.3 2.9714 -0.226228 0
M  V30 16459 H 1531.83 1.46581 -0.123402 0
M  V30 16460 H 1533.79 3.55452 2.18425 0
M  V30 16461 H 1532.42 2.41399 2.14304 0
M  V30 16462 H 1531.47 3.80064 0.159765 0
M  V30 16463 H 1532.78 4.96956 0.428497 0
M  V30 16464 H 1531.94 5.41186 2.74231 0
M  V30 16465 H 1530.68 4.16282 2.54087 0
M  V30 16466 H 1529.68 5.46104 0.636402 0
M  V30 16467 H 1530.91 6.7363 0.860218 0
M  V30 16468 H 1528.85 5.86931 2.92999 0
M  V30 16469 H 1528.77 7.30198 1.95822 0
M  V30 16470 H 1530.04 7.13643 3.13581 0
M  V30 16471 N 1534.27 0.138579 1.5699 0
M  V30 16472 C 1535.49 -0.525074 2.00643 0
M  V30 16473 C 1535.92 -1.58174 1.01796 0
M  V30 16474 O 1535.28 -1.81298 -0.00754003 0
M  V30 16475 C 1535.32 -1.11019 3.43085 0
M  V30 16476 O 1534.43 -2.22529 3.4721 0
M  V30 16477 H 1533.77 -0.129283 0.651292 0
M  V30 16478 H 1536.3 0.23283 2.03271 0
M  V30 16479 H 1536.31 -1.44093 3.81708 0
M  V30 16480 H 1534.98 -0.336325 4.14538 0
M  V30 16481 H 1533.56 -1.90747 3.20422 0
M  V30 16482 N 1535.75 -1.57019 -0.13521 0
M  V30 16483 C 1536.99 -1.84262 -0.847071 0
M  V30 16484 C 1537.32 -0.721946 -1.80282 0
M  V30 16485 O 1536.6 0.273535 -1.92567 0
M  V30 16486 C 1536.88 -3.22043 -1.61123 0
M  V30 16487 C 1536.74 -4.44689 -0.67617 0
M  V30 16488 C 1538.05 -3.57188 -2.57108 0
M  V30 16489 H 1535.17 -0.670246 -0.306496 0
M  V30 16490 H 1537.82 -1.89671 -0.111843 0
M  V30 16491 H 1535.97 -3.17563 -2.23799 0
M  V30 16492 H 1537.64 -4.61262 -0.0595009 0
M  V30 16493 H 1535.88 -4.33798 0.0134526 0
M  V30 16494 H 1536.55 -5.37727 -1.24714 0
M  V30 16495 H 1539.03 -3.62354 -2.04545 0
M  V30 16496 H 1537.9 -4.54602 -3.07617 0
M  V30 16497 H 1538.16 -2.83758 -3.39019 0
M  V30 16498 N 1537.22 0.404919 -1.52309 0
M  V30 16499 C 1538.47 1.15319 -1.66822 0
M  V30 16500 C 1538.8 1.90056 -0.399041 0
M  V30 16501 O 1538.08 1.84927 0.602679 0
M  V30 16502 C 1538.36 2.14426 -2.89298 0
M  V30 16503 C 1538.21 1.43558 -4.26276 0
M  V30 16504 C 1539.53 3.15046 -3.07301 0
M  V30 16505 H 1536.65 0.417869 -0.607087 0
M  V30 16506 H 1539.29 0.438414 -1.84873 0
M  V30 16507 H 1537.44 2.75382 -2.74039 0
M  V30 16508 H 1539.12 0.856899 -4.53271 0
M  V30 16509 H 1537.36 0.737515 -4.27485 0
M  V30 16510 H 1538.03 2.15895 -5.08029 0
M  V30 16511 H 1540.51 2.6417 -3.21486 0
M  V30 16512 H 1539.38 3.81652 -3.94503 0
M  V30 16513 H 1539.64 3.83012 -2.20803 0
M  V30 16514 N 1538.7 1.43003 0.662408 0
M  V30 16515 C 1539.65 1.47448 1.77561 0
M  V30 16516 C 1540.62 0.325121 1.62887 0
M  V30 16517 O 1541.8 0.530971 1.83263 0
M  V30 16518 C 1538.94 1.3946 3.15666 0
M  V30 16519 C 1538.06 2.64529 3.41539 0
M  V30 16520 C 1537.19 2.48594 4.69441 0
M  V30 16521 C 1536.23 3.68976 4.88388 0
M  V30 16522 N 1535.37 3.51908 6.0754 0
M  V30 16523 H 1540.21 2.42573 1.73097 0
M  V30 16524 H 1537.75 1.2042 0.84484 0
M  V30 16525 H 1539.7 1.32824 3.95492 0
M  V30 16526 H 1538.33 0.479227 3.19223 0
M  V30 16527 H 1537.39 2.81481 2.55877 0
M  V30 16528 H 1538.7 3.53977 3.51429 0
M  V30 16529 H 1537.85 2.39614 5.57378 0
M  V30 16530 H 1536.59 1.56656 4.61855 0
M  V30 16531 H 1535.6 3.78374 3.9889 0
M  V30 16532 H 1536.82 4.61911 4.9781 0
M  V30 16533 H 1534.77 2.62697 6.01104 0
M  V30 16534 H 1534.68 4.34951 6.18347 0
M  V30 16535 H 1535.95 3.46763 6.98123 0
M  V30 16536 N 1540.18 -0.899904 1.29381 0
M  V30 16537 C 1541.43 -1.64712 1.17109 0
M  V30 16538 C 1541.75 -1.93011 -0.277772 0
M  V30 16539 O 1541.02 -1.55604 -1.19013 0
M  V30 16540 H 1539.6 -0.610532 0.430418 0
M  V30 16541 H 1542.26 -1.07905 1.62304 0
M  V30 16542 H 1541.36 -2.60362 1.72098 0
M  V30 16543 N 1541.66 -1.11854 -1.11024 0
M  V30 16544 C 1542.91 -0.868355 -1.82494 0
M  V30 16545 C 1543.23 0.607622 -1.85292 0
M  V30 16546 O 1542.5 1.44147 -1.32659 0
M  V30 16547 H 1541.08 -0.31826 -0.67581 0
M  V30 16548 H 1543.74 -1.4118 -1.34366 0
M  V30 16549 H 1542.84 -1.24441 -2.86218 0
M  V30 16550 N 1543.14 1.28707 -0.909517 0
M  V30 16551 C 1544.1 2.25692 -0.39946 0
M  V30 16552 C 1545.1 1.53721 0.471848 0
M  V30 16553 O 1546.29 1.72008 0.275504 0
M  V30 16554 C 1543.42 3.38205 0.427793 0
M  V30 16555 H 1544.61 2.72326 -1.25613 0
M  V30 16556 H 1542.17 1.40317 -0.688535 0
M  V30 16557 H 1542.9 2.96926 1.30404 0
M  V30 16558 H 1542.69 3.91606 -0.19667 0
M  V30 16559 H 1544.18 4.10334 0.775634 0
M  V30 16560 N 1544.61 0.673042 1.42506 0
M  V30 16561 C 1545.58 0.00283156 2.292 0
M  V30 16562 C 1546.58 -0.73077 1.43235 0
M  V30 16563 O 1547.77 -0.569037 1.64644 0
M  V30 16564 C 1544.9 -1.00666 3.25698 0
M  V30 16565 H 1546.09 0.765869 2.89956 0
M  V30 16566 H 1543.65 0.435301 1.50116 0
M  V30 16567 H 1544.38 -1.79825 2.69877 0
M  V30 16568 H 1544.17 -0.484043 3.89101 0
M  V30 16569 H 1545.66 -1.47409 3.90718 0
M  V30 16570 N 1546.09 -1.52004 0.416254 0
M  V30 16571 C 1547.37 -1.94403 -0.216103 0
M  V30 16572 C 1547.75 -1.35362 -1.61989 0
M  V30 16573 O 1547.1 -0.532242 -2.22215 0
M  V30 16574 C 1547.31 -3.48336 -0.215225 0
M  V30 16575 C 1548.66 -4.22406 -0.431109 0
M  V30 16576 O 1549.68 -3.54982 -0.294271 0
M  V30 16577 O 1548.54 -5.4198 -0.70145 0
M  V30 16578 H 1545.63 -0.814838 -0.141306 0
M  V30 16579 H 1548.18 -1.62983 0.472712 0
M  V30 16580 H 1546.95 -3.83709 0.767004 0
M  V30 16581 H 1546.57 -3.86137 -0.947841 0
M  V30 16582 N 1547.57 -0.146903 -1.56914 0
M  V30 16583 C 1548.82 0.504981 -1.96412 0
M  V30 16584 C 1549.15 1.64522 -1.0318 0
M  V30 16585 O 1548.42 1.94359 -0.0741728 0
M  V30 16586 C 1548.71 1.01125 -3.45609 0
M  V30 16587 C 1548.56 -0.127493 -4.49619 0
M  V30 16588 C 1549.88 1.89306 -3.97305 0
M  V30 16589 H 1547 0.182088 -0.714152 0
M  V30 16590 H 1549.64 -0.22811 -1.88626 0
M  V30 16591 H 1547.79 1.63595 -3.52376 0
M  V30 16592 H 1549.46 -0.763829 -4.54932 0
M  V30 16593 H 1547.71 -0.786649 -4.26608 0
M  V30 16594 H 1548.38 0.268453 -5.51347 0
M  V30 16595 H 1550.85 1.36664 -3.93017 0
M  V30 16596 H 1549.73 2.21638 -5.02163 0
M  V30 16597 H 1549.99 2.82996 -3.39655 0
M  V30 16598 N 1549.05 1.57088 0.126881 0
M  V30 16599 C 1550.33 1.7539 0.8659 0
M  V30 16600 C 1550.71 0.720288 1.98432 0
M  V30 16601 O 1550.05 -0.2572 2.27048 0
M  V30 16602 C 1550.26 3.20131 1.38985 0
M  V30 16603 C 1551.61 3.82404 1.84532 0
M  V30 16604 O 1552.64 3.23685 1.48682 0
M  V30 16605 O 1551.49 4.85599 2.50711 0
M  V30 16606 H 1548.59 0.717853 0.41063 0
M  V30 16607 H 1551.13 1.69335 0.111236 0
M  V30 16608 H 1549.91 3.86871 0.587056 0
M  V30 16609 H 1549.53 3.30692 2.20745 0
M  V30 16610 N 1550.53 -0.396836 1.52522 0
M  V30 16611 C 1551.77 -1.14037 1.66853 0
M  V30 16612 C 1552.1 -1.90706 0.406987 0
M  V30 16613 O 1551.37 -1.87165 -0.578443 0
M  V30 16614 H 1549.95 -0.423967 0.615029 0
M  V30 16615 H 1552.61 -0.451042 1.89609 0
M  V30 16616 H 1551.7 -1.84763 2.51533 0
M  V30 16617 N 1552.01 -1.43353 -0.654814 0
M  V30 16618 C 1553.42 -1.26718 -0.970297 0
M  V30 16619 C 1553.62 -0.185747 -2.00642 0
M  V30 16620 O 1552.68 0.436357 -2.48701 0
M  V30 16621 C 1553.99 -2.63095 -1.45608 0
M  V30 16622 C 1555.54 -2.70613 -1.57281 0
M  V30 16623 C 1556.01 -4.07404 -2.0925 0
M  V30 16624 N 1557.5 -4.09461 -2.16555 0
M  V30 16625 C 1558.24 -5.12135 -2.57885 0
M  V30 16626 N 1557.74 -6.25185 -2.98523 0
M  V30 16627 N 1559.53 -4.9949 -2.57811 0
M  V30 16628 H 1551.68 -2.12378 0.0308331 0
M  V30 16629 H 1553.94 -0.946744 -0.0487843 0
M  V30 16630 H 1553.65 -3.43186 -0.769171 0
M  V30 16631 H 1553.52 -2.88381 -2.43138 0
M  V30 16632 H 1555.91 -1.90855 -2.25074 0
M  V30 16633 H 1555.99 -2.49094 -0.581879 0
M  V30 16634 H 1555.63 -4.87628 -1.4206 0
M  V30 16635 H 1555.56 -4.26287 -3.09172 0
M  V30 16636 H 1558.06 -3.27858 -1.87929 0
M  V30 16637 H 1558.37 -6.99362 -3.28804 0
M  V30 16638 H 1556.71 -6.28659 -2.96332 0
M  V30 16639 H 1559.9 -4.10238 -2.25438 0
M  V30 16640 H 1560.08 -5.79637 -2.89699 0
M  V30 16641 N 1553.48 0.89303 -1.29857 0
M  V30 16642 C 1554.41 2.01422 -1.18117 0
M  V30 16643 C 1555.39 1.6994 -0.0737487 0
M  V30 16644 O 1556.58 1.92527 -0.254387 0
M  V30 16645 C 1553.71 3.36385 -0.863842 0
M  V30 16646 C 1552.66 3.821 -1.92831 0
M  V30 16647 C 1551.99 5.14263 -1.46415 0
M  V30 16648 C 1553.29 4.01699 -3.33819 0
M  V30 16649 H 1554.98 2.11502 -2.11913 0
M  V30 16650 H 1552.53 1.01622 -1.02024 0
M  V30 16651 H 1554.48 4.14335 -0.768397 0
M  V30 16652 H 1553.21 3.26415 0.109816 0
M  V30 16653 H 1551.87 3.06372 -2.01325 0
M  V30 16654 H 1551.51 5.00714 -0.478983 0
M  V30 16655 H 1551.21 5.45821 -2.17609 0
M  V30 16656 H 1552.74 5.94747 -1.38234 0
M  V30 16657 H 1554.15 4.70111 -3.28129 0
M  V30 16658 H 1552.55 4.44621 -4.03029 0
M  V30 16659 H 1553.62 3.05816 -3.76304 0
M  V30 16660 N 1554.96 1.12442 1.10429 0
M  V30 16661 C 1555.92 0.795443 2.14954 0
M  V30 16662 C 1556.92 -0.19022 1.59671 0
M  V30 16663 O 1558.11 0.0355797 1.74164 0
M  V30 16664 C 1555.25 0.182043 3.40414 0
M  V30 16665 H 1556.44 1.72153 2.45567 0
M  V30 16666 H 1553.99 0.927672 1.25793 0
M  V30 16667 H 1554.73 -0.753766 3.15419 0
M  V30 16668 H 1554.51 0.891708 3.81826 0
M  V30 16669 H 1556 -0.0316286 4.17588 0
M  V30 16670 N 1556.44 -1.28223 0.91633 0
M  V30 16671 C 1557.4 -2.25477 0.411423 0
M  V30 16672 C 1558.4 -1.53969 -0.463689 0
M  V30 16673 O 1559.59 -1.72151 -0.266379 0
M  V30 16674 C 1556.72 -3.38427 -0.409851 0
M  V30 16675 H 1557.92 -2.71656 1.27056 0
M  V30 16676 H 1555.47 -1.3995 0.695966 0
M  V30 16677 H 1556.21 -2.97614 -1.28828 0
M  V30 16678 H 1555.99 -3.91497 0.217435 0
M  V30 16679 H 1557.48 -4.10739 -0.753862 0
M  V30 16680 N 1557.92 -0.68059 -1.42147 0
M  V30 16681 C 1559.17 -0.204857 -2.01059 0
M  V30 16682 C 1559.49 1.19475 -1.54113 0
M  V30 16683 O 1558.76 1.80334 -0.765279 0
M  V30 16684 H 1557.34 -0.0727459 -0.743449 0
M  V30 16685 H 1560 -0.878396 -1.73983 0
M  V30 16686 H 1559.09 -0.210628 -3.11388 0
M  V30 16687 N 1559.4 1.51781 -0.424309 0
M  V30 16688 C 1560.67 1.94514 0.205791 0
M  V30 16689 C 1561.05 1.36219 1.61269 0
M  V30 16690 O 1560.4 0.544019 2.21929 0
M  V30 16691 C 1560.61 3.48445 0.196749 0
M  V30 16692 C 1561.96 4.22628 0.408702 0
M  V30 16693 O 1562.98 3.55133 0.275441 0
M  V30 16694 O 1561.84 5.42344 0.672698 0
M  V30 16695 H 1558.94 0.815576 0.136983 0
M  V30 16696 H 1561.48 1.6273 -0.481349 0
M  V30 16697 H 1560.25 3.83297 -0.787342 0
M  V30 16698 H 1559.88 3.86634 0.92735 0
M  V30 16699 N 1560.87 0.155222 1.56834 0
M  V30 16700 C 1561.81 -0.812448 2.14317 0
M  V30 16701 C 1562.82 -1.20502 1.09467 0
M  V30 16702 O 1564.01 -1.14767 1.36714 0
M  V30 16703 C 1561.11 -2.10279 2.65774 0
M  V30 16704 C 1560.28 -1.8763 3.95112 0
M  V30 16705 C 1559.34 -3.0073 4.31796 0
M  V30 16706 O 1558.37 -2.72064 4.9997 0
M  V30 16707 N 1559.57 -4.28114 3.92044 0
M  V30 16708 H 1562.33 -0.321106 2.97975 0
M  V30 16709 H 1559.89 -0.0280861 1.61876 0
M  V30 16710 H 1561.89 -2.85005 2.87323 0
M  V30 16711 H 1560.46 -2.50652 1.86796 0
M  V30 16712 H 1559.68 -0.968958 3.82106 0
M  V30 16713 H 1560.96 -1.69845 4.79614 0
M  V30 16714 H 1560.36 -4.54269 3.37129 0
M  V30 16715 H 1558.92 -4.99594 4.18627 0
M  V30 16716 N 1562.35 -1.57153 -0.118549 0
M  V30 16717 C 1563.28 -2.03409 -1.1466 0
M  V30 16718 C 1564.26 -0.918636 -1.43161 0
M  V30 16719 O 1565.45 -1.18838 -1.53594 0
M  V30 16720 C 1562.58 -2.43879 -2.47265 0
M  V30 16721 C 1561.53 -3.58873 -2.33225 0
M  V30 16722 C 1560.86 -3.85244 -3.70798 0
M  V30 16723 C 1562.16 -4.90582 -1.79239 0
M  V30 16724 H 1563.85 -2.89545 -0.761862 0
M  V30 16725 H 1561.4 -1.39296 -0.365034 0
M  V30 16726 H 1563.35 -2.74844 -3.19435 0
M  V30 16727 H 1562.07 -1.54715 -2.8763 0
M  V30 16728 H 1560.73 -3.28119 -1.63504 0
M  V30 16729 H 1560.38 -2.93285 -4.08648 0
M  V30 16730 H 1560.08 -4.62649 -3.62257 0
M  V30 16731 H 1561.61 -4.18661 -4.44472 0
M  V30 16732 H 1563.02 -5.20079 -2.41227 0
M  V30 16733 H 1561.42 -5.71989 -1.81518 0
M  V30 16734 H 1562.49 -4.79065 -0.74999 0
M  V30 16735 N 1563.83 0.388742 -1.5273 0
M  V30 16736 C 1564.76 1.48133 -1.80496 0
M  V30 16737 C 1565.74 1.56899 -0.657008 0
M  V30 16738 O 1566.93 1.71844 -0.904621 0
M  V30 16739 C 1564.06 2.85742 -1.97405 0
M  V30 16740 C 1563.01 2.91815 -3.13094 0
M  V30 16741 C 1562.34 4.31876 -3.15258 0
M  V30 16742 C 1563.64 2.61438 -4.52159 0
M  V30 16743 H 1565.33 1.25147 -2.7199 0
M  V30 16744 H 1562.88 0.600603 -1.30877 0
M  V30 16745 H 1564.83 3.62182 -2.15412 0
M  V30 16746 H 1563.55 3.10065 -1.02601 0
M  V30 16747 H 1562.21 2.17824 -2.9487 0
M  V30 16748 H 1561.86 4.53239 -2.18135 0
M  V30 16749 H 1561.56 4.3686 -3.92972 0
M  V30 16750 H 1563.08 5.10221 -3.3542 0
M  V30 16751 H 1564.5 3.27596 -4.70483 0
M  V30 16752 H 1562.89 2.77771 -5.31943 0
M  V30 16753 H 1563.96 1.56778 -4.58856 0
M  V30 16754 N 1565.31 1.43698 0.647203 0
M  V30 16755 C 1566.53 1.49301 1.43958 0
M  V30 16756 C 1566.96 0.11395 1.87755 0
M  V30 16757 O 1566.32 -0.893571 1.5775 0
M  V30 16758 C 1566.36 2.44905 2.64677 0
M  V30 16759 O 1565.47 1.93947 3.63948 0
M  V30 16760 H 1564.81 0.504771 0.431396 0
M  V30 16761 H 1567.34 1.88673 0.791432 0
M  V30 16762 H 1567.35 2.62409 3.12419 0
M  V30 16763 H 1566.02 3.45083 2.32143 0
M  V30 16764 H 1564.6 1.86133 3.23124 0
M  V30 16765 N 1566.79 -0.886131 1.30328 0
M  V30 16766 C 1568.03 -1.64026 1.19261 0
M  V30 16767 C 1568.37 -1.92553 -0.252379 0
M  V30 16768 O 1567.64 -1.54564 -1.18069 0
M  V30 16769 C 1567.92 -2.9808 2.0204 0
M  V30 16770 C 1567.78 -2.76534 3.54752 0
M  V30 16771 C 1569.1 -3.98989 1.85731 0
M  V30 16772 H 1566.21 -0.595224 0.4346 0
M  V30 16773 H 1568.86 -1.0255 1.59949 0
M  V30 16774 H 1567.01 -3.50552 1.67469 0
M  V30 16775 H 1568.68 -2.3086 3.99376 0
M  V30 16776 H 1566.92 -2.1106 3.78993 0
M  V30 16777 H 1567.59 -3.71849 4.07961 0
M  V30 16778 H 1570.07 -3.55673 2.15953 0
M  V30 16779 H 1568.94 -4.90699 2.45979 0
M  V30 16780 H 1569.21 -4.34501 0.816152 0
M  V30 16781 N 1568.26 -1.13026 -1.09832 0
M  V30 16782 C 1569.54 -0.800667 -1.78462 0
M  V30 16783 C 1569.92 0.708508 -1.98855 0
M  V30 16784 O 1569.27 1.64436 -1.58661 0
M  V30 16785 C 1569.48 -1.58284 -3.11042 0
M  V30 16786 C 1570.83 -1.77285 -3.85818 0
M  V30 16787 O 1571.85 -1.54848 -3.20781 0
M  V30 16788 O 1570.71 -2.14693 -5.02563 0
M  V30 16789 H 1567.8 -0.291895 -0.773774 0
M  V30 16790 H 1570.35 -1.23464 -1.16425 0
M  V30 16791 H 1569.12 -2.60867 -2.91657 0
M  V30 16792 H 1568.75 -1.14353 -3.80801 0
M  V30 16793 N 1569.74 1.27735 -0.923117 0
M  V30 16794 C 1570.99 1.94185 -0.56004 0
M  V30 16795 C 1571.31 1.72945 0.90084 0
M  V30 16796 O 1570.58 1.07453 1.63801 0
M  V30 16797 H 1569.16 0.718568 -0.204129 0
M  V30 16798 H 1571.82 1.55535 -1.17451 0
M  V30 16799 H 1570.92 3.02644 -0.762424 0
M  V30 16800 N 1571.22 0.688118 1.41784 0
M  V30 16801 C 1572.64 0.358943 1.55511 0
M  V30 16802 C 1572.84 -1.13469 1.66514 0
M  V30 16803 O 1571.89 -1.92039 1.63943 0
M  V30 16804 C 1573.21 1.10094 2.79821 0
M  V30 16805 C 1574.75 1.08456 2.93609 0
M  V30 16806 C 1575.23 1.80815 4.20797 0
M  V30 16807 N 1576.72 1.77748 4.27738 0
M  V30 16808 C 1577.45 2.30581 5.24995 0
M  V30 16809 N 1576.95 2.91854 6.28326 0
M  V30 16810 N 1578.74 2.2088 5.16884 0
M  V30 16811 H 1570.89 1.65695 1.32886 0
M  V30 16812 H 1573.16 0.698818 0.640592 0
M  V30 16813 H 1572.86 2.15589 2.77874 0
M  V30 16814 H 1572.74 0.674713 3.71117 0
M  V30 16815 H 1575.12 0.0378955 2.95076 0
M  V30 16816 H 1575.21 1.54978 2.03508 0
M  V30 16817 H 1574.85 2.85457 4.20092 0
M  V30 16818 H 1574.78 1.31732 5.09857 0
M  V30 16819 H 1577.27 1.33069 3.53696 0
M  V30 16820 H 1577.58 3.29755 6.98915 0
M  V30 16821 H 1575.93 2.95929 6.28849 0
M  V30 16822 H 1579.12 1.72689 4.35082 0
M  V30 16823 H 1579.29 2.62359 5.92513 0
M  V30 16824 N 1572.7 -1.51554 0.432352 0
M  V30 16825 C 1573.92 -2.06947 -0.136995 0
M  V30 16826 C 1574.35 -1.29817 -1.36122 0
M  V30 16827 O 1573.71 -0.334733 -1.78183 0
M  V30 16828 C 1573.75 -3.57871 -0.442785 0
M  V30 16829 O 1572.86 -3.82966 -1.53007 0
M  V30 16830 H 1572.2 -0.663988 -0.00405152 0
M  V30 16831 H 1574.73 -1.95225 0.612249 0
M  V30 16832 H 1574.74 -4.02042 -0.694694 0
M  V30 16833 H 1573.41 -4.13436 0.452013 0
M  V30 16834 H 1571.99 -3.50661 -1.26851 0
M  V30 16835 N 1574.18 -0.163538 -1.56749 0
M  V30 16836 C 1575.11 0.765571 -2.20593 0
M  V30 16837 C 1576.09 1.24489 -1.15916 0
M  V30 16838 O 1577.27 1.29946 -1.44318 0
M  V30 16839 C 1574.4 1.99823 -2.84057 0
M  V30 16840 C 1573.36 1.65506 -3.94705 0
M  V30 16841 C 1572.68 2.96172 -4.45181 0
M  V30 16842 C 1573.98 0.88902 -5.14678 0
M  V30 16843 H 1575.68 0.233431 -2.98489 0
M  V30 16844 H 1573.22 0.110836 -1.43573 0
M  V30 16845 H 1575.18 2.65316 -3.27392 0
M  V30 16846 H 1573.9 2.55437 -2.03517 0
M  V30 16847 H 1572.56 1.02384 -3.52013 0
M  V30 16848 H 1572.21 3.49811 -3.61443 0
M  V30 16849 H 1571.91 2.73968 -5.19823 0
M  V30 16850 H 1573.43 3.62708 -4.91198 0
M  V30 16851 H 1574.84 1.44637 -5.54755 0
M  V30 16852 H 1573.24 0.766302 -5.95187 0
M  V30 16853 H 1574.31 -0.116145 -4.84761 0
M  V30 16854 N 1575.65 1.57214 0.110213 0
M  V30 16855 C 1576.9 1.85586 0.817649 0
M  V30 16856 C 1577.23 0.750536 1.79111 0
M  V30 16857 O 1576.51 -0.242864 1.92978 0
M  V30 16858 C 1576.79 3.24565 1.55979 0
M  V30 16859 C 1576.64 4.45708 0.605339 0
M  V30 16860 C 1577.96 3.61233 2.51393 0
M  V30 16861 H 1575.08 0.675037 0.295794 0
M  V30 16862 H 1577.72 1.89824 0.0816541 0
M  V30 16863 H 1575.87 3.21083 2.18718 0
M  V30 16864 H 1577.55 4.61298 -0.0138894 0
M  V30 16865 H 1575.79 4.33722 -0.0824644 0
M  V30 16866 H 1576.46 5.39643 1.16143 0
M  V30 16867 H 1578.94 3.65563 1.98754 0
M  V30 16868 H 1577.81 4.59438 3.00346 0
M  V30 16869 H 1578.07 2.89116 3.34461 0
M  V30 16870 N 1577.13 -0.380637 1.52934 0
M  V30 16871 C 1578.38 -1.12261 1.68053 0
M  V30 16872 C 1578.7 -1.90263 0.427191 0
M  V30 16873 O 1577.97 -1.87768 -0.558559 0
M  V30 16874 H 1576.55 -0.41742 0.619491 0
M  V30 16875 H 1579.21 -0.430906 1.90077 0
M  V30 16876 H 1578.31 -1.82085 2.53479 0
M  V30 16877 N 1578.61 -1.44039 -0.639573 0
M  V30 16878 C 1579.54 -1.53073 -1.76327 0
M  V30 16879 C 1580.52 -0.384344 -1.65701 0
M  V30 16880 O 1581.71 -0.603362 -1.84589 0
M  V30 16881 C 1578.84 -1.46646 -3.14821 0
M  V30 16882 C 1577.79 -2.59673 -3.40226 0
M  V30 16883 C 1577.12 -2.38298 -4.78663 0
M  V30 16884 C 1578.42 -4.01864 -3.33621 0
M  V30 16885 H 1580.11 -2.47126 -1.69023 0
M  V30 16886 H 1577.66 -1.1894 -0.811749 0
M  V30 16887 H 1579.61 -1.51567 -3.93199 0
M  V30 16888 H 1578.33 -0.491035 -3.22888 0
M  V30 16889 H 1576.99 -2.54127 -2.64225 0
M  V30 16890 H 1576.64 -1.38968 -4.83422 0
M  V30 16891 H 1576.34 -3.14074 -4.9662 0
M  V30 16892 H 1577.86 -2.45025 -5.59281 0
M  V30 16893 H 1579.28 -4.08824 -4.01915 0
M  V30 16894 H 1577.68 -4.77775 -3.63113 0
M  V30 16895 H 1578.75 -4.26033 -2.31569 0
M  V30 16896 N 1580.09 0.879207 -1.30796 0
M  V30 16897 C 1581.31 1.66975 -1.23021 0
M  V30 16898 C 1581.74 1.87004 0.202798 0
M  V30 16899 O 1581.1 1.40514 1.14566 0
M  V30 16900 C 1581.14 3.02028 -1.97007 0
M  V30 16901 O 1580.25 3.91338 -1.30109 0
M  V30 16902 H 1579.59 0.509998 -0.425204 0
M  V30 16903 H 1582.12 1.09688 -1.72713 0
M  V30 16904 H 1582.13 3.5203 -2.06249 0
M  V30 16905 H 1580.8 2.8677 -3.01224 0
M  V30 16906 H 1579.38 3.49781 -1.29258 0
M  V30 16907 N 1581.57 1.13606 1.09231 0
M  V30 16908 C 1582.5 0.77306 2.15769 0
M  V30 16909 C 1583.51 -0.206148 1.6149 0
M  V30 16910 O 1584.7 0.014338 1.78494 0
M  V30 16911 C 1581.8 0.125475 3.38668 0
M  V30 16912 C 1580.97 1.13728 4.22356 0
M  V30 16913 C 1580.03 0.515021 5.23674 0
M  V30 16914 O 1579.06 1.1756 5.56928 0
M  V30 16915 N 1580.26 -0.712028 5.76117 0
M  V30 16916 H 1583.03 1.68984 2.47517 0
M  V30 16917 H 1580.59 1.02935 1.24964 0
M  V30 16918 H 1582.58 -0.303109 4.03563 0
M  V30 16919 H 1581.15 -0.694284 3.04792 0
M  V30 16920 H 1580.37 1.74309 3.53568 0
M  V30 16921 H 1581.66 1.82106 4.75094 0
M  V30 16922 H 1581.06 -1.26745 5.51319 0
M  V30 16923 H 1579.61 -1.08324 6.42736 0
M  V30 16924 N 1583.05 -1.27244 0.929878 0
M  V30 16925 C 1583.96 -2.30506 0.436355 0
M  V30 16926 C 1584.97 -1.67131 -0.484054 0
M  V30 16927 O 1586.15 -1.9804 -0.366332 0
M  V30 16928 C 1583.21 -3.45391 -0.300942 0
M  V30 16929 C 1582.27 -4.24279 0.654647 0
M  V30 16930 C 1581.51 -5.33679 -0.047558 0
M  V30 16931 O 1581.73 -5.56161 -1.26654 0
M  V30 16932 O 1580.66 -5.98642 0.62538 0
M  V30 16933 H 1584.49 -2.74762 1.29382 0
M  V30 16934 H 1582.07 -1.32234 0.695311 0
M  V30 16935 H 1583.96 -4.1526 -0.716718 0
M  V30 16936 H 1582.63 -3.03187 -1.13398 0
M  V30 16937 H 1581.54 -3.56936 1.12015 0
M  V30 16938 H 1582.87 -4.70204 1.45497 0
M  V30 16939 N 1584.52 -0.695628 -1.41417 0
M  V30 16940 C 1585.94 -0.367185 -1.55319 0
M  V30 16941 C 1586.14 1.12584 -1.67114 0
M  V30 16942 O 1585.2 1.91166 -1.64959 0
M  V30 16943 C 1586.51 -1.11576 -2.79233 0
M  V30 16944 C 1588.06 -1.10011 -2.9303 0
M  V30 16945 C 1588.53 -1.83044 -4.19832 0
M  V30 16946 N 1590.02 -1.80014 -4.26789 0
M  V30 16947 C 1590.76 -2.33362 -5.23765 0
M  V30 16948 N 1590.25 -2.95182 -6.26769 0
M  V30 16949 N 1592.05 -2.23618 -5.15705 0
M  V30 16950 H 1584.2 -1.66398 -1.32006 0
M  V30 16951 H 1586.46 -0.702205 -0.636877 0
M  V30 16952 H 1586.17 -2.1706 -2.76727 0
M  V30 16953 H 1586.04 -0.694385 -3.70753 0
M  V30 16954 H 1588.43 -0.0535436 -2.95051 0
M  V30 16955 H 1588.51 -1.56055 -2.02683 0
M  V30 16956 H 1588.15 -2.8768 -4.18572 0
M  V30 16957 H 1588.08 -1.34434 -5.09151 0
M  V30 16958 H 1590.57 -1.34942 -3.52986 0
M  V30 16959 H 1590.89 -3.33456 -6.97156 0
M  V30 16960 H 1589.23 -2.99259 -6.27271 0
M  V30 16961 H 1592.42 -1.74994 -4.3416 0
M  V30 16962 H 1592.6 -2.65497 -5.91113 0
M  V30 16963 N 1586 1.51322 -0.440383 0
M  V30 16964 C 1586.96 2.26388 0.357911 0
M  V30 16965 C 1587.96 1.2995 0.947083 0
M  V30 16966 O 1589.15 1.53637 0.821057 0
M  V30 16967 C 1586.29 3.05797 1.50669 0
M  V30 16968 H 1587.48 2.98396 -0.300002 0
M  V30 16969 H 1585.03 1.55096 -0.193628 0
M  V30 16970 H 1585.77 2.38213 2.20057 0
M  V30 16971 H 1585.55 3.76634 1.09037 0
M  V30 16972 H 1587.04 3.6265 2.07062 0
M  V30 16973 N 1587.48 0.171848 1.5666 0
M  V30 16974 C 1588.44 -0.744316 2.16778 0
M  V30 16975 C 1589.44 -1.15769 1.11598 0
M  V30 16976 O 1590.63 -1.07456 1.37109 0
M  V30 16977 C 1587.76 -2.01319 2.75106 0
M  V30 16978 H 1588.96 -0.220952 2.99085 0
M  V30 16979 H 1586.51 -0.0777149 1.56107 0
M  V30 16980 H 1587.25 -2.57963 1.96534 0
M  V30 16981 H 1587.03 -1.72575 3.5208 0
M  V30 16982 H 1588.52 -2.667 3.21342 0
M  V30 16983 N 1588.96 -1.5727 -0.101874 0
M  V30 16984 C 1589.87 -2.04896 -1.14257 0
M  V30 16985 C 1590.88 -0.972561 -1.44282 0
M  V30 16986 O 1592.06 -1.28526 -1.55058 0
M  V30 16987 C 1589.12 -2.45818 -2.44488 0
M  V30 16988 C 1588.19 -3.6762 -2.21707 0
M  V30 16989 C 1587.42 -4.06581 -3.45728 0
M  V30 16990 O 1587.64 -3.45702 -4.53703 0
M  V30 16991 O 1586.58 -4.99578 -3.35716 0
M  V30 16992 H 1590.4 -2.93827 -0.768085 0
M  V30 16993 H 1587.99 -1.46065 -0.313902 0
M  V30 16994 H 1589.87 -2.72796 -3.21186 0
M  V30 16995 H 1588.54 -1.60028 -2.81377 0
M  V30 16996 H 1587.45 -3.45768 -1.42812 0
M  V30 16997 H 1588.78 -4.54169 -1.89714 0
M  V30 16998 N 1590.44 0.372521 -1.53134 0
M  V30 16999 C 1591.37 1.4621 -1.82057 0
M  V30 17000 C 1592.35 1.56194 -0.673612 0
M  V30 17001 O 1593.53 1.70875 -0.922797 0
M  V30 17002 C 1590.66 2.83632 -2.00425 0
M  V30 17003 C 1589.62 2.88478 -3.16171 0
M  V30 17004 C 1588.94 4.28508 -3.19821 0
M  V30 17005 C 1590.24 2.56628 -4.54906 0
M  V30 17006 H 1591.94 1.22256 -2.73302 0
M  V30 17007 H 1589.48 0.586688 -1.31507 0
M  V30 17008 H 1591.43 3.59876 -2.19242 0
M  V30 17009 H 1590.16 3.0896 -1.05884 0
M  V30 17010 H 1588.82 2.14684 -2.97164 0
M  V30 17011 H 1588.47 4.509 -2.2293 0
M  V30 17012 H 1588.17 4.32667 -3.97584 0
M  V30 17013 H 1589.69 5.06635 -3.40813 0
M  V30 17014 H 1591.1 3.22587 -4.73931 0
M  V30 17015 H 1589.5 2.72114 -5.34859 0
M  V30 17016 H 1590.57 1.51902 -4.60493 0
M  V30 17017 N 1591.91 1.44376 0.631925 0
M  V30 17018 C 1592.85 1.45649 1.75675 0
M  V30 17019 C 1593.82 0.31542 1.59511 0
M  V30 17020 O 1595.01 0.512271 1.81406 0
M  V30 17021 C 1592.14 1.2884 3.13238 0
M  V30 17022 C 1591.18 2.46499 3.48053 0
M  V30 17023 S 1592.01 4.0903 3.45622 0
M  V30 17024 C 1593.17 3.94643 4.85807 0
M  V30 17025 H 1593.4 2.40825 1.74328 0
M  V30 17026 H 1590.94 1.31664 0.806467 0
M  V30 17027 H 1592.89 1.19829 3.92621 0
M  V30 17028 H 1591.56 0.351754 3.12124 0
M  V30 17029 H 1590.75 2.30599 4.48152 0
M  V30 17030 H 1590.35 2.52245 2.76131 0
M  V30 17031 H 1592.64 3.58283 5.75012 0
M  V30 17032 H 1593.59 4.94569 5.06761 0
M  V30 17033 H 1593.99 3.26717 4.60343 0
M  V30 17034 N 1593.39 -0.872258 1.31261 0
M  V30 17035 C 1594.62 -1.65795 1.23772 0
M  V30 17036 C 1595.03 -1.87766 -0.197351 0
M  V30 17037 O 1594.39 -1.43418 -1.1286 0
M  V30 17038 C 1594.44 -3.02722 1.9759 0
M  V30 17039 O 1594.16 -2.81734 3.35496 0
M  V30 17040 C 1595.66 -3.97165 1.96913 0
M  V30 17041 H 1592.88 -0.516959 0.427778 0
M  V30 17042 H 1595.43 -1.0889 1.73099 0
M  V30 17043 H 1593.58 -3.56322 1.5203 0
M  V30 17044 H 1594 -3.6869 3.73052 0
M  V30 17045 H 1595.47 -4.90566 2.53079 0
M  V30 17046 H 1595.95 -4.28778 0.951089 0
M  V30 17047 H 1596.55 -3.495 2.42342 0
M  V30 17048 N 1594.87 -1.14184 -1.08627 0
M  V30 17049 C 1596.29 -0.881757 -1.33031 0
M  V30 17050 C 1596.49 0.478313 -1.95741 0
M  V30 17051 O 1595.54 1.22308 -2.209 0
M  V30 17052 C 1596.85 -2.01274 -2.23404 0
M  V30 17053 C 1598.4 -2.04578 -2.3689 0
M  V30 17054 C 1598.88 -3.16962 -3.30604 0
M  V30 17055 N 1600.37 -3.16526 -3.3818 0
M  V30 17056 C 1601.1 -4.00124 -4.10716 0
M  V30 17057 N 1600.6 -4.93757 -4.8598 0
M  V30 17058 N 1602.39 -3.88193 -4.06525 0
M  V30 17059 H 1594.54 -2.01787 -0.663017 0
M  V30 17060 H 1596.81 -0.879152 -0.354677 0
M  V30 17061 H 1596.51 -2.9938 -1.84566 0
M  V30 17062 H 1596.39 -1.93393 -3.2385 0
M  V30 17063 H 1598.77 -1.0708 -2.74987 0
M  V30 17064 H 1598.85 -2.16529 -1.36194 0
M  V30 17065 H 1598.5 -4.14704 -2.93228 0
M  V30 17066 H 1598.43 -3.02248 -4.31223 0
M  V30 17067 H 1600.92 -2.48708 -2.84522 0
M  V30 17068 H 1601.23 -5.54015 -5.38783 0
M  V30 17069 H 1599.58 -4.97756 -4.8504 0
M  V30 17070 H 1602.77 -3.14365 -3.46831 0
M  V30 17071 H 1602.94 -4.53571 -4.62793 0
M  V30 17072 N 1596.35 1.26749 -0.936613 0
M  V30 17073 C 1597.58 1.98059 -0.598357 0
M  V30 17074 C 1597.99 1.6979 0.825646 0
M  V30 17075 O 1597.35 0.963514 1.54992 0
M  V30 17076 C 1597.4 3.51948 -0.825519 0
M  V30 17077 O 1597.12 3.79232 -2.19351 0
M  V30 17078 C 1598.62 4.40503 -0.497186 0
M  V30 17079 H 1595.84 0.631826 -0.225914 0
M  V30 17080 H 1598.39 1.61379 -1.25607 0
M  V30 17081 H 1596.54 3.86806 -0.214479 0
M  V30 17082 H 1596.95 4.73782 -2.25014 0
M  V30 17083 H 1598.43 5.47457 -0.706779 0
M  V30 17084 H 1598.91 4.35516 0.567645 0
M  V30 17085 H 1599.51 4.11181 -1.08675 0
M  V30 17086 N 1597.83 0.703118 1.41046 0
M  V30 17087 C 1599.05 0.245088 2.05947 0
M  V30 17088 C 1599.48 -1.09988 1.52592 0
M  V30 17089 O 1598.83 -1.69015 0.656023 0
M  V30 17090 C 1598.88 0.221444 3.59919 0
M  V30 17091 O 1597.99 -0.801324 4.0454 0
M  V30 17092 H 1597.33 0.117862 0.653456 0
M  V30 17093 H 1599.86 0.960099 1.80674 0
M  V30 17094 H 1599.87 0.0548681 4.07963 0
M  V30 17095 H 1598.54 1.20301 3.98121 0
M  V30 17096 H 1597.12 -0.603489 3.67984 0
M  V30 17097 N 1599.3 -1.51086 0.448402 0
M  V30 17098 C 1600.53 -2.07081 -0.115038 0
M  V30 17099 C 1600.95 -1.31253 -1.34737 0
M  V30 17100 O 1600.31 -0.353613 -1.77818 0
M  V30 17101 C 1600.36 -3.58321 -0.404803 0
M  V30 17102 O 1599.46 -3.84567 -1.48936 0
M  V30 17103 H 1598.81 -0.663993 0.00299118 0
M  V30 17104 H 1601.34 -1.94564 0.632921 0
M  V30 17105 H 1601.35 -4.02756 -0.652013 0
M  V30 17106 H 1600.02 -4.12934 0.495838 0
M  V30 17107 H 1598.6 -3.51987 -1.23124 0
M  V30 17108 N 1600.78 -0.180154 -1.56567 0
M  V30 17109 C 1602.03 0.463205 -1.97439 0
M  V30 17110 C 1602.36 1.62296 -1.06647 0
M  V30 17111 O 1601.64 1.94157 -0.115382 0
M  V30 17112 C 1601.92 0.937709 -3.47677 0
M  V30 17113 C 1601.77 -0.222835 -4.49248 0
M  V30 17114 C 1603.09 1.80836 -4.01231 0
M  V30 17115 H 1600.21 0.166899 -0.717854 0
M  V30 17116 H 1602.85 -0.268069 -1.88099 0
M  V30 17117 H 1601 1.56084 -3.55767 0
M  V30 17118 H 1602.67 -0.860155 -4.5321 0
M  V30 17119 H 1600.92 -0.876962 -4.24843 0
M  V30 17120 H 1601.59 0.151444 -5.51792 0
M  V30 17121 H 1604.06 1.28297 -3.95827 0
M  V30 17122 H 1602.94 2.10937 -5.06751 0
M  V30 17123 H 1603.2 2.75728 -3.45581 0
M  V30 17124 N 1602.26 1.57322 0.0935319 0
M  V30 17125 C 1603.51 1.86443 0.797919 0
M  V30 17126 C 1603.84 0.769491 1.78304 0
M  V30 17127 O 1603.11 -0.222383 1.93225 0
M  V30 17128 C 1603.4 3.26201 1.52528 0
M  V30 17129 C 1603.25 4.46325 0.558031 0
M  V30 17130 C 1604.57 3.63879 2.47548 0
M  V30 17131 H 1601.69 0.678136 0.288618 0
M  V30 17132 H 1604.33 1.899 0.0615161 0
M  V30 17133 H 1602.48 3.23385 2.15301 0
M  V30 17134 H 1604.15 4.61257 -0.0628154 0
M  V30 17135 H 1602.4 4.3361 -0.128462 0
M  V30 17136 H 1603.07 5.40845 1.10413 0
M  V30 17137 H 1605.54 3.6765 1.94866 0
M  V30 17138 H 1604.42 4.62598 2.95456 0
M  V30 17139 H 1604.68 2.92647 3.31376 0
M  V30 17140 N 1603.74 -0.364395 1.53329 0
M  V30 17141 C 1604.97 -1.1275 1.7348 0
M  V30 17142 C 1605.38 -1.83002 0.4643 0
M  V30 17143 O 1604.74 -1.73603 -0.562864 0
M  V30 17144 C 1604.79 -2.15691 2.90103 0
M  V30 17145 O 1604.51 -1.48298 4.12237 0
M  V30 17146 C 1606.01 -3.04539 3.22135 0
M  V30 17147 H 1603.23 -0.337084 0.580186 0
M  V30 17148 H 1605.78 -0.422952 2.00078 0
M  V30 17149 H 1603.93 -2.81742 2.65895 0
M  V30 17150 H 1604.34 -2.16896 4.77553 0
M  V30 17151 H 1605.82 -3.72747 4.07141 0
M  V30 17152 H 1606.3 -3.69414 2.3755 0
M  V30 17153 H 1606.9 -2.44103 3.48273 0
M  V30 17154 N 1605.22 -1.44709 -0.62426 0
M  V30 17155 C 1606.15 -1.54934 -1.74693 0
M  V30 17156 C 1607.13 -0.401897 -1.65284 0
M  V30 17157 O 1608.31 -0.622906 -1.83939 0
M  V30 17158 C 1605.44 -1.49976 -3.13248 0
M  V30 17159 C 1604.4 -2.63267 -3.37453 0
M  V30 17160 C 1603.72 -2.43362 -4.76108 0
M  V30 17161 C 1605.02 -4.0538 -3.2934 0
M  V30 17162 H 1606.72 -2.48905 -1.66393 0
M  V30 17163 H 1604.26 -1.19794 -0.799088 0
M  V30 17164 H 1606.22 -1.55729 -3.91569 0
M  V30 17165 H 1604.94 -0.525254 -3.22349 0
M  V30 17166 H 1603.6 -2.56915 -2.61515 0
M  V30 17167 H 1603.25 -1.44088 -4.81921 0
M  V30 17168 H 1602.95 -3.19324 -4.93261 0
M  V30 17169 H 1604.47 -2.50943 -5.56651 0
M  V30 17170 H 1605.88 -4.13064 -3.97556 0
M  V30 17171 H 1604.28 -4.81599 -3.58025 0
M  V30 17172 H 1605.35 -4.28465 -2.27038 0
M  V30 17173 N 1606.69 0.865285 -1.31722 0
M  V30 17174 C 1607.6 2.00542 -1.21738 0
M  V30 17175 C 1608.62 1.7349 -0.133124 0
M  V30 17176 O 1609.8 1.98303 -0.351809 0
M  V30 17177 C 1606.86 3.33993 -0.930045 0
M  V30 17178 C 1605.92 3.74337 -2.10167 0
M  V30 17179 C 1605.16 5.0142 -1.82795 0
M  V30 17180 O 1605.38 5.65242 -0.765345 0
M  V30 17181 O 1604.31 5.38642 -2.68604 0
M  V30 17182 H 1608.14 2.11898 -2.17561 0
M  V30 17183 H 1605.72 0.994313 -1.11507 0
M  V30 17184 H 1607.61 4.14008 -0.785846 0
M  V30 17185 H 1606.28 3.237 -0.00188642 0
M  V30 17186 H 1605.19 2.94943 -2.3013 0
M  V30 17187 H 1606.52 3.89261 -3.01225 0
M  V30 17188 N 1608.17 1.14759 1.0802 0
M  V30 17189 C 1609.42 0.919609 1.80751 0
M  V30 17190 C 1609.75 -0.552268 1.86182 0
M  V30 17191 O 1609.03 -1.40922 1.34057 0
M  V30 17192 C 1609.31 1.52611 3.26162 0
M  V30 17193 C 1609.16 3.06811 3.28918 0
M  V30 17194 C 1610.48 1.20625 4.23246 0
M  V30 17195 H 1607.6 0.33551 0.656203 0
M  V30 17196 H 1610.24 1.41816 1.26444 0
M  V30 17197 H 1608.39 1.10213 3.72539 0
M  V30 17198 H 1610.06 3.58068 2.90835 0
M  V30 17199 H 1608.31 3.41055 2.68075 0
M  V30 17200 H 1608.98 3.44357 4.31419 0
M  V30 17201 H 1611.45 1.57287 3.85227 0
M  V30 17202 H 1610.33 1.65689 5.23296 0
M  V30 17203 H 1610.59 0.122177 4.41931 0
M  V30 17204 N 1609.65 -1.26251 0.943322 0
M  V30 17205 C 1610.61 -2.24554 0.459158 0
M  V30 17206 C 1611.61 -1.54918 -0.430926 0
M  V30 17207 O 1612.8 -1.72678 -0.229803 0
M  V30 17208 C 1609.94 -3.39221 -0.337973 0
M  V30 17209 H 1611.13 -2.689 1.32789 0
M  V30 17210 H 1608.68 -1.38442 0.725495 0
M  V30 17211 H 1609.42 -3.00279 -1.22486 0
M  V30 17212 H 1609.2 -3.90947 0.300428 0
M  V30 17213 H 1610.69 -4.12246 -0.666568 0
M  V30 17214 N 1611.13 -0.710588 -1.40671 0
M  V30 17215 C 1612.08 -0.0548139 -2.30735 0
M  V30 17216 C 1613.05 0.755572 -1.4792 0
M  V30 17217 O 1614.23 0.720541 -1.76672 0
M  V30 17218 C 1611.37 0.864648 -3.34093 0
M  V30 17219 C 1610.48 0.0442717 -4.31977 0
M  V30 17220 C 1609.62 0.962752 -5.22403 0
M  V30 17221 C 1608.66 0.13617 -6.11949 0
M  V30 17222 N 1607.8 1.00926 -6.94808 0
M  V30 17223 H 1612.64 -0.828555 -2.8625 0
M  V30 17224 H 1610.17 -0.420286 -1.40968 0
M  V30 17225 H 1612.13 1.41193 -3.92582 0
M  V30 17226 H 1610.76 1.60462 -2.80092 0
M  V30 17227 H 1609.81 -0.620132 -3.75311 0
M  V30 17228 H 1611.12 -0.595895 -4.95228 0
M  V30 17229 H 1610.28 1.57874 -5.85799 0
M  V30 17230 H 1609.02 1.63675 -4.59415 0
M  V30 17231 H 1608.02 -0.492793 -5.47587 0
M  V30 17232 H 1609.25 -0.534251 -6.76995 0
M  V30 17233 H 1607.19 1.669 -6.34413 0
M  V30 17234 H 1607.11 0.425013 -7.54804 0
M  V30 17235 H 1608.38 1.61159 -7.62659 0
M  V30 17236 N 1612.61 1.50847 -0.456408 0
M  V30 17237 C 1613.54 2.26004 0.381421 0
M  V30 17238 C 1614.55 1.30757 0.969872 0
M  V30 17239 O 1615.74 1.56375 0.86077 0
M  V30 17240 C 1612.84 3.01506 1.54748 0
M  V30 17241 C 1612.01 4.23997 1.07448 0
M  V30 17242 C 1611.07 4.81917 2.11288 0
M  V30 17243 O 1610.1 5.43238 1.69945 0
M  V30 17244 N 1611.3 4.67622 3.43962 0
M  V30 17245 H 1614.07 2.98545 -0.262823 0
M  V30 17246 H 1611.63 1.59347 -0.286357 0
M  V30 17247 H 1613.62 3.37137 2.23877 0
M  V30 17248 H 1612.19 2.31856 2.0967 0
M  V30 17249 H 1611.41 3.93642 0.209584 0
M  V30 17250 H 1612.7 5.03446 0.736144 0
M  V30 17251 H 1612.1 4.18821 3.8027 0
M  V30 17252 H 1610.65 5.07562 4.0893 0
M  V30 17253 N 1614.09 0.188454 1.56469 0
M  V30 17254 C 1615.33 -0.451165 1.97 0
M  V30 17255 C 1615.65 -1.6261 1.07624 0
M  V30 17256 O 1614.92 -1.95354 0.146125 0
M  V30 17257 H 1613.5 -0.16967 0.727476 0
M  V30 17258 H 1616.17 0.273638 1.9297 0
M  V30 17259 H 1615.26 -0.799741 3.0168 0
M  V30 17260 N 1615.56 -1.5737 -0.0851874 0
M  V30 17261 C 1616.53 -2.01789 -1.08692 0
M  V30 17262 C 1617.53 -0.912872 -1.32376 0
M  V30 17263 O 1618.72 -1.1781 -1.28322 0
M  V30 17264 C 1615.85 -2.38708 -2.43375 0
M  V30 17265 H 1617.04 -2.91511 -0.704359 0
M  V30 17266 H 1614.59 -1.52765 -0.330528 0
M  V30 17267 H 1615.33 -1.5197 -2.86488 0
M  V30 17268 H 1615.11 -3.19331 -2.2753 0
M  V30 17269 H 1616.6 -2.73697 -3.15404 0
M  V30 17270 N 1617.04 0.356258 -1.53521 0
M  V30 17271 C 1618.29 1.09526 -1.69372 0
M  V30 17272 C 1618.6 1.90189 -0.456912 0
M  V30 17273 O 1619.81 2.66928 -0.496141 0
M  V30 17274 C 1618.27 1.99643 -2.99451 0
M  V30 17275 C 1617.87 1.24248 -4.30426 0
M  V30 17276 C 1619.62 2.73478 -3.24669 0
M  V30 17277 C 1617.52 2.13321 -5.51587 0
M  V30 17278 H 1616.45 0.412594 -0.631096 0
M  V30 17279 H 1619.11 0.355603 -1.80021 0
M  V30 17280 H 1617.49 2.77377 -2.82627 0
M  V30 17281 H 1618.66 0.515123 -4.57912 0
M  V30 17282 H 1616.98 0.622355 -4.11723 0
M  V30 17283 H 1619.57 3.40366 -4.12377 0
M  V30 17284 H 1619.92 3.39355 -2.4113 0
M  V30 17285 H 1620.45 2.02823 -3.4221 0
M  V30 17286 H 1617.19 1.52006 -6.37632 0
M  V30 17287 H 1616.71 2.8388 -5.28368 0
M  V30 17288 H 1618.39 2.72666 -5.86739 0
M  V30 17289 N 1618.52 1.45038 0.616577 0
M  V30 17290 C 1619.75 1.51874 1.40064 0
M  V30 17291 C 1620.16 0.147105 1.88627 0
M  V30 17292 O 1619.5 -0.85995 1.62329 0
M  V30 17293 C 1619.56 2.43421 2.64549 0
M  V30 17294 C 1619.23 3.90326 2.37685 0
M  V30 17295 C 1620.22 4.80471 1.98605 0
M  V30 17296 C 1617.91 4.35163 2.50875 0
M  V30 17297 C 1619.9 6.13456 1.73064 0
M  V30 17298 C 1617.59 5.68192 2.24947 0
M  V30 17299 C 1618.59 6.57157 1.86102 0
M  V30 17300 O 1618.28 7.87721 1.60472 0
M  V30 17301 H 1618.01 0.517048 0.435474 0
M  V30 17302 H 1620.56 1.90826 0.759899 0
M  V30 17303 H 1618.79 1.99423 3.31312 0
M  V30 17304 H 1620.48 2.41042 3.26579 0
M  V30 17305 H 1621.25 4.47098 1.87959 0
M  V30 17306 H 1617.13 3.66165 2.80078 0
M  V30 17307 H 1620.67 6.82855 1.42669 0
M  V30 17308 H 1616.57 6.01122 2.35207 0
M  V30 17309 H 1617.33 7.99661 1.74598 0
M  V30 17310 N 1620 -0.858287 1.32179 0
M  V30 17311 C 1620.95 -1.95454 1.17396 0
M  V30 17312 C 1621.93 -1.60692 0.0818403 0
M  V30 17313 O 1623.12 -1.743 0.307973 0
M  V30 17314 C 1620.25 -3.31416 0.895443 0
M  V30 17315 C 1619.34 -3.72409 2.0291 0
M  V30 17316 N 1619.73 -3.8526 3.27732 0
M  V30 17317 C 1618.03 -4.02009 1.93145 0
M  V30 17318 C 1618.73 -4.20479 4.01961 0
M  V30 17319 N 1617.7 -4.318 3.30227 0
M  V30 17320 H 1621.51 -2.03518 2.12033 0
M  V30 17321 H 1619.02 -1.04982 1.23905 0
M  V30 17322 H 1621.02 -4.09718 0.770504 0
M  V30 17323 H 1619.68 -3.24672 -0.0425798 0
M  V30 17324 H 1620.69 -3.69677 3.62711 0
M  V30 17325 H 1617.37 -4.03587 1.06882 0
M  V30 17326 H 1618.76 -4.37921 5.09583 0
M  V30 17327 N 1621.48 -1.1533 -1.07409 0
M  V30 17328 C 1622.72 -0.925974 -1.79639 0
M  V30 17329 C 1623.04 0.548365 -1.87131 0
M  V30 17330 O 1622.31 1.39854 -1.37178 0
M  V30 17331 H 1620.89 -0.339599 -0.665343 0
M  V30 17332 H 1623.56 -1.45383 -1.29806 0
M  V30 17333 H 1622.65 -1.33484 -2.82114 0
M  V30 17334 N 1622.95 1.25748 -0.950004 0
M  V30 17335 C 1623.88 2.28419 -0.484467 0
M  V30 17336 C 1624.86 1.63569 0.466813 0
M  V30 17337 O 1626.05 1.90705 0.366766 0
M  V30 17338 C 1623.18 3.46449 0.242916 0
M  V30 17339 C 1622.13 4.23447 -0.622657 0
M  V30 17340 C 1621.46 5.34182 0.235199 0
M  V30 17341 C 1622.76 4.86576 -1.89845 0
M  V30 17342 H 1624.45 2.6761 -1.34257 0
M  V30 17343 H 1622 1.28646 -0.647014 0
M  V30 17344 H 1623.95 4.17394 0.579693 0
M  V30 17345 H 1622.68 3.06235 1.13523 0
M  V30 17346 H 1621.34 3.54279 -0.942453 0
M  V30 17347 H 1620.98 4.90209 1.12713 0
M  V30 17348 H 1620.68 5.86612 -0.340609 0
M  V30 17349 H 1622.21 6.07961 0.567048 0
M  V30 17350 H 1623.62 5.49688 -1.62837 0
M  V30 17351 H 1622.02 5.49162 -2.41954 0
M  V30 17352 H 1623.09 4.09021 -2.60441 0
M  V30 17353 N 1624.43 0.718038 1.40292 0
M  V30 17354 C 1625.39 0.0757483 2.29075 0
M  V30 17355 C 1626.39 -0.684831 1.45488 0
M  V30 17356 O 1627.58 -0.516369 1.66371 0
M  V30 17357 C 1624.72 -0.902534 3.28736 0
M  V30 17358 H 1625.91 0.857729 2.87373 0
M  V30 17359 H 1623.46 0.482839 1.48655 0
M  V30 17360 H 1624.2 -1.71148 2.75461 0
M  V30 17361 H 1623.98 -0.360009 3.90444 0
M  V30 17362 H 1625.47 -1.34903 3.9521 0
M  V30 17363 N 1625.91 -1.50602 0.464402 0
M  V30 17364 C 1627.14 -2.06701 -0.0907765 0
M  V30 17365 C 1627.55 -1.32901 -1.341 0
M  V30 17366 O 1626.91 -0.396323 -1.78145 0
M  V30 17367 C 1626.96 -3.59437 -0.385667 0
M  V30 17368 O 1626.68 -4.30453 0.81496 0
M  V30 17369 C 1628.18 -4.32137 -0.988549 0
M  V30 17370 H 1625.4 -0.670987 0.00410069 0
M  V30 17371 H 1627.95 -1.93853 0.651264 0
M  V30 17372 H 1626.1 -3.7211 -1.07763 0
M  V30 17373 H 1626.52 -5.2155 0.55551 0
M  V30 17374 H 1627.99 -5.40001 -1.1447 0
M  V30 17375 H 1628.47 -3.92194 -1.97688 0
M  V30 17376 H 1629.07 -4.23977 -0.335166 0
M  V30 17377 N 1627.39 -0.19675 -1.56367 0
M  V30 17378 C 1628.32 0.718607 -2.22167 0
M  V30 17379 C 1629.3 1.22002 -1.1853 0
M  V30 17380 O 1630.48 1.26856 -1.47042 0
M  V30 17381 C 1627.61 1.93753 -2.88231 0
M  V30 17382 C 1626.57 1.57096 -3.98127 0
M  V30 17383 C 1625.89 2.86663 -4.51363 0
M  V30 17384 C 1627.19 0.779649 -5.16448 0
M  V30 17385 H 1628.89 0.170064 -2.98917 0
M  V30 17386 H 1626.43 0.0803568 -1.43776 0
M  V30 17387 H 1628.39 2.58312 -3.32946 0
M  V30 17388 H 1627.11 2.51063 -2.0889 0
M  V30 17389 H 1625.77 0.948947 -3.54105 0
M  V30 17390 H 1625.42 3.42066 -3.68782 0
M  V30 17391 H 1625.12 2.6288 -5.25517 0
M  V30 17392 H 1626.64 3.52207 -4.98781 0
M  V30 17393 H 1628.06 1.32838 -5.57698 0
M  V30 17394 H 1626.45 0.639882 -5.96679 0
M  V30 17395 H 1627.52 -0.218944 -4.84405 0
M  V30 17396 N 1628.87 1.57413 0.0768405 0
M  V30 17397 C 1629.8 2.06378 1.09226 0
M  V30 17398 C 1630.78 0.956269 1.40675 0
M  V30 17399 O 1631.96 1.22868 1.5039 0
M  V30 17400 C 1629.09 2.50349 2.40712 0
M  V30 17401 C 1628.05 3.64931 2.23628 0
M  V30 17402 C 1627.37 3.9494 3.60453 0
M  V30 17403 C 1628.67 4.95162 1.66169 0
M  V30 17404 H 1630.37 2.91463 0.684827 0
M  V30 17405 H 1627.91 1.40215 0.327974 0
M  V30 17406 H 1629.87 2.83216 3.12036 0
M  V30 17407 H 1628.59 1.62287 2.83426 0
M  V30 17408 H 1627.25 3.32339 1.54747 0
M  V30 17409 H 1626.9 3.04016 4.00728 0
M  V30 17410 H 1626.6 4.72091 3.49863 0
M  V30 17411 H 1628.12 4.30299 4.33215 0
M  V30 17412 H 1629.53 5.26292 2.27353 0
M  V30 17413 H 1627.93 5.76601 1.66289 0
M  V30 17414 H 1629 4.80885 0.62271 0
M  V30 17415 N 1630.34 -0.348112 1.53707 0
M  V30 17416 C 1631.29 -1.44755 1.82068 0
M  V30 17417 C 1632.29 -1.54672 0.690865 0
M  V30 17418 O 1633.49 -1.5735 0.874123 0
M  V30 17419 H 1629.87 -0.482562 0.576747 0
M  V30 17420 H 1631.84 -1.18047 2.74058 0
M  V30 17421 C 1630.59 -2.81345 2.04305 0
M  V30 17422 H 1629.91 -2.74479 2.90691 0
M  V30 17423 H 1631.35 -3.57405 2.28117 0
M  V30 17424 C 1629.81 -3.26586 0.827224 0
M  V30 17425 O 1630.34 -4.01693 0.0244098 0
M  V30 17426 N 1628.55 -2.83335 0.645731 0
M  V30 17427 H 1628.09 -2.22379 1.3002 0
M  V30 17428 H 1628.05 -3.1396 -0.166313 0
M  V30 17429 N 1631.82 -1.45363 -0.608876 0
M  V30 17430 C 1632.75 -1.49944 -1.73348 0
M  V30 17431 C 1633.77 -0.390352 -1.58051 0
M  V30 17432 O 1634.96 -0.657338 -1.65956 0
M  V30 17433 C 1632.06 -1.33886 -3.11332 0
M  V30 17434 C 1631.23 -2.58445 -3.52881 0
M  V30 17435 C 1630.29 -2.36963 -4.69825 0
M  V30 17436 O 1629.31 -3.10569 -4.77007 0
M  V30 17437 N 1630.52 -1.41442 -5.63005 0
M  V30 17438 H 1633.28 -2.46902 -1.69882 0
M  V30 17439 H 1630.84 -1.41086 -0.794119 0
M  V30 17440 H 1632.83 -1.17327 -3.8732 0
M  V30 17441 H 1631.4 -0.452095 -3.09314 0
M  V30 17442 H 1630.62 -2.90129 -2.66869 0
M  V30 17443 H 1631.91 -3.41245 -3.77398 0
M  V30 17444 H 1631.31 -0.806941 -5.59915 0
M  V30 17445 H 1629.87 -1.30855 -6.3853 0
M  V30 17446 N 1633.3 0.851265 -1.32632 0
M  V30 17447 C 1634.71 1.4217 -1.21015 0
M  V30 17448 C 1635.06 1.95409 0.175972 0
M  V30 17449 O 1634.19 1.87816 1.07489 0
M  V30 17450 C 1634.78 2.58431 -2.19086 0
M  V30 17451 C 1633.34 3.11464 -2.11346 0
M  V30 17452 C 1632.49 1.84221 -2.07263 0
M  V30 17453 H 1635.44 0.65812 -1.44411 0
M  V30 17454 H 1635.46 3.35694 -1.79137 0
M  V30 17455 H 1634.97 2.19652 -3.1996 0
M  V30 17456 H 1633.07 3.54818 -1.13732 0
M  V30 17457 H 1633.19 3.72478 -3.01325 0
M  V30 17458 H 1631.55 2.0396 -1.52553 0
M  V30 17459 H 1632.33 1.47654 -3.09924 0
M  V30 17460 N 1634.78 1.15898 1.06796 0
M  V30 17461 C 1636 0.961859 1.83747 0
M  V30 17462 C 1636.43 -0.48494 1.81741 0
M  V30 17463 O 1635.79 -1.3461 1.21449 0
M  V30 17464 C 1635.83 1.48764 3.28484 0
M  V30 17465 O 1634.94 0.690576 4.06577 0
M  V30 17466 H 1634.28 0.342664 0.568751 0
M  V30 17467 H 1636.81 1.54015 1.34687 0
M  V30 17468 H 1636.82 1.50291 3.79311 0
M  V30 17469 H 1635.49 2.54089 3.29259 0
M  V30 17470 H 1634.07 0.74539 3.65374 0
M  V30 17471 N 1636.26 -1.25243 0.956659 0
M  V30 17472 C 1637.67 -1.74909 0.652979 0
M  V30 17473 C 1638.02 -1.77704 -0.831605 0
M  V30 17474 O 1637.14 -1.39921 -1.65079 0
M  V30 17475 C 1637.74 -3.17639 1.1786 0
M  V30 17476 C 1636.3 -3.64856 0.925034 0
M  V30 17477 C 1635.44 -2.43844 1.32044 0
M  V30 17478 H 1638.4 -1.11101 1.13324 0
M  V30 17479 H 1638.42 -3.76654 0.539633 0
M  V30 17480 H 1637.93 -3.15572 2.25911 0
M  V30 17481 H 1636.03 -3.72335 -0.14043 0
M  V30 17482 H 1636.14 -4.5289 1.56292 0
M  V30 17483 H 1634.51 -2.43749 0.738813 0
M  V30 17484 H 1635.29 -2.44466 2.41021 0
M  V30 17485 N 1637.73 -0.725468 -1.3991 0
M  V30 17486 C 1638.67 -0.0282009 -2.28183 0
M  V30 17487 C 1639.65 0.757539 -1.43875 0
M  V30 17488 O 1640.83 0.742105 -1.73277 0
M  V30 17489 C 1637.96 0.967357 -3.24592 0
M  V30 17490 C 1637 0.271249 -4.25637 0
M  V30 17491 S 1637.84 -1.00796 -5.25928 0
M  V30 17492 C 1638.99 -0.0147605 -6.25898 0
M  V30 17493 H 1639.22 -0.776815 -2.86972 0
M  V30 17494 H 1636.76 -0.516881 -1.45491 0
M  V30 17495 H 1638.72 1.5365 -3.8066 0
M  V30 17496 H 1637.38 1.68874 -2.6484 0
M  V30 17497 H 1636.57 1.02421 -4.93483 0
M  V30 17498 H 1636.17 -0.225603 -3.73319 0
M  V30 17499 H 1638.46 0.828816 -6.72411 0
M  V30 17500 H 1639.41 -0.66011 -7.05016 0
M  V30 17501 H 1639.81 0.353381 -5.63393 0
M  V30 17502 N 1639.21 1.50354 -0.472382 0
M  V30 17503 C 1640.15 2.25227 0.367135 0
M  V30 17504 C 1641.12 1.28594 0.99511 0
M  V30 17505 O 1642.31 1.57819 1.03079 0
M  V30 17506 C 1639.43 3.02952 1.51452 0
M  V30 17507 C 1638.48 4.14519 1.0038 0
M  V30 17508 S 1639.31 5.35436 -0.082542 0
M  V30 17509 C 1640.47 6.16709 1.06869 0
M  V30 17510 H 1640.7 2.96086 -0.268437 0
M  V30 17511 H 1638.24 1.52241 -0.257282 0
M  V30 17512 H 1640.19 3.48324 2.17212 0
M  V30 17513 H 1638.85 2.31617 2.12161 0
M  V30 17514 H 1638.05 4.68311 1.86282 0
M  V30 17515 H 1637.65 3.7159 0.423896 0
M  V30 17516 H 1639.94 6.4792 1.98004 0
M  V30 17517 H 1640.88 7.05802 0.570008 0
M  V30 17518 H 1641.29 5.48775 1.3231 0
M  V30 17519 N 1640.69 0.205039 1.56261 0
M  V30 17520 C 1641.62 -0.743854 2.16794 0
M  V30 17521 C 1642.64 -1.16959 1.13245 0
M  V30 17522 O 1643.83 -1.1036 1.40296 0
M  V30 17523 C 1640.93 -2.01717 2.7233 0
M  V30 17524 C 1640.1 -1.74965 4.00882 0
M  V30 17525 C 1639.16 -2.86841 4.41145 0
M  V30 17526 O 1638.18 -2.5602 5.08372 0
M  V30 17527 N 1639.39 -4.15425 4.05466 0
M  V30 17528 H 1642.15 -0.226145 2.98846 0
M  V30 17529 H 1639.71 0.0234276 1.61883 0
M  V30 17530 H 1641.7 -2.7572 2.96244 0
M  V30 17531 H 1640.27 -2.44582 1.94675 0
M  V30 17532 H 1639.49 -0.846903 3.84995 0
M  V30 17533 H 1640.78 -1.54501 4.84775 0
M  V30 17534 H 1640.18 -4.43314 3.5141 0
M  V30 17535 H 1638.74 -4.86023 4.3431 0
M  V30 17536 N 1642.17 -1.57451 -0.0684915 0
M  V30 17537 C 1643.59 -1.53883 -0.423354 0
M  V30 17538 C 1643.79 -0.925698 -1.78978 0
M  V30 17539 O 1642.84 -0.529629 -2.46883 0
M  V30 17540 C 1644.15 -2.98521 -0.361386 0
M  V30 17541 C 1645.7 -3.09873 -0.441334 0
M  V30 17542 C 1646.18 -4.56168 -0.409239 0
M  V30 17543 N 1647.67 -4.60817 -0.469216 0
M  V30 17544 C 1648.4 -5.71498 -0.466648 0
M  V30 17545 N 1647.9 -6.91534 -0.4187 0
M  V30 17546 N 1649.69 -5.5975 -0.513452 0
M  V30 17547 H 1641.84 -1.95672 0.8262 0
M  V30 17548 H 1644.11 -0.895759 0.310354 0
M  V30 17549 H 1643.81 -3.46951 0.576035 0
M  V30 17550 H 1643.69 -3.58585 -1.17032 0
M  V30 17551 H 1646.07 -2.61414 -1.36918 0
M  V30 17552 H 1646.15 -2.52712 0.396237 0
M  V30 17553 H 1645.8 -5.05285 0.514772 0
M  V30 17554 H 1645.73 -5.11195 -1.26439 0
M  V30 17555 H 1648.22 -3.74438 -0.510387 0
M  V30 17556 H 1648.53 -7.71654 -0.420757 0
M  V30 17557 H 1646.88 -6.93931 -0.385338 0
M  V30 17558 H 1650.07 -4.64874 -0.548626 0
M  V30 17559 H 1650.24 -6.46006 -0.507982 0
M  V30 17560 N 1643.65 0.339955 -1.5389 0
M  V30 17561 C 1644.9 1.07723 -1.70524 0
M  V30 17562 C 1645.21 1.89693 -0.477058 0
M  V30 17563 O 1646.42 2.66387 -0.524424 0
M  V30 17564 C 1644.87 1.96455 -3.01551 0
M  V30 17565 C 1644.48 1.19675 -4.3172 0
M  V30 17566 C 1646.22 2.70019 -3.27552 0
M  V30 17567 C 1644.13 2.07458 -5.53819 0
M  V30 17568 H 1643.06 0.405877 -0.635437 0
M  V30 17569 H 1645.71 0.336489 -1.80388 0
M  V30 17570 H 1644.09 2.74364 -2.85553 0
M  V30 17571 H 1645.27 0.466526 -4.58432 0
M  V30 17572 H 1643.58 0.578651 -4.1236 0
M  V30 17573 H 1646.18 3.35973 -4.15964 0
M  V30 17574 H 1646.52 3.36779 -2.44716 0
M  V30 17575 H 1647.06 1.99182 -3.44342 0
M  V30 17576 H 1643.79 1.45234 -6.39208 0
M  V30 17577 H 1643.31 2.7826 -5.31349 0
M  V30 17578 H 1644.99 2.66428 -5.89598 0
M  V30 17579 N 1645.13 1.45684 0.601159 0
M  V30 17580 C 1646.35 1.53806 1.39135 0
M  V30 17581 C 1646.78 0.173625 1.87297 0
M  V30 17582 O 1646.13 -0.842931 1.60513 0
M  V30 17583 C 1646.18 2.53201 2.56752 0
M  V30 17584 O 1645.29 2.05427 3.57594 0
M  V30 17585 H 1644.63 0.51824 0.415118 0
M  V30 17586 H 1647.16 1.91095 0.731006 0
M  V30 17587 H 1647.17 2.72215 3.03912 0
M  V30 17588 H 1645.84 3.52294 2.21047 0
M  V30 17589 H 1644.42 1.96318 3.17039 0
M  V30 17590 N 1646.6 -0.84422 1.33082 0
M  V30 17591 C 1647.88 -1.58339 1.1484 0
M  V30 17592 C 1648.26 -2.09136 -0.287273 0
M  V30 17593 O 1647.61 -1.8891 -1.2855 0
M  V30 17594 C 1647.82 -2.72141 2.18496 0
M  V30 17595 C 1649.17 -3.41457 2.52373 0
M  V30 17596 O 1650.19 -2.82377 2.17122 0
M  V30 17597 O 1649.05 -4.48096 3.12845 0
M  V30 17598 H 1646.14 -0.697813 0.443831 0
M  V30 17599 H 1648.69 -0.88744 1.44646 0
M  V30 17600 H 1647.46 -2.32206 3.14954 0
M  V30 17601 H 1647.08 -3.49404 1.89744 0
M  V30 17602 N 1648.08 -1.16463 -1.0618 0
M  V30 17603 C 1649.5 -0.909776 -1.31131 0
M  V30 17604 C 1649.7 0.436686 -1.96711 0
M  V30 17605 O 1648.75 1.17595 -2.23445 0
M  V30 17606 C 1650.07 -2.05967 -2.19084 0
M  V30 17607 C 1651.61 -2.09557 -2.32497 0
M  V30 17608 C 1652.09 -3.23904 -3.23806 0
M  V30 17609 N 1653.58 -3.23628 -3.3139 0
M  V30 17610 C 1654.32 -4.08746 -4.02137 0
M  V30 17611 N 1653.81 -5.03954 -4.75397 0
M  V30 17612 N 1655.6 -3.96729 -3.98199 0
M  V30 17613 H 1647.76 -2.03148 -0.620066 0
M  V30 17614 H 1650.02 -0.886477 -0.335949 0
M  V30 17615 H 1649.72 -3.03227 -1.78174 0
M  V30 17616 H 1649.6 -2.00219 -3.19675 0
M  V30 17617 H 1651.99 -1.12889 -2.72654 0
M  V30 17618 H 1652.07 -2.19369 -1.3157 0
M  V30 17619 H 1651.71 -4.20831 -2.84366 0
M  V30 17620 H 1651.64 -3.11327 -4.24715 0
M  V30 17621 H 1654.13 -2.54687 -2.79182 0
M  V30 17622 H 1654.44 -5.65319 -5.2691 0
M  V30 17623 H 1652.79 -5.07932 -4.74373 0
M  V30 17624 H 1655.98 -3.21652 -3.40085 0
M  V30 17625 H 1656.15 -4.63286 -4.53067 0
M  V30 17626 N 1649.56 1.24734 -0.963288 0
M  V30 17627 C 1650.98 1.44897 -0.669103 0
M  V30 17628 C 1651.18 1.86185 0.770541 0
M  V30 17629 O 1650.23 1.99721 1.54492 0
M  V30 17630 C 1651.54 2.51425 -1.64943 0
M  V30 17631 C 1653.09 2.65256 -1.66157 0
M  V30 17632 C 1653.57 3.74977 -2.62976 0
M  V30 17633 N 1655.06 3.82399 -2.61391 0
M  V30 17634 C 1655.79 4.66809 -3.32981 0
M  V30 17635 N 1655.29 5.55441 -4.14073 0
M  V30 17636 N 1657.08 4.60851 -3.21827 0
M  V30 17637 H 1649.23 0.962292 -1.89351 0
M  V30 17638 H 1651.5 0.4843 -0.814958 0
M  V30 17639 H 1651.2 2.27965 -2.67815 0
M  V30 17640 H 1651.08 3.49503 -1.41872 0
M  V30 17641 H 1653.46 2.88077 -0.639978 0
M  V30 17642 H 1653.54 1.67551 -1.93288 0
M  V30 17643 H 1653.19 3.52907 -3.65266 0
M  V30 17644 H 1653.12 4.72187 -2.33125 0
M  V30 17645 H 1655.61 3.19048 -2.02527 0
M  V30 17646 H 1655.92 6.16798 -4.65597 0
M  V30 17647 H 1654.27 5.55121 -4.18169 0
M  V30 17648 H 1657.46 3.90621 -2.5794 0
M  V30 17649 H 1657.63 5.26411 -3.77883 0
M  V30 17650 N 1651.04 0.732878 1.39523 0
M  V30 17651 C 1652.29 0.279338 2.0016 0
M  V30 17652 C 1652.61 -1.13673 1.58441 0
M  V30 17653 O 1651.88 -1.77369 0.831681 0
M  V30 17654 H 1650.46 0.100288 0.740237 0
M  V30 17655 H 1653.12 0.942363 1.70603 0
M  V30 17656 H 1652.21 0.326053 3.10392 0
M  V30 17657 N 1652.52 -1.50101 0.480349 0
M  V30 17658 C 1653.74 -2.07278 -0.0710872 0
M  V30 17659 C 1654.17 -1.34082 -1.31923 0
M  V30 17660 O 1653.52 -0.391251 -1.77028 0
M  V30 17661 C 1653.57 -3.59099 -0.328706 0
M  V30 17662 O 1652.68 -3.8764 -1.40745 0
M  V30 17663 H 1652.02 -0.66378 0.0170748 0
M  V30 17664 H 1654.55 -1.93178 0.674049 0
M  V30 17665 H 1654.56 -4.04049 -0.566435 0
M  V30 17666 H 1653.23 -4.11789 0.583316 0
M  V30 17667 H 1651.81 -3.54519 -1.15631 0
M  V30 17668 N 1653.99 -0.213323 -1.5615 0
M  V30 17669 C 1655.24 0.419767 -1.97693 0
M  V30 17670 C 1655.56 1.60878 -1.10197 0
M  V30 17671 O 1654.83 1.95097 -0.177185 0
M  V30 17672 H 1653.41 0.158075 -0.730083 0
M  V30 17673 H 1656.07 -0.304303 -1.9251 0
M  V30 17674 H 1655.17 0.751645 -3.02914 0
M  V30 17675 N 1655.47 1.57485 0.0601405 0
M  V30 17676 C 1656.42 2.04487 1.07023 0
M  V30 17677 C 1657.39 0.927738 1.37776 0
M  V30 17678 O 1658.57 1.19621 1.48645 0
M  V30 17679 C 1655.71 2.50338 2.37539 0
M  V30 17680 C 1654.83 3.75717 2.13215 0
M  V30 17681 C 1653.96 4.10304 3.37378 0
M  V30 17682 C 1653 5.2869 3.0847 0
M  V30 17683 N 1652.14 5.58858 4.24996 0
M  V30 17684 H 1656.98 2.90544 0.662444 0
M  V30 17685 H 1654.52 1.43676 0.315515 0
M  V30 17686 H 1656.47 2.74978 3.13756 0
M  V30 17687 H 1655.1 1.67242 2.76098 0
M  V30 17688 H 1654.16 3.58348 1.27636 0
M  V30 17689 H 1655.47 4.62068 1.87869 0
M  V30 17690 H 1654.62 4.35907 4.21983 0
M  V30 17691 H 1653.36 3.22544 3.6581 0
M  V30 17692 H 1652.37 5.02871 2.22262 0
M  V30 17693 H 1653.59 6.18077 2.81349 0
M  V30 17694 H 1651.54 4.74058 4.53437 0
M  V30 17695 H 1651.45 6.39652 4.02965 0
M  V30 17696 H 1652.72 5.89019 5.10565 0
M  V30 17697 N 1656.95 -0.331789 1.54068 0
M  V30 17698 C 1658.36 -0.906719 1.63204 0
M  V30 17699 C 1658.71 -1.89161 0.520837 0
M  V30 17700 O 1657.84 -2.1359 -0.347577 0
M  V30 17701 C 1658.43 -1.65132 2.95832 0
M  V30 17702 C 1656.99 -2.17509 3.07192 0
M  V30 17703 C 1656.14 -0.99788 2.58723 0
M  V30 17704 H 1659.09 -0.109595 1.58321 0
M  V30 17705 H 1659.11 -2.515 2.85531 0
M  V30 17706 H 1658.62 -0.934255 3.76687 0
M  V30 17707 H 1656.72 -2.92356 2.30995 0
M  V30 17708 H 1656.84 -2.43074 4.12858 0
M  V30 17709 H 1655.2 -1.37469 2.14417 0
M  V30 17710 H 1655.98 -0.295261 3.42028 0
M  V30 17711 N 1658.43 -1.46001 -0.593424 0
M  V30 17712 C 1659.84 -1.30719 -0.915678 0
M  V30 17713 C 1660.04 -0.270679 -1.99674 0
M  V30 17714 O 1659.1 0.330482 -2.50328 0
M  V30 17715 C 1660.41 -2.69034 -1.34318 0
M  V30 17716 C 1661.96 -2.77041 -1.45662 0
M  V30 17717 C 1662.44 -4.15913 -1.91783 0
M  V30 17718 N 1663.93 -4.18277 -1.98994 0
M  V30 17719 C 1664.66 -5.22612 -2.35932 0
M  V30 17720 N 1664.16 -6.37283 -2.71738 0
M  V30 17721 N 1665.95 -5.09975 -2.36394 0
M  V30 17722 H 1658.1 -2.12056 0.120882 0
M  V30 17723 H 1660.37 -0.947961 -0.00858574 0
M  V30 17724 H 1660.07 -3.4614 -0.622922 0
M  V30 17725 H 1659.95 -2.98434 -2.30688 0
M  V30 17726 H 1662.33 -2.0023 -2.16776 0
M  V30 17727 H 1662.41 -2.51338 -0.475706 0
M  V30 17728 H 1662.06 -4.93215 -1.2125 0
M  V30 17729 H 1661.99 -4.39016 -2.90813 0
M  V30 17730 H 1664.48 -3.35534 -1.73855 0
M  V30 17731 H 1664.79 -7.12679 -2.98846 0
M  V30 17732 H 1663.14 -6.40662 -2.69401 0
M  V30 17733 H 1666.33 -4.1943 -2.07836 0
M  V30 17734 H 1666.5 -5.91402 -2.64854 0
M  V30 17735 N 1659.91 0.83715 -1.33527 0
M  V30 17736 C 1661.32 1.40878 -1.22516 0
M  V30 17737 C 1661.67 1.95585 0.155236 0
M  V30 17738 O 1660.79 1.88946 1.05491 0
M  V30 17739 C 1661.39 2.56093 -2.21815 0
M  V30 17740 C 1659.95 3.09205 -2.14638 0
M  V30 17741 C 1659.09 1.82012 -2.09205 0
M  V30 17742 H 1662.05 0.642766 -1.45101 0
M  V30 17743 H 1662.07 3.33775 -1.82687 0
M  V30 17744 H 1661.58 2.16246 -3.22272 0
M  V30 17745 H 1659.68 3.53592 -1.17489 0
M  V30 17746 H 1659.79 3.69261 -3.05259 0
M  V30 17747 H 1658.16 2.02331 -1.54707 0
M  V30 17748 H 1658.94 1.44359 -3.11473 0
M  V30 17749 N 1661.38 1.17024 1.05561 0
M  V30 17750 C 1662.33 0.88356 2.13218 0
M  V30 17751 C 1663.3 -0.171025 1.65217 0
M  V30 17752 O 1664.49 -0.0346242 1.90769 0
M  V30 17753 C 1661.63 0.398912 3.42787 0
M  V30 17754 C 1660.74 1.51718 4.04482 0
M  V30 17755 C 1659.87 0.986793 5.21954 0
M  V30 17756 C 1658.91 2.08077 5.75648 0
M  V30 17757 N 1658.05 1.56542 6.84426 0
M  V30 17758 H 1662.89 1.80548 2.37079 0
M  V30 17759 H 1660.43 0.90056 1.16311 0
M  V30 17760 H 1662.39 0.0995018 4.17081 0
M  V30 17761 H 1661.02 -0.48605 3.1912 0
M  V30 17762 H 1660.07 1.9324 3.27662 0
M  V30 17763 H 1661.38 2.34243 4.40377 0
M  V30 17764 H 1660.53 0.641006 6.03304 0
M  V30 17765 H 1659.27 0.130942 4.87524 0
M  V30 17766 H 1658.28 2.43517 4.9293 0
M  V30 17767 H 1659.5 2.94071 6.12127 0
M  V30 17768 H 1657.45 0.732221 6.51901 0
M  V30 17769 H 1657.37 2.32677 7.19303 0
M  V30 17770 H 1658.63 1.24844 7.69438 0
M  V30 17771 N 1662.86 -1.24221 0.969889 0
M  V30 17772 C 1664.09 -1.96943 0.650262 0
M  V30 17773 C 1664.51 -1.71437 -0.774018 0
M  V30 17774 O 1663.87 -0.979428 -1.52568 0
M  V30 17775 C 1663.92 -3.48303 0.933682 0
M  V30 17776 O 1663.02 -4.12395 0.0202425 0
M  V30 17777 H 1662.36 -0.616902 0.245618 0
M  V30 17778 H 1664.89 -1.57939 1.30063 0
M  V30 17779 H 1664.9 -3.98701 0.866106 0
M  V30 17780 H 1663.58 -3.66194 1.97166 0
M  V30 17781 H 1662.16 -3.72632 0.141327 0
M  V30 17782 N 1664.34 -0.740267 -1.39132 0
M  V30 17783 C 1665.25 -0.105452 -2.34363 0
M  V30 17784 C 1666.27 0.715908 -1.5859 0
M  V30 17785 O 1667.44 0.643155 -1.90855 0
M  V30 17786 C 1664.51 0.787141 -3.37646 0
M  V30 17787 C 1663.57 -0.047071 -4.29274 0
M  V30 17788 C 1662.8 0.803014 -5.27624 0
M  V30 17789 O 1663.02 2.04155 -5.32613 0
M  V30 17790 O 1661.96 0.228879 -6.01465 0
M  V30 17791 H 1665.78 -0.891588 -2.90318 0
M  V30 17792 H 1663.37 -0.500996 -1.40749 0
M  V30 17793 H 1665.25 1.29769 -4.00921 0
M  V30 17794 H 1663.93 1.552 -2.84068 0
M  V30 17795 H 1662.83 -0.603265 -3.69204 0
M  V30 17796 H 1664.17 -0.774273 -4.86072 0
M  V30 17797 N 1665.82 1.49844 -0.488302 0
M  V30 17798 C 1667.07 2.02009 0.0605782 0
M  V30 17799 C 1667.39 1.37114 1.38653 0
M  V30 17800 O 1666.66 0.522182 1.88812 0
M  V30 17801 H 1665.24 0.746569 0.0253773 0
M  V30 17802 H 1667.9 1.84 -0.64265 0
M  V30 17803 H 1667 3.11461 0.199542 0
M  V30 17804 N 1667.3 0.221601 1.56034 0
M  V30 17805 C 1668.54 -0.410087 1.98304 0
M  V30 17806 C 1668.87 -1.59769 1.10924 0
M  V30 17807 O 1668.13 -1.95092 0.154196 0
M  V30 17808 C 1668.43 -0.887416 3.46208 0
M  V30 17809 C 1668.09 0.189671 4.50501 0
M  V30 17810 C 1666.75 0.485557 4.78744 0
M  V30 17811 C 1669.11 0.918112 5.1305 0
M  V30 17812 C 1666.43 1.5144 5.66818 0
M  V30 17813 C 1668.79 1.93629 6.02238 0
M  V30 17814 C 1667.45 2.23909 6.28825 0
M  V30 17815 H 1666.72 -0.150061 0.725646 0
M  V30 17816 H 1669.37 0.32413 1.88737 0
M  V30 17817 H 1667.67 -1.70039 3.52979 0
M  V30 17818 H 1669.37 -1.38602 3.76285 0
M  V30 17819 H 1665.96 -0.0510987 4.2857 0
M  V30 17820 H 1670.14 0.702761 4.91299 0
M  V30 17821 H 1665.4 1.75462 5.85682 0
M  V30 17822 H 1669.57 2.5058 6.49756 0
M  V30 17823 H 1667.2 3.03774 6.96868 0
M  V30 17824 N 1668.77 -1.57515 -0.0517878 0
M  V30 17825 C 1669.68 -2.08427 -1.07681 0
M  V30 17826 C 1670.7 -1.01797 -1.41115 0
M  V30 17827 O 1671.88 -1.33394 -1.50891 0
M  V30 17828 C 1668.94 -2.53472 -2.36544 0
M  V30 17829 C 1668 -3.74488 -2.09899 0
M  V30 17830 C 1667.24 -4.17374 -3.32618 0
M  V30 17831 O 1667.46 -3.59962 -4.42475 0
M  V30 17832 O 1666.39 -5.10006 -3.19653 0
M  V30 17833 H 1670.22 -2.96122 -0.674217 0
M  V30 17834 H 1667.8 -1.4699 -0.267274 0
M  V30 17835 H 1669.69 -2.82876 -3.12345 0
M  V30 17836 H 1668.36 -1.68899 -2.76143 0
M  V30 17837 H 1667.27 -3.50137 -1.31739 0
M  V30 17838 H 1668.6 -4.59975 -1.75169 0
M  V30 17839 N 1670.25 0.323614 -1.54242 0
M  V30 17840 C 1671.18 1.40344 -1.86616 0
M  V30 17841 C 1672.16 1.53972 -0.722963 0
M  V30 17842 O 1673.35 1.67852 -0.976692 0
M  V30 17843 C 1670.48 2.77112 -2.09347 0
M  V30 17844 C 1669.43 2.78273 -3.25189 0
M  V30 17845 C 1668.76 4.18116 -3.33291 0
M  V30 17846 C 1670.06 2.42025 -4.6284 0
M  V30 17847 H 1671.75 1.13499 -2.77053 0
M  V30 17848 H 1669.3 0.544553 -1.33306 0
M  V30 17849 H 1671.25 3.52719 -2.3058 0
M  V30 17850 H 1669.98 3.05435 -1.1566 0
M  V30 17851 H 1668.64 2.05121 -3.03844 0
M  V30 17852 H 1668.28 4.4358 -2.37163 0
M  V30 17853 H 1667.98 4.19799 -4.11147 0
M  V30 17854 H 1669.51 4.95536 -3.56758 0
M  V30 17855 H 1670.92 3.07346 -4.83954 0
M  V30 17856 H 1669.32 2.5496 -5.43245 0
M  V30 17857 H 1670.39 1.37175 -4.65092 0
M  V30 17858 N 1671.73 1.46313 0.585673 0
M  V30 17859 C 1672.96 1.54811 1.36811 0
M  V30 17860 C 1673.37 0.187083 1.88273 0
M  V30 17861 O 1672.71 -0.825324 1.64116 0
M  V30 17862 C 1672.77 2.48978 2.59326 0
M  V30 17863 C 1672.44 3.9528 2.29352 0
M  V30 17864 C 1673.44 4.84575 1.88369 0
M  V30 17865 C 1671.12 4.40387 2.41588 0
M  V30 17866 C 1673.11 6.16989 1.60012 0
M  V30 17867 C 1670.8 5.72836 2.12844 0
M  V30 17868 C 1671.8 6.60956 1.72121 0
M  V30 17869 O 1671.49 7.90947 1.43727 0
M  V30 17870 H 1671.22 0.526169 0.424409 0
M  V30 17871 H 1673.77 1.92395 0.719251 0
M  V30 17872 H 1672 2.06406 3.27007 0
M  V30 17873 H 1673.69 2.47915 3.21392 0
M  V30 17874 H 1674.46 4.50984 1.78433 0
M  V30 17875 H 1670.34 3.72024 2.72249 0
M  V30 17876 H 1673.88 6.85728 1.28152 0
M  V30 17877 H 1669.78 6.05976 2.22403 0
M  V30 17878 H 1670.55 8.03185 1.57597 0
M  V30 17879 N 1673.21 -0.830057 1.33969 0
M  V30 17880 C 1674.16 -1.96189 1.2495 0
M  V30 17881 C 1675.15 -1.68743 0.149047 0
M  V30 17882 O 1676.36 -1.77248 0.31357 0
M  V30 17883 H 1672.73 -0.644184 0.387983 0
M  V30 17884 H 1674.7 -2.0092 2.20621 0
M  V30 17885 C 1673.45 -3.32569 1.01456 0
M  V30 17886 H 1672.78 -3.54232 1.85363 0
M  V30 17887 H 1674.22 -4.12237 0.991786 0
M  V30 17888 C 1672.67 -3.35715 -0.282331 0
M  V30 17889 O 1673.2 -3.80556 -1.28609 0
M  V30 17890 N 1671.41 -2.8891 -0.312952 0
M  V30 17891 H 1670.96 -2.52613 0.504446 0
M  V30 17892 H 1670.92 -2.91397 -1.18047 0
M  V30 17893 N 1674.69 -1.17582 -1.04939 0
M  V30 17894 C 1675.64 -0.891102 -2.14854 0
M  V30 17895 C 1676.63 0.145242 -1.68776 0
M  V30 17896 O 1677.84 -0.00207978 -1.8 0
M  V30 17897 H 1674.21 -0.270641 -0.701611 0
M  V30 17898 H 1676.18 -1.82519 -2.36071 0
M  V30 17899 C 1674.93 -0.423679 -3.45109 0
M  V30 17900 H 1674.25 -1.2126 -3.80967 0
M  V30 17901 H 1675.69 -0.263369 -4.23181 0
M  V30 17902 C 1674.15 0.859085 -3.25763 0
M  V30 17903 O 1674.68 1.9253 -3.52555 0
M  V30 17904 N 1672.89 0.80824 -2.79134 0
M  V30 17905 H 1672.44 -0.0596431 -2.57531 0
M  V30 17906 H 1672.39 1.66697 -2.6657 0
M  V30 17907 N 1676.17 1.23705 -0.976463 0
M  V30 17908 C 1677.39 1.96595 -0.660697 0
M  V30 17909 C 1677.82 1.71845 0.764916 0
M  V30 17910 O 1677.17 0.987506 1.52046 0
M  V30 17911 C 1677.22 3.47803 -0.95214 0
M  V30 17912 O 1676.33 4.12378 -0.0421126 0
M  V30 17913 H 1675.67 0.615591 -0.248886 0
M  V30 17914 H 1678.2 1.57247 -1.30899 0
M  V30 17915 H 1678.21 3.98236 -0.887238 0
M  V30 17916 H 1676.88 3.65144 -1.99105 0
M  V30 17917 H 1675.46 3.72552 -0.161087 0
M  V30 17918 N 1677.64 0.747635 1.38738 0
M  V30 17919 C 1678.87 0.311781 2.04537 0
M  V30 17920 C 1679.29 -1.05782 1.56383 0
M  V30 17921 O 1678.64 -1.67077 0.734259 0
M  V30 17922 C 1678.69 0.318675 3.60093 0
M  V30 17923 O 1678.42 1.63423 4.06478 0
M  V30 17924 C 1679.92 -0.131782 4.43104 0
M  V30 17925 H 1677.14 0.134141 0.657455 0
M  V30 17926 H 1679.68 1.01482 1.77543 0
M  V30 17927 H 1677.84 -0.335578 3.85944 0
M  V30 17928 H 1678.25 1.55636 5.00877 0
M  V30 17929 H 1679.72 -0.0757978 5.51948 0
M  V30 17930 H 1680.2 -1.17881 4.23085 0
M  V30 17931 H 1680.81 0.493375 4.22429 0
M  V30 17932 N 1679.12 -1.49583 0.496242 0
M  V30 17933 C 1680.05 -2.26936 -0.321366 0
M  V30 17934 C 1681.07 -1.33282 -0.934863 0
M  V30 17935 O 1682.26 -1.58602 -0.819008 0
M  V30 17936 C 1679.36 -3.05503 -1.467 0
M  V30 17937 C 1678.53 -4.26697 -0.961687 0
M  V30 17938 C 1677.59 -4.8735 -1.98436 0
M  V30 17939 O 1676.61 -5.47553 -1.55482 0
M  V30 17940 N 1677.82 -4.76577 -3.31443 0
M  V30 17941 H 1680.58 -2.97744 0.341884 0
M  V30 17942 H 1678.14 -1.58532 0.328504 0
M  V30 17943 H 1680.13 -3.42954 -2.1486 0
M  V30 17944 H 1678.7 -2.37334 -2.03449 0
M  V30 17945 H 1677.92 -3.9406 -0.105143 0
M  V30 17946 H 1679.21 -5.05221 -0.602405 0
M  V30 17947 H 1678.61 -4.28756 -3.69032 0
M  V30 17948 H 1677.17 -5.18226 -3.95329 0
M  V30 17949 N 1680.6 -0.229873 -1.55915 0
M  V30 17950 C 1681.55 0.693198 -2.2203 0
M  V30 17951 C 1682.54 1.1933 -1.20236 0
M  V30 17952 O 1683.75 1.15217 -1.38294 0
M  V30 17953 H 1680.12 0.241986 -0.712002 0
M  V30 17954 H 1682.09 0.112229 -2.98189 0
M  V30 17955 C 1680.84 1.88688 -2.92048 0
M  V30 17956 H 1680.17 1.51119 -3.70139 0
M  V30 17957 H 1681.61 2.51036 -3.41697 0
M  V30 17958 C 1680.06 2.74747 -1.94976 0
M  V30 17959 O 1680.59 3.73759 -1.47198 0
M  V30 17960 N 1678.8 2.40956 -1.62445 0
M  V30 17961 H 1678.35 1.60494 -2.01493 0
M  V30 17962 H 1678.31 2.98816 -0.977581 0
M  V30 17963 N 1682.08 1.5754 0.0434337 0
M  V30 17964 C 1683.33 1.88235 0.735652 0
M  V30 17965 C 1683.65 0.825698 1.76656 0
M  V30 17966 O 1682.92 -0.142424 1.95382 0
M  V30 17967 H 1681.5 0.694661 0.274692 0
M  V30 17968 H 1684.16 1.94896 0.0127911 0
M  V30 17969 H 1683.25 2.86659 1.23421 0
M  V30 17970 N 1683.56 -0.31543 1.54411 0
M  V30 17971 C 1684.78 -1.0761 1.77299 0
M  V30 17972 C 1685.21 -1.80655 0.523963 0
M  V30 17973 O 1684.56 -1.73536 -0.524874 0
M  V30 17974 C 1684.61 -2.04355 2.97105 0
M  V30 17975 O 1683.72 -3.12401 2.69219 0
M  V30 17976 H 1683.06 -0.30986 0.587267 0
M  V30 17977 H 1685.59 -0.357246 2.01457 0
M  V30 17978 H 1685.6 -2.47081 3.24677 0
M  V30 17979 H 1684.27 -1.50592 3.87679 0
M  V30 17980 H 1682.85 -2.74294 2.52621 0
M  V30 17981 N 1685.03 -1.46622 -0.577906 0
M  V30 17982 C 1686.45 -1.46287 -1.16004 0
M  V30 17983 C 1686.8 -0.206307 -1.95112 0
M  V30 17984 O 1685.92 0.690275 -2.05096 0
M  V30 17985 C 1686.52 -2.65042 -2.1104 0
M  V30 17986 C 1685.08 -2.67733 -2.64567 0
M  V30 17987 C 1684.22 -2.39053 -1.40531 0
M  V30 17988 H 1687.17 -1.54432 -0.365585 0
M  V30 17989 H 1687.19 -2.40834 -2.94583 0
M  V30 17990 H 1686.71 -3.56481 -1.53436 0
M  V30 17991 H 1684.81 -1.80379 -3.26028 0
M  V30 17992 H 1684.92 -3.67836 -3.06974 0
M  V30 17993 H 1683.28 -1.89209 -1.70506 0
M  V30 17994 H 1684.07 -3.32674 -0.847509 0
M  V30 17995 N 1686.51 0.822941 -1.34408 0
M  V30 17996 C 1687.42 1.96567 -1.28056 0
M  V30 17997 C 1688.44 1.72979 -0.188251 0
M  V30 17998 O 1689.61 1.97084 -0.41472 0
M  V30 17999 C 1686.68 3.30865 -1.03583 0
M  V30 18000 C 1685.74 3.67461 -2.2197 0
M  V30 18001 C 1684.97 4.9535 -1.98655 0
M  V30 18002 O 1685.2 5.62521 -0.944785 0
M  V30 18003 O 1684.13 5.29824 -2.85605 0
M  V30 18004 H 1687.96 2.0487 -2.24192 0
M  V30 18005 H 1685.54 0.958334 -1.14614 0
M  V30 18006 H 1687.42 4.11298 -0.917162 0
M  V30 18007 H 1686.1 3.2353 -0.104868 0
M  V30 18008 H 1685.01 2.87472 -2.39396 0
M  V30 18009 H 1686.34 3.79481 -3.13456 0
M  V30 18010 N 1687.99 1.18137 1.04314 0
M  V30 18011 C 1689.22 1.00062 1.81666 0
M  V30 18012 C 1689.64 -0.446281 1.82729 0
M  V30 18013 O 1689 -1.32004 1.24277 0
M  V30 18014 C 1689.05 1.55698 3.25255 0
M  V30 18015 O 1688.15 0.776662 4.05021 0
M  V30 18016 H 1687.49 0.354651 0.561354 0
M  V30 18017 H 1690.02 1.56837 1.3139 0
M  V30 18018 H 1690.03 1.58303 3.76037 0
M  V30 18019 H 1688.71 2.61016 3.23795 0
M  V30 18020 H 1687.28 0.822723 3.63711 0
M  V30 18021 N 1689.47 -1.23186 0.98301 0
M  V30 18022 C 1690.88 -1.73484 0.689933 0
M  V30 18023 C 1691.23 -1.79428 -0.793724 0
M  V30 18024 O 1690.36 -1.43391 -1.62074 0
M  V30 18025 C 1690.95 -3.15068 1.24571 0
M  V30 18026 C 1689.51 -3.62812 1.00222 0
M  V30 18027 C 1688.66 -2.40988 1.37186 0
M  V30 18028 H 1691.61 -1.08672 1.15655 0
M  V30 18029 H 1691.63 -3.75425 0.619406 0
M  V30 18030 H 1691.14 -3.10709 2.32554 0
M  V30 18031 H 1689.24 -3.72549 -0.0614202 0
M  V30 18032 H 1689.35 -4.49473 1.65863 0
M  V30 18033 H 1687.72 -2.42127 0.79035 0
M  V30 18034 H 1688.5 -2.39299 2.46152 0
M  V30 18035 N 1690.95 -0.754982 -1.38339 0
M  V30 18036 C 1691.88 -0.0883836 -2.2903 0
M  V30 18037 C 1692.89 0.682258 -1.47814 0
M  V30 18038 O 1694.08 0.523117 -1.70663 0
M  V30 18039 C 1691.18 0.898819 -3.26764 0
M  V30 18040 C 1690.35 0.185527 -4.37006 0
M  V30 18041 C 1689.41 1.08368 -5.1492 0
M  V30 18042 O 1688.44 0.553687 -5.66501 0
M  V30 18043 N 1689.64 2.41164 -5.28034 0
M  V30 18044 H 1692.41 -0.86725 -2.86878 0
M  V30 18045 H 1689.97 -0.605886 -1.50135 0
M  V30 18046 H 1691.96 1.50273 -3.75766 0
M  V30 18047 H 1690.53 1.57876 -2.69804 0
M  V30 18048 H 1689.75 -0.599106 -3.89621 0
M  V30 18049 H 1691.04 -0.307999 -5.07867 0
M  V30 18050 H 1690.43 2.86677 -4.87681 0
M  V30 18051 H 1688.99 2.96602 -5.80406 0
M  V30 18052 N 1692.42 1.49318 -0.504168 0
M  V30 18053 C 1693.35 2.32027 0.261837 0
M  V30 18054 C 1694.34 1.4045 0.959575 0
M  V30 18055 O 1695.52 1.69357 0.950365 0
M  V30 18056 C 1692.65 3.21039 1.3248 0
M  V30 18057 C 1691.6 4.21435 0.746752 0
M  V30 18058 C 1690.93 4.99405 1.91047 0
M  V30 18059 C 1692.23 5.21631 -0.264315 0
M  V30 18060 H 1693.92 2.96317 -0.428544 0
M  V30 18061 H 1691.47 1.42497 -0.207539 0
M  V30 18062 H 1693.42 3.77714 1.86843 0
M  V30 18063 H 1692.15 2.54699 2.04441 0
M  V30 18064 H 1690.81 3.6591 0.22485 0
M  V30 18065 H 1690.45 4.29509 2.61784 0
M  V30 18066 H 1690.15 5.67338 1.52975 0
M  V30 18067 H 1691.68 5.58924 2.45837 0
M  V30 18068 H 1693.09 5.72981 0.191288 0
M  V30 18069 H 1691.49 5.97472 -0.561039 0
M  V30 18070 H 1692.56 4.70346 -1.17911 0
M  V30 18071 N 1693.9 0.238138 1.5579 0
M  V30 18072 C 1695.31 -0.266656 1.84786 0
M  V30 18073 C 1695.66 -1.58248 1.15983 0
M  V30 18074 O 1694.79 -2.11979 0.43518 0
M  V30 18075 C 1695.38 -0.4906 3.35229 0
M  V30 18076 C 1693.94 -0.939672 3.64482 0
M  V30 18077 C 1693.09 -0.0119682 2.77297 0
M  V30 18078 H 1696.04 0.460924 1.51859 0
M  V30 18079 H 1696.06 -1.3344 3.56334 0
M  V30 18080 H 1695.57 0.467239 3.85277 0
M  V30 18081 H 1693.68 -1.91029 3.19904 0
M  V30 18082 H 1693.79 -0.8026 4.72329 0
M  V30 18083 H 1692.15 -0.521767 2.49298 0
M  V30 18084 H 1692.94 0.941085 3.30149 0
M  V30 18085 N 1695.38 -1.57561 -0.0350783 0
M  V30 18086 C 1696.63 -1.90127 -0.722727 0
M  V30 18087 C 1696.98 -0.836071 -1.73285 0
M  V30 18088 O 1696.27 0.155911 -1.90965 0
M  V30 18089 C 1696.47 -3.27169 -1.43858 0
M  V30 18090 C 1696.3 -4.4692 -0.499303 0
M  V30 18091 C 1695.07 -5.05151 -0.122572 0
M  V30 18092 C 1697.27 -5.1383 0.219747 0
M  V30 18093 N 1695.25 -6.08418 0.818587 0
M  V30 18094 C 1696.62 -6.11606 1.01678 0
M  V30 18095 C 1698.67 -4.9707 0.287329 0
M  V30 18096 C 1697.38 -6.94428 1.87517 0
M  V30 18097 C 1699.4 -5.80449 1.13282 0
M  V30 18098 C 1698.76 -6.77791 1.9178 0
M  V30 18099 H 1694.86 -0.744663 -0.238749 0
M  V30 18100 H 1697.45 -1.94693 0.0170172 0
M  V30 18101 H 1695.62 -3.23543 -2.14882 0
M  V30 18102 H 1697.35 -3.47269 -2.07814 0
M  V30 18103 H 1694.11 -4.71126 -0.483458 0
M  V30 18104 H 1694.53 -6.64722 1.2835 0
M  V30 18105 H 1699.17 -4.21697 -0.305248 0
M  V30 18106 H 1696.89 -7.69151 2.47857 0
M  V30 18107 H 1700.48 -5.6953 1.18857 0
M  V30 18108 H 1699.36 -7.41187 2.56147 0
M  V30 18109 N 1696.86 0.307236 -1.54576 0
M  V30 18110 C 1697.82 1.36178 -1.84359 0
M  V30 18111 C 1698.82 1.43971 -0.716163 0
M  V30 18112 O 1700.01 1.43715 -0.98446 0
M  V30 18113 C 1697.14 2.74733 -2.01828 0
M  V30 18114 H 1698.34 1.11017 -2.78595 0
M  V30 18115 H 1695.89 0.543582 -1.46543 0
M  V30 18116 H 1696.62 3.05126 -1.09858 0
M  V30 18117 H 1696.41 2.70468 -2.83883 0
M  V30 18118 H 1697.9 3.50992 -2.26261 0
M  V30 18119 N 1698.34 1.46926 0.570122 0
M  V30 18120 C 1699.25 1.6105 1.70587 0
M  V30 18121 C 1700.26 0.493636 1.66851 0
M  V30 18122 O 1701.44 0.759454 1.86532 0
M  V30 18123 C 1698.5 1.60913 3.07096 0
M  V30 18124 C 1697.56 2.83928 3.21999 0
M  V30 18125 C 1696.8 2.83788 4.51996 0
M  V30 18126 O 1697.02 1.93256 5.36664 0
M  V30 18127 O 1695.95 3.75491 4.70415 0
M  V30 18128 H 1699.78 2.57126 1.61616 0
M  V30 18129 H 1697.37 1.29863 0.738637 0
M  V30 18130 H 1699.25 1.63576 3.88356 0
M  V30 18131 H 1697.92 0.680005 3.16477 0
M  V30 18132 H 1696.83 2.86814 2.40185 0
M  V30 18133 H 1698.16 3.76091 3.17516 0
M  V30 18134 N 1699.82 -0.815801 1.34842 0
M  V30 18135 C 1701.05 -1.60164 1.30503 0
M  V30 18136 C 1701.45 -1.88809 -0.121561 0
M  V30 18137 O 1700.8 -1.48511 -1.08121 0
M  V30 18138 C 1700.86 -2.96361 2.03495 0
M  V30 18139 C 1700.52 -2.90577 3.52724 0
M  V30 18140 C 1701.52 -2.6466 4.47495 0
M  V30 18141 C 1699.2 -3.09985 3.9524 0
M  V30 18142 C 1701.2 -2.58212 5.82757 0
M  V30 18143 C 1698.89 -3.03161 5.306 0
M  V30 18144 C 1699.88 -2.77309 6.2417 0
M  V30 18145 O 1699.57 -2.70431 7.57048 0
M  V30 18146 H 1699.3 -0.504321 0.450151 0
M  V30 18147 H 1701.86 -1.02254 1.78139 0
M  V30 18148 H 1700.09 -3.56219 1.50483 0
M  V30 18149 H 1701.78 -3.57429 1.92353 0
M  V30 18150 H 1702.54 -2.49394 4.15966 0
M  V30 18151 H 1698.42 -3.2912 3.22801 0
M  V30 18152 H 1701.97 -2.37954 6.55762 0
M  V30 18153 H 1697.86 -3.17982 5.61745 0
M  V30 18154 H 1698.63 -2.86107 7.66867 0
M  V30 18155 N 1701.29 -1.18689 -1.03686 0
M  V30 18156 C 1702.52 -1.01024 -1.81132 0
M  V30 18157 C 1702.94 0.436584 -1.82963 0
M  V30 18158 O 1702.3 1.31343 -1.24975 0
M  V30 18159 C 1702.35 -1.5742 -3.24424 0
M  V30 18160 O 1701.45 -0.79813 -4.04603 0
M  V30 18161 H 1700.79 -0.357623 -0.559465 0
M  V30 18162 H 1703.32 -1.57532 -1.30556 0
M  V30 18163 H 1703.33 -1.60295 -3.75193 0
M  V30 18164 H 1702.01 -2.6273 -3.22406 0
M  V30 18165 H 1700.59 -0.842 -3.6327 0
M  V30 18166 N 1702.77 1.22662 -0.989529 0
M  V30 18167 C 1703.68 2.28162 -0.545835 0
M  V30 18168 C 1704.7 1.69251 0.403762 0
M  V30 18169 O 1705.87 1.99563 0.271428 0
M  V30 18170 C 1702.94 3.46434 0.135808 0
M  V30 18171 C 1702 4.20673 -0.85633 0
M  V30 18172 C 1701.23 5.33298 -0.207121 0
M  V30 18173 O 1701.46 5.6157 0.99975 0
M  V30 18174 O 1700.39 5.94977 -0.910288 0
M  V30 18175 H 1704.22 2.68276 -1.42344 0
M  V30 18176 H 1701.8 1.28766 -0.757609 0
M  V30 18177 H 1703.68 4.18207 0.517776 0
M  V30 18178 H 1702.36 3.08252 0.988035 0
M  V30 18179 H 1701.26 3.51186 -1.28917 0
M  V30 18180 H 1702.6 4.62726 -1.67765 0
M  V30 18181 N 1704.25 0.762308 1.37937 0
M  V30 18182 C 1705.66 0.388966 1.82603 0
M  V30 18183 C 1706.01 -1.08362 1.63561 0
M  V30 18184 O 1705.14 -1.83842 1.14154 0
M  V30 18185 C 1705.73 0.699218 3.31506 0
M  V30 18186 C 1704.29 0.379048 3.74487 0
M  V30 18187 C 1703.44 0.947924 2.60595 0
M  V30 18188 H 1706.39 0.957743 1.26542 0
M  V30 18189 H 1706.41 -0.019502 3.80495 0
M  V30 18190 H 1705.92 1.77105 3.45334 0
M  V30 18191 H 1704.02 -0.685844 3.66233 0
M  V30 18192 H 1704.14 0.880697 4.70936 0
M  V30 18193 H 1702.5 0.372746 2.51958 0
M  V30 18194 H 1703.28 2.02496 2.77219 0
M  V30 18195 N 1705.73 -1.49049 0.51208 0
M  V30 18196 C 1706.67 -2.29326 -0.260408 0
M  V30 18197 C 1707.64 -1.36232 -0.950265 0
M  V30 18198 O 1708.83 -1.65193 -0.954777 0
M  V30 18199 C 1705.97 -3.19177 -1.31225 0
M  V30 18200 C 1705.08 -4.27336 -0.63305 0
M  V30 18201 C 1704.22 -5.04389 -1.66628 0
M  V30 18202 C 1703.26 -6.04372 -0.969561 0
M  V30 18203 N 1702.39 -6.74549 -1.94751 0
M  V30 18204 H 1707.23 -2.94876 0.430384 0
M  V30 18205 H 1704.77 -1.45383 0.224086 0
M  V30 18206 H 1706.73 -3.69655 -1.9342 0
M  V30 18207 H 1705.36 -2.55588 -1.97166 0
M  V30 18208 H 1704.41 -3.80262 0.102433 0
M  V30 18209 H 1705.72 -4.98727 -0.0851363 0
M  V30 18210 H 1704.88 -5.58791 -2.36299 0
M  V30 18211 H 1703.62 -4.32797 -2.24807 0
M  V30 18212 H 1702.62 -5.49191 -0.25869 0
M  V30 18213 H 1703.85 -6.77955 -0.394125 0
M  V30 18214 H 1701.79 -6.0572 -2.5187 0
M  V30 18215 H 1701.71 -7.41954 -1.45055 0
M  V30 18216 H 1702.98 -7.3355 -2.63675 0
M  V30 18217 N 1707.21 -0.246397 -1.55662 0
M  V30 18218 C 1708.15 0.653368 -2.21359 0
M  V30 18219 C 1709.12 1.1717 -1.1773 0
M  V30 18220 O 1710.31 1.22626 -1.46176 0
M  V30 18221 C 1707.45 1.84484 -2.9165 0
M  V30 18222 C 1706.56 1.36308 -4.09932 0
M  V30 18223 C 1705.7 2.51407 -4.6794 0
M  V30 18224 C 1704.73 2.0009 -5.78472 0
M  V30 18225 N 1703.87 3.08555 -6.30665 0
M  V30 18226 H 1708.71 0.0864458 -2.97875 0
M  V30 18227 H 1706.25 0.0309074 -1.47068 0
M  V30 18228 H 1708.21 2.54476 -3.30602 0
M  V30 18229 H 1706.84 2.38425 -2.17609 0
M  V30 18230 H 1705.89 0.557224 -3.76297 0
M  V30 18231 H 1707.2 0.946988 -4.89728 0
M  V30 18232 H 1706.35 3.29442 -5.09463 0
M  V30 18233 H 1705.09 2.96318 -3.87359 0
M  V30 18234 H 1704.1 1.20526 -5.36427 0
M  V30 18235 H 1705.32 1.5615 -6.60904 0
M  V30 18236 H 1703.27 3.529 -5.52989 0
M  V30 18237 H 1703.19 2.71274 -7.05653 0
M  V30 18238 H 1704.45 3.8665 -6.76847 0
M  V30 18239 N 1708.68 1.57577 0.026722 0
M  V30 18240 C 1709.61 2.09748 1.02605 0
M  V30 18241 C 1710.59 1.00054 1.37562 0
M  V30 18242 O 1711.78 1.2759 1.46405 0
M  V30 18243 C 1708.91 2.57881 2.32626 0
M  V30 18244 C 1707.86 3.7186 2.11905 0
M  V30 18245 C 1707.19 4.06208 3.47706 0
M  V30 18246 C 1708.49 5.00198 1.50332 0
M  V30 18247 H 1710.18 2.93494 0.591753 0
M  V30 18248 H 1707.73 1.41188 0.283199 0
M  V30 18249 H 1709.68 2.93 3.02868 0
M  V30 18250 H 1708.41 1.71222 2.7812 0
M  V30 18251 H 1707.07 3.37094 1.44096 0
M  V30 18252 H 1706.71 3.16611 3.90853 0
M  V30 18253 H 1706.41 4.82982 3.34667 0
M  V30 18254 H 1707.94 4.43863 4.19306 0
M  V30 18255 H 1709.35 5.33259 2.10494 0
M  V30 18256 H 1707.75 5.81599 1.4786 0
M  V30 18257 H 1708.82 4.82623 0.469405 0
M  V30 18258 N 1710.16 -0.299034 1.54737 0
M  V30 18259 C 1711.57 -0.871897 1.6509 0
M  V30 18260 C 1711.92 -1.88013 0.560843 0
M  V30 18261 O 1711.05 -2.1428 -0.302194 0
M  V30 18262 C 1711.64 -1.5882 2.99269 0
M  V30 18263 C 1710.2 -2.10944 3.11736 0
M  V30 18264 C 1709.35 -0.942776 2.60782 0
M  V30 18265 H 1712.3 -0.0759883 1.58518 0
M  V30 18266 H 1712.32 -2.45387 2.90802 0
M  V30 18267 H 1711.83 -0.854144 3.78584 0
M  V30 18268 H 1709.93 -2.87391 2.37144 0
M  V30 18269 H 1710.05 -2.34262 4.17921 0
M  V30 18270 H 1708.41 -1.3289 2.17284 0
M  V30 18271 H 1709.19 -0.222646 3.42577 0
M  V30 18272 N 1711.64 -1.47227 -0.562322 0
M  V30 18273 C 1712.89 -1.53286 -1.31712 0
M  V30 18274 C 1713.21 -0.194583 -1.94027 0
M  V30 18275 O 1712.48 0.780961 -1.7966 0
M  V30 18276 H 1711.06 -0.564621 -0.489094 0
M  V30 18277 H 1713.72 -1.83492 -0.657024 0
M  V30 18278 H 1712.82 -2.29665 -2.1133 0
M  V30 18279 N 1713.12 0.808639 -1.35273 0
M  V30 18280 C 1714.39 1.55238 -1.18998 0
M  V30 18281 C 1714.77 2.09824 0.231723 0
M  V30 18282 O 1714.12 1.92252 1.23497 0
M  V30 18283 C 1714.33 2.66252 -2.25634 0
M  V30 18284 C 1715.68 3.34646 -2.61338 0
M  V30 18285 O 1716.7 2.76521 -2.24532 0
M  V30 18286 O 1715.56 4.39644 -3.24615 0
M  V30 18287 H 1712.66 0.6858 -0.462176 0
M  V30 18288 H 1715.2 0.848777 -1.46949 0
M  V30 18289 H 1713.98 2.23774 -3.21 0
M  V30 18290 H 1713.6 3.4425 -1.98941 0
M  V30 18291 N 1714.6 1.19237 1.03055 0
M  V30 18292 C 1715.87 0.903353 1.7349 0
M  V30 18293 C 1716.25 -0.591365 2.02648 0
M  V30 18294 O 1715.6 -1.54906 1.67978 0
M  V30 18295 C 1715.81 1.7615 3.01284 0
M  V30 18296 C 1717.16 1.99477 3.74825 0
M  V30 18297 O 1718.18 1.73287 3.11207 0
M  V30 18298 O 1717.04 2.43628 4.89191 0
M  V30 18299 H 1714.14 0.336512 0.755439 0
M  V30 18300 H 1716.68 1.30041 1.09029 0
M  V30 18301 H 1715.45 2.77428 2.75952 0
M  V30 18302 H 1715.08 1.36361 3.73486 0
M  V30 18303 N 1716.07 -1.22136 0.99602 0
M  V30 18304 C 1717.49 -1.43072 0.707285 0
M  V30 18305 C 1717.69 -1.88163 -0.720906 0
M  V30 18306 O 1716.75 -2.03747 -1.49142 0
M  V30 18307 C 1718.06 -2.46963 1.71551 0
M  V30 18308 C 1719.61 -2.60758 1.73131 0
M  V30 18309 C 1720.08 -3.67873 2.72825 0
M  V30 18310 N 1721.57 -3.75334 2.71438 0
M  V30 18311 C 1722.31 -4.57817 3.45241 0
M  V30 18312 N 1721.8 -5.44268 4.28654 0
M  V30 18313 N 1723.6 -4.52157 3.33932 0
M  V30 18314 H 1715.75 -0.911751 1.91836 0
M  V30 18315 H 1718.01 -0.462523 0.827512 0
M  V30 18316 H 1717.72 -2.20784 2.73765 0
M  V30 18317 H 1717.59 -3.45618 1.51089 0
M  V30 18318 H 1719.98 -2.86279 0.716132 0
M  V30 18319 H 1720.06 -1.62367 1.97663 0
M  V30 18320 H 1719.7 -3.43098 3.74494 0
M  V30 18321 H 1719.63 -4.6584 2.45562 0
M  V30 18322 H 1722.12 -3.13566 2.10915 0
M  V30 18323 H 1722.44 -6.04236 4.81786 0
M  V30 18324 H 1720.78 -5.43839 4.3274 0
M  V30 18325 H 1723.97 -3.83645 2.68206 0
M  V30 18326 H 1724.15 -5.16207 3.91707 0
M  V30 18327 N 1717.55 -0.769612 -1.37531 0
M  V30 18328 C 1718.48 -0.168389 -2.32892 0
M  V30 18329 C 1719.46 0.685549 -1.55673 0
M  V30 18330 O 1720.65 0.62345 -1.8392 0
M  V30 18331 C 1717.78 0.713183 -3.39898 0
M  V30 18332 C 1716.73 -0.0392808 -4.27982 0
M  V30 18333 C 1716.06 0.961596 -5.25982 0
M  V30 18334 C 1717.36 -1.21704 -5.07923 0
M  V30 18335 H 1719.05 -0.965022 -2.83421 0
M  V30 18336 H 1716.6 -0.465502 -1.36268 0
M  V30 18337 H 1718.55 1.14358 -4.05586 0
M  V30 18338 H 1717.28 1.54231 -2.87889 0
M  V30 18339 H 1715.93 -0.450429 -3.63822 0
M  V30 18340 H 1715.58 1.78522 -4.70254 0
M  V30 18341 H 1715.28 0.462679 -5.85776 0
M  V30 18342 H 1716.81 1.39097 -5.94545 0
M  V30 18343 H 1718.22 -0.863405 -5.66761 0
M  V30 18344 H 1716.62 -1.6479 -5.77031 0
M  V30 18345 H 1717.69 -2.02219 -4.40722 0
M  V30 18346 N 1719.03 1.48775 -0.519977 0
M  V30 18347 C 1719.96 2.26281 0.295295 0
M  V30 18348 C 1720.94 1.31694 0.953695 0
M  V30 18349 O 1722.13 1.61019 0.980063 0
M  V30 18350 C 1719.25 3.07617 1.41738 0
M  V30 18351 C 1718.3 4.17503 0.871411 0
M  V30 18352 S 1719.13 5.34903 -0.252845 0
M  V30 18353 C 1720.29 6.19797 0.871949 0
M  V30 18354 H 1720.52 2.95082 -0.362498 0
M  V30 18355 H 1718.05 1.51346 -0.305587 0
M  V30 18356 H 1720.01 3.55058 2.0602 0
M  V30 18357 H 1718.67 2.38249 2.04685 0
M  V30 18358 H 1717.87 4.74 1.71288 0
M  V30 18359 H 1717.47 3.7275 0.305463 0
M  V30 18360 H 1719.76 6.53892 1.7729 0
M  V30 18361 H 1720.7 7.07258 0.345174 0
M  V30 18362 H 1721.11 5.52707 1.14784 0
M  V30 18363 N 1720.51 0.254649 1.55529 0
M  V30 18364 C 1721.46 -0.64162 2.21702 0
M  V30 18365 C 1722.43 -1.16544 1.1835 0
M  V30 18366 O 1723.61 -1.2185 1.46824 0
M  V30 18367 C 1720.75 -1.82935 2.92624 0
M  V30 18368 C 1719.86 -1.34132 4.10649 0
M  V30 18369 C 1719 -2.48922 4.69267 0
M  V30 18370 C 1718.04 -1.9702 5.79525 0
M  V30 18371 N 1717.17 -3.05206 6.32293 0
M  V30 18372 H 1722.01 -0.0706476 2.97916 0
M  V30 18373 H 1719.55 -0.0231077 1.47082 0
M  V30 18374 H 1721.51 -2.52719 3.31947 0
M  V30 18375 H 1720.14 -2.37267 2.1887 0
M  V30 18376 H 1719.19 -0.53726 3.76587 0
M  V30 18377 H 1720.5 -0.921003 4.90223 0
M  V30 18378 H 1719.66 -3.26735 5.11203 0
M  V30 18379 H 1718.4 -2.94259 3.88925 0
M  V30 18380 H 1717.4 -1.17679 5.37058 0
M  V30 18381 H 1718.63 -1.52643 6.61723 0
M  V30 18382 H 1716.57 -3.49963 5.54853 0
M  V30 18383 H 1716.49 -2.67528 7.07082 0
M  V30 18384 H 1717.76 -3.83055 6.78888 0
M  V30 18385 N 1721.99 -1.57589 -0.0183649 0
M  V30 18386 C 1722.93 -2.08354 -1.03398 0
M  V30 18387 C 1723.93 -0.999575 -1.36766 0
M  V30 18388 O 1725.13 -1.18438 -1.35545 0
M  V30 18389 H 1721.51 -0.665046 -0.351023 0
M  V30 18390 H 1723.48 -2.92707 -0.580111 0
M  V30 18391 C 1722.23 -2.58713 -2.32299 0
M  V30 18392 H 1721.55 -3.41744 -2.07487 0
M  V30 18393 H 1722.99 -2.97932 -3.01683 0
M  V30 18394 C 1721.45 -1.49307 -3.02008 0
M  V30 18395 O 1721.98 -0.865426 -3.92267 0
M  V30 18396 N 1720.19 -1.225 -2.63519 0
M  V30 18397 H 1719.73 -1.73724 -1.90205 0
M  V30 18398 H 1719.69 -0.495132 -3.10477 0
M  V30 18399 N 1723.46 0.290824 -1.54893 0
M  V30 18400 C 1724.88 0.637054 -1.46334 0
M  V30 18401 C 1725.08 1.90285 -0.66285 0
M  V30 18402 O 1724.14 2.51896 -0.174589 0
M  V30 18403 C 1725.45 0.780585 -2.90392 0
M  V30 18404 C 1727 0.875807 -3.00497 0
M  V30 18405 C 1727.47 1.05126 -4.45772 0
M  V30 18406 N 1728.96 1.11721 -4.49525 0
M  V30 18407 C 1729.7 1.27145 -5.59126 0
M  V30 18408 N 1729.19 1.39401 -6.7863 0
M  V30 18409 N 1730.99 1.30114 -5.46833 0
M  V30 18410 H 1723.14 -0.540707 -2.05402 0
M  V30 18411 H 1725.4 -0.180344 -0.930688 0
M  V30 18412 H 1725.11 -0.0787855 -3.51612 0
M  V30 18413 H 1724.98 1.66644 -3.38392 0
M  V30 18414 H 1727.37 1.72566 -2.39385 0
M  V30 18415 H 1727.45 -0.0342844 -2.55777 0
M  V30 18416 H 1727.09 0.206135 -5.07482 0
M  V30 18417 H 1727.02 1.97573 -4.88132 0
M  V30 18418 H 1729.51 1.03562 -3.63433 0
M  V30 18419 H 1729.83 1.50953 -7.57914 0
M  V30 18420 H 1728.17 1.36438 -6.81476 0
M  V30 18421 H 1731.36 1.20157 -4.52416 0
M  V30 18422 H 1731.54 1.4179 -6.32297 0
M  V30 18423 N 1724.94 1.47523 0.554506 0
M  V30 18424 C 1725.91 1.59761 1.64345 0
M  V30 18425 C 1726.91 0.472516 1.53701 0
M  V30 18426 O 1728.1 0.737659 1.57811 0
M  V30 18427 C 1725.23 1.54467 3.03896 0
M  V30 18428 H 1726.42 2.56834 1.54842 0
M  V30 18429 H 1723.97 1.35753 0.774643 0
M  V30 18430 H 1724.71 0.587789 3.18929 0
M  V30 18431 H 1724.49 2.36123 3.13031 0
M  V30 18432 H 1725.98 1.66174 3.83113 0
M  V30 18433 N 1726.42 -0.801453 1.357 0
M  V30 18434 C 1727.7 -1.54605 1.19819 0
M  V30 18435 C 1728.08 -2.09944 -0.220593 0
M  V30 18436 O 1727.43 -1.92904 -1.22475 0
M  V30 18437 C 1727.64 -2.65052 2.27043 0
M  V30 18438 C 1728.98 -3.33255 2.63109 0
M  V30 18439 O 1730.01 -2.75326 2.25995 0
M  V30 18440 O 1728.87 -4.37917 3.26942 0
M  V30 18441 H 1725.96 -0.68334 0.465807 0
M  V30 18442 H 1728.51 -0.840972 1.47397 0
M  V30 18443 H 1727.28 -2.22068 3.22182 0
M  V30 18444 H 1726.9 -3.4319 2.00764 0
M  V30 18445 N 1727.9 -1.19782 -1.02421 0
M  V30 18446 C 1728.85 -0.907509 -2.09161 0
M  V30 18447 C 1729.83 0.129596 -1.60377 0
M  V30 18448 O 1731.02 -0.0767382 -1.76834 0
M  V30 18449 C 1728.15 -0.453095 -3.40297 0
M  V30 18450 C 1727.24 -1.5232 -3.95802 0
M  V30 18451 N 1727.63 -2.74379 -4.24912 0
M  V30 18452 C 1725.93 -1.38758 -4.23866 0
M  V30 18453 C 1726.63 -3.43348 -4.6956 0
M  V30 18454 N 1725.61 -2.70749 -4.71376 0
M  V30 18455 H 1729.41 -1.83512 -2.29566 0
M  V30 18456 H 1726.92 -1.09068 -1.20324 0
M  V30 18457 H 1728.92 -0.226551 -4.16284 0
M  V30 18458 H 1727.58 0.467983 -3.2131 0
M  V30 18459 H 1728.59 -3.11099 -4.1405 0
M  V30 18460 H 1725.27 -0.530327 -4.14118 0
M  V30 18461 H 1726.66 -4.47753 -5.00966 0
M  V30 18462 N 1729.38 1.21606 -1.00248 0
M  V30 18463 C 1730.79 1.42695 -0.714862 0
M  V30 18464 C 1730.99 1.88542 0.710917 0
M  V30 18465 O 1730.05 2.04535 1.48059 0
M  V30 18466 C 1731.36 2.4605 -1.72858 0
M  V30 18467 C 1732.91 2.59836 -1.74511 0
M  V30 18468 C 1733.39 3.66421 -2.74772 0
M  V30 18469 N 1734.88 3.73889 -2.73425 0
M  V30 18470 C 1735.61 4.5598 -3.47664 0
M  V30 18471 N 1735.11 5.41987 -4.31535 0
M  V30 18472 N 1736.9 4.50379 -3.36326 0
M  V30 18473 H 1729.05 0.901565 -1.92316 0
M  V30 18474 H 1731.31 0.458128 -0.829954 0
M  V30 18475 H 1731.02 2.19329 -2.74932 0
M  V30 18476 H 1730.89 3.44812 -1.5292 0
M  V30 18477 H 1733.28 2.85895 -0.731304 0
M  V30 18478 H 1733.36 1.61317 -1.98521 0
M  V30 18479 H 1733.01 3.41108 -3.76308 0
M  V30 18480 H 1732.94 4.64531 -2.48029 0
M  V30 18481 H 1735.43 3.12443 -2.12575 0
M  V30 18482 H 1735.74 6.01673 -4.84984 0
M  V30 18483 H 1734.09 5.41537 -4.35618 0
M  V30 18484 H 1737.28 3.82217 -2.70237 0
M  V30 18485 H 1737.45 5.14122 -3.9444 0
M  V30 18486 N 1730.86 0.776895 1.37121 0
M  V30 18487 C 1732.08 0.353911 2.04358 0
M  V30 18488 C 1732.51 -1.01745 1.58207 0
M  V30 18489 O 1731.86 -1.653 0.744691 0
M  V30 18490 C 1731.91 0.411918 3.5824 0
M  V30 18491 O 1731.02 -0.58576 4.08219 0
M  V30 18492 H 1730.36 0.152335 0.64629 0
M  V30 18493 H 1732.89 1.05452 1.75331 0
M  V30 18494 H 1732.9 0.271043 4.07099 0
M  V30 18495 H 1731.57 1.41236 3.91185 0
M  V30 18496 H 1730.15 -0.40758 3.70666 0
M  V30 18497 N 1732.33 -1.48497 0.527859 0
M  V30 18498 C 1733.56 -2.07399 -0.00510725 0
M  V30 18499 C 1733.98 -1.38211 -1.2759 0
M  V30 18500 O 1733.34 -0.447373 -1.75694 0
M  V30 18501 C 1733.39 -3.59963 -0.214295 0
M  V30 18502 O 1732.49 -3.91921 -1.28342 0
M  V30 18503 H 1731.83 -0.662901 0.0381838 0
M  V30 18504 H 1734.36 -1.90936 0.735166 0
M  V30 18505 H 1734.37 -4.05646 -0.437604 0
M  V30 18506 H 1733.05 -4.09725 0.714028 0
M  V30 18507 H 1731.63 -3.58019 -1.04293 0
M  V30 18508 N 1733.81 -0.262893 -1.55392 0
M  V30 18509 C 1735.22 0.237224 -1.85187 0
M  V30 18510 C 1735.57 1.56383 -1.18486 0
M  V30 18511 O 1734.7 2.1126 -0.468849 0
M  V30 18512 C 1735.29 0.437206 -3.35967 0
M  V30 18513 C 1733.85 0.881568 -3.65931 0
M  V30 18514 C 1733 -0.0321489 -2.77281 0
M  V30 18515 H 1735.95 -0.485025 -1.51107 0
M  V30 18516 H 1735.97 1.27755 -3.58412 0
M  V30 18517 H 1735.48 -0.528474 -3.84485 0
M  V30 18518 H 1733.58 1.85915 -3.22903 0
M  V30 18519 H 1733.7 0.727355 -4.73547 0
M  V30 18520 H 1732.06 0.48204 -2.50097 0
M  V30 18521 H 1732.84 -0.99349 -3.2861 0
M  V30 18522 N 1735.29 1.57597 0.0100073 0
M  V30 18523 C 1736.24 2.089 1.02292 0
M  V30 18524 C 1737.23 1.00681 1.36234 0
M  V30 18525 O 1738.44 1.19155 1.34915 0
M  V30 18526 H 1734.81 0.666899 0.347491 0
M  V30 18527 H 1736.78 2.9301 0.56458 0
M  V30 18528 C 1735.53 2.59942 2.30923 0
M  V30 18529 H 1734.86 3.4284 2.05672 0
M  V30 18530 H 1736.3 2.99528 3.00098 0
M  V30 18531 C 1734.75 1.50907 3.01212 0
M  V30 18532 O 1735.28 0.886216 3.91802 0
M  V30 18533 N 1733.49 1.23895 2.62866 0
M  V30 18534 H 1733.04 1.7473 1.89281 0
M  V30 18535 H 1733 0.511591 3.1021 0
M  V30 18536 N 1736.77 -0.282606 1.55045 0
M  V30 18537 C 1738.01 -1.01698 1.75458 0
M  V30 18538 C 1738.35 -1.86284 0.548808 0
M  V30 18539 O 1737.62 -1.89131 -0.45382 0
M  V30 18540 C 1737.9 -1.90759 3.05423 0
M  V30 18541 C 1737.76 -1.0923 4.36336 0
M  V30 18542 C 1739.08 -2.8963 3.31364 0
M  V30 18543 H 1736.2 -0.368305 0.638373 0
M  V30 18544 H 1738.84 -0.290118 1.87772 0
M  V30 18545 H 1736.99 -2.52734 2.95055 0
M  V30 18546 H 1738.66 -0.493996 4.58647 0
M  V30 18547 H 1736.9 -0.395481 4.31994 0
M  V30 18548 H 1737.57 -1.74842 5.23578 0
M  V30 18549 H 1740.05 -2.37788 3.41462 0
M  V30 18550 H 1738.93 -3.49096 4.23584 0
M  V30 18551 H 1739.19 -3.64255 2.50541 0
M  V30 18552 N 1738.25 -1.47815 -0.546675 0
M  V30 18553 C 1739.21 -1.6063 -1.63495 0
M  V30 18554 C 1740.21 -0.480661 -1.53448 0
M  V30 18555 O 1741.4 -0.746017 -1.57417 0
M  V30 18556 C 1738.53 -1.56076 -3.03073 0
M  V30 18557 H 1739.72 -2.57652 -1.53478 0
M  V30 18558 H 1737.28 -1.36162 -0.767433 0
M  V30 18559 H 1738.01 -0.604694 -3.18613 0
M  V30 18560 H 1737.8 -2.3778 -3.11774 0
M  V30 18561 H 1739.29 -1.68204 -3.82227 0
M  V30 18562 N 1739.72 0.794246 -1.36123 0
M  V30 18563 C 1740.67 1.92808 -1.30108 0
M  V30 18564 C 1741.67 1.68289 -0.193734 0
M  V30 18565 O 1742.87 1.76354 -0.360454 0
M  V30 18566 H 1739.25 0.633671 -0.404926 0
M  V30 18567 H 1741.22 1.95 -2.2587 0
M  V30 18568 C 1739.97 3.29762 -1.10238 0
M  V30 18569 H 1739.29 3.49193 -1.9469 0
M  V30 18570 H 1740.73 4.09463 -1.10073 0
M  V30 18571 C 1739.19 3.36345 0.193222 0
M  V30 18572 O 1739.72 3.83832 1.18474 0
M  V30 18573 N 1737.92 2.89638 0.236243 0
M  V30 18574 H 1737.47 2.51186 -0.571245 0
M  V30 18575 H 1737.43 2.94424 1.1028 0
M  V30 18576 N 1741.2 1.20323 1.01785 0
M  V30 18577 C 1742.13 0.908716 2.10416 0
M  V30 18578 C 1743.15 -0.103029 1.62474 0
M  V30 18579 O 1744.34 0.127825 1.78042 0
M  V30 18580 C 1741.44 0.340601 3.37184 0
M  V30 18581 C 1740.61 1.40358 4.14268 0
M  V30 18582 C 1739.67 0.847016 5.19338 0
M  V30 18583 O 1738.69 1.5274 5.48324 0
M  V30 18584 N 1739.9 -0.344198 5.79479 0
M  V30 18585 H 1742.66 1.84383 2.36269 0
M  V30 18586 H 1740.22 1.10673 1.18165 0
M  V30 18587 H 1742.21 -0.0458443 4.04674 0
M  V30 18588 H 1740.78 -0.499042 3.08591 0
M  V30 18589 H 1740 1.96442 3.41766 0
M  V30 18590 H 1741.29 2.11952 4.62551 0
M  V30 18591 H 1740.69 -0.914263 5.58263 0
M  V30 18592 H 1739.25 -0.672296 6.48324 0
M  V30 18593 N 1742.68 -1.21073 1.00892 0
M  V30 18594 C 1744.09 -1.71982 0.726576 0
M  V30 18595 C 1744.44 -1.81071 -0.755486 0
M  V30 18596 O 1743.57 -1.46797 -1.58996 0
M  V30 18597 C 1744.16 -3.12354 1.31226 0
M  V30 18598 C 1742.72 -3.60605 1.07895 0
M  V30 18599 C 1741.87 -2.38024 1.42267 0
M  V30 18600 H 1744.82 -1.06195 1.17934 0
M  V30 18601 H 1744.84 -3.74026 0.6989 0
M  V30 18602 H 1744.35 -3.05707 2.39092 0
M  V30 18603 H 1742.45 -3.72596 0.0176168 0
M  V30 18604 H 1742.57 -4.45854 1.7536 0
M  V30 18605 H 1740.93 -2.40396 0.841531 0
M  V30 18606 H 1741.71 -2.34024 2.51173 0
M  V30 18607 N 1744.16 -0.784156 -1.36707 0
M  V30 18608 C 1745.57 -0.417967 -1.81961 0
M  V30 18609 C 1745.92 1.05746 -1.65264 0
M  V30 18610 O 1745.05 1.82003 -1.17064 0
M  V30 18611 C 1745.64 -0.751869 -3.30352 0
M  V30 18612 C 1744.2 -0.438578 -3.73836 0
M  V30 18613 C 1743.35 -0.989262 -2.59054 0
M  V30 18614 H 1746.3 -0.977754 -1.25003 0
M  V30 18615 H 1746.32 -0.041034 -3.80478 0
M  V30 18616 H 1745.83 -1.82576 -3.42473 0
M  V30 18617 H 1743.93 0.627493 -3.67278 0
M  V30 18618 H 1744.04 -0.955508 -4.69475 0
M  V30 18619 H 1742.41 -0.412783 -2.51333 0
M  V30 18620 H 1743.19 -2.06881 -2.73962 0
M  V30 18621 N 1745.64 1.48215 -0.535727 0
M  V30 18622 C 1746.86 2.07399 -0.00589172 0
M  V30 18623 C 1747.29 1.38886 1.26856 0
M  V30 18624 O 1746.64 0.456684 1.75454 0
M  V30 18625 C 1746.69 3.60071 0.195203 0
M  V30 18626 O 1745.8 3.92596 1.26261 0
M  V30 18627 H 1745.14 0.662689 -0.0416988 0
M  V30 18628 H 1747.67 1.90543 -0.745281 0
M  V30 18629 H 1747.68 4.05873 0.416085 0
M  V30 18630 H 1746.35 4.0934 -0.735747 0
M  V30 18631 H 1744.93 3.58567 1.02393 0
M  V30 18632 N 1747.11 0.27113 1.5525 0
M  V30 18633 C 1748.53 -0.2274 1.8531 0
M  V30 18634 C 1748.88 -1.55752 1.19314 0
M  V30 18635 O 1748 -2.11008 0.480046 0
M  V30 18636 C 1748.6 -0.419382 3.36194 0
M  V30 18637 C 1747.16 -0.862149 3.66393 0
M  V30 18638 C 1746.3 0.0468534 2.7726 0
M  V30 18639 H 1749.25 0.493032 1.50847 0
M  V30 18640 H 1749.27 -1.25852 3.59084 0
M  V30 18641 H 1748.79 0.548856 3.84199 0
M  V30 18642 H 1746.89 -1.842 3.23884 0
M  V30 18643 H 1747 -0.702231 4.73926 0
M  V30 18644 H 1745.36 -0.468769 2.50349 0
M  V30 18645 H 1746.15 1.0109 3.28079 0
M  V30 18646 N 1748.59 -1.576 -0.00164943 0
M  V30 18647 C 1749.84 -1.9012 -0.685486 0
M  V30 18648 C 1750.16 -0.872245 -1.74404 0
M  V30 18649 O 1749.43 0.090572 -1.95691 0
M  V30 18650 H 1748.01 -0.701699 -0.256177 0
M  V30 18651 H 1750.67 -1.94861 0.0388866 0
M  V30 18652 H 1749.77 -2.89831 -1.15778 0
M  V30 18653 N 1750.07 0.274379 -1.55193 0
M  V30 18654 C 1751.32 1.00418 -1.75387 0
M  V30 18655 C 1751.64 1.86868 -0.557244 0
M  V30 18656 O 1750.91 1.9117 0.427883 0
M  V30 18657 H 1749.49 0.373753 -0.646775 0
M  V30 18658 H 1752.15 0.298942 -1.92594 0
M  V30 18659 H 1751.25 1.64191 -2.6542 0
M  V30 18660 N 1751.55 1.48103 0.538828 0
M  V30 18661 C 1752.5 1.61966 1.64425 0
M  V30 18662 C 1753.47 0.461999 1.59546 0
M  V30 18663 O 1754.65 0.684377 1.78104 0
M  V30 18664 C 1751.79 1.65711 3.02711 0
M  V30 18665 C 1750.9 2.92522 3.17891 0
M  V30 18666 C 1750.04 2.87485 4.46683 0
M  V30 18667 C 1749.08 4.0904 4.5536 0
M  V30 18668 N 1748.21 4.02131 5.7553 0
M  V30 18669 H 1753.05 2.5637 1.51916 0
M  V30 18670 H 1750.59 1.27146 0.739745 0
M  V30 18671 H 1752.55 1.65864 3.82812 0
M  V30 18672 H 1751.18 0.748045 3.14013 0
M  V30 18673 H 1750.23 3.02154 2.311 0
M  V30 18674 H 1751.54 3.82487 3.20165 0
M  V30 18675 H 1750.7 2.8599 5.35065 0
M  V30 18676 H 1749.44 1.95234 4.46917 0
M  V30 18677 H 1748.44 4.10819 3.65387 0
M  V30 18678 H 1749.67 5.02439 4.56872 0
M  V30 18679 H 1747.61 3.12695 5.76678 0
M  V30 18680 H 1747.53 4.85791 5.7926 0
M  V30 18681 H 1748.8 4.04682 6.66223 0
M  V30 18682 N 1753.03 -0.787016 1.36542 0
M  V30 18683 C 1754.25 -1.58103 1.34231 0
M  V30 18684 C 1754.68 -1.87956 -0.0734932 0
M  V30 18685 O 1754.03 -1.48073 -1.04615 0
M  V30 18686 C 1754.08 -2.87739 2.17345 0
M  V30 18687 O 1753.19 -3.81445 1.56759 0
M  V30 18688 H 1752.53 -0.479495 0.459326 0
M  V30 18689 H 1755.06 -0.975294 1.79859 0
M  V30 18690 H 1755.07 -3.36986 2.3001 0
M  V30 18691 H 1753.74 -2.65338 3.20264 0
M  V30 18692 H 1752.32 -3.40046 1.53047 0
M  V30 18693 N 1754.5 -1.20861 -1.01145 0
M  V30 18694 C 1755.47 -0.963742 -2.07954 0
M  V30 18695 C 1756.47 0.0627362 -1.60678 0
M  V30 18696 O 1757.66 -0.173867 -1.7333 0
M  V30 18697 C 1754.79 -0.451977 -3.3789 0
M  V30 18698 H 1755.98 -1.91123 -2.3111 0
M  V30 18699 H 1753.54 -1.0247 -1.18024 0
M  V30 18700 H 1754.27 0.500735 -3.20411 0
M  V30 18701 H 1754.06 -1.19231 -3.73532 0
M  V30 18702 H 1755.55 -0.300308 -4.16519 0
M  V30 18703 N 1755.98 1.20536 -1.01532 0
M  V30 18704 C 1757.21 1.93571 -0.722055 0
M  V30 18705 C 1757.62 1.74923 0.721011 0
M  V30 18706 O 1756.96 1.05961 1.5006 0
M  V30 18707 C 1757.03 3.45989 -0.97632 0
M  V30 18708 C 1756.69 3.88397 -2.40825 0
M  V30 18709 C 1757.69 3.94262 -3.38901 0
M  V30 18710 C 1755.37 4.20422 -2.74865 0
M  V30 18711 C 1757.37 4.3156 -4.69078 0
M  V30 18712 C 1755.05 4.57395 -4.05256 0
M  V30 18713 C 1756.05 4.62937 -5.02174 0
M  V30 18714 O 1755.74 4.99063 -6.30232 0
M  V30 18715 H 1755.47 0.622101 -0.264511 0
M  V30 18716 H 1758.02 1.5401 -1.35905 0
M  V30 18717 H 1756.25 3.85669 -0.282161 0
M  V30 18718 H 1757.94 4.00251 -0.674832 0
M  V30 18719 H 1758.71 3.69686 -3.13938 0
M  V30 18720 H 1754.59 4.153 -2.00117 0
M  V30 18721 H 1758.13 4.358 -5.44724 0
M  V30 18722 H 1754.03 4.81427 -4.29998 0
M  V30 18723 H 1754.8 5.1706 -6.34501 0
M  V30 18724 N 1757.46 0.791395 1.36289 0
M  V30 18725 C 1758.42 0.197069 2.28351 0
M  V30 18726 C 1759.42 -0.606748 1.48913 0
M  V30 18727 O 1760.61 -0.427453 1.68874 0
M  V30 18728 C 1757.75 -0.727009 3.33058 0
M  V30 18729 H 1758.94 1.00885 2.82422 0
M  V30 18730 H 1756.49 0.560959 1.45887 0
M  V30 18731 H 1757.23 -1.56306 2.84146 0
M  V30 18732 H 1757.01 -0.152537 3.91803 0
M  V30 18733 H 1758.5 -1.13765 4.01805 0
M  V30 18734 N 1758.94 -1.47929 0.54358 0
M  V30 18735 C 1760.16 -2.07393 0.0168905 0
M  V30 18736 C 1760.59 -1.39557 -1.26117 0
M  V30 18737 O 1759.95 -0.465983 -1.75209 0
M  V30 18738 C 1760 -3.6017 -0.176105 0
M  V30 18739 O 1759.1 -3.9326 -1.24178 0
M  V30 18740 H 1758.44 -0.662459 0.0452126 0
M  V30 18741 H 1760.97 -1.90145 0.755376 0
M  V30 18742 H 1760.98 -4.06088 -0.394555 0
M  V30 18743 H 1759.66 -4.08944 0.757445 0
M  V30 18744 H 1758.23 -3.59105 -1.0049 0
M  V30 18745 N 1760.42 -0.27936 -1.55104 0
M  V30 18746 C 1761.67 0.335541 -1.99295 0
M  V30 18747 C 1761.99 1.56059 -1.16921 0
M  V30 18748 O 1761.26 1.9417 -0.259773 0
M  V30 18749 H 1759.84 0.126968 -0.736131 0
M  V30 18750 H 1762.5 -0.385679 -1.91046 0
M  V30 18751 H 1761.59 0.622493 -3.05829 0
M  V30 18752 N 1761.9 1.57599 -0.0067085 0
M  V30 18753 C 1763.12 1.95142 0.687533 0
M  V30 18754 C 1763.54 0.88196 1.66934 0
M  V30 18755 O 1762.9 -0.13847 1.81974 0
M  V30 18756 C 1762.95 3.32718 1.41355 0
M  V30 18757 O 1762.67 4.3556 0.471111 0
M  V30 18758 C 1764.17 3.84761 2.20168 0
M  V30 18759 H 1761.39 0.643222 0.191066 0
M  V30 18760 H 1763.93 2.04412 -0.0598214 0
M  V30 18761 H 1762.09 3.24735 2.11248 0
M  V30 18762 H 1762.5 5.15185 0.984091 0
M  V30 18763 H 1763.98 4.83432 2.66454 0
M  V30 18764 H 1764.45 3.1782 3.03129 0
M  V30 18765 H 1765.06 3.9594 1.55278 0
M  V30 18766 N 1763.37 -0.266145 1.55336 0
M  V30 18767 C 1764.6 -1.01489 1.80299 0
M  V30 18768 C 1765.02 -1.79679 0.579742 0
M  V30 18769 O 1764.37 -1.76831 -0.451319 0
M  V30 18770 C 1764.42 -1.96805 3.03233 0
M  V30 18771 O 1764.15 -1.21782 4.20834 0
M  V30 18772 C 1765.65 -2.83436 3.40851 0
M  V30 18773 H 1762.87 -0.299504 0.600449 0
M  V30 18774 H 1765.41 -0.294854 2.02363 0
M  V30 18775 H 1763.57 -2.64262 2.83275 0
M  V30 18776 H 1763.98 -1.86086 4.9038 0
M  V30 18777 H 1765.45 -3.461 4.30022 0
M  V30 18778 H 1765.93 -3.53559 2.60562 0
M  V30 18779 H 1766.54 -2.2146 3.63092 0
M  V30 18780 N 1764.85 -1.48386 -0.530967 0
M  V30 18781 C 1765.81 -1.62355 -1.61782 0
M  V30 18782 C 1766.81 -0.496909 -1.5293 0
M  V30 18783 O 1768 -0.762672 -1.56617 0
M  V30 18784 C 1765.14 -1.59282 -3.014 0
M  V30 18785 H 1766.33 -2.59265 -1.50737 0
M  V30 18786 H 1763.88 -1.36969 -0.752948 0
M  V30 18787 H 1764.62 -0.638453 -3.17953 0
M  V30 18788 H 1764.4 -2.41073 -3.09235 0
M  V30 18789 H 1765.89 -1.72248 -3.80421 0
M  V30 18790 N 1766.33 0.779763 -1.36958 0
M  V30 18791 C 1767.28 1.89278 -1.32071 0
M  V30 18792 C 1768.25 1.65037 -0.18766 0
M  V30 18793 O 1769.43 1.87064 -0.375736 0
M  V30 18794 C 1766.57 3.2623 -1.12552 0
M  V30 18795 C 1765.68 3.62479 -2.35017 0
M  V30 18796 C 1764.82 4.88599 -2.08434 0
M  V30 18797 C 1763.86 5.17555 -3.26808 0
M  V30 18798 N 1763 6.3486 -2.99828 0
M  V30 18799 H 1767.84 1.9279 -2.27235 0
M  V30 18800 H 1765.37 0.942656 -1.12927 0
M  V30 18801 H 1767.33 4.0522 -0.992595 0
M  V30 18802 H 1765.96 3.22114 -0.210387 0
M  V30 18803 H 1765.01 2.78536 -2.59079 0
M  V30 18804 H 1766.32 3.7982 -3.23324 0
M  V30 18805 H 1765.48 5.75476 -1.92127 0
M  V30 18806 H 1764.22 4.73346 -1.17453 0
M  V30 18807 H 1763.22 4.29156 -3.43664 0
M  V30 18808 H 1764.45 5.34721 -4.18629 0
M  V30 18809 H 1762.39 6.20981 -2.11468 0
M  V30 18810 H 1762.31 6.52579 -3.81676 0
M  V30 18811 H 1763.58 7.24695 -2.8712 0
M  V30 18812 N 1767.81 1.21396 1.00503 0
M  V30 18813 C 1769.06 1.02536 1.73693 0
M  V30 18814 C 1769.37 -0.441584 1.9055 0
M  V30 18815 O 1770.58 -0.749579 2.60947 0
M  V30 18816 C 1769.03 1.78602 3.12457 0
M  V30 18817 C 1768.64 3.29466 3.03573 0
M  V30 18818 C 1770.38 1.68149 3.89777 0
M  V30 18819 C 1768.29 3.98021 4.37416 0
M  V30 18820 H 1767.22 0.380052 0.651212 0
M  V30 18821 H 1769.87 1.4513 1.12292 0
M  V30 18822 H 1768.25 1.288 3.74468 0
M  V30 18823 H 1769.43 3.8657 2.50799 0
M  V30 18824 H 1767.74 3.4046 2.39741 0
M  V30 18825 H 1770.34 2.167 4.8882 0
M  V30 18826 H 1770.68 0.639716 4.11355 0
M  V30 18827 H 1771.22 2.15428 3.34418 0
M  V30 18828 H 1767.95 5.02401 4.21039 0
M  V30 18829 H 1767.47 3.45706 4.9015 0
M  V30 18830 H 1769.15 4.02932 5.06216 0
M  V30 18831 N 1769.29 -1.19996 1.0217 0
M  V30 18832 C 1770.51 -1.93466 0.733374 0
M  V30 18833 C 1770.93 -1.75074 -0.70672 0
M  V30 18834 O 1770.29 -1.068 -1.47987 0
M  V30 18835 C 1770.34 -3.45425 1.06601 0
M  V30 18836 O 1770.06 -3.6322 2.44954 0
M  V30 18837 C 1771.56 -4.36032 0.799458 0
M  V30 18838 H 1768.78 -0.614762 0.268903 0
M  V30 18839 H 1771.32 -1.52343 1.36426 0
M  V30 18840 H 1769.48 -3.84409 0.480432 0
M  V30 18841 H 1769.89 -4.57155 2.57117 0
M  V30 18842 H 1771.37 -5.41287 1.08223 0
M  V30 18843 H 1771.84 -4.38392 -0.266279 0
M  V30 18844 H 1772.45 -4.02718 1.36743 0
M  V30 18845 N 1770.76 -0.798611 -1.35867 0
M  V30 18846 C 1771.99 -0.386378 -2.03769 0
M  V30 18847 C 1772.41 0.992154 -1.59806 0
M  V30 18848 O 1771.77 1.64094 -0.770895 0
M  V30 18849 C 1771.82 -0.468859 -3.57539 0
M  V30 18850 O 1770.92 0.520742 -4.09099 0
M  V30 18851 H 1770.26 -0.162597 -0.643784 0
M  V30 18852 H 1772.79 -1.08228 -1.73631 0
M  V30 18853 H 1772.8 -0.335775 -4.06616 0
M  V30 18854 H 1771.48 -1.47441 -3.88888 0
M  V30 18855 H 1770.06 0.348559 -3.71267 0
M  V30 18856 N 1772.24 1.47639 -0.551417 0
M  V30 18857 C 1773.49 2.02784 -0.0252425 0
M  V30 18858 C 1773.82 1.42549 1.31884 0
M  V30 18859 O 1773.1 0.578954 1.85684 0
M  V30 18860 C 1773.38 3.60024 0.0740051 0
M  V30 18861 C 1773.23 4.30702 -1.29676 0
M  V30 18862 C 1774.55 4.32946 0.790302 0
M  V30 18863 H 1771.67 0.736923 -0.0106473 0
M  V30 18864 H 1774.31 1.76131 -0.712589 0
M  V30 18865 H 1772.46 3.82863 0.65939 0
M  V30 18866 H 1774.13 4.1922 -1.9249 0
M  V30 18867 H 1772.38 3.91282 -1.87299 0
M  V30 18868 H 1773.05 5.39238 -1.18009 0
M  V30 18869 H 1775.52 4.15065 0.293326 0
M  V30 18870 H 1774.4 5.42608 0.828692 0
M  V30 18871 H 1774.66 4.01752 1.84521 0
M  V30 18872 N 1773.72 0.287581 1.54954 0
M  V30 18873 C 1774.95 -0.331442 2.04735 0
M  V30 18874 C 1775.37 -1.47752 1.16409 0
M  V30 18875 O 1774.73 -1.80545 0.165297 0
M  V30 18876 C 1774.78 -0.778123 3.52105 0
M  V30 18877 O 1773.88 -1.88422 3.66839 0
M  V30 18878 H 1773.22 -0.0666173 0.66065 0
M  V30 18879 H 1775.75 0.425516 2.00126 0
M  V30 18880 H 1775.76 -1.07054 3.93705 0
M  V30 18881 H 1774.44 0.0603184 4.15856 0
M  V30 18882 H 1773.01 -1.59338 3.37144 0
M  V30 18883 N 1775.2 -1.57593 0.0150662 0
M  V30 18884 C 1776.43 -1.95504 -0.677174 0
M  V30 18885 C 1776.84 -0.8908 -1.66464 0
M  V30 18886 O 1776.2 0.128818 -1.82045 0
M  V30 18887 C 1776.25 -3.33463 -1.39589 0
M  V30 18888 O 1775.97 -4.35803 -0.448005 0
M  V30 18889 C 1777.47 -3.85923 -2.18125 0
M  V30 18890 H 1774.69 -0.644226 -0.187652 0
M  V30 18891 H 1777.24 -2.04378 0.070661 0
M  V30 18892 H 1775.39 -3.25851 -2.09523 0
M  V30 18893 H 1775.8 -5.157 -0.956756 0
M  V30 18894 H 1777.28 -4.84838 -2.63887 0
M  V30 18895 H 1777.76 -3.19423 -3.01439 0
M  V30 18896 H 1778.36 -3.96758 -1.53176 0
M  V30 18897 N 1776.68 0.257904 -1.55475 0
M  V30 18898 C 1777.92 0.985519 -1.76442 0
M  V30 18899 C 1778.25 1.86267 -0.577033 0
M  V30 18900 O 1777.52 1.91613 0.407582 0
M  V30 18901 H 1776.1 0.366872 -0.650702 0
M  V30 18902 H 1778.76 0.278498 -1.929 0
M  V30 18903 H 1777.85 1.61367 -2.67146 0
M  V30 18904 N 1778.15 1.48666 0.52309 0
M  V30 18905 C 1779.1 1.64155 1.6479 0
M  V30 18906 C 1780.1 0.507838 1.61609 0
M  V30 18907 O 1781.3 0.686784 1.66383 0
M  V30 18908 H 1777.68 0.517234 0.545869 0
M  V30 18909 H 1779.65 2.58611 1.48871 0
M  V30 18910 C 1778.4 1.70488 3.03033 0
M  V30 18911 H 1777.72 2.5709 3.06178 0
M  V30 18912 H 1779.16 1.85367 3.81333 0
M  V30 18913 C 1777.62 0.444984 3.33948 0
M  V30 18914 O 1778.15 -0.439107 3.99293 0
M  V30 18915 N 1776.36 0.314593 2.88892 0
M  V30 18916 H 1775.9 1.03501 2.35893 0
M  V30 18917 H 1775.86 -0.527357 3.09946 0
M  V30 18918 N 1779.63 -0.772489 1.37369 0
M  V30 18919 C 1780.56 -1.89969 1.35772 0
M  V30 18920 C 1781.54 -1.68586 0.226452 0
M  V30 18921 O 1782.73 -1.89454 0.426692 0
M  V30 18922 C 1779.86 -3.27242 1.16319 0
M  V30 18923 C 1778.81 -3.63187 2.2645 0
M  V30 18924 C 1778.14 -4.98992 1.92121 0
M  V30 18925 C 1779.44 -3.70013 3.6863 0
M  V30 18926 H 1781.13 -1.91564 2.30095 0
M  V30 18927 H 1778.68 -0.920241 1.10759 0
M  V30 18928 H 1780.63 -4.05734 1.13832 0
M  V30 18929 H 1779.36 -3.26078 0.184513 0
M  V30 18930 H 1778.01 -2.87001 2.28091 0
M  V30 18931 H 1777.66 -4.94368 0.927848 0
M  V30 18932 H 1777.36 -5.24012 2.65867 0
M  V30 18933 H 1778.89 -5.79886 1.91219 0
M  V30 18934 H 1780.3 -4.38659 3.69122 0
M  V30 18935 H 1778.7 -4.06529 4.41423 0
M  V30 18936 H 1779.77 -2.70694 4.02309 0
M  V30 18937 N 1781.11 -1.21927 -0.998575 0
M  V30 18938 C 1782.35 -1.05191 -1.75255 0
M  V30 18939 C 1782.71 0.40666 -1.87644 0
M  V30 18940 O 1783.92 0.694716 -2.59667 0
M  V30 18941 C 1782.19 -1.7372 -3.1234 0
M  V30 18942 S 1783.75 -1.72323 -4.03547 0
M  V30 18943 H 1780.56 -0.376819 -0.602933 0
M  V30 18944 H 1783.17 -1.54777 -1.19434 0
M  V30 18945 H 1781.87 -2.79018 -3.00961 0
M  V30 18946 H 1781.4 -1.24341 -3.73233 0
M  V30 18947 H 1783.42 -0.768885 -4.90207 0
M  V30 18948 N 1782.59 1.19452 -1.02805 0
M  V30 18949 C 1783.82 1.93075 -0.743624 0
M  V30 18950 C 1784.23 1.75446 0.697425 0
M  V30 18951 O 1783.59 1.07583 1.47418 0
M  V30 18952 C 1783.64 3.44855 -1.08431 0
M  V30 18953 O 1783.36 3.61916 -2.46877 0
M  V30 18954 C 1784.86 4.35601 -0.822571 0
M  V30 18955 H 1782.08 0.613327 -0.272159 0
M  V30 18956 H 1784.63 1.51617 -1.37232 0
M  V30 18957 H 1782.78 3.84149 -0.500812 0
M  V30 18958 H 1783.19 4.55785 -2.59538 0
M  V30 18959 H 1784.67 5.40706 -1.11092 0
M  V30 18960 H 1785.15 4.38527 0.243026 0
M  V30 18961 H 1785.75 4.01987 -1.38876 0
M  V30 18962 N 1784.07 0.805805 1.35442 0
M  V30 18963 C 1784.98 0.217149 2.33593 0
M  V30 18964 C 1785.99 -0.639428 1.61825 0
M  V30 18965 O 1787.17 -0.551363 1.93706 0
M  V30 18966 C 1784.23 -0.625149 3.41017 0
M  V30 18967 C 1783.29 0.25183 4.28561 0
M  V30 18968 C 1782.53 -0.550363 5.30855 0
M  V30 18969 O 1782.75 -1.78511 5.41747 0
M  V30 18970 O 1781.68 0.0583487 6.01872 0
M  V30 18971 H 1785.51 1.02909 2.85733 0
M  V30 18972 H 1783.1 0.567579 1.38199 0
M  V30 18973 H 1784.98 -1.10493 4.06656 0
M  V30 18974 H 1783.65 -1.4147 2.91149 0
M  V30 18975 H 1782.56 0.77873 3.65905 0
M  V30 18976 H 1783.89 1.0053 4.81824 0
M  V30 18977 N 1785.54 -1.47344 0.559239 0
M  V30 18978 C 1786.45 -2.33826 -0.190402 0
M  V30 18979 C 1787.47 -1.48317 -0.909846 0
M  V30 18980 O 1788.65 -1.8124 -0.878286 0
M  V30 18981 C 1785.71 -3.25052 -1.20591 0
M  V30 18982 C 1784.77 -4.26452 -0.493671 0
M  V30 18983 C 1784.01 -5.13319 -1.4608 0
M  V30 18984 O 1784.23 -5.02678 -2.69576 0
M  V30 18985 O 1783.16 -5.93799 -0.984178 0
M  V30 18986 H 1786.99 -2.99232 0.519046 0
M  V30 18987 H 1784.57 -1.45936 0.319836 0
M  V30 18988 H 1786.46 -3.81397 -1.79205 0
M  V30 18989 H 1785.13 -2.62272 -1.89724 0
M  V30 18990 H 1784.04 -3.73861 0.133714 0
M  V30 18991 H 1785.37 -4.91952 0.15625 0
M  V30 18992 N 1787.02 -0.295795 -1.54799 0
M  V30 18993 C 1787.95 0.616191 -2.20762 0
M  V30 18994 C 1788.97 1.10157 -1.19872 0
M  V30 18995 O 1790.16 1.01992 -1.46492 0
M  V30 18996 C 1787.26 1.85497 -2.83627 0
M  V30 18997 C 1786.43 1.51295 -4.10401 0
M  V30 18998 C 1785.49 2.60633 -4.57118 0
M  V30 18999 O 1784.51 2.25945 -5.22434 0
M  V30 19000 N 1785.72 3.91078 -4.28997 0
M  V30 19001 H 1788.48 0.0515252 -2.99656 0
M  V30 19002 H 1786.04 -0.11777 -1.61471 0
M  V30 19003 H 1788.03 2.57979 -3.11816 0
M  V30 19004 H 1786.6 2.32816 -2.08604 0
M  V30 19005 H 1785.82 0.621 -3.89278 0
M  V30 19006 H 1787.11 1.25974 -4.92958 0
M  V30 19007 H 1786.51 4.22072 -3.76659 0
M  V30 19008 H 1785.07 4.59875 -4.61907 0
M  V30 19009 N 1788.5 1.57583 -0.0234236 0
M  V30 19010 C 1789.73 1.95861 0.666797 0
M  V30 19011 C 1790.14 0.899616 1.65989 0
M  V30 19012 O 1789.5 -0.119162 1.82111 0
M  V30 19013 C 1789.55 3.34198 1.37818 0
M  V30 19014 O 1789.27 4.36035 0.424887 0
M  V30 19015 C 1790.77 3.87074 2.16075 0
M  V30 19016 H 1787.99 0.645213 0.184233 0
M  V30 19017 H 1790.54 2.04338 -0.0814987 0
M  V30 19018 H 1788.69 3.26958 2.07792 0
M  V30 19019 H 1789.11 5.162 0.929394 0
M  V30 19020 H 1790.58 4.8623 2.61312 0
M  V30 19021 H 1791.06 3.21017 2.99741 0
M  V30 19022 H 1791.66 3.97565 1.5107 0
M  V30 19023 N 1789.98 -0.249655 1.5561 0
M  V30 19024 C 1791.39 -0.818934 1.67781 0
M  V30 19025 C 1791.74 -1.86134 0.620374 0
M  V30 19026 O 1790.87 -2.15133 -0.233869 0
M  V30 19027 C 1791.46 -1.49219 3.0417 0
M  V30 19028 C 1790.02 -2.0092 3.18289 0
M  V30 19029 C 1789.17 -0.859333 2.63649 0
M  V30 19030 H 1792.12 -0.0255186 1.58679 0
M  V30 19031 H 1792.14 -2.36011 2.98461 0
M  V30 19032 H 1791.65 -0.733268 3.8111 0
M  V30 19033 H 1789.75 -2.79701 2.46167 0
M  V30 19034 H 1789.87 -2.20848 4.25163 0
M  V30 19035 H 1788.23 -1.2591 2.21402 0
M  V30 19036 H 1789.01 -0.113545 3.43112 0
M  V30 19037 N 1791.46 -1.48941 -0.515198 0
M  V30 19038 C 1792.87 -1.51076 -1.09695 0
M  V30 19039 C 1793.22 -0.288875 -1.94062 0
M  V30 19040 O 1792.34 0.602665 -2.07839 0
M  V30 19041 C 1792.94 -2.73755 -1.99609 0
M  V30 19042 C 1791.5 -2.78714 -2.52974 0
M  V30 19043 C 1790.65 -2.44798 -1.30266 0
M  V30 19044 H 1793.6 -1.55843 -0.299757 0
M  V30 19045 H 1793.62 -2.53112 -2.84103 0
M  V30 19046 H 1793.13 -3.62668 -1.38178 0
M  V30 19047 H 1791.23 -1.94045 -3.18084 0
M  V30 19048 H 1791.34 -3.80525 -2.91097 0
M  V30 19049 H 1789.71 -1.9627 -1.62327 0
M  V30 19050 H 1790.49 -3.35969 -0.705648 0
M  V30 19051 N 1792.94 0.765193 -1.37777 0
M  V30 19052 C 1794.35 1.34186 -1.29811 0
M  V30 19053 C 1794.7 1.96133 0.0513426 0
M  V30 19054 O 1793.82 1.94272 0.953273 0
M  V30 19055 C 1794.42 2.43975 -2.35078 0
M  V30 19056 C 1792.98 2.97393 -2.30726 0
M  V30 19057 C 1792.12 1.70667 -2.18559 0
M  V30 19058 H 1795.07 0.564948 -1.48304 0
M  V30 19059 H 1795.1 3.23622 -2.00123 0
M  V30 19060 H 1794.61 1.98859 -3.33282 0
M  V30 19061 H 1792.71 3.46867 -1.36067 0
M  V30 19062 H 1792.82 3.52561 -3.24403 0
M  V30 19063 H 1791.19 1.93846 -1.65215 0
M  V30 19064 H 1791.97 1.27645 -3.18687 0
M  V30 19065 N 1794.41 1.22455 0.992094 0
M  V30 19066 C 1795.83 0.984682 1.25603 0
M  V30 19067 C 1796.03 -0.321255 1.98923 0
M  V30 19068 O 1795.09 -1.04367 2.29921 0
M  V30 19069 C 1796.4 2.1839 2.06703 0
M  V30 19070 C 1797.95 2.22755 2.19884 0
M  V30 19071 C 1798.42 3.42232 3.04371 0
M  V30 19072 N 1799.91 3.42398 3.11958 0
M  V30 19073 C 1800.65 4.31497 3.77622 0
M  V30 19074 N 1800.14 5.30814 4.45206 0
M  V30 19075 N 1801.94 4.1927 3.74391 0
M  V30 19076 H 1794.09 2.06417 0.50057 0
M  V30 19077 H 1796.35 0.904556 0.283693 0
M  V30 19078 H 1796.06 3.13099 1.60192 0
M  V30 19079 H 1795.93 2.18517 3.07458 0
M  V30 19080 H 1798.32 1.28593 2.65608 0
M  V30 19081 H 1798.4 2.26667 1.18557 0
M  V30 19082 H 1798.04 4.36694 2.59346 0
M  V30 19083 H 1797.97 3.3556 4.05841 0
M  V30 19084 H 1800.46 2.70531 2.63858 0
M  V30 19085 H 1800.78 5.95078 4.93054 0
M  V30 19086 H 1799.12 5.34726 4.43952 0
M  V30 19087 H 1802.31 3.40932 3.20753 0
M  V30 19088 H 1802.49 4.88913 4.25286 0
M  V30 19089 N 1795.89 -1.18905 1.03437 0
M  V30 19090 C 1797.3 -1.70402 0.762893 0
M  V30 19091 C 1797.65 -1.82633 -0.716908 0
M  V30 19092 O 1796.78 -1.50136 -1.55847 0
M  V30 19093 C 1797.37 -3.09501 1.37822 0
M  V30 19094 C 1795.93 -3.58235 1.1552 0
M  V30 19095 C 1795.08 -2.34953 1.47284 0
M  V30 19096 H 1798.03 -1.03669 1.2016 0
M  V30 19097 H 1798.05 -3.7246 0.778079 0
M  V30 19098 H 1797.56 -3.00566 2.45523 0
M  V30 19099 H 1795.66 -3.72475 0.096646 0
M  V30 19100 H 1795.78 -4.42034 1.84778 0
M  V30 19101 H 1794.14 -2.38557 0.892333 0
M  V30 19102 H 1794.92 -2.28643 2.5608 0
M  V30 19103 N 1797.37 -0.812977 -1.35013 0
M  V30 19104 C 1798.28 -0.229534 -2.33474 0
M  V30 19105 C 1799.3 0.630837 -1.62162 0
M  V30 19106 O 1800.47 0.541083 -1.93995 0
M  V30 19107 C 1797.54 0.607055 -3.41344 0
M  V30 19108 C 1796.6 -0.274554 -4.28421 0
M  V30 19109 C 1795.83 0.522202 -5.31139 0
M  V30 19110 O 1796.05 1.75636 -5.42686 0
M  V30 19111 O 1794.99 -0.0902666 -6.01832 0
M  V30 19112 H 1798.81 -1.04423 -2.85183 0
M  V30 19113 H 1796.4 -0.5749 -1.37896 0
M  V30 19114 H 1798.28 1.08335 -4.07236 0
M  V30 19115 H 1796.96 1.39924 -2.91895 0
M  V30 19116 H 1795.86 -0.798124 -3.65487 0
M  V30 19117 H 1797.2 -1.03084 -4.81284 0
M  V30 19118 N 1798.85 1.47045 -0.567045 0
M  V30 19119 C 1799.81 2.28607 0.164758 0
M  V30 19120 C 1800.81 1.37509 0.833542 0
M  V30 19121 O 1802 1.60043 0.687895 0
M  V30 19122 C 1799.13 3.17466 1.24211 0
M  V30 19123 H 1800.33 2.9478 -0.551814 0
M  V30 19124 H 1797.88 1.52897 -0.324376 0
M  V30 19125 H 1798.61 2.56006 1.99076 0
M  V30 19126 H 1798.4 3.8452 0.767243 0
M  V30 19127 H 1799.89 3.78894 1.75582 0
M  V30 19128 N 1800.33 0.304 1.5464 0
M  V30 19129 C 1801.56 -0.306471 2.04314 0
M  V30 19130 C 1801.96 -1.47839 1.18069 0
M  V30 19131 O 1801.31 -1.82612 0.199666 0
M  V30 19132 C 1801.37 -0.822694 3.4996 0
M  V30 19133 C 1801.03 0.224343 4.56449 0
M  V30 19134 C 1802.03 1.05382 5.09108 0
M  V30 19135 C 1799.71 0.366905 5.00958 0
M  V30 19136 C 1801.71 2.01176 6.0482 0
M  V30 19137 C 1799.4 1.32829 5.96489 0
M  V30 19138 C 1800.39 2.1492 6.48304 0
M  V30 19139 O 1800.08 3.09429 7.41963 0
M  V30 19140 H 1799.81 -0.0701033 0.672355 0
M  V30 19141 H 1802.37 0.442449 2.00578 0
M  V30 19142 H 1800.6 -1.62219 3.5103 0
M  V30 19143 H 1802.29 -1.34938 3.82814 0
M  V30 19144 H 1803.05 0.954561 4.75514 0
M  V30 19145 H 1798.93 -0.262121 4.60254 0
M  V30 19146 H 1802.48 2.65291 6.45187 0
M  V30 19147 H 1798.37 1.42826 6.29501 0
M  V30 19148 H 1799.14 3.04442 7.59774 0
M  V30 19149 N 1801.8 -1.57568 0.0317802 0
M  V30 19150 C 1803.21 -1.79693 -0.506679 0
M  V30 19151 C 1803.57 -0.94229 -1.72091 0
M  V30 19152 O 1802.69 -0.153435 -2.15855 0
M  V30 19153 C 1803.29 -3.259 -0.925978 0
M  V30 19154 C 1801.84 -3.49012 -1.40953 0
M  V30 19155 C 1800.99 -2.74746 -0.375509 0
M  V30 19156 H 1803.94 -1.56592 0.257798 0
M  V30 19157 H 1803.96 -3.35757 -1.79017 0
M  V30 19158 H 1803.48 -3.88077 -0.0420441 0
M  V30 19159 H 1801.58 -2.9209 -2.31331 0
M  V30 19160 H 1801.69 -4.57725 -1.41508 0
M  V30 19161 H 1800.05 -2.40303 -0.844187 0
M  V30 19162 H 1800.84 -3.39639 0.500005 0
M  V30 19163 N 1803.28 0.241399 -1.5574 0
M  V30 19164 C 1804.53 0.966607 -1.7703 0
M  V30 19165 C 1804.84 1.86275 -0.59673 0
M  V30 19166 O 1806.05 2.62513 -0.692775 0
M  V30 19167 C 1804.51 1.7688 -3.13435 0
M  V30 19168 C 1804.11 0.919775 -4.38457 0
M  V30 19169 C 1805.86 2.48641 -3.44061 0
M  V30 19170 C 1803.77 1.71817 -5.65891 0
M  V30 19171 H 1802.7 0.364644 -0.659963 0
M  V30 19172 H 1805.35 0.221088 -1.82163 0
M  V30 19173 H 1803.73 2.55648 -3.02424 0
M  V30 19174 H 1804.9 0.174036 -4.60471 0
M  V30 19175 H 1803.22 0.315234 -4.15205 0
M  V30 19176 H 1805.81 3.08839 -4.36489 0
M  V30 19177 H 1806.16 3.20534 -2.65638 0
M  V30 19178 H 1806.69 1.7688 -3.56312 0
M  V30 19179 H 1803.43 1.04289 -6.47151 0
M  V30 19180 H 1802.95 2.43905 -5.47969 0
M  V30 19181 H 1804.63 2.28392 -6.05348 0
M  V30 19182 N 1804.76 1.49212 0.507292 0
M  V30 19183 C 1806.17 1.51655 1.08892 0
M  V30 19184 C 1806.52 0.299163 1.93906 0
M  V30 19185 O 1805.65 -0.591635 2.08155 0
M  V30 19186 C 1806.24 2.7481 1.98154 0
M  V30 19187 C 1804.8 2.80051 2.51492 0
M  V30 19188 C 1803.95 2.45486 1.28966 0
M  V30 19189 H 1806.9 1.56 0.291488 0
M  V30 19190 H 1806.92 2.54615 2.82757 0
M  V30 19191 H 1806.43 3.63396 1.36253 0
M  V30 19192 H 1804.53 1.95729 3.1705 0
M  V30 19193 H 1804.65 3.82064 2.89075 0
M  V30 19194 H 1803.01 1.97128 1.61284 0
M  V30 19195 H 1803.79 3.36339 0.687821 0
M  V30 19196 N 1806.24 -0.757876 1.38181 0
M  V30 19197 C 1807.47 -1.54709 1.37378 0
M  V30 19198 C 1807.88 -1.88763 -0.0375087 0
M  V30 19199 O 1807.24 -1.52467 -1.00299 0
M  V30 19200 C 1807.29 -2.84887 2.22535 0
M  V30 19201 O 1807.01 -2.52287 3.58166 0
M  V30 19202 C 1808.51 -3.79048 2.29865 0
M  V30 19203 H 1805.73 -0.478845 0.470052 0
M  V30 19204 H 1808.28 -0.938283 1.81704 0
M  V30 19205 H 1806.43 -3.42156 1.81682 0
M  V30 19206 H 1806.84 -3.35747 4.02957 0
M  V30 19207 H 1808.32 -4.67353 2.93744 0
M  V30 19208 H 1808.8 -4.19175 1.31106 0
M  V30 19209 H 1809.4 -3.27704 2.7109 0
M  V30 19210 N 1807.72 -1.22979 -0.985586 0
M  V30 19211 C 1808.65 -0.964185 -2.07933 0
M  V30 19212 C 1809.66 0.0599162 -1.6269 0
M  V30 19213 O 1810.85 -0.174984 -1.7764 0
M  V30 19214 C 1807.95 -0.429879 -3.36163 0
M  V30 19215 C 1807.12 -1.51293 -4.10401 0
M  V30 19216 C 1806.18 -0.984411 -5.1691 0
M  V30 19217 O 1805.21 -1.67225 -5.44081 0
M  V30 19218 N 1806.41 0.190439 -5.80188 0
M  V30 19219 H 1809.18 -1.90582 -2.31297 0
M  V30 19220 H 1806.74 -1.13767 -1.15189 0
M  V30 19221 H 1808.73 -0.0614639 -4.04653 0
M  V30 19222 H 1807.3 0.417049 -3.09806 0
M  V30 19223 H 1806.52 -2.05434 -3.36438 0
M  V30 19224 H 1807.81 -2.24141 -4.56769 0
M  V30 19225 H 1807.2 0.765928 -5.60491 0
M  V30 19226 H 1805.76 0.500168 -6.49878 0
M  V30 19227 N 1809.19 1.18355 -1.04066 0
M  V30 19228 C 1810.42 1.92275 -0.76406 0
M  V30 19229 C 1810.84 1.76176 0.678777 0
M  V30 19230 O 1810.19 1.0914 1.46269 0
M  V30 19231 C 1810.25 3.43686 -1.12083 0
M  V30 19232 O 1809.97 3.59277 -2.50702 0
M  V30 19233 C 1811.47 4.34705 -0.868726 0
M  V30 19234 H 1808.69 0.610406 -0.278649 0
M  V30 19235 H 1811.23 1.50153 -1.38832 0
M  V30 19236 H 1809.39 3.83596 -0.541528 0
M  V30 19237 H 1809.8 4.53007 -2.64357 0
M  V30 19238 H 1811.27 5.39497 -1.16821 0
M  V30 19239 H 1811.75 4.3876 0.196501 0
M  V30 19240 H 1812.36 4.00491 -1.43132 0
M  V30 19241 N 1810.67 0.820125 1.3458 0
M  V30 19242 C 1811.9 0.419155 2.02303 0
M  V30 19243 C 1812.31 -0.978742 1.61918 0
M  V30 19244 O 1811.65 -1.64433 0.818983 0
M  V30 19245 C 1811.72 0.438576 3.56815 0
M  V30 19246 C 1811.38 1.78932 4.20514 0
M  V30 19247 C 1812.38 2.74974 4.41232 0
M  V30 19248 C 1810.06 2.07704 4.57345 0
M  V30 19249 C 1812.06 3.97961 4.97901 0
M  V30 19250 C 1809.74 3.30952 5.13726 0
M  V30 19251 C 1810.74 4.25898 5.33947 0
M  V30 19252 O 1810.43 5.46969 5.89135 0
M  V30 19253 H 1810.16 0.166787 0.655102 0
M  V30 19254 H 1812.71 1.10892 1.72893 0
M  V30 19255 H 1810.94 -0.307871 3.85472 0
M  V30 19256 H 1812.63 0.0580448 4.05858 0
M  V30 19257 H 1813.4 2.54041 4.13144 0
M  V30 19258 H 1809.28 1.34605 4.40911 0
M  V30 19259 H 1812.82 4.72081 5.136 0
M  V30 19260 H 1808.72 3.5175 5.41242 0
M  V30 19261 H 1809.49 5.48451 6.07572 0
M  V30 19262 N 1812.15 -1.46743 0.574835 0
M  V30 19263 C 1813.38 -2.06805 0.0627992 0
M  V30 19264 C 1813.79 -1.42482 -1.23872 0
M  V30 19265 O 1813.15 -0.527375 -1.74714 0
M  V30 19266 C 1813.2 -3.61307 -0.117983 0
M  V30 19267 O 1812.92 -4.23222 1.13201 0
M  V30 19268 C 1814.42 -4.3828 -0.665277 0
M  V30 19269 H 1811.64 -0.668835 0.0538616 0
M  V30 19270 H 1814.19 -1.88488 0.793265 0
M  V30 19271 H 1812.34 -3.79078 -0.798641 0
M  V30 19272 H 1812.76 -5.15992 0.940853 0
M  V30 19273 H 1814.23 -5.47004 -0.740985 0
M  V30 19274 H 1814.71 -4.05777 -1.68052 0
M  V30 19275 H 1815.31 -4.25295 -0.0197462 0
M  V30 19276 N 1813.63 -0.312197 -1.54477 0
M  V30 19277 C 1815.04 0.0408317 -1.59548 0
M  V30 19278 C 1815.24 1.51461 -1.32898 0
M  V30 19279 O 1814.3 2.26899 -1.10785 0
M  V30 19280 C 1815.61 -0.367179 -2.9845 0
M  V30 19281 C 1817.16 -0.31688 -3.11392 0
M  V30 19282 C 1817.64 -0.699881 -4.52621 0
M  V30 19283 N 1819.13 -0.652846 -4.58576 0
M  V30 19284 C 1819.86 -0.921531 -5.65946 0
M  V30 19285 N 1819.36 -1.25676 -6.81306 0
M  V30 19286 N 1821.15 -0.847847 -5.55669 0
M  V30 19287 H 1813.3 -1.27255 -1.70059 0
M  V30 19288 H 1815.57 -0.516679 -0.794825 0
M  V30 19289 H 1815.27 -1.39356 -3.22913 0
M  V30 19290 H 1815.15 0.273556 -3.76207 0
M  V30 19291 H 1817.53 0.700275 -2.86671 0
M  V30 19292 H 1817.61 -0.992393 -2.35765 0
M  V30 19293 H 1817.26 -1.7149 -4.78073 0
M  V30 19294 H 1817.19 -0.00217708 -5.266 0
M  V30 19295 H 1819.68 -0.405135 -3.75722 0
M  V30 19296 H 1819.99 -1.44746 -7.59123 0
M  V30 19297 H 1818.34 -1.29491 -6.8283 0
M  V30 19298 H 1821.53 -0.585523 -4.64424 0
M  V30 19299 H 1821.7 -1.06061 -6.39261 0
M  V30 19300 N 1815.11 1.57549 -0.040136 0
M  V30 19301 C 1816.02 2.14351 0.953457 0
M  V30 19302 C 1817.03 1.09851 1.3494 0
M  V30 19303 O 1818.21 1.41965 1.42857 0
M  V30 19304 C 1815.27 2.66832 2.21363 0
M  V30 19305 C 1814.33 3.86088 1.87708 0
M  V30 19306 C 1813.57 4.36057 3.07718 0
M  V30 19307 O 1813.79 3.85147 4.20735 0
M  V30 19308 O 1812.72 5.27775 2.89374 0
M  V30 19309 H 1816.55 2.99549 0.500423 0
M  V30 19310 H 1814.14 1.48298 0.18112 0
M  V30 19311 H 1816.02 3.00605 2.95321 0
M  V30 19312 H 1814.69 1.84711 2.65826 0
M  V30 19313 H 1813.6 3.57222 1.11101 0
M  V30 19314 H 1814.93 4.69405 1.48053 0
M  V30 19315 N 1816.58 -0.233136 1.55866 0
M  V30 19316 C 1817.81 -0.974999 1.82146 0
M  V30 19317 C 1818.22 -1.7891 0.615456 0
M  V30 19318 O 1817.57 -1.78707 -0.42537 0
M  V30 19319 C 1817.63 -1.95048 3.01988 0
M  V30 19320 C 1817.29 -1.32201 4.37461 0
M  V30 19321 C 1818.29 -0.717627 5.14923 0
M  V30 19322 C 1815.97 -1.33725 4.84173 0
M  V30 19323 C 1817.97 -0.136864 6.37253 0
M  V30 19324 C 1815.65 -0.752633 6.06448 0
M  V30 19325 C 1816.65 -0.153484 6.82828 0
M  V30 19326 O 1816.34 0.422063 8.02791 0
M  V30 19327 H 1816.07 -0.291889 0.609735 0
M  V30 19328 H 1818.63 -0.257048 2.03785 0
M  V30 19329 H 1816.86 -2.70711 2.76138 0
M  V30 19330 H 1818.55 -2.55692 3.1524 0
M  V30 19331 H 1819.31 -0.698263 4.79947 0
M  V30 19332 H 1815.19 -1.79298 4.24704 0
M  V30 19333 H 1818.73 0.331417 6.96812 0
M  V30 19334 H 1814.63 -0.769371 6.40899 0
M  V30 19335 H 1815.4 0.315258 8.17893 0
M  V30 19336 N 1818.06 -1.49479 -0.499372 0
M  V30 19337 C 1819.31 -1.59048 -1.25339 0
M  V30 19338 C 1819.64 -0.277917 -1.92504 0
M  V30 19339 O 1818.89 0.734282 -1.81402 0
M  V30 19340 C 1819.19 -2.70007 -2.3416 0
M  V30 19341 C 1818.86 -4.11451 -1.84443 0
M  V30 19342 C 1817.52 -4.49942 -1.70603 0
M  V30 19343 C 1819.87 -4.99967 -1.47248 0
M  V30 19344 C 1817.2 -5.74722 -1.17949 0
M  V30 19345 C 1819.55 -6.25266 -0.960465 0
M  V30 19346 C 1818.22 -6.62586 -0.808473 0
M  V30 19347 H 1817.49 -0.581998 -0.458649 0
M  V30 19348 H 1820.13 -1.83315 -0.553867 0
M  V30 19349 H 1818.44 -2.39717 -3.09908 0
M  V30 19350 H 1820.14 -2.74619 -2.92208 0
M  V30 19351 H 1816.73 -3.81069 -1.96174 0
M  V30 19352 H 1820.91 -4.70884 -1.56787 0
M  V30 19353 H 1816.17 -6.02335 -1.04895 0
M  V30 19354 H 1820.34 -6.93232 -0.66348 0
M  V30 19355 H 1817.97 -7.59156 -0.398296 0
M  V30 19356 N 1819.54 0.750537 -1.38581 0
M  V30 19357 C 1820.77 1.53978 -1.38196 0
M  V30 19358 C 1821.18 1.8878 0.0274976 0
M  V30 19359 O 1820.54 1.52997 0.994894 0
M  V30 19360 C 1820.59 2.83702 -2.24043 0
M  V30 19361 O 1820.31 2.50384 -3.59499 0
M  V30 19362 C 1821.81 3.77823 -2.31872 0
M  V30 19363 H 1819.03 0.476345 -0.472585 0
M  V30 19364 H 1821.58 0.928634 -1.82199 0
M  V30 19365 H 1819.73 3.41187 -1.83494 0
M  V30 19366 H 1820.15 3.33605 -4.04732 0
M  V30 19367 H 1821.62 4.65788 -2.96218 0
M  V30 19368 H 1822.1 4.18474 -1.33327 0
M  V30 19369 H 1822.7 3.26262 -2.72824 0
M  V30 19370 N 1821.02 1.235 0.979051 0
M  V30 19371 C 1822.27 1.06791 1.72052 0
M  V30 19372 C 1822.59 -0.395002 1.90447 0
M  V30 19373 O 1821.85 -1.30872 1.45503 0
M  V30 19374 C 1822.15 1.74004 3.12182 0
M  V30 19375 C 1821.81 3.23924 3.13662 0
M  V30 19376 C 1820.48 3.64828 3.13774 0
M  V30 19377 C 1822.83 4.19818 3.08872 0
M  V30 19378 C 1820.16 5.00083 3.06813 0
M  V30 19379 C 1822.51 5.55066 3.03454 0
M  V30 19380 C 1821.17 5.95332 3.01888 0
M  V30 19381 H 1820.44 0.390774 0.629584 0
M  V30 19382 H 1823.09 1.53452 1.14563 0
M  V30 19383 H 1821.39 1.19705 3.73066 0
M  V30 19384 H 1823.09 1.58551 3.68324 0
M  V30 19385 H 1819.68 2.91363 3.14334 0
M  V30 19386 H 1823.87 3.89225 3.07925 0
M  V30 19387 H 1819.12 5.30492 3.03954 0
M  V30 19388 H 1823.3 6.29085 2.98705 0
M  V30 19389 H 1820.92 7.001 2.96249 0
M  V30 19390 N 1822.5 -1.17802 1.04693 0
M  V30 19391 C 1823.91 -1.69583 0.780923 0
M  V30 19392 C 1824.26 -1.83383 -0.697497 0
M  V30 19393 O 1823.38 -1.51781 -1.54245 0
M  V30 19394 C 1823.98 -3.08021 1.41097 0
M  V30 19395 C 1822.54 -3.56989 1.19313 0
M  V30 19396 C 1821.69 -2.33377 1.49768 0
M  V30 19397 H 1824.64 -1.02389 1.21253 0
M  V30 19398 H 1824.66 -3.71613 0.817539 0
M  V30 19399 H 1824.17 -2.97945 2.48697 0
M  V30 19400 H 1822.27 -3.72351 0.136146 0
M  V30 19401 H 1822.38 -4.40049 1.89456 0
M  V30 19402 H 1820.75 -2.37597 0.917585 0
M  V30 19403 H 1821.53 -2.25914 2.58491 0
M  V30 19404 N 1823.98 -0.827251 -1.34143 0
M  V30 19405 C 1824.94 -0.257543 -2.27748 0
M  V30 19406 C 1825.94 0.567053 -1.5047 0
M  V30 19407 O 1827.13 0.382529 -1.69948 0
M  V30 19408 C 1824.26 0.638449 -3.34868 0
M  V30 19409 H 1825.45 -1.08338 -2.79648 0
M  V30 19410 H 1823.01 -0.599441 -1.44348 0
M  V30 19411 H 1823.74 1.48717 -2.8819 0
M  V30 19412 H 1823.53 0.0486033 -3.9207 0
M  V30 19413 H 1825.02 1.03071 -4.0468 0
M  V30 19414 N 1825.45 1.46436 -0.582609 0
M  V30 19415 C 1826.68 2.07275 -0.0718712 0
M  V30 19416 C 1827.1 1.42851 1.22373 0
M  V30 19417 O 1826.46 0.512272 1.73912 0
M  V30 19418 C 1826.51 3.6051 0.08055 0
M  V30 19419 O 1825.61 3.96414 1.13707 0
M  V30 19420 H 1824.95 0.661027 -0.0627607 0
M  V30 19421 H 1827.48 1.88076 -0.805524 0
M  V30 19422 H 1827.49 4.06991 0.286749 0
M  V30 19423 H 1826.17 4.06792 -0.865603 0
M  V30 19424 H 1824.75 3.61643 0.909338 0
M  V30 19425 N 1826.93 0.320385 1.54309 0
M  V30 19426 C 1827.88 -0.547011 2.24224 0
M  V30 19427 C 1828.85 -1.11419 1.23187 0
M  V30 19428 O 1830.03 -1.15513 1.5186 0
M  V30 19429 C 1827.17 -1.70359 3.0012 0
M  V30 19430 C 1826.29 -1.16594 4.15968 0
M  V30 19431 C 1825.42 -2.28795 4.79402 0
M  V30 19432 C 1824.46 -1.72263 5.8736 0
M  V30 19433 N 1823.6 -2.78113 6.44668 0
M  V30 19434 H 1828.44 0.0557725 2.97948 0
M  V30 19435 H 1825.97 0.0392956 1.47048 0
M  V30 19436 H 1827.93 -2.38413 3.42367 0
M  V30 19437 H 1826.56 -2.27771 2.28736 0
M  V30 19438 H 1825.61 -0.377054 3.78527 0
M  V30 19439 H 1826.93 -0.712254 4.93689 0
M  V30 19440 H 1826.08 -3.04759 5.24601 0
M  V30 19441 H 1824.82 -2.77499 4.01056 0
M  V30 19442 H 1823.82 -0.947951 5.41566 0
M  V30 19443 H 1825.05 -1.2444 6.67601 0
M  V30 19444 H 1823 -3.26115 5.69197 0
M  V30 19445 H 1822.91 -2.37298 7.17792 0
M  V30 19446 H 1824.18 -3.53916 6.94524 0
M  V30 19447 N 1828.41 -1.57525 0.0484906 0
M  V30 19448 C 1829.63 -1.97309 -0.639062 0
M  V30 19449 C 1830.06 -0.925753 -1.63742 0
M  V30 19450 O 1829.42 0.111304 -1.80958 0
M  V30 19451 C 1829.47 -3.36168 -1.30475 0
M  V30 19452 O 1828.57 -3.33903 -2.42038 0
M  V30 19453 H 1827.91 -0.642824 -0.166351 0
M  V30 19454 H 1830.44 -2.0427 0.116095 0
M  V30 19455 H 1830.45 -3.72835 -1.65705 0
M  V30 19456 H 1829.13 -4.11933 -0.573057 0
M  V30 19457 H 1827.7 -3.08978 -2.08775 0
M  V30 19458 N 1829.89 0.224867 -1.55988 0
M  V30 19459 C 1830.82 1.30204 -1.88626 0
M  V30 19460 C 1831.83 1.4321 -0.774248 0
M  V30 19461 O 1833.02 1.44167 -1.05253 0
M  V30 19462 C 1830.12 2.67806 -2.07685 0
M  V30 19463 C 1829.29 2.76789 -3.38684 0
M  V30 19464 C 1828.35 3.95383 -3.47216 0
M  V30 19465 O 1827.38 3.83876 -4.20271 0
M  V30 19466 N 1828.58 5.09541 -2.78116 0
M  V30 19467 H 1831.35 1.02533 -2.81615 0
M  V30 19468 H 1828.91 0.414916 -1.56493 0
M  V30 19469 H 1830.9 3.45518 -2.10712 0
M  V30 19470 H 1829.47 2.88091 -1.21336 0
M  V30 19471 H 1828.69 1.8558 -3.47784 0
M  V30 19472 H 1829.98 2.79758 -4.24986 0
M  V30 19473 H 1829.38 5.21785 -2.18535 0
M  V30 19474 H 1827.93 5.85307 -2.86808 0
M  V30 19475 N 1831.37 1.49742 0.491438 0
M  V30 19476 C 1832.64 1.50217 1.25277 0
M  V30 19477 C 1833.02 0.235271 2.09785 0
M  V30 19478 O 1832.37 -0.782057 2.147 0
M  V30 19479 C 1832.58 2.78652 2.10129 0
M  V30 19480 C 1833.93 3.28519 2.68999 0
M  V30 19481 O 1834.95 2.79834 2.20389 0
M  V30 19482 O 1833.81 4.13333 3.57516 0
M  V30 19483 H 1830.91 0.601649 0.567405 0
M  V30 19484 H 1833.45 1.62014 0.504924 0
M  V30 19485 H 1832.22 3.62345 1.47723 0
M  V30 19486 H 1831.85 2.69761 2.92087 0
M  V30 19487 N 1832.84 -0.743177 1.38977 0
M  V30 19488 C 1834.26 -1.04764 1.20402 0
M  V30 19489 C 1834.46 -2.01411 0.0599139 0
M  V30 19490 O 1833.52 -2.45485 -0.591026 0
M  V30 19491 C 1834.83 -1.61775 2.53474 0
M  V30 19492 C 1836.38 -1.73896 2.60248 0
M  V30 19493 C 1836.85 -2.34318 3.93522 0
M  V30 19494 N 1838.34 -2.41737 3.95117 0
M  V30 19495 C 1839.08 -2.89407 4.95006 0
M  V30 19496 N 1838.57 -3.37034 6.05293 0
M  V30 19497 N 1840.37 -2.88542 4.8239 0
M  V30 19498 H 1832.52 -0.102036 2.12155 0
M  V30 19499 H 1834.78 -0.107893 0.94184 0
M  V30 19500 H 1834.49 -0.982274 3.37704 0
M  V30 19501 H 1834.36 -2.60696 2.72612 0
M  V30 19502 H 1836.75 -2.36568 1.76407 0
M  V30 19503 H 1836.83 -0.736509 2.44968 0
M  V30 19504 H 1836.47 -1.72276 4.7779 0
M  V30 19505 H 1836.4 -3.35224 4.06119 0
M  V30 19506 H 1838.89 -2.08064 3.15464 0
M  V30 19507 H 1839.21 -3.71895 6.77432 0
M  V30 19508 H 1837.55 -3.35064 6.08898 0
M  V30 19509 H 1840.74 -2.50651 3.95337 0
M  V30 19510 H 1840.92 -3.25379 5.60386 0
M  V30 19511 N 1834.32 -1.24018 -0.972487 0
M  V30 19512 C 1835.26 -0.97157 -2.06484 0
M  V30 19513 C 1836.23 0.0929652 -1.62334 0
M  V30 19514 O 1837.42 -0.0429642 -1.88451 0
M  V30 19515 C 1834.54 -0.465235 -3.3549 0
M  V30 19516 C 1833.59 -1.51759 -3.98587 0
M  V30 19517 S 1834.42 -3.09746 -4.36827 0
M  V30 19518 C 1835.58 -2.60803 -5.68975 0
M  V30 19519 H 1835.81 -1.89654 -2.28951 0
M  V30 19520 H 1833.35 -1.0735 -1.10975 0
M  V30 19521 H 1835.3 -0.17972 -4.10106 0
M  V30 19522 H 1833.96 0.438944 -3.11018 0
M  V30 19523 H 1833.16 -1.11362 -4.91543 0
M  V30 19524 H 1832.76 -1.75286 -3.3038 0
M  V30 19525 H 1835.05 -2.03316 -6.46273 0
M  V30 19526 H 1835.99 -3.52329 -6.14223 0
M  V30 19527 H 1836.4 -2.0139 -5.27354 0
M  V30 19528 N 1835.8 1.17245 -1.05316 0
M  V30 19529 C 1836.76 2.19508 -0.659467 0
M  V30 19530 C 1837.76 1.58169 0.289697 0
M  V30 19531 O 1838.95 1.74045 0.0734019 0
M  V30 19532 C 1836.09 3.40886 0.0311886 0
M  V30 19533 H 1837.28 2.55852 -1.5646 0
M  V30 19534 H 1834.83 1.31348 -0.847193 0
M  V30 19535 H 1835.57 3.10088 0.949535 0
M  V30 19536 H 1835.35 3.86655 -0.651191 0
M  V30 19537 H 1836.84 4.16573 0.292702 0
M  V30 19538 N 1837.28 0.834353 1.33702 0
M  V30 19539 C 1838.69 0.485213 1.80285 0
M  V30 19540 C 1839.04 -0.995397 1.69075 0
M  V30 19541 O 1838.17 -1.77532 1.23738 0
M  V30 19542 C 1838.76 0.873959 3.27334 0
M  V30 19543 C 1837.32 0.577023 3.71951 0
M  V30 19544 C 1836.47 1.08473 2.55204 0
M  V30 19545 H 1839.42 1.02347 1.21288 0
M  V30 19546 H 1839.44 0.182218 3.80063 0
M  V30 19547 H 1838.95 1.95161 3.35461 0
M  V30 19548 H 1837.05 -0.490747 3.69354 0
M  V30 19549 H 1837.16 1.12909 4.65605 0
M  V30 19550 H 1835.53 0.505779 2.49628 0
M  V30 19551 H 1836.31 2.16906 2.66095 0
M  V30 19552 N 1838.76 -1.46125 0.590367 0
M  V30 19553 C 1840.17 -1.85962 0.165876 0
M  V30 19554 C 1840.52 -1.49296 -1.27299 0
M  V30 19555 O 1839.64 -0.911461 -1.96269 0
M  V30 19556 C 1840.24 -3.3752 0.294262 0
M  V30 19557 C 1838.8 -3.76324 -0.0754118 0
M  V30 19558 C 1837.94 -2.70126 0.626682 0
M  V30 19559 H 1840.9 -1.3717 0.79812 0
M  V30 19560 H 1840.92 -3.77482 -0.4783 0
M  V30 19561 H 1840.43 -3.64175 1.34159 0
M  V30 19562 H 1838.53 -3.55287 -1.12258 0
M  V30 19563 H 1838.64 -4.7812 0.306241 0
M  V30 19564 H 1837.01 -2.54614 0.0661219 0
M  V30 19565 H 1837.79 -2.99619 1.6758 0
M  V30 19566 N 1840.23 -0.328564 -1.54137 0
M  V30 19567 C 1841.17 0.569226 -2.22019 0
M  V30 19568 C 1842.18 1.0759 -1.22181 0
M  V30 19569 O 1843.37 0.988621 -1.48622 0
M  V30 19570 C 1840.47 1.79439 -2.87498 0
M  V30 19571 C 1839.64 1.42555 -4.13517 0
M  V30 19572 C 1838.7 2.50878 -4.62544 0
M  V30 19573 O 1837.73 2.14812 -5.27109 0
M  V30 19574 N 1838.93 3.8189 -4.37196 0
M  V30 19575 H 1841.69 -0.0120478 -2.99698 0
M  V30 19576 H 1839.25 -0.151994 -1.61185 0
M  V30 19577 H 1841.25 2.51307 -3.17218 0
M  V30 19578 H 1839.82 2.28339 -2.13495 0
M  V30 19579 H 1839.04 0.538288 -3.90507 0
M  V30 19580 H 1840.32 1.1549 -4.9552 0
M  V30 19581 H 1839.72 4.13987 -3.85527 0
M  V30 19582 H 1838.28 4.49974 -4.71558 0
M  V30 19583 N 1841.71 1.57497 -0.0568439 0
M  V30 19584 C 1842.66 2.1305 0.933398 0
M  V30 19585 C 1843.65 1.06369 1.31841 0
M  V30 19586 O 1844.86 1.2477 1.2974 0
M  V30 19587 H 1841.24 0.681037 0.318893 0
M  V30 19588 H 1843.21 2.95141 0.439796 0
M  V30 19589 C 1841.96 2.69502 2.1969 0
M  V30 19590 H 1841.28 3.51255 1.90945 0
M  V30 19591 H 1842.72 3.11986 2.87124 0
M  V30 19592 C 1841.18 1.63547 2.94541 0
M  V30 19593 O 1841.71 1.0516 3.87691 0
M  V30 19594 N 1839.91 1.34933 2.57374 0
M  V30 19595 H 1839.46 1.82601 1.81699 0
M  V30 19596 H 1839.42 0.642701 3.07761 0
M  V30 19597 N 1843.19 -0.216591 1.56105 0
M  V30 19598 C 1844.12 -1.29202 1.89313 0
M  V30 19599 C 1845.14 -1.42798 0.781832 0
M  V30 19600 O 1846.32 -1.43607 1.06016 0
M  V30 19601 C 1843.42 -2.66701 2.09102 0
M  V30 19602 C 1842.6 -2.74989 3.40147 0
M  V30 19603 C 1841.66 -3.93536 3.49308 0
M  V30 19604 O 1840.68 -3.81642 4.22301 0
M  V30 19605 N 1841.88 -5.08059 2.80814 0
M  V30 19606 H 1844.65 -1.01038 2.82155 0
M  V30 19607 H 1842.21 -0.406611 1.56711 0
M  V30 19608 H 1844.2 -3.44396 2.12541 0
M  V30 19609 H 1842.77 -2.87443 1.22862 0
M  V30 19610 H 1841.99 -1.83733 3.48763 0
M  V30 19611 H 1843.28 -2.775 4.26464 0
M  V30 19612 H 1842.68 -5.20618 2.21299 0
M  V30 19613 H 1841.24 -5.83778 2.89908 0
M  V30 19614 N 1844.67 -1.5 -0.48349 0
M  V30 19615 C 1845.91 -1.61577 -1.2355 0
M  V30 19616 C 1846.27 -0.3065 -1.89943 0
M  V30 19617 O 1845.56 0.694667 -1.78564 0
M  V30 19618 C 1845.76 -2.72475 -2.31283 0
M  V30 19619 C 1845.59 -4.14059 -1.75457 0
M  V30 19620 C 1844.36 -4.80623 -1.55979 0
M  V30 19621 C 1846.55 -4.98715 -1.2565 0
M  V30 19622 N 1844.54 -6.06463 -0.952659 0
M  V30 19623 C 1845.91 -6.15177 -0.771821 0
M  V30 19624 C 1847.96 -4.84582 -1.14388 0
M  V30 19625 C 1846.66 -7.1906 -0.185638 0
M  V30 19626 C 1848.69 -5.88631 -0.571647 0
M  V30 19627 C 1848.05 -7.04333 -0.097282 0
M  V30 19628 H 1844.15 -0.645496 -0.441428 0
M  V30 19629 H 1846.74 -1.87074 -0.539582 0
M  V30 19630 H 1844.91 -2.48721 -2.98316 0
M  V30 19631 H 1846.64 -2.73477 -2.98316 0
M  V30 19632 H 1843.39 -4.3771 -1.8085 0
M  V30 19633 H 1843.82 -6.73698 -0.667863 0
M  V30 19634 H 1848.46 -3.95427 -1.49658 0
M  V30 19635 H 1846.18 -8.07901 0.179294 0
M  V30 19636 H 1849.76 -5.79758 -0.487042 0
M  V30 19637 H 1848.64 -7.83469 0.338582 0
M  V30 19638 N 1846.15 0.735796 -1.39369 0
M  V30 19639 C 1847.56 1.31402 -1.32628 0
M  V30 19640 C 1847.91 1.96198 0.00972836 0
M  V30 19641 O 1847.03 1.9625 0.91185 0
M  V30 19642 C 1847.63 2.38934 -2.402 0
M  V30 19643 C 1846.19 2.92432 -2.36982 0
M  V30 19644 C 1845.33 1.65992 -2.2213 0
M  V30 19645 H 1848.29 0.533364 -1.49469 0
M  V30 19646 H 1848.31 3.19304 -2.06942 0
M  V30 19647 H 1847.82 1.91745 -3.37425 0
M  V30 19648 H 1845.92 3.43903 -1.43394 0
M  V30 19649 H 1846.03 3.456 -3.31809 0
M  V30 19650 H 1844.4 1.90298 -1.69289 0
M  V30 19651 H 1845.18 1.20857 -3.21323 0
M  V30 19652 N 1847.63 1.24532 0.965897 0
M  V30 19653 C 1848.57 1.03699 2.08205 0
M  V30 19654 C 1849.57 -0.0286308 1.69376 0
M  V30 19655 O 1850.77 0.126073 1.79558 0
M  V30 19656 H 1847.15 0.318331 0.6813 0
M  V30 19657 H 1849.12 1.98348 2.22937 0
M  V30 19658 C 1847.87 0.660411 3.41371 0
M  V30 19659 H 1847.19 1.47216 3.71709 0
M  V30 19660 H 1848.63 0.554264 4.20362 0
M  V30 19661 C 1847.09 -0.632633 3.30907 0
M  V30 19662 O 1847.62 -1.67786 3.6498 0
M  V30 19663 N 1845.83 -0.61403 2.84039 0
M  V30 19664 H 1845.37 0.236909 2.56508 0
M  V30 19665 H 1845.33 -1.47938 2.7742 0
M  V30 19666 N 1849.1 -1.16685 1.05936 0
M  V30 19667 C 1850.33 -1.90758 0.793401 0
M  V30 19668 C 1850.74 -1.77479 -0.655593 0
M  V30 19669 O 1850.08 -1.11458 -1.46023 0
M  V30 19670 C 1850.15 -3.42127 1.10406 0
M  V30 19671 C 1849.81 -3.79191 2.55074 0
M  V30 19672 C 1850.81 -3.81412 3.533 0
M  V30 19673 C 1848.49 -4.09931 2.9028 0
M  V30 19674 C 1850.49 -4.13853 4.84772 0
M  V30 19675 C 1848.17 -4.42039 4.21953 0
M  V30 19676 C 1849.17 -4.4398 5.19009 0
M  V30 19677 O 1848.86 -4.75328 6.4832 0
M  V30 19678 H 1848.59 -0.611855 0.287418 0
M  V30 19679 H 1851.15 -1.48859 1.41527 0
M  V30 19680 H 1849.38 -3.84356 0.425106 0
M  V30 19681 H 1851.06 -3.97471 0.822918 0
M  V30 19682 H 1851.83 -3.5778 3.27443 0
M  V30 19683 H 1847.71 -4.07587 2.15393 0
M  V30 19684 H 1851.25 -4.15283 5.60523 0
M  V30 19685 H 1847.15 -4.65136 4.4757 0
M  V30 19686 H 1847.92 -4.93154 6.53254 0
M  V30 19687 N 1850.58 -0.841432 -1.33258 0
M  V30 19688 C 1851.49 -0.279006 -2.32935 0
M  V30 19689 C 1852.51 0.596298 -1.63463 0
M  V30 19690 O 1853.68 0.499812 -1.951 0
M  V30 19691 C 1850.75 0.534514 -3.42555 0
M  V30 19692 C 1849.81 -0.365366 -4.27742 0
M  V30 19693 C 1849.04 0.409423 -5.32127 0
M  V30 19694 O 1849.27 1.64085 -5.4629 0
M  V30 19695 O 1848.2 -0.217904 -6.01505 0
M  V30 19696 H 1852.03 -1.10448 -2.82904 0
M  V30 19697 H 1849.61 -0.60402 -1.36645 0
M  V30 19698 H 1851.49 0.996723 -4.09443 0
M  V30 19699 H 1850.17 1.33701 -2.94798 0
M  V30 19700 H 1849.07 -0.875469 -3.63712 0
M  V30 19701 H 1850.41 -1.1327 -4.78989 0
M  V30 19702 N 1852.06 1.4581 -0.598108 0
M  V30 19703 C 1852.97 2.34249 0.12834 0
M  V30 19704 C 1853.99 1.50677 0.870202 0
M  V30 19705 O 1855.16 1.83505 0.829924 0
M  V30 19706 C 1852.23 3.28135 1.1193 0
M  V30 19707 C 1851.29 4.27611 0.380432 0
M  V30 19708 C 1850.52 5.17012 1.32419 0
M  V30 19709 O 1850.74 5.09648 2.56154 0
M  V30 19710 O 1849.68 5.962 0.826397 0
M  V30 19711 H 1853.5 2.9775 -0.598199 0
M  V30 19712 H 1851.09 1.45037 -0.358416 0
M  V30 19713 H 1852.97 3.86014 1.6903 0
M  V30 19714 H 1851.65 2.6721 1.82703 0
M  V30 19715 H 1850.55 3.73375 -0.23279 0
M  V30 19716 H 1851.89 4.91365 -0.286627 0
M  V30 19717 N 1853.54 0.336733 1.53961 0
M  V30 19718 C 1854.48 -0.523198 2.24792 0
M  V30 19719 C 1855.45 -1.10107 1.24361 0
M  V30 19720 O 1856.64 -1.13895 1.53077 0
M  V30 19721 C 1853.78 -1.67166 3.0191 0
M  V30 19722 C 1852.89 -1.12176 4.17182 0
M  V30 19723 C 1852.03 -2.23697 4.81802 0
M  V30 19724 C 1851.07 -1.66023 5.89154 0
M  V30 19725 N 1850.2 -2.7126 6.47582 0
M  V30 19726 H 1855.04 0.0873707 2.97872 0
M  V30 19727 H 1852.58 0.0548897 1.46998 0
M  V30 19728 H 1854.54 -2.34768 3.44876 0
M  V30 19729 H 1853.17 -2.25332 2.31139 0
M  V30 19730 H 1852.22 -0.336885 3.78905 0
M  V30 19731 H 1853.53 -0.659852 4.94416 0
M  V30 19732 H 1852.69 -2.99178 5.27804 0
M  V30 19733 H 1851.43 -2.7323 4.03976 0
M  V30 19734 H 1850.43 -0.890457 5.42541 0
M  V30 19735 H 1851.66 -1.17352 6.68884 0
M  V30 19736 H 1849.6 -3.20059 5.72624 0
M  V30 19737 H 1849.52 -2.29671 7.20269 0
M  V30 19738 H 1850.79 -3.4653 6.98239 0
M  V30 19739 N 1855.02 -1.57465 0.0651956 0
M  V30 19740 C 1856.43 -1.80728 -0.468449 0
M  V30 19741 C 1856.78 -0.978581 -1.70054 0
M  V30 19742 O 1855.9 -0.199186 -2.15481 0
M  V30 19743 C 1856.5 -3.27791 -0.856641 0
M  V30 19744 C 1855.06 -3.51923 -1.33519 0
M  V30 19745 C 1854.2 -2.7548 -0.317147 0
M  V30 19746 H 1857.15 -1.5601 0.290955 0
M  V30 19747 H 1857.18 -3.39479 -1.71855 0
M  V30 19748 H 1856.69 -3.88079 0.0402823 0
M  V30 19749 H 1854.79 -2.96932 -2.25083 0
M  V30 19750 H 1854.9 -4.60624 -1.31767 0
M  V30 19751 H 1853.27 -2.4204 -0.793026 0
M  V30 19752 H 1854.05 -3.38502 0.571935 0
M  V30 19753 N 1856.49 0.20831 -1.56217 0
M  V30 19754 C 1857.44 1.26199 -1.89889 0
M  V30 19755 C 1858.43 1.41646 -0.763239 0
M  V30 19756 O 1859.62 1.44238 -1.02588 0
M  V30 19757 C 1856.75 2.60964 -2.23053 0
M  V30 19758 C 1855.83 2.49364 -3.43043 0
M  V30 19759 N 1856.23 2.07429 -4.6131 0
M  V30 19760 C 1854.52 2.80291 -3.4692 0
M  V30 19761 C 1855.22 2.07401 -5.4347 0
M  V30 19762 N 1854.2 2.48398 -4.83528 0
M  V30 19763 H 1858 0.928874 -2.78835 0
M  V30 19764 H 1855.52 0.416815 -1.5696 0
M  V30 19765 H 1857.51 3.37055 -2.45356 0
M  V30 19766 H 1856.17 2.9511 -1.35426 0
M  V30 19767 H 1857.18 1.78348 -4.86223 0
M  V30 19768 H 1853.86 3.1872 -2.69673 0
M  V30 19769 H 1855.25 1.76991 -6.4817 0
M  V30 19770 N 1857.97 1.50255 0.475528 0
M  V30 19771 C 1858.9 1.63428 1.59268 0
M  V30 19772 C 1859.88 0.482517 1.55276 0
M  V30 19773 O 1861.07 0.70144 1.74963 0
M  V30 19774 C 1858.19 1.61277 2.97838 0
M  V30 19775 C 1857.24 2.81961 3.20001 0
M  V30 19776 S 1858.07 4.43321 3.00378 0
M  V30 19777 C 1859.23 4.43855 4.41297 0
M  V30 19778 H 1859.46 2.57928 1.47853 0
M  V30 19779 H 1856.99 1.39462 0.662547 0
M  V30 19780 H 1858.95 1.60721 3.77729 0
M  V30 19781 H 1857.61 0.680212 3.06646 0
M  V30 19782 H 1856.81 2.76747 4.21221 0
M  V30 19783 H 1856.41 2.80061 2.47875 0
M  V30 19784 H 1858.7 4.17145 5.33851 0
M  V30 19785 H 1859.64 5.45439 4.51555 0
M  V30 19786 H 1860.05 3.73616 4.23168 0
M  V30 19787 N 1859.45 -0.728395 1.39758 0
M  V30 19788 C 1860.4 -1.83374 1.35491 0
M  V30 19789 C 1861.38 -1.5918 0.234629 0
M  V30 19790 O 1862.58 -1.70571 0.472703 0
M  V30 19791 C 1859.7 -3.21373 1.20725 0
M  V30 19792 C 1858.79 -3.51373 2.37482 0
M  V30 19793 N 1859.18 -3.52269 3.6296 0
M  V30 19794 C 1857.48 -3.81769 2.30583 0
M  V30 19795 C 1858.18 -3.80252 4.40208 0
M  V30 19796 N 1857.16 -3.98359 3.6988 0
M  V30 19797 H 1860.96 -1.82381 2.30465 0
M  V30 19798 H 1858.47 -0.926941 1.33348 0
M  V30 19799 H 1860.47 -4.00509 1.15751 0
M  V30 19800 H 1859.13 -3.236 0.267072 0
M  V30 19801 H 1860.14 -3.33423 3.96295 0
M  V30 19802 H 1856.82 -3.91562 1.44862 0
M  V30 19803 H 1858.21 -3.87357 5.49003 0
M  V30 19804 N 1860.93 -1.25042 -0.959279 0
M  V30 19805 C 1862.16 -1.12242 -1.73809 0
M  V30 19806 C 1862.57 0.324251 -1.85995 0
M  V30 19807 O 1861.93 1.22328 -1.35433 0
M  V30 19808 C 1861.98 -1.76603 -3.15426 0
M  V30 19809 O 1861.7 -3.15614 -3.03841 0
M  V30 19810 C 1863.2 -1.69522 -4.09606 0
M  V30 19811 H 1860.42 -0.39173 -0.544783 0
M  V30 19812 H 1862.96 -1.65314 -1.2038 0
M  V30 19813 H 1861.12 -1.27512 -3.65813 0
M  V30 19814 H 1861.53 -3.47186 -3.93144 0
M  V30 19815 H 1863.01 -2.19223 -5.06602 0
M  V30 19816 H 1863.48 -0.658074 -4.34242 0
M  V30 19817 H 1864.09 -2.18079 -3.65133 0
M  V30 19818 N 1862.41 1.16121 -1.06553 0
M  V30 19819 C 1863.68 1.82752 -0.697202 0
M  V30 19820 C 1864.06 1.94474 0.821172 0
M  V30 19821 O 1863.41 1.48988 1.73248 0
M  V30 19822 C 1863.62 3.19592 -1.4022 0
M  V30 19823 C 1864.97 3.95333 -1.5491 0
M  V30 19824 O 1865.99 3.29119 -1.36232 0
M  V30 19825 O 1864.85 5.14028 -1.85574 0
M  V30 19826 H 1861.95 0.789214 -0.247125 0
M  V30 19827 H 1864.49 1.23302 -1.16597 0
M  V30 19828 H 1863.26 3.06111 -2.43745 0
M  V30 19829 H 1862.89 3.86722 -0.923686 0
M  V30 19830 N 1863.88 0.848487 1.3281 0
M  V30 19831 C 1865.11 0.46174 2.02195 0
M  V30 19832 C 1865.53 -0.932159 1.63378 0
M  V30 19833 O 1864.89 -1.6112 0.831266 0
M  V30 19834 C 1864.94 0.601234 3.55552 0
M  V30 19835 O 1864.04 -0.368549 4.1075 0
M  V30 19836 H 1863.39 0.186379 0.637306 0
M  V30 19837 H 1865.92 1.14598 1.69495 0
M  V30 19838 H 1865.93 0.486456 4.0509 0
M  V30 19839 H 1864.6 1.61773 3.83148 0
M  V30 19840 H 1863.18 -0.210525 3.72305 0
M  V30 19841 N 1865.36 -1.4549 0.605832 0
M  V30 19842 C 1866.31 -2.32256 -0.126541 0
M  V30 19843 C 1867.3 -1.45865 -0.861381 0
M  V30 19844 O 1868.51 -1.62359 -0.777146 0
M  V30 19845 H 1864.89 -0.749629 -0.0596684 0
M  V30 19846 H 1866.86 -2.91809 0.623708 0
M  V30 19847 C 1865.61 -3.2945 -1.11165 0
M  V30 19848 H 1864.93 -3.9592 -0.555636 0
M  V30 19849 H 1866.37 -3.92894 -1.59406 0
M  V30 19850 C 1864.83 -2.56493 -2.18433 0
M  V30 19851 O 1865.36 -2.34501 -3.26147 0
M  V30 19852 N 1863.56 -2.16658 -1.93669 0
M  V30 19853 H 1863.11 -2.34744 -1.0608 0
M  V30 19854 H 1863.07 -1.68166 -2.65645 0
M  V30 19855 N 1866.84 -0.344893 -1.5378 0
M  V30 19856 C 1867.79 0.527275 -2.21819 0
M  V30 19857 C 1868.77 1.06502 -1.20607 0
M  V30 19858 O 1869.97 0.998502 -1.46147 0
M  V30 19859 C 1867.1 1.67703 -2.99551 0
M  V30 19860 C 1866.18 1.15316 -4.08121 0
M  V30 19861 N 1866.57 0.35061 -5.04583 0
M  V30 19862 C 1864.87 1.42992 -4.22456 0
M  V30 19863 C 1865.57 0.0661583 -5.81662 0
M  V30 19864 N 1864.55 0.658168 -5.39601 0
M  V30 19865 H 1868.35 -0.0929348 -2.93753 0
M  V30 19866 H 1865.86 -0.151827 -1.61689 0
M  V30 19867 H 1867.86 2.31383 -3.46796 0
M  V30 19868 H 1866.52 2.30051 -2.29144 0
M  V30 19869 H 1867.53 -0.0084236 -5.17899 0
M  V30 19870 H 1864.21 2.05769 -3.6327 0
M  V30 19871 H 1865.6 -0.581316 -6.69381 0
M  V30 19872 N 1868.32 1.57428 -0.0735454 0
M  V30 19873 C 1869.54 1.98301 0.607591 0
M  V30 19874 C 1869.97 0.951686 1.62248 0
M  V30 19875 O 1869.33 -0.0825008 1.81112 0
M  V30 19876 C 1869.37 3.38201 1.2511 0
M  V30 19877 O 1868.48 3.37711 2.36696 0
M  V30 19878 H 1867.82 0.64539 0.156104 0
M  V30 19879 H 1870.35 2.0406 -0.148578 0
M  V30 19880 H 1870.36 3.75424 1.59753 0
M  V30 19881 H 1869.03 4.12793 0.50745 0
M  V30 19882 H 1867.61 3.1226 2.03833 0
M  V30 19883 N 1869.8 -0.200022 1.56326 0
M  V30 19884 C 1871.02 -0.941617 1.84793 0
M  V30 19885 C 1871.45 -1.76271 0.656525 0
M  V30 19886 O 1870.8 -1.76951 -0.394703 0
M  V30 19887 C 1870.85 -1.81754 3.11445 0
M  V30 19888 O 1869.96 -2.91571 2.91651 0
M  V30 19889 H 1869.3 -0.265444 0.608634 0
M  V30 19890 H 1871.83 -0.206826 2.03552 0
M  V30 19891 H 1871.84 -2.22316 3.4211 0
M  V30 19892 H 1870.51 -1.2142 3.97781 0
M  V30 19893 H 1869.09 -2.54799 2.72271 0
M  V30 19894 N 1871.27 -1.50505 -0.467553 0
M  V30 19895 C 1872.52 -1.60911 -1.21617 0
M  V30 19896 C 1872.84 -0.31663 -1.9302 0
M  V30 19897 O 1874.04 -0.299645 -2.69841 0
M  V30 19898 C 1872.5 -2.84052 -2.21003 0
M  V30 19899 C 1872.11 -4.20189 -1.55386 0
M  V30 19900 C 1873.85 -3.03805 -2.96484 0
M  V30 19901 C 1871.76 -5.34514 -2.5308 0
M  V30 19902 H 1870.69 -0.59924 -0.457633 0
M  V30 19903 H 1873.34 -1.7694 -0.486276 0
M  V30 19904 H 1871.72 -2.6159 -2.97299 0
M  V30 19905 H 1872.89 -4.5292 -0.848552 0
M  V30 19906 H 1871.21 -4.0607 -0.921725 0
M  V30 19907 H 1873.81 -3.86387 -3.69606 0
M  V30 19908 H 1874.15 -2.15672 -3.56078 0
M  V30 19909 H 1874.68 -3.26465 -2.27301 0
M  V30 19910 H 1871.42 -6.24811 -1.9822 0
M  V30 19911 H 1870.94 -5.06197 -3.21752 0
M  V30 19912 H 1872.62 -5.65232 -3.14836 0
M  V30 19913 N 1872.75 0.720973 -1.40142 0
M  V30 19914 C 1873.72 1.81676 -1.39737 0
M  V30 19915 C 1874.72 1.58125 -0.292068 0
M  V30 19916 O 1875.91 1.65266 -0.550699 0
M  V30 19917 C 1873.04 3.19685 -1.18381 0
M  V30 19918 H 1874.23 1.83435 -2.37259 0
M  V30 19919 H 1871.78 0.926064 -1.25912 0
M  V30 19920 H 1872.52 3.2358 -0.21598 0
M  V30 19921 H 1872.3 3.38178 -1.98439 0
M  V30 19922 H 1873.79 3.99724 -1.20873 0
M  V30 19923 N 1874.23 1.25549 0.952634 0
M  V30 19924 C 1875.48 1.09811 1.69188 0
M  V30 19925 C 1875.79 -0.360368 1.92252 0
M  V30 19926 O 1877 -0.638228 2.63892 0
M  V30 19927 C 1875.45 1.91693 3.04601 0
M  V30 19928 C 1875.06 3.42045 2.89326 0
M  V30 19929 C 1876.81 1.8453 3.82294 0
M  V30 19930 C 1874.71 4.16216 4.20141 0
M  V30 19931 H 1873.64 0.40733 0.634507 0
M  V30 19932 H 1876.29 1.49762 1.06035 0
M  V30 19933 H 1874.68 1.44566 3.68669 0
M  V30 19934 H 1875.85 3.96859 2.34178 0
M  V30 19935 H 1874.17 3.50322 2.25085 0
M  V30 19936 H 1876.76 2.37237 4.79189 0
M  V30 19937 H 1877.11 0.81361 4.08272 0
M  V30 19938 H 1877.64 2.29418 3.2498 0
M  V30 19939 H 1874.38 5.19806 3.99352 0
M  V30 19940 H 1873.9 3.66184 4.75047 0
M  V30 19941 H 1875.58 4.2404 4.88671 0
M  V30 19942 N 1875.71 -1.15554 1.07168 0
M  V30 19943 C 1876.64 -2.19841 0.648285 0
M  V30 19944 C 1877.65 -1.60045 -0.298247 0
M  V30 19945 O 1878.84 -1.78284 -0.0878565 0
M  V30 19946 C 1875.94 -3.38831 -0.068586 0
M  V30 19947 C 1875.12 -4.28173 0.89366 0
M  V30 19948 C 1874.17 -5.25763 0.214424 0
M  V30 19949 O 1873.2 -5.62744 0.854883 0
M  V30 19950 N 1874.4 -5.71096 -1.04063 0
M  V30 19951 H 1877.17 -2.56784 1.54539 0
M  V30 19952 H 1874.73 -1.30652 0.956127 0
M  V30 19953 H 1876.72 -4.01167 -0.533614 0
M  V30 19954 H 1875.29 -3.00319 -0.86761 0
M  V30 19955 H 1874.51 -3.62965 1.53785 0
M  V30 19956 H 1875.8 -4.84739 1.54613 0
M  V30 19957 H 1875.2 -5.4316 -1.58095 0
M  V30 19958 H 1873.75 -6.35481 -1.44937 0
M  V30 19959 N 1877.19 -0.855519 -1.32358 0
M  V30 19960 C 1878.6 -0.545491 -1.49989 0
M  V30 19961 C 1878.8 0.923656 -1.79083 0
M  V30 19962 O 1877.86 1.70664 -1.86091 0
M  V30 19963 C 1879.17 -1.43323 -2.64347 0
M  V30 19964 C 1880.72 -1.43374 -2.78232 0
M  V30 19965 C 1881.2 -2.30671 -3.9567 0
M  V30 19966 N 1882.69 -2.28471 -4.02933 0
M  V30 19967 C 1883.42 -2.92746 -4.93039 0
M  V30 19968 N 1882.92 -3.66136 -5.88147 0
M  V30 19969 N 1884.71 -2.82129 -4.86168 0
M  V30 19970 H 1876.86 -1.80633 -1.11738 0
M  V30 19971 H 1879.12 -0.771568 -0.550805 0
M  V30 19972 H 1878.83 -2.47797 -2.49578 0
M  V30 19973 H 1878.7 -1.12125 -3.6015 0
M  V30 19974 H 1881.09 -0.396641 -2.92422 0
M  V30 19975 H 1881.17 -1.78588 -1.83139 0
M  V30 19976 H 1880.82 -3.3445 -3.82238 0
M  V30 19977 H 1880.75 -1.92789 -4.90041 0
M  V30 19978 H 1883.24 -1.75115 -3.34878 0
M  V30 19979 H 1883.55 -4.12344 -6.536 0
M  V30 19980 H 1881.9 -3.70244 -5.88171 0
M  V30 19981 H 1885.09 -2.24344 -4.10837 0
M  V30 19982 H 1885.26 -3.32502 -5.56189 0
M  V30 19983 N 1878.67 1.45167 -0.61354 0
M  V30 19984 C 1879.91 2.02495 -0.111227 0
M  V30 19985 C 1880.24 1.48015 1.25719 0
M  V30 19986 O 1879.52 0.657188 1.83061 0
M  V30 19987 C 1879.8 3.60014 -0.07876 0
M  V30 19988 C 1879.66 4.24814 -1.47827 0
M  V30 19989 C 1880.97 4.35908 0.605964 0
M  V30 19990 H 1878.09 0.735808 -0.0418931 0
M  V30 19991 H 1880.74 1.7295 -0.786651 0
M  V30 19992 H 1878.89 3.85315 0.496411 0
M  V30 19993 H 1880.56 4.10678 -2.10097 0
M  V30 19994 H 1878.8 3.82986 -2.03726 0
M  V30 19995 H 1879.47 5.33748 -1.40774 0
M  V30 19996 H 1881.95 4.15935 0.117019 0
M  V30 19997 H 1880.82 5.45635 0.597808 0
M  V30 19998 H 1881.08 4.09216 1.67315 0
M  V30 19999 N 1880.14 0.353044 1.53595 0
M  V30 20000 C 1881.37 -0.241665 2.05484 0
M  V30 20001 C 1881.79 -1.43458 1.2274 0
M  V30 20002 O 1881.14 -1.80566 0.26501 0
M  V30 20003 C 1881.19 -0.647442 3.55655 0
M  V30 20004 O 1880.92 0.498047 4.3526 0
M  V30 20005 C 1882.42 -1.30187 4.23753 0
M  V30 20006 H 1879.64 -0.0449704 0.669491 0
M  V30 20007 H 1882.18 0.507783 1.98095 0
M  V30 20008 H 1880.34 -1.34682 3.63235 0
M  V30 20009 H 1880.75 0.172685 5.24216 0
M  V30 20010 H 1882.22 -1.53646 5.30186 0
M  V30 20011 H 1882.7 -2.25835 3.7669 0
M  V30 20012 H 1883.31 -0.644265 4.20392 0
M  V30 20013 N 1881.62 -1.57387 0.0818932 0
M  V30 20014 C 1883.04 -1.57217 -0.274755 0
M  V30 20015 C 1883.24 -1.09207 -1.6934 0
M  V30 20016 O 1882.29 -0.762532 -2.40711 0
M  V30 20017 C 1883.61 -3.00606 -0.075209 0
M  V30 20018 C 1885.15 -3.12669 -0.143973 0
M  V30 20019 C 1885.63 -4.57992 0.0274161 0
M  V30 20020 N 1887.12 -4.63192 -0.0278563 0
M  V30 20021 C 1887.86 -5.73344 0.0801936 0
M  V30 20022 N 1887.35 -6.92376 0.242334 0
M  V30 20023 N 1889.14 -5.62096 0.0224057 0
M  V30 20024 H 1881.3 -1.86907 1.00894 0
M  V30 20025 H 1883.56 -0.8621 0.39432 0
M  V30 20026 H 1883.26 -3.39881 0.904105 0
M  V30 20027 H 1883.14 -3.68107 -0.823213 0
M  V30 20028 H 1885.53 -2.73274 -1.11378 0
M  V30 20029 H 1885.61 -2.47785 0.635303 0
M  V30 20030 H 1885.25 -4.98078 0.994034 0
M  V30 20031 H 1885.18 -5.2092 -0.77139 0
M  V30 20032 H 1887.67 -3.77598 -0.151172 0
M  V30 20033 H 1887.98 -7.72151 0.316652 0
M  V30 20034 H 1886.33 -6.94444 0.277829 0
M  V30 20035 H 1889.52 -4.67987 -0.103039 0
M  V30 20036 H 1889.69 -6.47907 0.110065 0
M  V30 20037 N 1883.1 0.191729 -1.56429 0
M  V30 20038 C 1884.32 0.931804 -1.85289 0
M  V30 20039 C 1884.75 1.7592 -0.665864 0
M  V30 20040 O 1884.11 1.77158 0.385313 0
M  V30 20041 C 1884.16 1.801 -3.12404 0
M  V30 20042 O 1883.26 2.9002 -2.93193 0
M  V30 20043 H 1882.6 0.262213 -0.610033 0
M  V30 20044 H 1885.13 0.196028 -2.03659 0
M  V30 20045 H 1885.14 2.20499 -3.43285 0
M  V30 20046 H 1883.82 1.19309 -3.9842 0
M  V30 20047 H 1882.39 2.53352 -2.73619 0
M  V30 20048 N 1884.58 1.50751 0.459565 0
M  V30 20049 C 1885.51 1.66621 1.57385 0
M  V30 20050 C 1886.52 0.547358 1.53323 0
M  V30 20051 O 1887.71 0.820941 1.58502 0
M  V30 20052 C 1884.81 1.64524 2.96285 0
M  V30 20053 C 1883.98 2.92631 3.25093 0
M  V30 20054 C 1883.04 2.83021 4.43605 0
M  V30 20055 O 1882.07 3.56977 4.43347 0
M  V30 20056 N 1883.27 1.97358 5.45921 0
M  V30 20057 H 1886.04 2.62738 1.44184 0
M  V30 20058 H 1883.6 1.48359 0.64817 0
M  V30 20059 H 1885.59 1.55693 3.73553 0
M  V30 20060 H 1884.16 0.760945 3.03197 0
M  V30 20061 H 1883.38 3.15502 2.36331 0
M  V30 20062 H 1884.67 3.77477 3.41157 0
M  V30 20063 H 1884.07 1.36608 5.48958 0
M  V30 20064 H 1882.62 1.94422 6.22128 0
M  V30 20065 N 1886.06 -0.713531 1.40522 0
M  V30 20066 C 1886.97 -1.8577 1.43272 0
M  V30 20067 C 1887.98 -1.70936 0.325113 0
M  V30 20068 O 1889.16 -1.93165 0.570022 0
M  V30 20069 C 1886.22 -3.21587 1.29548 0
M  V30 20070 C 1885.28 -3.4866 2.50469 0
M  V30 20071 C 1884.52 -4.77998 2.3739 0
M  V30 20072 O 1884.74 -5.53234 1.38881 0
M  V30 20073 O 1883.67 -5.05453 3.26804 0
M  V30 20074 H 1887.5 -1.86406 2.39763 0
M  V30 20075 H 1885.08 -0.864226 1.21867 0
M  V30 20076 H 1886.97 -4.02709 1.2411 0
M  V30 20077 H 1885.64 -3.21674 0.36163 0
M  V30 20078 H 1884.55 -2.67539 2.61483 0
M  V30 20079 H 1885.88 -3.53372 3.42621 0
M  V30 20080 N 1887.53 -1.26053 -0.945962 0
M  V30 20081 C 1888.44 -1.08959 -2.07762 0
M  V30 20082 C 1889.46 -0.0243726 -1.73983 0
M  V30 20083 O 1890.64 -0.227113 -2.00115 0
M  V30 20084 C 1887.7 -0.719365 -3.39155 0
M  V30 20085 C 1886.76 -1.86347 -3.86747 0
M  V30 20086 C 1885.99 -1.51082 -5.11869 0
M  V30 20087 O 1886.22 -0.410377 -5.68922 0
M  V30 20088 O 1885.15 -2.34395 -5.54385 0
M  V30 20089 H 1888.98 -2.03884 -2.25089 0
M  V30 20090 H 1886.56 -1.05071 -1.0621 0
M  V30 20091 H 1888.44 -0.525412 -4.18112 0
M  V30 20092 H 1887.12 0.20054 -3.23078 0
M  V30 20093 H 1886.03 -2.11235 -3.08756 0
M  V30 20094 H 1887.36 -2.76293 -4.07336 0
M  V30 20095 N 1889.01 1.14984 -1.07779 0
M  V30 20096 C 1889.94 2.22006 -0.723564 0
M  V30 20097 C 1890.92 1.67592 0.291024 0
M  V30 20098 O 1892.11 1.93516 0.162812 0
M  V30 20099 C 1889.24 3.47074 -0.125223 0
M  V30 20100 C 1888.19 4.14475 -1.06745 0
M  V30 20101 C 1887.52 5.33671 -0.331643 0
M  V30 20102 C 1888.82 4.63744 -2.4029 0
M  V30 20103 H 1890.51 2.51893 -1.61834 0
M  V30 20104 H 1888.06 1.21073 -0.779571 0
M  V30 20105 H 1890.01 4.21185 0.134555 0
M  V30 20106 H 1888.73 3.16533 0.804654 0
M  V30 20107 H 1887.39 3.4231 -1.31222 0
M  V30 20108 H 1887.04 4.99387 0.601833 0
M  V30 20109 H 1886.74 5.7971 -0.959721 0
M  V30 20110 H 1888.27 6.10548 -0.0797668 0
M  V30 20111 H 1889.68 5.2936 -2.20115 0
M  V30 20112 H 1888.08 5.20461 -2.98732 0
M  V30 20113 H 1889.15 3.79151 -3.02279 0
M  V30 20114 N 1890.49 0.862526 1.31902 0
M  V30 20115 C 1891.91 0.553438 1.49697 0
M  V30 20116 C 1892.11 -0.914146 1.79571 0
M  V30 20117 O 1891.16 -1.69675 1.86994 0
M  V30 20118 C 1892.47 1.44722 2.63583 0
M  V30 20119 C 1894.02 1.44848 2.77467 0
M  V30 20120 C 1894.5 2.32766 3.94441 0
M  V30 20121 N 1895.99 2.30605 4.01716 0
M  V30 20122 C 1896.72 2.95356 4.9148 0
M  V30 20123 N 1896.22 3.6925 5.86197 0
M  V30 20124 N 1898.01 2.84703 4.84665 0
M  V30 20125 H 1890.16 1.81223 1.10779 0
M  V30 20126 H 1892.43 0.774478 0.546706 0
M  V30 20127 H 1892.13 2.49117 2.48261 0
M  V30 20128 H 1892.01 1.14033 3.5955 0
M  V30 20129 H 1894.39 0.412143 2.92208 0
M  V30 20130 H 1894.47 1.79557 1.8219 0
M  V30 20131 H 1894.12 3.36472 3.80459 0
M  V30 20132 H 1894.05 1.95386 4.89011 0
M  V30 20133 H 1896.54 1.76889 3.33944 0
M  V30 20134 H 1896.85 4.15804 6.51404 0
M  V30 20135 H 1895.2 3.73358 5.86199 0
M  V30 20136 H 1898.39 2.2652 4.09642 0
M  V30 20137 H 1898.56 3.35447 5.54418 0
M  V30 20138 N 1891.97 -1.4484 0.62123 0
M  V30 20139 C 1892.88 -2.34423 -0.0910566 0
M  V30 20140 C 1893.89 -1.52042 -0.846121 0
M  V30 20141 O 1895.07 -1.84802 -0.800625 0
M  V30 20142 C 1892.14 -3.29874 -1.06696 0
M  V30 20143 C 1891.2 -4.28162 -0.312354 0
M  V30 20144 C 1890.43 -5.19053 -1.24177 0
M  V30 20145 O 1890.65 -5.13659 -2.48014 0
M  V30 20146 O 1889.59 -5.97439 -0.731442 0
M  V30 20147 H 1893.41 -2.96761 0.645493 0
M  V30 20148 H 1891 -1.44448 0.381445 0
M  V30 20149 H 1892.88 -3.88654 -1.62867 0
M  V30 20150 H 1891.55 -2.70083 -1.78429 0
M  V30 20151 H 1890.46 -3.72957 0.292161 0
M  V30 20152 H 1891.79 -4.90847 0.364763 0
M  V30 20153 N 1893.45 -0.361184 -1.53405 0
M  V30 20154 C 1894.72 0.286047 -1.93497 0
M  V30 20155 C 1895.1 1.66764 -1.29434 0
M  V30 20156 O 1894.45 2.23989 -0.451785 0
M  V30 20157 C 1894.66 0.340663 -3.47333 0
M  V30 20158 C 1896.01 0.58311 -4.20577 0
M  V30 20159 O 1897.03 0.422054 -3.53691 0
M  V30 20160 O 1895.89 0.896383 -5.39099 0
M  V30 20161 H 1892.99 0.17059 -0.809215 0
M  V30 20162 H 1895.53 -0.413648 -1.64581 0
M  V30 20163 H 1894.3 -0.628175 -3.86225 0
M  V30 20164 H 1893.93 1.08643 -3.82469 0
M  V30 20165 N 1894.92 1.57341 -0.0902386 0
M  V30 20166 C 1895.87 2.13756 0.870448 0
M  V30 20167 C 1896.84 1.05483 1.28306 0
M  V30 20168 O 1898.03 1.33245 1.36567 0
M  V30 20169 C 1895.17 2.71839 2.12597 0
M  V30 20170 C 1894.28 3.94329 1.76433 0
M  V30 20171 C 1893.41 4.40593 2.96734 0
M  V30 20172 C 1892.45 5.55684 2.56674 0
M  V30 20173 N 1891.59 5.96822 3.69794 0
M  V30 20174 H 1896.43 2.95535 0.3825 0
M  V30 20175 H 1893.97 1.4603 0.177134 0
M  V30 20176 H 1895.93 3.03632 2.86118 0
M  V30 20177 H 1894.56 1.92797 2.589 0
M  V30 20178 H 1893.61 3.68882 0.928996 0
M  V30 20179 H 1894.92 4.77871 1.42973 0
M  V30 20180 H 1894.07 4.74143 3.78514 0
M  V30 20181 H 1892.81 3.55942 3.33401 0
M  V30 20182 H 1891.82 5.21767 1.7332 0
M  V30 20183 H 1893.04 6.4208 2.21156 0
M  V30 20184 H 1890.99 5.15118 4.06189 0
M  V30 20185 H 1890.91 6.75148 3.40163 0
M  V30 20186 H 1892.17 6.35002 4.52099 0
M  V30 20187 N 1896.4 -0.183431 1.56529 0
M  V30 20188 C 1897.37 -1.21097 1.94597 0
M  V30 20189 C 1898.37 -1.37825 0.828305 0
M  V30 20190 O 1899.56 -1.35438 1.09555 0
M  V30 20191 C 1896.69 -2.57826 2.23021 0
M  V30 20192 H 1897.88 -0.885275 2.86536 0
M  V30 20193 H 1895.43 -0.425412 1.50399 0
M  V30 20194 H 1896.17 -2.95431 1.33758 0
M  V30 20195 H 1895.95 -2.47054 3.04478 0
M  V30 20196 H 1897.44 -3.31902 2.53437 0
M  V30 20197 N 1897.88 -1.50992 -0.451564 0
M  V30 20198 C 1899.11 -1.66499 -1.22317 0
M  V30 20199 C 1899.52 -0.355831 -1.85824 0
M  V30 20200 O 1898.86 0.674213 -1.7088 0
M  V30 20201 C 1898.92 -2.71315 -2.35857 0
M  V30 20202 C 1898.59 -4.14324 -1.92832 0
M  V30 20203 C 1899.58 -4.99567 -1.43976 0
M  V30 20204 C 1897.27 -4.60349 -2.00957 0
M  V30 20205 C 1899.26 -6.28889 -1.03813 0
M  V30 20206 C 1896.95 -5.89672 -1.60405 0
M  V30 20207 C 1897.95 -6.73769 -1.11913 0
M  V30 20208 O 1897.64 -8.00675 -0.719315 0
M  V30 20209 H 1897.37 -0.562243 -0.375312 0
M  V30 20210 H 1899.92 -1.9809 -0.54311 0
M  V30 20211 H 1898.15 -2.35009 -3.07096 0
M  V30 20212 H 1899.84 -2.75844 -2.97767 0
M  V30 20213 H 1900.61 -4.65217 -1.37105 0
M  V30 20214 H 1896.49 -3.95024 -2.37648 0
M  V30 20215 H 1900.03 -6.94481 -0.658932 0
M  V30 20216 H 1895.93 -6.23539 -1.66942 0
M  V30 20217 H 1896.7 -8.14112 -0.846434 0
M  V30 20218 N 1899.36 0.706069 -1.40899 0
M  V30 20219 C 1900.29 1.83119 -1.37841 0
M  V30 20220 C 1901.3 1.60335 -0.282253 0
M  V30 20221 O 1902.49 1.70032 -0.543263 0
M  V30 20222 C 1899.59 3.19696 -1.12461 0
M  V30 20223 C 1898.77 3.69598 -2.33915 0
M  V30 20224 C 1897.82 4.84815 -2.04551 0
M  V30 20225 O 1896.85 4.96973 -2.775 0
M  V30 20226 N 1898.05 5.71302 -1.0293 0
M  V30 20227 H 1900.82 1.86237 -2.34811 0
M  V30 20228 H 1898.38 0.887984 -1.35375 0
M  V30 20229 H 1900.37 3.94386 -0.90786 0
M  V30 20230 H 1898.94 3.11668 -0.241258 0
M  V30 20231 H 1898.16 2.85933 -2.7136 0
M  V30 20232 H 1899.45 3.99674 -3.14862 0
M  V30 20233 H 1898.85 5.64099 -0.425314 0
M  V30 20234 H 1897.4 6.45935 -0.872446 0
M  V30 20235 N 1900.84 1.26553 0.939264 0
M  V30 20236 C 1901.77 1.10778 2.05549 0
M  V30 20237 C 1902.75 0.0124359 1.70095 0
M  V30 20238 O 1903.93 0.184814 1.93319 0
M  V30 20239 C 1901.06 0.742011 3.39281 0
M  V30 20240 C 1900.02 1.78931 3.88803 0
M  V30 20241 C 1899.34 1.2778 5.19207 0
M  V30 20242 C 1900.64 3.1912 4.13473 0
M  V30 20243 H 1902.34 2.04151 2.19004 0
M  V30 20244 H 1899.88 0.98294 1.05234 0
M  V30 20245 H 1901.84 0.618526 4.16836 0
M  V30 20246 H 1900.56 -0.22742 3.25807 0
M  V30 20247 H 1899.22 1.9015 3.13431 0
M  V30 20248 H 1898.87 0.298159 5.02116 0
M  V30 20249 H 1898.57 1.9779 5.53311 0
M  V30 20250 H 1900.09 1.16703 5.99344 0
M  V30 20251 H 1901.5 3.10967 4.81635 0
M  V30 20252 H 1899.9 3.86738 4.58862 0
M  V30 20253 H 1900.97 3.65034 3.19183 0
M  V30 20254 N 1902.31 -1.14411 1.08387 0
M  V30 20255 C 1903.22 -2.23103 0.725418 0
M  V30 20256 C 1904.24 -1.71924 -0.26799 0
M  V30 20257 O 1905.42 -2.01088 -0.111986 0
M  V30 20258 C 1902.48 -3.46418 0.139915 0
M  V30 20259 C 1901.54 -4.12537 1.18791 0
M  V30 20260 C 1900.78 -5.29966 0.630252 0
M  V30 20261 O 1901 -5.67739 -0.550335 0
M  V30 20262 O 1899.93 -5.85862 1.38021 0
M  V30 20263 H 1903.76 -2.56116 1.63213 0
M  V30 20264 H 1901.34 -1.22338 0.857538 0
M  V30 20265 H 1903.23 -4.20999 -0.18381 0
M  V30 20266 H 1901.9 -3.15129 -0.739957 0
M  V30 20267 H 1900.81 -3.39831 1.56416 0
M  V30 20268 H 1902.14 -4.47932 2.04005 0
M  V30 20269 N 1903.79 -0.869509 -1.31443 0
M  V30 20270 C 1905.21 -0.561369 -1.49402 0
M  V30 20271 C 1905.41 0.90461 -1.80053 0
M  V30 20272 O 1904.46 1.68681 -1.87891 0
M  V30 20273 C 1905.78 -1.46118 -2.62812 0
M  V30 20274 C 1907.33 -1.46317 -2.76695 0
M  V30 20275 C 1907.8 -2.34855 -3.93201 0
M  V30 20276 N 1909.29 -2.32732 -4.00487 0
M  V30 20277 C 1910.03 -2.97959 -4.89906 0
M  V30 20278 N 1909.52 -3.72353 -5.8423 0
M  V30 20279 N 1911.32 -2.8727 -4.83149 0
M  V30 20280 H 1903.47 -1.81808 -1.09816 0
M  V30 20281 H 1905.73 -0.777367 -0.542591 0
M  V30 20282 H 1905.44 -2.5043 -2.46936 0
M  V30 20283 H 1905.31 -1.15938 -3.5894 0
M  V30 20284 H 1907.7 -0.427634 -2.91985 0
M  V30 20285 H 1907.78 -1.8052 -1.81235 0
M  V30 20286 H 1907.42 -3.38485 -3.78669 0
M  V30 20287 H 1907.35 -1.97976 -4.87968 0
M  V30 20288 H 1909.84 -1.78657 -3.33002 0
M  V30 20289 H 1910.16 -4.19253 -6.4919 0
M  V30 20290 H 1908.5 -3.76461 -5.8421 0
M  V30 20291 H 1911.69 -2.28689 -4.08435 0
M  V30 20292 H 1911.86 -3.38383 -5.52631 0
M  V30 20293 N 1905.27 1.44508 -0.628902 0
M  V30 20294 C 1906.22 2.27784 0.0991943 0
M  V30 20295 C 1907.2 1.38538 0.818285 0
M  V30 20296 O 1908.4 1.62364 0.704759 0
M  V30 20297 C 1905.53 3.25816 1.0816 0
M  V30 20298 C 1904.61 4.2255 0.362249 0
M  V30 20299 N 1905 5.02133 -0.607915 0
M  V30 20300 C 1903.3 4.4185 0.60699 0
M  V30 20301 C 1904 5.7246 -1.03271 0
M  V30 20302 N 1902.98 5.42326 -0.371966 0
M  V30 20303 H 1906.78 2.86721 -0.645621 0
M  V30 20304 H 1904.29 1.55918 -0.45423 0
M  V30 20305 H 1906.29 3.8423 1.6178 0
M  V30 20306 H 1904.95 2.6844 1.82674 0
M  V30 20307 H 1905.96 5.08435 -0.985626 0
M  V30 20308 H 1902.64 3.95575 1.33517 0
M  V30 20309 H 1904.03 6.46383 -1.83409 0
M  V30 20310 N 1906.75 0.369315 1.53212 0
M  V30 20311 C 1908.17 0.0184115 1.59589 0
M  V30 20312 C 1908.37 -1.46424 1.38428 0
M  V30 20313 O 1907.42 -2.2263 1.1913 0
M  V30 20314 C 1908.73 0.477693 2.96881 0
M  V30 20315 C 1910.28 0.432233 3.10001 0
M  V30 20316 C 1910.76 0.867386 4.49711 0
M  V30 20317 N 1912.25 0.822594 4.55837 0
M  V30 20318 C 1912.98 1.13094 5.62136 0
M  V30 20319 N 1912.48 1.50876 6.76172 0
M  V30 20320 N 1914.27 1.0535 5.52139 0
M  V30 20321 H 1906.42 1.33479 1.65218 0
M  V30 20322 H 1908.69 0.545823 0.775101 0
M  V30 20323 H 1908.39 1.51245 3.17518 0
M  V30 20324 H 1908.27 -0.133741 3.76963 0
M  V30 20325 H 1910.65 -0.593397 2.89072 0
M  V30 20326 H 1910.73 1.07921 2.3192 0
M  V30 20327 H 1910.38 1.89115 4.71379 0
M  V30 20328 H 1910.31 0.19762 5.26229 0
M  V30 20329 H 1912.8 0.544303 3.7396 0
M  V30 20330 H 1913.11 1.72821 7.53228 0
M  V30 20331 H 1911.46 1.54745 6.77554 0
M  V30 20332 H 1914.65 0.757487 4.6193 0
M  V30 20333 H 1914.82 1.29713 6.34885 0
M  V30 20334 N 1908.23 -1.57291 0.0985816 0
M  V30 20335 C 1909.48 -1.93654 -0.564011 0
M  V30 20336 C 1909.79 -0.982723 -1.69121 0
M  V30 20337 O 1911 -1.2402 -2.41519 0
M  V30 20338 C 1909.45 -3.441 -1.05466 0
M  V30 20339 C 1909.06 -4.47979 0.0429743 0
M  V30 20340 C 1910.8 -3.89418 -1.68979 0
M  V30 20341 C 1908.71 -5.89583 -0.463226 0
M  V30 20342 H 1907.64 -0.722858 -0.214457 0
M  V30 20343 H 1910.29 -1.82662 0.175145 0
M  V30 20344 H 1908.67 -3.50256 -1.84761 0
M  V30 20345 H 1909.85 -4.53471 0.818587 0
M  V30 20346 H 1908.16 -4.12291 0.583501 0
M  V30 20347 H 1910.76 -4.92615 -2.0793 0
M  V30 20348 H 1911.1 -3.28258 -2.56032 0
M  V30 20349 H 1911.64 -3.85978 -0.962602 0
M  V30 20350 H 1908.37 -6.54451 0.370767 0
M  V30 20351 H 1907.89 -5.87555 -1.20577 0
M  V30 20352 H 1909.57 -6.40266 -0.931072 0
M  V30 20353 N 1909.71 0.175127 -1.56624 0
M  V30 20354 C 1910.62 1.23691 -1.99343 0
M  V30 20355 C 1911.63 1.48662 -0.904197 0
M  V30 20356 O 1912.81 1.60885 -1.21153 0
M  V30 20357 C 1909.87 2.55689 -2.34145 0
M  V30 20358 C 1908.93 2.38614 -3.56878 0
M  V30 20359 C 1908.17 3.64318 -3.9001 0
M  V30 20360 O 1908.39 4.69335 -3.24162 0
M  V30 20361 O 1907.32 3.58655 -4.83373 0
M  V30 20362 H 1911.15 0.904314 -2.89924 0
M  V30 20363 H 1908.73 0.381697 -1.44442 0
M  V30 20364 H 1910.62 3.33562 -2.57516 0
M  V30 20365 H 1909.29 2.88535 -1.46728 0
M  V30 20366 H 1908.2 1.58786 -3.3873 0
M  V30 20367 H 1909.53 2.10694 -4.44825 0
M  V30 20368 N 1911.18 1.5123 0.44355 0
M  V30 20369 C 1912.15 1.71511 1.52041 0
M  V30 20370 C 1913.15 0.585226 1.49772 0
M  V30 20371 O 1914.34 0.852687 1.51904 0
M  V30 20372 C 1911.47 1.76583 2.91601 0
M  V30 20373 H 1912.66 2.67613 1.35364 0
M  V30 20374 H 1910.21 1.41125 0.671811 0
M  V30 20375 H 1910.95 0.822743 3.1369 0
M  V30 20376 H 1910.73 2.58693 2.94653 0
M  V30 20377 H 1912.22 1.94135 3.69732 0
M  V30 20378 N 1912.66 -0.698586 1.41271 0
M  V30 20379 C 1913.62 -1.7943 1.4261 0
M  V30 20380 C 1914.62 -1.57641 0.317187 0
M  V30 20381 O 1915.81 -1.64369 0.576922 0
M  V30 20382 C 1912.95 -3.17762 1.23452 0
M  V30 20383 H 1914.14 -1.79637 2.40147 0
M  V30 20384 H 1911.69 -0.905916 1.27369 0
M  V30 20385 H 1912.43 -3.23195 0.267431 0
M  V30 20386 H 1912.21 -3.34978 2.03794 0
M  V30 20387 H 1913.7 -3.97751 1.27217 0
M  V30 20388 N 1914.14 -1.27049 -0.93254 0
M  V30 20389 C 1915.07 -1.03677 -2.03289 0
M  V30 20390 C 1916.05 0.0412728 -1.62548 0
M  V30 20391 O 1917.23 -0.102897 -1.88219 0
M  V30 20392 C 1914.36 -0.571733 -3.3384 0
M  V30 20393 C 1913.41 -1.64362 -3.93557 0
M  V30 20394 S 1914.24 -3.23486 -4.26752 0
M  V30 20395 C 1915.4 -2.78772 -5.6039 0
M  V30 20396 H 1915.63 -1.96842 -2.22802 0
M  V30 20397 H 1913.16 -1.10826 -1.07503 0
M  V30 20398 H 1915.12 -0.310101 -4.09327 0
M  V30 20399 H 1913.78 0.339773 -3.12257 0
M  V30 20400 H 1912.97 -1.26944 -4.87751 0
M  V30 20401 H 1912.58 -1.85708 -3.24636 0
M  V30 20402 H 1914.87 -2.23774 -6.39478 0
M  V30 20403 H 1915.81 -3.71692 -6.02703 0
M  V30 20404 H 1916.22 -2.18065 -5.2068 0
M  V30 20405 N 1915.62 1.13835 -1.08993 0
M  V30 20406 C 1916.89 1.81232 -0.735809 0
M  V30 20407 C 1917.27 1.96172 0.779737 0
M  V30 20408 O 1916.62 1.52629 1.70049 0
M  V30 20409 C 1916.83 3.16546 -1.46968 0
M  V30 20410 C 1918.18 3.91958 -1.6326 0
M  V30 20411 O 1919.2 3.26155 -1.43183 0
M  V30 20412 O 1918.06 5.09976 -1.96435 0
M  V30 20413 H 1915.16 0.783794 -0.26381 0
M  V30 20414 H 1917.7 1.20801 -1.19186 0
M  V30 20415 H 1916.48 3.00872 -2.50183 0
M  V30 20416 H 1916.1 3.84676 -1.00551 0
M  V30 20417 N 1917.1 0.876467 1.3098 0
M  V30 20418 C 1918.51 0.569284 1.49102 0
M  V30 20419 C 1918.71 -0.895048 1.8053 0
M  V30 20420 O 1917.77 -1.67682 1.88783 0
M  V30 20421 C 1919.08 1.4751 2.62033 0
M  V30 20422 C 1920.63 1.47783 2.75915 0
M  V30 20423 C 1921.1 2.36937 3.9195 0
M  V30 20424 N 1922.59 2.34853 3.99247 0
M  V30 20425 C 1923.33 3.00553 4.88319 0
M  V30 20426 N 1922.83 3.75446 5.82247 0
M  V30 20427 N 1924.62 2.89828 4.81618 0
M  V30 20428 H 1916.77 1.82388 1.08851 0
M  V30 20429 H 1919.03 0.780233 0.538461 0
M  V30 20430 H 1918.74 2.51737 2.45605 0
M  V30 20431 H 1918.61 1.1784 3.5832 0
M  V30 20432 H 1921 0.443113 2.91754 0
M  V30 20433 H 1921.08 1.81479 1.80275 0
M  V30 20434 H 1920.72 3.40488 3.76869 0
M  V30 20435 H 1920.65 2.00561 4.86911 0
M  V30 20436 H 1923.15 1.80421 3.32049 0
M  V30 20437 H 1923.46 4.2269 6.46957 0
M  V30 20438 H 1921.8 3.79554 5.82206 0
M  V30 20439 H 1924.99 2.30852 4.07216 0
M  V30 20440 H 1925.17 3.41309 5.50829 0
M  V30 20441 N 1918.57 -1.44173 0.636557 0
M  V30 20442 C 1919.52 -2.30708 -0.0651156 0
M  V30 20443 C 1920.49 -1.43795 -0.831389 0
M  V30 20444 O 1921.68 -1.7269 -0.81134 0
M  V30 20445 C 1918.82 -3.2915 -1.03703 0
M  V30 20446 C 1917.93 -4.31164 -0.268603 0
M  V30 20447 C 1917.06 -5.16696 -1.23282 0
M  V30 20448 C 1916.1 -6.10415 -0.453864 0
M  V30 20449 N 1915.24 -6.88628 -1.36881 0
M  V30 20450 H 1920.08 -2.90167 0.678744 0
M  V30 20451 H 1917.62 -1.42961 0.346492 0
M  V30 20452 H 1919.57 -3.84717 -1.61395 0
M  V30 20453 H 1918.2 -2.71379 -1.74795 0
M  V30 20454 H 1917.26 -3.78026 0.424338 0
M  V30 20455 H 1918.57 -4.97655 0.337844 0
M  V30 20456 H 1917.72 -5.76807 -1.88091 0
M  V30 20457 H 1916.46 -4.50292 -1.87318 0
M  V30 20458 H 1915.47 -5.49408 0.207683 0
M  V30 20459 H 1916.69 -6.78856 0.181863 0
M  V30 20460 H 1914.64 -6.24887 -1.99629 0
M  V30 20461 H 1914.55 -7.51578 -0.816523 0
M  V30 20462 H 1915.82 -7.53258 -2.00558 0
M  V30 20463 N 1920.05 -0.377435 -1.53014 0
M  V30 20464 C 1921.28 0.211512 -2.06319 0
M  V30 20465 C 1921.7 1.40713 -1.24825 0
M  V30 20466 O 1921.06 1.79274 -0.270279 0
M  V30 20467 C 1921.11 0.571512 -3.56042 0
M  V30 20468 O 1920.21 1.66713 -3.77201 0
M  V30 20469 H 1919.55 0.0279862 -0.66341 0
M  V30 20470 H 1922.08 -0.541471 -1.97305 0
M  V30 20471 H 1922.09 0.839182 -3.99277 0
M  V30 20472 H 1920.77 -0.302672 -4.14797 0
M  V30 20473 H 1919.34 1.3941 -3.4586 0
M  V30 20474 N 1921.53 1.57237 -0.106922 0
M  V30 20475 C 1922.81 1.8627 0.596889 0
M  V30 20476 C 1923.19 1.00593 1.85591 0
M  V30 20477 O 1922.54 0.0815394 2.28354 0
M  V30 20478 C 1922.75 3.37171 0.900934 0
M  V30 20479 C 1924.09 4.05497 1.25926 0
M  V30 20480 O 1925.12 3.4212 0.99158 0
M  V30 20481 O 1923.98 5.17347 1.76109 0
M  V30 20482 H 1921.07 0.770704 0.299907 0
M  V30 20483 H 1923.62 1.69117 -0.140513 0
M  V30 20484 H 1922.39 3.91299 0.00823337 0
M  V30 20485 H 1922.01 3.59712 1.69391 0
M  V30 20486 N 1923.01 -0.166818 1.56715 0
M  V30 20487 C 1924.23 -0.902208 1.86748 0
M  V30 20488 C 1924.66 -1.74838 0.693767 0
M  V30 20489 O 1924.02 -1.77749 -0.35708 0
M  V30 20490 C 1924.06 -1.75107 3.1523 0
M  V30 20491 O 1923.17 -2.85319 2.9777 0
M  V30 20492 H 1922.51 -0.252474 0.614128 0
M  V30 20493 H 1925.04 -0.163603 2.03945 0
M  V30 20494 H 1925.05 -2.15009 3.46749 0
M  V30 20495 H 1923.72 -1.12955 4.00267 0
M  V30 20496 H 1922.3 -2.48967 2.77615 0
M  V30 20497 N 1924.49 -1.51463 -0.435524 0
M  V30 20498 C 1925.76 -1.54763 -1.19615 0
M  V30 20499 C 1926.14 -0.312969 -2.08767 0
M  V30 20500 O 1925.49 0.701834 -2.17455 0
M  V30 20501 C 1925.7 -2.86259 -1.99642 0
M  V30 20502 C 1927.05 -3.38276 -2.56621 0
M  V30 20503 O 1928.07 -2.87821 -2.09851 0
M  V30 20504 O 1926.93 -4.26318 -3.41929 0
M  V30 20505 H 1924.03 -0.622293 -0.544684 0
M  V30 20506 H 1926.57 -1.63777 -0.444446 0
M  V30 20507 H 1925.34 -3.67578 -1.34173 0
M  V30 20508 H 1924.97 -2.80416 -2.81874 0
M  V30 20509 N 1925.96 0.691085 -1.4164 0
M  V30 20510 C 1926.9 1.81547 -1.3826 0
M  V30 20511 C 1927.88 1.60679 -0.249192 0
M  V30 20512 O 1929.06 1.83369 -0.436821 0
M  V30 20513 C 1926.19 3.18298 -1.15777 0
M  V30 20514 C 1925.23 3.57948 -2.31896 0
M  V30 20515 S 1926.07 3.6224 -3.94388 0
M  V30 20516 C 1927.22 5.0171 -3.74217 0
M  V30 20517 H 1927.45 1.84138 -2.33411 0
M  V30 20518 H 1924.99 0.860221 -1.28217 0
M  V30 20519 H 1926.95 3.9724 -1.03492 0
M  V30 20520 H 1925.61 3.13312 -0.222389 0
M  V30 20521 H 1924.8 4.57304 -2.1187 0
M  V30 20522 H 1924.4 2.86325 -2.40612 0
M  V30 20523 H 1926.69 5.89336 -3.342 0
M  V30 20524 H 1927.64 5.26778 -4.73192 0
M  V30 20525 H 1928.04 4.73459 -3.07403 0
M  V30 20526 N 1927.44 1.27542 0.925789 0
M  V30 20527 C 1928.69 1.1517 1.67653 0
M  V30 20528 C 1929.04 -0.299085 1.90061 0
M  V30 20529 O 1928.34 -1.21529 1.48126 0
M  V30 20530 C 1928.53 1.87088 3.04521 0
M  V30 20531 C 1928.36 3.39011 2.95469 0
M  V30 20532 C 1927.13 4.08332 2.97645 0
M  V30 20533 C 1929.33 4.34955 2.74442 0
M  V30 20534 N 1927.31 5.4681 2.79055 0
M  V30 20535 C 1928.68 5.60714 2.64575 0
M  V30 20536 C 1930.74 4.25023 2.59345 0
M  V30 20537 C 1929.44 6.77672 2.41151 0
M  V30 20538 C 1931.46 5.41704 2.37298 0
M  V30 20539 C 1930.83 6.6642 2.28175 0
M  V30 20540 H 1926.93 0.476311 0.620203 0
M  V30 20541 H 1929.51 1.61035 1.09434 0
M  V30 20542 H 1927.68 1.43675 3.60849 0
M  V30 20543 H 1929.41 1.67204 3.68544 0
M  V30 20544 H 1926.17 3.59814 3.07946 0
M  V30 20545 H 1926.59 6.19567 2.72884 0
M  V30 20546 H 1931.23 3.29321 2.65156 0
M  V30 20547 H 1928.95 7.73455 2.3408 0
M  V30 20548 H 1932.54 5.35901 2.26499 0
M  V30 20549 H 1931.42 7.55184 2.11346 0
M  V30 20550 N 1928.92 -1.13255 1.09595 0
M  V30 20551 C 1930.17 -1.83925 0.827926 0
M  V30 20552 C 1930.48 -1.84531 -0.64866 0
M  V30 20553 O 1931.69 -2.5111 -1.03228 0
M  V30 20554 C 1930.14 -3.30219 1.43121 0
M  V30 20555 C 1929.75 -3.37996 2.94046 0
M  V30 20556 C 1931.5 -4.05918 1.24221 0
M  V30 20557 C 1929.4 -4.78572 3.47451 0
M  V30 20558 H 1928.33 -0.689091 0.306056 0
M  V30 20559 H 1930.98 -1.27586 1.31887 0
M  V30 20560 H 1929.37 -3.86371 0.867952 0
M  V30 20561 H 1930.54 -2.91829 3.56612 0
M  V30 20562 H 1928.86 -2.75762 3.12 0
M  V30 20563 H 1931.45 -5.09704 1.61573 0
M  V30 20564 H 1931.8 -4.15898 0.183004 0
M  V30 20565 H 1932.33 -3.561 1.77306 0
M  V30 20566 H 1929.07 -4.73785 4.52999 0
M  V30 20567 H 1928.59 -5.25227 2.89649 0
M  V30 20568 H 1930.27 -5.47495 3.44759 0
M  V30 20569 N 1930.4 -0.883401 -1.30514 0
M  V30 20570 C 1931.35 -0.33846 -2.30124 0
M  V30 20571 C 1932.34 0.553686 -1.60096 0
M  V30 20572 O 1933.55 0.438295 -1.74582 0
M  V30 20573 H 1929.92 -0.0907927 -0.746499 0
M  V30 20574 H 1931.89 -1.19227 -2.73546 0
M  V30 20575 C 1930.64 0.43339 -3.44988 0
M  V30 20576 H 1929.96 -0.243847 -3.99056 0
M  V30 20577 H 1931.4 0.779808 -4.16767 0
M  V30 20578 C 1929.86 1.62986 -2.94851 0
M  V30 20579 O 1930.39 2.72922 -2.94748 0
M  V30 20580 N 1928.6 1.4665 -2.50883 0
M  V30 20581 H 1928.15 0.572135 -2.51166 0
M  V30 20582 H 1928.1 2.2684 -2.17694 0
M  V30 20583 N 1931.88 1.43833 -0.644194 0
M  V30 20584 C 1932.81 2.29017 0.0914574 0
M  V30 20585 C 1933.82 1.4201 0.79605 0
M  V30 20586 O 1935.01 1.66036 0.655313 0
M  V30 20587 C 1932.11 3.18711 1.15225 0
M  V30 20588 C 1931.28 4.34206 0.527588 0
M  V30 20589 C 1930.34 5.04839 1.48406 0
M  V30 20590 O 1929.37 5.60416 0.996143 0
M  V30 20591 N 1930.57 5.075 2.81822 0
M  V30 20592 H 1933.34 2.92794 -0.639656 0
M  V30 20593 H 1930.9 1.54424 -0.486308 0
M  V30 20594 H 1932.89 3.62827 1.79272 0
M  V30 20595 H 1931.46 2.56595 1.78543 0
M  V30 20596 H 1930.68 3.93119 -0.291782 0
M  V30 20597 H 1931.97 5.08718 0.091139 0
M  V30 20598 H 1931.36 4.63703 3.24031 0
M  V30 20599 H 1929.92 5.55364 3.41195 0
M  V30 20600 N 1933.35 0.385544 1.52811 0
M  V30 20601 C 1934.58 -0.200568 2.06428 0
M  V30 20602 C 1935 -1.40049 1.2557 0
M  V30 20603 O 1934.36 -1.79128 0.279782 0
M  V30 20604 C 1934.41 -0.552623 3.5634 0
M  V30 20605 O 1933.51 -1.64711 3.7808 0
M  V30 20606 H 1932.86 -0.0244676 0.663549 0
M  V30 20607 H 1935.39 0.551927 1.97015 0
M  V30 20608 H 1935.4 -0.817996 3.99716 0
M  V30 20609 H 1934.07 0.324665 4.14631 0
M  V30 20610 H 1932.65 -1.37574 3.46595 0
M  V30 20611 N 1934.83 -1.57178 0.115259 0
M  V30 20612 C 1936.06 -1.99842 -0.554802 0
M  V30 20613 C 1936.48 -0.994368 -1.59668 0
M  V30 20614 O 1935.84 0.0344531 -1.81267 0
M  V30 20615 C 1935.89 -3.41399 -1.16099 0
M  V30 20616 O 1934.99 -3.43868 -2.27659 0
M  V30 20617 H 1934.33 -0.649301 -0.138937 0
M  V30 20618 H 1936.86 -2.03594 0.202629 0
M  V30 20619 H 1936.87 -3.79527 -1.49743 0
M  V30 20620 H 1935.55 -4.13993 -0.397827 0
M  V30 20621 H 1934.13 -3.17555 -1.95482 0
M  V30 20622 N 1936.31 0.158505 -1.56801 0
M  V30 20623 C 1937.54 0.892291 -1.87224 0
M  V30 20624 C 1937.96 1.74468 -0.703029 0
M  V30 20625 O 1937.32 1.77936 0.347649 0
M  V30 20626 C 1937.37 1.73433 -3.16154 0
M  V30 20627 O 1936.47 2.83736 -2.99279 0
M  V30 20628 H 1935.81 0.249214 -0.615458 0
M  V30 20629 H 1938.34 0.152785 -2.04029 0
M  V30 20630 H 1938.35 2.13168 -3.47884 0
M  V30 20631 H 1937.03 1.10831 -4.00861 0
M  V30 20632 H 1935.6 2.47491 -2.78931 0
M  V30 20633 N 1937.79 1.51692 0.427485 0
M  V30 20634 C 1938.72 1.76668 1.52679 0
M  V30 20635 C 1939.7 0.616865 1.58521 0
M  V30 20636 O 1940.89 0.860595 1.7409 0
M  V30 20637 C 1938.02 1.9007 2.90673 0
M  V30 20638 C 1936.97 3.05566 2.99689 0
M  V30 20639 C 1936.3 3.04165 4.39759 0
M  V30 20640 C 1937.6 4.45359 2.72861 0
M  V30 20641 H 1939.29 2.68717 1.32029 0
M  V30 20642 H 1936.84 1.29306 0.633716 0
M  V30 20643 H 1938.79 2.06125 3.67546 0
M  V30 20644 H 1937.51 0.946769 3.12576 0
M  V30 20645 H 1936.17 2.89231 2.25257 0
M  V30 20646 H 1935.82 2.0653 4.58644 0
M  V30 20647 H 1935.52 3.81727 4.46719 0
M  V30 20648 H 1937.04 3.22326 5.18592 0
M  V30 20649 H 1938.46 4.61993 3.39463 0
M  V30 20650 H 1936.85 5.24701 2.91219 0
M  V30 20651 H 1937.92 4.54717 1.68405 0
M  V30 20652 N 1939.27 -0.683564 1.42004 0
M  V30 20653 C 1940.54 -1.43894 1.32491 0
M  V30 20654 C 1940.92 -2.11058 -0.0418701 0
M  V30 20655 O 1940.27 -2.0259 -1.05686 0
M  V30 20656 C 1940.48 -2.44856 2.48689 0
M  V30 20657 C 1941.83 -3.09758 2.90405 0
M  V30 20658 O 1942.85 -2.55182 2.48516 0
M  V30 20659 O 1941.71 -4.08633 3.6288 0
M  V30 20660 H 1938.81 -0.641404 0.522044 0
M  V30 20661 H 1941.35 -0.713027 1.53994 0
M  V30 20662 H 1940.13 -1.93964 3.39843 0
M  V30 20663 H 1939.75 -3.24941 2.29127 0
M  V30 20664 N 1940.75 -1.28031 -0.919012 0
M  V30 20665 C 1941.97 -1.17828 -1.70679 0
M  V30 20666 C 1942.4 0.260207 -1.86292 0
M  V30 20667 O 1941.75 1.18833 -1.36925 0
M  V30 20668 C 1941.8 -1.87626 -3.07943 0
M  V30 20669 O 1940.91 -1.18014 -3.95154 0
M  V30 20670 H 1940.25 -0.40932 -0.522832 0
M  V30 20671 H 1942.78 -1.69258 -1.14947 0
M  V30 20672 H 1942.79 -1.95327 -3.58206 0
M  V30 20673 H 1941.46 -2.92263 -2.95897 0
M  V30 20674 H 1940.04 -1.18441 -3.5359 0
M  V30 20675 N 1942.22 1.12672 -1.10194 0
M  V30 20676 C 1943.45 1.88496 -0.865112 0
M  V30 20677 C 1943.87 1.78977 0.578691 0
M  V30 20678 O 1943.23 1.14292 1.40737 0
M  V30 20679 C 1943.28 3.35768 -1.315 0
M  V30 20680 O 1942.38 4.09615 -0.478447 0
M  V30 20681 H 1941.72 0.585782 -0.312658 0
M  V30 20682 H 1944.25 1.42506 -1.46811 0
M  V30 20683 H 1944.26 3.86605 -1.30385 0
M  V30 20684 H 1942.94 3.42013 -2.36643 0
M  V30 20685 H 1941.52 3.68753 -0.554589 0
M  V30 20686 N 1943.7 0.89031 1.30043 0
M  V30 20687 C 1944.93 0.526566 2.00087 0
M  V30 20688 C 1945.34 -0.88632 1.66703 0
M  V30 20689 O 1944.7 -1.58365 0.907012 0
M  V30 20690 C 1944.75 0.698102 3.54695 0
M  V30 20691 O 1944.47 2.05537 3.86893 0
M  V30 20692 C 1945.97 0.338058 4.42009 0
M  V30 20693 H 1943.19 0.20299 0.639559 0
M  V30 20694 H 1945.74 1.19708 1.65802 0
M  V30 20695 H 1943.89 0.0748931 3.87328 0
M  V30 20696 H 1944.31 2.07787 4.81586 0
M  V30 20697 H 1945.78 0.508957 5.49649 0
M  V30 20698 H 1946.26 -0.724284 4.33187 0
M  V30 20699 H 1946.86 0.937813 4.14831 0
M  V30 20700 N 1945.18 -1.43489 0.651812 0
M  V30 20701 C 1946.4 -2.06696 0.170683 0
M  V30 20702 C 1946.83 -1.48527 -1.15418 0
M  V30 20703 O 1946.19 -0.594665 -1.7127 0
M  V30 20704 C 1946.24 -3.60484 0.0915457 0
M  V30 20705 O 1945.34 -4.01388 -0.946644 0
M  V30 20706 H 1944.68 -0.65728 0.0942276 0
M  V30 20707 H 1947.21 -1.84018 0.89434 0
M  V30 20708 H 1947.22 -4.07896 -0.0922419 0
M  V30 20709 H 1945.9 -4.02199 1.0587 0
M  V30 20710 H 1944.47 -3.65569 -0.735758 0
M  V30 20711 N 1946.66 -0.393643 -1.52605 0
M  V30 20712 C 1947.88 0.189618 -2.06531 0
M  V30 20713 C 1948.31 1.39382 -1.26311 0
M  V30 20714 O 1947.67 1.78977 -0.289278 0
M  V30 20715 C 1947.71 0.533717 -3.56628 0
M  V30 20716 O 1946.82 1.62703 -3.78948 0
M  V30 20717 H 1946.16 0.0209483 -0.663669 0
M  V30 20718 H 1948.69 -0.562368 -1.9672 0
M  V30 20719 H 1948.7 0.796786 -4.00144 0
M  V30 20720 H 1947.37 -0.34665 -4.14453 0
M  V30 20721 H 1945.95 1.35734 -3.47319 0
M  V30 20722 N 1948.14 1.57115 -0.123593 0
M  V30 20723 C 1949.07 2.12637 0.855463 0
M  V30 20724 C 1950.08 1.07017 1.22683 0
M  V30 20725 O 1951.27 1.34374 1.17498 0
M  V30 20726 C 1948.37 2.61484 2.15591 0
M  V30 20727 C 1947.54 3.91252 1.95553 0
M  V30 20728 C 1946.6 4.25649 3.09369 0
M  V30 20729 O 1945.63 4.94387 2.82082 0
M  V30 20730 N 1946.83 3.83339 4.35926 0
M  V30 20731 H 1949.59 2.97267 0.381076 0
M  V30 20732 H 1947.16 1.61786 0.0606943 0
M  V30 20733 H 1949.15 2.81522 2.90736 0
M  V30 20734 H 1947.72 1.81708 2.54364 0
M  V30 20735 H 1946.94 3.80076 1.04575 0
M  V30 20736 H 1948.23 4.76095 1.79474 0
M  V30 20737 H 1947.62 3.27908 4.6097 0
M  V30 20738 H 1946.18 4.08477 5.07927 0
M  V30 20739 N 1949.61 -0.150187 1.56883 0
M  V30 20740 C 1950.52 -1.20504 2.01286 0
M  V30 20741 C 1951.54 -1.47204 0.927733 0
M  V30 20742 O 1952.72 -1.58937 1.23697 0
M  V30 20743 C 1949.78 -2.51932 2.38184 0
M  V30 20744 C 1948.84 -2.32906 3.60629 0
M  V30 20745 C 1948.07 -3.58067 3.95757 0
M  V30 20746 O 1948.3 -4.64119 3.31587 0
M  V30 20747 O 1947.23 -3.5092 4.89018 0
M  V30 20748 H 1951.06 -0.858075 2.91326 0
M  V30 20749 H 1948.64 -0.358669 1.45031 0
M  V30 20750 H 1950.52 -3.29423 2.6279 0
M  V30 20751 H 1949.2 -2.86165 1.513 0
M  V30 20752 H 1948.11 -1.53377 3.41213 0
M  V30 20753 H 1949.44 -2.0359 4.4812 0
M  V30 20754 N 1951.09 -1.51916 -0.419434 0
M  V30 20755 C 1952.04 -1.70902 -1.50919 0
M  V30 20756 C 1953.03 -0.562909 -1.50732 0
M  V30 20757 O 1954.22 -0.819564 -1.56883 0
M  V30 20758 C 1951.35 -1.85375 -2.88948 0
M  V30 20759 C 1950.43 -3.05825 -2.93823 0
M  V30 20760 N 1950.82 -4.28707 -2.6841 0
M  V30 20761 C 1949.12 -3.05448 -3.24989 0
M  V30 20762 C 1949.82 -5.10103 -2.79589 0
M  V30 20763 N 1948.8 -4.45129 -3.12028 0
M  V30 20764 H 1952.6 -2.6356 -1.30051 0
M  V30 20765 H 1950.12 -1.49808 -0.627004 0
M  V30 20766 H 1952.11 -1.9709 -3.6737 0
M  V30 20767 H 1950.77 -0.939096 -3.10823 0
M  V30 20768 H 1951.78 -4.57353 -2.42999 0
M  V30 20769 H 1948.46 -2.23681 -3.52524 0
M  V30 20770 H 1949.85 -6.17972 -2.63743 0
M  V30 20771 N 1952.57 0.676023 -1.42365 0
M  V30 20772 C 1953.5 1.80165 -1.48536 0
M  V30 20773 C 1954.48 1.66625 -0.342049 0
M  V30 20774 O 1955.67 1.86065 -0.55619 0
M  V30 20775 C 1952.8 3.18451 -1.38586 0
M  V30 20776 C 1951.75 3.46724 -2.50931 0
M  V30 20777 C 1951.08 4.84572 -2.2604 0
M  V30 20778 C 1952.38 3.4374 -3.93243 0
M  V30 20779 H 1954.07 1.75258 -2.42745 0
M  V30 20780 H 1951.62 0.841756 -1.16835 0
M  V30 20781 H 1953.57 3.96929 -1.41511 0
M  V30 20782 H 1952.29 3.24033 -0.408703 0
M  V30 20783 H 1950.95 2.70607 -2.47321 0
M  V30 20784 H 1950.6 4.86802 -1.2662 0
M  V30 20785 H 1950.3 5.04452 -3.01334 0
M  V30 20786 H 1951.82 5.65336 -2.30712 0
M  V30 20787 H 1953.24 4.12189 -3.98463 0
M  V30 20788 H 1951.64 3.75155 -4.68379 0
M  V30 20789 H 1952.71 2.42337 -4.20001 0
M  V30 20790 N 1954.05 1.28517 0.912209 0
M  V30 20791 C 1955 1.12437 2.03619 0
M  V30 20792 C 1955.99 0.0432331 1.69345 0
M  V30 20793 O 1957.2 0.202116 1.78862 0
M  V30 20794 H 1953.57 0.34694 0.667185 0
M  V30 20795 H 1955.54 2.07625 2.14323 0
M  V30 20796 C 1954.29 0.804603 3.38262 0
M  V30 20797 H 1953.61 1.62849 3.65131 0
M  V30 20798 H 1955.05 0.732055 4.17633 0
M  V30 20799 C 1953.51 -0.491715 3.33292 0
M  V30 20800 O 1954.04 -1.52155 3.71768 0
M  V30 20801 N 1952.25 -0.493007 2.86388 0
M  V30 20802 H 1951.8 0.34549 2.55273 0
M  V30 20803 H 1951.75 -1.36038 2.83445 0
M  V30 20804 N 1955.53 -1.12086 1.1079 0
M  V30 20805 C 1956.48 -2.16022 0.729278 0
M  V30 20806 C 1957.46 -1.5873 -0.263361 0
M  V30 20807 O 1958.65 -1.76855 -0.0715232 0
M  V30 20808 C 1955.78 -3.42895 0.166711 0
M  V30 20809 C 1954.87 -4.07161 1.18661 0
M  V30 20810 N 1955.26 -4.46384 2.37855 0
M  V30 20811 C 1953.56 -4.33991 1.02798 0
M  V30 20812 C 1954.26 -4.96648 3.02846 0
M  V30 20813 N 1953.23 -4.92382 2.3035 0
M  V30 20814 H 1957.04 -2.44119 1.63656 0
M  V30 20815 H 1954.55 -1.2903 0.986155 0
M  V30 20816 H 1956.55 -4.1672 -0.122633 0
M  V30 20817 H 1955.21 -3.16266 -0.735246 0
M  V30 20818 H 1956.22 -4.38634 2.75356 0
M  V30 20819 H 1952.89 -4.17104 0.181891 0
M  V30 20820 H 1954.28 -5.36681 4.04257 0
M  V30 20821 N 1957 -0.897194 -1.29569 0
M  V30 20822 C 1958.23 -0.536465 -2.00342 0
M  V30 20823 C 1958.65 0.87088 -1.66725 0
M  V30 20824 O 1958.01 1.57924 -0.890492 0
M  V30 20825 C 1958.06 -0.732781 -3.53076 0
M  V30 20826 O 1957.16 0.215848 -4.11835 0
M  V30 20827 H 1956.51 -0.209904 -0.62995 0
M  V30 20828 H 1959.04 -1.20809 -1.65125 0
M  V30 20829 H 1959.05 -0.636468 -4.03005 0
M  V30 20830 H 1957.72 -1.75882 -3.7688 0
M  V30 20831 H 1956.3 0.0722012 -3.7283 0
M  V30 20832 N 1958.48 1.43142 -0.659413 0
M  V30 20833 C 1959.71 2.06603 -0.181642 0
M  V30 20834 C 1960.13 1.49137 1.14629 0
M  V30 20835 O 1959.49 0.603739 1.70952 0
M  V30 20836 C 1959.54 3.6043 -0.110662 0
M  V30 20837 O 1958.64 4.01884 0.925344 0
M  V30 20838 H 1957.98 0.656771 -0.097712 0
M  V30 20839 H 1960.51 1.83541 -0.904086 0
M  V30 20840 H 1960.52 4.07939 0.0706089 0
M  V30 20841 H 1959.2 4.01632 -1.08002 0
M  V30 20842 H 1957.78 3.65954 0.716361 0
M  V30 20843 N 1959.96 0.40173 1.52394 0
M  V30 20844 C 1960.91 -0.427385 2.26808 0
M  V30 20845 C 1961.88 -1.04733 1.28919 0
M  V30 20846 O 1963.06 -1.073 1.5777 0
M  V30 20847 C 1960.2 -1.54211 3.08728 0
M  V30 20848 C 1959.32 -0.943809 4.21564 0
M  V30 20849 C 1958.45 -2.03061 4.90856 0
M  V30 20850 C 1957.49 -1.40886 5.95666 0
M  V30 20851 N 1956.63 -2.4355 6.58504 0
M  V30 20852 H 1961.47 0.21363 2.97233 0
M  V30 20853 H 1959 0.117187 1.46632 0
M  V30 20854 H 1960.96 -2.1993 3.54523 0
M  V30 20855 H 1959.59 -2.15326 2.40488 0
M  V30 20856 H 1958.64 -0.175875 3.79993 0
M  V30 20857 H 1959.96 -0.449559 4.9677 0
M  V30 20858 H 1959.11 -2.76523 5.40018 0
M  V30 20859 H 1957.85 -2.5585 4.15201 0
M  V30 20860 H 1956.85 -0.659546 5.4583 0
M  V30 20861 H 1958.08 -0.888766 6.73259 0
M  V30 20862 H 1956.02 -2.95484 5.85683 0
M  V30 20863 H 1955.94 -1.98916 7.29362 0
M  V30 20864 H 1957.21 -3.16604 7.12308 0
M  V30 20865 N 1961.44 -1.57047 0.131923 0
M  V30 20866 C 1962.66 -2.00419 -0.533574 0
M  V30 20867 C 1963.09 -1.01125 -1.58605 0
M  V30 20868 O 1962.45 0.0152254 -1.81294 0
M  V30 20869 C 1962.49 -3.42611 -1.12472 0
M  V30 20870 O 1961.6 -3.46263 -2.23999 0
M  V30 20871 H 1960.94 -0.650739 -0.132043 0
M  V30 20872 H 1963.47 -2.03368 0.224211 0
M  V30 20873 H 1963.48 -3.81094 -1.45709 0
M  V30 20874 H 1962.15 -4.14392 -0.353895 0
M  V30 20875 H 1960.73 -3.1961 -1.92103 0
M  V30 20876 N 1962.92 0.141865 -1.5696 0
M  V30 20877 C 1964.16 0.854874 -1.83901 0
M  V30 20878 C 1964.5 1.80586 -0.714297 0
M  V30 20879 O 1963.77 1.92449 0.281695 0
M  V30 20880 C 1964.05 1.62486 -3.21357 0
M  V30 20881 C 1963.91 0.695015 -4.44398 0
M  V30 20882 C 1965.23 2.5862 -3.56095 0
M  V30 20883 H 1962.34 0.309334 -0.66894 0
M  V30 20884 H 1964.99 0.119882 -1.89621 0
M  V30 20885 H 1963.14 2.25143 -3.16612 0
M  V30 20886 H 1964.81 0.0790536 -4.61232 0
M  V30 20887 H 1963.05 0.00493655 -4.338 0
M  V30 20888 H 1963.72 1.26992 -5.37194 0
M  V30 20889 H 1966.2 2.06079 -3.61484 0
M  V30 20890 H 1965.07 3.09542 -4.53294 0
M  V30 20891 H 1965.34 3.40219 -2.82319 0
M  V30 20892 N 1964.39 1.52136 0.411372 0
M  V30 20893 C 1965.62 1.6993 1.18031 0
M  V30 20894 C 1966.04 0.407806 1.84343 0
M  V30 20895 O 1965.39 -0.615981 1.7179 0
M  V30 20896 C 1965.45 2.83333 2.2451 0
M  V30 20897 O 1965.17 4.07482 1.60905 0
M  V30 20898 C 1966.67 3.12618 3.143 0
M  V30 20899 H 1963.89 0.569546 0.354765 0
M  V30 20900 H 1966.43 1.98683 0.484277 0
M  V30 20901 H 1964.59 2.57106 2.89785 0
M  V30 20902 H 1965 4.70657 2.31478 0
M  V30 20903 H 1966.47 3.95486 3.85091 0
M  V30 20904 H 1966.95 2.26078 3.76544 0
M  V30 20905 H 1967.56 3.40602 2.54697 0
M  V30 20906 N 1965.87 -0.668464 1.42721 0
M  V30 20907 C 1967.28 -1.24925 1.38747 0
M  V30 20908 C 1967.64 -1.96021 0.0838911 0
M  V30 20909 O 1966.76 -2.00378 -0.817178 0
M  V30 20910 C 1967.36 -2.27201 2.51327 0
M  V30 20911 C 1965.91 -2.80792 2.50665 0
M  V30 20912 C 1965.06 -1.55205 2.29797 0
M  V30 20913 H 1968.01 -0.461443 1.51843 0
M  V30 20914 H 1968.03 -3.09067 2.21941 0
M  V30 20915 H 1967.55 -1.75428 3.46189 0
M  V30 20916 H 1965.65 -3.36669 1.59639 0
M  V30 20917 H 1965.76 -3.29376 3.4792 0
M  V30 20918 H 1964.12 -1.82004 1.78176 0
M  V30 20919 H 1964.91 -1.05389 3.26723 0
M  V30 20920 N 1967.35 -1.28999 -0.905381 0
M  V30 20921 C 1968.31 -1.13652 -1.99038 0
M  V30 20922 C 1969.31 -0.0736646 -1.60631 0
M  V30 20923 O 1970.5 -0.320139 -1.71233 0
M  V30 20924 C 1967.64 -0.736715 -3.32844 0
M  V30 20925 H 1968.83 -2.10022 -2.14081 0
M  V30 20926 H 1966.38 -1.12104 -1.08915 0
M  V30 20927 H 1967.12 0.227383 -3.23502 0
M  V30 20928 H 1966.9 -1.50459 -3.62084 0
M  V30 20929 H 1968.39 -0.65223 -4.12475 0
M  V30 20930 N 1968.83 1.11497 -1.11383 0
M  V30 20931 C 1970.05 1.87567 -0.885056 0
M  V30 20932 C 1970.48 1.79581 0.559675 0
M  V30 20933 O 1969.84 1.15779 1.39517 0
M  V30 20934 C 1969.89 3.34354 -1.35053 0
M  V30 20935 O 1968.99 4.09085 -0.521865 0
M  V30 20936 H 1968.33 0.582433 -0.318853 0
M  V30 20937 H 1970.86 1.4094 -1.48314 0
M  V30 20938 H 1970.87 3.85201 -1.34478 0
M  V30 20939 H 1969.55 3.39484 -2.40257 0
M  V30 20940 H 1968.12 3.68144 -0.593669 0
M  V30 20941 N 1970.31 0.904053 1.29092 0
M  V30 20942 C 1971.54 0.547758 1.99517 0
M  V30 20943 C 1971.95 -0.868589 1.67633 0
M  V30 20944 O 1971.31 -1.57394 0.923758 0
M  V30 20945 C 1971.36 0.735683 3.53935 0
M  V30 20946 O 1971.08 2.09629 3.84691 0
M  V30 20947 C 1972.58 0.38492 4.41626 0
M  V30 20948 H 1969.8 0.209762 0.63737 0
M  V30 20949 H 1972.34 1.2146 1.64523 0
M  V30 20950 H 1970.5 0.11597 3.87226 0
M  V30 20951 H 1970.91 2.12883 4.79355 0
M  V30 20952 H 1972.39 0.567226 5.49078 0
M  V30 20953 H 1972.86 -0.678298 4.33931 0
M  V30 20954 H 1973.47 0.981759 4.13813 0
M  V30 20955 N 1971.79 -1.4279 0.666995 0
M  V30 20956 C 1972.72 -2.335 -0.00234362 0
M  V30 20957 C 1973.7 -1.50244 -0.797537 0
M  V30 20958 O 1974.88 -1.7887 -0.756257 0
M  V30 20959 C 1972.01 -3.33774 -0.959795 0
M  V30 20960 C 1970.97 -4.27124 -0.273749 0
M  V30 20961 C 1970.29 -5.17544 -1.3436 0
M  V30 20962 C 1971.59 -5.15462 0.842411 0
M  V30 20963 H 1973.29 -2.89719 0.755212 0
M  V30 20964 H 1970.83 -1.39307 0.364622 0
M  V30 20965 H 1972.78 -3.96139 -1.43707 0
M  V30 20966 H 1971.51 -2.75842 -1.74868 0
M  V30 20967 H 1970.17 -3.66142 0.18321 0
M  V30 20968 H 1969.82 -4.55943 -2.12427 0
M  V30 20969 H 1969.52 -5.80825 -0.889738 0
M  V30 20970 H 1971.04 -5.82784 -1.82196 0
M  V30 20971 H 1972.45 -5.71557 0.4467 0
M  V30 20972 H 1970.85 -5.87535 1.22158 0
M  V30 20973 H 1971.92 -4.54327 1.69454 0
M  V30 20974 N 1973.26 -0.409806 -1.52179 0
M  V30 20975 C 1974.49 0.165235 -2.06239 0
M  V30 20976 C 1974.91 1.38804 -1.2798 0
M  V30 20977 O 1974.26 1.79458 -0.331843 0
M  V30 20978 C 1974.31 0.514997 -3.57813 0
M  V30 20979 O 1974.04 -0.659248 -4.33111 0
M  V30 20980 C 1975.54 1.1437 -4.28293 0
M  V30 20981 H 1972.76 0.0200917 -0.670699 0
M  V30 20982 H 1975.3 -0.580955 -1.96074 0
M  V30 20983 H 1973.46 1.21108 -3.67983 0
M  V30 20984 H 1973.87 -0.367126 -5.23214 0
M  V30 20985 H 1975.34 1.33863 -5.35523 0
M  V30 20986 H 1975.82 2.11699 -3.84812 0
M  V30 20987 H 1976.43 0.487795 -4.22493 0
M  V30 20988 N 1974.74 1.56975 -0.14025 0
M  V30 20989 C 1975.69 2.16418 0.802003 0
M  V30 20990 C 1976.66 1.09512 1.24885 0
M  V30 20991 O 1977.84 1.37522 1.32259 0
M  V30 20992 C 1974.98 2.78465 2.03841 0
M  V30 20993 C 1974.1 3.99743 1.63798 0
M  V30 20994 C 1973.23 4.4981 2.82567 0
M  V30 20995 C 1972.27 5.63569 2.38865 0
M  V30 20996 N 1971.41 6.08285 3.5062 0
M  V30 20997 H 1976.25 2.96602 0.288284 0
M  V30 20998 H 1973.78 1.46519 0.130587 0
M  V30 20999 H 1975.74 3.12581 2.76314 0
M  V30 21000 H 1974.37 2.00936 2.52635 0
M  V30 21001 H 1973.42 3.71651 0.811169 0
M  V30 21002 H 1974.74 4.82177 1.27697 0
M  V30 21003 H 1973.89 4.85945 3.63238 0
M  V30 21004 H 1972.63 3.66369 3.21908 0
M  V30 21005 H 1971.63 5.27017 1.56632 0
M  V30 21006 H 1972.86 6.48791 2.00617 0
M  V30 21007 H 1970.81 5.2778 3.89595 0
M  V30 21008 H 1970.72 6.85628 3.18512 0
M  V30 21009 H 1971.99 6.49063 4.31668 0
M  V30 21010 N 1976.22 -0.133539 1.57033 0
M  V30 21011 C 1977.44 -0.862393 1.8862 0
M  V30 21012 C 1977.87 -1.73328 0.730696 0
M  V30 21013 O 1977.23 -1.78466 -0.319297 0
M  V30 21014 C 1977.28 -1.68381 3.18873 0
M  V30 21015 O 1976.38 -2.78939 3.03755 0
M  V30 21016 H 1975.72 -0.239391 0.619345 0
M  V30 21017 H 1978.25 -0.120306 2.04246 0
M  V30 21018 H 1978.26 -2.07606 3.51232 0
M  V30 21019 H 1976.94 -1.0444 4.02573 0
M  V30 21020 H 1975.51 -2.43022 2.82833 0
M  V30 21021 N 1977.7 -1.52352 -0.403298 0
M  V30 21022 C 1978.95 -1.66368 -1.14744 0
M  V30 21023 C 1979.27 -0.398899 -1.90876 0
M  V30 21024 O 1978.54 0.586372 -1.86918 0
M  V30 21025 H 1977.12 -0.613226 -0.426571 0
M  V30 21026 H 1979.78 -1.89416 -0.459075 0
M  V30 21027 H 1978.87 -2.50748 -1.85828 0
M  V30 21028 N 1979.18 0.660885 -1.43074 0
M  V30 21029 C 1980.59 1.24187 -1.39407 0
M  V30 21030 C 1980.94 1.95973 -0.0942854 0
M  V30 21031 O 1980.06 2.00808 0.80654 0
M  V30 21032 C 1980.66 2.25865 -2.52528 0
M  V30 21033 C 1979.22 2.79459 -2.5215 0
M  V30 21034 C 1978.36 1.53984 -2.30617 0
M  V30 21035 H 1981.31 0.453383 -1.52086 0
M  V30 21036 H 1981.34 3.07886 -2.23577 0
M  V30 21037 H 1980.85 1.73589 -3.47114 0
M  V30 21038 H 1978.95 3.35818 -1.61422 0
M  V30 21039 H 1979.06 3.27526 -3.49662 0
M  V30 21040 H 1977.43 1.81056 -1.79139 0
M  V30 21041 H 1978.21 1.03654 -3.27278 0
M  V30 21042 N 1980.65 1.29477 0.898527 0
M  V30 21043 C 1981.9 1.17284 1.64587 0
M  V30 21044 C 1982.22 -0.275718 1.93041 0
M  V30 21045 O 1981.49 -1.18847 1.55731 0
M  V30 21046 H 1980.07 0.431068 0.610073 0
M  V30 21047 H 1982.74 1.62419 1.07732 0
M  V30 21048 H 1981.83 1.72375 2.60179 0
M  V30 21049 N 1982.13 -1.10905 1.11972 0
M  V30 21050 C 1983.55 -1.3478 0.854776 0
M  V30 21051 C 1983.75 -1.94737 -0.517653 0
M  V30 21052 O 1982.8 -2.18391 -1.26734 0
M  V30 21053 C 1984.12 -2.27414 1.96732 0
M  V30 21054 C 1985.67 -2.40964 1.99764 0
M  V30 21055 C 1986.14 -3.36923 3.10237 0
M  V30 21056 N 1987.63 -3.44488 3.09648 0
M  V30 21057 C 1988.37 -4.18695 3.91768 0
M  V30 21058 N 1987.86 -4.95829 4.83865 0
M  V30 21059 N 1989.66 -4.14263 3.79924 0
M  V30 21060 H 1981.81 -0.703538 2.0041 0
M  V30 21061 H 1984.07 -0.372318 0.871828 0
M  V30 21062 H 1983.78 -1.90561 2.956 0
M  V30 21063 H 1983.65 -3.27681 1.86829 0
M  V30 21064 H 1986.04 -2.77089 1.01518 0
M  V30 21065 H 1986.12 -1.40529 2.13741 0
M  V30 21066 H 1985.76 -3.01524 4.08712 0
M  V30 21067 H 1985.69 -4.37225 2.93499 0
M  V30 21068 H 1988.18 -2.89475 2.42925 0
M  V30 21069 H 1988.5 -5.49836 5.43047 0
M  V30 21070 H 1986.84 -4.9497 4.87883 0
M  V30 21071 H 1990.03 -3.53095 3.07314 0
M  V30 21072 H 1990.2 -4.71837 4.44155 0
M  V30 21073 N 1983.61 -0.910886 -1.2861 0
M  V30 21074 C 1984.86 -0.552803 -1.95744 0
M  V30 21075 C 1985.21 0.893164 -1.70412 0
M  V30 21076 O 1984.5 1.62635 -1.01294 0
M  V30 21077 C 1984.7 -0.794745 -3.48452 0
M  V30 21078 C 1984.53 -2.26268 -3.8863 0
M  V30 21079 C 1983.3 -2.91225 -4.12936 0
M  V30 21080 C 1985.5 -3.23885 -3.99503 0
M  V30 21081 N 1983.48 -4.28345 -4.39766 0
M  V30 21082 C 1984.85 -4.46159 -4.30513 0
M  V30 21083 C 1986.9 -3.19323 -3.82017 0
M  V30 21084 C 1985.61 -5.64449 -4.45859 0
M  V30 21085 C 1987.63 -4.36908 -3.98579 0
M  V30 21086 C 1986.99 -5.57956 -4.29959 0
M  V30 21087 H 1983.09 -0.252102 -0.740249 0
M  V30 21088 H 1985.68 -1.17402 -1.55322 0
M  V30 21089 H 1983.85 -0.20282 -3.8787 0
M  V30 21090 H 1985.58 -0.400978 -4.02709 0
M  V30 21091 H 1982.34 -2.41967 -4.07123 0
M  V30 21092 H 1982.76 -4.99234 -4.57269 0
M  V30 21093 H 1987.4 -2.26818 -3.5681 0
M  V30 21094 H 1985.12 -6.57435 -4.69898 0
M  V30 21095 H 1988.71 -4.34877 -3.86488 0
M  V30 21096 H 1987.59 -6.47426 -4.42503 0
M  V30 21097 N 1985.09 1.42434 -0.674558 0
M  V30 21098 C 1986.04 2.308 0.00392457 0
M  V30 21099 C 1987.01 1.45949 0.792972 0
M  V30 21100 O 1988.19 1.74781 0.765269 0
M  V30 21101 C 1985.33 3.31784 0.949392 0
M  V30 21102 C 1984.44 4.31725 0.154193 0
M  V30 21103 C 1983.58 5.19783 1.09539 0
M  V30 21104 C 1982.62 6.11404 0.291864 0
M  V30 21105 N 1981.75 6.92015 1.18576 0
M  V30 21106 H 1986.59 2.88266 -0.755438 0
M  V30 21107 H 1984.13 1.41992 -0.384274 0
M  V30 21108 H 1986.09 3.88861 1.51138 0
M  V30 21109 H 1984.72 2.75918 1.67539 0
M  V30 21110 H 1983.77 3.76768 -0.524416 0
M  V30 21111 H 1985.08 4.96584 -0.469669 0
M  V30 21112 H 1984.24 5.81592 1.72732 0
M  V30 21113 H 1982.98 4.551 1.75314 0
M  V30 21114 H 1981.98 5.48664 -0.353276 0
M  V30 21115 H 1983.21 6.78136 -0.361786 0
M  V30 21116 H 1981.15 6.29961 1.82991 0
M  V30 21117 H 1981.07 7.53478 0.616968 0
M  V30 21118 H 1982.34 7.5831 1.80516 0
M  V30 21119 N 1986.57 0.417871 1.51959 0
M  V30 21120 C 1987.79 -0.154295 2.06324 0
M  V30 21121 C 1988.21 -1.38123 1.28714 0
M  V30 21122 O 1987.57 -1.79279 0.341355 0
M  V30 21123 C 1987.62 -0.496014 3.58081 0
M  V30 21124 O 1987.34 0.682208 4.32756 0
M  V30 21125 C 1988.84 -1.12097 4.28893 0
M  V30 21126 H 1986.06 -0.0165345 0.670796 0
M  V30 21127 H 1988.6 0.591345 1.95764 0
M  V30 21128 H 1986.76 -1.19155 3.6862 0
M  V30 21129 H 1987.17 0.394868 5.23012 0
M  V30 21130 H 1988.65 -1.31021 5.36225 0
M  V30 21131 H 1989.12 -2.09655 3.85929 0
M  V30 21132 H 1989.73 -0.465383 4.22746 0
M  V30 21133 N 1988.04 -1.56898 0.148573 0
M  V30 21134 C 1989.46 -1.82957 -0.371991 0
M  V30 21135 C 1989.81 -1.06735 -1.64627 0
M  V30 21136 O 1988.93 -0.313128 -2.14123 0
M  V30 21137 C 1989.53 -3.31871 -0.681682 0
M  V30 21138 C 1988.09 -3.58506 -1.14676 0
M  V30 21139 C 1987.23 -2.76774 -0.170675 0
M  V30 21140 H 1990.18 -1.54248 0.373244 0
M  V30 21141 H 1990.2 -3.48112 -1.53618 0
M  V30 21142 H 1989.72 -3.8732 0.245938 0
M  V30 21143 H 1987.82 -3.08445 -2.09027 0
M  V30 21144 H 1987.93 -4.66961 -1.07165 0
M  V30 21145 H 1986.29 -2.45903 -0.663611 0
M  V30 21146 H 1987.08 -3.34995 0.750563 0
M  V30 21147 N 1989.52 0.125209 -1.57102 0
M  V30 21148 C 1990.49 1.13792 -1.98957 0
M  V30 21149 C 1991.49 1.34656 -0.878887 0
M  V30 21150 O 1992.68 1.31278 -1.14506 0
M  V30 21151 C 1989.81 2.49371 -2.32437 0
M  V30 21152 H 1991 0.778319 -2.89624 0
M  V30 21153 H 1988.55 0.369299 -1.51875 0
M  V30 21154 H 1989.29 2.90263 -1.4463 0
M  V30 21155 H 1989.07 2.35583 -3.13437 0
M  V30 21156 H 1990.56 3.22268 -2.65581 0
M  V30 21157 N 1991 1.52564 0.395213 0
M  V30 21158 C 1991.96 1.76262 1.46508 0
M  V30 21159 C 1992.96 0.632579 1.47835 0
M  V30 21160 O 1994.15 0.900582 1.49115 0
M  V30 21161 C 1991.29 1.85771 2.85835 0
M  V30 21162 H 1992.48 2.71784 1.26782 0
M  V30 21163 H 1990.03 1.43191 0.626572 0
M  V30 21164 H 1990.77 0.922125 3.10914 0
M  V30 21165 H 1990.55 2.67936 2.86274 0
M  V30 21166 H 1992.04 2.05799 3.63368 0
M  V30 21167 N 1992.48 -0.653289 1.43422 0
M  V30 21168 C 1993.73 -1.40905 1.44322 0
M  V30 21169 C 1994.04 -1.95471 0.0711388 0
M  V30 21170 O 1995.25 -2.71467 -0.0424133 0
M  V30 21171 C 1993.7 -2.55001 2.53973 0
M  V30 21172 C 1993.31 -2.07043 3.97287 0
M  V30 21173 C 1995.05 -3.32369 2.64067 0
M  V30 21174 C 1992.96 -3.18351 4.98404 0
M  V30 21175 H 1991.89 -0.529424 0.536867 0
M  V30 21176 H 1994.54 -0.705139 1.69411 0
M  V30 21177 H 1992.92 -3.27863 2.22085 0
M  V30 21178 H 1994.1 -1.41193 4.38635 0
M  V30 21179 H 1992.41 -1.42555 3.91238 0
M  V30 21180 H 1995.01 -4.15305 3.36788 0
M  V30 21181 H 1995.35 -3.80394 1.69134 0
M  V30 21182 H 1995.89 -2.66588 2.95255 0
M  V30 21183 H 1992.63 -2.75294 5.94889 0
M  V30 21184 H 1992.15 -3.82913 4.61669 0
M  V30 21185 H 1993.82 -3.83483 5.21104 0
M  V30 21186 N 1993.96 -1.29952 -0.891648 0
M  V30 21187 C 1995.37 -1.16586 -1.45824 0
M  V30 21188 C 1995.72 0.235978 -1.94776 0
M  V30 21189 O 1994.84 1.13214 -1.84422 0
M  V30 21190 C 1995.44 -2.11036 -2.65046 0
M  V30 21191 C 1994 -2.01668 -3.17816 0
M  V30 21192 C 1993.14 -2.015 -1.90507 0
M  V30 21193 H 1996.1 -1.42319 -0.702216 0
M  V30 21194 H 1996.12 -1.68729 -3.41044 0
M  V30 21195 H 1995.63 -3.13054 -2.29387 0
M  V30 21196 H 1993.73 -1.02767 -3.58147 0
M  V30 21197 H 1993.84 -2.89729 -3.81568 0
M  V30 21198 H 1992.21 -1.46209 -2.08555 0
M  V30 21199 H 1992.99 -3.05237 -1.57115 0
M  V30 21200 N 1995.44 1.1031 -1.12559 0
M  V30 21201 C 1996.4 2.14869 -0.79773 0
M  V30 21202 C 1997.4 1.59691 0.188521 0
M  V30 21203 O 1998.59 1.7416 -0.037433 0
M  V30 21204 C 1995.72 3.40394 -0.185665 0
M  V30 21205 H 1996.91 2.45384 -1.72415 0
M  V30 21206 H 1994.47 1.25694 -0.929011 0
M  V30 21207 H 1995.2 3.15499 0.750409 0
M  V30 21208 H 1994.99 3.81731 -0.895771 0
M  V30 21209 H 1996.48 4.17591 0.0271848 0
M  V30 21210 N 1996.91 0.917694 1.28125 0
M  V30 21211 C 1998.14 0.568889 1.98925 0
M  V30 21212 C 1998.56 -0.85076 1.68545 0
M  V30 21213 O 1997.91 -1.56406 0.940399 0
M  V30 21214 C 1997.96 0.773181 3.53135 0
M  V30 21215 O 1997.69 2.13697 3.82446 0
M  V30 21216 C 1999.19 0.431738 4.41193 0
M  V30 21217 H 1996.41 0.21651 0.63511 0
M  V30 21218 H 1998.95 1.23198 1.63226 0
M  V30 21219 H 1997.11 0.157034 3.87082 0
M  V30 21220 H 1997.52 2.17956 4.7707 0
M  V30 21221 H 1998.99 0.625431 5.48445 0
M  V30 21222 H 1999.47 -0.632236 4.34626 0
M  V30 21223 H 2000.08 1.02559 4.12749 0
M  V30 21224 N 1998.39 -1.42074 0.682102 0
M  V30 21225 C 1999.8 -1.8453 0.283805 0
M  V30 21226 C 2000.15 -1.5709 -1.17547 0
M  V30 21227 O 1999.28 -1.03444 -1.90075 0
M  V30 21228 C 1999.87 -3.34965 0.508316 0
M  V30 21229 C 1998.43 -3.76042 0.164069 0
M  V30 21230 C 1997.58 -2.65594 0.797204 0
M  V30 21231 H 2000.53 -1.31817 0.88374 0
M  V30 21232 H 2000.55 -3.7976 -0.237267 0
M  V30 21233 H 2000.06 -3.54905 1.57047 0
M  V30 21234 H 1998.16 -3.61707 -0.894353 0
M  V30 21235 H 1998.28 -4.75205 0.609688 0
M  V30 21236 H 1996.64 -2.53678 0.227913 0
M  V30 21237 H 1997.42 -2.88355 1.86296 0
M  V30 21238 N 1999.87 -0.425924 -1.51735 0
M  V30 21239 C 2001.12 0.144557 -2.02284 0
M  V30 21240 C 2001.45 1.43351 -1.31012 0
M  V30 21241 O 2000.72 1.89877 -0.421524 0
M  V30 21242 C 2001.01 0.37505 -3.58142 0
M  V30 21243 C 2000.86 -0.931753 -4.40044 0
M  V30 21244 C 2002.18 1.14986 -4.24813 0
M  V30 21245 H 1999.3 0.0510632 -0.735229 0
M  V30 21246 H 2001.94 -0.562685 -1.81477 0
M  V30 21247 H 2000.09 0.977495 -3.76002 0
M  V30 21248 H 2001.76 -1.5673 -4.33859 0
M  V30 21249 H 2000 -1.53896 -4.05584 0
M  V30 21250 H 2000.68 -0.724661 -5.47223 0
M  V30 21251 H 2003.15 0.639666 -4.11154 0
M  V30 21252 H 2002.03 1.27989 -5.3377 0
M  V30 21253 H 2002.29 2.17496 -3.849 0
M  V30 21254 N 2001.35 1.56817 -0.156891 0
M  V30 21255 C 2002.31 2.16058 0.764967 0
M  V30 21256 C 2003.31 1.10488 1.16829 0
M  V30 21257 O 2004.5 1.36077 1.0876 0
M  V30 21258 C 2001.63 2.73173 2.03935 0
M  V30 21259 H 2002.83 2.98861 0.249482 0
M  V30 21260 H 2000.38 1.56025 0.0926074 0
M  V30 21261 H 2001.11 1.94064 2.59827 0
M  V30 21262 H 2000.9 3.50417 1.75926 0
M  V30 21263 H 2002.39 3.18783 2.69754 0
M  V30 21264 N 2002.83 -0.116876 1.57166 0
M  V30 21265 C 2004.07 -0.825509 1.85238 0
M  V30 21266 C 2004.4 -1.79427 0.742936 0
M  V30 21267 O 2003.68 -1.92873 -0.251043 0
M  V30 21268 C 2003.96 -1.57353 3.23901 0
M  V30 21269 C 2003.82 -0.624227 4.45447 0
M  V30 21270 C 2005.13 -2.52922 3.60164 0
M  V30 21271 H 2002.25 -0.298653 0.673777 0
M  V30 21272 H 2004.9 -0.0897002 1.89788 0
M  V30 21273 H 2003.05 -2.20078 3.20153 0
M  V30 21274 H 2004.72 -0.00566556 4.613 0
M  V30 21275 H 2002.96 0.0640779 4.33753 0
M  V30 21276 H 2003.63 -1.1843 5.39146 0
M  V30 21277 H 2006.11 -2.00302 3.64717 0
M  V30 21278 H 2004.98 -3.02291 4.58161 0
M  V30 21279 H 2005.24 -3.35684 2.87695 0
M  V30 21280 N 2004.3 -1.52772 -0.387116 0
M  V30 21281 C 2005.53 -1.72086 -1.15763 0
M  V30 21282 C 2005.95 -0.43912 -1.82903 0
M  V30 21283 O 2005.31 0.605254 -1.70899 0
M  V30 21284 C 2005.36 -2.87248 -2.17992 0
M  V30 21285 O 2004.46 -2.54353 -3.2462 0
M  V30 21286 H 2003.8 -0.572174 -0.336918 0
M  V30 21287 H 2006.33 -1.99571 -0.450833 0
M  V30 21288 H 2006.34 -3.12798 -2.61957 0
M  V30 21289 H 2005.02 -3.80232 -1.68513 0
M  V30 21290 H 2003.6 -2.39551 -2.8578 0
M  V30 21291 N 2005.78 0.645673 -1.43767 0
M  V30 21292 C 2006.71 1.77107 -1.45484 0
M  V30 21293 C 2007.73 1.58993 -0.350002 0
M  V30 21294 O 2008.92 1.67575 -0.61489 0
M  V30 21295 C 2006.02 3.14639 -1.25919 0
M  V30 21296 C 2005.19 3.59344 -2.49381 0
M  V30 21297 C 2004.25 4.75703 -2.24929 0
M  V30 21298 O 2003.27 4.84756 -2.98329 0
M  V30 21299 N 2004.48 5.66422 -1.27068 0
M  V30 21300 H 2007.24 1.7611 -2.42498 0
M  V30 21301 H 2004.8 0.829768 -1.3902 0
M  V30 21302 H 2006.79 3.9018 -1.07432 0
M  V30 21303 H 2005.36 3.10364 -0.37323 0
M  V30 21304 H 2004.58 2.74166 -2.83243 0
M  V30 21305 H 2005.87 3.8596 -3.3153 0
M  V30 21306 H 2005.27 5.61787 -0.664185 0
M  V30 21307 H 2003.83 6.41653 -1.14562 0
M  V30 21308 N 2007.26 1.30423 0.884744 0
M  V30 21309 C 2008.67 1.17357 1.45204 0
M  V30 21310 C 2009.02 -0.225645 1.94898 0
M  V30 21311 O 2008.15 -1.12234 1.8502 0
M  V30 21312 C 2008.74 2.12438 2.63923 0
M  V30 21313 C 2007.3 2.03351 3.16742 0
M  V30 21314 C 2006.45 2.02508 1.89436 0
M  V30 21315 H 2009.4 1.42689 0.694659 0
M  V30 21316 H 2009.42 1.70535 3.40144 0
M  V30 21317 H 2008.93 3.14267 2.27724 0
M  V30 21318 H 2007.03 1.04665 3.57597 0
M  V30 21319 H 2007.15 2.91748 3.80026 0
M  V30 21320 H 2005.51 1.47312 2.07777 0
M  V30 21321 H 2006.29 3.06066 1.55494 0
M  V30 21322 N 2008.74 -1.09711 1.13142 0
M  V30 21323 C 2009.99 -1.81198 0.886021 0
M  V30 21324 C 2010.3 -1.86501 -0.589624 0
M  V30 21325 O 2011.51 -2.54267 -0.951866 0
M  V30 21326 C 2009.96 -3.25498 1.53554 0
M  V30 21327 C 2009.57 -3.2847 3.0465 0
M  V30 21328 C 2011.31 -4.01761 1.37072 0
M  V30 21329 C 2009.22 -4.67276 3.62501 0
M  V30 21330 H 2008.15 -0.679005 0.327824 0
M  V30 21331 H 2010.8 -1.23325 1.35879 0
M  V30 21332 H 2009.18 -3.83414 0.990434 0
M  V30 21333 H 2010.36 -2.80336 3.65716 0
M  V30 21334 H 2008.67 -2.65697 3.20615 0
M  V30 21335 H 2011.27 -5.04306 1.77707 0
M  V30 21336 H 2011.61 -4.15105 0.315226 0
M  V30 21337 H 2012.15 -3.50279 1.88545 0
M  V30 21338 H 2008.88 -4.59133 4.67843 0
M  V30 21339 H 2008.4 -5.15746 3.06212 0
M  V30 21340 H 2010.08 -5.36249 3.62002 0
M  V30 21341 N 2010.22 -0.924476 -1.27637 0
M  V30 21342 C 2011.63 -0.62423 -1.46886 0
M  V30 21343 C 2011.83 0.827429 -1.83728 0
M  V30 21344 O 2010.89 1.6056 -1.94876 0
M  V30 21345 C 2012.2 -1.57134 -2.56378 0
M  V30 21346 C 2013.75 -1.57921 -2.7024 0
M  V30 21347 C 2014.22 -2.5132 -3.82886 0
M  V30 21348 N 2015.72 -2.49509 -3.90256 0
M  V30 21349 C 2016.45 -3.18469 -4.76828 0
M  V30 21350 N 2015.95 -3.96797 -5.67912 0
M  V30 21351 N 2017.74 -3.07503 -4.7053 0
M  V30 21352 H 2009.89 -1.86302 -1.02006 0
M  V30 21353 H 2012.15 -0.79968 -0.509132 0
M  V30 21354 H 2011.86 -2.60679 -2.36092 0
M  V30 21355 H 2011.73 -1.31058 -3.537 0
M  V30 21356 H 2014.12 -0.55109 -2.89909 0
M  V30 21357 H 2014.2 -1.88045 -1.73415 0
M  V30 21358 H 2013.85 -3.54241 -3.63972 0
M  V30 21359 H 2013.78 -2.18494 -4.79132 0
M  V30 21360 H 2016.27 -1.9262 -3.25124 0
M  V30 21361 H 2016.58 -4.4641 -6.30823 0
M  V30 21362 H 2014.92 -4.00901 -5.67718 0
M  V30 21363 H 2018.12 -2.45806 -3.98368 0
M  V30 21364 H 2018.29 -3.61517 -5.37782 0
M  V30 21365 N 2011.69 1.41711 -0.689627 0
M  V30 21366 C 2012.92 2.05652 -0.226938 0
M  V30 21367 C 2013.34 1.51875 1.12158 0
M  V30 21368 O 2012.69 0.664544 1.69971 0
M  V30 21369 C 2012.75 3.61102 -0.169503 0
M  V30 21370 O 2012.47 4.12888 -1.46475 0
M  V30 21371 C 2013.97 4.4218 0.314894 0
M  V30 21372 H 2011.19 0.66244 -0.10684 0
M  V30 21373 H 2013.73 1.81588 -0.940538 0
M  V30 21374 H 2011.89 3.84226 0.49488 0
M  V30 21375 H 2012.3 5.06884 -1.34791 0
M  V30 21376 H 2013.77 5.51162 0.303964 0
M  V30 21377 H 2014.25 4.17848 1.35275 0
M  V30 21378 H 2014.86 4.24107 -0.318278 0
M  V30 21379 N 2013.17 0.433965 1.51507 0
M  V30 21380 C 2014.45 -0.193401 1.94642 0
M  V30 21381 C 2014.83 -1.60398 1.37243 0
M  V30 21382 O 2014.18 -2.21579 0.558139 0
M  V30 21383 C 2014.39 -0.174558 3.48563 0
M  V30 21384 C 2015.74 -0.381783 4.2288 0
M  V30 21385 O 2016.76 -0.252823 3.55302 0
M  V30 21386 O 2015.62 -0.638151 5.42761 0
M  V30 21387 H 2012.71 -0.131787 0.816432 0
M  V30 21388 H 2015.26 0.491701 1.6242 0
M  V30 21389 H 2014.03 0.811732 3.82788 0
M  V30 21390 H 2013.65 -0.902712 3.87217 0
M  V30 21391 N 2014.65 -1.56732 0.165206 0
M  V30 21392 C 2015.58 -2.20674 -0.763223 0
M  V30 21393 C 2016.56 -1.16048 -1.24366 0
M  V30 21394 O 2017.75 -1.44456 -1.29793 0
M  V30 21395 C 2014.88 -2.84269 -1.9952 0
M  V30 21396 C 2013.83 -3.94881 -1.65085 0
M  V30 21397 C 2013.16 -4.45496 -2.95698 0
M  V30 21398 C 2014.46 -5.14773 -0.883543 0
M  V30 21399 H 2016.15 -2.98513 -0.230254 0
M  V30 21400 H 2013.7 -1.43585 -0.109308 0
M  V30 21401 H 2015.65 -3.27674 -2.64967 0
M  V30 21402 H 2014.37 -2.03789 -2.55221 0
M  V30 21403 H 2013.03 -3.52122 -1.0201 0
M  V30 21404 H 2012.68 -3.61815 -3.49426 0
M  V30 21405 H 2012.38 -5.20114 -2.73414 0
M  V30 21406 H 2013.9 -4.91584 -3.62185 0
M  V30 21407 H 2015.32 -5.54908 -1.44047 0
M  V30 21408 H 2013.72 -5.95268 -0.759968 0
M  V30 21409 H 2014.79 -4.84748 0.121303 0
M  V30 21410 N 2016.13 0.10854 -1.57226 0
M  V30 21411 C 2017.54 0.664549 -1.74472 0
M  V30 21412 C 2017.89 1.79792 -0.785438 0
M  V30 21413 O 2017.02 2.16364 0.0392281 0
M  V30 21414 C 2017.61 1.21227 -3.16369 0
M  V30 21415 C 2016.17 1.71447 -3.35086 0
M  V30 21416 C 2015.32 0.618471 -2.70315 0
M  V30 21417 H 2018.27 -0.11745 -1.58265 0
M  V30 21418 H 2018.29 2.08181 -3.18498 0
M  V30 21419 H 2017.8 0.387164 -3.86164 0
M  V30 21420 H 2015.9 2.56402 -2.7035 0
M  V30 21421 H 2016.01 1.81672 -4.4332 0
M  V30 21422 H 2014.38 1.05465 -2.31839 0
M  V30 21423 H 2015.16 -0.195832 -3.42741 0
M  V30 21424 N 2017.61 1.52975 0.379009 0
M  V30 21425 C 2019.02 1.60338 0.956477 0
M  V30 21426 C 2019.37 0.462422 1.90673 0
M  V30 21427 O 2018.49 -0.413093 2.12421 0
M  V30 21428 C 2019.09 2.90615 1.74151 0
M  V30 21429 C 2017.65 3.00358 2.26853 0
M  V30 21430 C 2016.79 2.55532 1.07697 0
M  V30 21431 H 2019.75 1.57909 0.158228 0
M  V30 21432 H 2019.77 2.77662 2.60161 0
M  V30 21433 H 2019.28 3.73636 1.04965 0
M  V30 21434 H 2017.38 2.21895 2.99321 0
M  V30 21435 H 2017.49 4.05188 2.55655 0
M  V30 21436 H 2015.86 2.10088 1.43997 0
M  V30 21437 H 2016.64 3.40958 0.400297 0
M  V30 21438 N 2019.08 -0.63804 1.44107 0
M  V30 21439 C 2020.5 -1.21954 1.41365 0
M  V30 21440 C 2020.85 -1.95799 0.125451 0
M  V30 21441 O 2019.97 -2.02066 -0.774492 0
M  V30 21442 C 2020.57 -2.21819 2.56089 0
M  V30 21443 C 2019.13 -2.75412 2.56564 0
M  V30 21444 C 2018.27 -1.50296 2.33037 0
M  V30 21445 H 2021.22 -0.429131 1.52788 0
M  V30 21446 H 2021.24 -3.0429 2.28447 0
M  V30 21447 H 2020.76 -1.68045 3.49832 0
M  V30 21448 H 2018.86 -3.33207 1.66744 0
M  V30 21449 H 2018.97 -3.21922 3.54828 0
M  V30 21450 H 2017.33 -1.78184 1.81996 0
M  V30 21451 H 2018.12 -0.984346 3.28885 0
M  V30 21452 N 2020.56 -1.3089 -0.877815 0
M  V30 21453 C 2021.97 -1.18126 -1.44579 0
M  V30 21454 C 2022.32 0.215306 -1.95015 0
M  V30 21455 O 2021.45 1.11252 -1.85613 0
M  V30 21456 C 2022.04 -2.13835 -2.62793 0
M  V30 21457 C 2020.6 -2.05028 -3.15659 0
M  V30 21458 C 2019.75 -2.03509 -1.88359 0
M  V30 21459 H 2022.7 -1.43056 -0.687082 0
M  V30 21460 H 2022.72 -1.72337 -3.39235 0
M  V30 21461 H 2022.23 -3.1547 -2.26054 0
M  V30 21462 H 2020.34 -1.0656 -3.57037 0
M  V30 21463 H 2020.45 -2.9376 -3.78473 0
M  V30 21464 H 2018.81 -1.48412 -2.06992 0
M  V30 21465 H 2019.6 -3.06887 -1.53869 0
M  V30 21466 N 2022.04 1.0911 -1.13723 0
M  V30 21467 C 2023.45 1.62841 -0.913213 0
M  V30 21468 C 2023.8 1.88346 0.549566 0
M  V30 21469 O 2022.93 1.63558 1.41696 0
M  V30 21470 C 2023.52 2.95835 -1.65127 0
M  V30 21471 C 2022.08 3.46379 -1.47304 0
M  V30 21472 C 2021.23 2.20738 -1.6784 0
M  V30 21473 H 2024.18 0.924297 -1.29006 0
M  V30 21474 H 2024.2 3.63942 -1.11026 0
M  V30 21475 H 2023.71 2.77241 -2.71587 0
M  V30 21476 H 2021.81 3.70092 -0.431605 0
M  V30 21477 H 2021.93 4.23603 -2.23825 0
M  V30 21478 H 2020.29 2.29554 -1.10349 0
M  V30 21479 H 2021.07 2.04659 -2.75626 0
M  V30 21480 N 2023.52 0.931232 1.27145 0
M  V30 21481 C 2024.93 0.617607 1.76189 0
M  V30 21482 C 2025.28 -0.867239 1.75993 0
M  V30 21483 O 2024.41 -1.67865 1.36567 0
M  V30 21484 C 2025 1.11436 3.19949 0
M  V30 21485 C 2023.56 0.851337 3.66646 0
M  V30 21486 C 2022.71 1.27104 2.46454 0
M  V30 21487 H 2025.66 1.11062 1.13362 0
M  V30 21488 H 2025.68 0.463637 3.77665 0
M  V30 21489 H 2025.19 2.19507 3.2006 0
M  V30 21490 H 2023.29 -0.215418 3.71977 0
M  V30 21491 H 2023.4 1.47136 4.55947 0
M  V30 21492 H 2021.77 0.689554 2.45188 0
M  V30 21493 H 2022.55 2.36047 2.49273 0
M  V30 21494 N 2025 -1.41343 0.697132 0
M  V30 21495 C 2026.41 -1.84219 0.303361 0
M  V30 21496 C 2026.76 -1.58328 -1.15874 0
M  V30 21497 O 2025.88 -1.05454 -1.88967 0
M  V30 21498 C 2026.48 -3.34407 0.543815 0
M  V30 21499 C 2025.04 -3.75847 0.203944 0
M  V30 21500 C 2024.19 -2.64733 0.825329 0
M  V30 21501 H 2027.14 -1.30872 0.897671 0
M  V30 21502 H 2027.16 -3.7999 -0.196975 0
M  V30 21503 H 2026.67 -3.5322 1.60802 0
M  V30 21504 H 2024.77 -3.62635 -0.855939 0
M  V30 21505 H 2024.88 -4.74531 0.660055 0
M  V30 21506 H 2023.25 -2.53422 0.254806 0
M  V30 21507 H 2024.03 -2.86363 1.89344 0
M  V30 21508 N 2026.48 -0.441993 -1.51275 0
M  V30 21509 C 2027.89 0.0200405 -1.86689 0
M  V30 21510 C 2028.24 1.41527 -1.35885 0
M  V30 21511 O 2027.36 2.04366 -0.711583 0
M  V30 21512 C 2027.96 0.0431426 -3.38773 0
M  V30 21513 C 2026.52 0.449604 -3.73705 0
M  V30 21514 C 2025.66 -0.354706 -2.75022 0
M  V30 21515 H 2028.61 -0.657627 -1.44433 0
M  V30 21516 H 2028.64 0.851643 -3.70847 0
M  V30 21517 H 2028.15 -0.97245 -3.75719 0
M  V30 21518 H 2026.25 1.47063 -3.4235 0
M  V30 21519 H 2026.36 0.171167 -4.78794 0
M  V30 21520 H 2024.73 0.187631 -2.54008 0
M  V30 21521 H 2025.51 -1.36926 -3.14811 0
M  V30 21522 N 2027.95 1.56642 -0.173515 0
M  V30 21523 C 2029.2 1.97241 0.47157 0
M  V30 21524 C 2029.53 1.05958 1.62747 0
M  V30 21525 O 2028.81 0.107151 1.94205 0
M  V30 21526 C 2029.09 3.47276 0.952439 0
M  V30 21527 C 2028.94 4.49338 -0.203789 0
M  V30 21528 C 2030.26 4.00461 1.82535 0
M  V30 21529 H 2027.38 0.71714 0.169941 0
M  V30 21530 H 2030.02 1.88211 -0.260093 0
M  V30 21531 H 2028.17 3.55102 1.57591 0
M  V30 21532 H 2029.85 4.5357 -0.840936 0
M  V30 21533 H 2028.09 4.25211 -0.858945 0
M  V30 21534 H 2028.76 5.51723 0.174833 0
M  V30 21535 H 2031.24 3.9528 1.29974 0
M  V30 21536 H 2030.11 5.05853 2.13083 0
M  V30 21537 H 2030.37 3.44409 2.7719 0
M  V30 21538 N 2029.43 -0.1002 1.57281 0
M  V30 21539 C 2030.38 -1.12818 1.98132 0
M  V30 21540 C 2031.37 -1.36051 0.859002 0
M  V30 21541 O 2032.56 -1.36828 1.12281 0
M  V30 21542 C 2029.69 -2.44978 2.405 0
M  V30 21543 C 2028.77 -2.2514 3.59406 0
M  V30 21544 N 2029.16 -1.75157 4.74503 0
M  V30 21545 C 2027.46 -2.55726 3.65404 0
M  V30 21546 C 2028.16 -1.69469 5.56467 0
M  V30 21547 N 2027.14 -2.14499 4.99491 0
M  V30 21548 H 2030.94 -0.734583 2.84572 0
M  V30 21549 H 2028.45 -0.307698 1.59458 0
M  V30 21550 H 2030.45 -3.19352 2.67992 0
M  V30 21551 H 2029.11 -2.85079 1.55434 0
M  V30 21552 H 2030.12 -1.44429 4.97354 0
M  V30 21553 H 2026.8 -2.99386 2.90988 0
M  V30 21554 H 2028.19 -1.31919 6.58822 0
M  V30 21555 N 2030.91 -1.53174 -0.370891 0
M  V30 21556 C 2032.14 -1.72749 -1.13319 0
M  V30 21557 C 2032.55 -0.453832 -1.83676 0
M  V30 21558 O 2031.89 0.582685 -1.74214 0
M  V30 21559 C 2031.95 -2.83436 -2.21143 0
M  V30 21560 C 2031.62 -4.23963 -1.70599 0
M  V30 21561 C 2032.61 -5.06496 -1.17293 0
M  V30 21562 C 2030.3 -4.70354 -1.76273 0
M  V30 21563 C 2032.29 -6.33508 -0.703308 0
M  V30 21564 C 2029.98 -5.97346 -1.28923 0
M  V30 21565 C 2030.98 -6.78754 -0.760411 0
M  V30 21566 O 2030.67 -8.03363 -0.293883 0
M  V30 21567 H 2030.4 -0.581347 -0.344981 0
M  V30 21568 H 2032.95 -2.0069 -0.437343 0
M  V30 21569 H 2031.18 -2.50957 -2.94206 0
M  V30 21570 H 2032.87 -2.9124 -2.82726 0
M  V30 21571 H 2033.64 -4.71831 -1.12252 0
M  V30 21572 H 2029.52 -4.07066 -2.16375 0
M  V30 21573 H 2033.06 -6.96997 -0.289876 0
M  V30 21574 H 2028.96 -6.31511 -1.33655 0
M  V30 21575 H 2029.72 -8.17454 -0.413701 0
M  V30 21576 N 2032.39 0.630389 -1.44443 0
M  V30 21577 C 2033.35 1.72422 -1.51008 0
M  V30 21578 C 2034.35 1.55948 -0.392038 0
M  V30 21579 O 2035.54 1.61429 -0.654688 0
M  V30 21580 C 2032.67 3.1151 -1.38472 0
M  V30 21581 H 2033.87 1.67975 -2.48444 0
M  V30 21582 H 2031.42 0.844115 -1.31546 0
M  V30 21583 H 2032.15 3.21551 -0.421327 0
M  V30 21584 H 2031.94 3.24874 -2.19544 0
M  V30 21585 H 2033.43 3.91228 -1.46049 0
M  V30 21586 N 2033.87 1.31354 0.870861 0
M  V30 21587 C 2035.11 1.20749 1.62062 0
M  V30 21588 C 2035.43 -0.234709 1.93582 0
M  V30 21589 O 2034.7 -1.15517 1.58217 0
M  V30 21590 H 2033.28 0.443911 0.600793 0
M  V30 21591 H 2035.95 1.64667 1.04262 0
M  V30 21592 H 2035.04 1.77855 2.56464 0
M  V30 21593 N 2035.34 -1.08505 1.143 0
M  V30 21594 C 2036.62 -1.77515 0.82144 0
M  V30 21595 C 2037 -1.99668 -0.685253 0
M  V30 21596 O 2036.35 -1.60569 -1.62573 0
M  V30 21597 C 2036.56 -3.09174 1.61903 0
M  V30 21598 C 2037.91 -3.83722 1.81775 0
M  V30 21599 O 2038.93 -3.18952 1.58581 0
M  V30 21600 O 2037.79 -5.00023 2.20543 0
M  V30 21601 H 2034.88 -0.770315 0.300906 0
M  V30 21602 H 2037.43 -1.14976 1.24814 0
M  V30 21603 H 2036.2 -2.88593 2.64253 0
M  V30 21604 H 2035.82 -3.7944 1.1879 0
M  V30 21605 N 2036.82 -0.937962 -1.26649 0
M  V30 21606 C 2038.07 -0.583818 -1.93902 0
M  V30 21607 C 2038.4 0.876602 -1.73626 0
M  V30 21608 O 2037.65 1.64203 -1.0647 0
M  V30 21609 C 2037.95 -0.868478 -3.46687 0
M  V30 21610 C 2037.62 -2.31227 -3.87098 0
M  V30 21611 C 2036.28 -2.70695 -3.97841 0
M  V30 21612 C 2038.63 -3.25068 -4.07407 0
M  V30 21613 C 2035.96 -4.03107 -4.26288 0
M  V30 21614 C 2038.31 -4.57073 -4.37341 0
M  V30 21615 C 2036.97 -4.96361 -4.46298 0
M  V30 21616 H 2036.24 -0.213634 -0.709536 0
M  V30 21617 H 2038.89 -1.18386 -1.50522 0
M  V30 21618 H 2037.2 -0.185864 -3.91359 0
M  V30 21619 H 2038.89 -0.573289 -3.96881 0
M  V30 21620 H 2035.48 -1.99611 -3.7928 0
M  V30 21621 H 2039.67 -2.95773 -3.98537 0
M  V30 21622 H 2034.92 -4.33214 -4.31434 0
M  V30 21623 H 2039.1 -5.29781 -4.52001 0
M  V30 21624 H 2036.72 -5.98992 -4.68095 0
M  V30 21625 N 2038.3 1.40971 -0.704618 0
M  V30 21626 C 2039.58 1.94885 -0.167059 0
M  V30 21627 C 2039.96 1.64346 1.3249 0
M  V30 21628 O 2039.3 0.955268 2.07574 0
M  V30 21629 C 2039.51 3.45847 -0.468035 0
M  V30 21630 C 2040.86 4.22705 -0.400704 0
M  V30 21631 O 2041.89 3.53908 -0.403464 0
M  V30 21632 O 2040.75 5.45255 -0.368676 0
M  V30 21633 H 2037.84 0.826752 -0.0202699 0
M  V30 21634 H 2040.39 1.50639 -0.7814 0
M  V30 21635 H 2039.16 3.61392 -1.50038 0
M  V30 21636 H 2038.78 3.97207 0.176823 0
M  V30 21637 N 2039.78 0.45001 1.51039 0
M  V30 21638 C 2041.03 -0.111969 2.0179 0
M  V30 21639 C 2041.35 -1.42098 1.33541 0
M  V30 21640 O 2040.62 -1.9008 0.473962 0
M  V30 21641 H 2039.2 -0.0443688 0.745681 0
M  V30 21642 H 2041.86 0.595615 1.85576 0
M  V30 21643 H 2040.96 -0.278742 3.10853 0
M  V30 21644 N 2041.26 -1.56548 0.18182 0
M  V30 21645 C 2042.19 -2.14336 -0.783296 0
M  V30 21646 C 2043.17 -1.07634 -1.21876 0
M  V30 21647 O 2044.35 -1.3567 -1.30866 0
M  V30 21648 C 2041.48 -2.69146 -2.05616 0
M  V30 21649 C 2040.52 -3.88316 -1.76389 0
M  V30 21650 S 2041.36 -5.27472 -0.923777 0
M  V30 21651 C 2042.51 -5.85695 -2.20708 0
M  V30 21652 H 2042.75 -2.95863 -0.291996 0
M  V30 21653 H 2040.28 -1.54365 -0.033 0
M  V30 21654 H 2042.24 -3.01371 -2.78722 0
M  V30 21655 H 2040.9 -1.87685 -2.51859 0
M  V30 21656 H 2040.09 -4.25031 -2.7086 0
M  V30 21657 H 2039.69 -3.57032 -1.11373 0
M  V30 21658 H 2041.99 -5.99249 -3.16081 0
M  V30 21659 H 2042.93 -6.82564 -1.88446 0
M  V30 21660 H 2043.34 -5.14194 -2.32948 0
M  V30 21661 N 2042.73 0.0918577 -1.57332 0
M  V30 21662 C 2043.96 0.81208 -1.9084 0
M  V30 21663 C 2044.38 1.71329 -0.776394 0
M  V30 21664 O 2043.74 1.7925 0.271867 0
M  V30 21665 C 2043.79 1.59867 -3.23226 0
M  V30 21666 O 2042.89 2.70787 -3.11044 0
M  V30 21667 H 2042.24 0.222886 -0.625474 0
M  V30 21668 H 2044.77 0.0661119 -2.04493 0
M  V30 21669 H 2044.78 1.98221 -3.56613 0
M  V30 21670 H 2043.45 0.937296 -4.05201 0
M  V30 21671 H 2042.03 2.35438 -2.89177 0
M  V30 21672 N 2044.21 1.53368 0.362763 0
M  V30 21673 C 2045.15 1.74792 1.46707 0
M  V30 21674 C 2046.12 0.596367 1.51269 0
M  V30 21675 O 2047.31 0.829291 1.69278 0
M  V30 21676 C 2044.43 1.82926 2.85054 0
M  V30 21677 C 2043.48 3.04921 2.98204 0
M  V30 21678 S 2044.31 4.64381 2.66666 0
M  V30 21679 C 2045.47 4.75367 4.07157 0
M  V30 21680 H 2045.7 2.68184 1.28314 0
M  V30 21681 H 2043.24 1.43993 0.557272 0
M  V30 21682 H 2045.19 1.88297 3.64766 0
M  V30 21683 H 2043.85 0.905801 3.00756 0
M  V30 21684 H 2043.05 3.0723 3.99532 0
M  V30 21685 H 2042.65 2.97676 2.26418 0
M  V30 21686 H 2044.94 4.55595 5.01437 0
M  V30 21687 H 2045.88 5.77432 4.09852 0
M  V30 21688 H 2046.29 4.03977 3.94288 0
M  V30 21689 N 2045.69 -0.62272 1.44776 0
M  V30 21690 C 2046.97 -1.38145 1.38475 0
M  V30 21691 C 2047.35 -2.11046 0.0476847 0
M  V30 21692 O 2046.7 -2.0689 -0.969982 0
M  V30 21693 C 2046.91 -2.34088 2.58851 0
M  V30 21694 C 2048.25 -2.97162 3.03282 0
M  V30 21695 O 2049.28 -2.44412 2.59116 0
M  V30 21696 O 2048.14 -3.92874 3.79885 0
M  V30 21697 H 2045.23 -0.618685 0.548779 0
M  V30 21698 H 2047.78 -0.647072 1.56879 0
M  V30 21699 H 2046.55 -1.79376 3.47764 0
M  V30 21700 H 2046.17 -3.1493 2.42703 0
M  V30 21701 N 2047.17 -1.31814 -0.863883 0
M  V30 21702 C 2048.1 -1.22574 -1.98741 0
M  V30 21703 C 2049.08 -0.111585 -1.69734 0
M  V30 21704 O 2050.26 -0.29721 -1.91912 0
M  V30 21705 C 2047.39 -0.938559 -3.34378 0
M  V30 21706 C 2046.35 -2.01295 -3.7771 0
M  V30 21707 C 2045.67 -1.57834 -5.10874 0
M  V30 21708 C 2046.97 -3.42684 -3.94164 0
M  V30 21709 H 2048.67 -2.16572 -2.06729 0
M  V30 21710 H 2046.21 -1.04262 -0.993246 0
M  V30 21711 H 2048.17 -0.860501 -4.12521 0
M  V30 21712 H 2046.89 0.0370783 -3.26579 0
M  V30 21713 H 2045.55 -2.081 -3.01811 0
M  V30 21714 H 2045.2 -0.5904 -4.99523 0
M  V30 21715 H 2044.9 -2.29713 -5.40838 0
M  V30 21716 H 2046.42 -1.51448 -5.9152 0
M  V30 21717 H 2047.84 -3.38519 -4.62685 0
M  V30 21718 H 2046.23 -4.12833 -4.35533 0
M  V30 21719 H 2047.3 -3.83023 -2.97358 0
M  V30 21720 N 2048.65 1.07897 -1.14873 0
M  V30 21721 C 2050.06 1.61864 -0.930434 0
M  V30 21722 C 2050.41 1.88918 0.529558 0
M  V30 21723 O 2049.53 1.65051 1.39954 0
M  V30 21724 C 2050.13 2.94067 -1.68256 0
M  V30 21725 C 2048.69 3.44797 -1.50969 0
M  V30 21726 C 2047.83 2.18945 -1.70171 0
M  V30 21727 H 2050.79 0.910562 -1.29979 0
M  V30 21728 H 2050.81 3.62744 -1.1488 0
M  V30 21729 H 2050.32 2.74344 -2.74512 0
M  V30 21730 H 2048.42 3.69613 -0.470834 0
M  V30 21731 H 2048.53 4.21205 -2.28305 0
M  V30 21732 H 2046.9 2.28371 -1.12778 0
M  V30 21733 H 2047.68 2.01724 -2.77781 0
M  V30 21734 N 2050.12 0.944665 1.2615 0
M  V30 21735 C 2051.05 0.47478 2.28622 0
M  V30 21736 C 2052.04 -0.473742 1.6337 0
M  V30 21737 O 2053.22 -0.374847 1.90548 0
M  V30 21738 C 2050.35 -0.2576 3.46343 0
M  V30 21739 C 2049.3 0.604701 4.23707 0
M  V30 21740 C 2048.63 -0.257841 5.34078 0
M  V30 21741 C 2049.93 1.8778 4.87377 0
M  V30 21742 H 2051.62 1.33122 2.68177 0
M  V30 21743 H 2049.17 0.641555 1.28919 0
M  V30 21744 H 2051.12 -0.597382 4.17144 0
M  V30 21745 H 2049.85 -1.14821 3.05751 0
M  V30 21746 H 2048.51 0.927426 3.54675 0
M  V30 21747 H 2048.15 -1.1479 4.89727 0
M  V30 21748 H 2047.85 0.315739 5.86751 0
M  V30 21749 H 2049.38 -0.592815 6.07715 0
M  V30 21750 H 2050.79 1.60505 5.50374 0
M  V30 21751 H 2049.19 2.39623 5.50182 0
M  V30 21752 H 2050.26 2.58705 4.10122 0
M  V30 21753 N 2051.6 -1.40596 0.712085 0
M  V30 21754 C 2053.01 -1.83887 0.322883 0
M  V30 21755 C 2053.36 -1.59548 -1.14188 0
M  V30 21756 O 2052.49 -1.07452 -1.87838 0
M  V30 21757 C 2053.08 -3.33811 0.579252 0
M  V30 21758 C 2051.64 -3.7561 0.243796 0
M  V30 21759 C 2050.79 -2.63843 0.853361 0
M  V30 21760 H 2053.74 -1.29913 0.911501 0
M  V30 21761 H 2053.76 -3.80177 -0.156661 0
M  V30 21762 H 2053.27 -3.51494 1.6454 0
M  V30 21763 H 2051.38 -3.63523 -0.817429 0
M  V30 21764 H 2051.49 -4.73805 0.710348 0
M  V30 21765 H 2049.85 -2.53138 0.281671 0
M  V30 21766 H 2050.64 -2.84339 1.9237 0
M  V30 21767 N 2053.08 -0.458013 -1.50798 0
M  V30 21768 C 2054.49 0.00023852 -1.867 0
M  V30 21769 C 2054.84 1.40078 -1.37378 0
M  V30 21770 O 2053.97 2.036 -0.733219 0
M  V30 21771 C 2054.56 0.00720883 -3.38799 0
M  V30 21772 C 2053.12 0.409942 -3.74161 0
M  V30 21773 C 2052.27 -0.383856 -2.7463 0
M  V30 21774 H 2055.22 -0.672909 -1.43728 0
M  V30 21775 H 2055.24 0.812262 -3.71729 0
M  V30 21776 H 2054.75 -1.01225 -3.74667 0
M  V30 21777 H 2052.85 1.43423 -3.4389 0
M  V30 21778 H 2052.97 0.120374 -4.78949 0
M  V30 21779 H 2051.33 0.16068 -2.54193 0
M  V30 21780 H 2052.11 -1.40258 -3.13341 0
M  V30 21781 N 2054.56 1.56449 -0.190119 0
M  V30 21782 C 2055.97 1.83879 0.323353 0
M  V30 21783 C 2056.32 1.11062 1.6174 0
M  V30 21784 O 2055.45 0.369789 2.13217 0
M  V30 21785 C 2056.04 3.33562 0.593453 0
M  V30 21786 C 2054.6 3.6142 1.05131 0
M  V30 21787 C 2053.75 2.77129 0.0972331 0
M  V30 21788 H 2056.7 1.53205 -0.414009 0
M  V30 21789 H 2056.72 3.52062 1.44335 0
M  V30 21790 H 2056.23 3.86532 -0.348543 0
M  V30 21791 H 2054.33 3.13879 2.00776 0
M  V30 21792 H 2054.45 4.69638 0.947464 0
M  V30 21793 H 2052.81 2.47576 0.598181 0
M  V30 21794 H 2053.59 3.32887 -0.839117 0
M  V30 21795 N 2056.04 -0.0835127 1.57379 0
M  V30 21796 C 2057.45 -0.636708 1.75508 0
M  V30 21797 C 2057.8 -1.7852 0.813942 0
M  V30 21798 O 2056.92 -2.16399 -0.00480143 0
M  V30 21799 C 2057.52 -1.16179 3.18258 0
M  V30 21800 C 2056.08 -1.66095 3.37771 0
M  V30 21801 C 2055.23 -0.575388 2.71265 0
M  V30 21802 H 2058.18 0.142613 1.58058 0
M  V30 21803 H 2058.2 -2.03087 3.2177 0
M  V30 21804 H 2057.71 -0.325679 3.86731 0
M  V30 21805 H 2055.81 -2.52068 2.74395 0
M  V30 21806 H 2055.92 -1.74596 4.46154 0
M  V30 21807 H 2054.29 -1.01763 2.33487 0
M  V30 21808 H 2055.07 0.250335 3.42386 0
M  V30 21809 N 2057.52 -1.53558 -0.354624 0
M  V30 21810 C 2058.74 -1.74503 -1.12087 0
M  V30 21811 C 2059.17 -0.477817 -1.8193 0
M  V30 21812 O 2058.52 0.568868 -1.72144 0
M  V30 21813 C 2058.57 -2.91808 -2.1185 0
M  V30 21814 O 2057.68 -2.61182 -3.19152 0
M  V30 21815 H 2057.02 -0.579191 -0.324705 0
M  V30 21816 H 2059.55 -2.00483 -0.4084 0
M  V30 21817 H 2059.56 -3.18284 -2.55263 0
M  V30 21818 H 2058.23 -3.83721 -1.6041 0
M  V30 21819 H 2056.81 -2.45558 -2.80634 0
M  V30 21820 N 2058.99 0.615033 -1.45104 0
M  V30 21821 C 2059.96 1.7081 -1.52828 0
M  V30 21822 C 2060.96 1.55523 -0.408557 0
M  V30 21823 O 2062.15 1.60726 -0.671773 0
M  V30 21824 C 2059.28 3.10023 -1.41768 0
M  V30 21825 H 2060.47 1.6533 -2.50212 0
M  V30 21826 H 2058.02 0.830115 -1.32434 0
M  V30 21827 H 2058.76 3.21086 -0.455409 0
M  V30 21828 H 2058.54 3.22527 -2.22977 0
M  V30 21829 H 2060.03 3.89657 -1.5019 0
M  V30 21830 N 2060.47 1.3227 0.85688 0
M  V30 21831 C 2061.42 1.20972 1.98667 0
M  V30 21832 C 2062.41 0.115019 1.69009 0
M  V30 21833 O 2063.62 0.277796 1.77843 0
M  V30 21834 H 2059.99 0.374926 0.65187 0
M  V30 21835 H 2061.97 2.16528 2.05324 0
M  V30 21836 C 2060.71 0.947348 3.34545 0
M  V30 21837 H 2060.04 1.78189 3.57895 0
M  V30 21838 H 2061.48 0.908529 4.14152 0
M  V30 21839 C 2059.94 -0.349912 3.35078 0
M  V30 21840 O 2060.47 -1.3625 3.77887 0
M  V30 21841 N 2058.67 -0.371097 2.88221 0
M  V30 21842 H 2058.22 0.453449 2.53578 0
M  V30 21843 H 2058.18 -1.23894 2.8896 0
M  V30 21844 N 2061.95 -1.07287 1.15444 0
M  V30 21845 C 2062.88 -2.14426 0.809571 0
M  V30 21846 C 2063.89 -1.61816 -0.178709 0
M  V30 21847 O 2065.08 -1.78444 0.044632 0
M  V30 21848 C 2062.18 -3.38406 0.182939 0
M  V30 21849 C 2061.36 -4.20365 1.20881 0
M  V30 21850 C 2060.42 -5.22724 0.603831 0
M  V30 21851 O 2059.44 -5.54852 1.26996 0
M  V30 21852 N 2060.64 -5.77242 -0.614141 0
M  V30 21853 H 2063.41 -2.44613 1.73161 0
M  V30 21854 H 2060.97 -1.23199 1.05041 0
M  V30 21855 H 2062.96 -4.0402 -0.234568 0
M  V30 21856 H 2061.53 -3.05927 -0.642451 0
M  V30 21857 H 2060.75 -3.50558 1.80285 0
M  V30 21858 H 2062.04 -4.71935 1.90144 0
M  V30 21859 H 2061.44 -5.53391 -1.17369 0
M  V30 21860 H 2059.99 -6.44482 -0.973996 0
M  V30 21861 N 2063.43 -0.951342 -1.25647 0
M  V30 21862 C 2064.68 -0.600038 -1.92568 0
M  V30 21863 C 2064.99 0.866499 -1.7536 0
M  V30 21864 O 2066.2 1.32762 -2.36826 0
M  V30 21865 C 2064.65 -1.02246 -3.45071 0
M  V30 21866 C 2064.26 -2.51131 -3.70995 0
M  V30 21867 C 2066 -0.743532 -4.17938 0
M  V30 21868 C 2063.91 -2.87191 -5.16987 0
M  V30 21869 H 2062.84 -0.220706 -0.720975 0
M  V30 21870 H 2065.49 -1.15535 -1.42562 0
M  V30 21871 H 2063.87 -0.395588 -3.94019 0
M  V30 21872 H 2065.05 -3.18809 -3.32712 0
M  V30 21873 H 2063.36 -2.76461 -3.11381 0
M  V30 21874 H 2065.96 -0.989148 -5.25471 0
M  V30 21875 H 2066.3 0.319973 -4.15069 0
M  V30 21876 H 2066.84 -1.3306 -3.74887 0
M  V30 21877 H 2063.57 -3.92545 -5.24965 0
M  V30 21878 H 2063.09 -2.24183 -5.56329 0
M  V30 21879 H 2064.77 -2.76205 -5.85081 0
M  V30 21880 N 2064.91 1.40216 -0.719531 0
M  V30 21881 C 2066.15 2.00418 -0.260225 0
M  V30 21882 C 2066.47 1.57349 1.15179 0
M  V30 21883 O 2065.74 0.814718 1.78155 0
M  V30 21884 H 2064.32 0.741161 -0.0932204 0
M  V30 21885 H 2066.99 1.71495 -0.926041 0
M  V30 21886 H 2066.08 3.10689 -0.29642 0
M  V30 21887 N 2066.38 0.466004 1.50553 0
M  V30 21888 C 2067.31 -0.320802 2.31286 0
M  V30 21889 C 2068.29 -0.995008 1.37962 0
M  V30 21890 O 2069.48 -0.993158 1.66883 0
M  V30 21891 C 2066.61 -1.40607 3.17564 0
M  V30 21892 C 2065.56 -0.853763 4.19398 0
M  V30 21893 C 2064.89 -2.03694 4.94381 0
M  V30 21894 C 2066.19 0.131478 5.22134 0
M  V30 21895 H 2067.88 0.352995 2.97312 0
M  V30 21896 H 2065.43 0.171207 1.42979 0
M  V30 21897 H 2067.38 -1.96395 3.72836 0
M  V30 21898 H 2066.11 -2.10857 2.49413 0
M  V30 21899 H 2064.77 -0.317899 3.65219 0
M  V30 21900 H 2064.41 -2.7263 4.22708 0
M  V30 21901 H 2064.11 -1.67364 5.63261 0
M  V30 21902 H 2065.64 -2.59982 5.52487 0
M  V30 21903 H 2067.05 -0.337046 5.72308 0
M  V30 21904 H 2065.45 0.408804 5.98706 0
M  V30 21905 H 2066.52 1.05903 4.73194 0
M  V30 21906 N 2067.86 -1.56346 0.198413 0
M  V30 21907 C 2069.27 -1.84047 -0.313597 0
M  V30 21908 C 2069.62 -1.11918 -1.61148 0
M  V30 21909 O 2068.75 -0.381091 -2.13018 0
M  V30 21910 C 2069.34 -3.33872 -0.575755 0
M  V30 21911 C 2067.9 -3.61973 -1.03213 0
M  V30 21912 C 2067.05 -2.77177 -0.0825349 0
M  V30 21913 H 2070 -1.52983 0.422128 0
M  V30 21914 H 2070.02 -3.52823 -1.42466 0
M  V30 21915 H 2069.53 -3.86341 0.369036 0
M  V30 21916 H 2067.63 -3.14939 -1.99108 0
M  V30 21917 H 2067.75 -4.70134 -0.922545 0
M  V30 21918 H 2066.11 -2.4789 -0.585043 0
M  V30 21919 H 2066.89 -3.32437 0.856759 0
M  V30 21920 N 2069.34 0.0751653 -1.57421 0
M  V30 21921 C 2070.57 0.791793 -1.91691 0
M  V30 21922 C 2070.99 1.70496 -0.794522 0
M  V30 21923 O 2070.35 1.79528 0.25284 0
M  V30 21924 C 2070.4 1.5643 -3.24903 0
M  V30 21925 O 2069.5 2.67473 -3.13898 0
M  V30 21926 H 2068.84 0.21624 -0.627803 0
M  V30 21927 H 2071.37 0.0444189 -2.04552 0
M  V30 21928 H 2071.38 1.94427 -3.58695 0
M  V30 21929 H 2070.06 0.894266 -4.06172 0
M  V30 21930 H 2068.63 2.32357 -2.91658 0
M  V30 21931 N 2070.82 1.53744 0.346476 0
M  V30 21932 C 2071.78 1.80833 1.40826 0
M  V30 21933 C 2072.78 0.679291 1.45747 0
M  V30 21934 O 2073.97 0.947566 1.46174 0
M  V30 21935 C 2071.1 1.94771 2.79781 0
M  V30 21936 H 2072.3 2.75679 1.18071 0
M  V30 21937 H 2069.85 1.45112 0.5807 0
M  V30 21938 H 2070.58 1.02057 3.07823 0
M  V30 21939 H 2070.37 2.76908 2.77605 0
M  V30 21940 H 2071.86 2.17255 3.56637 0
M  V30 21941 N 2072.3 -0.607329 1.45428 0
M  V30 21942 C 2073.23 -1.73188 1.50129 0
M  V30 21943 C 2074.24 -1.58009 0.392034 0
M  V30 21944 O 2075.43 -1.65886 0.659103 0
M  V30 21945 C 2072.53 -3.1119 1.34217 0
M  V30 21946 C 2071.7 -3.52606 2.58821 0
M  V30 21947 C 2070.76 -4.69572 2.37463 0
M  V30 21948 O 2069.79 -4.76676 3.11076 0
M  V30 21949 N 2070.99 -5.62854 1.42041 0
M  V30 21950 H 2073.76 -1.69619 2.47082 0
M  V30 21951 H 2071.32 -0.792618 1.41171 0
M  V30 21952 H 2073.31 -3.87195 1.17739 0
M  V30 21953 H 2071.88 -3.09265 0.455386 0
M  V30 21954 H 2071.1 -2.6656 2.90412 0
M  V30 21955 H 2072.39 -3.77035 3.41646 0
M  V30 21956 H 2071.78 -5.59829 0.812899 0
M  V30 21957 H 2070.34 -6.3839 1.31534 0
M  V30 21958 N 2073.77 -1.32722 -0.849853 0
M  V30 21959 C 2075.02 -1.23739 -1.60675 0
M  V30 21960 C 2075.35 0.199183 -1.93176 0
M  V30 21961 O 2074.63 1.13761 -1.57761 0
M  V30 21962 C 2074.91 -2.10183 -2.92395 0
M  V30 21963 C 2074.76 -3.62243 -2.66646 0
M  V30 21964 C 2076.08 -1.96664 -3.93715 0
M  V30 21965 H 2073.2 -0.45085 -0.583013 0
M  V30 21966 H 2075.84 -1.62716 -0.980999 0
M  V30 21967 H 2073.99 -1.77072 -3.458 0
M  V30 21968 H 2075.67 -4.05591 -2.19758 0
M  V30 21969 H 2073.91 -3.8467 -2.00529 0
M  V30 21970 H 2074.58 -4.1806 -3.60458 0
M  V30 21971 H 2077.06 -2.25679 -3.49583 0
M  V30 21972 H 2075.93 -2.59417 -4.83729 0
M  V30 21973 H 2076.19 -0.935664 -4.32085 0
M  V30 21974 N 2075.25 1.06673 -1.16011 0
M  V30 21975 C 2076.22 2.12223 -0.865686 0
M  V30 21976 C 2077.22 1.6021 0.137621 0
M  V30 21977 O 2078.41 1.73953 -0.0928217 0
M  V30 21978 C 2075.54 3.39631 -0.293865 0
M  V30 21979 H 2076.73 2.39774 -1.80134 0
M  V30 21980 H 2074.28 1.22675 -0.968529 0
M  V30 21981 H 2075.02 3.17726 0.649656 0
M  V30 21982 H 2074.8 3.78688 -1.01676 0
M  V30 21983 H 2076.29 4.17466 -0.105682 0
M  V30 21984 N 2076.73 0.957992 1.25141 0
M  V30 21985 C 2077.69 0.485333 2.24003 0
M  V30 21986 C 2078.69 -0.412817 1.55411 0
M  V30 21987 O 2079.88 -0.209635 1.72934 0
M  V30 21988 C 2077.02 -0.298362 3.39592 0
M  V30 21989 H 2078.21 1.35918 2.67332 0
M  V30 21990 H 2075.76 0.741602 1.37586 0
M  V30 21991 H 2076.5 -1.18973 3.01688 0
M  V30 21992 H 2076.28 0.346033 3.9057 0
M  V30 21993 H 2077.77 -0.618412 4.12996 0
M  V30 21994 N 2078.21 -1.39832 0.726957 0
M  V30 21995 C 2079.17 -2.29022 0.0903329 0
M  V30 21996 C 2080.17 -1.45921 -0.675553 0
M  V30 21997 O 2081.36 -1.66696 -0.505765 0
M  V30 21998 C 2078.49 -3.29304 -0.881584 0
M  V30 21999 H 2079.69 -2.86821 0.87601 0
M  V30 22000 H 2077.24 -1.48345 0.492294 0
M  V30 22001 H 2077.97 -2.76545 -1.69391 0
M  V30 22002 H 2077.76 -3.90665 -0.33514 0
M  V30 22003 H 2079.25 -3.96061 -1.32384 0
M  V30 22004 N 2079.69 -0.473982 -1.50304 0
M  V30 22005 C 2080.6 0.323933 -2.32353 0
M  V30 22006 C 2081.61 0.993251 -1.42865 0
M  V30 22007 O 2082.79 0.980589 -1.75916 0
M  V30 22008 C 2079.85 1.38999 -3.17616 0
M  V30 22009 C 2078.91 0.736965 -4.22927 0
M  V30 22010 C 2078.15 1.75223 -5.04116 0
M  V30 22011 O 2078.37 2.97908 -4.86423 0
M  V30 22012 O 2077.3 1.32246 -5.87192 0
M  V30 22013 H 2081.13 -0.346913 -3.01712 0
M  V30 22014 H 2078.72 -0.235777 -1.47528 0
M  V30 22015 H 2080.6 2.00742 -3.70514 0
M  V30 22016 H 2079.27 2.04425 -2.50982 0
M  V30 22017 H 2078.18 0.0805047 -3.74013 0
M  V30 22018 H 2079.51 0.125602 -4.9204 0
M  V30 22019 N 2081.16 1.56239 -0.206702 0
M  V30 22020 C 2082.58 1.58903 0.148953 0
M  V30 22021 C 2082.78 1.22319 1.60126 0
M  V30 22022 O 2081.84 0.951402 2.3389 0
M  V30 22023 C 2083.15 3.00253 -0.163906 0
M  V30 22024 C 2084.7 3.12824 -0.104945 0
M  V30 22025 C 2085.17 4.56326 -0.391273 0
M  V30 22026 N 2086.66 4.61948 -0.340308 0
M  V30 22027 C 2087.4 5.70894 -0.535549 0
M  V30 22028 N 2086.89 6.88261 -0.791765 0
M  V30 22029 N 2088.69 5.6014 -0.469005 0
M  V30 22030 H 2080.84 1.78298 -1.15428 0
M  V30 22031 H 2083.1 0.828039 -0.46158 0
M  V30 22032 H 2082.81 3.31621 -1.17133 0
M  V30 22033 H 2082.68 3.73485 0.528093 0
M  V30 22034 H 2085.07 2.81261 0.893101 0
M  V30 22035 H 2085.15 2.41953 -0.830197 0
M  V30 22036 H 2084.79 4.88603 -1.38669 0
M  V30 22037 H 2084.72 5.25402 0.355001 0
M  V30 22038 H 2087.21 3.77605 -0.149364 0
M  V30 22039 H 2087.53 7.67193 -0.929241 0
M  V30 22040 H 2085.87 6.90041 -0.828792 0
M  V30 22041 H 2089.06 4.67325 -0.269173 0
M  V30 22042 H 2089.24 6.44983 -0.624576 0
M  V30 22043 N 2082.64 -0.0668159 1.57458 0
M  V30 22044 C 2084.06 -0.421716 1.53928 0
M  V30 22045 C 2084.26 -1.78879 0.927602 0
M  V30 22046 O 2083.31 -2.46826 0.532256 0
M  V30 22047 C 2084.63 -0.358209 2.98559 0
M  V30 22048 C 2086.18 -0.438036 3.0992 0
M  V30 22049 C 2086.65 -0.404384 4.56211 0
M  V30 22050 N 2088.14 -0.464311 4.60867 0
M  V30 22051 C 2088.88 -0.460566 5.71547 0
M  V30 22052 N 2088.37 -0.41134 6.91578 0
M  V30 22053 N 2090.17 -0.507495 5.59804 0
M  V30 22054 H 2082.32 0.828281 1.95584 0
M  V30 22055 H 2084.58 0.311307 0.895428 0
M  V30 22056 H 2084.29 0.579727 3.46889 0
M  V30 22057 H 2084.16 -1.16651 3.58709 0
M  V30 22058 H 2086.55 -1.3664 2.6156 0
M  V30 22059 H 2086.63 0.398926 2.5267 0
M  V30 22060 H 2086.27 0.520148 5.0523 0
M  V30 22061 H 2086.2 -1.25895 5.1133 0
M  V30 22062 H 2088.69 -0.506402 3.74492 0
M  V30 22063 H 2089.01 -0.412545 7.71698 0
M  V30 22064 H 2087.35 -0.377953 6.93972 0
M  V30 22065 H 2090.54 -0.543679 4.64932 0
M  V30 22066 H 2090.71 -0.501107 6.4606 0
M  V30 22067 N 2084.12 -1.53926 -0.338317 0
M  V30 22068 C 2085.07 -1.8228 -1.41572 0
M  V30 22069 C 2086.04 -0.668853 -1.52038 0
M  V30 22070 O 2087.22 -0.913813 -1.67494 0
M  V30 22071 C 2084.36 -2.04273 -2.78148 0
M  V30 22072 C 2083.48 -3.31978 -2.76432 0
M  V30 22073 C 2082.61 -3.44011 -4.04759 0
M  V30 22074 C 2081.65 -4.65646 -3.97292 0
M  V30 22075 N 2080.79 -4.74683 -5.1732 0
M  V30 22076 H 2085.63 -2.74202 -1.16692 0
M  V30 22077 H 2083.16 -1.35809 -0.565173 0
M  V30 22078 H 2085.12 -2.15014 -3.57526 0
M  V30 22079 H 2083.75 -1.15659 -3.01368 0
M  V30 22080 H 2082.8 -3.30052 -1.89129 0
M  V30 22081 H 2084.12 -4.21454 -2.66792 0
M  V30 22082 H 2083.27 -3.54213 -4.92563 0
M  V30 22083 H 2082.01 -2.52601 -4.17186 0
M  V30 22084 H 2081.01 -4.55516 -3.07873 0
M  V30 22085 H 2082.24 -5.58425 -3.86443 0
M  V30 22086 H 2080.19 -3.86184 -5.30281 0
M  V30 22087 H 2080.1 -5.58103 -5.09958 0
M  V30 22088 H 2081.37 -4.89201 -6.0688 0
M  V30 22089 N 2085.6 0.599608 -1.45748 0
M  V30 22090 C 2087.02 0.921212 -1.3033 0
M  V30 22091 C 2087.22 1.99787 -0.262213 0
M  V30 22092 O 2086.27 2.50186 0.34109 0
M  V30 22093 C 2087.58 1.35457 -2.68462 0
M  V30 22094 C 2089.13 1.46835 -2.76421 0
M  V30 22095 C 2089.61 1.93544 -4.15096 0
M  V30 22096 N 2091.1 2.00765 -4.1743 0
M  V30 22097 C 2091.83 2.38145 -5.21608 0
M  V30 22098 N 2091.33 2.74437 -6.36126 0
M  V30 22099 N 2093.12 2.38554 -5.08968 0
M  V30 22100 H 2085.27 -0.111892 -2.12105 0
M  V30 22101 H 2087.54 0.0126042 -0.947916 0
M  V30 22102 H 2087.24 0.63759 -3.45872 0
M  V30 22103 H 2087.12 2.31951 -2.97453 0
M  V30 22104 H 2089.5 2.17623 -1.99309 0
M  V30 22105 H 2089.58 0.486356 -2.51134 0
M  V30 22106 H 2089.23 1.2334 -4.92696 0
M  V30 22107 H 2089.16 2.92672 -4.3778 0
M  V30 22108 H 2091.65 1.75275 -3.34794 0
M  V30 22109 H 2091.96 3.01865 -7.11405 0
M  V30 22110 H 2090.31 2.72115 -6.39514 0
M  V30 22111 H 2093.5 2.09612 -4.18546 0
M  V30 22112 H 2093.67 2.67359 -5.90274 0
M  V30 22113 N 2087.08 1.33171 0.842803 0
M  V30 22114 C 2087.99 1.25124 1.98447 0
M  V30 22115 C 2089 0.162551 1.73239 0
M  V30 22116 O 2090.18 0.385417 1.97678 0
M  V30 22117 C 2087.24 0.9866 3.32366 0
M  V30 22118 C 2086.31 2.16491 3.70716 0
M  V30 22119 C 2085.54 1.9128 4.98245 0
M  V30 22120 O 2085.76 0.861174 5.63862 0
M  V30 22121 O 2084.7 2.77708 5.34005 0
M  V30 22122 H 2088.52 2.21126 2.08175 0
M  V30 22123 H 2086.11 1.13178 0.975243 0
M  V30 22124 H 2087.99 0.856003 4.12614 0
M  V30 22125 H 2086.66 0.0568283 3.2365 0
M  V30 22126 H 2085.57 2.35103 2.90994 0
M  V30 22127 H 2086.9 3.07788 3.84093 0
M  V30 22128 N 2088.56 -1.06056 1.16576 0
M  V30 22129 C 2089.47 -2.17107 0.888912 0
M  V30 22130 C 2090.48 -1.73438 -0.139723 0
M  V30 22131 O 2091.66 -2.01365 0.0374846 0
M  V30 22132 C 2088.72 -3.44425 0.396494 0
M  V30 22133 C 2087.78 -4.02589 1.49065 0
M  V30 22134 C 2087.02 -5.2383 1.02163 0
M  V30 22135 O 2087.24 -5.70257 -0.127684 0
M  V30 22136 O 2086.17 -5.7401 1.81098 0
M  V30 22137 H 2090 -2.43304 1.81761 0
M  V30 22138 H 2087.58 -1.1564 0.945923 0
M  V30 22139 H 2089.47 -4.21203 0.128983 0
M  V30 22140 H 2088.14 -3.1975 -0.504164 0
M  V30 22141 H 2087.05 -3.27292 1.81193 0
M  V30 22142 H 2088.38 -4.31565 2.3667 0
M  V30 22143 N 2090.03 -0.964615 -1.24631 0
M  V30 22144 C 2090.98 -0.463395 -2.23241 0
M  V30 22145 C 2091.97 0.452893 -1.54395 0
M  V30 22146 O 2093.16 0.284318 -1.74702 0
M  V30 22147 C 2090.29 0.248095 -3.42402 0
M  V30 22148 C 2089.37 -0.686842 -4.18501 0
M  V30 22149 N 2089.77 -1.82277 -4.71814 0
M  V30 22150 C 2088.06 -0.497011 -4.43222 0
M  V30 22151 C 2088.76 -2.40731 -5.2955 0
M  V30 22152 N 2087.74 -1.69279 -5.16571 0
M  V30 22153 H 2091.54 -1.33017 -2.62076 0
M  V30 22154 H 2089.06 -0.823324 -1.39983 0
M  V30 22155 H 2091.05 0.62437 -4.12198 0
M  V30 22156 H 2089.71 1.11135 -3.05089 0
M  V30 22157 H 2090.72 -2.20439 -4.68644 0
M  V30 22158 H 2087.4 0.322534 -4.16252 0
M  V30 22159 H 2088.79 -3.36573 -5.81522 0
M  V30 22160 N 2091.51 1.39445 -0.734362 0
M  V30 22161 C 2092.44 2.29135 -0.0543743 0
M  V30 22162 C 2093.46 1.46785 0.704126 0
M  V30 22163 O 2094.65 1.69867 0.548394 0
M  V30 22164 C 2091.75 3.25393 0.947229 0
M  V30 22165 C 2090.92 4.36683 0.250381 0
M  V30 22166 C 2089.98 5.13255 1.16 0
M  V30 22167 O 2089 5.65616 0.637723 0
M  V30 22168 N 2090.21 5.24396 2.48976 0
M  V30 22169 H 2092.97 2.88134 -0.824567 0
M  V30 22170 H 2090.53 1.51018 -0.583531 0
M  V30 22171 H 2092.52 3.73494 1.55834 0
M  V30 22172 H 2091.09 2.6743 1.61863 0
M  V30 22173 H 2090.31 3.90467 -0.5412 0
M  V30 22174 H 2091.6 5.08268 -0.232571 0
M  V30 22175 H 2091 4.83371 2.93885 0
M  V30 22176 H 2089.56 5.75939 3.05185 0
M  V30 22177 N 2092.99 0.481946 1.5005 0
M  V30 22178 C 2094.41 0.13674 1.59013 0
M  V30 22179 C 2094.61 -1.35753 1.48908 0
M  V30 22180 O 2093.66 -2.1318 1.35316 0
M  V30 22181 C 2094.97 0.696597 2.9252 0
M  V30 22182 C 2096.52 0.660993 3.05941 0
M  V30 22183 C 2097 1.19858 4.42038 0
M  V30 22184 N 2098.49 1.15846 4.4848 0
M  V30 22185 C 2099.22 1.54481 5.52199 0
M  V30 22186 N 2098.72 2.00617 6.63117 0
M  V30 22187 N 2100.51 1.46016 5.42804 0
M  V30 22188 H 2092.66 1.45367 1.54862 0
M  V30 22189 H 2094.93 0.601814 0.732478 0
M  V30 22190 H 2094.63 1.74381 3.05425 0
M  V30 22191 H 2094.51 0.146249 3.76916 0
M  V30 22192 H 2096.89 -0.377335 2.92678 0
M  V30 22193 H 2096.97 1.24827 2.23275 0
M  V30 22194 H 2096.62 2.2356 4.56052 0
M  V30 22195 H 2096.55 0.587419 5.23313 0
M  V30 22196 H 2099.04 0.820197 3.68892 0
M  V30 22197 H 2099.35 2.28217 7.38334 0
M  V30 22198 H 2097.7 2.04578 6.64209 0
M  V30 22199 H 2100.89 1.09805 4.55039 0
M  V30 22200 H 2101.06 1.7645 6.23514 0
M  V30 22201 N 2094.47 -1.56127 0.214985 0
M  V30 22202 C 2095.71 -1.99176 -0.412386 0
M  V30 22203 C 2096.07 -1.10004 -1.57851 0
M  V30 22204 O 2095.36 -0.148599 -1.91023 0
M  V30 22205 C 2095.56 -3.45828 -0.902084 0
M  V30 22206 C 2095.38 -4.49186 0.215047 0
M  V30 22207 C 2094.15 -5.00713 0.679276 0
M  V30 22208 C 2096.35 -5.0386 1.03102 0
M  V30 22209 N 2094.33 -5.87765 1.77215 0
M  V30 22210 C 2095.71 -5.87773 1.97289 0
M  V30 22211 C 2097.76 -4.8624 1.0712 0
M  V30 22212 C 2096.46 -6.5595 2.95165 0
M  V30 22213 C 2098.49 -5.55171 2.03811 0
M  V30 22214 C 2097.85 -6.38847 2.96738 0
M  V30 22215 H 2093.95 -0.773083 -0.117759 0
M  V30 22216 H 2096.53 -1.91964 0.325249 0
M  V30 22217 H 2094.71 -3.535 -1.6091 0
M  V30 22218 H 2096.44 -3.75806 -1.50172 0
M  V30 22219 H 2093.19 -4.72835 0.269042 0
M  V30 22220 H 2093.62 -6.35993 2.32039 0
M  V30 22221 H 2098.26 -4.21207 0.366691 0
M  V30 22222 H 2095.98 -7.20169 3.66581 0
M  V30 22223 H 2099.56 -5.43507 2.07585 0
M  V30 22224 H 2098.44 -6.91246 3.70336 0
M  V30 22225 N 2095.95 0.0584645 -1.57492 0
M  V30 22226 C 2097.18 0.766524 -1.91854 0
M  V30 22227 C 2097.58 1.70962 -0.810481 0
M  V30 22228 O 2096.93 1.82328 0.224122 0
M  V30 22229 C 2096.99 1.60277 -3.21794 0
M  V30 22230 C 2096.65 0.827629 -4.49443 0
M  V30 22231 C 2097.65 0.140903 -5.19709 0
M  V30 22232 C 2095.33 0.790858 -4.96035 0
M  V30 22233 C 2097.33 -0.572217 -6.34826 0
M  V30 22234 C 2095.02 0.0739737 -6.11055 0
M  V30 22235 C 2096.01 -0.606351 -6.80303 0
M  V30 22236 O 2095.7 -1.31166 -7.93127 0
M  V30 22237 H 2095.43 0.222315 -0.638398 0
M  V30 22238 H 2097.99 0.0289713 -2.0538 0
M  V30 22239 H 2096.22 2.38344 -3.04514 0
M  V30 22240 H 2097.91 2.19073 -3.41705 0
M  V30 22241 H 2098.67 0.160531 -4.84734 0
M  V30 22242 H 2094.55 1.30987 -4.41999 0
M  V30 22243 H 2098.1 -1.10379 -6.88812 0
M  V30 22244 H 2093.99 0.0523191 -6.45479 0
M  V30 22245 H 2094.76 -1.2223 -8.09322 0
M  V30 22246 N 2097.42 1.54103 0.330149 0
M  V30 22247 C 2098.33 1.86042 1.42918 0
M  V30 22248 C 2099.35 0.75174 1.56923 0
M  V30 22249 O 2100.53 1.04538 1.72145 0
M  V30 22250 C 2097.59 2.07533 2.77724 0
M  V30 22251 C 2096.65 3.31356 2.7295 0
M  V30 22252 C 2095.88 3.51812 4.01328 0
M  V30 22253 O 2096.11 2.75838 4.99269 0
M  V30 22254 O 2095.04 4.45275 4.04986 0
M  V30 22255 H 2098.87 2.79483 1.18839 0
M  V30 22256 H 2096.45 1.39925 0.523569 0
M  V30 22257 H 2098.33 2.23037 3.57537 0
M  V30 22258 H 2097.01 1.1728 3.01707 0
M  V30 22259 H 2095.92 3.21243 1.91712 0
M  V30 22260 H 2097.25 4.21645 2.53922 0
M  V30 22261 N 2098.9 -0.59187 1.46064 0
M  V30 22262 C 2099.85 -1.70158 1.55933 0
M  V30 22263 C 2100.82 -1.61107 0.404181 0
M  V30 22264 O 2102 -1.80455 0.619725 0
M  V30 22265 C 2099.14 -3.08488 1.5469 0
M  V30 22266 C 2098.26 -3.2823 2.80872 0
M  V30 22267 C 2097.39 -4.56757 2.71195 0
M  V30 22268 C 2096.43 -4.6981 3.92358 0
M  V30 22269 N 2095.57 -5.89653 3.81121 0
M  V30 22270 H 2100.41 -1.61059 2.50727 0
M  V30 22271 H 2097.95 -0.785101 1.24397 0
M  V30 22272 H 2099.9 -3.88542 1.51956 0
M  V30 22273 H 2098.53 -3.16506 0.634355 0
M  V30 22274 H 2097.59 -2.41843 2.93626 0
M  V30 22275 H 2098.9 -3.33745 3.70696 0
M  V30 22276 H 2098.05 -5.45027 2.66515 0
M  V30 22277 H 2096.79 -4.53665 1.78996 0
M  V30 22278 H 2095.8 -3.7996 3.9738 0
M  V30 22279 H 2097.02 -4.74688 4.85642 0
M  V30 22280 H 2094.97 -5.87576 2.91702 0
M  V30 22281 H 2094.88 -5.96397 4.64593 0
M  V30 22282 H 2096.15 -6.80379 3.80401 0
M  V30 22283 N 2100.38 -1.33616 -0.835729 0
M  V30 22284 C 2101.29 -1.26175 -1.9778 0
M  V30 22285 C 2102.31 -0.171736 -1.7315 0
M  V30 22286 O 2103.48 -0.395895 -1.97471 0
M  V30 22287 C 2100.55 -1.00421 -3.31838 0
M  V30 22288 C 2099.61 -2.18454 -3.69563 0
M  V30 22289 C 2098.84 -1.93919 -4.97223 0
M  V30 22290 O 2099.06 -0.891065 -5.63397 0
M  V30 22291 O 2098 -2.80536 -5.32525 0
M  V30 22292 H 2101.82 -2.22227 -2.07 0
M  V30 22293 H 2099.41 -1.13694 -0.969228 0
M  V30 22294 H 2101.29 -0.877873 -4.12155 0
M  V30 22295 H 2099.97 -0.0739914 -3.23615 0
M  V30 22296 H 2098.87 -2.36642 -2.89743 0
M  V30 22297 H 2100.21 -3.09821 -3.82455 0
M  V30 22298 N 2101.86 1.05436 -1.17136 0
M  V30 22299 C 2102.81 2.13124 -0.885828 0
M  V30 22300 C 2103.78 1.65235 0.169267 0
M  V30 22301 O 2104.96 1.90772 0.032594 0
M  V30 22302 C 2102.1 3.42744 -0.40256 0
M  V30 22303 C 2101.21 4.0432 -1.52149 0
M  V30 22304 C 2100.35 5.21849 -0.992347 0
M  V30 22305 C 2099.39 5.75426 -2.08689 0
M  V30 22306 N 2098.52 6.84259 -1.5727 0
M  V30 22307 H 2103.36 2.36887 -1.808 0
M  V30 22308 H 2100.9 1.16215 -0.901798 0
M  V30 22309 H 2102.86 4.17071 -0.10394 0
M  V30 22310 H 2101.49 3.19171 0.482653 0
M  V30 22311 H 2100.54 3.27456 -1.93589 0
M  V30 22312 H 2101.85 4.40127 -2.34711 0
M  V30 22313 H 2101.01 6.03236 -0.647426 0
M  V30 22314 H 2099.75 4.8751 -0.13613 0
M  V30 22315 H 2098.75 4.9267 -2.44041 0
M  V30 22316 H 2099.98 6.11813 -2.94722 0
M  V30 22317 H 2097.92 6.51822 -0.739158 0
M  V30 22318 H 2097.84 7.19055 -2.33442 0
M  V30 22319 H 2099.11 7.69304 -1.25663 0
M  V30 22320 N 2103.34 0.971211 1.24118 0
M  V30 22321 C 2104.3 0.509064 2.23475 0
M  V30 22322 C 2105.3 -0.39631 1.5584 0
M  V30 22323 O 2106.49 -0.191281 1.73147 0
M  V30 22324 C 2103.62 -0.262327 3.39889 0
M  V30 22325 H 2104.81 1.38746 2.65875 0
M  V30 22326 H 2102.37 0.756154 1.36792 0
M  V30 22327 H 2103.1 -1.15767 3.02933 0
M  V30 22328 H 2102.89 0.387439 3.90181 0
M  V30 22329 H 2104.38 -0.574574 4.13628 0
M  V30 22330 N 2104.81 -1.39054 0.741747 0
M  V30 22331 C 2106.23 -1.54028 0.418052 0
M  V30 22332 C 2106.43 -1.70725 -1.07029 0
M  V30 22333 O 2105.49 -1.71155 -1.8564 0
M  V30 22334 C 2106.8 -2.75414 1.20697 0
M  V30 22335 C 2108.35 -2.89254 1.19586 0
M  V30 22336 C 2108.82 -4.13587 1.96748 0
M  V30 22337 N 2110.31 -4.2064 1.93948 0
M  V30 22338 C 2111.05 -5.15809 2.50456 0
M  V30 22339 N 2110.54 -6.16725 3.15629 0
M  V30 22340 N 2112.34 -5.08074 2.40452 0
M  V30 22341 H 2104.49 -1.26464 1.70648 0
M  V30 22342 H 2106.75 -0.613446 0.722764 0
M  V30 22343 H 2106.46 -2.69441 2.26041 0
M  V30 22344 H 2106.33 -3.6827 0.815905 0
M  V30 22345 H 2108.72 -2.94716 0.150521 0
M  V30 22346 H 2108.8 -1.97443 1.62635 0
M  V30 22347 H 2108.44 -4.08887 3.01287 0
M  V30 22348 H 2108.37 -5.04456 1.51102 0
M  V30 22349 H 2110.86 -3.48358 1.46475 0
M  V30 22350 H 2111.18 -6.85816 3.56197 0
M  V30 22351 H 2109.52 -6.17093 3.19721 0
M  V30 22352 H 2112.71 -4.28172 1.89174 0
M  V30 22353 H 2112.89 -5.82065 2.84788 0
M  V30 22354 N 2106.29 -0.489897 -1.49792 0
M  V30 22355 C 2107.22 0.283966 -2.31767 0
M  V30 22356 C 2108.2 0.972934 -1.39528 0
M  V30 22357 O 2109.39 0.966482 -1.68442 0
M  V30 22358 C 2106.52 1.35538 -3.19761 0
M  V30 22359 C 2105.47 0.786932 -4.20703 0
M  V30 22360 C 2104.8 1.95803 -4.97559 0
M  V30 22361 C 2106.1 -0.214528 -5.21859 0
M  V30 22362 H 2107.79 -0.40025 -2.96713 0
M  V30 22363 H 2105.34 -0.193932 -1.42688 0
M  V30 22364 H 2107.29 1.90438 -3.75914 0
M  V30 22365 H 2106.02 2.06862 -2.52736 0
M  V30 22366 H 2104.67 0.259755 -3.65679 0
M  V30 22367 H 2104.32 2.65871 -4.26992 0
M  V30 22368 H 2104.02 1.58381 -5.65853 0
M  V30 22369 H 2105.55 2.51159 -5.56553 0
M  V30 22370 H 2106.96 0.245954 -5.72772 0
M  V30 22371 H 2105.36 -0.504002 -5.9798 0
M  V30 22372 H 2106.43 -1.13417 -4.71449 0
M  V30 22373 N 2107.77 1.56011 -0.223262 0
M  V30 22374 C 2108.68 2.23993 0.697454 0
M  V30 22375 C 2109.7 1.24812 1.21235 0
M  V30 22376 O 2110.87 1.57629 1.2536 0
M  V30 22377 C 2107.94 2.90786 1.88797 0
M  V30 22378 C 2107 4.05314 1.41489 0
M  V30 22379 C 2106.23 4.68913 2.54866 0
M  V30 22380 O 2106.45 4.31505 3.73041 0
M  V30 22381 O 2105.39 5.57872 2.2597 0
M  V30 22382 H 2109.21 3.03338 0.148324 0
M  V30 22383 H 2106.8 1.49398 0.00725836 0
M  V30 22384 H 2108.68 3.32939 2.5832 0
M  V30 22385 H 2107.36 2.144 2.42517 0
M  V30 22386 H 2106.26 3.67726 0.687623 0
M  V30 22387 H 2107.6 4.83448 0.924045 0
M  V30 22388 N 2109.25 -0.0501116 1.5752 0
M  V30 22389 C 2110.16 -1.07459 2.08542 0
M  V30 22390 C 2111.17 -1.41006 1.01947 0
M  V30 22391 O 2112.35 -1.50749 1.33555 0
M  V30 22392 C 2109.42 -2.36274 2.53723 0
M  V30 22393 C 2108.48 -2.095 3.74711 0
M  V30 22394 C 2107.71 -3.32174 4.17728 0
M  V30 22395 O 2107.93 -4.42091 3.60432 0
M  V30 22396 O 2106.87 -3.1911 5.10346 0
M  V30 22397 H 2110.69 -0.671065 2.96193 0
M  V30 22398 H 2108.28 -0.265709 1.47018 0
M  V30 22399 H 2110.16 -3.12043 2.83208 0
M  V30 22400 H 2108.83 -2.75963 1.69192 0
M  V30 22401 H 2107.74 -1.31366 3.50277 0
M  V30 22402 H 2109.07 -1.74679 4.60161 0
M  V30 22403 N 2110.73 -1.54276 -0.321972 0
M  V30 22404 C 2111.64 -1.86797 -1.41929 0
M  V30 22405 C 2112.65 -0.760051 -1.56522 0
M  V30 22406 O 2113.83 -1.0545 -1.71588 0
M  V30 22407 C 2110.89 -2.09003 -2.7662 0
M  V30 22408 C 2109.95 -3.32799 -2.71189 0
M  V30 22409 C 2109.19 -3.53936 -3.99456 0
M  V30 22410 O 2109.41 -2.78482 -4.97799 0
M  V30 22411 O 2108.34 -4.47417 -4.02619 0
M  V30 22412 H 2112.17 -2.8011 -1.17355 0
M  V30 22413 H 2109.76 -1.40201 -0.516141 0
M  V30 22414 H 2111.64 -2.2493 -3.56349 0
M  V30 22415 H 2110.31 -1.18879 -3.01081 0
M  V30 22416 H 2109.22 -3.22256 -1.90006 0
M  V30 22417 H 2110.55 -4.22986 -2.51683 0
M  V30 22418 N 2112.2 0.584116 -1.46376 0
M  V30 22419 C 2113.62 0.907336 -1.313 0
M  V30 22420 C 2113.82 1.99497 -0.283388 0
M  V30 22421 O 2112.88 2.50533 0.314536 0
M  V30 22422 C 2114.19 1.32602 -2.69883 0
M  V30 22423 C 2115.74 1.43895 -2.77963 0
M  V30 22424 C 2116.21 1.89131 -4.17125 0
M  V30 22425 N 2117.7 1.96326 -4.19536 0
M  V30 22426 C 2118.44 2.32599 -5.24104 0
M  V30 22427 N 2117.93 2.67675 -6.39001 0
M  V30 22428 N 2119.73 2.33142 -5.1147 0
M  V30 22429 H 2111.88 -0.134382 -2.11974 0
M  V30 22430 H 2114.14 0.00254953 -0.947997 0
M  V30 22431 H 2113.85 0.600869 -3.46529 0
M  V30 22432 H 2113.72 2.28783 -2.99897 0
M  V30 22433 H 2116.11 2.15497 -2.01606 0
M  V30 22434 H 2116.19 0.459692 -2.51636 0
M  V30 22435 H 2115.83 1.18108 -4.93977 0
M  V30 22436 H 2115.76 2.88012 -4.40859 0
M  V30 22437 H 2118.25 1.71715 -3.36634 0
M  V30 22438 H 2118.57 2.94302 -7.14567 0
M  V30 22439 H 2116.91 2.65317 -6.42364 0
M  V30 22440 H 2120.1 2.05161 -4.20745 0
M  V30 22441 H 2120.28 2.61083 -5.93077 0
M  V30 22442 N 2113.68 1.34058 0.828631 0
M  V30 22443 C 2114.59 1.27222 1.97109 0
M  V30 22444 C 2115.61 0.180917 1.73057 0
M  V30 22445 O 2116.79 0.406362 1.97258 0
M  V30 22446 C 2113.85 1.0218 3.31301 0
M  V30 22447 C 2112.91 2.2041 3.68399 0
M  V30 22448 C 2112.14 1.96553 4.96188 0
M  V30 22449 O 2112.37 0.920931 5.62917 0
M  V30 22450 O 2111.3 2.83356 5.3103 0
M  V30 22451 H 2115.13 2.23322 2.05818 0
M  V30 22452 H 2112.71 1.14206 0.963184 0
M  V30 22453 H 2114.59 0.899718 4.11683 0
M  V30 22454 H 2113.27 0.0911525 3.23572 0
M  V30 22455 H 2112.18 2.38176 2.88484 0
M  V30 22456 H 2113.51 3.11845 3.80807 0
M  V30 22457 N 2115.16 -1.04814 1.17694 0
M  V30 22458 C 2116.58 -1.3006 0.925018 0
M  V30 22459 C 2116.78 -1.97207 -0.4137 0
M  V30 22460 O 2115.83 -2.24802 -1.14979 0
M  V30 22461 C 2117.15 -2.16666 2.0851 0
M  V30 22462 C 2118.69 -2.30036 2.12256 0
M  V30 22463 C 2119.17 -3.20004 3.27661 0
M  V30 22464 N 2120.66 -3.2759 3.27473 0
M  V30 22465 C 2121.4 -3.97339 4.13412 0
M  V30 22466 N 2120.89 -4.69483 5.09468 0
M  V30 22467 N 2122.68 -3.93542 4.01349 0
M  V30 22468 H 2114.84 -0.596316 2.03857 0
M  V30 22469 H 2117.1 -0.325581 0.890338 0
M  V30 22470 H 2116.8 -1.74624 3.05286 0
M  V30 22471 H 2116.68 -3.17317 2.03936 0
M  V30 22472 H 2119.07 -2.71318 1.16063 0
M  V30 22473 H 2119.15 -1.29001 2.2089 0
M  V30 22474 H 2118.79 -2.79435 4.24121 0
M  V30 22475 H 2118.72 -4.21053 3.16263 0
M  V30 22476 H 2121.21 -2.76191 2.57928 0
M  V30 22477 H 2121.52 -5.20277 5.7143 0
M  V30 22478 H 2119.87 -4.68413 5.13434 0
M  V30 22479 H 2123.06 -3.36308 3.25599 0
M  V30 22480 H 2123.23 -4.4763 4.68542 0
M  V30 22481 N 2116.64 -0.977779 -1.23601 0
M  V30 22482 C 2117.59 -0.51555 -2.24968 0
M  V30 22483 C 2118.56 0.4442 -1.6005 0
M  V30 22484 O 2119.74 0.352328 -1.87519 0
M  V30 22485 C 2116.88 0.17842 -3.44638 0
M  V30 22486 C 2115.99 -0.821283 -4.24121 0
M  V30 22487 C 2115.13 -0.102387 -5.31101 0
M  V30 22488 C 2114.17 -1.09148 -6.0229 0
M  V30 22489 N 2113.31 -0.401914 -7.00949 0
M  V30 22490 H 2118.15 -1.38475 -2.63872 0
M  V30 22491 H 2115.68 -0.693946 -1.29703 0
M  V30 22492 H 2117.64 0.597555 -4.12898 0
M  V30 22493 H 2116.27 1.01151 -3.06543 0
M  V30 22494 H 2115.32 -1.35882 -3.55303 0
M  V30 22495 H 2116.63 -1.5751 -4.73278 0
M  V30 22496 H 2115.79 0.374242 -6.05545 0
M  V30 22497 H 2114.53 0.684048 -4.82879 0
M  V30 22498 H 2113.53 -1.57889 -5.26641 0
M  V30 22499 H 2114.76 -1.87853 -6.52601 0
M  V30 22500 H 2112.7 0.365361 -6.54982 0
M  V30 22501 H 2112.62 -1.09443 -7.48036 0
M  V30 22502 H 2113.89 0.0524137 -7.79482 0
M  V30 22503 N 2118.12 1.38658 -0.749111 0
M  V30 22504 C 2119.53 1.53804 -0.426214 0
M  V30 22505 C 2119.73 1.7129 1.06122 0
M  V30 22506 O 2118.79 1.72138 1.84729 0
M  V30 22507 C 2120.1 2.7477 -1.22155 0
M  V30 22508 C 2121.65 2.88616 -1.21118 0
M  V30 22509 C 2122.13 4.12538 -1.98939 0
M  V30 22510 N 2123.62 4.19606 -1.96176 0
M  V30 22511 C 2124.35 5.14474 -2.53188 0
M  V30 22512 N 2123.85 6.15043 -3.18895 0
M  V30 22513 N 2125.64 5.06792 -2.43143 0
M  V30 22514 H 2117.79 1.25557 -1.71316 0
M  V30 22515 H 2120.05 0.609604 -0.726008 0
M  V30 22516 H 2119.76 2.68239 -2.27466 0
M  V30 22517 H 2119.63 3.67832 -0.835424 0
M  V30 22518 H 2122.02 2.94632 -0.166149 0
M  V30 22519 H 2122.1 1.96577 -1.63679 0
M  V30 22520 H 2121.75 4.07284 -3.03451 0
M  V30 22521 H 2121.68 5.03648 -1.53775 0
M  V30 22522 H 2124.17 3.47577 -1.4832 0
M  V30 22523 H 2124.48 6.83917 -3.59829 0
M  V30 22524 H 2122.83 6.15389 -3.22989 0
M  V30 22525 H 2126.02 4.27162 -1.91442 0
M  V30 22526 H 2126.19 5.80546 -2.87871 0
M  V30 22527 N 2119.6 0.497834 1.49531 0
M  V30 22528 C 2121.01 0.153598 1.58859 0
M  V30 22529 C 2121.21 -1.34166 1.50339 0
M  V30 22530 O 2120.27 -2.11733 1.37569 0
M  V30 22531 C 2121.58 0.727583 2.91765 0
M  V30 22532 C 2123.13 0.693405 3.05223 0
M  V30 22533 C 2123.6 1.2454 4.40742 0
M  V30 22534 N 2125.09 1.20596 4.47226 0
M  V30 22535 C 2125.83 1.60329 5.50529 0
M  V30 22536 N 2125.33 2.07639 6.60952 0
M  V30 22537 N 2127.12 1.51765 5.41224 0
M  V30 22538 H 2119.27 1.47001 1.53312 0
M  V30 22539 H 2121.53 0.609549 0.726054 0
M  V30 22540 H 2121.24 1.77611 3.03558 0
M  V30 22541 H 2121.11 0.186218 3.7674 0
M  V30 22542 H 2123.5 -0.346272 2.93061 0
M  V30 22543 H 2123.58 1.27188 2.21939 0
M  V30 22544 H 2123.22 2.28384 4.53655 0
M  V30 22545 H 2123.15 0.642891 5.22661 0
M  V30 22546 H 2125.65 0.859277 3.68001 0
M  V30 22547 H 2125.96 2.36035 7.35872 0
M  V30 22548 H 2124.3 2.11611 6.62001 0
M  V30 22549 H 2127.49 1.14625 4.53849 0
M  V30 22550 H 2127.67 1.83053 6.21607 0
M  V30 22551 N 2121.07 -1.5589 0.231532 0
M  V30 22552 C 2121.98 -2.24359 -0.685566 0
M  V30 22553 C 2123 -1.25454 -1.20571 0
M  V30 22554 O 2124.18 -1.58292 -1.24522 0
M  V30 22555 C 2121.24 -2.91783 -1.87252 0
M  V30 22556 C 2120.3 -4.06059 -1.39337 0
M  V30 22557 C 2119.53 -4.70258 -2.52375 0
M  V30 22558 O 2119.76 -4.33477 -3.70747 0
M  V30 22559 O 2118.69 -5.59063 -2.23008 0
M  V30 22560 H 2122.52 -3.03412 -0.132235 0
M  V30 22561 H 2120.1 -1.494 0.000664697 0
M  V30 22562 H 2121.98 -3.34305 -2.56551 0
M  V30 22563 H 2120.66 -2.15683 -2.41377 0
M  V30 22564 H 2119.57 -3.68086 -0.668112 0
M  V30 22565 H 2120.9 -4.83932 -0.898393 0
M  V30 22566 N 2122.55 0.0417572 -1.57545 0
M  V30 22567 C 2123.48 1.07361 -2.025 0
M  V30 22568 C 2124.5 1.33224 -0.935692 0
M  V30 22569 O 2125.69 1.30935 -1.21319 0
M  V30 22570 C 2122.79 2.41809 -2.37448 0
M  V30 22571 C 2121.96 2.35482 -3.68601 0
M  V30 22572 C 2121.02 3.52277 -3.90881 0
M  V30 22573 O 2120.04 3.32344 -4.621 0
M  V30 22574 N 2121.25 4.73702 -3.35539 0
M  V30 22575 H 2124.01 0.690538 -2.91636 0
M  V30 22576 H 2121.57 0.229926 -1.60259 0
M  V30 22577 H 2123.56 3.18641 -2.495 0
M  V30 22578 H 2122.13 2.72008 -1.54047 0
M  V30 22579 H 2121.35 1.43834 -3.67022 0
M  V30 22580 H 2122.64 2.28384 -4.54663 0
M  V30 22581 H 2122.04 4.92798 -2.77788 0
M  V30 22582 H 2120.6 5.47941 -3.52992 0
M  V30 22583 N 2124.03 1.54445 0.313786 0
M  V30 22584 C 2124.94 1.87547 1.40937 0
M  V30 22585 C 2125.96 0.768341 1.56117 0
M  V30 22586 O 2127.13 1.06358 1.71026 0
M  V30 22587 C 2124.2 2.10467 2.75508 0
M  V30 22588 C 2123.26 3.34232 2.69421 0
M  V30 22589 C 2122.49 3.56049 3.97574 0
M  V30 22590 O 2122.71 2.81118 4.96316 0
M  V30 22591 O 2121.65 4.49546 4.0024 0
M  V30 22592 H 2125.47 2.80728 1.15868 0
M  V30 22593 H 2123.06 1.40473 0.508698 0
M  V30 22594 H 2124.94 2.26817 3.55151 0
M  V30 22595 H 2123.62 1.20474 3.00446 0
M  V30 22596 H 2122.52 3.23259 1.88294 0
M  V30 22597 H 2123.86 4.24314 2.49436 0
M  V30 22598 N 2125.51 -0.576345 1.46683 0
M  V30 22599 C 2126.92 -0.900361 1.31779 0
M  V30 22600 C 2127.12 -1.99344 0.293964 0
M  V30 22601 O 2126.18 -2.50697 -0.301245 0
M  V30 22602 C 2127.49 -1.31169 2.70583 0
M  V30 22603 C 2129.04 -1.42419 2.78722 0
M  V30 22604 C 2129.52 -1.86916 4.18123 0
M  V30 22605 N 2131.01 -1.94099 4.20571 0
M  V30 22606 C 2131.74 -2.29817 5.2533 0
M  V30 22607 N 2131.24 -2.64282 6.40411 0
M  V30 22608 N 2133.03 -2.30426 5.12699 0
M  V30 22609 H 2125.18 0.145622 2.119 0
M  V30 22610 H 2127.44 0.00247797 0.947997 0
M  V30 22611 H 2127.15 -0.582484 3.46843 0
M  V30 22612 H 2127.02 -2.2719 3.01106 0
M  V30 22613 H 2129.41 -2.14425 2.02746 0
M  V30 22614 H 2129.49 -0.446341 2.51876 0
M  V30 22615 H 2129.14 -1.15486 4.94596 0
M  V30 22616 H 2129.07 -2.8567 4.4238 0
M  V30 22617 H 2131.56 -1.69927 3.3754 0
M  V30 22618 H 2131.87 -2.90509 7.16118 0
M  V30 22619 H 2130.22 -2.61906 6.43762 0
M  V30 22620 H 2133.41 -2.02927 4.21827 0
M  V30 22621 H 2133.58 -2.57934 5.94453 0
M  V30 22622 N 2126.99 -1.34495 -0.82151 0
M  V30 22623 C 2127.93 -1.26188 -1.93249 0
M  V30 22624 C 2128.9 -0.136822 -1.65536 0
M  V30 22625 O 2130.09 -0.318035 -1.88131 0
M  V30 22626 C 2127.23 -1.02467 -3.29537 0
M  V30 22627 C 2126.34 -2.2376 -3.69534 0
M  V30 22628 C 2125.48 -1.93311 -4.94777 0
M  V30 22629 C 2124.51 -3.10739 -5.27359 0
M  V30 22630 N 2123.65 -2.80164 -6.4378 0
M  V30 22631 H 2128.49 -2.21199 -1.99687 0
M  V30 22632 H 2126.03 -1.09974 -0.976936 0
M  V30 22633 H 2127.99 -0.867518 -4.08081 0
M  V30 22634 H 2126.62 -0.111236 -3.22608 0
M  V30 22635 H 2125.67 -2.50391 -2.86371 0
M  V30 22636 H 2126.98 -3.11491 -3.89583 0
M  V30 22637 H 2126.13 -1.7434 -5.81112 0
M  V30 22638 H 2124.87 -1.02842 -4.76733 0
M  V30 22639 H 2123.88 -3.30304 -4.39521 0
M  V30 22640 H 2125.1 -4.01988 -5.47341 0
M  V30 22641 H 2123.05 -1.92273 -6.2719 0
M  V30 22642 H 2122.97 -3.61428 -6.64007 0
M  V30 22643 H 2124.23 -2.647 -7.33181 0
M  V30 22644 N 2128.46 1.04188 -1.18248 0
M  V30 22645 C 2129.39 2.14099 -0.931872 0
M  V30 22646 C 2130.38 1.69603 0.129961 0
M  V30 22647 O 2131.56 1.94187 -0.0223769 0
M  V30 22648 C 2128.69 3.443 -0.455463 0
M  V30 22649 C 2127.64 4.02414 -1.45764 0
M  V30 22650 C 2126.97 5.2808 -0.838796 0
M  V30 22651 C 2128.27 4.38729 -2.83397 0
M  V30 22652 H 2129.96 2.35321 -1.85106 0
M  V30 22653 H 2127.51 1.13091 -0.891421 0
M  V30 22654 H 2129.46 4.2055 -0.267505 0
M  V30 22655 H 2128.19 3.22761 0.499291 0
M  V30 22656 H 2126.85 3.28245 -1.63251 0
M  V30 22657 H 2126.49 5.02849 0.123108 0
M  V30 22658 H 2126.19 5.67923 -1.5079 0
M  V30 22659 H 2127.72 6.07008 -0.661341 0
M  V30 22660 H 2129.13 5.0597 -2.69568 0
M  V30 22661 H 2127.53 4.89618 -3.46979 0
M  V30 22662 H 2128.6 3.48613 -3.37041 0
M  V30 22663 N 2129.94 0.98432 1.23081 0
M  V30 22664 C 2131.19 0.654086 1.91223 0
M  V30 22665 C 2131.51 -0.815416 1.77133 0
M  V30 22666 O 2130.78 -1.58365 1.15315 0
M  V30 22667 H 2129.36 0.238934 0.707757 0
M  V30 22668 H 2132.02 1.24898 1.49621 0
M  V30 22669 H 2131.12 0.909129 2.98565 0
M  V30 22670 N 2131.42 -1.38259 0.756453 0
M  V30 22671 C 2132.35 -2.2902 0.0908208 0
M  V30 22672 C 2133.37 -1.47887 -0.680684 0
M  V30 22673 O 2134.55 -1.70718 -0.521301 0
M  V30 22674 C 2131.65 -3.26859 -0.895342 0
M  V30 22675 C 2130.83 -4.37026 -0.180877 0
M  V30 22676 C 2129.89 -5.15035 -1.0782 0
M  V30 22677 O 2128.91 -5.66559 -0.547658 0
M  V30 22678 N 2130.11 -5.28291 -2.40602 0
M  V30 22679 H 2132.88 -2.86785 0.870302 0
M  V30 22680 H 2130.44 -1.50071 0.607483 0
M  V30 22681 H 2132.43 -3.75926 -1.49873 0
M  V30 22682 H 2131 -2.69972 -1.57588 0
M  V30 22683 H 2130.22 -3.89557 0.603252 0
M  V30 22684 H 2131.51 -5.07834 0.313403 0
M  V30 22685 H 2130.91 -4.87986 -2.86158 0
M  V30 22686 H 2129.47 -5.80721 -2.95984 0
M  V30 22687 N 2132.9 -0.505757 -1.49264 0
M  V30 22688 C 2133.83 0.316874 -2.25989 0
M  V30 22689 C 2134.81 0.966218 -1.30778 0
M  V30 22690 O 2135.99 0.995383 -1.60076 0
M  V30 22691 C 2133.12 1.44666 -3.0625 0
M  V30 22692 C 2132.17 0.911211 -4.16652 0
M  V30 22693 S 2133 -0.201792 -5.3512 0
M  V30 22694 C 2134.16 0.931051 -6.18936 0
M  V30 22695 H 2134.39 -0.334324 -2.95414 0
M  V30 22696 H 2131.92 -0.291131 -1.5163 0
M  V30 22697 H 2133.88 2.09399 -3.53076 0
M  V30 22698 H 2132.54 2.06949 -2.36285 0
M  V30 22699 H 2131.73 1.75804 -4.72344 0
M  V30 22700 H 2131.34 0.341018 -3.72442 0
M  V30 22701 H 2133.63 1.83522 -6.5217 0
M  V30 22702 H 2134.57 0.412646 -7.06897 0
M  V30 22703 H 2134.98 1.20053 -5.51586 0
M  V30 22704 N 2134.38 1.55765 -0.239796 0
M  V30 22705 C 2135.79 1.59184 0.115214 0
M  V30 22706 C 2135.99 1.25688 1.57496 0
M  V30 22707 O 2135.05 1.0008 2.31819 0
M  V30 22708 C 2136.36 2.99838 -0.227557 0
M  V30 22709 C 2137.91 3.12531 -0.171276 0
M  V30 22710 C 2138.38 4.55393 -0.487979 0
M  V30 22711 N 2139.88 4.61122 -0.438217 0
M  V30 22712 C 2140.61 5.69629 -0.656523 0
M  V30 22713 N 2140.11 6.86426 -0.937578 0
M  V30 22714 N 2141.9 5.59019 -0.587713 0
M  V30 22715 H 2134.05 1.7581 -1.19184 0
M  V30 22716 H 2136.31 0.818062 -0.47904 0
M  V30 22717 H 2136.02 3.29062 -1.24141 0
M  V30 22718 H 2135.89 3.74521 0.448752 0
M  V30 22719 H 2138.28 2.83092 0.83324 0
M  V30 22720 H 2138.36 2.40138 -0.881332 0
M  V30 22721 H 2138.01 4.85552 -1.49002 0
M  V30 22722 H 2137.94 5.26037 0.243475 0
M  V30 22723 H 2140.43 3.77203 -0.229426 0
M  V30 22724 H 2140.74 7.65049 -1.09177 0
M  V30 22725 H 2139.08 6.88127 -0.974973 0
M  V30 22726 H 2142.28 4.66649 -0.368239 0
M  V30 22727 H 2142.45 6.43513 -0.761246 0
M  V30 22728 N 2135.85 -0.0334016 1.57565 0
M  V30 22729 C 2137.08 -0.736973 1.9333 0
M  V30 22730 C 2137.5 -1.69124 0.83919 0
M  V30 22731 O 2136.85 -1.81563 -0.184737 0
M  V30 22732 C 2136.91 -1.49777 3.29012 0
M  V30 22733 O 2136.63 -0.581806 4.3422 0
M  V30 22734 C 2138.13 -2.29889 3.79033 0
M  V30 22735 H 2135.35 -0.207374 0.638151 0
M  V30 22736 H 2137.89 0.0077802 2.04499 0
M  V30 22737 H 2136.05 -2.19444 3.19254 0
M  V30 22738 H 2136.46 -1.11488 5.12514 0
M  V30 22739 H 2137.93 -2.78671 4.76494 0
M  V30 22740 H 2138.41 -3.11119 3.10003 0
M  V30 22741 H 2139.02 -1.65304 3.9186 0
M  V30 22742 N 2137.33 -1.54609 -0.305591 0
M  V30 22743 C 2138.26 -1.81607 -1.39826 0
M  V30 22744 C 2139.28 -0.698812 -1.47039 0
M  V30 22745 O 2140.47 -0.976217 -1.4944 0
M  V30 22746 C 2137.57 -1.93493 -2.78233 0
M  V30 22747 C 2136.74 -3.23849 -2.94008 0
M  V30 22748 C 2135.8 -3.26209 -4.12885 0
M  V30 22749 O 2134.82 -3.99763 -4.05189 0
M  V30 22750 N 2136.03 -2.51272 -5.233 0
M  V30 22751 H 2138.79 -2.75909 -1.17023 0
M  V30 22752 H 2136.35 -1.54126 -0.495646 0
M  V30 22753 H 2138.34 -1.92479 -3.55997 0
M  V30 22754 H 2136.91 -1.06208 -2.94005 0
M  V30 22755 H 2136.13 -3.37674 -2.03395 0
M  V30 22756 H 2137.42 -4.0988 -3.01456 0
M  V30 22757 H 2136.82 -1.91135 -5.32432 0
M  V30 22758 H 2135.38 -2.56017 -5.99415 0
M  V30 22759 N 2138.81 0.568558 -1.46987 0
M  V30 22760 C 2140.04 1.35675 -1.56867 0
M  V30 22761 C 2140.46 1.86864 -0.215303 0
M  V30 22762 O 2139.82 1.62351 0.806967 0
M  V30 22763 C 2139.87 2.51048 -2.58858 0
M  V30 22764 O 2138.97 3.52929 -2.13342 0
M  V30 22765 H 2138.31 0.403471 -0.527358 0
M  V30 22766 H 2140.84 0.688258 -1.92676 0
M  V30 22767 H 2140.85 2.97773 -2.78918 0
M  V30 22768 H 2139.53 2.13145 -3.5713 0
M  V30 22769 H 2138.1 3.12587 -2.03332 0
M  V30 22770 N 2140.29 1.34929 0.814366 0
M  V30 22771 C 2141.22 1.29866 1.94055 0
M  V30 22772 C 2142.2 0.174504 1.69203 0
M  V30 22773 O 2143.38 0.368232 1.90677 0
M  V30 22774 C 2140.51 1.06201 3.30664 0
M  V30 22775 C 2139.47 2.15174 3.69978 0
M  V30 22776 C 2138.79 1.76686 5.04664 0
M  V30 22777 C 2140.09 3.57077 3.81174 0
M  V30 22778 H 2141.79 2.24095 1.98549 0
M  V30 22779 H 2139.33 1.07877 0.953865 0
M  V30 22780 H 2141.29 1.01301 4.09043 0
M  V30 22781 H 2140.01 0.0841549 3.26492 0
M  V30 22782 H 2138.67 2.19158 2.9388 0
M  V30 22783 H 2138.32 0.775388 4.96988 0
M  V30 22784 H 2138.02 2.49628 5.3194 0
M  V30 22785 H 2139.54 1.73297 5.85492 0
M  V30 22786 H 2140.96 3.55458 4.49803 0
M  V30 22787 H 2139.35 4.28713 4.19911 0
M  V30 22788 H 2140.42 3.93795 2.82937 0
M  V30 22789 N 2141.77 -1.0356 1.18799 0
M  V30 22790 C 2142.71 -2.13799 0.916116 0
M  V30 22791 C 2143.71 -1.68934 -0.125535 0
M  V30 22792 O 2144.91 -1.79985 0.0230864 0
M  V30 22793 H 2141.29 -0.698404 0.278811 0
M  V30 22794 H 2143.26 -2.33925 1.85262 0
M  V30 22795 C 2142.01 -3.44591 0.463926 0
M  V30 22796 H 2141.33 -3.79526 1.25698 0
M  V30 22797 H 2142.77 -4.22845 0.312739 0
M  V30 22798 C 2141.23 -3.26743 -0.821008 0
M  V30 22799 O 2141.76 -3.54778 -1.88403 0
M  V30 22800 N 2139.97 -2.80058 -0.775608 0
M  V30 22801 H 2139.51 -2.57444 0.089694 0
M  V30 22802 H 2139.47 -2.68497 -1.63575 0
M  V30 22803 N 2143.25 -0.990834 -1.22557 0
M  V30 22804 C 2144.66 -0.700966 -1.73042 0
M  V30 22805 C 2145.01 0.782283 -1.7993 0
M  V30 22806 O 2144.13 1.61158 -1.4442 0
M  V30 22807 C 2144.73 -1.26574 -3.14268 0
M  V30 22808 C 2143.29 -1.0253 -3.62167 0
M  V30 22809 C 2142.43 -1.38718 -2.4011 0
M  V30 22810 H 2145.38 -1.16344 -1.07934 0
M  V30 22811 H 2145.41 -0.643298 -3.75023 0
M  V30 22812 H 2144.92 -2.34527 -3.09222 0
M  V30 22813 H 2143.02 0.0376973 -3.72581 0
M  V30 22814 H 2143.13 -1.68722 -4.48408 0
M  V30 22815 H 2141.5 -0.805751 -2.41619 0
M  V30 22816 H 2142.28 -2.47671 -2.37727 0
M  V30 22817 N 2144.72 1.37856 -0.763775 0
M  V30 22818 C 2145.69 2.28702 -0.151022 0
M  V30 22819 C 2146.69 1.47661 0.636627 0
M  V30 22820 O 2147.88 1.67979 0.46139 0
M  V30 22821 C 2145.01 3.31525 0.793965 0
M  V30 22822 H 2146.2 2.84397 -0.951747 0
M  V30 22823 H 2143.75 1.46987 -0.531452 0
M  V30 22824 H 2144.49 2.80939 1.61999 0
M  V30 22825 H 2144.27 3.91416 0.231444 0
M  V30 22826 H 2145.76 3.99432 1.21837 0
M  V30 22827 N 2146.2 0.513665 1.48994 0
M  V30 22828 C 2147.61 0.0690541 1.86572 0
M  V30 22829 C 2147.96 -1.34882 1.42482 0
M  V30 22830 O 2147.09 -2.00738 0.808279 0
M  V30 22831 C 2147.68 0.118539 3.38593 0
M  V30 22832 C 2146.24 -0.270792 3.75425 0
M  V30 22833 C 2145.39 0.485519 2.73016 0
M  V30 22834 H 2148.34 0.725789 1.41131 0
M  V30 22835 H 2148.36 -0.673737 3.74488 0
M  V30 22836 H 2147.87 1.1506 3.70652 0
M  V30 22837 H 2145.97 -1.30561 3.48976 0
M  V30 22838 H 2146.09 0.0574672 4.79066 0
M  V30 22839 H 2144.45 -0.066227 2.54614 0
M  V30 22840 H 2145.23 1.5179 3.0792 0
M  V30 22841 N 2147.68 -1.55636 0.248053 0
M  V30 22842 C 2148.93 -1.98972 -0.37637 0
M  V30 22843 C 2149.25 -1.1362 -1.57863 0
M  V30 22844 O 2148.51 -0.187287 -1.94802 0
M  V30 22845 C 2148.81 -3.47664 -0.828526 0
M  V30 22846 C 2148.47 -4.50114 0.266108 0
M  V30 22847 C 2147.14 -4.77851 0.566745 0
M  V30 22848 C 2149.49 -5.11418 1.00506 0
M  V30 22849 C 2146.82 -5.64166 1.61039 0
M  V30 22850 C 2149.17 -5.98865 2.03823 0
M  V30 22851 C 2147.83 -6.24934 2.3455 0
M  V30 22852 H 2147.1 -0.728089 -0.137723 0
M  V30 22853 H 2149.75 -1.8816 0.356118 0
M  V30 22854 H 2148.05 -3.55814 -1.64024 0
M  V30 22855 H 2149.75 -3.78583 -1.32196 0
M  V30 22856 H 2146.34 -4.28595 0.0216504 0
M  V30 22857 H 2150.53 -4.90036 0.786048 0
M  V30 22858 H 2145.78 -5.82619 1.85378 0
M  V30 22859 H 2149.96 -6.45409 2.61573 0
M  V30 22860 H 2147.58 -6.91612 3.15558 0
M  V30 22861 N 2149.16 0.0250451 -1.5758 0
M  V30 22862 C 2150.38 0.730408 -1.94113 0
M  V30 22863 C 2150.81 1.67882 -0.848362 0
M  V30 22864 O 2150.17 1.80242 0.195596 0
M  V30 22865 C 2150.21 1.46014 -3.29715 0
M  V30 22866 O 2149.32 2.57351 -3.22249 0
M  V30 22867 H 2148.66 0.196157 -0.634365 0
M  V30 22868 H 2151.19 -0.0206802 -2.0459 0
M  V30 22869 H 2151.2 1.82917 -3.64699 0
M  V30 22870 H 2149.87 0.764593 -4.08811 0
M  V30 22871 H 2148.45 2.22961 -2.98903 0
M  V30 22872 N 2150.64 1.54769 0.297388 0
M  V30 22873 C 2152.05 1.65183 0.87014 0
M  V30 22874 C 2152.4 0.562844 1.87953 0
M  V30 22875 O 2151.52 -0.299913 2.14312 0
M  V30 22876 C 2152.12 2.99437 1.58501 0
M  V30 22877 C 2150.68 3.1196 2.10612 0
M  V30 22878 C 2149.82 2.60882 0.94 0
M  V30 22879 H 2152.77 1.58526 0.0743014 0
M  V30 22880 H 2152.8 2.91063 2.45077 0
M  V30 22881 H 2152.31 3.78675 0.850115 0
M  V30 22882 H 2150.41 2.3745 2.87138 0
M  V30 22883 H 2150.52 4.1817 2.33817 0
M  V30 22884 H 2148.89 2.17426 1.32658 0
M  V30 22885 H 2149.67 3.42601 0.219 0
M  V30 22886 N 2152.11 -0.560755 1.47286 0
M  V30 22887 C 2153.04 -1.67792 1.62383 0
M  V30 22888 C 2154.02 -1.6338 0.473377 0
M  V30 22889 O 2155.21 -1.81057 0.702288 0
M  V30 22890 C 2152.34 -3.06431 1.63454 0
M  V30 22891 C 2151.29 -3.25688 2.7769 0
M  V30 22892 C 2150.62 -4.65078 2.63831 0
M  V30 22893 C 2151.92 -3.11404 4.19315 0
M  V30 22894 H 2153.61 -1.55414 2.55904 0
M  V30 22895 H 2151.16 -0.746251 1.23155 0
M  V30 22896 H 2153.11 -3.84428 1.72606 0
M  V30 22897 H 2151.84 -3.1976 0.664904 0
M  V30 22898 H 2150.5 -2.50098 2.68042 0
M  V30 22899 H 2150.14 -4.75201 1.64904 0
M  V30 22900 H 2149.84 -4.78911 3.40467 0
M  V30 22901 H 2151.37 -5.45214 2.74907 0
M  V30 22902 H 2152.78 -3.79222 4.29958 0
M  V30 22903 H 2151.18 -3.36749 4.9671 0
M  V30 22904 H 2152.25 -2.08195 4.3793 0
M  V30 22905 N 2153.59 -1.35359 -0.807199 0
M  V30 22906 C 2154.82 -1.31711 -1.59561 0
M  V30 22907 C 2155.23 0.105535 -1.88505 0
M  V30 22908 O 2154.59 1.05731 -1.48752 0
M  V30 22909 C 2154.64 -2.1212 -2.92724 0
M  V30 22910 O 2154.36 -3.48838 -2.65036 0
M  V30 22911 C 2155.86 -2.1605 -3.87088 0
M  V30 22912 H 2153.08 -0.452483 -0.495479 0
M  V30 22913 H 2155.63 -1.78204 -1.00318 0
M  V30 22914 H 2153.78 -1.69228 -3.48483 0
M  V30 22915 H 2154.2 -3.90591 -3.50056 0
M  V30 22916 H 2155.67 -2.76704 -4.77639 0
M  V30 22917 H 2156.15 -1.15909 -4.23629 0
M  V30 22918 H 2156.75 -2.591 -3.37264 0
M  V30 22919 N 2155.07 1.02928 -1.19346 0
M  V30 22920 C 2156.03 2.09361 -0.932765 0
M  V30 22921 C 2157.03 1.60567 0.086582 0
M  V30 22922 O 2158.22 1.73569 -0.148116 0
M  V30 22923 C 2155.35 3.38524 -0.401767 0
M  V30 22924 H 2156.55 2.33922 -1.87671 0
M  V30 22925 H 2154.1 1.19532 -1.00707 0
M  V30 22926 H 2154.84 3.19632 0.548245 0
M  V30 22927 H 2154.62 3.75261 -1.13672 0
M  V30 22928 H 2156.11 4.16919 -0.238443 0
M  V30 22929 N 2156.55 0.997319 1.2203 0
M  V30 22930 C 2157.48 0.50954 2.23464 0
M  V30 22931 C 2158.49 -0.397746 1.57866 0
M  V30 22932 O 2159.68 -0.199173 1.77385 0
M  V30 22933 C 2156.78 -0.280337 3.37739 0
M  V30 22934 C 2155.95 0.624157 4.32924 0
M  V30 22935 C 2155.01 -0.114778 5.26075 0
M  V30 22936 O 2154.04 0.501303 5.66988 0
M  V30 22937 N 2155.24 -1.39573 5.63471 0
M  V30 22938 H 2158.01 1.38179 2.65945 0
M  V30 22939 H 2155.57 0.872554 1.36375 0
M  V30 22940 H 2157.56 -0.783436 3.97045 0
M  V30 22941 H 2156.13 -1.05371 2.94305 0
M  V30 22942 H 2155.35 1.30786 3.71872 0
M  V30 22943 H 2156.64 1.23998 4.93459 0
M  V30 22944 H 2156.04 -1.91751 5.3221 0
M  V30 22945 H 2154.59 -1.84393 6.25174 0
M  V30 22946 N 2158.03 -1.37449 0.771075 0
M  V30 22947 C 2158.96 -2.28911 0.115106 0
M  V30 22948 C 2159.97 -1.48601 -0.664961 0
M  V30 22949 O 2161.16 -1.71262 -0.503164 0
M  V30 22950 C 2158.26 -3.2779 -0.860623 0
M  V30 22951 C 2157.43 -4.37193 -0.134514 0
M  V30 22952 C 2156.49 -5.1615 -1.02351 0
M  V30 22953 O 2155.52 -5.67108 -0.487536 0
M  V30 22954 N 2156.72 -5.30813 -2.34985 0
M  V30 22955 H 2159.49 -2.85846 0.900671 0
M  V30 22956 H 2157.05 -1.49418 0.623366 0
M  V30 22957 H 2159.04 -3.77494 -1.45877 0
M  V30 22958 H 2157.61 -2.71628 -1.54716 0
M  V30 22959 H 2156.83 -3.88895 0.644535 0
M  V30 22960 H 2158.12 -5.07473 0.367248 0
M  V30 22961 H 2157.51 -4.90993 -2.80966 0
M  V30 22962 H 2156.07 -5.83828 -2.89808 0
M  V30 22963 N 2159.5 -0.52156 -1.4872 0
M  V30 22964 C 2160.44 0.292887 -2.26313 0
M  V30 22965 C 2161.42 0.952293 -1.31796 0
M  V30 22966 O 2162.6 0.978349 -1.61123 0
M  V30 22967 C 2159.73 1.4141 -3.07768 0
M  V30 22968 C 2158.77 0.866968 -4.17595 0
M  V30 22969 S 2159.61 -0.258537 -5.34876 0
M  V30 22970 C 2160.76 0.865353 -6.19889 0
M  V30 22971 H 2160.99 -0.365638 -2.95043 0
M  V30 22972 H 2158.53 -0.307197 -1.51313 0
M  V30 22973 H 2160.49 2.05642 -3.55277 0
M  V30 22974 H 2159.15 2.04432 -2.38467 0
M  V30 22975 H 2158.34 1.70784 -4.74182 0
M  V30 22976 H 2157.94 0.301497 -3.72783 0
M  V30 22977 H 2160.23 1.76594 -6.5408 0
M  V30 22978 H 2161.18 0.337647 -7.07295 0
M  V30 22979 H 2161.58 1.14196 -5.52829 0
M  V30 22980 N 2160.98 1.55502 -0.256304 0
M  V30 22981 C 2161.93 2.2177 0.63926 0
M  V30 22982 C 2162.9 1.18474 1.16418 0
M  V30 22983 O 2164.08 1.46954 1.21693 0
M  V30 22984 C 2161.22 2.92819 1.82623 0
M  V30 22985 C 2160.34 4.10791 1.33695 0
M  V30 22986 C 2159.47 4.69531 2.48423 0
M  V30 22987 C 2158.51 5.79735 1.96403 0
M  V30 22988 N 2157.65 6.32617 3.04533 0
M  V30 22989 H 2162.49 2.97924 0.0674772 0
M  V30 22990 H 2160.03 1.47084 0.0215424 0
M  V30 22991 H 2161.98 3.32216 2.52366 0
M  V30 22992 H 2160.61 2.19122 2.37034 0
M  V30 22993 H 2159.67 3.76644 0.533253 0
M  V30 22994 H 2160.98 4.90321 0.915786 0
M  V30 22995 H 2160.13 5.11551 3.26191 0
M  V30 22996 H 2158.87 3.89238 2.93845 0
M  V30 22997 H 2157.88 5.37183 1.17108 0
M  V30 22998 H 2159.1 6.61885 1.51939 0
M  V30 22999 H 2157.05 5.55225 3.49372 0
M  V30 23000 H 2156.96 7.07366 2.66776 0
M  V30 23001 H 2158.23 6.79295 3.82332 0
M  V30 23002 N 2162.46 -0.0166879 1.57591 0
M  V30 23003 C 2163.87 -0.561696 1.7805 0
M  V30 23004 C 2164.22 -1.74907 0.888926 0
M  V30 23005 O 2163.35 -2.16225 0.0869853 0
M  V30 23006 C 2163.94 -1.02576 3.22899 0
M  V30 23007 C 2162.5 -1.51619 3.44512 0
M  V30 23008 C 2161.65 -0.459817 2.73461 0
M  V30 23009 H 2164.6 0.209523 1.57311 0
M  V30 23010 H 2164.62 -1.89257 3.30094 0
M  V30 23011 H 2164.13 -0.16136 3.87764 0
M  V30 23012 H 2162.23 -2.40203 2.84839 0
M  V30 23013 H 2162.35 -1.55516 4.53157 0
M  V30 23014 H 2160.71 -0.917683 2.37594 0
M  V30 23015 H 2161.49 0.395327 3.41016 0
M  V30 23016 N 2163.94 -1.54924 -0.289176 0
M  V30 23017 C 2164.85 -1.89766 -1.37935 0
M  V30 23018 C 2165.86 -0.793081 -1.54875 0
M  V30 23019 O 2167.04 -1.09065 -1.69312 0
M  V30 23020 C 2164.11 -2.14824 -2.72124 0
M  V30 23021 C 2163.17 -3.38476 -2.64069 0
M  V30 23022 C 2162.4 -3.62329 -3.91859 0
M  V30 23023 O 2162.62 -2.88978 -4.9178 0
M  V30 23024 O 2161.56 -4.55856 -3.93038 0
M  V30 23025 H 2165.38 -2.82536 -1.11387 0
M  V30 23026 H 2162.97 -1.41264 -0.486286 0
M  V30 23027 H 2164.85 -2.32438 -3.51498 0
M  V30 23028 H 2163.52 -1.25238 -2.98491 0
M  V30 23029 H 2162.43 -3.26213 -1.83127 0
M  V30 23030 H 2163.76 -4.28229 -2.42654 0
M  V30 23031 N 2165.42 0.552936 -1.47582 0
M  V30 23032 C 2166.36 1.65963 -1.60389 0
M  V30 23033 C 2167.33 1.59979 -0.446754 0
M  V30 23034 O 2168.52 1.78749 -0.667351 0
M  V30 23035 C 2165.66 3.04278 -1.62815 0
M  V30 23036 C 2164.77 3.20668 -2.89476 0
M  V30 23037 C 2163.91 4.49406 -2.8321 0
M  V30 23038 C 2162.95 4.59243 -4.04676 0
M  V30 23039 N 2162.08 5.79341 -3.96621 0
M  V30 23040 H 2166.92 1.54355 -2.54909 0
M  V30 23041 H 2164.46 0.751844 -1.26435 0
M  V30 23042 H 2166.42 3.84377 -1.62204 0
M  V30 23043 H 2165.05 3.14712 -0.718048 0
M  V30 23044 H 2164.1 2.33973 -2.99935 0
M  V30 23045 H 2165.41 3.238 -3.79414 0
M  V30 23046 H 2164.57 5.3777 -2.80872 0
M  V30 23047 H 2163.3 4.4876 -1.90961 0
M  V30 23048 H 2162.31 3.69291 -4.07314 0
M  V30 23049 H 2163.53 4.61645 -4.98057 0
M  V30 23050 H 2161.48 5.79636 -3.07178 0
M  V30 23051 H 2161.4 5.8387 -4.80242 0
M  V30 23052 H 2162.67 6.70054 -3.98306 0
M  V30 23053 N 2166.89 1.35785 0.800009 0
M  V30 23054 C 2168.31 1.26354 1.37446 0
M  V30 23055 C 2168.66 -0.101241 1.95939 0
M  V30 23056 O 2167.78 -1.00241 1.91783 0
M  V30 23057 C 2168.38 2.28793 2.49878 0
M  V30 23058 C 2166.94 2.23083 3.03168 0
M  V30 23059 C 2166.08 2.14145 1.76174 0
M  V30 23060 H 2169.03 1.46818 0.602508 0
M  V30 23061 H 2169.05 1.91822 3.2861 0
M  V30 23062 H 2168.57 3.28113 2.07277 0
M  V30 23063 H 2166.67 1.27195 3.50217 0
M  V30 23064 H 2166.78 3.15326 3.60703 0
M  V30 23065 H 2165.14 1.60228 1.97987 0
M  V30 23066 H 2165.93 3.15335 1.35715 0
M  V30 23067 N 2168.37 -1.02294 1.19891 0
M  V30 23068 C 2169.6 -1.79941 1.03131 0
M  V30 23069 C 2170.02 -1.8346 -0.415201 0
M  V30 23070 O 2169.38 -1.26499 -1.29876 0
M  V30 23071 C 2169.43 -3.22565 1.61196 0
M  V30 23072 O 2168.53 -4.03644 0.845295 0
M  V30 23073 H 2167.87 -0.555254 0.364128 0
M  V30 23074 H 2170.4 -1.28709 1.59045 0
M  V30 23075 H 2170.41 -3.73296 1.64663 0
M  V30 23076 H 2169.09 -3.19318 2.66474 0
M  V30 23077 H 2167.67 -3.62262 0.884338 0
M  V30 23078 N 2169.85 -1.00378 -1.21499 0
M  V30 23079 C 2171.08 -0.704573 -1.94534 0
M  V30 23080 C 2171.49 0.732632 -1.74006 0
M  V30 23081 O 2170.85 1.49556 -1.04591 0
M  V30 23082 C 2170.9 -1.01461 -3.4697 0
M  V30 23083 O 2170.62 -2.39535 -3.66817 0
M  V30 23084 C 2172.12 -0.734641 -4.3717 0
M  V30 23085 H 2169.34 -0.259747 -0.618686 0
M  V30 23086 H 2171.89 -1.34149 -1.54351 0
M  V30 23087 H 2170.04 -0.423313 -3.8508 0
M  V30 23088 H 2170.46 -2.50302 -4.60922 0
M  V30 23089 H 2171.93 -1.00176 -5.42834 0
M  V30 23090 H 2172.41 0.331329 -4.37948 0
M  V30 23091 H 2173.01 -1.30749 -4.04703 0
M  V30 23092 N 2171.33 1.37038 -0.778354 0
M  V30 23093 C 2172.26 2.3278 -0.183215 0
M  V30 23094 C 2173.24 1.56107 0.675623 0
M  V30 23095 O 2174.42 1.84314 0.611726 0
M  V30 23096 C 2171.55 3.40346 0.691526 0
M  V30 23097 C 2170.51 4.27948 -0.0665313 0
M  V30 23098 C 2169.83 5.26584 0.928085 0
M  V30 23099 C 2171.13 5.07137 -1.24936 0
M  V30 23100 H 2172.83 2.82801 -0.983049 0
M  V30 23101 H 2170.37 1.35969 -0.474169 0
M  V30 23102 H 2172.33 4.06306 1.11773 0
M  V30 23103 H 2171.05 2.88866 1.52395 0
M  V30 23104 H 2169.71 3.63528 -0.473586 0
M  V30 23105 H 2169.36 4.71381 1.75524 0
M  V30 23106 H 2169.06 5.86058 0.425371 0
M  V30 23107 H 2170.58 5.95419 1.35309 0
M  V30 23108 H 2172 5.662 -0.899476 0
M  V30 23109 H 2170.39 5.7597 -1.68461 0
M  V30 23110 H 2171.46 4.39425 -2.05021 0
M  V30 23111 N 2172.81 0.529439 1.48441 0
M  V30 23112 C 2173.74 -0.270735 2.27595 0
M  V30 23113 C 2174.75 -0.904942 1.35332 0
M  V30 23114 O 2175.94 -0.783475 1.60387 0
M  V30 23115 C 2173.04 -1.39858 3.08695 0
M  V30 23116 C 2172.21 -0.8664 4.28733 0
M  V30 23117 C 2171.27 -1.87531 4.91649 0
M  V30 23118 O 2170.3 -1.43247 5.5088 0
M  V30 23119 N 2171.5 -3.20745 4.83842 0
M  V30 23120 H 2174.27 0.408123 2.96908 0
M  V30 23121 H 2171.83 0.363736 1.57761 0
M  V30 23122 H 2173.82 -2.07167 3.47655 0
M  V30 23123 H 2172.39 -1.98112 2.41807 0
M  V30 23124 H 2171.61 -0.0173382 3.94196 0
M  V30 23125 H 2172.9 -0.489715 5.06438 0
M  V30 23126 H 2172.3 -3.5939 4.3687 0
M  V30 23127 H 2170.85 -3.83688 5.26903 0
M  V30 23128 N 2174.29 -1.55364 0.264547 0
M  V30 23129 C 2175.7 -1.59347 -0.0898743 0
M  V30 23130 C 2175.9 -1.28177 -1.55476 0
M  V30 23131 O 2174.96 -1.03755 -2.30198 0
M  V30 23132 C 2176.27 -2.99438 0.27523 0
M  V30 23133 C 2177.82 -3.12219 0.220976 0
M  V30 23134 C 2178.29 -4.54559 0.560366 0
M  V30 23135 N 2179.78 -4.60367 0.511522 0
M  V30 23136 C 2180.52 -5.68513 0.747063 0
M  V30 23137 N 2180.02 -6.84848 1.04666 0
M  V30 23138 N 2181.81 -5.58013 0.676574 0
M  V30 23139 H 2173.96 -1.73891 1.21966 0
M  V30 23140 H 2176.22 -0.810337 0.491994 0
M  V30 23141 H 2175.93 -3.27046 1.2936 0
M  V30 23142 H 2175.8 -3.75188 -0.389113 0
M  V30 23143 H 2178.19 -2.84382 -0.788097 0
M  V30 23144 H 2178.27 -2.38705 0.919424 0
M  V30 23145 H 2177.91 -4.8312 1.56708 0
M  V30 23146 H 2177.84 -5.26358 -0.159757 0
M  V30 23147 H 2180.34 -3.7679 0.289407 0
M  V30 23148 H 2180.65 -7.63216 1.21334 0
M  V30 23149 H 2178.99 -6.86489 1.08433 0
M  V30 23150 H 2182.18 -4.66004 0.442433 0
M  V30 23151 H 2182.36 -6.42221 0.863527 0
M  V30 23152 N 2175.76 0.00833021 -1.57598 0
M  V30 23153 C 2177.17 0.552246 -1.78346 0
M  V30 23154 C 2177.53 1.74433 -0.898189 0
M  V30 23155 O 2176.65 2.16176 -0.098451 0
M  V30 23156 C 2177.25 1.00862 -3.23438 0
M  V30 23157 C 2175.8 1.4979 -3.45311 0
M  V30 23158 C 2174.95 0.445309 -2.73701 0
M  V30 23159 H 2177.9 -0.217862 -1.57197 0
M  V30 23160 H 2177.92 1.87504 -3.31093 0
M  V30 23161 H 2177.44 0.140794 -3.87845 0
M  V30 23162 H 2175.54 2.38689 -2.86109 0
M  V30 23163 H 2175.65 1.53111 -4.53976 0
M  V30 23164 H 2174.01 0.90507 -2.38077 0
M  V30 23165 H 2174.8 -0.413406 -3.40802 0
M  V30 23166 N 2177.24 1.55075 0.280956 0
M  V30 23167 C 2178.17 1.83809 1.36919 0
M  V30 23168 C 2179.19 0.722116 1.45909 0
M  V30 23169 O 2180.38 0.999868 1.47868 0
M  V30 23170 C 2177.48 1.97895 2.75119 0
M  V30 23171 C 2176.65 3.28485 2.88819 0
M  V30 23172 C 2175.71 3.32736 4.07643 0
M  V30 23173 O 2174.73 4.06159 3.98778 0
M  V30 23174 N 2175.94 2.59566 5.19236 0
M  V30 23175 H 2178.7 2.77736 1.12619 0
M  V30 23176 H 2176.26 1.54895 0.471063 0
M  V30 23177 H 2178.25 1.98119 3.5289 0
M  V30 23178 H 2176.82 1.10872 2.92278 0
M  V30 23179 H 2176.04 3.40868 1.97997 0
M  V30 23180 H 2177.33 4.14624 2.94897 0
M  V30 23181 H 2176.73 1.99582 5.29324 0
M  V30 23182 H 2175.29 2.65521 5.95266 0
M  V30 23183 N 2178.72 -0.545102 1.47873 0
M  V30 23184 C 2179.63 -1.67829 1.63922 0
M  V30 23185 C 2180.65 -1.65989 0.521885 0
M  V30 23186 O 2181.82 -1.85216 0.791005 0
M  V30 23187 C 2178.89 -3.0432 1.66102 0
M  V30 23188 C 2177.95 -3.17134 2.89352 0
M  V30 23189 C 2177.18 -4.47114 2.91419 0
M  V30 23190 O 2177.4 -5.33307 2.02337 0
M  V30 23191 O 2176.34 -4.63974 3.83421 0
M  V30 23192 H 2180.16 -1.57229 2.59832 0
M  V30 23193 H 2177.75 -0.716489 1.31098 0
M  V30 23194 H 2179.63 -3.85524 1.70145 0
M  V30 23195 H 2178.31 -3.15277 0.733623 0
M  V30 23196 H 2177.21 -2.35282 2.90849 0
M  V30 23197 H 2178.55 -3.11086 3.81426 0
M  V30 23198 N 2180.2 -1.36208 -0.792797 0
M  V30 23199 C 2181.43 -1.33396 -1.58155 0
M  V30 23200 C 2181.84 0.0855356 -1.88606 0
M  V30 23201 O 2181.2 1.04147 -1.49865 0
M  V30 23202 C 2181.25 -2.15213 -2.90458 0
M  V30 23203 O 2180.97 -3.51629 -2.61321 0
M  V30 23204 C 2182.47 -2.20144 -3.84775 0
M  V30 23205 H 2179.69 -0.457713 -0.490652 0
M  V30 23206 H 2182.23 -1.79258 -0.984222 0
M  V30 23207 H 2180.39 -1.72915 -3.46669 0
M  V30 23208 H 2180.8 -3.94282 -3.45893 0
M  V30 23209 H 2182.28 -2.81755 -4.74677 0
M  V30 23210 H 2182.75 -1.20396 -4.22376 0
M  V30 23211 H 2183.36 -2.62663 -3.34497 0
M  V30 23212 N 2181.68 1.01656 -1.20431 0
M  V30 23213 C 2182.92 1.75515 -1.016 0
M  V30 23214 C 2183.25 1.88896 0.450791 0
M  V30 23215 O 2182.53 1.4148 1.33468 0
M  V30 23216 C 2182.81 3.17433 -1.70024 0
M  V30 23217 C 2182.67 3.11847 -3.24147 0
M  V30 23218 C 2183.98 4.16105 -1.43334 0
M  V30 23219 H 2181.1 0.637102 -0.370501 0
M  V30 23220 H 2183.75 1.18591 -1.48446 0
M  V30 23221 H 2181.9 3.66035 -1.30195 0
M  V30 23222 H 2183.57 2.71049 -3.7327 0
M  V30 23223 H 2181.81 2.49242 -3.55051 0
M  V30 23224 H 2182.48 4.12169 -3.6718 0
M  V30 23225 H 2184.96 3.76159 -1.77887 0
M  V30 23226 H 2183.83 5.13571 -1.93741 0
M  V30 23227 H 2184.09 4.40624 -0.360952 0
M  V30 23228 N 2183.15 1.01021 1.20965 0
M  V30 23229 C 2184.4 0.691231 1.89486 0
M  V30 23230 C 2184.72 -0.781846 1.79295 0
M  V30 23231 O 2185.92 -1.21312 2.4289 0
M  V30 23232 C 2184.38 1.18593 3.39799 0
M  V30 23233 C 2183.99 2.68546 3.5859 0
M  V30 23234 C 2185.73 0.942088 4.13914 0
M  V30 23235 C 2183.64 3.1153 5.02696 0
M  V30 23236 H 2182.57 0.254853 0.709624 0
M  V30 23237 H 2185.22 1.22205 1.36887 0
M  V30 23238 H 2183.6 0.583129 3.91683 0
M  V30 23239 H 2184.77 3.3432 3.17122 0
M  V30 23240 H 2183.09 2.91002 2.97837 0
M  V30 23241 H 2185.69 1.23873 5.20153 0
M  V30 23242 H 2186.03 -0.121574 4.16122 0
M  V30 23243 H 2186.56 1.50794 3.68111 0
M  V30 23244 H 2183.3 4.17145 5.05638 0
M  V30 23245 H 2182.82 2.50471 5.44999 0
M  V30 23246 H 2184.5 3.03805 5.71237 0
M  V30 23247 N 2184.63 -1.36623 0.78561 0
M  V30 23248 C 2186.05 -1.5262 0.466843 0
M  V30 23249 C 2186.25 -1.74044 -1.01543 0
M  V30 23250 O 2185.3 -1.76975 -1.801 0
M  V30 23251 C 2186.62 -2.71435 1.29398 0
M  V30 23252 C 2188.16 -2.85304 1.28728 0
M  V30 23253 C 2188.64 -4.07118 2.09807 0
M  V30 23254 N 2190.13 -4.14257 2.07233 0
M  V30 23255 C 2190.87 -5.0758 2.6674 0
M  V30 23256 N 2190.36 -6.06372 3.3509 0
M  V30 23257 N 2192.15 -5.00167 2.56494 0
M  V30 23258 H 2184.31 -1.20971 1.74585 0
M  V30 23259 H 2186.57 -0.590141 0.741915 0
M  V30 23260 H 2186.27 -2.62113 2.34498 0
M  V30 23261 H 2186.15 -3.65488 0.932654 0
M  V30 23262 H 2188.54 -2.94088 0.244207 0
M  V30 23263 H 2188.62 -1.92169 1.68834 0
M  V30 23264 H 2188.26 -3.99095 3.14143 0
M  V30 23265 H 2188.19 -4.99393 1.67074 0
M  V30 23266 H 2190.68 -3.43522 1.57483 0
M  V30 23267 H 2190.99 -6.74137 3.77836 0
M  V30 23268 H 2189.34 -6.06609 3.39191 0
M  V30 23269 H 2192.53 -4.21936 2.027 0
M  V30 23270 H 2192.7 -5.7271 3.03162 0
M  V30 23271 N 2186.11 -0.537304 -1.48158 0
M  V30 23272 C 2187.02 0.225092 -2.33518 0
M  V30 23273 C 2188.04 0.931763 -1.4695 0
M  V30 23274 O 2189.21 0.905094 -1.79917 0
M  V30 23275 C 2186.28 1.25403 -3.23226 0
M  V30 23276 C 2185.34 0.556924 -4.25672 0
M  V30 23277 C 2184.57 1.53684 -5.11094 0
M  V30 23278 O 2184.79 2.77009 -4.9862 0
M  V30 23279 O 2183.73 1.07222 -5.92273 0
M  V30 23280 H 2187.55 -0.474567 -2.99969 0
M  V30 23281 H 2185.14 -0.298137 -1.46395 0
M  V30 23282 H 2187.02 1.84847 -3.78695 0
M  V30 23283 H 2185.7 1.93596 -2.59427 0
M  V30 23284 H 2184.6 -0.0781996 -3.74018 0
M  V30 23285 H 2185.94 -0.0832021 -4.9213 0
M  V30 23286 N 2187.59 1.55221 -0.272782 0
M  V30 23287 C 2188.52 2.25408 0.609392 0
M  V30 23288 C 2189.5 1.2434 1.16076 0
M  V30 23289 O 2190.68 1.53054 1.19533 0
M  V30 23290 C 2187.81 2.97338 1.79464 0
M  V30 23291 C 2186.77 4.05315 1.37491 0
M  V30 23292 C 2186.09 4.64808 2.64307 0
M  V30 23293 C 2187.39 5.19636 0.526828 0
M  V30 23294 H 2189.09 2.9939 0.0240678 0
M  V30 23295 H 2186.63 1.43996 0.0101357 0
M  V30 23296 H 2188.59 3.45149 2.41765 0
M  V30 23297 H 2187.31 2.20887 2.40576 0
M  V30 23298 H 2185.97 3.58312 0.775106 0
M  V30 23299 H 2185.62 3.85027 3.23672 0
M  V30 23300 H 2185.32 5.37713 2.36935 0
M  V30 23301 H 2186.84 5.15366 3.2746 0
M  V30 23302 H 2188.26 5.63513 1.05478 0
M  V30 23303 H 2186.65 5.9909 0.348095 0
M  V30 23304 H 2187.72 4.82761 -0.454948 0
M  V30 23305 N 2189.07 2.77022e-05 1.576 0
M  V30 23306 C 2190 -1.01955 2.05275 0
M  V30 23307 C 2191.01 -1.30696 0.970685 0
M  V30 23308 O 2192.2 -1.27672 1.24748 0
M  V30 23309 C 2189.3 -2.35429 2.43775 0
M  V30 23310 C 2188.47 -2.25626 3.74715 0
M  V30 23311 C 2187.53 -3.41789 4.00083 0
M  V30 23312 O 2186.56 -3.19975 4.70749 0
M  V30 23313 N 2187.76 -4.64639 3.47981 0
M  V30 23314 H 2190.53 -0.612973 2.93364 0
M  V30 23315 H 2188.09 -0.187355 1.60812 0
M  V30 23316 H 2190.08 -3.11913 2.57861 0
M  V30 23317 H 2188.65 -2.67828 1.61205 0
M  V30 23318 H 2187.87 -1.34052 3.70707 0
M  V30 23319 H 2189.16 -2.16249 4.60558 0
M  V30 23320 H 2188.55 -4.8526 2.90756 0
M  V30 23321 H 2187.11 -5.3839 3.67396 0
M  V30 23322 N 2190.54 -1.55222 -0.272728 0
M  V30 23323 C 2191.96 -1.66547 -0.843751 0
M  V30 23324 C 2192.31 -0.592674 -1.87034 0
M  V30 23325 O 2191.43 0.26578 -2.14762 0
M  V30 23326 C 2192.03 -3.01921 -1.53718 0
M  V30 23327 C 2190.59 -3.15272 -2.05623 0
M  V30 23328 C 2189.73 -2.62344 -0.898377 0
M  V30 23329 H 2192.68 -1.58624 -0.0490719 0
M  V30 23330 H 2192.7 -2.94925 -2.40415 0
M  V30 23331 H 2192.22 -3.79979 -0.789763 0
M  V30 23332 H 2190.32 -2.41988 -2.83324 0
M  V30 23333 H 2190.43 -4.21837 -2.27135 0
M  V30 23334 H 2188.79 -2.19509 -1.29182 0
M  V30 23335 H 2189.58 -3.42906 -0.164467 0
M  V30 23336 N 2192.02 0.537252 -1.4816 0
M  V30 23337 C 2192.95 1.65828 -1.58221 0
M  V30 23338 C 2193.97 1.55959 -0.466975 0
M  V30 23339 O 2195.16 1.62552 -0.737499 0
M  V30 23340 C 2192.26 3.04432 -1.48911 0
M  V30 23341 C 2191.43 3.39855 -2.75349 0
M  V30 23342 C 2190.49 4.57708 -2.59596 0
M  V30 23343 O 2189.51 4.61291 -3.33465 0
M  V30 23344 N 2190.72 5.55436 -1.68734 0
M  V30 23345 H 2193.48 1.57637 -2.54893 0
M  V30 23346 H 2191.04 0.72436 -1.44792 0
M  V30 23347 H 2193.03 3.81136 -1.36078 0
M  V30 23348 H 2191.6 3.0674 -0.602422 0
M  V30 23349 H 2190.82 2.52401 -3.028 0
M  V30 23350 H 2192.11 3.60305 -3.59246 0
M  V30 23351 H 2191.51 5.55313 -1.07908 0
M  V30 23352 H 2190.07 6.31387 -1.61843 0
M  V30 23353 N 2193.5 1.36626 0.785562 0
M  V30 23354 C 2194.43 1.27134 1.90708 0
M  V30 23355 C 2195.45 0.190014 1.61687 0
M  V30 23356 O 2196.63 0.445045 1.72863 0
M  V30 23357 C 2193.73 0.93977 3.25609 0
M  V30 23358 C 2192.91 2.12376 3.82381 0
M  V30 23359 C 2191.97 1.76464 4.95729 0
M  V30 23360 O 2190.99 2.48598 5.12043 0
M  V30 23361 N 2192.19 0.700594 5.76257 0
M  V30 23362 H 2194.96 2.23765 1.99372 0
M  V30 23363 H 2192.52 1.3007 0.964018 0
M  V30 23364 H 2194.51 0.680624 3.98936 0
M  V30 23365 H 2193.08 0.0624623 3.12538 0
M  V30 23366 H 2192.3 2.54548 3.00997 0
M  V30 23367 H 2193.59 2.91468 4.17042 0
M  V30 23368 H 2192.99 0.101724 5.65609 0
M  V30 23369 H 2191.55 0.501279 6.4987 0
M  V30 23370 N 2194.98 -1.01016 1.20969 0
M  V30 23371 C 2195.91 -2.09833 0.922096 0
M  V30 23372 C 2196.92 -1.62536 -0.092682 0
M  V30 23373 O 2198.11 -1.77957 0.139159 0
M  V30 23374 C 2195.21 -3.3696 0.362064 0
M  V30 23375 C 2194.39 -4.13366 1.42993 0
M  V30 23376 C 2193.44 -5.18788 0.880067 0
M  V30 23377 O 2192.47 -5.4734 1.56229 0
M  V30 23378 N 2193.67 -5.79686 -0.307294 0
M  V30 23379 H 2196.44 -2.3509 1.85884 0
M  V30 23380 H 2194 -1.17458 1.11424 0
M  V30 23381 H 2195.99 -4.04695 -0.0200762 0
M  V30 23382 H 2194.56 -3.08902 -0.479382 0
M  V30 23383 H 2193.78 -3.40509 1.98614 0
M  V30 23384 H 2195.07 -4.61192 2.14893 0
M  V30 23385 H 2194.47 -5.58834 -0.878698 0
M  V30 23386 H 2193.02 -6.48738 -0.631001 0
M  V30 23387 N 2196.46 -1.01661 -1.20428 0
M  V30 23388 C 2197.87 -0.737512 -1.71516 0
M  V30 23389 C 2198.22 0.743941 -1.81549 0
M  V30 23390 O 2197.34 1.58058 -1.47806 0
M  V30 23391 C 2197.94 -1.33212 -3.11513 0
M  V30 23392 C 2196.5 -1.10189 -3.5991 0
M  V30 23393 C 2195.64 -1.4378 -2.37113 0
M  V30 23394 H 2198.6 -1.18608 -1.05441 0
M  V30 23395 H 2198.62 -0.722701 -3.73574 0
M  V30 23396 H 2198.13 -2.41034 -3.04178 0
M  V30 23397 H 2196.23 -0.0413411 -3.72577 0
M  V30 23398 H 2196.34 -1.78195 -4.44728 0
M  V30 23399 H 2194.71 -0.856821 -2.39856 0
M  V30 23400 H 2195.49 -2.52658 -2.3242 0
M  V30 23401 N 2197.93 1.36205 -0.792844 0
M  V30 23402 C 2199.35 1.5237 -0.47493 0
M  V30 23403 C 2199.55 1.7458 1.00619 0
M  V30 23404 O 2198.61 1.77927 1.79159 0
M  V30 23405 C 2199.92 2.70745 -1.30835 0
M  V30 23406 C 2201.47 2.84617 -1.30239 0
M  V30 23407 C 2201.94 4.06 -2.11963 0
M  V30 23408 N 2203.43 4.13152 -2.09427 0
M  V30 23409 C 2204.17 5.06158 -2.69428 0
M  V30 23410 N 2203.66 6.04586 -3.38301 0
M  V30 23411 N 2205.46 4.988 -2.59143 0
M  V30 23412 H 2197.61 1.20043 -1.75224 0
M  V30 23413 H 2199.87 0.586198 -0.745034 0
M  V30 23414 H 2199.58 2.60866 -2.35885 0
M  V30 23415 H 2199.45 3.64988 -0.952024 0
M  V30 23416 H 2201.84 2.93954 -0.259799 0
M  V30 23417 H 2201.92 1.91271 -1.6985 0
M  V30 23418 H 2201.56 3.97423 -3.16255 0
M  V30 23419 H 2201.49 4.985 -1.6972 0
M  V30 23420 H 2203.98 3.42682 -1.59303 0
M  V30 23421 H 2204.3 6.72123 -3.81405 0
M  V30 23422 H 2202.64 6.04801 -3.42404 0
M  V30 23423 H 2205.83 4.20855 -2.04935 0
M  V30 23424 H 2206.01 5.71094 -3.06195 0
M  V30 23425 N 2199.41 0.545154 1.47871 0
M  V30 23426 C 2200.64 0.0211204 2.06889 0
M  V30 23427 C 2201.06 -1.26718 1.39957 0
M  V30 23428 O 2200.41 -1.75741 0.492067 0
M  V30 23429 C 2200.46 -0.190754 3.60996 0
M  V30 23430 O 2200.18 1.04652 4.25417 0
M  V30 23431 C 2201.69 -0.753445 4.3685 0
M  V30 23432 H 2198.91 0.0403753 0.669784 0
M  V30 23433 H 2201.45 0.755128 1.90048 0
M  V30 23434 H 2199.6 -0.874854 3.77392 0
M  V30 23435 H 2200.02 0.836702 5.17783 0
M  V30 23436 H 2201.49 -0.851043 5.454 0
M  V30 23437 H 2201.97 -1.76193 4.02309 0
M  V30 23438 H 2202.58 -0.105429 4.25169 0
M  V30 23439 N 2200.89 -1.55074 0.28101 0
M  V30 23440 C 2202.14 -1.98903 -0.334749 0
M  V30 23441 C 2202.45 -1.17291 -1.56532 0
M  V30 23442 O 2203.66 -1.51291 -2.2544 0
M  V30 23443 C 2202.11 -3.54038 -0.646931 0
M  V30 23444 C 2201.72 -4.44434 0.564163 0
M  V30 23445 C 2203.47 -4.06441 -1.22499 0
M  V30 23446 C 2201.37 -5.90967 0.226241 0
M  V30 23447 H 2200.3 -0.742908 -0.128853 0
M  V30 23448 H 2202.95 -1.79382 0.386587 0
M  V30 23449 H 2201.34 -3.69382 -1.42733 0
M  V30 23450 H 2202.51 -4.40859 1.3409 0
M  V30 23451 H 2200.83 -4.02696 1.05947 0
M  V30 23452 H 2203.42 -5.1347 -1.49173 0
M  V30 23453 H 2203.77 -3.55831 -2.16079 0
M  V30 23454 H 2204.3 -3.94559 -0.506751 0
M  V30 23455 H 2201.04 -6.45685 1.13007 0
M  V30 23456 H 2200.56 -5.97597 -0.513612 0
M  V30 23457 H 2202.24 -6.46751 -0.179426 0
M  V30 23458 N 2202.37 -0.00838561 -1.57598 0
M  V30 23459 C 2203.28 0.99645 -2.12387 0
M  V30 23460 C 2204.3 1.37125 -1.0711 0
M  V30 23461 O 2205.47 1.45688 -1.39058 0
M  V30 23462 C 2202.54 2.26694 -2.62318 0
M  V30 23463 C 2201.6 1.95449 -3.82228 0
M  V30 23464 C 2200.83 3.16441 -4.29768 0
M  V30 23465 O 2201.05 4.2841 -3.76592 0
M  V30 23466 O 2199.99 2.99949 -5.21837 0
M  V30 23467 H 2203.81 0.560673 -2.9848 0
M  V30 23468 H 2201.4 0.210961 -1.47903 0
M  V30 23469 H 2203.28 3.01317 -2.94594 0
M  V30 23470 H 2201.96 2.69494 -1.79318 0
M  V30 23471 H 2200.86 1.18275 -3.54911 0
M  V30 23472 H 2202.2 1.57481 -4.66327 0
M  V30 23473 N 2203.85 1.55365 0.264492 0
M  V30 23474 C 2205.26 1.47395 0.612125 0
M  V30 23475 C 2205.46 0.695052 1.89133 0
M  V30 23476 O 2204.52 0.217319 2.51563 0
M  V30 23477 C 2205.83 2.91675 0.731184 0
M  V30 23478 C 2207.38 3.01941 0.824677 0
M  V30 23479 C 2207.86 4.47492 0.975443 0
M  V30 23480 N 2209.35 4.51356 1.04075 0
M  V30 23481 C 2210.08 5.61203 1.17636 0
M  V30 23482 N 2209.58 6.80899 1.27862 0
M  V30 23483 N 2211.37 5.48963 1.20814 0
M  V30 23484 H 2203.52 2.04455 -0.575492 0
M  V30 23485 H 2205.78 0.927493 -0.196115 0
M  V30 23486 H 2205.49 3.51427 -0.138454 0
M  V30 23487 H 2205.36 3.41172 1.60877 0
M  V30 23488 H 2207.75 2.42279 1.68478 0
M  V30 23489 H 2207.83 2.55682 -0.0776929 0
M  V30 23490 H 2207.48 5.07758 0.119969 0
M  V30 23491 H 2207.41 4.91415 1.89259 0
M  V30 23492 H 2209.9 3.65138 0.973782 0
M  V30 23493 H 2210.21 7.60367 1.38067 0
M  V30 23494 H 2208.56 6.83694 1.24851 0
M  V30 23495 H 2211.75 4.5439 1.12461 0
M  V30 23496 H 2211.92 6.34613 1.31038 0
M  V30 23497 N 2205.33 -0.529387 1.48443 0
M  V30 23498 C 2206.74 -0.85798 1.34577 0
M  V30 23499 C 2206.94 -1.98308 0.357235 0
M  V30 23500 O 2206 -2.51528 -0.221335 0
M  V30 23501 C 2207.31 -1.22495 2.74619 0
M  V30 23502 C 2208.86 -1.33479 2.83112 0
M  V30 23503 C 2209.33 -1.73519 4.23858 0
M  V30 23504 N 2210.82 -1.8062 4.26533 0
M  V30 23505 C 2211.56 -2.12987 5.32376 0
M  V30 23506 N 2211.06 -2.43774 6.48495 0
M  V30 23507 N 2212.85 -2.13998 5.1977 0
M  V30 23508 H 2205 0.212962 2.1133 0
M  V30 23509 H 2207.26 0.0326365 0.947438 0
M  V30 23510 H 2206.97 -0.471843 3.4852 0
M  V30 23511 H 2206.84 -2.17495 3.08181 0
M  V30 23512 H 2209.23 -2.07866 2.09465 0
M  V30 23513 H 2209.31 -0.365983 2.53168 0
M  V30 23514 H 2208.95 -0.996925 4.9802 0
M  V30 23515 H 2208.88 -2.71451 4.51245 0
M  V30 23516 H 2211.38 -1.59102 3.42775 0
M  V30 23517 H 2211.69 -2.67579 7.24998 0
M  V30 23518 H 2210.03 -2.41293 6.51769 0
M  V30 23519 H 2213.22 -1.89404 4.2807 0
M  V30 23520 H 2213.4 -2.38891 6.02358 0
M  V30 23521 N 2206.8 -1.37041 -0.778305 0
M  V30 23522 C 2208.08 -1.22426 -1.52549 0
M  V30 23523 C 2208.46 0.184927 -2.10288 0
M  V30 23524 O 2207.81 1.19183 -1.94955 0
M  V30 23525 C 2208.02 -2.31509 -2.6116 0
M  V30 23526 C 2209.37 -2.68727 -3.28741 0
M  V30 23527 O 2210.39 -2.30636 -2.71451 0
M  V30 23528 O 2209.25 -3.34328 -4.32304 0
M  V30 23529 H 2206.34 -0.477338 -0.675335 0
M  V30 23530 H 2208.89 -1.48803 -0.815833 0
M  V30 23531 H 2207.66 -3.25905 -2.16568 0
M  V30 23532 H 2207.28 -2.0656 -3.39733 0
M  V30 23533 N 2208.28 1.00373 -1.21503 0
M  V30 23534 C 2209.21 2.11026 -0.999515 0
M  V30 23535 C 2210.19 1.6993 0.0759372 0
M  V30 23536 O 2211.38 1.94018 -0.0841447 0
M  V30 23537 C 2208.51 3.42677 -0.564769 0
M  V30 23538 C 2207.46 3.97573 -1.58493 0
M  V30 23539 C 2206.79 5.25144 -1.00638 0
M  V30 23540 C 2208.09 4.29491 -2.97212 0
M  V30 23541 H 2209.78 2.29313 -1.92499 0
M  V30 23542 H 2207.33 1.10198 -0.926949 0
M  V30 23543 H 2209.28 4.19486 -0.401165 0
M  V30 23544 H 2208 3.24186 0.396354 0
M  V30 23545 H 2206.66 3.22885 -1.73612 0
M  V30 23546 H 2206.31 5.02986 -0.0369323 0
M  V30 23547 H 2206.01 5.62838 -1.68781 0
M  V30 23548 H 2207.54 6.04597 -0.854121 0
M  V30 23549 H 2208.95 4.97138 -2.85529 0
M  V30 23550 H 2207.35 4.78331 -3.6238 0
M  V30 23551 H 2208.42 3.37714 -3.47962 0
M  V30 23552 N 2209.76 1.02298 1.19887 0
M  V30 23553 C 2210.69 0.556826 2.22333 0
M  V30 23554 C 2211.7 -0.364171 1.58675 0
M  V30 23555 O 2212.89 -0.161502 1.77768 0
M  V30 23556 C 2209.99 -0.208634 3.38257 0
M  V30 23557 C 2209.17 0.715846 4.31503 0
M  V30 23558 C 2208.23 -0.00316348 5.262 0
M  V30 23559 O 2207.25 0.621457 5.65797 0
M  V30 23560 N 2208.45 -1.27589 5.66305 0
M  V30 23561 H 2211.22 1.43789 2.62954 0
M  V30 23562 H 2208.78 0.901285 1.34493 0
M  V30 23563 H 2210.77 -0.69904 3.98617 0
M  V30 23564 H 2209.34 -0.99105 2.96474 0
M  V30 23565 H 2208.56 1.38645 3.69014 0
M  V30 23566 H 2209.85 1.34437 4.90718 0
M  V30 23567 H 2209.25 -1.80419 5.36158 0
M  V30 23568 H 2207.8 -1.71091 6.28945 0
M  V30 23569 N 2211.24 -1.35782 0.800057 0
M  V30 23570 C 2212.47 -2.02903 0.389077 0
M  V30 23571 C 2212.88 -1.60447 -1.00267 0
M  V30 23572 O 2212.22 -0.794482 -1.65631 0
M  V30 23573 C 2212.28 -3.57426 0.385558 0
M  V30 23574 C 2211.94 -4.23124 1.7267 0
M  V30 23575 C 2212.94 -4.45265 2.68393 0
M  V30 23576 C 2210.63 -4.60378 2.00892 0
M  V30 23577 C 2212.62 -5.03754 3.90526 0
M  V30 23578 C 2210.31 -5.18582 3.23289 0
M  V30 23579 C 2211.31 -5.40211 4.17925 0
M  V30 23580 O 2210.99 -5.9719 5.38163 0
M  V30 23581 H 2210.73 -0.657505 0.157044 0
M  V30 23582 H 2213.28 -1.7452 1.08314 0
M  V30 23583 H 2211.51 -3.84973 -0.365061 0
M  V30 23584 H 2213.2 -4.059 -0.00221161 0
M  V30 23585 H 2213.96 -4.1687 2.4788 0
M  V30 23586 H 2209.84 -4.42861 1.28045 0
M  V30 23587 H 2213.39 -5.20552 4.64405 0
M  V30 23588 H 2209.28 -5.46404 3.43676 0
M  V30 23589 H 2210.05 -6.15647 5.39371 0
M  V30 23590 N 2212.72 -0.552988 -1.4758 0
M  V30 23591 C 2213.96 -0.025235 -2.01684 0
M  V30 23592 C 2214.28 1.33112 -1.4332 0
M  V30 23593 O 2215.48 1.94855 -1.89061 0
M  V30 23594 C 2213.94 0.00535725 -3.599 0
M  V30 23595 C 2213.55 -1.3475 -4.27255 0
M  V30 23596 C 2215.29 0.480725 -4.21769 0
M  V30 23597 C 2213.2 -1.27624 -5.77465 0
M  V30 23598 H 2212.13 -0.00566359 -0.753979 0
M  V30 23599 H 2214.78 -0.70021 -1.69615 0
M  V30 23600 H 2213.16 0.745892 -3.88912 0
M  V30 23601 H 2214.34 -2.10541 -4.09889 0
M  V30 23602 H 2212.65 -1.76046 -3.77355 0
M  V30 23603 H 2215.25 0.552366 -5.31839 0
M  V30 23604 H 2215.59 1.49177 -3.88654 0
M  V30 23605 H 2216.12 -0.204822 -3.97272 0
M  V30 23606 H 2212.86 -2.26315 -6.15192 0
M  V30 23607 H 2212.38 -0.560065 -5.97179 0
M  V30 23608 H 2214.06 -0.976533 -6.39588 0
M  V30 23609 N 2214.19 1.54923 -0.28923 0
M  V30 23610 C 2215.42 2.04309 0.326427 0
M  V30 23611 C 2215.84 1.16703 1.48411 0
M  V30 23612 O 2215.19 0.190119 1.81507 0
M  V30 23613 C 2215.24 3.52674 0.793952 0
M  V30 23614 O 2214.97 4.36947 -0.317641 0
M  V30 23615 C 2216.47 4.18007 1.47598 0
M  V30 23616 H 2213.69 0.667059 0.0726155 0
M  V30 23617 H 2216.23 2.00026 -0.425436 0
M  V30 23618 H 2214.39 3.57355 1.49587 0
M  V30 23619 H 2214.8 5.24481 0.0442264 0
M  V30 23620 H 2216.27 5.23379 1.75438 0
M  V30 23621 H 2216.75 3.67029 2.41218 0
M  V30 23622 H 2217.36 4.17368 0.817547 0
M  V30 23623 N 2215.67 0.0167433 1.57591 0
M  V30 23624 C 2216.92 -0.665548 1.91568 0
M  V30 23625 C 2217.25 -1.72485 0.892329 0
M  V30 23626 O 2216.53 -1.94307 -0.0866785 0
M  V30 23627 C 2216.81 -1.29336 3.36072 0
M  V30 23628 C 2216.66 -0.244462 4.49135 0
M  V30 23629 C 2217.98 -2.21488 3.80304 0
M  V30 23630 H 2215.1 -0.240476 0.696664 0
M  V30 23631 H 2217.74 0.071469 1.89866 0
M  V30 23632 H 2215.89 -1.92153 3.37653 0
M  V30 23633 H 2217.56 0.385309 4.59688 0
M  V30 23634 H 2215.81 0.431455 4.31649 0
M  V30 23635 H 2216.48 -0.723111 5.47243 0
M  V30 23636 H 2218.95 -1.68672 3.8038 0
M  V30 23637 H 2217.83 -2.62374 4.82132 0
M  V30 23638 H 2218.09 -3.10094 3.1511 0
M  V30 23639 N 2217.15 -1.55503 -0.256249 0
M  V30 23640 C 2218.38 -1.81278 -1.00762 0
M  V30 23641 C 2218.8 -0.592551 -1.78523 0
M  V30 23642 O 2218.16 0.458239 -1.75413 0
M  V30 23643 C 2218.21 -3.0469 -1.92864 0
M  V30 23644 O 2217.31 -2.8095 -3.01896 0
M  V30 23645 H 2216.65 -0.598669 -0.287213 0
M  V30 23646 H 2219.18 -2.02674 -0.280074 0
M  V30 23647 H 2219.19 -3.33873 -2.34505 0
M  V30 23648 H 2217.87 -3.93145 -1.35682 0
M  V30 23649 H 2216.44 -2.62909 -2.64449 0
M  V30 23650 N 2218.63 0.521507 -1.48721 0
M  V30 23651 C 2219.58 1.62524 -1.63874 0
M  V30 23652 C 2220.55 1.58996 -0.480587 0
M  V30 23653 O 2221.73 1.77293 -0.705116 0
M  V30 23654 C 2218.87 3.00756 -1.69232 0
M  V30 23655 C 2217.98 3.14455 -2.96212 0
M  V30 23656 C 2217.12 4.43298 -2.92678 0
M  V30 23657 C 2216.16 4.50556 -4.14326 0
M  V30 23658 N 2215.29 5.70798 -4.0882 0
M  V30 23659 H 2220.13 1.48913 -2.58126 0
M  V30 23660 H 2217.67 0.724856 -1.28001 0
M  V30 23661 H 2219.63 3.8085 -1.70321 0
M  V30 23662 H 2218.26 3.13119 -0.784641 0
M  V30 23663 H 2217.31 2.27558 -3.0483 0
M  V30 23664 H 2218.62 3.15679 -3.86197 0
M  V30 23665 H 2217.78 5.31691 -2.92215 0
M  V30 23666 H 2216.52 4.44608 -2.00437 0
M  V30 23667 H 2215.52 3.60568 -4.15055 0
M  V30 23668 H 2216.75 4.50977 -5.07737 0
M  V30 23669 H 2214.69 5.7299 -3.19404 0
M  V30 23670 H 2214.61 5.73552 -4.92519 0
M  V30 23671 H 2215.88 6.61455 -4.12429 0
M  V30 23672 N 2220.11 1.37452 0.771027 0
M  V30 23673 C 2221.02 1.35467 1.91535 0
M  V30 23674 C 2222.03 0.254153 1.72134 0
M  V30 23675 O 2223.21 0.48966 1.95357 0
M  V30 23676 C 2220.27 1.16139 3.26669 0
M  V30 23677 C 2219.33 2.35837 3.58719 0
M  V30 23678 C 2218.57 2.17422 4.87405 0
M  V30 23679 O 2218.79 1.15885 5.58504 0
M  V30 23680 O 2217.72 3.05624 5.18534 0
M  V30 23681 H 2221.55 2.3185 1.96161 0
M  V30 23682 H 2219.14 1.18189 0.913879 0
M  V30 23683 H 2221.02 1.07352 4.07497 0
M  V30 23684 H 2219.69 0.228308 3.22894 0
M  V30 23685 H 2218.6 2.50197 2.78123 0
M  V30 23686 H 2219.93 3.27716 3.67237 0
M  V30 23687 N 2221.58 -0.997276 1.22033 0
M  V30 23688 C 2222.49 -2.1209 1.00275 0
M  V30 23689 C 2223.51 -1.73935 -0.0475905 0
M  V30 23690 O 2224.69 -2.00883 0.144171 0
M  V30 23691 C 2221.75 -3.41839 0.578509 0
M  V30 23692 C 2220.81 -3.94122 1.70196 0
M  V30 23693 C 2220.05 -5.17679 1.29787 0
M  V30 23694 O 2220.27 -5.70132 0.174776 0
M  V30 23695 O 2219.2 -5.63603 2.11271 0
M  V30 23696 H 2223.03 -2.33327 1.94402 0
M  V30 23697 H 2220.61 -1.10464 1.00589 0
M  V30 23698 H 2222.5 -4.19927 0.352072 0
M  V30 23699 H 2221.17 -3.21973 -0.333962 0
M  V30 23700 H 2220.08 -3.17227 1.98287 0
M  V30 23701 H 2221.41 -4.18413 2.59213 0
M  V30 23702 N 2223.06 -1.02932 -1.19343 0
M  V30 23703 C 2223.99 -0.631145 -2.24808 0
M  V30 23704 C 2224.97 0.360075 -1.66245 0
M  V30 23705 O 2226.16 0.242692 -1.92678 0
M  V30 23706 C 2223.29 0.0183996 -3.47295 0
M  V30 23707 C 2222.24 -0.895147 -4.18534 0
M  V30 23708 C 2221.57 -0.110686 -5.34585 0
M  V30 23709 C 2222.87 -2.20909 -4.73283 0
M  V30 23710 H 2224.56 -1.5128 -2.5837 0
M  V30 23711 H 2222.11 -0.72884 -1.24193 0
M  V30 23712 H 2224.06 0.308601 -4.20269 0
M  V30 23713 H 2222.79 0.934852 -3.12935 0
M  V30 23714 H 2221.44 -1.16955 -3.47444 0
M  V30 23715 H 2221.09 0.807815 -4.96471 0
M  V30 23716 H 2220.79 -0.71919 -5.83182 0
M  V30 23717 H 2222.32 0.172764 -6.10356 0
M  V30 23718 H 2223.73 -1.98038 -5.38009 0
M  V30 23719 H 2222.13 -2.76955 -5.32368 0
M  V30 23720 H 2223.2 -2.86343 -3.91326 0
M  V30 23721 N 2224.54 1.35356 -0.807246 0
M  V30 23722 C 2225.77 2.03519 -0.399345 0
M  V30 23723 C 2226.19 1.60434 0.981958 0
M  V30 23724 O 2225.55 0.781328 1.636 0
M  V30 23725 C 2225.6 3.57233 -0.491615 0
M  V30 23726 O 2224.7 4.09422 0.494682 0
M  V30 23727 H 2224.04 0.642736 -0.166693 0
M  V30 23728 H 2226.57 1.72939 -1.09331 0
M  V30 23729 H 2226.58 4.06394 -0.361659 0
M  V30 23730 H 2225.26 3.87941 -1.49914 0
M  V30 23731 H 2223.83 3.71482 0.324911 0
M  V30 23732 N 2226.02 0.560807 1.47284 0
M  V30 23733 C 2227.24 0.0410931 2.07359 0
M  V30 23734 C 2227.67 -1.2448 1.41019 0
M  V30 23735 O 2227.03 -1.74654 0.486398 0
M  V30 23736 C 2227.07 -0.134059 3.60351 0
M  V30 23737 O 2226.18 -1.1958 3.94683 0
M  V30 23738 H 2225.52 0.0529407 0.661886 0
M  V30 23739 H 2228.05 0.777515 1.89251 0
M  V30 23740 H 2228.06 -0.347136 4.06521 0
M  V30 23741 H 2226.73 0.805119 4.08033 0
M  V30 23742 H 2225.31 -0.962924 3.60253 0
M  V30 23743 N 2227.5 -1.54768 0.297442 0
M  V30 23744 C 2228.74 -1.99673 -0.31226 0
M  V30 23745 C 2229.07 -1.18735 -1.54684 0
M  V30 23746 O 2228.34 -0.282416 -1.93854 0
M  V30 23747 H 2226.92 -0.737562 -0.118368 0
M  V30 23748 H 2229.58 -1.90583 0.407949 0
M  V30 23749 H 2228.67 -3.06535 -0.586759 0
M  V30 23750 N 2228.97 -0.0251005 -1.5758 0
M  V30 23751 C 2230.25 0.692841 -1.82918 0
M  V30 23752 C 2230.63 1.90566 -0.90817 0
M  V30 23753 O 2229.98 2.2847 0.0371897 0
M  V30 23754 C 2230.19 1.07486 -3.32036 0
M  V30 23755 C 2231.54 1.46819 -3.98408 0
M  V30 23756 O 2232.56 1.16796 -3.36507 0
M  V30 23757 O 2231.42 2.02745 -5.07501 0
M  V30 23758 H 2228.51 0.339537 -0.754085 0
M  V30 23759 H 2231.06 -0.0524754 -1.69619 0
M  V30 23760 H 2229.83 0.211483 -3.90728 0
M  V30 23761 H 2229.46 1.87848 -3.50427 0
M  V30 23762 N 2230.45 1.55637 0.247999 0
M  V30 23763 C 2231.68 1.8181 0.997996 0
M  V30 23764 C 2232.1 0.60201 1.78206 0
M  V30 23765 O 2231.46 -0.44893 1.75654 0
M  V30 23766 C 2231.51 3.05708 1.91245 0
M  V30 23767 O 2230.61 2.82547 3.00401 0
M  V30 23768 H 2229.95 0.600184 0.284035 0
M  V30 23769 H 2232.48 2.0282 0.269321 0
M  V30 23770 H 2232.49 3.35112 2.32731 0
M  V30 23771 H 2231.17 3.93859 1.33595 0
M  V30 23772 H 2229.75 2.64307 2.63051 0
M  V30 23773 N 2231.93 -0.513613 1.48996 0
M  V30 23774 C 2232.86 -1.62541 1.67639 0
M  V30 23775 C 2233.84 -1.61792 0.525116 0
M  V30 23776 O 2235.03 -1.78731 0.759534 0
M  V30 23777 C 2232.16 -3.01076 1.7312 0
M  V30 23778 C 2231.11 -3.16688 2.87911 0
M  V30 23779 C 2230.44 -4.56448 2.78494 0
M  V30 23780 C 2231.74 -2.97906 4.2901 0
M  V30 23781 H 2233.43 -1.47194 2.60719 0
M  V30 23782 H 2230.98 -0.706692 1.25467 0
M  V30 23783 H 2232.93 -3.78742 1.84749 0
M  V30 23784 H 2231.65 -3.17483 0.766297 0
M  V30 23785 H 2230.31 -2.41444 2.75863 0
M  V30 23786 H 2229.96 -4.69714 1.79938 0
M  V30 23787 H 2229.66 -4.67837 3.55531 0
M  V30 23788 H 2231.19 -5.36192 2.92113 0
M  V30 23789 H 2232.6 -3.65351 4.41805 0
M  V30 23790 H 2231 -3.20776 5.07172 0
M  V30 23791 H 2232.07 -1.94157 4.44332 0
M  V30 23792 N 2233.41 -1.37859 -0.763727 0
M  V30 23793 C 2234.63 -1.36896 -1.55802 0
M  V30 23794 C 2235.06 0.0415805 -1.88054 0
M  V30 23795 O 2234.42 1.02086 -1.49827 0
M  V30 23796 C 2234.47 -2.22197 -2.84008 0
M  V30 23797 O 2233.57 -1.6321 -3.7873 0
M  V30 23798 H 2232.91 -0.467399 -0.47163 0
M  V30 23799 H 2235.44 -1.81488 -0.944625 0
M  V30 23800 H 2235.45 -2.35696 -3.33033 0
M  V30 23801 H 2234.13 -3.24721 -2.59864 0
M  V30 23802 H 2232.7 -1.58797 -3.37399 0
M  V30 23803 N 2234.89 0.990791 -1.22561 0
M  V30 23804 C 2236.3 1.54516 -1.04794 0
M  V30 23805 C 2236.65 1.92326 0.387964 0
M  V30 23806 O 2235.77 1.74978 1.27325 0
M  V30 23807 C 2236.37 2.80776 -1.89605 0
M  V30 23808 C 2234.93 3.32649 -1.76129 0
M  V30 23809 C 2234.08 2.05719 -1.85943 0
M  V30 23810 H 2237.03 0.811638 -1.36375 0
M  V30 23811 H 2237.05 3.53223 -1.41471 0
M  V30 23812 H 2236.56 2.53226 -2.94106 0
M  V30 23813 H 2234.66 3.65102 -0.743707 0
M  V30 23814 H 2234.77 4.03109 -2.5892 0
M  V30 23815 H 2233.14 2.19376 -1.29407 0
M  V30 23816 H 2233.92 1.80563 -2.91979 0
M  V30 23817 N 2236.37 1.03564 1.18795 0
M  V30 23818 C 2237.64 0.650466 1.84468 0
M  V30 23819 C 2238.02 -0.870399 1.92321 0
M  V30 23820 O 2237.37 -1.76983 1.44531 0
M  V30 23821 C 2237.58 1.32042 3.23057 0
M  V30 23822 C 2238.93 1.44799 3.99147 0
M  V30 23823 O 2239.95 1.27812 3.32479 0
M  V30 23824 O 2238.81 1.72432 5.18584 0
M  V30 23825 H 2235.91 0.22696 0.795247 0
M  V30 23826 H 2238.45 1.13421 1.26229 0
M  V30 23827 H 2237.22 2.35876 3.12215 0
M  V30 23828 H 2236.85 0.824968 3.88947 0
M  V30 23829 N 2237.84 -1.34926 0.814413 0
M  V30 23830 C 2239.25 -1.80985 0.458396 0
M  V30 23831 C 2239.61 -1.67579 -1.02039 0
M  V30 23832 O 2238.73 -1.21089 -1.7935 0
M  V30 23833 C 2239.33 -3.28595 0.82527 0
M  V30 23834 C 2237.88 -3.72766 0.521743 0
M  V30 23835 C 2237.03 -2.56786 1.04672 0
M  V30 23836 H 2239.98 -1.22794 1.00536 0
M  V30 23837 H 2240 -3.80292 0.125777 0
M  V30 23838 H 2239.52 -3.38321 1.90159 0
M  V30 23839 H 2237.62 -3.68585 -0.545524 0
M  V30 23840 H 2237.73 -4.6723 1.05985 0
M  V30 23841 H 2236.09 -2.50351 0.468666 0
M  V30 23842 H 2236.88 -2.69286 2.12932 0
M  V30 23843 N 2239.32 -0.56861 -1.46985 0
M  V30 23844 C 2240.57 -0.0571845 -2.0332 0
M  V30 23845 C 2240.92 1.28289 -1.43387 0
M  V30 23846 O 2240.22 1.82472 -0.584336 0
M  V30 23847 C 2240.41 0.0817731 -3.57306 0
M  V30 23848 C 2240.24 -1.24328 -4.32172 0
M  V30 23849 C 2239.01 -1.81366 -4.7163 0
M  V30 23850 C 2241.21 -2.1632 -4.66594 0
M  V30 23851 N 2239.19 -3.07757 -5.31186 0
M  V30 23852 C 2240.56 -3.27294 -5.26573 0
M  V30 23853 C 2242.61 -2.16174 -4.48523 0
M  V30 23854 C 2241.32 -4.38236 -5.70388 0
M  V30 23855 C 2243.34 -3.26136 -4.93345 0
M  V30 23856 C 2242.71 -4.35829 -5.53382 0
M  V30 23857 H 2238.8 -0.0633647 -0.779429 0
M  V30 23858 H 2241.39 -0.758409 -1.79322 0
M  V30 23859 H 2239.56 0.75214 -3.81048 0
M  V30 23860 H 2241.29 0.596299 -4.00283 0
M  V30 23861 H 2238.05 -1.35027 -4.53944 0
M  V30 23862 H 2238.47 -3.72211 -5.65498 0
M  V30 23863 H 2243.11 -1.32645 -4.01454 0
M  V30 23864 H 2240.83 -5.22517 -6.16443 0
M  V30 23865 H 2244.42 -3.27124 -4.81125 0
M  V30 23866 H 2243.3 -5.19513 -5.87432 0
M  V30 23867 N 2240.8 1.54608 -0.305646 0
M  V30 23868 C 2241.75 2.23692 0.568382 0
M  V30 23869 C 2242.72 1.22118 1.1259 0
M  V30 23870 O 2243.9 1.50751 1.16956 0
M  V30 23871 C 2241.04 2.9848 1.73215 0
M  V30 23872 C 2240.15 4.14837 1.20558 0
M  V30 23873 C 2239.29 4.77197 2.33359 0
M  V30 23874 C 2238.33 5.8569 1.7786 0
M  V30 23875 N 2237.47 6.41985 2.84252 0
M  V30 23876 H 2242.31 2.97987 -0.0273391 0
M  V30 23877 H 2239.84 1.47078 -0.0252622 0
M  V30 23878 H 2241.8 3.40076 2.41669 0
M  V30 23879 H 2240.43 2.26552 2.29943 0
M  V30 23880 H 2239.48 3.7815 0.413156 0
M  V30 23881 H 2240.79 4.92986 0.759331 0
M  V30 23882 H 2239.95 5.21669 3.09751 0
M  V30 23883 H 2238.69 3.98389 2.81313 0
M  V30 23884 H 2237.69 5.40637 0.999585 0
M  V30 23885 H 2238.92 6.66384 1.30804 0
M  V30 23886 H 2236.86 5.66059 3.31531 0
M  V30 23887 H 2236.78 7.15495 2.44136 0
M  V30 23888 H 2238.05 6.91115 3.60528 0
M  V30 23889 N 2242.28 0.033457 1.57564 0
M  V30 23890 C 2243.69 -0.32297 1.56298 0
M  V30 23891 C 2243.89 -1.72618 1.03949 0
M  V30 23892 O 2242.95 -2.42942 0.688151 0
M  V30 23893 C 2244.26 -0.167612 3.00232 0
M  V30 23894 C 2245.81 -0.240052 3.12078 0
M  V30 23895 C 2246.29 -0.113432 4.5786 0
M  V30 23896 N 2247.78 -0.170277 4.62887 0
M  V30 23897 C 2248.51 -0.096151 5.73319 0
M  V30 23898 N 2248.01 0.0293099 6.92794 0
M  V30 23899 N 2249.8 -0.150453 5.61899 0
M  V30 23900 H 2241.95 0.950989 1.89921 0
M  V30 23901 H 2244.21 0.367623 0.873818 0
M  V30 23902 H 2243.92 0.799162 3.425 0
M  V30 23903 H 2243.79 -0.936019 3.65402 0
M  V30 23904 H 2246.18 -1.19729 2.6972 0
M  V30 23905 H 2246.26 0.558807 2.49622 0
M  V30 23906 H 2245.91 0.840403 5.00899 0
M  V30 23907 H 2245.84 -0.931211 5.18301 0
M  V30 23908 H 2248.33 -0.267214 3.76954 0
M  V30 23909 H 2248.64 0.0790611 7.7276 0
M  V30 23910 H 2246.99 0.0641521 6.9497 0
M  V30 23911 H 2250.18 -0.246899 4.67448 0
M  V30 23912 H 2250.35 -0.0892226 6.47939 0
M  V30 23913 N 2243.76 -1.55766 -0.239741 0
M  V30 23914 C 2245.03 -1.68695 -0.990026 0
M  V30 23915 C 2245.41 -0.575436 -2.03106 0
M  V30 23916 O 2244.76 0.420131 -2.24604 0
M  V30 23917 C 2244.97 -3.09285 -1.61691 0
M  V30 23918 C 2246.32 -3.68114 -2.11606 0
M  V30 23919 O 2247.34 -3.1213 -1.71619 0
M  V30 23920 O 2246.2 -4.66272 -2.85049 0
M  V30 23921 H 2243.3 -0.686399 -0.461287 0
M  V30 23922 H 2245.84 -1.68093 -0.232961 0
M  V30 23923 H 2244.61 -3.81636 -0.86429 0
M  V30 23924 H 2244.24 -3.13927 -2.43999 0
M  V30 23925 N 2245.23 0.505704 -1.49266 0
M  V30 23926 C 2246.2 1.59003 -1.65078 0
M  V30 23927 C 2247.2 1.52064 -0.522794 0
M  V30 23928 O 2248.39 1.553 -0.789145 0
M  V30 23929 C 2245.52 2.98653 -1.64375 0
M  V30 23930 H 2246.71 1.46314 -2.61786 0
M  V30 23931 H 2244.26 0.729592 -1.38227 0
M  V30 23932 H 2245 3.16824 -0.692328 0
M  V30 23933 H 2244.78 3.05098 -2.46287 0
M  V30 23934 H 2246.27 3.77443 -1.7868 0
M  V30 23935 N 2246.71 1.38262 0.756405 0
M  V30 23936 C 2247.66 1.35264 1.87009 0
M  V30 23937 C 2248.63 0.215645 1.64694 0
M  V30 23938 O 2249.81 0.407432 1.86399 0
M  V30 23939 C 2246.95 1.18073 3.24273 0
M  V30 23940 C 2246.07 2.41136 3.58438 0
M  V30 23941 C 2245.2 2.16697 4.8499 0
M  V30 23942 C 2244.24 3.35546 5.11933 0
M  V30 23943 N 2243.38 3.10561 6.2968 0
M  V30 23944 H 2248.22 2.30475 1.88906 0
M  V30 23945 H 2245.76 1.1451 0.923353 0
M  V30 23946 H 2247.71 1.06123 4.03477 0
M  V30 23947 H 2246.34 0.26503 3.2171 0
M  V30 23948 H 2245.4 2.63769 2.74099 0
M  V30 23949 H 2246.71 3.29724 3.74278 0
M  V30 23950 H 2245.86 2.01867 5.72132 0
M  V30 23951 H 2244.6 1.25471 4.71284 0
M  V30 23952 H 2243.61 3.50898 4.23262 0
M  V30 23953 H 2244.83 4.27645 5.27539 0
M  V30 23954 H 2242.78 2.21978 6.17302 0
M  V30 23955 H 2242.69 3.92697 6.46007 0
M  V30 23956 H 2243.96 2.99379 7.19717 0
M  V30 23957 N 2248.19 -0.984277 1.23084 0
M  V30 23958 C 2249.1 -2.11015 1.02518 0
M  V30 23959 C 2250.12 -1.73976 -0.0291397 0
M  V30 23960 O 2251.29 -2.00719 0.165469 0
M  V30 23961 C 2248.36 -3.41207 0.614733 0
M  V30 23962 C 2247.42 -3.92294 1.74366 0
M  V30 23963 C 2246.65 -5.16273 1.3527 0
M  V30 23964 O 2246.87 -5.69915 0.235236 0
M  V30 23965 O 2245.81 -5.6133 2.17237 0
M  V30 23966 H 2249.63 -2.31252 1.96866 0
M  V30 23967 H 2247.22 -1.0939 1.01755 0
M  V30 23968 H 2249.1 -4.1953 0.396591 0
M  V30 23969 H 2247.78 -3.22309 -0.299794 0
M  V30 23970 H 2246.68 -3.15106 2.01641 0
M  V30 23971 H 2248.02 -4.1564 2.63637 0
M  V30 23972 N 2249.67 -1.04192 -1.18244 0
M  V30 23973 C 2250.62 -0.634076 -2.21919 0
M  V30 23974 C 2251.59 0.358736 -1.6218 0
M  V30 23975 O 2252.77 0.252433 -1.89123 0
M  V30 23976 C 2249.91 -0.00451601 -3.451 0
M  V30 23977 C 2249.02 -1.04495 -4.19172 0
M  V30 23978 C 2248.16 -0.383769 -5.29812 0
M  V30 23979 C 2247.2 -1.40921 -5.95657 0
M  V30 23980 N 2246.33 -0.772907 -6.97833 0
M  V30 23981 H 2251.17 -1.52268 -2.56161 0
M  V30 23982 H 2248.71 -0.761723 -1.25842 0
M  V30 23983 H 2250.67 0.377846 -4.15485 0
M  V30 23984 H 2249.3 0.847597 -3.11473 0
M  V30 23985 H 2248.35 -1.54524 -3.47601 0
M  V30 23986 H 2249.66 -1.82376 -4.64263 0
M  V30 23987 H 2248.82 0.05273 -6.06677 0
M  V30 23988 H 2247.56 0.427123 -4.85826 0
M  V30 23989 H 2246.56 -1.85583 -5.17532 0
M  V30 23990 H 2247.79 -2.22182 -6.41726 0
M  V30 23991 H 2245.73 0.0176555 -6.55998 0
M  V30 23992 H 2245.65 -1.48941 -7.41183 0
M  V30 23993 H 2246.92 -0.360847 -7.78664 0
M  V30 23994 N 2251.15 1.34492 -0.821557 0
M  V30 23995 C 2252.08 2.32079 -0.257179 0
M  V30 23996 C 2253.06 1.58177 0.625617 0
M  V30 23997 O 2254.24 1.86167 0.552779 0
M  V30 23998 C 2251.37 3.42373 0.582898 0
M  V30 23999 C 2250.33 4.2752 -0.202646 0
M  V30 24000 C 2249.65 5.2927 0.760086 0
M  V30 24001 C 2250.95 5.02906 -1.41007 0
M  V30 24002 H 2252.65 2.79531 -1.07252 0
M  V30 24003 H 2250.19 1.34392 -0.517187 0
M  V30 24004 H 2252.15 4.09657 0.9879 0
M  V30 24005 H 2250.87 2.93568 1.43128 0
M  V30 24006 H 2249.53 3.61837 -0.589 0
M  V30 24007 H 2249.18 4.76727 1.60438 0
M  V30 24008 H 2248.88 5.87115 0.238706 0
M  V30 24009 H 2250.4 5.99422 1.16297 0
M  V30 24010 H 2251.81 5.63052 -1.07915 0
M  V30 24011 H 2250.21 5.70319 -1.86699 0
M  V30 24012 H 2251.28 4.3268 -2.18897 0
M  V30 24013 N 2252.62 0.576397 1.46681 0
M  V30 24014 C 2253.53 -0.1631 2.34032 0
M  V30 24015 C 2254.55 -0.892475 1.49368 0
M  V30 24016 O 2255.73 -0.857074 1.82253 0
M  V30 24017 C 2252.79 -1.16789 3.26437 0
M  V30 24018 C 2251.85 -0.443869 4.26999 0
M  V30 24019 C 2251.09 -1.40079 5.14989 0
M  V30 24020 O 2251.31 -2.63692 5.05789 0
M  V30 24021 O 2250.24 -0.914812 5.94907 0
M  V30 24022 H 2254.07 0.553932 2.98606 0
M  V30 24023 H 2251.65 0.336846 1.45553 0
M  V30 24024 H 2253.54 -1.74741 3.83462 0
M  V30 24025 H 2252.21 -1.8665 2.64468 0
M  V30 24026 H 2251.12 0.177336 3.73679 0
M  V30 24027 H 2252.45 0.213652 4.91736 0
M  V30 24028 N 2254.1 -1.54444 0.313841 0
M  V30 24029 C 2255.05 -2.2399 -0.556511 0
M  V30 24030 C 2256.02 -1.22713 -1.11941 0
M  V30 24031 O 2257.2 -1.51369 -1.16155 0
M  V30 24032 C 2254.34 -2.99395 -1.7163 0
M  V30 24033 C 2253.46 -4.1547 -1.18357 0
M  V30 24034 C 2252.59 -4.78428 -2.30825 0
M  V30 24035 C 2251.63 -5.86625 -1.74751 0
M  V30 24036 N 2250.77 -6.43484 -2.80844 0
M  V30 24037 H 2255.61 -2.97969 0.0431417 0
M  V30 24038 H 2253.15 -1.47063 0.0330618 0
M  V30 24039 H 2255.1 -3.41353 -2.39862 0
M  V30 24040 H 2253.73 -2.27769 -2.28738 0
M  V30 24041 H 2252.79 -3.78363 -0.393096 0
M  V30 24042 H 2254.1 -4.93382 -0.733176 0
M  V30 24043 H 2253.25 -5.23305 -3.0698 0
M  V30 24044 H 2251.99 -3.99876 -2.79197 0
M  V30 24045 H 2251 -5.41159 -0.9709 0
M  V30 24046 H 2252.22 -6.67068 -1.27269 0
M  V30 24047 H 2250.17 -5.67809 -3.28525 0
M  V30 24048 H 2250.08 -7.1678 -2.40339 0
M  V30 24049 H 2251.35 -6.93017 -3.56857 0
M  V30 24050 N 2255.58 -0.0418125 -1.57545 0
M  V30 24051 C 2256.51 0.964763 -2.07906 0
M  V30 24052 C 2257.53 1.28077 -1.005 0
M  V30 24053 O 2258.71 1.2432 -1.28089 0
M  V30 24054 C 2255.81 2.28883 -2.49932 0
M  V30 24055 C 2254.99 2.15612 -3.80566 0
M  V30 24056 C 2254.05 3.31062 -4.09005 0
M  V30 24057 O 2253.07 3.07382 -4.79067 0
M  V30 24058 N 2254.27 4.5525 -3.60178 0
M  V30 24059 H 2257.04 0.534977 -2.94887 0
M  V30 24060 H 2254.6 0.144652 -1.61252 0
M  V30 24061 H 2256.59 3.04967 -2.6604 0
M  V30 24062 H 2255.16 2.6346 -1.68249 0
M  V30 24063 H 2254.38 1.24177 -3.74131 0
M  V30 24064 H 2255.67 2.03963 -4.6613 0
M  V30 24065 H 2255.07 4.7738 -3.0352 0
M  V30 24066 H 2253.63 5.2846 -3.81541 0
M  V30 24067 N 2257.06 1.55891 0.231477 0
M  V30 24068 C 2257.99 1.88072 1.31002 0
M  V30 24069 C 2259 0.76817 1.43537 0
M  V30 24070 O 2260.19 1.0464 1.44612 0
M  V30 24071 C 2257.29 2.06548 2.68684 0
M  V30 24072 C 2256.47 3.37507 2.78222 0
M  V30 24073 C 2255.52 3.45536 3.96851 0
M  V30 24074 O 2254.55 4.1864 3.85655 0
M  V30 24075 N 2255.75 2.75953 5.10715 0
M  V30 24076 H 2258.52 2.81178 1.03726 0
M  V30 24077 H 2256.08 1.56316 0.421546 0
M  V30 24078 H 2258.07 2.09245 3.46408 0
M  V30 24079 H 2256.64 1.20114 2.88602 0
M  V30 24080 H 2255.86 3.46994 1.87053 0
M  V30 24081 H 2257.15 4.23796 2.81557 0
M  V30 24082 H 2256.55 2.16321 5.22706 0
M  V30 24083 H 2255.1 2.84324 5.86518 0
M  V30 24084 N 2258.54 -0.497781 1.49532 0
M  V30 24085 C 2259.47 -1.61575 1.62562 0
M  V30 24086 C 2260.48 -1.54666 0.508161 0
M  V30 24087 O 2261.67 -1.6054 0.780338 0
M  V30 24088 C 2258.77 -3.00376 1.56931 0
M  V30 24089 C 2257.94 -3.32435 2.84263 0
M  V30 24090 C 2257 -4.50664 2.7164 0
M  V30 24091 O 2256.03 -4.52288 3.45578 0
M  V30 24092 N 2257.23 -5.50767 1.83401 0
M  V30 24093 H 2260 -1.50823 2.58983 0
M  V30 24094 H 2257.56 -0.685717 1.46661 0
M  V30 24095 H 2259.55 -3.77394 1.46136 0
M  V30 24096 H 2258.12 -3.05035 0.683537 0
M  V30 24097 H 2257.34 -2.44284 3.09385 0
M  V30 24098 H 2258.63 -3.50654 3.68673 0
M  V30 24099 H 2258.02 -5.52257 1.22593 0
M  V30 24100 H 2256.58 -6.26874 1.78526 0
M  V30 24101 N 2260.01 -1.38661 -0.749062 0
M  V30 24102 C 2260.95 -1.30635 -1.87109 0
M  V30 24103 C 2261.93 -0.182538 -1.61572 0
M  V30 24104 O 2263.11 -0.360624 -1.85018 0
M  V30 24105 C 2260.24 -1.02516 -3.22813 0
M  V30 24106 C 2259.28 -2.16896 -3.6723 0
M  V30 24107 S 2260.12 -3.79072 -3.78239 0
M  V30 24108 C 2261.27 -3.53151 -5.16754 0
M  V30 24109 H 2261.5 -2.25597 -1.93632 0
M  V30 24110 H 2259.04 -1.2455 -0.912503 0
M  V30 24111 H 2261 -0.869771 -4.0118 0
M  V30 24112 H 2259.66 -0.0926436 -3.13963 0
M  V30 24113 H 2258.85 -1.92779 -4.65674 0
M  V30 24114 H 2258.45 -2.28566 -2.9603 0
M  V30 24115 H 2260.74 -3.09545 -6.02651 0
M  V30 24116 H 2261.69 -4.51005 -5.45894 0
M  V30 24117 H 2262.09 -2.87562 -4.85766 0
M  V30 24118 N 2261.49 0.977736 -1.23605 0
M  V30 24119 C 2262.44 2.05544 -0.9867 0
M  V30 24120 C 2263.43 1.60755 0.0682726 0
M  V30 24121 O 2264.62 1.76412 -0.144193 0
M  V30 24122 C 2261.75 3.38319 -0.582683 0
M  V30 24123 C 2260.83 3.89698 -1.6732 0
M  V30 24124 N 2261.23 4.14127 -2.90401 0
M  V30 24125 C 2259.52 4.18259 -1.54839 0
M  V30 24126 C 2260.22 4.5611 -3.61025 0
M  V30 24127 N 2259.2 4.60696 -2.88548 0
M  V30 24128 H 2263 2.22392 -1.92143 0
M  V30 24129 H 2260.52 1.16072 -1.13582 0
M  V30 24130 H 2262.51 4.15116 -0.385313 0
M  V30 24131 H 2261.17 3.22862 0.344973 0
M  V30 24132 H 2262.18 4.01871 -3.2668 0
M  V30 24133 H 2258.86 4.11792 -0.688041 0
M  V30 24134 H 2260.25 4.83506 -4.66553 0
M  V30 24135 N 2262.97 1.04818 1.1769 0
M  V30 24136 C 2264.22 0.751165 1.87191 0
M  V30 24137 C 2264.53 -0.724409 1.81691 0
M  V30 24138 O 2265.74 -1.13523 2.46627 0
M  V30 24139 C 2264.2 1.29344 3.35854 0
M  V30 24140 C 2263.8 2.79818 3.49865 0
M  V30 24141 C 2265.55 1.07329 4.10707 0
M  V30 24142 C 2263.45 3.27365 4.9253 0
M  V30 24143 H 2262.38 0.2773 0.701157 0
M  V30 24144 H 2265.04 1.26498 1.3293 0
M  V30 24145 H 2263.42 0.707445 3.8963 0
M  V30 24146 H 2264.59 3.4424 3.06326 0
M  V30 24147 H 2262.91 3.0033 2.88428 0
M  V30 24148 H 2265.5 1.40359 5.15949 0
M  V30 24149 H 2265.85 0.0108732 4.16299 0
M  V30 24150 H 2266.38 1.62429 3.63127 0
M  V30 24151 H 2263.12 4.3302 4.92111 0
M  V30 24152 H 2262.64 2.67683 5.36755 0
M  V30 24153 H 2264.32 3.21825 5.61282 0
M  V30 24154 N 2264.45 -1.34055 0.828678 0
M  V30 24155 C 2265.7 -1.98401 0.420115 0
M  V30 24156 C 2266.03 -1.65527 -1.01561 0
M  V30 24157 O 2265.3 -0.929861 -1.70833 0
M  V30 24158 C 2265.59 -3.54558 0.629333 0
M  V30 24159 C 2265.44 -3.97155 2.11159 0
M  V30 24160 C 2266.76 -4.40046 0.0689529 0
M  V30 24161 H 2263.88 -0.720706 0.154117 0
M  V30 24162 H 2266.52 -1.58858 1.04231 0
M  V30 24163 H 2264.67 -3.88372 0.09971 0
M  V30 24164 H 2266.34 -3.73647 2.70529 0
M  V30 24165 H 2264.58 -3.47257 2.59991 0
M  V30 24166 H 2265.26 -5.05883 2.20877 0
M  V30 24167 H 2267.73 -4.12819 0.52153 0
M  V30 24168 H 2266.61 -5.48352 0.245102 0
M  V30 24169 H 2266.87 -4.30017 -1.02653 0
M  V30 24170 N 2265.93 -0.584167 -1.46374 0
M  V30 24171 C 2267.2 -0.00337318 -1.956 0
M  V30 24172 C 2267.58 1.45779 -1.52682 0
M  V30 24173 O 2266.93 2.1484 -0.778198 0
M  V30 24174 C 2267.14 -0.176953 -3.48551 0
M  V30 24175 C 2268.49 -0.0455355 -4.24576 0
M  V30 24176 O 2269.51 -0.105863 -3.56043 0
M  V30 24177 O 2268.37 0.0889415 -5.46428 0
M  V30 24178 H 2265.47 0.0489921 -0.825548 0
M  V30 24179 H 2268.01 -0.652588 -1.5665 0
M  V30 24180 H 2266.79 -1.19267 -3.72681 0
M  V30 24181 H 2266.41 0.508626 -3.94333 0
M  V30 24182 N 2267.41 1.54275 -0.322027 0
M  V30 24183 C 2268.34 2.20517 0.587141 0
M  V30 24184 C 2269.32 1.18169 1.1169 0
M  V30 24185 O 2270.5 1.46901 1.18119 0
M  V30 24186 C 2267.63 2.86565 1.80549 0
M  V30 24187 C 2266.67 4.0262 1.40711 0
M  V30 24188 S 2267.51 5.33647 0.445124 0
M  V30 24189 C 2268.66 6.03188 1.67079 0
M  V30 24190 H 2268.9 2.9729 0.0244352 0
M  V30 24191 H 2266.43 1.54035 -0.106114 0
M  V30 24192 H 2268.39 3.25241 2.50457 0
M  V30 24193 H 2267.05 2.09599 2.33938 0
M  V30 24194 H 2266.24 4.47691 2.31493 0
M  V30 24195 H 2265.84 3.6561 0.787755 0
M  V30 24196 H 2268.13 6.25273 2.60845 0
M  V30 24197 H 2269.08 6.96758 1.26227 0
M  V30 24198 H 2269.49 5.33079 1.85707 0
M  V30 24199 N 2268.88 0.0501669 1.5752 0
M  V30 24200 C 2269.81 -0.922529 2.14503 0
M  V30 24201 C 2270.79 -1.32518 1.06644 0
M  V30 24202 O 2271.98 -1.40007 1.34579 0
M  V30 24203 C 2269.11 -2.19771 2.6892 0
M  V30 24204 C 2268.06 -1.93516 3.81753 0
M  V30 24205 C 2267.39 -3.2748 4.22683 0
M  V30 24206 C 2268.69 -1.25756 5.06935 0
M  V30 24207 H 2270.38 -0.4479 2.96031 0
M  V30 24208 H 2267.93 -0.213999 1.42401 0
M  V30 24209 H 2269.88 -2.88216 3.07424 0
M  V30 24210 H 2268.61 -2.69438 1.84583 0
M  V30 24211 H 2267.27 -1.27483 3.4372 0
M  V30 24212 H 2266.91 -3.74946 3.35298 0
M  V30 24213 H 2266.61 -3.10711 4.98731 0
M  V30 24214 H 2268.14 -3.97158 4.63786 0
M  V30 24215 H 2269.55 -1.84234 5.42891 0
M  V30 24216 H 2267.95 -1.19317 5.88119 0
M  V30 24217 H 2269.02 -0.233451 4.84338 0
M  V30 24218 N 2270.36 -1.56011 -0.223207 0
M  V30 24219 C 2271.59 -1.83374 -0.968946 0
M  V30 24220 C 2272.01 -0.630285 -1.77226 0
M  V30 24221 O 2271.37 0.420928 -1.76346 0
M  V30 24222 C 2271.42 -3.08712 -1.86357 0
M  V30 24223 O 2270.52 -2.8729 -2.95868 0
M  V30 24224 H 2269.86 -0.604626 -0.27445 0
M  V30 24225 H 2272.39 -2.03222 -0.237021 0
M  V30 24226 H 2272.4 -3.38772 -2.2737 0
M  V30 24227 H 2271.08 -3.95935 -1.27312 0
M  V30 24228 H 2269.65 -2.68459 -2.58813 0
M  V30 24229 N 2271.84 0.489844 -1.49794 0
M  V30 24230 C 2272.79 1.59011 -1.67284 0
M  V30 24231 C 2273.76 1.5794 -0.514204 0
M  V30 24232 O 2274.94 1.75757 -0.742564 0
M  V30 24233 C 2272.08 2.97099 -1.75574 0
M  V30 24234 C 2271.19 3.08102 -3.02816 0
M  V30 24235 C 2270.33 4.3699 -3.02016 0
M  V30 24236 C 2269.37 4.41666 -4.2379 0
M  V30 24237 N 2268.51 5.61998 -4.20836 0
M  V30 24238 H 2273.35 1.43405 -2.61226 0
M  V30 24239 H 2270.88 0.697542 -1.2951 0
M  V30 24240 H 2272.84 3.77152 -1.78361 0
M  V30 24241 H 2271.47 3.11384 -0.850882 0
M  V30 24242 H 2270.52 2.21041 -3.09588 0
M  V30 24243 H 2271.83 3.07416 -3.92806 0
M  V30 24244 H 2270.99 5.25373 -3.03427 0
M  V30 24245 H 2269.73 4.40256 -2.09823 0
M  V30 24246 H 2268.73 3.51683 -4.2261 0
M  V30 24247 H 2269.96 4.40106 -5.17188 0
M  V30 24248 H 2267.9 5.66086 -3.31486 0
M  V30 24249 H 2267.82 5.62976 -5.04574 0
M  V30 24250 H 2269.09 6.52558 -4.26367 0
M  V30 24251 N 2273.32 1.39056 0.741698 0
M  V30 24252 C 2274.23 1.395 1.88619 0
M  V30 24253 C 2275.24 0.290608 1.71556 0
M  V30 24254 O 2276.42 0.530988 1.94274 0
M  V30 24255 C 2273.48 1.23042 3.24132 0
M  V30 24256 C 2272.55 2.43393 3.53636 0
M  V30 24257 C 2271.78 2.27711 4.82683 0
M  V30 24258 O 2272 1.27706 5.5592 0
M  V30 24259 O 2270.94 3.16554 5.11935 0
M  V30 24260 H 2274.76 2.35959 1.91199 0
M  V30 24261 H 2272.35 1.20101 0.888604 0
M  V30 24262 H 2274.23 1.15971 4.05128 0
M  V30 24263 H 2272.9 0.296747 3.22337 0
M  V30 24264 H 2271.81 2.5604 2.72753 0
M  V30 24265 H 2273.14 3.35431 3.60204 0
M  V30 24266 N 2274.8 -0.971167 1.24121 0
M  V30 24267 C 2276.04 -1.70799 1.07287 0
M  V30 24268 C 2276.36 -1.91696 -0.388868 0
M  V30 24269 O 2277.56 -2.62915 -0.677333 0
M  V30 24270 C 2276.02 -3.07413 1.8715 0
M  V30 24271 C 2275.63 -2.94371 3.37712 0
M  V30 24272 C 2277.37 -3.84992 1.78834 0
M  V30 24273 C 2275.28 -4.26274 4.09933 0
M  V30 24274 H 2274.21 -0.640483 0.397865 0
M  V30 24275 H 2276.86 -1.08247 1.48172 0
M  V30 24276 H 2275.24 -3.70774 1.39078 0
M  V30 24277 H 2276.42 -2.40044 3.93339 0
M  V30 24278 H 2274.73 -2.30261 3.46942 0
M  V30 24279 H 2277.33 -4.82658 2.30098 0
M  V30 24280 H 2277.67 -4.09435 0.752912 0
M  V30 24281 H 2278.2 -3.2835 2.24568 0
M  V30 24282 H 2274.94 -4.07024 5.13821 0
M  V30 24283 H 2274.46 -4.8043 3.59091 0
M  V30 24284 H 2276.14 -4.94912 4.16739 0
M  V30 24285 N 2276.27 -1.05441 -1.17133 0
M  V30 24286 C 2277.21 -0.615578 -2.20779 0
M  V30 24287 C 2278.22 0.321973 -1.59584 0
M  V30 24288 O 2279.41 0.114313 -1.78134 0
M  V30 24289 C 2276.51 0.118878 -3.38691 0
M  V30 24290 C 2275.68 -0.829999 -4.29453 0
M  V30 24291 C 2274.74 -0.13635 -5.26023 0
M  V30 24292 O 2273.77 -0.771249 -5.63951 0
M  V30 24293 N 2274.97 1.1253 -5.69489 0
M  V30 24294 H 2277.73 -1.5071 -2.59049 0
M  V30 24295 H 2275.29 -0.936627 -1.32056 0
M  V30 24296 H 2277.29 0.593108 -4.0033 0
M  V30 24297 H 2275.86 0.912097 -2.98998 0
M  V30 24298 H 2275.08 -1.4838 -3.65208 0
M  V30 24299 H 2276.36 -1.474 -4.86981 0
M  V30 24300 H 2275.76 1.6614 -5.40753 0
M  V30 24301 H 2274.32 1.54355 -6.3326 0
M  V30 24302 N 2277.75 1.33613 -0.835776 0
M  V30 24303 C 2278.66 2.33051 -0.269129 0
M  V30 24304 C 2279.68 1.63209 0.603222 0
M  V30 24305 O 2280.85 1.94886 0.508078 0
M  V30 24306 C 2277.92 3.42325 0.549031 0
M  V30 24307 C 2276.98 4.27893 -0.347231 0
M  V30 24308 C 2276.21 5.31949 0.431976 0
M  V30 24309 O 2276.44 5.45589 1.66399 0
M  V30 24310 O 2275.37 6.01592 -0.192404 0
M  V30 24311 H 2279.2 2.8337 -1.09248 0
M  V30 24312 H 2276.78 1.369 -0.598222 0
M  V30 24313 H 2278.66 4.09017 1.01407 0
M  V30 24314 H 2277.34 2.94228 1.34949 0
M  V30 24315 H 2276.25 3.6408 -0.860043 0
M  V30 24316 H 2277.58 4.79465 -1.11238 0
M  V30 24317 N 2279.23 0.591922 1.46062 0
M  V30 24318 C 2280.16 -0.123632 2.33172 0
M  V30 24319 C 2281.14 -0.874505 1.45899 0
M  V30 24320 O 2282.33 -0.84815 1.747 0
M  V30 24321 C 2279.46 -1.13188 3.28338 0
M  V30 24322 C 2278.41 -0.495249 4.25125 0
M  V30 24323 C 2277.74 -1.61063 5.09866 0
M  V30 24324 C 2279.04 0.573516 5.19142 0
M  V30 24325 H 2280.73 0.603698 2.9325 0
M  V30 24326 H 2278.28 0.291766 1.41013 0
M  V30 24327 H 2280.23 -1.6409 3.8814 0
M  V30 24328 H 2278.95 -1.8896 2.66386 0
M  V30 24329 H 2277.61 -0.00723008 3.66599 0
M  V30 24330 H 2277.26 -2.35824 4.44293 0
M  V30 24331 H 2276.96 -1.19025 5.75419 0
M  V30 24332 H 2278.48 -2.12223 5.72533 0
M  V30 24333 H 2279.9 0.149201 5.73106 0
M  V30 24334 H 2278.3 0.91474 5.93087 0
M  V30 24335 H 2279.37 1.45625 4.62516 0
M  V30 24336 N 2280.71 -1.54102 0.330204 0
M  V30 24337 C 2281.64 -2.22079 -0.566863 0
M  V30 24338 C 2282.65 -1.22296 -1.0746 0
M  V30 24339 O 2283.84 -1.48727 -0.987038 0
M  V30 24340 C 2280.94 -2.87689 -1.79133 0
M  V30 24341 C 2280.12 -4.13669 -1.42115 0
M  V30 24342 C 2279.17 -4.6281 -2.50386 0
M  V30 24343 O 2278.2 -5.27338 -2.14251 0
M  V30 24344 N 2279.4 -4.37602 -3.81425 0
M  V30 24345 H 2282.17 -2.99696 0.0152371 0
M  V30 24346 H 2279.73 -1.61169 0.153709 0
M  V30 24347 H 2281.72 -3.17485 -2.50969 0
M  V30 24348 H 2280.29 -2.13738 -2.28111 0
M  V30 24349 H 2279.51 -3.90565 -0.534132 0
M  V30 24350 H 2280.8 -4.95642 -1.14962 0
M  V30 24351 H 2280.2 -3.85967 -4.13577 0
M  V30 24352 H 2278.75 -4.72037 -4.49472 0
M  V30 24353 N 2282.19 -0.0585199 -1.57491 0
M  V30 24354 C 2283.41 0.626486 -1.97712 0
M  V30 24355 C 2283.84 1.63149 -0.93616 0
M  V30 24356 O 2283.19 1.81025 0.0997792 0
M  V30 24357 C 2283.24 1.28332 -3.36992 0
M  V30 24358 O 2282.35 2.39907 -3.35437 0
M  V30 24359 H 2281.69 0.162255 -0.643871 0
M  V30 24360 H 2284.22 -0.1291 -2.04192 0
M  V30 24361 H 2284.23 1.63328 -3.73882 0
M  V30 24362 H 2282.9 0.546816 -4.1229 0
M  V30 24363 H 2281.48 2.06803 -3.10301 0
M  V30 24364 N 2283.66 1.56128 0.21493 0
M  V30 24365 C 2284.61 1.92954 1.26639 0
M  V30 24366 C 2285.58 0.787555 1.46242 0
M  V30 24367 O 2286.77 1.04402 1.59702 0
M  V30 24368 C 2283.91 2.2573 2.61036 0
M  V30 24369 C 2283.02 3.52895 2.49177 0
M  V30 24370 C 2282.15 3.75087 3.76143 0
M  V30 24371 C 2281.19 4.95744 3.59033 0
M  V30 24372 N 2280.33 5.14291 4.77963 0
M  V30 24373 H 2285.17 2.82608 0.945334 0
M  V30 24374 H 2282.71 1.39871 0.455465 0
M  V30 24375 H 2284.67 2.42745 3.39309 0
M  V30 24376 H 2283.3 1.39241 2.91225 0
M  V30 24377 H 2282.35 3.44037 1.62304 0
M  V30 24378 H 2283.66 4.41322 2.32458 0
M  V30 24379 H 2282.81 3.92234 4.62858 0
M  V30 24380 H 2281.55 2.84954 3.95794 0
M  V30 24381 H 2280.56 4.7854 2.70701 0
M  V30 24382 H 2281.78 5.87368 3.40846 0
M  V30 24383 H 2279.73 4.27102 4.97916 0
M  V30 24384 H 2279.65 5.96862 4.63996 0
M  V30 24385 H 2280.91 5.35879 5.66086 0
M  V30 24386 N 2285.14 -0.481893 1.50052 0
M  V30 24387 C 2286.55 -1.06303 1.53482 0
M  V30 24388 C 2286.9 -1.9337 0.332031 0
M  V30 24389 O 2286.03 -2.0913 -0.556219 0
M  V30 24390 C 2286.62 -1.93461 2.78133 0
M  V30 24391 C 2285.18 -2.46702 2.8428 0
M  V30 24392 C 2284.33 -1.2478 2.47639 0
M  V30 24393 H 2287.28 -0.264968 1.56472 0
M  V30 24394 H 2287.3 -2.78395 2.59377 0
M  V30 24395 H 2286.81 -1.30065 3.65656 0
M  V30 24396 H 2284.92 -3.13682 2.01082 0
M  V30 24397 H 2285.03 -2.82548 3.86915 0
M  V30 24398 H 2283.39 -1.57915 1.99837 0
M  V30 24399 H 2284.18 -0.630634 3.37458 0
M  V30 24400 N 2286.62 -1.39448 -0.734313 0
M  V30 24401 C 2287.9 -1.27217 -1.48577 0
M  V30 24402 C 2288.28 0.117931 -2.1077 0
M  V30 24403 O 2287.63 1.12921 -1.98648 0
M  V30 24404 C 2287.84 -2.397 -2.53663 0
M  V30 24405 C 2289.18 -2.7905 -3.20026 0
M  V30 24406 O 2290.21 -2.39155 -2.63976 0
M  V30 24407 O 2289.07 -3.47912 -4.21449 0
M  V30 24408 H 2286.16 -0.498582 -0.659807 0
M  V30 24409 H 2288.71 -1.51323 -0.76808 0
M  V30 24410 H 2287.48 -3.3263 -2.0609 0
M  V30 24411 H 2287.1 -2.17264 -3.3299 0
M  V30 24412 N 2288.1 0.964571 -1.24635 0
M  V30 24413 C 2289.51 1.23379 -1.01242 0
M  V30 24414 C 2289.71 1.99589 0.276865 0
M  V30 24415 O 2288.77 2.32189 0.9922 0
M  V30 24416 C 2290.08 2.01787 -2.22941 0
M  V30 24417 C 2291.63 2.14868 -2.27598 0
M  V30 24418 C 2292.11 2.96672 -3.48927 0
M  V30 24419 N 2293.6 3.04253 -3.49262 0
M  V30 24420 C 2294.33 3.67916 -4.39801 0
M  V30 24421 N 2293.83 4.33272 -5.40599 0
M  V30 24422 N 2295.62 3.64959 -4.27506 0
M  V30 24423 H 2287.77 0.454466 -2.07481 0
M  V30 24424 H 2290.04 0.263474 -0.910651 0
M  V30 24425 H 2289.74 1.53178 -3.1659 0
M  V30 24426 H 2289.62 3.02514 -2.25311 0
M  V30 24427 H 2292 2.62678 -1.34478 0
M  V30 24428 H 2292.08 1.13478 -2.29252 0
M  V30 24429 H 2291.73 2.49555 -4.42363 0
M  V30 24430 H 2291.66 3.98266 -3.44517 0
M  V30 24431 H 2294.15 2.57767 -2.76342 0
M  V30 24432 H 2294.46 4.79676 -6.05913 0
M  V30 24433 H 2292.81 4.31931 -5.44482 0
M  V30 24434 H 2296 3.13079 -3.47993 0
M  V30 24435 H 2296.17 4.1429 -4.98265 0
M  V30 24436 N 2289.58 1.0606 1.16572 0
M  V30 24437 C 2290.8 0.796596 1.91492 0
M  V30 24438 C 2291.23 -0.642837 1.76774 0
M  V30 24439 O 2290.58 -1.44766 1.09144 0
M  V30 24440 C 2290.63 1.19309 3.40291 0
M  V30 24441 O 2289.74 0.330466 4.11074 0
M  V30 24442 H 2289.08 0.291337 0.596673 0
M  V30 24443 H 2291.61 1.41578 1.47706 0
M  V30 24444 H 2291.62 1.16363 3.91055 0
M  V30 24445 H 2290.29 2.24159 3.50322 0
M  V30 24446 H 2288.87 0.42129 3.70513 0
M  V30 24447 N 2291.06 -1.33168 0.84285 0
M  V30 24448 C 2292.02 -2.27432 0.284105 0
M  V30 24449 C 2293.02 -1.51121 -0.549454 0
M  V30 24450 O 2294.21 -1.70383 -0.362669 0
M  V30 24451 C 2291.34 -3.3559 -0.599325 0
M  V30 24452 H 2292.53 -2.78364 1.11594 0
M  V30 24453 H 2290.09 -1.43639 0.616246 0
M  V30 24454 H 2290.82 -2.89906 -1.45344 0
M  V30 24455 H 2290.61 -3.921 -0.00284374 0
M  V30 24456 H 2292.1 -4.05855 -0.983417 0
M  V30 24457 N 2292.53 -0.599659 -1.45746 0
M  V30 24458 C 2293.44 0.125847 -2.34262 0
M  V30 24459 C 2294.46 0.868598 -1.50769 0
M  V30 24460 O 2295.64 0.827971 -1.83594 0
M  V30 24461 C 2292.7 1.11581 -3.28254 0
M  V30 24462 C 2291.76 0.375881 -4.27651 0
M  V30 24463 C 2290.99 1.31868 -5.17152 0
M  V30 24464 O 2291.22 2.55612 -5.0992 0
M  V30 24465 O 2290.15 0.820052 -5.96287 0
M  V30 24466 H 2293.98 -0.601368 -2.97687 0
M  V30 24467 H 2291.56 -0.35996 -1.44999 0
M  V30 24468 H 2293.44 1.68619 -3.86194 0
M  V30 24469 H 2292.12 1.82419 -2.67404 0
M  V30 24470 H 2291.03 -0.236763 -3.7335 0
M  V30 24471 H 2292.36 -0.291856 -4.91334 0
M  V30 24472 N 2294.01 1.53925 -0.338371 0
M  V30 24473 C 2294.92 2.28549 0.52938 0
M  V30 24474 C 2295.94 1.33461 1.11642 0
M  V30 24475 O 2297.11 1.66494 1.13322 0
M  V30 24476 C 2294.18 3.03989 1.66707 0
M  V30 24477 C 2293.24 4.14693 1.11034 0
M  V30 24478 C 2292.47 4.86526 2.19381 0
M  V30 24479 O 2292.7 4.57988 3.40005 0
M  V30 24480 O 2291.63 5.73097 1.83966 0
M  V30 24481 H 2295.46 3.03602 -0.0770932 0
M  V30 24482 H 2293.04 1.4904 -0.103582 0
M  V30 24483 H 2294.92 3.51184 2.32912 0
M  V30 24484 H 2293.6 2.31798 2.25945 0
M  V30 24485 H 2292.5 3.71814 0.412958 0
M  V30 24486 H 2293.84 4.88971 0.562889 0
M  V30 24487 N 2295.49 0.0668712 1.57458 0
M  V30 24488 C 2296.71 -0.615992 1.98041 0
M  V30 24489 C 2297.14 -1.6265 0.944799 0
M  V30 24490 O 2296.5 -1.81076 -0.0901776 0
M  V30 24491 C 2296.55 -1.26543 3.37667 0
M  V30 24492 O 2295.65 -2.38125 3.36705 0
M  V30 24493 H 2294.99 -0.158838 0.644722 0
M  V30 24494 H 2297.52 0.139927 2.04121 0
M  V30 24495 H 2297.53 -1.61343 3.74743 0
M  V30 24496 H 2296.21 -0.524944 4.12574 0
M  V30 24497 H 2294.78 -2.05155 3.11394 0
M  V30 24498 N 2296.97 -1.56239 -0.206647 0
M  V30 24499 C 2298.24 -1.70757 -0.954021 0
M  V30 24500 C 2298.62 -0.618388 -2.01839 0
M  V30 24501 O 2297.97 0.372394 -2.25445 0
M  V30 24502 C 2298.18 -3.12645 -1.55094 0
M  V30 24503 C 2299.53 -3.7252 -2.0375 0
M  V30 24504 O 2300.55 -3.15701 -1.64959 0
M  V30 24505 O 2299.41 -4.72213 -2.75094 0
M  V30 24506 H 2296.51 -0.696029 -0.446624 0
M  V30 24507 H 2299.05 -1.6855 -0.197254 0
M  V30 24508 H 2297.83 -3.83383 -0.783145 0
M  V30 24509 H 2297.45 -3.19032 -2.37285 0
M  V30 24510 N 2298.45 0.473929 -1.50305 0
M  V30 24511 C 2299.86 0.807442 -1.37668 0
M  V30 24512 C 2300.06 1.96846 -0.430589 0
M  V30 24513 O 2299.12 2.52176 0.12783 0
M  V30 24514 C 2300.43 1.12218 -2.78976 0
M  V30 24515 C 2301.98 1.2288 -2.87871 0
M  V30 24516 C 2302.45 1.57668 -4.30006 0
M  V30 24517 N 2303.94 1.64665 -4.32943 0
M  V30 24518 C 2304.68 1.93082 -5.39914 0
M  V30 24519 N 2304.18 2.19538 -6.57096 0
M  V30 24520 N 2305.97 1.9456 -5.27355 0
M  V30 24521 H 2298.12 -0.291249 -2.10394 0
M  V30 24522 H 2300.38 -0.0677776 -0.945574 0
M  V30 24523 H 2300.09 0.342167 -3.50032 0
M  V30 24524 H 2299.96 2.05907 -3.16041 0
M  V30 24525 H 2302.35 1.99949 -2.17036 0
M  V30 24526 H 2302.43 0.271769 -2.54352 0
M  V30 24527 H 2302.07 0.811401 -5.01377 0
M  V30 24528 H 2302 2.54517 -4.61009 0
M  V30 24529 H 2304.5 1.46271 -3.48444 0
M  V30 24530 H 2304.81 2.40487 -7.34429 0
M  V30 24531 H 2303.15 2.16937 -6.60275 0
M  V30 24532 H 2306.34 1.73386 -4.34804 0
M  V30 24533 H 2306.52 2.16371 -6.10809 0
M  V30 24534 N 2299.92 1.39835 0.726907 0
M  V30 24535 C 2300.85 1.41944 1.85403 0
M  V30 24536 C 2301.83 0.281757 1.6775 0
M  V30 24537 O 2303.02 0.48875 1.87949 0
M  V30 24538 C 2300.15 1.27015 3.2324 0
M  V30 24539 C 2299.1 2.38268 3.55545 0
M  V30 24540 C 2298.43 2.08423 4.92406 0
M  V30 24541 C 2299.73 3.80595 3.57693 0
M  V30 24542 H 2301.42 2.36269 1.83895 0
M  V30 24543 H 2298.97 1.13725 0.883329 0
M  V30 24544 H 2300.92 1.2711 4.01772 0
M  V30 24545 H 2299.65 0.291621 3.25295 0
M  V30 24546 H 2298.31 2.37404 2.79347 0
M  V30 24547 H 2297.95 1.08988 4.9105 0
M  V30 24548 H 2297.65 2.82952 5.14987 0
M  V30 24549 H 2299.18 2.10181 5.73285 0
M  V30 24550 H 2300.59 3.83344 4.26286 0
M  V30 24551 H 2298.99 4.5455 3.91796 0
M  V30 24552 H 2300.06 4.10992 2.5732 0
M  V30 24553 N 2301.4 -0.957948 1.25144 0
M  V30 24554 C 2302.82 -1.2284 1.01894 0
M  V30 24555 C 2303.02 -1.99733 -0.266276 0
M  V30 24556 O 2302.07 -2.32712 -0.979872 0
M  V30 24557 C 2303.39 -2.00602 2.24008 0
M  V30 24558 C 2304.93 -2.13658 2.28734 0
M  V30 24559 C 2305.41 -2.94817 3.50495 0
M  V30 24560 N 2306.9 -3.02397 3.50871 0
M  V30 24561 C 2307.64 -3.65579 4.41746 0
M  V30 24562 N 2307.13 -4.30399 5.42889 0
M  V30 24563 N 2308.92 -3.62687 4.29435 0
M  V30 24564 H 2301.08 -0.443456 2.07719 0
M  V30 24565 H 2303.34 -0.258641 0.912036 0
M  V30 24566 H 2303.04 -1.51497 3.17398 0
M  V30 24567 H 2302.92 -3.01315 2.26912 0
M  V30 24568 H 2305.31 -2.61961 1.35869 0
M  V30 24569 H 2305.39 -1.12261 2.2985 0
M  V30 24570 H 2305.03 -2.47205 4.4368 0
M  V30 24571 H 2304.96 -3.96433 3.46624 0
M  V30 24572 H 2307.45 -2.56297 2.77705 0
M  V30 24573 H 2307.76 -4.76456 6.08448 0
M  V30 24574 H 2306.11 -4.29037 5.46765 0
M  V30 24575 H 2309.3 -3.1123 3.49648 0
M  V30 24576 H 2309.47 -4.11641 5.00455 0
M  V30 24577 N 2302.88 -1.06677 -1.16008 0
M  V30 24578 C 2303.83 -0.681006 -2.20524 0
M  V30 24579 C 2304.8 0.324255 -1.62904 0
M  V30 24580 O 2305.98 0.21226 -1.89616 0
M  V30 24581 C 2303.12 -0.0777158 -3.45012 0
M  V30 24582 C 2302.23 -1.13362 -4.16861 0
M  V30 24583 C 2301.37 -0.496063 -5.28879 0
M  V30 24584 C 2300.41 -1.53524 -5.92534 0
M  V30 24585 N 2299.55 -0.920754 -6.96036 0
M  V30 24586 H 2304.39 -1.57667 -2.52874 0
M  V30 24587 H 2301.92 -0.788245 -1.24198 0
M  V30 24588 H 2303.88 0.28963 -4.16193 0
M  V30 24589 H 2302.51 0.781338 -3.13201 0
M  V30 24590 H 2301.56 -1.61863 -3.44245 0
M  V30 24591 H 2302.87 -1.92182 -4.6029 0
M  V30 24592 H 2302.03 -0.0759671 -6.06652 0
M  V30 24593 H 2300.77 0.323976 -4.86623 0
M  V30 24594 H 2299.77 -1.96519 -5.13479 0
M  V30 24595 H 2301 -2.35744 -6.36869 0
M  V30 24596 H 2298.94 -0.121495 -6.55887 0
M  V30 24597 H 2298.86 -1.64629 -7.37857 0
M  V30 24598 H 2300.13 -0.525932 -7.77724 0
M  V30 24599 N 2304.36 1.32719 -0.8499 0
M  V30 24600 C 2305.29 2.31482 -0.306349 0
M  V30 24601 C 2306.27 1.59469 0.591924 0
M  V30 24602 O 2307.45 1.87297 0.513166 0
M  V30 24603 C 2304.58 3.43533 0.510144 0
M  V30 24604 C 2303.54 4.26994 -0.293284 0
M  V30 24605 C 2302.86 5.30763 0.647649 0
M  V30 24606 C 2304.16 4.99802 -1.51643 0
M  V30 24607 H 2305.86 2.77193 -1.13157 0
M  V30 24608 H 2303.4 1.33265 -0.545577 0
M  V30 24609 H 2305.36 4.1166 0.900783 0
M  V30 24610 H 2304.08 2.96538 1.36869 0
M  V30 24611 H 2302.74 3.60507 -0.665619 0
M  V30 24612 H 2302.39 4.80023 1.5029 0
M  V30 24613 H 2302.09 5.87489 0.114116 0
M  V30 24614 H 2303.61 6.01754 1.03557 0
M  V30 24615 H 2305.03 5.60636 -1.19834 0
M  V30 24616 H 2303.42 5.6623 -1.98755 0
M  V30 24617 H 2304.49 4.27939 -2.28026 0
M  V30 24618 N 2305.84 0.60738 1.45426 0
M  V30 24619 C 2306.77 -0.160442 2.27635 0
M  V30 24620 C 2307.75 -0.873832 1.37124 0
M  V30 24621 O 2308.93 -0.882745 1.66553 0
M  V30 24622 C 2306.06 -1.23226 3.15489 0
M  V30 24623 C 2305.1 -0.622023 4.2194 0
M  V30 24624 S 2305.94 0.569945 5.32458 0
M  V30 24625 C 2307.09 -0.502467 6.2388 0
M  V30 24626 H 2307.33 0.537035 2.92409 0
M  V30 24627 H 2304.86 0.394894 1.49265 0
M  V30 24628 H 2306.82 -1.84578 3.66662 0
M  V30 24629 H 2305.48 -1.9018 2.4998 0
M  V30 24630 H 2304.67 -1.42847 4.83333 0
M  V30 24631 H 2304.27 -0.0836406 3.73906 0
M  V30 24632 H 2306.57 -1.38159 6.63263 0
M  V30 24633 H 2307.51 0.0753003 7.0806 0
M  V30 24634 H 2307.92 -0.817702 5.58546 0
M  V30 24635 N 2307.31 -1.53743 0.34653 0
M  V30 24636 C 2308.24 -2.28059 -0.501153 0
M  V30 24637 C 2309.23 -1.29736 -1.10011 0
M  V30 24638 O 2310.41 -1.58583 -1.12094 0
M  V30 24639 C 2307.54 -3.05562 -1.65073 0
M  V30 24640 C 2306.49 -4.11413 -1.17996 0
M  V30 24641 C 2305.82 -4.76889 -2.41829 0
M  V30 24642 C 2307.12 -5.21558 -0.278303 0
M  V30 24643 H 2308.81 -2.99164 0.118803 0
M  V30 24644 H 2306.36 -1.43881 0.0585784 0
M  V30 24645 H 2308.31 -3.56291 -2.25022 0
M  V30 24646 H 2307.04 -2.32113 -2.29763 0
M  V30 24647 H 2305.7 -3.61602 -0.603268 0
M  V30 24648 H 2305.34 -4.00031 -3.04933 0
M  V30 24649 H 2305.04 -5.48405 -2.1101 0
M  V30 24650 H 2306.57 -5.30403 -3.02499 0
M  V30 24651 H 2307.98 -5.67904 -0.784723 0
M  V30 24652 H 2306.38 -6.00068 -0.0618652 0
M  V30 24653 H 2307.45 -4.80041 0.684761 0
M  V30 24654 N 2308.79 -0.0752207 -1.5742 0
M  V30 24655 C 2309.7 0.905473 -2.16422 0
M  V30 24656 C 2310.72 1.32459 -1.1283 0
M  V30 24657 O 2311.89 1.39659 -1.45112 0
M  V30 24658 C 2308.96 2.15365 -2.71696 0
M  V30 24659 C 2308.02 1.79061 -3.90174 0
M  V30 24660 C 2307.25 2.97928 -4.42803 0
M  V30 24661 O 2307.48 4.12051 -3.94423 0
M  V30 24662 O 2306.41 2.77546 -5.3409 0
M  V30 24663 H 2310.24 0.433573 -3.00589 0
M  V30 24664 H 2307.82 0.148041 -1.48665 0
M  V30 24665 H 2309.7 2.88551 -3.07109 0
M  V30 24666 H 2308.38 2.61646 -1.90587 0
M  V30 24667 H 2307.29 1.03116 -3.59608 0
M  V30 24668 H 2308.62 1.3756 -4.72587 0
M  V30 24669 N 2310.27 1.56347 0.198358 0
M  V30 24670 C 2311.52 1.81603 0.916083 0
M  V30 24671 C 2311.87 0.651776 1.81024 0
M  V30 24672 O 2311.16 -0.353196 1.88316 0
M  V30 24673 C 2311.36 3.10478 1.77025 0
M  V30 24674 C 2311.19 4.39327 0.960287 0
M  V30 24675 C 2309.96 5.01154 0.646005 0
M  V30 24676 C 2312.16 5.13337 0.314538 0
M  V30 24677 N 2310.14 6.13627 -0.182935 0
M  V30 24678 C 2311.51 6.18854 -0.376748 0
M  V30 24679 C 2313.56 4.97369 0.229931 0
M  V30 24680 C 2312.27 7.10135 -1.14458 0
M  V30 24681 C 2314.29 5.8907 -0.524493 0
M  V30 24682 C 2313.65 6.9403 -1.20424 0
M  V30 24683 H 2309.75 0.715874 0.31472 0
M  V30 24684 H 2312.34 1.93818 0.185068 0
M  V30 24685 H 2310.51 2.99503 2.4729 0
M  V30 24686 H 2312.24 3.23834 2.42721 0
M  V30 24687 H 2309 4.63568 0.969642 0
M  V30 24688 H 2309.42 6.74451 -0.586921 0
M  V30 24689 H 2314.06 4.16254 0.741111 0
M  V30 24690 H 2311.78 7.90715 -1.6672 0
M  V30 24691 H 2315.37 5.78788 -0.591269 0
M  V30 24692 H 2314.25 7.63763 -1.77866 0
M  V30 24693 N 2311.75 -0.465951 1.50554 0
M  V30 24694 C 2312.68 -1.5809 1.65952 0
M  V30 24695 C 2313.69 -1.53553 0.540854 0
M  V30 24696 O 2314.88 -1.58848 0.814215 0
M  V30 24697 C 2311.98 -2.9698 1.63267 0
M  V30 24698 C 2311.16 -3.26331 2.9125 0
M  V30 24699 C 2310.21 -4.44801 2.81138 0
M  V30 24700 O 2309.24 -4.44856 3.55094 0
M  V30 24701 N 2310.44 -5.46753 1.95042 0
M  V30 24702 H 2313.21 -1.45296 2.62124 0
M  V30 24703 H 2310.77 -0.654454 1.48083 0
M  V30 24704 H 2312.76 -3.7421 1.54108 0
M  V30 24705 H 2311.33 -3.03517 0.748086 0
M  V30 24706 H 2310.55 -2.37666 3.14497 0
M  V30 24707 H 2311.84 -3.42755 3.76028 0
M  V30 24708 H 2311.24 -5.49532 1.34279 0
M  V30 24709 H 2309.79 -6.22947 1.91783 0
M  V30 24710 N 2313.23 -1.40218 -0.719481 0
M  V30 24711 C 2314.47 -1.38285 -1.4793 0
M  V30 24712 C 2314.8 0.0161194 -1.94493 0
M  V30 24713 O 2314.06 0.999926 -1.68226 0
M  V30 24714 C 2314.36 -2.31529 -2.72267 0
M  V30 24715 C 2314.02 -3.78861 -2.4449 0
M  V30 24716 C 2312.68 -4.19002 -2.36624 0
M  V30 24717 C 2315.04 -4.71981 -2.21096 0
M  V30 24718 C 2312.36 -5.50304 -2.03427 0
M  V30 24719 C 2314.72 -6.03577 -1.89413 0
M  V30 24720 C 2313.38 -6.42765 -1.80026 0
M  V30 24721 H 2312.65 -0.506022 -0.541316 0
M  V30 24722 H 2315.3 -1.72843 -0.824472 0
M  V30 24723 H 2313.6 -1.90143 -3.42568 0
M  V30 24724 H 2315.3 -2.27318 -3.30344 0
M  V30 24725 H 2311.89 -3.47055 -2.51497 0
M  V30 24726 H 2316.07 -4.4179 -2.26131 0
M  V30 24727 H 2311.33 -5.79572 -1.94695 0
M  V30 24728 H 2315.5 -6.7525 -1.70324 0
M  V30 24729 H 2313.13 -7.44424 -1.5407 0
M  V30 24730 N 2314.7 0.951297 -1.25651 0
M  V30 24731 C 2315.64 2.05195 -1.02116 0
M  V30 24732 C 2316.65 1.62793 0.0150285 0
M  V30 24733 O 2317.84 1.7709 -0.223906 0
M  V30 24734 C 2314.94 3.34849 -0.522419 0
M  V30 24735 C 2314.11 4.06073 -1.62553 0
M  V30 24736 C 2313.17 5.13999 -1.12659 0
M  V30 24737 O 2312.2 5.39263 -1.82165 0
M  V30 24738 N 2313.4 5.80492 0.030368 0
M  V30 24739 H 2316.16 2.25954 -1.96888 0
M  V30 24740 H 2313.72 1.12008 -1.16901 0
M  V30 24741 H 2315.72 4.0433 -0.173032 0
M  V30 24742 H 2314.29 3.10838 0.331455 0
M  V30 24743 H 2313.51 3.30645 -2.14634 0
M  V30 24744 H 2314.79 4.50414 -2.36652 0
M  V30 24745 H 2314.19 5.6239 0.61107 0
M  V30 24746 H 2312.75 6.5101 0.320761 0
M  V30 24747 N 2316.18 1.07291 1.1544 0
M  V30 24748 C 2317.13 0.692691 2.2016 0
M  V30 24749 C 2318.1 -0.315611 1.63074 0
M  V30 24750 O 2319.28 -0.202202 1.89726 0
M  V30 24751 C 2316.42 0.0960115 3.44966 0
M  V30 24752 C 2315.54 1.15571 4.16254 0
M  V30 24753 C 2314.67 0.524104 5.28608 0
M  V30 24754 C 2313.71 1.56664 5.91712 0
M  V30 24755 N 2312.85 0.957653 6.95538 0
M  V30 24756 H 2317.69 1.59006 2.52034 0
M  V30 24757 H 2315.23 0.79482 1.23778 0
M  V30 24758 H 2317.18 -0.267555 4.16341 0
M  V30 24759 H 2315.81 -0.764717 3.13611 0
M  V30 24760 H 2314.87 1.63686 3.43382 0
M  V30 24761 H 2316.18 1.94621 4.59265 0
M  V30 24762 H 2315.33 0.108138 6.06604 0
M  V30 24763 H 2314.07 -0.298165 4.86788 0
M  V30 24764 H 2313.08 1.99239 5.12429 0
M  V30 24765 H 2314.3 2.39118 6.35609 0
M  V30 24766 H 2312.25 0.156277 6.55814 0
M  V30 24767 H 2312.16 1.68539 7.36974 0
M  V30 24768 H 2313.43 0.567169 7.77434 0
M  V30 24769 N 2317.66 -1.32267 0.856927 0
M  V30 24770 C 2319.08 -1.4993 0.547087 0
M  V30 24771 C 2319.28 -1.79182 -0.92175 0
M  V30 24772 O 2318.33 -1.86273 -1.70466 0
M  V30 24773 C 2319.65 -2.64194 1.43604 0
M  V30 24774 C 2321.19 -2.78079 1.4367 0
M  V30 24775 C 2321.67 -3.95424 2.31092 0
M  V30 24776 N 2323.16 -4.0269 2.289 0
M  V30 24777 C 2323.89 -4.92727 2.9327 0
M  V30 24778 N 2323.39 -5.87757 3.66761 0
M  V30 24779 N 2325.18 -4.85868 2.82646 0
M  V30 24780 H 2317.33 -1.11546 1.80752 0
M  V30 24781 H 2319.6 -0.549984 0.772154 0
M  V30 24782 H 2319.3 -2.49315 2.48063 0
M  V30 24783 H 2319.18 -3.6003 1.12508 0
M  V30 24784 H 2321.56 -2.9238 0.399753 0
M  V30 24785 H 2321.65 -1.82949 1.78783 0
M  V30 24786 H 2321.29 -3.81882 3.34856 0
M  V30 24787 H 2321.22 -4.89835 1.93311 0
M  V30 24788 H 2323.71 -3.34691 1.75471 0
M  V30 24789 H 2324.02 -6.53161 4.13039 0
M  V30 24790 H 2322.37 -5.87776 3.70869 0
M  V30 24791 H 2325.56 -4.10598 2.24781 0
M  V30 24792 H 2325.73 -5.55835 3.33094 0
M  V30 24793 N 2319.14 -0.615084 -1.45102 0
M  V30 24794 C 2320.07 0.0865209 -2.3334 0
M  V30 24795 C 2321.05 0.851183 -1.47271 0
M  V30 24796 O 2322.23 0.82025 -1.76027 0
M  V30 24797 C 2319.36 1.0795 -3.30097 0
M  V30 24798 C 2318.32 0.427553 -4.25859 0
M  V30 24799 C 2317.64 1.52931 -5.12363 0
M  V30 24800 C 2318.94 -0.656035 -5.18164 0
M  V30 24801 H 2320.64 -0.650275 -2.92253 0
M  V30 24802 H 2318.18 -0.314163 -1.40531 0
M  V30 24803 H 2320.14 1.57894 -3.90701 0
M  V30 24804 H 2318.86 1.84699 -2.69359 0
M  V30 24805 H 2317.52 -0.0510936 -3.66564 0
M  V30 24806 H 2317.17 2.28726 -4.47988 0
M  V30 24807 H 2316.87 1.09855 -5.7724 0
M  V30 24808 H 2318.39 2.03087 -5.75837 0
M  V30 24809 H 2319.81 -0.240358 -5.72796 0
M  V30 24810 H 2318.2 -1.00898 -5.91557 0
M  V30 24811 H 2319.27 -1.52965 -4.60141 0
M  V30 24812 N 2320.62 1.53557 -0.354678 0
M  V30 24813 C 2321.55 2.22953 0.53146 0
M  V30 24814 C 2322.56 1.2399 1.05501 0
M  V30 24815 O 2323.75 1.50279 0.963252 0
M  V30 24816 C 2320.85 2.90502 1.74533 0
M  V30 24817 C 2320.02 4.15878 1.35516 0
M  V30 24818 C 2319.08 4.66735 2.42991 0
M  V30 24819 O 2318.11 5.30679 2.05835 0
M  V30 24820 N 2319.31 4.43614 3.74415 0
M  V30 24821 H 2322.08 2.99634 -0.0629142 0
M  V30 24822 H 2319.64 1.60904 -0.17933 0
M  V30 24823 H 2321.63 3.21437 2.45886 0
M  V30 24824 H 2320.2 2.1734 2.24682 0
M  V30 24825 H 2319.42 3.91365 0.471929 0
M  V30 24826 H 2320.71 4.97408 1.07062 0
M  V30 24827 H 2320.11 3.92498 4.07384 0
M  V30 24828 H 2318.66 4.79128 4.41905 0
M  V30 24829 N 2322.1 0.083568 1.57378 0
M  V30 24830 C 2323.01 -0.893982 2.16899 0
M  V30 24831 C 2324.02 -1.31859 1.13531 0
M  V30 24832 O 2325.2 -1.38887 1.4585 0
M  V30 24833 C 2322.26 -2.13921 2.72835 0
M  V30 24834 C 2321.32 -1.7699 3.91118 0
M  V30 24835 C 2320.56 -2.95576 4.44377 0
M  V30 24836 O 2320.78 -4.09954 3.96603 0
M  V30 24837 O 2319.71 -2.7471 5.35554 0
M  V30 24838 H 2323.54 -0.417626 3.00815 0
M  V30 24839 H 2321.12 -0.140155 1.48741 0
M  V30 24840 H 2323.01 -2.86919 3.08635 0
M  V30 24841 H 2321.68 -2.60631 1.91972 0
M  V30 24842 H 2320.59 -1.01208 3.6015 0
M  V30 24843 H 2321.92 -1.35052 4.73309 0
M  V30 24844 N 2323.57 -1.5645 -0.190064 0
M  V30 24845 C 2324.8 -1.85389 -0.929831 0
M  V30 24846 C 2325.22 -0.667735 -1.75849 0
M  V30 24847 O 2324.58 0.383428 -1.77199 0
M  V30 24848 C 2324.63 -3.12596 -1.79767 0
M  V30 24849 O 2323.73 -2.93502 -2.89708 0
M  V30 24850 H 2323.07 -0.610312 -0.261563 0
M  V30 24851 H 2325.6 -2.0368 -0.193861 0
M  V30 24852 H 2325.61 -3.43519 -2.20133 0
M  V30 24853 H 2324.29 -3.98546 -1.18885 0
M  V30 24854 H 2322.87 -2.73888 -2.5306 0
M  V30 24855 N 2325.05 0.45796 -1.50799 0
M  V30 24856 C 2326 1.55427 -1.70619 0
M  V30 24857 C 2326.97 1.56814 -0.54759 0
M  V30 24858 O 2328.15 1.74143 -0.779678 0
M  V30 24859 C 2325.29 2.93308 -1.81836 0
M  V30 24860 C 2324.41 3.01609 -3.09283 0
M  V30 24861 C 2323.54 4.30485 -3.11217 0
M  V30 24862 C 2322.58 4.32577 -4.33063 0
M  V30 24863 N 2321.72 5.52945 -4.32662 0
M  V30 24864 H 2326.56 1.37831 -2.64209 0
M  V30 24865 H 2324.09 0.669914 -1.3096 0
M  V30 24866 H 2326.05 3.73283 -1.86321 0
M  V30 24867 H 2324.68 3.09509 -0.916739 0
M  V30 24868 H 2323.73 2.14425 -3.14207 0
M  V30 24869 H 2325.05 2.99015 -3.99239 0
M  V30 24870 H 2324.2 5.18819 -3.14503 0
M  V30 24871 H 2322.94 4.35707 -2.19114 0
M  V30 24872 H 2321.94 3.42639 -4.29975 0
M  V30 24873 H 2323.17 4.29036 -5.26407 0
M  V30 24874 H 2321.12 5.58927 -3.43419 0
M  V30 24875 H 2321.03 5.52146 -5.16402 0
M  V30 24876 H 2322.3 6.43367 -4.40113 0
M  V30 24877 N 2326.53 1.40598 0.712035 0
M  V30 24878 C 2327.46 1.37064 1.83701 0
M  V30 24879 C 2328.47 0.275454 1.60453 0
M  V30 24880 O 2329.66 0.53605 1.70261 0
M  V30 24881 C 2326.76 1.11105 3.2017 0
M  V30 24882 C 2325.94 2.32347 3.70586 0
M  V30 24883 C 2325 2.02494 4.85678 0
M  V30 24884 O 2324.02 2.75391 4.98145 0
M  V30 24885 N 2325.22 1.00507 5.71733 0
M  V30 24886 H 2327.99 2.34019 1.8723 0
M  V30 24887 H 2325.55 1.34998 0.893715 0
M  V30 24888 H 2327.54 0.891134 3.94767 0
M  V30 24889 H 2326.11 0.228044 3.11767 0
M  V30 24890 H 2325.33 2.70145 2.8708 0
M  V30 24891 H 2326.62 3.13165 4.01006 0
M  V30 24892 H 2326.02 0.401397 5.64274 0
M  V30 24893 H 2324.57 0.845056 6.46299 0
M  V30 24894 N 2328.01 -0.94462 1.26153 0
M  V30 24895 C 2328.95 -2.04283 1.07411 0
M  V30 24896 C 2329.92 -1.66088 -0.0198121 0
M  V30 24897 O 2331.11 -1.90291 0.139297 0
M  V30 24898 C 2328.25 -3.37728 0.709509 0
M  V30 24899 C 2327.36 -3.8898 1.87933 0
M  V30 24900 C 2326.5 -5.10795 1.45816 0
M  V30 24901 C 2325.54 -5.543 2.59649 0
M  V30 24902 N 2324.67 -6.67321 2.18238 0
M  V30 24903 H 2329.51 -2.19647 2.01393 0
M  V30 24904 H 2327.05 -1.07624 1.00277 0
M  V30 24905 H 2329.01 -4.14441 0.479021 0
M  V30 24906 H 2327.64 -3.22221 -0.193332 0
M  V30 24907 H 2326.69 -3.08697 2.22285 0
M  V30 24908 H 2328 -4.17208 2.73384 0
M  V30 24909 H 2327.16 -5.94957 1.18791 0
M  V30 24910 H 2325.9 -4.84304 0.5745 0
M  V30 24911 H 2324.9 -4.68697 2.87407 0
M  V30 24912 H 2326.13 -5.82794 3.48609 0
M  V30 24913 H 2324.07 -6.4252 1.32301 0
M  V30 24914 H 2323.99 -6.95118 2.97233 0
M  V30 24915 H 2325.26 -7.54866 1.94416 0
M  V30 24916 N 2329.49 -1.07901 -1.1487 0
M  V30 24917 C 2330.76 -0.718482 -1.81926 0
M  V30 24918 C 2331.14 0.798421 -1.95419 0
M  V30 24919 O 2330.49 1.71497 -1.51 0
M  V30 24920 C 2330.7 -1.43941 -3.17934 0
M  V30 24921 C 2332.05 -1.59513 -3.93498 0
M  V30 24922 O 2333.07 -1.40064 -3.27507 0
M  V30 24923 O 2331.93 -1.9156 -5.11827 0
M  V30 24924 H 2329.03 -0.256319 -0.786276 0
M  V30 24925 H 2331.57 -1.18028 -1.21932 0
M  V30 24926 H 2330.34 -2.47301 -3.03246 0
M  V30 24927 H 2329.97 -0.968755 -3.85618 0
M  V30 24928 N 2330.96 1.31811 -0.863929 0
M  V30 24929 C 2331.87 2.32428 -0.318502 0
M  V30 24930 C 2332.89 1.64452 0.568467 0
M  V30 24931 O 2334.07 1.9592 0.466625 0
M  V30 24932 C 2331.13 3.43413 0.476295 0
M  V30 24933 C 2330.19 4.27061 -0.437915 0
M  V30 24934 C 2329.42 5.32746 0.319045 0
M  V30 24935 O 2329.65 5.48996 1.54789 0
M  V30 24936 O 2328.58 6.01049 -0.319967 0
M  V30 24937 H 2332.41 2.80989 -1.15234 0
M  V30 24938 H 2329.99 1.356 -0.627126 0
M  V30 24939 H 2331.87 4.11076 0.927084 0
M  V30 24940 H 2330.55 2.97025 1.28678 0
M  V30 24941 H 2329.46 3.62174 -0.937077 0
M  V30 24942 H 2330.79 4.76998 -1.21383 0
M  V30 24943 N 2332.44 0.62277 1.44773 0
M  V30 24944 C 2333.72 0.0552318 1.95522 0
M  V30 24945 C 2334.1 -1.4168 1.56493 0
M  V30 24946 O 2333.45 -2.12701 0.834885 0
M  V30 24947 C 2333.66 0.269303 3.47959 0
M  V30 24948 C 2335 0.158088 4.24306 0
M  V30 24949 O 2336.03 0.200224 3.55637 0
M  V30 24950 O 2334.89 0.0559654 5.46471 0
M  V30 24951 H 2331.98 -0.027087 0.826556 0
M  V30 24952 H 2334.53 0.693892 1.54865 0
M  V30 24953 H 2333.3 1.29106 3.69388 0
M  V30 24954 H 2332.92 -0.403896 3.95543 0
M  V30 24955 N 2333.92 -1.53367 0.362817 0
M  V30 24956 C 2335.2 -1.93527 -0.283987 0
M  V30 24957 C 2335.58 -1.29611 -1.66626 0
M  V30 24958 O 2334.92 -0.454169 -2.23941 0
M  V30 24959 C 2335.13 -3.47369 -0.336967 0
M  V30 24960 C 2336.48 -4.20639 -0.578634 0
M  V30 24961 O 2337.51 -3.53735 -0.41829 0
M  V30 24962 O 2336.37 -5.39194 -0.890645 0
M  V30 24963 H 2333.46 -0.809396 -0.169729 0
M  V30 24964 H 2336.01 -1.64537 0.415399 0
M  V30 24965 H 2334.78 -3.86158 0.632285 0
M  V30 24966 H 2334.4 -3.82584 -1.08236 0
M  V30 24967 N 2335.4 -0.091913 -1.57332 0
M  V30 24968 C 2336.31 0.882467 -2.1737 0
M  V30 24969 C 2337.32 1.31255 -1.14228 0
M  V30 24970 O 2338.5 1.38112 -1.46585 0
M  V30 24971 C 2335.57 2.12471 -2.73965 0
M  V30 24972 C 2334.63 1.74913 -3.92051 0
M  V30 24973 C 2333.86 2.93215 -4.45938 0
M  V30 24974 O 2334.08 4.07845 -3.98771 0
M  V30 24975 O 2333.02 2.71866 -5.37003 0
M  V30 24976 H 2336.84 0.401667 -3.01032 0
M  V30 24977 H 2334.43 0.132264 -1.48813 0
M  V30 24978 H 2336.31 2.85278 -3.10152 0
M  V30 24979 H 2334.98 2.59609 -1.93351 0
M  V30 24980 H 2333.89 0.992961 -3.60681 0
M  V30 24981 H 2335.22 1.3254 -4.74019 0
M  V30 24982 N 2336.88 1.56548 0.181765 0
M  V30 24983 C 2337.79 1.98817 1.24535 0
M  V30 24984 C 2338.8 0.897887 1.49044 0
M  V30 24985 O 2339.98 1.2047 1.61397 0
M  V30 24986 C 2337.04 2.33059 2.56679 0
M  V30 24987 C 2336.1 3.55863 2.40125 0
M  V30 24988 C 2335.34 3.88463 3.65968 0
M  V30 24989 O 2335.56 3.22169 4.70705 0
M  V30 24990 O 2334.49 4.81849 3.60701 0
M  V30 24991 H 2338.32 2.89538 0.916596 0
M  V30 24992 H 2335.91 1.44279 0.387817 0
M  V30 24993 H 2337.79 2.561 3.3465 0
M  V30 24994 H 2336.46 1.45503 2.89155 0
M  V30 24995 H 2335.37 3.38054 1.6022 0
M  V30 24996 H 2336.7 4.43928 2.12578 0
M  V30 24997 N 2338.35 -0.449957 1.5104 0
M  V30 24998 C 2339.26 -1.57064 1.74264 0
M  V30 24999 C 2340.28 -1.62334 0.626391 0
M  V30 25000 O 2341.46 -1.79811 0.907194 0
M  V30 25001 C 2338.52 -2.93141 1.8512 0
M  V30 25002 C 2337.58 -2.9809 3.08935 0
M  V30 25003 C 2336.82 -4.27676 3.19263 0
M  V30 25004 O 2337.04 -5.19359 2.35844 0
M  V30 25005 O 2335.97 -4.38651 4.12152 0
M  V30 25006 H 2339.8 -1.40386 2.69305 0
M  V30 25007 H 2337.38 -0.631665 1.3539 0
M  V30 25008 H 2339.27 -3.73923 1.94318 0
M  V30 25009 H 2337.94 -3.09973 0.932643 0
M  V30 25010 H 2336.85 -2.16309 3.05224 0
M  V30 25011 H 2338.18 -2.86199 4.00438 0
M  V30 25012 N 2339.83 -1.40974 -0.704569 0
M  V30 25013 C 2340.74 -1.44452 -1.84854 0
M  V30 25014 C 2341.76 -0.335991 -1.70725 0
M  V30 25015 O 2342.93 -0.58231 -1.92798 0
M  V30 25016 C 2340 -1.31593 -3.20756 0
M  V30 25017 C 2339.06 -2.52683 -3.47058 0
M  V30 25018 C 2338.29 -2.40429 -4.76476 0
M  V30 25019 O 2338.52 -1.424 -5.52339 0
M  V30 25020 O 2337.45 -3.30016 -5.03362 0
M  V30 25021 H 2341.28 -2.40945 -1.84876 0
M  V30 25022 H 2338.86 -1.22415 -0.856449 0
M  V30 25023 H 2340.74 -1.26672 -4.01911 0
M  V30 25024 H 2339.42 -0.382105 -3.21437 0
M  V30 25025 H 2338.33 -2.63182 -2.65869 0
M  V30 25026 H 2339.66 -3.44864 -3.51184 0
M  V30 25027 N 2341.31 0.937917 -1.26653 0
M  V30 25028 C 2342.59 1.66202 -1.03132 0
M  V30 25029 C 2342.97 2.06523 0.437219 0
M  V30 25030 O 2342.32 1.79156 1.41828 0
M  V30 25031 C 2342.53 2.87177 -1.98319 0
M  V30 25032 C 2343.87 3.58754 -2.27113 0
M  V30 25033 O 2344.9 2.97287 -1.96211 0
M  V30 25034 O 2343.76 4.69474 -2.79744 0
M  V30 25035 H 2340.85 0.727979 -0.392396 0
M  V30 25036 H 2343.4 0.989358 -1.37876 0
M  V30 25037 H 2342.17 2.54296 -2.97404 0
M  V30 25038 H 2341.79 3.62167 -1.64075 0
M  V30 25039 N 2342.79 1.08509 1.14296 0
M  V30 25040 C 2344.07 0.72812 1.81543 0
M  V30 25041 C 2344.45 -0.788046 1.95839 0
M  V30 25042 O 2343.79 -1.70694 1.51907 0
M  V30 25043 C 2344 1.45625 3.17166 0
M  V30 25044 C 2345.35 1.61597 3.92647 0
M  V30 25045 O 2346.38 1.41799 3.26759 0
M  V30 25046 O 2345.23 1.94272 5.10804 0
M  V30 25047 H 2342.33 0.260485 0.784905 0
M  V30 25048 H 2344.87 1.18673 1.21305 0
M  V30 25049 H 2343.65 2.48905 3.0193 0
M  V30 25050 H 2343.27 0.989192 3.85098 0
M  V30 25051 N 2344.27 -1.31351 0.870907 0
M  V30 25052 C 2345.54 -1.91405 0.40294 0
M  V30 25053 C 2345.92 -1.79246 -1.11509 0
M  V30 25054 O 2345.27 -1.20073 -1.94409 0
M  V30 25055 C 2345.48 -3.37583 0.88536 0
M  V30 25056 C 2346.83 -4.14689 0.912044 0
M  V30 25057 O 2347.85 -3.46369 0.831076 0
M  V30 25058 O 2346.71 -5.36718 1.02936 0
M  V30 25059 H 2343.81 -0.818143 0.120713 0
M  V30 25060 H 2346.35 -1.40013 0.958881 0
M  V30 25061 H 2345.12 -3.40451 1.92895 0
M  V30 25062 H 2344.75 -3.96407 0.307783 0
M  V30 25063 N 2345.74 -0.630439 -1.44441 0
M  V30 25064 C 2346.99 -0.134852 -2.02351 0
M  V30 25065 C 2347.32 1.23983 -1.49472 0
M  V30 25066 O 2346.6 1.82281 -0.678507 0
M  V30 25067 C 2346.88 -0.12077 -3.59897 0
M  V30 25068 C 2346.73 -1.52774 -4.2306 0
M  V30 25069 C 2348.05 0.55505 -4.36586 0
M  V30 25070 H 2345.17 -0.0504775 -0.735269 0
M  V30 25071 H 2347.81 -0.806781 -1.7202 0
M  V30 25072 H 2345.96 0.451409 -3.85869 0
M  V30 25073 H 2347.64 -2.14876 -4.08199 0
M  V30 25074 H 2345.88 -2.08182 -3.80582 0
M  V30 25075 H 2346.55 -1.46993 -5.32069 0
M  V30 25076 H 2349.03 0.0684697 -4.16044 0
M  V30 25077 H 2347.9 0.534089 -5.46295 0
M  V30 25078 H 2348.16 1.62528 -4.11141 0
M  V30 25079 N 2347.22 1.53172 -0.370945 0
M  V30 25080 C 2348.5 1.93675 0.27372 0
M  V30 25081 C 2348.88 1.30493 1.65936 0
M  V30 25082 O 2348.23 0.466039 2.23697 0
M  V30 25083 C 2348.44 3.47543 0.31854 0
M  V30 25084 C 2349.79 4.2094 0.556318 0
M  V30 25085 O 2350.81 3.53952 0.399525 0
M  V30 25086 O 2349.67 5.39658 0.862038 0
M  V30 25087 H 2346.76 0.810284 0.165434 0
M  V30 25088 H 2349.31 1.64315 -0.424119 0
M  V30 25089 H 2348.08 3.85817 -0.652755 0
M  V30 25090 H 2347.7 3.83153 1.06206 0
M  V30 25091 N 2348.7 0.100255 1.57281 0
M  V30 25092 C 2349.93 -0.570474 1.9888 0
M  V30 25093 C 2350.34 -1.61404 0.979505 0
M  V30 25094 O 2349.7 -1.82475 -0.0301967 0
M  V30 25095 C 2349.75 -1.21354 3.40522 0
M  V30 25096 O 2349.47 -0.211709 4.37588 0
M  V30 25097 C 2350.97 -1.96939 3.97153 0
M  V30 25098 H 2348.19 -0.152544 0.65343 0
M  V30 25099 H 2350.74 0.181066 2.03697 0
M  V30 25100 H 2348.89 -1.91597 3.36703 0
M  V30 25101 H 2349.31 -0.676515 5.20119 0
M  V30 25102 H 2350.78 -2.37285 4.98397 0
M  V30 25103 H 2351.26 -2.83727 3.35255 0
M  V30 25104 H 2351.86 -1.31499 4.0446 0
M  V30 25105 N 2350.18 -1.56643 -0.17346 0
M  V30 25106 C 2351.11 -1.91344 -1.24349 0
M  V30 25107 C 2352.09 -0.77599 -1.42889 0
M  V30 25108 O 2353.27 -1.02909 -1.5793 0
M  V30 25109 C 2350.4 -2.1625 -2.60679 0
M  V30 25110 C 2349.45 -3.38939 -2.58888 0
M  V30 25111 S 2350.28 -4.93377 -2.08182 0
M  V30 25112 C 2351.44 -5.21375 -3.46293 0
M  V30 25113 H 2351.67 -2.81804 -0.947296 0
M  V30 25114 H 2349.2 -1.49703 -0.377931 0
M  V30 25115 H 2351.16 -2.3128 -3.39145 0
M  V30 25116 H 2349.82 -1.26501 -2.875 0
M  V30 25117 H 2349.01 -3.53559 -3.59182 0
M  V30 25118 H 2348.62 -3.23013 -1.88516 0
M  V30 25119 H 2350.91 -5.13221 -4.42278 0
M  V30 25120 H 2351.85 -6.23009 -3.36549 0
M  V30 25121 H 2352.26 -4.48949 -3.42206 0
M  V30 25122 N 2351.66 0.44194 -1.51277 0
M  V30 25123 C 2352.59 1.54358 -1.75203 0
M  V30 25124 C 2353.57 1.59102 -0.60171 0
M  V30 25125 O 2354.75 1.74903 -0.843944 0
M  V30 25126 C 2351.88 2.92474 -1.87287 0
M  V30 25127 C 2350.84 3.02591 -3.02692 0
M  V30 25128 C 2350.16 4.42641 -2.99955 0
M  V30 25129 C 2351.46 2.77098 -4.42735 0
M  V30 25130 H 2353.16 1.34587 -2.67445 0
M  V30 25131 H 2350.7 0.646026 -1.28695 0
M  V30 25132 H 2352.66 3.69497 -2.02609 0
M  V30 25133 H 2351.38 3.13465 -0.916899 0
M  V30 25134 H 2350.04 2.28007 -2.87069 0
M  V30 25135 H 2349.69 4.60594 -2.02144 0
M  V30 25136 H 2349.39 4.50341 -3.77447 0
M  V30 25137 H 2350.91 5.21644 -3.17363 0
M  V30 25138 H 2352.33 3.43856 -4.58733 0
M  V30 25139 H 2350.72 2.96213 -5.21899 0
M  V30 25140 H 2351.79 1.72736 -4.5309 0
M  V30 25141 N 2353.14 1.41345 0.697083 0
M  V30 25142 C 2354.38 1.39921 1.45276 0
M  V30 25143 C 2354.7 0.0109968 1.95597 0
M  V30 25144 O 2355.9 -0.125871 2.71208 0
M  V30 25145 C 2354.36 2.46011 2.62691 0
M  V30 25146 C 2353.97 3.90732 2.19162 0
M  V30 25147 C 2355.71 2.53721 3.40332 0
M  V30 25148 C 2353.62 4.88379 3.33526 0
M  V30 25149 H 2352.55 0.520333 0.545683 0
M  V30 25150 H 2355.2 1.67162 0.7569 0
M  V30 25151 H 2353.58 2.11898 3.34537 0
M  V30 25152 H 2354.76 4.34086 1.54615 0
M  V30 25153 H 2353.07 3.86669 1.54519 0
M  V30 25154 H 2355.67 3.23858 4.25465 0
M  V30 25155 H 2356.01 1.57356 3.85415 0
M  V30 25156 H 2356.54 2.86918 2.75541 0
M  V30 25157 H 2353.28 5.86143 2.93457 0
M  V30 25158 H 2352.8 4.49675 3.96928 0
M  V30 25159 H 2354.48 5.09066 3.99326 0
M  V30 25160 N 2354.61 -0.931187 1.27148 0
M  V30 25161 C 2355.55 -2.03178 1.03893 0
M  V30 25162 C 2356.52 -1.62552 -0.039543 0
M  V30 25163 O 2357.71 -1.88208 0.1049 0
M  V30 25164 C 2354.84 -3.33779 0.575285 0
M  V30 25165 C 2353.88 -3.93382 1.64781 0
M  V30 25166 S 2354.71 -4.26407 3.2394 0
M  V30 25167 C 2355.87 -5.60093 2.79368 0
M  V30 25168 H 2356.1 -2.22592 1.97079 0
M  V30 25169 H 2353.64 -1.07385 1.1094 0
M  V30 25170 H 2355.59 -4.09294 0.314457 0
M  V30 25171 H 2354.26 -3.12293 -0.33645 0
M  V30 25172 H 2353.45 -4.87616 1.27463 0
M  V30 25173 H 2353.05 -3.24438 1.86053 0
M  V30 25174 H 2355.34 -6.39239 2.24454 0
M  V30 25175 H 2356.29 -6.02307 3.72333 0
M  V30 25176 H 2356.69 -5.20448 2.18619 0
M  V30 25177 N 2356.09 -1.09114 -1.13719 0
M  V30 25178 C 2357.02 -0.685505 -2.18709 0
M  V30 25179 C 2358.04 0.27104 -1.60528 0
M  V30 25180 O 2359.23 0.0575835 -1.78407 0
M  V30 25181 C 2356.33 0.0110659 -3.38898 0
M  V30 25182 C 2355.5 -0.966206 -4.26595 0
M  V30 25183 C 2354.56 -0.303632 -5.25323 0
M  V30 25184 O 2353.58 -0.950276 -5.61212 0
M  V30 25185 N 2354.79 0.94355 -5.7278 0
M  V30 25186 H 2357.55 -1.58875 -2.54124 0
M  V30 25187 H 2355.11 -0.978165 -1.2901 0
M  V30 25188 H 2357.1 0.465446 -4.02015 0
M  V30 25189 H 2355.67 0.816511 -3.01748 0
M  V30 25190 H 2354.89 -1.59923 -3.60303 0
M  V30 25191 H 2356.18 -1.62819 -4.82045 0
M  V30 25192 H 2355.58 1.48853 -5.45765 0
M  V30 25193 H 2354.14 1.3413 -6.3785 0
M  V30 25194 N 2357.57 1.30887 -0.877861 0
M  V30 25195 C 2358.99 1.49041 -0.57087 0
M  V30 25196 C 2359.19 1.80625 0.893127 0
M  V30 25197 O 2358.24 1.88961 1.67481 0
M  V30 25198 C 2359.55 2.61876 -1.47789 0
M  V30 25199 C 2361.1 2.75758 -1.48076 0
M  V30 25200 C 2361.58 3.91698 -2.37354 0
M  V30 25201 N 2363.07 3.98997 -2.35278 0
M  V30 25202 C 2363.8 4.87999 -3.01072 0
M  V30 25203 N 2363.3 5.81847 -3.76066 0
M  V30 25204 N 2365.09 4.8131 -2.9034 0
M  V30 25205 H 2357.24 1.08656 -1.82504 0
M  V30 25206 H 2359.51 0.53763 -0.780806 0
M  V30 25207 H 2359.21 2.45337 -2.51998 0
M  V30 25208 H 2359.09 3.58195 -1.18222 0
M  V30 25209 H 2361.47 2.91707 -0.446217 0
M  V30 25210 H 2361.55 1.80082 -1.81671 0
M  V30 25211 H 2361.2 3.76506 -3.40889 0
M  V30 25212 H 2361.13 4.86698 -2.01079 0
M  V30 25213 H 2363.62 3.31857 -1.80774 0
M  V30 25214 H 2363.93 6.46507 -4.23378 0
M  V30 25215 H 2362.28 5.81802 -3.80174 0
M  V30 25216 H 2365.47 4.0697 -2.31285 0
M  V30 25217 H 2365.64 5.50465 -3.41895 0
M  V30 25218 N 2359.05 0.638091 1.44105 0
M  V30 25219 C 2359.98 -0.0493876 2.33448 0
M  V30 25220 C 2360.96 -0.827646 1.48607 0
M  V30 25221 O 2362.14 -0.792141 1.7731 0
M  V30 25222 C 2359.27 -1.02685 3.31773 0
M  V30 25223 C 2358.23 -0.359748 4.26485 0
M  V30 25224 C 2357.55 -1.4476 5.14732 0
M  V30 25225 C 2358.85 0.738387 5.17054 0
M  V30 25226 H 2360.55 0.696688 2.91181 0
M  V30 25227 H 2358.09 0.336481 1.40014 0
M  V30 25228 H 2360.05 -1.51659 3.93164 0
M  V30 25229 H 2358.77 -1.8039 2.72263 0
M  V30 25230 H 2357.43 0.109404 3.66437 0
M  V30 25231 H 2357.08 -2.2157 4.5157 0
M  V30 25232 H 2356.78 -1.00658 5.78914 0
M  V30 25233 H 2358.3 -1.93901 5.78995 0
M  V30 25234 H 2359.72 0.331454 5.72341 0
M  V30 25235 H 2358.11 1.10296 5.89877 0
M  V30 25236 H 2359.18 1.60266 4.57649 0
M  V30 25237 N 2360.53 -1.52973 0.379063 0
M  V30 25238 C 2361.44 -2.29872 -0.468599 0
M  V30 25239 C 2362.45 -1.36375 -1.08065 0
M  V30 25240 O 2363.63 -1.6944 -1.08868 0
M  V30 25241 C 2360.69 -3.08303 -1.58589 0
M  V30 25242 C 2359.75 -4.17491 -0.999997 0
M  V30 25243 C 2358.99 -4.92172 -2.06404 0
M  V30 25244 O 2359.21 -4.66841 -3.27743 0
M  V30 25245 O 2358.14 -5.77773 -1.68707 0
M  V30 25246 H 2361.97 -3.03291 0.157561 0
M  V30 25247 H 2359.55 -1.48713 0.143061 0
M  V30 25248 H 2361.44 -3.57235 -2.23519 0
M  V30 25249 H 2360.11 -2.37707 -2.1972 0
M  V30 25250 H 2359.02 -3.72778 -0.314233 0
M  V30 25251 H 2360.35 -4.90291 -0.433049 0
M  V30 25252 N 2362 -0.108595 -1.57225 0
M  V30 25253 C 2362.97 0.831044 -2.13603 0
M  V30 25254 C 2363.97 1.20171 -1.06843 0
M  V30 25255 O 2365.16 1.12893 -1.32668 0
M  V30 25256 C 2362.29 2.12239 -2.66772 0
M  V30 25257 H 2363.48 0.341265 -2.97952 0
M  V30 25258 H 2361.03 0.140542 -1.55667 0
M  V30 25259 H 2361.77 2.65671 -1.85982 0
M  V30 25260 H 2361.55 1.86619 -3.44842 0
M  V30 25261 H 2363.04 2.79429 -3.10337 0
M  V30 25262 N 2363.48 1.56732 0.16515 0
M  V30 25263 C 2364.39 2.00127 1.22419 0
M  V30 25264 C 2365.41 0.913645 1.48083 0
M  V30 25265 O 2366.58 1.22175 1.6011 0
M  V30 25266 C 2363.65 2.35769 2.54193 0
M  V30 25267 C 2362.71 3.5839 2.36337 0
M  V30 25268 C 2361.94 3.92322 3.61827 0
M  V30 25269 O 2362.17 3.27143 4.67262 0
M  V30 25270 O 2361.1 4.85647 3.5557 0
M  V30 25271 H 2364.93 2.90494 0.885835 0
M  V30 25272 H 2362.51 1.44682 0.372492 0
M  V30 25273 H 2364.39 2.59635 3.31915 0
M  V30 25274 H 2363.07 1.48562 2.87595 0
M  V30 25275 H 2361.97 3.39734 1.56626 0
M  V30 25276 H 2363.31 4.46157 2.07857 0
M  V30 25277 N 2364.96 -0.433911 1.51509 0
M  V30 25278 C 2366.38 -0.770658 1.39761 0
M  V30 25279 C 2366.58 -1.95635 0.482628 0
M  V30 25280 O 2365.63 -2.52426 -0.0609248 0
M  V30 25281 C 2366.95 -1.04782 2.81853 0
M  V30 25282 C 2368.49 -1.15204 2.91027 0
M  V30 25283 C 2368.97 -1.46212 4.34035 0
M  V30 25284 N 2370.46 -1.53129 4.37157 0
M  V30 25285 C 2371.19 -1.78699 5.44843 0
M  V30 25286 N 2370.69 -2.02039 6.62685 0
M  V30 25287 N 2372.48 -1.8051 5.32328 0
M  V30 25288 H 2364.63 0.346929 2.09548 0
M  V30 25289 H 2366.9 0.092824 0.943445 0
M  V30 25290 H 2366.6 -0.249242 3.50816 0
M  V30 25291 H 2366.48 -1.97456 3.21389 0
M  V30 25292 H 2368.86 -1.94124 2.22261 0
M  V30 25293 H 2368.95 -0.204236 2.54983 0
M  V30 25294 H 2368.59 -0.678185 5.03352 0
M  V30 25295 H 2368.52 -2.42204 4.67595 0
M  V30 25296 H 2371.01 -1.36981 3.522 0
M  V30 25297 H 2371.32 -2.2093 7.40547 0
M  V30 25298 H 2369.67 -1.99354 6.65795 0
M  V30 25299 H 2372.86 -1.61797 4.39249 0
M  V30 25300 H 2373.03 -2.001 6.16331 0
M  V30 25301 N 2366.44 -1.41713 -0.689577 0
M  V30 25302 C 2367.85 -1.24314 -1.00091 0
M  V30 25303 C 2368.05 -0.136764 -2.01035 0
M  V30 25304 O 2367.11 0.496874 -2.47563 0
M  V30 25305 C 2368.42 -2.59466 -1.5198 0
M  V30 25306 C 2369.97 -2.66698 -1.63833 0
M  V30 25307 C 2370.45 -4.0218 -2.19123 0
M  V30 25308 N 2371.94 -4.04058 -2.26476 0
M  V30 25309 C 2372.67 -5.05694 -2.70297 0
M  V30 25310 N 2372.17 -6.17719 -3.1368 0
M  V30 25311 N 2373.96 -4.93054 -2.69915 0
M  V30 25312 H 2366.11 -2.1239 -0.0209656 0
M  V30 25313 H 2368.38 -0.945273 -0.0718567 0
M  V30 25314 H 2368.08 -3.41208 -0.85263 0
M  V30 25315 H 2367.96 -2.82366 -2.50098 0
M  V30 25316 H 2370.34 -1.8531 -2.29661 0
M  V30 25317 H 2370.42 -2.47601 -0.642449 0
M  V30 25318 H 2370.07 -4.84019 -1.53909 0
M  V30 25319 H 2370 -4.18621 -3.19475 0
M  V30 25320 H 2372.49 -3.23178 -1.95868 0
M  V30 25321 H 2372.8 -6.91136 -3.45761 0
M  V30 25322 H 2371.15 -6.21246 -3.11574 0
M  V30 25323 H 2374.34 -4.04618 -2.35375 0
M  V30 25324 H 2374.51 -5.724 -3.03748 0
M  V30 25325 N 2367.92 0.924431 -1.2764 0
M  V30 25326 C 2368.88 2.00703 -1.10684 0
M  V30 25327 C 2369.88 1.60723 -0.0498106 0
M  V30 25328 O 2371.07 1.71689 -0.294684 0
M  V30 25329 C 2368.2 3.33901 -0.687223 0
M  V30 25330 H 2369.39 2.17175 -2.06821 0
M  V30 25331 H 2366.95 1.10567 -1.10475 0
M  V30 25332 H 2367.68 3.23129 0.275382 0
M  V30 25333 H 2367.47 3.64277 -1.45067 0
M  V30 25334 H 2368.96 4.13398 -0.590925 0
M  V30 25335 N 2369.39 1.09715 1.13139 0
M  V30 25336 C 2370.81 0.827447 1.36475 0
M  V30 25337 C 2371.01 -0.556783 1.93655 0
M  V30 25338 O 2370.07 -1.31108 2.15794 0
M  V30 25339 C 2371.38 1.9211 2.31331 0
M  V30 25340 C 2372.93 1.94868 2.4494 0
M  V30 25341 C 2373.4 3.03386 3.43105 0
M  V30 25342 N 2374.89 3.02645 3.50657 0
M  V30 25343 C 2375.63 3.83253 4.26503 0
M  V30 25344 N 2375.12 4.73777 5.05477 0
M  V30 25345 N 2376.92 3.71501 4.21834 0
M  V30 25346 H 2369.07 1.98952 0.743772 0
M  V30 25347 H 2371.33 0.864149 0.389807 0
M  V30 25348 H 2371.04 2.91701 1.96478 0
M  V30 25349 H 2370.91 1.8019 3.31378 0
M  V30 25350 H 2373.3 0.959148 2.79078 0
M  V30 25351 H 2373.38 2.10867 1.44807 0
M  V30 25352 H 2373.02 4.02554 3.09697 0
M  V30 25353 H 2372.95 2.8463 4.4305 0
M  V30 25354 H 2375.44 2.37044 2.9431 0
M  V30 25355 H 2375.76 5.31859 5.60665 0
M  V30 25356 H 2374.1 4.77811 5.04699 0
M  V30 25357 H 2377.29 3.00137 3.59215 0
M  V30 25358 H 2377.47 4.34559 4.8069 0
M  V30 25359 N 2370.87 -1.30419 0.88479 0
M  V30 25360 C 2371.8 -2.30588 0.367614 0
M  V30 25361 C 2372.78 -1.60982 -0.549436 0
M  V30 25362 O 2373.97 -1.88592 -0.463327 0
M  V30 25363 C 2371.1 -3.44765 -0.418883 0
M  V30 25364 C 2370.05 -4.26066 0.406391 0
M  V30 25365 C 2369.38 -5.32294 -0.506699 0
M  V30 25366 C 2370.68 -4.95606 1.64841 0
M  V30 25367 H 2372.37 -2.74095 1.20467 0
M  V30 25368 H 2369.92 -1.31771 0.580718 0
M  V30 25369 H 2371.87 -4.13903 -0.791322 0
M  V30 25370 H 2370.6 -3.00062 -1.28958 0
M  V30 25371 H 2369.25 -3.58615 0.760967 0
M  V30 25372 H 2368.9 -4.83839 -1.3751 0
M  V30 25373 H 2368.6 -5.87585 0.041686 0
M  V30 25374 H 2370.13 -6.04288 -0.875658 0
M  V30 25375 H 2371.54 -5.57262 1.34656 0
M  V30 25376 H 2369.94 -5.60761 2.13698 0
M  V30 25377 H 2371.01 -4.21743 2.39292 0
M  V30 25378 N 2372.35 -0.645724 -1.43764 0
M  V30 25379 C 2373.28 0.0890203 -2.29027 0
M  V30 25380 C 2374.3 0.794538 -1.42095 0
M  V30 25381 O 2375.48 0.653546 -1.66105 0
M  V30 25382 C 2372.58 1.14886 -3.18833 0
M  V30 25383 C 2371.76 0.522967 -4.34262 0
M  V30 25384 C 2370.82 1.47869 -5.04996 0
M  V30 25385 O 2369.84 0.990179 -5.60521 0
M  V30 25386 N 2371.04 2.81282 -5.078 0
M  V30 25387 H 2373.81 -0.642771 -2.92726 0
M  V30 25388 H 2371.37 -0.487951 -1.54372 0
M  V30 25389 H 2373.36 1.78885 -3.63018 0
M  V30 25390 H 2371.93 1.7827 -2.56785 0
M  V30 25391 H 2371.15 -0.295965 -3.93087 0
M  V30 25392 H 2372.44 0.0857253 -5.08728 0
M  V30 25393 H 2371.84 3.23537 -4.64047 0
M  V30 25394 H 2370.4 3.40604 -5.55727 0
M  V30 25395 N 2373.83 1.5277 -0.38717 0
M  V30 25396 C 2375.11 1.93955 0.253163 0
M  V30 25397 C 2375.49 1.32246 1.64543 0
M  V30 25398 O 2374.83 0.489738 2.2319 0
M  V30 25399 C 2375.04 3.47862 0.281661 0
M  V30 25400 C 2376.39 4.21506 0.511641 0
M  V30 25401 O 2377.42 3.54356 0.361961 0
M  V30 25402 O 2376.27 5.40542 0.804752 0
M  V30 25403 H 2373.37 0.811993 0.15683 0
M  V30 25404 H 2375.91 1.63856 -0.441523 0
M  V30 25405 H 2374.69 3.85103 -0.693639 0
M  V30 25406 H 2374.31 3.84258 1.02136 0
M  V30 25407 N 2375.31 0.116931 1.57166 0
M  V30 25408 C 2376.22 -0.847774 2.18746 0
M  V30 25409 C 2377.23 -1.29421 1.16302 0
M  V30 25410 O 2378.41 -1.35762 1.48763 0
M  V30 25411 C 2375.47 -2.08085 2.77311 0
M  V30 25412 C 2374.53 -1.68654 3.94784 0
M  V30 25413 C 2373.77 -2.86083 4.50546 0
M  V30 25414 O 2373.99 -4.01449 4.05209 0
M  V30 25415 O 2372.92 -2.63288 5.41261 0
M  V30 25416 H 2376.75 -0.353725 3.01633 0
M  V30 25417 H 2374.34 -0.108573 1.49005 0
M  V30 25418 H 2376.22 -2.80307 3.14652 0
M  V30 25419 H 2374.89 -2.56501 1.97457 0
M  V30 25420 H 2373.8 -0.935454 3.62215 0
M  V30 25421 H 2375.13 -1.24982 4.76068 0
M  V30 25422 N 2376.78 -1.56818 -0.156836 0
M  V30 25423 C 2377.69 -2.00773 -1.21356 0
M  V30 25424 C 2378.71 -0.921485 -1.47596 0
M  V30 25425 O 2379.89 -1.23022 -1.5946 0
M  V30 25426 C 2376.95 -2.37113 -2.52939 0
M  V30 25427 C 2376.01 -3.59638 -2.34433 0
M  V30 25428 C 2375.25 -3.94236 -3.59741 0
M  V30 25429 O 2375.47 -3.29617 -4.6552 0
M  V30 25430 O 2374.4 -4.87526 -3.5299 0
M  V30 25431 H 2378.23 -2.9096 -0.870417 0
M  V30 25432 H 2375.81 -1.44877 -0.364814 0
M  V30 25433 H 2377.7 -2.61391 -3.30534 0
M  V30 25434 H 2376.37 -1.50085 -2.86803 0
M  V30 25435 H 2375.28 -3.4056 -1.54822 0
M  V30 25436 H 2376.61 -4.47253 -2.05488 0
M  V30 25437 N 2378.26 0.425871 -1.51737 0
M  V30 25438 C 2379.68 0.763235 -1.40167 0
M  V30 25439 C 2379.88 1.95376 -0.492996 0
M  V30 25440 O 2378.93 2.52455 0.0475371 0
M  V30 25441 C 2380.25 1.03286 -2.82405 0
M  V30 25442 C 2381.8 1.13659 -2.91634 0
M  V30 25443 C 2382.27 1.43908 -4.34804 0
M  V30 25444 N 2383.76 1.50808 -4.37962 0
M  V30 25445 C 2384.5 1.75807 -5.45783 0
M  V30 25446 N 2383.99 1.98522 -6.63748 0
M  V30 25447 N 2385.79 1.77684 -5.33277 0
M  V30 25448 H 2377.94 -0.358037 -2.09361 0
M  V30 25449 H 2380.2 -0.097826 -0.942939 0
M  V30 25450 H 2379.91 0.230634 -3.50943 0
M  V30 25451 H 2379.78 1.95749 -3.22432 0
M  V30 25452 H 2382.17 1.92943 -2.23287 0
M  V30 25453 H 2382.25 0.190711 -2.55088 0
M  V30 25454 H 2381.89 0.651482 -5.03704 0
M  V30 25455 H 2381.82 2.39721 -4.68872 0
M  V30 25456 H 2384.31 1.35111 -3.52921 0
M  V30 25457 H 2384.63 2.17 -7.41708 0
M  V30 25458 H 2382.97 1.95821 -6.66843 0
M  V30 25459 H 2386.16 1.59465 -4.401 0
M  V30 25460 H 2386.33 1.96829 -6.17384 0
M  V30 25461 N 2379.74 1.42077 0.682052 0
M  V30 25462 C 2381.16 1.24843 0.994302 0
M  V30 25463 C 2381.36 0.147424 2.0096 0
M  V30 25464 O 2380.41 -0.483739 2.47823 0
M  V30 25465 C 2381.73 2.60268 1.50602 0
M  V30 25466 C 2383.27 2.67563 1.62417 0
M  V30 25467 C 2383.75 4.03337 2.16987 0
M  V30 25468 N 2385.24 4.05254 2.2433 0
M  V30 25469 C 2385.97 5.07121 2.67612 0
M  V30 25470 N 2385.47 6.19374 3.104 0
M  V30 25471 N 2387.26 4.94479 2.67296 0
M  V30 25472 H 2379.41 2.12398 0.00970174 0
M  V30 25473 H 2381.68 0.945641 0.0668427 0
M  V30 25474 H 2381.38 3.41656 0.834523 0
M  V30 25475 H 2381.26 2.83689 2.48597 0
M  V30 25476 H 2383.64 1.86525 2.28675 0
M  V30 25477 H 2383.73 2.47938 0.629309 0
M  V30 25478 H 2383.37 4.84828 1.5134 0
M  V30 25479 H 2383.3 4.20309 3.1725 0
M  V30 25480 H 2385.79 3.24212 1.94152 0
M  V30 25481 H 2386.1 6.9296 3.42091 0
M  V30 25482 H 2384.45 6.2289 3.08275 0
M  V30 25483 H 2387.64 4.05861 2.33226 0
M  V30 25484 H 2387.81 5.74002 3.00708 0
M  V30 25485 N 2381.22 -0.917649 1.28129 0
M  V30 25486 C 2382.64 -1.19536 1.05751 0
M  V30 25487 C 2382.84 -2.00479 -0.202598 0
M  V30 25488 O 2381.89 -2.35711 -0.905341 0
M  V30 25489 C 2383.2 -1.93374 2.30276 0
M  V30 25490 C 2384.75 -2.06272 2.35416 0
M  V30 25491 C 2385.23 -2.83517 3.59697 0
M  V30 25492 N 2386.72 -2.91081 3.60314 0
M  V30 25493 C 2387.45 -3.5134 4.53153 0
M  V30 25494 N 2386.95 -4.12909 5.56307 0
M  V30 25495 N 2388.74 -3.48841 4.40757 0
M  V30 25496 H 2380.89 -0.377148 2.09025 0
M  V30 25497 H 2383.16 -0.229494 0.919802 0
M  V30 25498 H 2382.86 -1.41323 3.22057 0
M  V30 25499 H 2382.74 -2.93943 2.36384 0
M  V30 25500 H 2385.12 -2.57506 1.44134 0
M  V30 25501 H 2385.2 -1.04891 2.33305 0
M  V30 25502 H 2384.85 -2.32965 4.5132 0
M  V30 25503 H 2384.78 -3.85205 3.59061 0
M  V30 25504 H 2387.27 -2.47333 2.85718 0
M  V30 25505 H 2387.58 -4.56858 6.23298 0
M  V30 25506 H 2385.93 -4.11425 5.60138 0
M  V30 25507 H 2389.12 -2.99948 3.59373 0
M  V30 25508 H 2389.29 -3.95511 5.13298 0
M  V30 25509 N 2382.7 -1.10314 -1.12555 0
M  V30 25510 C 2383.63 -0.708664 -2.17969 0
M  V30 25511 C 2384.64 0.253998 -1.60806 0
M  V30 25512 O 2385.83 0.0386578 -1.78458 0
M  V30 25513 C 2382.93 -0.0248794 -3.38891 0
M  V30 25514 C 2382.1 -1.0114 -4.25546 0
M  V30 25515 C 2381.16 -0.359332 -5.24972 0
M  V30 25516 O 2380.19 -1.00975 -5.60172 0
M  V30 25517 N 2381.39 0.882746 -5.73749 0
M  V30 25518 H 2384.16 -1.61561 -2.52424 0
M  V30 25519 H 2381.72 -0.991793 -1.27965 0
M  V30 25520 H 2383.71 0.422781 -4.02486 0
M  V30 25521 H 2382.28 0.784461 -3.02597 0
M  V30 25522 H 2381.5 -1.63736 -3.58586 0
M  V30 25523 H 2382.79 -1.67922 -4.80291 0
M  V30 25524 H 2382.19 1.43056 -5.47313 0
M  V30 25525 H 2380.74 1.27358 -6.39237 0
M  V30 25526 N 2384.18 1.29948 -0.891694 0
M  V30 25527 C 2385.11 2.26945 -0.320735 0
M  V30 25528 C 2386.12 1.53984 0.52847 0
M  V30 25529 O 2387.31 1.75096 0.346928 0
M  V30 25530 C 2384.41 3.34208 0.562007 0
M  V30 25531 C 2383.58 4.36629 -0.259652 0
M  V30 25532 C 2382.64 5.23269 0.554648 0
M  V30 25533 O 2381.67 5.69194 -0.0250312 0
M  V30 25534 N 2382.87 5.49814 1.8624 0
M  V30 25535 H 2385.63 2.76576 -1.15437 0
M  V30 25536 H 2383.2 1.43199 -0.755361 0
M  V30 25537 H 2385.19 3.89095 1.11297 0
M  V30 25538 H 2383.76 2.84454 1.29632 0
M  V30 25539 H 2382.98 3.81513 -0.992053 0
M  V30 25540 H 2384.27 5.02105 -0.822652 0
M  V30 25541 H 2383.66 5.14296 2.35619 0
M  V30 25542 H 2382.22 6.07549 2.36067 0
M  V30 25543 N 2385.65 0.653339 1.4342 0
M  V30 25544 C 2386.59 -0.0768731 2.29071 0
M  V30 25545 C 2387.6 -0.786992 1.42514 0
M  V30 25546 O 2388.79 -0.644728 1.6645 0
M  V30 25547 C 2385.89 -1.13193 3.19438 0
M  V30 25548 C 2385.06 -0.49993 4.34534 0
M  V30 25549 C 2384.12 -1.45189 5.05773 0
M  V30 25550 O 2383.15 -0.960439 5.61039 0
M  V30 25551 N 2384.35 -2.78585 5.09285 0
M  V30 25552 H 2387.11 0.658286 2.92381 0
M  V30 25553 H 2384.67 0.496131 1.54111 0
M  V30 25554 H 2386.67 -1.76958 3.63962 0
M  V30 25555 H 2385.24 -1.76906 2.57727 0
M  V30 25556 H 2384.46 0.316807 3.92925 0
M  V30 25557 H 2385.74 -0.058745 5.08766 0
M  V30 25558 H 2385.14 -3.21072 4.65757 0
M  V30 25559 H 2383.7 -3.37652 5.57525 0
M  V30 25560 N 2387.13 -1.52563 0.395266 0
M  V30 25561 C 2388.06 -2.29538 -0.428344 0
M  V30 25562 C 2389.04 -1.33171 -1.05828 0
M  V30 25563 O 2390.23 -1.62069 -1.06992 0
M  V30 25564 C 2387.36 -3.10659 -1.55268 0
M  V30 25565 C 2386.31 -4.14959 -1.04848 0
M  V30 25566 C 2385.64 -4.84341 -2.26535 0
M  V30 25567 C 2386.94 -5.22179 -0.112232 0
M  V30 25568 H 2388.63 -2.98635 0.213919 0
M  V30 25569 H 2386.18 -1.43622 0.104323 0
M  V30 25570 H 2388.13 -3.63269 -2.13573 0
M  V30 25571 H 2386.85 -2.39306 -2.22262 0
M  V30 25572 H 2385.51 -3.63339 -0.487921 0
M  V30 25573 H 2385.16 -4.0953 -2.92052 0
M  V30 25574 H 2384.86 -5.54841 -1.93457 0
M  V30 25575 H 2386.39 -5.39758 -2.85471 0
M  V30 25576 H 2387.8 -5.70113 -0.603652 0
M  V30 25577 H 2386.2 -5.99961 0.129073 0
M  V30 25578 H 2387.27 -4.77619 0.837136 0
M  V30 25579 N 2388.61 -0.125265 -1.57101 0
M  V30 25580 C 2389.52 0.836161 -2.19193 0
M  V30 25581 C 2390.54 1.28802 -1.16987 0
M  V30 25582 O 2391.71 1.34972 -1.49481 0
M  V30 25583 C 2388.78 2.06612 -2.78411 0
M  V30 25584 C 2387.84 1.66558 -3.95673 0
M  V30 25585 C 2387.07 2.8369 -4.52057 0
M  V30 25586 O 2387.29 3.99295 -4.07333 0
M  V30 25587 O 2386.23 2.60414 -5.42649 0
M  V30 25588 H 2390.05 0.337723 -3.01816 0
M  V30 25589 H 2387.64 0.100669 -1.4906 0
M  V30 25590 H 2389.52 2.78635 -3.16134 0
M  V30 25591 H 2388.2 2.5545 -1.98814 0
M  V30 25592 H 2387.1 0.916232 -3.62706 0
M  V30 25593 H 2388.44 1.22456 -4.76724 0
M  V30 25594 N 2390.09 1.56899 0.148518 0
M  V30 25595 C 2391 2.01414 1.2029 0
M  V30 25596 C 2392.01 0.929299 1.47105 0
M  V30 25597 O 2393.19 1.23866 1.58805 0
M  V30 25598 C 2390.25 2.38452 2.51678 0
M  V30 25599 C 2389.32 3.60876 2.32523 0
M  V30 25600 C 2388.55 3.96138 3.57646 0
M  V30 25601 O 2388.77 3.32081 4.63765 0
M  V30 25602 O 2387.71 4.89391 3.50399 0
M  V30 25603 H 2391.53 2.91417 0.854974 0
M  V30 25604 H 2389.12 1.45069 0.357126 0
M  V30 25605 H 2391 2.63141 3.29143 0
M  V30 25606 H 2389.67 1.51604 2.86003 0
M  V30 25607 H 2388.58 3.41376 1.53013 0
M  V30 25608 H 2389.91 4.48337 2.03113 0
M  V30 25609 N 2391.57 -0.417818 1.51961 0
M  V30 25610 C 2392.5 -1.52913 1.6939 0
M  V30 25611 C 2393.48 -1.5332 0.541446 0
M  V30 25612 O 2394.66 -1.72158 0.767726 0
M  V30 25613 C 2391.79 -2.91464 1.7253 0
M  V30 25614 C 2390.83 -3.09003 2.93972 0
M  V30 25615 S 2391.67 -2.83234 4.54466 0
M  V30 25616 C 2392.82 -4.2403 4.6038 0
M  V30 25617 H 2393.06 -1.37899 2.63384 0
M  V30 25618 H 2390.59 -0.60882 1.4189 0
M  V30 25619 H 2392.55 -3.71317 1.75025 0
M  V30 25620 H 2391.21 -3.03826 0.796787 0
M  V30 25621 H 2390.4 -4.10348 2.92627 0
M  V30 25622 H 2390 -2.37002 2.8932 0
M  V30 25623 H 2392.29 -5.17536 4.37222 0
M  V30 25624 H 2393.24 -4.30402 5.62281 0
M  V30 25625 H 2393.65 -4.08596 3.89499 0
M  V30 25626 N 2393.04 -1.42436 -0.674508 0
M  V30 25627 C 2394.46 -1.25369 -0.987668 0
M  V30 25628 C 2394.66 -0.158079 -2.00879 0
M  V30 25629 O 2393.72 0.470589 -2.48076 0
M  V30 25630 C 2395.03 -2.61063 -1.4922 0
M  V30 25631 C 2396.58 -2.6842 -1.60996 0
M  V30 25632 C 2397.05 -4.04482 -2.14845 0
M  V30 25633 N 2398.54 -4.06438 -2.22177 0
M  V30 25634 C 2399.28 -5.08533 -2.64919 0
M  V30 25635 N 2398.77 -6.21011 -3.07111 0
M  V30 25636 N 2400.57 -4.95889 -2.6467 0
M  V30 25637 H 2392.72 -2.124 0.00156237 0
M  V30 25638 H 2394.98 -0.945982 -0.0618268 0
M  V30 25639 H 2394.69 -3.42093 -0.816393 0
M  V30 25640 H 2394.56 -2.85003 -2.47089 0
M  V30 25641 H 2396.95 -1.87736 -2.27683 0
M  V30 25642 H 2397.03 -2.48268 -0.616151 0
M  V30 25643 H 2396.67 -4.85624 -1.48767 0
M  V30 25644 H 2396.6 -4.21986 -3.15017 0
M  V30 25645 H 2399.09 -3.25237 -1.9243 0
M  V30 25646 H 2399.41 -6.94765 -3.38411 0
M  V30 25647 H 2397.75 -6.24516 -3.04967 0
M  V30 25648 H 2400.94 -4.07092 -2.3107 0
M  V30 25649 H 2401.12 -5.75589 -2.97659 0
M  V30 25650 N 2394.52 0.910841 -1.28614 0
M  V30 25651 C 2395.47 2.01363 -1.1279 0
M  V30 25652 C 2396.44 1.66082 -0.0242302 0
M  V30 25653 O 2397.62 1.89855 -0.1897 0
M  V30 25654 C 2394.76 3.35728 -0.798802 0
M  V30 25655 C 2393.88 3.8386 -1.9818 0
M  V30 25656 C 2393.01 5.06749 -1.59307 0
M  V30 25657 C 2392.05 5.47221 -2.74254 0
M  V30 25658 N 2391.19 6.613 -2.35854 0
M  V30 25659 H 2396.03 2.1423 -2.07146 0
M  V30 25660 H 2393.56 1.04928 -1.03095 0
M  V30 25661 H 2395.52 4.13025 -0.588734 0
M  V30 25662 H 2394.15 3.2262 0.107833 0
M  V30 25663 H 2393.2 3.02695 -2.30391 0
M  V30 25664 H 2394.52 4.09813 -2.8435 0
M  V30 25665 H 2393.67 5.91598 -1.34524 0
M  V30 25666 H 2392.41 4.82611 -0.702702 0
M  V30 25667 H 2391.41 4.60912 -2.99733 0
M  V30 25668 H 2392.64 5.73346 -3.63938 0
M  V30 25669 H 2390.59 6.38787 -1.4929 0
M  V30 25670 H 2390.5 6.86993 -3.15558 0
M  V30 25671 H 2391.77 7.49446 -2.14361 0
M  V30 25672 N 2396 1.10909 1.11969 0
M  V30 25673 C 2397.42 0.841876 1.3559 0
M  V30 25674 C 2397.62 -0.536212 1.94234 0
M  V30 25675 O 2396.67 -1.28812 2.17172 0
M  V30 25676 C 2397.99 1.94553 2.29281 0
M  V30 25677 C 2399.53 1.97455 2.42859 0
M  V30 25678 C 2400.01 3.07008 3.39868 0
M  V30 25679 N 2401.5 3.06347 3.47427 0
M  V30 25680 C 2402.23 3.87755 4.22414 0
M  V30 25681 N 2401.73 4.79112 5.00424 0
M  V30 25682 N 2403.52 3.75954 4.1787 0
M  V30 25683 H 2395.67 1.99729 0.722629 0
M  V30 25684 H 2397.94 0.868235 0.38062 0
M  V30 25685 H 2397.64 2.93769 1.93373 0
M  V30 25686 H 2397.52 1.83694 3.29449 0
M  V30 25687 H 2399.9 0.988694 2.78045 0
M  V30 25688 H 2399.99 2.12391 1.42562 0
M  V30 25689 H 2399.63 4.05816 3.0541 0
M  V30 25690 H 2399.56 2.89313 4.40006 0
M  V30 25691 H 2402.05 2.40152 2.9178 0
M  V30 25692 H 2402.36 5.37776 5.54993 0
M  V30 25693 H 2400.71 4.83137 4.99603 0
M  V30 25694 H 2403.9 3.03931 3.56011 0
M  V30 25695 H 2404.07 4.39633 4.76054 0
M  V30 25696 N 2397.48 -1.29474 0.898573 0
M  V30 25697 C 2398.39 -2.31502 0.380014 0
M  V30 25698 C 2399.4 -1.65901 -0.524666 0
M  V30 25699 O 2400.58 -1.97088 -0.414517 0
M  V30 25700 C 2397.65 -3.44555 -0.385078 0
M  V30 25701 C 2396.71 -4.25749 0.550989 0
M  V30 25702 C 2395.94 -5.33404 -0.177685 0
M  V30 25703 O 2396.16 -5.52907 -1.40179 0
M  V30 25704 O 2395.1 -5.99989 0.479212 0
M  V30 25705 H 2398.92 -2.77835 1.22644 0
M  V30 25706 H 2396.51 -1.3389 0.662858 0
M  V30 25707 H 2398.39 -4.13389 -0.817769 0
M  V30 25708 H 2397.06 -3.00332 -1.20758 0
M  V30 25709 H 2395.97 -3.59562 1.03277 0
M  V30 25710 H 2397.3 -4.73612 1.33987 0
M  V30 25711 N 2398.96 -0.660936 -1.43071 0
M  V30 25712 C 2399.92 0.0166003 -2.29194 0
M  V30 25713 C 2400.92 0.742887 -1.42611 0
M  V30 25714 O 2402.11 0.582975 -1.64156 0
M  V30 25715 C 2399.24 1.03424 -3.24833 0
M  V30 25716 H 2400.43 -0.741259 -2.90595 0
M  V30 25717 H 2397.99 -0.422558 -1.5048 0
M  V30 25718 H 2398.72 1.82107 -2.68342 0
M  V30 25719 H 2398.51 0.517014 -3.88676 0
M  V30 25720 H 2400 1.50716 -3.89454 0
M  V30 25721 N 2400.43 1.52351 -0.403352 0
M  V30 25722 C 2401.34 2.30589 0.431969 0
M  V30 25723 C 2402.36 1.38077 1.05881 0
M  V30 25724 O 2403.54 1.7115 1.06158 0
M  V30 25725 C 2400.6 3.10787 1.53664 0
M  V30 25726 C 2399.66 4.19029 0.933451 0
M  V30 25727 C 2398.9 4.95393 1.98548 0
M  V30 25728 O 2399.12 4.71996 3.20274 0
M  V30 25729 O 2398.05 5.80384 1.59493 0
M  V30 25730 H 2401.88 3.03002 -0.205792 0
M  V30 25731 H 2399.46 1.48467 -0.166702 0
M  V30 25732 H 2401.35 3.60746 2.17808 0
M  V30 25733 H 2400.02 2.41173 2.15911 0
M  V30 25734 H 2398.93 3.73231 0.254888 0
M  V30 25735 H 2400.26 4.90918 0.354993 0
M  V30 25736 N 2401.91 0.133594 1.57033 0
M  V30 25737 C 2403.19 -0.565187 1.87257 0
M  V30 25738 C 2403.57 -1.83857 1.03729 0
M  V30 25739 O 2402.92 -2.28183 0.120287 0
M  V30 25740 C 2403.13 -0.843576 3.38651 0
M  V30 25741 C 2404.48 -1.19025 4.07576 0
M  V30 25742 O 2405.5 -0.933368 3.43754 0
M  V30 25743 O 2404.36 -1.67303 5.20262 0
M  V30 25744 H 2401.45 -0.286783 0.775683 0
M  V30 25745 H 2404 0.169198 1.68854 0
M  V30 25746 H 2402.77 0.0581836 3.91257 0
M  V30 25747 H 2402.39 -1.63261 3.62535 0
M  V30 25748 N 2403.39 -1.56975 -0.140195 0
M  V30 25749 C 2404.81 -1.51793 -0.493061 0
M  V30 25750 C 2405.01 -0.843148 -1.83012 0
M  V30 25751 O 2404.06 -0.416537 -2.49041 0
M  V30 25752 C 2405.38 -2.96563 -0.497092 0
M  V30 25753 C 2406.92 -3.07539 -0.582132 0
M  V30 25754 C 2407.4 -4.53828 -0.616759 0
M  V30 25755 N 2408.89 -4.58199 -0.678793 0
M  V30 25756 C 2409.62 -5.68777 -0.726682 0
M  V30 25757 N 2409.12 -6.88906 -0.733502 0
M  V30 25758 N 2410.91 -5.56828 -0.768081 0
M  V30 25759 H 2403.06 -1.99235 0.736143 0
M  V30 25760 H 2405.33 -0.908975 0.269198 0
M  V30 25761 H 2405.03 -3.49216 0.417278 0
M  V30 25762 H 2404.91 -3.52877 -1.33257 0
M  V30 25763 H 2407.29 -2.54901 -1.48692 0
M  V30 25764 H 2407.38 -2.54256 0.280625 0
M  V30 25765 H 2407.02 -5.07106 0.283901 0
M  V30 25766 H 2406.95 -5.049 -1.4961 0
M  V30 25767 H 2409.44 -3.71722 -0.680545 0
M  V30 25768 H 2409.75 -7.68934 -0.77208 0
M  V30 25769 H 2408.1 -6.91453 -0.701268 0
M  V30 25770 H 2411.29 -4.6189 -0.75997 0
M  V30 25771 H 2411.46 -6.43019 -0.801937 0
M  V30 25772 N 2404.87 0.409753 -1.5218 0
M  V30 25773 C 2405.83 1.48183 -1.74855 0
M  V30 25774 C 2406.83 1.48432 -0.618443 0
M  V30 25775 O 2408.02 1.49967 -0.886312 0
M  V30 25776 C 2405.15 2.87595 -1.83035 0
M  V30 25777 H 2406.35 1.2937 -2.70561 0
M  V30 25778 H 2403.9 0.640208 -1.42587 0
M  V30 25779 H 2404.63 3.11779 -0.892415 0
M  V30 25780 H 2404.42 2.88818 -2.65192 0
M  V30 25781 H 2405.91 3.65315 -2.02323 0
M  V30 25782 N 2406.35 1.42792 0.666944 0
M  V30 25783 C 2407.76 1.25891 0.981005 0
M  V30 25784 C 2407.96 0.16873 2.00792 0
M  V30 25785 O 2407.02 -0.457426 2.48322 0
M  V30 25786 C 2408.33 2.61851 1.47833 0
M  V30 25787 C 2409.88 2.6927 1.5957 0
M  V30 25788 C 2410.35 4.05616 2.12697 0
M  V30 25789 N 2411.85 4.0761 2.20019 0
M  V30 25790 C 2412.58 5.09931 2.62218 0
M  V30 25791 N 2412.08 6.22631 3.03813 0
M  V30 25792 N 2413.87 4.97286 2.62036 0
M  V30 25793 H 2406.02 2.12396 -0.0128264 0
M  V30 25794 H 2408.28 0.946296 0.0568091 0
M  V30 25795 H 2407.99 3.42522 0.798239 0
M  V30 25796 H 2407.86 2.86309 2.45574 0
M  V30 25797 H 2410.25 1.8894 2.26684 0
M  V30 25798 H 2410.33 2.48592 0.602976 0
M  V30 25799 H 2409.98 4.86406 1.46189 0
M  V30 25800 H 2409.91 4.2365 3.12775 0
M  V30 25801 H 2412.4 3.26253 1.90702 0
M  V30 25802 H 2412.71 6.96549 3.34722 0
M  V30 25803 H 2411.05 6.26124 3.01651 0
M  V30 25804 H 2414.25 4.08312 2.28908 0
M  V30 25805 H 2414.42 5.7716 2.94603 0
M  V30 25806 N 2407.82 -0.904008 1.29095 0
M  V30 25807 C 2408.76 -2.01264 1.09661 0
M  V30 25808 C 2409.77 -1.62737 0.0454015 0
M  V30 25809 O 2410.96 -1.76137 0.289477 0
M  V30 25810 C 2408.06 -3.3268 0.646337 0
M  V30 25811 C 2407.23 -3.9976 1.77512 0
M  V30 25812 C 2406.29 -5.09463 1.31658 0
M  V30 25813 O 2405.32 -5.3213 2.02054 0
M  V30 25814 N 2406.52 -5.80205 0.185099 0
M  V30 25815 H 2409.28 -2.18491 2.05139 0
M  V30 25816 H 2406.84 -1.07592 1.20977 0
M  V30 25817 H 2408.84 -4.03409 0.322977 0
M  V30 25818 H 2407.41 -3.11854 -0.215861 0
M  V30 25819 H 2406.63 -3.22451 2.26758 0
M  V30 25820 H 2407.91 -4.41321 2.53206 0
M  V30 25821 H 2407.31 -5.6427 -0.401922 0
M  V30 25822 H 2405.87 -6.51752 -0.0789213 0
M  V30 25823 N 2409.3 -1.11501 -1.11379 0
M  V30 25824 C 2410.21 -0.786667 -2.21017 0
M  V30 25825 C 2411.23 0.220477 -1.72598 0
M  V30 25826 O 2412.4 0.0564897 -2.01321 0
M  V30 25827 C 2409.47 -0.235394 -3.459 0
M  V30 25828 C 2408.53 -1.30122 -4.09105 0
M  V30 25829 C 2407.76 -0.776161 -5.28026 0
M  V30 25830 O 2407.99 0.393561 -5.69041 0
M  V30 25831 O 2406.92 -1.54125 -5.81833 0
M  V30 25832 H 2410.75 -1.70213 -2.51518 0
M  V30 25833 H 2408.33 -0.890949 -1.19927 0
M  V30 25834 H 2410.21 0.067641 -4.21346 0
M  V30 25835 H 2408.89 0.652773 -3.1705 0
M  V30 25836 H 2407.8 -1.65728 -3.35388 0
M  V30 25837 H 2409.13 -2.1628 -4.42135 0
M  V30 25838 N 2410.78 1.28995 -0.905426 0
M  V30 25839 C 2411.69 2.31297 -0.392286 0
M  V30 25840 C 2412.71 1.66177 0.51586 0
M  V30 25841 O 2413.88 1.97305 0.404059 0
M  V30 25842 C 2410.95 3.44754 0.3668 0
M  V30 25843 C 2410.01 4.25451 -0.57356 0
M  V30 25844 C 2409.24 5.33491 0.149394 0
M  V30 25845 O 2409.47 5.53643 1.37245 0
M  V30 25846 O 2408.4 5.99727 -0.511024 0
M  V30 25847 H 2412.23 2.77181 -1.24115 0
M  V30 25848 H 2409.81 1.33537 -0.669949 0
M  V30 25849 H 2411.69 4.13817 0.795834 0
M  V30 25850 H 2410.37 3.00968 1.19163 0
M  V30 25851 H 2409.27 3.59009 -1.05182 0
M  V30 25852 H 2410.61 4.72895 -1.36497 0
M  V30 25853 N 2412.26 0.668514 1.42719 0
M  V30 25854 C 2413.17 -0.013934 2.34596 0
M  V30 25855 C 2414.19 -0.795675 1.54742 0
M  V30 25856 O 2415.36 -0.739433 1.87335 0
M  V30 25857 C 2412.43 -0.957924 3.33204 0
M  V30 25858 C 2411.49 -0.171415 4.28958 0
M  V30 25859 C 2410.72 -1.07044 5.22855 0
M  V30 25860 O 2410.94 -2.30991 5.21535 0
M  V30 25861 O 2409.88 -0.534621 5.99521 0
M  V30 25862 H 2413.7 0.742713 2.94478 0
M  V30 25863 H 2411.29 0.428731 1.43116 0
M  V30 25864 H 2413.17 -1.50001 3.93799 0
M  V30 25865 H 2411.85 -1.69453 2.75803 0
M  V30 25866 H 2410.75 0.414624 3.71795 0
M  V30 25867 H 2412.09 0.525946 4.89382 0
M  V30 25868 N 2413.74 -1.52135 0.411426 0
M  V30 25869 C 2415.15 -1.59478 0.0624145 0
M  V30 25870 C 2415.35 -1.42413 -1.42551 0
M  V30 25871 O 2414.41 -1.25224 -2.19261 0
M  V30 25872 C 2415.72 -2.95451 0.559383 0
M  V30 25873 C 2417.27 -3.08691 0.517558 0
M  V30 25874 C 2417.75 -4.47148 0.991073 0
M  V30 25875 N 2419.24 -4.53395 0.947987 0
M  V30 25876 C 2419.97 -5.58804 1.28553 0
M  V30 25877 N 2419.47 -6.71754 1.69465 0
M  V30 25878 N 2421.26 -5.49024 1.20536 0
M  V30 25879 H 2413.41 -1.61475 1.37985 0
M  V30 25880 H 2415.67 -0.759754 0.56699 0
M  V30 25881 H 2415.38 -3.13227 1.59944 0
M  V30 25882 H 2415.25 -3.77188 -0.0297351 0
M  V30 25883 H 2417.64 -2.90599 -0.513454 0
M  V30 25884 H 2417.72 -2.28855 1.14276 0
M  V30 25885 H 2417.37 -4.65984 2.02042 0
M  V30 25886 H 2417.3 -5.25484 0.342663 0
M  V30 25887 H 2419.79 -3.72316 0.647223 0
M  V30 25888 H 2420.1 -7.48176 1.93527 0
M  V30 25889 H 2418.45 -6.73029 1.73371 0
M  V30 25890 H 2421.64 -4.59666 0.884585 0
M  V30 25891 H 2421.81 -6.31066 1.47172 0
M  V30 25892 N 2415.22 -0.14192 -1.5696 0
M  V30 25893 C 2416.63 0.214532 -1.58152 0
M  V30 25894 C 2416.83 1.65047 -1.15593 0
M  V30 25895 O 2415.89 2.37624 -0.853874 0
M  V30 25896 C 2417.2 -0.0396105 -3.00674 0
M  V30 25897 C 2418.75 0.0244978 -3.1299 0
M  V30 25898 C 2419.22 -0.202247 -4.57553 0
M  V30 25899 N 2420.71 -0.149 -4.6296 0
M  V30 25900 C 2421.45 -0.299025 -5.7262 0
M  V30 25901 N 2420.95 -0.506491 -6.90946 0
M  V30 25902 N 2422.74 -0.236985 -5.616 0
M  V30 25903 H 2414.89 -1.07956 -1.82919 0
M  V30 25904 H 2417.15 -0.426945 -0.846417 0
M  V30 25905 H 2416.86 -1.0332 -3.36181 0
M  V30 25906 H 2416.73 0.682078 -3.70982 0
M  V30 25907 H 2419.12 1.00864 -2.77327 0
M  V30 25908 H 2419.2 -0.729439 -2.45179 0
M  V30 25909 H 2418.84 -1.18346 -4.9392 0
M  V30 25910 H 2418.77 0.571952 -5.23485 0
M  V30 25911 H 2421.27 0.00690373 -3.77899 0
M  V30 25912 H 2421.58 -0.611211 -7.70379 0
M  V30 25913 H 2419.92 -0.54275 -6.92877 0
M  V30 25914 H 2423.11 -0.0757031 -4.68039 0
M  V30 25915 H 2423.29 -0.357341 -6.47014 0
M  V30 25916 N 2416.69 1.57047 0.131868 0
M  V30 25917 C 2418.11 1.52052 0.485005 0
M  V30 25918 C 2418.31 0.852842 1.82562 0
M  V30 25919 O 2417.37 0.429738 2.48816 0
M  V30 25920 C 2418.68 2.96822 0.481357 0
M  V30 25921 C 2420.23 3.07843 0.565814 0
M  V30 25922 C 2420.7 4.54149 0.592682 0
M  V30 25923 N 2422.19 4.58553 0.654484 0
M  V30 25924 C 2422.93 5.69154 0.696508 0
M  V30 25925 N 2422.42 6.89285 0.696957 0
M  V30 25926 N 2424.22 5.57227 0.738541 0
M  V30 25927 H 2416.37 1.98842 -0.746699 0
M  V30 25928 H 2418.63 0.907535 -0.274015 0
M  V30 25929 H 2418.34 3.4899 -0.435792 0
M  V30 25930 H 2418.21 3.53579 1.31384 0
M  V30 25931 H 2420.6 2.55686 1.47338 0
M  V30 25932 H 2420.68 2.54104 -0.294105 0
M  V30 25933 H 2420.32 5.06948 -0.31079 0
M  V30 25934 H 2420.25 5.05687 1.4693 0
M  V30 25935 H 2422.74 3.72077 0.660822 0
M  V30 25936 H 2423.06 7.69332 0.731291 0
M  V30 25937 H 2421.4 6.91815 0.664588 0
M  V30 25938 H 2424.59 4.62286 0.735464 0
M  V30 25939 H 2424.77 6.43435 0.767825 0
M  V30 25940 N 2418.17 -0.401677 1.52395 0
M  V30 25941 C 2419.1 -1.50909 1.72508 0
M  V30 25942 C 2420.12 -1.51121 0.605494 0
M  V30 25943 O 2421.31 -1.55252 0.880855 0
M  V30 25944 C 2418.41 -2.89788 1.75716 0
M  V30 25945 C 2417.58 -3.13684 3.04829 0
M  V30 25946 C 2416.64 -4.32476 2.99751 0
M  V30 25947 O 2415.66 -4.29395 3.73642 0
M  V30 25948 N 2416.87 -5.37989 2.18056 0
M  V30 25949 H 2419.63 -1.34048 2.68051 0
M  V30 25950 H 2417.19 -0.591058 1.50725 0
M  V30 25951 H 2419.18 -3.67337 1.69841 0
M  V30 25952 H 2417.75 -3.00071 0.876144 0
M  V30 25953 H 2416.97 -2.24113 3.24294 0
M  V30 25954 H 2418.26 -3.26498 3.90227 0
M  V30 25955 H 2417.66 -5.43342 1.57466 0
M  V30 25956 H 2416.22 -6.14252 2.18032 0
M  V30 25957 N 2419.65 -1.43144 -0.659362 0
M  V30 25958 C 2420.56 -1.50259 -1.80165 0
M  V30 25959 C 2421.58 -0.390136 -1.6957 0
M  V30 25960 O 2422.75 -0.643352 -1.90848 0
M  V30 25961 C 2419.82 -1.41731 -3.16407 0
M  V30 25962 C 2418.88 -2.63597 -3.38844 0
M  V30 25963 C 2418.11 -2.55466 -4.68586 0
M  V30 25964 O 2418.33 -1.59901 -5.47529 0
M  V30 25965 O 2417.27 -3.45863 -4.92608 0
M  V30 25966 H 2421.09 -2.46705 -1.77117 0
M  V30 25967 H 2418.68 -1.25077 -0.81707 0
M  V30 25968 H 2420.56 -1.39394 -3.97677 0
M  V30 25969 H 2419.24 -0.484174 -3.20058 0
M  V30 25970 H 2418.14 -2.71507 -2.57361 0
M  V30 25971 H 2419.48 -3.55862 -3.40034 0
M  V30 25972 N 2421.13 0.897149 -1.29572 0
M  V30 25973 C 2422.04 2.03451 -1.16811 0
M  V30 25974 C 2423.05 1.73763 -0.0907777 0
M  V30 25975 O 2424.23 1.99102 -0.303347 0
M  V30 25976 C 2421.29 3.36161 -0.848323 0
M  V30 25977 C 2420.36 3.79351 -2.00976 0
M  V30 25978 C 2419.59 5.05728 -1.70514 0
M  V30 25979 O 2419.81 5.6694 -0.62728 0
M  V30 25980 O 2418.75 5.45032 -2.55389 0
M  V30 25981 H 2422.57 2.17141 -2.12329 0
M  V30 25982 H 2420.16 1.02121 -1.09049 0
M  V30 25983 H 2422.04 4.15801 -0.684654 0
M  V30 25984 H 2420.71 3.23608 0.0770503 0
M  V30 25985 H 2419.62 3.00467 -2.22869 0
M  V30 25986 H 2420.95 3.96491 -2.91643 0
M  V30 25987 N 2422.61 1.1209 1.10786 0
M  V30 25988 C 2423.52 0.798377 2.20597 0
M  V30 25989 C 2424.53 -0.21132 1.72712 0
M  V30 25990 O 2425.71 -0.0458123 2.01348 0
M  V30 25991 C 2422.77 0.253734 3.4577 0
M  V30 25992 C 2421.83 1.3229 4.08409 0
M  V30 25993 C 2421.07 0.804153 5.27607 0
M  V30 25994 O 2421.29 -0.363378 5.69241 0
M  V30 25995 O 2420.22 1.57208 5.81007 0
M  V30 25996 H 2424.05 1.71545 2.50611 0
M  V30 25997 H 2421.63 0.897296 1.19453 0
M  V30 25998 H 2423.52 -0.045295 4.21376 0
M  V30 25999 H 2422.19 -0.635949 3.17392 0
M  V30 26000 H 2421.1 1.67505 3.34504 0
M  V30 26001 H 2422.43 2.18622 4.40982 0
M  V30 26002 N 2424.08 -1.28513 0.912254 0
M  V30 26003 C 2425.5 -1.47475 0.610185 0
M  V30 26004 C 2425.7 -1.8293 -0.844923 0
M  V30 26005 O 2424.76 -1.93335 -1.62412 0
M  V30 26006 C 2426.07 -2.57865 1.5468 0
M  V30 26007 C 2427.62 -2.71735 1.55335 0
M  V30 26008 C 2428.09 -3.85267 2.47655 0
M  V30 26009 N 2429.58 -3.92619 2.45774 0
M  V30 26010 C 2430.32 -4.79845 3.13905 0
M  V30 26011 N 2429.81 -5.71672 3.9136 0
M  V30 26012 N 2431.61 -4.73443 3.02999 0
M  V30 26013 H 2423.76 -1.03779 1.8532 0
M  V30 26014 H 2426.02 -0.516739 0.794786 0
M  V30 26015 H 2425.73 -2.38569 2.58414 0
M  V30 26016 H 2425.6 -3.54934 1.27677 0
M  V30 26017 H 2427.99 -2.90421 0.523401 0
M  V30 26018 H 2428.07 -1.75202 1.86381 0
M  V30 26019 H 2427.71 -3.67336 3.50752 0
M  V30 26020 H 2427.64 -4.81195 2.13912 0
M  V30 26021 H 2430.13 -3.26948 1.89509 0
M  V30 26022 H 2430.45 -6.35054 4.4037 0
M  V30 26023 H 2428.79 -5.71517 3.95465 0
M  V30 26024 H 2431.98 -4.00695 2.41994 0
M  V30 26025 H 2432.16 -5.41207 3.56369 0
M  V30 26026 N 2425.56 -0.676073 -1.42362 0
M  V30 26027 C 2426.79 -0.207304 -2.05859 0
M  V30 26028 C 2427.21 1.13602 -1.50798 0
M  V30 26029 O 2426.56 1.70597 -0.648295 0
M  V30 26030 C 2426.61 -0.135039 -3.61248 0
M  V30 26031 O 2426.33 -1.42528 -4.14267 0
M  V30 26032 C 2427.84 0.357073 -4.4186 0
M  V30 26033 H 2425.06 -0.100514 -0.663429 0
M  V30 26034 H 2427.6 -0.923168 -1.82477 0
M  V30 26035 H 2425.75 0.531521 -3.83736 0
M  V30 26036 H 2426.17 -1.29948 -5.08147 0
M  V30 26037 H 2427.64 0.356544 -5.50847 0
M  V30 26038 H 2428.12 1.39256 -4.16539 0
M  V30 26039 H 2428.73 -0.277794 -4.24392 0
M  V30 26040 N 2427.04 1.51915 -0.419488 0
M  V30 26041 C 2427.99 2.27292 0.400887 0
M  V30 26042 C 2428.96 1.30133 1.03221 0
M  V30 26043 O 2430.14 1.59011 1.05452 0
M  V30 26044 C 2427.28 3.10507 1.50597 0
M  V30 26045 C 2426.4 4.22637 0.894546 0
M  V30 26046 C 2425.53 4.93192 1.97319 0
M  V30 26047 C 2424.57 5.97269 1.33925 0
M  V30 26048 N 2423.71 6.61302 2.35848 0
M  V30 26049 H 2428.55 2.96964 -0.248304 0
M  V30 26050 H 2426.08 1.46486 -0.134292 0
M  V30 26051 H 2428.04 3.57066 2.15777 0
M  V30 26052 H 2426.67 2.42985 2.12505 0
M  V30 26053 H 2425.72 3.80173 0.131516 0
M  V30 26054 H 2427.04 4.97261 0.391553 0
M  V30 26055 H 2426.19 5.43209 2.70202 0
M  V30 26056 H 2424.93 4.18159 2.50987 0
M  V30 26057 H 2423.93 5.46562 0.5958 0
M  V30 26058 H 2425.16 6.7425 0.810133 0
M  V30 26059 H 2423.1 5.89092 2.88629 0
M  V30 26060 H 2423.02 7.31633 1.9039 0
M  V30 26061 H 2424.29 7.15954 3.08269 0
M  V30 26062 N 2428.52 0.150242 1.56882 0
M  V30 26063 C 2429.93 -0.206142 1.58263 0
M  V30 26064 C 2430.13 -1.64432 1.16467 0
M  V30 26065 O 2429.19 -2.37168 0.866464 0
M  V30 26066 C 2430.5 0.0555554 3.00649 0
M  V30 26067 C 2432.05 -0.00789886 3.12999 0
M  V30 26068 C 2432.53 0.226509 4.5744 0
M  V30 26069 N 2434.02 0.17355 4.62875 0
M  V30 26070 C 2434.75 0.329388 5.72453 0
M  V30 26071 N 2434.25 0.543127 6.90668 0
M  V30 26072 N 2436.04 0.266765 5.61467 0
M  V30 26073 H 2428.19 1.08925 1.82343 0
M  V30 26074 H 2430.46 0.431428 0.844141 0
M  V30 26075 H 2430.16 1.05102 3.35628 0
M  V30 26076 H 2430.04 -0.662394 3.71338 0
M  V30 26077 H 2432.42 -0.993917 2.77858 0
M  V30 26078 H 2432.5 0.742431 2.44789 0
M  V30 26079 H 2432.15 1.20964 4.93285 0
M  V30 26080 H 2432.08 -0.544182 5.23781 0
M  V30 26081 H 2434.57 0.0131373 3.77898 0
M  V30 26082 H 2434.88 0.652057 7.70044 0
M  V30 26083 H 2433.23 0.579487 6.9258 0
M  V30 26084 H 2436.42 0.100523 4.67992 0
M  V30 26085 H 2436.59 0.391648 6.46815 0
M  V30 26086 N 2430 -1.57115 -0.123538 0
M  V30 26087 C 2431.27 -1.75574 -0.862165 0
M  V30 26088 C 2431.65 -0.72451 -1.98278 0
M  V30 26089 O 2431 0.252367 -2.27102 0
M  V30 26090 C 2431.21 -3.20426 -1.38304 0
M  V30 26091 C 2432.56 -3.82796 -1.83717 0
M  V30 26092 O 2433.58 -3.24001 -1.47993 0
M  V30 26093 O 2432.44 -4.86132 -2.49677 0
M  V30 26094 H 2429.54 -0.718725 -0.409101 0
M  V30 26095 H 2432.08 -1.69358 -0.107632 0
M  V30 26096 H 2430.85 -3.86995 -0.578821 0
M  V30 26097 H 2430.48 -3.31161 -2.20041 0
M  V30 26098 N 2431.47 0.393589 -1.52606 0
M  V30 26099 C 2432.44 1.4632 -1.76417 0
M  V30 26100 C 2433.44 1.47767 -0.634152 0
M  V30 26101 O 2434.63 1.49019 -0.902169 0
M  V30 26102 C 2431.76 2.85638 -1.86075 0
M  V30 26103 H 2432.95 1.26493 -2.71918 0
M  V30 26104 H 2430.51 0.625048 -1.43258 0
M  V30 26105 H 2431.24 3.10815 -0.925433 0
M  V30 26106 H 2431.03 2.85989 -2.6824 0
M  V30 26107 H 2432.52 3.63149 -2.06186 0
M  V30 26108 N 2432.95 1.43492 0.651762 0
M  V30 26109 C 2433.86 1.51213 1.79365 0
M  V30 26110 C 2434.88 0.399123 1.69361 0
M  V30 26111 O 2436.05 0.653464 1.90504 0
M  V30 26112 C 2433.12 1.43407 3.15651 0
M  V30 26113 C 2432.18 2.6539 3.37441 0
M  V30 26114 C 2431.41 2.57947 4.67225 0
M  V30 26115 O 2431.64 1.62802 5.46673 0
M  V30 26116 O 2430.57 3.48471 4.90767 0
M  V30 26117 H 2434.4 2.47641 1.75806 0
M  V30 26118 H 2431.98 1.25509 0.810425 0
M  V30 26119 H 2433.86 1.41501 3.96932 0
M  V30 26120 H 2432.54 0.501141 3.19797 0
M  V30 26121 H 2431.45 2.72868 2.55918 0
M  V30 26122 H 2432.78 3.5766 3.38142 0
M  V30 26123 N 2434.43 -0.890264 1.30046 0
M  V30 26124 C 2435.34 -2.02829 1.17889 0
M  V30 26125 C 2436.36 -1.73712 0.0999915 0
M  V30 26126 O 2437.53 -1.98939 0.313902 0
M  V30 26127 C 2434.6 -3.35707 0.866138 0
M  V30 26128 C 2433.66 -3.7828 2.02985 0
M  V30 26129 C 2432.89 -5.04817 1.73193 0
M  V30 26130 O 2433.11 -5.666 0.657337 0
M  V30 26131 O 2432.05 -5.4367 2.58276 0
M  V30 26132 H 2435.87 -2.16012 2.13478 0
M  V30 26133 H 2433.46 -1.01541 1.09589 0
M  V30 26134 H 2435.34 -4.15432 0.706696 0
M  V30 26135 H 2434.02 -3.23645 -0.0598874 0
M  V30 26136 H 2432.92 -2.99281 2.24459 0
M  V30 26137 H 2434.26 -3.94939 2.93741 0
M  V30 26138 N 2435.91 -1.12676 -1.1019 0
M  V30 26139 C 2436.86 -0.796944 -2.16604 0
M  V30 26140 C 2437.83 0.237447 -1.64394 0
M  V30 26141 O 2439.01 0.111451 -1.90474 0
M  V30 26142 C 2436.15 -0.26049 -3.44115 0
M  V30 26143 C 2435.26 -1.353 -4.10266 0
M  V30 26144 C 2434.4 -0.775713 -5.25506 0
M  V30 26145 C 2433.44 -1.84717 -5.83563 0
M  V30 26146 N 2432.57 -1.28841 -6.90177 0
M  V30 26147 H 2437.41 -1.7085 -2.4416 0
M  V30 26148 H 2434.95 -0.852971 -1.19845 0
M  V30 26149 H 2436.91 0.0686081 -4.17144 0
M  V30 26150 H 2435.54 0.614218 -3.16903 0
M  V30 26151 H 2434.59 -1.79883 -3.35181 0
M  V30 26152 H 2435.9 -2.16311 -4.49456 0
M  V30 26153 H 2435.06 -0.397434 -6.05397 0
M  V30 26154 H 2433.8 0.0655724 -4.87656 0
M  V30 26155 H 2432.8 -2.23461 -5.0234 0
M  V30 26156 H 2434.03 -2.69172 -6.23477 0
M  V30 26157 H 2431.97 -0.468996 -6.54321 0
M  V30 26158 H 2431.89 -2.03509 -7.28093 0
M  V30 26159 H 2433.16 -0.937447 -7.73842 0
M  V30 26160 N 2437.39 1.28028 -0.919057 0
M  V30 26161 C 2438.8 1.47149 -0.617998 0
M  V30 26162 C 2439 1.83375 0.83521 0
M  V30 26163 O 2438.06 1.94194 1.61385 0
M  V30 26164 C 2439.37 2.57042 -1.56045 0
M  V30 26165 C 2440.92 2.70907 -1.56774 0
M  V30 26166 C 2441.39 3.83948 -2.49695 0
M  V30 26167 N 2442.89 3.9131 -2.47852 0
M  V30 26168 C 2443.62 4.78174 -3.16445 0
M  V30 26169 N 2443.12 5.69589 -3.94386 0
M  V30 26170 N 2444.91 4.71829 -3.05506 0
M  V30 26171 H 2437.06 1.02795 -1.85868 0
M  V30 26172 H 2439.32 0.512517 -0.797515 0
M  V30 26173 H 2439.03 2.37195 -2.59675 0
M  V30 26174 H 2438.9 3.54252 -1.29557 0
M  V30 26175 H 2441.29 2.9014 -0.538796 0
M  V30 26176 H 2441.37 1.74211 -1.87308 0
M  V30 26177 H 2441.02 3.65471 -3.52695 0
M  V30 26178 H 2440.95 4.80054 -2.16461 0
M  V30 26179 H 2443.44 3.25938 -1.9124 0
M  V30 26180 H 2443.75 6.3271 -4.43732 0
M  V30 26181 H 2442.09 5.69412 -3.98491 0
M  V30 26182 H 2445.29 3.99406 -2.44115 0
M  V30 26183 H 2445.46 5.39309 -3.59234 0
M  V30 26184 N 2438.86 0.683613 1.42002 0
M  V30 26185 C 2440.28 0.354004 1.55624 0
M  V30 26186 C 2440.48 -1.13997 1.66153 0
M  V30 26187 O 2439.54 -1.92558 1.63333 0
M  V30 26188 C 2440.85 1.09205 2.80169 0
M  V30 26189 C 2442.4 1.07523 2.93952 0
M  V30 26190 C 2442.87 1.79478 4.21369 0
M  V30 26191 N 2444.36 1.76389 4.283 0
M  V30 26192 C 2445.1 2.28913 5.25725 0
M  V30 26193 N 2444.59 2.89857 6.29249 0
M  V30 26194 N 2446.39 2.19237 5.17582 0
M  V30 26195 H 2438.54 1.65273 1.33412 0
M  V30 26196 H 2440.8 0.69678 0.642807 0
M  V30 26197 H 2440.51 2.14706 2.78557 0
M  V30 26198 H 2440.38 0.662927 3.71329 0
M  V30 26199 H 2442.77 0.0285269 2.95086 0
M  V30 26200 H 2442.85 1.54331 2.03999 0
M  V30 26201 H 2442.49 2.84121 4.20996 0
M  V30 26202 H 2442.42 1.30113 5.10273 0
M  V30 26203 H 2444.91 1.31945 3.54117 0
M  V30 26204 H 2445.23 3.27534 6.99958 0
M  V30 26205 H 2443.57 2.9393 6.29786 0
M  V30 26206 H 2446.76 1.71307 4.35628 0
M  V30 26207 H 2446.94 2.60476 5.93343 0
M  V30 26208 N 2440.34 -1.5169 0.427538 0
M  V30 26209 C 2441.28 -2.25235 -0.424481 0
M  V30 26210 C 2442.29 -1.28882 -0.994648 0
M  V30 26211 O 2443.48 -1.54703 -0.890455 0
M  V30 26212 C 2440.58 -2.98498 -1.60474 0
M  V30 26213 C 2439.75 -4.2187 -1.1552 0
M  V30 26214 C 2438.81 -4.77797 -2.20446 0
M  V30 26215 O 2437.84 -5.39896 -1.80281 0
M  V30 26216 N 2439.04 -4.60973 -3.52823 0
M  V30 26217 H 2441.8 -2.98993 0.205802 0
M  V30 26218 H 2439.36 -1.59865 0.255895 0
M  V30 26219 H 2441.36 -3.32803 -2.3027 0
M  V30 26220 H 2439.93 -2.27813 -2.14057 0
M  V30 26221 H 2439.15 -3.93171 -0.284667 0
M  V30 26222 H 2440.43 -5.0195 -0.832085 0
M  V30 26223 H 2439.83 -4.11488 -3.88193 0
M  V30 26224 H 2438.39 -4.99666 -4.18542 0
M  V30 26225 N 2441.82 -0.15856 -1.568 0
M  V30 26226 C 2442.73 0.789479 -2.20917 0
M  V30 26227 C 2443.75 1.26292 -1.19693 0
M  V30 26228 O 2444.92 1.3177 -1.52311 0
M  V30 26229 C 2441.99 2.0066 -2.82731 0
M  V30 26230 C 2441.05 1.58127 -3.99117 0
M  V30 26231 C 2440.28 2.74037 -4.57973 0
M  V30 26232 O 2440.51 3.90565 -4.15711 0
M  V30 26233 O 2439.44 2.48845 -5.48051 0
M  V30 26234 H 2443.27 0.273628 -3.02465 0
M  V30 26235 H 2440.85 0.0690286 -1.4924 0
M  V30 26236 H 2442.73 2.71866 -3.21973 0
M  V30 26237 H 2441.41 2.51175 -2.04188 0
M  V30 26238 H 2440.31 0.83909 -3.64568 0
M  V30 26239 H 2441.65 1.12316 -4.79214 0
M  V30 26240 N 2443.3 1.57178 0.115204 0
M  V30 26241 C 2444.21 2.0392 1.1599 0
M  V30 26242 C 2445.23 0.960293 1.45101 0
M  V30 26243 O 2446.4 1.27207 1.56142 0
M  V30 26244 C 2443.47 2.43736 2.46563 0
M  V30 26245 C 2442.53 3.65727 2.24815 0
M  V30 26246 C 2441.76 4.03635 3.49163 0
M  V30 26247 O 2441.98 3.41843 4.56617 0
M  V30 26248 O 2440.92 4.96714 3.3994 0
M  V30 26249 H 2444.74 2.93165 0.792968 0
M  V30 26250 H 2442.33 1.45794 0.326274 0
M  V30 26251 H 2444.21 2.70063 3.23487 0
M  V30 26252 H 2442.89 1.57636 2.82723 0
M  V30 26253 H 2441.79 3.44545 1.45738 0
M  V30 26254 H 2443.13 4.52544 1.93558 0
M  V30 26255 N 2444.78 -0.38549 1.52813 0
M  V30 26256 C 2446.03 -1.12794 1.67696 0
M  V30 26257 C 2446.35 -1.90398 0.421148 0
M  V30 26258 O 2445.62 -1.8759 -0.564518 0
M  V30 26259 H 2444.2 -0.419385 0.618163 0
M  V30 26260 H 2446.86 -0.436938 1.89939 0
M  V30 26261 H 2445.95 -1.82889 2.52899 0
M  V30 26262 N 2446.26 -1.43835 -0.644143 0
M  V30 26263 C 2447.49 -1.49173 -1.42937 0
M  V30 26264 C 2447.89 -0.111082 -1.88874 0
M  V30 26265 O 2447.24 0.890771 -1.60658 0
M  V30 26266 C 2447.3 -2.38329 -2.69146 0
M  V30 26267 C 2446.96 -3.8572 -2.45091 0
M  V30 26268 C 2447.96 -4.76593 -2.07738 0
M  V30 26269 C 2445.64 -4.30296 -2.59134 0
M  V30 26270 C 2447.64 -6.10041 -1.84739 0
M  V30 26271 C 2445.33 -5.63796 -2.35749 0
M  V30 26272 C 2446.32 -6.53486 -1.98609 0
M  V30 26273 O 2446.01 -7.84515 -1.75475 0
M  V30 26274 H 2445.74 -0.508643 -0.445262 0
M  V30 26275 H 2448.3 -1.89341 -0.796177 0
M  V30 26276 H 2446.53 -1.93064 -3.35057 0
M  V30 26277 H 2448.22 -2.34766 -3.31119 0
M  V30 26278 H 2448.98 -4.43429 -1.96457 0
M  V30 26279 H 2444.86 -3.60754 -2.87015 0
M  V30 26280 H 2448.41 -6.80008 -1.55674 0
M  V30 26281 H 2444.3 -5.96524 -2.46636 0
M  V30 26282 H 2445.07 -7.96183 -1.89827 0
M  V30 26283 N 2447.73 0.883355 -1.30517 0
M  V30 26284 C 2448.96 1.66597 -1.22184 0
M  V30 26285 C 2449.37 1.87946 0.217474 0
M  V30 26286 O 2448.71 1.42817 1.15538 0
M  V30 26287 C 2448.78 3.06332 -1.88152 0
M  V30 26288 C 2448.44 3.08148 -3.37482 0
M  V30 26289 C 2449.44 2.87086 -4.33448 0
M  V30 26290 C 2447.12 3.29694 -3.78955 0
M  V30 26291 C 2449.12 2.8753 -5.68863 0
M  V30 26292 C 2446.8 3.29767 -5.14487 0
M  V30 26293 C 2447.8 3.08709 -6.09252 0
M  V30 26294 O 2447.49 3.08601 -7.42307 0
M  V30 26295 H 2447.22 0.526572 -0.423907 0
M  V30 26296 H 2449.78 1.11185 -1.72705 0
M  V30 26297 H 2448.01 3.63414 -1.32163 0
M  V30 26298 H 2449.69 3.66753 -1.73917 0
M  V30 26299 H 2450.46 2.70236 -4.02738 0
M  V30 26300 H 2446.34 3.45119 -3.05637 0
M  V30 26301 H 2449.88 2.71012 -6.42805 0
M  V30 26302 H 2445.78 3.46153 -5.44838 0
M  V30 26303 H 2446.55 3.24756 -7.51316 0
M  V30 26304 N 2449.21 1.13259 1.09591 0
M  V30 26305 C 2450.44 0.916765 1.86038 0
M  V30 26306 C 2450.86 -0.529114 1.80505 0
M  V30 26307 O 2450.22 -1.37532 1.1813 0
M  V30 26308 C 2450.27 1.40709 3.32014 0
M  V30 26309 O 2449.37 0.591225 4.0814 0
M  V30 26310 H 2448.71 0.328693 0.576937 0
M  V30 26311 H 2451.24 1.50685 1.38403 0
M  V30 26312 H 2451.25 1.40997 3.82863 0
M  V30 26313 H 2449.93 2.45985 3.35357 0
M  V30 26314 H 2448.5 0.656069 3.67083 0
M  V30 26315 N 2450.69 -1.27539 0.925834 0
M  V30 26316 C 2452.11 -1.4682 0.625793 0
M  V30 26317 C 2452.31 -1.83816 -0.825474 0
M  V30 26318 O 2451.36 -1.95047 -1.60353 0
M  V30 26319 C 2452.67 -2.5621 1.57406 0
M  V30 26320 C 2454.22 -2.70072 1.58209 0
M  V30 26321 C 2454.7 -3.82619 2.51728 0
M  V30 26322 N 2456.19 -3.8999 2.49924 0
M  V30 26323 C 2456.92 -4.76489 3.18976 0
M  V30 26324 N 2456.42 -5.67489 3.97401 0
M  V30 26325 N 2458.21 -4.70202 3.08004 0
M  V30 26326 H 2450.36 -1.01808 1.86411 0
M  V30 26327 H 2452.63 -0.50828 0.800222 0
M  V30 26328 H 2452.33 -2.35815 2.6093 0
M  V30 26329 H 2452.21 -3.5356 1.31434 0
M  V30 26330 H 2454.59 -2.8985 0.554175 0
M  V30 26331 H 2454.67 -1.73215 1.88229 0
M  V30 26332 H 2454.32 -3.63595 3.54628 0
M  V30 26333 H 2454.25 -4.78899 2.19004 0
M  V30 26334 H 2456.74 -3.24919 1.92966 0
M  V30 26335 H 2457.05 -6.30348 4.47081 0
M  V30 26336 H 2455.4 -5.67291 4.01505 0
M  V30 26337 H 2458.59 -3.98106 2.4623 0
M  V30 26338 H 2458.76 -5.37397 3.62089 0
M  V30 26339 N 2452.17 -0.691135 -1.41637 0
M  V30 26340 C 2453.1 -0.037289 -2.3347 0
M  V30 26341 C 2454.08 0.771921 -1.51576 0
M  V30 26342 O 2455.26 0.725788 -1.80128 0
M  V30 26343 C 2452.39 0.903005 -3.35355 0
M  V30 26344 C 2451.35 0.201213 -4.27527 0
M  V30 26345 C 2450.67 1.25556 -5.1975 0
M  V30 26346 C 2451.97 -0.92978 -5.13958 0
M  V30 26347 H 2453.67 -0.804278 -2.88395 0
M  V30 26348 H 2451.21 -0.388214 -1.38668 0
M  V30 26349 H 2453.17 1.36962 -3.98521 0
M  V30 26350 H 2451.89 1.70161 -2.7877 0
M  V30 26351 H 2450.55 -0.24533 -3.65778 0
M  V30 26352 H 2450.2 2.04658 -4.59483 0
M  V30 26353 H 2449.9 0.791026 -5.82251 0
M  V30 26354 H 2451.42 1.72278 -5.85792 0
M  V30 26355 H 2452.84 -0.543647 -5.70717 0
M  V30 26356 H 2451.23 -1.32113 -5.85377 0
M  V30 26357 H 2452.3 -1.77141 -4.51386 0
M  V30 26358 N 2453.65 1.51461 -0.435577 0
M  V30 26359 C 2454.56 2.31453 0.38296 0
M  V30 26360 C 2455.57 1.40291 1.02929 0
M  V30 26361 O 2456.75 1.73363 1.02504 0
M  V30 26362 C 2453.81 3.13976 1.47037 0
M  V30 26363 C 2452.87 4.20915 0.844359 0
M  V30 26364 C 2452.11 4.99493 1.87995 0
M  V30 26365 O 2452.33 4.78684 3.10191 0
M  V30 26366 O 2451.26 5.83636 1.47147 0
M  V30 26367 H 2455.09 3.02497 -0.270017 0
M  V30 26368 H 2452.67 1.4808 -0.198156 0
M  V30 26369 H 2454.56 3.65285 2.10107 0
M  V30 26370 H 2453.23 2.45698 2.10746 0
M  V30 26371 H 2452.14 3.73687 0.175663 0
M  V30 26372 H 2453.47 4.91561 0.250782 0
M  V30 26373 N 2455.12 0.166873 1.56714 0
M  V30 26374 C 2456.09 -0.751194 2.1654 0
M  V30 26375 C 2457.09 -1.16123 1.1123 0
M  V30 26376 O 2458.28 -1.07891 1.36767 0
M  V30 26377 C 2455.41 -2.02191 2.74466 0
M  V30 26378 H 2456.6 -0.230447 2.99013 0
M  V30 26379 H 2454.16 -0.0826708 1.56081 0
M  V30 26380 H 2454.89 -2.58586 1.95714 0
M  V30 26381 H 2454.68 -1.73691 3.5153 0
M  V30 26382 H 2456.17 -2.67719 3.20494 0
M  V30 26383 N 2456.6 -1.57237 -0.106866 0
M  V30 26384 C 2457.51 -2.04532 -1.14907 0
M  V30 26385 C 2458.53 -0.967975 -1.4459 0
M  V30 26386 O 2459.7 -1.28033 -1.55465 0
M  V30 26387 C 2456.77 -2.4504 -2.45267 0
M  V30 26388 C 2455.83 -3.66914 -2.22873 0
M  V30 26389 C 2455.06 -4.05481 -3.47017 0
M  V30 26390 O 2455.29 -3.4426 -4.54798 0
M  V30 26391 O 2454.22 -4.9851 -3.37301 0
M  V30 26392 H 2458.05 -2.93581 -0.777409 0
M  V30 26393 H 2455.63 -1.45965 -0.318538 0
M  V30 26394 H 2457.51 -2.71775 -3.2205 0
M  V30 26395 H 2456.19 -1.59134 -2.81883 0
M  V30 26396 H 2455.1 -3.45313 -1.43909 0
M  V30 26397 H 2456.43 -4.53564 -1.91155 0
M  V30 26398 N 2458.08 0.377381 -1.53015 0
M  V30 26399 C 2459.5 0.718256 -1.42525 0
M  V30 26400 C 2459.7 1.93709 -0.554904 0
M  V30 26401 O 2458.75 2.52479 -0.0328037 0
M  V30 26402 C 2460.07 0.942488 -2.85548 0
M  V30 26403 C 2461.61 1.04324 -2.95103 0
M  V30 26404 C 2462.09 1.30002 -4.39162 0
M  V30 26405 N 2463.58 1.36798 -4.42539 0
M  V30 26406 C 2464.31 1.58355 -5.511 0
M  V30 26407 N 2463.81 1.77305 -6.69727 0
M  V30 26408 N 2465.6 1.60628 -5.3866 0
M  V30 26409 H 2457.75 -0.424462 -2.08116 0
M  V30 26410 H 2460.02 -0.127775 -0.939349 0
M  V30 26411 H 2459.72 0.118867 -3.51499 0
M  V30 26412 H 2459.6 1.85392 -3.28496 0
M  V30 26413 H 2461.98 1.85741 -2.29312 0
M  V30 26414 H 2462.07 0.10946 -2.55566 0
M  V30 26415 H 2461.71 0.490902 -5.05522 0
M  V30 26416 H 2461.64 2.24683 -4.76262 0
M  V30 26417 H 2464.13 1.23815 -3.57041 0
M  V30 26418 H 2464.44 1.93293 -7.48236 0
M  V30 26419 H 2462.79 1.74506 -6.72735 0
M  V30 26420 H 2465.98 1.45383 -4.44951 0
M  V30 26421 H 2466.15 1.77087 -6.23333 0
M  V30 26422 N 2459.56 1.44175 0.636506 0
M  V30 26423 C 2460.97 1.27943 0.954081 0
M  V30 26424 C 2461.17 0.211283 2.00389 0
M  V30 26425 O 2460.23 -0.404651 2.49236 0
M  V30 26426 C 2461.54 2.64928 1.42246 0
M  V30 26427 C 2463.09 2.72594 1.53822 0
M  V30 26428 C 2463.57 4.10036 2.04045 0
M  V30 26429 N 2465.06 4.12185 2.11323 0
M  V30 26430 C 2465.79 5.15378 2.51343 0
M  V30 26431 N 2465.29 6.28935 2.90538 0
M  V30 26432 N 2467.08 5.02732 2.51429 0
M  V30 26433 H 2459.23 2.12321 -0.0578759 0
M  V30 26434 H 2461.5 0.947288 0.036724 0
M  V30 26435 H 2461.2 3.44138 0.725406 0
M  V30 26436 H 2461.08 2.91454 2.39446 0
M  V30 26437 H 2463.46 1.93706 2.22625 0
M  V30 26438 H 2463.54 2.49815 0.550111 0
M  V30 26439 H 2463.19 4.89398 1.35839 0
M  V30 26440 H 2463.12 4.30189 3.03718 0
M  V30 26441 H 2465.61 3.30225 1.83739 0
M  V30 26442 H 2465.92 7.03493 3.19872 0
M  V30 26443 H 2464.27 6.32382 2.88302 0
M  V30 26444 H 2467.46 4.13075 2.20196 0
M  V30 26445 H 2467.63 5.83279 2.82294 0
M  V30 26446 N 2461.04 -0.876421 1.30983 0
M  V30 26447 C 2462.45 -1.16111 1.095 0
M  V30 26448 C 2462.65 -2.01022 -0.138714 0
M  V30 26449 O 2461.71 -2.38472 -0.829893 0
M  V30 26450 C 2463.02 -1.8595 2.36312 0
M  V30 26451 C 2464.57 -1.98678 2.41859 0
M  V30 26452 C 2465.04 -2.7193 3.68535 0
M  V30 26453 N 2466.54 -2.7947 3.69392 0
M  V30 26454 C 2467.27 -3.36745 4.64101 0
M  V30 26455 N 2466.77 -3.95002 5.69162 0
M  V30 26456 N 2468.56 -3.34642 4.51632 0
M  V30 26457 H 2460.71 -0.310457 2.10119 0
M  V30 26458 H 2462.97 -0.200115 0.926638 0
M  V30 26459 H 2462.68 -1.31005 3.2639 0
M  V30 26460 H 2462.55 -2.86274 2.45615 0
M  V30 26461 H 2464.94 -2.5279 1.52254 0
M  V30 26462 H 2465.02 -0.974158 2.36524 0
M  V30 26463 H 2464.67 -2.18488 4.58503 0
M  V30 26464 H 2464.6 -3.73587 3.71134 0
M  V30 26465 H 2467.09 -2.38118 2.93442 0
M  V30 26466 H 2467.4 -4.36797 6.37517 0
M  V30 26467 H 2465.74 -3.93396 5.72944 0
M  V30 26468 H 2468.94 -2.88363 3.68733 0
M  V30 26469 H 2469.11 -3.78981 5.25621 0
M  V30 26470 N 2462.51 -1.13839 -1.08989 0
M  V30 26471 C 2463.45 -0.77765 -2.15604 0
M  V30 26472 C 2464.46 0.202711 -1.61533 0
M  V30 26473 O 2465.65 -0.0181369 -1.78491 0
M  V30 26474 C 2462.75 -0.132682 -3.3864 0
M  V30 26475 C 2461.92 -1.14627 -4.22113 0
M  V30 26476 C 2460.98 -0.526166 -5.23563 0
M  V30 26477 O 2460.01 -1.18745 -5.56676 0
M  V30 26478 N 2461.21 0.699765 -5.76267 0
M  V30 26479 H 2463.97 -1.6951 -2.47156 0
M  V30 26480 H 2461.53 -1.032 -1.24745 0
M  V30 26481 H 2463.53 0.294519 -4.03627 0
M  V30 26482 H 2462.1 0.687795 -3.0494 0
M  V30 26483 H 2461.32 -1.75061 -3.53196 0
M  V30 26484 H 2462.6 -1.83117 -4.74706 0
M  V30 26485 H 2462 1.25571 -5.51587 0
M  V30 26486 H 2460.56 1.06956 -6.42965 0
M  V30 26487 N 2463.99 1.27046 -0.932584 0
M  V30 26488 C 2464.94 2.24348 -0.406431 0
M  V30 26489 C 2465.93 1.53192 0.492039 0
M  V30 26490 O 2467.12 1.73921 0.328687 0
M  V30 26491 C 2464.25 3.4166 0.335154 0
M  V30 26492 C 2463.33 4.20114 -0.580114 0
M  V30 26493 N 2463.72 4.763 -1.70211 0
M  V30 26494 C 2462.02 4.44343 -0.384053 0
M  V30 26495 C 2462.72 5.35505 -2.27177 0
M  V30 26496 N 2461.7 5.20712 -1.56078 0
M  V30 26497 H 2465.5 2.65376 -1.26304 0
M  V30 26498 H 2463.02 1.42033 -0.787433 0
M  V30 26499 H 2465.01 4.10476 0.72907 0
M  V30 26500 H 2463.67 3.02162 1.18863 0
M  V30 26501 H 2464.68 4.74102 -2.08441 0
M  V30 26502 H 2461.36 4.15297 0.428363 0
M  V30 26503 H 2462.75 5.899 -3.21664 0
M  V30 26504 N 2465.47 0.698636 1.41269 0
M  V30 26505 C 2466.75 0.158796 1.94954 0
M  V30 26506 C 2467.13 -1.33185 1.63783 0
M  V30 26507 O 2466.48 -2.07977 0.94646 0
M  V30 26508 C 2466.69 0.45337 3.46043 0
M  V30 26509 C 2468.03 0.382781 4.22871 0
M  V30 26510 O 2469.06 0.388458 3.54075 0
M  V30 26511 O 2467.92 0.345559 5.45406 0
M  V30 26512 H 2465.01 0.0167651 0.82683 0
M  V30 26513 H 2467.56 0.775007 1.50969 0
M  V30 26514 H 2466.33 1.48505 3.62025 0
M  V30 26515 H 2465.95 -0.19366 3.97128 0
M  V30 26516 N 2466.95 -1.51228 0.443603 0
M  V30 26517 C 2467.86 -2.31653 -0.37068 0
M  V30 26518 C 2468.87 -1.40835 -1.02183 0
M  V30 26519 O 2470.05 -1.73905 -1.01583 0
M  V30 26520 C 2467.12 -3.14751 -1.4537 0
M  V30 26521 C 2466.18 -4.21356 -0.822025 0
M  V30 26522 C 2465.41 -5.00483 -1.85344 0
M  V30 26523 O 2465.63 -4.80322 -3.07648 0
M  V30 26524 O 2464.57 -5.84409 -1.44049 0
M  V30 26525 H 2468.39 -3.0235 0.286055 0
M  V30 26526 H 2465.98 -1.47973 0.206006 0
M  V30 26527 H 2467.86 -3.66394 -2.08166 0
M  V30 26528 H 2466.53 -2.46812 -2.09441 0
M  V30 26529 H 2465.44 -3.73775 -0.155843 0
M  V30 26530 H 2466.77 -4.91687 -0.22471 0
M  V30 26531 N 2468.43 -0.175182 -1.56623 0
M  V30 26532 C 2469.39 0.7397 -2.16936 0
M  V30 26533 C 2470.39 1.15532 -1.11844 0
M  V30 26534 O 2471.58 1.07164 -1.37337 0
M  V30 26535 C 2468.71 2.00733 -2.75534 0
M  V30 26536 H 2469.9 0.214586 -2.99131 0
M  V30 26537 H 2467.46 0.0743922 -1.56123 0
M  V30 26538 H 2468.19 2.57544 -1.97083 0
M  V30 26539 H 2467.98 1.71825 -3.52447 0
M  V30 26540 H 2469.47 2.66016 -3.21909 0
M  V30 26541 N 2469.91 1.57292 0.0985263 0
M  V30 26542 C 2470.87 2.0086 1.10398 0
M  V30 26543 C 2471.87 0.901616 1.33145 0
M  V30 26544 O 2473.06 1.16718 1.29316 0
M  V30 26545 C 2470.19 2.36636 2.4539 0
M  V30 26546 H 2471.38 2.90904 0.729048 0
M  V30 26547 H 2468.94 1.52479 0.343468 0
M  V30 26548 H 2469.67 1.49536 2.87766 0
M  V30 26549 H 2469.46 3.17391 2.30229 0
M  V30 26550 H 2470.95 2.71013 3.17713 0
M  V30 26551 N 2471.38 -0.369261 1.53213 0
M  V30 26552 C 2472.8 -0.710687 1.42903 0
M  V30 26553 C 2473 -1.93412 0.565169 0
M  V30 26554 O 2472.06 -2.52458 0.0461928 0
M  V30 26555 C 2473.37 -0.927332 2.86044 0
M  V30 26556 C 2474.92 -1.02757 2.95652 0
M  V30 26557 C 2475.39 -1.27671 4.39845 0
M  V30 26558 N 2476.88 -1.3445 4.43258 0
M  V30 26559 C 2477.62 -1.5543 5.51932 0
M  V30 26560 N 2477.11 -1.73751 6.70658 0
M  V30 26561 N 2478.91 -1.57769 5.39505 0
M  V30 26562 H 2471.06 0.435493 2.07888 0
M  V30 26563 H 2473.32 0.132755 0.938659 0
M  V30 26564 H 2473.03 -0.100225 3.51557 0
M  V30 26565 H 2472.9 -1.83647 3.29475 0
M  V30 26566 H 2475.29 -1.84523 2.30294 0
M  V30 26567 H 2475.37 -0.0959054 2.5562 0
M  V30 26568 H 2475.01 -0.464086 5.05775 0
M  V30 26569 H 2474.94 -2.22154 4.77446 0
M  V30 26570 H 2477.43 -1.2192 3.57693 0
M  V30 26571 H 2477.75 -1.89322 7.49251 0
M  V30 26572 H 2476.09 -1.70936 6.73651 0
M  V30 26573 H 2479.28 -1.43021 4.45716 0
M  V30 26574 H 2479.46 -1.73779 6.24263 0
M  V30 26575 N 2472.86 -1.4451 -0.628851 0
M  V30 26576 C 2474.28 -1.28447 -0.947283 0
M  V30 26577 C 2474.48 -0.221907 -2.00274 0
M  V30 26578 O 2473.53 0.391427 -2.49448 0
M  V30 26579 C 2474.85 -2.65678 -1.40839 0
M  V30 26580 C 2476.39 -2.73406 -1.52374 0
M  V30 26581 C 2476.87 -4.11112 -2.01868 0
M  V30 26582 N 2478.36 -4.133 -2.09134 0
M  V30 26583 C 2479.1 -5.16704 -2.48606 0
M  V30 26584 N 2478.59 -6.30467 -2.87198 0
M  V30 26585 N 2480.38 -5.04059 -2.4876 0
M  V30 26586 H 2472.54 -2.12287 0.069135 0
M  V30 26587 H 2474.8 -0.94747 -0.0316998 0
M  V30 26588 H 2474.5 -3.44518 -0.707145 0
M  V30 26589 H 2474.38 -2.9272 -2.37897 0
M  V30 26590 H 2476.77 -1.94884 -2.21595 0
M  V30 26591 H 2476.85 -2.50103 -0.536855 0
M  V30 26592 H 2476.49 -4.90111 -1.33242 0
M  V30 26593 H 2476.42 -4.31794 -3.01432 0
M  V30 26594 H 2478.91 -3.31195 -1.81985 0
M  V30 26595 H 2479.22 -7.05179 -3.16136 0
M  V30 26596 H 2477.57 -6.33902 -2.84944 0
M  V30 26597 H 2480.76 -4.14237 -2.18002 0
M  V30 26598 H 2480.93 -5.84768 -2.79197 0
M  V30 26599 N 2474.34 0.869463 -1.31446 0
M  V30 26600 C 2475.27 1.99259 -1.2173 0
M  V30 26601 C 2476.25 1.69779 -0.104389 0
M  V30 26602 O 2477.44 1.92036 -0.289072 0
M  V30 26603 C 2474.57 3.34772 -0.924376 0
M  V30 26604 C 2473.52 3.78559 -1.99692 0
M  V30 26605 C 2472.85 5.11539 -1.55667 0
M  V30 26606 C 2474.15 3.95613 -3.4101 0
M  V30 26607 H 2475.84 2.07645 -2.15694 0
M  V30 26608 H 2473.39 0.997657 -1.0384 0
M  V30 26609 H 2475.34 4.12882 -0.843006 0
M  V30 26610 H 2474.06 3.2656 0.0509219 0
M  V30 26611 H 2472.72 3.02691 -2.06819 0
M  V30 26612 H 2472.37 4.99769 -0.569219 0
M  V30 26613 H 2472.07 5.41807 -2.27419 0
M  V30 26614 H 2473.59 5.92157 -1.48939 0
M  V30 26615 H 2475.01 4.64116 -3.36555 0
M  V30 26616 H 2473.4 4.37279 -4.10983 0
M  V30 26617 H 2474.47 2.98979 -3.81759 0
M  V30 26618 N 2475.82 1.14415 1.08383 0
M  V30 26619 C 2476.75 0.854082 2.17319 0
M  V30 26620 C 2477.73 -0.19102 1.69024 0
M  V30 26621 O 2478.91 -0.0476438 1.94142 0
M  V30 26622 C 2476.04 0.331044 3.45719 0
M  V30 26623 C 2475 1.31162 4.07407 0
M  V30 26624 C 2474.32 0.647873 5.3076 0
M  V30 26625 C 2475.62 2.67396 4.48661 0
M  V30 26626 H 2477.32 1.76502 2.41842 0
M  V30 26627 H 2474.86 0.850071 1.16232 0
M  V30 26628 H 2476.82 0.115719 4.21241 0
M  V30 26629 H 2475.54 -0.615324 3.20751 0
M  V30 26630 H 2474.2 1.51312 3.33917 0
M  V30 26631 H 2473.85 -0.304309 5.02079 0
M  V30 26632 H 2473.55 1.30217 5.7299 0
M  V30 26633 H 2475.07 0.442079 6.08998 0
M  V30 26634 H 2476.49 2.51153 5.15359 0
M  V30 26635 H 2474.88 3.29102 5.01809 0
M  V30 26636 H 2475.95 3.24254 3.60537 0
M  V30 26637 N 2477.3 -1.26549 0.939309 0
M  V30 26638 C 2478.21 -2.30176 0.453473 0
M  V30 26639 C 2479.22 -1.67487 -0.47162 0
M  V30 26640 O 2480.4 -1.98307 -0.351605 0
M  V30 26641 C 2477.46 -3.45606 -0.275265 0
M  V30 26642 C 2476.52 -4.23781 0.686159 0
M  V30 26643 C 2475.76 -5.33699 -0.00789613 0
M  V30 26644 O 2475.98 -5.57087 -1.22518 0
M  V30 26645 O 2474.91 -5.98161 0.669851 0
M  V30 26646 H 2478.74 -2.73792 1.31421 0
M  V30 26647 H 2476.32 -1.31713 0.705119 0
M  V30 26648 H 2478.21 -4.15781 -0.685838 0
M  V30 26649 H 2476.88 -3.04022 -1.11142 0
M  V30 26650 H 2475.79 -3.56094 1.14664 0
M  V30 26651 H 2477.12 -4.69109 1.48987 0
M  V30 26652 N 2478.77 -0.706118 -1.40896 0
M  V30 26653 C 2480.18 -0.315085 -1.84022 0
M  V30 26654 C 2480.54 1.14863 -1.59062 0
M  V30 26655 O 2479.66 1.88292 -1.06655 0
M  V30 26656 C 2480.26 -0.565097 -3.34054 0
M  V30 26657 C 2478.81 -0.227872 -3.7571 0
M  V30 26658 C 2477.96 -0.842168 -2.64202 0
M  V30 26659 H 2480.91 -0.905986 -1.30298 0
M  V30 26660 H 2480.93 0.172776 -3.80108 0
M  V30 26661 H 2480.45 -1.63048 -3.52189 0
M  V30 26662 H 2478.55 0.832831 -3.63173 0
M  V30 26663 H 2478.66 -0.690257 -4.74102 0
M  V30 26664 H 2477.02 -0.270938 -2.53255 0
M  V30 26665 H 2477.81 -1.91163 -2.85152 0
M  V30 26666 N 2480.25 1.50991 -0.451617 0
M  V30 26667 C 2481.16 2.31846 0.35839 0
M  V30 26668 C 2482.18 1.41375 1.01435 0
M  V30 26669 O 2483.35 1.74441 1.0066 0
M  V30 26670 C 2480.42 3.15518 1.43699 0
M  V30 26671 C 2479.48 4.21786 0.799668 0
M  V30 26672 C 2478.71 5.01459 1.82687 0
M  V30 26673 O 2478.94 4.81947 3.05096 0
M  V30 26674 O 2477.87 5.85164 1.40948 0
M  V30 26675 H 2481.7 3.02194 -0.302085 0
M  V30 26676 H 2479.28 1.47862 -0.213851 0
M  V30 26677 H 2481.16 3.67493 2.0622 0
M  V30 26678 H 2479.84 2.4792 2.08129 0
M  V30 26679 H 2478.74 3.73853 0.136018 0
M  V30 26680 H 2480.08 4.91799 0.198632 0
M  V30 26681 N 2481.73 0.183486 1.56528 0
M  V30 26682 C 2482.69 -0.728185 2.17325 0
M  V30 26683 C 2483.69 -1.14937 1.12455 0
M  V30 26684 O 2484.88 -1.06434 1.37903 0
M  V30 26685 C 2482.01 -1.99269 2.76595 0
M  V30 26686 H 2483.21 -0.19872 2.99241 0
M  V30 26687 H 2480.76 -0.0661116 1.5616 0
M  V30 26688 H 2481.5 -2.56495 1.98446 0
M  V30 26689 H 2481.28 -1.69953 3.53353 0
M  V30 26690 H 2482.77 -2.64305 3.23315 0
M  V30 26691 N 2483.21 -1.57342 -0.0901833 0
M  V30 26692 C 2484.62 -1.75236 -0.644142 0
M  V30 26693 C 2484.97 -0.806367 -1.78864 0
M  V30 26694 O 2484.09 0.0139747 -2.16395 0
M  V30 26695 C 2484.69 -3.17762 -1.17527 0
M  V30 26696 C 2483.25 -3.37064 -1.67525 0
M  V30 26697 C 2482.4 -2.71018 -0.586882 0
M  V30 26698 H 2485.35 -1.58117 0.135912 0
M  V30 26699 H 2485.37 -3.20906 -2.0445 0
M  V30 26700 H 2484.88 -3.8659 -0.34207 0
M  V30 26701 H 2482.98 -2.73324 -2.53229 0
M  V30 26702 H 2483.09 -4.45409 -1.76486 0
M  V30 26703 H 2481.46 -2.33054 -1.02752 0
M  V30 26704 H 2482.24 -3.42489 0.235818 0
M  V30 26705 N 2484.69 0.36113 -1.53407 0
M  V30 26706 C 2485.93 1.10112 -1.69469 0
M  V30 26707 C 2486.26 1.89704 -0.451385 0
M  V30 26708 O 2485.53 1.88464 0.534602 0
M  V30 26709 H 2484.11 0.409498 -0.624757 0
M  V30 26710 H 2486.77 0.406666 -1.9061 0
M  V30 26711 H 2485.86 1.78843 -2.55777 0
M  V30 26712 N 2486.16 1.44842 0.621179 0
M  V30 26713 C 2487.09 1.55306 1.74363 0
M  V30 26714 C 2488.08 0.405414 1.65198 0
M  V30 26715 O 2489.26 0.62682 1.83806 0
M  V30 26716 C 2486.39 1.50643 3.12928 0
M  V30 26717 C 2485.34 2.63985 3.36892 0
M  V30 26718 C 2484.67 2.44375 4.75589 0
M  V30 26719 C 2485.97 4.0608 3.28476 0
M  V30 26720 H 2487.66 2.49259 1.65863 0
M  V30 26721 H 2485.21 1.19964 0.796537 0
M  V30 26722 H 2487.16 1.56562 3.91237 0
M  V30 26723 H 2485.89 0.532114 3.22236 0
M  V30 26724 H 2484.55 2.57471 2.60967 0
M  V30 26725 H 2484.19 1.45113 4.81613 0
M  V30 26726 H 2483.89 3.20373 4.9258 0
M  V30 26727 H 2485.42 2.52127 5.56115 0
M  V30 26728 H 2486.83 4.13909 3.96676 0
M  V30 26729 H 2485.23 4.8236 3.57 0
M  V30 26730 H 2486.3 4.28947 2.26125 0
M  V30 26731 N 2487.64 -0.862479 1.31905 0
M  V30 26732 C 2488.88 -1.63002 1.23327 0
M  V30 26733 C 2489.25 -1.90916 -0.203691 0
M  V30 26734 O 2490.45 -2.65607 -0.413085 0
M  V30 26735 C 2488.72 -2.91974 2.06121 0
M  V30 26736 S 2490.28 -3.82808 2.14484 0
M  V30 26737 H 2487.1 -0.559186 0.439127 0
M  V30 26738 H 2489.7 -1.022 1.6666 0
M  V30 26739 H 2488.4 -2.69402 3.09598 0
M  V30 26740 H 2487.93 -3.57798 1.63536 0
M  V30 26741 H 2489.95 -4.79175 1.28863 0
M  V30 26742 N 2489.12 -1.14988 -1.07775 0
M  V30 26743 C 2490.54 -0.891619 -1.32372 0
M  V30 26744 C 2490.74 0.463754 -1.96091 0
M  V30 26745 O 2489.79 1.20663 -2.21803 0
M  V30 26746 C 2491.11 -2.02929 -2.21902 0
M  V30 26747 C 2492.65 -2.06333 -2.35363 0
M  V30 26748 C 2493.13 -3.19411 -3.28239 0
M  V30 26749 N 2494.62 -3.1903 -3.35818 0
M  V30 26750 C 2495.35 -4.03166 -4.07732 0
M  V30 26751 N 2494.85 -4.97355 -4.82297 0
M  V30 26752 N 2496.64 -3.91204 -4.03629 0
M  V30 26753 H 2488.79 -2.02274 -0.648003 0
M  V30 26754 H 2491.06 -0.881763 -0.348134 0
M  V30 26755 H 2490.76 -3.00743 -1.82336 0
M  V30 26756 H 2490.64 -1.95795 -3.22404 0
M  V30 26757 H 2493.02 -1.09121 -2.74184 0
M  V30 26758 H 2493.11 -2.17535 -1.34581 0
M  V30 26759 H 2492.75 -4.16872 -2.90138 0
M  V30 26760 H 2492.68 -3.05445 -4.28965 0
M  V30 26761 H 2495.17 -2.50816 -2.82666 0
M  V30 26762 H 2495.48 -5.58004 -5.34651 0
M  V30 26763 H 2493.83 -5.01347 -4.81328 0
M  V30 26764 H 2497.02 -3.16934 -3.44486 0
M  V30 26765 H 2497.19 -4.56998 -4.59409 0
M  V30 26766 N 2490.6 1.26049 -0.946007 0
M  V30 26767 C 2492.01 1.75456 -0.638127 0
M  V30 26768 C 2492.36 1.76993 0.846641 0
M  V30 26769 O 2491.49 1.38516 1.66259 0
M  V30 26770 C 2492.08 3.18627 -1.15162 0
M  V30 26771 C 2490.64 3.65627 -0.894068 0
M  V30 26772 C 2489.79 2.44954 -1.29972 0
M  V30 26773 H 2492.74 1.12058 -1.12378 0
M  V30 26774 H 2492.76 3.77098 -0.507681 0
M  V30 26775 H 2492.27 3.17476 -2.23227 0
M  V30 26776 H 2490.37 3.72203 0.171992 0
M  V30 26777 H 2490.48 4.54199 -1.52447 0
M  V30 26778 H 2488.85 2.44367 -0.718121 0
M  V30 26779 H 2489.63 2.46501 -2.3894 0
M  V30 26780 N 2492.08 0.71358 1.4052 0
M  V30 26781 C 2493.49 0.324839 1.83852 0
M  V30 26782 C 2493.84 -1.14018 1.59669 0
M  V30 26783 O 2492.96 -1.87723 1.07652 0
M  V30 26784 C 2493.56 0.582804 3.3375 0
M  V30 26785 C 2492.12 0.247793 3.75583 0
M  V30 26786 C 2491.26 0.856168 2.63752 0
M  V30 26787 H 2494.22 0.912883 1.29816 0
M  V30 26788 H 2494.24 -0.152615 3.80194 0
M  V30 26789 H 2493.75 1.64914 3.51319 0
M  V30 26790 H 2491.85 -0.81356 3.6361 0
M  V30 26791 H 2491.96 0.71539 4.73729 0
M  V30 26792 H 2490.33 0.284364 2.53108 0
M  V30 26793 H 2491.11 1.92673 2.84134 0
M  V30 26794 N 2493.55 -1.50749 0.459618 0
M  V30 26795 C 2494.48 -2.31148 -0.330604 0
M  V30 26796 C 2495.47 -1.37539 -1.00085 0
M  V30 26797 O 2496.65 -1.66461 -1.00022 0
M  V30 26798 C 2493.78 -3.16965 -1.41952 0
M  V30 26799 C 2492.73 -4.19033 -0.871534 0
M  V30 26800 C 2492.06 -4.93513 -2.05788 0
M  V30 26801 C 2493.36 -5.22186 0.109343 0
M  V30 26802 H 2495.05 -2.97459 0.340388 0
M  V30 26803 H 2492.6 -1.4305 0.165144 0
M  V30 26804 H 2494.55 -3.72001 -1.97973 0
M  V30 26805 H 2493.28 -2.48517 -2.11912 0
M  V30 26806 H 2491.94 -3.65081 -0.333378 0
M  V30 26807 H 2491.58 -4.21548 -2.74419 0
M  V30 26808 H 2491.28 -5.62547 -1.6975 0
M  V30 26809 H 2492.81 -5.5138 -2.62321 0
M  V30 26810 H 2494.22 -5.7216 -0.361304 0
M  V30 26811 H 2492.62 -5.98874 0.383421 0
M  V30 26812 H 2493.69 -4.73639 1.03896 0
M  V30 26813 N 2495.03 -0.191784 -1.56429 0
M  V30 26814 C 2496.44 0.321396 -1.83913 0
M  V30 26815 C 2496.79 1.61621 -1.11234 0
M  V30 26816 O 2495.92 2.13178 -0.372058 0
M  V30 26817 C 2496.51 0.589903 -3.33625 0
M  V30 26818 C 2495.07 1.04746 -3.61532 0
M  V30 26819 C 2494.22 0.094284 -2.7714 0
M  V30 26820 H 2497.17 -0.415639 -1.5316 0
M  V30 26821 H 2497.19 1.4396 -3.52215 0
M  V30 26822 H 2496.7 -0.352656 -3.86494 0
M  V30 26823 H 2494.81 2.00441 -3.14092 0
M  V30 26824 H 2494.92 0.942466 -4.69739 0
M  V30 26825 H 2493.28 0.595546 -2.4764 0
M  V30 26826 H 2494.07 -0.842659 -3.32797 0
M  V30 26827 N 2496.51 1.57387 0.0818378 0
M  V30 26828 C 2497.93 1.53518 0.436385 0
M  V30 26829 C 2498.13 0.910491 1.79756 0
M  V30 26830 O 2497.18 0.508679 2.47323 0
M  V30 26831 C 2498.5 2.98203 0.386682 0
M  V30 26832 C 2500.04 3.09488 0.467589 0
M  V30 26833 C 2500.52 4.55805 0.447898 0
M  V30 26834 N 2502.01 4.60403 0.508267 0
M  V30 26835 C 2502.74 5.71082 0.515083 0
M  V30 26836 N 2502.24 6.91154 0.477314 0
M  V30 26837 N 2504.03 5.59295 0.560889 0
M  V30 26838 H 2496.18 1.96366 -0.809581 0
M  V30 26839 H 2498.45 0.898358 -0.302749 0
M  V30 26840 H 2498.15 3.47427 -0.5466 0
M  V30 26841 H 2498.03 3.5758 1.20068 0
M  V30 26842 H 2500.41 2.60244 1.39129 0
M  V30 26843 H 2500.5 2.53039 -0.374797 0
M  V30 26844 H 2500.14 5.05703 -0.471915 0
M  V30 26845 H 2500.07 5.10105 1.30768 0
M  V30 26846 H 2502.56 3.73991 0.542114 0
M  V30 26847 H 2502.87 7.71269 0.486164 0
M  V30 26848 H 2501.22 6.93579 0.444156 0
M  V30 26849 H 2504.41 4.64392 0.588019 0
M  V30 26850 H 2504.58 6.45552 0.562732 0
M  V30 26851 N 2497.99 -0.35299 1.53596 0
M  V30 26852 C 2499.27 -1.11072 1.61004 0
M  V30 26853 C 2499.65 -2.06769 0.425393 0
M  V30 26854 O 2498.99 -2.20931 -0.583229 0
M  V30 26855 C 2499.2 -1.83872 2.96635 0
M  V30 26856 C 2500.55 -2.37955 3.51657 0
M  V30 26857 O 2501.58 -1.93981 2.98747 0
M  V30 26858 O 2500.43 -3.18378 4.44182 0
M  V30 26859 H 2497.53 -0.510239 0.650834 0
M  V30 26860 H 2500.07 -0.355241 1.6594 0
M  V30 26861 H 2498.85 -1.14101 3.74295 0
M  V30 26862 H 2498.47 -2.66299 2.95246 0
M  V30 26863 N 2499.47 -1.45169 -0.613489 0
M  V30 26864 C 2500.7 -1.52172 -1.3974 0
M  V30 26865 C 2501.11 -0.151119 -1.88596 0
M  V30 26866 O 2500.45 0.856493 -1.62511 0
M  V30 26867 C 2500.51 -2.43984 -2.6403 0
M  V30 26868 C 2500.17 -3.90831 -2.36854 0
M  V30 26869 C 2501.17 -4.80892 -1.97582 0
M  V30 26870 C 2498.86 -4.35696 -2.49948 0
M  V30 26871 C 2500.85 -6.13823 -1.71758 0
M  V30 26872 C 2498.54 -5.68669 -2.23737 0
M  V30 26873 C 2499.54 -6.57551 -1.84703 0
M  V30 26874 O 2499.22 -7.88061 -1.58795 0
M  V30 26875 H 2498.96 -0.517974 -0.434372 0
M  V30 26876 H 2501.51 -1.90988 -0.755836 0
M  V30 26877 H 2499.74 -2.00128 -3.30886 0
M  V30 26878 H 2501.43 -2.41736 -3.26065 0
M  V30 26879 H 2502.19 -4.47497 -1.87007 0
M  V30 26880 H 2498.07 -3.66761 -2.79298 0
M  V30 26881 H 2501.62 -6.83157 -1.41215 0
M  V30 26882 H 2497.51 -6.01621 -2.33927 0
M  V30 26883 H 2498.28 -8.00031 -1.72896 0
M  V30 26884 N 2500.95 0.855472 -1.32361 0
M  V30 26885 C 2501.86 1.99632 -1.23225 0
M  V30 26886 C 2502.87 1.73386 -0.146013 0
M  V30 26887 O 2504.05 1.98037 -0.366537 0
M  V30 26888 C 2501.11 3.33292 -0.95484 0
M  V30 26889 C 2500.17 3.72765 -2.12943 0
M  V30 26890 C 2499.41 5.00047 -1.86517 0
M  V30 26891 O 2499.63 5.64658 -0.80733 0
M  V30 26892 O 2498.56 5.36631 -2.726 0
M  V30 26893 H 2502.39 2.10276 -2.1913 0
M  V30 26894 H 2499.97 0.985999 -1.12243 0
M  V30 26895 H 2501.86 4.13412 -0.816592 0
M  V30 26896 H 2500.53 3.2369 -0.0259423 0
M  V30 26897 H 2499.44 2.93224 -2.32315 0
M  V30 26898 H 2500.77 3.87012 -3.04109 0
M  V30 26899 N 2502.42 1.15558 1.07164 0
M  V30 26900 C 2503.83 0.940721 1.61268 0
M  V30 26901 C 2504.19 -0.517518 1.89252 0
M  V30 26902 O 2503.31 -1.389 1.65939 0
M  V30 26903 C 2503.91 1.70125 2.9299 0
M  V30 26904 C 2502.46 1.53162 3.43829 0
M  V30 26905 C 2501.61 1.71562 2.17857 0
M  V30 26906 H 2504.56 1.30556 0.902267 0
M  V30 26907 H 2504.58 1.17187 3.62005 0
M  V30 26908 H 2504.1 2.76253 2.72591 0
M  V30 26909 H 2502.2 0.494359 3.69306 0
M  V30 26910 H 2502.31 2.30983 4.19743 0
M  V30 26911 H 2500.67 1.14229 2.27648 0
M  V30 26912 H 2501.46 2.7906 1.99951 0
M  V30 26913 N 2503.9 -1.25546 0.952678 0
M  V30 26914 C 2505.31 -1.75115 0.647423 0
M  V30 26915 C 2505.66 -1.77439 -0.837243 0
M  V30 26916 O 2504.79 -1.39396 -1.65523 0
M  V30 26917 C 2505.38 -3.18012 1.1685 0
M  V30 26918 C 2503.94 -3.65148 0.913446 0
M  V30 26919 C 2503.09 -2.44262 1.31269 0
M  V30 26920 H 2506.04 -1.1146 1.1297 0
M  V30 26921 H 2506.06 -3.76823 0.527672 0
M  V30 26922 H 2505.57 -3.16288 2.24908 0
M  V30 26923 H 2503.67 -3.72289 -0.15225 0
M  V30 26924 H 2503.79 -4.53384 1.54853 0
M  V30 26925 H 2502.15 -2.43982 0.731071 0
M  V30 26926 H 2502.93 -2.4523 2.40244 0
M  V30 26927 N 2505.38 -0.721022 -1.40139 0
M  V30 26928 C 2506.6 -0.271295 -2.05618 0
M  V30 26929 C 2507.03 1.08036 -1.5398 0
M  V30 26930 O 2506.39 1.68166 -0.677493 0
M  V30 26931 C 2506.44 -0.26726 -3.59608 0
M  V30 26932 O 2505.54 0.749743 -4.05528 0
M  V30 26933 H 2504.88 -0.126174 -0.651902 0
M  V30 26934 H 2507.41 -0.983029 -1.79437 0
M  V30 26935 H 2507.42 -0.106816 -4.0786 0
M  V30 26936 H 2506.1 -1.25361 -3.96557 0
M  V30 26937 H 2504.67 0.556579 -3.68723 0
M  V30 26938 N 2506.86 1.50503 -0.467606 0
M  V30 26939 C 2508.27 1.86696 -0.0116494 0
M  V30 26940 C 2508.62 1.38267 1.392 0
M  V30 26941 O 2507.74 0.746168 2.03129 0
M  V30 26942 C 2508.34 3.38797 -0.014364 0
M  V30 26943 C 2506.9 3.74414 0.386109 0
M  V30 26944 C 2506.05 2.7438 -0.401335 0
M  V30 26945 H 2509 1.43296 -0.682047 0
M  V30 26946 H 2509.02 3.72239 0.788576 0
M  V30 26947 H 2508.53 3.74015 -1.03608 0
M  V30 26948 H 2506.63 3.44796 1.41231 0
M  V30 26949 H 2506.74 4.79016 0.0898754 0
M  V30 26950 H 2505.11 2.5429 0.144491 0
M  V30 26951 H 2505.89 3.12442 -1.4225 0
M  V30 26952 N 2508.34 0.200077 1.56325 0
M  V30 26953 C 2509.56 -0.445935 2.02549 0
M  V30 26954 C 2509.99 -1.54058 1.07925 0
M  V30 26955 O 2509.34 -1.81188 0.0636093 0
M  V30 26956 C 2509.39 -0.9747 3.47177 0
M  V30 26957 O 2508.5 -2.08732 3.55675 0
M  V30 26958 H 2507.84 -0.103626 0.655864 0
M  V30 26959 H 2510.37 0.312417 2.02201 0
M  V30 26960 H 2510.38 -1.29003 3.87069 0
M  V30 26961 H 2509.05 -0.173397 4.15538 0
M  V30 26962 H 2507.63 -1.78026 3.2766 0
M  V30 26963 N 2509.81 -1.57429 -0.0734901 0
M  V30 26964 C 2511.22 -1.75909 -0.62552 0
M  V30 26965 C 2511.58 -0.825292 -1.77998 0
M  V30 26966 O 2510.7 -0.00897768 -2.16398 0
M  V30 26967 C 2511.3 -3.18991 -1.1415 0
M  V30 26968 C 2509.85 -3.38822 -1.63941 0
M  V30 26969 C 2509 -2.71626 -0.558104 0
M  V30 26970 H 2511.95 -1.57964 0.152675 0
M  V30 26971 H 2511.97 -3.23056 -2.01034 0
M  V30 26972 H 2511.49 -3.86931 -0.301048 0
M  V30 26973 H 2509.59 -2.75994 -2.50316 0
M  V30 26974 H 2509.7 -4.47256 -1.71752 0
M  V30 26975 H 2508.06 -2.34131 -1.00274 0
M  V30 26976 H 2508.85 -3.4222 0.272131 0
M  V30 26977 N 2511.29 0.344839 -1.53781 0
M  V30 26978 C 2512.25 1.40633 -1.80983 0
M  V30 26979 C 2513.25 1.45675 -0.680842 0
M  V30 26980 O 2514.44 1.46073 -0.949121 0
M  V30 26981 C 2511.58 2.79573 -1.95068 0
M  V30 26982 H 2512.77 1.17778 -2.75805 0
M  V30 26983 H 2510.32 0.579155 -1.45174 0
M  V30 26984 H 2511.06 3.07714 -1.02385 0
M  V30 26985 H 2510.84 2.7731 -2.77203 0
M  V30 26986 H 2512.33 3.56405 -2.17635 0
M  V30 26987 N 2512.77 1.45492 0.605781 0
M  V30 26988 C 2514.18 1.44047 1.18775 0
M  V30 26989 C 2514.53 0.169035 1.9547 0
M  V30 26990 O 2513.66 -0.729288 2.03741 0
M  V30 26991 C 2514.25 2.60967 2.1606 0
M  V30 26992 C 2512.81 2.62636 2.69628 0
M  V30 26993 C 2511.96 2.36327 1.45068 0
M  V30 26994 H 2514.91 1.53706 0.39499 0
M  V30 26995 H 2514.93 2.35168 2.99125 0
M  V30 26996 H 2514.44 3.53488 1.60211 0
M  V30 26997 H 2512.54 1.74125 3.29411 0
M  V30 26998 H 2512.66 3.61911 3.13938 0
M  V30 26999 H 2511.02 1.8592 1.74085 0
M  V30 27000 H 2511.8 3.30996 0.910841 0
M  V30 27001 N 2514.25 -0.848441 1.32813 0
M  V30 27002 C 2515.5 -1.59989 1.23482 0
M  V30 27003 C 2515.82 -1.93953 -0.201819 0
M  V30 27004 O 2515.09 -1.60155 -1.12815 0
M  V30 27005 H 2513.67 -0.593172 0.454045 0
M  V30 27006 H 2516.33 -1.01452 1.66413 0
M  V30 27007 H 2515.43 -2.53408 1.82183 0
M  V30 27008 N 2515.73 -1.16125 -1.06549 0
M  V30 27009 C 2516.69 -0.867944 -2.12131 0
M  V30 27010 C 2517.69 0.135916 -1.60225 0
M  V30 27011 O 2518.88 -0.0946728 -1.73943 0
M  V30 27012 C 2516.01 -0.297479 -3.396 0
M  V30 27013 H 2517.2 -1.80389 -2.39583 0
M  V30 27014 H 2514.76 -0.969834 -1.22572 0
M  V30 27015 H 2515.49 0.646274 -3.17795 0
M  V30 27016 H 2515.28 -1.02079 -3.78579 0
M  V30 27017 H 2516.77 -0.110125 -4.17455 0
M  V30 27018 N 2517.2 1.25039 -0.959323 0
M  V30 27019 C 2518.62 1.74769 -0.6567 0
M  V30 27020 C 2518.97 1.77881 0.827821 0
M  V30 27021 O 2518.09 1.40272 1.64781 0
M  V30 27022 C 2518.69 3.17387 -1.18535 0
M  V30 27023 C 2517.25 3.64659 -0.932798 0
M  V30 27024 C 2516.39 2.43562 -1.32563 0
M  V30 27025 H 2519.34 1.1086 -1.1356 0
M  V30 27026 H 2519.36 3.76538 -0.547649 0
M  V30 27027 H 2518.88 3.15091 -2.26582 0
M  V30 27028 H 2516.98 3.72364 0.132505 0
M  V30 27029 H 2517.09 4.52557 -1.57256 0
M  V30 27030 H 2515.45 2.43591 -0.743999 0
M  V30 27031 H 2516.24 2.43953 -2.41541 0
M  V30 27032 N 2518.68 0.728444 1.39755 0
M  V30 27033 C 2520.09 0.344321 1.83497 0
M  V30 27034 C 2520.44 -1.12318 1.6087 0
M  V30 27035 O 2519.57 -1.86571 1.09637 0
M  V30 27036 C 2520.16 0.61817 3.33113 0
M  V30 27037 C 2518.72 0.287615 3.753 0
M  V30 27038 C 2517.87 0.884094 2.62829 0
M  V30 27039 H 2520.82 0.926601 1.2884 0
M  V30 27040 H 2520.84 -0.112282 3.80334 0
M  V30 27041 H 2520.35 1.68631 3.4955 0
M  V30 27042 H 2518.46 -0.774948 3.64452 0
M  V30 27043 H 2518.57 0.765595 4.72943 0
M  V30 27044 H 2516.93 0.311194 2.52792 0
M  V30 27045 H 2517.72 1.95676 2.82074 0
M  V30 27046 N 2520.16 -1.50253 0.475581 0
M  V30 27047 C 2521.57 -1.86688 0.0215502 0
M  V30 27048 C 2521.92 -1.39003 -1.38465 0
M  V30 27049 O 2521.05 -0.75693 -2.0273 0
M  V30 27050 C 2521.64 -3.38785 0.032331 0
M  V30 27051 C 2520.2 -3.74614 -0.366248 0
M  V30 27052 C 2519.35 -2.74164 0.415881 0
M  V30 27053 H 2522.3 -1.42932 0.689637 0
M  V30 27054 H 2522.32 -3.72652 -0.768824 0
M  V30 27055 H 2521.83 -3.7346 1.0559 0
M  V30 27056 H 2519.93 -3.45541 -1.394 0
M  V30 27057 H 2520.05 -4.79057 -0.0644708 0
M  V30 27058 H 2518.41 -2.54363 -0.131003 0
M  V30 27059 H 2519.19 -3.11683 1.43905 0
M  V30 27060 N 2521.64 -0.208365 -1.56217 0
M  V30 27061 C 2523.05 0.301871 -1.84243 0
M  V30 27062 C 2523.4 1.60432 -1.12942 0
M  V30 27063 O 2522.53 2.12771 -0.394647 0
M  V30 27064 C 2523.12 0.554484 -3.34232 0
M  V30 27065 C 2521.68 1.00906 -3.62622 0
M  V30 27066 C 2520.83 0.0648843 -2.77224 0
M  V30 27067 H 2523.78 -0.43186 -1.52711 0
M  V30 27068 H 2523.8 1.40216 -3.53723 0
M  V30 27069 H 2523.31 -0.393629 -3.86099 0
M  V30 27070 H 2521.41 1.97099 -3.16201 0
M  V30 27071 H 2521.52 0.892591 -4.70712 0
M  V30 27072 H 2519.89 0.569247 -2.48257 0
M  V30 27073 H 2520.67 -0.87791 -3.31885 0
M  V30 27074 N 2523.12 1.57465 0.0651402 0
M  V30 27075 C 2524.53 1.76239 0.616182 0
M  V30 27076 C 2524.88 0.83472 1.77558 0
M  V30 27077 O 2524 0.0204537 2.1639 0
M  V30 27078 C 2524.6 3.19592 1.12456 0
M  V30 27079 C 2523.16 3.39687 1.62141 0
M  V30 27080 C 2522.3 2.71918 0.543691 0
M  V30 27081 H 2525.26 1.57881 -0.16105 0
M  V30 27082 H 2525.28 3.24118 1.99318 0
M  V30 27083 H 2524.79 3.87085 0.280524 0
M  V30 27084 H 2522.89 2.77318 2.48849 0
M  V30 27085 H 2523 4.48161 1.69377 0
M  V30 27086 H 2521.37 2.34659 0.99031 0
M  V30 27087 H 2522.15 3.42071 -0.290276 0
M  V30 27088 N 2524.59 -0.336679 1.53962 0
M  V30 27089 C 2525.53 -1.43457 1.78753 0
M  V30 27090 C 2526.54 -1.48417 0.669045 0
M  V30 27091 O 2527.73 -1.51376 0.94591 0
M  V30 27092 C 2524.83 -2.82075 1.87848 0
M  V30 27093 C 2524 -3.00473 3.17859 0
M  V30 27094 C 2523.06 -4.19374 3.17824 0
M  V30 27095 O 2522.09 -4.13161 3.91518 0
M  V30 27096 N 2523.29 -5.28256 2.40678 0
M  V30 27097 H 2526.05 -1.22558 2.73495 0
M  V30 27098 H 2523.61 -0.526598 1.53097 0
M  V30 27099 H 2525.61 -3.59803 1.85268 0
M  V30 27100 H 2524.18 -2.96085 1.00263 0
M  V30 27101 H 2523.4 -2.10157 3.33508 0
M  V30 27102 H 2524.68 -3.09653 4.03723 0
M  V30 27103 H 2524.08 -5.36175 1.80369 0
M  V30 27104 H 2522.64 -6.04452 2.43888 0
M  V30 27105 N 2526.07 -1.45812 -0.598057 0
M  V30 27106 C 2527.49 -1.30428 -0.919824 0
M  V30 27107 C 2527.69 -0.264339 -1.99759 0
M  V30 27108 O 2526.74 0.338428 -2.50222 0
M  V30 27109 C 2528.06 -2.68606 -1.35172 0
M  V30 27110 C 2529.61 -2.76577 -1.46541 0
M  V30 27111 C 2530.08 -4.15302 -1.93102 0
M  V30 27112 N 2531.57 -4.17643 -2.00321 0
M  V30 27113 C 2532.31 -5.21861 -2.3759 0
M  V30 27114 N 2531.8 -6.36417 -2.7376 0
M  V30 27115 N 2533.6 -5.09222 -2.38012 0
M  V30 27116 H 2525.75 -2.12093 0.114149 0
M  V30 27117 H 2528.01 -0.947929 -0.0115954 0
M  V30 27118 H 2527.72 -3.4594 -0.633909 0
M  V30 27119 H 2527.59 -2.977 -2.31635 0
M  V30 27120 H 2529.98 -1.99541 -2.17411 0
M  V30 27121 H 2530.06 -2.51185 -0.483683 0
M  V30 27122 H 2529.7 -4.92827 -1.22816 0
M  V30 27123 H 2529.63 -4.38091 -2.92206 0
M  V30 27124 H 2532.12 -3.3498 -1.74919 0
M  V30 27125 H 2532.44 -7.11726 -3.01107 0
M  V30 27126 H 2530.78 -6.39804 -2.71434 0
M  V30 27127 H 2533.97 -4.18768 -2.09167 0
M  V30 27128 H 2534.14 -5.90558 -2.6673 0
M  V30 27129 N 2527.55 0.841385 -1.33261 0
M  V30 27130 C 2528.5 1.97242 -1.23282 0
M  V30 27131 C 2529.49 1.68863 -0.134735 0
M  V30 27132 O 2530.7 1.77507 -0.298532 0
M  V30 27133 H 2527.07 0.64745 -0.382508 0
M  V30 27134 H 2529.04 2.02783 -2.1891 0
M  V30 27135 C 2527.79 3.33417 -0.986326 0
M  V30 27136 H 2527.12 3.55791 -1.82353 0
M  V30 27137 H 2528.56 4.13063 -0.9568 0
M  V30 27138 C 2527.02 3.35463 0.310783 0
M  V30 27139 O 2527.55 3.79452 1.31831 0
M  V30 27140 N 2525.75 2.88634 0.337435 0
M  V30 27141 H 2525.3 2.53031 -0.483011 0
M  V30 27142 H 2525.26 2.90386 1.20513 0
M  V30 27143 N 2529.03 1.16688 1.05932 0
M  V30 27144 C 2529.99 0.879181 2.11667 0
M  V30 27145 C 2530.99 -0.127417 1.60294 0
M  V30 27146 O 2532.18 0.103896 1.7389 0
M  V30 27147 C 2529.31 0.315485 3.39437 0
M  V30 27148 H 2530.51 1.81657 2.38623 0
M  V30 27149 H 2528.06 0.976321 1.22056 0
M  V30 27150 H 2528.8 -0.629412 3.18133 0
M  V30 27151 H 2528.58 1.04085 3.78033 0
M  V30 27152 H 2530.07 0.132262 4.1739 0
M  V30 27153 N 2530.51 -1.24529 0.96594 0
M  V30 27154 C 2531.73 -1.97148 0.644006 0
M  V30 27155 C 2532.16 -1.7119 -0.779457 0
M  V30 27156 O 2531.52 -0.97458 -1.52878 0
M  V30 27157 C 2531.56 -3.48597 0.922618 0
M  V30 27158 O 2530.67 -4.12399 0.00714921 0
M  V30 27159 H 2530.01 -0.617678 0.243658 0
M  V30 27160 H 2532.54 -1.58351 1.29561 0
M  V30 27161 H 2532.55 -3.98974 0.853443 0
M  V30 27162 H 2531.22 -3.66819 1.96002 0
M  V30 27163 H 2529.8 -3.72675 0.129495 0
M  V30 27164 N 2531.99 -0.735845 -1.39367 0
M  V30 27165 C 2533.22 -0.294002 -2.04497 0
M  V30 27166 C 2533.62 1.07642 -1.55595 0
M  V30 27167 O 2532.97 1.69157 -0.716353 0
M  V30 27168 C 2533.03 -0.218405 -3.58836 0
M  V30 27169 C 2532.69 -1.52744 -4.30718 0
M  V30 27170 C 2533.69 -2.4733 -4.57301 0
M  V30 27171 C 2531.37 -1.79197 -4.69248 0
M  V30 27172 C 2533.37 -3.66602 -5.21423 0
M  V30 27173 C 2531.06 -2.98746 -5.33098 0
M  V30 27174 C 2532.05 -3.9227 -5.59118 0
M  V30 27175 O 2531.74 -5.09719 -6.21644 0
M  V30 27176 H 2531.47 -0.126201 -0.664115 0
M  V30 27177 H 2534.03 -1.00055 -1.79383 0
M  V30 27178 H 2532.26 0.544247 -3.82851 0
M  V30 27179 H 2533.95 0.191555 -4.05448 0
M  V30 27180 H 2534.71 -2.28164 -4.27979 0
M  V30 27181 H 2530.59 -1.07246 -4.48352 0
M  V30 27182 H 2534.14 -4.39616 -5.41649 0
M  V30 27183 H 2530.03 -3.17813 -5.61841 0
M  V30 27184 H 2530.8 -5.10065 -6.40138 0
M  V30 27185 N 2533.46 1.49999 -0.483543 0
M  V30 27186 C 2534.39 2.31644 0.293788 0
M  V30 27187 C 2535.37 1.39114 0.97884 0
M  V30 27188 O 2536.56 1.68031 0.973614 0
M  V30 27189 C 2533.69 3.19183 1.36892 0
M  V30 27190 C 2532.64 4.20366 0.804759 0
M  V30 27191 C 2531.97 4.96725 1.97911 0
M  V30 27192 C 2533.27 5.21945 -0.192404 0
M  V30 27193 H 2534.96 2.9688 -0.387668 0
M  V30 27194 H 2532.51 1.42769 -0.187881 0
M  V30 27195 H 2534.46 3.75103 1.9203 0
M  V30 27196 H 2533.19 2.51857 2.07932 0
M  V30 27197 H 2531.85 3.65565 0.275254 0
M  V30 27198 H 2531.49 4.25861 2.67678 0
M  V30 27199 H 2531.19 5.65176 1.60779 0
M  V30 27200 H 2532.72 5.55483 2.53516 0
M  V30 27201 H 2534.13 5.72663 0.270232 0
M  V30 27202 H 2532.53 5.98188 -0.478648 0
M  V30 27203 H 2533.6 4.71926 -1.11418 0
M  V30 27204 N 2534.94 0.216646 1.56104 0
M  V30 27205 C 2535.89 -0.695492 2.20072 0
M  V30 27206 C 2536.86 -1.19395 1.15473 0
M  V30 27207 O 2538.04 -1.25394 1.43809 0
M  V30 27208 C 2535.18 -1.90016 2.88076 0
M  V30 27209 C 2534.3 -1.44106 4.07256 0
M  V30 27210 C 2533.43 -2.60292 4.63057 0
M  V30 27211 C 2532.47 -2.11093 5.74549 0
M  V30 27212 N 2531.61 -3.20534 6.24662 0
M  V30 27213 H 2536.45 -0.143275 2.97655 0
M  V30 27214 H 2533.98 -0.0589676 1.46982 0
M  V30 27215 H 2535.94 -2.60739 3.25686 0
M  V30 27216 H 2534.57 -2.42534 2.13019 0
M  V30 27217 H 2533.62 -0.628934 3.75165 0
M  V30 27218 H 2534.94 -1.04027 4.87832 0
M  V30 27219 H 2534.09 -3.39104 5.03084 0
M  V30 27220 H 2532.83 -3.03656 3.81634 0
M  V30 27221 H 2531.83 -1.30741 5.34029 0
M  V30 27222 H 2533.06 -1.68734 6.57804 0
M  V30 27223 H 2531.01 -3.63389 5.46154 0
M  V30 27224 H 2530.92 -2.84691 7.00348 0
M  V30 27225 H 2532.19 -3.99496 6.69345 0
M  V30 27226 N 2536.42 -1.57498 -0.0567885 0
M  V30 27227 C 2537.65 -1.92214 -0.765592 0
M  V30 27228 C 2538.06 -0.813991 -1.70351 0
M  V30 27229 O 2537.42 0.211669 -1.81268 0
M  V30 27230 C 2537.47 -3.26753 -1.54644 0
M  V30 27231 O 2537.19 -4.33308 -0.646202 0
M  V30 27232 C 2538.69 -3.75579 -2.3549 0
M  V30 27233 H 2535.91 -0.635003 -0.216824 0
M  V30 27234 H 2538.46 -2.04488 -0.0225787 0
M  V30 27235 H 2536.61 -3.15961 -2.24159 0
M  V30 27236 H 2537.03 -5.10802 -1.19084 0
M  V30 27237 H 2538.5 -4.72304 -2.85714 0
M  V30 27238 H 2538.98 -3.0535 -3.15687 0
M  V30 27239 H 2539.58 -3.89363 -1.71103 0
M  V30 27240 N 2537.9 0.328509 -1.54138 0
M  V30 27241 C 2538.83 1.42507 -1.79512 0
M  V30 27242 C 2539.84 1.4806 -0.676906 0
M  V30 27243 O 2541.03 1.50873 -0.953925 0
M  V30 27244 C 2538.13 2.81075 -1.89342 0
M  V30 27245 C 2537.3 2.98783 -3.19448 0
M  V30 27246 C 2536.36 4.17682 -3.20043 0
M  V30 27247 O 2535.39 4.11079 -3.93704 0
M  V30 27248 N 2536.59 5.26972 -2.43476 0
M  V30 27249 H 2539.36 1.21106 -2.74141 0
M  V30 27250 H 2536.92 0.518472 -1.53374 0
M  V30 27251 H 2538.91 3.58815 -1.87173 0
M  V30 27252 H 2537.48 2.95549 -1.01831 0
M  V30 27253 H 2536.7 2.08386 -3.34618 0
M  V30 27254 H 2537.99 3.07507 -4.0536 0
M  V30 27255 H 2537.39 5.35211 -1.8321 0
M  V30 27256 H 2535.94 6.0315 -2.4709 0
M  V30 27257 N 2539.38 1.46127 0.590316 0
M  V30 27258 C 2540.62 1.51266 1.35079 0
M  V30 27259 C 2540.95 0.160745 1.93534 0
M  V30 27260 O 2540.23 -0.826925 1.76046 0
M  V30 27261 C 2540.51 2.60535 2.48584 0
M  V30 27262 C 2540.37 4.05231 1.95213 0
M  V30 27263 C 2541.68 2.65946 3.50658 0
M  V30 27264 H 2538.8 0.550701 0.489794 0
M  V30 27265 H 2541.45 1.78025 0.663856 0
M  V30 27266 H 2539.6 2.37848 3.07181 0
M  V30 27267 H 2541.27 4.39181 1.41131 0
M  V30 27268 H 2539.51 4.1507 1.26093 0
M  V30 27269 H 2540.18 4.77402 2.77113 0
M  V30 27270 H 2542.66 2.86319 3.01929 0
M  V30 27271 H 2541.53 3.44234 4.27545 0
M  V30 27272 H 2541.79 1.71701 4.07396 0
M  V30 27273 N 2540.85 -0.834306 1.33705 0
M  V30 27274 C 2541.78 -1.95961 1.26971 0
M  V30 27275 C 2542.76 -1.69443 0.149366 0
M  V30 27276 O 2543.95 -1.91203 0.339885 0
M  V30 27277 C 2541.08 -3.32204 1.01281 0
M  V30 27278 C 2540.03 -3.73132 2.09658 0
M  V30 27279 C 2539.36 -5.07232 1.69175 0
M  V30 27280 C 2540.66 -3.86432 3.51379 0
M  V30 27281 H 2542.35 -2.01854 2.21123 0
M  V30 27282 H 2539.9 -0.969775 1.06449 0
M  V30 27283 H 2541.85 -4.10502 0.952178 0
M  V30 27284 H 2540.58 -3.26581 0.0356777 0
M  V30 27285 H 2539.24 -2.97101 2.14771 0
M  V30 27286 H 2538.88 -4.98084 0.701524 0
M  V30 27287 H 2538.58 -5.35587 2.41704 0
M  V30 27288 H 2540.11 -5.88 1.64586 0
M  V30 27289 H 2541.52 -4.5503 3.48742 0
M  V30 27290 H 2539.92 -4.26229 4.22432 0
M  V30 27291 H 2540.99 -2.88752 3.89552 0
M  V30 27292 N 2542.33 -1.17248 -1.05312 0
M  V30 27293 C 2543.56 -0.98518 -1.82507 0
M  V30 27294 C 2543.98 0.461756 -1.82344 0
M  V30 27295 O 2543.34 1.33053 -1.23153 0
M  V30 27296 C 2543.39 -1.52935 -3.26563 0
M  V30 27297 O 2542.49 -0.742296 -4.05665 0
M  V30 27298 H 2541.83 -0.349879 -0.564341 0
M  V30 27299 H 2544.36 -1.55718 -1.32715 0
M  V30 27300 H 2544.37 -1.5511 -3.77366 0
M  V30 27301 H 2543.05 -2.58262 -3.25996 0
M  V30 27302 H 2541.62 -0.791858 -3.64395 0
M  V30 27303 N 2543.81 1.24015 -0.972531 0
M  V30 27304 C 2545.22 1.74063 -0.6752 0
M  V30 27305 C 2545.57 1.78749 0.808908 0
M  V30 27306 O 2544.7 1.42012 1.63284 0
M  V30 27307 C 2545.29 3.16112 -1.21895 0
M  V30 27308 C 2543.85 3.63649 -0.971422 0
M  V30 27309 C 2543 2.42142 -1.35138 0
M  V30 27310 H 2545.95 1.09649 -1.14729 0
M  V30 27311 H 2545.97 3.75936 -0.587555 0
M  V30 27312 H 2545.48 3.1267 -2.29911 0
M  V30 27313 H 2543.58 3.72484 0.0930031 0
M  V30 27314 H 2543.7 4.50863 -1.62047 0
M  V30 27315 H 2542.06 2.42789 -0.769794 0
M  V30 27316 H 2542.84 2.41377 -2.44115 0
M  V30 27317 N 2545.29 0.743226 1.38974 0
M  V30 27318 C 2546.57 0.220739 1.9435 0
M  V30 27319 C 2546.95 -1.27907 1.67937 0
M  V30 27320 O 2546.29 -2.04861 1.01215 0
M  V30 27321 C 2546.5 0.563231 3.44425 0
M  V30 27322 C 2547.85 0.517121 4.21439 0
M  V30 27323 O 2548.88 0.500908 3.5266 0
M  V30 27324 O 2547.73 0.518901 5.44031 0
M  V30 27325 H 2544.83 0.0430616 0.825878 0
M  V30 27326 H 2547.37 0.822644 1.48427 0
M  V30 27327 H 2546.15 1.59947 3.57117 0
M  V30 27328 H 2545.77 -0.0672184 3.97543 0
M  V30 27329 N 2546.77 -1.4974 0.491491 0
M  V30 27330 C 2547.99 -2.07325 -0.0556813 0
M  V30 27331 C 2548.42 -1.35059 -1.30923 0
M  V30 27332 O 2547.77 -0.404396 -1.76732 0
M  V30 27333 C 2547.82 -3.59333 -0.302011 0
M  V30 27334 O 2546.93 -3.88675 -1.37861 0
M  V30 27335 H 2546.27 -0.663635 0.0220072 0
M  V30 27336 H 2548.8 -1.92672 0.688386 0
M  V30 27337 H 2548.81 -4.04459 -0.536393 0
M  V30 27338 H 2547.48 -4.11344 0.613902 0
M  V30 27339 H 2546.06 -3.55369 -1.12993 0
M  V30 27340 N 2548.24 -0.224922 -1.55987 0
M  V30 27341 C 2549.17 0.678418 -2.23427 0
M  V30 27342 C 2550.16 1.19845 -1.20712 0
M  V30 27343 O 2551.34 1.24183 -1.49306 0
M  V30 27344 C 2548.47 1.88522 -2.91679 0
M  V30 27345 C 2547.42 1.49889 -4.00895 0
M  V30 27346 C 2546.75 2.78475 -4.5646 0
M  V30 27347 C 2548.05 0.68637 -5.1777 0
M  V30 27348 H 2549.74 0.116121 -2.99175 0
M  V30 27349 H 2547.29 0.0544107 -1.43897 0
M  V30 27350 H 2549.24 2.52264 -3.37551 0
M  V30 27351 H 2547.97 2.47254 -2.13384 0
M  V30 27352 H 2546.63 0.884922 -3.55759 0
M  V30 27353 H 2546.27 3.35358 -3.74892 0
M  V30 27354 H 2545.97 2.53358 -5.30173 0
M  V30 27355 H 2547.5 3.43153 -5.05053 0
M  V30 27356 H 2548.91 1.22757 -5.60003 0
M  V30 27357 H 2547.31 0.532154 -5.97736 0
M  V30 27358 H 2548.38 -0.306281 -4.83932 0
M  V30 27359 N 2549.72 1.57526 0.0484352 0
M  V30 27360 C 2550.97 1.88373 0.743092 0
M  V30 27361 C 2551.3 0.819746 1.76381 0
M  V30 27362 O 2550.55 -0.181625 1.94855 0
M  V30 27363 C 2550.85 3.25938 1.46627 0
M  V30 27364 C 2550.52 4.47111 0.583348 0
M  V30 27365 C 2549.18 4.79997 0.340107 0
M  V30 27366 C 2551.53 5.21193 -0.0274261 0
M  V30 27367 C 2548.86 5.84364 -0.523006 0
M  V30 27368 C 2551.21 6.26476 -0.878127 0
M  V30 27369 C 2549.88 6.57848 -1.13102 0
M  V30 27370 H 2549.15 0.689306 0.271917 0
M  V30 27371 H 2551.79 1.915 0.003328 0
M  V30 27372 H 2550.1 3.1871 2.27885 0
M  V30 27373 H 2551.79 3.47048 2.00895 0
M  V30 27374 H 2548.38 4.21386 0.783077 0
M  V30 27375 H 2552.57 4.96081 0.147567 0
M  V30 27376 H 2547.82 6.07057 -0.727441 0
M  V30 27377 H 2552 6.83031 -1.35801 0
M  V30 27378 H 2549.63 7.38544 -1.80157 0
M  V30 27379 N 2551.2 -0.32033 1.5431 0
M  V30 27380 C 2552.43 -1.07735 1.76638 0
M  V30 27381 C 2552.84 -1.81597 0.516522 0
M  V30 27382 O 2552.2 -1.75144 -0.512911 0
M  V30 27383 C 2552.25 -2.07293 2.96162 0
M  V30 27384 O 2551.97 -1.36431 4.16315 0
M  V30 27385 C 2553.47 -2.95188 3.30725 0
M  V30 27386 H 2550.69 -0.320328 0.589602 0
M  V30 27387 H 2553.24 -0.365475 2.01208 0
M  V30 27388 H 2551.39 -2.74011 2.73856 0
M  V30 27389 H 2551.81 -2.03129 4.83569 0
M  V30 27390 H 2553.28 -3.60933 4.17649 0
M  V30 27391 H 2553.76 -3.62459 2.48033 0
M  V30 27392 H 2554.36 -2.34028 3.55121 0
M  V30 27393 N 2552.68 -1.46438 -0.582558 0
M  V30 27394 C 2553.64 -1.56595 -1.67363 0
M  V30 27395 C 2554.64 -0.443099 -1.54574 0
M  V30 27396 O 2555.83 -0.707409 -1.5919 0
M  V30 27397 C 2552.96 -1.48639 -3.06789 0
M  V30 27398 H 2554.16 -2.53833 -1.59715 0
M  V30 27399 H 2551.71 -1.3425 -0.800409 0
M  V30 27400 H 2552.44 -0.526819 -3.19992 0
M  V30 27401 H 2552.23 -2.30106 -3.1748 0
M  V30 27402 H 2553.72 -1.58833 -3.86215 0
M  V30 27403 N 2554.16 0.827204 -1.34146 0
M  V30 27404 C 2555.1 1.93782 -1.25367 0
M  V30 27405 C 2556.07 1.65592 -0.129803 0
M  V30 27406 O 2557.26 1.88264 -0.310057 0
M  V30 27407 C 2554.4 3.29968 -1.0107 0
M  V30 27408 C 2553.51 3.7048 -2.22191 0
M  V30 27409 C 2552.65 4.95592 -1.91212 0
M  V30 27410 C 2551.69 5.28672 -3.085 0
M  V30 27411 N 2550.82 6.44962 -2.77432 0
M  V30 27412 H 2555.66 2.00623 -2.20351 0
M  V30 27413 H 2553.2 0.981589 -1.09559 0
M  V30 27414 H 2555.16 4.08445 -0.850211 0
M  V30 27415 H 2553.79 3.22653 -0.0975593 0
M  V30 27416 H 2552.84 2.8743 -2.49175 0
M  V30 27417 H 2554.15 3.909 -3.09837 0
M  V30 27418 H 2553.31 5.81845 -1.71875 0
M  V30 27419 H 2552.04 4.77165 -1.0082 0
M  V30 27420 H 2551.05 4.40918 -3.28438 0
M  V30 27421 H 2552.27 5.4904 -3.99664 0
M  V30 27422 H 2550.22 6.27999 -1.89612 0
M  V30 27423 H 2550.14 6.65534 -3.5861 0
M  V30 27424 H 2551.41 7.34296 -2.61589 0
M  V30 27425 N 2555.63 1.17805 1.04688 0
M  V30 27426 C 2556.88 0.969564 1.7778 0
M  V30 27427 C 2557.21 -0.501368 1.87927 0
M  V30 27428 O 2556.46 -1.38839 1.37921 0
M  V30 27429 C 2556.76 1.56191 3.21464 0
M  V30 27430 C 2556.43 3.05792 3.31364 0
M  V30 27431 C 2555.09 3.46625 3.33773 0
M  V30 27432 C 2557.44 4.01803 3.31969 0
M  V30 27433 C 2554.77 4.82057 3.34422 0
M  V30 27434 C 2557.12 5.37142 3.34157 0
M  V30 27435 C 2555.79 5.77432 3.34856 0
M  V30 27436 H 2555.06 0.354788 0.650543 0
M  V30 27437 H 2557.7 1.46774 1.23003 0
M  V30 27438 H 2556.01 0.985582 3.79201 0
M  V30 27439 H 2557.71 1.37609 3.76649 0
M  V30 27440 H 2554.3 2.73244 3.30206 0
M  V30 27441 H 2558.48 3.71312 3.29304 0
M  V30 27442 H 2553.74 5.12579 3.33276 0
M  V30 27443 H 2557.91 6.11311 3.33574 0
M  V30 27444 H 2555.54 6.82352 3.35112 0
M  V30 27445 N 2557.11 -1.23497 0.979094 0
M  V30 27446 C 2558.36 -1.92162 0.648212 0
M  V30 27447 C 2558.69 -1.76224 -0.816018 0
M  V30 27448 O 2557.97 -1.1224 -1.58847 0
M  V30 27449 C 2558.25 -3.44822 1.03779 0
M  V30 27450 C 2558.1 -3.69874 2.55955 0
M  V30 27451 C 2559.42 -4.36252 0.58073 0
M  V30 27452 H 2556.54 -0.697866 0.236964 0
M  V30 27453 H 2559.18 -1.45645 1.22014 0
M  V30 27454 H 2557.33 -3.84571 0.551126 0
M  V30 27455 H 2559 -3.39615 3.12185 0
M  V30 27456 H 2557.25 -3.14631 2.98647 0
M  V30 27457 H 2557.92 -4.76732 2.78263 0
M  V30 27458 H 2560.39 -4.03941 0.998536 0
M  V30 27459 H 2559.27 -5.41771 0.881759 0
M  V30 27460 H 2559.53 -4.39043 -0.518975 0
M  V30 27461 N 2558.59 -0.750586 -1.38578 0
M  V30 27462 C 2559.55 -0.129192 -2.28836 0
M  V30 27463 C 2560.55 0.650688 -1.47047 0
M  V30 27464 O 2561.74 0.477398 -1.67531 0
M  V30 27465 C 2558.88 0.825563 -3.30753 0
M  V30 27466 H 2560.07 -0.924566 -2.85292 0
M  V30 27467 H 2557.62 -0.517402 -1.47488 0
M  V30 27468 H 2558.36 1.64672 -2.79381 0
M  V30 27469 H 2558.14 0.268784 -3.91178 0
M  V30 27470 H 2559.63 1.25643 -3.98251 0
M  V30 27471 N 2560.07 1.49477 -0.499425 0
M  V30 27472 C 2561.3 2.06556 0.0424476 0
M  V30 27473 C 2561.71 1.3602 1.31511 0
M  V30 27474 O 2561.05 0.431749 1.78554 0
M  V30 27475 C 2561.11 3.57611 0.368012 0
M  V30 27476 C 2560.78 4.49824 -0.80671 0
M  V30 27477 C 2561.77 4.91433 -1.69676 0
M  V30 27478 C 2559.46 4.92142 -1.00507 0
M  V30 27479 C 2561.45 5.74097 -2.76933 0
M  V30 27480 C 2559.14 5.74583 -2.08082 0
M  V30 27481 C 2560.14 6.15464 -2.9613 0
M  V30 27482 O 2559.83 6.96257 -4.01848 0
M  V30 27483 H 2559.56 0.675798 -0.0165284 0
M  V30 27484 H 2562.11 1.93265 -0.695531 0
M  V30 27485 H 2560.34 3.68905 1.15956 0
M  V30 27486 H 2562.03 3.96936 0.848311 0
M  V30 27487 H 2562.8 4.59385 -1.55532 0
M  V30 27488 H 2558.68 4.59824 -0.329117 0
M  V30 27489 H 2562.22 6.05926 -3.45686 0
M  V30 27490 H 2558.12 6.06043 -2.22221 0
M  V30 27491 H 2558.88 7.1456 -3.99182 0
M  V30 27492 N 2561.55 0.233191 1.55865 0
M  V30 27493 C 2562.5 -0.688471 2.22177 0
M  V30 27494 C 2563.49 -1.19074 1.20489 0
M  V30 27495 O 2564.7 -1.14922 1.38538 0
M  V30 27496 H 2561.07 -0.24047 0.712515 0
M  V30 27497 H 2563.04 -0.105883 2.98212 0
M  V30 27498 C 2561.79 -1.88066 2.92449 0
M  V30 27499 H 2561.11 -1.5033 3.7046 0
M  V30 27500 H 2562.55 -2.50308 3.42231 0
M  V30 27501 C 2561.01 -2.74332 1.9556 0
M  V30 27502 O 2561.54 -3.73445 1.47993 0
M  V30 27503 N 2559.75 -2.4061 1.62957 0
M  V30 27504 H 2559.3 -1.60065 2.01834 0
M  V30 27505 H 2559.25 -2.98607 0.983939 0
M  V30 27506 N 2563.03 -1.57549 -0.0400806 0
M  V30 27507 C 2563.94 -2.09222 -1.06129 0
M  V30 27508 C 2564.95 -1.02843 -1.40354 0
M  V30 27509 O 2566.13 -1.34512 -1.49895 0
M  V30 27510 C 2563.19 -2.55223 -2.34654 0
M  V30 27511 C 2562.25 -3.76037 -2.0711 0
M  V30 27512 C 2561.49 -4.19834 -3.29507 0
M  V30 27513 O 2561.71 -3.6324 -4.39787 0
M  V30 27514 O 2560.64 -5.12367 -3.15854 0
M  V30 27515 H 2564.47 -2.96614 -0.652192 0
M  V30 27516 H 2562.05 -1.47184 -0.256343 0
M  V30 27517 H 2563.94 -2.85189 -3.10234 0
M  V30 27518 H 2562.61 -1.70946 -2.7488 0
M  V30 27519 H 2561.52 -3.51106 -1.29133 0
M  V30 27520 H 2562.85 -4.61264 -1.71746 0
M  V30 27521 N 2564.5 0.312142 -1.54478 0
M  V30 27522 C 2565.41 1.40737 -1.87697 0
M  V30 27523 C 2566.43 1.56035 -0.770002 0
M  V30 27524 O 2567.61 1.70913 -1.0654 0
M  V30 27525 C 2564.67 2.75283 -2.1076 0
M  V30 27526 C 2563.73 2.69065 -3.34519 0
M  V30 27527 C 2562.96 3.97194 -3.56472 0
M  V30 27528 O 2563.19 4.96016 -2.81646 0
M  V30 27529 O 2562.12 3.99762 -4.49971 0
M  V30 27530 H 2565.95 1.15569 -2.80851 0
M  V30 27531 H 2563.53 0.507203 -1.40527 0
M  V30 27532 H 2565.41 3.54909 -2.27194 0
M  V30 27533 H 2564.09 3.00318 -1.20793 0
M  V30 27534 H 2563 1.8795 -3.23459 0
M  V30 27535 H 2564.33 2.48984 -4.24579 0
M  V30 27536 N 2565.98 1.46745 0.574784 0
M  V30 27537 C 2566.89 1.60508 1.71098 0
M  V30 27538 C 2567.91 0.488336 1.67007 0
M  V30 27539 O 2569.08 0.753528 1.86772 0
M  V30 27540 C 2566.15 1.59937 3.07605 0
M  V30 27541 C 2565.21 2.82904 3.22899 0
M  V30 27542 C 2564.44 2.82351 4.52895 0
M  V30 27543 O 2564.67 1.91551 5.37275 0
M  V30 27544 O 2563.6 3.73995 4.71605 0
M  V30 27545 H 2567.43 2.56612 1.62432 0
M  V30 27546 H 2565.01 1.29628 0.742756 0
M  V30 27547 H 2566.89 1.62343 3.88874 0
M  V30 27548 H 2565.57 0.669954 3.16691 0
M  V30 27549 H 2564.47 2.8605 2.41094 0
M  V30 27550 H 2565.81 3.75081 3.18708 0
M  V30 27551 N 2567.46 -0.820078 1.34583 0
M  V30 27552 C 2568.37 -1.96294 1.28474 0
M  V30 27553 C 2569.39 -1.72938 0.191932 0
M  V30 27554 O 2570.56 -1.96995 0.418914 0
M  V30 27555 C 2567.63 -3.30643 1.04287 0
M  V30 27556 C 2566.69 -3.66988 2.22752 0
M  V30 27557 C 2565.92 -4.94926 1.99709 0
M  V30 27558 O 2566.14 -5.62319 0.956755 0
M  V30 27559 O 2565.08 -5.29215 2.86732 0
M  V30 27560 H 2568.9 -2.04392 2.24628 0
M  V30 27561 H 2566.49 -0.955893 1.14817 0
M  V30 27562 H 2568.37 -4.11102 0.925914 0
M  V30 27563 H 2567.05 -3.23507 0.111754 0
M  V30 27564 H 2565.95 -2.86962 2.40008 0
M  V30 27565 H 2567.29 -3.78813 3.14263 0
M  V30 27566 N 2568.94 -1.18359 -1.04062 0
M  V30 27567 C 2569.85 -0.925634 -2.15567 0
M  V30 27568 C 2570.86 0.110265 -1.7365 0
M  V30 27569 O 2572.04 -0.0716572 -2.01272 0
M  V30 27570 C 2569.1 -0.454897 -3.43703 0
M  V30 27571 C 2568.17 -1.55877 -4.00001 0
M  V30 27572 C 2567.4 -1.11039 -5.22021 0
M  V30 27573 O 2567.62 0.0308754 -5.70392 0
M  V30 27574 O 2566.56 -1.90815 -5.70853 0
M  V30 27575 H 2570.38 -1.85864 -2.40183 0
M  V30 27576 H 2567.97 -0.965414 -1.14018 0
M  V30 27577 H 2569.85 -0.200456 -4.20923 0
M  V30 27578 H 2568.52 0.449819 -3.20559 0
M  V30 27579 H 2567.43 -1.86722 -3.24169 0
M  V30 27580 H 2568.76 -2.43961 -4.27486 0
M  V30 27581 N 2570.42 1.22976 -0.98563 0
M  V30 27582 C 2571.33 2.28334 -0.538588 0
M  V30 27583 C 2572.34 1.69122 0.409134 0
M  V30 27584 O 2573.52 1.99475 0.277762 0
M  V30 27585 C 2570.58 3.46389 0.146807 0
M  V30 27586 C 2569.64 4.20942 -0.84297 0
M  V30 27587 C 2568.88 5.33361 -0.190188 0
M  V30 27588 O 2569.1 5.6125 1.01757 0
M  V30 27589 O 2568.03 5.95263 -0.891393 0
M  V30 27590 H 2571.86 2.68726 -1.41492 0
M  V30 27591 H 2569.44 1.29006 -0.753517 0
M  V30 27592 H 2571.33 4.1804 0.531051 0
M  V30 27593 H 2570 3.07937 0.997817 0
M  V30 27594 H 2568.91 3.51593 -1.27801 0
M  V30 27595 H 2570.24 4.63257 -1.66295 0
M  V30 27596 N 2571.89 0.757924 1.38178 0
M  V30 27597 C 2573.17 0.24134 1.94105 0
M  V30 27598 C 2573.55 -1.26119 1.69285 0
M  V30 27599 O 2572.9 -2.03775 1.03382 0
M  V30 27600 C 2573.11 0.59973 3.43808 0
M  V30 27601 C 2574.46 0.561791 4.20867 0
M  V30 27602 O 2575.48 0.538284 3.52109 0
M  V30 27603 O 2574.34 0.576574 5.4345 0
M  V30 27604 H 2571.43 0.0518187 0.825375 0
M  V30 27605 H 2573.98 0.838341 1.47546 0
M  V30 27606 H 2572.75 1.63726 3.55401 0
M  V30 27607 H 2572.37 -0.0250498 3.97592 0
M  V30 27608 N 2573.37 -1.4921 0.507345 0
M  V30 27609 C 2574.61 -2.04373 -0.0332012 0
M  V30 27610 C 2574.98 -1.37806 -1.33692 0
M  V30 27611 O 2576.18 -1.83726 -1.9621 0
M  V30 27612 C 2574.45 -3.56967 -0.175927 0
M  V30 27613 S 2576.01 -4.33658 -0.669806 0
M  V30 27614 H 2572.83 -0.710999 0.00124853 0
M  V30 27615 H 2575.43 -1.8319 0.682757 0
M  V30 27616 H 2574.13 -4.02956 0.778124 0
M  V30 27617 H 2573.66 -3.82565 -0.916938 0
M  V30 27618 H 2575.68 -4.5679 -1.93798 0
M  V30 27619 N 2574.85 -0.241454 -1.55739 0
M  V30 27620 C 2576.08 0.392076 -2.0366 0
M  V30 27621 C 2576.5 1.51142 -1.11971 0
M  V30 27622 O 2575.86 1.80956 -0.111626 0
M  V30 27623 C 2575.91 0.882309 -3.49639 0
M  V30 27624 O 2575.01 1.99229 -3.61084 0
M  V30 27625 H 2574.35 0.0862006 -0.658381 0
M  V30 27626 H 2576.88 -0.365917 -2.01301 0
M  V30 27627 H 2576.89 1.18695 -3.90353 0
M  V30 27628 H 2575.57 0.063163 -4.15852 0
M  V30 27629 H 2574.14 1.69276 -3.32265 0
M  V30 27630 N 2576.33 1.57568 0.0317248 0
M  V30 27631 C 2577.26 2.09422 1.03271 0
M  V30 27632 C 2578.24 0.996168 1.37879 0
M  V30 27633 O 2579.42 1.27125 1.46809 0
M  V30 27634 C 2576.55 2.57141 2.33443 0
M  V30 27635 C 2575.51 3.71186 2.13085 0
M  V30 27636 C 2574.83 4.05102 3.48994 0
M  V30 27637 C 2576.13 4.99718 1.51919 0
M  V30 27638 H 2577.83 2.93304 0.601069 0
M  V30 27639 H 2575.37 1.41097 0.28768 0
M  V30 27640 H 2577.33 2.92037 3.03796 0
M  V30 27641 H 2576.05 1.70338 2.78662 0
M  V30 27642 H 2574.71 3.36634 1.45165 0
M  V30 27643 H 2574.36 3.15369 3.91857 0
M  V30 27644 H 2574.06 4.81917 3.36198 0
M  V30 27645 H 2575.58 4.4253 4.20714 0
M  V30 27646 H 2577 5.32588 2.12186 0
M  V30 27647 H 2575.39 5.81127 1.49706 0
M  V30 27648 H 2576.46 4.82471 0.484726 0
M  V30 27649 N 2577.81 -0.303946 1.54641 0
M  V30 27650 C 2578.77 -1.35786 1.84648 0
M  V30 27651 C 2579.77 -1.43819 0.719225 0
M  V30 27652 O 2580.96 -1.43505 0.987516 0
M  V30 27653 C 2578.09 -2.74303 2.02412 0
M  V30 27654 H 2579.28 -1.10424 2.78831 0
M  V30 27655 H 2576.84 -0.540462 1.46658 0
M  V30 27656 H 2577.57 -3.04891 1.10507 0
M  V30 27657 H 2577.36 -2.69863 2.84458 0
M  V30 27658 H 2578.85 -3.5051 2.27008 0
M  V30 27659 N 2579.28 -1.47047 -0.566994 0
M  V30 27660 C 2580.53 -1.52867 -1.32198 0
M  V30 27661 C 2580.85 -0.188422 -1.94088 0
M  V30 27662 O 2580.12 0.786661 -1.79411 0
M  V30 27663 H 2578.7 -0.563065 -0.490884 0
M  V30 27664 H 2581.37 -1.83282 -0.662847 0
M  V30 27665 H 2580.46 -2.28993 -2.12058 0
M  V30 27666 N 2580.76 0.812929 -1.35016 0
M  V30 27667 C 2582.17 1.38646 -1.25037 0
M  V30 27668 C 2582.52 1.95833 0.119933 0
M  V30 27669 O 2581.65 1.90818 1.02066 0
M  V30 27670 C 2582.24 2.5205 -2.26398 0
M  V30 27671 C 2580.8 3.05283 -2.2018 0
M  V30 27672 C 2579.95 1.78209 -2.12454 0
M  V30 27673 H 2582.9 0.61649 -1.46236 0
M  V30 27674 H 2582.92 3.30425 -1.88678 0
M  V30 27675 H 2582.43 2.10398 -3.2612 0
M  V30 27676 H 2580.54 3.51415 -1.23848 0
M  V30 27677 H 2580.65 3.63695 -3.1187 0
M  V30 27678 H 2579.01 1.99507 -1.58332 0
M  V30 27679 H 2579.8 1.38717 -3.14026 0
M  V30 27680 N 2582.24 1.18909 1.03433 0
M  V30 27681 C 2583.19 0.918391 2.13702 0
M  V30 27682 C 2584.18 -0.123738 1.68947 0
M  V30 27683 O 2585.39 0.0250018 1.79983 0
M  V30 27684 H 2581.76 0.279554 0.698107 0
M  V30 27685 H 2583.73 1.8551 2.33727 0
M  V30 27686 C 2582.48 0.467593 3.44542 0
M  V30 27687 H 2581.81 1.26102 3.79392 0
M  V30 27688 H 2583.25 0.317238 4.22812 0
M  V30 27689 C 2581.71 -0.817531 3.2683 0
M  V30 27690 O 2582.24 -1.88025 3.54978 0
M  V30 27691 N 2580.44 -0.772628 2.80141 0
M  V30 27692 H 2579.99 0.0924336 2.57434 0
M  V30 27693 H 2579.95 -1.63289 2.68671 0
M  V30 27694 N 2583.72 -1.22452 0.992137 0
M  V30 27695 C 2584.94 -1.95738 0.685679 0
M  V30 27696 C 2585.37 -1.72805 -0.74297 0
M  V30 27697 O 2584.73 -1.00679 -1.50776 0
M  V30 27698 C 2584.77 -3.46562 0.996354 0
M  V30 27699 O 2583.88 -4.12291 0.0946236 0
M  V30 27700 H 2583.22 -0.612371 0.256705 0
M  V30 27701 H 2585.75 -1.55567 1.32891 0
M  V30 27702 H 2585.76 -3.97074 0.93788 0
M  V30 27703 H 2584.43 -3.62579 2.03739 0
M  V30 27704 H 2583.01 -3.72317 0.208516 0
M  V30 27705 N 2585.2 -0.765242 -1.37774 0
M  V30 27706 C 2586.43 -0.337313 -2.03828 0
M  V30 27707 C 2586.83 1.04318 -1.57843 0
M  V30 27708 O 2586.18 1.67599 -0.752073 0
M  V30 27709 C 2586.24 -0.29447 -3.58292 0
M  V30 27710 C 2585.9 -1.61846 -4.27382 0
M  V30 27711 C 2586.9 -2.56975 -4.51951 0
M  V30 27712 C 2584.59 -1.8911 -4.65341 0
M  V30 27713 C 2586.58 -3.7758 -5.13529 0
M  V30 27714 C 2584.27 -3.09987 -5.26642 0
M  V30 27715 C 2585.26 -4.04041 -5.50672 0
M  V30 27716 O 2584.95 -5.22791 -6.10692 0
M  V30 27717 H 2584.68 -0.14026 -0.661289 0
M  V30 27718 H 2587.24 -1.03837 -1.7722 0
M  V30 27719 H 2585.47 0.462916 -3.83919 0
M  V30 27720 H 2587.16 0.10551 -4.05763 0
M  V30 27721 H 2587.92 -2.3719 -4.23043 0
M  V30 27722 H 2583.8 -1.16732 -4.45976 0
M  V30 27723 H 2587.35 -4.51006 -5.32202 0
M  V30 27724 H 2583.24 -3.29659 -5.54973 0
M  V30 27725 H 2584.01 -5.23528 -6.29174 0
M  V30 27726 N 2586.67 1.48939 -0.515251 0
M  V30 27727 C 2588.09 1.86565 -0.0710395 0
M  V30 27728 C 2588.44 1.42626 1.34731 0
M  V30 27729 O 2587.56 0.810414 2.00652 0
M  V30 27730 C 2588.16 3.3858 -0.122142 0
M  V30 27731 C 2586.72 3.75453 0.266797 0
M  V30 27732 C 2585.86 2.72965 -0.488424 0
M  V30 27733 H 2588.81 1.41054 -0.727291 0
M  V30 27734 H 2588.83 3.74559 0.669752 0
M  V30 27735 H 2588.35 3.70529 -1.15455 0
M  V30 27736 H 2586.45 3.49115 1.3019 0
M  V30 27737 H 2586.56 4.79059 -0.0625653 0
M  V30 27738 H 2584.92 2.54621 0.0635174 0
M  V30 27739 H 2585.71 3.07758 -1.52118 0
M  V30 27740 N 2588.15 0.249709 1.55609 0
M  V30 27741 C 2589.4 -0.373513 1.98618 0
M  V30 27742 C 2589.72 -1.58262 1.13922 0
M  V30 27743 O 2588.99 -1.9463 0.222671 0
M  V30 27744 H 2587.57 -0.140993 0.733573 0
M  V30 27745 H 2590.23 0.34915 1.91747 0
M  V30 27746 H 2589.33 -0.680743 3.04585 0
M  V30 27747 N 2589.63 -1.57583 -0.0233682 0
M  V30 27748 C 2590.86 -1.9419 -0.728341 0
M  V30 27749 C 2591.28 -0.850148 -1.67792 0
M  V30 27750 O 2590.64 0.193678 -1.80263 0
M  V30 27751 C 2590.69 -3.2987 -1.45663 0
M  V30 27752 O 2589.79 -3.22523 -2.57008 0
M  V30 27753 H 2589.13 -0.634573 -0.195482 0
M  V30 27754 H 2591.66 -2.04587 0.0228573 0
M  V30 27755 H 2591.67 -3.64893 -1.82529 0
M  V30 27756 H 2590.35 -4.08893 -0.760242 0
M  V30 27757 H 2588.92 -2.9914 -2.22643 0
M  V30 27758 N 2591.11 0.29574 -1.548 0
M  V30 27759 C 2592.34 1.04911 -1.78329 0
M  V30 27760 C 2592.75 1.80752 -0.545347 0
M  V30 27761 O 2592.11 1.75938 0.484982 0
M  V30 27762 C 2592.16 2.02556 -2.99422 0
M  V30 27763 O 2591.88 1.2979 -4.18433 0
M  V30 27764 C 2593.38 2.89889 -3.3538 0
M  V30 27765 H 2590.6 0.310908 -0.594624 0
M  V30 27766 H 2593.15 0.333418 -2.01764 0
M  V30 27767 H 2591.3 2.69619 -2.7818 0
M  V30 27768 H 2591.72 1.9541 -4.86739 0
M  V30 27769 H 2593.19 3.54243 -4.23339 0
M  V30 27770 H 2593.67 3.58467 -2.53768 0
M  V30 27771 H 2594.27 2.28348 -3.588 0
M  V30 27772 N 2592.59 1.47346 0.559187 0
M  V30 27773 C 2593.84 1.53565 1.31385 0
M  V30 27774 C 2594.16 0.198712 1.93985 0
M  V30 27775 O 2593.43 -0.777135 1.79826 0
M  V30 27776 H 2592.01 0.56566 0.487891 0
M  V30 27777 H 2594.67 1.83631 0.653117 0
M  V30 27778 H 2593.76 2.30115 2.1084 0
M  V30 27779 N 2594.07 -0.805758 1.35445 0
M  V30 27780 C 2595.03 -1.89922 1.28305 0
M  V30 27781 C 2596.03 -1.59622 0.194313 0
M  V30 27782 O 2597.22 -1.68339 0.448065 0
M  V30 27783 C 2594.35 -3.26358 0.985055 0
M  V30 27784 H 2595.54 -1.97673 2.25534 0
M  V30 27785 H 2593.1 -1.00171 1.19981 0
M  V30 27786 H 2593.83 -3.24296 0.01666 0
M  V30 27787 H 2593.62 -3.49737 1.77275 0
M  V30 27788 H 2595.11 -4.06399 0.960722 0
M  V30 27789 N 2595.54 -1.19456 -1.02801 0
M  V30 27790 C 2596.51 -0.934992 -2.09262 0
M  V30 27791 C 2597.51 0.0848733 -1.60576 0
M  V30 27792 O 2598.7 -0.149963 -1.73553 0
M  V30 27793 C 2595.83 -0.405369 -3.38481 0
M  V30 27794 H 2597.02 -1.8792 -2.33722 0
M  V30 27795 H 2594.57 -1.00834 -1.19425 0
M  V30 27796 H 2595.31 0.544843 -3.1969 0
M  V30 27797 H 2595.09 -1.14072 -3.7514 0
M  V30 27798 H 2596.58 -0.242879 -4.16893 0
M  V30 27799 N 2597.02 1.21924 -0.998617 0
M  V30 27800 C 2598.27 1.91106 -0.678701 0
M  V30 27801 C 2598.6 1.775 0.787879 0
M  V30 27802 O 2597.88 1.14753 1.57041 0
M  V30 27803 C 2598.16 3.43127 -1.09251 0
M  V30 27804 C 2598.01 3.65756 -2.61807 0
M  V30 27805 C 2599.33 4.35273 -0.650061 0
M  V30 27806 H 2596.45 0.694008 -0.248037 0
M  V30 27807 H 2599.09 1.43686 -1.24316 0
M  V30 27808 H 2597.24 3.83646 -0.612238 0
M  V30 27809 H 2598.91 3.34605 -3.17549 0
M  V30 27810 H 2597.16 3.0984 -3.03614 0
M  V30 27811 H 2597.83 4.72245 -2.85813 0
M  V30 27812 H 2600.3 4.02301 -1.06267 0
M  V30 27813 H 2599.18 5.403 -0.967838 0
M  V30 27814 H 2599.44 4.39813 0.449061 0
M  V30 27815 N 2598.5 0.772537 1.37367 0
M  V30 27816 C 2599.75 0.336551 1.99278 0
M  V30 27817 C 2600.07 -1.09088 1.61632 0
M  V30 27818 O 2599.34 -1.74915 0.88214 0
M  V30 27819 H 2597.92 0.121448 0.737061 0
M  V30 27820 H 2600.58 0.990839 1.67834 0
M  V30 27821 H 2599.68 0.414818 3.09331 0
M  V30 27822 N 2599.98 -1.48664 0.523142 0
M  V30 27823 C 2600.94 -2.28017 -0.232552 0
M  V30 27824 C 2601.94 -1.34974 -0.873997 0
M  V30 27825 O 2603.13 -1.5793 -0.735104 0
M  V30 27826 C 2600.26 -3.13638 -1.3358 0
M  V30 27827 H 2601.46 -2.96288 0.46406 0
M  V30 27828 H 2599.01 -1.53793 0.278843 0
M  V30 27829 H 2599.74 -2.49983 -2.06588 0
M  V30 27830 H 2599.53 -3.82073 -0.881057 0
M  V30 27831 H 2601.02 -3.73515 -1.86753 0
M  V30 27832 N 2601.46 -0.257958 -1.55475 0
M  V30 27833 C 2602.41 0.651056 -2.18507 0
M  V30 27834 C 2603.39 1.1311 -1.14433 0
M  V30 27835 O 2604.58 1.07903 -1.40307 0
M  V30 27836 C 2601.71 1.84266 -2.89656 0
M  V30 27837 C 2600.8 1.38061 -4.00999 0
M  V30 27838 N 2601.19 0.633521 -5.01817 0
M  V30 27839 C 2599.49 1.66499 -4.13756 0
M  V30 27840 C 2600.19 0.39282 -5.80372 0
M  V30 27841 N 2599.16 0.960265 -5.35051 0
M  V30 27842 H 2602.96 0.0722366 -2.93811 0
M  V30 27843 H 2600.48 -0.0607541 -1.62286 0
M  V30 27844 H 2602.48 2.505 -3.3325 0
M  V30 27845 H 2601.14 2.4256 -2.15858 0
M  V30 27846 H 2602.15 0.282535 -5.17129 0
M  V30 27847 H 2598.82 2.25852 -3.51137 0
M  V30 27848 H 2600.21 -0.204353 -6.71589 0
M  V30 27849 N 2602.93 1.57593 0.0150108 0
M  V30 27850 C 2604.21 1.81096 0.739168 0
M  V30 27851 C 2604.59 0.859378 1.92816 0
M  V30 27852 O 2603.94 -0.0953219 2.28301 0
M  V30 27853 C 2604.15 3.29193 1.15901 0
M  V30 27854 C 2605.5 3.94543 1.56911 0
M  V30 27855 O 2606.52 3.33426 1.25322 0
M  V30 27856 O 2605.38 5.02176 2.15595 0
M  V30 27857 H 2602.47 0.7452 0.358618 0
M  V30 27858 H 2605.02 1.69697 -0.00929139 0
M  V30 27859 H 2603.79 3.90063 0.310853 0
M  V30 27860 H 2603.42 3.45533 1.96705 0
M  V30 27861 N 2604.41 -0.287527 1.54955 0
M  V30 27862 C 2605.38 -1.33819 1.86078 0
M  V30 27863 C 2606.38 -1.43048 0.734439 0
M  V30 27864 O 2607.57 -1.4245 1.00268 0
M  V30 27865 C 2604.7 -2.72141 2.0531 0
M  V30 27866 H 2605.89 -1.0746 2.79986 0
M  V30 27867 H 2603.44 -0.524876 1.47223 0
M  V30 27868 H 2604.18 -3.03702 1.13735 0
M  V30 27869 H 2603.96 -2.66831 2.87304 0
M  V30 27870 H 2605.45 -3.48083 2.30713 0
M  V30 27871 N 2605.89 -1.47641 -0.551365 0
M  V30 27872 C 2607.13 -1.56148 -1.31899 0
M  V30 27873 C 2607.49 -0.221046 -1.90723 0
M  V30 27874 O 2608.7 -0.180992 -2.6819 0
M  V30 27875 C 2606.97 -2.65271 -2.39512 0
M  V30 27876 S 2608.53 -2.93401 -3.26284 0
M  V30 27877 H 2605.34 -0.551326 -0.448956 0
M  V30 27878 H 2607.95 -1.85052 -0.630567 0
M  V30 27879 H 2606.65 -3.61254 -1.94741 0
M  V30 27880 H 2606.18 -2.38201 -3.13088 0
M  V30 27881 H 2608.2 -2.31062 -4.39118 0
M  V30 27882 N 2607.37 0.798563 -1.3587 0
M  V30 27883 C 2608.78 1.0953 -1.16084 0
M  V30 27884 C 2608.98 2.01489 0.021277 0
M  V30 27885 O 2608.04 2.42905 0.689445 0
M  V30 27886 C 2609.35 1.71856 -2.46751 0
M  V30 27887 C 2610.9 1.84239 -2.53031 0
M  V30 27888 C 2611.38 2.49981 -3.83762 0
M  V30 27889 N 2612.87 2.57458 -3.85058 0
M  V30 27890 C 2613.6 3.09114 -4.82945 0
M  V30 27891 N 2613.1 3.61146 -5.91224 0
M  V30 27892 N 2614.89 3.07741 -4.70374 0
M  V30 27893 H 2607.04 0.187424 -2.11571 0
M  V30 27894 H 2609.31 0.145749 -0.936729 0
M  V30 27895 H 2609.01 1.11753 -3.33473 0
M  V30 27896 H 2608.89 2.71467 -2.61888 0
M  V30 27897 H 2611.27 2.43483 -1.66733 0
M  V30 27898 H 2611.35 0.834601 -2.41802 0
M  V30 27899 H 2611 1.91385 -4.70462 0
M  V30 27900 H 2610.93 3.51313 -3.92284 0
M  V30 27901 H 2613.42 2.20604 -3.06826 0
M  V30 27902 H 2613.73 3.98885 -6.61899 0
M  V30 27903 H 2612.08 3.59323 -5.94905 0
M  V30 27904 H 2615.27 2.66375 -3.84918 0
M  V30 27905 H 2615.44 3.47691 -5.46823 0
M  V30 27906 N 2608.85 1.19999 1.02166 0
M  V30 27907 C 2610.12 0.916221 1.72814 0
M  V30 27908 C 2610.5 -0.576289 2.03082 0
M  V30 27909 O 2609.85 -1.53653 1.69124 0
M  V30 27910 C 2610.06 1.78384 2.99967 0
M  V30 27911 C 2611.41 2.02257 3.73332 0
M  V30 27912 O 2612.43 1.75595 3.09911 0
M  V30 27913 O 2611.29 2.47257 4.87367 0
M  V30 27914 H 2608.39 0.342117 0.752918 0
M  V30 27915 H 2610.93 1.30848 1.0806 0
M  V30 27916 H 2609.7 2.79471 2.73883 0
M  V30 27917 H 2609.33 1.39132 3.72462 0
M  V30 27918 N 2610.32 -1.21392 1.00507 0
M  V30 27919 C 2611.29 -2.21986 0.570498 0
M  V30 27920 C 2612.29 -1.56873 -0.353183 0
M  V30 27921 O 2613.48 -1.73608 -0.14346 0
M  V30 27922 C 2610.61 -3.40483 -0.168496 0
M  V30 27923 H 2611.8 -2.61948 1.46026 0
M  V30 27924 H 2609.36 -1.34655 0.793589 0
M  V30 27925 H 2610.09 -3.0601 -1.07369 0
M  V30 27926 H 2609.88 -3.88964 0.494892 0
M  V30 27927 H 2611.37 -4.15056 -0.460289 0
M  V30 27928 N 2611.8 -0.779811 -1.36955 0
M  V30 27929 C 2612.75 -0.169737 -2.30175 0
M  V30 27930 C 2613.72 0.680914 -1.51502 0
M  V30 27931 O 2614.9 0.631597 -1.80043 0
M  V30 27932 C 2612.04 0.697071 -3.37987 0
M  V30 27933 C 2611.16 -0.171068 -4.31661 0
M  V30 27934 C 2610.29 0.701206 -5.26552 0
M  V30 27935 C 2609.33 -0.168976 -6.11867 0
M  V30 27936 N 2608.47 0.661732 -6.98975 0
M  V30 27937 H 2613.31 -0.970184 -2.81765 0
M  V30 27938 H 2610.85 -0.490018 -1.38698 0
M  V30 27939 H 2612.8 1.21453 -3.9913 0
M  V30 27940 H 2611.43 1.46304 -2.87741 0
M  V30 27941 H 2610.49 -0.806405 -3.71754 0
M  V30 27942 H 2611.8 -0.841962 -4.91643 0
M  V30 27943 H 2610.95 1.28484 -5.92939 0
M  V30 27944 H 2609.69 1.40576 -4.67001 0
M  V30 27945 H 2608.7 -0.765082 -5.44451 0
M  V30 27946 H 2609.92 -0.870981 -6.73491 0
M  V30 27947 H 2607.87 1.35075 -6.41943 0
M  V30 27948 H 2607.78 0.0483119 -7.55985 0
M  V30 27949 H 2609.05 1.2295 -7.69743 0
M  V30 27950 N 2613.28 1.48384 -0.531019 0
M  V30 27951 C 2614.19 2.3342 0.234989 0
M  V30 27952 C 2615.21 1.46553 0.937984 0
M  V30 27953 O 2616.38 1.79531 0.912713 0
M  V30 27954 C 2613.45 3.22691 1.26772 0
M  V30 27955 C 2612.51 4.25432 0.574964 0
M  V30 27956 C 2611.74 5.10438 1.55849 0
M  V30 27957 O 2611.96 4.97442 2.7912 0
M  V30 27958 O 2610.9 5.91813 1.09732 0
M  V30 27959 H 2614.72 3.00168 -0.461847 0
M  V30 27960 H 2612.31 1.4652 -0.291928 0
M  V30 27961 H 2614.19 3.77908 1.8645 0
M  V30 27962 H 2612.87 2.58604 1.94694 0
M  V30 27963 H 2611.77 3.74048 -0.062344 0
M  V30 27964 H 2613.11 4.92161 -0.0623395 0
M  V30 27965 N 2614.76 0.2662 1.55336 0
M  V30 27966 C 2615.71 -0.625126 2.22173 0
M  V30 27967 C 2616.68 -1.15661 1.19213 0
M  V30 27968 O 2617.86 -1.20755 1.47726 0
M  V30 27969 C 2615 -1.80755 2.93975 0
M  V30 27970 C 2614.11 -1.31077 4.11634 0
M  V30 27971 C 2613.25 -2.45428 4.71104 0
M  V30 27972 C 2612.29 -1.92708 5.80973 0
M  V30 27973 N 2611.42 -3.00498 6.34543 0
M  V30 27974 H 2616.26 -0.0485058 2.97961 0
M  V30 27975 H 2613.8 -0.0121766 1.47095 0
M  V30 27976 H 2615.76 -2.50245 3.33816 0
M  V30 27977 H 2614.39 -2.35634 2.20627 0
M  V30 27978 H 2613.44 -0.509259 3.76976 0
M  V30 27979 H 2614.75 -0.884547 4.90894 0
M  V30 27980 H 2613.91 -3.22927 5.13617 0
M  V30 27981 H 2612.65 -2.91361 3.91101 0
M  V30 27982 H 2611.65 -1.13685 5.37918 0
M  V30 27983 H 2612.88 -1.47721 6.62839 0
M  V30 27984 H 2610.82 -3.4583 5.57439 0
M  V30 27985 H 2610.74 -2.62266 7.0905 0
M  V30 27986 H 2612.01 -3.77999 6.81716 0
M  V30 27987 N 2616.24 -1.57599 -0.0066531 0
M  V30 27988 C 2617.65 -1.55425 -0.362642 0
M  V30 27989 C 2617.85 -0.995218 -1.75207 0
M  V30 27990 O 2616.91 -0.626101 -2.44614 0
M  V30 27991 C 2618.22 -2.99709 -0.243965 0
M  V30 27992 C 2619.77 -3.11366 -0.319396 0
M  V30 27993 C 2620.24 -4.57423 -0.229918 0
M  V30 27994 N 2621.74 -4.62304 -0.288024 0
M  V30 27995 C 2622.47 -5.72889 -0.242026 0
M  V30 27996 N 2621.97 -6.92644 -0.147012 0
M  V30 27997 N 2623.76 -5.61334 -0.293404 0
M  V30 27998 H 2615.91 -1.9228 0.902347 0
M  V30 27999 H 2618.17 -0.88289 0.345266 0
M  V30 28000 H 2617.88 -3.44423 0.711739 0
M  V30 28001 H 2617.75 -3.62901 -1.02871 0
M  V30 28002 H 2620.14 -2.66586 -1.26554 0
M  V30 28003 H 2620.22 -2.50963 0.495099 0
M  V30 28004 H 2619.87 -5.02875 0.712654 0
M  V30 28005 H 2619.8 -5.15763 -1.06281 0
M  V30 28006 H 2622.29 -3.76152 -0.36306 0
M  V30 28007 H 2622.6 -7.7271 -0.117627 0
M  V30 28008 H 2620.94 -6.94909 -0.112735 0
M  V30 28009 H 2624.14 -4.66669 -0.365782 0
M  V30 28010 H 2624.31 -6.47502 -0.25409 0
M  V30 28011 N 2617.72 0.279305 -1.55105 0
M  V30 28012 C 2618.94 1.03442 -1.79762 0
M  V30 28013 C 2619.37 1.79383 -0.565984 0
M  V30 28014 O 2618.72 1.74714 0.484229 0
M  V30 28015 C 2618.77 1.97366 -3.01793 0
M  V30 28016 O 2617.88 3.06033 -2.76437 0
M  V30 28017 H 2617.22 0.296069 -0.594339 0
M  V30 28018 H 2619.75 0.31013 -2.02236 0
M  V30 28019 H 2619.76 2.39436 -3.30355 0
M  V30 28020 H 2618.43 1.41503 -3.91088 0
M  V30 28021 H 2617.01 2.68323 -2.58954 0
M  V30 28022 N 2619.19 1.47931 0.543528 0
M  V30 28023 C 2620.14 1.61443 1.64939 0
M  V30 28024 C 2621.11 0.456931 1.59691 0
M  V30 28025 O 2622.3 0.678719 1.7832 0
M  V30 28026 C 2619.44 1.64749 3.03236 0
M  V30 28027 C 2618.55 2.91512 3.18818 0
M  V30 28028 C 2617.68 2.86065 4.47594 0
M  V30 28029 C 2616.72 4.07592 4.56657 0
M  V30 28030 N 2615.86 4.00302 5.76804 0
M  V30 28031 H 2620.7 2.55886 1.52729 0
M  V30 28032 H 2618.24 1.26911 0.743778 0
M  V30 28033 H 2620.19 1.64648 3.83336 0
M  V30 28034 H 2618.82 0.738072 3.14249 0
M  V30 28035 H 2617.88 3.01418 2.32059 0
M  V30 28036 H 2619.19 3.81468 3.21377 0
M  V30 28037 H 2618.34 2.8429 5.3597 0
M  V30 28038 H 2617.08 1.93815 4.47535 0
M  V30 28039 H 2616.09 4.09657 3.6669 0
M  V30 28040 H 2617.31 5.00986 4.58465 0
M  V30 28041 H 2615.26 3.10863 5.77668 0
M  V30 28042 H 2615.17 4.8395 5.808 0
M  V30 28043 H 2616.44 4.02564 6.67504 0
M  V30 28044 N 2620.67 -0.791347 1.36292 0
M  V30 28045 C 2621.9 -1.58529 1.33729 0
M  V30 28046 C 2622.32 -1.87932 -0.0794603 0
M  V30 28047 O 2621.68 -1.4774 -1.05084 0
M  V30 28048 C 2621.73 -2.88427 2.1643 0
M  V30 28049 O 2620.83 -3.81941 1.55547 0
M  V30 28050 H 2620.17 -0.480951 0.457802 0
M  V30 28051 H 2622.7 -0.980999 1.79548 0
M  V30 28052 H 2622.71 -3.37714 2.28939 0
M  V30 28053 H 2621.39 -2.66353 3.1942 0
M  V30 28054 H 2619.96 -3.4053 1.51967 0
M  V30 28055 N 2622.15 -1.2054 -1.01528 0
M  V30 28056 C 2623.08 -0.913192 -2.10222 0
M  V30 28057 C 2624.09 0.0995712 -1.62495 0
M  V30 28058 O 2625.28 -0.131614 -1.78014 0
M  V30 28059 C 2622.38 -0.347776 -3.37111 0
M  V30 28060 C 2621.56 -1.4124 -4.13969 0
M  V30 28061 C 2620.62 -0.858067 -5.19157 0
M  V30 28062 O 2619.64 -1.53907 -5.47997 0
M  V30 28063 N 2620.84 0.331864 -5.79551 0
M  V30 28064 H 2623.61 -1.84885 -2.35876 0
M  V30 28065 H 2621.17 -1.10925 -1.17929 0
M  V30 28066 H 2623.16 0.0372314 -4.04683 0
M  V30 28067 H 2621.73 0.492473 -3.08696 0
M  V30 28068 H 2620.95 -1.97169 -3.41348 0
M  V30 28069 H 2622.24 -2.12936 -4.62099 0
M  V30 28070 H 2621.64 0.902379 -5.58456 0
M  V30 28071 H 2620.19 0.658496 -6.48465 0
M  V30 28072 N 2623.63 1.20858 -1.01149 0
M  V30 28073 C 2624.9 1.85741 -0.613169 0
M  V30 28074 C 2625.28 1.90528 0.90897 0
M  V30 28075 O 2624.63 1.40936 1.79859 0
M  V30 28076 C 2624.84 3.25652 -1.25506 0
M  V30 28077 C 2626.19 4.01984 -1.36727 0
M  V30 28078 O 2627.21 3.34987 -1.21088 0
M  V30 28079 O 2626.07 5.21953 -1.61949 0
M  V30 28080 H 2623.17 0.799658 -0.210892 0
M  V30 28081 H 2625.71 1.28488 -1.10855 0
M  V30 28082 H 2624.49 3.16904 -2.29537 0
M  V30 28083 H 2624.11 3.9053 -0.746438 0
M  V30 28084 N 2625.11 0.787064 1.3654 0
M  V30 28085 C 2626.07 0.189818 2.28413 0
M  V30 28086 C 2627.07 -0.611473 1.4872 0
M  V30 28087 O 2628.26 -0.432813 1.68738 0
M  V30 28088 C 2625.39 -0.73758 3.32825 0
M  V30 28089 H 2626.58 0.999881 2.82741 0
M  V30 28090 H 2624.14 0.556324 1.46064 0
M  V30 28091 H 2624.87 -1.57207 2.83648 0
M  V30 28092 H 2624.66 -0.164975 3.91753 0
M  V30 28093 H 2626.15 -1.1504 4.01442 0
M  V30 28094 N 2626.58 -1.48101 0.53888 0
M  V30 28095 C 2627.86 -1.95518 -0.0567765 0
M  V30 28096 C 2628.24 -1.48127 -1.50405 0
M  V30 28097 O 2627.59 -0.711765 -2.17132 0
M  V30 28098 C 2627.8 -3.4893 0.0696875 0
M  V30 28099 C 2629.15 -4.24515 -0.0850455 0
M  V30 28100 O 2630.17 -3.562 -0.00367209 0
M  V30 28101 O 2629.03 -5.45896 -0.256929 0
M  V30 28102 H 2626.12 -0.823651 -0.074355 0
M  V30 28103 H 2628.67 -1.58583 0.604108 0
M  V30 28104 H 2627.44 -3.76172 1.0775 0
M  V30 28105 H 2627.06 -3.92583 -0.629645 0
M  V30 28106 N 2628.06 -0.274434 -1.55192 0
M  V30 28107 C 2629.29 0.348788 -2.04446 0
M  V30 28108 C 2629.71 1.48733 -1.15152 0
M  V30 28109 O 2629.07 1.80679 -0.149984 0
M  V30 28110 C 2629.12 0.807947 -3.51432 0
M  V30 28111 O 2628.22 1.91525 -3.65229 0
M  V30 28112 H 2627.56 0.072216 -0.660061 0
M  V30 28113 H 2630.09 -0.408533 -2.0048 0
M  V30 28114 H 2630.1 1.10388 -3.92783 0
M  V30 28115 H 2628.78 -0.0250596 -4.15892 0
M  V30 28116 H 2627.35 1.6219 -3.35781 0
M  V30 28117 N 2629.54 1.576 -0.00170483 0
M  V30 28118 C 2630.95 1.78694 0.540879 0
M  V30 28119 C 2631.3 0.909278 1.73858 0
M  V30 28120 O 2630.43 0.112214 2.16109 0
M  V30 28121 C 2631.02 3.24074 0.988003 0
M  V30 28122 C 2629.58 3.46258 1.47588 0
M  V30 28123 C 2628.73 2.73979 0.427872 0
M  V30 28124 H 2631.68 1.57056 -0.227867 0
M  V30 28125 H 2631.7 3.3228 1.85392 0
M  V30 28126 H 2631.21 3.87926 0.116095 0
M  V30 28127 H 2629.31 2.87623 2.36863 0
M  V30 28128 H 2629.43 4.54941 1.50217 0
M  V30 28129 H 2627.79 2.38648 0.889892 0
M  V30 28130 H 2628.57 3.40532 -0.435098 0
M  V30 28131 N 2631.02 -0.271076 1.55251 0
M  V30 28132 C 2632.27 -1.00044 1.75601 0
M  V30 28133 C 2632.59 -1.86749 0.56122 0
M  V30 28134 O 2631.86 -1.91261 -0.423813 0
M  V30 28135 H 2630.44 -0.372376 0.647569 0
M  V30 28136 H 2633.1 -0.294843 1.92657 0
M  V30 28137 H 2632.19 -1.63626 2.65769 0
M  V30 28138 N 2632.5 -1.48217 -0.535675 0
M  V30 28139 C 2633.72 -1.5985 -1.32147 0
M  V30 28140 C 2634.15 -0.256874 -1.86338 0
M  V30 28141 O 2633.5 0.770603 -1.64108 0
M  V30 28142 C 2633.55 -2.64386 -2.45219 0
M  V30 28143 O 2632.66 -2.2115 -3.48089 0
M  V30 28144 H 2632 -0.536215 -0.391624 0
M  V30 28145 H 2634.53 -1.94162 -0.645168 0
M  V30 28146 H 2634.54 -2.85481 -2.91486 0
M  V30 28147 H 2633.21 -3.6179 -2.05137 0
M  V30 28148 H 2631.79 -2.10244 -3.0798 0
M  V30 28149 N 2633.97 0.784108 -1.3671 0
M  V30 28150 C 2635.2 1.57817 -1.34568 0
M  V30 28151 C 2635.62 1.87972 0.0694927 0
M  V30 28152 O 2634.98 1.48295 1.04299 0
M  V30 28153 C 2635.03 2.87276 -2.17957 0
M  V30 28154 O 2634.13 3.81111 -1.5757 0
M  V30 28155 H 2633.48 0.478516 -0.460346 0
M  V30 28156 H 2636.01 0.971463 -1.80066 0
M  V30 28157 H 2636.02 3.36496 -2.30727 0
M  V30 28158 H 2634.69 2.64655 -3.20828 0
M  V30 28159 H 2633.27 3.39719 -1.5377 0
M  V30 28160 N 2635.45 1.21076 1.00888 0
M  V30 28161 C 2636.7 1.02361 1.7426 0
M  V30 28162 C 2637.02 -0.44436 1.8987 0
M  V30 28163 O 2636.29 -1.32078 1.4468 0
M  V30 28164 H 2634.87 0.375765 0.645608 0
M  V30 28165 H 2637.53 1.52319 1.21594 0
M  V30 28166 H 2636.63 1.48835 2.74326 0
M  V30 28167 N 2636.93 -1.2032 1.01789 0
M  V30 28168 C 2637.89 -2.21369 0.594011 0
M  V30 28169 C 2638.89 -1.57239 -0.336525 0
M  V30 28170 O 2640.08 -1.73751 -0.125038 0
M  V30 28171 C 2637.22 -3.40643 -0.132373 0
M  V30 28172 H 2638.41 -2.60384 1.48796 0
M  V30 28173 H 2635.96 -1.33805 0.807826 0
M  V30 28174 H 2636.7 -3.07132 -1.04117 0
M  V30 28175 H 2636.48 -3.88418 0.536119 0
M  V30 28176 H 2637.97 -4.1552 -0.416241 0
M  V30 28177 N 2638.41 -0.794293 -1.3612 0
M  V30 28178 C 2639.82 -0.431478 -1.81646 0
M  V30 28179 C 2640.17 1.04515 -1.66045 0
M  V30 28180 O 2639.3 1.81128 -1.18414 0
M  V30 28181 C 2639.89 -0.776399 -3.29784 0
M  V30 28182 C 2638.45 -0.466348 -3.735 0
M  V30 28183 C 2637.6 -1.00849 -2.58312 0
M  V30 28184 H 2640.55 -0.987017 -1.24273 0
M  V30 28185 H 2640.57 -0.0693082 -3.80437 0
M  V30 28186 H 2640.08 -1.85116 -3.41106 0
M  V30 28187 H 2638.18 0.600181 -3.67734 0
M  V30 28188 H 2638.29 -0.990371 -4.68752 0
M  V30 28189 H 2636.66 -0.43145 -2.51019 0
M  V30 28190 H 2637.44 -2.08911 -2.72417 0
M  V30 28191 N 2639.89 1.47813 -0.546727 0
M  V30 28192 C 2640.8 2.33656 0.210219 0
M  V30 28193 C 2641.81 1.4754 0.922387 0
M  V30 28194 O 2642.99 1.80489 0.89362 0
M  V30 28195 C 2640.05 3.24018 1.23342 0
M  V30 28196 C 2639.11 4.26018 0.529809 0
M  V30 28197 C 2638.35 5.12062 1.50426 0
M  V30 28198 O 2638.57 5.00374 2.73828 0
M  V30 28199 O 2637.5 5.92944 1.03449 0
M  V30 28200 H 2641.33 2.99661 -0.493658 0
M  V30 28201 H 2638.92 1.46202 -0.307452 0
M  V30 28202 H 2640.8 3.79864 1.82432 0
M  V30 28203 H 2639.47 2.60654 1.91941 0
M  V30 28204 H 2638.38 3.73961 -0.102013 0
M  V30 28205 H 2639.71 4.92067 -0.114536 0
M  V30 28206 N 2641.36 0.28266 1.55044 0
M  V30 28207 C 2642.31 -0.617438 2.24255 0
M  V30 28208 C 2643.31 -1.15181 1.24217 0
M  V30 28209 O 2644.51 -1.10456 1.42124 0
M  V30 28210 H 2640.89 -0.21768 0.719805 0
M  V30 28211 H 2642.86 -0.0109552 2.98398 0
M  V30 28212 C 2641.61 -1.78667 2.98284 0
M  V30 28213 H 2640.93 -1.38468 3.75055 0
M  V30 28214 H 2642.37 -2.39293 3.50021 0
M  V30 28215 C 2640.83 -2.67971 2.04189 0
M  V30 28216 O 2641.36 -3.68547 1.59799 0
M  V30 28217 N 2639.57 -2.35304 1.7053 0
M  V30 28218 H 2639.11 -1.53563 2.06824 0
M  V30 28219 H 2639.07 -2.95325 1.07844 0
M  V30 28220 N 2642.84 -1.57597 0.0100627 0
M  V30 28221 C 2643.77 -2.12086 -0.97682 0
M  V30 28222 C 2644.75 -1.03237 -1.35189 0
M  V30 28223 O 2645.94 -1.30973 -1.43387 0
M  V30 28224 C 2643.07 -2.6324 -2.26544 0
M  V30 28225 C 2642.02 -3.76705 -2.03169 0
M  V30 28226 C 2641.35 -4.14212 -3.38131 0
M  V30 28227 C 2642.65 -5.0357 -1.38617 0
M  V30 28228 H 2644.34 -2.94795 -0.523093 0
M  V30 28229 H 2641.89 -1.4181 -0.25017 0
M  V30 28230 H 2643.84 -2.99989 -2.95947 0
M  V30 28231 H 2642.57 -1.77666 -2.74048 0
M  V30 28232 H 2641.22 -3.40365 -1.36189 0
M  V30 28233 H 2640.87 -3.25647 -3.83357 0
M  V30 28234 H 2640.57 -4.90662 -3.23303 0
M  V30 28235 H 2642.1 -4.53529 -4.08833 0
M  V30 28236 H 2643.51 -5.38026 -1.97991 0
M  V30 28237 H 2641.91 -5.84891 -1.34246 0
M  V30 28238 H 2642.98 -4.83587 -0.356637 0
M  V30 28239 N 2644.32 0.262839 -1.55393 0
M  V30 28240 C 2645.55 1.01105 -1.80514 0
M  V30 28241 C 2645.96 1.79555 -0.583565 0
M  V30 28242 O 2645.32 1.76927 0.447554 0
M  V30 28243 C 2645.37 1.96159 -3.03651 0
M  V30 28244 O 2645.09 1.20886 -4.21092 0
M  V30 28245 C 2646.59 2.82709 -3.41453 0
M  V30 28246 H 2643.81 0.298225 -0.601085 0
M  V30 28247 H 2646.36 0.290546 -2.02425 0
M  V30 28248 H 2644.51 2.63658 -2.83837 0
M  V30 28249 H 2644.93 1.85042 -4.90775 0
M  V30 28250 H 2646.4 3.45184 -4.30757 0
M  V30 28251 H 2646.88 3.53004 -2.61314 0
M  V30 28252 H 2647.48 2.20686 -3.63562 0
M  V30 28253 N 2645.8 1.48499 0.527807 0
M  V30 28254 C 2647.05 1.56627 1.28352 0
M  V30 28255 C 2647.37 0.24113 1.93 0
M  V30 28256 O 2646.63 -0.768767 1.79968 0
M  V30 28257 C 2646.93 2.65489 2.39271 0
M  V30 28258 C 2646.59 4.07856 1.92261 0
M  V30 28259 C 2645.26 4.46605 1.79158 0
M  V30 28260 C 2647.61 4.97066 1.56763 0
M  V30 28261 C 2644.94 5.72366 1.28895 0
M  V30 28262 C 2647.29 6.23319 1.07961 0
M  V30 28263 C 2645.95 6.60922 0.93477 0
M  V30 28264 H 2645.22 0.57314 0.469672 0
M  V30 28265 H 2647.87 1.82225 0.588749 0
M  V30 28266 H 2646.17 2.33759 3.14426 0
M  V30 28267 H 2647.87 2.68993 2.97395 0
M  V30 28268 H 2644.46 3.77256 2.03411 0
M  V30 28269 H 2648.64 4.67806 1.65745 0
M  V30 28270 H 2643.9 6.00223 1.1637 0
M  V30 28271 H 2648.07 6.9184 0.795653 0
M  V30 28272 H 2645.7 7.58258 0.543098 0
M  V30 28273 N 2647.28 -0.776847 1.37123 0
M  V30 28274 C 2648.22 -1.88996 1.32473 0
M  V30 28275 C 2649.19 -1.64996 0.191172 0
M  V30 28276 O 2650.38 -1.86983 0.379716 0
M  V30 28277 C 2647.52 -3.2599 1.13246 0
M  V30 28278 C 2646.63 -3.61978 2.35788 0
M  V30 28279 C 2645.77 -4.88154 2.09474 0
M  V30 28280 C 2644.81 -5.16858 3.27909 0
M  V30 28281 N 2643.94 -6.34221 3.01179 0
M  V30 28282 H 2648.78 -1.92306 2.27645 0
M  V30 28283 H 2646.32 -0.94025 1.13127 0
M  V30 28284 H 2648.28 -4.05008 1.00122 0
M  V30 28285 H 2646.91 -3.22068 0.217243 0
M  V30 28286 H 2645.96 -2.77984 2.59671 0
M  V30 28287 H 2647.27 -3.79131 3.24131 0
M  V30 28288 H 2646.43 -5.75065 1.93351 0
M  V30 28289 H 2645.17 -4.73095 1.1846 0
M  V30 28290 H 2644.17 -4.28424 3.44576 0
M  V30 28291 H 2645.4 -5.33829 4.19766 0
M  V30 28292 H 2643.34 -6.20529 2.1279 0
M  V30 28293 H 2643.26 -6.51765 3.83064 0
M  V30 28294 H 2644.53 -7.24082 2.88662 0
M  V30 28295 N 2648.76 -1.2161 -1.00244 0
M  V30 28296 C 2649.67 -0.993746 -2.12513 0
M  V30 28297 C 2650.68 0.0549633 -1.73913 0
M  V30 28298 O 2651.86 -0.135654 -2.00943 0
M  V30 28299 C 2648.92 -0.564013 -3.42082 0
M  V30 28300 C 2647.98 -1.68523 -3.9484 0
M  V30 28301 C 2647.22 -1.27591 -5.18224 0
M  V30 28302 O 2647.44 -0.150606 -5.70201 0
M  V30 28303 O 2646.37 -2.0888 -5.64493 0
M  V30 28304 H 2650.2 -1.93412 -2.34149 0
M  V30 28305 H 2647.78 -1.0012 -1.10889 0
M  V30 28306 H 2649.67 -0.334268 -4.20072 0
M  V30 28307 H 2648.34 0.347608 -3.21828 0
M  V30 28308 H 2647.25 -1.96941 -3.18065 0
M  V30 28309 H 2648.58 -2.57437 -4.19508 0
M  V30 28310 N 2650.23 1.19778 -1.02425 0
M  V30 28311 C 2651.65 1.41382 -0.740484 0
M  V30 28312 C 2651.85 1.89794 0.676794 0
M  V30 28313 O 2650.91 2.07173 1.44346 0
M  V30 28314 C 2652.22 2.42892 -1.77268 0
M  V30 28315 C 2653.77 2.56646 -1.7917 0
M  V30 28316 C 2654.24 3.61405 -2.81337 0
M  V30 28317 N 2655.73 3.68897 -2.80124 0
M  V30 28318 C 2656.47 4.49634 -3.55832 0
M  V30 28319 N 2655.96 5.34115 -4.4124 0
M  V30 28320 N 2657.76 4.4424 -3.44394 0
M  V30 28321 H 2649.91 0.86673 -1.93911 0
M  V30 28322 H 2652.17 0.443083 -0.838082 0
M  V30 28323 H 2651.88 2.14334 -2.78844 0
M  V30 28324 H 2651.75 3.41998 -1.59114 0
M  V30 28325 H 2654.14 2.84529 -0.782752 0
M  V30 28326 H 2654.22 1.57709 -2.01398 0
M  V30 28327 H 2653.86 3.34265 -3.824 0
M  V30 28328 H 2653.79 4.59982 -2.56367 0
M  V30 28329 H 2656.28 3.08558 -2.18176 0
M  V30 28330 H 2656.6 5.92827 -4.95758 0
M  V30 28331 H 2654.94 5.33591 -4.45315 0
M  V30 28332 H 2658.13 3.7728 -2.77087 0
M  V30 28333 H 2658.31 5.06924 -4.03649 0
M  V30 28334 N 2651.71 0.801501 1.35697 0
M  V30 28335 C 2652.64 0.166069 2.28598 0
M  V30 28336 C 2653.66 -0.631694 1.50045 0
M  V30 28337 O 2654.85 -0.46489 1.7234 0
M  V30 28338 C 2651.95 -0.787393 3.29626 0
M  V30 28339 C 2651.12 -0.0370941 4.37384 0
M  V30 28340 C 2650.18 -0.908284 5.18302 0
M  V30 28341 O 2649.2 -0.361089 5.68054 0
M  V30 28342 N 2650.41 -2.23103 5.35915 0
M  V30 28343 H 2653.17 0.96412 2.83769 0
M  V30 28344 H 2650.73 0.656495 1.47992 0
M  V30 28345 H 2652.72 -1.37432 3.8065 0
M  V30 28346 H 2651.29 -1.48627 2.75007 0
M  V30 28347 H 2650.51 0.731003 3.87363 0
M  V30 28348 H 2651.8 0.480198 5.06529 0
M  V30 28349 H 2651.2 -2.69959 4.9713 0
M  V30 28350 H 2649.76 -2.76731 5.90138 0
M  V30 28351 N 2653.19 -1.47521 0.554558 0
M  V30 28352 C 2654.61 -1.58157 0.214135 0
M  V30 28353 C 2654.81 -1.55352 -1.28328 0
M  V30 28354 O 2653.86 -1.45552 -2.06327 0
M  V30 28355 C 2655.17 -2.88774 0.838442 0
M  V30 28356 C 2656.72 -3.02353 0.809427 0
M  V30 28357 C 2657.2 -4.35666 1.41276 0
M  V30 28358 N 2658.69 -4.42296 1.37582 0
M  V30 28359 C 2659.42 -5.44007 1.8123 0
M  V30 28360 N 2658.92 -6.52543 2.32721 0
M  V30 28361 N 2660.71 -5.35036 1.72317 0
M  V30 28362 H 2652.86 -1.47588 1.52747 0
M  V30 28363 H 2655.13 -0.702253 0.636824 0
M  V30 28364 H 2654.83 -2.96556 1.8907 0
M  V30 28365 H 2654.71 -3.75754 0.329913 0
M  V30 28366 H 2657.09 -2.9417 -0.234135 0
M  V30 28367 H 2657.17 -2.16921 1.35569 0
M  V30 28368 H 2656.82 -4.44605 2.45537 0
M  V30 28369 H 2656.75 -5.19826 0.841962 0
M  V30 28370 H 2659.24 -3.64452 0.999145 0
M  V30 28371 H 2659.55 -7.26324 2.63957 0
M  V30 28372 H 2657.9 -6.5344 2.3673 0
M  V30 28373 H 2661.09 -4.49142 1.31868 0
M  V30 28374 H 2661.26 -6.14165 2.06651 0
M  V30 28375 N 2654.67 -0.290879 -1.54892 0
M  V30 28376 C 2655.6 0.583044 -2.26104 0
M  V30 28377 C 2656.58 1.14617 -1.25686 0
M  V30 28378 O 2657.76 1.17739 -1.54439 0
M  V30 28379 C 2654.89 1.75982 -2.99412 0
M  V30 28380 C 2653.85 1.32751 -4.06892 0
M  V30 28381 C 2653.17 2.58864 -4.67861 0
M  V30 28382 C 2654.47 0.466148 -5.20216 0
M  V30 28383 H 2656.17 -0.0108741 -2.99398 0
M  V30 28384 H 2653.71 -0.00666999 -1.43998 0
M  V30 28385 H 2655.67 2.3772 -3.47947 0
M  V30 28386 H 2654.39 2.37981 -2.23679 0
M  V30 28387 H 2653.05 0.733236 -3.59192 0
M  V30 28388 H 2652.7 3.19156 -3.88778 0
M  V30 28389 H 2652.4 2.30644 -5.40442 0
M  V30 28390 H 2653.92 3.21424 -5.19152 0
M  V30 28391 H 2655.34 0.988948 -5.64706 0
M  V30 28392 H 2653.73 0.278155 -5.99455 0
M  V30 28393 H 2654.8 -0.511257 -4.82197 0
M  V30 28394 N 2656.15 1.57589 -0.0184203 0
M  V30 28395 C 2657.39 1.91355 0.662528 0
M  V30 28396 C 2657.72 0.893818 1.72746 0
M  V30 28397 O 2656.98 -0.0988166 1.9545 0
M  V30 28398 C 2657.27 3.31863 1.3267 0
M  V30 28399 C 2656.94 4.49182 0.393189 0
M  V30 28400 C 2655.6 4.81007 0.136218 0
M  V30 28401 C 2657.95 5.20607 -0.248457 0
M  V30 28402 C 2655.28 5.8162 -0.770384 0
M  V30 28403 C 2657.63 6.22187 -1.14305 0
M  V30 28404 C 2656.3 6.52459 -1.40901 0
M  V30 28405 H 2655.57 0.700218 0.242436 0
M  V30 28406 H 2658.22 1.91342 -0.0778966 0
M  V30 28407 H 2656.52 3.28088 2.14162 0
M  V30 28408 H 2658.22 3.55256 1.85995 0
M  V30 28409 H 2654.81 4.24328 0.603648 0
M  V30 28410 H 2658.99 4.9626 -0.0629703 0
M  V30 28411 H 2654.25 6.03425 -0.98426 0
M  V30 28412 H 2658.42 6.76656 -1.64649 0
M  V30 28413 H 2656.05 7.30239 -2.11319 0
M  V30 28414 N 2657.62 -0.254594 1.5553 0
M  V30 28415 C 2658.85 -1.00569 1.81385 0
M  V30 28416 C 2659.27 -1.7846 0.59445 0
M  V30 28417 O 2658.63 -1.75462 -0.456372 0
M  V30 28418 C 2658.68 -1.92539 3.04895 0
M  V30 28419 O 2657.78 -3.01596 2.81271 0
M  V30 28420 H 2657.12 -0.286576 0.598974 0
M  V30 28421 H 2659.65 -0.277917 2.02704 0
M  V30 28422 H 2659.66 -2.3415 3.34123 0
M  V30 28423 H 2658.34 -1.35263 3.9329 0
M  V30 28424 H 2656.92 -2.64169 2.6319 0
M  V30 28425 N 2659.1 -1.48777 -0.519925 0
M  V30 28426 C 2660.03 -1.60145 -1.6397 0
M  V30 28427 C 2661.05 -0.485145 -1.55403 0
M  V30 28428 O 2662.24 -0.756419 -1.6168 0
M  V30 28429 C 2659.34 -1.52454 -3.02673 0
M  V30 28430 C 2658.51 -2.79297 -3.36619 0
M  V30 28431 C 2657.57 -2.6492 -4.54647 0
M  V30 28432 O 2656.59 -3.38826 -4.57368 0
M  V30 28433 N 2657.8 -1.75204 -5.53429 0
M  V30 28434 H 2660.56 -2.56716 -1.54651 0
M  V30 28435 H 2658.12 -1.45627 -0.707413 0
M  V30 28436 H 2660.11 -1.40517 -3.79522 0
M  V30 28437 H 2658.68 -0.638179 -3.06016 0
M  V30 28438 H 2657.9 -3.05725 -2.4885 0
M  V30 28439 H 2659.19 -3.63427 -3.56088 0
M  V30 28440 H 2658.59 -1.14381 -5.54016 0
M  V30 28441 H 2657.15 -1.69201 -6.29456 0
M  V30 28442 N 2660.58 0.769564 -1.37534 0
M  V30 28443 C 2661.83 1.52518 -1.326 0
M  V30 28444 C 2662.15 1.948 0.0883952 0
M  V30 28445 O 2661.42 1.6646 1.03286 0
M  V30 28446 H 2660 0.56569 -0.487856 0
M  V30 28447 H 2662.66 0.915775 -1.72045 0
M  V30 28448 H 2661.76 2.42356 -1.96647 0
M  V30 28449 N 2662.06 1.22139 0.995977 0
M  V30 28450 C 2662.99 0.946521 2.08743 0
M  V30 28451 C 2664 -0.0737071 1.62633 0
M  V30 28452 O 2665.19 0.159918 1.77782 0
M  V30 28453 C 2662.29 0.401364 3.36515 0
M  V30 28454 C 2661.47 1.47808 4.11669 0
M  V30 28455 C 2660.52 0.940552 5.17726 0
M  V30 28456 O 2659.55 1.62606 5.4548 0
M  V30 28457 N 2660.75 -0.239621 5.80005 0
M  V30 28458 H 2663.52 1.88615 2.32905 0
M  V30 28459 H 2661.08 1.12787 1.1615 0
M  V30 28460 H 2663.07 0.0271548 4.04691 0
M  V30 28461 H 2661.64 -0.443299 3.09441 0
M  V30 28462 H 2660.86 2.02574 3.38168 0
M  V30 28463 H 2662.15 2.20261 4.58653 0
M  V30 28464 H 2661.55 -0.81342 5.59821 0
M  V30 28465 H 2660.1 -0.555247 6.49431 0
M  V30 28466 N 2663.54 -1.19233 1.03059 0
M  V30 28467 C 2664.81 -1.84742 0.642641 0
M  V30 28468 C 2665.19 -1.9195 -0.878544 0
M  V30 28469 O 2664.54 -1.43779 -1.77595 0
M  V30 28470 C 2664.75 -3.23614 1.30671 0
M  V30 28471 C 2666.1 -3.99757 1.43105 0
M  V30 28472 O 2667.12 -3.33018 1.26402 0
M  V30 28473 O 2665.98 -5.1931 1.70232 0
M  V30 28474 H 2663.08 -0.796202 0.223587 0
M  V30 28475 H 2665.62 -1.26709 1.12885 0
M  V30 28476 H 2664.39 -3.13212 2.3455 0
M  V30 28477 H 2664.02 -3.89294 0.808473 0
M  V30 28478 N 2665.01 -0.808686 -1.3527 0
M  V30 28479 C 2666.26 -0.390616 -1.99003 0
M  V30 28480 C 2666.59 1.04007 -1.64001 0
M  V30 28481 O 2665.87 1.72194 -0.904398 0
M  V30 28482 C 2666.15 -0.576629 -3.55453 0
M  V30 28483 C 2666 -2.0524 -4.00246 0
M  V30 28484 C 2667.32 -0.00362013 -4.401 0
M  V30 28485 H 2664.44 -0.143401 -0.722914 0
M  V30 28486 H 2667.08 -1.01861 -1.60388 0
M  V30 28487 H 2665.23 -0.0420449 -3.88477 0
M  V30 28488 H 2666.91 -2.64952 -3.77621 0
M  V30 28489 H 2665.15 -2.54807 -3.51078 0
M  V30 28490 H 2665.82 -2.13342 -5.09106 0
M  V30 28491 H 2668.3 -0.460189 -4.13547 0
M  V30 28492 H 2667.17 -0.163672 -5.48656 0
M  V30 28493 H 2667.43 1.09025 -4.28446 0
M  V30 28494 N 2666.49 1.47225 -0.562374 0
M  V30 28495 C 2667.72 2.07355 -0.0432997 0
M  V30 28496 C 2668.14 1.41151 1.2433 0
M  V30 28497 O 2667.5 0.488257 1.74602 0
M  V30 28498 C 2667.55 3.60365 0.130224 0
M  V30 28499 O 2666.65 3.9481 1.1916 0
M  V30 28500 H 2665.99 0.661829 -0.0536451 0
M  V30 28501 H 2668.52 1.89168 -0.779528 0
M  V30 28502 H 2668.53 4.06557 0.342809 0
M  V30 28503 H 2667.21 4.07947 -0.809461 0
M  V30 28504 H 2665.79 3.60355 0.95909 0
M  V30 28505 N 2667.97 0.299089 1.54736 0
M  V30 28506 C 2668.92 -0.593618 2.24898 0
M  V30 28507 C 2669.91 -1.13857 1.25431 0
M  V30 28508 O 2671.12 -1.08943 1.43288 0
M  V30 28509 H 2667.49 -0.210033 0.722073 0
M  V30 28510 H 2669.46 0.0206945 2.98393 0
M  V30 28511 C 2668.21 -1.75493 3.00162 0
M  V30 28512 H 2667.54 -1.34483 3.76503 0
M  V30 28513 H 2668.98 -2.35567 3.52539 0
M  V30 28514 C 2667.44 -2.6579 2.0702 0
M  V30 28515 O 2667.97 -3.66832 1.63699 0
M  V30 28516 N 2666.17 -2.33482 1.73016 0
M  V30 28517 H 2665.72 -1.51361 2.08441 0
M  V30 28518 H 2665.68 -2.94165 1.1097 0
M  V30 28519 N 2669.45 -1.57577 0.0267774 0
M  V30 28520 C 2670.4 -2.10076 -0.955858 0
M  V30 28521 C 2671.37 -1.00229 -1.32452 0
M  V30 28522 O 2672.55 -1.27635 -1.41824 0
M  V30 28523 C 2669.69 -2.63054 -2.23376 0
M  V30 28524 C 2668.8 -3.86901 -1.92176 0
M  V30 28525 C 2667.94 -4.28281 -3.14244 0
M  V30 28526 C 2666.98 -5.44893 -2.78852 0
M  V30 28527 N 2666.11 -5.8144 -3.93538 0
M  V30 28528 H 2670.95 -2.93754 -0.501251 0
M  V30 28529 H 2668.49 -1.45197 -0.235821 0
M  V30 28530 H 2670.45 -2.91858 -2.98118 0
M  V30 28531 H 2669.08 -1.8221 -2.66457 0
M  V30 28532 H 2668.13 -3.6484 -1.07685 0
M  V30 28533 H 2669.44 -4.71723 -1.62108 0
M  V30 28534 H 2668.6 -4.58509 -3.97309 0
M  V30 28535 H 2667.34 -3.42222 -3.4747 0
M  V30 28536 H 2666.34 -5.1436 -1.94199 0
M  V30 28537 H 2667.57 -6.32649 -2.46844 0
M  V30 28538 H 2665.51 -4.98336 -4.26611 0
M  V30 28539 H 2665.43 -6.60896 -3.67087 0
M  V30 28540 H 2666.7 -6.16273 -4.77314 0
M  V30 28541 N 2670.93 0.246342 -1.55663 0
M  V30 28542 C 2672.17 0.975747 -1.77784 0
M  V30 28543 C 2672.51 1.84952 -0.592136 0
M  V30 28544 O 2671.78 1.90139 0.409554 0
M  V30 28545 C 2672.06 1.83579 -3.09792 0
M  V30 28546 C 2671.92 0.990164 -4.38766 0
M  V30 28547 C 2673.24 2.81817 -3.38034 0
M  V30 28548 H 2670.35 0.353306 -0.646795 0
M  V30 28549 H 2673 0.246215 -1.88398 0
M  V30 28550 H 2671.15 2.45779 -3.00874 0
M  V30 28551 H 2672.82 0.386816 -4.59675 0
M  V30 28552 H 2671.06 0.29455 -4.32799 0
M  V30 28553 H 2671.73 1.62574 -5.27516 0
M  V30 28554 H 2674.21 2.29754 -3.46919 0
M  V30 28555 H 2673.08 3.39115 -4.31616 0
M  V30 28556 H 2673.35 3.58308 -2.58974 0
M  V30 28557 N 2672.4 1.4905 0.512027 0
M  V30 28558 C 2673.35 1.64905 1.61477 0
M  V30 28559 C 2674.32 0.490701 1.58686 0
M  V30 28560 O 2675.51 0.716391 1.7684 0
M  V30 28561 C 2672.65 1.71144 2.99673 0
M  V30 28562 C 2671.76 2.98209 3.12563 0
M  V30 28563 C 2670.89 2.95495 4.41425 0
M  V30 28564 C 2669.93 4.17187 4.47908 0
M  V30 28565 N 2669.07 4.12447 5.68183 0
M  V30 28566 H 2673.91 2.59069 1.47267 0
M  V30 28567 H 2671.45 1.2846 0.716691 0
M  V30 28568 H 2673.41 1.72742 3.79758 0
M  V30 28569 H 2672.04 0.804563 3.12613 0
M  V30 28570 H 2671.09 3.06273 2.25613 0
M  V30 28571 H 2672.4 3.88199 3.13214 0
M  V30 28572 H 2671.55 2.95595 5.29819 0
M  V30 28573 H 2670.29 2.03264 4.43323 0
M  V30 28574 H 2669.3 4.17343 3.57918 0
M  V30 28575 H 2670.52 5.10598 4.47735 0
M  V30 28576 H 2668.47 3.23046 5.70944 0
M  V30 28577 H 2668.39 4.96161 5.70404 0
M  V30 28578 H 2669.65 4.16633 6.58815 0
M  V30 28579 N 2673.88 -0.762259 1.3794 0
M  V30 28580 C 2674.85 -1.85744 1.34282 0
M  V30 28581 C 2675.85 -1.58923 0.244997 0
M  V30 28582 O 2677.04 -1.66828 0.501394 0
M  V30 28583 C 2674.17 -3.23059 1.08838 0
M  V30 28584 H 2675.36 -1.90397 2.31709 0
M  V30 28585 H 2672.91 -0.963035 1.23107 0
M  V30 28586 H 2673.65 -3.24079 0.119824 0
M  V30 28587 H 2673.43 -3.4392 1.88312 0
M  V30 28588 H 2674.92 -4.03137 1.08953 0
M  V30 28589 N 2675.36 -1.22666 -0.989486 0
M  V30 28590 C 2676.59 -1.08054 -1.77029 0
M  V30 28591 C 2677.01 0.364451 -1.84536 0
M  V30 28592 O 2676.37 1.26338 -1.30033 0
M  V30 28593 C 2676.42 -1.7003 -3.17997 0
M  V30 28594 O 2675.52 -0.956286 -4.01159 0
M  V30 28595 H 2674.86 -0.379302 -0.545001 0
M  V30 28596 H 2677.39 -1.62534 -1.24274 0
M  V30 28597 H 2677.4 -1.74895 -3.68613 0
M  V30 28598 H 2676.08 -2.75179 -3.11848 0
M  V30 28599 H 2674.65 -0.983903 -3.59686 0
M  V30 28600 N 2676.84 1.18685 -1.0369 0
M  V30 28601 C 2678.26 1.40589 -0.755438 0
M  V30 28602 C 2678.46 1.90501 0.656626 0
M  V30 28603 O 2677.51 2.08692 1.42141 0
M  V30 28604 C 2678.82 2.40998 -1.79835 0
M  V30 28605 C 2680.37 2.54731 -1.81882 0
M  V30 28606 C 2680.85 3.58401 -2.85154 0
M  V30 28607 N 2682.34 3.65905 -2.84021 0
M  V30 28608 C 2683.07 4.45835 -3.60581 0
M  V30 28609 N 2682.57 5.29405 -4.4688 0
M  V30 28610 N 2684.36 4.40562 -3.49087 0
M  V30 28611 H 2676.51 0.846114 -1.9482 0
M  V30 28612 H 2678.78 0.434169 -0.842734 0
M  V30 28613 H 2678.48 2.11365 -2.81101 0
M  V30 28614 H 2678.36 3.40291 -1.62733 0
M  V30 28615 H 2680.74 2.83683 -0.812886 0
M  V30 28616 H 2680.82 1.55565 -2.0306 0
M  V30 28617 H 2680.47 3.3019 -3.85924 0
M  V30 28618 H 2680.4 4.57237 -2.61232 0
M  V30 28619 H 2682.89 3.06226 -2.21436 0
M  V30 28620 H 2683.2 5.87536 -5.02018 0
M  V30 28621 H 2681.55 5.28838 -4.50949 0
M  V30 28622 H 2684.74 3.7432 -2.81073 0
M  V30 28623 H 2684.91 5.02614 -4.09003 0
M  V30 28624 N 2678.32 0.815849 1.34839 0
M  V30 28625 C 2679.26 0.230705 2.29644 0
M  V30 28626 C 2680.23 -0.640506 1.53254 0
M  V30 28627 O 2681.42 -0.58364 1.81654 0
M  V30 28628 C 2678.56 -0.607215 3.39716 0
M  V30 28629 C 2677.67 0.285455 4.31056 0
M  V30 28630 C 2676.81 -0.561353 5.28226 0
M  V30 28631 C 2675.85 0.331143 6.11204 0
M  V30 28632 N 2674.98 -0.476179 7.00483 0
M  V30 28633 H 2679.82 1.04455 2.79094 0
M  V30 28634 H 2677.36 0.526619 1.3735 0
M  V30 28635 H 2679.32 -1.10828 4.0221 0
M  V30 28636 H 2677.95 -1.38624 2.91519 0
M  V30 28637 H 2677 0.904686 3.69486 0
M  V30 28638 H 2678.31 0.972016 4.89237 0
M  V30 28639 H 2677.47 -1.12718 5.96137 0
M  V30 28640 H 2676.21 -1.28145 4.70564 0
M  V30 28641 H 2675.21 0.909165 5.42231 0
M  V30 28642 H 2676.44 1.04924 6.70945 0
M  V30 28643 H 2674.38 -1.18008 6.45299 0
M  V30 28644 H 2674.3 0.152141 7.55847 0
M  V30 28645 H 2675.57 -1.02498 7.72732 0
M  V30 28646 N 2679.8 -1.46924 0.570174 0
M  V30 28647 C 2680.73 -2.32963 -0.158233 0
M  V30 28648 C 2681.71 -1.44584 -0.896067 0
M  V30 28649 O 2682.89 -1.73422 -0.873991 0
M  V30 28650 C 2680.02 -3.26621 -1.1805 0
M  V30 28651 C 2678.98 -4.24343 -0.558305 0
M  V30 28652 C 2678.3 -5.07418 -1.68614 0
M  V30 28653 C 2679.6 -5.19936 0.496386 0
M  V30 28654 H 2681.3 -2.94114 0.560098 0
M  V30 28655 H 2678.84 -1.41431 0.2708 0
M  V30 28656 H 2680.79 -3.85661 -1.69834 0
M  V30 28657 H 2679.52 -2.63552 -1.92894 0
M  V30 28658 H 2678.18 -3.66548 -0.0616513 0
M  V30 28659 H 2677.83 -4.40743 -2.42394 0
M  V30 28660 H 2677.53 -5.73589 -1.27554 0
M  V30 28661 H 2679.05 -5.69319 -2.20699 0
M  V30 28662 H 2680.46 -5.73264 0.064106 0
M  V30 28663 H 2678.86 -5.9438 0.826595 0
M  V30 28664 H 2679.93 -4.64627 1.38743 0
M  V30 28665 N 2681.27 -0.307291 -1.54575 0
M  V30 28666 C 2682.5 0.302561 -2.04676 0
M  V30 28667 C 2682.92 1.47039 -1.18427 0
M  V30 28668 O 2682.27 1.81273 -0.211289 0
M  V30 28669 C 2682.32 0.752739 -3.53576 0
M  V30 28670 O 2682.05 -0.368613 -4.36547 0
M  V30 28671 C 2683.55 1.42709 -4.19701 0
M  V30 28672 H 2680.77 0.0648257 -0.667861 0
M  V30 28673 H 2683.31 -0.448751 -1.99516 0
M  V30 28674 H 2681.47 1.45406 -3.59076 0
M  V30 28675 H 2681.88 -0.0169859 -5.24497 0
M  V30 28676 H 2683.35 1.69318 -5.25391 0
M  V30 28677 H 2683.83 2.36918 -3.69819 0
M  V30 28678 H 2684.44 0.768782 -4.18294 0
M  V30 28679 N 2682.75 1.57561 -0.0351337 0
M  V30 28680 C 2683.66 2.14047 0.960257 0
M  V30 28681 C 2684.68 1.09422 1.35288 0
M  V30 28682 O 2685.85 1.4151 1.43307 0
M  V30 28683 C 2682.92 2.66128 2.22209 0
M  V30 28684 C 2681.98 3.8549 1.88933 0
M  V30 28685 C 2681.21 4.35077 3.09101 0
M  V30 28686 O 2681.44 3.83809 4.21956 0
M  V30 28687 O 2680.37 5.26853 2.91048 0
M  V30 28688 H 2684.2 2.99388 0.509931 0
M  V30 28689 H 2681.78 1.4824 0.185827 0
M  V30 28690 H 2683.66 2.99666 2.96274 0
M  V30 28691 H 2682.34 1.83866 2.66411 0
M  V30 28692 H 2681.24 3.56867 1.12234 0
M  V30 28693 H 2682.58 4.68933 1.49543 0
M  V30 28694 N 2684.23 -0.238084 1.55791 0
M  V30 28695 C 2685.16 -1.29842 1.9407 0
M  V30 28696 C 2686.14 -1.49752 0.806752 0
M  V30 28697 O 2687.33 -1.62212 1.06775 0
M  V30 28698 C 2684.46 -2.65149 2.24307 0
M  V30 28699 C 2683.41 -2.59921 3.40037 0
M  V30 28700 C 2682.74 -3.99105 3.55836 0
M  V30 28701 C 2684.04 -2.16139 4.7548 0
M  V30 28702 H 2685.73 -0.980514 2.82889 0
M  V30 28703 H 2683.28 -0.470229 1.36106 0
M  V30 28704 H 2685.23 -3.3947 2.49676 0
M  V30 28705 H 2683.95 -2.98594 1.32323 0
M  V30 28706 H 2682.61 -1.88057 3.1469 0
M  V30 28707 H 2682.26 -4.2983 2.61258 0
M  V30 28708 H 2681.96 -3.96493 4.33667 0
M  V30 28709 H 2683.48 -4.75113 3.83536 0
M  V30 28710 H 2684.9 -2.80197 5.00163 0
M  V30 28711 H 2683.29 -2.24621 5.56476 0
M  V30 28712 H 2684.36 -1.11325 4.71948 0
M  V30 28713 N 2685.71 -1.4932 -0.504115 0
M  V30 28714 C 2686.62 -1.68488 -1.63245 0
M  V30 28715 C 2687.63 -0.567461 -1.64487 0
M  V30 28716 O 2688.81 -0.841781 -1.82965 0
M  V30 28717 C 2685.87 -1.74431 -2.99624 0
M  V30 28718 C 2684.94 -2.97988 -3.09033 0
M  V30 28719 C 2684.17 -3.03638 -4.38907 0
M  V30 28720 O 2684.39 -2.16967 -5.27524 0
M  V30 28721 O 2683.33 -3.9607 -4.53224 0
M  V30 28722 H 2687.15 -2.64069 -1.50004 0
M  V30 28723 H 2684.74 -1.33024 -0.680063 0
M  V30 28724 H 2686.62 -1.80711 -3.80685 0
M  V30 28725 H 2685.29 -0.820288 -3.13134 0
M  V30 28726 H 2684.2 -2.97227 -2.27172 0
M  V30 28727 H 2685.53 -3.8986 -3.00449 0
M  V30 28728 N 2687.19 0.754933 -1.38342 0
M  V30 28729 C 2688.13 1.89002 -1.35576 0
M  V30 28730 C 2689.13 1.67665 -0.241853 0
M  V30 28731 O 2690.33 1.75249 -0.410815 0
M  V30 28732 H 2686.71 0.621813 -0.422909 0
M  V30 28733 H 2688.68 1.88451 -2.31363 0
M  V30 28734 C 2687.43 3.26469 -1.19637 0
M  V30 28735 H 2686.75 3.43474 -2.04611 0
M  V30 28736 H 2688.19 4.06142 -1.21756 0
M  V30 28737 C 2686.65 3.36761 0.0968113 0
M  V30 28738 O 2687.18 3.87067 1.07432 0
M  V30 28739 N 2685.39 2.90196 0.153191 0
M  V30 28740 H 2684.93 2.49447 -0.642952 0
M  V30 28741 H 2684.89 2.97462 1.01802 0
M  V30 28742 N 2688.66 1.23189 0.982967 0
M  V30 28743 C 2689.57 1.02743 2.10905 0
M  V30 28744 C 2690.59 -0.0272883 1.73979 0
M  V30 28745 O 2691.77 0.167605 2.00701 0
M  V30 28746 C 2688.83 0.618364 3.41141 0
M  V30 28747 C 2687.89 1.74784 3.92109 0
M  V30 28748 C 2687.12 1.35819 5.16129 0
M  V30 28749 O 2687.35 0.241301 5.69889 0
M  V30 28750 O 2686.28 2.17834 5.61099 0
M  V30 28751 H 2690.11 1.97112 2.31042 0
M  V30 28752 H 2687.69 1.01871 1.09282 0
M  V30 28753 H 2689.57 0.401056 4.19487 0
M  V30 28754 H 2688.25 -0.296364 3.2234 0
M  V30 28755 H 2687.16 2.01976 3.14891 0
M  V30 28756 H 2688.49 2.64079 4.15359 0
M  V30 28757 N 2690.14 -1.18133 1.04318 0
M  V30 28758 C 2691.07 -2.24057 0.657338 0
M  V30 28759 C 2692.05 -1.66654 -0.340649 0
M  V30 28760 O 2693.24 -1.92948 -0.22019 0
M  V30 28761 C 2690.37 -3.47293 0.0221325 0
M  V30 28762 C 2689.32 -4.17461 0.943931 0
M  V30 28763 C 2688.65 -5.3442 0.173067 0
M  V30 28764 C 2689.95 -4.70673 2.26417 0
M  V30 28765 H 2691.64 -2.56586 1.54285 0
M  V30 28766 H 2689.19 -1.23334 0.743284 0
M  V30 28767 H 2691.14 -4.206 -0.259533 0
M  V30 28768 H 2689.86 -3.14004 -0.898268 0
M  V30 28769 H 2688.52 -3.46055 1.21002 0
M  V30 28770 H 2688.17 -4.9738 -0.74982 0
M  V30 28771 H 2687.87 -5.82303 0.7872 0
M  V30 28772 H 2689.4 -6.10516 -0.101521 0
M  V30 28773 H 2690.81 -5.35661 2.04303 0
M  V30 28774 H 2689.21 -5.291 2.83149 0
M  V30 28775 H 2690.28 -3.87957 2.9089 0
M  V30 28776 N 2691.62 -0.822988 -1.34405 0
M  V30 28777 C 2692.57 -0.233206 -2.31428 0
M  V30 28778 C 2693.56 0.62609 -1.57405 0
M  V30 28779 O 2694.77 0.517423 -1.72403 0
M  V30 28780 H 2691.14 -0.0566689 -0.749862 0
M  V30 28781 H 2693.11 -1.06633 -2.78697 0
M  V30 28782 C 2691.86 0.590203 -3.42654 0
M  V30 28783 H 2691.19 -0.0616831 -3.99752 0
M  V30 28784 H 2692.63 0.968981 -4.12779 0
M  V30 28785 C 2691.09 1.76257 -2.87115 0
M  V30 28786 O 2691.62 2.86075 -2.82 0
M  V30 28787 N 2689.82 1.57934 -2.43937 0
M  V30 28788 H 2689.37 0.686035 -2.48297 0
M  V30 28789 H 2689.33 2.36528 -2.07127 0
M  V30 28790 N 2693.1 1.4662 -0.577957 0
M  V30 28791 C 2694.33 2.06791 -0.0672005 0
M  V30 28792 C 2694.74 1.42745 1.23569 0
M  V30 28793 O 2694.1 0.531092 1.74601 0
M  V30 28794 C 2694.15 3.61332 0.110293 0
M  V30 28795 O 2693.87 4.2298 -1.14102 0
M  V30 28796 C 2695.37 4.3842 0.655948 0
M  V30 28797 H 2692.59 0.668719 -0.055285 0
M  V30 28798 H 2695.14 1.88318 -0.797275 0
M  V30 28799 H 2693.29 3.79248 0.790571 0
M  V30 28800 H 2693.7 5.15791 -0.951833 0
M  V30 28801 H 2695.18 5.4716 0.729341 0
M  V30 28802 H 2695.66 4.06134 1.67188 0
M  V30 28803 H 2696.26 4.25299 0.0106944 0
M  V30 28804 N 2694.58 0.315484 1.5441 0
M  V30 28805 C 2695.52 -0.554127 2.24049 0
M  V30 28806 C 2696.49 -1.1181 1.22832 0
M  V30 28807 O 2697.68 -1.15994 1.51493 0
M  V30 28808 C 2694.82 -1.71311 2.99577 0
M  V30 28809 C 2693.93 -1.17914 4.15596 0
M  V30 28810 C 2693.07 -2.30316 4.78673 0
M  V30 28811 C 2692.11 -1.74127 5.8681 0
M  V30 28812 N 2691.24 -2.80159 6.43782 0
M  V30 28813 H 2696.08 0.0463126 2.97964 0
M  V30 28814 H 2693.62 0.0346267 1.47059 0
M  V30 28815 H 2695.58 -2.39499 3.41608 0
M  V30 28816 H 2694.21 -2.28496 2.28012 0
M  V30 28817 H 2693.26 -0.38907 3.78405 0
M  V30 28818 H 2694.57 -0.727925 4.9346 0
M  V30 28819 H 2693.73 -3.06423 5.23631 0
M  V30 28820 H 2692.46 -2.78771 4.00173 0
M  V30 28821 H 2691.47 -0.96514 5.41262 0
M  V30 28822 H 2692.69 -1.26559 6.67203 0
M  V30 28823 H 2690.64 -3.2792 5.68159 0
M  V30 28824 H 2690.56 -2.39576 7.17035 0
M  V30 28825 H 2691.83 -3.5612 6.93397 0
M  V30 28826 O 2696.09 -1.60464 0.182649 0
M  V30 28827 H 2696.78 -1.89418 -0.405041 0
M  V30 END ATOM
M  V30 BEGIN BOND
M  V30 END BOND
M  V30 END CTAB
M  END
$$$$
