drugbank_target|P55407 Probable transcriptional activator protein TraR (DB08081)
 OpenBabel12092120483D

  0  0  0     0  0            999 V3000
M  V30 BEGIN CTAB
M  V30 COUNTS 3723 3763 0 0 0
M  V30 BEGIN ATOM
M  V30 1 H -0.908 1.98254 -0.117106 0
M  V30 2 N 0 1.576 0 0
M  V30 3 C 0.933 2.03868 1.02534 0
M  V30 4 C 1.911 0.928543 1.3348 0
M  V30 5 O 3.095 1.19667 1.45644 0
M  V30 6 C 0.222 2.43627 2.35294 0
M  V30 7 C -0.732 3.65373 2.2001 0
M  V30 8 S 0.101 5.13292 1.52614 0
M  V30 9 C 1.257 5.56322 2.86805 0
M  V30 10 H 1.49 2.90518 0.631377 0
M  V30 11 H -0.977 1.52953 0.210867 0
M  V30 12 H 0.981 2.67203 3.11629 0
M  V30 13 H -0.358 1.57376 2.7183 0
M  V30 14 H -1.165 3.90944 3.18086 0
M  V30 15 H -1.563 3.418 1.51819 0
M  V30 16 H 0.729 5.58782 3.83104 0
M  V30 17 H 1.672 6.56266 2.65933 0
M  V30 18 H 2.08 4.83886 2.90714 0
M  V30 19 N 1.4781 -0.272755 1.55222 0
M  V30 20 C 2.7031 -1.02683 1.80197 0
M  V30 21 C 3.1281 -1.79142 0.573551 0
M  V30 22 O 2.4861 -1.74917 -0.476849 0
M  V30 23 C 2.5341 -1.9609 3.02624 0
M  V30 24 O 1.6381 -3.04863 2.77727 0
M  V30 25 H 0.9791 -0.293557 0.595584 0
M  V30 26 H 3.5091 -0.30159 2.02365 0
M  V30 27 H 3.5191 -2.38039 3.31363 0
M  V30 28 H 2.1941 -1.39851 3.91682 0
M  V30 29 H 0.7711 -2.67228 2.60084 0
M  V30 30 N 2.9562 -1.48159 -0.537278 0
M  V30 31 C 4.2022 -1.56035 -1.29541 0
M  V30 32 C 4.5352 -0.230377 -1.92829 0
M  V30 33 O 3.8102 0.762952 -1.78911 0
M  V30 34 C 4.0932 -2.69323 -2.39034 0
M  V30 35 C 3.9462 -4.12002 -1.80485 0
M  V30 36 C 5.2652 -2.78408 -3.40847 0
M  V30 37 H 2.3842 -0.567992 -0.469632 0
M  V30 38 H 5.0262 -1.80302 -0.599277 0
M  V30 39 H 3.1762 -2.48763 -2.98412 0
M  V30 40 H 4.8482 -4.43981 -1.25215 0
M  V30 41 H 3.0912 -4.19344 -1.11055 0
M  V30 42 H 3.7622 -4.87077 -2.59731 0
M  V30 43 H 6.2382 -2.97012 -2.91416 0
M  V30 44 H 5.1142 -3.59416 -4.14863 0
M  V30 45 H 5.3752 -1.86269 -4.00944 0
M  V30 46 N 4.4343 0.785586 -1.36625 0
M  V30 47 C 5.3823 1.91978 -1.31329 0
M  V30 48 C 6.3763 1.68162 -0.204416 0
M  V30 49 O 7.5823 1.76122 -0.371645 0
M  V30 50 H 3.9573 0.631087 -0.408942 0
M  V30 51 H 5.9283 1.93562 -2.27104 0
M  V30 52 C 4.6773 3.29055 -1.12329 0
M  V30 53 H 4.0003 3.4795 -1.96903 0
M  V30 54 H 5.4403 4.08756 -1.12671 0
M  V30 55 C 3.8993 3.36461 0.171861 0
M  V30 56 O 4.4293 3.84576 1.16035 0
M  V30 57 N 2.6353 2.89782 0.217846 0
M  V30 58 H 2.1823 2.50819 -0.587183 0
M  V30 59 H 2.1403 2.95119 1.08408 0
M  V30 60 N 5.9124 1.20967 1.01018 0
M  V30 61 C 7.1604 1.02172 1.74371 0
M  V30 62 C 7.4814 -0.446414 1.89821 0
M  V30 63 O 6.7514 -1.32234 1.44537 0
M  V30 64 H 5.3314 0.375066 0.646014 0
M  V30 65 H 7.9934 1.52187 1.21758 0
M  V30 66 H 7.0894 1.48538 2.74487 0
M  V30 67 N 7.3905 -1.2043 1.01659 0
M  V30 68 C 8.3385 -2.25249 0.580143 0
M  V30 69 C 9.3325 -1.65057 -0.381115 0
M  V30 70 O 10.5385 -1.78241 -0.251039 0
M  V30 71 H 6.9135 -0.732695 0.169299 0
M  V30 72 H 8.8845 -2.59389 1.47512 0
M  V30 73 C 7.6335 -3.47638 -0.065788 0
M  V30 74 H 6.9565 -3.94233 0.664874 0
M  V30 75 H 8.3965 -4.2268 -0.334282 0
M  V30 76 C 6.8555 -3.10447 -1.3086 0
M  V30 77 O 7.3855 -3.21981 -2.4019 0
M  V30 78 N 5.5915 -2.64996 -1.1927 0
M  V30 79 H 5.1385 -2.55811 -0.303064 0
M  V30 80 H 5.0965 -2.40482 -2.02523 0
M  V30 81 N 8.8686 -0.792821 -1.36206 0
M  V30 82 C 9.7986 -0.207853 -2.32573 0
M  V30 83 C 10.7796 0.659055 -1.56813 0
M  V30 84 O 11.9646 0.592176 -1.84951 0
M  V30 85 C 9.0946 0.655449 -3.41059 0
M  V30 86 C 8.0486 -0.111842 -4.27854 0
M  V30 87 C 7.3746 0.872274 -5.27537 0
M  V30 88 C 8.6746 -1.30299 -5.05786 0
M  V30 89 H 10.3686 -1.01294 -2.81744 0
M  V30 90 H 7.9146 -0.48854 -1.3546 0
M  V30 91 H 9.8676 1.07464 -4.07467 0
M  V30 92 H 8.5916 1.49328 -2.90463 0
M  V30 93 H 7.2506 -0.512053 -3.63006 0
M  V30 94 H 6.8986 1.70523 -4.73214 0
M  V30 95 H 6.5986 0.363291 -5.86476 0
M  V30 96 H 8.1226 1.28996 -5.96818 0
M  V30 97 H 9.5366 -0.959379 -5.65216 0
M  V30 98 H 7.9336 -1.7455 -5.74154 0
M  V30 99 H 9.0036 -2.09663 -4.37229 0
M  V30 100 N 10.3467 1.47872 -0.545128 0
M  V30 101 C 11.7627 1.5829 -0.204032 0
M  V30 102 C 11.9627 1.54529 1.29317 0
M  V30 103 O 11.0187 1.44232 2.07252 0
M  V30 104 C 12.3317 2.89304 -0.819987 0
M  V30 105 C 13.8797 3.02864 -0.790105 0
M  V30 106 C 14.3547 4.3656 -1.38491 0
M  V30 107 N 15.8457 4.43165 -1.34755 0
M  V30 108 C 16.5807 5.45153 -1.77753 0
M  V30 109 N 16.0767 6.54016 -2.2855 0
M  V30 110 N 17.8697 5.36125 -1.68897 0
M  V30 111 H 10.0207 1.4856 -1.51802 0
M  V30 112 H 12.2837 0.706305 -0.632327 0
M  V30 113 H 11.9897 2.97757 -1.87173 0
M  V30 114 H 11.8637 3.75957 -0.305915 0
M  V30 115 H 14.2507 2.94014 0.252913 0
M  V30 116 H 14.3317 2.17782 -1.34181 0
M  V30 117 H 13.9757 4.46164 -2.42693 0
M  V30 118 H 13.9057 5.20353 -0.808754 0
M  V30 119 H 16.3967 3.65083 -0.975855 0
M  V30 120 H 16.7097 7.27994 -2.59314 0
M  V30 121 H 15.0547 6.54938 -2.32553 0
M  V30 122 H 18.2457 4.49975 -1.28998 0
M  V30 123 H 18.4187 6.15472 -2.02726 0
M  V30 124 N 11.8248 0.280983 1.55075 0
M  V30 125 C 13.0498 -0.340154 2.04592 0
M  V30 126 C 13.4748 -1.48246 1.15779 0
M  V30 127 O 12.8328 -1.80614 0.15761 0
M  V30 128 C 12.8808 -0.793104 3.5177 0
M  V30 129 O 11.9848 -1.89981 3.66034 0
M  V30 130 H 11.3258 -0.0694289 0.66036 0
M  V30 131 H 13.8558 0.416993 2.00306 0
M  V30 132 H 13.8658 -1.08729 3.93245 0
M  V30 133 H 12.5408 0.0426163 4.15878 0
M  V30 134 H 11.1178 -1.60771 3.36463 0
M  V30 135 N 13.3029 -1.57598 0.00835791 0
M  V30 136 C 14.2329 -2.1198 -0.979113 0
M  V30 137 C 15.2139 -1.03091 -1.35301 0
M  V30 138 O 16.3989 -1.30818 -1.43528 0
M  V30 139 C 13.5289 -2.62995 -2.26828 0
M  V30 140 C 12.4829 -3.76485 -2.03576 0
M  V30 141 C 11.8089 -4.13846 -3.38579 0
M  V30 142 C 13.1089 -5.0342 -1.39161 0
M  V30 143 H 14.8029 -2.94738 -0.526281 0
M  V30 144 H 12.3489 -1.41783 -0.251704 0
M  V30 145 H 14.3019 -2.99669 -2.96271 0
M  V30 146 H 13.0259 -1.7737 -2.7424 0
M  V30 147 H 11.6849 -3.40217 -1.36557 0
M  V30 148 H 11.3329 -3.25232 -3.83709 0
M  V30 149 H 11.0329 -4.90312 -3.23834 0
M  V30 150 H 12.5569 -4.53086 -4.09323 0
M  V30 151 H 13.9709 -5.37812 -1.98573 0
M  V30 152 H 12.3679 -5.84746 -1.34878 0
M  V30 153 H 13.4379 -4.83548 -0.361868 0
M  V30 154 N 14.781 0.264519 -1.55364 0
M  V30 155 C 16.03 0.992812 -1.75574 0
M  V30 156 C 16.343 1.87142 -0.568979 0
M  V30 157 O 17.549 2.63513 -0.653682 0
M  V30 158 C 16.005 1.81519 -3.10771 0
M  V30 159 C 15.613 0.984839 -4.37041 0
M  V30 160 C 17.357 2.53727 -3.40327 0
M  V30 161 C 15.264 1.80209 -5.63275 0
M  V30 162 H 14.194 0.374412 -0.65447 0
M  V30 163 H 16.845 0.248138 -1.81815 0
M  V30 164 H 15.227 2.60115 -2.98591 0
M  V30 165 H 16.401 0.242455 -4.60162 0
M  V30 166 H 14.716 0.37691 -4.14691 0
M  V30 167 H 17.313 3.15292 -4.3185 0
M  V30 168 H 17.656 3.24447 -2.60845 0
M  V30 169 H 18.189 1.82156 -3.53644 0
M  V30 170 H 14.928 1.13896 -6.45529 0
M  V30 171 H 14.448 2.52022 -5.44284 0
M  V30 172 H 16.127 2.37364 -6.01887 0
M  V30 173 N 16.2591 1.48442 0.529413 0
M  V30 174 C 17.5361 1.46978 1.29062 0
M  V30 175 C 17.9161 0.181769 2.10316 0
M  V30 176 O 17.2641 -0.836481 2.12639 0
M  V30 177 C 17.4741 2.7321 2.17157 0
M  V30 178 C 18.8221 3.21562 2.77278 0
M  V30 179 O 19.8461 2.74131 2.27444 0
M  V30 180 O 18.7051 4.04094 3.67927 0
M  V30 181 H 15.7991 0.587003 0.582543 0
M  V30 182 H 18.3451 1.60676 0.546021 0
M  V30 183 H 17.1171 3.58465 1.56903 0
M  V30 184 H 16.7401 2.62235 2.98862 0
M  V30 185 N 17.7372 -0.778329 1.37039 0
M  V30 186 C 18.6702 -1.8984 1.26633 0
M  V30 187 C 19.6482 -1.61923 0.148197 0
M  V30 188 O 20.8322 -1.85742 0.321265 0
M  V30 189 C 17.9592 -3.24916 0.956403 0
M  V30 190 C 17.0052 -3.71752 2.09051 0
M  V30 191 S 17.8382 -3.86201 3.70957 0
M  V30 192 C 18.9942 -5.24135 3.42101 0
M  V30 193 H 19.2272 -1.98377 2.21436 0
M  V30 194 H 16.7602 -0.938738 1.22585 0
M  V30 195 H 18.7182 -4.02936 0.784409 0
M  V30 196 H 17.3792 -3.14089 0.0259713 0
M  V30 197 H 16.5722 -4.69661 1.8285 0
M  V30 198 H 16.1742 -3.00815 2.2223 0
M  V30 199 H 18.4662 -6.09086 2.96682 0
M  V30 200 H 19.4092 -5.55346 4.39314 0
M  V30 201 H 19.8172 -4.91761 2.77185 0
M  V30 202 N 19.2153 -1.21501 -1.00376 0
M  V30 203 C 20.1453 -0.999478 -2.11028 0
M  V30 204 C 21.1263 0.0759671 -1.6993 0
M  V30 205 O 22.3113 -0.0841106 -1.94018 0
M  V30 206 C 19.4413 -0.564709 -3.42678 0
M  V30 207 C 18.3953 -1.58486 -3.97576 0
M  V30 208 C 17.7213 -1.00628 -5.25146 0
M  V30 209 C 19.0213 -2.97204 -4.29496 0
M  V30 210 H 20.7153 -1.92495 -2.29317 0
M  V30 211 H 18.2613 -0.92693 -1.102 0
M  V30 212 H 20.2143 -0.401091 -4.19487 0
M  V30 213 H 18.9383 0.396411 -3.24185 0
M  V30 214 H 17.5973 -1.73606 -3.22888 0
M  V30 215 H 17.2453 -0.0368439 -5.02987 0
M  V30 216 H 16.9453 -1.68771 -5.62841 0
M  V30 217 H 18.4693 -0.854015 -6.04598 0
M  V30 218 H 19.8833 -2.8552 -4.97143 0
M  V30 219 H 18.2803 -3.62372 -4.78338 0
M  V30 220 H 19.3503 -3.47956 -3.3772 0
M  V30 221 N 20.6934 1.19889 -1.02296 0
M  V30 222 C 21.6034 2.26571 -0.608508 0
M  V30 223 C 22.6194 1.70299 0.356964 0
M  V30 224 O 23.7954 2.00235 0.216326 0
M  V30 225 C 20.8604 3.46677 0.0402814 0
M  V30 226 C 19.9214 4.18153 -0.97194 0
M  V30 227 C 19.1544 5.32525 -0.354016 0
M  V30 228 O 19.3774 5.64112 0.844604 0
M  V30 229 O 18.3114 5.92242 -1.07391 0
M  V30 230 H 22.1374 2.64251 -1.49684 0
M  V30 231 H 19.7224 1.26629 -0.792809 0
M  V30 232 H 21.6044 4.19475 0.402324 0
M  V30 233 H 20.2794 3.10858 0.902707 0
M  V30 234 H 19.1864 3.47499 -1.38546 0
M  V30 235 H 20.5194 4.57927 -1.80454 0
M  V30 236 N 22.1715 0.800033 1.35784 0
M  V30 237 C 23.1345 0.211565 2.28221 0
M  V30 238 C 24.1345 -0.59728 1.49296 0
M  V30 239 O 25.3245 -0.416721 1.69142 0
M  V30 240 C 22.4565 -0.705846 3.33513 0
M  V30 241 H 23.6495 1.02677 2.81776 0
M  V30 242 H 21.2025 0.570211 1.45528 0
M  V30 243 H 21.9375 -1.54498 2.85133 0
M  V30 244 H 21.7225 -0.127655 3.91892 0
M  V30 245 H 23.2125 -1.11211 4.02519 0
M  V30 246 N 23.6496 -1.47581 0.552962 0
M  V30 247 C 24.6126 -2.28439 -0.186605 0
M  V30 248 C 25.6126 -1.36706 -0.84665 0
M  V30 249 O 26.8026 -1.59378 -0.703164 0
M  V30 250 C 23.9346 -3.16264 -1.2724 0
M  V30 251 H 25.1276 -2.95294 0.523609 0
M  V30 252 H 22.6806 -1.532 0.309745 0
M  V30 253 H 23.4156 -2.54091 -2.01514 0
M  V30 254 H 23.2006 -3.83769 -0.803968 0
M  V30 255 H 24.6906 -3.77198 -1.79196 0
M  V30 256 N 25.1277 -0.289203 -1.54924 0
M  V30 257 C 26.0597 0.625583 -2.20497 0
M  V30 258 C 27.0727 1.10667 -1.19402 0
M  V30 259 O 28.2617 1.02615 -1.46056 0
M  V30 260 C 25.3617 1.86702 -2.82835 0
M  V30 261 C 24.5347 1.5304 -4.09753 0
M  V30 262 C 23.5937 2.62576 -4.56005 0
M  V30 263 O 22.6197 2.28167 -5.21468 0
M  V30 264 N 23.8217 3.92901 -4.27328 0
M  V30 265 H 26.5867 0.0642801 -2.99631 0
M  V30 266 H 24.1477 -0.110896 -1.6152 0
M  V30 267 H 26.1397 2.59304 -3.10715 0
M  V30 268 H 24.7097 2.33702 -2.07611 0
M  V30 269 H 23.9297 0.637564 -3.8901 0
M  V30 270 H 25.2177 1.28072 -4.92418 0
M  V30 271 H 24.6157 4.23671 -3.74859 0
M  V30 272 H 23.1727 4.61837 -4.59946 0
M  V30 273 N 26.6058 1.57591 -0.0167156 0
M  V30 274 C 27.8828 1.82547 0.702564 0
M  V30 275 C 28.2628 0.898018 1.91047 0
M  V30 276 O 27.6108 -0.0493456 2.28447 0
M  V30 277 C 27.8208 3.31459 1.09251 0
M  V30 278 C 29.1688 3.97622 1.48937 0
M  V30 279 O 30.1928 3.35881 1.18584 0
M  V30 280 O 29.0518 5.06415 2.05442 0
M  V30 281 H 26.1458 0.752268 0.343544 0
M  V30 282 H 28.6918 1.69644 -0.0434495 0
M  V30 283 H 27.4638 3.9061 0.23227 0
M  V30 284 H 27.0868 3.49422 1.89709 0
M  V30 285 N 28.0839 -0.256276 1.55502 0
M  V30 286 C 29.3319 -0.983672 1.76545 0
M  V30 287 C 29.6529 -1.86206 0.578982 0
M  V30 288 O 28.9229 -1.91656 -0.405577 0
M  V30 289 H 27.5029 -0.366191 0.651086 0
M  V30 290 H 30.1649 -0.276479 1.92929 0
M  V30 291 H 29.2609 -1.61087 2.67315 0
M  V30 292 N 29.562 -1.4872 -0.521534 0
M  V30 293 C 30.512 -1.60269 -1.62166 0
M  V30 294 C 31.496 -0.45935 -1.54204 0
M  V30 295 O 32.688 -0.711241 -1.62081 0
M  V30 296 C 29.817 -1.65344 -3.00859 0
M  V30 297 C 28.903 -2.85187 -3.13894 0
M  V30 298 N 29.294 -4.09509 -2.96877 0
M  V30 299 C 27.592 -2.82695 -3.44963 0
M  V30 300 C 28.293 -4.89959 -3.13552 0
M  V30 301 N 27.269 -4.22934 -3.41508 0
M  V30 302 H 31.071 -2.5413 -1.47632 0
M  V30 303 H 28.585 -1.45209 -0.727194 0
M  V30 304 H 30.582 -1.71713 -3.79895 0
M  V30 305 H 29.242 -0.726058 -3.16478 0
M  V30 306 H 30.253 -4.39814 -2.73467 0
M  V30 307 H 26.93 -1.99249 -3.66887 0
M  V30 308 H 28.32 -5.98654 -3.05061 0
M  V30 309 N 31.0401 0.771051 -1.3745 0
M  V30 310 C 31.9731 1.89166 -1.27638 0
M  V30 311 C 32.9511 1.61842 -0.156782 0
M  V30 312 O 34.1351 1.85569 -0.331111 0
M  V30 313 C 31.2621 3.24405 -0.973621 0
M  V30 314 C 30.3081 3.70638 -2.1102 0
M  V30 315 S 31.1411 3.84228 -3.73 0
M  V30 316 C 32.2971 5.22313 -3.44876 0
M  V30 317 H 32.5301 1.972 -2.22485 0
M  V30 318 H 30.0631 0.932224 -1.23081 0
M  V30 319 H 32.0211 4.02514 -0.805766 0
M  V30 320 H 30.6821 3.14071 -0.0426279 0
M  V30 321 H 29.8751 4.68685 -1.85338 0
M  V30 322 H 29.4771 2.99632 -2.23822 0
M  V30 323 H 31.7691 6.07505 -2.99908 0
M  V30 324 H 32.7121 5.53008 -4.42253 0
M  V30 325 H 33.1201 4.90284 -2.79789 0
M  V30 326 N 32.5182 1.22032 0.997298 0
M  V30 327 C 33.7672 1.03637 1.73038 0
M  V30 328 C 34.0802 -0.429475 1.90827 0
M  V30 329 O 35.2862 -0.732995 2.61418 0
M  V30 330 C 33.7422 1.80582 3.11317 0
M  V30 331 C 33.3502 3.31387 3.01474 0
M  V30 332 C 35.0942 1.70621 3.88701 0
M  V30 333 C 33.0012 4.00791 4.3488 0
M  V30 334 H 31.9312 0.384179 0.648785 0
M  V30 335 H 34.5822 1.4584 1.11368 0
M  V30 336 H 32.9642 1.31175 3.73643 0
M  V30 337 H 34.1382 3.88155 2.4834 0
M  V30 338 H 32.4532 3.41976 2.37575 0
M  V30 339 H 35.0502 2.19799 4.87434 0
M  V30 340 H 35.3932 0.665823 4.10941 0
M  V30 341 H 35.9262 2.17547 3.33044 0
M  V30 342 H 32.6652 5.05064 4.1784 0
M  V30 343 H 32.1852 3.48811 4.87945 0
M  V30 344 H 33.8642 4.06139 5.03647 0
M  V30 345 N 33.9963 -1.19345 1.0293 0
M  V30 346 C 34.9433 -2.2258 0.610464 0
M  V30 347 C 35.9133 -1.6179 -0.375946 0
M  V30 348 O 37.0983 -1.88844 -0.272511 0
M  V30 349 C 34.2383 -3.45085 -0.0321473 0
M  V30 350 C 33.3513 -4.20258 1.00035 0
M  V30 351 C 32.4863 -5.3019 0.32746 0
M  V30 352 C 31.5253 -5.97121 1.34584 0
M  V30 353 N 30.6623 -6.98615 0.698726 0
M  V30 354 H 35.5023 -2.57764 1.49538 0
M  V30 355 H 33.0393 -1.26644 0.748311 0
M  V30 356 H 34.9973 -4.15061 -0.421966 0
M  V30 357 H 33.6273 -3.10555 -0.88064 0
M  V30 358 H 32.6793 -3.49223 1.50823 0
M  V30 359 H 33.9913 -4.66175 1.77433 0
M  V30 360 H 33.1453 -6.06587 -0.11718 0
M  V30 361 H 31.8843 -4.85345 -0.478713 0
M  V30 362 H 30.8893 -5.19474 1.80074 0
M  V30 363 H 32.1143 -6.4405 2.15352 0
M  V30 364 H 30.0603 -6.55942 -0.0873471 0
M  V30 365 H 29.9773 -7.42724 1.41058 0
M  V30 366 H 31.2453 -7.79004 0.278102 0
M  V30 367 N 35.4744 -0.807222 -1.35358 0
M  V30 368 C 36.7234 -0.384376 -1.98004 0
M  V30 369 C 37.0364 1.0543 -1.64754 0
M  V30 370 O 38.2424 1.58029 -2.20769 0
M  V30 371 C 36.6984 -0.636326 -3.5423 0
M  V30 372 C 36.3064 -2.08759 -3.96388 0
M  V30 373 C 38.0504 -0.278869 -4.23583 0
M  V30 374 C 35.9574 -2.28525 -5.45463 0
M  V30 375 H 34.8874 -0.139986 -0.740891 0
M  V30 376 H 37.5384 -0.991369 -1.54415 0
M  V30 377 H 35.9204 0.0406256 -3.95979 0
M  V30 378 H 37.0944 -2.8024 -3.6579 0
M  V30 379 H 35.4094 -2.40497 -3.39926 0
M  V30 380 H 38.0064 -0.404599 -5.33167 0
M  V30 381 H 38.3494 0.775012 -4.09022 0
M  V30 382 H 38.8824 -0.909764 -3.87257 0
M  V30 383 H 35.6214 -3.32361 -5.64992 0
M  V30 384 H 35.1414 -1.61569 -5.77629 0
M  V30 385 H 36.8204 -2.10109 -6.11934 0
M  V30 386 N 36.9525 1.47285 -0.560781 0
M  V30 387 C 37.9155 2.28535 0.174488 0
M  V30 388 C 38.9155 1.37153 0.839388 0
M  V30 389 O 40.1055 1.59748 0.694702 0
M  V30 390 C 37.2375 3.16934 1.25561 0
M  V30 391 H 38.4305 2.95012 -0.539262 0
M  V30 392 H 35.9835 1.53034 -0.317865 0
M  V30 393 H 36.7185 2.55157 2.00164 0
M  V30 394 H 36.5035 3.8419 0.783604 0
M  V30 395 H 37.9935 3.78143 1.77193 0
M  V30 396 N 38.4306 0.297415 1.54768 0
M  V30 397 C 39.3606 -0.573494 2.26348 0
M  V30 398 C 40.3416 -1.14085 1.26169 0
M  V30 399 O 41.5266 -1.17086 1.54934 0
M  V30 400 C 38.6566 -1.74716 3.00153 0
M  V30 401 C 37.6106 -1.31032 4.07449 0
M  V30 402 C 36.9366 -2.56887 4.68949 0
M  V30 403 C 38.2366 -0.444183 5.20408 0
M  V30 404 H 39.9306 0.0235131 2.99391 0
M  V30 405 H 37.4766 0.0127488 1.43994 0
M  V30 406 H 39.4296 -2.3625 3.48947 0
M  V30 407 H 38.1536 -2.37035 2.24682 0
M  V30 408 H 36.8126 -0.718066 3.59499 0
M  V30 409 H 36.4606 -3.17512 3.90122 0
M  V30 410 H 36.1606 -2.2836 5.41411 0
M  V30 411 H 37.6846 -3.19229 5.20505 0
M  V30 412 H 39.0986 -0.9651 5.65118 0
M  V30 413 H 37.4956 -0.252846 5.99567 0
M  V30 414 H 38.5656 0.531609 4.81977 0
M  V30 415 N 39.9087 -1.5758 0.0250728 0
M  V30 416 C 41.3247 -1.56124 -0.331282 0
M  V30 417 C 41.5247 -1.03029 -1.73169 0
M  V30 418 O 40.5807 -0.675215 -2.43305 0
M  V30 419 C 41.8937 -3.00139 -0.183584 0
M  V30 420 C 43.4417 -3.11946 -0.256654 0
M  V30 421 C 43.9167 -4.57793 -0.137792 0
M  V30 422 N 45.4077 -4.6279 -0.194904 0
M  V30 423 C 46.1427 -5.7326 -0.126655 0
M  V30 424 N 45.6387 -6.928 -0.00755288 0
M  V30 425 N 47.4317 -5.61811 -0.180348 0
M  V30 426 H 39.5827 -1.90424 0.94087 0
M  V30 427 H 41.8457 -0.875761 0.362968 0
M  V30 428 H 41.5517 -3.4292 0.780927 0
M  V30 429 H 41.4257 -3.64899 -0.955448 0
M  V30 430 H 43.8127 -2.69079 -1.21162 0
M  V30 431 H 43.8937 -2.49915 0.545517 0
M  V30 432 H 43.5377 -5.01339 0.813739 0
M  V30 433 H 43.4677 -5.17798 -0.958775 0
M  V30 434 H 45.9587 -3.76807 -0.287267 0
M  V30 435 H 46.2717 -7.72791 0.0379428 0
M  V30 436 H 44.6167 -6.94995 0.0271731 0
M  V30 437 H 47.8077 -4.6731 -0.271767 0
M  V30 438 H 47.9807 -6.47882 -0.123697 0
M  V30 439 N 41.3868 0.248026 -1.55636 0
M  V30 440 C 42.6118 0.998028 -1.81808 0
M  V30 441 C 43.0368 1.78207 -0.601979 0
M  V30 442 O 42.3948 1.75653 0.448961 0
M  V30 443 C 42.4428 1.9125 -3.05705 0
M  V30 444 O 41.5468 3.00406 -2.82542 0
M  V30 445 H 40.8878 0.284045 -0.600179 0
M  V30 446 H 43.4178 0.269357 -2.02819 0
M  V30 447 H 43.4278 2.32737 -3.35108 0
M  V30 448 H 42.1028 1.33602 -3.93857 0
M  V30 449 H 40.6798 2.63056 -2.64303 0
M  V30 450 N 42.8649 1.48995 0.513639 0
M  V30 451 C 44.1119 1.57843 1.26854 0
M  V30 452 C 44.4399 0.259501 1.92761 0
M  V30 453 O 43.6949 -0.75159 1.80692 0
M  V30 454 C 43.9939 2.67756 2.36731 0
M  V30 455 C 43.6599 4.09669 1.88368 0
M  V30 456 C 42.3219 4.48291 1.74896 0
M  V30 457 C 44.6739 4.98537 1.52021 0
M  V30 458 C 42.0019 5.73568 1.23438 0
M  V30 459 C 44.3539 6.24319 1.0202 0
M  V30 460 C 43.0179 6.61783 0.871778 0
M  V30 461 H 42.2879 0.577587 0.464192 0
M  V30 462 H 44.9349 1.82778 0.571366 0
M  V30 463 H 43.2399 2.36743 3.12185 0
M  V30 464 H 44.9369 2.71813 2.9482 0
M  V30 465 H 41.5269 3.79176 1.99808 0
M  V30 466 H 45.7109 4.69363 1.61281 0
M  V30 467 H 40.9669 6.01304 1.10648 0
M  V30 468 H 45.1409 6.92566 0.729722 0
M  V30 469 H 42.7679 7.5874 0.470852 0
M  V30 470 N 44.343 -0.763751 1.37857 0
M  V30 471 C 45.306 -1.85889 1.34081 0
M  V30 472 C 46.306 -1.58949 0.243277 0
M  V30 473 O 47.496 -1.66882 0.499589 0
M  V30 474 C 44.628 -3.23176 1.08489 0
M  V30 475 H 45.821 -1.90648 2.31502 0
M  V30 476 H 43.374 -0.964367 1.23003 0
M  V30 477 H 44.109 -3.24091 0.116318 0
M  V30 478 H 43.894 -3.44124 1.8794 0
M  V30 479 H 45.384 -4.03254 1.08517 0
M  V30 480 N 45.8211 -1.22559 -0.990812 0
M  V30 481 C 46.7711 -0.964807 -2.0658 0
M  V30 482 C 47.7551 0.0853472 -1.60673 0
M  V30 483 O 48.9471 -0.125443 -1.76555 0
M  V30 484 C 46.0761 -0.546707 -3.38919 0
M  V30 485 C 45.1621 -1.6317 -3.91454 0
M  V30 486 N 45.5531 -2.85985 -4.17189 0
M  V30 487 C 43.8511 -1.50387 -4.19881 0
M  V30 488 C 44.5521 -3.56159 -4.59919 0
M  V30 489 N 43.5281 -2.83637 -4.63736 0
M  V30 490 H 47.3301 -1.89769 -2.24421 0
M  V30 491 H 44.8441 -1.12343 -1.17273 0
M  V30 492 H 46.8411 -0.34119 -4.15502 0
M  V30 493 H 45.5011 0.379254 -3.22478 0
M  V30 494 H 46.5121 -3.22392 -4.05319 0
M  V30 495 H 43.1891 -0.644254 -4.12499 0
M  V30 496 H 44.5791 -4.6139 -4.88435 0
M  V30 497 N 47.2992 1.18797 -1.03562 0
M  V30 498 C 48.5242 1.9314 -0.755764 0
M  V30 499 C 48.9492 1.7537 0.68022 0
M  V30 500 O 48.3072 1.06046 1.47051 0
M  V30 501 C 48.3552 3.42747 -1.12058 0
M  V30 502 O 47.4592 4.11683 -0.243124 0
M  V30 503 H 46.8002 0.602724 -0.278604 0
M  V30 504 H 49.3302 1.50678 -1.3841 0
M  V30 505 H 49.3402 3.93437 -1.08035 0
M  V30 506 H 48.0152 3.55002 -2.16672 0
M  V30 507 H 46.5922 3.71323 -0.342539 0
M  V30 508 N 48.7773 0.814389 1.34928 0
M  V30 509 C 50.0173 0.404165 2.00364 0
M  V30 510 C 50.3813 -1.01166 1.63185 0
M  V30 511 O 51.5823 -1.52431 2.21401 0
M  V30 512 C 49.8533 0.590718 3.52484 0
M  V30 513 S 51.4123 0.272075 4.37956 0
M  V30 514 H 48.2303 0.15311 0.694319 0
M  V30 515 H 50.8323 1.05834 1.64376 0
M  V30 516 H 49.5363 1.62099 3.77031 0
M  V30 517 H 49.0673 -0.0785013 3.93322 0
M  V30 518 H 51.0823 -0.917405 4.87645 0
M  V30 519 N 50.2554 -1.46986 0.568584 0
M  V30 520 C 51.5034 -2.02041 0.0487022 0
M  V30 521 C 51.8244 -1.44408 -1.31039 0
M  V30 522 O 51.0944 -0.623477 -1.85714 0
M  V30 523 H 49.6744 -0.746849 0.015014 0
M  V30 524 H 52.3364 -1.80257 0.741168 0
M  V30 525 H 51.4324 -3.12085 -0.0308961 0
M  V30 526 N 51.7335 -0.305618 -1.54608 0
M  V30 527 C 52.9635 0.304333 -2.04346 0
M  V30 528 C 53.3715 1.47715 -1.18224 0
M  V30 529 O 52.7145 1.82591 -0.201577 0
M  V30 530 C 52.7765 0.819031 -3.50046 0
M  V30 531 C 52.4405 -0.22912 -4.56425 0
M  V30 532 C 53.4375 -1.05914 -5.08997 0
M  V30 533 C 51.1225 -0.372148 -5.0092 0
M  V30 534 C 53.1165 -2.01809 -6.04609 0
M  V30 535 C 50.8035 -1.33454 -5.9635 0
M  V30 536 C 51.8015 -2.15599 -6.48079 0
M  V30 537 O 51.4895 -3.10205 -7.41639 0
M  V30 538 H 51.2215 0.0693996 -0.672428 0
M  V30 539 H 53.7755 -0.444548 -2.00532 0
M  V30 540 H 52.0055 1.61852 -3.51199 0
M  V30 541 H 53.6945 1.34537 -3.82955 0
M  V30 542 H 54.4605 -0.959538 -4.75413 0
M  V30 543 H 50.3395 0.257304 -4.60281 0
M  V30 544 H 53.8835 -2.65966 -6.44909 0
M  V30 545 H 49.7805 -1.43485 -6.29351 0
M  V30 546 H 50.5485 -3.05237 -7.59455 0
M  V30 547 N 53.2116 1.57565 -0.0334293 0
M  V30 548 C 54.4886 1.83282 0.683163 0
M  V30 549 C 54.8686 0.91823 1.90084 0
M  V30 550 O 54.2166 -0.025113 2.28486 0
M  V30 551 C 54.4266 3.32599 1.0573 0
M  V30 552 C 55.7746 3.99179 1.44711 0
M  V30 553 O 56.7986 3.3712 1.15015 0
M  V30 554 O 55.6576 5.08565 2.0006 0
M  V30 555 H 52.7516 0.755869 0.335546 0
M  V30 556 H 55.2976 1.69589 -0.0614402 0
M  V30 557 H 54.0696 3.90834 0.190828 0
M  V30 558 H 53.6926 3.51415 1.85993 0
M  V30 559 N 54.6897 -0.239769 1.55765 0
M  V30 560 C 56.1057 -0.588624 1.48349 0
M  V30 561 C 56.3057 -1.88005 0.72502 0
M  V30 562 O 55.3617 -2.51186 0.257269 0
M  V30 563 C 56.6747 -0.68474 2.928 0
M  V30 564 C 58.2227 -0.77659 3.03213 0
M  V30 565 C 58.6977 -0.904207 4.48986 0
M  V30 566 N 60.1887 -0.968896 4.52953 0
M  V30 567 C 60.9237 -1.08703 5.63002 0
M  V30 568 N 60.4197 -1.17026 6.82845 0
M  V30 569 N 62.2127 -1.12074 5.50814 0
M  V30 570 H 54.3637 0.607911 2.03515 0
M  V30 571 H 56.6267 0.21083 0.924259 0
M  V30 572 H 56.3327 0.194284 3.51163 0
M  V30 573 H 56.2067 -1.55435 3.43686 0
M  V30 574 H 58.5937 -1.64606 2.44926 0
M  V30 575 H 58.6747 0.118315 2.55526 0
M  V30 576 H 58.3187 -0.0392633 5.07885 0
M  V30 577 H 58.2487 -1.81426 4.9436 0
M  V30 578 H 60.7397 -0.915633 3.6664 0
M  V30 579 H 61.0527 -1.25966 7.62465 0
M  V30 580 H 59.3977 -1.13971 6.85591 0
M  V30 581 H 62.5887 -1.05226 4.5612 0
M  V30 582 H 62.7617 -1.20936 6.36615 0
M  V30 583 N 56.1678 -1.49265 -0.50573 0
M  V30 584 C 57.4148 -1.58513 -1.26015 0
M  V30 585 C 57.7428 -0.26972 -1.92621 0
M  V30 586 O 56.9978 0.741997 -1.81088 0
M  V30 587 C 57.2968 -2.69008 -2.35308 0
M  V30 588 C 56.9628 -4.10662 -1.86192 0
M  V30 589 C 55.6248 -4.49212 -1.72516 0
M  V30 590 C 57.9768 -4.99336 -1.49375 0
M  V30 591 C 55.3048 -5.74214 -1.20394 0
M  V30 592 C 57.6568 -6.24852 -0.987072 0
M  V30 593 C 56.3208 -6.62236 -0.836669 0
M  V30 594 H 55.5908 -0.580041 -0.461122 0
M  V30 595 H 58.2378 -1.83078 -0.561665 0
M  V30 596 H 56.5428 -2.38396 -3.10926 0
M  V30 597 H 58.2398 -2.73373 -2.93374 0
M  V30 598 H 54.8298 -3.8023 -1.97795 0
M  V30 599 H 59.0138 -4.70212 -1.5879 0
M  V30 600 H 54.2698 -6.01883 -1.07458 0
M  V30 601 H 58.4438 -6.92944 -0.692983 0
M  V30 602 H 56.0708 -7.58979 -0.430607 0
M  V30 603 N 57.6459 0.756429 -1.3826 0
M  V30 604 C 58.6089 1.85176 -1.35065 0
M  V30 605 C 59.6089 1.58818 -0.251703 0
M  V30 606 O 60.7989 1.66615 -0.508433 0
M  V30 607 C 57.9309 3.22596 -1.10201 0
M  V30 608 H 59.1239 1.89417 -2.3251 0
M  V30 609 H 56.6769 0.95783 -1.23512 0
M  V30 610 H 57.4119 3.24025 -0.133504 0
M  V30 611 H 57.1969 3.43122 -1.89762 0
M  V30 612 H 58.6869 4.02673 -1.10654 0
M  V30 613 N 59.124 1.23083 0.984299 0
M  V30 614 C 60.354 1.08556 1.75781 0
M  V30 615 C 60.762 -0.366171 1.85623 0
M  V30 616 O 60.105 -1.26524 1.33182 0
M  V30 617 C 60.167 1.63208 3.20318 0
M  V30 618 C 59.831 3.11922 3.33997 0
M  V30 619 C 60.828 4.09259 3.2063 0
M  V30 620 C 58.513 3.51552 3.58771 0
M  V30 621 C 60.507 5.4421 3.31835 0
M  V30 622 C 58.194 4.86649 3.69616 0
M  V30 623 C 59.192 5.82787 3.56157 0
M  V30 624 O 58.88 7.15431 3.66626 0
M  V30 625 H 58.612 0.380713 0.5586 0
M  V30 626 H 61.166 1.63321 1.2456 0
M  V30 627 H 59.396 1.0286 3.72769 0
M  V30 628 H 61.085 1.44216 3.79416 0
M  V30 629 H 61.851 3.79984 3.01392 0
M  V30 630 H 57.73 2.77239 3.6832 0
M  V30 631 H 61.274 6.1923 3.21247 0
M  V30 632 H 57.171 5.15601 3.88363 0
M  V30 633 H 57.939 7.23127 3.83445 0
M  V30 634 N 60.6021 -1.18246 1.0419 0
M  V30 635 C 61.5321 -2.24127 0.654914 0
M  V30 636 C 62.5131 -1.66617 -0.342451 0
M  V30 637 O 63.6981 -1.92924 -0.222277 0
M  V30 638 C 60.8281 -3.47295 0.0183757 0
M  V30 639 C 59.7821 -4.17563 0.939414 0
M  V30 640 C 59.1081 -5.34438 0.167286 0
M  V30 641 C 60.4081 -4.70917 2.25908 0
M  V30 642 H 62.1021 -2.56753 1.54007 0
M  V30 643 H 59.6481 -1.23414 0.74195 0
M  V30 644 H 61.6011 -4.20572 -0.264082 0
M  V30 645 H 60.3251 -3.13907 -0.901664 0
M  V30 646 H 58.9841 -3.46186 1.20628 0
M  V30 647 H 58.6321 -4.97298 -0.7552 0
M  V30 648 H 58.3321 -5.82388 0.780901 0
M  V30 649 H 59.8561 -6.10504 -0.108125 0
M  V30 650 H 61.2701 -5.35882 2.03724 0
M  V30 651 H 59.6671 -5.29406 2.82577 0
M  V30 652 H 60.7371 -3.88272 2.9047 0
M  V30 653 N 62.0802 -0.821533 -1.34494 0
M  V30 654 C 63.0122 -0.199946 -2.28326 0
M  V30 655 C 64.0252 0.609377 -1.50965 0
M  V30 656 O 65.2142 0.439285 -1.7301 0
M  V30 657 C 62.3142 0.738431 -3.30757 0
M  V30 658 C 61.4872 -0.0277632 -4.37391 0
M  V30 659 C 60.5462 0.831332 -5.19591 0
M  V30 660 O 59.5722 0.276822 -5.68526 0
M  V30 661 N 60.7742 2.15132 -5.39165 0
M  V30 662 H 63.5392 -1.00609 -2.82308 0
M  V30 663 H 61.1002 -0.678366 -1.47003 0
M  V30 664 H 63.0922 1.31773 -3.82646 0
M  V30 665 H 61.6622 1.44533 -2.7718 0
M  V30 666 H 60.8822 -0.788359 -3.86236 0
M  V30 667 H 62.1702 -0.555251 -5.05761 0
M  V30 668 H 61.5682 2.62559 -5.01078 0
M  V30 669 H 60.1252 2.6795 -5.94177 0
M  V30 670 N 63.5583 1.46682 -0.576371 0
M  V30 671 C 64.5053 2.30241 0.160499 0
M  V30 672 C 65.4753 1.40233 0.890162 0
M  V30 673 O 66.6603 1.69186 0.882084 0
M  V30 674 C 63.8003 3.24578 1.1723 0
M  V30 675 C 62.9133 4.29684 0.446736 0
M  V30 676 C 62.0483 5.11154 1.44551 0
M  V30 677 C 61.0873 6.08015 0.70599 0
M  V30 678 N 60.2243 6.82376 1.65251 0
M  V30 679 H 65.0643 2.92727 -0.558127 0
M  V30 680 H 62.6013 1.44272 -0.287056 0
M  V30 681 H 64.5593 3.77711 1.77172 0
M  V30 682 H 63.1893 2.63916 1.85872 0
M  V30 683 H 62.2413 3.79458 -0.267594 0
M  V30 684 H 63.5533 4.98626 -0.131686 0
M  V30 685 H 62.7073 5.68533 2.11791 0
M  V30 686 H 61.4463 4.42158 2.05786 0
M  V30 687 H 60.4513 5.49796 0.0197725 0
M  V30 688 H 61.6763 6.79028 0.09912 0
M  V30 689 H 59.6223 6.16094 2.25308 0
M  V30 690 H 59.5393 7.47556 1.12673 0
M  V30 691 H 60.8073 7.44316 2.31546 0
M  V30 692 N 65.0364 0.313813 1.54444 0
M  V30 693 C 66.3134 -0.345447 1.92525 0
M  V30 694 C 66.6934 -1.70667 1.24242 0
M  V30 695 O 66.0414 -2.25273 0.382654 0
M  V30 696 C 66.2514 -0.44737 3.46121 0
M  V30 697 C 67.5994 -0.712238 4.18584 0
M  V30 698 O 68.6234 -0.530678 3.52225 0
M  V30 699 O 67.4824 -1.06183 5.36085 0
M  V30 700 H 64.5764 -0.195407 0.803583 0
M  V30 701 H 67.1224 0.362813 1.65776 0
M  V30 702 H 65.8944 0.509043 3.87975 0
M  V30 703 H 65.5174 -1.20359 3.78945 0
M  V30 704 N 66.5145 -1.57545 0.0417849 0
M  V30 705 C 67.7625 -1.91937 -0.632829 0
M  V30 706 C 68.0835 -0.919978 -1.71934 0
M  V30 707 O 67.3535 0.0366064 -1.95866 0
M  V30 708 H 65.9335 -0.708493 -0.236742 0
M  V30 709 H 68.5955 -1.9468 0.0925745 0
M  V30 710 H 67.6915 -2.92912 -1.07746 0
M  V30 711 N 67.9926 0.231505 -1.5589 0
M  V30 712 C 69.2206 0.974505 -1.82513 0
M  V30 713 C 69.6356 1.78344 -0.619591 0
M  V30 714 O 68.9926 1.77792 0.411848 0
M  V30 715 C 69.0436 1.90007 -3.07538 0
M  V30 716 O 68.7646 1.12385 -4.2344 0
M  V30 717 C 70.2656 2.75779 -3.47075 0
M  V30 718 H 67.4856 0.286065 -0.606966 0
M  V30 719 H 70.0296 0.249739 -2.02969 0
M  V30 720 H 68.1846 2.57891 -2.89086 0
M  V30 721 H 68.5986 1.75125 -4.944 0
M  V30 722 H 70.0726 3.36443 -4.37619 0
M  V30 723 H 70.5496 3.47672 -2.68367 0
M  V30 724 H 71.1556 2.13323 -3.67931 0
M  V30 725 N 69.4707 1.49531 0.497807 0
M  V30 726 C 70.4027 1.62559 1.61578 0
M  V30 727 C 71.4157 0.508134 1.54667 0
M  V30 728 O 72.6047 0.780309 1.60541 0
M  V30 729 C 69.7047 1.56925 3.00379 0
M  V30 730 C 68.8777 2.84257 3.3244 0
M  V30 731 C 67.9367 2.71632 4.50669 0
M  V30 732 O 66.9627 3.4557 4.52294 0
M  V30 733 N 68.1647 1.83391 5.5077 0
M  V30 734 H 70.9297 2.58981 1.50828 0
M  V30 735 H 68.4907 1.4666 0.685743 0
M  V30 736 H 70.4827 1.46129 3.77397 0
M  V30 737 H 69.0527 0.683483 3.05037 0
M  V30 738 H 68.2727 3.09381 2.44289 0
M  V30 739 H 69.5607 3.68666 3.5066 0
M  V30 740 H 68.9587 1.22583 5.52259 0
M  V30 741 H 67.5157 1.78515 6.26878 0
M  V30 742 N 70.9488 -0.749086 1.3866 0
M  V30 743 C 72.1948 -1.51056 1.35314 0
M  V30 744 C 72.5278 -1.94121 -0.0553751 0
M  V30 745 O 71.8028 -1.65763 -1.01749 0
M  V30 746 C 72.0858 -2.76003 2.31288 0
M  V30 747 C 71.9388 -2.39047 3.8102 0
M  V30 748 C 73.2578 -3.78046 2.2532 0
M  V30 749 H 70.3768 -0.547972 0.492844 0
M  V30 750 H 73.0188 -0.857628 1.69543 0
M  V30 751 H 71.1688 -3.31716 2.02229 0
M  V30 752 H 72.8408 -1.89074 4.20771 0
M  V30 753 H 71.0838 -1.71449 3.98482 0
M  V30 754 H 71.7548 -3.28462 4.4364 0
M  V30 755 H 74.2308 -3.31884 2.50983 0
M  V30 756 H 73.1068 -4.63159 2.94576 0
M  V30 757 H 73.3678 -4.23957 1.25352 0
M  V30 758 N 72.4269 -1.23603 -0.977757 0
M  V30 759 C 73.8429 -0.999251 -1.24447 0
M  V30 760 C 74.0429 0.298053 -1.99283 0
M  V30 761 O 73.0989 1.01681 -2.31122 0
M  V30 762 C 74.4119 -2.20784 -2.04144 0
M  V30 763 C 75.9599 -2.25303 -2.17273 0
M  V30 764 C 76.4349 -3.45755 -3.00362 0
M  V30 765 N 77.9259 -3.4601 -3.07947 0
M  V30 766 C 78.6609 -4.35868 -3.72568 0
M  V30 767 N 78.1569 -5.35966 -4.38991 0
M  V30 768 N 79.9499 -4.23605 -3.6948 0
M  V30 769 H 72.1009 -2.06986 -0.476483 0
M  V30 770 H 74.3639 -0.907801 -0.273134 0
M  V30 771 H 74.0699 -3.14945 -1.56533 0
M  V30 772 H 73.9439 -2.22085 -3.04891 0
M  V30 773 H 76.3309 -1.3168 -2.64092 0
M  V30 774 H 76.4119 -2.28033 -1.15907 0
M  V30 775 H 76.0559 -4.39687 -2.5424 0
M  V30 776 H 75.9859 -3.40266 -4.01904 0
M  V30 777 H 78.4769 -2.73588 -2.60688 0
M  V30 778 H 78.7899 -6.00783 -4.86086 0
M  V30 779 H 77.1349 -5.39863 -4.37691 0
M  V30 780 H 80.3259 -3.44647 -3.16759 0
M  V30 781 H 80.4989 -4.93836 -4.1956 0
M  V30 782 N 73.905 1.17692 -1.04816 0
M  V30 783 C 75.133 1.91786 -0.776254 0
M  V30 784 C 75.548 1.76604 0.667577 0
M  V30 785 O 74.905 1.10067 1.45573 0
M  V30 786 C 74.956 3.42967 -1.14263 0
M  V30 787 O 74.677 3.57678 -2.52978 0
M  V30 788 C 76.178 4.34144 -0.896311 0
M  V30 789 H 73.398 0.608624 -0.282519 0
M  V30 790 H 75.942 1.49268 -1.39783 0
M  V30 791 H 74.097 3.83245 -0.565874 0
M  V30 792 H 74.511 4.51319 -2.67229 0
M  V30 793 H 75.985 5.38744 -1.20244 0
M  V30 794 H 76.462 4.38876 0.168636 0
M  V30 795 H 77.068 3.99574 -1.45672 0
M  V30 796 N 75.3831 0.828654 1.34056 0
M  V30 797 C 76.6301 0.419458 1.98108 0
M  V30 798 C 76.9581 -1.01886 1.65679 0
M  V30 799 O 76.2131 -1.72539 0.923512 0
M  V30 800 C 76.5121 0.575226 3.52741 0
M  V30 801 C 76.1781 1.98012 4.05095 0
M  V30 802 C 74.8401 2.36442 4.19104 0
M  V30 803 C 77.1921 2.89824 4.33188 0
M  V30 804 C 74.5201 3.66009 4.58535 0
M  V30 805 C 76.8721 4.1886 4.74066 0
M  V30 806 C 75.5361 4.5726 4.86281 0
M  V30 807 H 74.8061 0.153491 0.724929 0
M  V30 808 H 77.4531 1.05371 1.59904 0
M  V30 809 H 75.7581 -0.142385 3.91541 0
M  V30 810 H 77.4551 0.239057 4.00287 0
M  V30 811 H 74.0451 1.67162 3.94658 0
M  V30 812 H 78.2291 2.61375 4.21897 0
M  V30 813 H 73.4851 3.95579 4.66184 0
M  V30 814 H 77.6591 4.90086 4.94761 0
M  V30 815 H 75.2861 5.57707 5.16592 0
M  V30 816 N 76.8612 -1.46375 0.584142 0
M  V30 817 C 77.8112 -2.27371 -0.169232 0
M  V30 818 C 78.7952 -1.35955 -0.860523 0
M  V30 819 O 79.9872 -1.60119 -0.754382 0
M  V30 820 C 77.1162 -3.22334 -1.18134 0
M  V30 821 C 76.2022 -4.21235 -0.492088 0
M  V30 822 N 76.5932 -5.03766 0.453129 0
M  V30 823 C 74.8912 -4.39773 -0.742652 0
M  V30 824 C 75.5922 -5.75366 0.85609 0
M  V30 825 N 74.5682 -5.43214 0.204926 0
M  V30 826 H 78.3702 -2.88572 0.557097 0
M  V30 827 H 75.8842 -1.57242 0.406042 0
M  V30 828 H 77.8812 -3.79071 -1.73525 0
M  V30 829 H 76.5412 -2.62693 -1.90847 0
M  V30 830 H 77.5522 -5.11227 0.828723 0
M  V30 831 H 74.2292 -3.91279 -1.45625 0
M  V30 832 H 75.6192 -6.5172 1.63434 0
M  V30 833 N 78.3393 -0.321999 -1.54275 0
M  V30 834 C 79.5643 0.285791 -2.05422 0
M  V30 835 C 79.9893 1.45124 -1.19669 0
M  V30 836 O 79.3473 1.80132 -0.205441 0
M  V30 837 C 79.3953 0.69956 -3.53749 0
M  V30 838 O 78.4993 1.8021 -3.70942 0
M  V30 839 H 77.8403 0.0518962 -0.661969 0
M  V30 840 H 80.3703 -0.469954 -1.9913 0
M  V30 841 H 80.3803 0.982649 -3.9599 0
M  V30 842 H 79.0553 -0.152864 -4.15619 0
M  V30 843 H 77.6323 1.51794 -3.40607 0
M  V30 844 N 79.8174 1.5752 -0.0501392 0
M  V30 845 C 81.0474 1.96678 0.632573 0
M  V30 846 C 81.4554 0.926298 1.64974 0
M  V30 847 O 80.7984 -0.09802 1.83438 0
M  V30 848 C 80.8604 3.32068 1.37735 0
M  V30 849 C 80.5244 4.54076 0.516131 0
M  V30 850 C 81.5214 5.19445 -0.217357 0
M  V30 851 C 79.2064 5.00304 0.44736 0
M  V30 852 C 81.2004 6.29378 -1.00807 0
M  V30 853 C 78.8874 6.10114 -0.347038 0
M  V30 854 C 79.8854 6.74512 -1.07344 0
M  V30 855 O 79.5734 7.82211 -1.85477 0
M  V30 856 H 79.3054 0.652193 0.177821 0
M  V30 857 H 81.8594 2.05091 -0.112543 0
M  V30 858 H 80.0894 3.20206 2.16807 0
M  V30 859 H 81.7784 3.55981 1.95019 0
M  V30 860 H 82.5444 4.84689 -0.173688 0
M  V30 861 H 78.4234 4.49971 1.00235 0
M  V30 862 H 81.9674 6.79575 -1.57556 0
M  V30 863 H 77.8644 6.44307 -0.392349 0
M  V30 864 H 78.6324 7.98982 -1.77678 0
M  V30 865 N 81.2955 -0.223234 1.56011 0
M  V30 866 C 82.7065 -0.790368 1.69145 0
M  V30 867 C 83.0575 -1.85055 0.651845 0
M  V30 868 O 82.1825 -2.15498 -0.197359 0
M  V30 869 C 82.7775 -1.4404 3.06656 0
M  V30 870 C 81.3365 -1.95494 3.2165 0
M  V30 871 C 80.4835 -0.814506 2.65068 0
M  V30 872 H 83.4345 0.00139011 1.587 0
M  V30 873 H 83.4555 -2.30916 3.0242 0
M  V30 874 H 82.9675 -0.668543 3.82298 0
M  V30 875 H 81.0685 -2.75487 2.50874 0
M  V30 876 H 81.1815 -2.13607 4.28846 0
M  V30 877 H 79.5455 -1.22137 2.23505 0
M  V30 878 H 80.3285 -0.0553515 3.43255 0
M  V30 879 N 82.7736 -1.49793 -0.48987 0
M  V30 880 C 84.0216 -1.59525 -1.24081 0
M  V30 881 C 84.3426 -0.288953 -1.92847 0
M  V30 882 O 83.6126 0.692436 -1.83254 0
M  V30 883 H 82.1926 -0.587796 -0.460983 0
M  V30 884 H 84.8546 -1.86477 -0.566778 0
M  V30 885 H 83.9506 -2.39696 -1.99881 0
M  V30 886 N 84.2517 0.741722 -1.39055 0
M  V30 887 C 85.6627 1.31966 -1.32068 0
M  V30 888 C 86.0137 1.96192 0.0180797 0
M  V30 889 O 85.1387 1.95861 0.920196 0
M  V30 890 C 85.7337 2.39954 -2.39181 0
M  V30 891 C 84.2927 2.93438 -2.35735 0
M  V30 892 C 83.4397 1.66936 -2.21422 0
M  V30 893 H 86.3907 0.539721 -1.4924 0
M  V30 894 H 86.4117 3.20182 -2.05581 0
M  V30 895 H 85.9237 1.9318 -3.36605 0
M  V30 896 H 84.0247 3.4451 -1.41929 0
M  V30 897 H 84.1377 3.4701 -3.30335 0
M  V30 898 H 82.5017 1.91016 -1.68478 0
M  V30 899 H 83.2847 1.22224 -3.20806 0
M  V30 900 N 85.7298 1.2412 0.971189 0
M  V30 901 C 86.9758 1.09048 1.71698 0
M  V30 902 C 87.3308 -0.367442 1.88859 0
M  V30 903 O 86.6238 -1.26792 1.43646 0
M  V30 904 C 86.8178 1.75983 3.11071 0
M  V30 905 C 86.6468 3.28133 3.07504 0
M  V30 906 C 85.4168 3.97331 3.1218 0
M  V30 907 C 87.6148 4.24773 2.89952 0
M  V30 908 N 85.5968 5.3639 2.98596 0
M  V30 909 C 86.9678 5.50806 2.84627 0
M  V30 910 C 89.0228 4.15392 2.74506 0
M  V30 911 C 87.7258 6.68533 2.65437 0
M  V30 912 C 89.7518 5.32793 2.56682 0
M  V30 913 C 89.1138 6.57756 2.52063 0
M  V30 914 H 85.2128 0.453632 0.636979 0
M  V30 915 H 87.7968 1.56983 1.15171 0
M  V30 916 H 85.9678 1.30566 3.65796 0
M  V30 917 H 87.6998 1.53803 3.74335 0
M  V30 918 H 84.4548 3.48473 3.20724 0
M  V30 919 H 84.8788 6.09321 2.95054 0
M  V30 920 H 89.5208 3.19543 2.76861 0
M  V30 921 H 87.2388 7.64509 2.61825 0
M  V30 922 H 90.8248 5.27383 2.4568 0
M  V30 923 H 89.7048 7.4707 2.38446 0
M  V30 924 N 87.2079 -1.17134 1.05439 0
M  V30 925 C 88.1179 -2.24878 0.668365 0
M  V30 926 C 89.1339 -1.71186 -0.311687 0
M  V30 927 O 90.3099 -2.00738 -0.163161 0
M  V30 928 C 87.3749 -3.46662 0.051648 0
M  V30 929 C 86.4359 -4.15429 1.08246 0
M  V30 930 C 85.6689 -5.31399 0.495082 0
M  V30 931 O 85.8919 -5.66153 -0.694743 0
M  V30 932 O 84.8259 -5.89187 1.23056 0
M  V30 933 H 88.6519 -2.60189 1.56637 0
M  V30 934 H 86.2369 -1.24482 0.826104 0
M  V30 935 H 88.1189 -4.20394 -0.290966 0
M  V30 936 H 86.7939 -3.13142 -0.819971 0
M  V30 937 H 85.7009 -3.43704 1.47711 0
M  V30 938 H 87.0339 -4.52982 1.92532 0
M  V30 939 N 88.686 -0.835752 -1.33615 0
M  V30 940 C 89.911 -0.442389 -2.02627 0
M  V30 941 C 90.336 0.947735 -1.62479 0
M  V30 942 O 89.694 1.61907 -0.815826 0
M  V30 943 C 89.742 -0.567216 -3.56111 0
M  V30 944 O 88.846 0.407799 -4.10379 0
M  V30 945 H 88.187 -0.180278 -0.639059 0
M  V30 946 H 90.717 -1.12972 -1.70583 0
M  V30 947 H 90.727 -0.447708 -4.05536 0
M  V30 948 H 89.402 -1.58103 -3.84677 0
M  V30 949 H 87.979 0.246107 -3.72087 0
M  V30 950 N 90.1641 1.46063 -0.591896 0
M  V30 951 C 91.4131 2.01547 -0.0786637 0
M  V30 952 C 91.7261 1.46796 1.29268 0
M  V30 953 O 92.9321 1.94157 1.89777 0
M  V30 954 C 91.3881 3.59787 -0.0900024 0
M  V30 955 C 90.9961 4.23534 -1.46023 0
M  V30 956 C 92.7401 4.22895 0.368806 0
M  V30 957 C 90.6471 5.73881 -1.4288 0
M  V30 958 H 89.5771 0.753564 -0.0256388 0
M  V30 959 H 92.2281 1.677 -0.744905 0
M  V30 960 H 90.6101 3.90752 0.642586 0
M  V30 961 H 91.7841 4.04167 -2.21328 0
M  V30 962 H 90.0991 3.72558 -1.85982 0
M  V30 963 H 92.6961 5.33116 0.411258 0
M  V30 964 H 93.0391 3.9247 1.38827 0
M  V30 965 H 93.5721 3.9659 -0.31001 0
M  V30 966 H 90.3111 6.0898 -2.42536 0
M  V30 967 H 89.8311 5.95486 -0.718095 0
M  V30 968 H 91.5101 6.36776 -1.14565 0
M  V30 969 N 91.6422 0.330177 1.54103 0
M  V30 970 C 92.8722 -0.271784 2.04805 0
M  V30 971 C 93.2802 -1.45816 1.20559 0
M  V30 972 O 92.6232 -1.82247 0.2306 0
M  V30 973 C 92.6852 -0.763238 3.51305 0
M  V30 974 C 92.3492 0.301705 4.56003 0
M  V30 975 C 93.3462 1.13999 5.07248 0
M  V30 976 C 91.0312 0.451793 5.00264 0
M  V30 977 C 93.0252 2.11402 6.01322 0
M  V30 978 C 90.7122 1.42924 5.94151 0
M  V30 979 C 91.7102 2.25882 6.44567 0
M  V30 980 O 91.3982 3.21965 7.3661 0
M  V30 981 H 91.1302 -0.058693 0.673447 0
M  V30 982 H 93.6842 0.476395 1.99799 0
M  V30 983 H 91.9142 -1.56244 3.5373 0
M  V30 984 H 93.6032 -1.28427 3.85047 0
M  V30 985 H 94.3692 1.03505 4.73827 0
M  V30 986 H 90.2482 -0.184044 4.60632 0
M  V30 987 H 93.7922 2.76192 6.40596 0
M  V30 988 H 89.6892 1.53479 6.26988 0
M  V30 989 H 90.4572 3.17281 7.54503 0
M  V30 990 N 93.1203 -1.57491 0.0584922 0
M  V30 991 C 94.0503 -2.14988 -0.911178 0
M  V30 992 C 95.0313 -1.07343 -1.31952 0
M  V30 993 O 96.2163 -1.35318 -1.39294 0
M  V30 994 C 93.3463 -2.70078 -2.18347 0
M  V30 995 C 92.3003 -3.82771 -1.91495 0
M  V30 996 C 91.6263 -4.24408 -3.25241 0
M  V30 997 C 92.9263 -5.07592 -1.23075 0
M  V30 998 H 94.6203 -2.96263 -0.432246 0
M  V30 999 H 92.1663 -1.42512 -0.206469 0
M  V30 1000 H 94.1193 -3.08943 -2.86587 0
M  V30 1001 H 92.8433 -1.86005 -2.68458 0
M  V30 1002 H 91.5023 -3.44389 -1.25664 0
M  V30 1003 H 91.1503 -3.37275 -3.73168 0
M  V30 1004 H 90.8503 -5.00366 -3.08071 0
M  V30 1005 H 92.3743 -4.65879 -3.94701 0
M  V30 1006 H 93.7883 -5.43857 -1.81362 0
M  V30 1007 H 92.1853 -5.88741 -1.16207 0
M  V30 1008 H 93.2553 -4.84454 -0.207847 0
M  V30 1009 N 94.5984 0.214957 -1.56127 0
M  V30 1010 C 95.8464 0.936518 -1.79091 0
M  V30 1011 C 96.1674 1.84606 -0.628148 0
M  V30 1012 O 95.4374 1.92664 0.35462 0
M  V30 1013 H 94.0174 0.3488 -0.660566 0
M  V30 1014 H 96.6794 0.22523 -1.93594 0
M  V30 1015 H 95.7754 1.53943 -2.71492 0
M  V30 1016 N 96.0765 1.50051 0.48192 0
M  V30 1017 C 97.3015 1.64508 1.26301 0
M  V30 1018 C 97.7265 0.323851 1.85291 0
M  V30 1019 O 97.0845 -0.710969 1.66778 0
M  V30 1020 C 97.1325 2.7305 2.35533 0
M  V30 1021 O 96.2365 2.3355 3.39895 0
M  V30 1022 H 95.5775 0.549978 0.372048 0
M  V30 1023 H 98.1075 1.9636 0.574786 0
M  V30 1024 H 98.1175 2.95799 2.8101 0
M  V30 1025 H 96.7925 3.68946 1.91967 0
M  V30 1026 H 95.3695 2.21205 3.00204 0
M  V30 1027 N 97.5546 -0.734337 1.39446 0
M  V30 1028 C 98.8316 -1.48579 1.27215 0
M  V30 1029 C 99.2116 -2.1077 -0.117968 0
M  V30 1030 O 98.5596 -1.98646 -1.12924 0
M  V30 1031 C 98.7696 -2.53667 2.39696 0
M  V30 1032 C 100.118 -3.20031 2.79044 0
M  V30 1033 O 101.142 -2.6398 2.39151 0
M  V30 1034 O 100.001 -4.21455 3.47905 0
M  V30 1035 H 97.0946 -0.659816 0.49857 0
M  V30 1036 H 99.6406 -0.768106 1.51322 0
M  V30 1037 H 98.4126 -2.06096 3.32626 0
M  V30 1038 H 98.0356 -3.32994 2.17258 0
M  V30 1039 N 99.0327 -1.24633 -0.964593 0
M  V30 1040 C 100.263 -1.11339 -1.74032 0
M  V30 1041 C 100.671 0.336593 -1.86182 0
M  V30 1042 O 100.014 1.24389 -1.35178 0
M  V30 1043 C 100.076 -1.68284 -3.1768 0
M  V30 1044 C 99.7397 -3.17196 -3.28992 0
M  V30 1045 C 100.737 -4.14308 -3.14078 0
M  V30 1046 C 98.4217 -3.57215 -3.53133 0
M  V30 1047 C 100.416 -5.4942 -3.23135 0
M  V30 1048 C 98.1027 -4.92468 -3.61827 0
M  V30 1049 C 99.1007 -5.8838 -3.46841 0
M  V30 1050 O 98.7887 -7.21173 -3.55197 0
M  V30 1051 H 98.5207 -0.389551 -0.552472 0
M  V30 1052 H 101.075 -1.65282 -1.21946 0
M  V30 1053 H 99.3047 -1.08777 -3.71085 0
M  V30 1054 H 100.994 -1.50234 -3.77074 0
M  V30 1055 H 101.76 -3.84731 -2.95308 0
M  V30 1056 H 97.6387 -2.83063 -3.63863 0
M  V30 1057 H 101.183 -6.24263 -3.11355 0
M  V30 1058 H 97.0797 -5.21714 -3.80111 0
M  V30 1059 H 97.8477 -7.29135 -3.71892 0
M  V30 1060 N 100.511 1.16574 -1.06058 0
M  V30 1061 C 101.758 1.87047 -0.775873 0
M  V30 1062 C 102.086 1.81562 0.697534 0
M  V30 1063 O 101.341 1.22445 1.52662 0
M  V30 1064 C 101.64 3.36195 -1.21275 0
M  V30 1065 C 101.306 3.6188 -2.68986 0
M  V30 1066 C 99.9678 3.68599 -3.09335 0
M  V30 1067 C 102.32 3.72648 -3.64394 0
M  V30 1068 C 99.6478 3.83584 -4.43937 0
M  V30 1069 C 102 3.89154 -4.98741 0
M  V30 1070 C 100.664 3.94114 -5.3873 0
M  V30 1071 H 99.9338 0.684452 -0.283912 0
M  V30 1072 H 102.581 1.37853 -1.32925 0
M  V30 1073 H 100.886 3.87505 -0.578528 0
M  V30 1074 H 102.583 3.89103 -0.969542 0
M  V30 1075 H 99.1728 3.57281 -2.36744 0
M  V30 1076 H 103.357 3.66769 -3.34356 0
M  V30 1077 H 98.6128 3.85677 -4.74409 0
M  V30 1078 H 102.787 3.96427 -5.72554 0
M  V30 1079 H 100.414 4.05478 -6.43033 0
M  V30 1080 N 101.989 0.842826 1.3317 0
M  V30 1081 C 102.937 0.267495 2.31057 0
M  V30 1082 C 103.931 -0.602682 1.58316 0
M  V30 1083 O 105.137 -0.491803 1.73151 0
M  V30 1084 H 101.512 0.0677813 0.748939 0
M  V30 1085 H 103.483 1.10754 2.77085 0
M  V30 1086 C 102.232 -0.539331 3.43492 0
M  V30 1087 H 101.555 0.12095 3.99617 0
M  V30 1088 H 102.995 -0.90767 4.14171 0
M  V30 1089 C 101.454 -1.71981 2.89697 0
M  V30 1090 O 101.984 -2.81862 2.86211 0
M  V30 1091 N 100.19 -1.54299 2.46252 0
M  V30 1092 H 99.7369 -0.649143 2.49287 0
M  V30 1093 H 99.6949 -2.33431 2.10612 0
M  V30 1094 N 103.467 -1.45747 0.599634 0
M  V30 1095 C 104.716 -2.01502 0.0893511 0
M  V30 1096 C 105.029 -1.4748 -1.28488 0
M  V30 1097 O 106.235 -1.95161 -1.88745 0
M  V30 1098 C 104.691 -3.59735 0.109082 0
M  V30 1099 C 104.299 -4.22754 1.48267 0
M  V30 1100 C 106.043 -4.23085 -0.346374 0
M  V30 1101 C 103.95 -5.73115 1.45921 0
M  V30 1102 H 102.88 -0.753417 0.0296347 0
M  V30 1103 H 105.531 -1.67303 0.753788 0
M  V30 1104 H 103.913 -3.91087 -0.621854 0
M  V30 1105 H 105.087 -4.02987 2.23468 0
M  V30 1106 H 103.402 -3.71567 1.87955 0
M  V30 1107 H 105.999 -5.33327 -0.38298 0
M  V30 1108 H 106.342 -3.93201 -1.36743 0
M  V30 1109 H 106.875 -3.9642 0.331038 0
M  V30 1110 H 103.614 -6.07685 2.45762 0
M  V30 1111 H 103.134 -5.95097 0.749665 0
M  V30 1112 H 104.813 -6.3616 1.17941 0
M  V30 1113 N 104.945 -0.338344 -1.53925 0
M  V30 1114 C 106.222 0.314774 -1.93051 0
M  V30 1115 C 106.602 1.68669 -1.26941 0
M  V30 1116 O 105.95 2.24636 -0.418445 0
M  V30 1117 C 106.16 0.392249 -3.46789 0
M  V30 1118 C 107.508 0.645554 -4.19664 0
M  V30 1119 O 108.532 0.474575 -3.53024 0
M  V30 1120 O 107.391 0.976408 -5.37707 0
M  V30 1121 H 104.485 0.182598 -0.80659 0
M  V30 1122 H 107.031 -0.389141 -1.65178 0
M  V30 1123 H 105.803 -0.570702 -3.87116 0
M  V30 1124 H 105.426 1.14316 -3.80812 0
M  V30 1125 N 106.423 1.57458 -0.0668435 0
M  V30 1126 C 107.834 1.80776 0.466558 0
M  V30 1127 C 108.185 0.980361 1.69951 0
M  V30 1128 O 107.31 0.201441 2.1546 0
M  V30 1129 C 107.905 3.27881 0.85321 0
M  V30 1130 C 106.464 3.52062 1.3315 0
M  V30 1131 C 105.611 2.75513 0.314264 0
M  V30 1132 H 108.562 1.5598 -0.292588 0
M  V30 1133 H 108.583 3.39659 1.715 0
M  V30 1134 H 108.095 3.88075 -0.0443439 0
M  V30 1135 H 106.196 2.97167 2.24772 0
M  V30 1136 H 106.309 4.60762 1.31285 0
M  V30 1137 H 104.673 2.42123 0.790492 0
M  V30 1138 H 105.456 3.38442 -0.575477 0
M  V30 1139 N 107.901 -0.206675 1.56239 0
M  V30 1140 C 109.147 -0.930218 1.80208 0
M  V30 1141 C 109.48 -1.83387 0.638981 0
M  V30 1142 O 108.755 -1.91119 -0.361066 0
M  V30 1143 C 109.038 -1.75641 3.1436 0
M  V30 1144 C 108.891 -0.878257 4.41142 0
M  V30 1145 C 110.21 -2.73129 3.45092 0
M  V30 1146 H 107.329 -0.336742 0.655571 0
M  V30 1147 H 109.971 -0.198222 1.88963 0
M  V30 1148 H 108.121 -2.38048 3.07027 0
M  V30 1149 H 109.793 -0.269787 4.6051 0
M  V30 1150 H 108.036 -0.184385 4.33408 0
M  V30 1151 H 108.707 -1.49106 5.3148 0
M  V30 1152 H 111.183 -2.20856 3.52649 0
M  V30 1153 H 110.059 -3.28028 4.40101 0
M  V30 1154 H 110.32 -3.51606 2.68003 0
M  V30 1155 N 109.379 -1.50304 -0.473955 0
M  V30 1156 C 110.309 -1.71886 -1.58042 0
M  V30 1157 C 111.29 -0.567799 -1.60344 0
M  V30 1158 O 112.475 -0.806623 -1.76656 0
M  V30 1159 C 109.605 -1.81036 -2.96384 0
M  V30 1160 C 108.559 -2.962 -3.08949 0
M  V30 1161 C 107.885 -2.9049 -4.48909 0
M  V30 1162 C 109.185 -4.36752 -2.86434 0
M  V30 1163 H 110.879 -2.64527 -1.40234 0
M  V30 1164 H 108.425 -1.27295 -0.673201 0
M  V30 1165 H 110.378 -1.94719 -3.73714 0
M  V30 1166 H 109.102 -0.850147 -3.15341 0
M  V30 1167 H 107.761 -2.82164 -2.3405 0
M  V30 1168 H 107.409 -1.92321 -4.64781 0
M  V30 1169 H 107.109 -3.67802 -4.58253 0
M  V30 1170 H 108.633 -3.06218 -5.28264 0
M  V30 1171 H 110.047 -4.5133 -3.53517 0
M  V30 1172 H 108.444 -5.15493 -3.07225 0
M  V30 1173 H 109.514 -4.49321 -1.82316 0
M  V30 1174 N 110.857 0.726932 -1.39834 0
M  V30 1175 C 111.82 1.82269 -1.38962 0
M  V30 1176 C 112.82 1.58248 -0.285334 0
M  V30 1177 O 114.01 1.65499 -0.54366 0
M  V30 1178 C 111.142 3.20186 -1.17019 0
M  V30 1179 H 112.335 1.84443 -2.36476 0
M  V30 1180 H 109.888 0.931416 -1.25516 0
M  V30 1181 H 110.623 3.23669 -0.202204 0
M  V30 1182 H 110.408 3.3902 -1.96998 0
M  V30 1183 H 111.898 4.00235 -1.1917 0
M  V30 1184 N 112.336 1.25143 0.95797 0
M  V30 1185 C 113.246 1.06968 2.08794 0
M  V30 1186 C 114.262 0.00773911 1.73998 0
M  V30 1187 O 115.438 0.207972 2.00323 0
M  V30 1188 C 112.503 0.68691 3.39827 0
M  V30 1189 C 111.564 1.82641 3.88511 0
M  V30 1190 C 110.797 1.46181 5.1329 0
M  V30 1191 O 111.02 0.355971 5.69288 0
M  V30 1192 O 109.954 2.29085 5.566 0
M  V30 1193 H 113.78 2.01723 2.27027 0
M  V30 1194 H 111.365 1.04051 1.07209 0
M  V30 1195 H 113.247 0.485417 4.18595 0
M  V30 1196 H 111.922 -0.231417 3.22872 0
M  V30 1197 H 110.829 2.08274 3.10762 0
M  V30 1198 H 112.162 2.72386 4.09959 0
M  V30 1199 N 113.814 -1.1601 1.06675 0
M  V30 1200 C 114.777 -2.18724 0.685001 0
M  V30 1201 C 115.777 -1.58496 -0.271246 0
M  V30 1202 O 116.967 -1.74119 -0.0531156 0
M  V30 1203 C 114.099 -3.40899 0.00853648 0
M  V30 1204 H 115.292 -2.54011 1.59431 0
M  V30 1205 H 112.845 -1.30352 0.862441 0
M  V30 1206 H 113.58 -3.11173 -0.913337 0
M  V30 1207 H 113.365 -3.8587 0.696204 0
M  V30 1208 H 114.855 -4.16886 -0.24414 0
M  V30 1209 N 115.292 -0.849877 -1.32721 0
M  V30 1210 C 116.239 -0.289033 -2.28983 0
M  V30 1211 C 117.209 0.601324 -1.54833 0
M  V30 1212 O 118.394 0.537253 -1.8308 0
M  V30 1213 C 115.534 0.520623 -3.4115 0
M  V30 1214 C 114.647 -0.394989 -4.3019 0
M  V30 1215 C 113.782 0.426834 -5.29482 0
M  V30 1216 C 112.821 -0.486476 -6.10164 0
M  V30 1217 N 111.958 0.297879 -7.01468 0
M  V30 1218 H 116.798 -1.11519 -2.76347 0
M  V30 1219 H 114.335 -0.56138 -1.35967 0
M  V30 1220 H 116.293 1.00563 -4.04899 0
M  V30 1221 H 114.923 1.31165 -2.9495 0
M  V30 1222 H 113.975 -0.99836 -3.67065 0
M  V30 1223 H 115.287 -1.09612 -4.86607 0
M  V30 1224 H 114.441 0.975205 -5.98811 0
M  V30 1225 H 113.18 1.16136 -4.73671 0
M  V30 1226 H 112.185 -1.04677 -5.39743 0
M  V30 1227 H 113.41 -1.21953 -6.6806 0
M  V30 1228 H 111.356 1.01558 -6.48091 0
M  V30 1229 H 111.273 -0.344318 -7.55216 0
M  V30 1230 H 112.541 0.828131 -7.75089 0
M  V30 1231 N 116.77 1.45427 -0.607355 0
M  V30 1232 C 118.186 1.57283 -0.270985 0
M  V30 1233 C 118.386 1.59875 1.22647 0
M  V30 1234 O 117.442 1.52893 2.00948 0
M  V30 1235 C 118.755 2.85566 -0.941952 0
M  V30 1236 C 120.303 2.9924 -0.917849 0
M  V30 1237 C 120.778 4.30293 -1.56882 0
M  V30 1238 N 122.269 4.37051 -1.5343 0
M  V30 1239 C 123.004 5.37123 -2.00715 0
M  V30 1240 N 122.5 6.43734 -2.56084 0
M  V30 1241 N 124.293 5.28479 -1.91484 0
M  V30 1242 H 116.444 1.41988 -1.57966 0
M  V30 1243 H 118.707 0.67885 -0.661715 0
M  V30 1244 H 118.413 2.8955 -1.99633 0
M  V30 1245 H 118.287 3.74322 -0.465096 0
M  V30 1246 H 120.674 2.94822 0.127984 0
M  V30 1247 H 120.755 2.11895 -1.43297 0
M  V30 1248 H 120.399 4.35469 -2.61398 0
M  V30 1249 H 120.329 5.16454 -1.02873 0
M  V30 1250 H 122.82 3.60615 -1.12982 0
M  V30 1251 H 123.133 7.16341 -2.89958 0
M  V30 1252 H 121.478 6.44485 -2.60122 0
M  V30 1253 H 124.669 4.44098 -1.47967 0
M  V30 1254 H 124.842 6.0632 -2.28648 0
M  V30 1255 N 118.248 0.346503 1.53744 0
M  V30 1256 C 119.664 -0.00530975 1.59599 0
M  V30 1257 C 119.864 -1.48465 1.36236 0
M  V30 1258 O 118.92 -2.24376 1.15808 0
M  V30 1259 C 120.233 0.433516 2.97559 0
M  V30 1260 C 121.781 0.386111 3.10609 0
M  V30 1261 C 122.256 0.800451 4.50951 0
M  V30 1262 N 123.747 0.754753 4.5701 0
M  V30 1263 C 124.482 1.04727 5.63755 0
M  V30 1264 N 123.978 1.4081 6.7834 0
M  V30 1265 N 125.771 0.971316 5.53644 0
M  V30 1266 H 117.922 1.31009 1.67184 0
M  V30 1267 H 120.185 0.534242 0.783128 0
M  V30 1268 H 119.891 1.46509 3.19731 0
M  V30 1269 H 119.765 -0.189753 3.76722 0
M  V30 1270 H 122.152 -0.636295 2.88158 0
M  V30 1271 H 122.233 1.04462 2.33498 0
M  V30 1272 H 121.877 1.82088 4.74137 0
M  V30 1273 H 121.807 0.119386 5.26465 0
M  V30 1274 H 124.298 0.488662 3.74727 0
M  V30 1275 H 124.611 1.61607 7.55714 0
M  V30 1276 H 122.956 1.44657 6.79779 0
M  V30 1277 H 126.147 0.688748 4.63005 0
M  V30 1278 H 126.32 1.20263 6.36742 0
M  V30 1279 N 119.726 -1.57421 0.075193 0
M  V30 1280 C 121.142 -1.57099 -0.281444 0
M  V30 1281 C 121.342 -1.08486 -1.69803 0
M  V30 1282 O 120.398 -0.752279 -2.41033 0
M  V30 1283 C 121.711 -3.00571 -0.0880041 0
M  V30 1284 C 123.259 -3.12605 -0.157281 0
M  V30 1285 C 123.734 -4.57999 0.0079207 0
M  V30 1286 N 125.225 -4.63176 -0.0475725 0
M  V30 1287 C 125.96 -5.73373 0.0557876 0
M  V30 1288 N 125.456 -6.92473 0.21286 0
M  V30 1289 N 127.249 -5.621 -0.00152098 0
M  V30 1290 H 119.4 -1.87335 1.00098 0
M  V30 1291 H 121.663 -0.86377 0.390646 0
M  V30 1292 H 121.369 -3.40262 0.889629 0
M  V30 1293 H 121.243 -3.67754 -0.838875 0
M  V30 1294 H 123.63 -2.72798 -1.1254 0
M  V30 1295 H 123.711 -2.48053 0.62475 0
M  V30 1296 H 123.355 -4.98496 0.972824 0
M  V30 1297 H 123.285 -5.20586 -0.793556 0
M  V30 1298 H 125.776 -3.7753 -0.167244 0
M  V30 1299 H 126.089 -7.72279 0.283781 0
M  V30 1300 H 124.434 -6.94556 0.248267 0
M  V30 1301 H 127.625 -4.67938 -0.122958 0
M  V30 1302 H 127.798 -6.47948 0.0824844 0
M  V30 1303 N 121.204 0.198386 -1.56346 0
M  V30 1304 C 122.481 0.944982 -1.71258 0
M  V30 1305 C 122.861 2.0151 -0.629048 0
M  V30 1306 O 122.209 2.25639 0.360473 0
M  V30 1307 C 122.419 1.5344 -3.1346 0
M  V30 1308 C 123.767 2.01778 -3.73591 0
M  V30 1309 O 124.791 1.63288 -3.16568 0
M  V30 1310 O 123.65 2.72594 -4.73661 0
M  V30 1311 H 120.744 0.442939 -0.69838 0
M  V30 1312 H 123.29 0.188342 -1.68652 0
M  V30 1313 H 122.062 0.762869 -3.83792 0
M  V30 1314 H 121.685 2.35596 -3.20282 0
M  V30 1315 N 122.682 1.50554 0.465978 0
M  V30 1316 C 123.928 1.62038 1.21949 0
M  V30 1317 C 124.261 0.322116 1.9151 0
M  V30 1318 O 123.536 -0.676723 1.82348 0
M  V30 1319 C 123.819 2.80421 2.25912 0
M  V30 1320 C 123.672 4.20144 1.60622 0
M  V30 1321 C 124.991 2.94354 3.27176 0
M  V30 1322 H 122.11 0.589752 0.441998 0
M  V30 1323 H 124.752 1.82956 0.51257 0
M  V30 1324 H 122.902 2.62717 2.86203 0
M  V30 1325 H 124.574 4.49449 1.03889 0
M  V30 1326 H 122.817 4.24165 0.909211 0
M  V30 1327 H 123.488 4.98914 2.36196 0
M  V30 1328 H 125.964 3.10578 2.76913 0
M  V30 1329 H 124.84 3.788 3.97242 0
M  V30 1330 H 125.101 2.05186 3.916 0
M  V30 1331 N 124.16 -0.719506 1.40217 0
M  V30 1332 C 125.407 -1.47933 1.38283 0
M  V30 1333 C 125.735 -1.94493 -0.0161536 0
M  V30 1334 O 124.99 -1.68224 -0.999956 0
M  V30 1335 C 125.289 -2.72271 2.31524 0
M  V30 1336 C 124.955 -2.44496 3.78857 0
M  V30 1337 C 123.617 -2.36631 4.18998 0
M  V30 1338 C 125.969 -2.21104 4.71977 0
M  V30 1339 C 123.297 -2.03437 5.503 0
M  V30 1340 C 125.649 -1.89423 6.03574 0
M  V30 1341 C 124.313 -1.80038 6.42762 0
M  V30 1342 H 123.583 -0.541325 0.506012 0
M  V30 1343 H 126.23 -0.824502 1.72842 0
M  V30 1344 H 124.535 -3.42572 1.90137 0
M  V30 1345 H 126.232 -3.30348 2.27313 0
M  V30 1346 H 122.822 -2.51503 3.47051 0
M  V30 1347 H 127.006 -2.26139 4.41786 0
M  V30 1348 H 122.262 -1.94705 5.79569 0
M  V30 1349 H 126.436 -1.70336 6.75247 0
M  V30 1350 H 124.063 -1.54083 7.44421 0
M  V30 1351 N 125.638 -1.25649 -0.95132 0
M  V30 1352 C 126.885 -1.10594 -1.69633 0
M  V30 1353 C 127.213 0.352515 -1.91279 0
M  V30 1354 O 126.468 1.27601 -1.4838 0
M  V30 1355 C 126.767 -1.80909 -3.08231 0
M  V30 1356 C 126.433 -3.30825 -3.06375 0
M  V30 1357 C 125.095 -3.71722 -3.05576 0
M  V30 1358 C 127.447 -4.26589 -2.99452 0
M  V30 1359 C 124.775 -5.06788 -2.95606 0
M  V30 1360 C 127.127 -5.61683 -2.91024 0
M  V30 1361 C 125.791 -6.01904 -2.88562 0
M  V30 1362 H 125.061 -0.404691 -0.620731 0
M  V30 1363 H 127.708 -1.55964 -1.11119 0
M  V30 1364 H 126.013 -1.27979 -3.70309 0
M  V30 1365 H 127.71 -1.6671 -3.64704 0
M  V30 1366 H 124.3 -2.98287 -3.07771 0
M  V30 1367 H 128.484 -3.95982 -2.99185 0
M  V30 1368 H 123.74 -5.37126 -2.92071 0
M  V30 1369 H 127.914 -6.35578 -2.84629 0
M  V30 1370 H 125.541 -7.06521 -2.80593 0
M  V30 1371 N 127.117 1.15442 -1.07289 0
M  V30 1372 C 128.363 1.8672 -0.806679 0
M  V30 1373 C 128.718 1.80723 0.660084 0
M  V30 1374 O 128.011 1.21902 1.47819 0
M  V30 1375 C 128.205 3.3489 -1.24834 0
M  V30 1376 C 128.034 3.55313 -2.7565 0
M  V30 1377 C 126.804 3.7082 -3.4325 0
M  V30 1378 C 129.002 3.53188 -3.73848 0
M  V30 1379 N 126.984 3.7929 -4.82713 0
M  V30 1380 C 128.355 3.67765 -4.99149 0
M  V30 1381 C 130.41 3.36459 -3.67015 0
M  V30 1382 C 129.113 3.6734 -6.18428 0
M  V30 1383 C 131.139 3.37333 -4.85758 0
M  V30 1384 C 130.501 3.52438 -6.09891 0
M  V30 1385 H 126.6 0.700433 -0.347733 0
M  V30 1386 H 129.184 1.38441 -1.36902 0
M  V30 1387 H 127.355 3.81786 -0.713713 0
M  V30 1388 H 129.087 3.93875 -0.929745 0
M  V30 1389 H 125.842 3.71568 -2.93656 0
M  V30 1390 H 126.266 3.8727 -5.55294 0
M  V30 1391 H 130.908 3.237 -2.71989 0
M  V30 1392 H 128.626 3.78878 -7.13777 0
M  V30 1393 H 132.212 3.25617 -4.82146 0
M  V30 1394 H 131.092 3.53047 -7.00234 0
M  V30 1395 N 128.595 0.856903 1.32268 0
M  V30 1396 C 129.823 0.475439 2.01363 0
M  V30 1397 C 130.238 -0.928486 1.64392 0
M  V30 1398 O 129.595 -1.60624 0.866387 0
M  V30 1399 C 129.646 0.607545 3.56358 0
M  V30 1400 O 129.367 1.95617 3.92002 0
M  V30 1401 C 130.868 0.225382 4.42727 0
M  V30 1402 H 128.088 0.186636 0.644521 0
M  V30 1403 H 130.632 1.15446 1.68797 0
M  V30 1404 H 128.787 -0.0237719 3.87393 0
M  V30 1405 H 129.201 1.95455 4.86721 0
M  V30 1406 H 130.675 0.368813 5.50767 0
M  V30 1407 H 131.152 -0.834369 4.31202 0
M  V30 1408 H 131.758 0.831864 4.17085 0
M  V30 1409 N 130.073 -1.45103 0.615059 0
M  V30 1410 C 131.036 -2.29025 -0.0895485 0
M  V30 1411 C 132.036 -1.40174 -0.787906 0
M  V30 1412 O 133.226 -1.62217 -0.634933 0
M  V30 1413 C 130.358 -3.21376 -1.13711 0
M  V30 1414 H 131.551 -2.92807 0.648382 0
M  V30 1415 H 129.104 -1.51749 0.374444 0
M  V30 1416 H 129.839 -2.6241 -1.90556 0
M  V30 1417 H 129.624 -3.86834 -0.640475 0
M  V30 1418 H 131.114 -3.84459 -1.63036 0
M  V30 1419 N 131.551 -0.354651 -1.53558 0
M  V30 1420 C 132.828 0.294281 -1.93374 0
M  V30 1421 C 133.208 1.67313 -1.28723 0
M  V30 1422 O 132.556 2.24179 -0.442247 0
M  V30 1423 C 132.766 0.355445 -3.47185 0
M  V30 1424 C 134.114 0.601007 -4.20325 0
M  V30 1425 O 135.138 0.437106 -3.53508 0
M  V30 1426 O 133.997 0.919322 -5.38712 0
M  V30 1427 H 131.091 0.174033 -0.808481 0
M  V30 1428 H 133.637 -0.406638 -1.64756 0
M  V30 1429 H 132.409 -0.611729 -3.86489 0
M  V30 1430 H 132.032 1.1027 -3.82003 0
M  V30 1431 N 133.029 1.57378 -0.0835403 0
M  V30 1432 C 133.992 2.12252 0.864959 0
M  V30 1433 C 134.992 1.04916 1.21858 0
M  V30 1434 O 136.182 1.30853 1.14991 0
M  V30 1435 C 133.314 2.63358 2.16461 0
M  V30 1436 H 134.507 2.97371 0.388676 0
M  V30 1437 H 132.06 1.55423 0.165317 0
M  V30 1438 H 132.795 1.81727 2.686 0
M  V30 1439 H 132.58 3.41826 1.92087 0
M  V30 1440 H 134.07 3.05847 2.84337 0
M  V30 1441 N 134.507 -0.190092 1.56449 0
M  V30 1442 C 135.753 -0.906472 1.82084 0
M  V30 1443 C 136.108 -1.80677 0.661335 0
M  V30 1444 O 135.401 -1.88501 -0.343237 0
M  V30 1445 C 135.595 -1.75382 3.1141 0
M  V30 1446 C 135.424 -0.937053 4.39829 0
M  V30 1447 C 134.194 -0.619507 5.01488 0
M  V30 1448 C 136.392 -0.2874 5.13496 0
M  V30 1449 N 134.374 0.215367 6.13522 0
M  V30 1450 C 135.745 0.409454 6.18646 0
M  V30 1451 C 137.8 -0.203639 4.97483 0
M  V30 1452 C 136.503 1.1821 7.0952 0
M  V30 1453 C 138.529 0.555622 5.88784 0
M  V30 1454 C 137.891 1.24091 6.93384 0
M  V30 1455 H 133.99 -0.310931 0.717528 0
M  V30 1456 H 136.574 -0.174821 1.93914 0
M  V30 1457 H 134.745 -2.45703 3.00806 0
M  V30 1458 H 136.477 -2.41006 3.25112 0
M  V30 1459 H 133.232 -0.945126 4.64074 0
M  V30 1460 H 133.656 0.622562 6.74131 0
M  V30 1461 H 138.298 -0.719099 4.1664 0
M  V30 1462 H 136.016 1.70897 7.89823 0
M  V30 1463 H 139.602 0.621854 5.78467 0
M  V30 1464 H 138.482 1.81901 7.62812 0
M  V30 1465 N 135.985 -1.50799 -0.457987 0
M  V30 1466 C 137.396 -1.55152 -1.0385 0
M  V30 1467 C 137.747 -0.362719 -1.92818 0
M  V30 1468 O 136.872 0.522915 -2.09987 0
M  V30 1469 C 137.467 -2.81173 -1.89017 0
M  V30 1470 C 136.026 -2.88164 -2.42154 0
M  V30 1471 C 135.173 -2.49591 -1.20829 0
M  V30 1472 H 138.124 -1.56874 -0.240068 0
M  V30 1473 H 138.145 -2.63769 -2.74238 0
M  V30 1474 H 137.657 -3.67677 -1.24238 0
M  V30 1475 H 135.758 -2.06042 -3.10447 0
M  V30 1476 H 135.871 -3.91356 -2.76364 0
M  V30 1477 H 134.235 -2.02322 -1.54719 0
M  V30 1478 H 135.018 -3.38418 -0.576927 0
M  V30 1479 N 137.463 0.71206 -1.40597 0
M  V30 1480 C 138.426 1.80785 -1.40888 0
M  V30 1481 C 139.426 1.57937 -0.302103 0
M  V30 1482 O 140.616 1.64913 -0.561182 0
M  V30 1483 C 137.748 3.18927 -1.20409 0
M  V30 1484 H 138.941 1.81924 -2.38419 0
M  V30 1485 H 136.494 0.91805 -1.26497 0
M  V30 1486 H 137.229 3.23436 -0.236522 0
M  V30 1487 H 137.014 3.36911 -2.00582 0
M  V30 1488 H 138.504 3.98949 -1.23408 0
M  V30 1489 N 138.941 1.26152 0.944643 0
M  V30 1490 C 140.357 1.03189 1.21754 0
M  V30 1491 C 140.557 -0.245112 2.00004 0
M  V30 1492 O 139.613 -0.955176 2.33736 0
M  V30 1493 C 140.926 2.26119 1.98219 0
M  V30 1494 C 142.474 2.30984 2.11224 0
M  V30 1495 C 142.949 3.53597 2.91089 0
M  V30 1496 N 144.44 3.54053 2.98664 0
M  V30 1497 C 145.175 4.45593 3.60881 0
M  V30 1498 N 144.671 5.47416 4.24626 0
M  V30 1499 N 146.464 4.33252 3.58119 0
M  V30 1500 H 138.615 2.08177 0.421437 0
M  V30 1501 H 140.878 0.914723 0.248969 0
M  V30 1502 H 140.584 3.18984 1.48128 0
M  V30 1503 H 140.458 2.3009 2.98895 0
M  V30 1504 H 142.845 1.38635 2.60508 0
M  V30 1505 H 142.926 2.31026 1.09821 0
M  V30 1506 H 142.57 4.46273 2.42493 0
M  V30 1507 H 142.5 3.50802 3.92741 0
M  V30 1508 H 144.991 2.80403 2.53343 0
M  V30 1509 H 145.304 6.13459 4.69987 0
M  V30 1510 H 143.649 5.51278 4.23223 0
M  V30 1511 H 146.84 3.52924 3.0751 0
M  V30 1512 H 147.013 5.04786 4.06319 0
M  V30 1513 N 140.419 -1.14872 1.07899 0
M  V30 1514 C 141.667 -1.85422 0.803941 0
M  V30 1515 C 141.988 -1.83051 -0.67211 0
M  V30 1516 O 141.258 -1.27532 -1.48703 0
M  V30 1517 H 139.838 -0.686537 0.294408 0
M  V30 1518 H 142.5 -1.39226 1.3639 0
M  V30 1519 H 141.596 -2.90399 1.14346 0
M  V30 1520 N 141.898 -0.863906 -1.31812 0
M  V30 1521 C 143.123 -0.48527 -2.01643 0
M  V30 1522 C 143.548 0.913058 -1.64453 0
M  V30 1523 O 142.906 1.6014 -0.849985 0
M  V30 1524 C 142.954 -0.642625 -3.54828 0
M  V30 1525 O 142.058 0.320659 -4.11151 0
M  V30 1526 H 141.399 -0.193793 -0.635091 0
M  V30 1527 H 143.929 -1.16565 -1.68148 0
M  V30 1528 H 143.939 -0.533628 -4.04495 0
M  V30 1529 H 142.614 -1.66227 -3.81237 0
M  V30 1530 H 141.191 0.167126 -3.72525 0
M  V30 1531 N 143.376 1.44774 -0.622745 0
M  V30 1532 C 144.601 2.06999 -0.128968 0
M  V30 1533 C 145.026 1.4617 1.1839 0
M  V30 1534 O 144.384 0.560007 1.72434 0
M  V30 1535 C 144.432 3.60595 -0.0188351 0
M  V30 1536 O 143.536 3.99398 1.02739 0
M  V30 1537 H 142.877 0.659047 -0.0809544 0
M  V30 1538 H 145.407 1.85784 -0.85705 0
M  V30 1539 H 145.417 4.07627 0.174476 0
M  V30 1540 H 144.092 4.04252 -0.977384 0
M  V30 1541 H 142.669 3.64011 0.809326 0
M  V30 1542 N 144.854 0.36279 1.53368 0
M  V30 1543 C 146.265 -0.117022 1.86333 0
M  V30 1544 C 146.616 -1.48397 1.28347 0
M  V30 1545 O 145.741 -2.07787 0.604428 0
M  V30 1546 C 146.336 -0.21912 3.38091 0
M  V30 1547 C 144.895 -0.643184 3.70864 0
M  V30 1548 C 144.042 0.211318 2.76494 0
M  V30 1549 H 146.993 0.581687 1.47655 0
M  V30 1550 H 147.014 -1.04319 3.6592 0
M  V30 1551 H 146.526 0.775902 3.80265 0
M  V30 1552 H 144.627 -1.64654 3.34245 0
M  V30 1553 H 144.74 -0.41973 4.77258 0
M  V30 1554 H 143.104 -0.319367 2.5269 0
M  V30 1555 H 143.887 1.20383 3.21501 0
M  V30 1556 N 146.332 -1.57332 0.0918853 0
M  V30 1557 C 147.262 -2.16872 -0.865371 0
M  V30 1558 C 148.243 -1.10118 -1.29646 0
M  V30 1559 O 149.428 -1.38242 -1.36392 0
M  V30 1560 C 146.558 -2.74649 -2.12569 0
M  V30 1561 C 145.512 -3.86747 -1.83333 0
M  V30 1562 C 144.838 -4.31212 -3.16166 0
M  V30 1563 C 146.138 -5.10089 -1.1228 0
M  V30 1564 H 147.832 -2.97114 -0.369307 0
M  V30 1565 H 145.378 -1.42918 -0.176194 0
M  V30 1566 H 147.331 -3.14952 -2.7997 0
M  V30 1567 H 146.055 -1.91657 -2.64452 0
M  V30 1568 H 144.714 -3.46978 -1.18331 0
M  V30 1569 H 144.362 -3.45115 -3.6593 0
M  V30 1570 H 144.062 -5.06788 -2.97388 0
M  V30 1571 H 145.586 -4.74146 -3.84731 0
M  V30 1572 H 147 -5.47582 -1.69785 0
M  V30 1573 H 145.397 -5.91073 -1.03693 0
M  V30 1574 H 146.467 -4.84786 -0.105041 0
M  V30 1575 N 147.81 0.181792 -1.56548 0
M  V30 1576 C 149.226 0.53316 -1.50431 0
M  V30 1577 C 149.426 1.85184 -0.794297 0
M  V30 1578 O 148.482 2.50058 -0.350318 0
M  V30 1579 C 149.795 0.575597 -2.9514 0
M  V30 1580 C 151.343 0.663519 -3.05886 0
M  V30 1581 C 151.818 0.736946 -4.52032 0
M  V30 1582 N 153.309 0.800118 -4.56237 0
M  V30 1583 C 154.044 0.877327 -5.66649 0
M  V30 1584 N 153.54 0.916016 -6.86718 0
M  V30 1585 N 155.333 0.915542 -5.54594 0
M  V30 1586 H 147.484 -0.683025 -2.01118 0
M  V30 1587 H 149.747 -0.244988 -0.915797 0
M  V30 1588 H 149.453 -0.324482 -3.502 0
M  V30 1589 H 149.327 1.42572 -3.49218 0
M  V30 1590 H 151.714 1.55403 -2.50867 0
M  V30 1591 H 151.795 -0.21307 -2.54911 0
M  V30 1592 H 151.439 -0.149262 -5.07681 0
M  V30 1593 H 151.369 1.62953 -5.00753 0
M  V30 1594 H 153.86 0.778926 -3.69785 0
M  V30 1595 H 154.173 0.975813 -7.66614 0
M  V30 1596 H 152.518 0.884469 -6.89349 0
M  V30 1597 H 155.709 0.882245 -4.59711 0
M  V30 1598 H 155.882 0.972253 -6.40665 0
M  V30 1599 N 149.288 1.51039 0.449983 0
M  V30 1600 C 150.704 1.38934 0.785462 0
M  V30 1601 C 150.904 0.461817 1.96136 0
M  V30 1602 O 149.96 -0.0877389 2.52348 0
M  V30 1603 C 151.273 2.80724 1.0777 0
M  V30 1604 C 152.821 2.89787 1.1829 0
M  V30 1605 C 153.296 4.32457 1.50815 0
M  V30 1606 N 154.787 4.35505 1.57764 0
M  V30 1607 C 155.522 5.42914 1.84477 0
M  V30 1608 N 155.018 6.60502 2.09068 0
M  V30 1609 N 156.811 5.3038 1.86155 0
M  V30 1610 H 148.962 2.09904 -0.324647 0
M  V30 1611 H 151.225 0.944378 -0.0827957 0
M  V30 1612 H 150.931 3.50531 0.286498 0
M  V30 1613 H 150.805 3.19273 2.00859 0
M  V30 1614 H 153.192 2.20186 1.96474 0
M  V30 1615 H 153.273 2.54752 0.231314 0
M  V30 1616 H 152.917 5.02603 0.731622 0
M  V30 1617 H 152.847 4.64995 2.47158 0
M  V30 1618 H 155.338 3.50724 1.40715 0
M  V30 1619 H 155.651 7.38158 2.28785 0
M  V30 1620 H 153.996 6.63639 2.06416 0
M  V30 1621 H 157.187 4.37505 1.66454 0
M  V30 1622 H 157.36 6.1417 2.06637 0
M  V30 1623 N 150.766 -0.704594 1.40972 0
M  V30 1624 C 152.013 -1.46458 1.39844 0
M  V30 1625 C 152.341 -1.94499 0.00447594 0
M  V30 1626 O 151.596 -1.69275 -0.982057 0
M  V30 1627 C 151.895 -2.698 2.34399 0
M  V30 1628 C 151.561 -2.40464 3.81429 0
M  V30 1629 C 150.223 -2.32174 4.21484 0
M  V30 1630 C 152.575 -2.16086 4.74296 0
M  V30 1631 C 149.903 -1.97589 5.52427 0
M  V30 1632 C 152.255 -1.83011 6.05549 0
M  V30 1633 C 150.919 -1.7321 6.44635 0
M  V30 1634 H 150.189 -0.535927 0.511725 0
M  V30 1635 H 152.836 -0.806124 1.73706 0
M  V30 1636 H 151.141 -3.40536 1.93759 0
M  V30 1637 H 152.838 -3.27919 2.30804 0
M  V30 1638 H 149.428 -2.47808 3.49699 0
M  V30 1639 H 153.612 -2.2144 4.4416 0
M  V30 1640 H 148.868 -1.88547 5.81601 0
M  V30 1641 H 153.042 -1.63164 6.77016 0
M  V30 1642 H 150.669 -1.46179 7.46013 0
M  V30 1643 N 152.244 -1.26651 -0.937939 0
M  V30 1644 C 153.66 -1.03834 -1.21205 0
M  V30 1645 C 153.86 0.234502 -2.00131 0
M  V30 1646 O 152.916 0.942767 -2.3424 0
M  V30 1647 C 154.229 -2.27167 -1.97017 0
M  V30 1648 C 155.777 -2.32101 -2.09996 0
M  V30 1649 C 156.252 -3.55136 -2.8921 0
M  V30 1650 N 157.743 -3.55632 -2.96783 0
M  V30 1651 C 158.478 -4.475 -3.58512 0
M  V30 1652 N 157.974 -5.4966 -4.21717 0
M  V30 1653 N 159.767 -4.35145 -3.55816 0
M  V30 1654 H 151.918 -2.08398 -0.410391 0
M  V30 1655 H 154.181 -0.916031 -0.244114 0
M  V30 1656 H 153.887 -3.19765 -1.46434 0
M  V30 1657 H 153.761 -2.31672 -2.97671 0
M  V30 1658 H 156.148 -1.40015 -2.59769 0
M  V30 1659 H 156.229 -2.31605 -1.08594 0
M  V30 1660 H 155.873 -4.47553 -2.40123 0
M  V30 1661 H 155.803 -3.5288 -3.90875 0
M  V30 1662 H 158.294 -2.81743 -2.51852 0
M  V30 1663 H 158.607 -6.15943 -4.66727 0
M  V30 1664 H 156.952 -5.53514 -4.20294 0
M  V30 1665 H 160.143 -3.5455 -3.05634 0
M  V30 1666 H 160.316 -5.06934 -4.03636 0
M  V30 1667 N 153.722 1.14298 -1.08507 0
M  V30 1668 C 154.999 1.81544 -0.728088 0
M  V30 1669 C 155.379 1.95838 0.78808 0
M  V30 1670 O 154.727 1.51904 1.70697 0
M  V30 1671 C 154.937 3.17169 -1.45619 0
M  V30 1672 C 156.285 3.9265 -1.61591 0
M  V30 1673 O 157.309 3.26762 -1.41793 0
M  V30 1674 O 156.168 5.10807 -1.94263 0
M  V30 1675 H 153.262 0.78491 -0.260471 0
M  V30 1676 H 155.808 1.21307 -1.18671 0
M  V30 1677 H 154.58 3.01934 -2.489 0
M  V30 1678 H 154.203 3.851 -0.989124 0
M  V30 1679 N 155.201 0.870884 1.31352 0
M  V30 1680 C 156.111 0.330783 2.32256 0
M  V30 1681 C 157.127 -0.559767 1.6475 0
M  V30 1682 O 158.303 -0.456263 1.96164 0
M  V30 1683 C 155.368 -0.458137 3.4366 0
M  V30 1684 C 154.429 0.460482 4.26823 0
M  V30 1685 C 153.662 -0.290881 5.32907 0
M  V30 1686 O 153.885 -1.51885 5.49806 0
M  V30 1687 O 152.819 0.351732 6.00871 0
M  V30 1688 H 156.645 1.16718 2.80376 0
M  V30 1689 H 154.23 0.634285 1.35267 0
M  V30 1690 H 156.112 -0.905343 4.1156 0
M  V30 1691 H 154.787 -1.27106 2.97701 0
M  V30 1692 H 153.694 0.956207 3.61673 0
M  V30 1693 H 155.027 1.23903 4.7635 0
M  V30 1694 N 156.679 -1.44442 0.630414 0
M  V30 1695 C 157.642 -2.29107 -0.0652523 0
M  V30 1696 C 158.642 -1.41002 -0.772995 0
M  V30 1697 O 159.832 -1.62881 -0.617692 0
M  V30 1698 C 156.964 -3.22564 -1.10296 0
M  V30 1699 H 158.157 -2.92103 0.679401 0
M  V30 1700 H 155.71 -1.51343 0.390517 0
M  V30 1701 H 156.445 -2.64416 -1.87762 0
M  V30 1702 H 156.23 -3.87491 -0.59941 0
M  V30 1703 H 157.72 -3.86167 -1.5895 0
M  V30 1704 N 158.157 -0.370918 -1.53173 0
M  V30 1705 C 159.406 0.218249 -2.00516 0
M  V30 1706 C 159.719 1.49429 -1.26215 0
M  V30 1707 O 160.925 2.16239 -1.64174 0
M  V30 1708 C 159.381 0.43948 -3.57207 0
M  V30 1709 C 158.989 -0.822244 -4.4039 0
M  V30 1710 C 160.733 0.986012 -4.1289 0
M  V30 1711 C 158.64 -0.570304 -5.88644 0
M  V30 1712 H 157.57 0.0853333 -0.749156 0
M  V30 1713 H 160.221 -0.490483 -1.76823 0
M  V30 1714 H 158.603 1.20961 -3.77074 0
M  V30 1715 H 159.777 -1.59557 -4.32294 0
M  V30 1716 H 158.092 -1.29238 -3.95836 0
M  V30 1717 H 160.689 1.18991 -5.21292 0
M  V30 1718 H 161.032 1.94972 -3.6782 0
M  V30 1719 H 161.565 0.27592 -3.96842 0
M  V30 1720 H 158.304 -1.50449 -6.38001 0
M  V30 1721 H 157.824 0.164427 -5.99575 0
M  V30 1722 H 159.503 -0.19784 -6.46697 0
M  V30 1723 N 159.635 1.57281 -0.100228 0
M  V30 1724 C 160.86 1.99302 0.573881 0
M  V30 1725 C 161.285 0.979059 1.60611 0
M  V30 1726 O 160.643 -0.0517803 1.81226 0
M  V30 1727 C 160.691 3.40274 1.19358 0
M  V30 1728 O 159.795 3.41676 2.30935 0
M  V30 1729 H 159.136 0.647944 0.145138 0
M  V30 1730 H 161.666 2.03779 -0.183156 0
M  V30 1731 H 161.676 3.78078 1.53365 0
M  V30 1732 H 160.351 4.13594 0.437385 0
M  V30 1733 H 158.928 3.15672 1.98509 0
M  V30 1734 N 161.113 -0.173488 1.56642 0
M  V30 1735 C 162.063 -1.21941 1.92651 0
M  V30 1736 C 163.047 -1.39912 0.794577 0
M  V30 1737 O 164.239 -1.41919 1.05773 0
M  V30 1738 C 161.368 -2.55935 2.28806 0
M  V30 1739 C 160.454 -2.41667 3.48508 0
M  V30 1740 N 160.845 -1.9711 4.65813 0
M  V30 1741 C 159.143 -2.72499 3.53072 0
M  V30 1742 C 159.844 -1.95253 5.47952 0
M  V30 1743 N 158.82 -2.37575 4.88937 0
M  V30 1744 H 162.622 -0.866581 2.80834 0
M  V30 1745 H 160.136 -0.381776 1.57849 0
M  V30 1746 H 162.133 -3.31511 2.52797 0
M  V30 1747 H 160.793 -2.92022 1.41961 0
M  V30 1748 H 161.804 -1.67481 4.90072 0
M  V30 1749 H 158.481 -3.12639 2.767 0
M  V30 1750 H 159.871 -1.6252 6.51948 0
M  V30 1751 N 162.591 -1.51276 -0.441967 0
M  V30 1752 C 163.839 -1.63392 -1.18943 0
M  V30 1753 C 164.16 -0.350159 -1.9183 0
M  V30 1754 O 163.43 0.633784 -1.85364 0
M  V30 1755 H 162.01 -0.602164 -0.442049 0
M  V30 1756 H 164.672 -1.88186 -0.507165 0
M  V30 1757 H 163.768 -2.45934 -1.92154 0
M  V30 1758 N 164.069 0.697108 -1.41344 0
M  V30 1759 C 165.318 1.45279 -1.39918 0
M  V30 1760 C 165.631 1.95597 -0.0109624 0
M  V30 1761 O 166.837 2.71208 0.125919 0
M  V30 1762 C 165.293 2.62695 -2.46007 0
M  V30 1763 C 164.901 2.19169 -3.90729 0
M  V30 1764 C 166.645 3.40336 -2.53715 0
M  V30 1765 C 164.552 3.33535 -4.88373 0
M  V30 1766 H 163.482 0.545692 -0.520323 0
M  V30 1767 H 166.133 0.756929 -1.67161 0
M  V30 1768 H 164.515 3.34541 -2.11892 0
M  V30 1769 H 165.689 1.54623 -4.34083 0
M  V30 1770 H 164.004 1.54525 -3.86666 0
M  V30 1771 H 166.601 4.2547 -3.2385 0
M  V30 1772 H 166.944 3.85418 -1.5735 0
M  V30 1773 H 167.477 2.75546 -2.86913 0
M  V30 1774 H 164.216 2.93468 -5.86137 0
M  V30 1775 H 163.736 3.96936 -4.49668 0
M  V30 1776 H 165.415 3.99335 -5.09059 0
M  V30 1777 N 165.547 1.27147 0.931209 0
M  V30 1778 C 166.963 1.04475 1.20653 0
M  V30 1779 C 167.163 -0.223885 2.00252 0
M  V30 1780 O 166.219 -0.930332 2.34736 0
M  V30 1781 C 167.532 2.28209 1.95809 0
M  V30 1782 C 169.08 2.33211 2.08762 0
M  V30 1783 C 169.555 3.56665 2.87323 0
M  V30 1784 N 171.046 3.57201 2.94892 0
M  V30 1785 C 171.781 4.49395 3.56134 0
M  V30 1786 N 171.277 5.51889 4.18796 0
M  V30 1787 N 173.07 4.37026 3.53504 0
M  V30 1788 H 165.221 2.08612 0.399333 0
M  V30 1789 H 167.484 0.917312 0.239253 0
M  V30 1790 H 167.19 3.20538 1.44736 0
M  V30 1791 H 167.064 2.33247 2.96438 0
M  V30 1792 H 169.451 1.41391 2.59023 0
M  V30 1793 H 169.532 2.32178 1.07364 0
M  V30 1794 H 169.176 4.4882 2.37746 0
M  V30 1795 H 169.106 3.54948 3.88998 0
M  V30 1796 H 171.597 2.83074 2.50354 0
M  V30 1797 H 171.91 6.18409 4.63454 0
M  V30 1798 H 170.255 5.55735 4.17353 0
M  V30 1799 H 173.446 3.56166 3.03749 0
M  V30 1800 H 173.619 5.09067 4.00942 0
M  V30 1801 N 167.025 -1.13721 1.09112 0
M  V30 1802 C 168.265 -1.86576 0.834801 0
M  V30 1803 C 168.629 -1.81435 -0.628122 0
M  V30 1804 O 169.83 -2.49497 -1.00024 0
M  V30 1805 C 168.101 -3.30872 1.35124 0
M  V30 1806 S 169.66 -4.21257 1.22832 0
M  V30 1807 H 166.478 -0.643666 0.302017 0
M  V30 1808 H 169.08 -1.37085 1.39385 0
M  V30 1809 H 167.784 -3.32166 2.41027 0
M  V30 1810 H 167.315 -3.85423 0.788185 0
M  V30 1811 H 169.33 -4.95884 0.177191 0
M  V30 1812 N 168.503 -0.877838 -1.30888 0
M  V30 1813 C 169.751 -0.491723 -1.96027 0
M  V30 1814 C 170.072 0.960827 -1.69685 0
M  V30 1815 O 169.342 1.67462 -1.01654 0
M  V30 1816 H 167.922 -0.17885 -0.725273 0
M  V30 1817 H 170.584 -1.11935 -1.59551 0
M  V30 1818 H 169.68 -0.656016 -3.05128 0
M  V30 1819 N 169.982 1.44106 -0.638065 0
M  V30 1820 C 171.228 2.02277 -0.145546 0
M  V30 1821 C 171.561 1.50125 1.23191 0
M  V30 1822 O 170.836 0.688133 1.8192 0
M  V30 1823 C 171.119 3.59829 -0.139791 0
M  V30 1824 C 170.972 4.22247 -1.55008 0
M  V30 1825 C 172.291 4.36873 0.531966 0
M  V30 1826 H 169.41 0.734992 -0.0543632 0
M  V30 1827 H 172.052 1.71592 -0.815863 0
M  V30 1828 H 170.202 3.86102 0.431007 0
M  V30 1829 H 171.874 4.07057 -2.1703 0
M  V30 1830 H 170.117 3.79476 -2.10191 0
M  V30 1831 H 170.788 5.31284 -1.49804 0
M  V30 1832 H 173.264 4.16074 0.0464781 0
M  V30 1833 H 172.14 5.4657 0.505206 0
M  V30 1834 H 172.401 4.11995 1.60352 0
M  V30 1835 N 171.46 0.379036 1.52974 0
M  V30 1836 C 172.688 -0.20679 2.05864 0
M  V30 1837 C 173.103 -1.41356 1.25155 0
M  V30 1838 O 172.46 -1.8009 0.295588 0
M  V30 1839 C 172.511 -0.587045 3.56702 0
M  V30 1840 O 172.232 0.571776 4.34353 0
M  V30 1841 C 173.733 -1.22983 4.25899 0
M  V30 1842 H 170.953 -0.0336123 0.670158 0
M  V30 1843 H 173.497 0.541298 1.97206 0
M  V30 1844 H 171.652 -1.28504 3.65466 0
M  V30 1845 H 172.066 0.261544 5.23847 0
M  V30 1846 H 173.54 -1.44635 5.32715 0
M  V30 1847 H 174.017 -2.19416 3.80465 0
M  V30 1848 H 174.623 -0.572892 4.21424 0
M  V30 1849 N 172.938 -1.57226 0.108567 0
M  V30 1850 C 174.187 -1.94008 -0.551703 0
M  V30 1851 C 174.5 -0.993442 -1.68494 0
M  V30 1852 O 175.706 -1.25551 -2.40726 0
M  V30 1853 C 174.162 -3.44763 -1.03279 0
M  V30 1854 C 173.77 -4.47943 0.0714193 0
M  V30 1855 C 175.514 -3.90483 -1.66503 0
M  V30 1856 C 173.421 -5.89865 -0.425779 0
M  V30 1857 H 172.351 -0.724206 -0.209863 0
M  V30 1858 H 175.002 -1.82547 0.186741 0
M  V30 1859 H 173.384 -3.51422 -1.82533 0
M  V30 1860 H 174.558 -4.52942 0.847365 0
M  V30 1861 H 172.873 -4.11913 0.609669 0
M  V30 1862 H 175.47 -4.93925 -2.04798 0
M  V30 1863 H 175.813 -3.29877 -2.53942 0
M  V30 1864 H 176.346 -3.86581 -0.938074 0
M  V30 1865 H 173.085 -6.54202 0.412316 0
M  V30 1866 H 172.605 -5.88309 -1.16843 0
M  V30 1867 H 174.284 -6.40844 -0.890397 0
M  V30 1868 N 174.416 0.165178 -1.56732 0
M  V30 1869 C 175.827 0.727046 -1.71962 0
M  V30 1870 C 176.178 1.82508 -0.720078 0
M  V30 1871 O 175.303 2.16082 0.117242 0
M  V30 1872 C 175.898 1.32559 -3.11791 0
M  V30 1873 C 174.457 1.83422 -3.28684 0
M  V30 1874 C 173.604 0.715567 -2.67908 0
M  V30 1875 H 176.555 -0.0602896 -1.58585 0
M  V30 1876 H 176.576 2.19533 -3.10782 0
M  V30 1877 H 176.088 0.526195 -3.84516 0
M  V30 1878 H 174.189 2.65986 -2.60926 0
M  V30 1879 H 174.302 1.97543 -4.36478 0
M  V30 1880 H 172.666 1.13758 -2.27884 0
M  V30 1881 H 173.449 -0.0720836 -3.43224 0
M  V30 1882 N 175.894 1.51508 0.433938 0
M  V30 1883 C 177.14 1.64588 1.18484 0
M  V30 1884 C 177.473 0.362666 1.90784 0
M  V30 1885 O 176.748 -0.637892 1.83742 0
M  V30 1886 C 177.031 2.85149 2.19913 0
M  V30 1887 C 176.884 4.23456 1.51674 0
M  V30 1888 C 178.203 3.01227 3.20858 0
M  V30 1889 H 175.322 0.598994 0.429389 0
M  V30 1890 H 177.964 1.84002 0.473647 0
M  V30 1891 H 176.114 2.68729 2.80566 0
M  V30 1892 H 177.786 4.51552 0.943322 0
M  V30 1893 H 176.029 4.25998 0.819035 0
M  V30 1894 H 176.7 5.03812 2.2556 0
M  V30 1895 H 179.176 3.16382 2.70263 0
M  V30 1896 H 178.052 3.87141 3.89118 0
M  V30 1897 H 178.313 2.13447 3.8716 0
M  V30 1898 N 177.372 -0.689602 1.41712 0
M  V30 1899 C 178.282 -1.83314 1.46401 0
M  V30 1900 C 179.298 -1.7036 0.35405 0
M  V30 1901 O 180.474 -1.92171 0.602692 0
M  V30 1902 C 177.539 -3.19344 1.34982 0
M  V30 1903 C 176.6 -3.44363 2.56344 0
M  V30 1904 C 175.833 -4.73904 2.45461 0
M  V30 1905 O 176.056 -5.508 1.48241 0
M  V30 1906 O 174.99 -4.99839 3.35328 0
M  V30 1907 H 178.816 -1.82314 2.42889 0
M  V30 1908 H 176.401 -0.843438 1.23315 0
M  V30 1909 H 178.283 -4.00547 1.3092 0
M  V30 1910 H 176.958 -3.21014 0.41612 0
M  V30 1911 H 175.865 -2.63067 2.65982 0
M  V30 1912 H 177.198 -3.47512 3.48563 0
M  V30 1913 N 178.85 -1.27639 -0.924453 0
M  V30 1914 C 180.098 -1.13941 -1.66918 0
M  V30 1915 C 180.419 0.314589 -1.92446 0
M  V30 1916 O 179.689 1.21964 -1.53303 0
M  V30 1917 H 178.269 -0.418678 -0.618642 0
M  V30 1918 H 180.931 -1.60213 -1.10985 0
M  V30 1919 H 180.027 -1.67094 -2.63602 0
M  V30 1920 N 180.328 1.1314 -1.09713 0
M  V30 1921 C 181.553 1.88862 -0.857081 0
M  V30 1922 C 181.978 1.78729 0.586304 0
M  V30 1923 O 181.336 1.13692 1.41222 0
M  V30 1924 C 181.384 3.36325 -1.30069 0
M  V30 1925 O 180.488 4.09815 -0.461007 0
M  V30 1926 H 179.829 0.587108 -0.310162 0
M  V30 1927 H 182.359 1.43129 -1.46203 0
M  V30 1928 H 182.369 3.87157 -1.28738 0
M  V30 1929 H 181.044 3.43017 -2.35185 0
M  V30 1930 H 179.621 3.68986 -0.538888 0
M  V30 1931 N 181.806 0.884767 1.30421 0
M  V30 1932 C 183.036 0.517293 2.00019 0
M  V30 1933 C 183.444 -0.898632 1.66497 0
M  V30 1934 O 182.787 -1.60245 0.898181 0
M  V30 1935 C 182.849 0.612025 3.54252 0
M  V30 1936 C 182.513 1.99222 4.1129 0
M  V30 1937 C 183.51 2.9616 4.273 0
M  V30 1938 C 181.195 2.29755 4.46674 0
M  V30 1939 C 183.189 4.21764 4.77906 0
M  V30 1940 C 180.876 3.55606 4.96979 0
M  V30 1941 C 181.874 4.51425 5.12547 0
M  V30 1942 O 181.562 5.75043 5.61766 0
M  V30 1943 H 181.294 0.198529 0.64619 0
M  V30 1944 H 183.848 1.1919 1.67281 0
M  V30 1945 H 182.078 -0.119561 3.86515 0
M  V30 1946 H 183.767 0.255859 4.05093 0
M  V30 1947 H 184.533 2.73882 4.00267 0
M  V30 1948 H 180.412 1.55942 4.33824 0
M  V30 1949 H 183.956 4.96561 4.89972 0
M  V30 1950 H 179.853 3.7772 5.23448 0
M  V30 1951 H 180.621 5.77422 5.80109 0
M  V30 1952 N 183.284 -1.43765 0.645699 0
M  V30 1953 C 184.532 -2.01499 0.155731 0
M  V30 1954 C 184.853 -1.51151 -1.232 0
M  V30 1955 O 184.123 -0.721044 -1.82148 0
M  V30 1956 H 182.703 -0.745003 0.0545817 0
M  V30 1957 H 185.365 -1.76075 0.835677 0
M  V30 1958 H 184.461 -3.1181 0.134577 0
M  V30 1959 N 184.763 -0.387143 -1.52771 0
M  V30 1960 C 185.988 0.198407 -2.06449 0
M  V30 1961 C 186.413 1.39918 -1.25716 0
M  V30 1962 O 185.771 1.79099 -0.281657 0
M  V30 1963 C 185.819 0.548893 -3.56398 0
M  V30 1964 O 184.923 1.64315 -3.78252 0
M  V30 1965 H 184.264 0.0237731 -0.663574 0
M  V30 1966 H 186.794 -0.553989 -1.96957 0
M  V30 1967 H 186.804 0.813812 -3.99801 0
M  V30 1968 H 185.479 -0.329005 -4.14597 0
M  V30 1969 H 184.056 1.37211 -3.46738 0
M  V30 1970 N 186.241 1.57166 -0.116904 0
M  V30 1971 C 187.204 2.14039 0.819742 0
M  V30 1972 C 188.204 1.07477 1.19605 0
M  V30 1973 O 189.394 1.33263 1.1219 0
M  V30 1974 C 186.526 2.67891 2.10826 0
M  V30 1975 H 187.719 2.98128 0.325511 0
M  V30 1976 H 185.272 1.55739 0.132312 0
M  V30 1977 H 186.007 1.87384 2.64685 0
M  V30 1978 H 185.792 3.45823 1.84793 0
M  V30 1979 H 187.282 3.11809 2.77785 0
M  V30 1980 N 187.719 -0.156864 1.56817 0
M  V30 1981 C 188.652 -1.22316 1.9265 0
M  V30 1982 C 189.63 -1.42059 0.791076 0
M  V30 1983 O 190.814 -1.56831 1.04576 0
M  V30 1984 C 187.941 -2.58375 2.18998 0
M  V30 1985 C 186.987 -2.55284 3.41661 0
M  V30 1986 S 187.82 -2.02946 4.95553 0
M  V30 1987 C 188.976 -3.40753 5.25013 0
M  V30 1988 H 189.209 -0.917403 2.82791 0
M  V30 1989 H 186.742 -0.362059 1.50095 0
M  V30 1990 H 188.7 -3.36677 2.34859 0
M  V30 1991 H 187.361 -2.86145 1.29538 0
M  V30 1992 H 186.554 -3.55418 3.57343 0
M  V30 1993 H 186.156 -1.85086 3.24991 0
M  V30 1994 H 188.448 -4.36819 5.17876 0
M  V30 1995 H 189.391 -3.29933 6.26538 0
M  V30 1996 H 189.799 -3.37433 4.52548 0
M  V30 1997 N 189.197 -1.51736 -0.425897 0
M  V30 1998 C 190.13 -1.68574 -1.53812 0
M  V30 1999 C 191.108 -0.53328 -1.53606 0
M  V30 2000 O 192.292 -0.758555 -1.72564 0
M  V30 2001 C 189.419 -1.70977 -2.92377 0
M  V30 2002 C 188.465 -2.92324 -3.10563 0
M  V30 2003 S 189.298 -4.52952 -2.85648 0
M  V30 2004 C 190.454 -4.58117 -4.26474 0
M  V30 2005 H 190.687 -2.62647 -1.39298 0
M  V30 2006 H 188.22 -1.41564 -0.616361 0
M  V30 2007 H 190.178 -1.73047 -3.72243 0
M  V30 2008 H 188.839 -0.78061 -3.04245 0
M  V30 2009 H 188.032 -2.90439 -4.11899 0
M  V30 2010 H 187.634 -2.88055 -2.38538 0
M  V30 2011 H 189.926 -4.34462 -5.19855 0
M  V30 2012 H 190.869 -5.59983 -4.33388 0
M  V30 2013 H 191.277 -3.8732 -4.10662 0
M  V30 2014 N 190.675 0.682077 -1.42076 0
M  V30 2015 C 191.605 1.80796 -1.47767 0
M  V30 2016 C 192.586 1.6677 -0.334954 0
M  V30 2017 O 193.771 1.863 -0.548264 0
M  V30 2018 C 190.901 3.19038 -1.37229 0
M  V30 2019 C 189.855 3.47789 -2.49453 0
M  V30 2020 C 189.181 4.8553 -2.23975 0
M  V30 2021 C 190.481 3.45411 -3.91776 0
M  V30 2022 H 192.175 1.7629 -2.41997 0
M  V30 2023 H 189.721 0.846721 -1.16476 0
M  V30 2024 H 191.674 3.97528 -1.39821 0
M  V30 2025 H 190.398 3.24204 -0.394907 0
M  V30 2026 H 189.057 2.71657 -2.46166 0
M  V30 2027 H 188.705 4.87337 -1.24547 0
M  V30 2028 H 188.405 5.0573 -2.99184 0
M  V30 2029 H 189.929 5.66312 -2.28304 0
M  V30 2030 H 191.343 4.13882 -3.96705 0
M  V30 2031 H 189.74 3.77145 -4.66778 0
M  V30 2032 H 190.81 2.44122 -4.18966 0
M  V30 2033 N 192.153 1.28127 0.917671 0
M  V30 2034 C 193.381 1.17892 1.70026 0
M  V30 2035 C 193.796 -0.262958 1.8696 0
M  V30 2036 O 193.153 -1.17811 1.3938 0
M  V30 2037 C 193.204 1.86872 3.09453 0
M  V30 2038 O 192.925 3.25428 2.93306 0
M  V30 2039 C 194.426 1.8289 4.03815 0
M  V30 2040 H 191.646 0.40942 0.531617 0
M  V30 2041 H 194.19 1.69181 1.14883 0
M  V30 2042 H 192.345 1.39464 3.61426 0
M  V30 2043 H 192.759 3.59918 3.81523 0
M  V30 2044 H 194.233 2.35751 4.99125 0
M  V30 2045 H 194.71 0.800412 4.31845 0
M  V30 2046 H 195.316 2.29959 3.57769 0
M  V30 2047 N 193.631 -1.12557 1.10312 0
M  V30 2048 C 194.878 -1.84038 0.844759 0
M  V30 2049 C 195.206 -1.84026 -0.629668 0
M  V30 2050 O 194.461 -1.28026 -1.48013 0
M  V30 2051 C 194.76 -3.31462 1.33669 0
M  V30 2052 C 194.426 -3.51647 2.82232 0
M  V30 2053 C 193.088 -3.56864 3.22802 0
M  V30 2054 C 195.44 -3.58867 3.77974 0
M  V30 2055 C 192.768 -3.66844 4.57867 0
M  V30 2056 C 195.12 -3.70375 5.1284 0
M  V30 2057 C 193.784 -3.73848 5.52986 0
M  V30 2058 H 193.054 -0.673444 0.309119 0
M  V30 2059 H 195.701 -1.32824 1.37949 0
M  V30 2060 H 194.006 -3.85091 0.721949 0
M  V30 2061 H 195.703 -3.85236 1.11329 0
M  V30 2062 H 192.293 -3.48249 2.49842 0
M  V30 2063 H 196.477 -3.54107 3.47738 0
M  V30 2064 H 191.733 -3.67804 4.88396 0
M  V30 2065 H 195.907 -3.74904 5.86873 0
M  V30 2066 H 193.534 -3.81333 6.57639 0
M  V30 2067 N 195.109 -0.891671 -1.2995 0
M  V30 2068 C 196.072 -0.36828 -2.26222 0
M  V30 2069 C 197.072 0.493014 -1.53056 0
M  V30 2070 O 198.262 0.299213 -1.71611 0
M  V30 2071 C 195.394 0.47442 -3.37583 0
M  V30 2072 H 196.587 -1.21844 -2.74033 0
M  V30 2073 H 194.14 -0.669107 -1.41254 0
M  V30 2074 H 194.875 1.34489 -2.95099 0
M  V30 2075 H 194.66 -0.142615 -3.91841 0
M  V30 2076 H 196.15 0.83218 -4.09224 0
M  V30 2077 N 196.587 1.43421 -0.653314 0
M  V30 2078 C 197.812 2.06678 -0.172846 0
M  V30 2079 C 198.237 1.48648 1.15262 0
M  V30 2080 O 197.595 0.596457 1.71208 0
M  V30 2081 C 197.643 3.60474 -0.0953184 0
M  V30 2082 O 196.747 4.01487 0.942442 0
M  V30 2083 H 196.088 0.657181 -0.0949155 0
M  V30 2084 H 198.618 1.83925 -0.896265 0
M  V30 2085 H 198.628 4.07905 0.0879728 0
M  V30 2086 H 197.303 4.02088 -1.06291 0
M  V30 2087 H 195.88 3.65646 0.731932 0
M  V30 2088 N 198.065 0.39524 1.52563 0
M  V30 2089 C 199.476 -0.0774719 1.86539 0
M  V30 2090 C 199.827 -1.45641 1.31466 0
M  V30 2091 O 198.952 -2.06459 0.648367 0
M  V30 2092 C 199.547 -0.147356 3.38479 0
M  V30 2093 C 198.106 -0.564373 3.72145 0
M  V30 2094 C 197.253 0.269919 2.75983 0
M  V30 2095 H 200.204 0.612876 1.46388 0
M  V30 2096 H 200.225 -0.965343 3.68051 0
M  V30 2097 H 199.737 0.856387 3.78534 0
M  V30 2098 H 197.838 -1.57527 3.37663 0
M  V30 2099 H 197.951 -0.318402 4.78041 0
M  V30 2100 H 196.315 -0.265696 2.5331 0
M  V30 2101 H 197.098 1.27175 3.18875 0
M  V30 2102 N 199.544 -1.57102 0.125237 0
M  V30 2103 C 200.454 -2.19191 -0.8362 0
M  V30 2104 C 201.47 -1.16985 -1.28805 0
M  V30 2105 O 202.646 -1.49479 -1.34974 0
M  V30 2106 C 199.711 -2.78407 -2.06617 0
M  V30 2107 C 198.772 -3.9567 -1.66565 0
M  V30 2108 C 198.005 -4.52052 -2.83698 0
M  V30 2109 O 198.228 -4.07326 -3.99302 0
M  V30 2110 O 197.162 -5.42645 -2.60423 0
M  V30 2111 H 200.988 -3.01816 -0.337776 0
M  V30 2112 H 198.573 -1.4906 -0.100695 0
M  V30 2113 H 200.455 -3.16129 -2.7864 0
M  V30 2114 H 199.13 -1.9881 -2.55453 0
M  V30 2115 H 198.037 -3.62705 -0.916296 0
M  V30 2116 H 199.37 -4.76722 -1.22464 0
M  V30 2117 N 201.022 0.148545 -1.56898 0
M  V30 2118 C 202.438 0.501131 -1.51528 0
M  V30 2119 C 202.638 1.83458 -0.833399 0
M  V30 2120 O 201.694 2.49259 -0.40328 0
M  V30 2121 C 203.007 0.512864 -2.96294 0
M  V30 2122 C 204.555 0.598487 -3.07225 0
M  V30 2123 C 205.03 0.640897 -4.53494 0
M  V30 2124 N 206.521 0.703163 -4.57832 0
M  V30 2125 C 207.256 0.756935 -5.68382 0
M  V30 2126 N 206.752 0.770147 -6.88506 0
M  V30 2127 N 208.545 0.797698 -5.56411 0
M  V30 2128 H 200.696 -0.725532 -1.99624 0
M  V30 2129 H 202.959 -0.264358 -0.910395 0
M  V30 2130 H 202.665 -0.398691 -3.49433 0
M  V30 2131 H 202.539 1.35133 -3.52163 0
M  V30 2132 H 204.926 1.50046 -2.54106 0
M  V30 2133 H 205.007 -0.267093 -2.54402 0
M  V30 2134 H 204.651 -0.256915 -5.0725 0
M  V30 2135 H 204.581 1.52295 -5.04097 0
M  V30 2136 H 207.072 0.700314 -3.71354 0
M  V30 2137 H 207.385 0.812983 -7.68512 0
M  V30 2138 H 205.73 0.738049 -6.9107 0
M  V30 2139 H 208.921 0.784535 -4.61479 0
M  V30 2140 H 209.094 0.83614 -6.42583 0
M  V30 2141 N 202.5 1.5196 0.417844 0
M  V30 2142 C 203.447 1.74678 1.50852 0
M  V30 2143 C 204.417 0.588947 1.55308 0
M  V30 2144 O 205.602 0.825544 1.72016 0
M  V30 2145 C 202.742 1.89544 2.88387 0
M  V30 2146 C 201.855 3.17166 2.93309 0
M  V30 2147 C 200.99 3.22513 4.22088 0
M  V30 2148 C 200.029 4.44372 4.20951 0
M  V30 2149 N 199.166 4.47161 5.41287 0
M  V30 2150 H 204.006 2.67768 1.30783 0
M  V30 2151 H 201.543 1.32689 0.63498 0
M  V30 2152 H 203.501 1.96146 3.68216 0
M  V30 2153 H 202.131 0.998424 3.06971 0
M  V30 2154 H 201.183 3.19778 2.06024 0
M  V30 2155 H 202.495 4.07021 2.88332 0
M  V30 2156 H 201.649 3.28139 5.10303 0
M  V30 2157 H 200.388 2.30581 4.29748 0
M  V30 2158 H 199.393 4.38902 3.31127 0
M  V30 2159 H 200.618 5.3759 4.14938 0
M  V30 2160 H 198.564 3.58108 5.49632 0
M  V30 2161 H 198.481 5.3085 5.3827 0
M  V30 2162 H 199.749 4.57005 6.3148 0
M  V30 2163 N 203.978 -0.674533 1.42435 0
M  V30 2164 C 205.224 -1.43671 1.43131 0
M  V30 2165 C 205.557 -1.94142 0.0476021 0
M  V30 2166 O 204.832 -1.70924 -0.928188 0
M  V30 2167 C 205.115 -2.63355 2.45594 0
M  V30 2168 C 204.968 -2.18514 3.93156 0
M  V30 2169 C 206.287 -3.65571 2.45043 0
M  V30 2170 H 203.406 -0.521077 0.521198 0
M  V30 2171 H 206.048 -0.766551 1.7385 0
M  V30 2172 H 204.198 -3.2053 2.19528 0
M  V30 2173 H 205.87 -1.66504 4.30202 0
M  V30 2174 H 204.113 -1.50086 4.07009 0
M  V30 2175 H 204.784 -3.04484 4.60428 0
M  V30 2176 H 207.26 -3.18113 2.68223 0
M  V30 2177 H 206.136 -4.46893 3.18713 0
M  V30 2178 H 206.397 -4.16716 1.47649 0
M  V30 2179 N 205.456 -1.28612 -0.910864 0
M  V30 2180 C 206.733 -1.06632 -1.63979 0
M  V30 2181 C 207.113 0.393351 -2.07403 0
M  V30 2182 O 206.461 1.37999 -1.82122 0
M  V30 2183 C 206.671 -2.0436 -2.8291 0
M  V30 2184 C 208.019 -2.34666 -3.5386 0
M  V30 2185 O 209.043 -2.02467 -2.93062 0
M  V30 2186 O 207.902 -2.89631 -4.63439 0
M  V30 2187 H 204.996 -0.407737 -0.7195 0
M  V30 2188 H 207.542 -1.39942 -0.959914 0
M  V30 2189 H 206.314 -3.02727 -2.47936 0
M  V30 2190 H 205.937 -1.71714 -3.58609 0
M  V30 2191 N 206.934 1.1197 -1.10907 0
M  V30 2192 C 208.183 1.82947 -0.849302 0
M  V30 2193 C 208.496 1.85275 0.627112 0
M  V30 2194 O 209.702 2.52296 1.00295 0
M  V30 2195 C 208.158 3.28529 -1.46959 0
M  V30 2196 C 207.766 3.34546 -2.97965 0
M  V30 2197 C 209.51 4.04443 -1.28942 0
M  V30 2198 C 207.417 4.74491 -3.53004 0
M  V30 2199 H 206.347 0.685477 -0.314065 0
M  V30 2200 H 208.998 1.2604 -1.33365 0
M  V30 2201 H 207.38 3.85333 -0.912917 0
M  V30 2202 H 208.554 2.87654 -3.59989 0
M  V30 2203 H 206.869 2.72108 -3.15192 0
M  V30 2204 H 209.466 5.07787 -1.67502 0
M  V30 2205 H 209.809 4.15656 -0.231456 0
M  V30 2206 H 210.342 3.5401 -1.81443 0
M  V30 2207 H 207.081 4.68474 -4.58489 0
M  V30 2208 H 206.601 5.21816 -2.9575 0
M  V30 2209 H 208.28 5.4344 -3.51115 0
M  V30 2210 N 208.412 0.89855 1.29475 0
M  V30 2211 C 209.637 0.538561 2.00285 0
M  V30 2212 C 210.062 -0.869135 1.66816 0
M  V30 2213 O 209.42 -1.57831 0.892145 0
M  V30 2214 C 209.468 0.736475 3.52999 0
M  V30 2215 O 208.572 -0.211537 4.11857 0
M  V30 2216 H 207.913 0.210563 0.62973 0
M  V30 2217 H 210.443 1.20982 1.64998 0
M  V30 2218 H 210.453 0.640685 4.02938 0
M  V30 2219 H 209.128 1.76276 3.76696 0
M  V30 2220 H 207.705 -0.0682991 3.72837 0
M  V30 2221 N 209.89 -1.43072 0.660911 0
M  V30 2222 C 211.138 -2.01323 0.177094 0
M  V30 2223 C 211.459 -1.5245 -1.2159 0
M  V30 2224 O 210.729 -0.740322 -1.81373 0
M  V30 2225 H 209.309 -0.744382 0.0624804 0
M  V30 2226 H 211.971 -1.75179 0.854305 0
M  V30 2227 H 211.067 -3.11649 0.167641 0
M  V30 2228 N 211.368 -0.403325 -1.52352 0
M  V30 2229 C 212.614 0.174605 -2.02047 0
M  V30 2230 C 212.947 1.45282 -1.28867 0
M  V30 2231 O 212.222 1.90483 -0.393257 0
M  V30 2232 C 212.505 0.428238 -3.57545 0
M  V30 2233 C 212.358 -0.866248 -4.4138 0
M  V30 2234 C 213.677 1.21287 -4.23057 0
M  V30 2235 H 210.796 0.0619851 -0.734389 0
M  V30 2236 H 213.438 -0.53565 -1.82293 0
M  V30 2237 H 211.588 1.03327 -3.74507 0
M  V30 2238 H 213.26 -1.50265 -4.3614 0
M  V30 2239 H 211.503 -1.47851 -4.07827 0
M  V30 2240 H 212.174 -0.643249 -5.48239 0
M  V30 2241 H 214.65 0.700703 -4.10158 0
M  V30 2242 H 213.526 1.35909 -5.31808 0
M  V30 2243 H 213.787 2.23193 -3.81625 0
M  V30 2244 N 212.846 1.57033 -0.133567 0
M  V30 2245 C 213.776 2.1909 0.807567 0
M  V30 2246 C 214.757 1.13517 1.26681 0
M  V30 2247 O 215.942 1.41809 1.32679 0
M  V30 2248 C 213.072 2.80188 2.05212 0
M  V30 2249 C 212.026 3.91471 1.73015 0
M  V30 2250 C 211.352 4.39443 3.04622 0
M  V30 2251 C 212.652 5.12886 0.987168 0
M  V30 2252 H 214.346 2.97988 0.290403 0
M  V30 2253 H 211.892 1.43335 0.138239 0
M  V30 2254 H 213.845 3.22264 2.71521 0
M  V30 2255 H 212.569 1.98601 2.59278 0
M  V30 2256 H 211.228 3.49993 1.0909 0
M  V30 2257 H 210.876 3.54695 3.56651 0
M  V30 2258 H 210.576 5.14495 2.83847 0
M  V30 2259 H 212.1 4.8418 3.72024 0
M  V30 2260 H 213.514 5.51891 1.55208 0
M  V30 2261 H 211.911 5.93615 0.87985 0
M  V30 2262 H 212.981 4.84894 -0.0235286 0
M  V30 2263 N 214.325 -0.140222 1.56975 0
M  V30 2264 C 215.602 -0.880769 1.74648 0
M  V30 2265 C 215.982 -1.99036 0.703404 0
M  V30 2266 O 215.33 -2.26821 -0.27648 0
M  V30 2267 C 215.54 -1.417 3.18939 0
M  V30 2268 C 216.888 -1.87774 3.80823 0
M  V30 2269 O 217.912 -1.51427 3.2241 0
M  V30 2270 O 216.771 -2.54827 4.83452 0
M  V30 2271 H 213.865 -0.416713 0.714338 0
M  V30 2272 H 216.411 -0.125618 1.69234 0
M  V30 2273 H 215.183 -0.619902 3.86359 0
M  V30 2274 H 214.806 -2.23546 3.28805 0
M  V30 2275 N 215.803 -1.52179 -0.40978 0
M  V30 2276 C 217.214 -1.58377 -0.988615 0
M  V30 2277 C 217.565 -0.423879 -1.91566 0
M  V30 2278 O 216.69 0.455844 -2.11544 0
M  V30 2279 C 217.285 -2.87044 -1.79976 0
M  V30 2280 C 215.844 -2.95722 -2.32863 0
M  V30 2281 C 214.991 -2.53309 -1.12828 0
M  V30 2282 H 217.942 -1.57558 -0.190039 0
M  V30 2283 H 217.963 -2.7236 -2.65707 0
M  V30 2284 H 217.475 -3.71444 -1.12478 0
M  V30 2285 H 215.576 -2.15814 -3.03735 0
M  V30 2286 H 215.689 -3.99951 -2.63773 0
M  V30 2287 H 214.053 -2.07142 -1.48204 0
M  V30 2288 H 214.836 -3.40082 -0.46897 0
M  V30 2289 N 217.281 0.66697 -1.42791 0
M  V30 2290 C 218.228 1.7803 -1.4688 0
M  V30 2291 C 219.198 1.6299 -0.319919 0
M  V30 2292 O 220.383 1.83432 -0.525118 0
M  V30 2293 C 217.523 3.1611 -1.38451 0
M  V30 2294 C 216.636 3.42381 -2.63437 0
M  V30 2295 C 215.771 4.70232 -2.47094 0
M  V30 2296 C 214.81 4.89564 -3.67415 0
M  V30 2297 N 213.947 6.08661 -3.49966 0
M  V30 2298 H 218.787 1.7387 -2.42019 0
M  V30 2299 H 216.324 0.84868 -1.20149 0
M  V30 2300 H 218.282 3.95914 -1.31561 0
M  V30 2301 H 216.912 3.19374 -0.469033 0
M  V30 2302 H 215.964 2.56774 -2.80662 0
M  V30 2303 H 217.276 3.52557 -3.52853 0
M  V30 2304 H 216.43 5.5814 -2.37834 0
M  V30 2305 H 215.169 4.62353 -1.5518 0
M  V30 2306 H 214.174 4.00096 -3.77099 0
M  V30 2307 H 215.399 4.99282 -4.6032 0
M  V30 2308 H 213.345 6.0194 -2.60776 0
M  V30 2309 H 213.262 6.19733 -4.32975 0
M  V30 2310 H 214.53 6.99226 -3.44532 0
M  V30 2311 N 218.759 1.29093 0.90403 0
M  V30 2312 C 219.706 1.13853 2.00764 0
M  V30 2313 C 220.676 0.0330084 1.66067 0
M  V30 2314 O 221.861 0.199733 1.89752 0
M  V30 2315 C 219.001 0.816537 3.35301 0
M  V30 2316 C 218.114 2.00206 3.82807 0
M  V30 2317 C 217.249 1.61983 5.059 0
M  V30 2318 C 216.288 2.77143 5.45764 0
M  V30 2319 N 215.425 2.39346 6.60044 0
M  V30 2320 H 220.265 2.08276 2.13132 0
M  V30 2321 H 217.802 1.03648 1.04381 0
M  V30 2322 H 219.76 0.610557 4.12708 0
M  V30 2323 H 218.39 -0.090779 3.22672 0
M  V30 2324 H 217.442 2.31988 3.01473 0
M  V30 2325 H 218.754 2.86512 4.08304 0
M  V30 2326 H 217.908 1.37649 5.90879 0
M  V30 2327 H 216.647 0.728202 4.82233 0
M  V30 2328 H 215.652 3.02165 4.59322 0
M  V30 2329 H 216.877 3.66964 5.71414 0
M  V30 2330 H 214.823 1.52665 6.37989 0
M  V30 2331 H 214.74 3.19185 6.85315 0
M  V30 2332 H 216.008 2.1832 7.48303 0
M  V30 2333 N 220.237 -1.11381 1.11499 0
M  V30 2334 C 221.2 -2.15622 0.777153 0
M  V30 2335 C 222.2 -1.59504 -0.203779 0
M  V30 2336 O 223.39 -1.74188 0.020782 0
M  V30 2337 C 220.522 -3.40556 0.153116 0
M  V30 2338 H 221.715 -2.47021 1.70061 0
M  V30 2339 H 219.268 -1.26577 0.916952 0
M  V30 2340 H 220.003 -3.14767 -0.780536 0
M  V30 2341 H 219.788 -3.8257 0.859238 0
M  V30 2342 H 221.278 -4.17546 -0.0671044 0
M  V30 2343 N 221.715 -0.905404 -1.28997 0
M  V30 2344 C 222.961 -0.535039 -1.95615 0
M  V30 2345 C 223.294 0.917404 -1.71165 0
M  V30 2346 O 222.569 1.65123 -1.02785 0
M  V30 2347 C 222.852 -0.834918 -3.50287 0
M  V30 2348 C 222.705 -2.33948 -3.84172 0
M  V30 2349 C 224.024 -0.325318 -4.38896 0
M  V30 2350 H 221.143 -0.195861 -0.710498 0
M  V30 2351 H 223.785 -1.13313 -1.52513 0
M  V30 2352 H 221.935 -0.325904 -3.87131 0
M  V30 2353 H 223.607 -2.91847 -3.57243 0
M  V30 2354 H 221.85 -2.79789 -3.31513 0
M  V30 2355 H 222.521 -2.49987 -4.92149 0
M  V30 2356 H 224.997 -0.761256 -4.09077 0
M  V30 2357 H 223.873 -0.564295 -5.45992 0
M  V30 2358 H 224.134 0.774144 -4.35269 0
M  V30 2359 N 223.193 1.4272 -0.668489 0
M  V30 2360 C 224.125 2.2914 0.052613 0
M  V30 2361 C 225.138 1.43339 0.771857 0
M  V30 2362 O 226.327 1.67123 0.627067 0
M  V30 2363 C 223.427 3.20618 1.09804 0
M  V30 2364 C 222.6 4.35039 0.45389 0
M  V30 2365 C 221.659 5.07282 1.39825 0
M  V30 2366 O 220.685 5.62024 0.900978 0
M  V30 2367 N 221.887 5.12206 2.73176 0
M  V30 2368 H 224.652 2.91668 -0.689209 0
M  V30 2369 H 222.213 1.53577 -0.512422 0
M  V30 2370 H 224.205 3.65815 1.73094 0
M  V30 2371 H 222.775 2.59585 1.74167 0
M  V30 2372 H 221.995 3.92567 -0.358396 0
M  V30 2373 H 223.283 5.088 0.00486972 0
M  V30 2374 H 222.681 4.6913 3.16122 0
M  V30 2375 H 221.238 5.61069 3.31729 0
M  V30 2376 N 224.671 0.411399 1.52136 0
M  V30 2377 C 225.601 -0.404015 2.29978 0
M  V30 2378 C 226.582 -1.04412 1.34284 0
M  V30 2379 O 227.767 -1.0527 1.63192 0
M  V30 2380 C 224.897 -1.5197 3.12286 0
M  V30 2381 C 223.851 -1.00448 4.16046 0
M  V30 2382 C 223.177 -2.21393 4.86712 0
M  V30 2383 C 224.477 -0.0569336 5.22269 0
M  V30 2384 H 226.171 0.245529 2.98392 0
M  V30 2385 H 223.717 0.119525 1.43503 0
M  V30 2386 H 225.67 -2.09715 3.6551 0
M  V30 2387 H 224.394 -2.19716 2.41646 0
M  V30 2388 H 223.053 -0.449421 3.63835 0
M  V30 2389 H 222.701 -2.87699 4.12599 0
M  V30 2390 H 222.401 -1.87571 5.56858 0
M  V30 2391 H 223.925 -2.7974 5.4275 0
M  V30 2392 H 225.339 -0.54325 5.7072 0
M  V30 2393 H 223.736 0.192594 5.99791 0
M  V30 2394 H 224.806 0.887663 4.76706 0
M  V30 2395 N 226.149 -1.5696 0.141893 0
M  V30 2396 C 227.079 -2.19516 -0.795936 0
M  V30 2397 C 228.06 -1.14187 -1.26077 0
M  V30 2398 O 229.245 -1.42511 -1.31925 0
M  V30 2399 C 226.375 -2.81272 -2.03723 0
M  V30 2400 C 225.329 -3.92384 -1.70936 0
M  V30 2401 C 224.655 -4.41052 -3.02287 0
M  V30 2402 C 225.955 -5.13403 -0.959954 0
M  V30 2403 H 227.649 -2.98138 -0.274596 0
M  V30 2404 H 225.195 -1.43406 -0.130636 0
M  V30 2405 H 227.148 -3.237 -2.69808 0
M  V30 2406 H 225.872 -1.99973 -2.58221 0
M  V30 2407 H 224.531 -3.50566 -1.07232 0
M  V30 2408 H 224.179 -3.56582 -3.54765 0
M  V30 2409 H 223.879 -5.15993 -2.81114 0
M  V30 2410 H 225.403 -4.86146 -3.69451 0
M  V30 2411 H 226.817 -5.52706 -1.52279 0
M  V30 2412 H 225.214 -5.94073 -0.848357 0
M  V30 2413 H 226.284 -4.84875 0.0492434 0
M  V30 2414 N 227.627 0.131896 -1.57047 0
M  V30 2415 C 228.56 1.19236 -1.94571 0
M  V30 2416 C 229.538 1.40782 -0.813576 0
M  V30 2417 O 230.722 1.55148 -1.07058 0
M  V30 2418 C 227.849 2.54858 -2.23081 0
M  V30 2419 C 226.895 2.49817 -3.45679 0
M  V30 2420 S 227.728 1.95036 -4.98719 0
M  V30 2421 C 228.884 3.32357 -5.30367 0
M  V30 2422 H 229.117 0.872297 -2.84215 0
M  V30 2423 H 226.65 0.338134 -1.50652 0
M  V30 2424 H 228.608 3.32898 -2.40185 0
M  V30 2425 H 227.269 2.84047 -1.34074 0
M  V30 2426 H 226.462 3.49688 -3.62952 0
M  V30 2427 H 226.064 1.79892 -3.27895 0
M  V30 2428 H 228.356 4.28525 -5.2476 0
M  V30 2429 H 229.299 3.19923 -6.31708 0
M  V30 2430 H 229.707 3.3019 -4.57859 0
M  V30 2431 N 229.106 1.52395 0.401703 0
M  V30 2432 C 230.039 1.70999 1.51111 0
M  V30 2433 C 231.017 0.55765 1.52738 0
M  V30 2434 O 232.201 0.785912 1.71335 0
M  V30 2435 C 229.328 1.75607 2.8962 0
M  V30 2436 C 228.374 2.97227 3.05873 0
M  V30 2437 S 229.207 4.57439 2.78405 0
M  V30 2438 C 230.363 4.64844 4.19131 0
M  V30 2439 H 230.596 2.6483 1.35102 0
M  V30 2440 H 228.129 1.42527 0.593762 0
M  V30 2441 H 230.087 1.78947 3.69443 0
M  V30 2442 H 228.748 0.828914 3.02965 0
M  V30 2443 H 227.941 2.96955 4.07227 0
M  V30 2444 H 227.543 2.91813 2.33925 0
M  V30 2445 H 229.835 4.42677 5.12877 0
M  V30 2446 H 230.778 5.66807 4.24424 0
M  V30 2447 H 231.186 3.93804 4.04448 0
M  V30 2448 N 230.584 -0.659388 1.43143 0
M  V30 2449 C 231.83 -1.42145 1.44647 0
M  V30 2450 C 232.163 -1.9408 0.0681907 0
M  V30 2451 O 231.438 -1.71899 -0.910007 0
M  V30 2452 C 231.721 -2.60735 2.48373 0
M  V30 2453 C 231.574 -2.14332 3.95451 0
M  V30 2454 C 232.893 -3.62951 2.48906 0
M  V30 2455 H 230.012 -0.51552 0.526696 0
M  V30 2456 H 232.654 -0.748069 1.74654 0
M  V30 2457 H 230.804 -3.18184 2.22916 0
M  V30 2458 H 232.476 -1.61932 4.31944 0
M  V30 2459 H 230.719 -1.4576 4.08578 0
M  V30 2460 H 231.39 -2.99583 4.63631 0
M  V30 2461 H 233.866 -3.1525 2.71582 0
M  V30 2462 H 232.742 -4.43487 3.23435 0
M  V30 2463 H 233.003 -4.15126 1.52061 0
M  V30 2464 N 232.062 -1.29571 -0.897171 0
M  V30 2465 C 233.012 -1.11539 -1.98855 0
M  V30 2466 C 233.996 -0.0340716 -1.60864 0
M  V30 2467 O 235.188 -0.256062 -1.75138 0
M  V30 2468 C 232.317 -0.796603 -3.3393 0
M  V30 2469 C 231.403 -1.91758 -3.78272 0
M  V30 2470 N 231.794 -3.16143 -3.94826 0
M  V30 2471 C 230.092 -1.81119 -4.07568 0
M  V30 2472 C 230.793 -3.89293 -4.32233 0
M  V30 2473 N 229.769 -3.17255 -4.41419 0
M  V30 2474 H 233.571 -2.05894 -2.09726 0
M  V30 2475 H 231.085 -1.20732 -1.08616 0
M  V30 2476 H 233.082 -0.648459 -4.11826 0
M  V30 2477 H 231.742 0.139003 -3.24402 0
M  V30 2478 H 232.753 -3.5157 -3.80288 0
M  V30 2479 H 229.43 -0.948461 -4.06584 0
M  V30 2480 H 230.82 -4.9635 -4.52865 0
M  V30 2481 N 233.54 1.10788 -1.12088 0
M  V30 2482 C 234.77 1.86191 -0.895351 0
M  V30 2483 C 235.178 1.80763 0.558702 0
M  V30 2484 O 234.521 1.19188 1.39785 0
M  V30 2485 C 234.583 3.35659 -1.28737 0
M  V30 2486 C 234.247 3.64849 -2.75198 0
M  V30 2487 C 235.244 3.61757 -3.734 0
M  V30 2488 C 232.929 3.93641 -3.12013 0
M  V30 2489 C 234.923 3.87045 -5.06434 0
M  V30 2490 C 232.61 4.18585 -4.4523 0
M  V30 2491 C 233.608 4.15277 -5.42249 0
M  V30 2492 O 233.296 4.3959 -6.73065 0
M  V30 2493 H 233.028 0.595425 -0.32007 0
M  V30 2494 H 235.582 1.40992 -1.49367 0
M  V30 2495 H 233.812 3.81497 -0.63224 0
M  V30 2496 H 235.501 3.92441 -1.03656 0
M  V30 2497 H 236.267 3.39557 -3.46303 0
M  V30 2498 H 232.146 3.95348 -2.37109 0
M  V30 2499 H 235.69 3.84378 -5.82151 0
M  V30 2500 H 231.587 4.40264 -4.72057 0
M  V30 2501 H 232.355 4.57123 -6.78956 0
M  V30 2502 N 235.018 0.912232 1.28515 0
M  V30 2503 C 235.95 0.35676 2.26406 0
M  V30 2504 C 236.963 -0.503933 1.54804 0
M  V30 2505 O 238.152 -0.319059 1.75625 0
M  V30 2506 C 235.252 -0.508825 3.35058 0
M  V30 2507 C 234.425 0.329007 4.36161 0
M  V30 2508 C 233.484 -0.471422 5.24084 0
M  V30 2509 O 232.51 0.115482 5.69083 0
M  V30 2510 N 233.712 -1.77479 5.52704 0
M  V30 2511 H 236.477 1.19818 2.74707 0
M  V30 2512 H 234.038 0.778022 1.4198 0
M  V30 2513 H 236.03 -1.051 3.90815 0
M  V30 2514 H 234.6 -1.25095 2.86478 0
M  V30 2515 H 233.82 1.05256 3.79888 0
M  V30 2516 H 235.108 0.90234 5.00735 0
M  V30 2517 H 234.506 -2.27417 5.17975 0
M  V30 2518 H 233.063 -2.26382 6.11224 0
M  V30 2519 N 236.496 -1.42363 0.676048 0
M  V30 2520 C 237.426 -2.33497 0.0124832 0
M  V30 2521 C 238.407 -1.50748 -0.787981 0
M  V30 2522 O 239.592 -1.79346 -0.744884 0
M  V30 2523 C 236.722 -3.34377 -0.938582 0
M  V30 2524 C 235.676 -4.27289 -0.246622 0
M  V30 2525 C 235.002 -5.18386 -1.31071 0
M  V30 2526 C 236.302 -5.14916 0.875125 0
M  V30 2527 H 237.996 -2.89233 0.773593 0
M  V30 2528 H 235.542 -1.39073 0.37346 0
M  V30 2529 H 237.495 -3.97044 -1.41188 0
M  V30 2530 H 236.219 -2.76947 -1.73113 0
M  V30 2531 H 234.878 -3.66018 0.206456 0
M  V30 2532 H 234.526 -4.57282 -2.09528 0
M  V30 2533 H 234.226 -5.81378 -0.852839 0
M  V30 2534 H 235.75 -5.83929 -1.78492 0
M  V30 2535 H 237.164 -5.71262 0.482983 0
M  V30 2536 H 235.561 -5.86747 1.25887 0
M  V30 2537 H 236.631 -4.53242 1.72335 0
M  V30 2538 N 237.974 -0.419461 -1.51915 0
M  V30 2539 C 238.921 0.400927 -2.27291 0
M  V30 2540 C 239.891 1.03224 -1.30131 0
M  V30 2541 O 241.076 1.05455 -1.59009 0
M  V30 2542 C 238.216 1.50603 -3.10504 0
M  V30 2543 C 237.329 0.89462 -4.22635 0
M  V30 2544 C 236.464 1.97328 -4.93189 0
M  V30 2545 C 235.503 1.33935 -5.97267 0
M  V30 2546 N 234.64 2.3586 -6.61298 0
M  V30 2547 H 239.48 -0.248251 -2.96964 0
M  V30 2548 H 237.017 -0.134266 -1.46486 0
M  V30 2549 H 238.975 2.15783 -3.57062 0
M  V30 2550 H 237.605 2.12509 -2.42981 0
M  V30 2551 H 236.657 0.131583 -3.80172 0
M  V30 2552 H 237.969 0.391641 -4.9726 0
M  V30 2553 H 237.123 2.70211 -5.43204 0
M  V30 2554 H 235.862 2.50994 -4.18155 0
M  V30 2555 H 234.867 0.595896 -5.46561 0
M  V30 2556 H 236.092 0.810252 -6.74249 0
M  V30 2557 H 234.038 2.88639 -5.89087 0
M  V30 2558 H 233.955 1.90403 -7.3163 0
M  V30 2559 H 235.223 3.08282 -7.15949 0
M  V30 2560 N 239.452 1.56882 -0.150215 0
M  V30 2561 C 240.701 1.95403 0.500071 0
M  V30 2562 C 241.014 1.03777 1.658 0
M  V30 2563 O 242.22 1.31889 2.37313 0
M  V30 2564 C 240.676 3.4738 0.941018 0
M  V30 2565 C 240.284 4.47596 -0.190158 0
M  V30 2566 C 242.028 3.9476 1.56091 0
M  V30 2567 C 239.935 5.90787 0.269237 0
M  V30 2568 H 238.865 0.729515 0.190588 0
M  V30 2569 H 241.516 1.81988 -0.235074 0
M  V30 2570 H 239.898 3.56138 1.73152 0
M  V30 2571 H 241.072 4.50536 -0.967157 0
M  V30 2572 H 239.387 4.10151 -0.718666 0
M  V30 2573 H 241.984 4.99181 1.9163 0
M  V30 2574 H 242.327 3.36494 2.45107 0
M  V30 2575 H 242.86 3.88932 0.835249 0
M  V30 2576 H 239.599 6.52879 -0.585621 0
M  V30 2577 H 239.119 5.912 1.01204 0
M  V30 2578 H 240.798 6.42979 0.720176 0
M  V30 2579 N 240.93 -0.123565 1.57115 0
M  V30 2580 C 242.179 -0.830704 1.83799 0
M  V30 2581 C 242.492 -1.81259 0.735158 0
M  V30 2582 O 243.698 -2.56558 0.888278 0
M  V30 2583 C 242.154 -1.52802 3.25852 0
M  V30 2584 C 241.762 -0.587356 4.44133 0
M  V30 2585 C 243.506 -2.22056 3.61789 0
M  V30 2586 C 241.413 -1.28764 5.77212 0
M  V30 2587 H 240.343 -0.313967 0.685522 0
M  V30 2588 H 242.994 -0.0834359 1.8331 0
M  V30 2589 H 241.376 -2.32175 3.20797 0
M  V30 2590 H 242.55 0.172829 4.60476 0
M  V30 2591 H 240.865 -0.00201892 4.164 0
M  V30 2592 H 243.462 -2.75131 4.58483 0
M  V30 2593 H 243.805 -2.99644 2.88997 0
M  V30 2594 H 244.338 -1.49576 3.68608 0
M  V30 2595 H 241.077 -0.55314 6.53162 0
M  V30 2596 H 240.597 -2.01995 5.64764 0
M  V30 2597 H 242.276 -1.8221 6.20813 0
M  V30 2598 N 242.408 -1.52605 -0.393616 0
M  V30 2599 C 243.371 -1.76415 -1.46323 0
M  V30 2600 C 244.371 -0.634126 -1.47768 0
M  V30 2601 O 245.561 -0.902142 -1.4902 0
M  V30 2602 C 242.693 -1.8607 -2.85641 0
M  V30 2603 H 243.886 -2.71916 -1.26498 0
M  V30 2604 H 241.439 -1.43257 -0.625073 0
M  V30 2605 H 242.174 -0.925378 -3.10817 0
M  V30 2606 H 241.959 -2.68235 -2.85993 0
M  V30 2607 H 243.449 -2.06179 -3.63153 0
M  V30 2608 N 243.887 0.651787 -1.4349 0
M  V30 2609 C 244.85 1.74647 -1.48429 0
M  V30 2610 C 245.85 1.56513 -0.368817 0
M  V30 2611 O 247.04 1.62385 -0.630623 0
M  V30 2612 C 244.172 3.13533 -1.33827 0
M  V30 2613 H 245.365 1.71649 -2.4592 0
M  V30 2614 H 242.918 0.863573 -1.30277 0
M  V30 2615 H 243.653 3.22142 -0.37349 0
M  V30 2616 H 243.438 3.28101 -2.14691 0
M  V30 2617 H 244.928 3.93356 -1.40218 0
M  V30 2618 N 245.365 1.30045 0.890287 0
M  V30 2619 C 246.312 1.15976 1.99545 0
M  V30 2620 C 247.282 0.0506202 1.66023 0
M  V30 2621 O 248.467 0.219847 1.89529 0
M  V30 2622 C 245.607 0.852054 3.34416 0
M  V30 2623 C 244.72 2.04255 3.80662 0
M  V30 2624 C 243.855 1.6734 5.04154 0
M  V30 2625 C 242.894 2.82916 5.42794 0
M  V30 2626 N 242.031 2.46333 6.57468 0
M  V30 2627 H 246.871 2.10524 2.10911 0
M  V30 2628 H 244.408 1.04749 1.03276 0
M  V30 2629 H 246.366 0.654296 4.12037 0
M  V30 2630 H 244.996 -0.0565502 3.2275 0
M  V30 2631 H 244.048 2.35172 2.98995 0
M  V30 2632 H 245.36 2.90826 4.05242 0
M  V30 2633 H 244.514 1.43908 5.89386 0
M  V30 2634 H 243.253 0.779308 4.81433 0
M  V30 2635 H 242.258 3.0702 4.56091 0
M  V30 2636 H 243.483 3.73004 5.6749 0
M  V30 2637 H 241.429 1.59423 6.36334 0
M  V30 2638 H 241.346 3.26436 6.81891 0
M  V30 2639 H 242.614 2.26244 7.45945 0
M  V30 2640 N 246.843 -1.10192 1.12674 0
M  V30 2641 C 248.071 -1.85983 0.906527 0
M  V30 2642 C 248.486 -1.80783 -0.544333 0
M  V30 2643 O 247.843 -1.19834 -1.37645 0
M  V30 2644 C 247.894 -3.34281 1.37618 0
M  V30 2645 O 247.615 -3.39401 2.77017 0
M  V30 2646 C 249.116 -4.26938 1.19325 0
M  V30 2647 H 246.336 -0.587716 0.323775 0
M  V30 2648 H 248.88 -1.39284 1.49734 0
M  V30 2649 H 247.035 -3.78436 0.828539 0
M  V30 2650 H 247.449 -4.31838 2.97684 0
M  V30 2651 H 248.923 -5.29181 1.57071 0
M  V30 2652 H 249.4 -4.38995 0.134097 0
M  V30 2653 H 250.006 -3.8859 1.72852 0
M  V30 2654 N 248.321 -0.919034 -1.28029 0
M  V30 2655 C 249.567 -0.555757 -1.95036 0
M  V30 2656 C 249.9 0.899198 -1.72128 0
M  V30 2657 O 249.175 1.64023 -1.04531 0
M  V30 2658 C 249.458 -0.872024 -3.49382 0
M  V30 2659 C 249.311 -2.3801 -3.81669 0
M  V30 2660 C 250.63 -0.37185 -4.38526 0
M  V30 2661 H 247.749 -0.203386 -0.708381 0
M  V30 2662 H 250.391 -1.14924 -1.51303 0
M  V30 2663 H 248.541 -0.366946 -3.86763 0
M  V30 2664 H 250.213 -2.9562 -3.54128 0
M  V30 2665 H 248.456 -2.83289 -3.28526 0
M  V30 2666 H 249.127 -2.55192 -4.8947 0
M  V30 2667 H 251.603 -0.804602 -4.08247 0
M  V30 2668 H 250.479 -0.622173 -5.45362 0
M  V30 2669 H 250.74 0.727934 -4.36066 0
M  V30 2670 N 249.799 1.42003 -0.683588 0
M  V30 2671 C 250.729 2.33487 -0.024866 0
M  V30 2672 C 251.71 1.51163 0.779975 0
M  V30 2673 O 252.895 1.79739 0.735362 0
M  V30 2674 C 250.025 3.3487 0.920836 0
M  V30 2675 C 248.979 4.27414 0.223958 0
M  V30 2676 C 248.305 5.19074 1.2832 0
M  V30 2677 C 249.605 5.14445 -0.90242 0
M  V30 2678 H 251.299 2.88819 -0.788921 0
M  V30 2679 H 248.845 1.38873 -0.38083 0
M  V30 2680 H 250.798 3.97787 1.39081 0
M  V30 2681 H 249.522 2.77861 1.71642 0
M  V30 2682 H 248.181 3.65904 -0.225864 0
M  V30 2683 H 247.829 4.58387 2.071 0
M  V30 2684 H 247.529 5.81822 0.821995 0
M  V30 2685 H 249.053 5.84867 1.75392 0
M  V30 2686 H 250.467 5.70998 -0.513272 0
M  V30 2687 H 248.864 5.86072 -1.28997 0
M  V30 2688 H 249.934 4.52322 -1.74737 0
M  V30 2689 N 251.277 0.427512 1.51691 0
M  V30 2690 C 252.225 -0.403359 2.29076 0
M  V30 2691 C 253.219 -1.02962 1.34518 0
M  V30 2692 O 254.425 -0.965715 1.51901 0
M  V30 2693 H 250.8 -0.148879 0.737115 0
M  V30 2694 H 252.771 0.270295 2.97173 0
M  V30 2695 C 251.52 -1.49763 3.13794 0
M  V30 2696 H 250.843 -1.02508 3.86435 0
M  V30 2697 H 252.283 -2.05244 3.71014 0
M  V30 2698 C 250.742 -2.47536 2.28533 0
M  V30 2699 O 251.272 -3.51848 1.93819 0
M  V30 2700 N 249.478 -2.18187 1.91945 0
M  V30 2701 H 249.025 -1.33389 2.20375 0
M  V30 2702 H 248.983 -2.83848 1.35195 0
M  V30 2703 N 252.755 -1.56801 0.158532 0
M  V30 2704 C 254.166 -1.83189 -0.360366 0
M  V30 2705 C 254.517 -1.07778 -1.63946 0
M  V30 2706 O 253.642 -0.326718 -2.13919 0
M  V30 2707 C 254.237 -3.32297 -0.660595 0
M  V30 2708 C 252.796 -3.59227 -1.12398 0
M  V30 2709 C 251.943 -2.76877 -0.153097 0
M  V30 2710 H 254.894 -1.54008 0.383031 0
M  V30 2711 H 254.915 -3.4908 -1.51405 0
M  V30 2712 H 254.427 -3.87156 0.270527 0
M  V30 2713 H 252.528 -3.09766 -2.07064 0
M  V30 2714 H 252.641 -4.67632 -1.04197 0
M  V30 2715 H 251.005 -2.46319 -0.647983 0
M  V30 2716 H 251.788 -3.34511 0.77182 0
M  V30 2717 N 254.233 0.115231 -1.57178 0
M  V30 2718 C 255.18 1.14115 -2.00615 0
M  V30 2719 C 256.15 1.40939 -0.878941 0
M  V30 2720 O 257.335 1.52741 -1.14345 0
M  V30 2721 C 254.475 2.46156 -2.4187 0
M  V30 2722 C 253.588 2.26236 -3.68024 0
M  V30 2723 C 252.723 3.51534 -3.98243 0
M  V30 2724 C 251.762 3.26787 -5.17568 0
M  V30 2725 N 250.899 4.44298 -5.43639 0
M  V30 2726 H 255.739 0.763743 -2.88047 0
M  V30 2727 H 253.276 0.365615 -1.42484 0
M  V30 2728 H 255.234 3.23189 -2.63827 0
M  V30 2729 H 253.864 2.81783 -1.57475 0
M  V30 2730 H 252.916 1.40102 -3.5366 0
M  V30 2731 H 254.228 2.03929 -4.55208 0
M  V30 2732 H 253.382 4.36984 -4.20868 0
M  V30 2733 H 252.121 3.76876 -3.09541 0
M  V30 2734 H 251.126 2.39729 -4.94783 0
M  V30 2735 H 252.351 3.02812 -6.0785 0
M  V30 2736 H 250.297 4.69754 -4.57895 0
M  V30 2737 H 250.214 4.25109 -6.25154 0
M  V30 2738 H 251.482 5.3087 -5.70786 0
M  V30 2739 N 255.711 1.52812 0.385517 0
M  V30 2740 C 256.643 1.74096 1.49074 0
M  V30 2741 C 257.656 0.621462 1.50472 0
M  V30 2742 O 258.845 0.897245 1.54311 0
M  V30 2743 C 255.945 1.78774 2.87911 0
M  V30 2744 C 255.118 3.08134 3.10439 0
M  V30 2745 C 254.177 3.04313 4.29278 0
M  V30 2746 O 253.203 3.78168 4.25415 0
M  V30 2747 N 254.405 2.23741 5.35649 0
M  V30 2748 H 257.17 2.69455 1.31202 0
M  V30 2749 H 254.731 1.51343 0.575065 0
M  V30 2750 H 256.723 1.73721 3.65518 0
M  V30 2751 H 255.293 0.907869 2.99126 0
M  V30 2752 H 254.513 3.26649 2.20667 0
M  V30 2753 H 255.801 3.93662 3.22347 0
M  V30 2754 H 255.199 1.63211 5.41645 0
M  V30 2755 H 253.756 2.24524 6.11909 0
M  V30 2756 N 257.189 -0.644168 1.43834 0
M  V30 2757 C 258.122 -1.76906 1.44151 0
M  V30 2758 C 259.1 -1.59774 0.301857 0
M  V30 2759 O 260.284 -1.81834 0.496841 0
M  V30 2760 C 257.411 -3.14321 1.26174 0
M  V30 2761 C 256.457 -3.50134 2.43533 0
M  V30 2762 S 257.29 -3.49085 4.06079 0
M  V30 2763 C 258.446 -4.89142 3.90501 0
M  V30 2764 H 258.679 -1.76368 2.39336 0
M  V30 2765 H 256.212 -0.817624 1.30974 0
M  V30 2766 H 258.17 -3.93625 1.16489 0
M  V30 2767 H 256.831 -3.12412 0.325224 0
M  V30 2768 H 256.024 -4.50095 2.26783 0
M  V30 2769 H 255.626 -2.78264 2.4989 0
M  V30 2770 H 257.918 -5.78036 3.53385 0
M  V30 2771 H 258.861 -5.10945 4.90246 0
M  V30 2772 H 259.269 -4.63102 3.22795 0
M  V30 2773 N 258.668 -1.30515 -0.883378 0
M  V30 2774 C 259.598 -1.19607 -2.00541 0
M  V30 2775 C 260.579 -0.086346 -1.69881 0
M  V30 2776 O 261.764 -0.268654 -1.92333 0
M  V30 2777 C 258.894 -0.888758 -3.35736 0
M  V30 2778 C 257.848 -1.95659 -3.8066 0
M  V30 2779 C 257.174 -1.50224 -5.13164 0
M  V30 2780 C 258.474 -3.36788 -3.99213 0
M  V30 2781 H 260.168 -2.13476 -2.09925 0
M  V30 2782 H 257.714 -1.02775 -1.00863 0
M  V30 2783 H 259.667 -0.799094 -4.13754 0
M  V30 2784 H 258.391 0.0856125 -3.26488 0
M  V30 2785 H 257.05 -2.03591 -3.04871 0
M  V30 2786 H 256.698 -0.516092 -5.00345 0
M  V30 2787 H 256.398 -2.2165 -5.44192 0
M  V30 2788 H 257.922 -1.42639 -5.93706 0
M  V30 2789 H 259.336 -3.31605 -4.67665 0
M  V30 2790 H 257.733 -4.06314 -4.41621 0
M  V30 2791 H 258.803 -3.78561 -3.03017 0
M  V30 2792 N 260.146 1.09593 -1.13257 0
M  V30 2793 C 261.371 1.8604 -0.916732 0
M  V30 2794 C 261.796 1.80504 0.529146 0
M  V30 2795 O 261.154 1.18127 1.37534 0
M  V30 2796 C 261.202 3.32017 -1.40703 0
M  V30 2797 O 260.306 4.08141 -0.591153 0
M  V30 2798 H 259.647 0.576943 -0.328683 0
M  V30 2799 H 262.177 1.38405 -1.50682 0
M  V30 2800 H 262.187 3.82865 -1.4099 0
M  V30 2801 H 260.862 3.35361 -2.45979 0
M  V30 2802 H 259.439 3.67084 -0.656005 0
M  V30 2803 N 261.624 0.925811 1.2754 0
M  V30 2804 C 263.035 0.610102 1.7645 0
M  V30 2805 C 263.386 -0.874723 1.75622 0
M  V30 2806 O 262.511 -1.68444 1.35851 0
M  V30 2807 C 263.106 1.10073 3.20421 0
M  V30 2808 C 261.665 0.835723 3.67005 0
M  V30 2809 C 260.812 1.26054 2.46993 0
M  V30 2810 H 263.763 1.10579 1.13833 0
M  V30 2811 H 263.784 0.447557 3.77859 0
M  V30 2812 H 263.296 2.18143 3.20991 0
M  V30 2813 H 261.397 -0.231249 3.71882 0
M  V30 2814 H 261.51 1.45193 4.56569 0
M  V30 2815 H 259.874 0.679111 2.45479 0
M  V30 2816 H 260.657 2.34984 2.50275 0
M  V30 2817 N 263.102 -1.41638 0.69111 0
M  V30 2818 C 264.518 -1.55435 0.362224 0
M  V30 2819 C 264.718 -1.66754 -1.13117 0
M  V30 2820 O 263.774 -1.64348 -1.91692 0
M  V30 2821 C 265.087 -2.79588 1.10684 0
M  V30 2822 C 266.635 -2.9338 1.09075 0
M  V30 2823 C 267.11 -4.20414 1.81703 0
M  V30 2824 N 268.601 -4.27362 1.7865 0
M  V30 2825 C 269.336 -5.24507 2.31689 0
M  V30 2826 N 268.832 -6.27708 2.93179 0
M  V30 2827 N 270.625 -5.16416 2.2197 0
M  V30 2828 H 262.776 -1.32536 1.65976 0
M  V30 2829 H 265.039 -0.639115 0.700168 0
M  V30 2830 H 264.745 -2.77419 2.16175 0
M  V30 2831 H 264.619 -3.70973 0.682545 0
M  V30 2832 H 267.006 -2.95067 0.0441238 0
M  V30 2833 H 267.087 -2.0318 1.55407 0
M  V30 2834 H 266.731 -4.19488 2.86343 0
M  V30 2835 H 266.661 -5.09578 1.32808 0
M  V30 2836 H 269.152 -3.53415 1.33815 0
M  V30 2837 H 269.465 -6.98217 3.31229 0
M  V30 2838 H 267.81 -6.28223 2.97255 0
M  V30 2839 H 271.001 -4.34716 1.73607 0
M  V30 2840 H 271.174 -5.91958 2.63609 0
M  V30 2841 N 264.58 -0.43555 -1.51462 0
M  V30 2842 C 265.49 0.383001 -2.31453 0
M  V30 2843 C 266.506 1.02931 -1.4029 0
M  V30 2844 O 267.682 1.02507 -1.73362 0
M  V30 2845 C 264.747 1.47043 -3.13973 0
M  V30 2846 C 263.808 0.844433 -4.20913 0
M  V30 2847 C 263.041 1.88004 -4.9949 0
M  V30 2848 O 263.264 3.10199 -4.78678 0
M  V30 2849 O 262.198 1.47157 -5.83634 0
M  V30 2850 H 266.024 -0.269964 -3.02498 0
M  V30 2851 H 263.609 -0.19813 -1.4808 0
M  V30 2852 H 265.491 2.10113 -3.65281 0
M  V30 2853 H 264.166 2.10751 -2.45695 0
M  V30 2854 H 263.073 0.175729 -3.73687 0
M  V30 2855 H 264.406 0.250869 -4.9156 0
M  V30 2856 N 266.058 1.56714 -0.166846 0
M  V30 2857 C 266.991 2.13577 0.80375 0
M  V30 2858 C 267.969 1.06464 1.22899 0
M  V30 2859 O 269.153 1.34413 1.32157 0
M  V30 2860 C 266.28 2.67168 2.0818 0
M  V30 2861 C 265.326 3.86612 1.80093 0
M  V30 2862 S 266.159 5.26565 0.97416 0
M  V30 2863 C 267.315 5.83558 2.26297 0
M  V30 2864 H 267.548 2.9557 0.320267 0
M  V30 2865 H 265.081 1.54326 0.0477555 0
M  V30 2866 H 267.039 2.98692 2.8159 0
M  V30 2867 H 265.7 1.85269 2.53642 0
M  V30 2868 H 264.893 4.22422 2.7491 0
M  V30 2869 H 264.495 3.55951 1.14781 0
M  V30 2870 H 266.787 5.962 3.21795 0
M  V30 2871 H 267.73 6.80731 1.94962 0
M  V30 2872 H 268.138 5.11944 2.37853 0
M  V30 2873 N 267.536 -0.106894 1.57237 0
M  V30 2874 C 268.466 -1.13148 2.04254 0
M  V30 2875 C 269.447 -1.42476 0.929224 0
M  V30 2876 O 270.632 -1.52709 1.19973 0
M  V30 2877 C 267.762 -2.4545 2.45706 0
M  V30 2878 C 266.716 -2.30558 3.60592 0
M  V30 2879 C 266.042 -3.67931 3.87983 0
M  V30 2880 C 267.342 -1.75597 4.91897 0
M  V30 2881 H 269.036 -0.740374 2.90101 0
M  V30 2882 H 266.582 -0.354696 1.39563 0
M  V30 2883 H 268.535 -3.17389 2.77205 0
M  V30 2884 H 267.259 -2.86475 1.56843 0
M  V30 2885 H 265.918 -1.61067 3.29322 0
M  V30 2886 H 265.566 -4.06462 2.96306 0
M  V30 2887 H 265.266 -3.58817 4.65322 0
M  V30 2888 H 266.79 -4.41356 4.21945 0
M  V30 2889 H 268.204 -2.37364 5.21854 0
M  V30 2890 H 266.601 -1.77272 5.73319 0
M  V30 2891 H 267.671 -0.714451 4.79608 0
M  V30 2892 N 269.014 -1.53014 -0.377408 0
M  V30 2893 C 270.254 -1.70318 -1.1301 0
M  V30 2894 C 270.618 -0.439538 -1.86901 0
M  V30 2895 O 271.819 -0.489095 -2.64313 0
M  V30 2896 C 270.09 -2.91125 -2.07319 0
M  V30 2897 S 271.649 -3.29075 -2.90268 0
M  V30 2898 H 268.467 -0.599426 -0.382374 0
M  V30 2899 H 271.069 -1.91089 -0.412933 0
M  V30 2900 H 269.773 -3.81303 -1.51777 0
M  V30 2901 H 269.304 -2.7272 -2.83526 0
M  V30 2902 H 271.319 -2.80165 -4.09539 0
M  V30 2903 N 270.492 0.636531 -1.44174 0
M  V30 2904 C 271.422 1.76003 -1.53444 0
M  V30 2905 C 272.403 1.65619 -0.387841 0
M  V30 2906 O 273.588 1.84461 -0.607257 0
M  V30 2907 C 270.718 3.14511 -1.4731 0
M  V30 2908 C 269.672 3.39677 -2.60391 0
M  V30 2909 C 268.998 4.78159 -2.39308 0
M  V30 2910 C 270.298 3.32772 -4.02567 0
M  V30 2911 H 271.992 1.68501 -2.47483 0
M  V30 2912 H 269.538 0.809237 -1.19111 0
M  V30 2913 H 271.491 3.92878 -1.52397 0
M  V30 2914 H 270.215 3.22783 -0.49785 0
M  V30 2915 H 268.874 2.63688 -2.54684 0
M  V30 2916 H 268.522 4.83128 -1.39988 0
M  V30 2917 H 268.222 4.95956 -3.15122 0
M  V30 2918 H 269.746 5.58762 -2.46205 0
M  V30 2919 H 271.16 4.01051 -4.09672 0
M  V30 2920 H 269.557 3.62104 -4.7854 0
M  V30 2921 H 270.627 2.30669 -4.2652 0
M  V30 2922 N 271.97 1.30982 0.876444 0
M  V30 2923 C 273.216 1.20474 1.63138 0
M  V30 2924 C 273.549 -0.238096 1.92735 0
M  V30 2925 O 272.824 -1.1692 1.55435 0
M  V30 2926 C 273.107 2.04244 2.96574 0
M  V30 2927 C 272.96 3.56793 2.73896 0
M  V30 2928 C 274.279 1.88684 3.97601 0
M  V30 2929 H 271.398 0.439001 0.591985 0
M  V30 2930 H 274.04 1.60704 1.01361 0
M  V30 2931 H 272.19 1.70063 3.493 0
M  V30 2932 H 273.862 4.01077 2.27892 0
M  V30 2933 H 272.105 3.80548 2.08245 0
M  V30 2934 H 272.776 4.10706 3.68815 0
M  V30 2935 H 275.252 2.18584 3.54062 0
M  V30 2936 H 274.128 2.4961 4.88862 0
M  V30 2937 H 274.389 0.848343 4.33884 0
M  V30 2938 N 273.449 -1.08991 1.13837 0
M  V30 2939 C 274.695 -1.81699 0.91417 0
M  V30 2940 C 275.05 -1.84264 -0.553594 0
M  V30 2941 O 274.343 -1.30313 -1.4046 0
M  V30 2942 C 274.537 -3.27042 1.44147 0
M  V30 2943 C 274.366 -3.38637 2.95897 0
M  V30 2944 C 273.136 -3.50177 3.64286 0
M  V30 2945 C 275.334 -3.30791 3.93804 0
M  V30 2946 N 273.316 -3.50501 5.04006 0
M  V30 2947 C 274.687 -3.38037 5.19741 0
M  V30 2948 C 276.742 -3.14488 3.86007 0
M  V30 2949 C 275.445 -3.30659 6.38793 0
M  V30 2950 C 277.471 -3.08438 5.04599 0
M  V30 2951 C 276.833 -3.1628 6.29402 0
M  V30 2952 H 272.932 -0.678967 0.387979 0
M  V30 2953 H 275.516 -1.30224 1.4474 0
M  V30 2954 H 273.687 -3.76976 0.935091 0
M  V30 2955 H 275.419 -3.87785 1.1578 0
M  V30 2956 H 272.174 -3.53815 3.1482 0
M  V30 2957 H 272.598 -3.54236 5.76928 0
M  V30 2958 H 277.24 -3.07291 2.90399 0
M  V30 2959 H 274.958 -3.36618 7.34652 0
M  V30 2960 H 278.544 -2.96952 5.0031 0
M  V30 2961 H 277.424 -3.1162 7.19627 0
M  V30 2962 N 274.927 -0.932562 -1.27047 0
M  V30 2963 C 275.89 -0.440064 -2.24936 0
M  V30 2964 C 276.89 0.444071 -1.54547 0
M  V30 2965 O 278.08 0.244465 -1.72476 0
M  V30 2966 C 275.212 0.36678 -3.38921 0
M  V30 2967 H 276.405 -1.305 -2.70018 0
M  V30 2968 H 273.958 -0.713707 -1.39054 0
M  V30 2969 H 274.693 1.25033 -2.99228 0
M  V30 2970 H 274.478 -0.267204 -3.91188 0
M  V30 2971 H 275.968 0.701567 -4.11665 0
M  V30 2972 N 276.405 1.4127 -0.698611 0
M  V30 2973 C 277.63 2.06024 -0.238512 0
M  V30 2974 C 278.055 1.5224 1.10475 0
M  V30 2975 O 277.413 0.650623 1.69223 0
M  V30 2976 C 277.461 3.59988 -0.209952 0
M  V30 2977 O 276.565 4.04282 0.814235 0
M  V30 2978 H 275.906 0.653829 -0.115775 0
M  V30 2979 H 278.436 1.8098 -0.954326 0
M  V30 2980 H 278.446 4.07979 -0.0418436 0
M  V30 2981 H 277.121 3.98503 -1.1903 0
M  V30 2982 H 275.698 3.6779 0.615234 0
M  V30 2983 N 277.883 0.443576 1.51229 0
M  V30 2984 C 278.83 -0.364716 2.279 0
M  V30 2985 C 279.8 -1.0114 1.31757 0
M  V30 2986 O 280.985 -1.02912 1.60667 0
M  V30 2987 C 278.125 -1.45644 3.12861 0
M  V30 2988 C 277.238 -0.827269 4.24005 0
M  V30 2989 C 276.373 -1.89456 4.96266 0
M  V30 2990 C 275.412 -1.24416 5.99322 0
M  V30 2991 N 274.549 -2.25309 6.64966 0
M  V30 2992 H 279.389 0.295464 2.96532 0
M  V30 2993 H 276.926 0.157554 1.46254 0
M  V30 2994 H 278.884 -2.10076 3.6045 0
M  V30 2995 H 277.514 -2.08616 2.46331 0
M  V30 2996 H 276.566 -0.0710839 3.80334 0
M  V30 2997 H 277.878 -0.312481 4.9782 0
M  V30 2998 H 277.032 -2.61535 5.47434 0
M  V30 2999 H 275.771 -2.4431 4.22095 0
M  V30 3000 H 274.776 -0.508868 5.4744 0
M  V30 3001 H 276.001 -0.702882 6.75453 0
M  V30 3002 H 273.947 -2.79231 5.93604 0
M  V30 3003 H 273.864 -1.78739 7.34567 0
M  V30 3004 H 275.132 -2.96853 7.20763 0
M  V30 3005 N 279.361 -1.56624 0.175154 0
M  V30 3006 C 280.609 -1.96609 -0.467885 0
M  V30 3007 C 280.93 -1.06238 -1.63519 0
M  V30 3008 O 280.2 -0.129523 -1.95471 0
M  V30 3009 H 278.78 -0.726008 -0.175845 0
M  V30 3010 H 281.442 -1.93195 0.257234 0
M  V30 3011 H 280.538 -3.00989 -0.825342 0
M  V30 3012 N 280.839 0.0985539 -1.57292 0
M  V30 3013 C 281.786 1.11981 -2.01814 0
M  V30 3014 C 282.756 1.39999 -0.89384 0
M  V30 3015 O 283.941 1.5152 -1.15958 0
M  V30 3016 C 281.081 2.43577 -2.44467 0
M  V30 3017 C 280.194 2.2232 -3.70402 0
M  V30 3018 C 279.329 3.4729 -4.01949 0
M  V30 3019 C 278.368 3.2128 -5.21005 0
M  V30 3020 N 277.505 4.38507 -5.48321 0
M  V30 3021 H 282.345 0.733149 -2.88841 0
M  V30 3022 H 279.882 0.350482 -1.42864 0
M  V30 3023 H 281.84 3.20373 -2.6724 0
M  V30 3024 H 280.47 2.80097 -1.60455 0
M  V30 3025 H 279.522 1.36343 -3.55126 0
M  V30 3026 H 280.834 1.99089 -4.57345 0
M  V30 3027 H 279.988 4.32495 -4.25479 0
M  V30 3028 H 278.727 3.73572 -3.13521 0
M  V30 3029 H 277.732 2.34468 -4.97298 0
M  V30 3030 H 278.957 2.96348 -6.11028 0
M  V30 3031 H 276.903 4.64871 -4.62851 0
M  V30 3032 H 276.82 4.18455 -6.29628 0
M  V30 3033 H 278.088 5.24787 -5.76385 0
M  V30 3034 N 282.317 1.53212 0.369288 0
M  V30 3035 C 283.545 1.73119 1.13303 0
M  V30 3036 C 283.96 0.458455 1.83149 0
M  V30 3037 O 283.317 -0.568403 1.73423 0
M  V30 3038 C 283.368 2.89413 2.16616 0
M  V30 3039 O 283.089 4.11761 1.49614 0
M  V30 3040 C 284.59 3.21161 3.05566 0
M  V30 3041 H 281.81 0.579107 0.338934 0
M  V30 3042 H 284.354 1.99942 0.429338 0
M  V30 3043 H 282.509 2.64994 2.82589 0
M  V30 3044 H 282.923 4.76858 2.18419 0
M  V30 3045 H 284.397 4.05949 3.74045 0
M  V30 3046 H 284.874 2.36369 3.70171 0
M  V30 3047 H 285.48 3.47492 2.45213 0
M  V30 3048 N 283.795 -0.628877 1.44509 0
M  V30 3049 C 284.758 -1.72263 1.51188 0
M  V30 3050 C 285.758 -1.55907 0.39367 0
M  V30 3051 O 286.948 -1.61361 0.656377 0
M  V30 3052 C 284.08 -3.11365 1.38798 0
M  V30 3053 H 285.273 -1.67714 2.4862 0
M  V30 3054 H 282.826 -0.842737 1.31634 0
M  V30 3055 H 283.561 -3.21507 0.424693 0
M  V30 3056 H 283.346 -3.24644 2.19884 0
M  V30 3057 H 284.836 -3.91075 1.46458 0
M  V30 3058 N 285.273 -1.31445 -0.869486 0
M  V30 3059 C 286.498 -1.24256 -1.66058 0
M  V30 3060 C 286.923 0.188928 -1.87149 0
M  V30 3061 O 286.281 1.13522 -1.4136 0
M  V30 3062 C 286.329 -1.9924 -3.00559 0
M  V30 3063 O 285.433 -1.33007 -3.90362 0
M  V30 3064 H 284.774 -0.428973 -0.506831 0
M  V30 3065 H 287.304 -1.73521 -1.08404 0
M  V30 3066 H 287.314 -2.08854 -3.50491 0
M  V30 3067 H 285.989 -3.03342 -2.84528 0
M  V30 3068 H 284.566 -1.31848 -3.48813 0
M  V30 3069 N 286.751 1.08385 -1.14413 0
M  V30 3070 C 287.997 1.81044 -0.913834 0
M  V30 3071 C 288.33 1.86004 0.558209 0
M  V30 3072 O 287.605 1.33606 1.4135 0
M  V30 3073 C 287.888 3.26648 -1.51569 0
M  V30 3074 C 287.741 3.29895 -3.0576 0
M  V30 3075 C 289.06 4.23629 -1.19273 0
M  V30 3076 H 286.179 0.65727 -0.333414 0
M  V30 3077 H 288.821 1.26896 -1.41412 0
M  V30 3078 H 286.971 3.72889 -1.09023 0
M  V30 3079 H 288.643 2.91977 -3.57137 0
M  V30 3080 H 286.886 2.69163 -3.40197 0
M  V30 3081 H 287.557 4.32516 -3.42977 0
M  V30 3082 H 290.033 3.85727 -1.56057 0
M  V30 3083 H 288.909 5.23822 -1.64017 0
M  V30 3084 H 289.17 4.41968 -0.108068 0
M  V30 3085 N 288.23 0.939286 1.26551 0
M  V30 3086 C 289.458 0.602536 1.97932 0
M  V30 3087 C 289.873 -0.82206 1.69964 0
M  V30 3088 O 289.23 -1.54789 0.966784 0
M  V30 3089 C 289.281 0.832946 3.51773 0
M  V30 3090 O 289.002 2.20151 3.78768 0
M  V30 3091 C 290.503 0.506483 4.40397 0
M  V30 3092 H 287.723 0.227248 0.631347 0
M  V30 3093 H 290.267 1.25948 1.61113 0
M  V30 3094 H 288.422 0.222644 3.8676 0
M  V30 3095 H 288.836 2.26013 4.73306 0
M  V30 3096 H 290.31 0.718333 5.47306 0
M  V30 3097 H 290.787 -0.558451 4.35635 0
M  V30 3098 H 291.393 1.09543 4.10951 0
M  V30 3099 N 289.708 -1.40897 0.706093 0
M  V30 3100 C 290.671 -2.29131 0.0562841 0
M  V30 3101 C 291.671 -1.44901 -0.697166 0
M  V30 3102 O 292.861 -1.65926 -0.530484 0
M  V30 3103 C 289.993 -3.27957 -0.93043 0
M  V30 3104 H 291.186 -2.88091 0.833284 0
M  V30 3105 H 288.739 -1.4906 0.470192 0
M  V30 3106 H 289.474 -2.73997 -1.73482 0
M  V30 3107 H 289.259 -3.90124 -0.393166 0
M  V30 3108 H 290.749 -3.94049 -1.38256 0
M  V30 3109 N 291.186 -0.45159 -1.50991 0
M  V30 3110 C 292.134 0.366864 -2.29689 0
M  V30 3111 C 293.128 1.00809 -1.36139 0
M  V30 3112 O 294.334 0.941427 -1.53418 0
M  V30 3113 H 290.709 0.137133 -0.739391 0
M  V30 3114 H 292.68 -0.317538 -2.96706 0
M  V30 3115 C 291.429 1.44751 -3.16137 0
M  V30 3116 H 290.752 0.963473 -3.88017 0
M  V30 3117 H 292.192 1.99315 -3.74232 0
M  V30 3118 C 290.651 2.43869 -2.32442 0
M  V30 3119 O 291.181 3.4872 -1.99392 0
M  V30 3120 N 289.387 2.15105 -1.95392 0
M  V30 3121 H 288.934 1.29866 -2.22469 0
M  V30 3122 H 288.892 2.81661 -1.39693 0
M  V30 3123 N 292.664 1.56529 -0.183458 0
M  V30 3124 C 293.594 2.21549 0.737456 0
M  V30 3125 C 294.575 1.17489 1.23005 0
M  V30 3126 O 295.76 1.45959 1.281 0
M  V30 3127 C 292.89 2.86575 1.96194 0
M  V30 3128 C 291.844 3.96778 1.60473 0
M  V30 3129 C 291.17 4.48911 2.90487 0
M  V30 3130 C 292.47 5.15767 0.823497 0
M  V30 3131 H 294.164 2.98761 0.195453 0
M  V30 3132 H 291.71 1.43702 0.0925686 0
M  V30 3133 H 293.663 3.30739 2.61131 0
M  V30 3134 H 292.387 2.06749 2.52828 0
M  V30 3135 H 291.046 3.53286 0.978997 0
M  V30 3136 H 290.694 3.65862 3.45186 0
M  V30 3137 H 290.394 5.23265 2.67335 0
M  V30 3138 H 291.918 4.95771 3.56432 0
M  V30 3139 H 293.332 5.56549 1.37571 0
M  V30 3140 H 291.729 5.96114 0.690551 0
M  V30 3141 H 292.799 4.84574 -0.177782 0
M  V30 3142 N 294.142 -0.090211 1.57342 0
M  V30 3143 C 295.37 -0.806224 1.90546 0
M  V30 3144 C 295.785 -1.72041 0.777644 0
M  V30 3145 O 295.142 -1.80778 -0.250103 0
M  V30 3146 C 295.193 -1.61546 3.23396 0
M  V30 3147 O 294.914 -0.738043 4.31839 0
M  V30 3148 C 296.415 -2.4341 3.70495 0
M  V30 3149 H 293.635 -0.230256 0.630257 0
M  V30 3150 H 296.179 -0.0659843 2.04394 0
M  V30 3151 H 294.334 -2.30816 3.11131 0
M  V30 3152 H 294.748 -1.29901 5.08159 0
M  V30 3153 H 296.222 -2.95676 4.66133 0
M  V30 3154 H 296.699 -3.22098 2.98579 0
M  V30 3155 H 297.305 -1.79331 3.85643 0
M  V30 3156 N 295.62 -1.53406 -0.361157 0
M  V30 3157 C 296.868 -1.69467 -1.10115 0
M  V30 3158 C 297.189 -0.451352 -1.89705 0
M  V30 3159 O 296.459 0.534636 -1.88463 0
M  V30 3160 H 295.039 -0.624749 -0.409508 0
M  V30 3161 H 297.701 -1.90609 -0.406699 0
M  V30 3162 H 296.797 -2.55774 -1.78847 0
M  V30 3163 N 297.098 0.621204 -1.44841 0
M  V30 3164 C 298.347 1.37658 -1.47422 0
M  V30 3165 C 298.66 1.95264 -0.114629 0
M  V30 3166 O 299.866 2.71494 -0.0180199 0
M  V30 3167 C 298.322 2.49285 -2.59586 0
M  V30 3168 C 297.93 1.98149 -4.01797 0
M  V30 3169 C 299.674 3.26409 -2.71399 0
M  V30 3170 C 297.581 3.07178 -5.05367 0
M  V30 3171 H 296.511 0.517344 -0.548517 0
M  V30 3172 H 299.162 0.667257 -1.70938 0
M  V30 3173 H 297.544 3.22839 -2.29328 0
M  V30 3174 H 298.718 1.31395 -4.41669 0
M  V30 3175 H 297.033 1.33812 -3.94314 0
M  V30 3176 H 299.63 4.07706 -3.45948 0
M  V30 3177 H 299.973 3.76535 -1.77559 0
M  V30 3178 H 300.506 2.5995 -3.01116 0
M  V30 3179 H 297.245 2.61985 -6.00869 0
M  V30 3180 H 296.765 3.72542 -4.70077 0
M  V30 3181 H 298.444 3.71789 -5.29511 0
M  V30 3182 N 298.576 1.31904 0.862503 0
M  V30 3183 C 299.524 1.20125 1.9918 0
M  V30 3184 C 300.518 0.107824 1.69056 0
M  V30 3185 O 301.724 0.270223 1.7796 0
M  V30 3186 H 298.099 0.372148 0.65346 0
M  V30 3187 H 300.07 2.15652 2.06244 0
M  V30 3188 C 298.819 0.933099 3.34946 0
M  V30 3189 H 298.142 1.76664 3.5865 0
M  V30 3190 H 299.582 0.890892 4.14535 0
M  V30 3191 C 298.041 -0.364172 3.34926 0
M  V30 3192 O 298.571 -1.37858 3.77304 0
M  V30 3193 N 296.777 -0.383362 2.8806 0
M  V30 3194 H 296.324 0.442651 2.53768 0
M  V30 3195 H 296.282 -1.25123 2.8843 0
M  V30 3196 N 300.054 -1.07777 1.14986 0
M  V30 3197 C 301.017 -2.13041 0.845358 0
M  V30 3198 C 302.017 -1.60071 -0.152931 0
M  V30 3199 O 303.207 -1.74033 0.0761879 0
M  V30 3200 C 300.339 -3.39896 0.261383 0
M  V30 3201 H 301.532 -2.41485 1.77834 0
M  V30 3202 H 299.085 -1.23595 0.956757 0
M  V30 3203 H 299.82 -3.17091 -0.68 0
M  V30 3204 H 299.605 -3.79642 0.980514 0
M  V30 3205 H 301.095 -4.17548 0.0657687 0
M  V30 3206 N 301.532 -0.945985 -1.26051 0
M  V30 3207 C 302.948 -0.649045 -1.45807 0
M  V30 3208 C 303.148 0.796158 -1.85104 0
M  V30 3209 O 302.204 1.57233 -1.97571 0
M  V30 3210 C 303.517 -1.61458 -2.53677 0
M  V30 3211 C 305.065 -1.62481 -2.67524 0
M  V30 3212 C 305.54 -2.57776 -3.7857 0
M  V30 3213 N 307.031 -2.5609 -3.85969 0
M  V30 3214 C 307.766 -3.26508 -4.7136 0
M  V30 3215 N 307.262 -4.0637 -5.61102 0
M  V30 3216 N 309.055 -3.15437 -4.65248 0
M  V30 3217 H 301.206 -1.88005 -0.988328 0
M  V30 3218 H 303.469 -0.808198 -0.4955 0
M  V30 3219 H 303.175 -2.64644 -2.31638 0
M  V30 3220 H 303.049 -1.37036 -3.51427 0
M  V30 3221 H 305.436 -0.600167 -2.88933 0
M  V30 3222 H 305.517 -1.90958 -1.70202 0
M  V30 3223 H 305.161 -3.60361 -3.57913 0
M  V30 3224 H 305.091 -2.26587 -4.75359 0
M  V30 3225 H 307.582 -1.98105 -3.21812 0
M  V30 3226 H 307.895 -4.57042 -6.23164 0
M  V30 3227 H 306.24 -4.10469 -5.60839 0
M  V30 3228 H 309.431 -2.52525 -3.94143 0
M  V30 3229 H 309.604 -3.70584 -5.31575 0
M  V30 3230 N 303.011 1.40521 -0.713556 0
M  V30 3231 C 304.239 2.05237 -0.261775 0
M  V30 3232 C 304.654 1.53755 1.09567 0
M  V30 3233 O 304.011 0.693268 1.6882 0
M  V30 3234 C 304.062 3.60763 -0.230706 0
M  V30 3235 O 303.783 4.10345 -1.53455 0
M  V30 3236 C 305.284 4.42651 0.239874 0
M  V30 3237 H 302.504 0.660533 -0.118057 0
M  V30 3238 H 305.048 1.79967 -0.971192 0
M  V30 3239 H 303.203 3.8501 0.429661 0
M  V30 3240 H 303.617 5.04526 -1.43366 0
M  V30 3241 H 305.091 5.51599 0.210468 0
M  V30 3242 H 305.568 4.20082 1.28171 0
M  V30 3243 H 306.174 4.23507 -0.390142 0
M  V30 3244 N 304.489 0.459591 1.5075 0
M  V30 3245 C 305.735 -0.0994966 2.02556 0
M  V30 3246 C 306.068 -1.40399 1.3417 0
M  V30 3247 O 305.343 -1.88892 0.463683 0
M  V30 3248 C 305.626 -0.295242 3.58888 0
M  V30 3249 C 305.479 1.02947 4.37861 0
M  V30 3250 C 306.798 -1.05502 4.27267 0
M  V30 3251 H 303.917 -0.034686 0.736183 0
M  V30 3252 H 306.559 0.602938 1.8018 0
M  V30 3253 H 304.709 -0.893563 3.78084 0
M  V30 3254 H 306.381 1.66348 4.30263 0
M  V30 3255 H 304.624 1.62885 4.02058 0
M  V30 3256 H 305.295 0.846281 5.45474 0
M  V30 3257 H 307.771 -0.547993 4.12476 0
M  V30 3258 H 306.647 -1.16077 5.36486 0
M  V30 3259 H 306.908 -2.08875 3.89645 0
M  V30 3260 N 305.967 -1.56429 0.191757 0
M  V30 3261 C 306.899 -2.16154 -0.762245 0
M  V30 3262 C 307.912 -1.12247 -1.17917 0
M  V30 3263 O 309.101 -1.39353 -1.11548 0
M  V30 3264 C 306.201 -2.70606 -2.04024 0
M  V30 3265 C 305.374 -3.99381 -1.78364 0
M  V30 3266 C 304.433 -4.38692 -2.90578 0
M  V30 3267 O 303.459 -5.06179 -2.6033 0
M  V30 3268 N 304.661 -4.01922 -4.18854 0
M  V30 3269 H 307.426 -2.98643 -0.251526 0
M  V30 3270 H 304.987 -1.61897 0.00967373 0
M  V30 3271 H 306.979 -2.93891 -2.78227 0
M  V30 3272 H 305.549 -1.9259 -2.46227 0
M  V30 3273 H 304.769 -3.84262 -0.879581 0
M  V30 3274 H 306.057 -4.83445 -1.58614 0
M  V30 3275 H 305.455 -3.47631 -4.46283 0
M  V30 3276 H 304.012 -4.30165 -4.89695 0
M  V30 3277 N 307.445 0.0818655 -1.57387 0
M  V30 3278 C 308.395 1.10501 -1.99433 0
M  V30 3279 C 309.379 1.35041 -0.874798 0
M  V30 3280 O 310.571 1.35511 -1.13868 0
M  V30 3281 C 307.7 2.42159 -2.43339 0
M  V30 3282 C 306.786 2.20937 -3.62005 0
M  V30 3283 N 307.177 1.69616 -4.76512 0
M  V30 3284 C 305.475 2.51451 -3.68359 0
M  V30 3285 C 306.176 1.62973 -5.58404 0
M  V30 3286 N 305.152 2.08664 -5.01956 0
M  V30 3287 H 308.954 0.701373 -2.85408 0
M  V30 3288 H 306.468 0.289096 -1.59806 0
M  V30 3289 H 308.465 3.16208 -2.71695 0
M  V30 3290 H 307.125 2.83249 -1.58746 0
M  V30 3291 H 308.136 1.38624 -4.99003 0
M  V30 3292 H 304.813 2.95975 -2.94457 0
M  V30 3293 H 306.203 1.24233 -6.60315 0
M  V30 3294 N 308.923 1.53595 0.353017 0
M  V30 3295 C 310.153 1.74058 1.11299 0
M  V30 3296 C 310.561 0.475205 1.83135 0
M  V30 3297 O 309.904 -0.562344 1.74881 0
M  V30 3298 C 309.966 2.85994 2.17825 0
M  V30 3299 C 309.63 4.25923 1.65647 0
M  V30 3300 C 310.627 5.07829 1.11383 0
M  V30 3301 C 308.312 4.72377 1.7078 0
M  V30 3302 C 310.306 6.34285 0.629439 0
M  V30 3303 C 307.993 5.98808 1.21953 0
M  V30 3304 C 308.991 6.79594 0.681265 0
M  V30 3305 O 308.679 8.03651 0.200248 0
M  V30 3306 H 308.411 0.585327 0.338183 0
M  V30 3307 H 310.965 2.01186 0.413927 0
M  V30 3308 H 309.195 2.54368 2.91262 0
M  V30 3309 H 310.884 2.94515 2.79313 0
M  V30 3310 H 311.65 4.73107 1.06746 0
M  V30 3311 H 307.529 4.0956 2.11617 0
M  V30 3312 H 311.073 6.97288 0.208636 0
M  V30 3313 H 306.97 6.33026 1.26287 0
M  V30 3314 H 307.738 8.1788 0.318416 0
M  V30 3315 N 310.401 -0.613514 1.45168 0
M  V30 3316 C 311.331 -1.7354 1.56225 0
M  V30 3317 C 312.312 -1.64981 0.41414 0
M  V30 3318 O 313.497 -1.83472 0.636526 0
M  V30 3319 C 310.627 -3.12128 1.52295 0
M  V30 3320 C 309.581 -3.35491 2.65762 0
M  V30 3321 C 308.907 -4.74291 2.46885 0
M  V30 3322 C 310.207 -3.26325 4.0781 0
M  V30 3323 H 311.901 -1.64543 2.50132 0
M  V30 3324 H 309.447 -0.790185 1.20383 0
M  V30 3325 H 311.4 -3.90404 1.58628 0
M  V30 3326 H 310.124 -3.2195 0.549139 0
M  V30 3327 H 308.783 -2.59603 2.58847 0
M  V30 3328 H 308.431 -4.80839 1.47657 0
M  V30 3329 H 308.131 -4.9088 3.22972 0
M  V30 3330 H 309.655 -5.54775 2.55063 0
M  V30 3331 H 311.069 -3.94483 4.16 0
M  V30 3332 H 309.466 -3.54445 4.8424 0
M  V30 3333 H 310.536 -2.23855 4.30136 0
M  V30 3334 N 311.879 -1.3236 -0.855495 0
M  V30 3335 C 313.156 -1.13491 -1.59309 0
M  V30 3336 C 313.536 0.30503 -2.08885 0
M  V30 3337 O 312.884 1.30151 -1.87811 0
M  V30 3338 C 313.094 -2.16176 -2.73987 0
M  V30 3339 C 314.442 -2.49463 -3.43589 0
M  V30 3340 O 315.466 -2.14715 -2.84211 0
M  V30 3341 O 314.325 -3.09027 -4.50738 0
M  V30 3342 H 311.419 -0.437887 -0.701559 0
M  V30 3343 H 313.965 -1.43887 -0.899696 0
M  V30 3344 H 312.737 -3.1297 -2.34873 0
M  V30 3345 H 312.36 -1.86769 -3.51003 0
M  V30 3346 N 313.357 1.07166 -1.15556 0
M  V30 3347 C 314.304 2.14417 -0.854055 0
M  V30 3348 C 315.274 1.64965 0.193806 0
M  V30 3349 O 316.459 1.90703 0.0609443 0
M  V30 3350 C 313.599 3.43304 -0.351574 0
M  V30 3351 C 312.712 4.06537 -1.46123 0
M  V30 3352 C 311.847 5.23266 -0.914677 0
M  V30 3353 C 310.886 5.78464 -2.00114 0
M  V30 3354 N 310.023 6.86521 -1.47083 0
M  V30 3355 H 314.863 2.39548 -1.77259 0
M  V30 3356 H 312.4 1.17543 -0.884425 0
M  V30 3357 H 314.358 4.17179 -0.0419409 0
M  V30 3358 H 312.988 3.18419 0.530037 0
M  V30 3359 H 312.04 3.30297 -1.88701 0
M  V30 3360 H 313.352 4.43567 -2.28144 0
M  V30 3361 H 312.506 6.04131 -0.557698 0
M  V30 3362 H 311.245 4.87658 -0.0636583 0
M  V30 3363 H 310.25 4.96243 -2.36692 0
M  V30 3364 H 311.475 6.16126 -2.85597 0
M  V30 3365 H 309.421 6.52849 -0.642198 0
M  V30 3366 H 309.338 7.22446 -2.22729 0
M  V30 3367 H 310.606 7.71087 -1.14215 0
M  V30 3368 N 314.835 0.952656 1.25548 0
M  V30 3369 C 315.798 0.475794 2.24207 0
M  V30 3370 C 316.798 -0.419428 1.55234 0
M  V30 3371 O 317.988 -0.216994 1.72843 0
M  V30 3372 C 315.12 -0.312814 3.39462 0
M  V30 3373 H 316.313 1.34779 2.67908 0
M  V30 3374 H 313.866 0.735739 1.37901 0
M  V30 3375 H 314.601 -1.20257 3.01179 0
M  V30 3376 H 314.386 0.329404 3.90714 0
M  V30 3377 H 315.876 -0.635986 4.12729 0
M  V30 3378 N 316.313 -1.40141 0.720998 0
M  V30 3379 C 317.729 -1.54632 0.395113 0
M  V30 3380 C 317.929 -1.69115 -1.09555 0
M  V30 3381 O 316.985 -1.68377 -1.88163 0
M  V30 3382 C 318.298 -2.77177 1.1659 0
M  V30 3383 C 319.846 -2.91 1.15274 0
M  V30 3384 C 320.321 -4.16465 1.90579 0
M  V30 3385 N 321.812 -4.23476 1.87675 0
M  V30 3386 C 322.547 -5.19475 2.42762 0
M  V30 3387 N 322.043 -6.21348 3.06428 0
M  V30 3388 N 323.836 -5.11592 2.32874 0
M  V30 3389 H 315.987 -1.28986 1.68749 0
M  V30 3390 H 318.25 -0.62412 0.713567 0
M  V30 3391 H 317.956 -2.72771 2.22011 0
M  V30 3392 H 317.83 -3.69442 0.76108 0
M  V30 3393 H 320.217 -2.94907 0.106702 0
M  V30 3394 H 320.298 -1.99838 1.59682 0
M  V30 3395 H 319.942 -4.1332 2.95176 0
M  V30 3396 H 319.872 -5.06646 1.43587 0
M  V30 3397 H 322.363 -3.50497 1.41281 0
M  V30 3398 H 322.676 -6.91034 3.45965 0
M  V30 3399 H 321.021 -6.21777 3.10514 0
M  V30 3400 H 324.212 -4.30936 1.82789 0
M  V30 3401 H 324.385 -5.86233 2.76106 0
M  V30 3402 N 317.792 -0.46758 -1.50504 0
M  V30 3403 C 318.755 0.317059 -2.26996 0
M  V30 3404 C 319.755 0.923513 -1.31635 0
M  V30 3405 O 320.945 0.793239 -1.55091 0
M  V30 3406 C 318.077 1.45134 -3.08462 0
M  V30 3407 H 319.27 -0.353723 -2.97807 0
M  V30 3408 H 316.823 -0.221545 -1.54722 0
M  V30 3409 H 317.558 2.15728 -2.4214 0
M  V30 3410 H 317.343 1.02232 -3.78538 0
M  V30 3411 H 318.833 2.00493 -3.66323 0
M  V30 3412 N 319.27 1.56325 -0.20005 0
M  V30 3413 C 320.217 2.1932 0.718833 0
M  V30 3414 C 321.187 1.14198 1.20615 0
M  V30 3415 O 322.372 1.42469 1.26914 0
M  V30 3416 C 319.512 2.86041 1.93066 0
M  V30 3417 C 318.625 4.05702 1.48425 0
M  V30 3418 C 317.76 4.60266 2.65196 0
M  V30 3419 C 316.799 5.72273 2.17185 0
M  V30 3420 N 315.936 6.21221 3.27152 0
M  V30 3421 H 320.776 2.97486 0.17489 0
M  V30 3422 H 318.313 1.46911 0.0745794 0
M  V30 3423 H 320.271 3.22897 2.64184 0
M  V30 3424 H 318.901 2.1043 2.44783 0
M  V30 3425 H 317.953 3.74475 0.668755 0
M  V30 3426 H 319.265 4.86699 1.09204 0
M  V30 3427 H 318.419 4.99453 3.4443 0
M  V30 3428 H 317.158 3.78386 3.07693 0
M  V30 3429 H 316.163 5.3261 1.36407 0
M  V30 3430 H 317.388 6.55974 1.75713 0
M  V30 3431 H 315.334 5.42263 3.69171 0
M  V30 3432 H 315.251 6.97284 2.92116 0
M  V30 3433 H 316.519 6.65063 4.06585 0
M  V30 3434 N 320.748 -0.0735177 1.57428 0
M  V30 3435 C 321.678 -1.0879 2.06608 0
M  V30 3436 C 322.659 -1.40473 0.959237 0
M  V30 3437 O 323.844 -1.5013 1.23185 0
M  V30 3438 C 320.974 -2.40183 2.50857 0
M  V30 3439 C 319.928 -2.22858 3.65402 0
M  V30 3440 C 319.254 -3.59619 3.957 0
M  V30 3441 C 320.554 -1.65123 4.95511 0
M  V30 3442 H 322.248 -0.678673 2.91607 0
M  V30 3443 H 319.794 -0.325013 1.40284 0
M  V30 3444 H 321.747 -3.11437 2.83874 0
M  V30 3445 H 320.471 -2.83083 1.62885 0
M  V30 3446 H 319.13 -1.54045 3.32664 0
M  V30 3447 H 318.778 -4.00086 3.04861 0
M  V30 3448 H 318.478 -3.48866 4.72828 0
M  V30 3449 H 320.002 -4.32306 4.31212 0
M  V30 3450 H 321.416 -2.26241 5.26771 0
M  V30 3451 H 319.813 -1.65071 5.7695 0
M  V30 3452 H 320.883 -0.612559 4.81015 0
M  V30 3453 N 322.226 -1.5378 -0.344866 0
M  V30 3454 C 323.503 -1.61589 -1.10219 0
M  V30 3455 C 323.883 -0.436316 -2.06542 0
M  V30 3456 O 323.231 0.571543 -2.21237 0
M  V30 3457 C 323.441 -2.97602 -1.82301 0
M  V30 3458 C 324.789 -3.5291 -2.36093 0
M  V30 3459 O 325.813 -2.99768 -1.924 0
M  V30 3460 O 324.672 -4.45859 -3.16026 0
M  V30 3461 H 321.766 -0.653522 -0.506792 0
M  V30 3462 H 324.312 -1.66126 -0.346465 0
M  V30 3463 H 323.084 -3.74893 -1.12121 0
M  V30 3464 H 322.707 -2.9665 -2.64735 0
M  V30 3465 N 323.704 0.605807 -1.45491 0
M  V30 3466 C 324.667 1.69836 -1.5391 0
M  V30 3467 C 325.667 1.55261 -0.418424 0
M  V30 3468 O 326.857 1.60296 -0.681965 0
M  V30 3469 C 323.989 3.09117 -1.43734 0
M  V30 3470 H 325.182 1.63738 -2.51257 0
M  V30 3471 H 322.735 0.821689 -1.32959 0
M  V30 3472 H 323.47 3.20791 -0.475788 0
M  V30 3473 H 323.255 3.21104 -2.25021 0
M  V30 3474 H 324.745 3.88696 -1.52661 0
M  V30 3475 N 325.182 1.32811 0.848464 0
M  V30 3476 C 326.092 1.24278 1.98978 0
M  V30 3477 C 327.108 0.155176 1.73307 0
M  V30 3478 O 328.284 0.376999 1.9784 0
M  V30 3479 C 325.349 0.972444 3.32783 0
M  V30 3480 C 324.41 2.14911 3.71634 0
M  V30 3481 C 323.643 1.89157 4.99054 0
M  V30 3482 O 323.866 0.837165 5.64223 0
M  V30 3483 O 322.8 2.75433 5.35183 0
M  V30 3484 H 326.626 2.20238 2.09115 0
M  V30 3485 H 324.211 1.12762 0.980052 0
M  V30 3486 H 326.093 0.838432 4.12975 0
M  V30 3487 H 324.768 0.043051 3.23671 0
M  V30 3488 H 323.675 2.33862 2.91992 0
M  V30 3489 H 325.008 3.06151 3.85399 0
M  V30 3490 N 326.66 -1.06551 1.16123 0
M  V30 3491 C 327.885 -1.83544 0.965735 0
M  V30 3492 C 328.31 -1.81843 -0.481102 0
M  V30 3493 O 327.668 -1.21732 -1.34354 0
M  V30 3494 C 327.716 -3.28169 1.49457 0
M  V30 3495 O 326.82 -4.0643 0.699157 0
M  V30 3496 H 326.161 -0.568026 0.343864 0
M  V30 3497 H 328.691 -1.34362 1.54299 0
M  V30 3498 H 328.701 -3.78992 1.51092 0
M  V30 3499 H 327.376 -3.28722 2.54784 0
M  V30 3500 H 325.953 -3.65216 0.7531 0
M  V30 3501 N 328.138 -0.959301 -1.25041 0
M  V30 3502 C 329.384 -0.617525 -1.9317 0
M  V30 3503 C 329.717 0.843981 -1.74902 0
M  V30 3504 O 328.992 1.60615 -1.09696 0
M  V30 3505 C 329.275 -0.982736 -3.46431 0
M  V30 3506 C 329.128 -2.50032 -3.73904 0
M  V30 3507 C 330.447 -0.511176 -4.37121 0
M  V30 3508 H 327.566 -0.22582 -0.701552 0
M  V30 3509 H 330.208 -1.19679 -1.4757 0
M  V30 3510 H 328.358 -0.489806 -3.854 0
M  V30 3511 H 330.03 -3.06737 -3.44544 0
M  V30 3512 H 328.273 -2.93598 -3.19348 0
M  V30 3513 H 328.944 -2.70635 -4.81103 0
M  V30 3514 H 331.42 -0.934075 -4.0548 0
M  V30 3515 H 330.296 -0.795361 -5.43107 0
M  V30 3516 H 330.557 0.588834 -4.38161 0
M  V30 3517 N 329.616 1.39756 -0.72842 0
M  V30 3518 C 331.027 1.83498 -0.344289 0
M  V30 3519 C 331.378 1.60868 1.12321 0
M  V30 3520 O 330.503 1.09634 1.86573 0
M  V30 3521 C 331.098 3.33114 -0.618112 0
M  V30 3522 C 329.657 3.753 -0.287549 0
M  V30 3523 C 328.804 2.62831 -0.884048 0
M  V30 3524 H 331.755 1.28842 -0.926578 0
M  V30 3525 H 331.776 3.80334 0.112349 0
M  V30 3526 H 331.288 3.49553 -1.68625 0
M  V30 3527 H 329.389 3.64451 0.775012 0
M  V30 3528 H 329.502 4.72945 -0.765512 0
M  V30 3529 H 327.866 2.52792 -0.311149 0
M  V30 3530 H 328.649 2.82078 -1.95671 0
M  V30 3531 N 331.094 0.475555 1.50254 0
M  V30 3532 C 332.026 -0.352649 2.26471 0
M  V30 3533 C 333.039 -0.953165 1.3198 0
M  V30 3534 O 334.228 -0.840815 1.57457 0
M  V30 3535 C 331.328 -1.50902 3.0345 0
M  V30 3536 C 330.501 -1.02047 4.25329 0
M  V30 3537 C 329.56 -2.05142 4.84565 0
M  V30 3538 O 328.586 -1.63023 5.45355 0
M  V30 3539 N 329.788 -3.37987 4.71959 0
M  V30 3540 H 332.553 0.300767 2.98187 0
M  V30 3541 H 330.114 0.306598 1.5897 0
M  V30 3542 H 332.106 -2.19572 3.39956 0
M  V30 3543 H 330.676 -2.06705 2.34504 0
M  V30 3544 H 329.896 -0.159507 3.93877 0
M  V30 3545 H 331.184 -0.672061 5.04342 0
M  V30 3546 H 330.582 -3.74913 4.23623 0
M  V30 3547 H 329.139 -4.02443 5.12721 0
M  V30 3548 N 332.573 -1.56217 0.208337 0
M  V30 3549 C 333.503 -2.22694 -0.702116 0
M  V30 3550 C 334.484 -1.19432 -1.2112 0
M  V30 3551 O 335.669 -1.47978 -1.25762 0
M  V30 3552 C 332.799 -2.8966 -1.9161 0
M  V30 3553 C 331.753 -3.9928 -1.5414 0
M  V30 3554 C 331.079 -4.53476 -2.83308 0
M  V30 3555 C 332.379 -5.17012 -0.741339 0
M  V30 3556 H 334.073 -2.99034 -0.147898 0
M  V30 3557 H 331.619 -1.43831 -0.0696951 0
M  V30 3558 H 333.572 -3.34852 -2.55836 0
M  V30 3559 H 332.296 -2.10746 -2.49507 0
M  V30 3560 H 330.955 -3.54799 -0.922668 0
M  V30 3561 H 330.603 -3.71308 -3.39322 0
M  V30 3562 H 330.303 -5.27451 -2.58976 0
M  V30 3563 H 331.827 -5.01378 -3.485 0
M  V30 3564 H 333.241 -5.58667 -1.28699 0
M  V30 3565 H 331.638 -5.97137 -0.595627 0
M  V30 3566 H 332.708 -4.8423 0.254851 0
M  V30 3567 N 334.051 0.0651679 -1.57465 0
M  V30 3568 C 335.297 0.764193 -1.87851 0
M  V30 3569 C 335.63 1.76889 -0.801495 0
M  V30 3570 O 334.905 1.93594 0.187528 0
M  V30 3571 C 335.188 1.46625 -3.28897 0
M  V30 3572 C 335.041 0.477515 -4.47258 0
M  V30 3573 C 336.36 2.4095 -3.68281 0
M  V30 3574 H 333.479 0.276351 -0.683227 0
M  V30 3575 H 336.121 0.0272868 -1.8998 0
M  V30 3576 H 334.271 2.09438 -3.27212 0
M  V30 3577 H 335.943 -0.145922 -4.61069 0
M  V30 3578 H 334.186 -0.206576 -4.33308 0
M  V30 3579 H 334.857 1.0065 -5.42746 0
M  V30 3580 H 337.333 1.88209 -3.71102 0
M  V30 3581 H 336.209 2.87072 -4.67847 0
M  V30 3582 H 336.47 3.26049 -2.98571 0
M  V30 3583 N 335.529 1.53961 0.336706 0
M  V30 3584 C 336.492 1.81724 1.39675 0
M  V30 3585 C 337.492 0.688532 1.45313 0
M  V30 3586 O 338.682 0.956829 1.45569 0
M  V30 3587 C 335.814 1.96543 2.78538 0
M  V30 3588 H 337.007 2.76424 1.16318 0
M  V30 3589 H 334.56 1.45478 0.571474 0
M  V30 3590 H 335.295 1.0401 3.07168 0
M  V30 3591 H 335.08 2.78665 2.75841 0
M  V30 3592 H 336.57 2.19516 3.5525 0
M  V30 3593 N 337.007 -0.598083 1.45811 0
M  V30 3594 C 338.256 -1.35295 1.49594 0
M  V30 3595 C 338.569 -1.95057 0.145679 0
M  V30 3596 O 339.775 -2.71431 0.0612099 0
M  V30 3597 C 338.231 -2.45124 2.63519 0
M  V30 3598 C 337.839 -1.91732 4.04899 0
M  V30 3599 C 339.583 -3.2205 2.76558 0
M  V30 3600 C 337.49 -2.991 5.1019 0
M  V30 3601 H 336.42 -0.508552 0.556679 0
M  V30 3602 H 339.071 -0.639977 1.71978 0
M  V30 3603 H 337.453 -3.19149 2.34435 0
M  V30 3604 H 338.627 -1.24352 4.43704 0
M  V30 3605 H 336.942 -1.27522 3.96393 0
M  V30 3606 H 339.539 -4.0215 3.52391 0
M  V30 3607 H 339.882 -3.73663 1.83526 0
M  V30 3608 H 340.415 -2.55127 3.05213 0
M  V30 3609 H 337.154 -2.52393 6.04961 0
M  V30 3610 H 336.674 -3.65017 4.75944 0
M  V30 3611 H 338.353 -3.63318 5.35359 0
M  V30 3612 N 338.485 -1.33259 -0.841409 0
M  V30 3613 C 339.448 -1.23221 -1.9326 0
M  V30 3614 C 340.448 -0.151895 -1.60081 0
M  V30 3615 O 341.638 -0.403246 -1.69468 0
M  V30 3616 C 338.77 -0.898123 -3.28856 0
M  V30 3617 H 339.963 -2.2021 -2.03587 0
M  V30 3618 H 337.516 -1.17281 -1.03319 0
M  V30 3619 H 338.251 0.0693841 -3.24226 0
M  V30 3620 H 338.036 -1.67934 -3.54317 0
M  V30 3621 H 339.526 -0.852563 -4.08805 0
M  V30 3622 N 339.963 1.05934 -1.16686 0
M  V30 3623 C 340.91 2.13499 -0.876748 0
M  V30 3624 C 341.88 1.65162 0.176299 0
M  V30 3625 O 343.065 1.90757 0.0407143 0
M  V30 3626 C 340.205 3.42912 -0.387967 0
M  V30 3627 C 339.318 4.04964 -1.50426 0
M  V30 3628 C 338.453 5.22266 -0.970125 0
M  V30 3629 C 337.492 5.76309 -2.06238 0
M  V30 3630 N 336.629 6.84922 -1.54356 0
M  V30 3631 H 341.469 2.37654 -1.7979 0
M  V30 3632 H 339.006 1.16598 -0.896843 0
M  V30 3633 H 340.964 4.17111 -0.086186 0
M  V30 3634 H 339.594 3.18963 0.496235 0
M  V30 3635 H 338.646 3.28277 -1.92193 0
M  V30 3636 H 339.958 4.41122 -2.32836 0
M  V30 3637 H 339.112 6.03506 -0.621743 0
M  V30 3638 H 337.851 4.87564 -0.115377 0
M  V30 3639 H 336.856 4.93704 -2.41942 0
M  V30 3640 H 338.081 6.13062 -2.92115 0
M  V30 3641 H 336.027 6.52131 -0.711406 0
M  V30 3642 H 335.944 7.20043 -2.30379 0
M  V30 3643 H 337.212 7.69832 -1.22387 0
M  V30 3644 N 341.441 0.965919 1.2453 0
M  V30 3645 C 342.718 0.543777 1.87889 0
M  V30 3646 C 343.098 -0.97909 1.87021 0
M  V30 3647 O 342.446 -1.84969 1.3416 0
M  V30 3648 C 342.656 1.13327 3.30088 0
M  V30 3649 C 344.004 1.21707 4.06783 0
M  V30 3650 O 345.028 1.08566 3.39252 0
M  V30 3651 O 343.887 1.42456 5.27606 0
M  V30 3652 H 340.981 0.181054 0.806938 0
M  V30 3653 H 343.527 1.06007 1.32516 0
M  V30 3654 H 342.299 2.17612 3.25209 0
M  V30 3655 H 341.922 0.600911 3.93033 0
M  V30 3656 N 342.919 -1.39368 0.735821 0
M  V30 3657 C 344.335 -1.54204 0.411492 0
M  V30 3658 C 344.535 -1.70268 -1.07755 0
M  V30 3659 O 343.591 -1.70364 -1.86366 0
M  V30 3660 C 344.904 -2.75925 1.19523 0
M  V30 3661 C 346.452 -2.89761 1.18354 0
M  V30 3662 C 346.927 -4.14421 1.94986 0
M  V30 3663 N 348.418 -4.21462 1.92156 0
M  V30 3664 C 349.153 -5.16871 2.48258 0
M  V30 3665 N 348.649 -6.18063 3.13001 0
M  V30 3666 N 350.442 -5.09093 2.38287 0
M  V30 3667 H 342.593 -1.27189 1.70108 0
M  V30 3668 H 344.856 -0.616517 0.720147 0
M  V30 3669 H 344.562 -2.70401 2.24892 0
M  V30 3670 H 344.436 -3.68614 0.800222 0
M  V30 3671 H 346.823 -2.94777 0.137975 0
M  V30 3672 H 346.904 -1.98133 1.61793 0
M  V30 3673 H 346.548 -4.10166 2.99543 0
M  V30 3674 H 346.478 -5.05095 1.48953 0
M  V30 3675 H 348.969 -3.48979 1.44991 0
M  V30 3676 H 349.282 -6.87326 3.53275 0
M  V30 3677 H 347.627 -6.18448 3.17091 0
M  V30 3678 H 350.818 -4.28973 1.8735 0
M  V30 3679 H 350.991 -5.83272 2.82308 0
M  V30 3680 N 344.397 -0.483516 -1.5 0
M  V30 3681 C 345.645 0.067027 -2.01989 0
M  V30 3682 C 345.966 1.3909 -1.36671 0
M  V30 3683 O 345.236 1.88978 -0.516152 0
M  V30 3684 H 343.816 0.0277606 -0.746484 0
M  V30 3685 H 346.478 -0.636773 -1.84204 0
M  V30 3686 H 345.574 0.209484 -3.11396 0
M  V30 3687 N 345.875 1.56104 -0.216619 0
M  V30 3688 C 346.805 2.23063 0.690296 0
M  V30 3689 C 347.786 1.20072 1.20485 0
M  V30 3690 O 348.971 1.48643 1.24976 0
M  V30 3691 C 346.101 2.90672 1.90072 0
M  V30 3692 C 345.055 4.00092 1.5202 0
M  V30 3693 C 344.381 4.54972 2.80899 0
M  V30 3694 C 345.681 5.17398 0.71391 0
M  V30 3695 H 347.375 2.99109 0.132038 0
M  V30 3696 H 344.921 1.43866 0.0620664 0
M  V30 3697 H 346.874 3.36204 2.54057 0
M  V30 3698 H 345.598 2.12066 2.48386 0
M  V30 3699 H 344.257 3.55283 0.903839 0
M  V30 3700 H 343.905 3.73102 3.37348 0
M  V30 3701 H 343.605 5.28817 2.56176 0
M  V30 3702 H 345.129 5.0322 3.45836 0
M  V30 3703 H 346.543 5.59342 1.25735 0
M  V30 3704 H 344.94 5.97444 0.563951 0
M  V30 3705 H 346.01 4.84088 -0.280527 0
M  V30 3706 N 347.353 -0.0568162 1.57498 0
M  V30 3707 C 348.599 -0.75422 1.88253 0
M  V30 3708 C 348.932 -1.76461 0.810865 0
M  V30 3709 O 348.207 -1.93691 -0.177259 0
M  V30 3710 C 348.49 -1.44878 3.2967 0
M  V30 3711 C 348.343 -0.453789 4.47505 0
M  V30 3712 C 349.662 -2.38994 3.69554 0
M  V30 3713 H 346.781 -0.272724 0.684683 0
M  V30 3714 H 349.423 -0.0172113 1.89992 0
M  V30 3715 H 347.573 -2.077 3.28318 0
M  V30 3716 H 349.245 0.170371 4.60985 0
M  V30 3717 H 347.488 0.229552 4.33192 0
M  V30 3718 H 348.159 -0.977699 5.43273 0
M  V30 3719 H 350.635 -1.86239 3.72095 0
M  V30 3720 H 349.511 -2.84587 4.69363 0
M  V30 3721 H 349.772 -3.24461 3.00296 0
M  V30 3722 O 348.87 -1.60255 -0.200168 0
M  V30 3723 H 349.561 -1.74563 -0.839496 0
M  V30 END ATOM
M  V30 BEGIN BOND
M  V30 END BOND
M  V30 END CTAB
M  END
$$$$
