drugbank_target|P55786 Puromycin-sensitive aminopeptidase (DB11638; DB11781)
 OpenBabel12092120313D

  0  0  0     0  0            999 V3000
M  V30 BEGIN CTAB
M  V30 COUNTS 14517 14693 0 0 0
M  V30 BEGIN ATOM
M  V30 1 H -0.908 1.98254 -0.117106 0
M  V30 2 N 0 1.576 0 0
M  V30 3 C 0.933 2.03868 1.02534 0
M  V30 4 C 1.911 0.928543 1.3348 0
M  V30 5 O 3.095 1.19667 1.45644 0
M  V30 6 C 0.222 2.43627 2.35294 0
M  V30 7 C -0.732 3.65373 2.2001 0
M  V30 8 S 0.101 5.13292 1.52614 0
M  V30 9 C 1.257 5.56322 2.86805 0
M  V30 10 H 1.49 2.90518 0.631377 0
M  V30 11 H -0.977 1.52953 0.210867 0
M  V30 12 H 0.981 2.67203 3.11629 0
M  V30 13 H -0.358 1.57376 2.7183 0
M  V30 14 H -1.165 3.90944 3.18086 0
M  V30 15 H -1.563 3.418 1.51819 0
M  V30 16 H 0.729 5.58782 3.83104 0
M  V30 17 H 1.672 6.56266 2.65933 0
M  V30 18 H 2.08 4.83886 2.90714 0
M  V30 19 N 1.4781 -0.272755 1.55222 0
M  V30 20 C 2.7241 -1.00172 1.77023 0
M  V30 21 C 3.0791 -1.83928 0.564633 0
M  V30 22 O 2.3721 -1.86416 -0.442674 0
M  V30 23 C 2.5661 -1.91642 3.01675 0
M  V30 24 C 2.3951 -1.16888 4.34243 0
M  V30 25 C 1.1651 -0.884464 4.97499 0
M  V30 26 C 3.3631 -0.55919 5.11251 0
M  V30 27 N 1.3451 -0.11015 6.13801 0
M  V30 28 C 2.7161 0.0809469 6.19947 0
M  V30 29 C 4.7711 -0.467058 4.95705 0
M  V30 30 C 3.4741 0.804335 7.14789 0
M  V30 31 C 5.5001 0.242739 5.90902 0
M  V30 32 C 4.8621 0.871613 6.98987 0
M  V30 33 H 0.9611 -0.348529 0.700037 0
M  V30 34 H 3.5451 -0.277365 1.92714 0
M  V30 35 H 1.7161 -2.61303 2.87359 0
M  V30 36 H 3.4481 -2.57901 3.1188 0
M  V30 37 H 0.2031 -1.18979 4.58411 0
M  V30 38 H 0.6271 0.264344 6.76484 0
M  V30 39 H 5.2691 -0.93894 4.12242 0
M  V30 40 H 2.9871 1.2879 7.97771 0
M  V30 41 H 6.5731 0.314347 5.8095 0
M  V30 42 H 5.4531 1.4121 7.71381 0
M  V30 43 N 2.9562 -1.48159 -0.537278 0
M  V30 44 C 3.8862 -1.65029 -1.6519 0
M  V30 45 C 4.8672 -0.499281 -1.62607 0
M  V30 46 O 6.0522 -0.730972 -1.79918 0
M  V30 47 C 3.1822 -1.68303 -3.03795 0
M  V30 48 C 2.1362 -2.8283 -3.21234 0
M  V30 49 C 1.4622 -2.71189 -4.60826 0
M  V30 50 C 2.7622 -4.24211 -3.04701 0
M  V30 51 H 4.4562 -2.58341 -1.51328 0
M  V30 52 H 2.0022 -1.24325 -0.726585 0
M  V30 53 H 3.9552 -1.78693 -3.81637 0
M  V30 54 H 2.6792 -0.715635 -3.18663 0
M  V30 55 H 1.3382 -2.71983 -2.45807 0
M  V30 56 H 0.9862 -1.72435 -4.7252 0
M  V30 57 H 0.6862 -3.48035 -4.7344 0
M  V30 58 H 2.2102 -2.83537 -5.40777 0
M  V30 59 H 3.6242 -4.3593 -3.72341 0
M  V30 60 H 2.0212 -5.01998 -3.28813 0
M  V30 61 H 3.0912 -4.41184 -2.01209 0
M  V30 62 N 4.4343 0.785586 -1.36625 0
M  V30 63 C 5.3973 1.87999 -1.31107 0
M  V30 64 C 6.3973 1.59316 -0.217959 0
M  V30 65 O 7.5873 1.67656 -0.472977 0
M  V30 66 C 4.7193 3.24861 -1.03334 0
M  V30 67 H 5.9123 1.94307 -2.2844 0
M  V30 68 H 3.4653 0.983813 -1.21453 0
M  V30 69 H 4.2003 3.24235 -0.0647432 0
M  V30 70 H 3.9853 3.4707 -1.82441 0
M  V30 71 H 5.4753 4.04929 -1.02088 0
M  V30 72 N 5.9124 1.20967 1.01018 0
M  V30 73 C 6.8754 0.965918 2.07853 0
M  V30 74 C 7.8754 -0.0610545 1.60684 0
M  V30 75 O 9.0654 0.175681 1.73312 0
M  V30 76 C 6.1974 0.455513 3.37843 0
M  V30 77 H 7.3904 1.91365 2.3091 0
M  V30 78 H 4.9434 1.02594 1.17916 0
M  V30 79 H 5.6784 -0.497381 3.20463 0
M  V30 80 H 5.4634 1.19622 3.73407 0
M  V30 81 H 6.9534 0.304667 4.16487 0
M  V30 82 N 7.3905 -1.2043 1.01659 0
M  V30 83 C 8.3535 -2.21433 0.591616 0
M  V30 84 C 9.3535 -1.57203 -0.338226 0
M  V30 85 O 10.5435 -1.73737 -0.126918 0
M  V30 86 C 7.6755 -3.40628 -0.136058 0
M  V30 87 H 8.8685 -2.60545 1.48514 0
M  V30 88 H 6.4215 -1.33893 0.806379 0
M  V30 89 H 7.1565 -3.07019 -1.04449 0
M  V30 90 H 6.9415 -3.88475 0.531917 0
M  V30 91 H 8.4315 -4.15475 -0.420735 0
M  V30 92 N 8.8686 -0.792821 -1.36206 0
M  V30 93 C 9.8316 -0.199459 -2.2833 0
M  V30 94 C 10.8316 0.605189 -1.48977 0
M  V30 95 O 12.0216 0.425685 -1.68919 0
M  V30 96 C 9.1536 0.723523 -3.33134 0
M  V30 97 H 10.3466 -1.01181 -2.82316 0
M  V30 98 H 7.8996 -0.562485 -1.45828 0
M  V30 99 H 8.6346 1.56008 -2.84309 0
M  V30 100 H 8.4196 0.148436 -3.91819 0
M  V30 101 H 9.9096 1.13344 -4.01924 0
M  V30 102 N 10.3467 1.47872 -0.545128 0
M  V30 103 C 11.7577 1.86384 -0.108581 0
M  V30 104 C 12.1087 1.45309 1.31832 0
M  V30 105 O 11.2337 0.850641 1.9898 0
M  V30 106 C 11.8287 3.38265 -0.190274 0
M  V30 107 C 10.3877 3.75914 0.191164 0
M  V30 108 C 9.5347 2.71926 -0.543273 0
M  V30 109 H 12.4857 1.39561 -0.755537 0
M  V30 110 H 12.5067 3.75831 0.594217 0
M  V30 111 H 12.0187 3.6813 -1.2289 0
M  V30 112 H 10.1197 3.51665 1.23136 0
M  V30 113 H 10.2327 4.78836 -0.158987 0
M  V30 114 H 8.5967 2.54697 0.0122495 0
M  V30 115 H 9.3797 3.04634 -1.58282 0
M  V30 116 N 11.8248 0.280983 1.55075 0
M  V30 117 C 13.0498 -0.340154 2.04592 0
M  V30 118 C 13.4748 -1.48246 1.15779 0
M  V30 119 O 12.8328 -1.80614 0.15761 0
M  V30 120 C 12.8808 -0.793104 3.5177 0
M  V30 121 O 11.9848 -1.89981 3.66034 0
M  V30 122 H 11.3258 -0.0694289 0.66036 0
M  V30 123 H 13.8558 0.416993 2.00306 0
M  V30 124 H 13.8658 -1.08729 3.93245 0
M  V30 125 H 12.5408 0.0426163 4.15878 0
M  V30 126 H 11.1178 -1.60771 3.36463 0
M  V30 127 N 13.3029 -1.57598 0.00835791 0
M  V30 128 C 14.2329 -2.1198 -0.979113 0
M  V30 129 C 15.2139 -1.03091 -1.35301 0
M  V30 130 O 16.3989 -1.30818 -1.43528 0
M  V30 131 C 13.5289 -2.62995 -2.26828 0
M  V30 132 C 12.4829 -3.76485 -2.03576 0
M  V30 133 C 11.8089 -4.13846 -3.38579 0
M  V30 134 C 13.1089 -5.0342 -1.39161 0
M  V30 135 H 14.8029 -2.94738 -0.526281 0
M  V30 136 H 12.3489 -1.41783 -0.251704 0
M  V30 137 H 14.3019 -2.99669 -2.96271 0
M  V30 138 H 13.0259 -1.7737 -2.7424 0
M  V30 139 H 11.6849 -3.40217 -1.36557 0
M  V30 140 H 11.3329 -3.25232 -3.83709 0
M  V30 141 H 11.0329 -4.90312 -3.23834 0
M  V30 142 H 12.5569 -4.53086 -4.09323 0
M  V30 143 H 13.9709 -5.37812 -1.98573 0
M  V30 144 H 12.3679 -5.84746 -1.34878 0
M  V30 145 H 13.4379 -4.83548 -0.361868 0
M  V30 146 N 14.781 0.264519 -1.55364 0
M  V30 147 C 15.744 1.31046 -1.88042 0
M  V30 148 C 16.744 1.41943 -0.755569 0
M  V30 149 O 17.934 1.40947 -1.02369 0
M  V30 150 C 15.066 2.69067 -2.09323 0
M  V30 151 H 16.259 1.03297 -2.81549 0
M  V30 152 H 13.812 0.502989 -1.47986 0
M  V30 153 H 14.547 3.01982 -1.18226 0
M  V30 154 H 14.332 2.62542 -2.91229 0
M  V30 155 H 15.822 3.44623 -2.35848 0
M  V30 156 N 16.2591 1.48442 0.529413 0
M  V30 157 C 17.6751 1.34575 0.858004 0
M  V30 158 C 17.8751 0.3572 1.98309 0
M  V30 159 O 16.9311 -0.221379 2.51528 0
M  V30 160 C 18.2441 2.74617 1.22499 0
M  V30 161 C 19.7921 2.83109 1.33484 0
M  V30 162 C 20.2671 4.23854 1.73526 0
M  V30 163 N 21.7581 4.2653 1.80628 0
M  V30 164 C 22.4931 5.32372 2.12997 0
M  V30 165 N 21.9891 6.48491 2.43786 0
M  V30 166 N 23.7821 5.19766 2.14008 0
M  V30 167 H 15.9331 2.1133 -0.212925 0
M  V30 168 H 18.1961 0.947439 -0.0326199 0
M  V30 169 H 17.9021 3.4852 0.471905 0
M  V30 170 H 17.7761 3.08177 2.17501 0
M  V30 171 H 20.1631 2.09462 2.0787 0
M  V30 172 H 20.2441 2.53168 0.366027 0
M  V30 173 H 19.8881 4.98018 0.997013 0
M  V30 174 H 19.8181 4.5124 2.71459 0
M  V30 175 H 22.3091 3.42772 1.59108 0
M  V30 176 H 22.6221 7.24993 2.67592 0
M  V30 177 H 20.9671 6.51765 2.41304 0
M  V30 178 H 24.1581 4.28066 1.89412 0
M  V30 179 H 24.3311 6.02354 2.38902 0
M  V30 180 N 17.7372 -0.778329 1.37039 0
M  V30 181 C 19.1532 -1.07796 1.17695 0
M  V30 182 C 19.3532 -2.01498 0.00860115 0
M  V30 183 O 18.4092 -2.43901 -0.653352 0
M  V30 184 C 19.7222 -1.68178 2.49272 0
M  V30 185 C 21.2702 -1.80467 2.55735 0
M  V30 186 C 21.7452 -2.44263 3.87427 0
M  V30 187 N 23.2362 -2.51721 3.88833 0
M  V30 188 C 23.9712 -3.01919 4.87476 0
M  V30 189 N 23.4672 -3.5234 5.96513 0
M  V30 190 N 25.2602 -3.00733 4.74885 0
M  V30 191 H 17.4112 -0.156032 2.11826 0
M  V30 192 H 19.6742 -0.131844 0.938787 0
M  V30 193 H 19.3802 -1.06796 3.35093 0
M  V30 194 H 19.2542 -2.67554 2.65885 0
M  V30 195 H 21.6412 -2.40984 1.70325 0
M  V30 196 H 21.7222 -0.798656 2.43013 0
M  V30 197 H 21.3662 -1.84388 4.73248 0
M  V30 198 H 21.2962 -3.45458 3.9745 0
M  V30 199 H 23.7872 -2.1603 3.10063 0
M  V30 200 H 24.1002 -3.89027 6.67741 0
M  V30 201 H 22.4452 -3.50462 6.00168 0
M  V30 202 H 25.6362 -2.60638 3.88826 0
M  V30 203 H 25.8092 -3.39545 5.51918 0
M  V30 204 N 19.2153 -1.21501 -1.00376 0
M  V30 205 C 20.1453 -0.999478 -2.11028 0
M  V30 206 C 21.1263 0.0759671 -1.6993 0
M  V30 207 O 22.3113 -0.0841106 -1.94018 0
M  V30 208 C 19.4413 -0.564709 -3.42678 0
M  V30 209 C 18.3953 -1.58486 -3.97576 0
M  V30 210 C 17.7213 -1.00628 -5.25146 0
M  V30 211 C 19.0213 -2.97204 -4.29496 0
M  V30 212 H 20.7153 -1.92495 -2.29317 0
M  V30 213 H 18.2613 -0.92693 -1.102 0
M  V30 214 H 20.2143 -0.401091 -4.19487 0
M  V30 215 H 18.9383 0.396411 -3.24185 0
M  V30 216 H 17.5973 -1.73606 -3.22888 0
M  V30 217 H 17.2453 -0.0368439 -5.02987 0
M  V30 218 H 16.9453 -1.68771 -5.62841 0
M  V30 219 H 18.4693 -0.854015 -6.04598 0
M  V30 220 H 19.8833 -2.8552 -4.97143 0
M  V30 221 H 18.2803 -3.62372 -4.78338 0
M  V30 222 H 19.3503 -3.47956 -3.3772 0
M  V30 223 N 20.6934 1.19889 -1.02296 0
M  V30 224 C 21.6234 2.25141 -0.619174 0
M  V30 225 C 22.6044 1.66051 0.368915 0
M  V30 226 O 23.7894 1.92546 0.252941 0
M  V30 227 C 20.9194 3.4728 0.0368783 0
M  V30 228 C 19.8734 4.19005 -0.872865 0
M  V30 229 C 19.1994 5.34637 -0.0822402 0
M  V30 230 C 20.4994 4.74452 -2.18387 0
M  V30 231 H 22.1934 2.59171 -1.49903 0
M  V30 232 H 19.7394 1.24579 -0.722222 0
M  V30 233 H 21.6924 4.20098 0.330958 0
M  V30 234 H 20.4164 3.12433 0.95149 0
M  V30 235 H 19.0754 3.48061 -1.15105 0
M  V30 236 H 18.7234 4.96034 0.83422 0
M  V30 237 H 18.4234 5.83557 -0.688149 0
M  V30 238 H 19.9474 6.10255 0.205238 0
M  V30 239 H 21.3614 5.39055 -1.95172 0
M  V30 240 H 19.7584 5.33834 -2.74119 0
M  V30 241 H 20.8284 3.92844 -2.84257 0
M  V30 242 N 22.1715 0.800033 1.35784 0
M  V30 243 C 23.4185 0.377342 1.98953 0
M  V30 244 C 23.7465 -1.05378 1.6348 0
M  V30 245 O 23.0015 -1.74459 0.886707 0
M  V30 246 C 23.3005 0.500276 3.53881 0
M  V30 247 C 22.9665 1.89375 4.09204 0
M  V30 248 C 21.6285 2.27499 4.24025 0
M  V30 249 C 23.9805 2.8057 4.39238 0
M  V30 250 C 21.3085 3.562 4.66195 0
M  V30 251 C 23.6605 4.0871 4.82844 0
M  V30 252 C 22.3245 4.46843 4.95871 0
M  V30 253 H 21.5945 0.138079 0.728021 0
M  V30 254 H 24.2415 1.01955 1.62103 0
M  V30 255 H 22.5465 -0.225405 3.91151 0
M  V30 256 H 24.2435 0.154097 4.00704 0
M  V30 257 H 20.8335 1.58753 3.98115 0
M  V30 258 H 25.0175 2.52367 4.27346 0
M  V30 259 H 20.2735 3.85602 4.74469 0
M  V30 260 H 24.4475 4.79481 5.05046 0
M  V30 261 H 22.0745 5.46623 5.28306 0
M  V30 262 N 23.6496 -1.47581 0.552962 0
M  V30 263 C 24.5796 -2.32762 -0.185451 0
M  V30 264 C 25.5606 -1.43527 -0.912905 0
M  V30 265 O 26.7456 -1.72388 -0.894201 0
M  V30 266 C 23.8756 -3.25219 -1.21859 0
M  V30 267 C 22.8296 -4.23661 -0.607864 0
M  V30 268 C 22.1556 -5.05413 -1.74533 0
M  V30 269 C 23.4556 -5.20481 0.435582 0
M  V30 270 H 25.1496 -2.94749 0.525684 0
M  V30 271 H 22.6956 -1.41738 0.254251 0
M  V30 272 H 24.6486 -3.8365 -1.7433 0
M  V30 273 H 23.3726 -2.61279 -1.95961 0
M  V30 274 H 22.0316 -3.66451 -0.104489 0
M  V30 275 H 21.6796 -4.3788 -2.47529 0
M  V30 276 H 21.3796 -5.72059 -1.34249 0
M  V30 277 H 22.9036 -5.66701 -2.27338 0
M  V30 278 H 24.3176 -5.733 -0.00290157 0
M  V30 279 H 22.7146 -5.95305 0.757067 0
M  V30 280 H 23.7846 -4.66217 1.33303 0
M  V30 281 N 25.1277 -0.289203 -1.54924 0
M  V30 282 C 26.3757 0.322879 -1.99504 0
M  V30 283 C 26.6967 1.55313 -1.1791 0
M  V30 284 O 25.9667 1.94001 -0.272097 0
M  V30 285 H 24.5467 0.122291 -0.736922 0
M  V30 286 H 27.2087 -0.397802 -1.90797 0
M  V30 287 H 26.3047 0.603061 -3.06218 0
M  V30 288 N 26.6058 1.57591 -0.0167156 0
M  V30 289 C 28.0168 1.79201 0.523834 0
M  V30 290 C 28.3678 0.925796 1.72984 0
M  V30 291 O 27.4928 0.132792 2.15992 0
M  V30 292 C 28.0878 3.25 0.957091 0
M  V30 293 C 26.6468 3.47648 1.44283 0
M  V30 294 C 25.7938 2.74374 0.401757 0
M  V30 295 H 28.7448 1.56831 -0.242816 0
M  V30 296 H 28.7658 3.34031 1.82219 0
M  V30 297 H 28.2778 3.88019 0.0791415 0
M  V30 298 H 26.3788 2.89866 2.34113 0
M  V30 299 H 26.4918 4.56352 1.45877 0
M  V30 300 H 24.8558 2.39485 0.867121 0
M  V30 301 H 25.6388 3.40102 -0.467513 0
M  V30 302 N 28.0839 -0.256276 1.55502 0
M  V30 303 C 29.4949 -0.826068 1.67431 0
M  V30 304 C 29.8459 -1.86396 0.612446 0
M  V30 305 O 28.9709 -2.15031 -0.243025 0
M  V30 306 C 29.5659 -1.50512 3.03532 0
M  V30 307 C 28.1249 -2.02273 3.17431 0
M  V30 308 C 27.2719 -0.870548 2.63281 0
M  V30 309 H 30.2229 -0.0322728 1.58667 0
M  V30 310 H 30.2439 -2.37279 2.97454 0
M  V30 311 H 29.7559 -0.749484 3.80794 0
M  V30 312 H 27.8569 -2.80746 2.44974 0
M  V30 313 H 27.9699 -2.22655 4.24219 0
M  V30 314 H 26.3339 -1.26851 2.20864 0
M  V30 315 H 27.1169 -0.128149 3.43061 0
M  V30 316 N 29.562 -1.4872 -0.521534 0
M  V30 317 C 30.973 -1.50607 -1.10337 0
M  V30 318 C 31.324 -0.280612 -1.94183 0
M  V30 319 O 30.449 0.611507 -2.0758 0
M  V30 320 C 31.044 -2.72903 -2.00772 0
M  V30 321 C 29.603 -2.77634 -2.54158 0
M  V30 322 C 28.75 -2.44241 -1.31307 0
M  V30 323 H 31.701 -1.55714 -0.306388 0
M  V30 324 H 31.722 -2.519 -2.85178 0
M  V30 325 H 31.234 -3.62077 -1.39721 0
M  V30 326 H 29.335 -1.92689 -3.18907 0
M  V30 327 H 29.448 -3.79283 -2.92714 0
M  V30 328 H 27.812 -1.95577 -1.63161 0
M  V30 329 H 28.595 -3.35666 -0.719943 0
M  V30 330 N 31.0401 0.771051 -1.3745 0
M  V30 331 C 32.4511 1.34737 -1.29239 0
M  V30 332 C 32.8021 1.96109 0.0596908 0
M  V30 333 O 31.9271 1.93865 0.961534 0
M  V30 334 C 32.5221 2.44973 -2.34037 0
M  V30 335 C 31.0811 2.98372 -2.29458 0
M  V30 336 C 30.2281 1.71595 -2.17831 0
M  V30 337 H 33.1791 0.571256 -1.48062 0
M  V30 338 H 33.2001 3.24471 -1.98744 0
M  V30 339 H 32.7121 2.00276 -3.32432 0
M  V30 340 H 30.8131 3.47443 -1.34589 0
M  V30 341 H 30.9261 3.53939 -3.229 0
M  V30 342 H 29.2901 1.94547 -1.64388 0
M  V30 343 H 30.0731 1.29001 -3.18141 0
M  V30 344 N 32.5182 1.22032 0.997298 0
M  V30 345 C 33.9292 1.0397 1.55071 0
M  V30 346 C 34.2802 -0.398192 1.92117 0
M  V30 347 O 33.4052 -1.28254 1.74298 0
M  V30 348 C 34.0002 1.88109 2.81781 0
M  V30 349 C 32.5592 1.74357 3.33581 0
M  V30 350 C 31.7062 1.84846 2.06706 0
M  V30 351 H 34.6572 1.35941 0.818883 0
M  V30 352 H 34.6782 1.39589 3.53971 0
M  V30 353 H 34.1902 2.92754 2.54787 0
M  V30 354 H 32.2912 0.72427 3.65493 0
M  V30 355 H 32.4042 2.56772 4.04481 0
M  V30 356 H 30.7682 1.28238 2.20062 0
M  V30 357 H 31.5512 2.91014 1.82114 0
M  V30 358 N 33.9963 -1.19345 1.0293 0
M  V30 359 C 34.9263 -2.2481 0.631105 0
M  V30 360 C 35.9073 -1.66245 -0.360104 0
M  V30 361 O 37.0923 -1.92677 -0.242726 0
M  V30 362 C 34.2223 -3.47295 -0.0184607 0
M  V30 363 C 33.1763 -4.18536 0.895073 0
M  V30 364 C 32.5023 -5.34586 0.110592 0
M  V30 365 C 33.8023 -4.73287 2.209 0
M  V30 366 H 35.4963 -2.58372 1.51275 0
M  V30 367 H 33.0423 -1.24194 0.728818 0
M  V30 368 H 34.9953 -4.20268 -0.308675 0
M  V30 369 H 33.7193 -3.12933 -0.934907 0
M  V30 370 H 32.3783 -3.47446 1.16949 0
M  V30 371 H 32.0263 -4.96469 -0.807902 0
M  V30 372 H 31.7263 -5.83183 0.719087 0
M  V30 373 H 33.2503 -6.10355 -0.172871 0
M  V30 374 H 34.6643 -5.38013 1.98028 0
M  V30 375 H 33.0613 -5.32373 2.76946 0
M  V30 376 H 34.1313 -3.91331 2.86336 0
M  V30 377 N 35.4744 -0.807222 -1.35358 0
M  V30 378 C 36.4044 -0.232509 -2.3234 0
M  V30 379 C 37.3854 0.642386 -1.57504 0
M  V30 380 O 38.5704 0.572526 -1.85569 0
M  V30 381 C 35.7004 0.619238 -3.41735 0
M  V30 382 C 34.6544 -0.157215 -4.27711 0
M  V30 383 C 33.9804 0.816273 -5.28433 0
M  V30 384 C 35.2804 -1.35656 -5.04376 0
M  V30 385 H 36.9744 -1.04276 -2.80654 0
M  V30 386 H 34.5204 -0.50288 -1.34934 0
M  V30 387 H 36.4734 1.03137 -4.08584 0
M  V30 388 H 35.1974 1.46239 -2.92031 0
M  V30 389 H 33.8564 -0.550525 -3.62443 0
M  V30 390 H 33.5044 1.65494 -4.74996 0
M  V30 391 H 33.2044 0.301067 -5.86828 0
M  V30 392 H 34.7284 1.22659 -5.98153 0
M  V30 393 H 36.1424 -1.01927 -5.64166 0
M  V30 394 H 34.5394 -1.8063 -5.7227 0
M  V30 395 H 35.6094 -2.14288 -4.34981 0
M  V30 396 N 36.9525 1.47285 -0.560781 0
M  V30 397 C 37.8825 2.32857 0.173105 0
M  V30 398 C 38.8635 1.44009 0.905281 0
M  V30 399 O 40.0485 1.7286 0.885046 0
M  V30 400 C 37.1785 3.25861 1.20133 0
M  V30 401 C 36.1325 4.23978 0.585388 0
M  V30 402 C 35.4585 5.06332 1.7185 0
M  V30 403 C 36.7585 5.20242 -0.463178 0
M  V30 404 H 38.4525 2.94466 -0.541307 0
M  V30 405 H 35.9985 1.41601 -0.261764 0
M  V30 406 H 37.9515 3.84569 1.72293 0
M  V30 407 H 36.6755 2.62315 1.94573 0
M  V30 408 H 35.3345 3.66501 0.085054 0
M  V30 409 H 34.9825 4.39186 2.45203 0
M  V30 410 H 34.6825 5.72762 1.31213 0
M  V30 411 H 36.2065 5.67899 2.24329 0
M  V30 412 H 37.6205 5.73293 -0.027502 0
M  V30 413 H 36.0175 5.94896 -0.788627 0
M  V30 414 H 37.0875 4.65504 -1.35773 0
M  V30 415 N 38.4306 0.297415 1.54768 0
M  V30 416 C 39.3606 -0.573494 2.26348 0
M  V30 417 C 40.3416 -1.14085 1.26169 0
M  V30 418 O 41.5266 -1.17086 1.54934 0
M  V30 419 C 38.6566 -1.74716 3.00153 0
M  V30 420 C 37.6106 -1.31032 4.07449 0
M  V30 421 C 36.9366 -2.56887 4.68949 0
M  V30 422 C 38.2366 -0.444183 5.20408 0
M  V30 423 H 39.9306 0.0235131 2.99391 0
M  V30 424 H 37.4766 0.0127488 1.43994 0
M  V30 425 H 39.4296 -2.3625 3.48947 0
M  V30 426 H 38.1536 -2.37035 2.24682 0
M  V30 427 H 36.8126 -0.718066 3.59499 0
M  V30 428 H 36.4606 -3.17512 3.90122 0
M  V30 429 H 36.1606 -2.2836 5.41411 0
M  V30 430 H 37.6846 -3.19229 5.20505 0
M  V30 431 H 39.0986 -0.9651 5.65118 0
M  V30 432 H 37.4956 -0.252846 5.99567 0
M  V30 433 H 38.5656 0.531609 4.81977 0
M  V30 434 N 39.9087 -1.5758 0.0250728 0
M  V30 435 C 41.1547 -1.91917 -0.655413 0
M  V30 436 C 41.4877 -0.901433 -1.72011 0
M  V30 437 O 40.7627 0.0764069 -1.9435 0
M  V30 438 C 41.0457 -3.36751 -1.27558 0
M  V30 439 C 40.8987 -4.49258 -0.220719 0
M  V30 440 C 42.2177 -3.81469 -2.19475 0
M  V30 441 H 39.3367 -0.697925 -0.23679 0
M  V30 442 H 41.9787 -1.89825 0.0815036 0
M  V30 443 H 40.1287 -3.38664 -1.90365 0
M  V30 444 H 41.8007 -4.59478 0.409601 0
M  V30 445 H 40.0437 -4.31415 0.454264 0
M  V30 446 H 40.7147 -5.47618 -0.694175 0
M  V30 447 H 43.1907 -3.81266 -1.66659 0
M  V30 448 H 42.0667 -4.83512 -2.59822 0
M  V30 449 H 42.3277 -3.16744 -3.08424 0
M  V30 450 N 41.3868 0.248026 -1.55636 0
M  V30 451 C 42.6338 0.976224 -1.77415 0
M  V30 452 C 42.9618 1.85361 -0.589193 0
M  V30 453 O 42.2168 1.90973 0.427529 0
M  V30 454 C 42.5158 1.86819 -3.04686 0
M  V30 455 C 42.1818 1.14625 -4.36087 0
M  V30 456 C 40.8438 0.946723 -4.71795 0
M  V30 457 C 43.1958 0.634463 -5.17324 0
M  V30 458 C 40.5238 0.223091 -5.86276 0
M  V30 459 C 42.8758 -0.0756959 -6.32555 0
M  V30 460 C 41.5398 -0.286711 -6.66884 0
M  V30 461 H 40.8098 0.357226 -0.649208 0
M  V30 462 H 43.4568 0.246415 -1.89908 0
M  V30 463 H 41.7618 2.66502 -2.872 0
M  V30 464 H 43.4588 2.43329 -3.18735 0
M  V30 465 H 40.0488 1.3117 -4.08035 0
M  V30 466 H 44.2328 0.77616 -4.90193 0
M  V30 467 H 39.4888 0.0491185 -6.1138 0
M  V30 468 H 43.6628 -0.479899 -6.94745 0
M  V30 469 H 41.2898 -0.849389 -7.5544 0
M  V30 470 N 42.8649 1.48995 0.513639 0
M  V30 471 C 44.0899 1.61792 1.29762 0
M  V30 472 C 44.5149 0.284475 1.85936 0
M  V30 473 O 43.8729 -0.746185 1.65232 0
M  V30 474 C 43.9209 2.67993 2.41272 0
M  V30 475 O 43.0249 2.26287 3.44772 0
M  V30 476 H 42.3659 0.541963 0.38363 0
M  V30 477 H 44.8959 1.95097 0.616307 0
M  V30 478 H 44.9059 2.89772 2.87221 0
M  V30 479 H 43.5809 3.64791 1.9975 0
M  V30 480 H 42.1579 2.14788 3.04829 0
M  V30 481 N 44.343 -0.763751 1.37857 0
M  V30 482 C 45.759 -1.06542 1.18832 0
M  V30 483 C 45.959 -2.01478 0.0299722 0
M  V30 484 O 45.015 -2.4458 -0.627447 0
M  V30 485 C 46.328 -1.65525 2.51042 0
M  V30 486 C 47.876 -1.77745 2.57635 0
M  V30 487 C 48.351 -2.4014 3.89996 0
M  V30 488 N 49.842 -2.47582 3.91481 0
M  V30 489 C 50.577 -2.96732 4.9065 0
M  V30 490 N 50.073 -3.45993 6.00217 0
M  V30 491 N 51.866 -2.95679 4.78048 0
M  V30 492 H 44.017 -0.133556 2.1198 0
M  V30 493 H 46.28 -0.121879 0.940133 0
M  V30 494 H 45.986 -1.03236 3.36207 0
M  V30 495 H 45.86 -2.64719 2.68707 0
M  V30 496 H 48.247 -2.39164 1.72872 0
M  V30 497 H 48.328 -0.772836 2.43846 0
M  V30 498 H 47.972 -1.79358 4.75177 0
M  V30 499 H 47.902 -3.41223 4.01092 0
M  V30 500 H 50.393 -2.1273 3.12337 0
M  V30 501 H 50.706 -3.81922 6.7183 0
M  V30 502 H 49.051 -3.44077 6.03851 0
M  V30 503 H 52.242 -2.56499 3.91568 0
M  V30 504 H 52.415 -3.33672 5.55488 0
M  V30 505 N 45.8211 -1.22559 -0.990812 0
M  V30 506 C 47.0461 -1.07862 -1.77145 0
M  V30 507 C 47.4711 0.366447 -1.84496 0
M  V30 508 O 46.8291 1.26478 -1.29896 0
M  V30 509 C 46.8771 -1.69686 -3.18181 0
M  V30 510 O 45.9811 -0.951946 -4.01263 0
M  V30 511 H 45.3221 -0.378712 -0.545411 0
M  V30 512 H 47.8521 -1.62399 -1.2445 0
M  V30 513 H 47.8621 -1.74496 -3.68802 0
M  V30 514 H 46.5371 -2.74841 -3.12146 0
M  V30 515 H 45.1141 -0.980011 -3.59792 0
M  V30 516 N 47.2992 1.18797 -1.03562 0
M  V30 517 C 48.5242 1.9314 -0.755764 0
M  V30 518 C 48.9492 1.7537 0.68022 0
M  V30 519 O 48.3072 1.06046 1.47051 0
M  V30 520 C 48.3552 3.42747 -1.12058 0
M  V30 521 O 47.4592 4.11683 -0.243124 0
M  V30 522 H 46.8002 0.602724 -0.278604 0
M  V30 523 H 49.3302 1.50678 -1.3841 0
M  V30 524 H 49.3402 3.93437 -1.08035 0
M  V30 525 H 48.0152 3.55002 -2.16672 0
M  V30 526 H 46.5922 3.71323 -0.342539 0
M  V30 527 N 48.7773 0.814389 1.34928 0
M  V30 528 C 50.1933 0.499084 1.51596 0
M  V30 529 C 50.3933 -0.978319 1.76157 0
M  V30 530 O 49.4493 -1.76309 1.80752 0
M  V30 531 C 50.7623 1.35121 2.68631 0
M  V30 532 C 52.3103 1.34746 2.82511 0
M  V30 533 C 52.7853 2.18388 4.0258 0
M  V30 534 N 54.2763 2.15966 4.09772 0
M  V30 535 C 55.0113 2.77437 5.01813 0
M  V30 536 N 54.5073 3.47866 5.99134 0
M  V30 537 N 56.3003 2.67037 4.94619 0
M  V30 538 H 48.4513 1.7711 1.17243 0
M  V30 539 H 50.7143 0.754256 0.574284 0
M  V30 540 H 50.4203 2.40001 2.57085 0
M  V30 541 H 50.2943 1.00991 3.63429 0
M  V30 542 H 52.6813 0.30648 2.93504 0
M  V30 543 H 52.7623 1.72869 1.88547 0
M  V30 544 H 52.4063 3.2253 3.92347 0
M  V30 545 H 52.3363 1.77621 4.9574 0
M  V30 546 H 54.8273 1.64729 3.40107 0
M  V30 547 H 55.1403 3.92038 6.65977 0
M  V30 548 H 53.4853 3.51972 5.99284 0
M  V30 549 H 56.6763 2.11597 4.17546 0
M  V30 550 H 56.8493 3.15232 5.66156 0
M  V30 551 N 50.2554 -1.46986 0.568584 0
M  V30 552 C 51.6714 -1.57946 0.229189 0
M  V30 553 C 51.8714 -1.56567 -1.26843 0
M  V30 554 O 50.9274 -1.47511 -2.04931 0
M  V30 555 C 52.2404 -2.87963 0.865909 0
M  V30 556 C 53.7884 -3.01568 0.838188 0
M  V30 557 C 54.2634 -4.34301 1.45419 0
M  V30 558 N 55.7544 -4.40965 1.41788 0
M  V30 559 C 56.4894 -5.42256 1.86403 0
M  V30 560 N 55.9854 -6.50297 2.38926 0
M  V30 561 N 57.7784 -5.3337 1.77405 0
M  V30 562 H 49.9294 -1.46126 1.54146 0
M  V30 563 H 52.1924 -0.696156 0.643484 0
M  V30 564 H 51.8984 -2.94742 1.91886 0
M  V30 565 H 51.7724 -3.75423 0.365687 0
M  V30 566 H 54.1594 -2.94379 -0.206106 0
M  V30 567 H 54.2404 -2.1562 1.37629 0
M  V30 568 H 53.8844 -4.42247 2.49761 0
M  V30 569 H 53.8144 -5.19 0.891435 0
M  V30 570 H 56.3054 -3.63484 1.03381 0
M  V30 571 H 56.6184 -7.23777 2.70863 0
M  V30 572 H 54.9634 -6.51155 2.42944 0
M  V30 573 H 58.1544 -4.47865 1.3614 0
M  V30 574 H 58.3274 -6.12169 2.12492 0
M  V30 575 N 51.7335 -0.305618 -1.54608 0
M  V30 576 C 53.1495 0.0476228 -1.59529 0
M  V30 577 C 53.3495 1.52025 -1.32252 0
M  V30 578 O 52.4055 2.27368 -1.09818 0
M  V30 579 C 53.7185 -0.354471 -2.98603 0
M  V30 580 C 55.2665 -0.303622 -3.11524 0
M  V30 581 C 55.7415 -0.680608 -4.52915 0
M  V30 582 N 57.2325 -0.63332 -4.5885 0
M  V30 583 C 57.9675 -0.897432 -5.66334 0
M  V30 584 N 57.4635 -1.22775 -6.81834 0
M  V30 585 N 59.2565 -0.824186 -5.56025 0
M  V30 586 H 51.4075 -1.2653 -1.70599 0
M  V30 587 H 53.6705 -0.513291 -0.797017 0
M  V30 588 H 53.3765 -1.3798 -3.23503 0
M  V30 589 H 53.2505 0.289568 -3.76087 0
M  V30 590 H 55.6375 0.712472 -2.8637 0
M  V30 591 H 55.7185 -0.982348 -2.36185 0
M  V30 592 H 55.3625 -1.69453 -4.78799 0
M  V30 593 H 55.2925 0.0202385 -5.26596 0
M  V30 594 H 57.7835 -0.389138 -3.75891 0
M  V30 595 H 58.0965 -1.41513 -7.59733 0
M  V30 596 H 56.4415 -1.26583 -6.83375 0
M  V30 597 H 59.6325 -0.565748 -4.64669 0
M  V30 598 H 59.8055 -1.03338 -6.39707 0
M  V30 599 N 53.2116 1.57565 -0.0334293 0
M  V30 600 C 54.1416 2.13511 0.945265 0
M  V30 601 C 55.1226 1.05231 1.33643 0
M  V30 602 O 56.3076 1.33084 1.41429 0
M  V30 603 C 53.4376 2.6657 2.22616 0
M  V30 604 C 52.3916 3.79676 1.97561 0
M  V30 605 C 51.7176 4.1918 3.31952 0
M  V30 606 C 53.0176 5.0557 1.31135 0
M  V30 607 H 54.7116 2.95538 0.479325 0
M  V30 608 H 52.2576 1.42166 0.229115 0
M  V30 609 H 54.2106 3.04344 2.91466 0
M  V30 610 H 52.9346 1.8171 2.71384 0
M  V30 611 H 51.5936 3.42347 1.31127 0
M  V30 612 H 51.2416 3.31296 3.78487 0
M  V30 613 H 50.9416 4.95402 3.15992 0
M  V30 614 H 52.4656 4.59541 4.02063 0
M  V30 615 H 53.8796 5.40903 1.89992 0
M  V30 616 H 52.2766 5.86818 1.25559 0
M  V30 617 H 53.3466 4.84062 0.284894 0
M  V30 618 N 54.6897 -0.239769 1.55765 0
M  V30 619 C 55.6397 -1.30002 1.87306 0
M  V30 620 C 56.6237 -1.43156 0.73452 0
M  V30 621 O 57.8157 -1.46277 0.99659 0
M  V30 622 C 54.9447 -2.65409 2.17745 0
M  V30 623 C 54.0307 -2.56231 3.37945 0
M  V30 624 N 54.4217 -2.16689 4.57033 0
M  V30 625 C 52.7197 -2.87229 3.41197 0
M  V30 626 C 53.4207 -2.18318 5.39177 0
M  V30 627 N 52.3967 -2.58098 4.78421 0
M  V30 628 H 56.1987 -0.984912 2.76906 0
M  V30 629 H 53.7127 -0.448381 1.56087 0
M  V30 630 H 55.7097 -3.41934 2.38509 0
M  V30 631 H 54.3697 -2.97781 1.29448 0
M  V30 632 H 55.3807 -1.88116 4.82528 0
M  V30 633 H 52.0577 -3.24094 2.63191 0
M  V30 634 H 53.4477 -1.90025 6.44469 0
M  V30 635 N 56.1678 -1.49265 -0.50573 0
M  V30 636 C 57.3928 -1.62478 -1.28902 0
M  V30 637 C 57.8178 -0.294332 -1.85783 0
M  V30 638 O 57.1758 0.737412 -1.65626 0
M  V30 639 C 57.2238 -2.69268 -2.39848 0
M  V30 640 O 56.3278 -2.28113 -3.43567 0
M  V30 641 H 55.6688 -0.54399 -0.380751 0
M  V30 642 H 58.1988 -1.95421 -0.605952 0
M  V30 643 H 58.2088 -2.91291 -2.85681 0
M  V30 644 H 56.8838 -3.65846 -1.97812 0
M  V30 645 H 55.4608 -2.16401 -3.03685 0
M  V30 646 N 57.6459 0.756429 -1.3826 0
M  V30 647 C 58.5759 1.88374 -1.37976 0
M  V30 648 C 59.5569 1.68311 -0.246082 0
M  V30 649 O 60.7419 1.88944 -0.44874 0
M  V30 650 C 57.8719 3.25864 -1.20125 0
M  V30 651 C 56.8259 3.60523 -2.30666 0
M  V30 652 C 56.1519 4.9672 -1.97923 0
M  V30 653 C 57.4519 3.65692 -3.72916 0
M  V30 654 H 59.1459 1.88869 -2.32312 0
M  V30 655 H 56.6919 0.907272 -1.11824 0
M  V30 656 H 58.6449 4.0438 -1.18552 0
M  V30 657 H 57.3689 3.25841 -0.222498 0
M  V30 658 H 56.0279 2.84324 -2.3142 0
M  V30 659 H 55.6759 4.93253 -0.985393 0
M  V30 660 H 55.3759 5.20878 -2.71955 0
M  V30 661 H 56.8999 5.77618 -1.97964 0
M  V30 662 H 58.3139 4.34328 -3.74208 0
M  V30 663 H 56.7109 4.01358 -4.4613 0
M  V30 664 H 57.7809 2.65987 -4.05436 0
M  V30 665 N 59.124 1.23083 0.984299 0
M  V30 666 C 60.372 1.05848 1.72165 0
M  V30 667 C 60.693 -0.406049 1.90726 0
M  V30 668 O 59.963 -1.29139 1.47309 0
M  V30 669 H 58.543 0.388685 0.637913 0
M  V30 670 H 61.205 1.54736 1.18503 0
M  V30 671 H 60.301 1.54327 2.71274 0
M  V30 672 N 60.6021 -1.18246 1.0419 0
M  V30 673 C 61.5321 -2.24127 0.654914 0
M  V30 674 C 62.5131 -1.66617 -0.342451 0
M  V30 675 O 63.6981 -1.92924 -0.222277 0
M  V30 676 C 60.8281 -3.47295 0.0183757 0
M  V30 677 C 59.7821 -4.17563 0.939414 0
M  V30 678 C 59.1081 -5.34438 0.167286 0
M  V30 679 C 60.4081 -4.70917 2.25908 0
M  V30 680 H 62.1021 -2.56753 1.54007 0
M  V30 681 H 59.6481 -1.23414 0.74195 0
M  V30 682 H 61.6011 -4.20572 -0.264082 0
M  V30 683 H 60.3251 -3.13907 -0.901664 0
M  V30 684 H 58.9841 -3.46186 1.20628 0
M  V30 685 H 58.6321 -4.97298 -0.7552 0
M  V30 686 H 58.3321 -5.82388 0.780901 0
M  V30 687 H 59.8561 -6.10504 -0.108125 0
M  V30 688 H 61.2701 -5.35882 2.03724 0
M  V30 689 H 59.6671 -5.29406 2.82577 0
M  V30 690 H 60.7371 -3.88272 2.9047 0
M  V30 691 N 62.0802 -0.821533 -1.34494 0
M  V30 692 C 63.0432 -0.247847 -2.27856 0
M  V30 693 C 64.0432 0.573453 -1.50227 0
M  V30 694 O 65.2332 0.389759 -1.69784 0
M  V30 695 C 62.3652 0.652698 -3.34593 0
M  V30 696 H 63.5582 -1.07146 -2.80107 0
M  V30 697 H 61.1112 -0.593291 -1.44602 0
M  V30 698 H 61.8462 1.49943 -2.87555 0
M  V30 699 H 61.6312 0.065292 -3.92046 0
M  V30 700 H 63.1212 1.04793 -4.04238 0
M  V30 701 N 63.5583 1.46682 -0.576371 0
M  V30 702 C 64.5213 2.28707 0.150239 0
M  V30 703 C 65.5213 1.38035 0.824794 0
M  V30 704 O 66.7113 1.60476 0.677719 0
M  V30 705 C 63.8433 3.18248 1.22192 0
M  V30 706 H 65.0363 2.94423 -0.570521 0
M  V30 707 H 62.5893 1.52688 -0.334078 0
M  V30 708 H 63.3243 2.57265 1.97447 0
M  V30 709 H 63.1093 3.85 0.742812 0
M  V30 710 H 64.5993 3.80001 1.73172 0
M  V30 711 N 65.0364 0.313813 1.54444 0
M  V30 712 C 65.9694 -0.598866 2.20202 0
M  V30 713 C 66.9474 -1.12318 1.17573 0
M  V30 714 O 68.1314 -1.18899 1.46271 0
M  V30 715 C 65.2584 -1.82071 2.85601 0
M  V30 716 C 64.3044 -1.42851 4.01865 0
M  V30 717 S 65.1374 -0.473512 5.33402 0
M  V30 718 C 66.2934 -1.70286 6.0229 0
M  V30 719 H 66.5264 -0.0402532 2.97273 0
M  V30 720 H 64.0594 0.0979165 1.54089 0
M  V30 721 H 66.0174 -2.52184 3.23904 0
M  V30 722 H 64.6784 -2.3505 2.08351 0
M  V30 723 H 63.8714 -2.33871 4.46453 0
M  V30 724 H 63.4734 -0.807198 3.65185 0
M  V30 725 H 65.7654 -2.64168 6.23876 0
M  V30 726 H 66.7084 -1.29932 6.96077 0
M  V30 727 H 67.1164 -1.88541 5.32083 0
M  V30 728 N 66.5145 -1.57545 0.0417849 0
M  V30 729 C 67.9255 -1.80011 -0.495259 0
M  V30 730 C 68.2765 -0.953199 -1.71489 0
M  V30 731 O 67.4015 -0.167138 -2.15754 0
M  V30 732 C 67.9965 -3.26482 -0.905265 0
M  V30 733 C 66.5555 -3.499 -1.38734 0
M  V30 734 C 65.7025 -2.74979 -0.358056 0
M  V30 735 H 68.6535 -1.56425 0.267736 0
M  V30 736 H 68.6745 -3.36887 -1.76882 0
M  V30 737 H 68.1865 -3.88096 -0.017401 0
M  V30 738 H 66.2875 -2.93553 -2.29471 0
M  V30 739 H 66.4005 -4.58615 -1.38598 0
M  V30 740 H 64.7645 -2.40834 -0.828912 0
M  V30 741 H 65.5475 -3.39315 0.521561 0
M  V30 742 N 67.9926 0.231505 -1.5589 0
M  V30 743 C 68.9026 1.308 -1.94752 0
M  V30 744 C 69.9186 1.51826 -0.849989 0
M  V30 745 O 71.0946 1.6515 -1.15271 0
M  V30 746 C 68.1596 2.63968 -2.24771 0
M  V30 747 C 67.2206 2.51331 -3.48039 0
M  V30 748 C 66.4536 3.78148 -3.76616 0
M  V30 749 O 66.6766 4.80722 -3.07022 0
M  V30 750 O 65.6106 3.75857 -4.70123 0
M  V30 751 H 69.4366 1.0083 -2.86474 0
M  V30 752 H 67.0216 0.433547 -1.42971 0
M  V30 753 H 68.9036 3.42633 -2.45318 0
M  V30 754 H 67.5786 2.9364 -1.36225 0
M  V30 755 H 66.4856 1.709 -3.32782 0
M  V30 756 H 67.8186 2.26601 -4.36936 0
M  V30 757 N 69.4707 1.49531 0.497807 0
M  V30 758 C 70.4177 1.66436 1.59899 0
M  V30 759 C 71.3877 0.505793 1.58212 0
M  V30 760 O 72.5727 0.733202 1.7615 0
M  V30 761 C 69.7127 1.7399 2.98029 0
M  V30 762 C 68.8257 3.01172 3.09708 0
M  V30 763 C 67.9607 2.99686 4.38591 0
M  V30 764 C 66.9997 4.21434 4.43914 0
M  V30 765 N 66.1367 4.1784 5.64229 0
M  V30 766 H 70.9767 2.60459 1.44793 0
M  V30 767 H 68.5137 1.29137 0.704423 0
M  V30 768 H 70.4717 1.76352 3.78095 0
M  V30 769 H 69.1017 0.834301 3.11832 0
M  V30 770 H 68.1537 3.08408 2.22685 0
M  V30 771 H 69.4657 3.91165 3.09502 0
M  V30 772 H 68.6197 3.00628 5.2698 0
M  V30 773 H 67.3587 2.07477 4.41367 0
M  V30 774 H 66.3637 4.20733 3.53926 0
M  V30 775 H 67.5887 5.14839 4.42851 0
M  V30 776 H 65.5347 3.28469 5.67841 0
M  V30 777 H 65.4517 5.01571 5.65652 0
M  V30 778 H 66.7197 4.22889 6.54817 0
M  V30 779 N 70.9488 -0.749086 1.3866 0
M  V30 780 C 72.3648 -1.05276 1.19955 0
M  V30 781 C 72.5648 -2.01435 0.05134 0
M  V30 782 O 71.6208 -2.45232 -0.60147 0
M  V30 783 C 72.9338 -1.62853 2.52783 0
M  V30 784 C 74.4818 -1.75002 2.59506 0
M  V30 785 C 74.9568 -2.35991 3.92521 0
M  V30 786 N 76.4478 -2.43416 3.94085 0
M  V30 787 C 77.1828 -2.91511 4.9377 0
M  V30 788 N 76.6788 -3.39608 6.03853 0
M  V30 789 N 78.4718 -2.90592 4.81157 0
M  V30 790 H 70.6228 -0.111066 2.12109 0
M  V30 791 H 72.8858 -0.111901 0.941373 0
M  V30 792 H 72.5918 -0.99664 3.37283 0
M  V30 793 H 72.4658 -2.61854 2.715 0
M  V30 794 H 74.8528 -2.37317 1.75398 0
M  V30 795 H 74.9338 -0.74693 2.44652 0
M  V30 796 H 74.5778 -1.74308 4.77053 0
M  V30 797 H 74.5078 -3.3695 4.04688 0
M  V30 798 H 76.9988 -2.09405 3.14576 0
M  V30 799 H 77.3118 -3.74775 6.75843 0
M  V30 800 H 75.6568 -3.37653 6.07466 0
M  V30 801 H 78.8478 -2.52332 3.94267 0
M  V30 802 H 79.0208 -3.27762 5.58996 0
M  V30 803 N 72.4269 -1.23603 -0.977757 0
M  V30 804 C 73.8379 -1.06424 -1.53398 0
M  V30 805 C 74.1889 0.367578 -1.92726 0
M  V30 806 O 73.3139 1.25465 -1.76316 0
M  V30 807 C 73.9089 -1.92568 -2.78753 0
M  V30 808 C 72.4679 -1.79642 -3.30765 0
M  V30 809 C 71.6149 -1.88111 -2.03739 0
M  V30 810 H 74.5659 -1.37227 -0.797152 0
M  V30 811 H 74.5869 -1.45203 -3.51705 0
M  V30 812 H 74.0989 -2.96771 -2.50098 0
M  V30 813 H 72.1999 -0.782325 -3.64294 0
M  V30 814 H 72.3129 -2.63174 -4.00345 0
M  V30 815 H 70.6769 -1.31723 -2.17994 0
M  V30 816 H 71.4599 -2.93875 -1.77461 0
M  V30 817 N 73.905 1.17692 -1.04816 0
M  V30 818 C 75.152 1.87859 -0.75599 0
M  V30 819 C 75.48 1.80812 0.716752 0
M  V30 820 O 74.735 1.20819 1.53952 0
M  V30 821 C 75.034 3.37462 -1.17703 0
M  V30 822 C 74.7 3.64713 -2.65133 0
M  V30 823 C 73.362 3.71859 -3.05408 0
M  V30 824 C 75.714 3.76492 -3.60421 0
M  V30 825 C 73.042 3.88271 -4.39843 0
M  V30 826 C 75.394 3.94421 -4.94585 0
M  V30 827 C 74.058 3.99806 -5.3452 0
M  V30 828 H 73.328 0.687425 -0.276636 0
M  V30 829 H 75.975 1.39255 -1.31455 0
M  V30 830 H 74.28 3.88097 -0.537395 0
M  V30 831 H 75.977 3.90109 -0.928218 0
M  V30 832 H 72.567 3.59772 -2.32942 0
M  V30 833 H 76.751 3.70295 -3.30447 0
M  V30 834 H 72.007 3.90687 -4.70291 0
M  V30 835 H 76.181 4.02477 -5.68318 0
M  V30 836 H 73.808 4.12276 -6.38696 0
M  V30 837 N 75.3831 0.828654 1.34056 0
M  V30 838 C 76.2931 0.256725 2.33191 0
M  V30 839 C 77.3091 -0.611898 1.62886 0
M  V30 840 O 78.4851 -0.51844 1.94613 0
M  V30 841 C 75.5501 -0.567238 3.42028 0
M  V30 842 C 74.6111 0.324458 4.28072 0
M  V30 843 C 73.8441 -0.460274 5.31712 0
M  V30 844 O 74.0671 -1.693 5.44696 0
M  V30 845 O 73.0011 0.160391 6.01686 0
M  V30 846 H 76.8271 1.07739 2.83947 0
M  V30 847 H 74.4121 0.59093 1.37217 0
M  V30 848 H 76.2941 -1.03582 4.08471 0
M  V30 849 H 74.9691 -1.36513 2.93506 0
M  V30 850 H 73.8761 0.840659 3.64532 0
M  V30 851 H 75.2091 1.08685 4.8005 0
M  V30 852 N 76.8612 -1.46375 0.584142 0
M  V30 853 C 78.2772 -1.57694 0.245929 0
M  V30 854 C 78.4772 -1.57903 -1.25175 0
M  V30 855 O 77.5332 -1.49676 -2.03355 0
M  V30 856 C 78.8462 -2.87028 0.896402 0
M  V30 857 C 80.3942 -3.00662 0.870127 0
M  V30 858 C 80.8692 -4.32734 1.50017 0
M  V30 859 N 82.3602 -4.39436 1.46458 0
M  V30 860 C 83.0952 -5.40248 1.92144 0
M  V30 861 N 82.5912 -6.47726 2.4581 0
M  V30 862 N 84.3842 -5.31459 1.83052 0
M  V30 863 H 76.5352 -1.44483 1.55687 0
M  V30 864 H 78.7982 -0.689291 0.650831 0
M  V30 865 H 78.5042 -2.9269 1.95002 0
M  V30 866 H 78.3782 -3.75014 0.405486 0
M  V30 867 H 80.7652 -2.94581 -0.174871 0
M  V30 868 H 80.8462 -2.14148 1.39908 0
M  V30 869 H 80.4902 -4.39573 2.54437 0
M  V30 870 H 80.4202 -5.18025 0.946432 0
M  V30 871 H 82.9112 -3.62367 1.07231 0
M  V30 872 H 83.2242 -7.20863 2.78525 0
M  V30 873 H 81.5692 -6.48542 2.49836 0
M  V30 874 H 84.7602 -4.46396 1.40883 0
M  V30 875 H 84.9332 -6.09881 2.18973 0
M  V30 876 N 78.3393 -0.321999 -1.54275 0
M  V30 877 C 79.2693 0.537411 -2.27231 0
M  V30 878 C 80.2503 1.12064 -1.27968 0
M  V30 879 O 81.4353 1.14606 -1.56777 0
M  V30 880 C 78.5653 1.69919 -3.02894 0
M  V30 881 C 77.5193 1.24534 -4.09482 0
M  V30 882 C 76.8453 2.49394 -4.72977 0
M  V30 883 C 78.1453 0.361335 -5.21049 0
M  V30 884 H 79.8393 -0.0711406 -2.99315 0
M  V30 885 H 77.3853 -0.0356555 -1.43956 0
M  V30 886 H 79.3383 2.30668 -3.52662 0
M  V30 887 H 78.0623 2.33431 -2.28424 0
M  V30 888 H 76.7213 0.660782 -3.60596 0
M  V30 889 H 76.3693 3.11265 -3.95124 0
M  V30 890 H 76.0693 2.19718 -5.44975 0
M  V30 891 H 77.5933 3.10908 -5.25517 0
M  V30 892 H 79.0073 0.875072 -5.66582 0
M  V30 893 H 77.4043 0.157428 -5.99893 0
M  V30 894 H 78.4743 -0.60822 -4.8107 0
M  V30 895 N 79.8174 1.5752 -0.0501392 0
M  V30 896 C 81.2284 1.80271 0.485705 0
M  V30 897 C 81.5794 0.96228 1.70981 0
M  V30 898 O 80.7044 0.178578 2.15662 0
M  V30 899 C 81.2994 3.26957 0.887938 0
M  V30 900 C 79.8584 3.5063 1.36877 0
M  V30 901 C 79.0054 2.75165 0.343468 0
M  V30 902 H 81.9564 1.56281 -0.276028 0
M  V30 903 H 81.9774 3.37821 1.75093 0
M  V30 904 H 81.4894 3.881 -0.0031809 0
M  V30 905 H 79.5904 2.94766 2.27911 0
M  V30 906 H 79.7034 4.59343 1.36164 0
M  V30 907 H 78.0674 2.4127 0.816128 0
M  V30 908 H 78.8504 3.39034 -0.539548 0
M  V30 909 N 81.2955 -0.223234 1.56011 0
M  V30 910 C 82.2585 -1.26014 1.9145 0
M  V30 911 C 83.2585 -1.3989 0.792937 0
M  V30 912 O 84.4485 -1.38184 1.0607 0
M  V30 913 C 81.5805 -2.63422 2.16383 0
M  V30 914 H 82.7735 -0.95796 2.84189 0
M  V30 915 H 80.3265 -0.463576 1.49267 0
M  V30 916 H 81.0615 -2.98741 1.2619 0
M  V30 917 H 80.8465 -2.54728 2.98088 0
M  V30 918 H 82.3365 -3.38249 2.44903 0
M  V30 919 N 82.7736 -1.49793 -0.48987 0
M  V30 920 C 84.0506 -1.50348 -1.25119 0
M  V30 921 C 84.4306 -0.237466 -2.0976 0
M  V30 922 O 83.7786 0.77981 -2.14782 0
M  V30 923 C 83.9886 -2.78872 -2.09837 0
M  V30 924 C 85.3366 -3.288 -2.68655 0
M  V30 925 O 86.3606 -2.80065 -2.20096 0
M  V30 926 O 85.2196 -4.13707 -3.57083 0
M  V30 927 H 82.3136 -0.602242 -0.566775 0
M  V30 928 H 84.8596 -1.62067 -0.503229 0
M  V30 929 H 83.6316 -3.62499 -1.47343 0
M  V30 930 H 83.2546 -2.70066 -2.91805 0
M  V30 931 N 84.2517 0.741722 -1.39055 0
M  V30 932 C 85.4977 1.50336 -1.36113 0
M  V30 933 C 85.8307 1.94148 0.0450796 0
M  V30 934 O 85.1057 1.66301 1.00868 0
M  V30 935 C 85.3887 2.74773 -2.32749 0
M  V30 936 C 85.2417 2.37023 -3.82283 0
M  V30 937 C 86.5607 3.76846 -2.27322 0
M  V30 938 H 83.6797 0.545351 -0.495743 0
M  V30 939 H 86.3217 0.848624 -1.69995 0
M  V30 940 H 84.4717 3.30639 -2.03986 0
M  V30 941 H 86.1437 1.8684 -4.21768 0
M  V30 942 H 84.3867 1.69334 -3.99385 0
M  V30 943 H 85.0577 3.26104 -4.45376 0
M  V30 944 H 87.5337 3.30548 -2.5274 0
M  V30 945 H 86.4097 4.6159 -2.97028 0
M  V30 946 H 86.6707 4.23286 -1.27599 0
M  V30 947 N 85.7298 1.2412 0.971189 0
M  V30 948 C 86.9548 1.10667 1.75407 0
M  V30 949 C 87.3798 -0.337048 1.85056 0
M  V30 950 O 86.7378 -1.24396 1.31892 0
M  V30 951 C 86.7858 1.74726 3.15441 0
M  V30 952 O 85.8898 1.01566 3.99697 0
M  V30 953 H 85.2308 0.387341 0.539317 0
M  V30 954 H 87.7608 1.64358 1.2185 0
M  V30 955 H 87.7708 1.80341 3.6598 0
M  V30 956 H 86.4458 2.79773 3.07734 0
M  V30 957 H 85.0228 1.03713 3.58187 0
M  V30 958 N 87.2079 -1.17134 1.05439 0
M  V30 959 C 88.6189 -1.69084 0.791676 0
M  V30 960 C 88.9699 -1.83822 -0.685839 0
M  V30 961 O 88.0949 -1.52757 -1.53278 0
M  V30 962 C 88.6899 -3.07119 1.4305 0
M  V30 963 C 87.2489 -3.56225 1.21577 0
M  V30 964 C 86.3959 -2.32421 1.51247 0
M  V30 965 H 89.3469 -1.01617 1.219 0
M  V30 966 H 89.3679 -3.71087 0.84112 0
M  V30 967 H 88.8799 -2.9636 2.50584 0
M  V30 968 H 86.9809 -3.72257 0.159787 0
M  V30 969 H 87.0939 -4.38837 1.92246 0
M  V30 970 H 85.4579 -2.3701 0.932653 0
M  V30 971 H 86.2409 -2.24268 2.5992 0
M  V30 972 N 88.686 -0.835752 -1.33615 0
M  V30 973 C 89.935 -0.426289 -1.97144 0
M  V30 974 C 90.248 1.01912 -1.66953 0
M  V30 975 O 91.454 1.53311 -2.24072 0
M  V30 976 C 89.91 -0.711321 -3.52801 0
M  V30 977 C 89.518 -2.1712 -3.91871 0
M  V30 978 C 91.262 -0.368654 -4.22896 0
M  V30 979 C 89.169 -2.40044 -5.40493 0
M  V30 980 H 88.099 -0.15567 -0.737755 0
M  V30 981 H 90.75 -1.0239 -1.52278 0
M  V30 982 H 89.132 -0.0433766 -3.95976 0
M  V30 983 H 90.306 -2.87936 -3.59763 0
M  V30 984 H 88.621 -2.47654 -3.34749 0
M  V30 985 H 91.218 -0.517601 -5.32189 0
M  V30 986 H 91.561 0.688078 -4.10574 0
M  V30 987 H 92.094 -0.991702 -3.8524 0
M  V30 988 H 88.833 -3.44271 -5.57815 0
M  V30 989 H 88.353 -1.73785 -5.74072 0
M  V30 990 H 90.032 -2.23042 -6.0734 0
M  V30 991 N 90.1641 1.46063 -0.591896 0
M  V30 992 C 91.1121 2.32124 0.148739 0
M  V30 993 C 92.1061 1.45035 0.875286 0
M  V30 994 O 93.3121 1.61609 0.792632 0
M  V30 995 H 89.6871 0.749024 0.066832 0
M  V30 996 H 91.6581 2.92392 -0.595783 0
M  V30 997 C 90.4071 3.28373 1.1431 0
M  V30 998 H 89.7301 3.95371 0.59346 0
M  V30 999 H 91.1701 3.91352 1.63155 0
M  V30 1000 C 89.6291 2.54393 2.20875 0
M  V30 1001 O 90.1591 2.31373 3.28374 0
M  V30 1002 N 88.3651 2.14797 1.95731 0
M  V30 1003 H 87.9121 2.33719 1.08319 0
M  V30 1004 H 87.8701 1.65619 2.67241 0
M  V30 1005 N 91.6422 0.330177 1.54103 0
M  V30 1006 C 92.8722 -0.271784 2.04805 0
M  V30 1007 C 93.2802 -1.45816 1.20559 0
M  V30 1008 O 92.6232 -1.82247 0.2306 0
M  V30 1009 C 92.6852 -0.763238 3.51305 0
M  V30 1010 C 92.3492 0.301705 4.56003 0
M  V30 1011 C 93.3462 1.13999 5.07248 0
M  V30 1012 C 91.0312 0.451793 5.00264 0
M  V30 1013 C 93.0252 2.11402 6.01322 0
M  V30 1014 C 90.7122 1.42924 5.94151 0
M  V30 1015 C 91.7102 2.25882 6.44567 0
M  V30 1016 O 91.3982 3.21965 7.3661 0
M  V30 1017 H 91.1302 -0.058693 0.673447 0
M  V30 1018 H 93.6842 0.476395 1.99799 0
M  V30 1019 H 91.9142 -1.56244 3.5373 0
M  V30 1020 H 93.6032 -1.28427 3.85047 0
M  V30 1021 H 94.3692 1.03505 4.73827 0
M  V30 1022 H 90.2482 -0.184044 4.60632 0
M  V30 1023 H 93.7922 2.76192 6.40596 0
M  V30 1024 H 89.6892 1.53479 6.26988 0
M  V30 1025 H 90.4572 3.17281 7.54503 0
M  V30 1026 N 93.1203 -1.57491 0.0584922 0
M  V30 1027 C 94.3453 -1.97711 -0.62652 0
M  V30 1028 C 94.7703 -0.936132 -1.63151 0
M  V30 1029 O 94.1283 0.099811 -1.81025 0
M  V30 1030 C 94.1763 -3.36989 -1.28338 0
M  V30 1031 O 93.2803 -3.35433 -2.39913 0
M  V30 1032 H 92.6213 -0.643868 -0.162266 0
M  V30 1033 H 95.1513 -2.04193 0.129064 0
M  V30 1034 H 95.1613 -3.73879 -1.63335 0
M  V30 1035 H 93.8363 -4.12289 -0.546889 0
M  V30 1036 H 92.4133 -3.10298 -2.06809 0
M  V30 1037 N 94.5984 0.214957 -1.56127 0
M  V30 1038 C 95.5284 1.2695 -1.95974 0
M  V30 1039 C 96.5094 1.48539 -0.828868 0
M  V30 1040 O 97.6944 1.60611 -1.09168 0
M  V30 1041 C 94.8244 2.61794 -2.28214 0
M  V30 1042 C 93.7784 2.54851 -3.43853 0
M  V30 1043 C 93.1044 3.93785 -3.61715 0
M  V30 1044 C 94.4044 2.09065 -4.78632 0
M  V30 1045 H 96.0984 0.93846 -2.84312 0
M  V30 1046 H 93.6444 0.449996 -1.36788 0
M  V30 1047 H 95.5974 3.35731 -2.54682 0
M  V30 1048 H 94.3214 2.96599 -1.36736 0
M  V30 1049 H 92.9804 1.8337 -3.17444 0
M  V30 1050 H 92.6284 4.25908 -2.67602 0
M  V30 1051 H 92.3284 3.90019 -4.39498 0
M  V30 1052 H 93.8524 4.69374 -3.90539 0
M  V30 1053 H 95.2664 2.7275 -5.04262 0
M  V30 1054 H 93.6634 2.16346 -5.59745 0
M  V30 1055 H 94.7334 1.04315 -4.73547 0
M  V30 1056 N 96.0765 1.50051 0.48192 0
M  V30 1057 C 97.3165 1.62128 1.24474 0
M  V30 1058 C 97.6805 0.309742 1.89485 0
M  V30 1059 O 98.8815 0.305854 2.67054 0
M  V30 1060 C 97.1525 2.76151 2.26882 0
M  V30 1061 S 98.7115 3.08297 3.12247 0
M  V30 1062 H 95.5295 0.571661 0.422759 0
M  V30 1063 H 98.1315 1.87791 0.54359 0
M  V30 1064 H 96.8355 3.69942 1.77683 0
M  V30 1065 H 96.3665 2.52541 3.0164 0
M  V30 1066 H 98.3815 2.51287 4.27866 0
M  V30 1067 N 97.5546 -0.734337 1.39446 0
M  V30 1068 C 98.4846 -1.86155 1.40955 0
M  V30 1069 C 99.4656 -1.67898 0.272827 0
M  V30 1070 O 100.651 -1.88207 0.478743 0
M  V30 1071 C 97.7806 -3.23912 1.25294 0
M  V30 1072 C 96.7346 -3.56808 2.36373 0
M  V30 1073 C 96.0606 -4.93508 2.058 0
M  V30 1074 C 97.3606 -3.59713 3.78687 0
M  V30 1075 H 99.0546 -1.8515 2.35287 0
M  V30 1076 H 96.6006 -0.889367 1.13253 0
M  V30 1077 H 98.5536 -4.02443 1.2497 0
M  V30 1078 H 97.2776 -3.25446 0.274308 0
M  V30 1079 H 95.9366 -2.80606 2.35914 0
M  V30 1080 H 95.5846 -4.91623 1.06374 0
M  V30 1081 H 95.2846 -5.16486 2.80208 0
M  V30 1082 H 96.8086 -5.74396 2.07128 0
M  V30 1083 H 98.2226 -4.2832 3.81071 0
M  V30 1084 H 96.6196 -3.94209 4.52459 0
M  V30 1085 H 97.6896 -2.59504 4.09617 0
M  V30 1086 N 99.0327 -1.24633 -0.964593 0
M  V30 1087 C 99.9797 -1.04144 -2.05968 0
M  V30 1088 C 100.95 0.046262 -1.66036 0
M  V30 1089 O 102.135 -0.108972 -1.90489 0
M  V30 1090 C 99.2747 -0.65563 -3.38815 0
M  V30 1091 C 98.3877 -1.81714 -3.91923 0
M  V30 1092 C 97.5227 -1.37662 -5.13052 0
M  V30 1093 C 96.5617 -2.50788 -5.58365 0
M  V30 1094 N 95.6987 -2.07582 -6.70712 0
M  V30 1095 H 100.539 -1.9787 -2.22827 0
M  V30 1096 H 98.0757 -0.9855 -1.09208 0
M  V30 1097 H 100.034 -0.412954 -4.15151 0
M  V30 1098 H 98.6637 0.244627 -3.21872 0
M  V30 1099 H 97.7157 -2.1734 -3.12198 0
M  V30 1100 H 99.0277 -2.66705 -4.21509 0
M  V30 1101 H 98.1817 -1.093 -5.96773 0
M  V30 1102 H 96.9207 -0.497293 -4.85158 0
M  V30 1103 H 95.9257 -2.79906 -4.73215 0
M  V30 1104 H 97.1507 -3.39283 -5.88272 0
M  V30 1105 H 95.0967 -1.22051 -6.44546 0
M  V30 1106 H 95.0137 -2.86125 -6.99763 0
M  V30 1107 H 96.2817 -1.82369 -7.57867 0
M  V30 1108 N 100.511 1.16574 -1.06058 0
M  V30 1109 C 101.922 1.68662 -0.800632 0
M  V30 1110 C 102.273 1.84184 0.67608 0
M  V30 1111 O 101.398 1.53568 1.52466 0
M  V30 1112 C 101.993 3.06356 -1.44676 0
M  V30 1113 C 100.552 3.55575 -1.23465 0
M  V30 1114 C 99.6988 2.31616 -1.52477 0
M  V30 1115 H 102.65 1.00969 -1.22438 0
M  V30 1116 H 102.671 3.70636 -0.860788 0
M  V30 1117 H 102.183 2.95027 -2.52152 0
M  V30 1118 H 100.284 3.72167 -0.179527 0
M  V30 1119 H 100.397 4.37812 -1.94571 0
M  V30 1120 H 98.7608 2.36512 -0.945209 0
M  V30 1121 H 99.5438 2.22887 -2.61106 0
M  V30 1122 N 101.989 0.842826 1.3317 0
M  V30 1123 C 103.266 0.362216 1.92217 0
M  V30 1124 C 103.646 -1.15289 1.76838 0
M  V30 1125 O 102.994 -1.96914 1.15919 0
M  V30 1126 C 103.204 0.813495 3.39387 0
M  V30 1127 C 104.552 0.823804 4.16532 0
M  V30 1128 O 105.576 0.757358 3.48055 0
M  V30 1129 O 104.435 0.915193 5.38782 0
M  V30 1130 H 101.529 0.103317 0.820521 0
M  V30 1131 H 104.075 0.928942 1.42017 0
M  V30 1132 H 102.847 1.85624 3.4447 0
M  V30 1133 H 102.47 0.223561 3.96971 0
M  V30 1134 N 103.467 -1.45747 0.599634 0
M  V30 1135 C 104.397 -2.33235 -0.111306 0
M  V30 1136 C 105.378 -1.46359 -0.866781 0
M  V30 1137 O 106.563 -1.75146 -0.838904 0
M  V30 1138 C 103.693 -3.28932 -1.11451 0
M  V30 1139 C 102.647 -4.25381 -0.472772 0
M  V30 1140 C 101.973 -5.1071 -1.58365 0
M  V30 1141 C 103.273 -5.18831 0.600948 0
M  V30 1142 H 104.967 -2.92927 0.61919 0
M  V30 1143 H 102.513 -1.40857 0.299215 0
M  V30 1144 H 104.466 -3.89002 -1.62036 0
M  V30 1145 H 103.19 -2.67381 -1.8755 0
M  V30 1146 H 101.849 -3.66598 0.0121472 0
M  V30 1147 H 101.497 -4.45533 -2.33473 0
M  V30 1148 H 101.197 -5.7604 -1.15982 0
M  V30 1149 H 102.721 -5.73647 -2.09194 0
M  V30 1150 H 104.135 -5.73019 0.179491 0
M  V30 1151 H 102.532 -5.92595 0.946076 0
M  V30 1152 H 103.602 -4.6174 1.48068 0
M  V30 1153 N 104.945 -0.338344 -1.53925 0
M  V30 1154 C 105.875 0.51328 -2.27789 0
M  V30 1155 C 106.856 1.107 -1.29149 0
M  V30 1156 O 108.041 1.12937 -1.57984 0
M  V30 1157 C 105.171 1.66697 -3.04679 0
M  V30 1158 C 104.125 1.20183 -4.1078 0
M  V30 1159 C 103.451 2.44363 -4.75595 0
M  V30 1160 C 104.751 0.30605 -5.21403 0
M  V30 1161 H 106.445 -0.102883 -2.99223 0
M  V30 1162 H 103.991 -0.0509219 -1.4391 0
M  V30 1163 H 105.944 2.26915 -3.55088 0
M  V30 1164 H 104.668 2.30995 -2.30887 0
M  V30 1165 H 103.327 0.622499 -3.61276 0
M  V30 1166 H 102.975 3.07057 -3.98403 0
M  V30 1167 H 102.675 2.13925 -5.47275 0
M  V30 1168 H 104.199 3.05317 -5.28786 0
M  V30 1169 H 105.613 0.814929 -5.67478 0
M  V30 1170 H 104.01 0.0937929 -6.00027 0
M  V30 1171 H 105.08 -0.65921 -4.80398 0
M  V30 1172 N 106.423 1.57458 -0.0668435 0
M  V30 1173 C 107.7 1.8469 0.644132 0
M  V30 1174 C 108.08 0.958343 1.88093 0
M  V30 1175 O 107.428 0.0233579 2.28488 0
M  V30 1176 C 107.638 3.34767 0.986509 0
M  V30 1177 C 108.986 4.02159 1.36212 0
M  V30 1178 O 110.01 3.39484 1.07839 0
M  V30 1179 O 108.869 5.12694 1.89227 0
M  V30 1180 H 105.963 0.762816 0.319437 0
M  V30 1181 H 108.509 1.6942 -0.0973986 0
M  V30 1182 H 107.281 3.91151 0.107883 0
M  V30 1183 H 106.904 3.55281 1.78497 0
M  V30 1184 N 107.901 -0.206675 1.56239 0
M  V30 1185 C 109.148 -0.928842 1.79941 0
M  V30 1186 C 109.476 -1.83734 0.638131 0
M  V30 1187 O 108.731 -1.92039 -0.376746 0
M  V30 1188 C 109.03 -1.78675 3.09532 0
M  V30 1189 C 108.696 -1.03022 4.38973 0
M  V30 1190 C 107.358 -0.821302 4.74139 0
M  V30 1191 C 109.71 -0.497081 5.18824 0
M  V30 1192 C 107.038 -0.0675719 5.86661 0
M  V30 1193 C 109.39 0.24338 6.32132 0
M  V30 1194 C 108.054 0.463422 6.65889 0
M  V30 1195 H 107.324 -0.339887 0.658451 0
M  V30 1196 H 109.971 -0.195977 1.90495 0
M  V30 1197 H 108.276 -2.58794 2.94165 0
M  V30 1198 H 109.973 -2.34792 3.25075 0
M  V30 1199 H 106.563 -1.20306 4.11369 0
M  V30 1200 H 110.747 -0.645921 4.92079 0
M  V30 1201 H 106.003 0.112995 6.11296 0
M  V30 1202 H 110.177 0.66393 6.93228 0
M  V30 1203 H 107.804 1.04938 7.52922 0
M  V30 1204 N 109.379 -1.50304 -0.473955 0
M  V30 1205 C 110.607 -1.64902 -1.24959 0
M  V30 1206 C 111.022 -0.331198 -1.85872 0
M  V30 1207 O 110.379 0.68652 -1.69095 0
M  V30 1208 C 110.43 -2.73803 -2.36038 0
M  V30 1209 O 110.151 -4.00477 -1.77624 0
M  V30 1210 C 111.652 -2.99349 -3.26964 0
M  V30 1211 H 108.872 -0.554383 -0.378022 0
M  V30 1212 H 111.416 -1.9651 -0.566054 0
M  V30 1213 H 109.571 -2.44898 -3.00173 0
M  V30 1214 H 109.985 -4.60678 -2.5075 0
M  V30 1215 H 111.459 -3.79217 -4.01121 0
M  V30 1216 H 111.936 -2.10307 -3.85574 0
M  V30 1217 H 112.542 -3.29774 -2.68569 0
M  V30 1218 N 110.857 0.726932 -1.39834 0
M  V30 1219 C 112.104 1.48664 -1.37496 0
M  V30 1220 C 112.432 1.94482 0.0264678 0
M  V30 1221 O 111.687 1.67692 1.00886 0
M  V30 1222 C 111.986 2.73495 -2.30077 0
M  V30 1223 C 111.652 2.46502 -3.77555 0
M  V30 1224 C 110.314 2.3885 -4.17737 0
M  V30 1225 C 112.666 2.23604 -4.70798 0
M  V30 1226 C 109.994 2.06352 -5.49214 0
M  V30 1227 C 112.346 1.92622 -6.02561 0
M  V30 1228 C 111.01 1.83444 -6.41798 0
M  V30 1229 H 110.28 0.544001 -0.503135 0
M  V30 1230 H 112.927 0.833657 -1.72402 0
M  V30 1231 H 111.232 3.43575 -1.88317 0
M  V30 1232 H 112.929 3.31549 -2.25558 0
M  V30 1233 H 109.519 2.5334 -3.45712 0
M  V30 1234 H 113.703 2.28479 -4.40581 0
M  V30 1235 H 108.959 1.97776 -5.78528 0
M  V30 1236 H 113.133 1.73914 -6.74334 0
M  V30 1237 H 110.76 1.58029 -7.43593 0
M  V30 1238 N 112.336 1.25143 0.95797 0
M  V30 1239 C 113.246 1.06968 2.08794 0
M  V30 1240 C 114.262 0.00773911 1.73998 0
M  V30 1241 O 115.438 0.207972 2.00323 0
M  V30 1242 C 112.503 0.68691 3.39827 0
M  V30 1243 C 111.564 1.82641 3.88511 0
M  V30 1244 C 110.797 1.46181 5.1329 0
M  V30 1245 O 111.02 0.355971 5.69288 0
M  V30 1246 O 109.954 2.29085 5.566 0
M  V30 1247 H 113.78 2.01723 2.27027 0
M  V30 1248 H 111.365 1.04051 1.07209 0
M  V30 1249 H 113.247 0.485417 4.18595 0
M  V30 1250 H 111.922 -0.231417 3.22872 0
M  V30 1251 H 110.829 2.08274 3.10762 0
M  V30 1252 H 112.162 2.72386 4.09959 0
M  V30 1253 N 113.814 -1.1601 1.06675 0
M  V30 1254 C 115.062 -1.86264 0.784229 0
M  V30 1255 C 115.383 -1.82328 -0.691488 0
M  V30 1256 O 114.653 -1.25947 -1.50047 0
M  V30 1257 H 113.233 -0.689621 0.28711 0
M  V30 1258 H 115.895 -1.40664 1.34906 0
M  V30 1259 H 114.991 -2.91595 1.11259 0
M  V30 1260 N 115.292 -0.849877 -1.32721 0
M  V30 1261 C 116.239 -0.289033 -2.28983 0
M  V30 1262 C 117.209 0.601324 -1.54833 0
M  V30 1263 O 118.394 0.537253 -1.8308 0
M  V30 1264 C 115.534 0.520623 -3.4115 0
M  V30 1265 C 114.647 -0.394989 -4.3019 0
M  V30 1266 C 113.782 0.426834 -5.29482 0
M  V30 1267 C 112.821 -0.486476 -6.10164 0
M  V30 1268 N 111.958 0.297879 -7.01468 0
M  V30 1269 H 116.798 -1.11519 -2.76347 0
M  V30 1270 H 114.335 -0.56138 -1.35967 0
M  V30 1271 H 116.293 1.00563 -4.04899 0
M  V30 1272 H 114.923 1.31165 -2.9495 0
M  V30 1273 H 113.975 -0.99836 -3.67065 0
M  V30 1274 H 115.287 -1.09612 -4.86607 0
M  V30 1275 H 114.441 0.975205 -5.98811 0
M  V30 1276 H 113.18 1.16136 -4.73671 0
M  V30 1277 H 112.185 -1.04677 -5.39743 0
M  V30 1278 H 113.41 -1.21953 -6.6806 0
M  V30 1279 H 111.356 1.01558 -6.48091 0
M  V30 1280 H 111.273 -0.344318 -7.55216 0
M  V30 1281 H 112.541 0.828131 -7.75089 0
M  V30 1282 N 116.77 1.45427 -0.607355 0
M  V30 1283 C 117.7 2.3329 0.0989352 0
M  V30 1284 C 118.681 1.46816 0.859007 0
M  V30 1285 O 119.866 1.75588 0.829604 0
M  V30 1286 C 116.996 3.29518 1.09705 0
M  V30 1287 C 115.95 4.25626 0.450206 0
M  V30 1288 C 115.276 5.11542 1.55655 0
M  V30 1289 C 116.576 5.18505 -0.628455 0
M  V30 1290 H 118.27 2.92595 -0.634716 0
M  V30 1291 H 115.816 1.40696 -0.306681 0
M  V30 1292 H 117.769 3.89855 1.59971 0
M  V30 1293 H 116.493 2.68372 1.86129 0
M  V30 1294 H 115.152 3.66586 -0.0315886 0
M  V30 1295 H 114.8 4.46765 2.31107 0
M  V30 1296 H 114.5 5.76647 1.12925 0
M  V30 1297 H 116.024 5.74748 2.06148 0
M  V30 1298 H 117.438 5.72916 -0.209877 0
M  V30 1299 H 115.835 5.92085 -0.977489 0
M  V30 1300 H 116.905 4.60948 -1.50514 0
M  V30 1301 N 118.248 0.346503 1.53744 0
M  V30 1302 C 119.158 -0.517293 2.28826 0
M  V30 1303 C 120.174 -1.10935 1.3405 0
M  V30 1304 O 121.35 -1.1244 1.6709 0
M  V30 1305 C 118.415 -1.65098 3.04866 0
M  V30 1306 C 117.476 -1.0884 4.15274 0
M  V30 1307 C 116.709 -2.16806 4.87679 0
M  V30 1308 O 116.932 -3.3758 4.59778 0
M  V30 1309 O 115.866 -1.80934 5.74061 0
M  V30 1310 H 119.692 0.0931396 3.03557 0
M  V30 1311 H 117.277 0.111458 1.48984 0
M  V30 1312 H 119.159 -2.31053 3.5241 0
M  V30 1313 H 117.834 -2.24717 2.32989 0
M  V30 1314 H 116.741 -0.3933 3.72027 0
M  V30 1315 H 118.074 -0.537036 4.89261 0
M  V30 1316 N 119.726 -1.57421 0.075193 0
M  V30 1317 C 120.689 -2.11791 -0.876203 0
M  V30 1318 C 121.689 -1.04268 -1.22412 0
M  V30 1319 O 122.879 -1.30242 -1.15684 0
M  V30 1320 C 120.011 -2.62207 -2.17854 0
M  V30 1321 H 121.204 -2.9716 -0.40444 0
M  V30 1322 H 118.757 -1.55333 -0.173557 0
M  V30 1323 H 119.492 -1.803 -2.6956 0
M  V30 1324 H 119.277 -3.40802 -1.93897 0
M  V30 1325 H 120.767 -3.04335 -2.85955 0
M  V30 1326 N 121.204 0.198386 -1.56346 0
M  V30 1327 C 122.167 1.22952 -1.93431 0
M  V30 1328 C 123.167 1.38611 -0.815092 0
M  V30 1329 O 124.357 1.36479 -1.08255 0
M  V30 1330 C 121.489 2.59946 -2.20546 0
M  V30 1331 H 122.682 0.912626 -2.85677 0
M  V30 1332 H 120.235 0.43977 -1.49986 0
M  V30 1333 H 120.97 2.96696 -1.30927 0
M  V30 1334 H 120.755 2.49953 -3.02102 0
M  V30 1335 H 122.245 3.3431 -2.50253 0
M  V30 1336 N 122.682 1.50554 0.465978 0
M  V30 1337 C 123.645 1.69233 1.54574 0
M  V30 1338 C 124.645 0.562901 1.50626 0
M  V30 1339 O 125.835 0.830016 1.53155 0
M  V30 1340 C 122.967 1.7223 2.94193 0
M  V30 1341 H 124.16 2.65571 1.39327 0
M  V30 1342 H 121.713 1.40111 0.692711 0
M  V30 1343 H 122.448 0.77603 3.14878 0
M  V30 1344 H 122.233 2.54285 2.98466 0
M  V30 1345 H 123.723 1.88618 3.72576 0
M  V30 1346 N 124.16 -0.719506 1.40217 0
M  V30 1347 C 125.092 -1.84428 1.36084 0
M  V30 1348 C 126.105 -1.60597 0.266913 0
M  V30 1349 O 127.294 -1.70544 0.526983 0
M  V30 1350 C 124.394 -3.20757 1.094 0
M  V30 1351 C 123.567 -3.71817 2.30372 0
M  V30 1352 C 122.626 -4.86748 1.99907 0
M  V30 1353 O 121.652 -4.99603 2.72737 0
M  V30 1354 N 122.854 -5.7226 0.974635 0
M  V30 1355 H 125.619 -1.88473 2.33019 0
M  V30 1356 H 123.18 -0.900885 1.3452 0
M  V30 1357 H 125.172 -3.95235 0.870116 0
M  V30 1358 H 123.742 -3.11884 0.211452 0
M  V30 1359 H 122.962 -2.88514 2.68614 0
M  V30 1360 H 124.25 -4.02666 3.11026 0
M  V30 1361 H 123.648 -5.6448 0.371368 0
M  V30 1362 H 122.205 -6.46739 0.810656 0
M  V30 1363 N 125.638 -1.25649 -0.95132 0
M  V30 1364 C 126.884 -1.10757 -1.69884 0
M  V30 1365 C 127.217 0.350061 -1.91019 0
M  V30 1366 O 126.492 1.25783 -1.48354 0
M  V30 1367 C 126.775 -1.86606 -3.07978 0
M  V30 1368 C 126.628 -3.40217 -2.94232 0
M  V30 1369 C 127.947 -1.65182 -4.07925 0
M  V30 1370 H 125.066 -0.40374 -0.616574 0
M  V30 1371 H 127.708 -1.54521 -1.10558 0
M  V30 1372 H 125.858 -1.49409 -3.58621 0
M  V30 1373 H 127.53 -3.87108 -2.50889 0
M  V30 1374 H 125.773 -3.67759 -2.30078 0
M  V30 1375 H 126.444 -3.88505 -3.92133 0
M  V30 1376 H 128.92 -1.9757 -3.66204 0
M  V30 1377 H 127.796 -2.20683 -5.02583 0
M  V30 1378 H 128.057 -0.593933 -4.38092 0
M  V30 1379 N 127.117 1.15442 -1.07289 0
M  V30 1380 C 128.533 1.38201 -0.798288 0
M  V30 1381 C 128.733 1.92429 0.597769 0
M  V30 1382 O 127.789 2.12962 1.3566 0
M  V30 1383 C 129.102 2.35357 -1.87156 0
M  V30 1384 C 130.65 2.49021 -1.89624 0
M  V30 1385 C 131.125 3.49468 -2.96034 0
M  V30 1386 N 132.616 3.57003 -2.95132 0
M  V30 1387 C 133.351 4.34543 -3.74112 0
M  V30 1388 N 132.847 5.15421 -4.6294 0
M  V30 1389 N 134.64 4.29625 -3.62462 0
M  V30 1390 H 126.791 0.78584 -1.97328 0
M  V30 1391 H 129.054 0.408065 -0.855679 0
M  V30 1392 H 128.76 2.02626 -2.87464 0
M  V30 1393 H 128.634 3.35129 -1.73114 0
M  V30 1394 H 131.021 2.81051 -0.899687 0
M  V30 1395 H 131.102 1.4925 -2.07745 0
M  V30 1396 H 130.746 3.18173 -3.95889 0
M  V30 1397 H 130.676 4.48992 -2.75161 0
M  V30 1398 H 133.167 2.99276 -2.30743 0
M  V30 1399 H 133.48 5.7183 -5.19837 0
M  V30 1400 H 131.825 5.14729 -4.66989 0
M  V30 1401 H 135.016 3.65505 -2.92444 0
M  V30 1402 H 135.189 4.89807 -4.24256 0
M  V30 1403 N 128.595 0.856903 1.32268 0
M  V30 1404 C 129.527 0.260412 2.27716 0
M  V30 1405 C 130.54 -0.569137 1.52528 0
M  V30 1406 O 131.729 -0.39326 1.74114 0
M  V30 1407 C 128.829 -0.650477 3.32599 0
M  V30 1408 C 128.002 0.14372 4.37164 0
M  V30 1409 C 127.061 -0.69328 5.21613 0
M  V30 1410 O 126.087 -0.12599 5.69061 0
M  V30 1411 N 127.289 -2.00761 5.44679 0
M  V30 1412 H 130.054 1.08059 2.79541 0
M  V30 1413 H 127.615 0.717103 1.45152 0
M  V30 1414 H 129.607 -1.21581 3.86005 0
M  V30 1415 H 128.177 -1.37133 2.80915 0
M  V30 1416 H 127.397 0.890486 3.8401 0
M  V30 1417 H 128.685 0.68915 5.04111 0
M  V30 1418 H 128.083 -2.49181 5.07863 0
M  V30 1419 H 126.64 -2.52103 6.01072 0
M  V30 1420 N 130.073 -1.45103 0.615059 0
M  V30 1421 C 131.036 -2.29025 -0.0895485 0
M  V30 1422 C 132.036 -1.40174 -0.787906 0
M  V30 1423 O 133.226 -1.62217 -0.634933 0
M  V30 1424 C 130.358 -3.21376 -1.13711 0
M  V30 1425 H 131.551 -2.92807 0.648382 0
M  V30 1426 H 129.104 -1.51749 0.374444 0
M  V30 1427 H 129.839 -2.6241 -1.90556 0
M  V30 1428 H 129.624 -3.86834 -0.640475 0
M  V30 1429 H 131.114 -3.84459 -1.63036 0
M  V30 1430 N 131.551 -0.354651 -1.53558 0
M  V30 1431 C 132.779 0.239515 -2.05509 0
M  V30 1432 C 133.194 1.4333 -1.2289 0
M  V30 1433 O 132.551 1.80538 -0.266899 0
M  V30 1434 C 132.602 0.643719 -3.55723 0
M  V30 1435 O 132.323 -0.502602 -4.35207 0
M  V30 1436 C 133.824 1.29743 -4.23889 0
M  V30 1437 H 131.044 0.0442697 -0.669538 0
M  V30 1438 H 133.588 -0.509856 -1.98042 0
M  V30 1439 H 131.743 1.34302 -3.63376 0
M  V30 1440 H 132.157 -0.178172 -5.24197 0
M  V30 1441 H 133.631 1.53091 -5.30346 0
M  V30 1442 H 134.108 2.25441 -3.76926 0
M  V30 1443 H 134.714 0.639865 -4.20459 0
M  V30 1444 N 133.029 1.57378 -0.0835403 0
M  V30 1445 C 133.977 2.14602 0.89714 0
M  V30 1446 C 134.971 1.08589 1.30018 0
M  V30 1447 O 136.177 1.26952 1.27606 0
M  V30 1448 H 132.552 0.686346 0.3073 0
M  V30 1449 H 134.523 2.95845 0.38969 0
M  V30 1450 C 133.272 2.73188 2.15089 0
M  V30 1451 H 132.595 3.54442 1.84962 0
M  V30 1452 H 134.035 3.1681 2.81793 0
M  V30 1453 C 132.494 1.68517 2.91725 0
M  V30 1454 O 133.024 1.11718 3.85852 0
M  V30 1455 N 131.23 1.39277 2.55049 0
M  V30 1456 H 130.777 1.85655 1.78577 0
M  V30 1457 H 130.735 0.694791 3.06627 0
M  V30 1458 N 134.507 -0.190092 1.56449 0
M  V30 1459 C 135.439 -1.25973 1.91477 0
M  V30 1460 C 136.452 -1.41452 0.805931 0
M  V30 1461 O 137.641 -1.41789 1.08435 0
M  V30 1462 C 134.741 -2.63117 2.13594 0
M  V30 1463 C 133.914 -2.69182 3.4476 0
M  V30 1464 C 132.973 -3.87557 3.5593 0
M  V30 1465 O 131.999 -3.74427 4.28711 0
M  V30 1466 N 133.201 -5.03224 2.89388 0
M  V30 1467 H 135.966 -0.962394 2.83828 0
M  V30 1468 H 133.527 -0.379981 1.57378 0
M  V30 1469 H 135.519 -3.40742 2.1835 0
M  V30 1470 H 134.089 -2.85319 1.27719 0
M  V30 1471 H 133.309 -1.77793 3.51828 0
M  V30 1472 H 134.597 -2.70229 4.31107 0
M  V30 1473 H 133.995 -5.16791 2.30094 0
M  V30 1474 H 132.552 -5.78778 2.99764 0
M  V30 1475 N 135.985 -1.50799 -0.457987 0
M  V30 1476 C 137.234 -1.6168 -1.20593 0
M  V30 1477 C 137.547 -0.32888 -1.92815 0
M  V30 1478 O 138.753 -0.316773 -2.69646 0
M  V30 1479 C 137.209 -2.8545 -2.19195 0
M  V30 1480 C 136.817 -4.21168 -1.52715 0
M  V30 1481 C 138.561 -3.05681 -2.94549 0
M  V30 1482 C 136.468 -5.3611 -2.4968 0
M  V30 1483 H 135.398 -0.602134 -0.453818 0
M  V30 1484 H 138.049 -1.77245 -0.475031 0
M  V30 1485 H 136.431 -2.63472 -2.95632 0
M  V30 1486 H 137.605 -4.53449 -0.819775 0
M  V30 1487 H 135.92 -4.06648 -0.895922 0
M  V30 1488 H 138.517 -3.88727 -3.67145 0
M  V30 1489 H 138.86 -2.17929 -3.54701 0
M  V30 1490 H 139.393 -3.27901 -2.25223 0
M  V30 1491 H 136.132 -6.26057 -1.94249 0
M  V30 1492 H 135.652 -5.0823 -3.18532 0
M  V30 1493 H 137.331 -5.6722 -3.11241 0
M  V30 1494 N 137.463 0.71206 -1.40597 0
M  V30 1495 C 138.709 1.47416 -1.39271 0
M  V30 1496 C 139.042 1.942 0.00388791 0
M  V30 1497 O 138.317 1.68403 0.973179 0
M  V30 1498 C 138.6 2.69774 -2.38525 0
M  V30 1499 C 138.453 2.28861 -3.87224 0
M  V30 1500 C 139.772 3.71939 -2.35264 0
M  V30 1501 H 136.891 0.534713 -0.5072 0
M  V30 1502 H 139.533 0.812375 -1.71757 0
M  V30 1503 H 137.683 3.26238 -2.10953 0
M  V30 1504 H 139.355 1.77852 -4.25636 0
M  V30 1505 H 137.598 1.60824 -4.02887 0
M  V30 1506 H 138.269 3.16584 -4.52193 0
M  V30 1507 H 140.745 3.25113 -2.59694 0
M  V30 1508 H 139.621 4.55186 -3.06753 0
M  V30 1509 H 139.882 4.20484 -1.36549 0
M  V30 1510 N 138.941 1.26152 0.944643 0
M  V30 1511 C 139.874 1.01729 2.04271 0
M  V30 1512 C 140.852 -0.0568101 1.62501 0
M  V30 1513 O 142.036 0.0848987 1.88309 0
M  V30 1514 C 139.163 0.539792 3.34371 0
M  V30 1515 C 138.209 1.60593 3.9511 0
M  V30 1516 S 139.042 3.19392 4.29825 0
M  V30 1517 C 140.198 2.73402 5.63029 0
M  V30 1518 H 140.431 1.94703 2.24673 0
M  V30 1519 H 137.964 1.09793 1.08558 0
M  V30 1520 H 139.922 0.270956 4.09605 0
M  V30 1521 H 138.583 -0.369609 3.11918 0
M  V30 1522 H 137.776 1.22275 4.88943 0
M  V30 1523 H 137.378 1.82596 3.26397 0
M  V30 1524 H 139.67 2.1765 6.41588 0
M  V30 1525 H 140.613 3.65913 6.06229 0
M  V30 1526 H 141.021 2.13077 5.22741 0
M  V30 1527 N 140.419 -1.14872 1.07899 0
M  V30 1528 C 141.367 -2.21857 0.698727 0
M  V30 1529 C 142.361 -1.66845 -0.293086 0
M  V30 1530 O 143.567 -1.79321 -0.156204 0
M  V30 1531 H 139.942 -0.722691 0.207899 0
M  V30 1532 H 141.913 -2.51205 1.61054 0
M  V30 1533 C 140.662 -3.47498 0.11858 0
M  V30 1534 H 139.985 -3.90154 0.872914 0
M  V30 1535 H 141.425 -4.23858 -0.109759 0
M  V30 1536 C 139.884 -3.16947 -1.1422 0
M  V30 1537 O 140.414 -3.3426 -2.22785 0
M  V30 1538 N 138.62 -2.70946 -1.05055 0
M  V30 1539 H 138.167 -2.57058 -0.167038 0
M  V30 1540 H 138.125 -2.50879 -1.89491 0
M  V30 1541 N 141.898 -0.863906 -1.31812 0
M  V30 1542 C 143.138 -0.47825 -1.98726 0
M  V30 1543 C 143.502 0.950397 -1.66828 0
M  V30 1544 O 144.703 1.44109 -2.26905 0
M  V30 1545 C 142.974 -0.721134 -3.50049 0
M  V30 1546 S 144.533 -0.434432 -4.36644 0
M  V30 1547 H 141.351 -0.178773 -0.688158 0
M  V30 1548 H 143.953 -1.11862 -1.60334 0
M  V30 1549 H 142.657 -1.75981 -3.70755 0
M  V30 1550 H 142.188 -0.0675315 -3.93342 0
M  V30 1551 H 144.203 0.735786 -4.90714 0
M  V30 1552 N 143.376 1.44774 -0.622745 0
M  V30 1553 C 144.339 2.29069 0.0774015 0
M  V30 1554 C 145.339 1.4059 0.780461 0
M  V30 1555 O 146.529 1.62551 0.626322 0
M  V30 1556 C 143.661 3.21974 1.12006 0
M  V30 1557 H 144.854 2.92459 -0.663901 0
M  V30 1558 H 142.407 1.51548 -0.382486 0
M  V30 1559 H 143.142 2.63417 1.89162 0
M  V30 1560 H 142.927 3.87168 0.619951 0
M  V30 1561 H 144.417 3.85318 1.60995 0
M  V30 1562 N 144.854 0.36279 1.53368 0
M  V30 1563 C 146.131 -0.284021 1.93527 0
M  V30 1564 C 146.511 -1.66628 1.29608 0
M  V30 1565 O 145.859 -2.23942 0.45413 0
M  V30 1566 C 146.069 -0.337028 3.47369 0
M  V30 1567 C 147.417 -0.578708 4.20638 0
M  V30 1568 O 148.441 -0.418352 3.53735 0
M  V30 1569 O 147.3 -0.89074 5.39192 0
M  V30 1570 H 144.394 -0.169743 0.809393 0
M  V30 1571 H 146.94 0.41537 1.64538 0
M  V30 1572 H 145.712 0.632217 3.86159 0
M  V30 1573 H 145.335 -1.08243 3.82582 0
M  V30 1574 N 146.332 -1.57332 0.0918853 0
M  V30 1575 C 147.581 -1.93412 -0.572249 0
M  V30 1576 C 147.894 -0.975515 -1.69538 0
M  V30 1577 O 149.1 -1.22991 -2.42045 0
M  V30 1578 C 147.556 -3.43648 -1.0693 0
M  V30 1579 C 147.164 -4.47994 0.0239049 0
M  V30 1580 C 148.908 -3.88695 -1.70635 0
M  V30 1581 C 146.815 -5.89381 -0.488319 0
M  V30 1582 H 145.745 -0.721939 -0.217532 0
M  V30 1583 H 148.396 -1.82735 0.167369 0
M  V30 1584 H 146.778 -3.49466 -1.8625 0
M  V30 1585 H 147.952 -4.53815 0.799277 0
M  V30 1586 H 146.267 -4.12536 0.565946 0
M  V30 1587 H 148.864 -4.91725 -2.10025 0
M  V30 1588 H 149.207 -3.27166 -2.57426 0
M  V30 1589 H 149.74 -3.85564 -0.979023 0
M  V30 1590 H 146.479 -6.54602 0.342906 0
M  V30 1591 H 145.999 -5.87037 -1.23077 0
M  V30 1592 H 147.678 -6.39863 -0.958317 0
M  V30 1593 N 147.81 0.181792 -1.56548 0
M  V30 1594 C 149.087 0.926765 -1.72251 0
M  V30 1595 C 149.467 2.00831 -0.650386 0
M  V30 1596 O 148.815 2.26008 0.336521 0
M  V30 1597 C 149.025 1.50106 -3.1507 0
M  V30 1598 C 150.373 1.97805 -3.75711 0
M  V30 1599 O 151.397 1.59922 -3.18282 0
M  V30 1600 O 150.256 2.67555 -4.76525 0
M  V30 1601 H 147.35 0.435506 -0.703039 0
M  V30 1602 H 149.896 0.170443 -1.68842 0
M  V30 1603 H 148.668 0.72212 -3.84579 0
M  V30 1604 H 148.291 2.32186 -3.22763 0
M  V30 1605 N 149.288 1.51039 0.449983 0
M  V30 1606 C 150.537 1.62317 1.19733 0
M  V30 1607 C 150.85 0.339101 1.92638 0
M  V30 1608 O 152.056 0.331069 2.69474 0
M  V30 1609 C 150.512 2.86608 2.17678 0
M  V30 1610 C 150.12 4.21972 1.50479 0
M  V30 1611 C 151.864 3.07239 2.92924 0
M  V30 1612 C 149.771 5.37426 2.46834 0
M  V30 1613 H 148.701 0.604532 0.450619 0
M  V30 1614 H 151.352 1.77494 0.465625 0
M  V30 1615 H 149.734 2.65037 2.94231 0
M  V30 1616 H 150.908 4.53878 0.795716 0
M  V30 1617 H 149.223 4.07117 0.874344 0
M  V30 1618 H 151.82 3.90668 3.65079 0
M  V30 1619 H 152.163 2.19807 3.5354 0
M  V30 1620 H 152.696 3.29091 2.23481 0
M  V30 1621 H 149.435 6.27079 1.90926 0
M  V30 1622 H 148.955 5.09912 3.15832 0
M  V30 1623 H 150.634 5.68862 3.08228 0
M  V30 1624 N 150.766 -0.704594 1.40972 0
M  V30 1625 C 152.015 -1.46018 1.39146 0
M  V30 1626 C 152.328 -1.956 0.000589254 0
M  V30 1627 O 153.534 -2.71137 -0.1403 0
M  V30 1628 C 151.99 -2.63996 2.4461 0
M  V30 1629 C 151.598 -2.21238 3.89561 0
M  V30 1630 C 153.342 -3.41677 2.51907 0
M  V30 1631 C 151.249 -3.3612 4.86598 0
M  V30 1632 H 150.179 -0.548444 0.517422 0
M  V30 1633 H 152.83 -0.765784 1.66757 0
M  V30 1634 H 151.212 -3.3566 2.10115 0
M  V30 1635 H 152.386 -1.56923 4.33257 0
M  V30 1636 H 150.701 -1.56574 3.85841 0
M  V30 1637 H 153.298 -4.27182 3.2159 0
M  V30 1638 H 153.641 -3.86247 1.55303 0
M  V30 1639 H 154.174 -2.77064 2.85448 0
M  V30 1640 H 150.913 -2.96572 5.84573 0
M  V30 1641 H 150.433 -3.99315 4.47557 0
M  V30 1642 H 152.112 -4.02029 5.06934 0
M  V30 1643 N 152.244 -1.26651 -0.937939 0
M  V30 1644 C 153.472 -1.15173 -1.7188 0
M  V30 1645 C 153.887 0.292668 -1.86518 0
M  V30 1646 O 153.244 1.20014 -1.37488 0
M  V30 1647 C 153.295 -1.81925 -3.12387 0
M  V30 1648 O 153.016 -3.2072 -2.98446 0
M  V30 1649 C 154.517 -1.76442 -4.06673 0
M  V30 1650 H 151.737 -0.400911 -0.538063 0
M  V30 1651 H 154.281 -1.67332 -1.1756 0
M  V30 1652 H 152.436 -1.33696 -3.63599 0
M  V30 1653 H 152.85 -3.53802 -3.872 0
M  V30 1654 H 154.324 -2.27781 -5.02812 0
M  V30 1655 H 154.801 -0.731608 -4.33064 0
M  V30 1656 H 155.407 -2.24238 -3.61382 0
M  V30 1657 N 153.722 1.14298 -1.08507 0
M  V30 1658 C 154.685 2.17607 -0.719711 0
M  V30 1659 C 155.685 1.58907 0.245997 0
M  V30 1660 O 156.875 1.74181 0.0254081 0
M  V30 1661 C 154.007 3.40842 -0.0627695 0
M  V30 1662 H 155.2 2.51443 -1.63452 0
M  V30 1663 H 152.753 1.28963 -0.88307 0
M  V30 1664 H 153.488 3.12587 0.863716 0
M  V30 1665 H 153.273 3.84713 -0.757504 0
M  V30 1666 H 154.763 4.17221 0.177786 0
M  V30 1667 N 155.201 0.870884 1.31352 0
M  V30 1668 C 156.426 0.495957 2.01383 0
M  V30 1669 C 156.851 -0.904324 1.64935 0
M  V30 1670 O 156.209 -1.59687 0.858466 0
M  V30 1671 C 156.257 0.661433 3.54482 0
M  V30 1672 O 155.361 -0.298851 4.11316 0
M  V30 1673 H 154.702 0.197158 0.634054 0
M  V30 1674 H 157.232 1.17455 1.67527 0
M  V30 1675 H 157.242 0.555072 4.04207 0
M  V30 1676 H 155.917 1.68246 3.8035 0
M  V30 1677 H 154.494 -0.147368 3.72609 0
M  V30 1678 N 156.679 -1.44442 0.630414 0
M  V30 1679 C 157.909 -2.06115 0.141465 0
M  V30 1680 C 158.317 -1.47179 -1.1889 0
M  V30 1681 O 157.66 -0.588873 -1.74006 0
M  V30 1682 C 157.722 -3.59467 -0.0484355 0
M  V30 1683 C 157.386 -4.40864 1.20366 0
M  V30 1684 C 158.383 -4.74391 2.12719 0
M  V30 1685 C 156.068 -4.8125 1.43887 0
M  V30 1686 C 158.062 -5.47186 3.26904 0
M  V30 1687 C 155.749 -5.53795 2.5837 0
M  V30 1688 C 156.747 -5.86682 3.49705 0
M  V30 1689 O 156.435 -6.57749 4.62191 0
M  V30 1690 H 156.167 -0.671648 0.0765792 0
M  V30 1691 H 158.721 -1.86312 0.864695 0
M  V30 1692 H 156.951 -3.77758 -0.826803 0
M  V30 1693 H 158.64 -4.02909 -0.491849 0
M  V30 1694 H 159.406 -4.43728 1.95781 0
M  V30 1695 H 155.285 -4.55073 0.736853 0
M  V30 1696 H 158.829 -5.72773 3.98217 0
M  V30 1697 H 154.726 -5.83872 2.75251 0
M  V30 1698 H 155.494 -6.76217 4.61164 0
M  V30 1699 N 158.157 -0.370918 -1.53173 0
M  V30 1700 C 159.12 0.460778 -2.24521 0
M  V30 1701 C 160.12 1.00536 -1.25496 0
M  V30 1702 O 161.31 0.890266 -1.49733 0
M  V30 1703 C 158.442 1.64457 -2.98608 0
M  V30 1704 H 159.635 -0.163613 -2.99453 0
M  V30 1705 H 157.188 -0.122699 -1.55818 0
M  V30 1706 H 157.923 2.30691 -2.2793 0
M  V30 1707 H 157.708 1.26099 -3.7127 0
M  V30 1708 H 159.198 2.23384 -3.5283 0
M  V30 1709 N 159.635 1.57281 -0.100228 0
M  V30 1710 C 161.046 1.81725 0.428107 0
M  V30 1711 C 161.397 1.01619 1.67833 0
M  V30 1712 O 160.522 0.247098 2.14985 0
M  V30 1713 C 161.117 3.29617 0.78347 0
M  V30 1714 C 159.676 3.54808 1.25653 0
M  V30 1715 C 158.823 2.76118 0.255752 0
M  V30 1716 H 161.774 1.55324 -0.325608 0
M  V30 1717 H 161.795 3.4322 1.64256 0
M  V30 1718 H 161.307 3.87893 -0.12665 0
M  V30 1719 H 159.408 3.01868 2.18418 0
M  V30 1720 H 159.521 4.63443 1.21482 0
M  V30 1721 H 157.885 2.43745 0.738956 0
M  V30 1722 H 158.668 3.37145 -0.647136 0
M  V30 1723 N 161.113 -0.173488 1.56642 0
M  V30 1724 C 162.023 -1.23482 1.99473 0
M  V30 1725 C 163.039 -1.48567 0.905752 0
M  V30 1726 O 164.215 -1.60758 1.21321 0
M  V30 1727 C 161.28 -2.55444 2.34413 0
M  V30 1728 C 160.341 -2.38241 3.57127 0
M  V30 1729 C 159.574 -3.63909 3.90392 0
M  V30 1730 O 159.797 -4.68996 3.24653 0
M  V30 1731 O 158.731 -3.58149 4.83749 0
M  V30 1732 H 162.557 -0.901279 2.90018 0
M  V30 1733 H 160.142 -0.380185 1.44482 0
M  V30 1734 H 162.024 -3.33292 2.57865 0
M  V30 1735 H 160.699 -2.88382 1.4703 0
M  V30 1736 H 159.606 -1.58431 3.38896 0
M  V30 1737 H 160.939 -2.10228 4.45045 0
M  V30 1738 N 162.591 -1.51276 -0.441967 0
M  V30 1739 C 163.839 -1.63392 -1.18943 0
M  V30 1740 C 164.16 -0.350159 -1.9183 0
M  V30 1741 O 163.43 0.633784 -1.85364 0
M  V30 1742 H 162.01 -0.602164 -0.442049 0
M  V30 1743 H 164.672 -1.88186 -0.507165 0
M  V30 1744 H 163.768 -2.45934 -1.92154 0
M  V30 1745 N 164.069 0.697108 -1.41344 0
M  V30 1746 C 165.346 1.45154 -1.31109 0
M  V30 1747 C 165.726 2.11009 0.0620449 0
M  V30 1748 O 165.074 2.01571 1.07618 0
M  V30 1749 C 165.284 2.47223 -2.46337 0
M  V30 1750 C 166.632 3.1252 -2.87431 0
M  V30 1751 O 167.656 2.57547 -2.46065 0
M  V30 1752 O 166.515 4.12083 -3.58957 0
M  V30 1753 H 163.609 0.646365 -0.515889 0
M  V30 1754 H 166.155 0.727716 -1.53305 0
M  V30 1755 H 164.927 1.97204 -3.37974 0
M  V30 1756 H 164.55 3.27116 -2.2601 0
M  V30 1757 N 165.547 1.27147 0.931209 0
M  V30 1758 C 166.457 1.11372 2.06478 0
M  V30 1759 C 167.473 0.044645 1.73943 0
M  V30 1760 O 168.649 0.250417 1.99837 0
M  V30 1761 C 165.714 0.758838 3.38294 0
M  V30 1762 C 164.775 1.90841 3.84549 0
M  V30 1763 C 164.008 1.57036 5.10074 0
M  V30 1764 O 164.231 0.476645 5.68405 0
M  V30 1765 O 163.165 2.40839 5.51616 0
M  V30 1766 H 166.991 2.06493 2.22698 0
M  V30 1767 H 164.576 1.06301 1.04978 0
M  V30 1768 H 166.458 0.574098 4.17471 0
M  V30 1769 H 165.133 -0.162879 3.2329 0
M  V30 1770 H 164.04 2.14819 3.06274 0
M  V30 1771 H 165.373 2.81021 4.04089 0
M  V30 1772 N 167.025 -1.13721 1.09112 0
M  V30 1773 C 167.935 -2.22638 0.73957 0
M  V30 1774 C 168.951 -1.72091 -0.257068 0
M  V30 1775 O 170.127 -2.01155 -0.0992154 0
M  V30 1776 C 167.192 -3.46322 0.16191 0
M  V30 1777 C 166.253 -4.11775 1.21408 0
M  V30 1778 C 165.486 -5.29555 0.663891 0
M  V30 1779 O 165.709 -5.68077 -0.514274 0
M  V30 1780 O 164.643 -5.84973 1.41738 0
M  V30 1781 H 168.469 -2.55074 1.64836 0
M  V30 1782 H 166.054 -1.21791 0.865289 0
M  V30 1783 H 167.936 -4.21107 -0.157073 0
M  V30 1784 H 166.611 -3.15593 -0.719932 0
M  V30 1785 H 165.518 -3.3883 1.58571 0
M  V30 1786 H 166.851 -4.46627 2.06845 0
M  V30 1787 N 168.503 -0.877838 -1.30888 0
M  V30 1788 C 169.752 -0.488793 -1.95688 0
M  V30 1789 C 170.065 0.965485 -1.70111 0
M  V30 1790 O 171.271 1.46104 -2.28836 0
M  V30 1791 C 169.727 -0.823201 -3.50359 0
M  V30 1792 C 169.335 -2.29477 -3.84765 0
M  V30 1793 C 171.079 -0.503009 -4.21509 0
M  V30 1794 C 168.986 -2.57118 -5.32583 0
M  V30 1795 H 167.916 -0.179062 -0.732429 0
M  V30 1796 H 170.567 -1.07183 -1.48943 0
M  V30 1797 H 168.949 -0.169331 -3.95638 0
M  V30 1798 H 170.123 -2.99236 -3.5042 0
M  V30 1799 H 168.438 -2.58178 -3.267 0
M  V30 1800 H 171.035 -0.68665 -5.30273 0
M  V30 1801 H 171.378 0.557109 -4.12555 0
M  V30 1802 H 171.911 -1.11376 -3.8189 0
M  V30 1803 H 168.65 -3.61843 -5.4658 0
M  V30 1804 H 168.17 -1.91961 -5.68253 0
M  V30 1805 H 169.849 -2.42251 -5.99936 0
M  V30 1806 N 169.982 1.44106 -0.638065 0
M  V30 1807 C 170.932 2.27843 0.0847285 0
M  V30 1808 C 171.916 1.39055 0.809471 0
M  V30 1809 O 173.108 1.62808 0.694435 0
M  V30 1810 C 170.237 3.26497 1.06089 0
M  V30 1811 C 169.323 4.22772 0.33541 0
M  V30 1812 N 169.714 5.01737 -0.639787 0
M  V30 1813 C 168.012 4.42227 0.578921 0
M  V30 1814 C 168.713 5.71792 -1.06904 0
M  V30 1815 N 167.689 5.42079 -0.406395 0
M  V30 1816 H 171.491 2.86305 -0.663814 0
M  V30 1817 H 169.005 1.55627 -0.464122 0
M  V30 1818 H 171.002 3.8525 1.59337 0
M  V30 1819 H 169.662 2.69595 1.80966 0
M  V30 1820 H 170.673 5.07799 -1.01789 0
M  V30 1821 H 167.35 3.96415 1.31003 0
M  V30 1822 H 168.74 6.45205 -1.8751 0
M  V30 1823 N 171.46 0.379036 1.52974 0
M  V30 1824 C 172.423 -0.448865 2.24762 0
M  V30 1825 C 173.423 -0.998689 1.26027 0
M  V30 1826 O 174.613 -0.882313 1.50203 0
M  V30 1827 C 171.745 -1.62872 2.99476 0
M  V30 1828 H 172.938 0.179491 2.99362 0
M  V30 1829 H 170.491 0.13096 1.5575 0
M  V30 1830 H 171.226 -2.29479 2.29151 0
M  V30 1831 H 171.011 -1.24128 3.71934 0
M  V30 1832 H 172.501 -2.2151 3.5401 0
M  V30 1833 N 172.938 -1.57226 0.108567 0
M  V30 1834 C 174.166 -1.99179 -0.559954 0
M  V30 1835 C 174.581 -0.988022 -1.60884 0
M  V30 1836 O 173.938 0.0205512 -1.82488 0
M  V30 1837 C 173.989 -3.41159 -1.19552 0
M  V30 1838 O 173.71 -4.37694 -0.188577 0
M  V30 1839 C 175.211 -3.98188 -1.94837 0
M  V30 1840 H 172.431 -0.654228 -0.149088 0
M  V30 1841 H 174.975 -2.03598 0.19183 0
M  V30 1842 H 173.13 -3.37711 -1.89815 0
M  V30 1843 H 173.544 -5.20469 -0.649014 0
M  V30 1844 H 175.018 -4.99644 -2.34648 0
M  V30 1845 H 175.495 -3.3675 -2.81951 0
M  V30 1846 H 176.101 -4.0515 -1.2936 0
M  V30 1847 N 174.416 0.165178 -1.56732 0
M  V30 1848 C 175.664 0.879068 -1.8198 0
M  V30 1849 C 175.985 1.82514 -0.686561 0
M  V30 1850 O 175.255 1.93694 0.293146 0
M  V30 1851 H 173.835 0.327608 -0.671329 0
M  V30 1852 H 176.497 0.163526 -1.94213 0
M  V30 1853 H 175.593 1.45228 -2.76252 0
M  V30 1854 N 175.894 1.51508 0.433938 0
M  V30 1855 C 177.141 1.64345 1.18309 0
M  V30 1856 C 177.469 0.361315 1.91115 0
M  V30 1857 O 176.724 -0.654753 1.84422 0
M  V30 1858 C 177.023 2.79928 2.22205 0
M  V30 1859 C 176.689 4.19078 1.66387 0
M  V30 1860 C 175.351 4.56932 1.50887 0
M  V30 1861 C 177.703 5.05894 1.25381 0
M  V30 1862 C 175.031 5.79305 0.928608 0
M  V30 1863 C 177.383 6.2885 0.687823 0
M  V30 1864 C 176.047 6.65473 0.519755 0
M  V30 1865 H 175.317 0.601381 0.432923 0
M  V30 1866 H 177.964 1.85549 0.473676 0
M  V30 1867 H 176.269 2.52959 2.99197 0
M  V30 1868 H 177.966 2.87059 2.79997 0
M  V30 1869 H 174.556 3.89234 1.79428 0
M  V30 1870 H 178.74 4.77253 1.36175 0
M  V30 1871 H 173.996 6.06324 0.786186 0
M  V30 1872 H 178.17 6.95461 0.361581 0
M  V30 1873 H 175.797 7.6017 0.0679979 0
M  V30 1874 N 177.372 -0.689602 1.41712 0
M  V30 1875 C 178.32 -1.82475 1.44242 0
M  V30 1876 C 179.314 -1.66354 0.319774 0
M  V30 1877 O 180.52 -1.73143 0.492089 0
M  V30 1878 H 176.895 -0.601416 0.451445 0
M  V30 1879 H 178.866 -1.77458 2.39899 0
M  V30 1880 C 177.615 -3.20535 1.3473 0
M  V30 1881 H 176.938 -3.33559 2.20405 0
M  V30 1882 H 178.378 -4.00023 1.40562 0
M  V30 1883 C 176.837 -3.36846 0.0603281 0
M  V30 1884 O 177.367 -3.91656 -0.892663 0
M  V30 1885 N 175.573 -2.90595 -0.0177039 0
M  V30 1886 H 175.12 -2.46178 0.758572 0
M  V30 1887 H 175.078 -3.01886 -0.878201 0
M  V30 1888 N 178.85 -1.27639 -0.924453 0
M  V30 1889 C 180.08 -1.16819 -1.70402 0
M  V30 1890 C 180.488 0.277191 -1.87158 0
M  V30 1891 O 179.831 1.20025 -1.39067 0
M  V30 1892 C 179.893 -1.78305 -3.12166 0
M  V30 1893 C 179.557 -3.27502 -3.18734 0
M  V30 1894 C 180.554 -4.2409 -3.00738 0
M  V30 1895 C 178.239 -3.68269 -3.4159 0
M  V30 1896 C 180.233 -5.59422 -3.05492 0
M  V30 1897 C 177.92 -5.0373 -3.45977 0
M  V30 1898 C 178.918 -5.99116 -3.27946 0
M  V30 1899 O 178.606 -7.32108 -3.32074 0
M  V30 1900 H 178.338 -0.406931 -0.539799 0
M  V30 1901 H 180.892 -1.69078 -1.16626 0
M  V30 1902 H 179.122 -1.20528 -3.67437 0
M  V30 1903 H 180.811 -1.62154 -3.72103 0
M  V30 1904 H 181.577 -3.93931 -2.82919 0
M  V30 1905 H 177.456 -2.94496 -3.54673 0
M  V30 1906 H 181 -6.33852 -2.91337 0
M  V30 1907 H 176.897 -5.33543 -3.63321 0
M  V30 1908 H 177.665 -7.40598 -3.48507 0
M  V30 1909 N 180.328 1.1314 -1.09713 0
M  V30 1910 C 181.26 2.18343 -0.697056 0
M  V30 1911 C 182.273 1.60669 0.262551 0
M  V30 1912 O 183.462 1.78435 0.0481527 0
M  V30 1913 C 180.562 3.38899 -0.00684728 0
M  V30 1914 C 179.735 4.26078 -0.988741 0
M  V30 1915 C 178.794 5.25155 -0.331394 0
M  V30 1916 O 177.82 5.60701 -0.979926 0
M  V30 1917 N 179.022 5.73271 0.913261 0
M  V30 1918 H 181.787 2.5328 -1.60216 0
M  V30 1919 H 179.348 1.28491 -0.984971 0
M  V30 1920 H 181.34 4.02255 0.444191 0
M  V30 1921 H 179.91 3.02175 0.800551 0
M  V30 1922 H 179.13 3.59453 -1.61826 0
M  V30 1923 H 180.418 4.81178 -1.65364 0
M  V30 1924 H 179.816 5.46544 1.45966 0
M  V30 1925 H 178.373 6.3855 1.30757 0
M  V30 1926 N 181.806 0.884767 1.30421 0
M  V30 1927 C 182.754 0.340869 2.30089 0
M  V30 1928 C 183.748 -0.55201 1.60154 0
M  V30 1929 O 184.954 -0.436467 1.74628 0
M  V30 1930 H 181.329 0.0915739 0.746404 0
M  V30 1931 H 183.3 1.19513 2.73421 0
M  V30 1932 C 182.049 -0.429779 3.45034 0
M  V30 1933 H 181.372 0.248024 3.9903 0
M  V30 1934 H 182.812 -0.775445 4.16849 0
M  V30 1935 C 181.271 -1.62677 2.95022 0
M  V30 1936 O 181.801 -2.72614 2.95033 0
M  V30 1937 N 180.007 -1.46387 2.51036 0
M  V30 1938 H 179.554 -0.569506 2.51226 0
M  V30 1939 H 179.512 -2.26612 2.17932 0
M  V30 1940 N 183.284 -1.43765 0.645699 0
M  V30 1941 C 184.194 -2.34544 -0.0512957 0
M  V30 1942 C 185.21 -1.53455 -0.82022 0
M  V30 1943 O 186.386 -1.86133 -0.769176 0
M  V30 1944 C 183.451 -3.31636 -1.01087 0
M  V30 1945 C 182.512 -4.2863 -0.239712 0
M  V30 1946 C 181.745 -5.21084 -1.15358 0
M  V30 1947 O 181.968 -5.1779 -2.39269 0
M  V30 1948 O 180.902 -5.98593 -0.630038 0
M  V30 1949 H 184.728 -2.95624 0.695718 0
M  V30 1950 H 182.313 -1.43781 0.405882 0
M  V30 1951 H 184.195 -3.9136 -1.56254 0
M  V30 1952 H 182.87 -2.73069 -1.73824 0
M  V30 1953 H 181.777 -3.72408 0.355356 0
M  V30 1954 H 183.11 -4.90157 0.447936 0
M  V30 1955 N 184.763 -0.387143 -1.52771 0
M  V30 1956 C 186.04 0.253197 -1.93954 0
M  V30 1957 C 186.42 1.64545 -1.32243 0
M  V30 1958 O 185.768 2.23191 -0.489699 0
M  V30 1959 C 185.978 0.281722 -3.47861 0
M  V30 1960 C 187.326 0.511715 -4.21505 0
M  V30 1961 O 188.35 0.362023 -3.54356 0
M  V30 1962 O 187.209 0.804847 -5.40541 0
M  V30 1963 H 184.303 0.156845 -0.811991 0
M  V30 1964 H 186.849 -0.441494 -1.63856 0
M  V30 1965 H 185.621 -0.693571 -3.85104 0
M  V30 1966 H 185.244 1.02142 -3.84256 0
M  V30 1967 N 186.241 1.57166 -0.116904 0
M  V30 1968 C 187.151 2.18745 0.847812 0
M  V30 1969 C 188.167 1.163 1.29423 0
M  V30 1970 O 189.343 1.48761 1.35765 0
M  V30 1971 C 186.408 2.77307 2.0809 0
M  V30 1972 C 185.469 3.94781 1.68661 0
M  V30 1973 C 184.702 4.50541 2.86091 0
M  V30 1974 O 184.925 4.05202 4.01456 0
M  V30 1975 O 183.859 5.41256 2.63298 0
M  V30 1976 H 187.685 3.01632 0.353778 0
M  V30 1977 H 185.27 1.49005 0.108599 0
M  V30 1978 H 187.152 3.14647 2.80313 0
M  V30 1979 H 185.827 1.97452 2.56504 0
M  V30 1980 H 184.734 3.62214 0.935518 0
M  V30 1981 H 186.067 4.76065 1.24991 0
M  V30 1982 N 187.719 -0.156864 1.56817 0
M  V30 1983 C 188.666 -1.19394 1.97519 0
M  V30 1984 C 189.636 -1.4322 0.841265 0
M  V30 1985 O 190.821 -1.55719 1.10255 0
M  V30 1986 C 187.961 -2.52483 2.35258 0
M  V30 1987 C 187.074 -2.35914 3.61896 0
M  V30 1988 C 186.209 -3.61969 3.88782 0
M  V30 1989 C 185.248 -3.40395 5.08722 0
M  V30 1990 N 184.385 -4.58556 5.31668 0
M  V30 1991 H 189.225 -0.839845 2.85921 0
M  V30 1992 H 186.762 -0.403264 1.41464 0
M  V30 1993 H 188.72 -3.30071 2.55165 0
M  V30 1994 H 187.35 -2.85859 1.49949 0
M  V30 1995 H 186.402 -1.49429 3.49821 0
M  V30 1996 H 187.714 -2.15926 4.49641 0
M  V30 1997 H 186.868 -4.47989 4.09135 0
M  V30 1998 H 185.607 -3.84951 2.9944 0
M  V30 1999 H 184.612 -2.52763 4.88253 0
M  V30 2000 H 185.837 -3.18822 5.99608 0
M  V30 2001 H 183.783 -4.81729 4.45279 0
M  V30 2002 H 183.7 -4.41535 6.13664 0
M  V30 2003 H 184.968 -5.45817 5.5651 0
M  V30 2004 N 189.197 -1.51736 -0.425897 0
M  V30 2005 C 190.443 -1.65214 -1.1761 0
M  V30 2006 C 190.776 -0.372778 -1.90589 0
M  V30 2007 O 190.051 0.628139 -1.84078 0
M  V30 2008 C 190.334 -2.86312 -2.18398 0
M  V30 2009 C 190.187 -4.24254 -1.49426 0
M  V30 2010 C 191.506 -3.02925 -3.19256 0
M  V30 2011 H 188.625 -0.601263 -0.426206 0
M  V30 2012 H 191.267 -1.8425 -0.463882 0
M  V30 2013 H 189.417 -2.70213 -2.79137 0
M  V30 2014 H 191.089 -4.52046 -0.919362 0
M  V30 2015 H 189.332 -4.26426 -0.796432 0
M  V30 2016 H 190.003 -5.05001 -2.22885 0
M  V30 2017 H 192.479 -3.1781 -2.68581 0
M  V30 2018 H 191.355 -3.89199 -3.8706 0
M  V30 2019 H 191.616 -2.15497 -3.86023 0
M  V30 2020 N 190.675 0.682077 -1.42076 0
M  V30 2021 C 191.903 1.47057 -1.4554 0
M  V30 2022 C 192.318 1.8869 -0.0645779 0
M  V30 2023 O 191.675 1.57666 0.919115 0
M  V30 2024 C 191.726 2.72442 -2.37609 0
M  V30 2025 O 191.447 2.32559 -3.71279 0
M  V30 2026 C 192.948 3.66069 -2.50017 0
M  V30 2027 H 190.168 0.452737 -0.495248 0
M  V30 2028 H 192.712 0.838695 -1.8651 0
M  V30 2029 H 190.867 3.31835 -1.9991 0
M  V30 2030 H 191.281 3.13475 -4.20516 0
M  V30 2031 H 192.755 4.50792 -3.18576 0
M  V30 2032 H 193.232 4.11476 -1.53572 0
M  V30 2033 H 193.838 3.12572 -2.88407 0
M  V30 2034 N 192.153 1.28127 0.917671 0
M  V30 2035 C 193.083 1.14248 2.03641 0
M  V30 2036 C 194.064 0.0412748 1.7005 0
M  V30 2037 O 195.249 0.217566 1.92977 0
M  V30 2038 C 192.379 0.799431 3.37974 0
M  V30 2039 C 191.333 1.85497 3.85713 0
M  V30 2040 C 190.659 1.36565 5.16966 0
M  V30 2041 C 191.959 3.26085 4.08002 0
M  V30 2042 H 193.653 2.07835 2.15511 0
M  V30 2043 H 191.199 1.00064 1.03553 0
M  V30 2044 H 193.152 0.689114 4.15727 0
M  V30 2045 H 191.876 -0.172145 3.26146 0
M  V30 2046 H 190.535 1.95437 3.10161 0
M  V30 2047 H 190.183 0.383253 5.01538 0
M  V30 2048 H 189.883 2.07143 5.49878 0
M  V30 2049 H 191.407 1.26848 5.97279 0
M  V30 2050 H 192.821 3.19089 4.76293 0
M  V30 2051 H 191.218 3.94462 4.52238 0
M  V30 2052 H 192.288 3.70394 3.12948 0
M  V30 2053 N 193.631 -1.12557 1.10312 0
M  V30 2054 C 194.856 -1.88405 0.867085 0
M  V30 2055 C 195.281 -1.79038 -0.576817 0
M  V30 2056 O 194.639 -1.14439 -1.40618 0
M  V30 2057 C 194.687 -3.3563 1.31851 0
M  V30 2058 O 193.791 -4.09565 0.482734 0
M  V30 2059 H 193.132 -0.585455 0.313271 0
M  V30 2060 H 195.662 -1.42352 1.4696 0
M  V30 2061 H 195.672 -3.86469 1.3079 0
M  V30 2062 H 194.347 -3.41765 2.37001 0
M  V30 2063 H 192.924 -3.68695 0.558448 0
M  V30 2064 N 195.109 -0.891671 -1.2995 0
M  V30 2065 C 196.356 -0.513501 -1.95881 0
M  V30 2066 C 196.684 0.938655 -1.70351 0
M  V30 2067 O 195.939 1.67936 -1.00478 0
M  V30 2068 C 196.238 -0.742868 -3.49594 0
M  V30 2069 C 195.904 -2.17114 -3.95186 0
M  V30 2070 C 194.566 -2.56169 -4.07346 0
M  V30 2071 C 196.918 -3.10162 -4.18866 0
M  V30 2072 C 194.246 -3.87469 -4.4055 0
M  V30 2073 C 196.598 -4.41001 -4.53542 0
M  V30 2074 C 195.262 -4.79941 -4.63911 0
M  V30 2075 H 194.532 -0.187903 -0.71678 0
M  V30 2076 H 197.179 -1.1288 -1.54694 0
M  V30 2077 H 195.484 -0.044586 -3.91775 0
M  V30 2078 H 197.181 -0.429767 -3.9869 0
M  V30 2079 H 193.771 -1.85801 -3.86233 0
M  V30 2080 H 197.955 -2.81206 -4.08946 0
M  V30 2081 H 193.211 -4.17371 -4.46779 0
M  V30 2082 H 197.385 -5.13133 -4.70815 0
M  V30 2083 H 195.012 -5.81719 -4.89395 0
M  V30 2084 N 196.587 1.43421 -0.653314 0
M  V30 2085 C 197.998 1.85065 -0.246537 0
M  V30 2086 C 198.349 1.54688 1.2069 0
M  V30 2087 O 197.474 0.995896 1.92122 0
M  V30 2088 C 198.069 3.35922 -0.440666 0
M  V30 2089 C 196.628 3.76297 -0.0882064 0
M  V30 2090 C 195.775 2.67147 -0.743484 0
M  V30 2091 H 198.726 1.33572 -0.856979 0
M  V30 2092 H 198.747 3.79204 0.313798 0
M  V30 2093 H 198.259 3.58 -1.49858 0
M  V30 2094 H 196.36 3.5983 0.96711 0
M  V30 2095 H 196.473 4.76338 -0.513738 0
M  V30 2096 H 194.837 2.54086 -0.176712 0
M  V30 2097 H 195.62 2.92053 -1.80443 0
M  V30 2098 N 198.065 0.39524 1.52563 0
M  V30 2099 C 199.29 -0.187456 2.06551 0
M  V30 2100 C 199.715 -1.39249 1.26457 0
M  V30 2101 O 199.073 -1.78947 0.291151 0
M  V30 2102 C 199.121 -0.529985 3.56684 0
M  V30 2103 O 198.225 -1.62307 3.79118 0
M  V30 2104 H 197.566 -0.0202537 0.663691 0
M  V30 2105 H 200.096 0.564426 1.96661 0
M  V30 2106 H 200.106 -0.792598 4.00227 0
M  V30 2107 H 198.781 0.350987 4.14416 0
M  V30 2108 H 197.358 -1.3537 3.47461 0
M  V30 2109 N 199.544 -1.57102 0.125237 0
M  V30 2110 C 200.772 -1.99761 -0.538797 0
M  V30 2111 C 201.187 -1.00503 -1.59827 0
M  V30 2112 O 200.544 0.00119474 -1.825 0
M  V30 2113 C 200.595 -3.42408 -1.15927 0
M  V30 2114 O 200.316 -4.37869 -0.142143 0
M  V30 2115 C 201.817 -4.00232 -1.90602 0
M  V30 2116 H 199.037 -0.655772 -0.14214 0
M  V30 2117 H 201.581 -2.03383 0.213413 0
M  V30 2118 H 199.736 -3.39706 -1.86223 0
M  V30 2119 H 200.15 -5.21128 -0.593775 0
M  V30 2120 H 201.624 -5.02105 -2.29335 0
M  V30 2121 H 202.101 -3.39721 -2.78363 0
M  V30 2122 H 202.707 -4.06499 -1.25055 0
M  V30 2123 N 201.022 0.148545 -1.56898 0
M  V30 2124 C 201.952 1.18524 -2.01182 0
M  V30 2125 C 202.933 1.4489 -0.891123 0
M  V30 2126 O 204.118 1.55836 -1.15882 0
M  V30 2127 C 201.248 2.51879 -2.39112 0
M  V30 2128 C 200.202 2.40038 -3.54353 0
M  V30 2129 C 199.528 3.78089 -3.78091 0
M  V30 2130 C 200.828 1.88577 -4.87069 0
M  V30 2131 H 202.522 0.817029 -2.88036 0
M  V30 2132 H 200.068 0.391575 -1.38574 0
M  V30 2133 H 202.021 3.24627 -2.68692 0
M  V30 2134 H 200.745 2.90532 -1.49193 0
M  V30 2135 H 199.404 1.69742 -3.24936 0
M  V30 2136 H 199.052 4.14175 -2.85426 0
M  V30 2137 H 198.752 3.71028 -4.55645 0
M  V30 2138 H 200.276 4.52387 -4.10095 0
M  V30 2139 H 201.69 2.51117 -5.15377 0
M  V30 2140 H 200.087 1.9241 -5.68417 0
M  V30 2141 H 201.157 0.84136 -4.77545 0
M  V30 2142 N 202.5 1.5196 0.417844 0
M  V30 2143 C 203.432 1.70895 1.52733 0
M  V30 2144 C 204.445 0.589405 1.51756 0
M  V30 2145 O 205.634 0.864312 1.56179 0
M  V30 2146 C 202.734 1.72627 2.91639 0
M  V30 2147 C 201.907 3.01479 3.16905 0
M  V30 2148 C 200.966 2.95139 4.35637 0
M  V30 2149 O 199.992 3.69059 4.3334 0
M  V30 2150 N 201.194 2.12328 5.40275 0
M  V30 2151 H 203.959 2.66612 1.36888 0
M  V30 2152 H 201.52 1.50089 0.607037 0
M  V30 2153 H 203.512 1.65928 3.6912 0
M  V30 2154 H 202.082 0.844216 3.00985 0
M  V30 2155 H 201.302 3.21895 2.27546 0
M  V30 2156 H 202.59 3.86736 3.30625 0
M  V30 2157 H 201.988 1.51685 5.44985 0
M  V30 2158 H 200.545 2.11494 6.16534 0
M  V30 2159 N 203.978 -0.674533 1.42435 0
M  V30 2160 C 205.206 -1.46283 1.46317 0
M  V30 2161 C 205.621 -1.88653 0.0745836 0
M  V30 2162 O 204.978 -1.58151 -0.91074 0
M  V30 2163 C 205.029 -2.71178 2.3905 0
M  V30 2164 O 204.75 -2.30586 3.72507 0
M  V30 2165 C 206.251 -3.64738 2.51955 0
M  V30 2166 H 203.471 -0.450104 0.497642 0
M  V30 2167 H 206.015 -0.828792 1.86953 0
M  V30 2168 H 204.17 -3.3077 2.01667 0
M  V30 2169 H 204.584 -3.11241 4.22172 0
M  V30 2170 H 206.058 -4.49096 3.20962 0
M  V30 2171 H 206.535 -4.10656 1.55752 0
M  V30 2172 H 207.141 -3.11038 2.90061 0
M  V30 2173 N 205.456 -1.28612 -0.910864 0
M  V30 2174 C 206.704 -1.15705 -1.65701 0
M  V30 2175 C 207.025 0.29416 -1.92769 0
M  V30 2176 O 206.295 1.20331 -1.54588 0
M  V30 2177 H 204.875 -0.425216 -0.614167 0
M  V30 2178 H 207.537 -1.61381 -1.0928 0
M  V30 2179 H 206.633 -1.6988 -2.61815 0
M  V30 2180 N 206.934 1.1197 -1.10907 0
M  V30 2181 C 208.162 1.87402 -0.876824 0
M  V30 2182 C 208.577 1.79894 0.573025 0
M  V30 2183 O 207.934 1.17629 1.39534 0
M  V30 2184 C 207.985 3.36428 -1.32282 0
M  V30 2185 O 207.706 3.43765 -2.71582 0
M  V30 2186 C 209.207 4.28783 -1.12518 0
M  V30 2187 H 206.427 0.592793 -0.314384 0
M  V30 2188 H 208.971 1.41649 -1.47499 0
M  V30 2189 H 207.126 3.79706 -0.768229 0
M  V30 2190 H 207.54 4.3652 -2.90776 0
M  V30 2191 H 209.014 5.31613 -1.48633 0
M  V30 2192 H 209.491 4.39153 -0.0642394 0
M  V30 2193 H 210.097 3.91291 -1.66648 0
M  V30 2194 N 208.412 0.89855 1.29475 0
M  V30 2195 C 209.66 0.522847 1.9522 0
M  V30 2196 C 209.981 -0.93371 1.71192 0
M  V30 2197 O 209.251 -1.65823 1.04305 0
M  V30 2198 H 207.831 0.190366 0.722336 0
M  V30 2199 H 210.493 1.14459 1.5775 0
M  V30 2200 H 209.589 0.704476 3.04045 0
M  V30 2201 N 209.89 -1.43072 0.660911 0
M  V30 2202 C 211.118 -2.06067 0.185422 0
M  V30 2203 C 211.533 -1.49582 -1.15198 0
M  V30 2204 O 210.89 -0.630134 -1.71276 0
M  V30 2205 C 210.941 -3.61371 0.0966523 0
M  V30 2206 O 210.662 -4.15758 1.38119 0
M  V30 2207 C 212.163 -4.41455 -0.403996 0
M  V30 2208 H 209.383 -0.664459 0.0934604 0
M  V30 2209 H 211.927 -1.83447 0.90373 0
M  V30 2210 H 210.082 -3.8315 -0.572259 0
M  V30 2211 H 210.496 -5.09499 1.24542 0
M  V30 2212 H 211.97 -5.50437 -0.415045 0
M  V30 2213 H 212.447 -4.15036 -1.43674 0
M  V30 2214 H 213.053 -4.24663 0.232691 0
M  V30 2215 N 211.368 -0.403325 -1.52352 0
M  V30 2216 C 212.298 0.416205 -2.29761 0
M  V30 2217 C 213.279 1.05123 -1.33728 0
M  V30 2218 O 214.464 1.06134 -1.62632 0
M  V30 2219 C 211.594 1.53624 -3.11475 0
M  V30 2220 C 210.548 1.02653 -4.15507 0
M  V30 2221 C 209.874 2.23971 -4.85532 0
M  V30 2222 C 211.174 0.08463 -5.22231 0
M  V30 2223 H 212.868 -0.229701 -2.98518 0
M  V30 2224 H 210.414 -0.111913 -1.43564 0
M  V30 2225 H 212.367 2.1165 -3.64393 0
M  V30 2226 H 211.091 2.20994 -2.40477 0
M  V30 2227 H 209.75 0.46871 -3.63591 0
M  V30 2228 H 209.398 2.89883 -4.11068 0
M  V30 2229 H 209.098 1.90521 -5.55856 0
M  V30 2230 H 210.622 2.82614 -5.41259 0
M  V30 2231 H 212.036 0.573509 -5.70424 0
M  V30 2232 H 210.433 -0.160783 -5.99885 0
M  V30 2233 H 211.503 -0.86237 -4.7717 0
M  V30 2234 N 212.846 1.57033 -0.133567 0
M  V30 2235 C 213.793 2.16074 0.811208 0
M  V30 2236 C 214.763 1.08979 1.2535 0
M  V30 2237 O 215.948 1.36958 1.32843 0
M  V30 2238 C 213.088 2.77595 2.05024 0
M  V30 2239 C 212.201 3.99042 1.65498 0
M  V30 2240 C 211.336 4.48603 2.84479 0
M  V30 2241 C 210.375 5.62547 2.41262 0
M  V30 2242 N 209.512 6.06787 3.53206 0
M  V30 2243 H 214.352 2.96477 0.300906 0
M  V30 2244 H 211.889 1.46462 0.136822 0
M  V30 2245 H 213.847 3.11402 2.77642 0
M  V30 2246 H 212.477 1.99859 2.53488 0
M  V30 2247 H 211.529 3.71302 0.826981 0
M  V30 2248 H 212.841 4.81629 1.29748 0
M  V30 2249 H 211.995 4.84395 3.65303 0
M  V30 2250 H 210.734 3.64995 3.23465 0
M  V30 2251 H 209.739 5.26345 1.58874 0
M  V30 2252 H 210.964 6.47931 2.03377 0
M  V30 2253 H 208.91 5.26117 3.91838 0
M  V30 2254 H 208.827 6.84266 3.21427 0
M  V30 2255 H 210.095 6.4722 4.34427 0
M  V30 2256 N 214.325 -0.140222 1.56975 0
M  V30 2257 C 215.574 -0.850152 1.82908 0
M  V30 2258 C 215.887 -1.82028 0.715892 0
M  V30 2259 O 217.093 -2.57485 0.861016 0
M  V30 2260 C 215.549 -1.5625 3.24213 0
M  V30 2261 C 215.157 -0.63443 4.43485 0
M  V30 2262 C 216.901 -2.25881 3.59413 0
M  V30 2263 C 214.808 -1.34879 5.75814 0
M  V30 2264 H 213.738 -0.321221 0.682153 0
M  V30 2265 H 216.389 -0.102874 1.83211 0
M  V30 2266 H 214.771 -2.35565 3.18316 0
M  V30 2267 H 215.945 0.12398 4.60633 0
M  V30 2268 H 214.26 -0.0461836 4.16374 0
M  V30 2269 H 216.857 -2.79978 4.5554 0
M  V30 2270 H 217.2 -3.02693 2.85802 0
M  V30 2271 H 217.733 -1.53477 3.67001 0
M  V30 2272 H 214.472 -0.622385 6.52539 0
M  V30 2273 H 213.992 -2.07974 5.6259 0
M  V30 2274 H 215.671 -1.88784 6.18845 0
M  V30 2275 N 215.803 -1.52179 -0.40978 0
M  V30 2276 C 217.08 -1.56769 -1.16974 0
M  V30 2277 C 217.46 -0.348322 -2.08206 0
M  V30 2278 O 216.808 0.664862 -2.18613 0
M  V30 2279 C 217.018 -2.89603 -1.9476 0
M  V30 2280 C 218.366 -3.42579 -2.50849 0
M  V30 2281 O 219.39 -2.91338 -2.04941 0
M  V30 2282 O 218.249 -4.32054 -3.34652 0
M  V30 2283 H 215.343 -0.631439 -0.534054 0
M  V30 2284 H 217.889 -1.64507 -0.416613 0
M  V30 2285 H 216.661 -3.698 -1.27921 0
M  V30 2286 H 216.284 -2.85155 -2.77079 0
M  V30 2287 N 217.281 0.66697 -1.42791 0
M  V30 2288 C 218.528 1.42699 -1.43678 0
M  V30 2289 C 218.856 1.94419 -0.0560425 0
M  V30 2290 O 218.111 1.7182 0.936831 0
M  V30 2291 C 218.41 2.6349 -2.4147 0
M  V30 2292 C 218.076 2.30267 -3.8767 0
M  V30 2293 C 216.738 2.20918 -4.27491 0
M  V30 2294 C 219.09 2.03435 -4.79858 0
M  V30 2295 C 216.418 1.82873 -5.57471 0
M  V30 2296 C 218.77 1.66892 -6.10188 0
M  V30 2297 C 217.434 1.56058 -6.49001 0
M  V30 2298 H 216.704 0.522171 -0.525755 0
M  V30 2299 H 219.351 0.759785 -1.75783 0
M  V30 2300 H 217.656 3.35279 -2.0272 0
M  V30 2301 H 219.353 3.21684 -2.39417 0
M  V30 2302 H 215.943 2.38449 -3.56146 0
M  V30 2303 H 220.127 2.09586 -4.49875 0
M  V30 2304 H 215.383 1.7306 -5.86396 0
M  V30 2305 H 219.557 1.45157 -6.81104 0
M  V30 2306 H 217.184 1.26348 -7.49627 0
M  V30 2307 N 218.759 1.29093 0.90403 0
M  V30 2308 C 220.005 1.16986 1.65656 0
M  V30 2309 C 220.338 -0.278925 1.92186 0
M  V30 2310 O 219.613 -1.2019 1.5292 0
M  V30 2311 C 219.896 1.97908 3.0084 0
M  V30 2312 C 219.749 3.50903 2.81403 0
M  V30 2313 C 221.068 1.80208 4.01513 0
M  V30 2314 H 218.187 0.426346 0.601164 0
M  V30 2315 H 220.829 1.58518 1.04747 0
M  V30 2316 H 218.979 1.62616 3.52829 0
M  V30 2317 H 220.651 3.96153 2.36348 0
M  V30 2318 H 218.894 3.76045 2.1627 0
M  V30 2319 H 219.565 4.02791 3.77443 0
M  V30 2320 H 222.041 2.11025 3.58619 0
M  V30 2321 H 220.917 2.39184 4.94047 0
M  V30 2322 H 221.178 0.756119 4.35586 0
M  V30 2323 N 220.237 -1.11381 1.11499 0
M  V30 2324 C 221.485 -1.8277 0.862524 0
M  V30 2325 C 221.806 -1.85097 -0.613534 0
M  V30 2326 O 221.076 -1.32198 -1.4457 0
M  V30 2327 H 219.656 -0.676823 0.316101 0
M  V30 2328 H 222.318 -1.34816 1.4075 0
M  V30 2329 H 221.414 -2.86614 1.23527 0
M  V30 2330 N 221.715 -0.905404 -1.28997 0
M  V30 2331 C 222.625 -0.392246 -2.31298 0
M  V30 2332 C 223.641 0.515889 -1.66176 0
M  V30 2333 O 224.817 0.404093 -1.97304 0
M  V30 2334 C 221.882 0.36686 -3.44754 0
M  V30 2335 C 220.943 -0.573485 -4.25452 0
M  V30 2336 C 220.176 0.149488 -5.33491 0
M  V30 2337 O 220.399 1.37255 -5.5364 0
M  V30 2338 O 219.333 -0.510919 -5.99728 0
M  V30 2339 H 223.159 -1.2411 -2.77183 0
M  V30 2340 H 220.744 -0.669926 -1.33538 0
M  V30 2341 H 222.626 0.795907 -4.13816 0
M  V30 2342 H 221.301 1.19169 -3.00966 0
M  V30 2343 H 220.208 -1.05176 -3.59011 0
M  V30 2344 H 221.541 -1.36489 -4.72897 0
M  V30 2345 N 223.193 1.4272 -0.668489 0
M  V30 2346 C 224.123 2.335 -0.000100175 0
M  V30 2347 C 225.104 1.50328 0.795964 0
M  V30 2348 O 226.289 1.78949 0.754385 0
M  V30 2349 C 223.419 3.33874 0.956302 0
M  V30 2350 C 222.373 4.27152 0.269278 0
M  V30 2351 C 221.699 5.17684 1.33818 0
M  V30 2352 C 222.999 5.15373 -0.847805 0
M  V30 2353 H 224.693 2.89639 -0.758244 0
M  V30 2354 H 222.239 1.39269 -0.366079 0
M  V30 2355 H 224.192 3.9629 1.43292 0
M  V30 2356 H 222.916 2.76025 1.74579 0
M  V30 2357 H 221.575 3.66123 -0.187042 0
M  V30 2358 H 221.223 4.56165 2.1195 0
M  V30 2359 H 220.923 5.80918 0.883659 0
M  V30 2360 H 222.447 5.82974 1.81586 0
M  V30 2361 H 223.861 5.7151 -0.452681 0
M  V30 2362 H 222.258 5.87407 -1.22773 0
M  V30 2363 H 223.328 4.5415 -1.69929 0
M  V30 2364 N 224.671 0.411399 1.52136 0
M  V30 2365 C 225.619 -0.427633 2.28635 0
M  V30 2366 C 226.613 -1.04383 1.33419 0
M  V30 2367 O 227.819 -0.981772 1.50868 0
M  V30 2368 H 224.194 -0.156689 0.735495 0
M  V30 2369 H 226.165 0.238761 2.97443 0
M  V30 2370 C 224.914 -1.53082 3.12188 0
M  V30 2371 H 224.237 -1.06601 3.85326 0
M  V30 2372 H 225.677 -2.09167 3.68816 0
M  V30 2373 C 224.136 -2.49946 2.25895 0
M  V30 2374 O 224.666 -3.53884 1.90076 0
M  V30 2375 N 222.872 -2.2021 1.8962 0
M  V30 2376 H 222.419 -1.35719 2.18948 0
M  V30 2377 H 222.377 -2.85266 1.32176 0
M  V30 2378 N 226.149 -1.5696 0.141893 0
M  V30 2379 C 227.426 -1.87553 -0.555281 0
M  V30 2380 C 227.806 -1.04699 -1.83306 0
M  V30 2381 O 227.154 -0.132346 -2.28116 0
M  V30 2382 C 227.364 -3.39093 -0.825664 0
M  V30 2383 C 228.712 -4.08199 -1.16869 0
M  V30 2384 O 229.736 -3.44242 -0.915185 0
M  V30 2385 O 228.595 -5.21139 -1.6455 0
M  V30 2386 H 225.689 -0.777188 -0.282679 0
M  V30 2387 H 228.235 -1.68763 0.17812 0
M  V30 2388 H 227.007 -3.91221 0.0788633 0
M  V30 2389 H 226.63 -3.63393 -1.61343 0
M  V30 2390 N 227.627 0.131896 -1.57047 0
M  V30 2391 C 228.574 1.16236 -1.99393 0
M  V30 2392 C 229.544 1.41863 -0.863943 0
M  V30 2393 O 230.729 1.53946 -1.12718 0
M  V30 2394 C 227.869 2.48708 -2.39245 0
M  V30 2395 C 226.982 2.30127 -3.65603 0
M  V30 2396 C 226.117 3.55738 -3.94492 0
M  V30 2397 C 225.156 3.32259 -5.14073 0
M  V30 2398 N 224.293 4.50039 -5.38896 0
M  V30 2399 H 229.133 0.794251 -2.87221 0
M  V30 2400 H 226.67 0.380707 -1.42088 0
M  V30 2401 H 228.628 3.25969 -2.60384 0
M  V30 2402 H 227.258 2.83437 -1.54478 0
M  V30 2403 H 226.31 1.43845 -3.52154 0
M  V30 2404 H 227.622 2.08746 -4.5302 0
M  V30 2405 H 226.776 4.41423 -4.1621 0
M  V30 2406 H 225.515 3.80138 -3.05526 0
M  V30 2407 H 224.52 2.44963 -4.92212 0
M  V30 2408 H 225.745 3.09242 -6.04604 0
M  V30 2409 H 223.691 4.74584 -4.52886 0
M  V30 2410 H 223.608 4.31716 -6.2061 0
M  V30 2411 H 224.876 5.36895 -5.65123 0
M  V30 2412 N 229.106 1.52395 0.401703 0
M  V30 2413 C 230.039 1.70999 1.51111 0
M  V30 2414 C 231.017 0.55765 1.52738 0
M  V30 2415 O 232.201 0.785912 1.71335 0
M  V30 2416 C 229.328 1.75607 2.8962 0
M  V30 2417 C 228.374 2.97227 3.05873 0
M  V30 2418 S 229.207 4.57439 2.78405 0
M  V30 2419 C 230.363 4.64844 4.19131 0
M  V30 2420 H 230.596 2.6483 1.35102 0
M  V30 2421 H 228.129 1.42527 0.593762 0
M  V30 2422 H 230.087 1.78947 3.69443 0
M  V30 2423 H 228.748 0.828914 3.02965 0
M  V30 2424 H 227.941 2.96955 4.07227 0
M  V30 2425 H 227.543 2.91813 2.33925 0
M  V30 2426 H 229.835 4.42677 5.12877 0
M  V30 2427 H 230.778 5.66807 4.24424 0
M  V30 2428 H 231.186 3.93804 4.04448 0
M  V30 2429 N 230.584 -0.659388 1.43143 0
M  V30 2430 C 231.531 -1.77249 1.47822 0
M  V30 2431 C 232.501 -1.62818 0.328558 0
M  V30 2432 O 233.686 -1.83151 0.534838 0
M  V30 2433 C 230.826 -3.15371 1.40126 0
M  V30 2434 C 229.939 -3.4098 2.65249 0
M  V30 2435 C 229.074 -4.68915 2.49584 0
M  V30 2436 C 228.113 -4.87608 3.70006 0
M  V30 2437 N 227.25 -6.06796 3.53189 0
M  V30 2438 H 232.09 -1.72584 2.42938 0
M  V30 2439 H 229.627 -0.842297 1.20598 0
M  V30 2440 H 231.585 -3.9521 1.33659 0
M  V30 2441 H 230.215 -3.19121 0.485964 0
M  V30 2442 H 229.267 -2.55282 2.8202 0
M  V30 2443 H 230.579 -3.50681 3.54717 0
M  V30 2444 H 229.733 -5.56871 2.4079 0
M  V30 2445 H 228.472 -4.61524 1.5763 0
M  V30 2446 H 227.477 -3.9809 3.79215 0
M  V30 2447 H 228.702 -4.96834 4.62961 0
M  V30 2448 H 226.648 -6.00549 2.63965 0
M  V30 2449 H 226.565 -6.17428 4.36255 0
M  V30 2450 H 227.833 -6.9739 3.48236 0
M  V30 2451 N 232.062 -1.29571 -0.897171 0
M  V30 2452 C 233.31 -1.17456 -1.64464 0
M  V30 2453 C 233.631 0.273698 -1.9307 0
M  V30 2454 O 232.901 1.18684 -1.55855 0
M  V30 2455 H 231.481 -0.431706 -0.609622 0
M  V30 2456 H 234.143 -1.62531 -1.07562 0
M  V30 2457 H 233.239 -1.72648 -2.59998 0
M  V30 2458 N 233.54 1.10788 -1.12088 0
M  V30 2459 C 234.787 1.82671 -0.873931 0
M  V30 2460 C 235.115 1.85004 0.600311 0
M  V30 2461 O 234.37 1.30365 1.45957 0
M  V30 2462 C 234.669 3.29294 -1.38926 0
M  V30 2463 C 234.335 3.47113 -2.87791 0
M  V30 2464 C 232.997 3.51684 -3.28439 0
M  V30 2465 C 235.349 3.52808 -3.83635 0
M  V30 2466 C 232.677 3.59513 -4.63646 0
M  V30 2467 C 235.029 3.62169 -5.18668 0
M  V30 2468 C 233.693 3.65003 -5.58864 0
M  V30 2469 H 232.963 0.668441 -0.319794 0
M  V30 2470 H 235.61 1.30613 -1.40045 0
M  V30 2471 H 233.915 3.83894 -0.783122 0
M  V30 2472 H 235.612 3.83416 -1.17443 0
M  V30 2473 H 232.202 3.4423 -2.5535 0
M  V30 2474 H 236.386 3.4853 -3.53328 0
M  V30 2475 H 231.642 3.59987 -4.94185 0
M  V30 2476 H 235.816 3.6552 -5.92763 0
M  V30 2477 H 233.443 3.70822 -6.63623 0
M  V30 2478 N 235.018 0.912232 1.28515 0
M  V30 2479 C 236.248 0.559604 1.98877 0
M  V30 2480 C 236.656 -0.863113 1.68366 0
M  V30 2481 O 235.999 -1.58304 0.931969 0
M  V30 2482 C 236.061 0.68703 3.52874 0
M  V30 2483 C 235.725 2.07901 4.06972 0
M  V30 2484 C 236.722 3.05157 4.20922 0
M  V30 2485 C 234.407 2.39178 4.417 0
M  V30 2486 C 236.401 4.31806 4.68852 0
M  V30 2487 C 234.088 3.66068 4.89324 0
M  V30 2488 C 235.086 4.62195 5.02856 0
M  V30 2489 O 234.774 5.86829 5.49442 0
M  V30 2490 H 234.506 0.212191 0.641834 0
M  V30 2491 H 237.06 1.22712 1.64715 0
M  V30 2492 H 235.29 -0.0375486 3.86682 0
M  V30 2493 H 236.979 0.341727 4.04459 0
M  V30 2494 H 237.745 2.82311 3.94367 0
M  V30 2495 H 233.624 1.65109 4.30418 0
M  V30 2496 H 237.168 5.06842 4.79329 0
M  V30 2497 H 233.065 3.88739 5.15318 0
M  V30 2498 H 233.833 5.89597 5.6773 0
M  V30 2499 N 236.496 -1.42363 0.676048 0
M  V30 2500 C 237.912 -1.55811 0.345718 0
M  V30 2501 C 238.112 -1.65544 -1.14879 0
M  V30 2502 O 237.168 -1.62306 -1.93424 0
M  V30 2503 C 238.481 -2.80746 1.07713 0
M  V30 2504 C 240.029 -2.9452 1.05958 0
M  V30 2505 C 240.504 -4.22318 1.77233 0
M  V30 2506 N 241.995 -4.29233 1.74108 0
M  V30 2507 C 242.73 -5.26935 2.26113 0
M  V30 2508 N 242.226 -6.30783 2.86505 0
M  V30 2509 N 244.019 -5.18741 2.1648 0
M  V30 2510 H 236.17 -1.34289 1.6456 0
M  V30 2511 H 238.433 -0.646506 0.69335 0
M  V30 2512 H 238.139 -2.79696 2.13221 0
M  V30 2513 H 238.013 -3.71676 0.64316 0
M  V30 2514 H 240.4 -2.95097 0.0128255 0
M  V30 2515 H 240.481 -2.04817 1.53244 0
M  V30 2516 H 240.125 -4.22502 2.81877 0
M  V30 2517 H 240.055 -5.10958 1.27396 0
M  V30 2518 H 242.546 -3.54814 1.30059 0
M  V30 2519 H 242.859 -7.01691 3.23805 0
M  V30 2520 H 241.204 -6.31341 2.90575 0
M  V30 2521 H 244.395 -4.36533 1.68987 0
M  V30 2522 H 244.568 -5.94721 2.57316 0
M  V30 2523 N 237.974 -0.419461 -1.51915 0
M  V30 2524 C 239.199 0.154572 -2.06823 0
M  V30 2525 C 239.624 1.3722 -1.28656 0
M  V30 2526 O 238.982 1.78461 -0.319583 0
M  V30 2527 C 239.03 0.473172 -3.57482 0
M  V30 2528 O 238.134 1.56255 -3.81652 0
M  V30 2529 H 237.475 0.0096924 -0.663929 0
M  V30 2530 H 240.005 -0.595642 -1.95738 0
M  V30 2531 H 240.015 0.728825 -4.01438 0
M  V30 2532 H 238.69 -0.416873 -4.13805 0
M  V30 2533 H 237.267 1.29825 -3.49571 0
M  V30 2534 N 239.452 1.56882 -0.150215 0
M  V30 2535 C 240.399 2.16922 0.788244 0
M  V30 2536 C 241.369 1.10303 1.24187 0
M  V30 2537 O 242.554 1.38359 1.31383 0
M  V30 2538 C 239.694 2.79754 2.02068 0
M  V30 2539 C 238.807 4.00775 1.61257 0
M  V30 2540 C 237.942 4.51595 2.79705 0
M  V30 2541 C 236.981 5.65074 2.35282 0
M  V30 2542 N 236.118 6.10499 3.4675 0
M  V30 2543 H 240.958 2.96779 0.269444 0
M  V30 2544 H 238.495 1.46599 0.12128 0
M  V30 2545 H 240.453 3.14329 2.74323 0
M  V30 2546 H 239.083 2.02536 2.51354 0
M  V30 2547 H 238.135 3.72158 0.787553 0
M  V30 2548 H 239.447 4.82978 1.24633 0
M  V30 2549 H 238.601 4.88242 3.60145 0
M  V30 2550 H 237.34 3.68406 3.19576 0
M  V30 2551 H 236.345 5.28 1.53283 0
M  V30 2552 H 237.57 6.50052 1.96493 0
M  V30 2553 H 235.516 5.30243 3.86236 0
M  V30 2554 H 235.433 6.87637 3.14152 0
M  V30 2555 H 236.701 6.51791 4.27537 0
M  V30 2556 N 240.93 -0.123565 1.57115 0
M  V30 2557 C 242.16 -0.845233 1.88519 0
M  V30 2558 C 242.568 -1.74168 0.739064 0
M  V30 2559 O 241.911 -1.81244 -0.299355 0
M  V30 2560 C 241.973 -1.73452 3.14888 0
M  V30 2561 C 241.637 -1.01285 4.45635 0
M  V30 2562 C 242.634 -0.355774 5.18681 0
M  V30 2563 C 240.319 -0.99538 4.92339 0
M  V30 2564 C 242.313 0.309114 6.3665 0
M  V30 2565 C 240 -0.32669 6.10226 0
M  V30 2566 C 240.998 0.324406 6.82229 0
M  V30 2567 O 240.686 0.982437 7.97874 0
M  V30 2568 H 240.418 -0.248534 0.628655 0
M  V30 2569 H 242.972 -0.113907 2.05084 0
M  V30 2570 H 241.202 -2.50737 2.94394 0
M  V30 2571 H 242.891 -2.33021 3.32349 0
M  V30 2572 H 243.657 -0.360918 4.83655 0
M  V30 2573 H 239.536 -1.49159 4.36202 0
M  V30 2574 H 243.08 0.8179 6.92789 0
M  V30 2575 H 238.977 -0.319294 6.4471 0
M  V30 2576 H 239.745 0.886454 8.13686 0
M  V30 2577 N 242.408 -1.52605 -0.393616 0
M  V30 2578 C 243.636 -1.71294 -1.16043 0
M  V30 2579 C 244.051 -0.429259 -1.83855 0
M  V30 2580 O 243.408 0.595921 -1.72496 0
M  V30 2581 C 243.459 -2.8593 -2.21193 0
M  V30 2582 O 243.18 -4.09329 -1.56146 0
M  V30 2583 C 244.681 -3.16259 -3.10636 0
M  V30 2584 H 241.901 -0.573641 -0.348104 0
M  V30 2585 H 244.445 -1.99234 -0.461092 0
M  V30 2586 H 242.6 -2.60465 -2.86769 0
M  V30 2587 H 243.014 -4.73323 -2.25978 0
M  V30 2588 H 244.488 -3.99946 -3.80456 0
M  V30 2589 H 244.965 -2.3045 -3.73884 0
M  V30 2590 H 245.571 -3.43547 -2.50711 0
M  V30 2591 N 243.887 0.651787 -1.4349 0
M  V30 2592 C 245.115 1.43937 -1.48626 0
M  V30 2593 C 245.53 1.8851 -0.104587 0
M  V30 2594 O 244.887 1.5958 0.885464 0
M  V30 2595 C 244.938 2.6734 -2.43334 0
M  V30 2596 O 244.659 2.24631 -3.76128 0
M  V30 2597 C 246.16 3.60683 -2.57726 0
M  V30 2598 H 243.38 0.44213 -0.504739 0
M  V30 2599 H 245.924 0.798944 -1.88248 0
M  V30 2600 H 244.079 3.2752 -2.06904 0
M  V30 2601 H 244.493 3.04485 -4.2707 0
M  V30 2602 H 245.967 4.43933 -3.28067 0
M  V30 2603 H 246.444 4.08126 -1.62265 0
M  V30 2604 H 247.05 3.06384 -2.94973 0
M  V30 2605 N 245.365 1.30045 0.890287 0
M  V30 2606 C 246.776 1.16738 1.45702 0
M  V30 2607 C 247.127 -0.233939 1.948 0
M  V30 2608 O 246.252 -1.13021 1.84541 0
M  V30 2609 C 246.847 2.11313 2.64825 0
M  V30 2610 C 245.406 2.02001 3.17604 0
M  V30 2611 C 244.553 2.01699 1.90296 0
M  V30 2612 H 247.504 1.42392 0.700726 0
M  V30 2613 H 247.525 1.69086 3.40867 0
M  V30 2614 H 247.037 3.13294 2.2906 0
M  V30 2615 H 245.138 1.03142 3.5804 0
M  V30 2616 H 245.251 2.90128 3.81264 0
M  V30 2617 H 243.615 1.46427 2.08402 0
M  V30 2618 H 244.398 3.05402 1.56795 0
M  V30 2619 N 246.843 -1.10192 1.12674 0
M  V30 2620 C 248.068 -1.86523 0.906853 0
M  V30 2621 C 248.493 -1.80221 -0.538711 0
M  V30 2622 O 247.851 -1.17396 -1.38158 0
M  V30 2623 C 247.899 -3.32758 1.3894 0
M  V30 2624 O 247.003 -4.08449 0.5695 0
M  V30 2625 H 246.344 -0.578678 0.325619 0
M  V30 2626 H 248.874 -1.39203 1.49946 0
M  V30 2627 H 248.884 -3.83608 1.38958 0
M  V30 2628 H 247.559 -3.36661 2.44197 0
M  V30 2629 H 246.136 -3.67427 0.636528 0
M  V30 2630 N 248.321 -0.919034 -1.28029 0
M  V30 2631 C 249.569 -0.553838 -1.94363 0
M  V30 2632 C 249.89 0.906357 -1.72656 0
M  V30 2633 O 249.16 1.64143 -1.0693 0
M  V30 2634 H 247.74 -0.201834 -0.719216 0
M  V30 2635 H 250.402 -1.16954 -1.55909 0
M  V30 2636 H 249.498 -0.752758 -3.02886 0
M  V30 2637 N 249.799 1.42003 -0.683588 0
M  V30 2638 C 250.709 2.34597 -0.0109075 0
M  V30 2639 C 251.725 1.55576 0.779245 0
M  V30 2640 O 252.901 1.88107 0.719555 0
M  V30 2641 C 249.966 3.34199 0.922588 0
M  V30 2642 C 249.027 4.29115 0.125984 0
M  V30 2643 C 248.26 5.23959 1.01502 0
M  V30 2644 O 248.483 5.23952 2.25456 0
M  V30 2645 O 247.417 6.00053 0.47111 0
M  V30 2646 H 251.243 2.93675 -0.773853 0
M  V30 2647 H 248.828 1.42654 -0.443861 0
M  V30 2648 H 250.71 3.95365 1.45823 0
M  V30 2649 H 249.385 2.77582 1.66523 0
M  V30 2650 H 248.292 3.71335 -0.453969 0
M  V30 2651 H 249.625 4.88798 -0.577736 0
M  V30 2652 N 251.277 0.427512 1.51691 0
M  V30 2653 C 252.523 -0.142439 2.02299 0
M  V30 2654 C 252.856 -1.43214 1.31162 0
M  V30 2655 O 252.131 -1.89833 0.423511 0
M  V30 2656 C 252.414 -0.371301 3.58181 0
M  V30 2657 C 252.267 0.936358 4.39946 0
M  V30 2658 C 253.586 -1.14542 4.24933 0
M  V30 2659 H 250.705 -0.0502937 0.735282 0
M  V30 2660 H 253.347 0.564584 1.81418 0
M  V30 2661 H 251.497 -0.973559 3.76104 0
M  V30 2662 H 253.169 1.57184 4.33694 0
M  V30 2663 H 251.412 1.5432 4.05423 0
M  V30 2664 H 252.083 0.730388 5.47147 0
M  V30 2665 H 254.559 -0.635362 4.11221 0
M  V30 2666 H 253.435 -1.27431 5.33903 0
M  V30 2667 H 253.696 -2.17093 3.85127 0
M  V30 2668 N 252.755 -1.56801 0.158532 0
M  V30 2669 C 254.171 -1.5837 -0.197774 0
M  V30 2670 C 254.371 -1.17334 -1.63814 0
M  V30 2671 O 253.427 -0.878988 -2.36707 0
M  V30 2672 C 254.74 -3.00615 0.0714459 0
M  V30 2673 C 256.288 -3.12999 0.00864533 0
M  V30 2674 C 256.763 -4.57313 0.250685 0
M  V30 2675 N 258.254 -4.62777 0.198014 0
M  V30 2676 C 258.989 -5.72271 0.359642 0
M  V30 2677 N 258.485 -6.90371 0.579625 0
M  V30 2678 N 260.278 -5.61318 0.296438 0
M  V30 2679 H 252.429 -1.81765 1.09887 0
M  V30 2680 H 254.692 -0.841849 0.435884 0
M  V30 2681 H 254.398 -3.35068 1.06874 0
M  V30 2682 H 254.272 -3.71683 -0.642757 0
M  V30 2683 H 256.659 -2.7838 -0.979217 0
M  V30 2684 H 256.74 -2.44393 0.755359 0
M  V30 2685 H 256.384 -4.92639 1.2357 0
M  V30 2686 H 256.314 -5.24061 -0.516489 0
M  V30 2687 H 258.805 -3.77885 0.0331115 0
M  V30 2688 H 259.118 -7.69689 0.69275 0
M  V30 2689 H 257.463 -6.92264 0.616087 0
M  V30 2690 H 260.654 -4.67932 0.125258 0
M  V30 2691 H 260.827 -6.46599 0.425831 0
M  V30 2692 N 254.233 0.115231 -1.57178 0
M  V30 2693 C 255.463 0.835224 -1.88964 0
M  V30 2694 C 255.871 1.73774 -0.74829 0
M  V30 2695 O 255.214 1.81401 0.289739 0
M  V30 2696 C 255.276 1.7178 -3.15804 0
M  V30 2697 C 254.94 0.989198 -4.46166 0
M  V30 2698 C 255.937 0.328263 -5.18863 0
M  V30 2699 C 253.622 0.969256 -4.9286 0
M  V30 2700 C 255.616 -0.342873 -6.36477 0
M  V30 2701 C 253.303 0.294324 -6.10391 0
M  V30 2702 C 254.301 -0.360582 -6.82048 0
M  V30 2703 O 253.989 -1.02474 -7.97342 0
M  V30 2704 H 253.721 0.245197 -0.629964 0
M  V30 2705 H 256.275 0.10303 -2.05141 0
M  V30 2706 H 254.505 2.49173 -2.95719 0
M  V30 2707 H 256.194 2.31255 -3.33581 0
M  V30 2708 H 256.96 0.335263 -4.8384 0
M  V30 2709 H 252.839 1.46844 -4.36987 0
M  V30 2710 H 256.383 -0.854629 -6.92345 0
M  V30 2711 H 252.28 0.285099 -6.4487 0
M  V30 2712 H 253.048 -0.929594 -8.13204 0
M  V30 2713 N 255.711 1.52812 0.385517 0
M  V30 2714 C 256.674 1.77188 1.45386 0
M  V30 2715 C 257.674 0.641953 1.4743 0
M  V30 2716 O 258.864 0.910033 1.4854 0
M  V30 2717 C 255.996 1.87582 2.8465 0
M  V30 2718 H 257.189 2.72583 1.25054 0
M  V30 2719 H 254.742 1.43586 0.617467 0
M  V30 2720 H 255.477 0.941849 3.10322 0
M  V30 2721 H 255.262 2.69748 2.84567 0
M  V30 2722 H 256.752 2.08102 3.62054 0
M  V30 2723 N 257.189 -0.644168 1.43834 0
M  V30 2724 C 258.152 -1.73857 1.49353 0
M  V30 2725 C 259.152 -1.56315 0.377112 0
M  V30 2726 O 260.342 -1.62048 0.639226 0
M  V30 2727 C 257.474 -3.12819 1.35488 0
M  V30 2728 H 258.667 -1.70342 2.46827 0
M  V30 2729 H 256.22 -0.856652 1.30733 0
M  V30 2730 H 256.955 -3.2194 0.390569 0
M  V30 2731 H 256.74 -3.26958 2.16428 0
M  V30 2732 H 258.23 -3.92606 1.42302 0
M  V30 2733 N 258.668 -1.30515 -0.883378 0
M  V30 2734 C 259.914 -1.19607 -1.63774 0
M  V30 2735 C 260.247 0.248314 -1.92606 0
M  V30 2736 O 259.522 1.17742 -1.54813 0
M  V30 2737 C 259.805 -2.02669 -2.97653 0
M  V30 2738 C 259.658 -3.55335 -2.75784 0
M  V30 2739 C 260.977 -1.86573 -3.98596 0
M  V30 2740 H 258.096 -0.435856 -0.594305 0
M  V30 2741 H 260.738 -1.60165 -1.02212 0
M  V30 2742 H 258.888 -1.68208 -3.50197 0
M  V30 2743 H 260.56 -3.99863 -2.30016 0
M  V30 2744 H 258.803 -3.79438 -2.1026 0
M  V30 2745 H 259.474 -4.08745 -3.70988 0
M  V30 2746 H 261.95 -2.16703 -3.55217 0
M  V30 2747 H 260.826 -2.47014 -4.90179 0
M  V30 2748 H 261.087 -0.825321 -4.34328 0
M  V30 2749 N 260.146 1.09593 -1.13257 0
M  V30 2750 C 261.374 1.855 -0.916378 0
M  V30 2751 C 261.789 1.81069 0.534738 0
M  V30 2752 O 261.146 1.20562 1.37007 0
M  V30 2753 C 261.197 3.33546 -1.39388 0
M  V30 2754 O 260.918 3.37927 -2.78813 0
M  V30 2755 C 262.419 4.26299 -1.21588 0
M  V30 2756 H 259.639 0.585991 -0.326887 0
M  V30 2757 H 262.183 1.38488 -1.5047 0
M  V30 2758 H 260.338 3.77992 -0.848597 0
M  V30 2759 H 260.752 4.30254 -2.9997 0
M  V30 2760 H 262.226 5.28341 -1.59876 0
M  V30 2761 H 262.703 4.38918 -0.157376 0
M  V30 2762 H 263.309 3.87668 -1.7491 0
M  V30 2763 N 261.624 0.925811 1.2754 0
M  V30 2764 C 262.556 0.380753 2.26015 0
M  V30 2765 C 263.569 -0.487485 1.5533 0
M  V30 2766 O 264.758 -0.300413 1.75954 0
M  V30 2767 C 261.858 -0.473259 3.35579 0
M  V30 2768 C 261.031 0.375249 4.35787 0
M  V30 2769 C 260.09 -0.415809 5.24555 0
M  V30 2770 O 259.116 0.175834 5.68928 0
M  V30 2771 N 260.318 -1.71607 5.54555 0
M  V30 2772 H 263.083 1.22725 2.73421 0
M  V30 2773 H 260.644 0.793037 1.41147 0
M  V30 2774 H 262.636 -1.00949 3.91907 0
M  V30 2775 H 261.206 -1.2205 2.87789 0
M  V30 2776 H 260.426 1.09279 3.7875 0
M  V30 2777 H 261.714 0.955399 4.99749 0
M  V30 2778 H 261.112 -2.2191 5.20358 0
M  V30 2779 H 259.669 -2.19887 6.1359 0
M  V30 2780 N 263.102 -1.41638 0.69111 0
M  V30 2781 C 264.349 -2.01299 0.220193 0
M  V30 2782 C 264.677 -1.54715 -1.17871 0
M  V30 2783 O 263.932 -0.747193 -1.80874 0
M  V30 2784 C 264.231 -3.56714 0.221277 0
M  V30 2785 C 263.897 -4.22792 1.56709 0
M  V30 2786 C 262.559 -4.40557 1.93554 0
M  V30 2787 C 264.911 -4.59883 2.45268 0
M  V30 2788 C 262.239 -4.92688 3.18552 0
M  V30 2789 C 264.591 -5.13403 3.69595 0
M  V30 2790 C 263.255 -5.29379 4.06589 0
M  V30 2791 H 262.525 -0.736606 0.0805743 0
M  V30 2792 H 265.172 -1.69598 0.889319 0
M  V30 2793 H 263.477 -3.8818 -0.531391 0
M  V30 2794 H 265.174 -4.00678 -0.160547 0
M  V30 2795 H 261.764 -4.09336 1.2705 0
M  V30 2796 H 265.948 -4.45817 2.18084 0
M  V30 2797 H 261.204 -5.03242 3.47214 0
M  V30 2798 H 265.378 -5.41084 4.38407 0
M  V30 2799 H 263.005 -5.69537 5.03519 0
M  V30 2800 N 264.58 -0.43555 -1.51462 0
M  V30 2801 C 265.49 0.383001 -2.31453 0
M  V30 2802 C 266.506 1.02931 -1.4029 0
M  V30 2803 O 267.682 1.02507 -1.73362 0
M  V30 2804 C 264.747 1.47043 -3.13973 0
M  V30 2805 C 263.808 0.844433 -4.20913 0
M  V30 2806 C 263.041 1.88004 -4.9949 0
M  V30 2807 O 263.264 3.10199 -4.78678 0
M  V30 2808 O 262.198 1.47157 -5.83634 0
M  V30 2809 H 266.024 -0.269964 -3.02498 0
M  V30 2810 H 263.609 -0.19813 -1.4808 0
M  V30 2811 H 265.491 2.10113 -3.65281 0
M  V30 2812 H 264.166 2.10751 -2.45695 0
M  V30 2813 H 263.073 0.175729 -3.73687 0
M  V30 2814 H 264.406 0.250869 -4.9156 0
M  V30 2815 N 266.058 1.56714 -0.166846 0
M  V30 2816 C 267.021 2.16539 0.751232 0
M  V30 2817 C 268.021 1.11228 1.16125 0
M  V30 2818 O 269.211 1.36765 1.07894 0
M  V30 2819 C 266.343 2.74462 2.02196 0
M  V30 2820 H 267.536 2.99013 0.230499 0
M  V30 2821 H 265.089 1.56081 0.0826982 0
M  V30 2822 H 265.824 1.95709 2.58589 0
M  V30 2823 H 265.609 3.51527 1.73698 0
M  V30 2824 H 267.099 3.20489 2.67725 0
M  V30 2825 N 267.536 -0.106894 1.57237 0
M  V30 2826 C 268.764 -0.826389 1.8968 0
M  V30 2827 C 269.179 -1.72856 0.759353 0
M  V30 2828 O 268.536 -1.80503 -0.269263 0
M  V30 2829 C 268.587 -1.64967 3.21665 0
M  V30 2830 O 268.308 -0.783804 4.31031 0
M  V30 2831 C 269.809 -2.47326 3.67892 0
M  V30 2832 H 267.029 -0.236927 0.627779 0
M  V30 2833 H 269.573 -0.0876593 2.04312 0
M  V30 2834 H 267.728 -2.34103 3.08666 0
M  V30 2835 H 268.142 -1.35284 5.06753 0
M  V30 2836 H 269.616 -3.00604 4.6297 0
M  V30 2837 H 270.093 -3.25247 2.95146 0
M  V30 2838 H 270.699 -1.83411 3.83719 0
M  V30 2839 N 269.014 -1.53014 -0.377408 0
M  V30 2840 C 270.291 -1.59215 -1.13622 0
M  V30 2841 C 270.671 -0.392407 -2.07421 0
M  V30 2842 O 270.019 0.618342 -2.19975 0
M  V30 2843 C 270.229 -2.93669 -1.88573 0
M  V30 2844 C 271.577 -3.47822 -2.43526 0
M  V30 2845 O 272.601 -2.9562 -1.98715 0
M  V30 2846 O 271.46 -4.39055 -3.25412 0
M  V30 2847 H 268.554 -0.642625 -0.52054 0
M  V30 2848 H 271.1 -1.65353 -0.381625 0
M  V30 2849 H 269.872 -3.7243 -1.20048 0
M  V30 2850 H 269.495 -2.90968 -2.70968 0
M  V30 2851 N 270.492 0.636531 -1.44174 0
M  V30 2852 C 271.455 1.73063 -1.50273 0
M  V30 2853 C 272.455 1.56113 -0.385397 0
M  V30 2854 O 273.645 1.61707 -0.64781 0
M  V30 2855 C 270.777 3.12096 -1.37145 0
M  V30 2856 H 271.97 1.69031 -2.47727 0
M  V30 2857 H 269.523 0.849706 -1.31186 0
M  V30 2858 H 270.258 3.21728 -0.407636 0
M  V30 2859 H 270.043 3.25805 -2.18159 0
M  V30 2860 H 271.533 3.91846 -1.44382 0
M  V30 2861 N 271.97 1.30982 0.876444 0
M  V30 2862 C 273.386 1.09498 1.16113 0
M  V30 2863 C 273.586 -0.13875 2.01022 0
M  V30 2864 O 272.642 -0.829935 2.38471 0
M  V30 2865 C 273.955 2.36308 1.85954 0
M  V30 2866 C 275.503 2.41856 1.98683 0
M  V30 2867 C 275.978 3.6853 2.71937 0
M  V30 2868 N 277.469 3.69387 2.79477 0
M  V30 2869 C 278.204 4.64096 3.36753 0
M  V30 2870 N 277.7 5.69155 3.95012 0
M  V30 2871 N 279.493 4.51626 3.3465 0
M  V30 2872 H 271.644 2.10118 0.310494 0
M  V30 2873 H 273.907 0.926634 0.200131 0
M  V30 2874 H 273.613 3.26388 1.31011 0
M  V30 2875 H 273.487 2.4561 2.86278 0
M  V30 2876 H 275.874 1.52249 2.52793 0
M  V30 2877 H 275.955 2.36523 0.9742 0
M  V30 2878 H 275.599 4.58499 2.18496 0
M  V30 2879 H 275.529 3.71127 3.73593 0
M  V30 2880 H 278.02 2.93438 2.38123 0
M  V30 2881 H 278.333 6.3751 4.36808 0
M  V30 2882 H 276.678 5.72937 3.93406 0
M  V30 2883 H 279.869 3.68728 2.8837 0
M  V30 2884 H 280.042 5.25614 3.7899 0
M  V30 2885 N 273.449 -1.08991 1.13837 0
M  V30 2886 C 274.865 -1.33312 0.877506 0
M  V30 2887 C 275.065 -1.95587 -0.48456 0
M  V30 2888 O 274.121 -2.20509 -1.23013 0
M  V30 2889 C 275.434 -2.24045 2.0056 0
M  V30 2890 C 276.982 -2.37542 2.03821 0
M  V30 2891 C 277.457 -3.31614 3.15905 0
M  V30 2892 N 278.948 -3.39189 3.15445 0
M  V30 2893 C 279.683 -4.11992 3.98811 0
M  V30 2894 N 279.179 -4.87553 4.92203 0
M  V30 2895 N 280.972 -4.07762 3.86894 0
M  V30 2896 H 273.123 -0.669456 2.01574 0
M  V30 2897 H 275.386 -0.357482 0.878015 0
M  V30 2898 H 275.092 -1.85521 2.98789 0
M  V30 2899 H 274.966 -3.24466 1.92359 0
M  V30 2900 H 277.353 -2.75327 1.06202 0
M  V30 2901 H 277.434 -1.36884 2.16093 0
M  V30 2902 H 277.078 -2.94551 4.13766 0
M  V30 2903 H 277.008 -4.32186 3.0087 0
M  V30 2904 H 279.499 -2.85314 2.47799 0
M  V30 2905 H 279.812 -5.40549 5.52292 0
M  V30 2906 H 278.157 -4.86627 4.96205 0
M  V30 2907 H 281.348 -3.47833 3.13257 0
M  V30 2908 H 281.521 -4.64238 4.52092 0
M  V30 2909 N 274.927 -0.932562 -1.27047 0
M  V30 2910 C 275.89 -0.440064 -2.24936 0
M  V30 2911 C 276.89 0.444071 -1.54547 0
M  V30 2912 O 278.08 0.244465 -1.72476 0
M  V30 2913 C 275.212 0.36678 -3.38921 0
M  V30 2914 H 276.405 -1.305 -2.70018 0
M  V30 2915 H 273.958 -0.713707 -1.39054 0
M  V30 2916 H 274.693 1.25033 -2.99228 0
M  V30 2917 H 274.478 -0.267204 -3.91188 0
M  V30 2918 H 275.968 0.701567 -4.11665 0
M  V30 2919 N 276.405 1.4127 -0.698611 0
M  V30 2920 C 277.652 2.0118 -0.230865 0
M  V30 2921 C 277.98 1.55338 1.17049 0
M  V30 2922 O 277.235 0.756775 1.80475 0
M  V30 2923 C 277.534 3.56592 -0.240192 0
M  V30 2924 C 277.2 4.21955 -1.58948 0
M  V30 2925 C 275.862 4.39524 -1.95887 0
M  V30 2926 C 278.214 4.58576 -2.47704 0
M  V30 2927 C 275.542 4.90992 -3.2116 0
M  V30 2928 C 277.894 5.11435 -3.72313 0
M  V30 2929 C 276.558 5.27215 -4.0939 0
M  V30 2930 H 275.828 0.736169 -0.0844796 0
M  V30 2931 H 278.475 1.69124 -0.8983 0
M  V30 2932 H 276.78 3.88456 0.510797 0
M  V30 2933 H 278.477 4.00758 0.139296 0
M  V30 2934 H 275.067 4.08657 -1.29219 0
M  V30 2935 H 279.251 4.44654 -2.20445 0
M  V30 2936 H 274.507 5.01393 -3.49878 0
M  V30 2937 H 278.681 5.38752 -4.4127 0
M  V30 2938 H 276.308 5.66859 -5.06533 0
M  V30 2939 N 277.883 0.443576 1.51229 0
M  V30 2940 C 279.294 -0.0180867 1.86691 0
M  V30 2941 C 279.645 -1.41384 1.36033 0
M  V30 2942 O 278.77 -2.04291 0.713722 0
M  V30 2943 C 279.365 -0.039597 3.38777 0
M  V30 2944 C 277.924 -0.445692 3.73752 0
M  V30 2945 C 277.071 0.357584 2.74985 0
M  V30 2946 H 280.022 0.659138 1.44364 0
M  V30 2947 H 280.043 -0.847761 3.70936 0
M  V30 2948 H 279.555 0.976382 3.75617 0
M  V30 2949 H 277.656 -1.46704 3.42503 0
M  V30 2950 H 277.769 -0.166155 4.78812 0
M  V30 2951 H 276.133 -0.184973 2.54027 0
M  V30 2952 H 276.916 1.37256 3.14668 0
M  V30 2953 N 279.361 -1.56624 0.175154 0
M  V30 2954 C 280.601 -1.98894 -0.471221 0
M  V30 2955 C 280.965 -1.05889 -1.60161 0
M  V30 2956 O 282.166 -1.37315 -2.3108 0
M  V30 2957 C 280.437 -3.44865 -0.938241 0
M  V30 2958 S 281.996 -4.09164 -1.58526 0
M  V30 2959 H 278.814 -0.694686 -0.151434 0
M  V30 2960 H 281.416 -1.93577 0.27352 0
M  V30 2961 H 280.12 -4.10265 -0.10518 0
M  V30 2962 H 279.651 -3.53956 -1.71693 0
M  V30 2963 H 281.666 -4.04528 -2.87352 0
M  V30 2964 N 280.839 0.0985539 -1.57292 0
M  V30 2965 C 282.085 0.798769 -1.87059 0
M  V30 2966 C 282.44 1.76514 -0.76555 0
M  V30 2967 O 281.733 1.90181 0.232752 0
M  V30 2968 C 281.927 1.56927 -3.21105 0
M  V30 2969 C 281.756 0.679026 -4.44544 0
M  V30 2970 C 280.526 0.326071 -5.04247 0
M  V30 2971 C 282.724 -0.0124715 -5.14298 0
M  V30 2972 N 280.706 -0.572702 -6.11223 0
M  V30 2973 C 282.077 -0.769446 -6.15207 0
M  V30 2974 C 284.132 -0.0867545 -4.97824 0
M  V30 2975 C 282.835 -1.59376 -7.01421 0
M  V30 2976 C 284.861 -0.897955 -5.84543 0
M  V30 2977 C 284.223 -1.64306 -6.84969 0
M  V30 2978 H 280.322 0.268568 -0.734435 0
M  V30 2979 H 282.906 0.0614664 -1.94603 0
M  V30 2980 H 281.077 2.27748 -3.1462 0
M  V30 2981 H 282.809 2.21641 -3.38611 0
M  V30 2982 H 279.564 0.67295 -4.68795 0
M  V30 2983 H 279.988 -1.01454 -6.69355 0
M  V30 2984 H 284.63 0.474963 -4.20124 0
M  V30 2985 H 282.348 -2.16655 -7.78515 0
M  V30 2986 H 285.934 -0.958059 -5.73858 0
M  V30 2987 H 284.814 -2.26065 -7.50909 0
M  V30 2988 N 282.317 1.53212 0.369288 0
M  V30 2989 C 283.594 1.59815 1.12776 0
M  V30 2990 C 283.974 0.403402 2.0721 0
M  V30 2991 O 283.322 -0.606667 2.20299 0
M  V30 2992 C 283.532 2.94664 1.87013 0
M  V30 2993 C 284.88 3.49109 2.41677 0
M  V30 2994 O 285.904 2.96669 1.97144 0
M  V30 2995 O 284.763 4.40775 3.23079 0
M  V30 2996 H 281.857 0.645376 0.517125 0
M  V30 2997 H 284.403 1.65553 0.37285 0
M  V30 2998 H 283.175 3.73061 1.18071 0
M  V30 2999 H 282.798 2.92401 2.69421 0
M  V30 3000 N 283.795 -0.628877 1.44509 0
M  V30 3001 C 284.705 -1.7694 1.54044 0
M  V30 3002 C 285.721 -1.68705 0.425987 0
M  V30 3003 O 286.897 -1.89442 0.683656 0
M  V30 3004 C 283.962 -3.13332 1.48405 0
M  V30 3005 C 283.023 -3.33181 2.70719 0
M  V30 3006 C 282.256 -4.63067 2.6534 0
M  V30 3007 O 282.479 -5.44017 1.71469 0
M  V30 3008 O 281.413 -4.85167 3.56226 0
M  V30 3009 H 285.239 -1.71848 2.50403 0
M  V30 3010 H 282.824 -0.790378 1.26781 0
M  V30 3011 H 284.706 -3.94634 1.47791 0
M  V30 3012 H 283.381 -3.1896 0.551898 0
M  V30 3013 H 282.288 -2.51549 2.769 0
M  V30 3014 H 283.621 -3.32416 3.62988 0
M  V30 3015 N 285.273 -1.31445 -0.869486 0
M  V30 3016 C 286.684 -1.19042 -1.43826 0
M  V30 3017 C 287.035 0.202919 -1.95148 0
M  V30 3018 O 286.16 1.10071 -1.86315 0
M  V30 3019 C 286.755 -2.15499 -2.6143 0
M  V30 3020 C 285.314 -2.07028 -3.14351 0
M  V30 3021 C 284.461 -2.04701 -1.87063 0
M  V30 3022 H 287.412 -1.43489 -0.677984 0
M  V30 3023 H 287.433 -1.74488 -3.38134 0
M  V30 3024 H 286.945 -3.16899 -2.24046 0
M  V30 3025 H 285.046 -1.08825 -3.56354 0
M  V30 3026 H 285.159 -2.96157 -3.766 0
M  V30 3027 H 283.523 -1.49724 -2.06046 0
M  V30 3028 H 284.306 -3.07857 -1.51917 0
M  V30 3029 N 286.751 1.08385 -1.14413 0
M  V30 3030 C 287.714 2.13486 -0.834048 0
M  V30 3031 C 288.714 1.59988 0.161418 0
M  V30 3032 O 289.904 1.74071 -0.0669575 0
M  V30 3033 C 287.036 3.4003 -0.243354 0
M  V30 3034 H 288.229 2.42425 -1.7655 0
M  V30 3035 H 285.782 1.24101 -0.950189 0
M  V30 3036 H 286.517 3.16726 0.696807 0
M  V30 3037 H 286.302 3.80157 -0.960367 0
M  V30 3038 H 287.792 4.17577 -0.0436242 0
M  V30 3039 N 288.23 0.939286 1.26551 0
M  V30 3040 C 289.479 0.581601 1.93133 0
M  V30 3041 C 289.792 -0.883224 1.74524 0
M  V30 3042 O 290.998 -1.3502 2.35546 0
M  V30 3043 C 289.454 0.989425 3.46032 0
M  V30 3044 C 289.062 2.47573 3.73379 0
M  V30 3045 C 290.806 0.703544 4.18629 0
M  V30 3046 C 288.713 2.82235 5.19709 0
M  V30 3047 H 287.643 0.213803 0.723052 0
M  V30 3048 H 290.294 1.14167 1.4366 0
M  V30 3049 H 288.676 0.357902 3.94379 0
M  V30 3050 H 289.85 3.15614 3.35744 0
M  V30 3051 H 288.165 2.73471 3.1401 0
M  V30 3052 H 290.762 0.938869 5.26393 0
M  V30 3053 H 291.105 -0.359639 4.14744 0
M  V30 3054 H 291.638 1.2947 3.76141 0
M  V30 3055 H 288.377 3.87509 5.28694 0
M  V30 3056 H 287.897 2.18854 5.58447 0
M  V30 3057 H 289.576 2.70599 5.87695 0
M  V30 3058 N 289.708 -1.40897 0.706093 0
M  V30 3059 C 290.655 -2.30751 0.0474474 0
M  V30 3060 C 291.625 -1.47678 -0.76029 0
M  V30 3061 O 292.81 -1.76441 -0.726177 0
M  V30 3062 C 289.95 -3.33815 -0.875309 0
M  V30 3063 C 289.063 -4.31961 -0.0580623 0
M  V30 3064 C 288.198 -5.22093 -0.979425 0
M  V30 3065 C 287.237 -6.11902 -0.155706 0
M  V30 3066 N 286.374 -6.94482 -1.03144 0
M  V30 3067 H 291.214 -2.86513 0.819413 0
M  V30 3068 H 288.751 -1.41102 0.415783 0
M  V30 3069 H 290.709 -3.92129 -1.42446 0
M  V30 3070 H 289.339 -2.79579 -1.61356 0
M  V30 3071 H 288.391 -3.75507 0.608147 0
M  V30 3072 H 289.703 -4.95415 0.580082 0
M  V30 3073 H 288.857 -5.85292 -1.59744 0
M  V30 3074 H 287.596 -4.5889 -1.65141 0
M  V30 3075 H 286.601 -5.47742 0.475309 0
M  V30 3076 H 287.826 -6.77162 0.512635 0
M  V30 3077 H 285.772 -6.33877 -1.68924 0
M  V30 3078 H 285.689 -7.54665 -0.449108 0
M  V30 3079 H 286.957 -7.6214 -1.63593 0
M  V30 3080 N 291.186 -0.45159 -1.50991 0
M  V30 3081 C 292.149 0.341117 -2.26647 0
M  V30 3082 C 293.149 0.937422 -1.30649 0
M  V30 3083 O 294.339 0.809644 -1.54241 0
M  V30 3084 C 291.471 1.48398 -3.06905 0
M  V30 3085 H 292.664 -0.322117 -2.98165 0
M  V30 3086 H 290.217 -0.205122 -1.54948 0
M  V30 3087 H 290.952 2.18284 -2.39838 0
M  V30 3088 H 290.737 1.06241 -3.77432 0
M  V30 3089 H 292.227 2.04367 -3.64176 0
M  V30 3090 N 292.664 1.56529 -0.183458 0
M  V30 3091 C 293.892 2.01623 0.464285 0
M  V30 3092 C 294.307 1.06366 1.55986 0
M  V30 3093 O 293.664 0.0665398 1.82379 0
M  V30 3094 C 293.715 3.46475 1.03139 0
M  V30 3095 O 293.436 4.38095 -0.0204675 0
M  V30 3096 C 294.937 4.0703 1.75617 0
M  V30 3097 H 292.157 0.660596 0.117704 0
M  V30 3098 H 294.701 2.02451 -0.288751 0
M  V30 3099 H 292.856 3.46383 1.73486 0
M  V30 3100 H 293.27 5.22973 0.399952 0
M  V30 3101 H 294.744 5.10271 2.10542 0
M  V30 3102 H 295.221 3.49819 2.65563 0
M  V30 3103 H 295.827 4.1086 1.09882 0
M  V30 3104 N 294.142 -0.090211 1.57342 0
M  V30 3105 C 295.389 -0.792807 1.86335 0
M  V30 3106 C 295.717 -1.78494 0.772662 0
M  V30 3107 O 294.972 -1.94305 -0.233258 0
M  V30 3108 C 295.271 -1.55222 3.21933 0
M  V30 3109 C 294.937 -0.701765 4.45406 0
M  V30 3110 C 293.599 -0.467334 4.78925 0
M  V30 3111 C 295.951 -0.11086 5.21082 0
M  V30 3112 C 293.279 0.367785 5.85546 0
M  V30 3113 C 295.631 0.711609 6.28585 0
M  V30 3114 C 294.295 0.956086 6.60617 0
M  V30 3115 H 293.565 -0.290109 0.681849 0
M  V30 3116 H 296.212 -0.0541332 1.91423 0
M  V30 3117 H 294.517 -2.3626 3.12551 0
M  V30 3118 H 296.214 -2.10032 3.41595 0
M  V30 3119 H 292.804 -0.894598 4.1916 0
M  V30 3120 H 296.988 -0.279129 4.95514 0
M  V30 3121 H 292.244 0.566128 6.08773 0
M  V30 3122 H 296.418 1.17632 6.86393 0
M  V30 3123 H 294.045 1.60499 7.43064 0
M  V30 3124 N 295.62 -1.53406 -0.361157 0
M  V30 3125 C 296.897 -1.60411 -1.11927 0
M  V30 3126 C 297.277 -0.414385 -2.06993 0
M  V30 3127 O 296.625 0.594976 -2.20618 0
M  V30 3128 C 296.835 -2.95652 -1.85448 0
M  V30 3129 C 298.183 -3.50386 -2.39823 0
M  V30 3130 O 299.207 -2.97711 -1.95568 0
M  V30 3131 O 298.066 -4.42482 -3.20737 0
M  V30 3132 H 295.16 -0.64811 -0.513695 0
M  V30 3133 H 297.706 -1.65749 -0.364065 0
M  V30 3134 H 296.478 -3.73682 -1.16091 0
M  V30 3135 H 296.101 -2.93825 -2.67866 0
M  V30 3136 N 297.098 0.621204 -1.44841 0
M  V30 3137 C 298.347 1.37658 -1.47422 0
M  V30 3138 C 298.66 1.95264 -0.114629 0
M  V30 3139 O 299.866 2.71494 -0.0180199 0
M  V30 3140 C 298.322 2.49285 -2.59586 0
M  V30 3141 C 297.93 1.98149 -4.01797 0
M  V30 3142 C 299.674 3.26409 -2.71399 0
M  V30 3143 C 297.581 3.07178 -5.05367 0
M  V30 3144 H 296.511 0.517344 -0.548517 0
M  V30 3145 H 299.162 0.667257 -1.70938 0
M  V30 3146 H 297.544 3.22839 -2.29328 0
M  V30 3147 H 298.718 1.31395 -4.41669 0
M  V30 3148 H 297.033 1.33812 -3.94314 0
M  V30 3149 H 299.63 4.07706 -3.45948 0
M  V30 3150 H 299.973 3.76535 -1.77559 0
M  V30 3151 H 300.506 2.5995 -3.01116 0
M  V30 3152 H 297.245 2.61985 -6.00869 0
M  V30 3153 H 296.765 3.72542 -4.70077 0
M  V30 3154 H 298.444 3.71789 -5.29511 0
M  V30 3155 N 298.576 1.31904 0.862503 0
M  V30 3156 C 299.801 1.25135 1.65397 0
M  V30 3157 C 300.226 -0.179 1.87246 0
M  V30 3158 O 299.584 -1.1277 1.4196 0
M  V30 3159 C 299.632 2.00832 2.99498 0
M  V30 3160 O 298.736 1.35075 3.89652 0
M  V30 3161 H 298.077 0.431655 0.504549 0
M  V30 3162 H 300.607 1.74094 1.07483 0
M  V30 3163 H 300.617 2.10709 3.49379 0
M  V30 3164 H 299.292 3.04847 2.82916 0
M  V30 3165 H 297.869 1.33696 3.48109 0
M  V30 3166 N 300.054 -1.07777 1.14986 0
M  V30 3167 C 300.984 -2.16865 0.865557 0
M  V30 3168 C 301.965 -1.69123 -0.182083 0
M  V30 3169 O 303.15 -1.94164 -0.0373815 0
M  V30 3170 C 300.28 -3.45539 0.349313 0
M  V30 3171 C 299.234 -4.06708 1.33313 0
M  V30 3172 C 298.56 -5.30411 0.675918 0
M  V30 3173 C 299.86 -4.47241 2.69764 0
M  V30 3174 H 301.554 -2.40905 1.77778 0
M  V30 3175 H 299.1 -1.15781 0.856203 0
M  V30 3176 H 301.053 -4.21174 0.137983 0
M  V30 3177 H 299.777 -3.21072 -0.598362 0
M  V30 3178 H 298.436 -3.33112 1.53075 0
M  V30 3179 H 298.084 -5.02232 -0.277767 0
M  V30 3180 H 297.784 -5.72293 1.33244 0
M  V30 3181 H 299.308 -6.08755 0.474262 0
M  V30 3182 H 300.722 -5.14025 2.53873 0
M  V30 3183 H 299.119 -5.00062 3.3175 0
M  V30 3184 H 300.189 -3.58818 3.26156 0
M  V30 3185 N 301.532 -0.945985 -1.26051 0
M  V30 3186 C 302.778 -0.597002 -1.93814 0
M  V30 3187 C 303.111 0.862484 -1.73997 0
M  V30 3188 O 302.386 1.61769 -1.07986 0
M  V30 3189 C 302.669 -0.945937 -3.47454 0
M  V30 3190 C 302.522 -2.46052 -3.76535 0
M  V30 3191 C 303.841 -0.464785 -4.37639 0
M  V30 3192 H 300.96 -0.218366 -0.703907 0
M  V30 3193 H 303.602 -1.18107 -1.48831 0
M  V30 3194 H 301.752 -0.448902 -3.85898 0
M  V30 3195 H 303.424 -3.03065 -3.47778 0
M  V30 3196 H 301.667 -2.90194 -3.22444 0
M  V30 3197 H 302.338 -2.65517 -4.83947 0
M  V30 3198 H 304.814 -0.891016 -4.06448 0
M  V30 3199 H 303.69 -0.737712 -5.4392 0
M  V30 3200 H 303.951 0.635274 -4.37512 0
M  V30 3201 N 303.011 1.40521 -0.713556 0
M  V30 3202 C 304.257 2.01221 -0.252564 0
M  V30 3203 C 304.59 1.56444 1.1506 0
M  V30 3204 O 303.865 0.783597 1.78017 0
M  V30 3205 C 304.148 3.58582 -0.330332 0
M  V30 3206 C 304.001 4.13437 -1.77173 0
M  V30 3207 C 305.32 4.39079 0.299641 0
M  V30 3208 H 302.439 0.731077 -0.0932471 0
M  V30 3209 H 305.081 1.67026 -0.905673 0
M  V30 3210 H 303.231 3.87844 0.225737 0
M  V30 3211 H 304.903 3.9498 -2.38303 0
M  V30 3212 H 303.146 3.67801 -2.3001 0
M  V30 3213 H 303.817 5.22597 -1.77755 0
M  V30 3214 H 306.293 4.15735 -0.174139 0
M  V30 3215 H 305.169 5.4848 0.214771 0
M  V30 3216 H 305.43 4.19915 1.38288 0
M  V30 3217 N 304.489 0.459591 1.5075 0
M  V30 3218 C 305.9 0.00171547 1.867 0
M  V30 3219 C 306.251 -1.39934 1.37525 0
M  V30 3220 O 305.376 -2.03523 0.735349 0
M  V30 3221 C 305.971 -0.00366298 3.388 0
M  V30 3222 C 304.53 -0.406026 3.74204 0
M  V30 3223 C 303.677 0.38673 2.7459 0
M  V30 3224 H 306.628 0.674413 1.43657 0
M  V30 3225 H 306.649 -0.808371 3.71814 0
M  V30 3226 H 306.161 1.01617 3.74561 0
M  V30 3227 H 304.262 -1.43063 3.4404 0
M  V30 3228 H 304.375 -0.115362 4.78961 0
M  V30 3229 H 302.739 -0.158019 2.54209 0
M  V30 3230 H 303.522 1.40585 3.13194 0
M  V30 3231 N 305.967 -1.56429 0.191757 0
M  V30 3232 C 306.914 -2.18936 -0.730454 0
M  V30 3233 C 307.884 -1.13557 -1.21219 0
M  V30 3234 O 309.069 -1.41794 -1.27668 0
M  V30 3235 C 306.209 -2.85013 -1.9458 0
M  V30 3236 C 305.322 -4.04909 -1.50574 0
M  V30 3237 C 304.457 -4.58853 -2.67634 0
M  V30 3238 C 303.496 -5.71114 -2.20217 0
M  V30 3239 N 302.633 -6.19478 -3.30442 0
M  V30 3240 H 307.473 -2.97389 -0.190664 0
M  V30 3241 H 305.01 -1.46869 -0.0823694 0
M  V30 3242 H 306.968 -3.21492 -2.65893 0
M  V30 3243 H 305.598 -2.09129 -2.45896 0
M  V30 3244 H 304.65 -3.74115 -0.688605 0
M  V30 3245 H 305.962 -4.86113 -1.11784 0
M  V30 3246 H 305.116 -4.97619 -3.47074 0
M  V30 3247 H 303.855 -3.76749 -3.09696 0
M  V30 3248 H 302.86 -5.31879 -1.3923 0
M  V30 3249 H 304.085 -6.55033 -1.79189 0
M  V30 3250 H 302.031 -5.40297 -3.72041 0
M  V30 3251 H 301.948 -6.95725 -2.9581 0
M  V30 3252 H 303.216 -6.62898 -4.10106 0
M  V30 3253 N 307.445 0.0818655 -1.57387 0
M  V30 3254 C 308.722 0.815343 -1.77796 0
M  V30 3255 C 309.102 1.96289 -0.77679 0
M  V30 3256 O 308.45 2.27691 0.192106 0
M  V30 3257 C 308.66 1.29765 -3.23978 0
M  V30 3258 C 310.008 1.7351 -3.8753 0
M  V30 3259 O 311.032 1.39356 -3.27808 0
M  V30 3260 O 309.891 2.36708 -4.92576 0
M  V30 3261 H 306.985 0.389914 -0.729312 0
M  V30 3262 H 309.531 0.0627213 -1.69584 0
M  V30 3263 H 308.303 0.47608 -3.88393 0
M  V30 3264 H 307.926 2.11189 -3.36875 0
M  V30 3265 N 308.923 1.53595 0.353017 0
M  V30 3266 C 310.339 1.43648 0.695516 0
M  V30 3267 C 310.539 0.585617 1.92802 0
M  V30 3268 O 309.595 0.0729223 2.52395 0
M  V30 3269 C 310.908 2.8701 0.896991 0
M  V30 3270 C 312.456 2.96723 0.996209 0
M  V30 3271 C 312.931 4.41173 1.23007 0
M  V30 3272 N 314.422 4.44657 1.29749 0
M  V30 3273 C 315.157 5.53547 1.49577 0
M  V30 3274 N 314.653 6.72461 1.66639 0
M  V30 3275 N 316.446 5.41145 1.52048 0
M  V30 3276 H 308.597 2.07415 -0.457481 0
M  V30 3277 H 310.86 0.9372 -0.142687 0
M  V30 3278 H 310.566 3.51644 0.0629938 0
M  V30 3279 H 310.44 3.31401 1.80148 0
M  V30 3280 H 312.827 2.32235 1.82074 0
M  V30 3281 H 312.908 2.55707 0.0688331 0
M  V30 3282 H 312.552 5.06238 0.410505 0
M  V30 3283 H 312.482 4.79772 2.17086 0
M  V30 3284 H 314.973 3.58963 1.18126 0
M  V30 3285 H 315.286 7.51214 1.81378 0
M  V30 3286 H 313.631 6.75423 1.63794 0
M  V30 3287 H 316.822 4.47205 1.38294 0
M  V30 3288 H 316.995 6.26068 1.67159 0
M  V30 3289 N 310.401 -0.613514 1.45168 0
M  V30 3290 C 311.647 -1.37471 1.49096 0
M  V30 3291 C 311.98 -1.93765 0.129901 0
M  V30 3292 O 311.255 -1.74707 -0.854858 0
M  V30 3293 C 311.538 -2.52701 2.56542 0
M  V30 3294 C 311.391 -2.01643 4.0207 0
M  V30 3295 C 312.71 -3.54849 2.60327 0
M  V30 3296 H 309.829 -0.498502 0.54283 0
M  V30 3297 H 312.471 -0.692125 1.76945 0
M  V30 3298 H 310.621 -3.10931 2.32926 0
M  V30 3299 H 312.293 -1.48108 4.36877 0
M  V30 3300 H 310.536 -1.32688 4.13009 0
M  V30 3301 H 311.207 -2.84681 4.72928 0
M  V30 3302 H 313.683 -3.0645 2.81474 0
M  V30 3303 H 312.559 -4.32973 3.37381 0
M  V30 3304 H 312.82 -4.10079 1.6519 0
M  V30 3305 N 311.879 -1.3236 -0.855495 0
M  V30 3306 C 312.842 -1.21164 -1.94556 0
M  V30 3307 C 313.842 -0.134908 -1.60233 0
M  V30 3308 O 315.032 -0.385249 -1.69887 0
M  V30 3309 C 312.164 -0.863192 -3.29791 0
M  V30 3310 H 313.357 -2.18038 -2.05911 0
M  V30 3311 H 310.91 -1.16179 -1.04557 0
M  V30 3312 H 311.645 0.103769 -3.24134 0
M  V30 3313 H 311.43 -1.64166 -3.56078 0
M  V30 3314 H 312.92 -0.809156 -4.09686 0
M  V30 3315 N 313.357 1.07166 -1.15556 0
M  V30 3316 C 314.287 2.16403 -0.877046 0
M  V30 3317 C 315.268 1.69217 0.173111 0
M  V30 3318 O 316.453 1.94181 0.027084 0
M  V30 3319 C 313.583 3.45349 -0.367632 0
M  V30 3320 C 312.537 4.05995 -1.35468 0
M  V30 3321 C 311.863 5.30045 -0.704038 0
M  V30 3322 C 313.163 4.45804 -2.72132 0
M  V30 3323 H 314.857 2.39959 -1.79053 0
M  V30 3324 H 312.403 1.15325 -0.862331 0
M  V30 3325 H 314.356 4.21095 -0.160317 0
M  V30 3326 H 313.08 3.21385 0.581326 0
M  V30 3327 H 311.739 3.32296 -1.54839 0
M  V30 3328 H 311.387 5.02373 0.251128 0
M  V30 3329 H 311.087 5.71579 -1.36277 0
M  V30 3330 H 312.611 6.08495 -0.50654 0
M  V30 3331 H 314.025 5.12671 -2.56595 0
M  V30 3332 H 312.422 4.98296 -3.34397 0
M  V30 3333 H 313.492 3.57083 -3.28054 0
M  V30 3334 N 314.835 0.952656 1.25548 0
M  V30 3335 C 316.06 0.623025 1.97821 0
M  V30 3336 C 316.485 -0.7976 1.70352 0
M  V30 3337 O 315.843 -1.53905 0.958283 0
M  V30 3338 C 315.891 0.885532 3.49558 0
M  V30 3339 O 314.995 -0.0366641 4.12384 0
M  V30 3340 H 314.336 0.237082 0.620232 0
M  V30 3341 H 316.866 1.27871 1.59719 0
M  V30 3342 H 316.876 0.811009 3.99858 0
M  V30 3343 H 315.551 1.92094 3.6888 0
M  V30 3344 H 314.128 0.0898954 3.72792 0
M  V30 3345 N 316.313 -1.40141 0.720998 0
M  V30 3346 C 317.261 -2.3252 0.0608547 0
M  V30 3347 C 318.255 -1.52326 -0.741152 0
M  V30 3348 O 319.461 -1.68089 -0.643911 0
M  V30 3349 H 315.836 -0.751999 0.000876664 0
M  V30 3350 H 317.807 -2.8584 0.856614 0
M  V30 3351 C 316.556 -3.37331 -0.842809 0
M  V30 3352 H 315.879 -3.99108 -0.235084 0
M  V30 3353 H 317.319 -4.04452 -1.27257 0
M  V30 3354 C 315.778 -2.73246 -1.97074 0
M  V30 3355 O 316.308 -2.59998 -3.06209 0
M  V30 3356 N 314.514 -2.31547 -1.75597 0
M  V30 3357 H 314.061 -2.42522 -0.868368 0
M  V30 3358 H 314.019 -1.89007 -2.51244 0
M  V30 3359 N 317.792 -0.46758 -1.50504 0
M  V30 3360 C 318.725 0.374324 -2.25109 0
M  V30 3361 C 319.703 0.99921 -1.28275 0
M  V30 3362 O 320.887 1.03583 -1.57489 0
M  V30 3363 C 318.014 1.52419 -3.02467 0
M  V30 3364 C 317.06 1.01702 -4.14197 0
M  V30 3365 S 317.893 -0.0654477 -5.3546 0
M  V30 3366 C 319.049 1.08837 -6.16365 0
M  V30 3367 H 319.282 -0.258983 -2.9617 0
M  V30 3368 H 316.815 -0.252421 -1.52323 0
M  V30 3369 H 318.773 2.18322 -3.47628 0
M  V30 3370 H 317.434 2.129 -2.30938 0
M  V30 3371 H 316.627 1.87776 -4.67714 0
M  V30 3372 H 316.229 0.435757 -3.71453 0
M  V30 3373 H 318.521 2.00071 -6.47285 0
M  V30 3374 H 319.464 0.592538 -7.05616 0
M  V30 3375 H 319.872 1.34061 -5.4835 0
M  V30 3376 N 319.27 1.56325 -0.20005 0
M  V30 3377 C 320.218 2.20666 0.735482 0
M  V30 3378 C 321.212 1.17934 1.21605 0
M  V30 3379 O 322.418 1.36068 1.17837 0
M  V30 3380 H 318.793 0.70725 0.255542 0
M  V30 3381 H 320.764 2.9792 0.169166 0
M  V30 3382 C 319.513 2.88391 1.94232 0
M  V30 3383 H 318.836 3.67185 1.58161 0
M  V30 3384 H 320.276 3.3684 2.57517 0
M  V30 3385 C 318.735 1.89692 2.78421 0
M  V30 3386 O 319.265 1.40032 3.76502 0
M  V30 3387 N 317.471 1.57813 2.44015 0
M  V30 3388 H 317.018 1.9839 1.64314 0
M  V30 3389 H 316.976 0.920325 3.00628 0
M  V30 3390 N 320.748 -0.0735177 1.57428 0
M  V30 3391 C 321.994 -0.774145 1.87443 0
M  V30 3392 C 322.327 -1.77311 0.792103 0
M  V30 3393 O 321.602 -1.93492 -0.197793 0
M  V30 3394 C 321.885 -1.48367 3.28115 0
M  V30 3395 C 321.738 -0.501227 4.46999 0
M  V30 3396 C 323.057 -2.429 3.66998 0
M  V30 3397 H 320.176 -0.279971 0.681752 0
M  V30 3398 H 322.818 -0.0373616 1.89963 0
M  V30 3399 H 320.968 -2.11171 3.26097 0
M  V30 3400 H 322.64 0.121468 4.6114 0
M  V30 3401 H 320.883 0.183593 4.33411 0
M  V30 3402 H 321.554 -1.03526 5.42205 0
M  V30 3403 H 324.03 -1.90175 3.70098 0
M  V30 3404 H 322.906 -2.89549 4.66318 0
M  V30 3405 H 323.167 -3.27628 2.96837 0
M  V30 3406 N 322.226 -1.5378 -0.344866 0
M  V30 3407 C 323.475 -1.7018 -1.08267 0
M  V30 3408 C 323.788 -0.471 -1.89845 0
M  V30 3409 O 324.994 -0.515917 -2.66553 0
M  V30 3410 C 323.45 -3.00923 -1.97417 0
M  V30 3411 C 323.058 -4.31335 -1.21053 0
M  V30 3412 C 324.802 -3.26688 -2.71063 0
M  V30 3413 C 322.709 -5.53153 -2.09225 0
M  V30 3414 H 321.639 -0.634138 -0.407903 0
M  V30 3415 H 324.29 -1.8028 -0.342246 0
M  V30 3416 H 322.672 -2.84676 -2.75274 0
M  V30 3417 H 323.846 -4.58281 -0.481159 0
M  V30 3418 H 322.161 -4.12173 -0.591813 0
M  V30 3419 H 324.758 -4.1489 -3.37299 0
M  V30 3420 H 325.101 -2.43639 -3.37558 0
M  V30 3421 H 325.634 -3.43705 -2.0028 0
M  V30 3422 H 322.373 -6.38741 -1.47274 0
M  V30 3423 H 321.893 -5.30458 -2.79955 0
M  V30 3424 H 323.572 -5.88744 -2.68308 0
M  V30 3425 N 323.704 0.605807 -1.45491 0
M  V30 3426 C 324.981 1.36522 -1.40075 0
M  V30 3427 C 325.361 2.10976 -0.0722744 0
M  V30 3428 O 324.709 2.08007 0.945808 0
M  V30 3429 C 324.919 2.31056 -2.61561 0
M  V30 3430 C 326.267 2.93608 -3.06724 0
M  V30 3431 O 327.291 2.41376 -2.61946 0
M  V30 3432 O 326.15 3.88421 -3.84437 0
M  V30 3433 H 323.244 0.612248 -0.555951 0
M  V30 3434 H 325.79 0.628747 -1.57623 0
M  V30 3435 H 324.562 1.75311 -3.49831 0
M  V30 3436 H 324.185 3.12081 -2.46356 0
M  V30 3437 N 325.182 1.32811 0.848464 0
M  V30 3438 C 326.598 1.11937 1.13764 0
M  V30 3439 C 326.798 -0.0960789 2.01271 0
M  V30 3440 O 325.854 -0.779165 2.40178 0
M  V30 3441 C 327.167 2.402 1.809 0
M  V30 3442 C 328.715 2.46016 1.93508 0
M  V30 3443 C 329.19 3.74215 2.64059 0
M  V30 3444 N 330.681 3.75232 2.71579 0
M  V30 3445 C 331.416 4.71134 3.26833 0
M  V30 3446 N 330.912 5.77406 3.8285 0
M  V30 3447 N 332.705 4.58623 3.24995 0
M  V30 3448 H 324.856 2.1073 0.265855 0
M  V30 3449 H 327.119 0.930671 0.180431 0
M  V30 3450 H 326.825 3.29093 1.24058 0
M  V30 3451 H 326.699 2.51628 2.81004 0
M  V30 3452 H 329.086 1.57577 2.49506 0
M  V30 3453 H 329.167 2.38536 0.923811 0
M  V30 3454 H 328.811 4.63031 2.08722 0
M  V30 3455 H 328.741 3.78968 3.65637 0
M  V30 3456 H 331.232 2.98423 2.31845 0
M  V30 3457 H 331.545 6.46632 4.23187 0
M  V30 3458 H 329.89 5.81152 3.81165 0
M  V30 3459 H 333.081 3.74762 2.80484 0
M  V30 3460 H 333.254 5.33535 3.67756 0
M  V30 3461 N 326.66 -1.06551 1.16123 0
M  V30 3462 C 327.607 -2.13961 0.865414 0
M  V30 3463 C 328.577 -1.65066 -0.185055 0
M  V30 3464 O 329.762 -1.90732 -0.05083 0
M  V30 3465 C 326.902 -3.43113 0.369776 0
M  V30 3466 C 326.015 -4.05756 1.48276 0
M  V30 3467 C 325.15 -5.22773 0.942414 0
M  V30 3468 C 324.189 -5.77395 2.03179 0
M  V30 3469 N 323.326 -6.85731 1.50721 0
M  V30 3470 H 328.166 -2.38605 1.78527 0
M  V30 3471 H 325.703 -1.17072 0.890646 0
M  V30 3472 H 327.661 -4.17151 0.0640643 0
M  V30 3473 H 326.291 -3.18695 -0.513143 0
M  V30 3474 H 325.343 -3.29292 1.9045 0
M  V30 3475 H 326.655 -4.42351 2.30493 0
M  V30 3476 H 325.809 -6.03827 0.589729 0
M  V30 3477 H 324.548 -4.87618 0.0895191 0
M  V30 3478 H 323.553 -4.94981 2.3932 0
M  V30 3479 H 324.778 -6.14603 2.8886 0
M  V30 3480 H 322.724 -6.52499 0.676811 0
M  V30 3481 H 322.641 -7.21254 2.26557 0
M  V30 3482 H 323.909 -7.7047 1.18303 0
M  V30 3483 N 328.138 -0.959301 -1.25041 0
M  V30 3484 C 329.549 -0.65667 -1.74771 0
M  V30 3485 C 329.9 0.827852 -1.77879 0
M  V30 3486 O 329.025 1.64783 -1.40269 0
M  V30 3487 C 329.62 -1.1853 -3.1739 0
M  V30 3488 C 328.179 -0.932734 -3.6466 0
M  V30 3489 C 327.326 -1.32558 -2.43564 0
M  V30 3490 H 330.277 -1.13558 -1.10862 0
M  V30 3491 H 330.298 -0.547582 -3.76539 0
M  V30 3492 H 329.81 -2.26576 -3.15095 0
M  V30 3493 H 327.911 0.13257 -3.72364 0
M  V30 3494 H 328.024 -1.57248 -4.52559 0
M  V30 3495 H 326.388 -0.743956 -2.43593 0
M  V30 3496 H 327.171 -2.41537 -2.43957 0
M  V30 3497 N 329.616 1.39756 -0.72842 0
M  V30 3498 C 330.846 2.04651 -0.283117 0
M  V30 3499 C 331.254 1.5502 1.08469 0
M  V30 3500 O 330.597 0.707343 1.69536 0
M  V30 3501 C 330.659 3.58947 -0.199309 0
M  V30 3502 C 330.323 4.31525 -1.5045 0
M  V30 3503 C 331.32 4.5861 -2.44894 0
M  V30 3504 C 329.005 4.70195 -1.76698 0
M  V30 3505 C 330.999 5.23366 -3.63822 0
M  V30 3506 C 328.686 5.3468 -2.95906 0
M  V30 3507 C 329.684 5.61198 -3.89289 0
M  V30 3508 O 329.372 6.24347 -5.06404 0
M  V30 3509 H 329.104 0.664777 -0.122666 0
M  V30 3510 H 331.658 1.79913 -0.990987 0
M  V30 3511 H 329.888 3.82556 0.56461 0
M  V30 3512 H 331.577 4.0534 0.213125 0
M  V30 3513 H 332.343 4.29187 -2.25883 0
M  V30 3514 H 328.222 4.48916 -1.04859 0
M  V30 3515 H 331.766 5.4398 -4.36728 0
M  V30 3516 H 327.663 5.63524 -3.14819 0
M  V30 3517 H 328.431 6.42842 -5.06652 0
M  V30 3518 N 331.094 0.475555 1.50254 0
M  V30 3519 C 332.505 0.0215174 1.86688 0
M  V30 3520 C 332.856 -1.38467 1.39001 0
M  V30 3521 O 331.981 -2.02732 0.756894 0
M  V30 3522 C 332.576 0.0322715 3.38785 0
M  V30 3523 C 331.135 -0.366314 3.74613 0
M  V30 3524 C 330.282 0.415832 2.74164 0
M  V30 3525 H 333.233 0.689612 1.42934 0
M  V30 3526 H 333.254 -0.76889 3.7265 0
M  V30 3527 H 332.766 1.05584 3.73462 0
M  V30 3528 H 330.867 -1.39406 3.45538 0
M  V30 3529 H 330.98 -0.064555 4.79057 0
M  V30 3530 H 329.344 -0.131048 2.54363 0
M  V30 3531 H 330.127 1.43899 3.11686 0
M  V30 3532 N 332.573 -1.56217 0.208337 0
M  V30 3533 C 333.85 -1.89739 -0.475234 0
M  V30 3534 C 334.23 -1.1238 -1.78701 0
M  V30 3535 O 333.578 -0.228979 -2.2735 0
M  V30 3536 C 333.788 -3.42289 -0.681101 0
M  V30 3537 C 335.136 -4.12789 -0.994507 0
M  V30 3538 O 336.16 -3.47814 -0.768357 0
M  V30 3539 O 335.019 -5.27649 -1.42299 0
M  V30 3540 H 332.113 -0.788478 -0.249461 0
M  V30 3541 H 334.659 -1.67855 0.249538 0
M  V30 3542 H 333.431 -3.90534 0.244722 0
M  V30 3543 H 333.054 -3.69909 -1.45785 0
M  V30 3544 N 334.051 0.0651679 -1.57465 0
M  V30 3545 C 335.328 0.79644 -1.78651 0
M  V30 3546 C 335.708 1.95454 -0.797566 0
M  V30 3547 O 335.056 2.27882 0.167946 0
M  V30 3548 C 335.266 1.26322 -3.25337 0
M  V30 3549 C 336.614 1.6939 -3.89348 0
M  V30 3550 O 337.638 1.35872 -3.29268 0
M  V30 3551 O 336.497 2.31471 -4.95059 0
M  V30 3552 H 333.591 0.382157 -0.733407 0
M  V30 3553 H 336.137 0.0447311 -1.69641 0
M  V30 3554 H 334.909 0.434859 -3.88876 0
M  V30 3555 H 334.532 2.07604 -3.39096 0
M  V30 3556 N 335.529 1.53961 0.336706 0
M  V30 3557 C 336.439 1.85432 1.43708 0
M  V30 3558 C 337.455 0.745053 1.57242 0
M  V30 3559 O 338.631 1.03804 1.72588 0
M  V30 3560 C 335.696 2.06349 2.78605 0
M  V30 3561 C 334.757 3.30191 2.74358 0
M  V30 3562 C 333.99 3.50101 4.02822 0
M  V30 3563 O 334.213 2.7371 5.00439 0
M  V30 3564 O 333.147 4.43547 4.06878 0
M  V30 3565 H 336.973 2.78975 1.20028 0
M  V30 3566 H 334.558 1.39701 0.52952 0
M  V30 3567 H 336.44 2.21513 3.58483 0
M  V30 3568 H 335.115 1.15995 3.02203 0
M  V30 3569 H 334.022 3.20425 1.93078 0
M  V30 3570 H 335.355 4.2056 2.55715 0
M  V30 3571 N 337.007 -0.598083 1.45811 0
M  V30 3572 C 337.955 -1.72932 1.55555 0
M  V30 3573 C 338.949 -1.63984 0.424921 0
M  V30 3574 O 340.155 -1.69663 0.601205 0
M  V30 3575 H 336.53 -0.571489 0.488779 0
M  V30 3576 H 338.501 -1.61842 2.50699 0
M  V30 3577 C 337.25 -3.11318 1.54843 0
M  V30 3578 H 336.573 -3.18867 2.41172 0
M  V30 3579 H 338.013 -3.90274 1.65717 0
M  V30 3580 C 336.472 -3.3578 0.274427 0
M  V30 3581 O 337.002 -3.9654 -0.641778 0
M  V30 3582 N 335.208 -2.90119 0.167139 0
M  V30 3583 H 334.755 -2.40855 0.913596 0
M  V30 3584 H 334.713 -3.0686 -0.684435 0
M  V30 3585 N 338.485 -1.33259 -0.841409 0
M  V30 3586 C 339.415 -1.25926 -1.96634 0
M  V30 3587 C 340.396 -0.140349 -1.6952 0
M  V30 3588 O 341.581 -0.329707 -1.91381 0
M  V30 3589 C 338.711 -0.99512 -3.32738 0
M  V30 3590 C 337.665 -2.0767 -3.74242 0
M  V30 3591 C 336.991 -1.66474 -5.08125 0
M  V30 3592 C 338.291 -3.49318 -3.88297 0
M  V30 3593 H 339.985 -2.20046 -2.03027 0
M  V30 3594 H 337.531 -1.05931 -0.975425 0
M  V30 3595 H 339.484 -0.930323 -4.11002 0
M  V30 3596 H 338.208 -0.0183004 -3.26595 0
M  V30 3597 H 336.867 -2.13187 -2.98239 0
M  V30 3598 H 336.515 -0.675012 -4.9845 0
M  V30 3599 H 336.215 -2.3885 -5.36865 0
M  V30 3600 H 337.739 -1.61455 -5.88867 0
M  V30 3601 H 339.153 -3.46316 -4.56879 0
M  V30 3602 H 337.55 -4.20158 -4.28471 0
M  V30 3603 H 338.62 -3.8801 -2.9082 0
M  V30 3604 N 339.963 1.05934 -1.16686 0
M  V30 3605 C 341.209 1.79065 -0.95203 0
M  V30 3606 C 341.542 1.87147 0.518629 0
M  V30 3607 O 340.817 1.36574 1.38484 0
M  V30 3608 C 341.1 3.23359 -1.58464 0
M  V30 3609 C 340.953 3.23336 -3.12689 0
M  V30 3610 C 342.272 4.21004 -1.28232 0
M  V30 3611 H 339.391 0.65005 -0.34728 0
M  V30 3612 H 342.033 1.23868 -1.44072 0
M  V30 3613 H 340.183 3.70493 -1.16908 0
M  V30 3614 H 341.855 2.84336 -3.6325 0
M  V30 3615 H 340.098 2.61886 -3.4583 0
M  V30 3616 H 340.769 4.25144 -3.52075 0
M  V30 3617 H 343.245 3.8233 -1.64203 0
M  V30 3618 H 342.121 5.20225 -1.75092 0
M  V30 3619 H 342.382 4.41639 -0.201791 0
M  V30 3620 N 341.441 0.965919 1.2453 0
M  V30 3621 C 342.351 0.502154 2.29163 0
M  V30 3622 C 343.367 -0.436017 1.68448 0
M  V30 3623 O 344.543 -0.309497 1.99008 0
M  V30 3624 C 341.608 -0.201956 3.46111 0
M  V30 3625 C 340.669 0.775821 4.22232 0
M  V30 3626 C 339.902 0.105217 5.33596 0
M  V30 3627 O 340.125 -1.10683 5.59558 0
M  V30 3628 O 339.059 0.796475 5.96607 0
M  V30 3629 H 342.885 1.37194 2.70946 0
M  V30 3630 H 340.47 0.732875 1.30189 0
M  V30 3631 H 342.352 -0.597564 4.17142 0
M  V30 3632 H 341.027 -1.04673 3.06309 0
M  V30 3633 H 339.934 1.22185 3.53584 0
M  V30 3634 H 341.267 1.58896 4.65846 0
M  V30 3635 N 342.919 -1.39368 0.735821 0
M  V30 3636 C 344.165 -2.00794 0.284544 0
M  V30 3637 C 344.498 -1.58255 -1.12557 0
M  V30 3638 O 343.773 -0.811819 -1.76748 0
M  V30 3639 C 344.056 -3.58011 0.387337 0
M  V30 3640 C 343.909 -4.10566 1.83728 0
M  V30 3641 C 345.228 -4.395 -0.22975 0
M  V30 3642 H 342.347 -0.729501 0.104866 0
M  V30 3643 H 344.989 -1.65564 0.93213 0
M  V30 3644 H 343.139 -3.88154 -0.164006 0
M  V30 3645 H 344.811 -3.91139 2.44556 0
M  V30 3646 H 343.054 -3.64095 2.35833 0
M  V30 3647 H 343.725 -5.19702 1.86047 0
M  V30 3648 H 346.201 -4.15406 0.240257 0
M  V30 3649 H 345.077 -5.48752 -0.127485 0
M  V30 3650 H 345.338 -4.22062 -1.3159 0
M  V30 3651 N 344.397 -0.483516 -1.5 0
M  V30 3652 C 345.344 0.304164 -2.28787 0
M  V30 3653 C 346.314 0.976114 -1.34392 0
M  V30 3654 O 347.499 0.986156 -1.63339 0
M  V30 3655 C 344.639 1.37298 -3.16612 0
M  V30 3656 C 343.752 0.714561 -4.26049 0
M  V30 3657 C 342.887 1.76232 -5.01114 0
M  V30 3658 C 341.926 1.08483 -6.0241 0
M  V30 3659 N 341.063 2.076 -6.70706 0
M  V30 3660 H 345.903 -0.373981 -2.95644 0
M  V30 3661 H 343.44 -0.196275 -1.45785 0
M  V30 3662 H 345.398 2.00445 -3.65893 0
M  V30 3663 H 344.028 2.02012 -2.51776 0
M  V30 3664 H 343.08 -0.0297798 -3.80388 0
M  V30 3665 H 344.392 0.180383 -4.98474 0
M  V30 3666 H 343.546 2.46929 -5.54176 0
M  V30 3667 H 342.285 2.33033 -4.28424 0
M  V30 3668 H 341.29 0.363545 -5.48597 0
M  V30 3669 H 342.515 0.523551 -6.77079 0
M  V30 3670 H 340.461 2.63394 -6.00799 0
M  V30 3671 H 340.378 1.59201 -7.39047 0
M  V30 3672 H 341.646 2.77639 -7.2838 0
M  V30 3673 N 345.875 1.56104 -0.216619 0
M  V30 3674 C 347.122 1.98172 0.416416 0
M  V30 3675 C 347.45 1.10413 1.60122 0
M  V30 3676 O 346.705 0.147967 1.9514 0
M  V30 3677 C 347.004 3.45923 0.898464 0
M  V30 3678 C 346.67 4.50559 -0.175288 0
M  V30 3679 C 345.332 4.78897 -0.470271 0
M  V30 3680 C 347.684 5.1334 -0.901728 0
M  V30 3681 C 345.012 5.67299 -1.4963 0
M  V30 3682 C 347.364 6.02853 -1.91705 0
M  V30 3683 C 346.028 6.29537 -2.21901 0
M  V30 3684 H 345.298 0.725164 0.152377 0
M  V30 3685 H 347.945 1.88839 -0.318103 0
M  V30 3686 H 346.25 3.52434 1.71165 0
M  V30 3687 H 347.947 3.75841 1.39803 0
M  V30 3688 H 344.537 4.28551 0.0647806 0
M  V30 3689 H 348.721 4.91521 -0.687072 0
M  V30 3690 H 343.977 5.86239 -1.73592 0
M  V30 3691 H 348.151 6.50552 -2.48505 0
M  V30 3692 H 345.778 6.97835 -3.01548 0
M  V30 3693 N 347.353 -0.0568162 1.57498 0
M  V30 3694 C 348.316 -1.05038 2.03715 0
M  V30 3695 C 349.316 -1.30709 0.936577 0
M  V30 3696 O 350.506 -1.26178 1.20103 0
M  V30 3697 C 347.638 -2.39034 2.43055 0
M  V30 3698 H 348.831 -0.651715 2.92733 0
M  V30 3699 H 346.384 -0.302947 1.53336 0
M  V30 3700 H 347.119 -2.83703 1.57108 0
M  V30 3701 H 346.904 -2.21739 3.2338 0
M  V30 3702 H 348.394 -3.10421 2.79336 0
M  V30 3703 N 348.832 -1.54138 -0.328536 0
M  V30 3704 C 350.248 -1.44736 -0.672574 0
M  V30 3705 C 350.448 -0.616217 -1.91846 0
M  V30 3706 O 349.504 -0.113067 -2.52247 0
M  V30 3707 C 350.817 -2.884 -0.851217 0
M  V30 3708 C 352.365 -2.98271 -0.948877 0
M  V30 3709 C 352.84 -4.43074 -1.15973 0
M  V30 3710 N 354.331 -4.46665 -1.22658 0
M  V30 3711 C 355.066 -5.55857 -1.40751 0
M  V30 3712 N 354.562 -6.75026 -1.5592 0
M  V30 3713 N 356.355 -5.43495 -1.4342 0
M  V30 3714 H 348.506 -2.06661 0.490421 0
M  V30 3715 H 350.769 -0.934812 0.157579 0
M  V30 3716 H 350.475 -3.51699 -0.00704236 0
M  V30 3717 H 350.349 -3.34225 -1.74853 0
M  V30 3718 H 352.736 -2.35102 -1.78356 0
M  V30 3719 H 352.817 -2.55785 -0.0281435 0
M  V30 3720 H 352.461 -5.06827 -0.329915 0
M  V30 3721 H 352.391 -4.83165 -2.09426 0
M  V30 3722 H 354.882 -3.60797 -1.124 0
M  V30 3723 H 355.195 -7.54004 -1.69404 0
M  V30 3724 H 353.54 -6.77944 -1.53027 0
M  V30 3725 H 356.731 -4.49349 -1.31162 0
M  V30 3726 H 356.904 -6.28649 -1.57178 0
M  V30 3727 N 350.31 0.590341 -1.46126 0
M  V30 3728 C 351.538 1.37504 -1.54597 0
M  V30 3729 C 351.953 1.87897 -0.184447 0
M  V30 3730 O 351.31 1.63192 0.816984 0
M  V30 3731 C 351.361 2.56779 -2.54454 0
M  V30 3732 O 351.082 2.08476 -3.85317 0
M  V30 3733 C 352.583 3.49427 -2.72792 0
M  V30 3734 H 349.803 0.420325 -0.523037 0
M  V30 3735 H 352.347 0.718383 -1.91467 0
M  V30 3736 H 350.502 3.1845 -2.20609 0
M  V30 3737 H 350.916 2.86097 -4.396 0
M  V30 3738 H 352.39 4.29619 -3.466 0
M  V30 3739 H 352.867 4.00876 -1.79429 0
M  V30 3740 H 353.473 2.93598 -3.07702 0
M  V30 3741 N 351.788 1.33704 0.83433 0
M  V30 3742 C 353.199 1.22813 1.4062 0
M  V30 3743 C 353.55 -0.151107 1.95617 0
M  V30 3744 O 352.675 -1.05092 1.89168 0
M  V30 3745 C 353.27 2.22355 2.55624 0
M  V30 3746 C 351.829 2.1529 3.08751 0
M  V30 3747 C 350.976 2.09589 1.8157 0
M  V30 3748 H 353.927 1.45236 0.639702 0
M  V30 3749 H 353.948 1.83391 3.33389 0
M  V30 3750 H 353.46 3.22728 2.15566 0
M  V30 3751 H 351.561 1.18235 3.53343 0
M  V30 3752 H 351.674 3.06038 3.68616 0
M  V30 3753 H 350.038 1.55134 2.02004 0
M  V30 3754 H 350.821 3.11777 1.43701 0
M  V30 3755 N 353.266 -1.05314 1.17247 0
M  V30 3756 C 354.512 -1.78557 0.961513 0
M  V30 3757 C 354.845 -1.87419 -0.508697 0
M  V30 3758 O 354.12 -1.37307 -1.37757 0
M  V30 3759 C 354.403 -3.22514 1.60176 0
M  V30 3760 C 354.256 -3.21673 3.14399 0
M  V30 3761 C 355.575 -4.20318 1.30463 0
M  V30 3762 H 352.694 -0.6482 0.350723 0
M  V30 3763 H 355.336 -1.23102 1.44727 0
M  V30 3764 H 353.486 -3.69867 1.18871 0
M  V30 3765 H 355.158 -2.82405 3.64753 0
M  V30 3766 H 353.401 -2.60048 3.47214 0
M  V30 3767 H 354.072 -4.23271 3.54324 0
M  V30 3768 H 356.548 -3.81454 1.66229 0
M  V30 3769 H 355.424 -5.19289 1.77848 0
M  V30 3770 H 355.685 -4.41526 0.22521 0
M  V30 3771 N 354.744 -0.972509 -1.24016 0
M  V30 3772 C 355.677 -0.45117 -2.23696 0
M  V30 3773 C 356.655 0.477378 -1.55434 0
M  V30 3774 O 357.839 0.407647 -1.84039 0
M  V30 3775 C 354.966 0.34818 -3.36906 0
M  V30 3776 C 354.012 -0.523355 -4.23277 0
M  V30 3777 S 354.845 -1.96647 -4.98087 0
M  V30 3778 C 356.001 -1.17604 -6.14752 0
M  V30 3779 H 356.234 -1.29588 -2.67571 0
M  V30 3780 H 353.767 -0.777903 -1.33372 0
M  V30 3781 H 355.725 0.803387 -4.02562 0
M  V30 3782 H 354.386 1.16792 -2.91579 0
M  V30 3783 H 353.579 0.0906181 -5.03919 0
M  V30 3784 H 353.181 -0.914485 -3.62647 0
M  V30 3785 H 355.473 -0.433434 -6.76112 0
M  V30 3786 H 356.416 -1.95701 -6.8052 0
M  V30 3787 H 356.824 -0.698295 -5.60164 0
M  V30 3788 N 356.222 1.38976 -0.743202 0
M  V30 3789 C 357.447 2.05161 -0.303936 0
M  V30 3790 C 357.872 1.55677 1.05576 0
M  V30 3791 O 357.23 0.704131 1.67068 0
M  V30 3792 C 357.278 3.59138 -0.324373 0
M  V30 3793 O 356.382 4.06668 0.685204 0
M  V30 3794 H 355.723 0.649815 -0.136518 0
M  V30 3795 H 358.253 1.77852 -1.01142 0
M  V30 3796 H 358.263 4.07639 -0.171618 0
M  V30 3797 H 356.938 3.94515 -1.31647 0
M  V30 3798 H 355.515 3.69561 0.497913 0
M  V30 3799 N 357.7 0.491464 1.49741 0
M  V30 3800 C 358.928 -0.0535151 2.06831 0
M  V30 3801 C 359.343 -1.31683 1.35296 0
M  V30 3802 O 358.7 -1.77402 0.42836 0
M  V30 3803 C 358.751 -0.320835 3.60073 0
M  V30 3804 O 358.472 0.892394 4.28915 0
M  V30 3805 C 359.973 -0.910519 4.33848 0
M  V30 3806 H 357.193 0.0161909 0.670805 0
M  V30 3807 H 359.737 0.68609 1.92647 0
M  V30 3808 H 357.892 -1.0104 3.73991 0
M  V30 3809 H 358.306 0.649401 5.20464 0
M  V30 3810 H 359.78 -1.04721 5.41976 0
M  V30 3811 H 360.257 -1.90589 3.95692 0
M  V30 3812 H 360.863 -0.258712 4.24512 0
M  V30 3813 N 359.178 -1.55987 0.224894 0
M  V30 3814 C 360.408 -2.02489 -0.41007 0
M  V30 3815 C 360.816 -1.10391 -1.53657 0
M  V30 3816 O 360.159 -0.106458 -1.83391 0
M  V30 3817 C 360.221 -3.45319 -0.999757 0
M  V30 3818 C 359.885 -4.56999 -0.00827976 0
M  V30 3819 C 360.882 -5.13812 0.793314 0
M  V30 3820 C 358.567 -5.02176 0.111442 0
M  V30 3821 C 360.561 -6.14276 1.7013 0
M  V30 3822 C 358.248 -6.02477 1.02296 0
M  V30 3823 C 359.246 -6.58403 1.81643 0
M  V30 3824 O 358.934 -7.56751 2.71262 0
M  V30 3825 H 358.666 -0.667915 -0.104235 0
M  V30 3826 H 361.22 -2.0257 0.339782 0
M  V30 3827 H 359.45 -3.42318 -1.79876 0
M  V30 3828 H 361.139 -3.7545 -1.54248 0
M  V30 3829 H 361.905 -4.79756 0.711288 0
M  V30 3830 H 357.784 -4.58323 -0.49605 0
M  V30 3831 H 361.328 -6.57854 2.32107 0
M  V30 3832 H 357.225 -6.35954 1.10599 0
M  V30 3833 H 357.993 -7.74286 2.65375 0
M  V30 3834 N 360.656 0.0484629 -1.57525 0
M  V30 3835 C 361.586 1.0549 -2.08313 0
M  V30 3836 C 362.567 1.38929 -0.981463 0
M  V30 3837 O 363.752 1.48151 -1.25558 0
M  V30 3838 C 360.882 2.36162 -2.54646 0
M  V30 3839 C 359.836 2.17016 -3.68901 0
M  V30 3840 C 359.162 3.53278 -4.01371 0
M  V30 3841 C 360.462 1.57219 -4.98076 0
M  V30 3842 H 362.156 0.632195 -2.92649 0
M  V30 3843 H 359.702 0.302654 -1.40784 0
M  V30 3844 H 361.655 3.06882 -2.88793 0
M  V30 3845 H 360.379 2.80456 -1.67368 0
M  V30 3846 H 359.038 1.48733 -3.35073 0
M  V30 3847 H 358.686 3.95185 -3.11188 0
M  V30 3848 H 358.386 3.41299 -4.78318 0
M  V30 3849 H 359.91 4.25391 -4.38035 0
M  V30 3850 H 361.324 2.17832 -5.30304 0
M  V30 3851 H 359.721 1.55871 -5.79503 0
M  V30 3852 H 360.791 0.535956 -4.81929 0
M  V30 3853 N 362.134 1.5431 0.320358 0
M  V30 3854 C 363.38 1.72924 1.05949 0
M  V30 3855 C 363.713 0.503185 1.87568 0
M  V30 3856 O 362.988 -0.499839 1.87968 0
M  V30 3857 C 363.271 3.00676 1.98156 0
M  V30 3858 C 363.124 4.3354 1.19845 0
M  V30 3859 C 364.443 3.24198 2.9763 0
M  V30 3860 H 361.562 0.629195 0.383774 0
M  V30 3861 H 364.204 1.87008 0.335854 0
M  V30 3862 H 362.354 2.888 2.59859 0
M  V30 3863 H 364.026 4.57305 0.605773 0
M  V30 3864 H 362.269 4.309 0.500784 0
M  V30 3865 H 362.94 5.19156 1.87567 0
M  V30 3866 H 365.416 3.35557 2.4605 0
M  V30 3867 H 364.292 4.14938 3.59329 0
M  V30 3868 H 364.553 2.41577 3.7026 0
M  V30 3869 N 363.613 -0.582584 1.46437 0
M  V30 3870 C 364.576 -1.67366 1.56592 0
M  V30 3871 C 365.576 -1.54575 0.443072 0
M  V30 3872 O 366.766 -1.59191 0.707381 0
M  V30 3873 C 363.898 -3.06791 1.48634 0
M  V30 3874 H 365.091 -1.5972 2.5383 0
M  V30 3875 H 362.644 -0.800432 1.34249 0
M  V30 3876 H 363.379 -3.19993 0.526763 0
M  V30 3877 H 363.164 -3.17484 2.30101 0
M  V30 3878 H 364.654 -3.86218 1.58826 0
M  V30 3879 N 365.091 -1.34144 -0.827227 0
M  V30 3880 C 366.338 -1.26258 -1.58319 0
M  V30 3881 C 366.666 0.168595 -1.93768 0
M  V30 3882 O 365.921 1.12877 -1.59866 0
M  V30 3883 C 366.22 -2.09464 -2.89585 0
M  V30 3884 C 365.886 -3.58521 -2.73448 0
M  V30 3885 C 364.548 -3.99155 -2.68754 0
M  V30 3886 C 366.9 -4.53189 -2.57428 0
M  V30 3887 C 364.228 -5.32656 -2.45957 0
M  V30 3888 C 366.58 -5.86864 -2.36163 0
M  V30 3889 C 365.244 -6.26667 -2.29879 0
M  V30 3890 H 364.514 -0.462013 -0.579332 0
M  V30 3891 H 367.161 -1.65845 -0.95748 0
M  V30 3892 H 365.466 -1.62692 -3.56425 0
M  V30 3893 H 367.163 -2.00712 -3.47154 0
M  V30 3894 H 363.753 -3.26264 -2.77939 0
M  V30 3895 H 367.937 -4.22696 -2.60081 0
M  V30 3896 H 363.193 -5.62519 -2.39546 0
M  V30 3897 H 367.367 -6.59813 -2.22754 0
M  V30 3898 H 364.994 -7.30049 -2.11975 0
M  V30 3899 N 366.569 1.04691 -1.17803 0
M  V30 3900 C 367.815 1.78045 -0.970969 0
M  V30 3901 C 368.148 1.87686 0.498751 0
M  V30 3902 O 367.423 1.38035 1.37027 0
M  V30 3903 C 367.706 3.2166 -1.61884 0
M  V30 3904 C 367.559 3.20001 -3.161 0
M  V30 3905 C 368.878 4.1962 -1.3269 0
M  V30 3906 H 365.997 0.64633 -0.354155 0
M  V30 3907 H 368.639 1.22333 -1.45378 0
M  V30 3908 H 366.789 3.69232 -1.20831 0
M  V30 3909 H 368.461 2.80467 -3.66246 0
M  V30 3910 H 366.704 2.58203 -3.48588 0
M  V30 3911 H 367.375 4.21386 -3.56564 0
M  V30 3912 H 369.851 3.80567 -1.68249 0
M  V30 3913 H 368.727 5.18339 -1.80599 0
M  V30 3914 H 368.988 4.414 -0.248622 0
M  V30 3915 N 368.047 0.979072 1.23499 0
M  V30 3916 C 369.293 0.648178 1.92163 0
M  V30 3917 C 369.626 -0.816049 1.76222 0
M  V30 3918 O 368.901 -1.58849 1.12237 0
M  V30 3919 C 369.184 1.03773 3.44824 0
M  V30 3920 C 369.037 2.55948 3.69879 0
M  V30 3921 C 370.356 0.580653 4.36253 0
M  V30 3922 H 367.475 0.236952 0.69787 0
M  V30 3923 H 370.117 1.22012 1.45647 0
M  V30 3924 H 368.267 0.551058 3.84572 0
M  V30 3925 H 369.939 3.12179 3.3962 0
M  V30 3926 H 368.182 2.98641 3.14636 0
M  V30 3927 H 368.853 2.78255 4.76737 0
M  V30 3928 H 371.329 0.998465 4.03943 0
M  V30 3929 H 370.205 0.881663 5.41773 0
M  V30 3930 H 370.466 -0.519052 4.39042 0
M  V30 3931 N 369.525 -1.3858 0.750561 0
M  V30 3932 C 370.773 -1.99789 0.30477 0
M  V30 3933 C 371.094 -1.59874 -1.11649 0
M  V30 3934 O 370.364 -0.85417 -1.76297 0
M  V30 3935 H 368.944 -0.738902 0.109694 0
M  V30 3936 H 371.606 -1.69391 0.963983 0
M  V30 3937 H 370.702 -3.09952 0.365499 0
M  V30 3938 N 371.003 -0.499398 -1.49478 0
M  V30 3939 C 371.913 0.284489 -2.32869 0
M  V30 3940 C 372.929 0.968885 -1.44529 0
M  V30 3941 O 374.105 0.95062 -1.77553 0
M  V30 3942 C 371.17 1.33594 -3.19928 0
M  V30 3943 C 370.231 0.665149 -4.24116 0
M  V30 3944 C 369.464 1.6665 -5.07014 0
M  V30 3945 O 369.687 2.89618 -4.91404 0
M  V30 3946 O 368.621 1.22271 -5.8935 0
M  V30 3947 H 372.447 -0.39802 -3.01081 0
M  V30 3948 H 370.032 -0.260758 -1.47107 0
M  V30 3949 H 371.914 1.94431 -3.73864 0
M  V30 3950 H 370.589 2.0014 -2.54412 0
M  V30 3951 H 369.496 0.0170769 -3.74096 0
M  V30 3952 H 370.829 0.0421555 -4.92182 0
M  V30 3953 N 372.481 1.55866 -0.233164 0
M  V30 3954 C 373.711 2.02704 0.399325 0
M  V30 3955 C 374.119 1.11204 1.53069 0
M  V30 3956 O 373.462 0.116182 1.83332 0
M  V30 3957 C 373.524 3.45844 0.981429 0
M  V30 3958 C 373.188 4.56997 -0.0159561 0
M  V30 3959 C 374.185 5.13384 -0.820552 0
M  V30 3960 C 371.87 5.0211 -0.138072 0
M  V30 3961 C 373.864 6.13365 -1.73386 0
M  V30 3962 C 371.551 6.01926 -1.0549 0
M  V30 3963 C 372.549 6.57431 -1.85132 0
M  V30 3964 O 372.237 7.55302 -2.75272 0
M  V30 3965 H 371.969 0.668459 0.100692 0
M  V30 3966 H 374.523 2.02387 -0.35052 0
M  V30 3967 H 372.753 3.43267 1.78058 0
M  V30 3968 H 374.442 3.76262 1.52255 0
M  V30 3969 H 375.208 4.79372 -0.736721 0
M  V30 3970 H 371.087 4.5858 0.471737 0
M  V30 3971 H 374.631 6.56614 -2.35592 0
M  V30 3972 H 370.528 6.35359 -1.1397 0
M  V30 3973 H 371.296 7.72867 -2.69477 0
M  V30 3974 N 373.959 -0.0401083 1.57549 0
M  V30 3975 C 375.236 -0.767917 1.79896 0
M  V30 3976 C 375.616 -1.9416 0.82856 0
M  V30 3977 O 374.964 -2.2812 -0.131671 0
M  V30 3978 C 375.174 -1.2113 3.27305 0
M  V30 3979 C 376.522 -1.63175 3.91994 0
M  V30 3980 O 377.546 -1.30616 3.31388 0
M  V30 3981 O 376.405 -2.23565 4.98679 0
M  V30 3982 H 373.499 -0.370441 0.739393 0
M  V30 3983 H 376.045 -0.017737 1.69691 0
M  V30 3984 H 374.817 -0.372937 3.89519 0
M  V30 3985 H 374.44 -2.02183 3.42356 0
M  V30 3986 N 375.437 -1.54477 -0.31217 0
M  V30 3987 C 376.684 -1.73227 -1.04875 0
M  V30 3988 C 377.012 -0.512042 -1.87639 0
M  V30 3989 O 376.267 0.506131 -1.89042 0
M  V30 3990 C 376.566 -2.967 -1.99258 0
M  V30 3991 C 376.232 -4.30974 -1.32559 0
M  V30 3992 C 374.894 -4.67477 -1.141 0
M  V30 3993 C 377.246 -5.14258 -0.847835 0
M  V30 3994 C 374.574 -5.84852 -0.465326 0
M  V30 3995 C 376.926 -6.32327 -0.185931 0
M  V30 3996 C 375.59 -6.67499 0.0107077 0
M  V30 3997 H 374.86 -0.633881 -0.383765 0
M  V30 3998 H 377.507 -1.88727 -0.324731 0
M  V30 3999 H 375.812 -2.75935 -2.7815 0
M  V30 4000 H 377.509 -3.08401 -2.563 0
M  V30 4001 H 374.099 -4.02262 -1.4793 0
M  V30 4002 H 378.283 -4.86565 -0.978192 0
M  V30 4003 H 373.539 -6.10654 -0.301883 0
M  V30 4004 H 377.713 -6.96135 0.192211 0
M  V30 4005 H 375.34 -7.58306 0.536287 0
M  V30 4006 N 376.915 0.57481 -1.46744 0
M  V30 4007 C 378.161 1.3347 -1.52688 0
M  V30 4008 C 378.494 1.93353 -0.181229 0
M  V30 4009 O 377.769 1.76912 0.808237 0
M  V30 4010 C 378.052 2.45811 -2.63152 0
M  V30 4011 C 377.905 1.90912 -4.07275 0
M  V30 4012 C 379.224 3.47822 -2.69644 0
M  V30 4013 H 376.343 0.483935 -0.555856 0
M  V30 4014 H 378.985 0.644968 -1.78718 0
M  V30 4015 H 377.135 3.04646 -2.41088 0
M  V30 4016 H 378.807 1.36473 -4.4065 0
M  V30 4017 H 377.05 1.21691 -4.16382 0
M  V30 4018 H 377.721 2.72042 -4.80309 0
M  V30 4019 H 380.197 2.9888 -2.895 0
M  V30 4020 H 379.073 4.23876 -3.48742 0
M  V30 4021 H 379.334 4.05555 -1.76005 0
M  V30 4022 N 378.394 1.34581 0.820102 0
M  V30 4023 C 379.304 1.28471 1.96297 0
M  V30 4024 C 380.32 0.191902 1.72939 0
M  V30 4025 O 381.496 0.418879 1.96996 0
M  V30 4026 C 378.561 1.04281 3.30645 0
M  V30 4027 C 377.622 2.22745 3.66992 0
M  V30 4028 C 376.855 1.997 4.9493 0
M  V30 4029 O 377.078 0.956656 5.6232 0
M  V30 4030 O 376.012 2.86723 5.2922 0
M  V30 4031 H 379.838 2.24624 2.04396 0
M  V30 4032 H 377.423 1.14816 0.955913 0
M  V30 4033 H 379.305 0.925841 4.11104 0
M  V30 4034 H 377.98 0.111697 3.23507 0
M  V30 4035 H 376.887 2.40003 2.86966 0
M  V30 4036 H 378.22 3.14257 3.78819 0
M  V30 4037 N 379.872 -1.04064 1.18357 0
M  V30 4038 C 381.1 -1.80916 1.00384 0
M  V30 4039 C 381.515 -1.83414 -0.447738 0
M  V30 4040 O 380.872 -1.26962 -1.31099 0
M  V30 4041 C 380.923 -3.26516 1.55144 0
M  V30 4042 O 380.644 -3.2424 2.94618 0
M  V30 4043 C 382.145 -4.20013 1.41789 0
M  V30 4044 H 379.365 -0.569728 0.354474 0
M  V30 4045 H 381.909 -1.31151 1.56906 0
M  V30 4046 H 380.064 -3.73512 1.02798 0
M  V30 4047 H 380.478 -4.15452 3.20156 0
M  V30 4048 H 381.952 -5.20111 1.84901 0
M  V30 4049 H 382.429 -4.37667 0.36661 0
M  V30 4050 H 383.035 -3.78881 1.93207 0
M  V30 4051 N 381.35 -0.985608 -1.22978 0
M  V30 4052 C 382.766 -0.695104 -1.43668 0
M  V30 4053 C 382.966 0.736866 -1.87543 0
M  V30 4054 O 382.022 1.50868 -2.02473 0
M  V30 4055 C 383.335 -1.69447 -2.48412 0
M  V30 4056 C 384.883 -1.70909 -2.62219 0
M  V30 4057 C 385.358 -2.6969 -3.70178 0
M  V30 4058 N 386.849 -2.6824 -3.77626 0
M  V30 4059 C 387.584 -3.41339 -4.60733 0
M  V30 4060 N 387.08 -4.24015 -5.4789 0
M  V30 4061 N 388.873 -3.30079 -4.54977 0
M  V30 4062 H 381.024 -1.91054 -0.928016 0
M  V30 4063 H 383.287 -0.823553 -0.469536 0
M  V30 4064 H 382.993 -2.7188 -2.23102 0
M  V30 4065 H 382.867 -1.48147 -3.46889 0
M  V30 4066 H 385.254 -0.691785 -2.86877 0
M  V30 4067 H 385.335 -1.96276 -1.6404 0
M  V30 4068 H 384.979 -3.71566 -3.46268 0
M  V30 4069 H 384.909 -2.41595 -4.67909 0
M  V30 4070 H 387.4 -2.08243 -3.15346 0
M  V30 4071 H 387.713 -4.76636 -6.08308 0
M  V30 4072 H 386.058 -4.28104 -5.47496 0
M  V30 4073 H 389.249 -2.64937 -3.85909 0
M  V30 4074 H 389.422 -3.87308 -5.19516 0
M  V30 4075 N 382.828 1.3818 -0.7579 0
M  V30 4076 C 384.053 2.04827 -0.325679 0
M  V30 4077 C 384.478 1.56788 1.03919 0
M  V30 4078 O 383.836 0.721811 1.66312 0
M  V30 4079 C 383.884 3.58774 -0.362447 0
M  V30 4080 O 382.988 4.07372 0.642033 0
M  V30 4081 H 382.329 0.64833 -0.143402 0
M  V30 4082 H 384.859 1.7677 -1.03023 0
M  V30 4083 H 384.869 4.07434 -0.214844 0
M  V30 4084 H 383.544 3.93096 -1.35824 0
M  V30 4085 H 382.121 3.70068 0.458688 0
M  V30 4086 N 384.306 0.507319 1.49211 0
M  V30 4087 C 385.253 -0.267728 2.29242 0
M  V30 4088 C 386.223 -0.954609 1.35928 0
M  V30 4089 O 387.408 -0.960046 1.64887 0
M  V30 4090 C 384.548 -1.32243 3.18756 0
M  V30 4091 C 383.661 -0.64669 4.27132 0
M  V30 4092 C 382.796 -1.68238 5.03855 0
M  V30 4093 C 381.835 -0.98885 6.0406 0
M  V30 4094 N 380.972 -1.96903 6.73924 0
M  V30 4095 H 385.812 0.420968 2.95012 0
M  V30 4096 H 383.349 0.219443 1.45454 0
M  V30 4097 H 385.307 -1.94599 3.69036 0
M  V30 4098 H 383.937 -1.97981 2.54958 0
M  V30 4099 H 382.989 0.0902926 3.80293 0
M  V30 4100 H 384.301 -0.101058 4.98698 0
M  V30 4101 H 383.455 -2.38081 5.58034 0
M  V30 4102 H 382.194 -2.26187 4.32077 0
M  V30 4103 H 381.199 -0.276222 5.49106 0
M  V30 4104 H 382.424 -0.415767 6.77826 0
M  V30 4105 H 380.37 -2.53803 6.04913 0
M  V30 4106 H 380.287 -1.47423 7.41487 0
M  V30 4107 H 381.555 -2.66015 7.32705 0
M  V30 4108 N 385.784 -1.5574 0.241426 0
M  V30 4109 C 387.061 -1.90704 -0.434881 0
M  V30 4110 C 387.441 -1.16145 -1.76277 0
M  V30 4111 O 386.789 -0.277152 -2.26813 0
M  V30 4112 C 386.999 -3.43657 -0.608343 0
M  V30 4113 C 388.347 -4.14806 -0.906725 0
M  V30 4114 O 389.371 -3.49366 -0.694408 0
M  V30 4115 O 388.23 -5.30548 -1.31075 0
M  V30 4116 H 385.324 -0.793592 -0.23268 0
M  V30 4117 H 387.87 -1.67288 0.285086 0
M  V30 4118 H 386.642 -3.89927 0.327505 0
M  V30 4119 H 386.265 -3.72918 -1.37906 0
M  V30 4120 N 387.262 0.0317525 -1.57568 0
M  V30 4121 C 388.51 0.721676 -1.88776 0
M  V30 4122 C 388.831 1.76039 -0.838772 0
M  V30 4123 O 388.101 1.95482 0.127935 0
M  V30 4124 H 386.681 0.269534 -0.696678 0
M  V30 4125 H 389.343 -0.00165879 -1.949 0
M  V30 4126 H 388.439 1.21293 -2.87566 0
M  V30 4127 N 388.74 1.54641 0.303973 0
M  V30 4128 C 389.986 1.74038 1.04109 0
M  V30 4129 C 390.319 0.523051 1.87024 0
M  V30 4130 O 389.594 -0.479874 1.88487 0
M  V30 4131 C 389.877 3.02761 1.94955 0
M  V30 4132 C 389.73 4.34787 1.1524 0
M  V30 4133 C 391.049 3.27336 2.94175 0
M  V30 4134 H 388.168 0.63323 0.377079 0
M  V30 4135 H 390.81 1.87354 0.316001 0
M  V30 4136 H 388.96 2.9154 2.56782 0
M  V30 4137 H 390.632 4.57922 0.557236 0
M  V30 4138 H 388.875 4.31407 0.455053 0
M  V30 4139 H 389.546 5.21116 1.8205 0
M  V30 4140 H 392.022 3.38148 2.42477 0
M  V30 4141 H 390.898 4.18726 3.54908 0
M  V30 4142 H 391.159 2.45491 3.67677 0
M  V30 4143 N 390.218 -0.567019 1.47046 0
M  V30 4144 C 391.458 -1.3355 1.54738 0
M  V30 4145 C 391.822 -1.90947 0.200772 0
M  V30 4146 O 393.023 -2.68367 0.152489 0
M  V30 4147 C 391.294 -2.42317 2.62712 0
M  V30 4148 S 392.853 -3.29383 2.89918 0
M  V30 4149 H 389.671 -0.454788 0.546525 0
M  V30 4150 H 392.273 -0.650191 1.84371 0
M  V30 4151 H 390.977 -1.98568 3.59164 0
M  V30 4152 H 390.508 -3.15601 2.34861 0
M  V30 4153 H 392.523 -4.41548 2.26384 0
M  V30 4154 N 391.696 -1.35014 -0.812953 0
M  V30 4155 C 392.942 -1.2812 -1.57204 0
M  V30 4156 C 393.275 0.145869 -1.93651 0
M  V30 4157 O 392.55 1.0937 -1.60836 0
M  V30 4158 C 392.833 -2.18162 -2.86492 0
M  V30 4159 C 392.686 -3.69454 -2.56561 0
M  V30 4160 C 394.005 -2.07439 -3.88145 0
M  V30 4161 H 391.124 -0.466746 -0.570366 0
M  V30 4162 H 393.766 -1.65357 -0.935783 0
M  V30 4163 H 391.916 -1.86535 -3.40789 0
M  V30 4164 H 393.588 -4.11493 -2.08497 0
M  V30 4165 H 391.831 -3.9005 -1.89851 0
M  V30 4166 H 392.502 -4.27835 -3.48799 0
M  V30 4167 H 394.978 -2.35228 -3.4323 0
M  V30 4168 H 393.854 -2.7265 -4.76396 0
M  V30 4169 H 394.115 -1.05439 -4.29343 0
M  V30 4170 N 393.175 1.03435 -1.18907 0
M  V30 4171 C 394.591 1.28973 -0.940111 0
M  V30 4172 C 394.791 1.97676 0.390691 0
M  V30 4173 O 393.847 2.26127 1.12352 0
M  V30 4174 C 395.16 2.14221 -2.11021 0
M  V30 4175 C 396.708 2.27547 -2.14922 0
M  V30 4176 C 397.183 3.16164 -3.31367 0
M  V30 4177 N 398.674 3.23752 -3.31269 0
M  V30 4178 C 399.409 3.92495 -4.18014 0
M  V30 4179 N 398.905 4.63515 -5.14904 0
M  V30 4180 N 400.698 3.88838 -4.05908 0
M  V30 4181 H 392.849 0.57252 -2.04538 0
M  V30 4182 H 395.112 0.315184 -0.894071 0
M  V30 4183 H 394.818 1.71054 -3.073 0
M  V30 4184 H 394.692 3.14919 -2.0762 0
M  V30 4185 H 397.079 2.69947 -1.19217 0
M  V30 4186 H 397.16 1.26418 -2.22378 0
M  V30 4187 H 396.804 2.74474 -4.27348 0
M  V30 4188 H 396.734 4.17339 -3.21148 0
M  V30 4189 H 399.225 2.73167 -2.61129 0
M  V30 4190 H 399.538 5.13583 -5.77453 0
M  V30 4191 H 397.883 4.62398 -5.18857 0
M  V30 4192 H 401.074 3.32491 -3.29495 0
M  V30 4193 H 401.247 4.4214 -4.73726 0
M  V30 4194 N 394.653 0.992116 1.22453 0
M  V30 4195 C 395.899 0.668523 1.91464 0
M  V30 4196 C 396.232 -0.797313 1.77078 0
M  V30 4197 O 395.507 -1.5765 1.13916 0
M  V30 4198 C 395.79 1.07424 3.43703 0
M  V30 4199 C 395.643 2.59857 3.67143 0
M  V30 4200 C 396.962 0.626891 4.35612 0
M  V30 4201 H 394.081 0.244341 0.695318 0
M  V30 4202 H 396.723 1.2355 1.44345 0
M  V30 4203 H 394.873 0.591816 3.83966 0
M  V30 4204 H 396.545 3.15764 3.3629 0
M  V30 4205 H 394.788 3.01961 3.11451 0
M  V30 4206 H 395.459 2.83296 4.73759 0
M  V30 4207 H 397.935 1.04125 4.02861 0
M  V30 4208 H 396.811 0.939076 5.40807 0
M  V30 4209 H 397.072 -0.472457 4.39568 0
M  V30 4210 N 396.131 -1.37776 0.765217 0
M  V30 4211 C 397.361 -2.03828 0.337277 0
M  V30 4212 C 397.769 -1.57841 -1.04321 0
M  V30 4213 O 397.112 -0.752043 -1.67601 0
M  V30 4214 C 397.174 -3.58292 0.294407 0
M  V30 4215 C 396.838 -4.27384 1.61838 0
M  V30 4216 C 397.835 -4.51956 2.56967 0
M  V30 4217 C 395.52 -4.65345 1.89102 0
M  V30 4218 C 397.514 -5.13536 3.77571 0
M  V30 4219 C 395.201 -5.26647 3.09978 0
M  V30 4220 C 396.199 -5.50679 4.04032 0
M  V30 4221 O 395.887 -6.10702 5.2278 0
M  V30 4222 H 395.619 -0.661292 0.140248 0
M  V30 4223 H 398.173 -1.77222 1.03834 0
M  V30 4224 H 396.403 -3.83918 -0.462983 0
M  V30 4225 H 398.092 -4.05763 -0.105581 0
M  V30 4226 H 398.858 -4.23048 2.37183 0
M  V30 4227 H 394.737 -4.45978 1.16725 0
M  V30 4228 H 398.281 -5.3221 4.50997 0
M  V30 4229 H 394.178 -5.54979 3.29649 0
M  V30 4230 H 394.946 -6.29183 5.23517 0
M  V30 4231 N 397.609 -0.515225 -1.4894 0
M  V30 4232 C 398.837 0.0206034 -2.0689 0
M  V30 4233 C 399.252 1.29514 -1.37374 0
M  V30 4234 O 398.609 1.76698 -0.456529 0
M  V30 4235 C 398.66 0.26351 -3.60538 0
M  V30 4236 O 398.381 -0.960517 -4.27441 0
M  V30 4237 C 399.882 0.841383 -4.35242 0
M  V30 4238 H 397.102 -0.0268608 -0.670462 0
M  V30 4239 H 399.646 -0.716651 -1.91532 0
M  V30 4240 H 397.801 0.950777 -3.75552 0
M  V30 4241 H 398.215 -0.73212 -5.19365 0
M  V30 4242 H 399.689 0.96085 -5.43573 0
M  V30 4243 H 400.166 1.8427 -3.98674 0
M  V30 4244 H 400.772 0.191143 -4.2487 0
M  V30 4245 N 399.087 1.5561 -0.249682 0
M  V30 4246 C 400.498 1.84979 0.252949 0
M  V30 4247 C 400.849 1.17153 1.57384 0
M  V30 4248 O 399.974 0.450884 2.11651 0
M  V30 4249 C 400.569 3.35584 0.465732 0
M  V30 4250 C 399.128 3.65169 0.912624 0
M  V30 4251 C 398.275 2.77299 -0.00859085 0
M  V30 4252 H 401.226 1.51513 -0.47217 0
M  V30 4253 H 401.247 3.57313 1.30795 0
M  V30 4254 H 400.759 3.8492 -0.49579 0
M  V30 4255 H 398.86 3.21312 1.88652 0
M  V30 4256 H 398.973 4.72912 0.767559 0
M  V30 4257 H 397.337 2.49678 0.50327 0
M  V30 4258 H 398.12 3.29442 -0.965537 0
M  V30 4259 N 400.565 -0.0233959 1.57583 0
M  V30 4260 C 401.811 -0.714119 1.89811 0
M  V30 4261 C 402.144 -1.74702 0.848113 0
M  V30 4262 O 401.419 -1.94023 -0.136135 0
M  V30 4263 C 401.702 -1.37853 3.32669 0
M  V30 4264 C 401.555 -0.358764 4.48367 0
M  V30 4265 C 402.874 -2.31101 3.7454 0
M  V30 4266 H 399.993 -0.25814 0.690314 0
M  V30 4267 H 402.635 0.0230927 1.89986 0
M  V30 4268 H 400.785 -2.00689 3.3265 0
M  V30 4269 H 402.457 0.268115 4.6052 0
M  V30 4270 H 400.7 0.321387 4.32608 0
M  V30 4271 H 401.371 -0.862242 5.45224 0
M  V30 4272 H 403.847 -1.78304 3.75961 0
M  V30 4273 H 402.723 -2.74567 4.75294 0
M  V30 4274 H 402.984 -3.18018 3.0711 0
M  V30 4275 N 402.043 -1.548 -0.295768 0
M  V30 4276 C 403.291 -1.73985 -1.02828 0
M  V30 4277 C 403.612 -0.531406 -1.87619 0
M  V30 4278 O 402.882 0.454221 -1.90561 0
M  V30 4279 H 401.462 -0.641556 -0.382642 0
M  V30 4280 H 404.124 -1.92163 -0.325489 0
M  V30 4281 H 403.22 -2.63129 -1.67838 0
M  V30 4282 N 403.521 0.559213 -1.47345 0
M  V30 4283 C 404.468 1.66645 -1.59682 0
M  V30 4284 C 405.438 1.60168 -0.43994 0
M  V30 4285 O 406.623 1.79031 -0.659736 0
M  V30 4286 C 403.763 3.04969 -1.61518 0
M  V30 4287 C 402.876 3.21897 -2.88108 0
M  V30 4288 C 402.011 4.50608 -2.81294 0
M  V30 4289 C 401.05 4.60961 -4.02717 0
M  V30 4290 N 400.187 5.81024 -3.94151 0
M  V30 4291 H 405.027 1.55439 -2.54249 0
M  V30 4292 H 402.564 0.757219 -1.26113 0
M  V30 4293 H 404.522 3.85064 -1.60566 0
M  V30 4294 H 403.152 3.15015 -0.704645 0
M  V30 4295 H 402.204 2.35248 -2.98936 0
M  V30 4296 H 403.516 3.25412 -3.78032 0
M  V30 4297 H 402.67 5.3896 -2.7858 0
M  V30 4298 H 401.409 4.49568 -1.89049 0
M  V30 4299 H 400.414 3.71021 -4.05738 0
M  V30 4300 H 401.639 4.63761 -4.96087 0
M  V30 4301 H 399.585 5.80938 -3.04708 0
M  V30 4302 H 399.502 5.85909 -4.77752 0
M  V30 4303 H 400.77 6.71744 -3.9545 0
M  V30 4304 N 404.999 1.35443 0.805782 0
M  V30 4305 C 405.962 1.28301 1.89925 0
M  V30 4306 C 406.962 0.194285 1.59622 0
M  V30 4307 O 408.152 0.448036 1.6834 0
M  V30 4308 C 405.284 0.984997 3.2636 0
M  V30 4309 H 406.477 2.2553 1.97677 0
M  V30 4310 H 404.03 1.19979 1.00173 0
M  V30 4311 H 404.765 0.016603 3.24296 0
M  V30 4312 H 404.55 1.77269 3.4974 0
M  V30 4313 H 406.04 0.960651 4.064 0
M  V30 4314 N 406.477 -1.02803 1.19454 0
M  V30 4315 C 407.387 -2.14575 0.948408 0
M  V30 4316 C 408.403 -1.73757 -0.091871 0
M  V30 4317 O 409.579 -2.01185 0.0929654 0
M  V30 4318 C 406.644 -3.43202 0.491265 0
M  V30 4319 C 405.705 -3.98328 1.60103 0
M  V30 4320 C 404.938 -5.20816 1.16561 0
M  V30 4321 O 405.161 -5.70392 0.0295238 0
M  V30 4322 O 404.095 -5.68801 1.96849 0
M  V30 4323 H 407.921 -2.38202 1.88397 0
M  V30 4324 H 405.506 -1.12989 0.977433 0
M  V30 4325 H 407.388 -4.20687 0.245015 0
M  V30 4326 H 406.063 -3.21018 -0.415851 0
M  V30 4327 H 404.97 -3.22174 1.90144 0
M  V30 4328 H 406.303 -4.24879 2.48473 0
M  V30 4329 N 407.956 -0.998596 -1.21925 0
M  V30 4330 C 408.888 -0.511879 -2.23411 0
M  V30 4331 C 409.901 0.396094 -1.57908 0
M  V30 4332 O 411.09 0.197316 -1.77406 0
M  V30 4333 C 408.19 0.276802 -3.37768 0
M  V30 4334 C 407.363 -0.628687 -4.32858 0
M  V30 4335 C 406.422 0.109272 -5.26087 0
M  V30 4336 O 405.448 -0.507237 -5.66935 0
M  V30 4337 N 406.65 1.38983 -5.63617 0
M  V30 4338 H 409.415 -1.38457 -2.658 0
M  V30 4339 H 406.976 -0.873981 -1.36283 0
M  V30 4340 H 408.968 0.77928 -3.97126 0
M  V30 4341 H 407.538 1.05063 -2.94415 0
M  V30 4342 H 406.758 -1.31175 -3.71735 0
M  V30 4343 H 408.046 -1.24514 -4.93329 0
M  V30 4344 H 407.444 1.91194 -5.32411 0
M  V30 4345 H 406.001 1.83739 -6.25367 0
M  V30 4346 N 409.434 1.37368 -0.772513 0
M  V30 4347 C 410.682 1.99279 -0.336516 0
M  V30 4348 C 411.003 1.6163 1.09091 0
M  V30 4349 O 410.273 0.882109 1.74916 0
M  V30 4350 H 408.853 0.737063 -0.121435 0
M  V30 4351 H 411.515 1.67836 -0.990809 0
M  V30 4352 H 410.611 3.09332 -0.414763 0
M  V30 4353 N 410.912 0.523116 1.48665 0
M  V30 4354 C 411.859 -0.243398 2.29513 0
M  V30 4355 C 412.829 -0.940139 1.36933 0
M  V30 4356 O 414.014 -0.942503 1.65896 0
M  V30 4357 C 411.154 -1.28855 3.20141 0
M  V30 4358 C 410.267 -0.60135 4.27794 0
M  V30 4359 C 409.402 -1.62884 5.05611 0
M  V30 4360 C 408.441 -0.924726 6.05075 0
M  V30 4361 N 407.578 -1.89744 6.75975 0
M  V30 4362 H 412.418 0.452234 2.94549 0
M  V30 4363 H 409.955 0.234858 1.45213 0
M  V30 4364 H 411.913 -1.90674 3.71079 0
M  V30 4365 H 410.543 -1.95266 2.57043 0
M  V30 4366 H 409.595 0.130623 3.80176 0
M  V30 4367 H 410.907 -0.0481585 4.98777 0
M  V30 4368 H 410.061 -2.32149 5.60528 0
M  V30 4369 H 408.8 -2.21592 4.34452 0
M  V30 4370 H 407.805 -0.217966 5.49368 0
M  V30 4371 H 409.03 -0.343851 6.78229 0
M  V30 4372 H 406.976 -2.47373 6.07571 0
M  V30 4373 H 406.893 -1.3955 7.43009 0
M  V30 4374 H 408.161 -2.58229 7.35485 0
M  V30 4375 N 412.39 -1.55475 0.257931 0
M  V30 4376 C 413.637 -1.99207 -0.363728 0
M  V30 4377 C 413.965 -1.1462 -1.57139 0
M  V30 4378 O 413.22 -0.199653 -1.94679 0
M  V30 4379 C 413.519 -3.48183 -0.806433 0
M  V30 4380 C 413.185 -4.49936 0.294684 0
M  V30 4381 C 411.847 -4.77481 0.597076 0
M  V30 4382 C 414.199 -5.10769 1.03751 0
M  V30 4383 C 411.527 -5.63132 1.64618 0
M  V30 4384 C 413.879 -5.97558 2.07622 0
M  V30 4385 C 412.543 -6.23432 2.38514 0
M  V30 4386 H 411.813 -0.728949 -0.133097 0
M  V30 4387 H 414.46 -1.8793 0.368059 0
M  V30 4388 H 412.765 -3.56848 -1.61761 0
M  V30 4389 H 414.462 -3.79415 -1.29789 0
M  V30 4390 H 411.052 -4.28572 0.0488649 0
M  V30 4391 H 415.236 -4.89527 0.817149 0
M  V30 4392 H 410.492 -5.8143 1.89074 0
M  V30 4393 H 414.666 -6.43735 2.65666 0
M  V30 4394 H 412.293 -6.89594 3.19943 0
M  V30 4395 N 413.868 0.0150385 -1.57593 0
M  V30 4396 C 414.831 0.995996 -2.06428 0
M  V30 4397 C 415.831 1.2818 -0.970903 0
M  V30 4398 O 417.021 1.22949 -1.23406 0
M  V30 4399 C 414.153 2.32506 -2.49307 0
M  V30 4400 H 415.346 0.573873 -2.94358 0
M  V30 4401 H 412.899 0.262186 -1.54085 0
M  V30 4402 H 413.634 2.79438 -1.64575 0
M  V30 4403 H 413.419 2.13087 -3.29145 0
M  V30 4404 H 414.909 3.02906 -2.87468 0
M  V30 4405 N 415.346 1.54954 0.287554 0
M  V30 4406 C 416.276 1.89839 1.35954 0
M  V30 4407 C 417.257 0.758675 1.52244 0
M  V30 4408 O 418.442 1.01557 1.65529 0
M  V30 4409 C 415.572 2.15753 2.72154 0
M  V30 4410 C 414.526 3.3159 2.70614 0
M  V30 4411 C 413.852 3.42952 4.10229 0
M  V30 4412 C 415.152 4.68359 2.31165 0
M  V30 4413 H 416.846 2.79625 1.07007 0
M  V30 4414 H 414.392 1.3454 0.513316 0
M  V30 4415 H 416.345 2.38743 3.47246 0
M  V30 4416 H 415.069 1.22752 3.02654 0
M  V30 4417 H 413.728 3.08545 1.97979 0
M  V30 4418 H 413.376 2.47443 4.37928 0
M  V30 4419 H 413.076 4.20826 4.10097 0
M  V30 4420 H 414.6 3.68218 4.87081 0
M  V30 4421 H 416.014 4.9099 2.95976 0
M  V30 4422 H 414.411 5.49044 2.42221 0
M  V30 4423 H 415.481 4.68165 1.26291 0
M  V30 4424 N 416.824 -0.551391 1.4764 0
M  V30 4425 C 417.734 -1.68525 1.63207 0
M  V30 4426 C 418.75 -1.6621 0.514815 0
M  V30 4427 O 419.926 -1.85551 0.783113 0
M  V30 4428 C 416.991 -3.05025 1.64805 0
M  V30 4429 C 416.052 -3.18362 2.88 0
M  V30 4430 C 415.285 -4.4835 2.89513 0
M  V30 4431 O 415.508 -5.34163 2.00065 0
M  V30 4432 O 414.442 -4.65602 3.81443 0
M  V30 4433 H 418.268 -1.58333 2.59161 0
M  V30 4434 H 415.853 -0.722063 1.30792 0
M  V30 4435 H 417.735 -3.86245 1.68502 0
M  V30 4436 H 416.41 -3.15587 0.720197 0
M  V30 4437 H 415.317 -2.36518 2.89845 0
M  V30 4438 H 416.65 -3.12707 3.80099 0
M  V30 4439 N 418.302 -1.35869 -0.798587 0
M  V30 4440 C 419.548 -1.2978 -1.55836 0
M  V30 4441 C 419.881 0.125322 -1.93795 0
M  V30 4442 O 419.156 1.07658 -1.61987 0
M  V30 4443 C 419.439 -2.21188 -2.84162 0
M  V30 4444 C 419.292 -3.72155 -2.52628 0
M  V30 4445 C 420.611 -2.11545 -3.85923 0
M  V30 4446 H 417.73 -0.472769 -0.565383 0
M  V30 4447 H 420.372 -1.66341 -0.918192 0
M  V30 4448 H 418.522 -1.90139 -3.38791 0
M  V30 4449 H 420.194 -4.13682 -2.04121 0
M  V30 4450 H 418.437 -3.92042 -1.85704 0
M  V30 4451 H 419.108 -4.31511 -3.44242 0
M  V30 4452 H 421.584 -2.38855 -3.40716 0
M  V30 4453 H 420.46 -2.77688 -4.73477 0
M  V30 4454 H 420.721 -1.09987 -4.282 0
M  V30 4455 N 419.78 1.02168 -1.19998 0
M  V30 4456 C 420.743 2.08765 -0.94604 0
M  V30 4457 C 421.743 1.60618 0.0763846 0
M  V30 4458 O 422.933 1.73472 -0.159135 0
M  V30 4459 C 420.065 3.38262 -0.423255 0
M  V30 4460 H 421.258 2.32726 -1.89153 0
M  V30 4461 H 418.811 1.1889 -1.01464 0
M  V30 4462 H 419.546 3.19974 0.527938 0
M  V30 4463 H 419.331 3.74532 -1.16053 0
M  V30 4464 H 420.821 4.16759 -0.264911 0
M  V30 4465 N 421.258 1.00505 1.21394 0
M  V30 4466 C 422.221 0.570459 2.21987 0
M  V30 4467 C 423.221 -0.353211 1.56873 0
M  V30 4468 O 424.411 -0.14349 1.73608 0
M  V30 4469 C 421.543 -0.168555 3.40483 0
M  V30 4470 H 422.736 1.46021 2.6195 0
M  V30 4471 H 420.289 0.793565 1.34656 0
M  V30 4472 H 421.024 -1.07374 3.06009 0
M  V30 4473 H 420.809 0.494823 3.88965 0
M  V30 4474 H 422.299 -0.460362 4.15055 0
M  V30 4475 N 422.737 -1.36956 0.779787 0
M  V30 4476 C 423.684 -2.30175 0.169697 0
M  V30 4477 C 424.654 -1.51501 -0.68094 0
M  V30 4478 O 425.839 -1.80042 -0.631629 0
M  V30 4479 C 422.979 -3.37985 -0.697131 0
M  V30 4480 C 422.092 -4.31661 0.170992 0
M  V30 4481 C 421.227 -5.2655 -0.701298 0
M  V30 4482 C 420.266 -6.11867 0.168869 0
M  V30 4483 N 419.403 -6.98973 -0.661855 0
M  V30 4484 H 424.243 -2.81767 0.970135 0
M  V30 4485 H 421.78 -1.38699 0.489994 0
M  V30 4486 H 423.738 -3.99128 -1.2146 0
M  V30 4487 H 422.368 -2.87739 -1.46309 0
M  V30 4488 H 421.42 -3.71756 0.80634 0
M  V30 4489 H 422.732 -4.91644 0.841875 0
M  V30 4490 H 421.886 -5.92937 -1.28494 0
M  V30 4491 H 420.625 -4.66998 -1.40584 0
M  V30 4492 H 419.63 -5.44452 0.764986 0
M  V30 4493 H 420.855 -6.73493 0.870863 0
M  V30 4494 H 418.801 -6.41941 -1.35086 0
M  V30 4495 H 418.718 -7.55984 -0.0484447 0
M  V30 4496 H 419.986 -7.6974 -1.22963 0
M  V30 4497 N 424.215 -0.530993 -1.48385 0
M  V30 4498 C 425.443 -0.00134122 -2.069 0
M  V30 4499 C 425.858 1.2805 -1.3874 0
M  V30 4500 O 425.215 1.76204 -0.475244 0
M  V30 4501 C 425.266 0.225256 -3.60798 0
M  V30 4502 O 424.987 -1.0058 -4.26398 0
M  V30 4503 C 426.488 0.795172 -4.3611 0
M  V30 4504 H 423.708 -0.0339704 -0.67014 0
M  V30 4505 H 426.252 -0.736926 -1.90761 0
M  V30 4506 H 424.407 0.910891 -3.76539 0
M  V30 4507 H 424.821 -0.787165 -5.1856 0
M  V30 4508 H 426.295 0.903143 -5.44562 0
M  V30 4509 H 426.772 1.80031 -4.00606 0
M  V30 4510 H 427.378 0.146069 -4.25049 0
M  V30 4511 N 425.693 1.55336 -0.266172 0
M  V30 4512 C 426.623 2.25146 0.618981 0
M  V30 4513 C 427.604 1.23845 1.16604 0
M  V30 4514 O 428.789 1.52544 1.20183 0
M  V30 4515 C 425.919 2.96572 1.80728 0
M  V30 4516 C 424.873 4.04726 1.39215 0
M  V30 4517 C 424.199 4.63678 2.66283 0
M  V30 4518 C 425.499 5.19407 0.548942 0
M  V30 4519 H 427.193 2.99377 0.0368116 0
M  V30 4520 H 424.739 1.43991 0.0162651 0
M  V30 4521 H 426.692 3.44116 2.43232 0
M  V30 4522 H 425.416 2.19861 2.41514 0
M  V30 4523 H 424.075 3.57979 0.790351 0
M  V30 4524 H 423.723 3.83646 3.25308 0
M  V30 4525 H 423.423 5.367 2.39222 0
M  V30 4526 H 424.947 5.13967 3.29651 0
M  V30 4527 H 426.361 5.63059 1.07876 0
M  V30 4528 H 424.758 5.98936 0.373593 0
M  V30 4529 H 425.828 4.8295 -0.434394 0
M  V30 4530 N 427.171 -0.0066808 1.57599 0
M  V30 4531 C 428.582 -0.550379 1.78403 0
M  V30 4532 C 428.933 -1.74339 0.900014 0
M  V30 4533 O 428.058 -2.16166 0.100713 0
M  V30 4534 C 428.653 -1.00523 3.23544 0
M  V30 4535 C 427.212 -1.49428 3.45468 0
M  V30 4536 C 426.359 -0.442444 2.73748 0
M  V30 4537 H 429.31 0.219508 1.57175 0
M  V30 4538 H 429.331 -1.87157 3.31289 0
M  V30 4539 H 428.843 -0.136735 3.87859 0
M  V30 4540 H 426.944 -2.3839 2.86358 0
M  V30 4541 H 427.057 -1.52635 4.54136 0
M  V30 4542 H 425.421 -0.902578 2.38171 0
M  V30 4543 H 426.204 0.416973 3.40758 0
M  V30 4544 N 428.649 -1.55105 -0.279332 0
M  V30 4545 C 429.896 -1.75412 -1.01177 0
M  V30 4546 C 430.224 -0.551728 -1.86511 0
M  V30 4547 O 429.479 0.465919 -1.90073 0
M  V30 4548 C 429.778 -3.0086 -1.92919 0
M  V30 4549 C 429.444 -4.33689 -1.23387 0
M  V30 4550 C 428.106 -4.69792 -1.04159 0
M  V30 4551 C 430.458 -5.15941 -0.738562 0
M  V30 4552 C 427.786 -5.85707 -0.341166 0
M  V30 4553 C 430.138 -6.32579 -0.0517636 0
M  V30 4554 C 428.802 -6.67326 0.152292 0
M  V30 4555 H 428.072 -0.641879 -0.370233 0
M  V30 4556 H 430.719 -1.89373 -0.284627 0
M  V30 4557 H 429.024 -2.81773 -2.72234 0
M  V30 4558 H 430.721 -3.13768 -2.49701 0
M  V30 4559 H 427.311 -4.05309 -1.39364 0
M  V30 4560 H 431.495 -4.8853 -0.874764 0
M  V30 4561 H 426.751 -6.11157 -0.172287 0
M  V30 4562 H 430.925 -6.9557 0.339828 0
M  V30 4563 H 428.552 -7.56998 0.697014 0
M  V30 4564 N 430.127 0.543554 -1.4793 0
M  V30 4565 C 431.357 1.32324 -1.58663 0
M  V30 4566 C 431.765 1.8766 -0.240896 0
M  V30 4567 O 431.108 1.66411 0.778011 0
M  V30 4568 C 431.17 2.52094 -2.56299 0
M  V30 4569 C 430.834 2.17944 -4.01683 0
M  V30 4570 C 431.831 1.74422 -4.89768 0
M  V30 4571 C 429.516 2.28884 -4.47121 0
M  V30 4572 C 431.51 1.42287 -6.21316 0
M  V30 4573 C 429.197 1.96361 -5.78693 0
M  V30 4574 C 430.195 1.53132 -6.65612 0
M  V30 4575 O 429.883 1.21029 -7.94737 0
M  V30 4576 H 429.615 0.409174 -0.538101 0
M  V30 4577 H 432.169 0.663887 -1.94375 0
M  V30 4578 H 430.399 3.20965 -2.15681 0
M  V30 4579 H 432.088 3.14165 -2.57012 0
M  V30 4580 H 432.854 1.65452 -4.55907 0
M  V30 4581 H 428.733 2.61488 -3.79664 0
M  V30 4582 H 432.277 1.08472 -6.89115 0
M  V30 4583 H 428.174 2.04967 -6.12094 0
M  V30 4584 H 428.942 1.34543 -8.07366 0
M  V30 4585 N 431.605 1.3629 0.791371 0
M  V30 4586 C 432.552 1.30458 1.90393 0
M  V30 4587 C 433.522 0.173632 1.6519 0
M  V30 4588 O 434.707 0.35983 1.87376 0
M  V30 4589 C 431.847 1.09777 3.27174 0
M  V30 4590 C 430.96 2.31929 3.64462 0
M  V30 4591 C 430.095 2.04276 4.90352 0
M  V30 4592 C 429.134 3.224 5.20312 0
M  V30 4593 N 428.271 2.94424 6.37385 0
M  V30 4594 H 433.111 2.25589 1.94714 0
M  V30 4595 H 430.648 1.12122 0.952216 0
M  V30 4596 H 432.606 0.958133 4.06049 0
M  V30 4597 H 431.236 0.183014 3.22281 0
M  V30 4598 H 430.288 2.56703 2.80727 0
M  V30 4599 H 431.6 3.20085 3.82553 0
M  V30 4600 H 430.754 1.87231 5.77087 0
M  V30 4601 H 429.493 1.13428 4.74326 0
M  V30 4602 H 428.498 3.40005 4.32061 0
M  V30 4603 H 429.723 4.14071 5.38258 0
M  V30 4604 H 427.669 2.06185 6.22755 0
M  V30 4605 H 427.586 3.76118 6.55798 0
M  V30 4606 H 428.854 2.80953 7.27108 0
M  V30 4607 N 433.083 -1.0153 1.20538 0
M  V30 4608 C 434.36 -1.72327 0.925343 0
M  V30 4609 C 434.74 -2.03383 -0.565547 0
M  V30 4610 O 434.088 -1.69934 -1.52757 0
M  V30 4611 C 434.298 -2.9902 1.79967 0
M  V30 4612 C 435.646 -3.72258 2.04228 0
M  V30 4613 O 436.67 -3.08979 1.77231 0
M  V30 4614 O 435.529 -4.86053 2.4983 0
M  V30 4615 H 432.623 -0.751099 0.346092 0
M  V30 4616 H 435.169 -1.07366 1.31417 0
M  V30 4617 H 433.941 -2.72402 2.80915 0
M  V30 4618 H 433.564 -3.71721 1.41099 0
M  V30 4619 N 434.561 -1.01147 -1.20859 0
M  V30 4620 C 435.791 -0.715872 -1.93801 0
M  V30 4621 C 436.199 0.726592 -1.74692 0
M  V30 4622 O 435.542 1.50397 -1.05482 0
M  V30 4623 C 435.604 -0.965269 -3.46299 0
M  V30 4624 C 435.268 -2.39584 -3.89164 0
M  V30 4625 C 436.265 -3.3764 -3.95342 0
M  V30 4626 C 433.95 -2.73522 -4.21297 0
M  V30 4627 C 435.944 -4.67698 -4.33056 0
M  V30 4628 C 433.631 -4.03794 -4.58687 0
M  V30 4629 C 434.629 -5.00693 -4.64538 0
M  V30 4630 O 434.317 -6.28635 -5.01072 0
M  V30 4631 H 434.049 -0.262524 -0.622942 0
M  V30 4632 H 436.603 -1.35413 -1.54443 0
M  V30 4633 H 434.833 -0.269847 -3.85757 0
M  V30 4634 H 436.522 -0.662051 -4.00464 0
M  V30 4635 H 437.288 -3.12757 -3.70686 0
M  V30 4636 H 433.167 -1.9879 -4.15937 0
M  V30 4637 H 436.711 -5.4333 -4.37537 0
M  V30 4638 H 432.608 -4.28459 -4.82797 0
M  V30 4639 H 433.376 -6.32847 -5.19083 0
M  V30 4640 N 436.039 1.36541 -0.78704 0
M  V30 4641 C 437.286 1.99304 -0.358341 0
M  V30 4642 C 437.614 1.62467 1.06933 0
M  V30 4643 O 436.869 0.870019 1.75297 0
M  V30 4644 C 437.168 3.54343 -0.466485 0
M  V30 4645 C 436.834 4.10993 -1.85461 0
M  V30 4646 C 435.496 4.26177 -2.23443 0
M  V30 4647 C 437.848 4.41895 -2.76366 0
M  V30 4648 C 435.176 4.69573 -3.51736 0
M  V30 4649 C 437.528 4.86722 -4.04084 0
M  V30 4650 C 436.192 5.00112 -4.42091 0
M  V30 4651 H 435.462 0.729306 -0.131126 0
M  V30 4652 H 438.109 1.63068 -1.00404 0
M  V30 4653 H 436.414 3.90918 0.262719 0
M  V30 4654 H 438.111 4.00833 -0.115854 0
M  V30 4655 H 434.701 3.99612 -1.54946 0
M  V30 4656 H 438.885 4.29735 -2.48277 0
M  V30 4657 H 434.141 4.78127 -3.81057 0
M  V30 4658 H 438.315 5.09598 -4.7464 0
M  V30 4659 H 435.942 5.33498 -5.41557 0
M  V30 4660 N 437.518 0.538854 1.48102 0
M  V30 4661 C 438.466 -0.232325 2.31437 0
M  V30 4662 C 439.46 -0.927004 1.41785 0
M  V30 4663 O 440.666 -0.850378 1.58646 0
M  V30 4664 H 437.041 -0.0937916 0.746128 0
M  V30 4665 H 439.012 0.489986 2.9435 0
M  V30 4666 C 437.761 -1.26074 3.24038 0
M  V30 4667 H 437.084 -0.735609 3.92974 0
M  V30 4668 H 438.524 -1.77157 3.85216 0
M  V30 4669 C 436.983 -2.29902 2.46265 0
M  V30 4670 O 437.513 -3.36502 2.19384 0
M  V30 4671 N 435.719 -2.03348 2.07601 0
M  V30 4672 H 435.266 -1.16675 2.29662 0
M  V30 4673 H 435.224 -2.73038 1.55877 0
M  V30 4674 N 438.996 -1.55193 0.274407 0
M  V30 4675 C 440.242 -1.99877 -0.343086 0
M  V30 4676 C 440.575 -1.16256 -1.55558 0
M  V30 4677 O 439.85 -0.232462 -1.93106 0
M  V30 4678 C 440.133 -3.52706 -0.725965 0
M  V30 4679 C 439.986 -4.47081 0.493818 0
M  V30 4680 C 441.305 -4.11422 -1.56268 0
M  V30 4681 H 438.424 -0.726625 -0.123229 0
M  V30 4682 H 441.066 -1.86136 0.38121 0
M  V30 4683 H 439.216 -3.64546 -1.34307 0
M  V30 4684 H 440.888 -4.47186 1.13237 0
M  V30 4685 H 439.131 -4.1877 1.13201 0
M  V30 4686 H 439.802 -5.51699 0.18217 0
M  V30 4687 H 442.278 -4.02855 -1.04151 0
M  V30 4688 H 441.154 -5.18568 -1.79939 0
M  V30 4689 H 441.415 -3.61607 -2.54348 0
M  V30 4690 N 440.474 -0.00167713 -1.576 0
M  V30 4691 C 441.885 0.54091 -1.78693 0
M  V30 4692 C 442.236 1.7386 -0.909247 0
M  V30 4693 O 441.361 2.16109 -0.112176 0
M  V30 4694 C 441.956 0.98806 -3.24072 0
M  V30 4695 C 440.515 1.47594 -3.46256 0
M  V30 4696 C 439.662 0.42792 -2.73978 0
M  V30 4697 H 442.613 -0.22784 -1.57056 0
M  V30 4698 H 442.634 1.85398 -3.32277 0
M  V30 4699 H 442.146 0.116164 -3.87926 0
M  V30 4700 H 440.247 2.36868 -2.87618 0
M  V30 4701 H 440.36 1.50225 -4.54939 0
M  V30 4702 H 438.724 0.889934 -2.38647 0
M  V30 4703 H 439.507 -0.435038 -3.40532 0
M  V30 4704 N 441.952 1.55251 0.271103 0
M  V30 4705 C 443.182 1.79713 1.01916 0
M  V30 4706 C 443.59 0.571613 1.80359 0
M  V30 4707 O 442.933 -0.468853 1.77616 0
M  V30 4708 C 442.995 2.97138 2.02359 0
M  V30 4709 C 442.659 4.34104 1.42837 0
M  V30 4710 C 443.656 5.13019 0.843071 0
M  V30 4711 C 441.341 4.80765 1.455 0
M  V30 4712 C 443.335 6.36729 0.292333 0
M  V30 4713 C 441.022 6.0443 0.900402 0
M  V30 4714 C 442.02 6.8225 0.32007 0
M  V30 4715 O 441.708 8.03582 -0.226031 0
M  V30 4716 H 441.44 0.602431 0.306681 0
M  V30 4717 H 443.994 2.03097 0.306701 0
M  V30 4718 H 442.224 2.6945 2.77369 0
M  V30 4719 H 443.913 3.08907 2.63309 0
M  V30 4720 H 444.679 4.781 0.815178 0
M  V30 4721 H 440.558 4.20202 1.89609 0
M  V30 4722 H 444.102 6.97414 -0.161274 0
M  V30 4723 H 439.999 6.3883 0.925541 0
M  V30 4724 H 440.767 8.18418 -0.115572 0
M  V30 4725 N 443.43 -0.535701 1.48216 0
M  V30 4726 C 444.841 -1.11769 1.49548 0
M  V30 4727 C 445.192 -1.94442 0.26207 0
M  V30 4728 O 444.317 -2.06987 -0.631287 0
M  V30 4729 C 444.912 -2.03367 2.70975 0
M  V30 4730 C 443.471 -2.56795 2.75196 0
M  V30 4731 C 442.618 -1.33631 2.42977 0
M  V30 4732 H 445.569 -0.321232 1.55415 0
M  V30 4733 H 445.59 -2.87569 2.49167 0
M  V30 4734 H 445.102 -1.43169 3.60727 0
M  V30 4735 H 443.203 -3.20731 1.89638 0
M  V30 4736 H 443.316 -2.9632 3.76472 0
M  V30 4737 H 441.68 -1.6502 1.94012 0
M  V30 4738 H 442.463 -0.75194 3.34964 0
M  V30 4739 N 444.908 -1.36708 -0.784132 0
M  V30 4740 C 445.838 -1.34153 -1.91116 0
M  V30 4741 C 446.819 -0.212121 -1.68772 0
M  V30 4742 O 448.004 -0.410581 -1.8981 0
M  V30 4743 C 445.134 -1.13535 -3.28218 0
M  V30 4744 C 444.088 -2.23356 -3.65097 0
M  V30 4745 C 443.414 -1.87875 -5.00607 0
M  V30 4746 C 444.714 -3.65473 -3.73131 0
M  V30 4747 H 446.408 -2.28459 -1.93512 0
M  V30 4748 H 443.954 -1.09973 -0.929618 0
M  V30 4749 H 445.907 -1.10381 -4.06687 0
M  V30 4750 H 444.631 -0.156804 -3.26223 0
M  V30 4751 H 443.29 -2.25645 -2.88929 0
M  V30 4752 H 442.938 -0.885814 -4.95139 0
M  V30 4753 H 442.638 -2.61406 -5.26252 0
M  V30 4754 H 444.162 -1.86286 -5.81489 0
M  V30 4755 H 445.576 -3.65382 -4.41779 0
M  V30 4756 H 443.973 -4.37953 -4.10265 0
M  V30 4757 H 445.043 -3.99995 -2.74102 0
M  V30 4758 N 446.386 1.0089 -1.21074 0
M  V30 4759 C 447.797 1.56056 -1.02486 0
M  V30 4760 C 448.148 1.91728 0.416506 0
M  V30 4761 O 447.273 1.73066 1.29912 0
M  V30 4762 C 447.868 2.83563 -1.85411 0
M  V30 4763 C 446.427 3.3523 -1.71166 0
M  V30 4764 C 445.574 2.0846 -1.82865 0
M  V30 4765 H 448.525 0.831818 -1.35154 0
M  V30 4766 H 448.546 3.55286 -1.36205 0
M  V30 4767 H 448.058 2.57569 -2.9031 0
M  V30 4768 H 446.159 3.66167 -0.689361 0
M  V30 4769 H 446.272 4.06913 -2.52901 0
M  V30 4770 H 444.636 2.21275 -1.26132 0
M  V30 4771 H 445.419 1.84883 -2.89263 0
M  V30 4772 N 447.864 1.01787 1.20321 0
M  V30 4773 C 448.811 0.589197 2.23153 0
M  V30 4774 C 449.781 -0.391367 1.61423 0
M  V30 4775 O 450.966 -0.290518 1.88575 0
M  V30 4776 C 448.106 -0.0650747 3.45039 0
M  V30 4777 C 447.219 0.960207 4.21194 0
M  V30 4778 C 446.354 0.276854 5.30478 0
M  V30 4779 C 445.393 1.2888 5.98378 0
M  V30 4780 N 444.53 0.632031 6.99249 0
M  V30 4781 H 449.37 1.47071 2.59179 0
M  V30 4782 H 446.907 0.736192 1.27352 0
M  V30 4783 H 448.865 -0.461552 4.14639 0
M  V30 4784 H 447.495 -0.910233 3.09701 0
M  V30 4785 H 446.547 1.47484 3.50646 0
M  V30 4786 H 447.859 1.72977 4.67847 0
M  V30 4787 H 447.013 -0.175056 6.06447 0
M  V30 4788 H 445.752 -0.525004 4.84866 0
M  V30 4789 H 444.757 1.75109 5.21169 0
M  V30 4790 H 445.982 2.09196 6.46076 0
M  V30 4791 H 443.928 -0.149935 6.55829 0
M  V30 4792 H 443.845 1.33964 7.44036 0
M  V30 4793 H 445.113 0.203755 7.79234 0
M  V30 4794 N 449.342 -1.36122 0.79427 0
M  V30 4795 C 450.591 -1.98361 0.365464 0
M  V30 4796 C 450.904 -1.6374 -1.06997 0
M  V30 4797 O 452.11 -2.19251 -1.60129 0
M  V30 4798 C 450.566 -3.54821 0.602496 0
M  V30 4799 C 450.174 -3.98362 2.04967 0
M  V30 4800 C 451.918 -4.2383 0.238437 0
M  V30 4801 C 449.825 -5.47619 2.2331 0
M  V30 4802 H 448.755 -0.742193 0.13291 0
M  V30 4803 H 451.406 -1.55354 0.976589 0
M  V30 4804 H 449.788 -3.95922 -0.078409 0
M  V30 4805 H 450.962 -3.68447 2.76737 0
M  V30 4806 H 449.277 -3.42206 2.37243 0
M  V30 4807 H 451.874 -5.33529 0.353705 0
M  V30 4808 H 452.217 -4.08264 -0.814006 0
M  V30 4809 H 452.75 -3.88108 0.872769 0
M  V30 4810 H 449.489 -5.68138 3.26955 0
M  V30 4811 H 449.009 -5.79145 1.5605 0
M  V30 4812 H 450.688 -6.13911 2.0426 0
M  V30 4813 N 450.82 -0.546701 -1.47814 0
M  V30 4814 C 452.097 0.0464413 -1.95545 0
M  V30 4815 C 452.477 1.4962 -1.48919 0
M  V30 4816 O 451.825 2.16752 -0.723232 0
M  V30 4817 C 452.035 -0.0881298 -3.48889 0
M  V30 4818 C 453.383 0.0626059 -4.24554 0
M  V30 4819 O 454.407 -0.0151555 -3.56197 0
M  V30 4820 O 453.266 0.228071 -5.46024 0
M  V30 4821 H 450.36 0.0700004 -0.824032 0
M  V30 4822 H 452.906 -0.612482 -1.58262 0
M  V30 4823 H 451.678 -1.09737 -3.75597 0
M  V30 4824 H 451.301 0.608886 -3.9291 0
M  V30 4825 N 452.299 1.55045 -0.282633 0
M  V30 4826 C 453.229 2.2579 0.595066 0
M  V30 4827 C 454.21 1.25074 1.15284 0
M  V30 4828 O 455.395 1.5381 1.18559 0
M  V30 4829 C 452.525 2.98472 1.77572 0
M  V30 4830 C 451.479 4.0618 1.34914 0
M  V30 4831 C 450.805 4.66477 2.6135 0
M  V30 4832 C 452.105 5.1996 0.493821 0
M  V30 4833 H 453.799 2.994 0.00505653 0
M  V30 4834 H 451.345 1.44 0.000992001 0
M  V30 4835 H 453.298 3.46677 2.39568 0
M  V30 4836 H 452.022 2.2241 2.39168 0
M  V30 4837 H 450.681 3.58797 0.752338 0
M  V30 4838 H 450.329 3.87074 3.2122 0
M  V30 4839 H 450.029 5.39207 2.33516 0
M  V30 4840 H 451.553 5.17435 3.24181 0
M  V30 4841 H 452.967 5.64172 1.01898 0
M  V30 4842 H 451.364 5.99299 0.310047 0
M  V30 4843 H 452.434 4.82462 -0.485593 0
M  V30 4844 N 453.777 0.010035 1.57597 0
M  V30 4845 C 455.026 -0.671945 1.90178 0
M  V30 4846 C 455.339 -1.74376 0.886131 0
M  V30 4847 O 456.545 -2.48107 1.10252 0
M  V30 4848 C 455.001 -1.24636 3.3763 0
M  V30 4849 C 454.609 -0.208838 4.47513 0
M  V30 4850 C 456.353 -1.90595 3.79307 0
M  V30 4851 C 454.26 -0.793814 5.86048 0
M  V30 4852 H 453.19 -0.25474 0.709665 0
M  V30 4853 H 455.841 0.0722206 1.83358 0
M  V30 4854 H 454.223 -2.04152 3.3932 0
M  V30 4855 H 455.397 0.562463 4.57354 0
M  V30 4856 H 453.712 0.350889 4.14919 0
M  V30 4857 H 456.309 -2.35284 4.80151 0
M  V30 4858 H 456.652 -2.74074 3.13352 0
M  V30 4859 H 457.185 -1.17798 3.79958 0
M  V30 4860 H 453.924 0.00240855 6.555 0
M  V30 4861 H 453.444 -1.53404 5.79851 0
M  V30 4862 H 455.123 -1.2894 6.34022 0
M  V30 4863 N 455.255 -1.55392 -0.262866 0
M  V30 4864 C 456.218 -1.88181 -1.30846 0
M  V30 4865 C 457.218 -0.757079 -1.41862 0
M  V30 4866 O 458.408 -1.02519 -1.40838 0
M  V30 4867 C 455.54 -2.09609 -2.68844 0
M  V30 4868 H 456.733 -2.81659 -1.02997 0
M  V30 4869 H 454.286 -1.48039 -0.501414 0
M  V30 4870 H 455.021 -1.18547 -3.01856 0
M  V30 4871 H 454.806 -2.91508 -2.62231 0
M  V30 4872 H 456.296 -2.36215 -3.44372 0
M  V30 4873 N 456.733 0.527833 -1.48498 0
M  V30 4874 C 457.982 1.28003 -1.55878 0
M  V30 4875 C 458.295 1.9414 -0.238577 0
M  V30 4876 O 459.501 2.7083 -0.190643 0
M  V30 4877 C 457.957 2.32272 -2.74914 0
M  V30 4878 C 457.565 1.72196 -4.13585 0
M  V30 4879 C 459.309 3.08488 -2.91608 0
M  V30 4880 C 457.216 2.74417 -5.23879 0
M  V30 4881 H 456.146 0.481413 -0.580308 0
M  V30 4882 H 458.797 0.557195 -1.74836 0
M  V30 4883 H 457.179 3.07601 -2.49395 0
M  V30 4884 H 458.353 1.03041 -4.49132 0
M  V30 4885 H 456.668 1.08464 -4.02025 0
M  V30 4886 H 459.265 3.84879 -3.71177 0
M  V30 4887 H 459.608 3.64481 -2.01145 0
M  V30 4888 H 460.141 2.40274 -3.17038 0
M  V30 4889 H 456.88 2.23242 -6.16314 0
M  V30 4890 H 456.4 3.41893 -4.92818 0
M  V30 4891 H 458.079 3.37362 -5.52083 0
M  V30 4892 N 458.211 1.37122 0.776871 0
M  V30 4893 C 459.174 1.32301 1.8716 0
M  V30 4894 C 460.174 0.228099 1.59174 0
M  V30 4895 O 461.364 0.483642 1.67352 0
M  V30 4896 C 458.496 1.054 3.24197 0
M  V30 4897 H 459.689 2.29673 1.92848 0
M  V30 4898 H 457.242 1.22077 0.97606 0
M  V30 4899 H 457.977 0.0853872 3.24188 0
M  V30 4900 H 457.762 1.84648 3.45901 0
M  V30 4901 H 459.252 1.04664 4.04271 0
M  V30 4902 N 459.689 -1.00246 1.21608 0
M  V30 4903 C 460.966 -1.71336 0.943568 0
M  V30 4904 C 461.346 -2.03972 -0.543943 0
M  V30 4905 O 460.694 -1.71545 -1.50946 0
M  V30 4906 C 460.904 -2.97094 1.83128 0
M  V30 4907 C 462.252 -3.70071 2.08165 0
M  V30 4908 O 463.276 -3.07081 1.80498 0
M  V30 4909 O 462.135 -4.83376 2.54971 0
M  V30 4910 H 459.229 -0.747386 0.354039 0
M  V30 4911 H 461.775 -1.05967 1.32549 0
M  V30 4912 H 460.547 -2.69407 2.83788 0
M  V30 4913 H 460.17 -3.70204 1.45034 0
M  V30 4914 N 461.167 -1.02423 -1.1978 0
M  V30 4915 C 462.414 -0.717988 -1.89344 0
M  V30 4916 C 462.742 0.753036 -1.79331 0
M  V30 4917 O 461.997 1.56355 -1.17692 0
M  V30 4918 C 462.296 -1.1088 -3.39765 0
M  V30 4919 C 461.962 -2.57731 -3.6998 0
M  V30 4920 C 460.624 -2.97854 -3.77937 0
M  V30 4921 C 462.976 -3.52763 -3.83677 0
M  V30 4922 C 460.304 -4.31931 -3.97054 0
M  V30 4923 C 462.656 -4.86538 -4.04306 0
M  V30 4924 C 461.32 -5.26356 -4.10494 0
M  V30 4925 H 460.59 -0.26273 -0.692859 0
M  V30 4926 H 463.237 -1.28623 -1.41875 0
M  V30 4927 H 461.542 -0.459094 -3.89101 0
M  V30 4928 H 463.239 -0.849432 -3.919 0
M  V30 4929 H 459.829 -2.25646 -3.64393 0
M  V30 4930 H 464.013 -3.2292 -3.76877 0
M  V30 4931 H 459.269 -4.62324 -4.00083 0
M  V30 4932 H 463.443 -5.60093 -4.13846 0
M  V30 4933 H 461.07 -6.3026 -4.2506 0
M  V30 4934 N 462.645 1.35699 -0.801477 0
M  V30 4935 C 463.608 2.28199 -0.213994 0
M  V30 4936 C 464.608 1.49359 0.595691 0
M  V30 4937 O 465.798 1.69186 0.414921 0
M  V30 4938 C 462.93 3.33587 0.702297 0
M  V30 4939 H 464.123 2.81666 -1.02976 0
M  V30 4940 H 461.676 1.45467 -0.571759 0
M  V30 4941 H 462.411 2.85297 1.54195 0
M  V30 4942 H 462.196 3.91906 0.123484 0
M  V30 4943 H 463.686 4.02638 1.10783 0
M  V30 4944 N 464.123 0.554532 1.47522 0
M  V30 4945 C 465.086 -0.184174 2.28459 0
M  V30 4946 C 466.086 -0.845195 1.36796 0
M  V30 4947 O 467.276 -0.701467 1.59452 0
M  V30 4948 C 464.408 -1.26903 3.16399 0
M  V30 4949 H 465.601 0.526751 2.95238 0
M  V30 4950 H 463.154 0.311375 1.53167 0
M  V30 4951 H 463.889 -2.01244 2.54306 0
M  V30 4952 H 463.674 -0.799883 3.83854 0
M  V30 4953 H 465.164 -1.78794 3.77389 0
M  V30 4954 N 465.601 -1.54893 0.290851 0
M  V30 4955 C 466.849 -1.99538 -0.320756 0
M  V30 4956 C 467.17 -1.18075 -1.55188 0
M  V30 4957 O 466.44 -0.274162 -1.93972 0
M  V30 4958 H 465.02 -0.737052 -0.121507 0
M  V30 4959 H 467.682 -1.90755 0.399832 0
M  V30 4960 H 466.778 -3.06282 -0.599802 0
M  V30 4961 N 467.08 -0.0183926 -1.57589 0
M  V30 4962 C 468.043 0.951986 -2.08494 0
M  V30 4963 C 469.043 1.26092 -0.997874 0
M  V30 4964 O 470.233 1.20304 -1.25987 0
M  V30 4965 C 467.365 2.27165 -2.54182 0
M  V30 4966 H 468.558 0.511307 -2.95509 0
M  V30 4967 H 466.111 0.229444 -1.54607 0
M  V30 4968 H 466.846 2.75884 -1.70465 0
M  V30 4969 H 466.631 2.06057 -3.33591 0
M  V30 4970 H 468.121 2.9674 -2.93828 0
M  V30 4971 N 468.558 1.5553 0.254621 0
M  V30 4972 C 469.491 1.84624 1.34124 0
M  V30 4973 C 470.469 0.700693 1.46728 0
M  V30 4974 O 471.653 0.94564 1.63064 0
M  V30 4975 C 468.78 2.02412 2.71564 0
M  V30 4976 C 467.826 3.25028 2.7615 0
M  V30 4977 S 468.659 4.81893 2.33538 0
M  V30 4978 C 469.815 5.02677 3.72917 0
M  V30 4979 H 470.048 2.76501 1.09245 0
M  V30 4980 H 467.581 1.47537 0.455211 0
M  V30 4981 H 469.539 2.13345 3.50705 0
M  V30 4982 H 468.2 1.11391 2.93685 0
M  V30 4983 H 467.393 3.34418 3.77069 0
M  V30 4984 H 466.995 3.12781 2.05046 0
M  V30 4985 H 469.287 4.89546 4.68349 0
M  V30 4986 H 470.23 6.0468 3.68467 0
M  V30 4987 H 470.638 4.30561 3.65072 0
M  V30 4988 N 470.036 -0.519951 1.48776 0
M  V30 4989 C 470.946 -1.65025 1.66745 0
M  V30 4990 C 471.962 -1.6508 0.549954 0
M  V30 4991 O 473.138 -1.83848 0.822295 0
M  V30 4992 C 470.203 -3.0146 1.71238 0
M  V30 4993 C 469.264 -3.12182 2.94688 0
M  V30 4994 C 468.497 -4.42109 2.98958 0
M  V30 4995 O 468.72 -5.29799 2.1135 0
M  V30 4996 O 467.654 -4.57406 3.91233 0
M  V30 4997 H 471.48 -1.52801 2.62461 0
M  V30 4998 H 469.065 -0.694157 1.32294 0
M  V30 4999 H 470.947 -3.82584 1.76657 0
M  V30 5000 H 469.622 -3.13988 0.786975 0
M  V30 5001 H 468.529 -2.30316 2.94797 0
M  V30 5002 H 469.862 -3.04574 3.86646 0
M  V30 5003 N 471.514 -1.37532 -0.769588 0
M  V30 5004 C 472.462 -1.33561 -1.90432 0
M  V30 5005 C 473.456 -0.224027 -1.67912 0
M  V30 5006 O 474.662 -0.392174 -1.75676 0
M  V30 5007 H 471.037 -0.416279 -0.626271 0
M  V30 5008 H 473.008 -2.29348 -1.90899 0
M  V30 5009 C 471.757 -1.16162 -3.27722 0
M  V30 5010 H 471.08 -2.00951 -3.45628 0
M  V30 5011 H 472.52 -1.17434 -4.07413 0
M  V30 5012 C 470.979 0.132583 -3.36639 0
M  V30 5013 O 471.509 1.11539 -3.85904 0
M  V30 5014 N 469.715 0.184013 -2.90017 0
M  V30 5015 H 469.262 -0.616415 -2.50116 0
M  V30 5016 H 469.22 1.04956 -2.96364 0
M  V30 5017 N 472.992 0.995999 -1.22138 0
M  V30 5018 C 474.238 1.7386 -1.05567 0
M  V30 5019 C 474.593 1.8808 0.405418 0
M  V30 5020 O 473.886 1.41062 1.29661 0
M  V30 5021 C 474.08 3.14553 -1.6968 0
M  V30 5022 C 473.909 3.14053 -3.21871 0
M  V30 5023 C 472.679 3.20121 -3.90961 0
M  V30 5024 C 474.877 2.98451 -4.18845 0
M  V30 5025 N 472.859 3.09342 -5.30265 0
M  V30 5026 C 474.23 2.95667 -5.4496 0
M  V30 5027 C 476.285 2.8282 -4.09777 0
M  V30 5028 C 474.988 2.78852 -6.63049 0
M  V30 5029 C 477.014 2.67364 -5.27513 0
M  V30 5030 C 476.376 2.65264 -6.52544 0
M  V30 5031 H 472.475 0.645989 -0.440706 0
M  V30 5032 H 475.059 1.1831 -1.54631 0
M  V30 5033 H 473.23 3.68353 -1.2317 0
M  V30 5034 H 474.962 3.77358 -1.4623 0
M  V30 5035 H 471.717 3.27679 -3.4194 0
M  V30 5036 H 472.141 3.0727 -6.03253 0
M  V30 5037 H 476.783 2.83243 -3.139 0
M  V30 5038 H 474.501 2.77175 -7.59078 0
M  V30 5039 H 478.087 2.56256 -5.22326 0
M  V30 5040 H 476.967 2.5345 -7.42114 0
M  V30 5041 N 474.47 1.03057 1.19235 0
M  V30 5042 C 475.718 0.726581 1.88587 0
M  V30 5043 C 476.039 -0.747227 1.80115 0
M  V30 5044 O 475.309 -1.53849 1.21274 0
M  V30 5045 H 473.889 0.265768 0.698124 0
M  V30 5046 H 476.551 1.30516 1.44746 0
M  V30 5047 H 475.647 1.0224 2.94879 0
M  V30 5048 N 475.948 -1.35272 0.808662 0
M  V30 5049 C 476.878 -2.32315 0.234981 0
M  V30 5050 C 477.859 -1.57572 -0.64071 0
M  V30 5051 O 479.044 -1.8563 -0.570551 0
M  V30 5052 C 476.174 -3.41801 -0.615601 0
M  V30 5053 C 475.128 -4.27694 0.161767 0
M  V30 5054 C 474.454 -5.28519 -0.810649 0
M  V30 5055 C 475.754 -5.04231 1.36193 0
M  V30 5056 H 477.448 -2.80543 1.04575 0
M  V30 5057 H 474.994 -1.3488 0.504315 0
M  V30 5058 H 476.947 -4.08693 -1.02702 0
M  V30 5059 H 475.671 -2.92186 -1.45928 0
M  V30 5060 H 474.33 -3.62384 0.554382 0
M  V30 5061 H 473.978 -4.75171 -1.64988 0
M  V30 5062 H 473.678 -5.8686 -0.294822 0
M  V30 5063 H 475.202 -5.98283 -1.22023 0
M  V30 5064 H 476.616 -5.64058 1.02528 0
M  V30 5065 H 475.013 -5.72077 1.81239 0
M  V30 5066 H 476.083 -4.34753 2.14751 0
M  V30 5067 N 477.426 -0.562348 -1.47226 0
M  V30 5068 C 478.672 -0.0402761 -2.0276 0
M  V30 5069 C 479.005 1.30823 -1.43523 0
M  V30 5070 O 478.28 1.85249 -0.592705 0
M  V30 5071 C 478.563 0.047311 -3.60069 0
M  V30 5072 C 478.416 -1.32865 -4.29729 0
M  V30 5073 C 479.735 0.758182 -4.3352 0
M  V30 5074 H 476.854 -0.0161105 -0.736824 0
M  V30 5075 H 479.496 -0.725628 -1.75598 0
M  V30 5076 H 477.646 0.630986 -3.83342 0
M  V30 5077 H 479.318 -1.95593 -4.17781 0
M  V30 5078 H 477.561 -1.90195 -3.89882 0
M  V30 5079 H 478.232 -1.22004 -5.38349 0
M  V30 5080 H 480.708 0.262546 -4.15271 0
M  V30 5081 H 479.584 0.78844 -5.43208 0
M  V30 5082 H 479.845 1.81537 -4.03109 0
M  V30 5083 N 478.904 1.54736 -0.299062 0
M  V30 5084 C 480.132 2.04512 0.313447 0
M  V30 5085 C 480.547 1.17643 1.47667 0
M  V30 5086 O 479.904 0.20164 1.81383 0
M  V30 5087 C 479.955 3.53171 0.771542 0
M  V30 5088 O 479.676 4.36736 -0.345379 0
M  V30 5089 C 481.177 4.18936 1.4494 0
M  V30 5090 H 478.397 0.667507 0.0683784 0
M  V30 5091 H 480.941 1.99752 -0.438129 0
M  V30 5092 H 479.096 3.58298 1.47314 0
M  V30 5093 H 479.51 5.24499 0.0109219 0
M  V30 5094 H 480.984 5.24482 1.72111 0
M  V30 5095 H 481.461 3.68554 2.38883 0
M  V30 5096 H 482.067 4.17879 0.791028 0
M  V30 5097 N 480.382 0.0267497 1.57577 0
M  V30 5098 C 481.612 -0.6617 1.95717 0
M  V30 5099 C 482.02 -1.66331 0.901706 0
M  V30 5100 O 481.363 -1.83273 -0.125241 0
M  V30 5101 C 481.425 -1.42649 3.29987 0
M  V30 5102 C 481.089 -0.583482 4.5326 0
M  V30 5103 C 482.086 0.140221 5.19711 0
M  V30 5104 C 479.771 -0.521581 4.99585 0
M  V30 5105 C 481.765 0.914523 6.30805 0
M  V30 5106 C 479.452 0.256428 6.10562 0
M  V30 5107 C 480.45 0.973189 6.76031 0
M  V30 5108 O 480.138 1.73845 7.84878 0
M  V30 5109 H 479.87 -0.187483 0.649481 0
M  V30 5110 H 482.424 0.0820847 2.05236 0
M  V30 5111 H 480.654 -2.21536 3.16952 0
M  V30 5112 H 482.343 -2.00282 3.53047 0
M  V30 5113 H 483.109 0.101716 4.84893 0
M  V30 5114 H 478.988 -1.06904 4.48433 0
M  V30 5115 H 482.532 1.4745 6.81839 0
M  V30 5116 H 478.429 0.296657 6.44818 0
M  V30 5117 H 479.197 1.65797 8.01532 0
M  V30 5118 N 481.861 -1.55662 -0.24637 0
M  V30 5119 C 483.277 -1.48098 -0.594907 0
M  V30 5120 C 483.477 -0.717044 -1.8831 0
M  V30 5121 O 482.533 -0.246618 -2.51293 0
M  V30 5122 C 483.846 -2.92507 -0.697146 0
M  V30 5123 C 485.394 -3.02881 -0.789436 0
M  V30 5124 C 485.869 -4.48598 -0.923232 0
M  V30 5125 N 487.36 -4.52538 -0.988088 0
M  V30 5126 C 488.095 -5.62536 -1.11089 0
M  V30 5127 N 487.591 -6.82342 -1.19919 0
M  V30 5128 N 489.384 -5.50334 -1.14408 0
M  V30 5129 H 481.535 -2.0377 0.599278 0
M  V30 5130 H 483.798 -0.925145 0.20691 0
M  V30 5131 H 483.504 -3.51242 0.179396 0
M  V30 5132 H 483.378 -3.43024 -1.5689 0
M  V30 5133 H 485.765 -2.44226 -1.65643 0
M  V30 5134 H 485.846 -2.55574 0.107482 0
M  V30 5135 H 485.49 -5.07864 -0.0607927 0
M  V30 5136 H 485.42 -4.93587 -1.8352 0
M  V30 5137 H 487.911 -3.66248 -0.931167 0
M  V30 5138 H 488.224 -7.61924 -1.29197 0
M  V30 5139 H 486.569 -6.85102 -1.16876 0
M  V30 5140 H 489.76 -4.5567 -1.07158 0
M  V30 5141 H 489.933 -6.36096 -1.23634 0
M  V30 5142 N 483.339 0.512053 -1.4905 0
M  V30 5143 C 484.249 1.64139 -1.67617 0
M  V30 5144 C 485.265 1.64786 -0.558701 0
M  V30 5145 O 486.441 1.8341 -0.832034 0
M  V30 5146 C 483.506 3.00548 -1.72835 0
M  V30 5147 C 482.567 3.10615 -2.96339 0
M  V30 5148 C 481.8 4.40517 -3.01298 0
M  V30 5149 O 482.023 5.28671 -2.14157 0
M  V30 5150 O 480.957 4.55325 -3.93653 0
M  V30 5151 H 484.783 1.51407 -2.63267 0
M  V30 5152 H 482.368 0.687131 -1.32661 0
M  V30 5153 H 484.25 3.81641 -1.78683 0
M  V30 5154 H 482.925 3.13566 -0.803616 0
M  V30 5155 H 481.832 2.2875 -2.96014 0
M  V30 5156 H 483.165 3.0252 -3.88256 0
M  V30 5157 N 484.817 1.37938 0.762283 0
M  V30 5158 C 486.045 1.36883 1.55147 0
M  V30 5159 C 486.46 -0.0435348 1.8875 0
M  V30 5160 O 485.817 -1.00786 1.52146 0
M  V30 5161 C 485.868 2.21624 2.85596 0
M  V30 5162 O 485.589 3.57358 2.5343 0
M  V30 5163 C 487.09 2.28653 3.7978 0
M  V30 5164 H 484.31 0.468521 0.480343 0
M  V30 5165 H 486.854 1.81404 0.944079 0
M  V30 5166 H 485.009 1.80588 3.42734 0
M  V30 5167 H 485.423 4.01883 3.37032 0
M  V30 5168 H 486.897 2.9225 4.68288 0
M  V30 5169 H 487.374 1.29767 4.19592 0
M  V30 5170 H 487.98 2.70043 3.28568 0
M  V30 5171 N 486.295 -0.989507 1.22664 0
M  V30 5172 C 487.258 -2.06183 1.00106 0
M  V30 5173 C 488.258 -1.60765 -0.0337726 0
M  V30 5174 O 489.448 -1.72989 0.205072 0
M  V30 5175 C 486.58 -3.37021 0.51279 0
M  V30 5176 H 487.773 -2.27629 1.95256 0
M  V30 5177 H 485.326 -1.16158 1.0458 0
M  V30 5178 H 486.061 -3.21261 -0.442917 0
M  V30 5179 H 485.846 -3.71323 1.25942 0
M  V30 5180 H 487.336 -4.1591 0.375315 0
M  V30 5181 N 487.773 -1.03688 -1.18687 0
M  V30 5182 C 488.703 -0.645407 -2.24403 0
M  V30 5183 C 489.684 0.349511 -1.66471 0
M  V30 5184 O 490.869 0.230453 -1.92828 0
M  V30 5185 C 487.999 -0.00365337 -3.473 0
M  V30 5186 C 486.953 -0.921705 -4.17958 0
M  V30 5187 C 486.279 -0.144629 -5.34504 0
M  V30 5188 C 487.579 -2.23909 -4.71871 0
M  V30 5189 H 489.273 -1.52917 -2.57404 0
M  V30 5190 H 486.819 -0.736711 -1.23728 0
M  V30 5191 H 488.772 0.281908 -4.20456 0
M  V30 5192 H 487.496 0.914963 -3.13522 0
M  V30 5193 H 486.155 -1.19159 -3.46694 0
M  V30 5194 H 485.803 0.776274 -4.96974 0
M  V30 5195 H 485.503 -0.756206 -5.82714 0
M  V30 5196 H 487.027 0.134004 -6.10453 0
M  V30 5197 H 488.441 -2.0145 -5.36741 0
M  V30 5198 H 486.838 -2.8033 -5.30599 0
M  V30 5199 H 487.908 -2.88822 -3.895 0
M  V30 5200 N 489.251 1.34841 -0.815825 0
M  V30 5201 C 490.181 2.32187 -0.247298 0
M  V30 5202 C 491.162 1.5791 0.632344 0
M  V30 5203 O 492.347 1.8593 0.560698 0
M  V30 5204 C 489.477 3.42122 0.597466 0
M  V30 5205 C 488.431 4.27602 -0.184446 0
M  V30 5206 C 487.757 5.28942 0.782609 0
M  V30 5207 C 489.057 5.03502 -1.38865 0
M  V30 5208 H 490.751 2.79985 -1.06061 0
M  V30 5209 H 488.297 1.34611 -0.511461 0
M  V30 5210 H 490.25 4.09232 1.00533 0
M  V30 5211 H 488.974 2.92956 1.44376 0
M  V30 5212 H 487.633 3.62085 -0.573592 0
M  V30 5213 H 487.281 4.7604 1.62466 0
M  V30 5214 H 486.981 5.87008 0.263695 0
M  V30 5215 H 488.505 5.98922 1.18848 0
M  V30 5216 H 489.919 5.63506 -1.05518 0
M  V30 5217 H 488.316 5.71108 -1.8427 0
M  V30 5218 H 489.386 4.33608 -2.17054 0
M  V30 5219 N 490.729 0.570148 1.46925 0
M  V30 5220 C 491.978 0.0487352 2.01641 0
M  V30 5221 C 492.291 -1.31433 1.44861 0
M  V30 5222 O 493.497 -1.92638 1.91318 0
M  V30 5223 C 491.953 0.0365817 3.59881 0
M  V30 5224 C 491.561 1.39719 4.25655 0
M  V30 5225 C 493.305 -0.431545 4.22301 0
M  V30 5226 C 491.212 1.34345 5.75939 0
M  V30 5227 H 490.142 0.0144492 0.753862 0
M  V30 5228 H 492.793 0.719928 1.68788 0
M  V30 5229 H 491.175 -0.700522 3.89755 0
M  V30 5230 H 492.349 2.15303 4.07408 0
M  V30 5231 H 490.664 1.80431 3.75278 0
M  V30 5232 H 493.261 -0.490354 5.32447 0
M  V30 5233 H 493.604 -1.44638 3.90366 0
M  V30 5234 H 494.137 0.251102 3.97007 0
M  V30 5235 H 490.876 2.33469 6.12513 0
M  V30 5236 H 490.396 0.629615 5.96486 0
M  V30 5237 H 492.075 1.051 6.38407 0
M  V30 5238 N 492.207 -1.54576 0.307264 0
M  V30 5239 C 493.484 -1.92377 -0.353605 0
M  V30 5240 C 493.864 -1.23517 -1.71192 0
M  V30 5241 O 493.212 -0.373101 -2.25433 0
M  V30 5242 C 493.422 -3.45928 -0.462039 0
M  V30 5243 C 494.77 -4.18278 -0.729975 0
M  V30 5244 O 495.794 -3.51997 -0.545605 0
M  V30 5245 O 494.653 -5.3563 -1.08454 0
M  V30 5246 H 491.747 -0.802747 -0.198812 0
M  V30 5247 H 494.293 -1.65929 0.355783 0
M  V30 5248 H 493.065 -3.88187 0.492592 0
M  V30 5249 H 492.688 -3.78431 -1.21965 0
M  V30 5250 N 493.685 -0.035106 -1.57561 0
M  V30 5251 C 495.096 0.502885 -1.798 0
M  V30 5252 C 495.447 1.71892 -0.945921 0
M  V30 5253 O 494.572 2.15822 -0.157991 0
M  V30 5254 C 495.167 0.919097 -3.26095 0
M  V30 5255 C 493.726 1.40216 -3.49308 0
M  V30 5256 C 492.873 0.369709 -2.74824 0
M  V30 5257 H 495.824 -0.261102 -1.56537 0
M  V30 5258 H 495.845 1.78308 -3.36135 0
M  V30 5259 H 495.357 0.0338526 -3.88085 0
M  V30 5260 H 493.458 2.30714 -2.92578 0
M  V30 5261 H 493.571 1.40541 -4.58023 0
M  V30 5262 H 491.935 0.839113 -2.40481 0
M  V30 5263 H 492.718 -0.507173 -3.39533 0
M  V30 5264 N 495.163 1.55791 0.238111 0
M  V30 5265 C 496.11 1.9105 1.29493 0
M  V30 5266 C 497.08 0.765733 1.47397 0
M  V30 5267 O 498.265 1.02017 1.61236 0
M  V30 5268 C 495.405 2.21826 2.64362 0
M  V30 5269 C 494.518 3.49153 2.54394 0
M  V30 5270 C 493.653 3.69455 3.81676 0
M  V30 5271 C 492.692 4.90353 3.66361 0
M  V30 5272 N 491.829 5.07131 4.85554 0
M  V30 5273 H 496.669 2.81172 0.987233 0
M  V30 5274 H 494.206 1.39179 0.476203 0
M  V30 5275 H 496.164 2.37675 3.4288 0
M  V30 5276 H 494.794 1.34897 2.93262 0
M  V30 5277 H 493.846 3.41587 1.67399 0
M  V30 5278 H 495.158 4.37818 2.38991 0
M  V30 5279 H 494.312 3.85311 4.68636 0
M  V30 5280 H 493.051 2.7904 3.99985 0
M  V30 5281 H 492.056 4.74464 2.77784 0
M  V30 5282 H 493.281 5.82237 3.49538 0
M  V30 5283 H 491.227 4.19654 5.04209 0
M  V30 5284 H 491.144 5.89899 4.72816 0
M  V30 5285 H 492.412 5.27407 5.73988 0
M  V30 5286 N 496.642 -0.504142 1.49319 0
M  V30 5287 C 497.59 -1.62689 1.66238 0
M  V30 5288 C 498.584 -1.6095 0.528349 0
M  V30 5289 O 499.79 -1.65496 0.707887 0
M  V30 5290 H 496.165 -0.539247 0.524134 0
M  V30 5291 H 498.136 -1.45571 2.60484 0
M  V30 5292 C 496.885 -3.00841 1.74328 0
M  V30 5293 H 496.208 -3.02884 2.60963 0
M  V30 5294 H 497.648 -3.78945 1.90202 0
M  V30 5295 C 496.107 -3.33355 0.487416 0
M  V30 5296 O 496.637 -3.99819 -0.388294 0
M  V30 5297 N 494.843 -2.88469 0.351306 0
M  V30 5298 H 494.39 -2.34557 1.06492 0
M  V30 5299 H 494.348 -3.10591 -0.487899 0
M  V30 5300 N 498.12 -1.38341 -0.754957 0
M  V30 5301 C 499.345 -1.37882 -1.5493 0
M  V30 5302 C 499.77 0.0296385 -1.88077 0
M  V30 5303 O 499.128 1.01133 -1.50472 0
M  V30 5304 C 499.176 -2.23996 -2.82592 0
M  V30 5305 O 498.28 -1.65612 -3.77686 0
M  V30 5306 H 497.621 -0.470384 -0.468652 0
M  V30 5307 H 500.151 -1.82084 -0.933082 0
M  V30 5308 H 500.161 -2.37806 -3.3153 0
M  V30 5309 H 498.836 -3.26365 -2.57796 0
M  V30 5310 H 497.413 -1.60936 -3.36384 0
M  V30 5311 N 499.598 0.982988 -1.23187 0
M  V30 5312 C 500.838 1.73903 -1.07412 0
M  V30 5313 C 501.202 1.88146 0.382764 0
M  V30 5314 O 502.403 2.6053 0.661638 0
M  V30 5315 C 500.674 3.10105 -1.77678 0
M  V30 5316 S 502.233 4.01323 -1.77441 0
M  V30 5317 H 499.051 0.598093 -0.384456 0
M  V30 5318 H 501.653 1.17456 -1.56283 0
M  V30 5319 H 500.357 2.97388 -2.82822 0
M  V30 5320 H 499.888 3.71622 -1.29077 0
M  V30 5321 H 501.903 4.89189 -0.831162 0
M  V30 5322 N 501.076 1.04316 1.18135 0
M  V30 5323 C 502.301 0.768047 1.92655 0
M  V30 5324 C 502.726 -0.66904 1.758 0
M  V30 5325 O 502.084 -1.46372 1.06981 0
M  V30 5326 C 502.132 1.14239 3.42026 0
M  V30 5327 O 501.236 0.269333 4.1152 0
M  V30 5328 H 500.577 0.282436 0.600937 0
M  V30 5329 H 503.107 1.39367 1.49793 0
M  V30 5330 H 503.117 1.10538 3.92741 0
M  V30 5331 H 501.792 2.18928 3.53615 0
M  V30 5332 H 500.369 0.366175 3.71098 0
M  V30 5333 N 502.554 -1.34406 0.822964 0
M  V30 5334 C 503.779 -2.0304 0.423034 0
M  V30 5335 C 504.204 -1.61568 -0.963196 0
M  V30 5336 O 503.562 -0.800339 -1.62678 0
M  V30 5337 C 503.61 -3.56636 0.53321 0
M  V30 5338 O 502.714 -4.09971 -0.446939 0
M  V30 5339 H 502.055 -0.64075 0.174171 0
M  V30 5340 H 504.585 -1.71653 1.11339 0
M  V30 5341 H 504.595 -4.05945 0.408991 0
M  V30 5342 H 503.27 -3.86168 1.54425 0
M  V30 5343 H 501.847 -3.71835 -0.281601 0
M  V30 5344 N 504.032 -0.577932 -1.46621 0
M  V30 5345 C 505.257 -0.0652536 -2.07297 0
M  V30 5346 C 505.682 1.22828 -1.4246 0
M  V30 5347 O 505.04 1.74075 -0.506718 0
M  V30 5348 C 505.088 0.0920589 -3.60482 0
M  V30 5349 O 504.192 1.14972 -3.96049 0
M  V30 5350 H 503.533 -0.06065 -0.661224 0
M  V30 5351 H 506.063 -0.799515 -1.88332 0
M  V30 5352 H 506.073 0.299741 -4.06897 0
M  V30 5353 H 504.748 -0.852612 -4.07067 0
M  V30 5354 H 503.325 0.920879 -3.61351 0
M  V30 5355 N 505.51 1.54411 -0.315457 0
M  V30 5356 C 506.926 1.59556 0.037464 0
M  V30 5357 C 507.126 1.33217 1.5118 0
M  V30 5358 O 506.182 1.11264 2.26664 0
M  V30 5359 C 507.495 2.98372 -0.373477 0
M  V30 5360 C 509.043 3.11324 -0.323452 0
M  V30 5361 C 509.518 4.52472 -0.709433 0
M  V30 5362 N 511.009 4.58437 -0.662524 0
M  V30 5363 C 511.744 5.65751 -0.933474 0
M  V30 5364 N 511.24 6.81039 -1.27114 0
M  V30 5365 N 513.033 5.55489 -0.859573 0
M  V30 5366 H 505.184 1.6979 -1.27614 0
M  V30 5367 H 507.447 0.793732 -0.518356 0
M  V30 5368 H 507.153 3.22618 -1.40037 0
M  V30 5369 H 507.027 3.76264 0.265615 0
M  V30 5370 H 509.414 2.86818 0.694223 0
M  V30 5371 H 509.495 2.35555 -0.997367 0
M  V30 5372 H 509.139 4.7771 -1.72498 0
M  V30 5373 H 509.069 5.26598 -0.0132923 0
M  V30 5374 H 511.56 3.75636 -0.413065 0
M  V30 5375 H 511.873 7.58816 -1.46348 0
M  V30 5376 H 510.218 6.82555 -1.30932 0
M  V30 5377 H 513.409 4.64299 -0.595324 0
M  V30 5378 H 513.582 6.39036 -1.0741 0
M  V30 5379 N 506.988 0.0434614 1.5754 0
M  V30 5380 C 507.92 -0.962586 2.08007 0
M  V30 5381 C 508.933 -1.27972 1.00634 0
M  V30 5382 O 510.122 -1.24186 1.28219 0
M  V30 5383 C 507.222 -2.28621 2.50171 0
M  V30 5384 C 506.395 -2.15214 3.80791 0
M  V30 5385 C 505.454 -3.30633 4.09351 0
M  V30 5386 O 504.48 -3.0688 4.79388 0
M  V30 5387 N 505.682 -4.54873 3.60654 0
M  V30 5388 H 508.447 -0.531891 2.94942 0
M  V30 5389 H 506.008 -0.142965 1.61268 0
M  V30 5390 H 508 -3.04689 2.66359 0
M  V30 5391 H 506.57 -2.63283 1.68525 0
M  V30 5392 H 505.79 -1.23785 3.74261 0
M  V30 5393 H 507.078 -2.03475 4.66343 0
M  V30 5394 H 506.476 -4.77063 3.04019 0
M  V30 5395 H 505.033 -5.2806 3.82094 0
M  V30 5396 N 508.466 -1.55915 -0.229846 0
M  V30 5397 C 509.712 -1.79718 -0.952517 0
M  V30 5398 C 510.067 -0.61514 -1.82301 0
M  V30 5399 O 509.36 0.391098 -1.87566 0
M  V30 5400 C 509.554 -3.06845 -1.8325 0
M  V30 5401 C 509.383 -4.37302 -1.04868 0
M  V30 5402 C 508.153 -4.99749 -0.746932 0
M  V30 5403 C 510.351 -5.12599 -0.417989 0
M  V30 5404 N 508.333 -6.13871 0.0591596 0
M  V30 5405 C 509.704 -6.19488 0.251879 0
M  V30 5406 C 511.759 -4.96804 -0.33018 0
M  V30 5407 C 510.462 -7.12299 1.00115 0
M  V30 5408 C 512.488 -5.90007 0.4056 0
M  V30 5409 C 511.85 -6.96317 1.06404 0
M  V30 5410 H 507.949 -0.709382 -0.329091 0
M  V30 5411 H 510.533 -1.93406 -0.224114 0
M  V30 5412 H 508.704 -2.94456 -2.53279 0
M  V30 5413 H 510.436 -3.18874 -2.49202 0
M  V30 5414 H 507.191 -4.61518 -1.06292 0
M  V30 5415 H 507.615 -6.75497 0.450798 0
M  V30 5416 H 512.257 -4.14675 -0.824898 0
M  V30 5417 H 509.975 -7.93916 1.50741 0
M  V30 5418 H 513.561 -5.79862 0.474436 0
M  V30 5419 H 512.441 -7.67194 1.62429 0
M  V30 5420 N 509.944 0.496216 -1.49584 0
M  V30 5421 C 511.19 1.25189 -1.59548 0
M  V30 5422 C 511.523 1.9212 -0.283466 0
M  V30 5423 O 510.798 1.80947 0.713324 0
M  V30 5424 C 511.081 2.31516 -2.75812 0
M  V30 5425 C 510.934 1.69054 -4.16822 0
M  V30 5426 C 512.253 3.3304 -2.87702 0
M  V30 5427 H 509.372 0.45379 -0.580727 0
M  V30 5428 H 512.014 0.549327 -1.81886 0
M  V30 5429 H 510.164 2.91438 -2.56897 0
M  V30 5430 H 511.836 1.12923 -4.47265 0
M  V30 5431 H 510.079 0.994485 -4.22247 0
M  V30 5432 H 510.75 2.462 -4.94054 0
M  V30 5433 H 513.226 2.83114 -3.04936 0
M  V30 5434 H 512.102 4.04794 -3.7072 0
M  V30 5435 H 512.363 3.95655 -1.97255 0
M  V30 5436 N 511.423 1.38739 0.74761 0
M  V30 5437 C 512.386 1.36241 1.84312 0
M  V30 5438 C 513.386 0.261811 1.58654 0
M  V30 5439 O 514.576 0.519031 1.66288 0
M  V30 5440 C 511.708 1.12253 3.21888 0
M  V30 5441 H 512.901 2.33712 1.87933 0
M  V30 5442 H 510.454 1.2412 0.949946 0
M  V30 5443 H 511.189 0.154133 3.23934 0
M  V30 5444 H 510.974 1.91943 3.41907 0
M  V30 5445 H 512.464 1.13215 4.0196 0
M  V30 5446 N 512.901 -0.976442 1.23707 0
M  V30 5447 C 513.831 -2.08749 1.04624 0
M  V30 5448 C 514.812 -1.70057 -0.0380956 0
M  V30 5449 O 515.997 -1.93782 0.127308 0
M  V30 5450 C 513.127 -3.41335 0.640902 0
M  V30 5451 C 512.081 -3.93947 1.67302 0
M  V30 5452 C 511.407 -5.22774 1.12301 0
M  V30 5453 C 512.707 -4.22769 3.06697 0
M  V30 5454 H 514.401 -2.24972 1.97555 0
M  V30 5455 H 511.947 -1.08108 0.951247 0
M  V30 5456 H 513.9 -4.18489 0.494434 0
M  V30 5457 H 512.624 -3.24988 -0.324099 0
M  V30 5458 H 511.283 -3.18941 1.80755 0
M  V30 5459 H 510.931 -5.0278 0.148877 0
M  V30 5460 H 510.631 -5.58942 1.81267 0
M  V30 5461 H 512.155 -6.02546 0.988479 0
M  V30 5462 H 513.569 -4.90659 2.96524 0
M  V30 5463 H 511.966 -4.70147 3.72937 0
M  V30 5464 H 513.036 -3.29885 3.55392 0
M  V30 5465 N 514.379 -1.04941 -1.1758 0
M  V30 5466 C 515.625 -0.759112 -1.88057 0
M  V30 5467 C 515.958 0.711918 -1.8068 0
M  V30 5468 O 515.233 1.52035 -1.21308 0
M  V30 5469 C 515.516 -1.237 -3.38187 0
M  V30 5470 C 515.369 -2.77078 -3.54327 0
M  V30 5471 C 516.688 -0.834014 -4.32125 0
M  V30 5472 H 513.807 -0.277237 -0.682868 0
M  V30 5473 H 516.449 -1.30296 -1.38286 0
M  V30 5474 H 514.599 -0.774337 -3.80705 0
M  V30 5475 H 516.271 -3.31449 -3.20842 0
M  V30 5476 H 514.514 -3.16477 -2.96689 0
M  V30 5477 H 515.185 -3.05577 -4.59703 0
M  V30 5478 H 517.661 -1.23228 -3.97434 0
M  V30 5479 H 516.537 -1.19603 -5.35711 0
M  V30 5480 H 516.798 0.262195 -4.41322 0
M  V30 5481 N 515.857 1.33968 -0.830081 0
M  V30 5482 C 517.103 1.98357 -0.422191 0
M  V30 5483 C 517.436 1.65633 1.01387 0
M  V30 5484 O 516.711 0.931648 1.70735 0
M  V30 5485 C 516.994 3.54492 -0.633043 0
M  V30 5486 C 516.847 3.96934 -2.11574 0
M  V30 5487 C 518.166 4.40039 -0.0735584 0
M  V30 5488 H 515.285 0.720544 -0.154871 0
M  V30 5489 H 517.927 1.58749 -1.04397 0
M  V30 5490 H 516.077 3.88361 -0.103775 0
M  V30 5491 H 517.749 3.73363 -2.7092 0
M  V30 5492 H 515.992 3.46984 -2.60354 0
M  V30 5493 H 516.663 5.05651 -2.21406 0
M  V30 5494 H 519.139 4.12764 -0.52585 0
M  V30 5495 H 518.015 5.48327 -0.250841 0
M  V30 5496 H 518.276 4.30124 1.02202 0
M  V30 5497 N 517.335 0.585699 1.46312 0
M  V30 5498 C 518.583 0.072278 2.01971 0
M  V30 5499 C 518.904 -1.29345 1.45928 0
M  V30 5500 O 518.174 -1.84973 0.645109 0
M  V30 5501 H 516.754 0.023729 0.746623 0
M  V30 5502 H 519.416 0.762155 1.7938 0
M  V30 5503 H 518.512 0.00552767 3.121 0
M  V30 5504 N 518.813 -1.54241 0.323641 0
M  V30 5505 C 519.763 -2.21071 -0.557833 0
M  V30 5506 C 520.747 -1.19126 -1.08157 0
M  V30 5507 O 521.939 -1.44755 -1.01857 0
M  V30 5508 C 519.068 -2.97208 -1.71821 0
M  V30 5509 C 518.154 -4.06491 -1.20936 0
M  V30 5510 N 518.545 -5.04052 -0.420202 0
M  V30 5511 C 516.843 -4.20443 -1.48808 0
M  V30 5512 C 517.544 -5.81516 -0.146413 0
M  V30 5513 N 516.52 -5.38641 -0.732562 0
M  V30 5514 H 520.322 -2.93853 0.0523921 0
M  V30 5515 H 517.836 -1.61883 0.129502 0
M  V30 5516 H 519.833 -3.4357 -2.36146 0
M  V30 5517 H 518.493 -2.25947 -2.33191 0
M  V30 5518 H 519.504 -5.17862 -0.0630401 0
M  V30 5519 H 516.181 -3.60396 -2.10762 0
M  V30 5520 H 517.571 -6.70119 0.488895 0
M  V30 5521 N 520.291 -0.0518155 -1.57515 0
M  V30 5522 C 521.201 0.937539 -2.15052 0
M  V30 5523 C 522.217 1.34121 -1.10849 0
M  V30 5524 O 523.393 1.418 -1.4302 0
M  V30 5525 C 520.458 2.19379 -2.68466 0
M  V30 5526 C 519.519 1.84841 -3.87469 0
M  V30 5527 C 518.752 3.04477 -4.38326 0
M  V30 5528 O 518.975 4.17868 -3.88256 0
M  V30 5529 O 517.909 2.85453 -5.29906 0
M  V30 5530 H 521.735 0.478201 -2.99912 0
M  V30 5531 H 519.32 0.17012 -1.48428 0
M  V30 5532 H 521.202 2.93084 -3.02787 0
M  V30 5533 H 519.877 2.64449 -1.86677 0
M  V30 5534 H 518.784 1.08449 -3.58036 0
M  V30 5535 H 520.117 1.44569 -4.7049 0
M  V30 5536 N 521.769 1.56035 0.221574 0
M  V30 5537 C 522.699 1.95434 1.2778 0
M  V30 5538 C 523.68 0.822564 1.48889 0
M  V30 5539 O 524.865 1.08486 1.61072 0
M  V30 5540 C 521.995 2.27102 2.62759 0
M  V30 5541 C 520.949 3.4277 2.56306 0
M  V30 5542 C 520.275 3.60043 3.95314 0
M  V30 5543 C 521.575 4.77742 2.11093 0
M  V30 5544 H 523.269 2.83912 0.950504 0
M  V30 5545 H 520.815 1.36596 0.455791 0
M  V30 5546 H 522.768 2.53256 3.36807 0
M  V30 5547 H 521.492 1.35478 2.97176 0
M  V30 5548 H 520.151 3.16664 1.84715 0
M  V30 5549 H 519.799 2.65794 4.27039 0
M  V30 5550 H 519.499 4.37841 3.91879 0
M  V30 5551 H 521.023 3.88545 4.71025 0
M  V30 5552 H 522.437 5.03102 2.74885 0
M  V30 5553 H 520.834 5.58823 2.18716 0
M  V30 5554 H 521.904 4.731 1.06321 0
M  V30 5555 N 523.247 -0.488276 1.49845 0
M  V30 5556 C 524.21 -1.57069 1.66919 0
M  V30 5557 C 525.21 -1.51445 0.540479 0
M  V30 5558 O 526.4 -1.5437 0.807188 0
M  V30 5559 C 523.532 -2.96718 1.67844 0
M  V30 5560 H 524.725 -1.43254 2.63474 0
M  V30 5561 H 522.278 -0.713435 1.39068 0
M  V30 5562 H 523.013 -3.15996 0.7292 0
M  V30 5563 H 522.798 -3.02208 2.49826 0
M  V30 5564 H 524.288 -3.75335 1.83066 0
M  V30 5565 N 524.725 -1.39134 -0.740242 0
M  V30 5566 C 525.675 -1.33928 -1.84519 0
M  V30 5567 C 526.659 -0.221097 -1.59374 0
M  V30 5568 O 527.851 -0.458195 -1.70967 0
M  V30 5569 C 524.98 -1.17991 -3.22387 0
M  V30 5570 C 524.066 -2.34488 -3.53378 0
M  V30 5571 N 524.457 -3.59954 -3.5534 0
M  V30 5572 C 522.755 -2.27331 -3.83714 0
M  V30 5573 C 523.456 -4.36962 -3.83978 0
M  V30 5574 N 522.432 -3.66482 -4.01487 0
M  V30 5575 H 526.234 -2.28907 -1.84333 0
M  V30 5576 H 523.748 -1.32555 -0.938237 0
M  V30 5577 H 525.745 -1.12345 -4.01478 0
M  V30 5578 H 524.405 -0.23957 -3.23815 0
M  V30 5579 H 525.416 -3.93448 -3.36778 0
M  V30 5580 H 522.093 -1.41531 -3.92779 0
M  V30 5581 H 523.483 -5.45692 -3.92008 0
M  V30 5582 N 526.204 0.969867 -1.24223 0
M  V30 5583 C 527.136 2.0669 -0.99055 0
M  V30 5584 C 528.149 1.62753 0.0392222 0
M  V30 5585 O 529.338 1.77403 -0.197561 0
M  V30 5586 C 526.438 3.35589 -0.472594 0
M  V30 5587 C 525.611 4.08444 -1.56499 0
M  V30 5588 C 524.67 5.15616 -1.05007 0
M  V30 5589 O 523.696 5.41911 -1.7413 0
M  V30 5590 N 524.898 5.80383 0.116641 0
M  V30 5591 H 527.663 2.28855 -1.93508 0
M  V30 5592 H 525.224 1.13733 -1.15223 0
M  V30 5593 H 527.216 4.04542 -0.112919 0
M  V30 5594 H 525.786 3.10311 0.377617 0
M  V30 5595 H 525.006 3.33798 -2.09696 0
M  V30 5596 H 526.294 4.53882 -2.29932 0
M  V30 5597 H 525.692 5.6142 0.694589 0
M  V30 5598 H 524.249 6.50462 0.417483 0
M  V30 5599 N 527.682 1.05563 1.17022 0
M  V30 5600 C 528.928 0.778872 1.87897 0
M  V30 5601 C 529.283 -0.686839 1.79723 0
M  V30 5602 O 528.576 -1.49612 1.19694 0
M  V30 5603 C 528.77 1.19849 3.36706 0
M  V30 5604 C 528.599 2.70345 3.59366 0
M  V30 5605 C 527.369 3.37707 3.75875 0
M  V30 5606 C 529.567 3.68564 3.58699 0
M  V30 5607 N 527.549 4.7703 3.86414 0
M  V30 5608 C 528.92 4.93634 3.75134 0
M  V30 5609 C 530.975 3.6198 3.4187 0
M  V30 5610 C 529.678 6.12907 3.76481 0
M  V30 5611 C 531.704 4.80697 3.44507 0
M  V30 5612 C 531.066 6.04592 3.61453 0
M  V30 5613 H 527.165 0.337297 0.705517 0
M  V30 5614 H 529.749 1.34832 1.40458 0
M  V30 5615 H 527.92 0.656958 3.82804 0
M  V30 5616 H 529.652 0.871172 3.95212 0
M  V30 5617 H 526.407 2.88108 3.75887 0
M  V30 5618 H 526.831 5.49483 3.95471 0
M  V30 5619 H 531.473 2.67154 3.27702 0
M  V30 5620 H 529.191 7.08073 3.89432 0
M  V30 5621 H 532.777 4.77259 3.32738 0
M  V30 5622 H 531.657 6.94916 3.63403 0
M  V30 5623 N 529.16 -1.33526 0.837174 0
M  V30 5624 C 530.407 -1.97837 0.432064 0
M  V30 5625 C 530.735 -1.66324 -1.00829 0
M  V30 5626 O 529.99 -0.93448 -1.71948 0
M  V30 5627 C 530.289 -3.52367 0.597675 0
M  V30 5628 C 529.955 -4.03826 2.00587 0
M  V30 5629 C 528.617 -4.1759 2.39106 0
M  V30 5630 C 530.969 -4.31333 2.92576 0
M  V30 5631 C 528.297 -4.56195 3.68921 0
M  V30 5632 C 530.649 -4.7139 4.2187 0
M  V30 5633 C 529.313 -4.8336 4.60347 0
M  V30 5634 H 528.583 -0.723937 0.158104 0
M  V30 5635 H 531.23 -1.5923 1.06387 0
M  V30 5636 H 529.535 -3.91624 -0.117452 0
M  V30 5637 H 531.232 -4.00126 0.26454 0
M  V30 5638 H 527.822 -3.93586 1.69671 0
M  V30 5639 H 532.006 -4.20224 2.64056 0
M  V30 5640 H 527.262 -4.63655 3.9854 0
M  V30 5641 H 531.436 -4.91631 4.93226 0
M  V30 5642 H 529.063 -5.1303 5.60985 0
M  V30 5643 N 530.638 -0.59345 -1.46 0
M  V30 5644 C 531.886 -0.082988 -2.0193 0
M  V30 5645 C 532.207 1.28569 -1.46612 0
M  V30 5646 O 531.477 1.84629 -0.654909 0
M  V30 5647 H 530.057 -0.0276882 -0.746487 0
M  V30 5648 H 532.719 -0.771657 -1.78973 0
M  V30 5649 H 531.815 -0.022079 -3.12092 0
M  V30 5650 N 532.116 1.54067 -0.331816 0
M  V30 5651 C 533.064 2.26105 0.54582 0
M  V30 5652 C 534.058 1.27816 1.11173 0
M  V30 5653 O 535.264 1.45565 1.05882 0
M  V30 5654 H 531.639 0.726363 0.194683 0
M  V30 5655 H 533.61 2.98282 -0.083931 0
M  V30 5656 C 532.359 3.03814 1.69092 0
M  V30 5657 H 531.682 3.79269 1.26473 0
M  V30 5658 H 533.122 3.57453 2.28043 0
M  V30 5659 C 531.581 2.12606 2.61343 0
M  V30 5660 O 532.111 1.71437 3.6328 0
M  V30 5661 N 530.317 1.77925 2.29763 0
M  V30 5662 H 529.864 2.11602 1.46909 0
M  V30 5663 H 529.822 1.1718 2.91747 0
M  V30 5664 N 533.594 0.0601682 1.57485 0
M  V30 5665 C 534.524 -0.90889 2.15085 0
M  V30 5666 C 535.505 -1.31838 1.07484 0
M  V30 5667 O 536.69 -1.3915 1.35466 0
M  V30 5668 C 533.82 -2.18059 2.7031 0
M  V30 5669 C 532.774 -1.91088 3.82974 0
M  V30 5670 C 532.1 -3.24789 4.24754 0
M  V30 5671 C 533.4 -1.22535 5.07723 0
M  V30 5672 H 535.094 -0.429093 2.96309 0
M  V30 5673 H 532.64 -0.204952 1.42534 0
M  V30 5674 H 534.593 -2.86258 3.09248 0
M  V30 5675 H 533.317 -2.6826 1.8629 0
M  V30 5676 H 531.976 -1.25297 3.44523 0
M  V30 5677 H 531.624 -3.72809 3.37672 0
M  V30 5678 H 531.324 -3.07538 5.00694 0
M  V30 5679 H 532.848 -3.94205 4.66299 0
M  V30 5680 H 534.262 -1.80783 5.4405 0
M  V30 5681 H 532.659 -1.1558 5.88864 0
M  V30 5682 H 533.729 -0.202692 4.84476 0
M  V30 5683 N 535.072 -1.5615 -0.213296 0
M  V30 5684 C 536.318 -1.79812 -0.937849 0
M  V30 5685 C 536.651 -0.631201 -1.83656 0
M  V30 5686 O 535.926 0.369165 -1.90964 0
M  V30 5687 C 536.209 -3.13613 -1.76972 0
M  V30 5688 C 536.062 -4.40766 -0.89695 0
M  V30 5689 C 537.381 -3.43931 -2.7459 0
M  V30 5690 H 534.5 -0.654138 -0.339518 0
M  V30 5691 H 537.142 -1.88877 -0.20623 0
M  V30 5692 H 535.292 -3.06015 -2.39347 0
M  V30 5693 H 536.964 -4.60392 -0.289306 0
M  V30 5694 H 535.207 -4.33326 -0.202756 0
M  V30 5695 H 535.878 -5.30843 -1.51358 0
M  V30 5696 H 538.354 -3.5171 -2.22349 0
M  V30 5697 H 537.23 -4.38706 -3.29891 0
M  V30 5698 H 537.491 -2.6651 -3.52739 0
M  V30 5699 N 536.55 0.480323 -1.50102 0
M  V30 5700 C 537.778 1.25657 -1.64371 0
M  V30 5701 C 538.193 1.86011 -0.323316 0
M  V30 5702 O 537.55 1.68803 0.693682 0
M  V30 5703 C 537.601 2.37197 -2.728 0
M  V30 5704 O 537.322 1.7932 -3.9972 0
M  V30 5705 C 538.823 3.2823 -2.9796 0
M  V30 5706 H 536.043 0.380369 -0.552775 0
M  V30 5707 H 538.587 0.574379 -1.96268 0
M  V30 5708 H 536.742 3.01208 -2.43623 0
M  V30 5709 H 537.156 2.52701 -4.59611 0
M  V30 5710 H 538.63 4.02725 -3.77513 0
M  V30 5711 H 539.107 3.86462 -2.08671 0
M  V30 5712 H 539.713 2.69964 -3.28633 0
M  V30 5713 N 538.028 1.39524 0.732853 0
M  V30 5714 C 538.961 1.32806 1.85574 0
M  V30 5715 C 539.939 0.201354 1.61348 0
M  V30 5716 O 541.123 0.38216 1.84585 0
M  V30 5717 C 538.25 1.06271 3.21596 0
M  V30 5718 C 537.296 2.21161 3.64678 0
M  V30 5719 S 538.129 3.83454 3.73796 0
M  V30 5720 C 539.285 3.59149 5.12604 0
M  V30 5721 H 539.518 2.27838 1.9099 0
M  V30 5722 H 537.051 1.25605 0.897927 0
M  V30 5723 H 539.009 0.916461 4.00139 0
M  V30 5724 H 537.67 0.129223 3.13834 0
M  V30 5725 H 536.863 1.98193 4.63396 0
M  V30 5726 H 536.465 2.32 2.93346 0
M  V30 5727 H 538.757 3.16547 5.99003 0
M  V30 5728 H 539.7 4.57335 5.40602 0
M  V30 5729 H 540.108 2.93203 4.82382 0
M  V30 5730 N 539.506 -0.963266 1.24736 0
M  V30 5731 C 540.416 -2.09246 1.06082 0
M  V30 5732 C 541.432 -1.74 0.000363101 0
M  V30 5733 O 542.608 -2.0041 0.199479 0
M  V30 5734 C 539.673 -3.40115 0.672498 0
M  V30 5735 C 538.734 -3.89282 1.80993 0
M  V30 5736 C 537.967 -5.13905 1.44004 0
M  V30 5737 O 538.19 -5.69434 0.331835 0
M  V30 5738 O 537.124 -5.57566 2.26723 0
M  V30 5739 H 540.95 -2.27881 2.00759 0
M  V30 5740 H 538.535 -1.07649 1.03595 0
M  V30 5741 H 540.417 -4.18797 0.467668 0
M  V30 5742 H 539.092 -3.22771 -0.245102 0
M  V30 5743 H 537.999 -3.11642 2.06955 0
M  V30 5744 H 539.332 -4.1111 2.70646 0
M  V30 5745 N 540.985 -1.06182 -1.16461 0
M  V30 5746 C 542.231 -0.788825 -1.87481 0
M  V30 5747 C 542.586 0.677298 -1.80085 0
M  V30 5748 O 541.879 1.48976 -1.20486 0
M  V30 5749 C 542.073 -1.21633 -3.36066 0
M  V30 5750 C 541.902 -2.72247 -3.57927 0
M  V30 5751 C 540.672 -3.39696 -3.74079 0
M  V30 5752 C 542.87 -3.70461 -3.56739 0
M  V30 5753 N 540.852 -4.79072 -3.83879 0
M  V30 5754 C 542.223 -4.95616 -3.72511 0
M  V30 5755 C 544.278 -3.63788 -3.39945 0
M  V30 5756 C 542.981 -6.14895 -3.73225 0
M  V30 5757 C 545.007 -4.82517 -3.41953 0
M  V30 5758 C 544.369 -6.065 -3.58242 0
M  V30 5759 H 540.468 -0.341034 -0.703719 0
M  V30 5760 H 543.052 -1.35575 -1.39741 0
M  V30 5761 H 541.223 -0.67725 -3.8245 0
M  V30 5762 H 542.955 -0.892119 -3.94745 0
M  V30 5763 H 539.71 -2.90097 -3.74354 0
M  V30 5764 H 540.134 -5.51573 -3.92551 0
M  V30 5765 H 544.776 -2.68888 -3.26281 0
M  V30 5766 H 542.494 -7.10129 -3.85672 0
M  V30 5767 H 546.08 -4.79017 -3.30203 0
M  V30 5768 H 544.96 -6.96833 -3.59712 0
M  V30 5769 N 542.463 1.3308 -0.844243 0
M  V30 5770 C 543.709 1.98304 -0.452453 0
M  V30 5771 C 544.064 1.65645 0.978746 0
M  V30 5772 O 543.357 0.928849 1.6758 0
M  V30 5773 C 543.551 3.52045 -0.616354 0
M  V30 5774 C 543.38 3.99643 -2.06193 0
M  V30 5775 C 542.15 4.27224 -2.69829 0
M  V30 5776 C 544.348 4.15471 -3.03131 0
M  V30 5777 N 542.33 4.60998 -4.05406 0
M  V30 5778 C 543.701 4.52665 -4.23668 0
M  V30 5779 C 545.756 3.97776 -2.99465 0
M  V30 5780 C 544.459 4.74011 -5.41023 0
M  V30 5781 C 546.485 4.20301 -4.16055 0
M  V30 5782 C 545.847 4.57801 -5.35348 0
M  V30 5783 H 541.946 0.752122 -0.214096 0
M  V30 5784 H 544.53 1.61096 -1.09344 0
M  V30 5785 H 542.701 3.884 -0.00513205 0
M  V30 5786 H 544.433 4.04228 -0.19548 0
M  V30 5787 H 541.188 4.18911 -2.20931 0
M  V30 5788 H 541.612 4.82087 -4.75312 0
M  V30 5789 H 546.254 3.67893 -2.08362 0
M  V30 5790 H 543.972 5.02753 -6.32665 0
M  V30 5791 H 547.558 4.08122 -4.14641 0
M  V30 5792 H 546.438 4.74884 -6.24063 0
M  V30 5793 N 543.941 0.601185 1.45683 0
M  V30 5794 C 545.169 0.100054 2.06658 0
M  V30 5795 C 545.584 -1.21285 1.44691 0
M  V30 5796 O 544.941 -1.73735 0.558772 0
M  V30 5797 C 544.992 -0.0528579 3.61461 0
M  V30 5798 O 544.713 1.20809 4.21114 0
M  V30 5799 C 546.214 -0.586193 4.39407 0
M  V30 5800 H 543.434 0.065905 0.667756 0
M  V30 5801 H 545.978 0.827101 1.87028 0
M  V30 5802 H 544.133 -0.730203 3.80456 0
M  V30 5803 H 544.547 1.03368 5.14213 0
M  V30 5804 H 546.021 -0.642297 5.4825 0
M  V30 5805 H 546.498 -1.60713 4.0874 0
M  V30 5806 H 547.104 0.0568935 4.25262 0
M  V30 5807 N 545.419 -1.53889 0.339982 0
M  V30 5808 C 546.369 -2.2165 -0.534354 0
M  V30 5809 C 547.353 -1.20266 -1.06887 0
M  V30 5810 O 548.545 -1.45827 -1.00316 0
M  V30 5811 C 545.674 -2.99014 -1.68659 0
M  V30 5812 C 544.76 -4.07751 -1.16618 0
M  V30 5813 N 545.151 -5.04469 -0.366717 0
M  V30 5814 C 543.449 -4.21998 -1.4434 0
M  V30 5815 C 544.15 -5.81638 -0.0847275 0
M  V30 5816 N 543.126 -5.39388 -0.675391 0
M  V30 5817 H 546.928 -2.93781 0.0835562 0
M  V30 5818 H 544.442 -1.61736 0.146665 0
M  V30 5819 H 546.439 -3.46056 -2.32489 0
M  V30 5820 H 545.099 -2.28408 -2.30781 0
M  V30 5821 H 546.11 -5.17899 -0.00811038 0
M  V30 5822 H 542.787 -3.62612 -2.06928 0
M  V30 5823 H 544.177 -6.69563 0.559943 0
M  V30 5824 N 546.897 -0.0685191 -1.57451 0
M  V30 5825 C 547.827 0.89747 -2.15564 0
M  V30 5826 C 548.808 1.31266 -1.08181 0
M  V30 5827 O 549.993 1.38429 -1.36202 0
M  V30 5828 C 547.123 2.16623 -2.71463 0
M  V30 5829 C 546.077 1.89054 -3.83982 0
M  V30 5830 C 545.403 3.22532 -4.26471 0
M  V30 5831 C 546.703 1.1984 -5.08366 0
M  V30 5832 H 548.397 0.413373 -2.96533 0
M  V30 5833 H 545.943 0.197391 -1.42641 0
M  V30 5834 H 547.896 2.84614 -3.10761 0
M  V30 5835 H 546.62 2.67269 -1.8771 0
M  V30 5836 H 545.279 1.23469 -3.45183 0
M  V30 5837 H 544.927 3.71013 -3.39644 0
M  V30 5838 H 544.627 3.04879 -5.02317 0
M  V30 5839 H 546.151 3.91727 -4.68383 0
M  V30 5840 H 547.565 1.77896 -5.45001 0
M  V30 5841 H 545.962 1.12456 -5.89469 0
M  V30 5842 H 547.032 0.176996 -4.84577 0
M  V30 5843 N 548.375 1.56261 0.205012 0
M  V30 5844 C 549.621 1.81211 0.923805 0
M  V30 5845 C 549.976 0.644065 1.813 0
M  V30 5846 O 549.269 -0.361208 1.88164 0
M  V30 5847 C 549.463 3.09722 1.78345 0
M  V30 5848 C 549.292 4.38915 0.978979 0
M  V30 5849 C 548.062 5.00874 0.667332 0
M  V30 5850 C 550.26 5.13199 0.336386 0
M  V30 5851 N 548.242 6.137 -0.156814 0
M  V30 5852 C 549.613 6.19009 -0.350402 0
M  V30 5853 C 551.668 4.97266 0.251101 0
M  V30 5854 C 550.371 7.10616 -1.11434 0
M  V30 5855 C 552.397 5.89288 -0.499413 0
M  V30 5856 C 551.759 6.94536 -1.17468 0
M  V30 5857 H 547.858 0.714528 0.317764 0
M  V30 5858 H 550.442 1.93738 0.193317 0
M  V30 5859 H 548.613 2.98448 2.48563 0
M  V30 5860 H 550.345 3.22798 2.44098 0
M  V30 5861 H 547.1 4.63151 0.989366 0
M  V30 5862 H 547.524 6.74695 -0.558206 0
M  V30 5863 H 552.166 4.15935 0.758823 0
M  V30 5864 H 549.884 7.91417 -1.63353 0
M  V30 5865 H 553.47 5.79034 -0.566627 0
M  V30 5866 H 552.35 7.64513 -1.74613 0
M  V30 5867 N 549.853 -0.472356 1.50355 0
M  V30 5868 C 550.783 -1.57859 1.72055 0
M  V30 5869 C 551.764 -1.60283 0.569505 0
M  V30 5870 O 552.949 -1.7657 0.808503 0
M  V30 5871 C 550.079 -2.96191 1.81351 0
M  V30 5872 C 549.033 -3.08633 2.96529 0
M  V30 5873 C 548.359 -4.486 2.90968 0
M  V30 5874 C 549.659 -2.85969 4.37057 0
M  V30 5875 H 551.353 -1.39953 2.64676 0
M  V30 5876 H 548.899 -0.671846 1.27367 0
M  V30 5877 H 550.852 -3.73507 1.95117 0
M  V30 5878 H 549.576 -3.15251 0.853502 0
M  V30 5879 H 548.235 -2.33749 2.82413 0
M  V30 5880 H 547.883 -4.64577 1.92815 0
M  V30 5881 H 547.583 -4.57861 3.68289 0
M  V30 5882 H 549.107 -5.27938 3.0678 0
M  V30 5883 H 550.521 -3.53036 4.51706 0
M  V30 5884 H 548.918 -3.06677 5.15819 0
M  V30 5885 H 549.988 -1.81838 4.49514 0
M  V30 5886 N 551.331 -1.39911 -0.725443 0
M  V30 5887 C 552.279 -1.39552 -1.86086 0
M  V30 5888 C 553.273 -0.277334 -1.67114 0
M  V30 5889 O 554.479 -0.447865 -1.74339 0
M  V30 5890 H 550.854 -0.435993 -0.612711 0
M  V30 5891 H 552.825 -2.35305 -1.83505 0
M  V30 5892 C 551.574 -1.26529 -3.2386 0
M  V30 5893 H 550.897 -2.11845 -3.3906 0
M  V30 5894 H 552.337 -1.30336 -4.03471 0
M  V30 5895 C 550.796 0.0254168 -3.3689 0
M  V30 5896 O 551.326 0.992048 -3.89257 0
M  V30 5897 N 549.532 0.0916528 -2.90455 0
M  V30 5898 H 549.079 -0.695675 -2.48028 0
M  V30 5899 H 549.037 0.954745 -2.99553 0
M  V30 5900 N 552.809 0.956637 -1.25245 0
M  V30 5901 C 553.719 2.0868 -1.0719 0
M  V30 5902 C 554.735 1.73997 -0.00959074 0
M  V30 5903 O 555.911 2.00301 -0.210104 0
M  V30 5904 C 552.976 3.39754 -0.690526 0
M  V30 5905 C 552.037 3.88316 -1.83055 0
M  V30 5906 C 551.27 5.13134 -1.46728 0
M  V30 5907 O 551.493 5.6925 -0.362029 0
M  V30 5908 O 550.427 5.56356 -2.29677 0
M  V30 5909 H 554.253 2.26813 -2.01965 0
M  V30 5910 H 551.838 1.07098 -1.04165 0
M  V30 5911 H 553.72 4.18543 -0.489871 0
M  V30 5912 H 552.395 3.22896 0.227981 0
M  V30 5913 H 551.302 3.1054 -2.08604 0
M  V30 5914 H 552.635 4.09669 -2.72822 0
M  V30 5915 N 554.287 1.06798 1.15896 0
M  V30 5916 C 555.535 0.786211 1.8618 0
M  V30 5917 C 555.856 -0.689547 1.82401 0
M  V30 5918 O 555.126 -1.49913 1.26107 0
M  V30 5919 H 553.706 0.287843 0.689315 0
M  V30 5920 H 556.368 1.35055 1.40521 0
M  V30 5921 H 555.464 1.1157 2.91477 0
M  V30 5922 N 555.766 -1.3263 0.851289 0
M  V30 5923 C 557.013 -1.97368 0.453023 0
M  V30 5924 C 557.341 -1.67384 -0.990596 0
M  V30 5925 O 556.596 -0.952665 -1.70947 0
M  V30 5926 C 556.895 -3.51713 0.635015 0
M  V30 5927 C 556.561 -4.01676 2.04859 0
M  V30 5928 C 555.223 -4.15031 2.43522 0
M  V30 5929 C 557.575 -4.28206 2.97135 0
M  V30 5930 C 554.903 -4.52257 3.73739 0
M  V30 5931 C 557.255 -4.66889 4.26846 0
M  V30 5932 C 555.919 -4.7845 4.65448 0
M  V30 5933 H 555.189 -0.722219 0.165773 0
M  V30 5934 H 557.836 -1.58092 1.0807 0
M  V30 5935 H 556.141 -3.91726 -0.0759081 0
M  V30 5936 H 557.838 -3.99823 0.306964 0
M  V30 5937 H 554.428 -3.91764 1.73836 0
M  V30 5938 H 558.612 -4.174 2.68498 0
M  V30 5939 H 553.868 -4.59402 4.03435 0
M  V30 5940 H 558.042 -4.86372 4.98413 0
M  V30 5941 H 555.669 -5.07052 5.66395 0
M  V30 5942 N 557.244 -0.608902 -1.45362 0
M  V30 5943 C 558.207 0.0992563 -2.28985 0
M  V30 5944 C 559.207 0.793841 -1.39838 0
M  V30 5945 O 560.397 0.641804 -1.61946 0
M  V30 5946 C 557.529 1.15073 -3.20891 0
M  V30 5947 H 558.722 -0.635964 -2.93079 0
M  V30 5948 H 556.275 -0.368007 -1.51906 0
M  V30 5949 H 557.01 1.91667 -2.616 0
M  V30 5950 H 556.795 0.656867 -3.86559 0
M  V30 5951 H 558.285 1.64665 -3.83765 0
M  V30 5952 N 558.722 1.53707 -0.348139 0
M  V30 5953 C 559.947 2.05877 0.250883 0
M  V30 5954 C 560.372 1.22115 1.43072 0
M  V30 5955 O 559.73 0.235986 1.79758 0
M  V30 5956 C 559.778 3.54886 0.639416 0
M  V30 5957 O 558.882 3.73948 1.73888 0
M  V30 5958 H 558.223 0.662754 0.040653 0
M  V30 5959 H 560.753 1.98303 -0.503685 0
M  V30 5960 H 560.763 3.97601 0.915295 0
M  V30 5961 H 559.438 4.153 -0.223386 0
M  V30 5962 H 558.015 3.43134 1.45991 0
M  V30 5963 N 560.2 0.0768682 1.57412 0
M  V30 5964 C 561.446 -0.585926 1.94778 0
M  V30 5965 C 561.801 -1.66912 0.956982 0
M  V30 5966 O 561.094 -1.9159 -0.0199454 0
M  V30 5967 C 561.288 -1.20268 3.36557 0
M  V30 5968 C 561.117 -0.18076 4.49337 0
M  V30 5969 C 559.887 0.236362 5.04747 0
M  V30 5970 C 562.085 0.583978 5.10974 0
M  V30 5971 N 560.067 1.24846 6.01071 0
M  V30 5972 C 561.438 1.44841 6.02844 0
M  V30 5973 C 563.493 0.639492 4.93776 0
M  V30 5974 C 562.196 2.36343 6.79363 0
M  V30 5975 C 564.222 1.54204 5.70942 0
M  V30 5976 C 563.584 2.39414 6.62465 0
M  V30 5977 H 559.683 -0.185281 0.759734 0
M  V30 5978 H 562.267 0.155193 1.9408 0
M  V30 5979 H 560.438 -1.9137 3.37982 0
M  V30 5980 H 562.17 -1.82636 3.61146 0
M  V30 5981 H 558.925 -0.14777 4.73369 0
M  V30 5982 H 559.349 1.75217 6.53933 0
M  V30 5983 H 563.991 -0.00510074 4.228 0
M  V30 5984 H 561.709 3.01836 7.49614 0
M  V30 5985 H 565.295 1.5899 5.59655 0
M  V30 5986 H 564.175 3.0812 7.21132 0
M  V30 5987 N 561.678 -1.56367 -0.196722 0
M  V30 5988 C 562.927 -1.79724 -0.915539 0
M  V30 5989 C 563.24 -0.649804 -1.84491 0
M  V30 5990 O 564.446 -0.767631 -2.60422 0
M  V30 5991 C 562.902 -3.18369 -1.67836 0
M  V30 5992 C 562.51 -4.4091 -0.793897 0
M  V30 5993 C 564.254 -3.51037 -2.38691 0
M  V30 5994 C 562.161 -5.70577 -1.55549 0
M  V30 5995 H 561.091 -0.67013 -0.345604 0
M  V30 5996 H 563.742 -1.82721 -0.168856 0
M  V30 5997 H 562.124 -3.09617 -2.46887 0
M  V30 5998 H 563.298 -4.60781 -0.042163 0
M  V30 5999 H 561.613 -4.15937 -0.19626 0
M  V30 6000 H 564.21 -4.4515 -2.96219 0
M  V30 6001 H 564.553 -2.74704 -3.12799 0
M  V30 6002 H 565.086 -3.61229 -1.66608 0
M  V30 6003 H 561.825 -6.49871 -0.857226 0
M  V30 6004 H 561.345 -5.54726 -2.2812 0
M  V30 6005 H 563.024 -6.11637 -2.10971 0
M  V30 6006 N 563.156 0.464375 -1.50603 0
M  V30 6007 C 564.066 1.58723 -1.72754 0
M  V30 6008 C 565.082 1.62925 -0.610844 0
M  V30 6009 O 566.258 1.8067 -0.889963 0
M  V30 6010 C 563.323 2.94897 -1.82309 0
M  V30 6011 C 562.384 3.0103 -3.06071 0
M  V30 6012 C 561.617 4.30708 -3.1516 0
M  V30 6013 O 561.84 5.2159 -2.30868 0
M  V30 6014 O 560.774 4.42571 -4.0794 0
M  V30 6015 H 564.6 1.42954 -2.67951 0
M  V30 6016 H 562.185 0.644579 -1.3478 0
M  V30 6017 H 564.067 3.75764 -1.90735 0
M  V30 6018 H 562.742 3.10851 -0.902967 0
M  V30 6019 H 561.649 2.19217 -3.03142 0
M  V30 6020 H 562.982 2.90014 -3.97684 0
M  V30 6021 N 564.634 1.40294 0.718013 0
M  V30 6022 C 565.864 1.41544 1.50495 0
M  V30 6023 C 566.272 0.0127877 1.89196 0
M  V30 6024 O 565.615 -0.97305 1.55812 0
M  V30 6025 C 565.677 2.24021 2.81167 0
M  V30 6026 C 565.341 3.72463 2.64803 0
M  V30 6027 C 566.338 4.65154 2.32223 0
M  V30 6028 C 564.023 4.1625 2.81143 0
M  V30 6029 C 566.017 5.99618 2.16189 0
M  V30 6030 C 563.704 5.50784 2.64727 0
M  V30 6031 C 564.702 6.42283 2.32297 0
M  V30 6032 O 564.39 7.74337 2.16004 0
M  V30 6033 H 564.122 0.484819 0.471091 0
M  V30 6034 H 566.676 1.84948 0.893488 0
M  V30 6035 H 564.906 1.75393 3.44636 0
M  V30 6036 H 566.595 2.17243 3.42871 0
M  V30 6037 H 567.361 4.32622 2.19234 0
M  V30 6038 H 563.24 3.45352 3.05373 0
M  V30 6039 H 566.784 6.71 1.90799 0
M  V30 6040 H 562.681 5.82902 2.773 0
M  V30 6041 H 563.449 7.85244 2.30942 0
M  V30 6042 N 566.112 -0.949982 1.2575 0
M  V30 6043 C 567.042 -2.06483 1.09028 0
M  V30 6044 C 568.023 -1.701 -0.00201532 0
M  V30 6045 O 569.208 -1.93469 0.168383 0
M  V30 6046 C 566.338 -3.39899 0.71316 0
M  V30 6047 C 565.292 -3.90309 1.75621 0
M  V30 6048 C 564.618 -5.20274 1.23365 0
M  V30 6049 C 565.918 -4.16169 3.15596 0
M  V30 6050 H 567.612 -2.20731 2.02283 0
M  V30 6051 H 565.158 -1.06066 0.973964 0
M  V30 6052 H 567.111 -4.17346 0.58309 0
M  V30 6053 H 565.835 -3.25602 -0.255091 0
M  V30 6054 H 564.494 -3.15035 1.8748 0
M  V30 6055 H 564.142 -5.02351 0.255491 0
M  V30 6056 H 563.842 -5.54971 1.93082 0
M  V30 6057 H 565.366 -6.00314 1.11607 0
M  V30 6058 H 566.78 -4.84259 3.06864 0
M  V30 6059 H 565.177 -4.62131 3.82825 0
M  V30 6060 H 566.247 -3.22273 3.6231 0
M  V30 6061 N 567.59 -1.07411 -1.15328 0
M  V30 6062 C 568.83 -0.807011 -1.87794 0
M  V30 6063 C 569.194 0.654987 -1.80482 0
M  V30 6064 O 570.395 1.03716 -2.47985 0
M  V30 6065 C 568.666 -1.30198 -3.32841 0
M  V30 6066 S 570.225 -1.16564 -4.23034 0
M  V30 6067 H 567.043 -0.292429 -0.648079 0
M  V30 6068 H 569.645 -1.37334 -1.39139 0
M  V30 6069 H 568.349 -2.3607 -3.35707 0
M  V30 6070 H 567.88 -0.730881 -3.86551 0
M  V30 6071 H 569.895 -0.103557 -4.96092 0
M  V30 6072 N 569.068 1.32177 -0.85831 0
M  V30 6073 C 570.314 1.97417 -0.46417 0
M  V30 6074 C 570.647 1.67746 0.978514 0
M  V30 6075 O 569.922 0.967654 1.68721 0
M  V30 6076 C 570.205 3.53069 -0.708094 0
M  V30 6077 C 570.058 3.92357 -2.19946 0
M  V30 6078 C 571.377 4.39783 -0.166881 0
M  V30 6079 H 568.496 0.717097 -0.17012 0
M  V30 6080 H 571.138 1.56499 -1.07741 0
M  V30 6081 H 569.288 3.88054 -0.186128 0
M  V30 6082 H 570.96 3.67533 -2.78779 0
M  V30 6083 H 569.203 3.41384 -2.67656 0
M  V30 6084 H 569.874 5.00841 -2.32082 0
M  V30 6085 H 572.35 4.11556 -0.613285 0
M  V30 6086 H 571.226 5.47671 -0.367093 0
M  V30 6087 H 571.487 4.32196 0.930559 0
M  V30 6088 N 570.547 0.616602 1.45037 0
M  V30 6089 C 571.824 0.0469086 1.95544 0
M  V30 6090 C 572.204 -1.42345 1.55888 0
M  V30 6091 O 571.552 -2.13055 0.825824 0
M  V30 6092 C 571.762 0.254489 3.48071 0
M  V30 6093 C 573.11 0.140025 4.24369 0
M  V30 6094 O 574.134 0.185084 3.55719 0
M  V30 6095 O 572.993 0.0327034 5.4649 0
M  V30 6096 H 570.087 -0.0306051 0.826433 0
M  V30 6097 H 572.633 0.687293 1.55159 0
M  V30 6098 H 571.405 1.27532 3.69934 0
M  V30 6099 H 571.028 -0.42073 3.95368 0
M  V30 6100 N 572.025 -1.5352 0.356285 0
M  V30 6101 C 572.975 -2.22204 -0.510815 0
M  V30 6102 C 573.959 -1.21393 -1.05605 0
M  V30 6103 O 575.151 -1.46883 -0.987639 0
M  V30 6104 C 572.28 -3.00786 -1.65478 0
M  V30 6105 C 571.366 -4.08965 -1.12287 0
M  V30 6106 N 571.757 -5.04829 -0.313191 0
M  V30 6107 C 570.055 -4.23505 -1.39856 0
M  V30 6108 C 570.756 -5.81695 -0.0230322 0
M  V30 6109 N 569.732 -5.40074 -0.618144 0
M  V30 6110 H 573.534 -2.93676 0.114711 0
M  V30 6111 H 571.048 -1.61572 0.163811 0
M  V30 6112 H 573.045 -3.48502 -2.28806 0
M  V30 6113 H 571.705 -2.30843 -2.28345 0
M  V30 6114 H 572.716 -5.17879 0.0468202 0
M  V30 6115 H 569.393 -3.64786 -2.0307 0
M  V30 6116 H 570.783 -6.68931 0.630927 0
M  V30 6117 N 573.503 -0.0852151 -1.57369 0
M  V30 6118 C 574.743 0.584297 -1.95871 0
M  V30 6119 C 575.107 1.6596 -0.965473 0
M  V30 6120 O 576.308 2.38561 -1.23862 0
M  V30 6121 C 574.579 1.13411 -3.38929 0
M  V30 6122 S 576.138 1.81687 -3.99419 0
M  V30 6123 H 572.956 0.19095 -0.684879 0
M  V30 6124 H 575.558 -0.162267 -1.94825 0
M  V30 6125 H 574.262 0.339845 -4.0899 0
M  V30 6126 H 573.793 1.91672 -3.43548 0
M  V30 6127 H 575.808 3.10037 -3.87417 0
M  V30 6128 N 574.981 1.5647 0.188427 0
M  V30 6129 C 576.228 1.81013 0.907779 0
M  V30 6130 C 576.556 0.65953 1.82977 0
M  V30 6131 O 575.811 -0.354308 1.92466 0
M  V30 6132 C 576.11 3.11596 1.7505 0
M  V30 6133 C 575.776 4.40145 0.978922 0
M  V30 6134 C 574.438 4.75066 0.765912 0
M  V30 6135 C 576.79 5.19369 0.436498 0
M  V30 6136 C 574.118 5.867 -0.00089868 0
M  V30 6137 C 576.47 6.31805 -0.317136 0
M  V30 6138 C 575.134 6.65303 -0.541103 0
M  V30 6139 H 574.404 0.662373 0.33218 0
M  V30 6140 H 577.051 1.9071 0.173732 0
M  V30 6141 H 575.356 2.97165 2.55343 0
M  V30 6142 H 577.053 3.27793 2.30983 0
M  V30 6143 H 573.643 4.12745 1.15497 0
M  V30 6144 H 577.827 4.92799 0.588449 0
M  V30 6145 H 573.083 6.11122 -0.184329 0
M  V30 6146 H 577.257 6.92406 -0.744788 0
M  V30 6147 H 574.884 7.51646 -1.13718 0
M  V30 6148 N 576.459 -0.456382 1.50847 0
M  V30 6149 C 577.87 -1.03685 1.55262 0
M  V30 6150 C 578.221 -1.92779 0.364771 0
M  V30 6151 O 577.346 -2.10043 -0.52068 0
M  V30 6152 C 577.941 -1.88718 2.81374 0
M  V30 6153 C 576.5 -2.41847 2.88422 0
M  V30 6154 C 575.647 -1.20564 2.49719 0
M  V30 6155 H 578.598 -0.238399 1.56899 0
M  V30 6156 H 578.619 -2.73957 2.6406 0
M  V30 6157 H 578.131 -1.23847 3.67809 0
M  V30 6158 H 576.232 -3.10228 2.06372 0
M  V30 6159 H 576.345 -2.75947 3.9165 0
M  V30 6160 H 574.709 -1.54504 2.02486 0
M  V30 6161 H 575.492 -0.573326 3.38479 0
M  V30 6162 N 577.937 -1.40673 -0.710563 0
M  V30 6163 C 578.847 -1.43663 -1.85467 0
M  V30 6164 C 579.863 -0.328721 -1.70867 0
M  V30 6165 O 581.039 -0.574098 -1.93044 0
M  V30 6166 C 578.104 -1.30226 -3.21313 0
M  V30 6167 C 577.165 -2.51204 -3.48131 0
M  V30 6168 C 576.398 -2.38398 -4.77495 0
M  V30 6169 O 576.621 -1.40048 -5.5294 0
M  V30 6170 O 575.555 -3.2787 -5.04762 0
M  V30 6171 H 579.381 -2.40156 -1.859 0
M  V30 6172 H 576.966 -1.22049 -0.861652 0
M  V30 6173 H 578.848 -1.2496 -4.02446 0
M  V30 6174 H 577.523 -0.368419 -3.21597 0
M  V30 6175 H 576.43 -2.62048 -2.66987 0
M  V30 6176 H 577.763 -3.43366 -3.52648 0
M  V30 6177 N 579.415 0.9433 -1.26252 0
M  V30 6178 C 580.645 1.72117 -1.14277 0
M  V30 6179 C 581.053 1.86726 0.304944 0
M  V30 6180 O 580.396 1.3727 1.22076 0
M  V30 6181 C 580.458 3.14778 -1.73651 0
M  V30 6182 C 580.122 3.23561 -3.22734 0
M  V30 6183 C 581.119 3.07001 -4.19579 0
M  V30 6184 C 578.804 3.47019 -3.63157 0
M  V30 6185 C 580.798 3.13763 -5.54826 0
M  V30 6186 C 578.485 3.53416 -4.98538 0
M  V30 6187 C 579.483 3.36804 -5.94182 0
M  V30 6188 O 579.171 3.42906 -7.27098 0
M  V30 6189 H 578.903 0.545781 -0.398873 0
M  V30 6190 H 581.457 1.19123 -1.67328 0
M  V30 6191 H 579.687 3.69186 -1.1506 0
M  V30 6192 H 581.376 3.74469 -1.56613 0
M  V30 6193 H 582.142 2.88736 -3.89688 0
M  V30 6194 H 578.021 3.59006 -2.89199 0
M  V30 6195 H 581.565 3.00714 -6.29458 0
M  V30 6196 H 577.462 3.71201 -5.28091 0
M  V30 6197 H 578.23 3.59463 -7.35342 0
M  V30 6198 N 580.893 1.08022 1.14757 0
M  V30 6199 C 582.17 0.720386 1.81851 0
M  V30 6200 C 582.55 -0.796375 1.95502 0
M  V30 6201 O 581.898 -1.71339 1.51179 0
M  V30 6202 C 582.108 1.44273 3.17783 0
M  V30 6203 C 583.456 1.59925 3.93331 0
M  V30 6204 O 584.48 1.40407 3.2736 0
M  V30 6205 O 583.339 1.92096 5.11626 0
M  V30 6206 H 580.433 0.257142 0.786007 0
M  V30 6207 H 582.979 1.18155 1.21809 0
M  V30 6208 H 581.751 2.47618 3.02987 0
M  V30 6209 H 581.374 0.97279 3.85516 0
M  V30 6210 N 582.371 -1.3172 0.865308 0
M  V30 6211 C 583.62 -1.96145 0.470098 0
M  V30 6212 C 583.933 -1.69182 -0.981674 0
M  V30 6213 O 585.139 -2.27431 -1.48281 0
M  V30 6214 C 583.595 -3.51129 0.789732 0
M  V30 6215 C 583.203 -3.86938 2.25795 0
M  V30 6216 C 584.947 -4.2197 0.462765 0
M  V30 6217 C 582.854 -5.35012 2.52024 0
M  V30 6218 H 581.784 -0.734105 0.172065 0
M  V30 6219 H 584.435 -1.49959 1.05757 0
M  V30 6220 H 582.817 -3.95781 0.131571 0
M  V30 6221 H 583.991 -3.5326 2.95879 0
M  V30 6222 H 582.306 -3.29149 2.55049 0
M  V30 6223 H 584.903 -5.30904 0.636019 0
M  V30 6224 H 585.246 -4.12005 -0.59645 0
M  V30 6225 H 585.779 -3.82936 1.07727 0
M  V30 6226 H 582.518 -5.50008 3.56611 0
M  V30 6227 H 582.038 -5.70058 1.8653 0
M  V30 6228 H 583.717 -6.0222 2.36515 0
M  V30 6229 N 583.85 -0.624285 -1.44708 0
M  V30 6230 C 585.096 -0.13473 -2.02953 0
M  V30 6231 C 585.451 1.22724 -1.48178 0
M  V30 6232 O 584.744 1.80109 -0.653542 0
M  V30 6233 C 584.938 -0.0546353 -3.57358 0
M  V30 6234 C 584.767 -1.40729 -4.27113 0
M  V30 6235 C 583.537 -1.99231 -4.64365 0
M  V30 6236 C 585.735 -2.33968 -4.58 0
M  V30 6237 N 583.716 -3.27803 -5.19055 0
M  V30 6238 C 585.088 -3.47149 -5.137 0
M  V30 6239 C 587.143 -2.33132 -4.39948 0
M  V30 6240 C 585.846 -4.59682 -5.53249 0
M  V30 6241 C 587.872 -3.44724 -4.8054 0
M  V30 6242 C 587.234 -4.56629 -5.36348 0
M  V30 6243 H 583.332 -0.0930617 -0.776443 0
M  V30 6244 H 585.917 -0.826286 -1.76297 0
M  V30 6245 H 584.088 0.606183 -3.8364 0
M  V30 6246 H 585.82 0.443116 -4.02267 0
M  V30 6247 H 582.575 -1.52251 -4.4846 0
M  V30 6248 H 582.999 -3.93519 -5.50883 0
M  V30 6249 H 587.641 -1.47868 -3.961 0
M  V30 6250 H 585.359 -5.4566 -5.96054 0
M  V30 6251 H 588.945 -3.45245 -4.68291 0
M  V30 6252 H 587.825 -5.41551 -5.67179 0
M  V30 6253 N 585.328 1.53329 -0.364422 0
M  V30 6254 C 586.556 2.05657 0.226424 0
M  V30 6255 C 586.971 1.23801 1.42544 0
M  V30 6256 O 586.328 0.27839 1.80364 0
M  V30 6257 C 586.379 3.56125 0.621056 0
M  V30 6258 O 586.1 4.34879 -0.530304 0
M  V30 6259 C 587.601 4.24706 1.27041 0
M  V30 6260 H 584.821 0.669806 0.0400056 0
M  V30 6261 H 587.365 1.97714 -0.522456 0
M  V30 6262 H 585.52 3.64223 1.31985 0
M  V30 6263 H 585.934 5.24073 -0.211546 0
M  V30 6264 H 587.408 5.3131 1.49711 0
M  V30 6265 H 587.885 3.78354 2.23036 0
M  V30 6266 H 588.491 4.20858 0.613079 0
M  V30 6267 N 586.806 0.0935595 1.57322 0
M  V30 6268 C 587.738 -0.895923 2.10964 0
M  V30 6269 C 588.751 -1.24705 1.04654 0
M  V30 6270 O 589.94 -1.20044 1.32105 0
M  V30 6271 C 587.04 -2.20546 2.57318 0
M  V30 6272 C 586.213 -2.0299 3.87445 0
M  V30 6273 C 585.272 -3.17443 4.19662 0
M  V30 6274 O 584.298 -2.91474 4.88909 0
M  V30 6275 N 585.5 -4.43168 3.74943 0
M  V30 6276 H 588.265 -0.437788 2.96485 0
M  V30 6277 H 585.826 -0.0915863 1.61641 0
M  V30 6278 H 587.818 -2.9606 2.75917 0
M  V30 6279 H 586.388 -2.57789 1.76816 0
M  V30 6280 H 585.608 -1.11815 3.78009 0
M  V30 6281 H 586.896 -1.88535 4.7258 0
M  V30 6282 H 586.294 -4.67149 3.19043 0
M  V30 6283 H 584.851 -5.15637 3.987 0
M  V30 6284 N 588.284 -1.56567 -0.180126 0
M  V30 6285 C 589.531 -1.81492 -0.898167 0
M  V30 6286 C 589.859 -0.669225 -1.82624 0
M  V30 6287 O 589.114 0.344096 -1.92651 0
M  V30 6288 C 589.413 -3.1252 -1.73395 0
M  V30 6289 C 589.079 -4.40658 -0.955567 0
M  V30 6290 C 587.741 -4.75465 -0.740707 0
M  V30 6291 C 590.093 -5.19593 -0.408948 0
M  V30 6292 C 587.421 -5.86691 0.0320128 0
M  V30 6293 C 589.773 -6.31627 0.350638 0
M  V30 6294 C 588.437 -6.65007 0.576378 0
M  V30 6295 H 587.707 -0.664125 -0.328662 0
M  V30 6296 H 590.354 -1.908 -0.163616 0
M  V30 6297 H 588.659 -2.98515 -2.53763 0
M  V30 6298 H 590.356 -3.29013 -2.29241 0
M  V30 6299 H 586.946 -4.13352 -1.13306 0
M  V30 6300 H 591.13 -4.93104 -0.562307 0
M  V30 6301 H 586.386 -6.11016 0.216735 0
M  V30 6302 H 590.56 -6.92001 0.781497 0
M  V30 6303 H 588.187 -7.51033 1.17703 0
M  V30 6304 N 589.762 0.448376 -1.51087 0
M  V30 6305 C 591.008 1.20049 -1.6345 0
M  V30 6306 C 591.341 1.91121 -0.344444 0
M  V30 6307 O 590.616 1.83125 0.655396 0
M  V30 6308 C 590.899 2.22624 -2.83038 0
M  V30 6309 C 590.752 1.55708 -4.21989 0
M  V30 6310 C 592.071 3.23718 -2.98152 0
M  V30 6311 H 589.19 0.435085 -0.59487 0
M  V30 6312 H 591.832 0.491183 -1.83541 0
M  V30 6313 H 589.982 2.83117 -2.66039 0
M  V30 6314 H 591.654 0.986367 -4.50631 0
M  V30 6315 H 589.897 0.859647 -4.25197 0
M  V30 6316 H 590.568 2.30357 -5.01637 0
M  V30 6317 H 593.044 2.73269 -3.13788 0
M  V30 6318 H 591.92 3.92795 -3.83411 0
M  V30 6319 H 592.181 3.89179 -2.09743 0
M  V30 6320 N 591.24 1.41047 0.703093 0
M  V30 6321 C 592.465 1.43537 1.49706 0
M  V30 6322 C 592.89 0.0401853 1.88057 0
M  V30 6323 O 592.248 -0.954785 1.54122 0
M  V30 6324 C 592.296 2.3433 2.74084 0
M  V30 6325 O 591.4 1.79515 3.71279 0
M  V30 6326 H 590.741 0.487454 0.450871 0
M  V30 6327 H 593.271 1.85422 0.86486 0
M  V30 6328 H 593.281 2.49947 3.22476 0
M  V30 6329 H 591.956 3.35708 2.45506 0
M  V30 6330 H 590.533 1.7331 3.30179 0
M  V30 6331 N 592.718 -0.936591 1.26751 0
M  V30 6332 C 593.681 -2.01752 1.08761 0
M  V30 6333 C 594.681 -1.60763 0.0344435 0
M  V30 6334 O 595.871 -1.71963 0.278258 0
M  V30 6335 C 593.003 -3.34543 0.655271 0
M  V30 6336 H 594.196 -2.19143 2.04735 0
M  V30 6337 H 591.749 -1.11618 1.09413 0
M  V30 6338 H 592.484 -3.22851 -0.30626 0
M  V30 6339 H 592.269 -3.65647 1.41578 0
M  V30 6340 H 593.759 -4.13944 0.551378 0
M  V30 6341 N 594.196 -1.08629 -1.14182 0
M  V30 6342 C 595.473 -0.73002 -1.81466 0
M  V30 6343 C 595.853 0.785996 -1.95922 0
M  V30 6344 O 595.201 1.70535 -1.52086 0
M  V30 6345 C 595.411 -1.45957 -3.17014 0
M  V30 6346 C 596.759 -1.62008 -3.92477 0
M  V30 6347 O 597.783 -1.42141 -3.26611 0
M  V30 6348 O 596.642 -1.94806 -5.106 0
M  V30 6349 H 593.736 -0.261307 -0.784632 0
M  V30 6350 H 596.282 -1.188 -1.2118 0
M  V30 6351 H 595.054 -2.49221 -3.01669 0
M  V30 6352 H 594.677 -0.993222 -3.84995 0
M  V30 6353 N 595.674 1.31259 -0.872281 0
M  V30 6354 C 596.904 2.00504 -0.498183 0
M  V30 6355 C 597.312 1.65632 0.914479 0
M  V30 6356 O 596.655 0.882849 1.61095 0
M  V30 6357 C 596.717 3.5482 -0.578194 0
M  V30 6358 C 596.381 4.13172 -1.95289 0
M  V30 6359 C 597.378 4.30107 -2.92069 0
M  V30 6360 C 595.063 4.48846 -2.25483 0
M  V30 6361 C 597.057 4.81908 -4.17185 0
M  V30 6362 C 594.744 5.00349 -3.50847 0
M  V30 6363 C 595.742 5.16831 -4.46514 0
M  V30 6364 O 595.43 5.67228 -5.69656 0
M  V30 6365 H 595.162 0.648055 -0.192354 0
M  V30 6366 H 597.716 1.6841 -1.17589 0
M  V30 6367 H 595.946 3.86383 0.156438 0
M  V30 6368 H 597.635 4.05318 -0.217192 0
M  V30 6369 H 598.401 4.02862 -2.7005 0
M  V30 6370 H 594.28 4.35292 -1.51795 0
M  V30 6371 H 597.824 4.94688 -4.91863 0
M  V30 6372 H 593.721 5.27028 -3.72708 0
M  V30 6373 H 594.489 5.85592 -5.7186 0
M  V30 6374 N 597.152 0.631951 1.44375 0
M  V30 6375 C 598.38 0.143867 2.06399 0
M  V30 6376 C 598.795 -1.18188 1.47231 0
M  V30 6377 O 598.152 -1.72511 0.595498 0
M  V30 6378 C 598.203 0.0238253 3.61492 0
M  V30 6379 O 597.924 1.29715 4.18456 0
M  V30 6380 C 599.425 -0.492856 4.40552 0
M  V30 6381 H 596.645 0.0800542 0.666207 0
M  V30 6382 H 599.189 0.866586 1.85231 0
M  V30 6383 H 597.344 -0.649338 3.81919 0
M  V30 6384 H 597.758 1.14252 5.11905 0
M  V30 6385 H 599.232 -0.525861 5.49489 0
M  V30 6386 H 599.709 -1.52006 4.12057 0
M  V30 6387 H 600.315 0.147085 4.25046 0
M  V30 6388 N 598.631 -1.53133 0.372548 0
M  V30 6389 C 600.047 -1.59585 0.02178 0
M  V30 6390 C 600.247 -1.38736 -1.46132 0
M  V30 6391 O 599.303 -1.19599 -2.22379 0
M  V30 6392 C 600.616 -2.9678 0.483959 0
M  V30 6393 C 602.164 -3.09909 0.438775 0
M  V30 6394 C 602.639 -4.49527 0.876876 0
M  V30 6395 N 604.13 -4.55663 0.832214 0
M  V30 6396 C 604.865 -5.61896 1.14281 0
M  V30 6397 N 604.361 -6.75852 1.52303 0
M  V30 6398 N 606.154 -5.51916 1.06515 0
M  V30 6399 H 598.305 -1.64936 1.33827 0
M  V30 6400 H 600.568 -0.773947 0.547458 0
M  V30 6401 H 600.274 -3.17198 1.51915 0
M  V30 6402 H 600.148 -3.7699 -0.125784 0
M  V30 6403 H 602.535 -2.89197 -0.587294 0
M  V30 6404 H 602.616 -2.31691 1.0841 0
M  V30 6405 H 602.26 -4.70979 1.90109 0
M  V30 6406 H 602.19 -5.26186 0.208727 0
M  V30 6407 H 604.681 -3.73844 0.552195 0
M  V30 6408 H 604.994 -7.52862 1.7441 0
M  V30 6409 H 603.339 -6.77226 1.56175 0
M  V30 6410 H 606.53 -4.6177 0.767235 0
M  V30 6411 H 606.703 -6.34609 1.31053 0
M  V30 6412 N 600.109 -0.101901 -1.5727 0
M  V30 6413 C 601.072 0.840129 -2.13247 0
M  V30 6414 C 602.072 1.20625 -1.06331 0
M  V30 6415 O 603.262 1.13456 -1.32186 0
M  V30 6416 C 600.394 2.13372 -2.65867 0
M  V30 6417 H 601.587 0.353945 -2.97804 0
M  V30 6418 H 599.14 0.147167 -1.55606 0
M  V30 6419 H 599.875 2.66461 -1.84849 0
M  V30 6420 H 599.66 1.88085 -3.44044 0
M  V30 6421 H 601.15 2.80748 -3.09145 0
M  V30 6422 N 601.587 1.56661 0.17182 0
M  V30 6423 C 602.519 1.92934 1.2373 0
M  V30 6424 C 603.532 0.822385 1.40502 0
M  V30 6425 O 604.721 1.10083 1.40514 0
M  V30 6426 C 601.821 2.16651 2.60607 0
M  V30 6427 C 600.994 3.47878 2.6514 0
M  V30 6428 C 600.053 3.60429 3.83377 0
M  V30 6429 O 599.079 4.33051 3.69398 0
M  V30 6430 N 600.281 2.95241 4.99813 0
M  V30 6431 H 603.046 2.84931 0.929205 0
M  V30 6432 H 600.607 1.5781 0.361588 0
M  V30 6433 H 602.599 2.22312 3.38171 0
M  V30 6434 H 601.169 1.3104 2.83809 0
M  V30 6435 H 600.389 3.53879 1.73675 0
M  V30 6436 H 601.677 4.34232 2.6518 0
M  V30 6437 H 601.075 2.3611 5.14071 0
M  V30 6438 H 599.632 3.06499 5.75241 0
M  V30 6439 N 603.065 -0.440357 1.51323 0
M  V30 6440 C 603.975 -1.55955 1.75258 0
M  V30 6441 C 604.991 -1.61933 0.636687 0
M  V30 6442 O 606.167 -1.79231 0.918593 0
M  V30 6443 C 603.232 -2.9196 1.86977 0
M  V30 6444 C 602.293 -2.96122 3.10822 0
M  V30 6445 C 601.526 -4.2564 3.21973 0
M  V30 6446 O 601.749 -5.17851 2.39137 0
M  V30 6447 O 600.683 -4.36025 4.14929 0
M  V30 6448 H 604.509 -1.38673 2.70191 0
M  V30 6449 H 602.094 -0.623055 1.35788 0
M  V30 6450 H 603.976 -3.72682 1.96688 0
M  V30 6451 H 602.651 -3.09375 0.952307 0
M  V30 6452 H 601.558 -2.14366 3.06591 0
M  V30 6453 H 602.891 -2.83651 4.02247 0
M  V30 6454 N 604.543 -1.41418 -0.695603 0
M  V30 6455 C 605.473 -1.46035 -1.82197 0
M  V30 6456 C 606.454 -0.319025 -1.67082 0
M  V30 6457 O 607.639 -0.530462 -1.86815 0
M  V30 6458 C 604.769 -1.34179 -3.20333 0
M  V30 6459 C 603.723 -2.46123 -3.50154 0
M  V30 6460 C 603.049 -2.19332 -4.87645 0
M  V30 6461 C 604.349 -3.88463 -3.49133 0
M  V30 6462 H 606.043 -2.40303 -1.78591 0
M  V30 6463 H 603.589 -1.15663 -0.857797 0
M  V30 6464 H 605.542 -1.36021 -3.98844 0
M  V30 6465 H 604.266 -0.363952 -3.24566 0
M  V30 6466 H 602.925 -2.43563 -2.73994 0
M  V30 6467 H 602.573 -1.19891 -4.88503 0
M  V30 6468 H 602.273 -2.94344 -5.08562 0
M  V30 6469 H 603.797 -2.22889 -5.68465 0
M  V30 6470 H 605.211 -3.92738 -4.17648 0
M  V30 6471 H 603.608 -4.63158 -3.81582 0
M  V30 6472 H 604.678 -4.16617 -2.48109 0
M  V30 6473 N 606.021 0.929856 -1.27246 0
M  V30 6474 C 607.298 1.65544 -1.04186 0
M  V30 6475 C 607.678 2.06796 0.424097 0
M  V30 6476 O 607.026 1.80053 1.40688 0
M  V30 6477 C 607.236 2.85912 -2.00138 0
M  V30 6478 C 608.584 3.57305 -2.29387 0
M  V30 6479 O 609.608 2.96036 -1.98094 0
M  V30 6480 O 608.467 4.67688 -2.82719 0
M  V30 6481 H 605.561 0.725473 -0.397011 0
M  V30 6482 H 608.107 0.980583 -1.38501 0
M  V30 6483 H 606.879 2.52403 -2.99013 0
M  V30 6484 H 606.502 3.61118 -1.66371 0
M  V30 6485 N 607.499 1.09233 1.13605 0
M  V30 6486 C 608.462 0.733553 2.17144 0
M  V30 6487 C 609.462 -0.235873 1.59061 0
M  V30 6488 O 610.652 -0.0143167 1.74194 0
M  V30 6489 C 607.784 0.084471 3.40795 0
M  V30 6490 H 608.977 1.65049 2.50397 0
M  V30 6491 H 606.53 0.891264 1.28399 0
M  V30 6492 H 607.265 -0.843795 3.1313 0
M  V30 6493 H 607.05 0.781985 3.84223 0
M  V30 6494 H 608.54 -0.151216 4.17326 0
M  V30 6495 N 608.977 -1.30795 0.87923 0
M  V30 6496 C 609.907 -2.30742 0.357796 0
M  V30 6497 C 610.888 -1.60747 -0.556283 0
M  V30 6498 O 612.073 -1.88393 -0.47135 0
M  V30 6499 C 609.203 -3.44583 -0.433555 0
M  V30 6500 C 608.157 -4.26235 0.388251 0
M  V30 6501 C 607.483 -5.32073 -0.529352 0
M  V30 6502 C 608.783 -4.96303 1.62729 0
M  V30 6503 H 610.477 -2.74605 1.19299 0
M  V30 6504 H 608.023 -1.32017 0.575104 0
M  V30 6505 H 609.976 -4.13563 -0.808934 0
M  V30 6506 H 608.7 -2.99511 -1.30234 0
M  V30 6507 H 607.359 -3.58936 0.745695 0
M  V30 6508 H 607.007 -4.83249 -1.39569 0
M  V30 6509 H 606.707 -5.87598 0.0166741 0
M  V30 6510 H 608.231 -6.0391 -0.901373 0
M  V30 6511 H 609.645 -5.5783 1.32283 0
M  V30 6512 H 608.042 -5.61666 2.11309 0
M  V30 6513 H 609.112 -4.22758 2.37494 0
M  V30 6514 N 610.455 -0.639598 -1.44038 0
M  V30 6515 C 611.732 -0.078012 -1.95444 0
M  V30 6516 C 612.112 1.39847 -1.58133 0
M  V30 6517 O 611.46 2.11714 -0.859614 0
M  V30 6518 C 611.67 -0.309832 -3.47622 0
M  V30 6519 C 613.018 -0.207521 -4.24093 0
M  V30 6520 O 614.042 -0.241653 -3.55379 0
M  V30 6521 O 612.901 -0.119641 -5.46369 0
M  V30 6522 H 609.995 0.0174534 -0.826816 0
M  V30 6523 H 612.541 -0.711891 -1.54046 0
M  V30 6524 H 611.313 -1.33401 -3.67858 0
M  V30 6525 H 610.936 0.357777 -3.95987 0
M  V30 6526 N 611.933 1.52934 -0.380664 0
M  V30 6527 C 612.881 2.27727 0.47361 0
M  V30 6528 C 613.875 1.31288 1.0705 0
M  V30 6529 O 615.081 1.4886 1.01197 0
M  V30 6530 H 611.456 0.732189 0.171475 0
M  V30 6531 H 613.427 2.97864 -0.178785 0
M  V30 6532 C 612.176 3.0904 1.59341 0
M  V30 6533 H 611.499 3.831 1.14343 0
M  V30 6534 H 612.939 3.64527 2.16555 0
M  V30 6535 C 611.398 2.20813 2.54447 0
M  V30 6536 O 611.928 1.82907 3.57642 0
M  V30 6537 N 610.134 1.85145 2.23986 0
M  V30 6538 H 609.681 2.16169 1.40103 0
M  V30 6539 H 609.639 1.26402 2.87871 0
M  V30 6540 N 613.412 0.11024 1.57214 0
M  V30 6541 C 614.637 -0.561179 1.99664 0
M  V30 6542 C 615.062 -1.59985 0.989266 0
M  V30 6543 O 614.42 -1.81255 -0.0402399 0
M  V30 6544 C 614.468 -1.17189 3.41027 0
M  V30 6545 O 613.572 -2.28755 3.4314 0
M  V30 6546 H 612.913 -0.14101 0.648855 0
M  V30 6547 H 615.443 0.196128 2.03658 0
M  V30 6548 H 615.453 -1.50954 3.79047 0
M  V30 6549 H 614.128 -0.411041 4.13864 0
M  V30 6550 H 612.705 -1.96495 3.16929 0
M  V30 6551 N 614.89 -1.56749 -0.16351 0
M  V30 6552 C 615.84 -1.93424 -1.20712 0
M  V30 6553 C 616.824 -0.803469 -1.39403 0
M  V30 6554 O 618.016 -1.06675 -1.41243 0
M  V30 6555 C 615.145 -2.30431 -2.54473 0
M  V30 6556 C 614.231 -3.5004 -2.39443 0
M  V30 6557 N 614.622 -4.67058 -1.9414 0
M  V30 6558 C 612.92 -3.548 -2.70246 0
M  V30 6559 C 613.621 -5.49184 -1.9176 0
M  V30 6560 N 612.597 -4.9044 -2.34457 0
M  V30 6561 H 616.399 -2.8138 -0.848681 0
M  V30 6562 H 613.913 -1.58089 -0.371717 0
M  V30 6563 H 615.91 -2.54903 -3.29894 0
M  V30 6564 H 614.57 -1.43818 -2.91112 0
M  V30 6565 H 615.581 -4.91128 -1.64357 0
M  V30 6566 H 612.258 -2.78685 -3.10871 0
M  V30 6567 H 613.648 -6.5297 -1.58366 0
M  V30 6568 N 616.368 0.432326 -1.51554 0
M  V30 6569 C 617.779 1.01202 -1.56892 0
M  V30 6570 C 618.13 1.92175 -0.395394 0
M  V30 6571 O 617.255 2.10844 0.487198 0
M  V30 6572 C 617.85 1.84217 -2.8434 0
M  V30 6573 C 616.409 2.37228 -2.92233 0
M  V30 6574 C 615.556 1.16576 -2.51606 0
M  V30 6575 H 618.507 0.213407 -1.57259 0
M  V30 6576 H 618.528 2.69721 -2.68385 0
M  V30 6577 H 618.04 1.17979 -3.69733 0
M  V30 6578 H 616.141 3.06905 -2.11282 0
M  V30 6579 H 616.254 2.69682 -3.95991 0
M  V30 6580 H 614.618 1.51263 -2.04919 0
M  V30 6581 H 615.401 0.519404 -3.39348 0
M  V30 6582 N 617.846 1.41785 0.688094 0
M  V30 6583 C 619.095 1.4084 1.44385 0
M  V30 6584 C 619.408 0.0234166 1.95586 0
M  V30 6585 O 620.614 -0.108647 2.71283 0
M  V30 6586 C 619.07 2.47675 2.61123 0
M  V30 6587 C 618.678 3.92116 2.16677 0
M  V30 6588 C 620.422 2.55877 3.38714 0
M  V30 6589 C 618.329 4.90487 3.30419 0
M  V30 6590 H 617.259 0.523787 0.542368 0
M  V30 6591 H 619.91 1.6764 0.74627 0
M  V30 6592 H 618.292 2.14018 3.33185 0
M  V30 6593 H 619.466 4.35059 1.51856 0
M  V30 6594 H 617.781 3.87642 1.5206 0
M  V30 6595 H 620.378 3.26553 4.234 0
M  V30 6596 H 620.721 1.59801 3.84408 0
M  V30 6597 H 621.254 2.88662 2.73714 0
M  V30 6598 H 617.993 5.87994 2.89729 0
M  V30 6599 H 617.513 4.52187 3.94065 0
M  V30 6600 H 619.192 5.11591 3.96085 0
M  V30 6601 N 619.324 -0.923095 1.27737 0
M  V30 6602 C 620.234 -2.05765 1.12685 0
M  V30 6603 C 621.25 -1.73911 0.0557197 0
M  V30 6604 O 622.426 -1.99674 0.263137 0
M  V30 6605 C 619.491 -3.37804 0.780363 0
M  V30 6606 C 618.552 -3.83326 1.93286 0
M  V30 6607 C 617.785 -5.09064 1.60281 0
M  V30 6608 O 618.008 -5.6809 0.512828 0
M  V30 6609 O 616.942 -5.50071 2.44347 0
M  V30 6610 H 620.768 -2.21378 2.07907 0
M  V30 6611 H 618.353 -1.04299 1.06968 0
M  V30 6612 H 620.235 -4.17097 0.600668 0
M  V30 6613 H 618.91 -3.23387 -0.142291 0
M  V30 6614 H 617.817 -3.049 2.16764 0
M  V30 6615 H 619.15 -4.02292 2.83588 0
M  V30 6616 N 620.802 -1.09834 -1.13024 0
M  V30 6617 C 622.048 -0.83819 -1.84668 0
M  V30 6618 C 622.381 0.634645 -1.83537 0
M  V30 6619 O 621.656 1.46753 -1.27647 0
M  V30 6620 C 621.939 -1.37933 -3.32636 0
M  V30 6621 C 621.792 -2.91857 -3.42257 0
M  V30 6622 C 623.111 -1.01654 -4.28199 0
M  V30 6623 H 620.23 -0.30595 -0.670495 0
M  V30 6624 H 622.872 -1.36044 -1.32635 0
M  V30 6625 H 621.022 -0.935111 -3.77078 0
M  V30 6626 H 622.694 -3.44759 -3.06495 0
M  V30 6627 H 620.937 -3.28776 -2.83 0
M  V30 6628 H 621.608 -3.24799 -4.46329 0
M  V30 6629 H 624.084 -1.39973 -3.9185 0
M  V30 6630 H 622.96 -1.42217 -5.30156 0
M  V30 6631 H 623.221 0.0747794 -4.42037 0
M  V30 6632 N 622.28 1.30327 -0.886154 0
M  V30 6633 C 623.505 2.0079 -0.519425 0
M  V30 6634 C 623.93 1.65979 0.885013 0
M  V30 6635 O 623.288 0.877043 1.58675 0
M  V30 6636 C 623.336 3.53686 -0.702758 0
M  V30 6637 O 622.44 4.11637 0.250828 0
M  V30 6638 H 621.781 0.63171 -0.204544 0
M  V30 6639 H 624.311 1.66145 -1.19402 0
M  V30 6640 H 624.321 4.03531 -0.602207 0
M  V30 6641 H 622.996 3.78361 -1.72673 0
M  V30 6642 H 621.573 3.72755 0.103873 0
M  V30 6643 N 623.758 0.647228 1.43697 0
M  V30 6644 C 625.004 0.158422 2.0218 0
M  V30 6645 C 625.337 -1.22233 1.50907 0
M  V30 6646 O 624.612 -1.81478 0.699702 0
M  V30 6647 C 624.895 0.1627 3.59732 0
M  V30 6648 C 624.748 1.57694 4.21251 0
M  V30 6649 C 626.067 -0.504138 4.37203 0
M  V30 6650 H 623.186 0.059042 0.734631 0
M  V30 6651 H 625.828 0.826772 1.71069 0
M  V30 6652 H 623.978 -0.406414 3.86368 0
M  V30 6653 H 625.65 2.19618 4.05667 0
M  V30 6654 H 623.893 2.12603 3.7813 0
M  V30 6655 H 624.564 1.53183 5.3032 0
M  V30 6656 H 627.04 -0.0199841 4.16095 0
M  V30 6657 H 625.916 -0.470394 5.46881 0
M  V30 6658 H 626.177 -1.57726 4.13007 0
M  V30 6659 N 625.236 -1.5273 0.388769 0
M  V30 6660 C 626.484 -2.01174 -0.193208 0
M  V30 6661 C 626.805 -1.27705 -1.47365 0
M  V30 6662 O 626.075 -0.396966 -1.91836 0
M  V30 6663 H 624.655 -0.743287 -0.0743871 0
M  V30 6664 H 627.317 -1.87826 0.520336 0
M  V30 6665 H 626.413 -3.09477 -0.403803 0
M  V30 6666 N 626.714 -0.118576 -1.57153 0
M  V30 6667 C 627.664 0.842924 -2.11846 0
M  V30 6668 C 628.648 1.22845 -1.03914 0
M  V30 6669 O 629.84 1.19961 -1.30148 0
M  V30 6670 C 626.969 2.09312 -2.72109 0
M  V30 6671 C 626.055 1.73198 -3.87122 0
M  V30 6672 N 626.446 1.07758 -4.94188 0
M  V30 6673 C 624.744 2.02659 -3.97298 0
M  V30 6674 C 625.445 0.907741 -5.74574 0
M  V30 6675 N 624.421 1.4326 -5.24383 0
M  V30 6676 H 628.223 0.333416 -2.92003 0
M  V30 6677 H 625.737 0.0839073 -1.62183 0
M  V30 6678 H 627.734 2.79162 -3.09635 0
M  V30 6679 H 626.394 2.60807 -1.93416 0
M  V30 6680 H 627.405 0.741613 -5.12563 0
M  V30 6681 H 624.082 2.56204 -3.29645 0
M  V30 6682 H 625.472 0.394112 -6.70743 0
M  V30 6683 N 628.193 1.56834 0.155195 0
M  V30 6684 C 629.604 1.72421 0.716082 0
M  V30 6685 C 629.955 0.731685 1.82046 0
M  V30 6686 O 629.08 -0.103481 2.16152 0
M  V30 6687 C 629.675 3.12629 1.30571 0
M  V30 6688 C 628.234 3.29846 1.81325 0
M  V30 6689 C 627.381 2.68359 0.698494 0
M  V30 6690 H 630.332 1.58544 -0.0703861 0
M  V30 6691 H 630.353 3.12174 2.1755 0
M  V30 6692 H 629.865 3.84844 0.501701 0
M  V30 6693 H 627.966 2.62614 2.64319 0
M  V30 6694 H 628.079 4.37727 1.9476 0
M  V30 6695 H 626.443 2.28604 1.12305 0
M  V30 6696 H 627.226 3.43171 -0.0939366 0
M  V30 6697 N 629.671 -0.424282 1.51781 0
M  V30 6698 C 630.896 -1.19928 1.6921 0
M  V30 6699 C 631.321 -1.8392 0.394355 0
M  V30 6700 O 630.679 -1.69371 -0.646778 0
M  V30 6701 C 630.727 -2.24937 2.81843 0
M  V30 6702 O 629.831 -3.3073 2.46356 0
M  V30 6703 H 629.172 -0.35078 0.563781 0
M  V30 6704 H 631.702 -0.499401 1.98412 0
M  V30 6705 H 631.712 -2.69512 3.06312 0
M  V30 6706 H 630.387 -1.77742 3.76006 0
M  V30 6707 H 628.964 -2.9154 2.32505 0
M  V30 6708 N 631.149 -1.42148 -0.680565 0
M  V30 6709 C 632.059 -1.47565 -1.82378 0
M  V30 6710 C 633.075 -0.36489 -1.70131 0
M  V30 6711 O 634.251 -0.614916 -1.91783 0
M  V30 6712 C 631.316 -1.37013 -3.18478 0
M  V30 6713 C 630.377 -2.58532 -3.42724 0
M  V30 6714 C 629.61 -2.48473 -4.72331 0
M  V30 6715 O 629.833 -1.51745 -5.49845 0
M  V30 6716 O 628.767 -3.38503 -4.97694 0
M  V30 6717 H 632.593 -2.44045 -1.80764 0
M  V30 6718 H 630.178 -1.23849 -0.835569 0
M  V30 6719 H 632.06 -1.33468 -3.99705 0
M  V30 6720 H 630.735 -0.436552 -3.20743 0
M  V30 6721 H 629.642 -2.67652 -2.61368 0
M  V30 6722 H 630.975 -3.50769 -3.45286 0
M  V30 6723 N 632.627 0.916307 -1.28225 0
M  V30 6724 C 633.873 1.66765 -1.154 0
M  V30 6725 C 634.206 1.91912 0.297251 0
M  V30 6726 O 633.481 1.51766 1.21644 0
M  V30 6727 C 633.764 3.02715 -1.95028 0
M  V30 6728 C 633.617 2.84738 -3.48201 0
M  V30 6729 C 634.936 4.03215 -1.76369 0
M  V30 6730 H 632.055 0.605205 -0.42059 0
M  V30 6731 H 634.697 1.06255 -1.57512 0
M  V30 6732 H 632.847 3.54365 -1.59242 0
M  V30 6733 H 634.519 2.40118 -3.9388 0
M  V30 6734 H 632.762 2.19848 -3.73964 0
M  V30 6735 H 633.433 3.8127 -3.99171 0
M  V30 6736 H 635.909 3.60617 -2.07593 0
M  V30 6737 H 634.785 4.96306 -2.34459 0
M  V30 6738 H 635.046 4.36288 -0.71452 0
M  V30 6739 N 634.105 1.10431 1.1244 0
M  V30 6740 C 635.382 0.758797 1.80282 0
M  V30 6741 C 635.762 -0.754727 1.97147 0
M  V30 6742 O 635.11 -1.68094 1.54779 0
M  V30 6743 C 635.32 1.50982 3.14651 0
M  V30 6744 C 636.668 1.68232 3.8985 0
M  V30 6745 O 637.692 1.47319 3.24308 0
M  V30 6746 O 636.551 2.02905 5.07437 0
M  V30 6747 H 633.645 0.273756 0.780376 0
M  V30 6748 H 636.191 1.20713 1.19275 0
M  V30 6749 H 634.963 2.53989 2.97666 0
M  V30 6750 H 634.586 1.05435 3.83366 0
M  V30 6751 N 635.583 -1.29855 0.893053 0
M  V30 6752 C 636.493 -2.31661 0.370157 0
M  V30 6753 C 637.509 -1.65677 -0.531723 0
M  V30 6754 O 638.685 -1.9691 -0.422902 0
M  V30 6755 C 635.75 -3.44388 -0.399741 0
M  V30 6756 C 634.811 -4.2598 0.532861 0
M  V30 6757 C 634.044 -5.33324 -0.200388 0
M  V30 6758 O 634.267 -5.52305 -1.42531 0
M  V30 6759 O 633.201 -6.00188 0.453668 0
M  V30 6760 H 637.027 -2.78354 1.2146 0
M  V30 6761 H 634.612 -1.34171 0.657153 0
M  V30 6762 H 636.494 -4.13037 -0.835358 0
M  V30 6763 H 635.169 -2.99815 -1.22035 0
M  V30 6764 H 634.076 -3.59998 1.01746 0
M  V30 6765 H 635.409 -4.74178 1.3197 0
M  V30 6766 N 637.061 -0.65484 -1.43351 0
M  V30 6767 C 638.31 -0.166215 -2.01014 0
M  V30 6768 C 638.623 1.22764 -1.52278 0
M  V30 6769 O 639.829 1.81156 -2.02224 0
M  V30 6770 C 638.285 -0.246341 -3.59056 0
M  V30 6771 C 637.893 -1.64299 -4.16785 0
M  V30 6772 C 639.637 0.184597 -4.24098 0
M  V30 6773 C 637.544 -1.67695 -5.67126 0
M  V30 6774 H 636.474 -0.0583769 -0.751737 0
M  V30 6775 H 639.125 -0.817111 -1.64303 0
M  V30 6776 H 637.507 0.472092 -3.93176 0
M  V30 6777 H 638.681 -2.3869 -3.94162 0
M  V30 6778 H 636.996 -2.02004 -3.6412 0
M  V30 6779 H 639.593 0.179088 -5.344 0
M  V30 6780 H 639.936 1.21632 -3.98135 0
M  V30 6781 H 640.469 -0.482141 -3.94867 0
M  V30 6782 H 637.208 -2.68783 -5.9786 0
M  V30 6783 H 636.728 -0.976313 -5.91801 0
M  V30 6784 H 638.407 -1.42142 -6.31193 0
M  V30 6785 N 638.539 1.52521 -0.396863 0
M  V30 6786 C 639.786 2.01672 0.182898 0
M  V30 6787 C 640.114 1.28302 1.46181 0
M  V30 6788 O 639.369 0.374118 1.92091 0
M  V30 6789 C 639.668 3.5403 0.489677 0
M  V30 6790 C 639.334 4.45456 -0.698581 0
M  V30 6791 C 637.996 4.70166 -1.02454 0
M  V30 6792 C 640.348 4.99354 -1.49316 0
M  V30 6793 C 637.676 5.46024 -2.1465 0
M  V30 6794 C 640.028 5.76439 -2.60579 0
M  V30 6795 C 638.692 5.99426 -2.93675 0
M  V30 6796 H 637.962 0.737971 0.066927 0
M  V30 6797 H 640.609 1.83853 -0.535764 0
M  V30 6798 H 638.914 3.69963 1.28976 0
M  V30 6799 H 640.611 3.8956 0.951018 0
M  V30 6800 H 637.201 4.26392 -0.434525 0
M  V30 6801 H 641.385 4.80182 -1.25457 0
M  V30 6802 H 636.641 5.62046 -2.40654 0
M  V30 6803 H 640.815 6.17202 -3.22544 0
M  V30 6804 H 638.442 6.57988 -3.80731 0
M  V30 6805 N 640.017 0.126909 1.57088 0
M  V30 6806 C 641.294 -0.573152 1.87014 0
M  V30 6807 C 641.674 -1.84297 1.02945 0
M  V30 6808 O 641.022 -2.28232 0.110573 0
M  V30 6809 C 641.232 -0.857984 3.38289 0
M  V30 6810 C 642.58 -1.20759 4.07066 0
M  V30 6811 O 643.604 -0.947992 3.43353 0
M  V30 6812 O 642.463 -1.69516 5.19545 0
M  V30 6813 H 639.557 -0.290082 0.774456 0
M  V30 6814 H 642.103 0.162008 1.68925 0
M  V30 6815 H 640.875 0.0415286 3.91278 0
M  V30 6816 H 640.498 -1.64803 3.61837 0
M  V30 6817 N 641.495 -1.56914 -0.146875 0
M  V30 6818 C 642.458 -1.97368 -1.16526 0
M  V30 6819 C 643.458 -0.860223 -1.35856 0
M  V30 6820 O 644.648 -1.12684 -1.32846 0
M  V30 6821 C 641.78 -2.28974 -2.52555 0
M  V30 6822 H 642.973 -2.88523 -0.818209 0
M  V30 6823 H 640.526 -1.5135 -0.390221 0
M  V30 6824 H 641.261 -1.40611 -2.92231 0
M  V30 6825 H 641.046 -3.10157 -2.39886 0
M  V30 6826 H 642.536 -2.61109 -3.25902 0
M  V30 6827 N 642.974 0.416227 -1.52004 0
M  V30 6828 C 644.223 1.16088 -1.64944 0
M  V30 6829 C 644.536 1.91835 -0.381928 0
M  V30 6830 O 645.742 2.6867 -0.391013 0
M  V30 6831 C 644.198 2.1124 -2.91386 0
M  V30 6832 C 643.806 1.41042 -4.25219 0
M  V30 6833 C 645.55 2.86008 -3.13688 0
M  V30 6834 C 643.457 2.34801 -5.42791 0
M  V30 6835 H 642.387 0.437041 -0.61442 0
M  V30 6836 H 645.038 0.425971 -1.78487 0
M  V30 6837 H 643.42 2.88254 -2.71525 0
M  V30 6838 H 644.594 0.694416 -4.55538 0
M  V30 6839 H 642.909 0.78344 -4.08964 0
M  V30 6840 H 645.506 3.56286 -3.98703 0
M  V30 6841 H 645.849 3.48556 -2.27628 0
M  V30 6842 H 646.382 2.16095 -3.33988 0
M  V30 6843 H 643.121 1.7691 -6.31176 0
M  V30 6844 H 642.641 3.04395 -5.16821 0
M  V30 6845 H 644.32 2.9548 -5.75587 0
M  V30 6846 N 644.452 1.42507 0.673017 0
M  V30 6847 C 645.677 1.4668 1.46627 0
M  V30 6848 C 646.102 0.080066 1.8793 0
M  V30 6849 O 645.46 -0.921879 1.56112 0
M  V30 6850 C 645.508 2.40091 2.69051 0
M  V30 6851 O 644.612 1.8735 3.67387 0
M  V30 6852 H 643.953 0.496908 0.44043 0
M  V30 6853 H 646.483 1.87215 0.825334 0
M  V30 6854 H 646.493 2.56731 3.17101 0
M  V30 6855 H 645.168 3.4084 2.3833 0
M  V30 6856 H 643.745 1.80274 3.26429 0
M  V30 6857 N 645.93 -0.909495 1.28709 0
M  V30 6858 C 647.16 -1.69027 1.188 0
M  V30 6859 C 647.568 -1.87469 -0.255329 0
M  V30 6860 O 646.911 -1.40458 -1.18394 0
M  V30 6861 C 646.973 -3.10064 1.81936 0
M  V30 6862 C 646.637 -3.14891 3.31199 0
M  V30 6863 C 647.634 -2.95768 4.27571 0
M  V30 6864 C 645.319 -3.37269 3.7223 0
M  V30 6865 C 647.313 -2.98942 5.6295 0
M  V30 6866 C 645 -3.40074 5.07733 0
M  V30 6867 C 645.998 -3.20932 6.02903 0
M  V30 6868 O 645.686 -3.23507 7.35934 0
M  V30 6869 H 645.418 -0.535014 0.413203 0
M  V30 6870 H 647.972 -1.14645 1.70428 0
M  V30 6871 H 646.202 -3.66005 1.24808 0
M  V30 6872 H 647.891 -3.70185 1.66486 0
M  V30 6873 H 648.657 -2.78302 3.97206 0
M  V30 6874 H 644.536 -3.51212 2.98615 0
M  V30 6875 H 648.08 -2.83919 6.37209 0
M  V30 6876 H 643.977 -3.5707 5.37747 0
M  V30 6877 H 644.745 -3.3984 7.44615 0
M  V30 6878 N 647.408 -1.11026 -1.11852 0
M  V30 6879 C 648.633 -0.879064 -1.87849 0
M  V30 6880 C 649.058 0.565406 -1.79401 0
M  V30 6881 O 648.416 1.39886 -1.15333 0
M  V30 6882 C 648.464 -1.33985 -3.34784 0
M  V30 6883 O 647.568 -0.508803 -4.09249 0
M  V30 6884 H 646.909 -0.316992 -0.583448 0
M  V30 6885 H 649.439 -1.47863 -1.41413 0
M  V30 6886 H 649.449 -1.33248 -3.85628 0
M  V30 6887 H 648.124 -2.39172 -3.40249 0
M  V30 6888 H 646.701 -0.581913 -3.68332 0
M  V30 6889 N 648.886 1.2938 -0.899927 0
M  V30 6890 C 649.833 2.27713 -0.376243 0
M  V30 6891 C 650.803 1.57016 0.541774 0
M  V30 6892 O 651.988 1.84997 0.466966 0
M  V30 6893 C 649.128 3.42889 0.39 0
M  V30 6894 C 648.241 4.28369 -0.558938 0
M  V30 6895 C 647.376 5.30726 0.224379 0
M  V30 6896 C 646.415 6.07862 -0.719068 0
M  V30 6897 N 645.552 7.02094 0.0298569 0
M  V30 6898 H 650.392 2.71888 -1.21988 0
M  V30 6899 H 647.929 1.33724 -0.612879 0
M  V30 6900 H 649.887 4.08443 0.850314 0
M  V30 6901 H 648.517 2.99743 1.19809 0
M  V30 6902 H 647.569 3.62986 -1.13777 0
M  V30 6903 H 648.881 4.82068 -1.2811 0
M  V30 6904 H 648.035 6.02098 0.745881 0
M  V30 6905 H 646.774 4.77759 0.979674 0
M  V30 6906 H 645.779 5.35353 -1.25207 0
M  V30 6907 H 647.004 6.62917 -1.4737 0
M  V30 6908 H 644.95 6.51496 0.767415 0
M  V30 6909 H 644.867 7.5335 -0.632391 0
M  V30 6910 H 646.135 7.77685 0.531615 0
M  V30 6911 N 650.364 0.662433 1.43002 0
M  V30 6912 C 651.612 0.179237 2.01304 0
M  V30 6913 C 651.933 -1.21428 1.52579 0
M  V30 6914 O 651.203 -1.81294 0.742252 0
M  V30 6915 H 649.783 0.0632725 0.744316 0
M  V30 6916 H 652.445 0.856169 1.75088 0
M  V30 6917 H 651.541 0.170957 3.11631 0
M  V30 6918 N 651.842 -1.52309 0.404946 0
M  V30 6919 C 652.805 -2.25491 -0.410651 0
M  V30 6920 C 653.805 -1.27704 -0.977154 0
M  V30 6921 O 654.995 -1.51679 -0.856691 0
M  V30 6922 C 652.127 -3.02197 -1.57765 0
M  V30 6923 H 653.32 -2.99015 0.230277 0
M  V30 6924 H 650.873 -1.55506 0.157377 0
M  V30 6925 H 651.608 -2.33013 -2.25556 0
M  V30 6926 H 651.393 -3.73987 -1.17797 0
M  V30 6927 H 652.883 -3.57719 -2.15469 0
M  V30 6928 N 653.32 -0.135238 -1.57019 0
M  V30 6929 C 654.545 0.529343 -2.00531 0
M  V30 6930 C 654.97 1.58391 -1.01459 0
M  V30 6931 O 654.328 1.81296 0.0113986 0
M  V30 6932 C 654.376 1.11748 -3.42848 0
M  V30 6933 O 653.48 2.23267 -3.46736 0
M  V30 6934 H 652.821 0.130669 -0.651016 0
M  V30 6935 H 655.351 -0.228503 -2.0332 0
M  V30 6936 H 655.361 1.44905 -3.81401 0
M  V30 6937 H 654.036 0.345147 -4.14465 0
M  V30 6938 H 652.613 1.91428 -3.20015 0
M  V30 6939 N 654.798 1.5699 0.138552 0
M  V30 6940 C 656.044 1.84081 0.85099 0
M  V30 6941 C 656.377 0.718107 1.80435 0
M  V30 6942 O 655.652 -0.277633 1.92508 0
M  V30 6943 C 655.935 3.21699 1.61808 0
M  V30 6944 C 655.788 4.44544 0.685633 0
M  V30 6945 C 657.107 3.5664 2.57868 0
M  V30 6946 H 654.226 0.669592 0.307922 0
M  V30 6947 H 656.868 1.89646 0.11588 0
M  V30 6948 H 655.018 3.17086 2.24474 0
M  V30 6949 H 656.69 4.61248 0.0693179 0
M  V30 6950 H 654.933 4.338 -0.00421993 0
M  V30 6951 H 655.604 5.3746 1.25858 0
M  V30 6952 H 658.08 3.61918 2.05316 0
M  V30 6953 H 656.956 4.53946 3.08584 0
M  V30 6954 H 657.217 2.83036 3.39622 0
M  V30 6955 N 656.276 -0.40816 1.52223 0
M  V30 6956 C 657.525 -1.15212 1.65557 0
M  V30 6957 C 657.838 -1.9163 0.392096 0
M  V30 6958 O 659.044 -2.68458 0.405256 0
M  V30 6959 C 657.5 -2.09691 2.92502 0
M  V30 6960 C 657.108 -1.38785 4.25961 0
M  V30 6961 C 658.852 -2.8434 3.152 0
M  V30 6962 C 656.759 -2.31919 5.44029 0
M  V30 6963 H 655.689 -0.433776 0.616729 0
M  V30 6964 H 658.34 -0.4165 1.78711 0
M  V30 6965 H 656.722 -2.8681 2.7305 0
M  V30 6966 H 657.896 -0.670248 4.55899 0
M  V30 6967 H 656.211 -0.761741 4.09373 0
M  V30 6968 H 658.808 -3.54166 4.00587 0
M  V30 6969 H 659.151 -3.47344 2.29473 0
M  V30 6970 H 659.684 -2.14321 3.35129 0
M  V30 6971 H 656.423 -1.7356 6.32105 0
M  V30 6972 H 655.943 -3.0165 5.18428 0
M  V30 6973 H 657.622 -2.92424 5.77146 0
M  V30 6974 N 657.755 -1.42862 -0.66545 0
M  V30 6975 C 659.171 -1.25993 -0.979687 0
M  V30 6976 C 659.371 -0.170831 -2.00775 0
M  V30 6977 O 658.427 0.454827 -2.4837 0
M  V30 6978 C 659.74 -2.62005 -1.47559 0
M  V30 6979 C 661.288 -2.69437 -1.59288 0
M  V30 6980 C 661.763 -4.05838 -2.12272 0
M  V30 6981 N 663.254 -4.0784 -2.19592 0
M  V30 6982 C 663.989 -5.10205 -2.61684 0
M  V30 6983 N 663.485 -6.22949 -3.03161 0
M  V30 6984 N 665.278 -4.9756 -2.61516 0
M  V30 6985 H 657.429 -2.12395 0.0150493 0
M  V30 6986 H 659.692 -0.946355 -0.0558187 0
M  V30 6987 H 659.398 -3.42605 -0.794654 0
M  V30 6988 H 659.272 -2.86566 -2.45275 0
M  V30 6989 H 661.659 -1.89178 -2.26486 0
M  V30 6990 H 661.74 -2.48655 -0.600374 0
M  V30 6991 H 661.384 -4.86559 -1.4568 0
M  V30 6992 H 661.314 -4.23977 -3.12331 0
M  V30 6993 H 663.805 -3.26452 -1.90361 0
M  V30 6994 H 664.118 -6.96899 -3.33993 0
M  V30 6995 H 662.463 -6.2644 -3.00995 0
M  V30 6996 H 665.654 -4.08551 -2.28481 0
M  V30 6997 H 665.827 -5.77468 -2.93999 0
M  V30 6998 N 659.233 0.902656 -1.29189 0
M  V30 6999 C 660.166 2.00816 -1.0839 0
M  V30 7000 C 661.144 1.626 0.00335266 0
M  V30 7001 O 662.328 1.87928 -0.146765 0
M  V30 7002 C 659.455 3.32415 -0.649435 0
M  V30 7003 C 658.501 3.89617 -1.73496 0
M  V30 7004 S 659.334 4.19091 -3.33351 0
M  V30 7005 C 660.49 5.53736 -2.91766 0
M  V30 7006 H 660.723 2.18151 -2.01984 0
M  V30 7007 H 658.256 1.0489 -1.13303 0
M  V30 7008 H 660.214 4.08492 -0.405479 0
M  V30 7009 H 658.875 3.12964 0.266857 0
M  V30 7010 H 658.068 4.84658 -1.38284 0
M  V30 7011 H 657.67 3.20217 -1.93229 0
M  V30 7012 H 659.962 6.34085 -2.38627 0
M  V30 7013 H 660.905 5.93871 -3.85647 0
M  V30 7014 H 661.313 5.15453 -2.30149 0
M  V30 7015 N 660.711 1.11618 1.11262 0
M  V30 7016 C 661.641 0.79846 2.19424 0
M  V30 7017 C 662.622 -0.234003 1.68483 0
M  V30 7018 O 663.807 -0.0970704 1.93957 0
M  V30 7019 C 660.937 0.242892 3.4645 0
M  V30 7020 C 659.891 1.20744 4.10615 0
M  V30 7021 C 659.217 0.512494 5.32238 0
M  V30 7022 C 660.517 2.55884 4.55325 0
M  V30 7023 H 662.211 1.70286 2.46258 0
M  V30 7024 H 659.757 0.820195 1.18359 0
M  V30 7025 H 661.71 0.00840447 4.21399 0
M  V30 7026 H 660.434 -0.696811 3.1908 0
M  V30 7027 H 659.093 1.42759 3.37662 0
M  V30 7028 H 658.741 -0.432075 5.01141 0
M  V30 7029 H 658.441 1.15583 5.7612 0
M  V30 7030 H 659.965 0.286842 6.09926 0
M  V30 7031 H 661.379 2.37946 5.21588 0
M  V30 7032 H 659.776 3.16216 5.10027 0
M  V30 7033 H 660.846 3.14968 3.68678 0
M  V30 7034 N 662.189 -1.289 0.906776 0
M  V30 7035 C 663.139 -2.25122 0.361109 0
M  V30 7036 C 664.123 -1.52169 -0.52283 0
M  V30 7037 O 665.315 -1.73223 -0.363691 0
M  V30 7038 C 662.444 -3.40915 -0.403982 0
M  V30 7039 C 661.53 -4.21198 0.495279 0
M  V30 7040 N 661.921 -4.79636 1.60572 0
M  V30 7041 C 660.219 -4.45027 0.294372 0
M  V30 7042 C 660.92 -5.39977 2.16332 0
M  V30 7043 N 659.896 -5.23753 1.45546 0
M  V30 7044 H 663.698 -2.67869 1.20927 0
M  V30 7045 H 661.212 -1.43592 0.758632 0
M  V30 7046 H 663.209 -4.08922 -0.811695 0
M  V30 7047 H 661.869 -2.99703 -1.24932 0
M  V30 7048 H 662.88 -4.78209 1.98838 0
M  V30 7049 H 659.557 -4.14348 -0.512021 0
M  V30 7050 H 660.947 -5.96266 3.09704 0
M  V30 7051 N 663.667 -0.670007 -1.42649 0
M  V30 7052 C 664.944 -0.119451 -1.95235 0
M  V30 7053 C 665.324 1.36461 -1.61064 0
M  V30 7054 O 664.672 2.09843 -0.904329 0
M  V30 7055 C 664.882 -0.383498 -3.46887 0
M  V30 7056 C 666.23 -0.297431 -4.23557 0
M  V30 7057 O 667.254 -0.31698 -3.54787 0
M  V30 7058 O 666.113 -0.235507 -5.45992 0
M  V30 7059 H 663.207 -8.85474e-05 -0.827 0
M  V30 7060 H 665.753 -0.744406 -1.52501 0
M  V30 7061 H 664.525 -1.41174 -3.64946 0
M  V30 7062 H 664.148 0.273702 -3.96657 0
M  V30 7063 N 665.145 1.52092 -0.413018 0
M  V30 7064 C 666.375 2.05974 0.160648 0
M  V30 7065 C 666.783 1.28267 1.39084 0
M  V30 7066 O 666.126 0.328805 1.80733 0
M  V30 7067 C 666.188 3.54918 0.572169 0
M  V30 7068 C 665.852 4.53705 -0.547826 0
M  V30 7069 C 666.849 5.00342 -1.41259 0
M  V30 7070 C 664.534 4.97089 -0.721627 0
M  V30 7071 C 666.528 5.89011 -2.43607 0
M  V30 7072 C 664.215 5.85554 -1.74841 0
M  V30 7073 C 665.213 6.3141 -2.60403 0
M  V30 7074 O 664.901 7.18123 -3.61323 0
M  V30 7075 H 664.633 0.675636 0.0221936 0
M  V30 7076 H 667.187 1.96931 -0.58373 0
M  V30 7077 H 665.417 3.61661 1.36889 0
M  V30 7078 H 667.106 3.91428 1.0742 0
M  V30 7079 H 667.872 4.67537 -1.28974 0
M  V30 7080 H 663.751 4.60954 -0.0652911 0
M  V30 7081 H 667.295 6.24725 -3.10425 0
M  V30 7082 H 663.192 6.17773 -1.87156 0
M  V30 7083 H 663.96 7.36244 -3.57613 0
M  V30 7084 N 666.623 0.143563 1.56945 0
M  V30 7085 C 667.872 -0.50835 1.95189 0
M  V30 7086 C 668.185 -1.66239 1.03073 0
M  V30 7087 O 669.391 -2.3787 1.30882 0
M  V30 7088 C 667.847 -0.955735 3.46978 0
M  V30 7089 C 667.455 0.171183 4.47673 0
M  V30 7090 C 669.199 -1.57763 3.94095 0
M  V30 7091 C 667.106 -0.294279 5.90667 0
M  V30 7092 H 666.036 -0.193679 0.728701 0
M  V30 7093 H 668.687 0.227357 1.82086 0
M  V30 7094 H 667.069 -1.7466 3.55401 0
M  V30 7095 H 668.243 0.948049 4.50942 0
M  V30 7096 H 666.558 0.701273 4.10452 0
M  V30 7097 H 669.155 -1.93745 4.98364 0
M  V30 7098 H 669.498 -2.46531 3.35452 0
M  V30 7099 H 670.031 -0.851728 3.88575 0
M  V30 7100 H 666.77 0.557939 6.53121 0
M  V30 7101 H 666.29 -1.0371 5.90766 0
M  V30 7102 H 667.969 -0.747426 6.42668 0
M  V30 7103 N 668.101 -1.57061 -0.130224 0
M  V30 7104 C 669.349 -1.83893 -0.838313 0
M  V30 7105 C 669.67 -0.727046 -1.80939 0
M  V30 7106 O 668.94 0.249927 -1.94299 0
M  V30 7107 H 667.52 -0.67846 -0.312573 0
M  V30 7108 H 670.182 -1.94529 -0.120224 0
M  V30 7109 H 669.278 -2.79419 -1.39038 0
M  V30 7110 N 669.579 0.400081 -1.52437 0
M  V30 7111 C 670.856 1.15973 -1.57511 0
M  V30 7112 C 671.236 2.0798 -0.361572 0
M  V30 7113 O 670.584 2.19032 0.650929 0
M  V30 7114 C 670.794 1.92912 -2.90837 0
M  V30 7115 C 672.142 2.48662 -3.44169 0
M  V30 7116 O 673.166 2.03081 -2.92637 0
M  V30 7117 O 672.025 3.31894 -4.34176 0
M  V30 7118 H 669.119 0.530023 -0.634827 0
M  V30 7119 H 671.665 0.40613 -1.64769 0
M  V30 7120 H 670.437 1.25564 -3.70607 0
M  V30 7121 H 670.06 2.75257 -2.86913 0
M  V30 7122 N 671.057 1.43213 0.657864 0
M  V30 7123 C 672.004 1.48011 1.77092 0
M  V30 7124 C 672.974 0.330291 1.62783 0
M  V30 7125 O 674.159 0.536787 1.83094 0
M  V30 7126 C 671.299 1.40461 3.15222 0
M  V30 7127 C 670.412 2.65612 3.40697 0
M  V30 7128 C 669.547 2.50083 4.68649 0
M  V30 7129 C 668.586 3.70525 4.87214 0
M  V30 7130 N 667.723 3.53835 6.0642 0
M  V30 7131 H 672.563 2.43121 1.72326 0
M  V30 7132 H 670.1 1.20687 0.841013 0
M  V30 7133 H 672.058 1.34079 3.95068 0
M  V30 7134 H 670.688 0.489359 3.19069 0
M  V30 7135 H 669.74 2.82292 2.54982 0
M  V30 7136 H 671.052 3.5509 3.50303 0
M  V30 7137 H 670.206 2.41383 5.56614 0
M  V30 7138 H 668.945 1.58121 4.61356 0
M  V30 7139 H 667.95 3.79639 3.97686 0
M  V30 7140 H 669.175 4.63489 4.96341 0
M  V30 7141 H 667.121 2.64604 6.00267 0
M  V30 7142 H 667.038 4.36912 6.16963 0
M  V30 7143 H 668.306 3.48978 6.97019 0
M  V30 7144 N 672.536 -0.895792 1.29666 0
M  V30 7145 C 673.813 -1.62723 1.08538 0
M  V30 7146 C 674.193 -2.07848 -0.369119 0
M  V30 7147 O 673.541 -1.8372 -1.35864 0
M  V30 7148 C 673.751 -2.80505 2.07648 0
M  V30 7149 C 675.099 -3.51098 2.3878 0
M  V30 7150 O 676.123 -2.90679 2.05874 0
M  V30 7151 O 674.982 -4.60028 2.9502 0
M  V30 7152 H 672.076 -0.714692 0.416106 0
M  V30 7153 H 674.622 -0.943517 1.41053 0
M  V30 7154 H 673.394 -2.44386 3.05599 0
M  V30 7155 H 673.017 -3.5658 1.75887 0
M  V30 7156 N 674.014 -1.12206 -1.10668 0
M  V30 7157 C 675.261 -0.875875 -1.82578 0
M  V30 7158 C 675.589 0.598342 -1.85068 0
M  V30 7159 O 674.844 1.45818 -1.3052 0
M  V30 7160 C 675.143 -1.39276 -3.29146 0
M  V30 7161 C 674.809 -2.8816 -3.46806 0
M  V30 7162 C 673.471 -3.28813 -3.51334 0
M  V30 7163 C 675.823 -3.8401 -3.52399 0
M  V30 7164 C 673.151 -4.64028 -3.59019 0
M  V30 7165 C 675.503 -5.19053 -3.61617 0
M  V30 7166 C 674.167 -5.59252 -3.64408 0
M  V30 7167 H 673.437 -0.320505 -0.6681 0
M  V30 7168 H 676.084 -1.40184 -1.30464 0
M  V30 7169 H 674.389 -0.787207 -3.8381 0
M  V30 7170 H 676.086 -1.17851 -3.83291 0
M  V30 7171 H 672.676 -2.55716 -3.43958 0
M  V30 7172 H 676.86 -3.53698 -3.48154 0
M  V30 7173 H 672.116 -4.94568 -3.59461 0
M  V30 7174 H 676.29 -5.93152 -3.64889 0
M  V30 7175 H 673.917 -6.64017 -3.70116 0
M  V30 7176 N 675.492 1.28418 -0.913599 0
M  V30 7177 C 676.439 2.27301 -0.400373 0
M  V30 7178 C 677.409 1.57582 0.52509 0
M  V30 7179 O 678.594 1.85482 0.447318 0
M  V30 7180 C 675.734 3.43284 0.35361 0
M  V30 7181 C 674.847 4.27752 -0.604341 0
M  V30 7182 C 673.982 5.30934 0.168075 0
M  V30 7183 C 673.021 6.07065 -0.783499 0
M  V30 7184 N 672.158 7.02086 -0.0446112 0
M  V30 7185 H 676.998 2.70579 -1.24865 0
M  V30 7186 H 674.535 1.33067 -0.627028 0
M  V30 7187 H 676.493 4.09322 0.806945 0
M  V30 7188 H 675.123 3.00997 1.16623 0
M  V30 7189 H 674.175 3.61759 -1.17621 0
M  V30 7190 H 675.487 4.80682 -1.33216 0
M  V30 7191 H 674.641 6.02855 0.681979 0
M  V30 7192 H 673.38 4.78771 0.928947 0
M  V30 7193 H 672.385 5.33995 -1.30878 0
M  V30 7194 H 673.61 6.61317 -1.54392 0
M  V30 7195 H 671.556 6.52273 0.698272 0
M  V30 7196 H 671.473 7.52637 -0.712258 0
M  V30 7197 H 672.741 7.78205 0.449102 0
M  V30 7198 N 676.97 0.677563 1.42291 0
M  V30 7199 C 677.917 0.000947061 2.308 0
M  V30 7200 C 678.887 -0.789889 1.46116 0
M  V30 7201 O 680.072 -0.761578 1.74942 0
M  V30 7202 C 677.212 -0.942387 3.31984 0
M  V30 7203 C 676.325 -0.14508 4.31756 0
M  V30 7204 C 675.46 -1.08442 5.20013 0
M  V30 7205 C 674.499 -0.278958 6.11464 0
M  V30 7206 N 673.636 -1.17115 6.92263 0
M  V30 7207 H 678.476 0.761521 2.88106 0
M  V30 7208 H 676.013 0.38727 1.41911 0
M  V30 7209 H 677.971 -1.50317 3.89179 0
M  V30 7210 H 676.601 -1.66956 2.76271 0
M  V30 7211 H 675.653 0.532368 3.76656 0
M  V30 7212 H 676.965 0.48015 4.96484 0
M  V30 7213 H 676.119 -1.71504 5.81955 0
M  V30 7214 H 674.858 -1.74353 4.55469 0
M  V30 7215 H 673.863 0.364856 5.48588 0
M  V30 7216 H 675.088 0.376099 6.78058 0
M  V30 7217 H 673.034 -1.81661 6.30345 0
M  V30 7218 H 672.951 -0.601063 7.53607 0
M  V30 7219 H 674.219 -1.78915 7.58689 0
M  V30 7220 N 678.448 -1.51871 0.421078 0
M  V30 7221 C 679.696 -2.01539 -0.150492 0
M  V30 7222 C 680.017 -1.30803 -1.44623 0
M  V30 7223 O 679.287 -0.437568 -1.90951 0
M  V30 7224 H 677.867 -0.744698 -0.0586041 0
M  V30 7225 H 680.529 -1.8668 0.560059 0
M  V30 7226 H 679.625 -3.10264 -0.338068 0
M  V30 7227 N 679.926 -0.151884 -1.56866 0
M  V30 7228 C 680.859 0.824094 -2.128 0
M  V30 7229 C 681.837 1.2391 -1.05286 0
M  V30 7230 O 683.021 1.33433 -1.33146 0
M  V30 7231 C 680.148 2.1072 -2.65169 0
M  V30 7232 C 679.194 1.83774 -3.84876 0
M  V30 7233 S 680.027 1.02436 -5.25611 0
M  V30 7234 C 681.183 2.31855 -5.81373 0
M  V30 7235 H 681.416 0.348456 -2.95251 0
M  V30 7236 H 678.949 0.0624794 -1.54274 0
M  V30 7237 H 680.907 2.84428 -2.95992 0
M  V30 7238 H 679.568 2.55398 -1.8284 0
M  V30 7239 H 678.761 2.78929 -4.19779 0
M  V30 7240 H 678.363 1.18172 -3.5484 0
M  V30 7241 H 680.655 3.27469 -5.93102 0
M  V30 7242 H 681.598 2.01449 -6.7884 0
M  V30 7243 H 682.006 2.42727 -5.09651 0
M  V30 7244 N 681.404 1.57128 0.121893 0
M  V30 7245 C 682.352 2.01109 1.16868 0
M  V30 7246 C 683.346 0.907532 1.43039 0
M  V30 7247 O 684.552 1.09274 1.43036 0
M  V30 7248 H 680.927 0.640539 0.393971 0
M  V30 7249 H 682.898 2.88261 0.771224 0
M  V30 7250 C 681.647 2.42887 2.48799 0
M  V30 7251 H 680.97 3.2737 2.29498 0
M  V30 7252 H 682.41 2.77461 3.20611 0
M  V30 7253 C 680.869 1.29137 3.11168 0
M  V30 7254 O 681.399 0.605756 3.97106 0
M  V30 7255 N 679.605 1.04916 2.71 0
M  V30 7256 H 679.152 1.60848 2.01211 0
M  V30 7257 H 679.11 0.290016 3.1306 0
M  V30 7258 N 682.882 -0.391992 1.52647 0
M  V30 7259 C 683.815 -1.50019 1.71958 0
M  V30 7260 C 684.793 -1.5238 0.567365 0
M  V30 7261 O 685.977 -1.70831 0.796806 0
M  V30 7262 C 683.104 -2.88496 1.77447 0
M  V30 7263 C 682.15 -3.03974 2.99169 0
M  V30 7264 S 682.983 -2.75487 4.59203 0
M  V30 7265 C 684.139 -4.16163 4.67503 0
M  V30 7266 H 684.372 -1.33413 2.65685 0
M  V30 7267 H 681.905 -0.584674 1.42902 0
M  V30 7268 H 683.863 -3.68296 1.81296 0
M  V30 7269 H 682.524 -3.02431 0.848188 0
M  V30 7270 H 681.717 -4.05328 2.99542 0
M  V30 7271 H 681.319 -2.32062 2.93297 0
M  V30 7272 H 683.611 -5.10048 4.45934 0
M  V30 7273 H 684.554 -4.20806 5.69498 0
M  V30 7274 H 684.962 -4.01933 3.96371 0
M  V30 7275 N 684.36 -1.4356 -0.65026 0
M  V30 7276 C 685.59 -1.48563 -1.4357 0
M  V30 7277 C 685.998 -0.103041 -1.88919 0
M  V30 7278 O 685.341 0.897602 -1.60277 0
M  V30 7279 C 685.403 -2.37181 -2.70158 0
M  V30 7280 C 685.067 -3.84673 -2.4673 0
M  V30 7281 C 686.064 -4.75704 -2.09765 0
M  V30 7282 C 683.749 -4.29189 -2.60963 0
M  V30 7283 C 685.743 -6.09249 -1.87334 0
M  V30 7284 C 683.43 -5.62787 -2.38147 0
M  V30 7285 C 684.428 -6.52634 -2.01389 0
M  V30 7286 O 684.116 -7.83761 -1.78813 0
M  V30 7287 H 683.848 -0.506743 -0.447423 0
M  V30 7288 H 686.402 -1.89001 -0.80423 0
M  V30 7289 H 684.632 -1.91636 -3.35876 0
M  V30 7290 H 686.321 -2.33354 -3.32116 0
M  V30 7291 H 687.087 -4.42589 -1.98343 0
M  V30 7292 H 682.966 -3.59529 -2.88548 0
M  V30 7293 H 686.51 -6.7934 -1.58567 0
M  V30 7294 H 682.407 -5.95469 -2.49173 0
M  V30 7295 H 683.175 -7.95368 -1.93214 0
M  V30 7296 N 685.838 0.888903 -1.30139 0
M  V30 7297 C 686.768 2.01046 -1.18755 0
M  V30 7298 C 687.749 1.69916 -0.0791438 0
M  V30 7299 O 688.934 1.92445 -0.260498 0
M  V30 7300 C 686.064 3.36109 -0.874518 0
M  V30 7301 C 685.018 3.81486 -1.94043 0
M  V30 7302 C 684.344 5.13796 -1.48047 0
M  V30 7303 C 685.644 4.00637 -3.35093 0
M  V30 7304 H 687.338 2.10828 -2.12584 0
M  V30 7305 H 684.884 1.01298 -1.02346 0
M  V30 7306 H 686.837 4.14089 -0.781548 0
M  V30 7307 H 685.561 3.26449 0.0994519 0
M  V30 7308 H 684.22 3.05731 -2.02297 0
M  V30 7309 H 683.868 5.0056 -0.494878 0
M  V30 7310 H 683.568 5.45127 -2.19341 0
M  V30 7311 H 685.092 5.94305 -1.40121 0
M  V30 7312 H 686.506 4.69067 -3.2962 0
M  V30 7313 H 684.903 4.43339 -4.04438 0
M  V30 7314 H 685.973 3.0462 -3.77273 0
M  V30 7315 N 687.317 1.12792 1.10072 0
M  V30 7316 C 688.545 0.908506 1.85886 0
M  V30 7317 C 688.96 -0.542408 1.80841 0
M  V30 7318 O 688.317 -1.37517 1.1998 0
M  V30 7319 C 688.368 1.37973 3.34134 0
M  V30 7320 O 688.089 2.77378 3.39106 0
M  V30 7321 C 689.59 1.1978 4.26811 0
M  V30 7322 H 686.81 0.3244 0.587372 0
M  V30 7323 H 689.354 1.49882 1.39125 0
M  V30 7324 H 687.509 0.832566 3.78348 0
M  V30 7325 H 687.923 2.98144 4.31521 0
M  V30 7326 H 689.397 1.57635 5.29014 0
M  V30 7327 H 689.874 0.138768 4.38981 0
M  V30 7328 H 690.48 1.73266 3.88406 0
M  V30 7329 N 688.795 -1.27931 0.920396 0
M  V30 7330 C 689.742 -2.27085 0.412422 0
M  V30 7331 C 690.712 -1.57858 -0.516725 0
M  V30 7332 O 691.897 -1.85717 -0.437475 0
M  V30 7333 C 689.037 -3.43466 -0.335399 0
M  V30 7334 C 688.15 -4.27425 0.627017 0
M  V30 7335 C 687.285 -5.31016 -0.139916 0
M  V30 7336 C 686.324 -6.06641 0.815683 0
M  V30 7337 N 685.461 -7.02052 0.0818439 0
M  V30 7338 H 690.301 -2.69913 1.26298 0
M  V30 7339 H 687.838 -1.32732 0.634076 0
M  V30 7340 H 689.796 -4.09744 -0.785226 0
M  V30 7341 H 688.426 -3.01611 -1.15025 0
M  V30 7342 H 687.478 -3.6113 1.19537 0
M  V30 7343 H 688.79 -4.79969 1.35763 0
M  V30 7344 H 687.944 -6.03208 -0.649998 0
M  V30 7345 H 686.683 -4.79257 -0.903543 0
M  V30 7346 H 685.688 -5.33294 1.33708 0
M  V30 7347 H 686.913 -6.60489 1.57897 0
M  V30 7348 H 684.859 -6.52634 -0.663671 0
M  V30 7349 H 684.776 -7.52249 0.752163 0
M  V30 7350 H 686.044 -7.78432 -0.407825 0
M  V30 7351 N 690.273 -0.685099 -1.4193 0
M  V30 7352 C 691.52 -0.211658 -2.01391 0
M  V30 7353 C 691.848 1.18526 -1.54214 0
M  V30 7354 O 691.103 1.81189 -0.739519 0
M  V30 7355 C 691.402 -0.206154 -3.56805 0
M  V30 7356 C 691.068 -1.54915 -4.23453 0
M  V30 7357 C 689.73 -1.91684 -4.41373 0
M  V30 7358 C 692.082 -2.43317 -4.60919 0
M  V30 7359 C 689.41 -3.16461 -4.94034 0
M  V30 7360 C 691.762 -3.67415 -5.14965 0
M  V30 7361 C 690.426 -4.04341 -5.31098 0
M  V30 7362 H 689.696 -0.0774511 -0.736941 0
M  V30 7363 H 692.343 -0.882121 -1.69973 0
M  V30 7364 H 690.648 0.547841 -3.87951 0
M  V30 7365 H 692.345 0.17753 -4.00607 0
M  V30 7366 H 688.935 -1.25314 -4.09871 0
M  V30 7367 H 693.119 -2.16192 -4.46738 0
M  V30 7368 H 688.375 -3.45078 -5.04709 0
M  V30 7369 H 692.549 -4.3611 -5.42938 0
M  V30 7370 H 690.176 -5.01101 -5.71666 0
M  V30 7371 N 691.751 1.51645 -0.429126 0
M  V30 7372 C 692.683 2.25279 0.422124 0
M  V30 7373 C 693.696 1.28986 0.993299 0
M  V30 7374 O 694.885 1.54797 0.888836 0
M  V30 7375 C 691.985 2.98666 1.60162 0
M  V30 7376 C 691.158 4.2199 1.15078 0
M  V30 7377 C 690.217 4.78028 2.19946 0
M  V30 7378 O 689.243 5.40084 1.79716 0
M  V30 7379 N 690.445 4.61342 3.5234 0
M  V30 7380 H 693.21 2.98971 -0.208931 0
M  V30 7381 H 690.771 1.59838 -0.257568 0
M  V30 7382 H 692.763 3.33044 2.29922 0
M  V30 7383 H 691.333 2.28036 2.13818 0
M  V30 7384 H 690.553 3.932 0.280552 0
M  V30 7385 H 691.841 5.02037 0.826831 0
M  V30 7386 H 691.239 4.11894 3.87763 0
M  V30 7387 H 689.796 5.00104 4.18019 0
M  V30 7388 N 693.229 0.160201 1.56784 0
M  V30 7389 C 694.161 -0.80564 2.14574 0
M  V30 7390 C 695.174 -1.20154 1.09849 0
M  V30 7391 O 696.363 -1.14333 1.37078 0
M  V30 7392 C 693.463 -2.09434 2.6644 0
M  V30 7393 C 692.636 -1.86375 3.95706 0
M  V30 7394 C 691.695 -2.99358 4.32749 0
M  V30 7395 O 690.721 -2.70475 5.00831 0
M  V30 7396 N 691.923 -4.26867 3.93402 0
M  V30 7397 H 694.688 -0.311644 2.98075 0
M  V30 7398 H 692.249 -0.0229465 1.61884 0
M  V30 7399 H 694.241 -2.84091 2.88226 0
M  V30 7400 H 692.811 -2.50057 1.8759 0
M  V30 7401 H 692.031 -0.956821 3.82412 0
M  V30 7402 H 693.319 -1.68322 4.80151 0
M  V30 7403 H 692.717 -4.53197 3.38569 0
M  V30 7404 H 691.274 -4.98263 4.20211 0
M  V30 7405 N 694.707 -1.5719 -0.113559 0
M  V30 7406 C 695.654 -2.00736 -1.13901 0
M  V30 7407 C 696.624 -0.88044 -1.40846 0
M  V30 7408 O 697.809 -1.14507 -1.5262 0
M  V30 7409 C 694.949 -2.42132 -2.45899 0
M  V30 7410 C 694.062 -3.68264 -2.25844 0
M  V30 7411 C 693.197 -3.98617 -3.5111 0
M  V30 7412 C 692.236 -5.17915 -3.26236 0
M  V30 7413 N 691.373 -5.44111 -4.4372 0
M  V30 7414 H 696.213 -2.88128 -0.760677 0
M  V30 7415 H 693.75 -1.42523 -0.364099 0
M  V30 7416 H 695.708 -2.6417 -3.22908 0
M  V30 7417 H 694.338 -1.57775 -2.81615 0
M  V30 7418 H 693.39 -3.53809 -1.39726 0
M  V30 7419 H 694.702 -4.55425 -2.03444 0
M  V30 7420 H 693.856 -4.21333 -4.36536 0
M  V30 7421 H 692.595 -3.09942 -3.76546 0
M  V30 7422 H 691.6 -4.95038 -2.39202 0
M  V30 7423 H 692.825 -6.08172 -3.02165 0
M  V30 7424 H 690.771 -4.58394 -4.69266 0
M  V30 7425 H 690.688 -6.25606 -4.24444 0
M  V30 7426 H 691.956 -5.71351 -5.30263 0
M  V30 7427 N 696.185 0.383891 -1.52853 0
M  V30 7428 C 697.133 1.48965 -1.7864 0
M  V30 7429 C 698.127 1.56242 -0.654577 0
M  V30 7430 O 699.333 1.59347 -0.83716 0
M  V30 7431 H 695.708 0.495892 -0.565328 0
M  V30 7432 H 697.679 1.24411 -2.71228 0
M  V30 7433 C 696.428 2.86036 -1.97683 0
M  V30 7434 H 695.751 2.81188 -2.84206 0
M  V30 7435 H 697.191 3.62632 -2.19713 0
M  V30 7436 C 695.65 3.28428 -0.750776 0
M  V30 7437 O 696.18 4.0164 0.0693491 0
M  V30 7438 N 694.386 2.84765 -0.579427 0
M  V30 7439 H 693.933 2.25353 -1.24795 0
M  V30 7440 H 693.891 3.13486 0.239544 0
M  V30 7441 N 697.663 1.43903 0.642637 0
M  V30 7442 C 698.626 1.49538 1.73698 0
M  V30 7443 C 699.626 0.378776 1.56275 0
M  V30 7444 O 700.816 0.64095 1.6198 0
M  V30 7445 C 697.948 1.35821 3.12675 0
M  V30 7446 H 699.141 2.47008 1.70079 0
M  V30 7447 H 696.694 1.30824 0.85526 0
M  V30 7448 H 697.429 0.393994 3.21898 0
M  V30 7449 H 697.214 2.16776 3.26727 0
M  V30 7450 H 698.704 1.4272 3.92455 0
M  V30 7451 N 699.141 -0.881989 1.30609 0
M  V30 7452 C 700.104 -1.96957 1.1722 0
M  V30 7453 C 701.104 -1.60472 0.102598 0
M  V30 7454 O 702.294 -1.70628 0.350943 0
M  V30 7455 C 699.426 -3.31463 0.796572 0
M  V30 7456 H 700.619 -2.10262 2.13846 0
M  V30 7457 H 698.172 -1.06877 1.14048 0
M  V30 7458 H 698.907 -3.23859 -0.169053 0
M  V30 7459 H 698.692 -3.59314 1.56959 0
M  V30 7460 H 700.182 -4.11233 0.72645 0
M  V30 7461 N 700.619 -1.13374 -1.09472 0
M  V30 7462 C 701.847 -0.918351 -1.85402 0
M  V30 7463 C 702.262 0.53281 -1.81126 0
M  V30 7464 O 701.619 1.36879 -1.20708 0
M  V30 7465 C 701.67 -1.39743 -3.33398 0
M  V30 7466 O 701.391 -2.79172 -3.37631 0
M  V30 7467 C 702.892 -1.22042 -4.2617 0
M  V30 7468 H 700.112 -0.327511 -0.585643 0
M  V30 7469 H 702.656 -1.50617 -1.38328 0
M  V30 7470 H 700.811 -0.852619 -3.77901 0
M  V30 7471 H 701.225 -3.00428 -4.29934 0
M  V30 7472 H 702.699 -1.60438 -5.2817 0
M  V30 7473 H 703.176 -0.162047 -4.38901 0
M  V30 7474 H 703.782 -1.75323 -3.87482 0
M  V30 7475 N 702.098 1.27442 -0.927168 0
M  V30 7476 C 703.008 2.30599 -0.431448 0
M  V30 7477 C 704.024 1.67028 0.48761 0
M  V30 7478 O 705.2 1.97962 0.370546 0
M  V30 7479 C 702.265 3.45327 0.308292 0
M  V30 7480 C 701.326 4.24418 -0.645615 0
M  V30 7481 C 700.559 5.33667 0.0589164 0
M  V30 7482 O 700.782 5.5589 1.27838 0
M  V30 7483 O 699.716 5.98774 -0.612638 0
M  V30 7484 H 703.542 2.75036 -1.28797 0
M  V30 7485 H 701.127 1.32382 -0.692495 0
M  V30 7486 H 703.009 4.15107 0.725555 0
M  V30 7487 H 701.684 3.02945 1.14043 0
M  V30 7488 H 700.591 3.57174 -1.11255 0
M  V30 7489 H 701.924 4.70512 -1.44496 0
M  V30 7490 N 703.576 0.692616 1.41565 0
M  V30 7491 C 704.853 0.150496 1.9502 0
M  V30 7492 C 705.233 -1.33881 1.63215 0
M  V30 7493 O 704.581 -2.08378 0.937598 0
M  V30 7494 C 704.791 0.438636 3.46233 0
M  V30 7495 C 706.139 0.364777 4.2303 0
M  V30 7496 O 707.163 0.373383 3.54238 0
M  V30 7497 O 706.022 0.32234 5.45549 0
M  V30 7498 H 703.116 0.0132454 0.826894 0
M  V30 7499 H 705.662 0.768574 1.51298 0
M  V30 7500 H 704.434 1.46962 3.62654 0
M  V30 7501 H 704.057 -0.210562 3.97042 0
M  V30 7502 N 705.054 -1.51416 0.437162 0
M  V30 7503 C 705.984 -2.30631 -0.364922 0
M  V30 7504 C 706.965 -1.36037 -1.02118 0
M  V30 7505 O 708.15 -1.64956 -1.02485 0
M  V30 7506 C 705.28 -3.1482 -1.46648 0
M  V30 7507 C 704.234 -4.17691 -0.933717 0
M  V30 7508 C 703.56 -4.904 -2.13101 0
M  V30 7509 C 704.86 -5.2229 0.0317201 0
M  V30 7510 H 706.554 -2.97932 0.29614 0
M  V30 7511 H 704.1 -1.4328 0.143865 0
M  V30 7512 H 706.053 -3.69017 -2.03481 0
M  V30 7513 H 704.777 -2.4534 -2.15583 0
M  V30 7514 H 703.436 -3.64545 -0.387602 0
M  V30 7515 H 703.084 -4.17423 -2.80654 0
M  V30 7516 H 702.784 -5.59962 -1.78092 0
M  V30 7517 H 704.308 -5.4742 -2.70487 0
M  V30 7518 H 705.722 -5.7156 -0.446302 0
M  V30 7519 H 704.119 -5.99378 0.29437 0
M  V30 7520 H 705.189 -4.75131 0.968447 0
M  V30 7521 N 706.532 -0.168513 -1.56696 0
M  V30 7522 C 707.778 0.471368 -1.97863 0
M  V30 7523 C 708.133 1.61049 -1.05267 0
M  V30 7524 O 707.426 1.9138 -0.0917908 0
M  V30 7525 C 707.62 1.00441 -3.42996 0
M  V30 7526 C 707.449 -0.081524 -4.49626 0
M  V30 7527 C 706.219 -0.530242 -5.0251 0
M  V30 7528 C 708.417 -0.880897 -5.067 0
M  V30 7529 N 706.399 -1.59678 -5.9277 0
M  V30 7530 C 707.77 -1.79742 -5.93374 0
M  V30 7531 C 709.825 -0.92629 -4.89208 0
M  V30 7532 C 708.528 -2.7555 -6.64428 0
M  V30 7533 C 710.554 -1.8723 -5.6098 0
M  V30 7534 C 709.916 -2.77631 -6.4738 0
M  V30 7535 H 706.015 0.140671 -0.769244 0
M  V30 7536 H 708.599 -0.268084 -1.92846 0
M  V30 7537 H 706.77 1.71339 -3.48565 0
M  V30 7538 H 708.502 1.61269 -3.7118 0
M  V30 7539 H 705.257 -0.12847 -4.73426 0
M  V30 7540 H 705.681 -2.13045 -6.42605 0
M  V30 7541 H 710.323 -0.241412 -4.2211 0
M  V30 7542 H 708.041 -3.45027 -7.30741 0
M  V30 7543 H 711.627 -1.91349 -5.49433 0
M  V30 7544 H 710.507 -3.4964 -7.01941 0
M  V30 7545 N 708.01 1.57248 0.105221 0
M  V30 7546 C 708.92 2.04653 1.14693 0
M  V30 7547 C 709.936 0.969488 1.44489 0
M  V30 7548 O 711.112 1.28196 1.55331 0
M  V30 7549 C 708.177 2.45297 2.45011 0
M  V30 7550 C 707.238 3.67148 2.22489 0
M  V30 7551 C 706.471 4.05844 3.46592 0
M  V30 7552 O 706.694 3.44736 4.54437 0
M  V30 7553 O 705.628 4.98862 3.36779 0
M  V30 7554 H 709.454 2.93663 0.774336 0
M  V30 7555 H 707.039 1.45998 0.31701 0
M  V30 7556 H 708.921 2.72112 3.21766 0
M  V30 7557 H 707.596 1.59429 2.81717 0
M  V30 7558 H 706.503 3.45463 1.43547 0
M  V30 7559 H 707.836 4.53764 1.9068 0
M  V30 7560 N 709.488 -0.375779 1.53054 0
M  V30 7561 C 710.713 -1.14484 1.7294 0
M  V30 7562 C 711.138 -1.82572 0.452668 0
M  V30 7563 O 710.496 -1.71343 -0.592567 0
M  V30 7564 C 710.544 -2.15857 2.88857 0
M  V30 7565 O 709.648 -3.22725 2.56753 0
M  V30 7566 H 708.989 -0.332666 0.574656 0
M  V30 7567 H 711.519 -0.436025 1.999 0
M  V30 7568 H 711.529 -2.59631 3.14731 0
M  V30 7569 H 710.204 -1.65689 3.81471 0
M  V30 7570 H 708.781 -2.83996 2.41663 0
M  V30 7571 N 710.966 -1.44241 -0.634997 0
M  V30 7572 C 711.896 -1.53632 -1.7584 0
M  V30 7573 C 712.877 -0.389603 -1.65578 0
M  V30 7574 O 714.062 -0.609219 -1.84397 0
M  V30 7575 C 711.192 -1.47644 -3.14354 0
M  V30 7576 C 710.146 -2.60752 -3.394 0
M  V30 7577 C 709.472 -2.39817 -4.77904 0
M  V30 7578 C 710.772 -4.02921 -3.32343 0
M  V30 7579 H 712.466 -2.47662 -1.68238 0
M  V30 7580 H 710.012 -1.19197 -0.807969 0
M  V30 7581 H 711.965 -1.52815 -3.92716 0
M  V30 7582 H 710.689 -0.501284 -3.2273 0
M  V30 7583 H 709.348 -2.54965 -2.63417 0
M  V30 7584 H 708.996 -1.40502 -4.82978 0
M  V30 7585 H 708.696 -3.15649 -4.9562 0
M  V30 7586 H 710.22 -2.46799 -5.585 0
M  V30 7587 H 711.634 -4.10098 -4.00615 0
M  V30 7588 H 710.031 -4.78925 -3.61595 0
M  V30 7589 H 711.101 -4.26766 -2.30215 0
M  V30 7590 N 712.444 0.87505 -1.31075 0
M  V30 7591 C 713.354 2.01441 -1.20244 0
M  V30 7592 C 714.37 1.73584 -0.120227 0
M  V30 7593 O 715.546 1.98559 -0.337063 0
M  V30 7594 C 712.611 3.34675 -0.905199 0
M  V30 7595 C 711.672 3.75889 -2.0738 0
M  V30 7596 C 710.905 5.02764 -1.79064 0
M  V30 7597 O 711.128 5.65795 -0.723318 0
M  V30 7598 O 710.062 5.40623 -2.64594 0
M  V30 7599 H 713.888 2.13509 -2.1598 0
M  V30 7600 H 711.473 1.00257 -1.10765 0
M  V30 7601 H 713.355 4.1458 -0.755057 0
M  V30 7602 H 712.03 3.23692 0.0221695 0
M  V30 7603 H 710.937 2.96645 -2.27931 0
M  V30 7604 H 712.27 3.91489 -2.98324 0
M  V30 7605 N 713.922 1.13953 1.08869 0
M  V30 7606 C 714.87 0.817664 2.17754 0
M  V30 7607 C 715.864 -0.202444 1.68186 0
M  V30 7608 O 717.07 -0.0590159 1.79903 0
M  V30 7609 H 713.445 0.246671 0.710392 0
M  V30 7610 H 715.416 1.74401 2.4213 0
M  V30 7611 C 714.165 0.3063 3.46348 0
M  V30 7612 H 713.488 1.08259 3.84864 0
M  V30 7613 H 714.928 0.119584 4.23831 0
M  V30 7614 C 713.387 -0.969158 3.22659 0
M  V30 7615 O 713.917 -2.04386 3.45817 0
M  V30 7616 N 712.123 -0.902516 2.7623 0
M  V30 7617 H 711.67 -0.027801 2.57585 0
M  V30 7618 H 711.628 -1.75649 2.60758 0
M  V30 7619 N 715.4 -1.26948 0.933913 0
M  V30 7620 C 716.363 -2.24889 0.442457 0
M  V30 7621 C 717.363 -1.54594 -0.442426 0
M  V30 7622 O 718.553 -1.72502 -0.242629 0
M  V30 7623 C 715.685 -3.3896 -0.363173 0
M  V30 7624 H 716.878 -2.69879 1.30787 0
M  V30 7625 H 714.431 -1.38978 0.715187 0
M  V30 7626 H 715.166 -2.99361 -1.24714 0
M  V30 7627 H 714.951 -3.9116 0.271366 0
M  V30 7628 H 716.441 -4.11739 -0.697186 0
M  V30 7629 N 716.879 -0.700114 -1.41195 0
M  V30 7630 C 718.104 -0.240704 -2.05998 0
M  V30 7631 C 718.529 1.10313 -1.52357 0
M  V30 7632 O 717.887 1.69154 -0.652424 0
M  V30 7633 C 717.935 -0.213783 -3.59966 0
M  V30 7634 O 717.039 0.809933 -4.04368 0
M  V30 7635 H 716.38 -0.116471 -0.653705 0
M  V30 7636 H 718.91 -0.956251 -1.80878 0
M  V30 7637 H 718.92 -0.0461852 -4.07974 0
M  V30 7638 H 717.595 -1.19454 -3.98376 0
M  V30 7639 H 716.172 0.611319 -3.67855 0
M  V30 7640 N 718.357 1.51182 -0.445186 0
M  V30 7641 C 719.605 2.01753 0.11841 0
M  V30 7642 C 719.926 1.33087 1.42523 0
M  V30 7643 O 719.196 0.467891 1.9023 0
M  V30 7644 H 717.776 0.745536 0.0467492 0
M  V30 7645 H 720.438 1.85765 -0.589688 0
M  V30 7646 H 719.534 3.10762 0.288665 0
M  V30 7647 N 719.835 0.176821 1.56605 0
M  V30 7648 C 720.782 -0.751312 2.18229 0
M  V30 7649 C 721.752 -1.22297 1.12395 0
M  V30 7650 O 722.937 -1.29015 1.40569 0
M  V30 7651 C 720.077 -1.97291 2.83143 0
M  V30 7652 C 719.19 -1.54431 4.03454 0
M  V30 7653 C 718.325 -2.72 4.56278 0
M  V30 7654 C 717.364 -2.25657 5.68986 0
M  V30 7655 N 716.501 -3.36338 6.16296 0
M  V30 7656 H 721.341 -0.219033 2.97194 0
M  V30 7657 H 718.878 -0.0963803 1.46784 0
M  V30 7658 H 720.836 -2.68949 3.1894 0
M  V30 7659 H 719.466 -2.4788 2.06773 0
M  V30 7660 H 718.518 -0.724273 3.73441 0
M  V30 7661 H 719.83 -1.16417 4.85024 0
M  V30 7662 H 718.984 -3.51806 4.94285 0
M  V30 7663 H 717.723 -3.13277 3.73777 0
M  V30 7664 H 716.728 -1.44299 5.30526 0
M  V30 7665 H 717.953 -1.85432 6.53293 0
M  V30 7666 H 715.899 -3.7718 5.36723 0
M  V30 7667 H 715.816 -3.02435 6.9287 0
M  V30 7668 H 717.084 -4.16413 6.58954 0
M  V30 7669 N 721.313 -1.57302 -0.09688 0
M  V30 7670 C 722.724 -1.7496 -0.651595 0
M  V30 7671 C 723.075 -0.798746 -1.79205 0
M  V30 7672 O 722.2 0.0231858 -2.16388 0
M  V30 7673 C 722.795 -3.17259 -1.18878 0
M  V30 7674 C 721.354 -3.36348 -1.68958 0
M  V30 7675 C 720.501 -2.70766 -0.598413 0
M  V30 7676 H 723.452 -1.58173 0.12918 0
M  V30 7677 H 723.473 -3.20033 -2.05814 0
M  V30 7678 H 722.985 -3.8644 -0.358523 0
M  V30 7679 H 721.086 -2.72243 -2.5439 0
M  V30 7680 H 721.199 -4.44654 -1.7838 0
M  V30 7681 H 719.563 -2.32615 -1.03743 0
M  V30 7682 H 720.346 -3.42586 0.221238 0
M  V30 7683 N 722.791 0.367657 -1.53252 0
M  V30 7684 C 724.04 1.10782 -1.68554 0
M  V30 7685 C 724.353 1.90523 -0.442765 0
M  V30 7686 O 725.559 2.6729 -0.47629 0
M  V30 7687 C 724.015 2.01863 -2.97959 0
M  V30 7688 C 723.623 1.27443 -4.29491 0
M  V30 7689 C 725.367 2.75883 -3.22628 0
M  V30 7690 C 723.274 2.17414 -5.49987 0
M  V30 7691 H 722.204 0.417272 -0.628013 0
M  V30 7692 H 724.855 0.368971 -1.79752 0
M  V30 7693 H 723.237 2.7947 -2.80558 0
M  V30 7694 H 724.411 0.549138 -4.57516 0
M  V30 7695 H 722.726 0.652935 -4.11249 0
M  V30 7696 H 725.323 3.43421 -4.09837 0
M  V30 7697 H 725.666 3.41138 -2.38601 0
M  V30 7698 H 726.199 2.0536 -3.40693 0
M  V30 7699 H 722.938 1.5674 -6.36485 0
M  V30 7700 H 722.458 2.87799 -5.26243 0
M  V30 7701 H 724.137 2.77019 -5.84696 0
M  V30 7702 N 724.269 1.44576 0.627338 0
M  V30 7703 C 725.232 1.51372 1.72102 0
M  V30 7704 C 726.232 0.395329 1.55865 0
M  V30 7705 O 727.422 0.658094 1.61291 0
M  V30 7706 C 724.554 1.39129 3.11217 0
M  V30 7707 H 725.747 2.48798 1.6745 0
M  V30 7708 H 723.3 1.31724 0.841336 0
M  V30 7709 H 724.035 0.428114 3.21462 0
M  V30 7710 H 723.82 2.20229 3.24409 0
M  V30 7711 H 725.31 1.46874 3.90919 0
M  V30 7712 N 725.747 -0.868086 1.31537 0
M  V30 7713 C 726.71 -1.95703 1.19302 0
M  V30 7714 C 727.71 -1.60355 0.119612 0
M  V30 7715 O 728.9 -1.70247 0.36902 0
M  V30 7716 C 726.032 -3.30599 0.831684 0
M  V30 7717 H 727.225 -2.07982 2.16064 0
M  V30 7718 H 724.778 -1.05661 1.15176 0
M  V30 7719 H 725.513 -3.2402 -0.134694 0
M  V30 7720 H 725.298 -3.57629 1.60761 0
M  V30 7721 H 726.788 -4.10439 0.770026 0
M  V30 7722 N 727.225 -1.14528 -1.08264 0
M  V30 7723 C 728.471 -0.91576 -1.80947 0
M  V30 7724 C 728.804 0.55623 -1.86064 0
M  V30 7725 O 728.079 1.41207 -1.33756 0
M  V30 7726 C 728.362 -1.51917 -3.26486 0
M  V30 7727 C 728.215 -3.06111 -3.2957 0
M  V30 7728 C 729.534 -1.19724 -4.23502 0
M  V30 7729 H 726.653 -0.334113 -0.656915 0
M  V30 7730 H 729.295 -1.41547 -1.26746 0
M  V30 7731 H 727.445 -1.0942 -3.72773 0
M  V30 7732 H 729.117 -3.57448 -2.91597 0
M  V30 7733 H 727.36 -3.40483 -2.688 0
M  V30 7734 H 728.031 -3.43438 -4.32151 0
M  V30 7735 H 730.507 -1.56467 -3.85561 0
M  V30 7736 H 729.383 -1.64575 -5.23647 0
M  V30 7737 H 729.644 -0.112771 -4.41956 0
M  V30 7738 N 728.703 1.26451 -0.940633 0
M  V30 7739 C 729.636 2.24771 -0.394094 0
M  V30 7740 C 730.614 1.54169 0.516781 0
M  V30 7741 O 731.798 1.82942 0.454352 0
M  V30 7742 C 728.925 3.3591 0.433807 0
M  V30 7743 C 727.971 4.24472 -0.415464 0
M  V30 7744 S 728.804 5.0293 -1.83907 0
M  V30 7745 C 729.96 6.17546 -1.01921 0
M  V30 7746 H 730.193 2.70782 -1.22737 0
M  V30 7747 H 727.726 1.35308 -0.743709 0
M  V30 7748 H 729.684 4.00387 0.905576 0
M  V30 7749 H 728.345 2.88512 1.24175 0
M  V30 7750 H 727.538 5.03525 0.218833 0
M  V30 7751 H 727.14 3.64857 -0.821897 0
M  V30 7752 H 729.432 6.76996 -0.261227 0
M  V30 7753 H 730.375 6.8528 -1.78318 0
M  V30 7754 H 730.783 5.6176 -0.555511 0
M  V30 7755 N 730.181 0.707592 1.40822 0
M  V30 7756 C 731.129 0.0386643 2.32568 0
M  V30 7757 C 732.123 -0.755653 1.51612 0
M  V30 7758 O 733.329 -0.659921 1.67467 0
M  V30 7759 H 729.704 -0.00629912 0.751974 0
M  V30 7760 H 731.675 0.8293 2.86645 0
M  V30 7761 C 730.424 -0.87496 3.36511 0
M  V30 7762 H 729.747 -0.273157 3.98866 0
M  V30 7763 H 731.187 -1.31111 4.03219 0
M  V30 7764 C 729.646 -1.99672 2.71353 0
M  V30 7765 O 730.176 -3.08676 2.57064 0
M  V30 7766 N 728.382 -1.77799 2.29861 0
M  V30 7767 H 727.929 -0.89147 2.41683 0
M  V30 7768 H 727.887 -2.53036 1.86601 0
M  V30 7769 N 731.66 -1.50943 0.453197 0
M  V30 7770 C 732.888 -2.06628 -0.106135 0
M  V30 7771 C 733.303 -1.31901 -1.35084 0
M  V30 7772 O 732.66 -0.383074 -1.78434 0
M  V30 7773 C 732.711 -3.5914 -0.412368 0
M  V30 7774 O 732.432 -4.31047 0.782948 0
M  V30 7775 C 733.933 -4.31391 -1.02064 0
M  V30 7776 H 731.153 -0.670999 -0.000885896 0
M  V30 7777 H 733.697 -1.94331 0.63684 0
M  V30 7778 H 731.852 -3.71299 -1.10526 0
M  V30 7779 H 732.266 -5.21948 0.516736 0
M  V30 7780 H 733.74 -5.39135 -1.1848 0
M  V30 7781 H 734.217 -3.90714 -2.00598 0
M  V30 7782 H 734.823 -4.23716 -0.366664 0
M  V30 7783 N 733.138 -0.185124 -1.56509 0
M  V30 7784 C 734.384 0.450356 -1.98352 0
M  V30 7785 C 734.739 1.59923 -1.06969 0
M  V30 7786 O 734.032 1.91272 -0.112084 0
M  V30 7787 C 734.226 0.967977 -3.44042 0
M  V30 7788 C 734.055 -0.129208 -4.49514 0
M  V30 7789 C 732.825 -0.58351 -5.0192 0
M  V30 7790 C 735.023 -0.93459 -5.05737 0
M  V30 7791 N 733.005 -1.65956 -5.91043 0
M  V30 7792 C 734.376 -1.86026 -5.91434 0
M  V30 7793 C 736.431 -0.978125 -4.88198 0
M  V30 7794 C 735.134 -2.82582 -6.61468 0
M  V30 7795 C 737.16 -1.93169 -5.58963 0
M  V30 7796 C 736.522 -2.84481 -6.44399 0
M  V30 7797 H 732.621 0.132504 -0.770692 0
M  V30 7798 H 735.205 -0.288523 -1.9255 0
M  V30 7799 H 733.376 1.67633 -3.50362 0
M  V30 7800 H 735.108 1.57323 -3.72869 0
M  V30 7801 H 731.863 -0.178676 -4.73263 0
M  V30 7802 H 732.287 -2.19848 -6.40309 0
M  V30 7803 H 736.929 -0.286169 -4.2183 0
M  V30 7804 H 734.647 -3.52758 -7.2704 0
M  V30 7805 H 738.233 -1.97166 -5.47373 0
M  V30 7806 H 737.113 -3.57065 -6.98194 0
M  V30 7807 N 734.616 1.57351 0.0885366 0
M  V30 7808 C 735.844 1.90631 0.804196 0
M  V30 7809 C 736.259 0.779474 1.71958 0
M  V30 7810 O 735.616 -0.248179 1.80805 0
M  V30 7811 C 735.667 3.23568 1.61202 0
M  V30 7812 O 735.388 4.31917 0.733447 0
M  V30 7813 C 736.889 3.70753 2.43016 0
M  V30 7814 H 734.109 0.630501 0.229585 0
M  V30 7815 H 736.653 2.044 0.0638092 0
M  V30 7816 H 734.808 3.11377 2.30485 0
M  V30 7817 H 735.222 5.08297 1.29361 0
M  V30 7818 H 736.696 4.66447 2.9518 0
M  V30 7819 H 737.173 2.98922 3.2178 0
M  V30 7820 H 737.779 3.85834 1.7892 0
M  V30 7821 N 736.094 -0.359525 1.53444 0
M  V30 7822 C 737.041 -1.44073 1.8031 0
M  V30 7823 C 738.011 -1.52946 0.647811 0
M  V30 7824 O 739.196 -1.68739 0.890614 0
M  V30 7825 C 736.336 -2.80941 2.00416 0
M  V30 7826 C 735.449 -2.80986 3.28132 0
M  V30 7827 C 734.584 -4.09468 3.38393 0
M  V30 7828 C 733.623 -4.03679 4.60119 0
M  V30 7829 N 732.76 -5.23821 4.675 0
M  V30 7830 H 737.6 -1.20464 2.72566 0
M  V30 7831 H 735.137 -0.583859 1.35017 0
M  V30 7832 H 737.095 -3.60459 2.1006 0
M  V30 7833 H 735.725 -3.02936 1.11489 0
M  V30 7834 H 734.777 -1.93666 3.27411 0
M  V30 7835 H 736.089 -2.72583 4.17732 0
M  V30 7836 H 735.243 -4.97404 3.47382 0
M  V30 7837 H 733.982 -4.20632 2.4682 0
M  V30 7838 H 732.987 -3.14129 4.51224 0
M  V30 7839 H 734.212 -3.94112 5.5304 0
M  V30 7840 H 732.158 -5.35559 3.7883 0
M  V30 7841 H 732.075 -5.17611 5.51013 0
M  V30 7842 H 733.343 -6.13572 4.8078 0
M  V30 7843 N 737.572 -1.44907 -0.619662 0
M  V30 7844 C 738.504 -1.48652 -1.74457 0
M  V30 7845 C 739.517 -0.378596 -1.58337 0
M  V30 7846 O 740.706 -0.644987 -1.6644 0
M  V30 7847 C 737.806 -1.31568 -3.12319 0
M  V30 7848 C 736.979 -2.55816 -3.54792 0
M  V30 7849 C 736.038 -2.33465 -4.71573 0
M  V30 7850 O 735.064 -3.07015 -4.79302 0
M  V30 7851 N 736.266 -1.37254 -5.6404 0
M  V30 7852 H 739.031 -2.45632 -1.71712 0
M  V30 7853 H 736.592 -1.40492 -0.804582 0
M  V30 7854 H 738.584 -1.14445 -3.88181 0
M  V30 7855 H 737.154 -0.429095 -3.09641 0
M  V30 7856 H 736.374 -2.88137 -2.69018 0
M  V30 7857 H 737.662 -3.38431 -3.79924 0
M  V30 7858 H 737.06 -0.765309 -5.60499 0
M  V30 7859 H 735.617 -1.26106 -6.39485 0
M  V30 7860 N 739.05 0.861098 -1.31996 0
M  V30 7861 C 739.983 1.97266 -1.14724 0
M  V30 7862 C 740.961 1.62528 -0.0483789 0
M  V30 7863 O 742.145 1.87366 -0.206478 0
M  V30 7864 C 739.272 3.30181 -0.754861 0
M  V30 7865 C 738.318 3.839 -1.85804 0
M  V30 7866 S 739.151 4.08274 -3.46515 0
M  V30 7867 C 740.307 5.44174 -3.09235 0
M  V30 7868 H 740.54 2.11614 -2.08822 0
M  V30 7869 H 738.073 1.01232 -1.16582 0
M  V30 7870 H 740.031 4.06996 -0.535232 0
M  V30 7871 H 738.692 3.13655 0.167155 0
M  V30 7872 H 737.885 4.80013 -1.53633 0
M  V30 7873 H 737.487 3.13907 -2.03318 0
M  V30 7874 H 739.779 6.26172 -2.58679 0
M  V30 7875 H 740.722 5.81301 -4.04345 0
M  V30 7876 H 741.13 5.0787 -2.46431 0
M  V30 7877 N 740.528 1.15101 1.07655 0
M  V30 7878 C 741.776 0.922149 1.79836 0
M  V30 7879 C 742.097 -0.552346 1.87014 0
M  V30 7880 O 741.367 -1.40145 1.3688 0
M  V30 7881 H 739.947 0.338182 0.666064 0
M  V30 7882 H 742.609 1.45107 1.30115 0
M  V30 7883 H 741.705 1.32883 2.82398 0
M  V30 7884 N 742.006 -1.2595 0.947325 0
M  V30 7885 C 743.253 -1.93463 0.598178 0
M  V30 7886 C 743.581 -1.74271 -0.863705 0
M  V30 7887 O 742.836 -1.07684 -1.63409 0
M  V30 7888 C 743.135 -3.46034 0.894158 0
M  V30 7889 C 742.801 -3.85373 2.3409 0
M  V30 7890 C 741.463 -3.95823 2.73637 0
M  V30 7891 C 743.815 -4.04986 3.2808 0
M  V30 7892 C 741.143 -4.23288 4.06257 0
M  V30 7893 C 743.495 -4.3394 4.60303 0
M  V30 7894 C 742.159 -4.42606 4.99656 0
M  V30 7895 H 741.429 -0.707933 0.218889 0
M  V30 7896 H 744.076 -1.4964 1.19499 0
M  V30 7897 H 742.381 -3.9121 0.214874 0
M  V30 7898 H 744.078 -3.96445 0.602698 0
M  V30 7899 H 740.668 -3.7779 2.02417 0
M  V30 7900 H 744.852 -3.96333 2.9872 0
M  V30 7901 H 740.108 -4.28211 4.36401 0
M  V30 7902 H 744.282 -4.48061 5.33118 0
M  V30 7903 H 741.909 -4.63641 6.02446 0
M  V30 7904 N 743.484 -0.715051 -1.40445 0
M  V30 7905 C 744.895 -0.326763 -1.83818 0
M  V30 7906 C 745.246 1.13851 -1.59789 0
M  V30 7907 O 744.371 1.87611 -1.07848 0
M  V30 7908 C 744.966 -0.586297 -3.33688 0
M  V30 7909 C 743.525 -0.251724 -3.75557 0
M  V30 7910 C 742.672 -0.858928 -2.63662 0
M  V30 7911 H 745.623 -0.914241 -1.2972 0
M  V30 7912 H 745.644 0.148636 -3.8021 0
M  V30 7913 H 745.156 -1.65281 -3.51146 0
M  V30 7914 H 743.257 0.809754 -3.63695 0
M  V30 7915 H 743.37 -0.720348 -4.73654 0
M  V30 7916 H 741.734 -0.287013 -2.53078 0
M  V30 7917 H 742.517 -1.9297 -2.83932 0
M  V30 7918 N 744.962 1.50701 -0.461195 0
M  V30 7919 C 745.892 2.31182 0.328184 0
M  V30 7920 C 746.873 1.37644 0.999408 0
M  V30 7921 O 748.058 1.66565 0.99848 0
M  V30 7922 C 745.188 3.17113 1.41621 0
M  V30 7923 C 744.142 4.19124 0.867148 0
M  V30 7924 C 743.468 4.93728 2.05272 0
M  V30 7925 C 744.768 5.22174 -0.114808 0
M  V30 7926 H 746.462 2.97423 -0.343501 0
M  V30 7927 H 744.008 1.43033 -0.166641 0
M  V30 7928 H 745.961 3.72208 1.97584 0
M  V30 7929 H 744.685 2.48739 2.11652 0
M  V30 7930 H 743.344 3.65116 0.329557 0
M  V30 7931 H 742.992 4.21835 2.73978 0
M  V30 7932 H 742.692 5.62724 1.69161 0
M  V30 7933 H 744.216 5.51654 2.61744 0
M  V30 7934 H 745.63 5.72198 0.355316 0
M  V30 7935 H 744.027 5.98833 -0.389689 0
M  V30 7936 H 745.097 4.7353 -1.04391 0
M  V30 7937 N 746.441 0.193421 1.56409 0
M  V30 7938 C 747.69 -0.445995 1.96707 0
M  V30 7939 C 748.003 -1.62876 1.08309 0
M  V30 7940 O 749.209 -2.33586 1.38383 0
M  V30 7941 C 747.665 -0.844863 3.49843 0
M  V30 7942 C 747.273 0.31352 4.46902 0
M  V30 7943 C 749.017 -1.45146 3.98915 0
M  V30 7944 C 746.924 -0.106214 5.91305 0
M  V30 7945 H 745.854 -0.170398 0.734493 0
M  V30 7946 H 748.505 0.285172 1.81271 0
M  V30 7947 H 746.887 -1.63265 3.60778 0
M  V30 7948 H 748.061 1.09103 4.47698 0
M  V30 7949 H 746.376 0.8315 4.08014 0
M  V30 7950 H 748.973 -1.77792 5.04276 0
M  V30 7951 H 749.316 -2.35734 3.43126 0
M  V30 7952 H 749.849 -0.727675 3.91088 0
M  V30 7953 H 746.588 0.765442 6.51016 0
M  V30 7954 H 746.108 -0.848623 5.93766 0
M  V30 7955 H 747.787 -0.542588 6.44721 0
M  V30 7956 N 747.919 -1.57396 -0.0801906 0
M  V30 7957 C 749.149 -1.90778 -0.792924 0
M  V30 7958 C 749.557 -0.786814 -1.72064 0
M  V30 7959 O 748.9 0.249259 -1.82001 0
M  V30 7960 C 748.962 -3.19552 -1.64702 0
M  V30 7961 C 748.626 -4.48259 -0.889567 0
M  V30 7962 C 749.623 -5.19465 -0.212602 0
M  V30 7963 C 747.308 -4.94896 -0.859229 0
M  V30 7964 C 749.302 -6.35555 0.484566 0
M  V30 7965 C 746.989 -6.10895 -0.158284 0
M  V30 7966 C 747.987 -6.81075 0.512421 0
M  V30 7967 O 747.675 -7.94862 1.20209 0
M  V30 7968 H 747.407 -0.63527 -0.231103 0
M  V30 7969 H 749.961 -2.0532 -0.0573081 0
M  V30 7970 H 748.191 -3.01196 -2.42524 0
M  V30 7971 H 749.88 -3.38649 -2.23767 0
M  V30 7972 H 750.646 -4.84467 -0.227403 0
M  V30 7973 H 746.525 -4.4015 -1.37073 0
M  V30 7974 H 750.069 -6.9027 1.00864 0
M  V30 7975 H 745.966 -6.45345 -0.141381 0
M  V30 7976 H 746.734 -8.10932 1.11051 0
M  V30 7977 N 749.397 0.351382 -1.53633 0
M  V30 7978 C 750.643 1.09411 -1.70754 0
M  V30 7979 C 750.976 1.88544 -0.465293 0
M  V30 7980 O 750.251 1.86923 0.537608 0
M  V30 7981 C 750.534 2.04173 -2.96623 0
M  V30 7982 C 750.387 1.28556 -4.31038 0
M  V30 7983 C 751.706 3.04102 -3.18136 0
M  V30 7984 H 748.825 0.396373 -0.621335 0
M  V30 7985 H 751.467 0.373464 -1.86293 0
M  V30 7986 H 749.617 2.65625 -2.83506 0
M  V30 7987 H 751.289 0.697786 -4.55992 0
M  V30 7988 H 749.532 0.587498 -4.29803 0
M  V30 7989 H 750.203 1.97989 -5.15271 0
M  V30 7990 H 752.679 2.5276 -3.30532 0
M  V30 7991 H 751.555 3.67616 -4.07615 0
M  V30 7992 H 751.816 3.75053 -2.34068 0
M  V30 7993 N 750.875 1.45233 0.611969 0
M  V30 7994 C 751.785 1.56098 1.7513 0
M  V30 7995 C 752.801 0.445646 1.68196 0
M  V30 7996 O 753.977 0.705718 1.88631 0
M  V30 7997 C 751.042 1.52052 3.11579 0
M  V30 7998 C 750.103 2.74589 3.29999 0
M  V30 7999 C 749.336 2.70726 4.59938 0
M  V30 8000 O 749.559 1.77806 5.41979 0
M  V30 8001 O 748.493 3.61864 4.80976 0
M  V30 8002 H 752.319 2.52392 1.68914 0
M  V30 8003 H 749.904 1.27695 0.775528 0
M  V30 8004 H 751.786 1.52387 3.92882 0
M  V30 8005 H 750.461 0.589085 3.18295 0
M  V30 8006 H 749.368 2.79817 2.48301 0
M  V30 8007 H 750.701 3.66843 3.28157 0
M  V30 8008 N 752.353 -0.854086 1.3245 0
M  V30 8009 C 753.316 -1.94427 1.21371 0
M  V30 8010 C 754.316 -1.60219 0.136613 0
M  V30 8011 O 755.506 -1.69846 0.387057 0
M  V30 8012 C 752.638 -3.29698 0.866701 0
M  V30 8013 H 753.831 -2.05679 2.18257 0
M  V30 8014 H 751.384 -1.04434 1.1629 0
M  V30 8015 H 752.119 -3.24145 -0.100319 0
M  V30 8016 H 751.904 -3.55903 1.64545 0
M  V30 8017 H 753.394 -4.09599 0.813515 0
M  V30 8018 N 753.831 -1.1567 -1.07043 0
M  V30 8019 C 754.741 -0.870435 -2.17855 0
M  V30 8020 C 755.757 0.154452 -1.73313 0
M  V30 8021 O 756.933 -0.0203759 -2.0139 0
M  V30 8022 C 753.998 -0.367219 -3.4475 0
M  V30 8023 C 753.059 -1.45639 -4.03841 0
M  V30 8024 C 752.292 -0.977092 -5.2468 0
M  V30 8025 O 752.515 0.176127 -5.70128 0
M  V30 8026 O 751.449 -1.76215 -5.75527 0
M  V30 8027 H 755.275 -1.79687 -2.44839 0
M  V30 8028 H 752.86 -0.936064 -1.1644 0
M  V30 8029 H 754.742 -0.0931947 -4.21297 0
M  V30 8030 H 753.417 0.53131 -3.1931 0
M  V30 8031 H 752.324 -1.78406 -3.28819 0
M  V30 8032 H 753.657 -2.32995 -4.3356 0
M  V30 8033 N 755.309 1.25446 -0.953992 0
M  V30 8034 C 756.241 2.25111 -0.431004 0
M  V30 8035 C 757.254 1.56377 0.452764 0
M  V30 8036 O 758.443 1.76579 0.261144 0
M  V30 8037 C 755.543 3.3655 0.39839 0
M  V30 8038 C 754.716 4.34843 -0.472229 0
M  V30 8039 C 753.775 5.25351 0.29886 0
M  V30 8040 O 752.801 5.68396 -0.302522 0
M  V30 8041 N 754.003 5.5824 1.59211 0
M  V30 8042 H 756.768 2.70619 -1.28785 0
M  V30 8043 H 754.329 1.39346 -0.824281 0
M  V30 8044 H 756.321 3.94059 0.921941 0
M  V30 8045 H 754.891 2.90436 1.15609 0
M  V30 8046 H 754.111 3.76222 -1.17689 0
M  V30 8047 H 755.399 4.97497 -1.06648 0
M  V30 8048 H 754.797 5.25172 2.10264 0
M  V30 8049 H 753.354 6.18336 2.06164 0
M  V30 8050 N 756.787 0.722489 1.40064 0
M  V30 8051 C 758.033 0.265371 2.01056 0
M  V30 8052 C 758.366 -1.14062 1.57174 0
M  V30 8053 O 757.641 -1.77514 0.794916 0
M  V30 8054 C 757.924 0.353157 3.58364 0
M  V30 8055 C 757.777 1.79802 4.123 0
M  V30 8056 C 759.096 -0.271677 4.39261 0
M  V30 8057 H 756.215 0.0979002 0.730469 0
M  V30 8058 H 758.857 0.916289 1.66446 0
M  V30 8059 H 757.007 -0.201037 3.87979 0
M  V30 8060 H 758.679 2.40813 3.93455 0
M  V30 8061 H 756.922 2.32348 3.66329 0
M  V30 8062 H 757.593 1.81079 5.21454 0
M  V30 8063 H 760.069 0.200607 4.15616 0
M  V30 8064 H 758.945 -0.179843 5.48605 0
M  V30 8065 H 759.206 -1.35611 4.20787 0
M  V30 8066 N 758.265 -1.50454 0.469181 0
M  V30 8067 C 759.175 -2.32248 -0.331349 0
M  V30 8068 C 760.191 -1.42548 -0.997807 0
M  V30 8069 O 761.367 -1.75602 -0.9862 0
M  V30 8070 C 758.432 -3.17171 -1.40012 0
M  V30 8071 C 757.493 -4.2269 -0.750463 0
M  V30 8072 C 756.726 -5.03554 -1.76831 0
M  V30 8073 O 756.949 -4.85469 -2.99459 0
M  V30 8074 O 755.883 -5.86767 -1.3412 0
M  V30 8075 H 759.709 -3.01821 0.337279 0
M  V30 8076 H 757.294 -1.47602 0.231066 0
M  V30 8077 H 759.176 -3.69871 -2.01924 0
M  V30 8078 H 757.851 -2.50328 -2.05226 0
M  V30 8079 H 756.758 -3.73986 -0.0924446 0
M  V30 8080 H 758.091 -4.91997 -0.14131 0
M  V30 8081 N 759.743 -0.201713 -1.56304 0
M  V30 8082 C 761.02 0.483273 -1.89536 0
M  V30 8083 C 761.4 1.79176 -1.11621 0
M  V30 8084 O 760.748 2.27445 -0.219339 0
M  V30 8085 C 760.958 0.695604 -3.41998 0
M  V30 8086 C 762.306 1.012 -4.12364 0
M  V30 8087 O 763.33 0.783094 -3.47485 0
M  V30 8088 O 762.189 1.44534 -5.27041 0
M  V30 8089 H 759.283 0.252801 -0.787414 0
M  V30 8090 H 761.829 -0.24242 -1.6796 0
M  V30 8091 H 760.601 -0.228165 -3.90634 0
M  V30 8092 H 760.224 1.47351 -3.69288 0
M  V30 8093 N 761.222 1.57436 0.0718424 0
M  V30 8094 C 762.499 1.78312 0.804006 0
M  V30 8095 C 762.879 0.789273 1.9579 0
M  V30 8096 O 762.227 -0.177605 2.27809 0
M  V30 8097 C 762.437 3.24798 1.277 0
M  V30 8098 C 763.785 3.88627 1.71039 0
M  V30 8099 O 764.809 3.28689 1.37266 0
M  V30 8100 O 763.668 4.94073 2.33567 0
M  V30 8101 H 760.762 0.73178 0.385262 0
M  V30 8102 H 763.308 1.69621 0.0519219 0
M  V30 8103 H 762.08 3.88688 0.45134 0
M  V30 8104 H 761.703 3.38213 2.0904 0
M  V30 8105 N 762.7 -0.34323 1.53817 0
M  V30 8106 C 764.116 -0.686355 1.44088 0
M  V30 8107 C 764.316 -1.92426 0.597882 0
M  V30 8108 O 763.372 -2.52343 0.0889918 0
M  V30 8109 C 764.685 -0.878698 2.87575 0
M  V30 8110 C 766.233 -0.977296 2.97352 0
M  V30 8111 C 766.708 -1.20195 4.41947 0
M  V30 8112 N 768.199 -1.26915 4.45474 0
M  V30 8113 C 768.934 -1.46049 5.54488 0
M  V30 8114 N 768.43 -1.62354 6.73508 0
M  V30 8115 N 770.223 -1.48599 5.42102 0
M  V30 8116 H 762.374 0.470679 2.07119 0
M  V30 8117 H 764.637 0.148652 0.936273 0
M  V30 8118 H 764.343 -0.040602 3.51677 0
M  V30 8119 H 764.217 -1.78034 3.32541 0
M  V30 8120 H 766.604 -1.80591 2.3339 0
M  V30 8121 H 766.685 -0.0525498 2.55746 0
M  V30 8122 H 766.329 -0.378262 5.06489 0
M  V30 8123 H 766.259 -2.14027 4.81145 0
M  V30 8124 H 768.75 -1.15837 3.59708 0
M  V30 8125 H 769.063 -1.76591 7.52353 0
M  V30 8126 H 767.408 -1.5949 6.76453 0
M  V30 8127 H 770.599 -1.35443 4.48077 0
M  V30 8128 H 770.772 -1.6317 6.2712 0
M  V30 8129 N 764.178 -1.45556 -0.604258 0
M  V30 8130 C 765.108 -1.57327 -1.72541 0
M  V30 8131 C 766.089 -0.424637 -1.64714 0
M  V30 8132 O 767.274 -0.648196 -1.83063 0
M  V30 8133 C 764.404 -1.54279 -3.11152 0
M  V30 8134 C 763.358 -2.67893 -3.33792 0
M  V30 8135 C 762.684 -2.499 -4.72709 0
M  V30 8136 C 763.984 -4.0988 -3.23722 0
M  V30 8137 H 765.678 -2.51175 -1.62947 0
M  V30 8138 H 763.224 -1.20884 -0.782504 0
M  V30 8139 H 765.177 -1.6111 -3.89386 0
M  V30 8140 H 763.901 -0.569627 -3.21594 0
M  V30 8141 H 762.56 -2.60495 -2.57949 0
M  V30 8142 H 762.208 -1.50715 -4.79889 0
M  V30 8143 H 761.908 -3.26091 -4.88813 0
M  V30 8144 H 763.432 -2.5859 -5.5314 0
M  V30 8145 H 764.846 -4.18503 -3.91826 0
M  V30 8146 H 763.243 -4.86487 -3.51355 0
M  V30 8147 H 764.313 -4.31553 -2.21111 0
M  V30 8148 N 765.656 0.84705 -1.32902 0
M  V30 8149 C 766.586 1.97166 -1.25091 0
M  V30 8150 C 767.567 1.69578 -0.133161 0
M  V30 8151 O 768.752 1.91519 -0.321591 0
M  V30 8152 C 765.882 3.33157 -0.981006 0
M  V30 8153 C 764.836 3.75119 -2.06082 0
M  V30 8154 C 764.162 5.08826 -1.64318 0
M  V30 8155 C 765.462 3.89774 -3.47669 0
M  V30 8156 H 767.156 2.03958 -2.19184 0
M  V30 8157 H 764.702 0.979907 -1.05517 0
M  V30 8158 H 766.655 4.11393 -0.912891 0
M  V30 8159 H 765.379 3.266 -0.00445559 0
M  V30 8160 H 764.038 2.9914 -2.11921 0
M  V30 8161 H 763.686 4.98732 -0.653876 0
M  V30 8162 H 763.386 5.37873 -2.36572 0
M  V30 8163 H 764.91 5.89546 -1.58958 0
M  V30 8164 H 766.324 4.58343 -3.44376 0
M  V30 8165 H 764.721 4.30248 -4.18338 0
M  V30 8166 H 765.791 2.92463 -3.86773 0
M  V30 8167 N 767.134 1.16236 1.06428 0
M  V30 8168 C 768.55 0.906983 1.31324 0
M  V30 8169 C 768.75 -0.440872 1.96618 0
M  V30 8170 O 767.806 -1.1807 2.23194 0
M  V30 8171 C 769.119 2.05501 2.19522 0
M  V30 8172 C 770.667 2.09061 2.32943 0
M  V30 8173 C 771.142 3.23214 3.24495 0
M  V30 8174 N 772.633 3.22922 3.32078 0
M  V30 8175 C 773.368 4.07889 4.03006 0
M  V30 8176 N 772.864 5.02941 4.76469 0
M  V30 8177 N 774.657 3.95881 3.99043 0
M  V30 8178 H 766.808 2.03015 0.624388 0
M  V30 8179 H 769.071 0.88576 0.337835 0
M  V30 8180 H 768.777 3.02847 1.78819 0
M  V30 8181 H 768.651 1.99538 3.201 0
M  V30 8182 H 771.038 1.12308 2.72893 0
M  V30 8183 H 771.119 2.19089 1.32037 0
M  V30 8184 H 770.763 4.20225 2.85261 0
M  V30 8185 H 770.693 3.10423 4.25377 0
M  V30 8186 H 773.184 2.54093 2.79724 0
M  V30 8187 H 773.497 5.64196 5.28112 0
M  V30 8188 H 771.842 5.06922 4.75453 0
M  V30 8189 H 775.033 3.20927 3.40769 0
M  V30 8190 H 775.206 4.62321 4.54052 0
M  V30 8191 N 768.612 -1.24939 0.960631 0
M  V30 8192 C 769.542 -2.28 0.503815 0
M  V30 8193 C 770.523 -1.63959 -0.452928 0
M  V30 8194 O 771.708 -1.91009 -0.350585 0
M  V30 8195 C 768.838 -3.46643 -0.213535 0
M  V30 8196 C 767.792 -4.22903 0.658535 0
M  V30 8197 C 767.118 -5.34363 -0.189902 0
M  V30 8198 C 768.418 -4.84949 1.93963 0
M  V30 8199 H 770.112 -2.66462 1.36521 0
M  V30 8200 H 767.658 -1.28093 0.657897 0
M  V30 8201 H 769.611 -4.1787 -0.544286 0
M  V30 8202 H 768.335 -3.07187 -1.10923 0
M  V30 8203 H 766.994 -3.53467 0.972455 0
M  V30 8204 H 766.642 -4.91147 -1.08553 0
M  V30 8205 H 766.342 -5.86302 0.390331 0
M  V30 8206 H 767.866 -6.0842 -0.515484 0
M  V30 8207 H 769.28 -5.48288 1.67491 0
M  V30 8208 H 767.677 -5.47091 2.46601 0
M  V30 8209 H 768.747 -4.06799 2.639 0
M  V30 8210 N 770.09 -0.729906 -1.39679 0
M  V30 8211 C 771.315 -0.284345 -2.05442 0
M  V30 8212 C 771.74 1.07056 -1.54663 0
M  V30 8213 O 771.098 1.67732 -0.688157 0
M  V30 8214 C 771.146 -0.290089 -3.59431 0
M  V30 8215 O 770.25 0.723978 -4.05995 0
M  V30 8216 H 769.591 -0.130311 -0.651088 0
M  V30 8217 H 772.121 -0.994403 -1.78809 0
M  V30 8218 H 772.131 -0.132712 -4.07784 0
M  V30 8219 H 770.806 -1.27877 -3.95753 0
M  V30 8220 H 769.383 0.533154 -3.69069 0
M  V30 8221 N 771.568 1.50203 -0.477153 0
M  V30 8222 C 772.5 2.26508 0.350239 0
M  V30 8223 C 773.513 1.32081 0.95176 0
M  V30 8224 O 774.702 1.57546 0.839139 0
M  V30 8225 C 771.802 3.0361 1.50579 0
M  V30 8226 C 770.975 4.25438 1.01595 0
M  V30 8227 C 770.034 4.84783 2.04626 0
M  V30 8228 O 769.06 5.45528 1.62442 0
M  V30 8229 N 770.262 4.72318 3.37485 0
M  V30 8230 H 773.027 2.98155 -0.30394 0
M  V30 8231 H 770.588 1.58938 -0.308289 0
M  V30 8232 H 772.58 3.4019 2.1921 0
M  V30 8233 H 771.15 2.34724 2.06455 0
M  V30 8234 H 770.37 3.93894 0.155316 0
M  V30 8235 H 771.658 5.04413 0.666694 0
M  V30 8236 H 771.056 4.24022 3.74462 0
M  V30 8237 H 769.613 5.13149 4.01897 0
M  V30 8238 N 773.046 0.209999 1.56195 0
M  V30 8239 C 773.993 -0.704854 2.19774 0
M  V30 8240 C 774.963 -1.19886 1.14964 0
M  V30 8241 O 776.148 -1.26005 1.43274 0
M  V30 8242 C 773.288 -1.91241 2.87265 0
M  V30 8243 C 772.401 -1.45838 4.06639 0
M  V30 8244 C 771.536 -2.6226 4.61945 0
M  V30 8245 C 770.575 -2.13537 5.73645 0
M  V30 8246 N 769.712 -3.2319 6.23292 0
M  V30 8247 H 774.552 -0.155944 2.97592 0
M  V30 8248 H 772.089 -0.0652235 1.46955 0
M  V30 8249 H 774.047 -2.62123 3.24573 0
M  V30 8250 H 772.677 -2.43439 2.11985 0
M  V30 8251 H 771.729 -0.644897 3.74894 0
M  V30 8252 H 773.041 -1.06103 4.87384 0
M  V30 8253 H 772.195 -3.41243 5.01636 0
M  V30 8254 H 770.934 -3.05278 3.80338 0
M  V30 8255 H 769.939 -1.33013 5.33468 0
M  V30 8256 H 771.164 -1.71533 6.57079 0
M  V30 8257 H 769.11 -3.65711 5.44602 0
M  V30 8258 H 769.027 -2.8767 6.99129 0
M  V30 8259 H 770.295 -4.02342 6.67639 0
M  V30 8260 N 774.524 -1.57472 -0.0634922 0
M  V30 8261 C 775.471 -2.04258 -1.07457 0
M  V30 8262 C 776.441 -0.924804 -1.37973 0
M  V30 8263 O 777.626 -1.19305 -1.48899 0
M  V30 8264 C 774.766 -2.49832 -2.38071 0
M  V30 8265 C 773.879 -3.75263 -2.14014 0
M  V30 8266 C 773.014 -4.09585 -3.38251 0
M  V30 8267 C 772.053 -5.28032 -3.09594 0
M  V30 8268 N 771.19 -5.57953 -4.26185 0
M  V30 8269 H 776.03 -2.90402 -0.668626 0
M  V30 8270 H 773.567 -1.43609 -0.318572 0
M  V30 8271 H 775.525 -2.7431 -3.14341 0
M  V30 8272 H 774.155 -1.66654 -2.76453 0
M  V30 8273 H 773.207 -3.58075 -1.28399 0
M  V30 8274 H 774.519 -4.61667 -1.88852 0
M  V30 8275 H 773.673 -4.35008 -4.2291 0
M  V30 8276 H 772.412 -3.21765 -3.66495 0
M  V30 8277 H 771.417 -5.02397 -2.23332 0
M  V30 8278 H 772.642 -6.17477 -2.82663 0
M  V30 8279 H 770.588 -4.73092 -4.54445 0
M  V30 8280 H 770.505 -6.38793 -4.04326 0
M  V30 8281 H 771.773 -5.87931 -5.11817 0
M  V30 8282 N 776.003 0.335068 -1.53997 0
M  V30 8283 C 777.25 1.07435 -1.71651 0
M  V30 8284 C 777.578 1.88378 -0.48413 0
M  V30 8285 O 776.833 1.8827 0.534139 0
M  V30 8286 C 777.132 2.0364 -2.9371 0
M  V30 8287 C 776.798 1.38942 -4.28959 0
M  V30 8288 C 775.46 1.21027 -4.65732 0
M  V30 8289 C 777.812 0.924083 -5.12943 0
M  V30 8290 C 775.14 0.552097 -5.84097 0
M  V30 8291 C 777.492 0.27978 -6.31981 0
M  V30 8292 C 776.156 0.0883843 -6.67441 0
M  V30 8293 H 775.426 0.393133 -0.628114 0
M  V30 8294 H 778.073 0.352712 -1.88224 0
M  V30 8295 H 776.378 2.82215 -2.71775 0
M  V30 8296 H 778.075 2.6085 -3.04562 0
M  V30 8297 H 774.665 1.53885 -4.00022 0
M  V30 8298 H 778.849 1.05032 -4.85059 0
M  V30 8299 H 774.105 0.392502 -6.10139 0
M  V30 8300 H 778.279 -0.0888479 -6.96343 0
M  V30 8301 H 775.906 -0.423657 -7.59019 0
M  V30 8302 N 777.481 1.45874 0.596531 0
M  V30 8303 C 778.721 1.52015 1.36641 0
M  V30 8304 C 779.085 0.16226 1.91313 0
M  V30 8305 O 780.286 0.0983889 2.6862 0
M  V30 8306 C 778.557 2.57776 2.4756 0
M  V30 8307 S 780.116 2.83223 3.35157 0
M  V30 8308 H 776.934 0.537251 0.465706 0
M  V30 8309 H 779.536 1.83024 0.687205 0
M  V30 8310 H 778.24 3.55091 2.05764 0
M  V30 8311 H 777.771 2.28455 3.20269 0
M  V30 8312 H 779.786 2.17442 4.4602 0
M  V30 8313 N 778.959 -0.83999 1.33349 0
M  V30 8314 C 779.922 -1.93128 1.23426 0
M  V30 8315 C 780.922 -1.60065 0.153599 0
M  V30 8316 O 782.112 -1.69425 0.405049 0
M  V30 8317 C 779.244 -3.28761 0.901622 0
M  V30 8318 H 780.437 -2.03352 2.20427 0
M  V30 8319 H 777.99 -1.03194 1.17391 0
M  V30 8320 H 778.725 -3.24233 -0.0659337 0
M  V30 8321 H 778.51 -3.54138 1.68311 0
M  V30 8322 H 780 -4.08714 0.856913 0
M  V30 8323 N 780.437 -1.16799 -1.0581 0
M  V30 8324 C 781.685 -0.950642 -1.78346 0
M  V30 8325 C 782.006 0.522524 -1.87869 0
M  V30 8326 O 781.276 1.3795 -1.39092 0
M  V30 8327 H 779.856 -0.348736 -0.6606 0
M  V30 8328 H 782.518 -1.47158 -1.27791 0
M  V30 8329 H 781.614 -1.37359 -2.80248 0
M  V30 8330 N 781.915 1.24427 -0.967243 0
M  V30 8331 C 783.163 1.92107 -0.627638 0
M  V30 8332 C 783.484 1.75991 0.83978 0
M  V30 8333 O 782.754 1.13118 1.59941 0
M  V30 8334 H 781.334 0.710986 -0.229145 0
M  V30 8335 H 783.996 1.51331 -1.22821 0
M  V30 8336 H 783.092 2.99791 -0.867844 0
M  V30 8337 N 783.393 0.737304 1.3929 0
M  V30 8338 C 784.618 0.295237 2.05288 0
M  V30 8339 C 785.043 -1.06235 1.55228 0
M  V30 8340 O 784.401 -1.67365 0.697043 0
M  V30 8341 C 784.449 0.309146 3.59272 0
M  V30 8342 O 783.553 -0.702437 4.06374 0
M  V30 8343 H 782.894 0.133762 0.650387 0
M  V30 8344 H 785.424 1.00387 1.78279 0
M  V30 8345 H 785.434 0.154336 4.07708 0
M  V30 8346 H 784.109 1.29974 3.95069 0
M  V30 8347 H 782.686 -0.513574 3.69346 0
M  V30 8348 N 784.871 -1.49948 0.485112 0
M  V30 8349 C 786.101 -2.06506 -0.0621921 0
M  V30 8350 C 786.509 -1.34756 -1.32806 0
M  V30 8351 O 785.852 -0.41466 -1.78959 0
M  V30 8352 C 785.914 -3.57243 -0.402182 0
M  V30 8353 C 785.578 -4.50574 0.763671 0
M  V30 8354 C 786.575 -4.93032 1.6497 0
M  V30 8355 C 784.26 -4.9308 0.957973 0
M  V30 8356 C 786.254 -5.76718 2.71432 0
M  V30 8357 C 783.941 -5.76546 2.0258 0
M  V30 8358 C 784.939 -6.18267 2.90232 0
M  V30 8359 O 784.627 -7.00066 3.95174 0
M  V30 8360 H 784.359 -0.675925 0.0100672 0
M  V30 8361 H 786.913 -1.93922 0.677023 0
M  V30 8362 H 785.143 -3.6778 -1.19478 0
M  V30 8363 H 786.832 -3.96107 -0.886219 0
M  V30 8364 H 787.598 -4.60851 1.51134 0
M  V30 8365 H 783.477 -4.60117 0.285144 0
M  V30 8366 H 787.021 -6.09203 3.39878 0
M  V30 8367 H 782.918 -6.0814 2.16417 0
M  V30 8368 H 783.686 -7.18343 3.92333 0
M  V30 8369 N 786.349 -0.21828 -1.56081 0
M  V30 8370 C 787.595 0.414921 -1.9851 0
M  V30 8371 C 787.928 1.59648 -1.10573 0
M  V30 8372 O 787.203 1.93818 -0.162695 0
M  V30 8373 C 787.486 0.852647 -3.4986 0
M  V30 8374 C 787.339 -0.33232 -4.48571 0
M  V30 8375 C 788.658 1.70998 -4.05521 0
M  V30 8376 H 785.777 0.149344 -0.72171 0
M  V30 8377 H 788.419 -0.313858 -1.8739 0
M  V30 8378 H 786.569 1.47362 -3.59467 0
M  V30 8379 H 788.241 -0.970418 -4.50977 0
M  V30 8380 H 786.484 -0.980302 -4.22578 0
M  V30 8381 H 787.155 0.0168407 -5.51997 0
M  V30 8382 H 789.631 1.18606 -3.98838 0
M  V30 8383 H 788.507 1.98517 -5.11744 0
M  V30 8384 H 788.768 2.67219 -3.52202 0
M  V30 8385 N 787.827 1.57504 0.0551401 0
M  V30 8386 C 789.075 1.87684 0.74962 0
M  V30 8387 C 789.396 0.812547 1.77264 0
M  V30 8388 O 788.666 -0.15694 1.9527 0
M  V30 8389 H 787.246 0.6926 0.279846 0
M  V30 8390 H 789.908 1.94881 0.0272745 0
M  V30 8391 H 789.004 2.85734 1.25548 0
M  V30 8392 N 789.305 -0.326896 1.54172 0
M  V30 8393 C 790.215 -1.42525 1.86343 0
M  V30 8394 C 791.231 -1.56764 0.75505 0
M  V30 8395 O 792.407 -1.71924 1.04901 0
M  V30 8396 C 789.472 -2.77286 2.08119 0
M  V30 8397 C 788.533 -2.7225 3.31931 0
M  V30 8398 C 787.766 -4.00584 3.52659 0
M  V30 8399 O 787.989 -4.98686 2.76891 0
M  V30 8400 O 786.923 -4.04045 4.46129 0
M  V30 8401 H 790.749 -1.18249 2.79734 0
M  V30 8402 H 788.334 -0.520614 1.40036 0
M  V30 8403 H 790.216 -3.57065 2.23791 0
M  V30 8404 H 788.891 -3.01459 1.17917 0
M  V30 8405 H 787.798 -1.91033 3.21647 0
M  V30 8406 H 789.131 -2.53032 4.2218 0
M  V30 8407 N 790.784 -1.46188 -0.588786 0
M  V30 8408 C 792.061 -1.41659 -1.34878 0
M  V30 8409 C 792.441 -0.0968913 -2.10878 0
M  V30 8410 O 791.789 0.921468 -2.09096 0
M  V30 8411 C 791.999 -2.6424 -2.27988 0
M  V30 8412 C 793.347 -3.1013 -2.90008 0
M  V30 8413 O 794.371 -2.64745 -2.38303 0
M  V30 8414 O 793.23 -3.88944 -3.83908 0
M  V30 8415 H 790.324 -0.563058 -0.605718 0
M  V30 8416 H 792.87 -1.58346 -0.610309 0
M  V30 8417 H 791.642 -3.51853 -1.71217 0
M  V30 8418 H 791.265 -2.49982 -3.09184 0
M  V30 8419 N 792.262 0.832906 -1.33792 0
M  V30 8420 C 793.502 1.60217 -1.26925 0
M  V30 8421 C 793.866 1.91323 0.161146 0
M  V30 8422 O 795.067 2.66461 0.353864 0
M  V30 8423 C 793.338 2.87314 -2.12568 0
M  V30 8424 S 794.897 3.77939 -2.22952 0
M  V30 8425 H 791.715 0.549273 -0.451464 0
M  V30 8426 H 794.317 0.984648 -1.68893 0
M  V30 8427 H 793.021 2.62444 -3.15518 0
M  V30 8428 H 792.552 3.5407 -1.71459 0
M  V30 8429 H 794.567 4.76188 -1.39496 0
M  V30 8430 N 793.74 1.17359 1.05189 0
M  V30 8431 C 795.151 0.96793 1.5965 0
M  V30 8432 C 795.502 -0.485355 1.90102 0
M  V30 8433 O 794.627 -1.36066 1.6827 0
M  V30 8434 C 795.222 1.75068 2.90063 0
M  V30 8435 C 793.781 1.58969 3.41183 0
M  V30 8436 C 792.928 1.75231 2.14917 0
M  V30 8437 H 795.879 1.32067 0.880001 0
M  V30 8438 H 795.9 1.23308 3.59966 0
M  V30 8439 H 795.412 2.80835 2.67868 0
M  V30 8440 H 793.513 0.556906 3.68415 0
M  V30 8441 H 793.626 2.38067 4.15766 0
M  V30 8442 H 791.99 1.18073 2.25679 0
M  V30 8443 H 792.773 2.8241 1.95191 0
M  V30 8444 N 795.218 -1.23913 0.973828 0
M  V30 8445 C 796.15 -2.24397 0.466763 0
M  V30 8446 C 797.163 -1.57078 -0.427828 0
M  V30 8447 O 798.352 -1.76973 -0.233019 0
M  V30 8448 C 795.452 -3.37141 -0.344798 0
M  V30 8449 C 794.625 -4.34037 0.541349 0
M  V30 8450 C 793.684 -5.2576 -0.215243 0
M  V30 8451 O 792.71 -5.67842 0.39291 0
M  V30 8452 N 793.912 -5.60702 -1.5031 0
M  V30 8453 H 796.677 -2.68536 1.33074 0
M  V30 8454 H 794.238 -1.38017 0.846346 0
M  V30 8455 H 796.23 -3.95476 -0.859133 0
M  V30 8456 H 794.8 -2.92239 -1.10974 0
M  V30 8457 H 794.02 -3.74302 1.23659 0
M  V30 8458 H 795.308 -4.95738 1.1455 0
M  V30 8459 H 794.706 -5.28451 -2.01882 0
M  V30 8460 H 793.263 -6.21538 -1.96301 0
M  V30 8461 N 796.696 -0.74468 -1.38897 0
M  V30 8462 C 797.942 -0.306249 -2.01081 0
M  V30 8463 C 798.297 1.09724 -1.58046 0
M  V30 8464 O 797.59 1.73923 -0.803834 0
M  V30 8465 C 797.784 -0.357302 -3.55609 0
M  V30 8466 C 797.613 -1.76421 -4.13649 0
M  V30 8467 C 796.383 -2.3787 -4.4581 0
M  V30 8468 C 798.581 -2.71942 -4.36523 0
M  V30 8469 N 796.563 -3.70614 -4.89406 0
M  V30 8470 C 797.934 -3.89437 -4.8243 0
M  V30 8471 C 799.989 -2.69579 -4.18607 0
M  V30 8472 C 798.692 -5.04917 -5.123 0
M  V30 8473 C 800.718 -3.8421 -4.49596 0
M  V30 8474 C 800.08 -5.00442 -4.95719 0
M  V30 8475 H 796.179 -0.158531 -0.765762 0
M  V30 8476 H 798.763 -0.972726 -1.6866 0
M  V30 8477 H 796.934 0.278865 -3.87398 0
M  V30 8478 H 798.666 0.100599 -4.04575 0
M  V30 8479 H 795.421 -1.8971 -4.33943 0
M  V30 8480 H 795.845 -4.38791 -5.1555 0
M  V30 8481 H 800.487 -1.80905 -3.82143 0
M  V30 8482 H 798.205 -5.94213 -5.47665 0
M  V30 8483 H 801.791 -3.83691 -4.37347 0
M  V30 8484 H 800.671 -5.87671 -5.19242 0
M  V30 8485 N 798.174 1.49689 -0.493057 0
M  V30 8486 C 799.107 2.25712 0.336062 0
M  V30 8487 C 800.085 1.29953 0.977294 0
M  V30 8488 O 801.269 1.59225 1.00895 0
M  V30 8489 C 798.396 3.0501 1.47263 0
M  V30 8490 C 797.442 4.15863 0.946575 0
M  V30 8491 S 798.275 5.35272 -0.156323 0
M  V30 8492 C 799.431 6.18123 0.983601 0
M  V30 8493 H 799.664 2.95688 -0.309215 0
M  V30 8494 H 797.197 1.51872 -0.278238 0
M  V30 8495 H 799.155 3.51284 2.12391 0
M  V30 8496 H 797.816 2.34519 2.08949 0
M  V30 8497 H 797.009 4.70834 1.7981 0
M  V30 8498 H 796.611 3.72139 0.372647 0
M  V30 8499 H 798.903 6.50588 1.89056 0
M  V30 8500 H 799.846 7.06521 0.472687 0
M  V30 8501 H 800.254 5.50547 1.24735 0
M  V30 8502 N 799.652 0.226554 1.55963 0
M  V30 8503 C 800.898 -0.404387 1.98727 0
M  V30 8504 C 801.231 -1.59059 1.11418 0
M  V30 8505 O 800.506 -1.93729 0.172971 0
M  V30 8506 C 800.789 -0.834081 3.50307 0
M  V30 8507 C 800.642 0.356104 4.48388 0
M  V30 8508 C 801.961 -1.68845 4.06423 0
M  V30 8509 H 799.08 -0.145515 0.722492 0
M  V30 8510 H 801.722 0.323791 1.87221 0
M  V30 8511 H 799.872 -1.45454 3.60244 0
M  V30 8512 H 801.544 0.99432 4.50456 0
M  V30 8513 H 799.787 1.0027 4.22053 0
M  V30 8514 H 800.458 0.0124333 5.51999 0
M  V30 8515 H 802.934 -1.16489 3.99461 0
M  V30 8516 H 801.81 -1.958 5.1279 0
M  V30 8517 H 802.071 -2.65347 3.53615 0
M  V30 8518 N 801.13 -1.57531 -0.0467866 0
M  V30 8519 C 802.541 -1.76945 -0.595603 0
M  V30 8520 C 802.892 -0.855354 -1.76573 0
M  V30 8521 O 802.017 -0.045668 -2.16352 0
M  V30 8522 C 802.612 -3.20881 -1.08725 0
M  V30 8523 C 801.171 -3.41553 -1.58172 0
M  V30 8524 C 800.318 -2.72533 -0.511968 0
M  V30 8525 H 803.269 -1.57682 0.179436 0
M  V30 8526 H 803.29 -3.26419 -1.95528 0
M  V30 8527 H 802.802 -3.87385 -0.235398 0
M  V30 8528 H 800.903 -2.80199 -2.456 0
M  V30 8529 H 801.016 -4.50104 -1.64143 0
M  V30 8530 H 799.38 -2.35797 -0.962899 0
M  V30 8531 H 800.163 -3.41709 0.330117 0
M  V30 8532 N 802.608 0.318715 -1.54344 0
M  V30 8533 C 803.857 1.05363 -1.71993 0
M  V30 8534 C 804.17 1.89018 -0.503155 0
M  V30 8535 O 805.376 2.65639 -0.561085 0
M  V30 8536 C 803.832 1.92281 -3.0423 0
M  V30 8537 C 803.44 1.13715 -4.33328 0
M  V30 8538 C 805.184 2.65479 -3.31242 0
M  V30 8539 C 803.091 1.99806 -5.56625 0
M  V30 8540 H 802.021 0.397081 -0.64097 0
M  V30 8541 H 804.672 0.311598 -1.80835 0
M  V30 8542 H 803.054 2.70402 -2.89307 0
M  V30 8543 H 804.228 0.403305 -4.59032 0
M  V30 8544 H 802.543 0.521769 -4.13118 0
M  V30 8545 H 805.14 3.30209 -4.20555 0
M  V30 8546 H 805.483 3.33374 -2.49334 0
M  V30 8547 H 806.016 1.94417 -3.47054 0
M  V30 8548 H 802.755 1.36411 -6.41149 0
M  V30 8549 H 802.275 2.70911 -5.35133 0
M  V30 8550 H 803.954 2.58277 -5.93213 0
M  V30 8551 N 804.086 1.46499 0.581025 0
M  V30 8552 C 805.314 1.5547 1.36517 0
M  V30 8553 C 805.729 0.196407 1.87776 0
M  V30 8554 O 805.086 -0.806577 1.63709 0
M  V30 8555 C 805.137 2.56084 2.55154 0
M  V30 8556 O 804.858 3.86637 2.06018 0
M  V30 8557 C 806.359 2.75011 3.47683 0
M  V30 8558 H 803.579 0.525703 0.416986 0
M  V30 8559 H 806.123 1.9192 0.706177 0
M  V30 8560 H 804.278 2.22633 3.17039 0
M  V30 8561 H 804.692 4.41413 2.83292 0
M  V30 8562 H 806.166 3.49329 4.27403 0
M  V30 8563 H 806.643 1.81978 3.99726 0
M  V30 8564 H 807.249 3.09565 2.91632 0
M  V30 8565 N 805.565 -0.825799 1.34232 0
M  V30 8566 C 806.814 -1.57686 1.2577 0
M  V30 8567 C 807.127 -1.94848 -0.171372 0
M  V30 8568 O 808.333 -2.68854 -0.378123 0
M  V30 8569 C 806.789 -2.84478 2.20454 0
M  V30 8570 C 806.397 -2.54629 3.68603 0
M  V30 8571 C 808.141 -3.625 2.20893 0
M  V30 8572 C 806.048 -3.77597 4.55164 0
M  V30 8573 H 804.978 -0.591809 0.467203 0
M  V30 8574 H 807.629 -0.909421 1.59379 0
M  V30 8575 H 806.011 -3.52832 1.79793 0
M  V30 8576 H 807.185 -1.94404 4.17784 0
M  V30 8577 H 805.5 -1.89888 3.70582 0
M  V30 8578 H 808.097 -4.538 2.82789 0
M  V30 8579 H 808.44 -3.98404 1.20746 0
M  V30 8580 H 808.973 -3.01086 2.59985 0
M  V30 8581 H 805.712 -3.46815 5.56237 0
M  V30 8582 H 805.232 -4.37116 4.10719 0
M  V30 8583 H 806.911 -4.45039 4.69627 0
M  V30 8584 N 807.043 -1.17915 -1.04565 0
M  V30 8585 C 808.268 -0.996749 -1.81878 0
M  V30 8586 C 808.693 0.450169 -1.82634 0
M  V30 8587 O 808.051 1.32268 -1.23995 0
M  V30 8588 C 808.099 -1.55005 -3.25585 0
M  V30 8589 O 807.203 -0.76804 -4.05185 0
M  V30 8590 H 806.544 -0.353456 -0.562108 0
M  V30 8591 H 809.074 -1.56557 -1.31723 0
M  V30 8592 H 809.084 -1.57503 -3.76373 0
M  V30 8593 H 807.759 -2.60327 -3.2435 0
M  V30 8594 H 806.336 -0.81498 -3.63885 0
M  V30 8595 N 808.521 1.23394 -0.980386 0
M  V30 8596 C 809.749 1.95844 -0.667286 0
M  V30 8597 C 810.164 1.72574 0.765735 0
M  V30 8598 O 809.521 1.01715 1.51526 0
M  V30 8599 C 809.572 3.48844 -0.948151 0
M  V30 8600 O 809.293 3.71325 -2.32485 0
M  V30 8601 C 810.794 4.38494 -0.651002 0
M  V30 8602 H 808.014 0.623535 -0.247882 0
M  V30 8603 H 810.558 1.56885 -1.31176 0
M  V30 8604 H 808.713 3.85819 -0.349681 0
M  V30 8605 H 809.127 4.65619 -2.41452 0
M  V30 8606 H 810.601 5.44648 -0.897887 0
M  V30 8607 H 811.078 4.37236 0.414922 0
M  V30 8608 H 811.684 4.07127 -1.22995 0
M  V30 8609 N 809.999 0.752036 1.385 0
M  V30 8610 C 811.224 0.316993 2.04963 0
M  V30 8611 C 811.649 -1.04582 1.56346 0
M  V30 8612 O 811.007 -1.66616 0.714755 0
M  V30 8613 C 811.055 0.347235 3.58924 0
M  V30 8614 O 810.159 -0.659296 4.07096 0
M  V30 8615 H 809.5 0.140652 0.648932 0
M  V30 8616 H 812.03 1.02272 1.77205 0
M  V30 8617 H 812.04 0.19757 4.07521 0
M  V30 8618 H 810.715 1.34157 3.93668 0
M  V30 8619 H 809.292 -0.474371 3.6987 0
M  V30 8620 N 811.477 -1.49425 0.500989 0
M  V30 8621 C 812.387 -2.32899 -0.282011 0
M  V30 8622 C 813.403 -1.44632 -0.967346 0
M  V30 8623 O 814.579 -1.77654 -0.94873 0
M  V30 8624 C 811.644 -3.20069 -1.33253 0
M  V30 8625 C 810.705 -4.24186 -0.660636 0
M  V30 8626 C 809.938 -5.07191 -1.6611 0
M  V30 8627 O 810.161 -4.91712 -2.89094 0
M  V30 8628 O 809.095 -5.8948 -1.21643 0
M  V30 8629 H 812.921 -3.01038 0.401224 0
M  V30 8630 H 810.506 -1.47079 0.262323 0
M  V30 8631 H 812.388 -3.74071 -1.94033 0
M  V30 8632 H 811.063 -2.54625 -1.9987 0
M  V30 8633 H 809.97 -3.74098 -0.0130959 0
M  V30 8634 H 811.303 -4.92186 -0.0369179 0
M  V30 8635 N 812.955 -0.234822 -1.55841 0
M  V30 8636 C 814.232 0.442961 -1.90518 0
M  V30 8637 C 814.612 1.76768 -1.15397 0
M  V30 8638 O 813.96 2.26928 -0.267534 0
M  V30 8639 C 814.17 0.622905 -3.43396 0
M  V30 8640 C 815.518 0.9243 -4.14417 0
M  V30 8641 O 816.542 0.709211 -3.49068 0
M  V30 8642 O 815.401 1.33323 -5.29988 0
M  V30 8643 H 812.495 0.236042 -0.792599 0
M  V30 8644 H 815.041 -0.277992 -1.67408 0
M  V30 8645 H 813.813 -0.310973 -3.90062 0
M  V30 8646 H 813.436 1.39485 -3.7233 0
M  V30 8647 N 814.433 1.57553 0.0384317 0
M  V30 8648 C 815.844 1.77258 0.586211 0
M  V30 8649 C 816.195 0.864706 1.76117 0
M  V30 8650 O 815.32 0.057141 2.16325 0
M  V30 8651 C 815.915 3.21453 1.07021 0
M  V30 8652 C 814.474 3.42387 1.56358 0
M  V30 8653 C 813.621 2.72801 0.497508 0
M  V30 8654 H 816.572 1.57585 -0.187796 0
M  V30 8655 H 816.593 3.27451 1.93794 0
M  V30 8656 H 816.105 3.87505 0.214851 0
M  V30 8657 H 814.206 2.81497 2.44111 0
M  V30 8658 H 814.319 4.50968 1.61754 0
M  V30 8659 H 812.683 2.36305 0.95038 0
M  V30 8660 H 813.466 3.41529 -0.348234 0
M  V30 8661 N 815.911 -0.310526 1.54511 0
M  V30 8662 C 816.859 -1.40272 1.85544 0
M  V30 8663 C 817.853 -1.52941 0.728377 0
M  V30 8664 O 819.059 -1.55172 0.912234 0
M  V30 8665 H 815.434 -0.468355 0.588343 0
M  V30 8666 H 817.405 -1.11329 2.76855 0
M  V30 8667 C 816.154 -2.76279 2.11105 0
M  V30 8668 H 815.477 -2.67308 2.97298 0
M  V30 8669 H 816.917 -3.51736 2.36765 0
M  V30 8670 C 815.376 -3.24472 0.906618 0
M  V30 8671 O 815.906 -4.01514 0.122358 0
M  V30 8672 N 814.112 -2.81676 0.714632 0
M  V30 8673 H 813.659 -2.19143 1.35404 0
M  V30 8674 H 813.617 -3.14272 -0.089703 0
M  V30 8675 N 817.389 -1.46805 -0.573248 0
M  V30 8676 C 818.321 -1.54127 -1.6964 0
M  V30 8677 C 819.334 -0.428778 -1.57052 0
M  V30 8678 O 820.523 -0.697612 -1.64303 0
M  V30 8679 C 817.623 -1.41438 -3.07975 0
M  V30 8680 C 816.796 -2.66974 -3.46474 0
M  V30 8681 C 815.855 -2.48349 -4.63906 0
M  V30 8682 O 814.881 -3.22109 -4.69292 0
M  V30 8683 N 816.083 -1.55129 -5.59388 0
M  V30 8684 H 818.848 -2.50971 -1.6381 0
M  V30 8685 H 816.409 -1.42981 -0.759479 0
M  V30 8686 H 818.401 -1.26737 -3.84343 0
M  V30 8687 H 816.971 -0.527388 -3.08119 0
M  V30 8688 H 816.191 -2.9655 -2.59715 0
M  V30 8689 H 817.479 -3.50347 -3.68964 0
M  V30 8690 H 816.877 -0.94324 -5.57781 0
M  V30 8691 H 815.434 -1.46387 -6.35149 0
M  V30 8692 N 818.867 0.818669 -1.34668 0
M  V30 8693 C 819.83 1.9114 -1.26483 0
M  V30 8694 C 820.83 1.598 -0.179044 0
M  V30 8695 O 822.02 1.6876 -0.431952 0
M  V30 8696 C 819.152 3.27285 -0.95381 0
M  V30 8697 H 820.345 1.9982 -2.23634 0
M  V30 8698 H 817.898 1.01314 -1.19018 0
M  V30 8699 H 818.633 3.24297 0.0143428 0
M  V30 8700 H 818.418 3.51416 -1.73924 0
M  V30 8701 H 819.908 4.07299 -0.921827 0
M  V30 8702 N 820.346 1.18468 1.03938 0
M  V30 8703 C 821.293 0.912859 2.1198 0
M  V30 8704 C 822.263 -0.14824 1.65437 0
M  V30 8705 O 823.448 -0.008331 1.90798 0
M  V30 8706 C 820.588 0.446114 3.42204 0
M  V30 8707 C 819.701 1.57278 4.02353 0
M  V30 8708 C 818.836 1.05863 5.20544 0
M  V30 8709 C 817.875 2.1599 5.72726 0
M  V30 8710 N 817.012 1.65959 6.82204 0
M  V30 8711 H 821.852 1.83798 2.34569 0
M  V30 8712 H 819.389 0.916504 1.15059 0
M  V30 8713 H 821.347 0.15697 4.16905 0
M  V30 8714 H 819.977 -0.442025 3.19759 0
M  V30 8715 H 819.029 1.97737 3.24968 0
M  V30 8716 H 820.341 2.40289 4.37107 0
M  V30 8717 H 819.495 0.724087 6.02364 0
M  V30 8718 H 818.234 0.198116 4.87297 0
M  V30 8719 H 817.239 2.50287 4.89527 0
M  V30 8720 H 818.464 3.02479 6.08016 0
M  V30 8721 H 816.41 0.82199 6.5083 0
M  V30 8722 H 816.327 2.42567 7.16029 0
M  V30 8723 H 817.595 1.35436 7.67644 0
M  V30 8724 N 821.824 -1.22873 0.986916 0
M  V30 8725 C 822.754 -2.2688 0.552064 0
M  V30 8726 C 823.735 -1.64883 -0.418048 0
M  V30 8727 O 824.92 -1.9171 -0.30999 0
M  V30 8728 C 822.05 -3.47018 -0.139959 0
M  V30 8729 C 821.004 -4.21411 0.748091 0
M  V30 8730 C 820.33 -5.34645 -0.0765132 0
M  V30 8731 C 821.63 -4.80726 2.04206 0
M  V30 8732 H 823.324 -2.63507 1.42143 0
M  V30 8733 H 820.87 -1.26668 0.68492 0
M  V30 8734 H 822.823 -4.18931 -0.455527 0
M  V30 8735 H 821.547 -3.0947 -1.04382 0
M  V30 8736 H 820.206 -3.51325 1.04721 0
M  V30 8737 H 819.854 -4.93339 -0.981109 0
M  V30 8738 H 819.554 -5.85342 0.514606 0
M  V30 8739 H 821.078 -6.09377 -0.386313 0
M  V30 8740 H 822.492 -5.44612 1.79083 0
M  V30 8741 H 820.889 -5.41737 2.5815 0
M  V30 8742 H 821.959 -4.01109 2.72469 0
M  V30 8743 N 823.302 -0.75937 -1.38099 0
M  V30 8744 C 824.249 -0.135508 -2.30402 0
M  V30 8745 C 825.219 0.703356 -1.50473 0
M  V30 8746 O 826.404 0.658287 -1.79084 0
M  V30 8747 C 823.544 0.747228 -3.36913 0
M  V30 8748 C 822.657 -0.106893 -4.31868 0
M  V30 8749 C 821.792 0.779388 -5.25451 0
M  V30 8750 C 820.831 -0.0780179 -6.1205 0
M  V30 8751 N 819.968 0.765545 -6.97914 0
M  V30 8752 H 824.808 -0.9282 -2.83176 0
M  V30 8753 H 822.345 -0.46935 -1.39411 0
M  V30 8754 H 824.303 1.27371 -3.97281 0
M  V30 8755 H 822.933 1.50565 -2.85535 0
M  V30 8756 H 821.985 -0.751063 -3.72912 0
M  V30 8757 H 823.297 -0.768798 -4.9284 0
M  V30 8758 H 822.451 1.37282 -5.90964 0
M  V30 8759 H 821.19 1.47501 -4.6486 0
M  V30 8760 H 820.195 -0.684078 -5.45528 0
M  V30 8761 H 821.42 -0.770786 -6.74712 0
M  V30 8762 H 819.366 1.44601 -6.39864 0
M  V30 8763 H 819.283 0.160666 -7.55829 0
M  V30 8764 H 820.551 1.34377 -7.6783 0
M  V30 8765 N 824.78 1.49157 -0.508906 0
M  V30 8766 C 826.029 2.0167 0.0346854 0
M  V30 8767 C 826.342 1.39302 1.37311 0
M  V30 8768 O 827.548 1.83189 2.00385 0
M  V30 8769 C 826.004 3.59725 0.112261 0
M  V30 8770 C 825.612 4.31069 -1.21999 0
M  V30 8771 C 827.356 4.20155 0.605798 0
M  V30 8772 C 825.263 5.81001 -1.10415 0
M  V30 8773 H 824.193 0.753814 0.0167355 0
M  V30 8774 H 826.844 1.7162 -0.649518 0
M  V30 8775 H 825.226 3.86525 0.861087 0
M  V30 8776 H 826.4 4.15962 -1.98273 0
M  V30 8777 H 824.715 3.82418 -1.64759 0
M  V30 8778 H 827.312 5.29964 0.710102 0
M  V30 8779 H 827.655 3.84051 1.60656 0
M  V30 8780 H 828.188 3.97705 -0.0867239 0
M  V30 8781 H 824.927 6.21643 -2.07941 0
M  V30 8782 H 824.447 5.9858 -0.382428 0
M  V30 8783 H 826.126 6.42207 -0.786116 0
M  V30 8784 N 826.258 0.243083 1.55714 0
M  V30 8785 C 827.188 -0.652336 2.24203 0
M  V30 8786 C 828.169 -1.1843 1.221 0
M  V30 8787 O 829.354 -1.22435 1.50743 0
M  V30 8788 C 826.484 -1.85111 2.93856 0
M  V30 8789 C 825.438 -1.45208 4.02615 0
M  V30 8790 C 824.764 -2.73137 4.59674 0
M  V30 8791 C 826.064 -0.625988 5.18535 0
M  V30 8792 H 827.758 -0.0812504 2.9929 0
M  V30 8793 H 825.304 -0.0376388 1.43951 0
M  V30 8794 H 827.257 -2.48314 3.40468 0
M  V30 8795 H 825.981 -2.44751 2.16251 0
M  V30 8796 H 824.64 -0.843406 3.56766 0
M  V30 8797 H 824.288 -3.30967 3.78774 0
M  V30 8798 H 823.988 -2.47163 5.33089 0
M  V30 8799 H 825.512 -3.37245 5.09017 0
M  V30 8800 H 826.926 -1.16223 5.61396 0
M  V30 8801 H 825.323 -0.462465 5.98315 0
M  V30 8802 H 826.393 0.362652 4.83542 0
M  V30 8803 N 827.736 -1.57571 -0.0300757 0
M  V30 8804 C 828.669 -2.01874 -1.06406 0
M  V30 8805 C 829.647 -0.902901 -1.35227 0
M  V30 8806 O 830.831 -1.16865 -1.47901 0
M  V30 8807 C 827.958 -2.39093 -2.39901 0
M  V30 8808 C 827.004 -3.61108 -2.26943 0
M  V30 8809 S 827.837 -5.10287 -1.62382 0
M  V30 8810 C 828.993 -5.50747 -2.97369 0
M  V30 8811 H 829.226 -2.89261 -0.686703 0
M  V30 8812 H 826.759 -1.52523 -0.240017 0
M  V30 8813 H 828.717 -2.61207 -3.16672 0
M  V30 8814 H 827.378 -1.52159 -2.74784 0
M  V30 8815 H 826.571 -3.84803 -3.25489 0
M  V30 8816 H 826.173 -3.3884 -1.58314 0
M  V30 8817 H 828.465 -5.51369 -3.93698 0
M  V30 8818 H 829.408 -6.51071 -2.78409 0
M  V30 8819 H 829.816 -4.7825 -2.99895 0
M  V30 8820 N 829.214 0.302327 -1.54673 0
M  V30 8821 C 830.491 1.05721 -1.64567 0
M  V30 8822 C 830.871 2.0526 -0.493108 0
M  V30 8823 O 830.219 2.22729 0.510315 0
M  V30 8824 C 830.429 1.74025 -3.02517 0
M  V30 8825 C 831.777 2.26271 -3.59286 0
M  V30 8826 O 832.801 1.8406 -3.0496 0
M  V30 8827 O 831.66 3.0361 -4.54404 0
M  V30 8828 H 828.754 0.488577 -0.667249 0
M  V30 8829 H 831.3 0.300521 -1.67018 0
M  V30 8830 H 830.072 1.0174 -3.77842 0
M  V30 8831 H 829.695 2.56454 -3.03838 0
M  V30 8832 N 830.692 1.47107 0.565454 0
M  V30 8833 C 831.639 1.58974 1.6732 0
M  V30 8834 C 832.609 0.433146 1.60353 0
M  V30 8835 O 833.794 0.652141 1.79309 0
M  V30 8836 C 830.934 1.60224 3.05651 0
M  V30 8837 C 830.047 2.86741 3.23116 0
M  V30 8838 C 829.182 2.79381 4.51796 0
M  V30 8839 C 828.221 4.0076 4.62664 0
M  V30 8840 N 827.358 3.91685 5.8269 0
M  V30 8841 H 832.198 2.53588 1.56515 0
M  V30 8842 H 829.735 1.25791 0.762558 0
M  V30 8843 H 831.693 1.58933 3.85741 0
M  V30 8844 H 830.323 0.691285 3.15311 0
M  V30 8845 H 829.375 2.97936 2.36513 0
M  V30 8846 H 830.687 3.7665 3.27011 0
M  V30 8847 H 829.841 2.76293 5.40136 0
M  V30 8848 H 828.58 1.87142 4.50366 0
M  V30 8849 H 827.585 4.04162 3.72738 0
M  V30 8850 H 828.81 4.94117 4.6586 0
M  V30 8851 H 826.756 3.02243 5.82224 0
M  V30 8852 H 826.673 4.75264 5.87929 0
M  V30 8853 H 827.941 3.92599 6.73414 0
M  V30 8854 N 832.17 -0.811516 1.35101 0
M  V30 8855 C 833.581 -1.38515 1.25182 0
M  V30 8856 C 833.932 -1.95846 -0.117883 0
M  V30 8857 O 833.057 -1.90925 -1.01866 0
M  V30 8858 C 833.652 -2.51813 2.26662 0
M  V30 8859 C 832.211 -3.05052 2.20499 0
M  V30 8860 C 831.358 -1.77987 2.12641 0
M  V30 8861 H 834.309 -0.614959 1.46301 0
M  V30 8862 H 834.33 -3.30228 1.89023 0
M  V30 8863 H 833.842 -2.10057 3.2634 0
M  V30 8864 H 831.943 -3.51285 1.24215 0
M  V30 8865 H 832.056 -3.63368 3.1225 0
M  V30 8866 H 830.42 -1.99342 1.5854 0
M  V30 8867 H 831.203 -1.38389 3.14171 0
M  V30 8868 N 833.648 -1.19017 -1.03309 0
M  V30 8869 C 834.558 -0.939303 -2.14975 0
M  V30 8870 C 835.574 0.0992359 -1.73717 0
M  V30 8871 O 836.75 -0.0844362 -2.01223 0
M  V30 8872 C 833.815 -0.476712 -3.43407 0
M  V30 8873 C 832.876 -1.58413 -3.99003 0
M  V30 8874 C 832.109 -1.14352 -5.21305 0
M  V30 8875 O 832.332 -0.00534408 -5.704 0
M  V30 8876 O 831.266 -1.94436 -5.6963 0
M  V30 8877 H 835.092 -1.87386 -2.38998 0
M  V30 8878 H 832.677 -0.972635 -1.13403 0
M  V30 8879 H 834.559 -0.22718 -4.20787 0
M  V30 8880 H 833.234 0.429455 -3.20839 0
M  V30 8881 H 832.141 -1.88777 -3.22977 0
M  V30 8882 H 833.474 -2.4667 -4.25928 0
M  V30 8883 N 835.127 1.22348 -0.993418 0
M  V30 8884 C 836.06 2.22898 -0.489073 0
M  V30 8885 C 837.038 1.56222 0.450927 0
M  V30 8886 O 838.222 1.84705 0.376351 0
M  V30 8887 C 835.349 3.37448 0.290946 0
M  V30 8888 C 834.395 4.22328 -0.595123 0
M  V30 8889 S 835.228 4.94677 -2.05072 0
M  V30 8890 C 836.384 6.12667 -1.28021 0
M  V30 8891 H 836.617 2.65333 -1.34111 0
M  V30 8892 H 834.15 1.32032 -0.800429 0
M  V30 8893 H 836.108 4.03867 0.734944 0
M  V30 8894 H 834.769 2.93519 1.11826 0
M  V30 8895 H 833.962 5.04 0.00507413 0
M  V30 8896 H 833.564 3.61043 -0.975906 0
M  V30 8897 H 835.856 6.75279 -0.548129 0
M  V30 8898 H 836.799 6.771 -2.07223 0
M  V30 8899 H 837.207 5.58898 -0.793272 0
M  V30 8900 N 836.605 0.766683 1.37694 0
M  V30 8901 C 837.553 0.137269 2.32195 0
M  V30 8902 C 838.547 -0.69067 1.54681 0
M  V30 8903 O 839.753 -0.588299 1.70115 0
M  V30 8904 H 836.128 0.0256003 0.751564 0
M  V30 8905 H 838.099 0.950129 2.82869 0
M  V30 8906 C 836.848 -0.731446 3.39919 0
M  V30 8907 H 836.171 -0.103738 3.99665 0
M  V30 8908 H 837.611 -1.13891 4.08417 0
M  V30 8909 C 836.07 -1.87984 2.79578 0
M  V30 8910 O 836.6 -2.97496 2.69924 0
M  V30 8911 N 834.806 -1.6789 2.37195 0
M  V30 8912 H 834.353 -0.788162 2.45246 0
M  V30 8913 H 834.311 -2.44894 1.97165 0
M  V30 8914 N 838.083 -1.48885 0.516809 0
M  V30 8915 C 839.329 -2.02788 -0.0220928 0
M  V30 8916 C 839.662 -1.39433 -1.35175 0
M  V30 8917 O 838.937 -0.535459 -1.86984 0
M  V30 8918 C 839.22 -3.59753 -0.158012 0
M  V30 8919 C 839.073 -4.33611 1.19588 0
M  V30 8920 C 840.392 -4.30984 -0.891133 0
M  V30 8921 H 837.511 -0.736971 -0.00655488 0
M  V30 8922 H 840.153 -1.77746 0.671287 0
M  V30 8923 H 838.303 -3.8122 -0.748568 0
M  V30 8924 H 839.975 -4.23598 1.82653 0
M  V30 8925 H 838.218 -3.95547 1.78116 0
M  V30 8926 H 838.889 -5.41846 1.05391 0
M  V30 8927 H 841.365 -4.14267 -0.39012 0
M  V30 8928 H 840.241 -5.40527 -0.955107 0
M  V30 8929 H 840.502 -3.97336 -1.93847 0
M  V30 8930 N 839.561 -0.251338 -1.55583 0
M  V30 8931 C 840.807 0.37272 -1.99346 0
M  V30 8932 C 841.14 1.57266 -1.13934 0
M  V30 8933 O 840.415 1.9343 -0.20377 0
M  V30 8934 C 840.698 0.778245 -3.5159 0
M  V30 8935 C 840.551 -0.427394 -4.47765 0
M  V30 8936 C 841.87 1.62358 -4.09057 0
M  V30 8937 H 838.989 0.134002 -0.724715 0
M  V30 8938 H 841.631 -0.353536 -1.86682 0
M  V30 8939 H 839.781 1.39704 -3.62512 0
M  V30 8940 H 841.453 -1.06586 -4.48818 0
M  V30 8941 H 839.696 -1.06972 -4.20404 0
M  V30 8942 H 840.367 -0.10025 -5.51909 0
M  V30 8943 H 842.843 1.1012 -4.01264 0
M  V30 8944 H 841.719 1.87617 -5.1584 0
M  V30 8945 H 841.98 2.59688 -3.57791 0
M  V30 8946 N 841.039 1.57585 0.0217189 0
M  V30 8947 C 841.969 2.10073 1.01939 0
M  V30 8948 C 842.95 1.0049 1.37243 0
M  V30 8949 O 844.135 1.28055 1.45999 0
M  V30 8950 C 841.265 2.58618 2.31806 0
M  V30 8951 C 840.219 3.72531 2.10724 0
M  V30 8952 C 839.545 4.07309 3.46415 0
M  V30 8953 C 840.845 5.00672 1.48743 0
M  V30 8954 H 842.539 2.9368 0.582432 0
M  V30 8955 H 840.085 1.41277 0.278715 0
M  V30 8956 H 842.038 2.9396 3.01936 0
M  V30 8957 H 840.762 1.72104 2.77575 0
M  V30 8958 H 839.421 3.37549 1.43025 0
M  V30 8959 H 839.069 3.17851 3.89846 0
M  V30 8960 H 838.769 4.84042 3.33132 0
M  V30 8961 H 840.293 4.45192 4.17895 0
M  V30 8962 H 841.707 5.33925 2.088 0
M  V30 8963 H 840.104 5.82065 1.46013 0
M  V30 8964 H 841.174 4.82769 0.45408 0
M  V30 8965 N 842.517 -0.29412 1.54831 0
M  V30 8966 C 843.464 -1.36296 1.86258 0
M  V30 8967 C 844.434 -1.50061 0.712097 0
M  V30 8968 O 845.619 -1.64809 0.961381 0
M  V30 8969 C 842.759 -2.72187 2.12151 0
M  V30 8970 C 841.872 -2.66816 3.39755 0
M  V30 8971 C 841.007 -3.94747 3.55455 0
M  V30 8972 C 840.046 -3.838 4.76827 0
M  V30 8973 N 839.183 -5.03521 4.89296 0
M  V30 8974 H 844.023 -1.08796 2.7743 0
M  V30 8975 H 841.56 -0.526069 1.37371 0
M  V30 8976 H 843.518 -3.51225 2.25159 0
M  V30 8977 H 842.148 -2.97934 1.24237 0
M  V30 8978 H 841.2 -1.79605 3.3533 0
M  V30 8979 H 842.512 -2.5462 4.28917 0
M  V30 8980 H 841.666 -4.82223 3.68166 0
M  V30 8981 H 840.405 -4.09785 2.64438 0
M  V30 8982 H 839.41 -2.94708 4.64141 0
M  V30 8983 H 840.635 -3.70301 5.69258 0
M  V30 8984 H 838.581 -5.1901 4.01204 0
M  V30 8985 H 838.498 -4.93775 5.72471 0
M  V30 8986 H 839.766 -5.92629 5.06371 0
M  V30 8987 N 843.995 -1.47404 -0.557645 0
M  V30 8988 C 844.943 -1.60265 -1.68576 0
M  V30 8989 C 845.937 -0.469982 -1.6275 0
M  V30 8990 O 847.143 -0.647764 -1.67941 0
M  V30 8991 H 843.518 -0.504353 -0.557792 0
M  V30 8992 H 845.489 -2.55066 -1.54867 0
M  V30 8993 C 844.238 -1.63369 -3.0693 0
M  V30 8994 H 843.561 -2.49874 -3.12095 0
M  V30 8995 H 845.001 -1.76417 -3.85556 0
M  V30 8996 C 843.46 -0.366921 -3.34896 0
M  V30 8997 O 843.99 0.53218 -3.98159 0
M  V30 8998 N 842.196 -0.247082 -2.89548 0
M  V30 8999 H 841.743 -0.979669 -2.38244 0
M  V30 9000 H 841.701 0.599552 -3.0863 0
M  V30 9001 N 845.473 0.80434 -1.35529 0
M  V30 9002 C 846.719 1.56385 -1.29118 0
M  V30 9003 C 847.052 1.9374 0.133536 0
M  V30 9004 O 846.327 1.6153 1.08344 0
M  V30 9005 C 846.61 2.85097 -2.19981 0
M  V30 9006 C 846.463 2.54204 -3.7108 0
M  V30 9007 C 847.782 3.86817 -2.09907 0
M  V30 9008 H 844.901 0.567382 -0.470368 0
M  V30 9009 H 847.543 0.925235 -1.6595 0
M  V30 9010 H 845.693 3.39594 -1.88701 0
M  V30 9011 H 847.365 2.05872 -4.12813 0
M  V30 9012 H 845.608 1.87364 -3.91251 0
M  V30 9013 H 846.279 3.46068 -4.30048 0
M  V30 9014 H 848.755 3.41725 -2.37409 0
M  V30 9015 H 847.631 4.7465 -2.75678 0
M  V30 9016 H 847.892 4.28663 -1.08171 0
M  V30 9017 N 846.951 1.19563 1.02676 0
M  V30 9018 C 847.898 0.935291 2.11 0
M  V30 9019 C 848.868 -0.130685 1.65585 0
M  V30 9020 O 850.053 0.0119062 1.90796 0
M  V30 9021 C 847.193 0.482384 3.41712 0
M  V30 9022 C 846.306 1.61537 4.00662 0
M  V30 9023 C 845.441 1.11378 5.19392 0
M  V30 9024 C 844.48 2.22052 5.70403 0
M  V30 9025 N 843.617 1.73185 6.80405 0
M  V30 9026 H 848.457 1.86275 2.32606 0
M  V30 9027 H 845.994 0.928656 1.14081 0
M  V30 9028 H 847.952 0.20118 4.16715 0
M  V30 9029 H 846.582 -0.408086 3.2021 0
M  V30 9030 H 845.634 2.01173 3.22852 0
M  V30 9031 H 846.946 2.44912 4.34534 0
M  V30 9032 H 846.1 0.787935 6.01562 0
M  V30 9033 H 844.839 0.249789 4.8706 0
M  V30 9034 H 843.844 2.55465 4.86845 0
M  V30 9035 H 845.069 3.08911 6.04774 0
M  V30 9036 H 843.015 0.890973 6.49921 0
M  V30 9037 H 842.932 2.50148 7.13416 0
M  V30 9038 H 844.2 1.4357 7.66164 0
M  V30 9039 N 848.429 -1.21819 0.999893 0
M  V30 9040 C 849.84 -1.72517 0.713775 0
M  V30 9041 C 850.191 -1.80505 -0.768922 0
M  V30 9042 O 849.316 -1.45611 -1.60083 0
M  V30 9043 C 849.911 -3.13321 1.28901 0
M  V30 9044 C 848.47 -3.61396 1.05212 0
M  V30 9045 C 847.617 -2.39074 1.40494 0
M  V30 9046 H 850.568 -1.07068 1.17141 0
M  V30 9047 H 850.589 -3.74535 0.671084 0
M  V30 9048 H 850.101 -3.07475 2.36814 0
M  V30 9049 H 848.202 -3.72599 -0.0100732 0
M  V30 9050 H 848.315 -4.47145 1.72042 0
M  V30 9051 H 846.679 -2.41015 0.823642 0
M  V30 9052 H 847.462 -2.35884 2.49427 0
M  V30 9053 N 849.908 -0.773975 -1.37286 0
M  V30 9054 C 851.185 -0.263942 -1.93811 0
M  V30 9055 C 851.565 1.24138 -1.70743 0
M  V30 9056 O 850.913 2.02557 -1.05749 0
M  V30 9057 C 851.123 -0.639753 -3.43086 0
M  V30 9058 C 852.471 -0.610796 -4.20184 0
M  V30 9059 O 853.495 -0.579278 -3.51458 0
M  V30 9060 O 852.354 -0.639862 -5.42741 0
M  V30 9061 H 849.448 -0.0614331 -0.824715 0
M  V30 9062 H 851.994 -0.855477 -1.46559 0
M  V30 9063 H 850.766 -1.67856 -3.53469 0
M  V30 9064 H 850.389 -0.0212827 -3.97594 0
M  V30 9065 N 851.386 1.48609 -0.524698 0
M  V30 9066 C 852.318 2.27508 0.278 0
M  V30 9067 C 853.331 1.35042 0.909258 0
M  V30 9068 O 854.52 1.60136 0.788592 0
M  V30 9069 C 851.62 3.08247 1.40843 0
M  V30 9070 C 850.793 4.28455 0.880083 0
M  V30 9071 C 849.852 4.91048 1.891 0
M  V30 9072 O 848.878 5.5042 1.45005 0
M  V30 9073 N 850.08 4.82816 3.22288 0
M  V30 9074 H 852.845 2.97037 -0.398642 0
M  V30 9075 H 850.406 1.57876 -0.358698 0
M  V30 9076 H 852.398 3.46992 2.08276 0
M  V30 9077 H 850.968 2.41173 1.98883 0
M  V30 9078 H 850.188 3.94189 0.0299228 0
M  V30 9079 H 851.476 5.06279 0.505881 0
M  V30 9080 H 850.874 4.3572 3.60783 0
M  V30 9081 H 849.431 5.25676 3.85368 0
M  V30 9082 N 852.864 0.259585 1.55447 0
M  V30 9083 C 854.11 -0.355207 2.00274 0
M  V30 9084 C 854.465 -1.54637 1.14477 0
M  V30 9085 O 853.758 -1.90519 0.203215 0
M  V30 9086 C 853.952 -0.802727 3.48269 0
M  V30 9087 C 853.781 0.34353 4.48386 0
M  V30 9088 C 852.551 0.822317 4.98564 0
M  V30 9089 C 854.749 1.17482 5.00702 0
M  V30 9090 N 852.731 1.93966 5.82452 0
M  V30 9091 C 854.102 2.14032 5.81885 0
M  V30 9092 C 856.157 1.20994 4.82975 0
M  V30 9093 C 854.86 3.1382 6.47232 0
M  V30 9094 C 856.886 2.19618 5.4911 0
M  V30 9095 C 856.248 3.14903 6.30092 0
M  V30 9096 H 852.347 -0.0955824 0.776137 0
M  V30 9097 H 854.931 0.380062 1.90954 0
M  V30 9098 H 853.102 -1.50726 3.57961 0
M  V30 9099 H 854.834 -1.39354 3.79951 0
M  V30 9100 H 851.589 0.404272 4.71871 0
M  V30 9101 H 852.013 2.50148 6.29091 0
M  V30 9102 H 856.655 0.487104 4.19985 0
M  V30 9103 H 854.373 3.87045 7.09381 0
M  V30 9104 H 857.959 2.23057 5.37342 0
M  V30 9105 H 856.839 3.8997 6.80362 0
M  V30 9106 N 854.342 -1.57594 -0.0133615 0
M  V30 9107 C 855.588 -1.90262 -0.702019 0
M  V30 9108 C 855.921 -0.859219 -1.74158 0
M  V30 9109 O 855.196 0.123778 -1.94106 0
M  V30 9110 C 855.479 -3.3354 -1.35732 0
M  V30 9111 C 855.332 -4.48586 -0.330208 0
M  V30 9112 C 856.651 -3.76004 -2.28712 0
M  V30 9113 H 853.77 -0.691943 -0.253739 0
M  V30 9114 H 856.412 -1.89967 0.0351894 0
M  V30 9115 H 854.562 -3.33921 -1.98567 0
M  V30 9116 H 856.234 -4.6034 0.297433 0
M  V30 9117 H 854.477 -4.32394 0.348926 0
M  V30 9118 H 855.148 -5.45762 -0.827508 0
M  V30 9119 H 857.624 -3.77089 -1.75906 0
M  V30 9120 H 856.5 -4.77032 -2.71535 0
M  V30 9121 H 856.761 -3.09129 -3.16056 0
M  V30 9122 N 855.82 0.285905 -1.54985 0
M  V30 9123 C 856.767 1.35306 -1.86978 0
M  V30 9124 C 857.737 1.49682 -0.720046 0
M  V30 9125 O 858.922 1.64297 -0.970107 0
M  V30 9126 C 856.062 2.71059 -2.13591 0
M  V30 9127 C 855.175 2.6501 -3.41165 0
M  V30 9128 C 854.31 3.92856 -3.57544 0
M  V30 9129 C 853.349 3.81266 -4.78855 0
M  V30 9130 N 852.486 5.00919 -4.9196 0
M  V30 9131 H 857.326 1.07323 -2.78003 0
M  V30 9132 H 854.863 0.518776 -1.37649 0
M  V30 9133 H 856.821 3.50026 -2.27019 0
M  V30 9134 H 855.451 2.97271 -1.25816 0
M  V30 9135 H 854.503 1.77824 -3.36278 0
M  V30 9136 H 855.815 2.52342 -4.30262 0
M  V30 9137 H 854.969 4.80263 -3.70718 0
M  V30 9138 H 853.708 4.08377 -2.66608 0
M  V30 9139 H 852.713 2.92243 -4.65698 0
M  V30 9140 H 853.938 3.67277 -5.71213 0
M  V30 9141 H 851.884 5.16875 -4.03951 0
M  V30 9142 H 851.801 4.90732 -5.75081 0
M  V30 9143 H 853.069 5.89935 -5.09507 0
M  V30 9144 N 857.298 1.47698 0.54982 0
M  V30 9145 C 858.228 1.63622 1.66583 0
M  V30 9146 C 859.209 0.485477 1.63025 0
M  V30 9147 O 860.394 0.715692 1.80531 0
M  V30 9148 C 857.524 1.65721 3.05211 0
M  V30 9149 C 856.478 2.80097 3.2362 0
M  V30 9150 C 855.804 2.67272 4.63109 0
M  V30 9151 C 857.104 4.21612 3.08286 0
M  V30 9152 H 858.798 2.57049 1.53512 0
M  V30 9153 H 856.344 1.23705 0.737099 0
M  V30 9154 H 858.297 1.75451 3.83138 0
M  V30 9155 H 857.021 0.688593 3.19258 0
M  V30 9156 H 855.68 2.69889 2.48104 0
M  V30 9157 H 855.328 1.68422 4.73965 0
M  V30 9158 H 855.028 3.44008 4.76374 0
M  V30 9159 H 856.552 2.78942 5.43161 0
M  V30 9160 H 857.966 4.32758 3.76024 0
M  V30 9161 H 856.363 4.99193 3.33057 0
M  V30 9162 H 857.433 4.39462 2.04942 0
M  V30 9163 N 858.776 -0.797141 1.35954 0
M  V30 9164 C 859.724 -1.93084 1.29697 0
M  V30 9165 C 860.718 -1.68329 0.190152 0
M  V30 9166 O 861.924 -1.7643 0.3567 0
M  V30 9167 H 858.299 -0.634531 0.403577 0
M  V30 9168 H 860.27 -1.95481 2.25455 0
M  V30 9169 C 859.019 -3.29996 1.09536 0
M  V30 9170 H 858.342 -3.49607 1.93946 0
M  V30 9171 H 859.782 -4.09696 1.09202 0
M  V30 9172 C 858.241 -3.36304 -0.200381 0
M  V30 9173 O 858.771 -3.83579 -1.19291 0
M  V30 9174 N 856.977 -2.89587 -0.242406 0
M  V30 9175 H 856.524 -2.51307 0.565897 0
M  V30 9176 H 856.482 -2.94189 -1.10906 0
M  V30 9177 N 860.254 -1.20106 -1.0204 0
M  V30 9178 C 861.184 -0.970301 -2.12385 0
M  V30 9179 C 862.165 0.099378 -1.69809 0
M  V30 9180 O 863.35 -0.057365 -1.94115 0
M  V30 9181 C 860.48 -0.517431 -3.43424 0
M  V30 9182 C 859.434 -1.52992 -3.99722 0
M  V30 9183 C 858.76 -0.933817 -5.26483 0
M  V30 9184 C 860.06 -2.91257 -4.33551 0
M  V30 9185 H 861.754 -1.89316 -2.31948 0
M  V30 9186 H 859.3 -0.911655 -1.11467 0
M  V30 9187 H 861.253 -0.343243 -4.2 0
M  V30 9188 H 859.977 0.441049 -3.23608 0
M  V30 9189 H 858.636 -1.6914 -3.2525 0
M  V30 9190 H 858.284 0.0324763 -5.0299 0
M  V30 9191 H 857.984 -1.60999 -5.65113 0
M  V30 9192 H 859.508 -0.770614 -6.05718 0
M  V30 9193 H 860.922 -2.78642 -5.0103 0
M  V30 9194 H 859.319 -3.55745 -4.83286 0
M  V30 9195 H 860.389 -3.43269 -3.42483 0
M  V30 9196 N 861.732 1.21287 -1.00634 0
M  V30 9197 C 862.98 1.90013 -0.688438 0
M  V30 9198 C 863.301 1.78573 0.783365 0
M  V30 9199 O 862.571 1.1815 1.56261 0
M  V30 9200 H 861.151 0.703336 -0.251648 0
M  V30 9201 H 863.813 1.47346 -1.27574 0
M  V30 9202 H 862.909 2.96879 -0.962781 0
M  V30 9203 N 863.21 0.781244 1.36873 0
M  V30 9204 C 864.438 0.361566 2.03716 0
M  V30 9205 C 864.853 -1.01937 1.58916 0
M  V30 9206 O 864.21 -1.65237 0.774783 0
M  V30 9207 C 864.261 0.406391 3.59208 0
M  V30 9208 O 863.982 1.73286 4.02372 0
M  V30 9209 C 865.483 -0.0236894 4.43294 0
M  V30 9210 H 862.703 0.150133 0.653988 0
M  V30 9211 H 865.247 1.05781 1.75016 0
M  V30 9212 H 863.402 -0.241364 3.86647 0
M  V30 9213 H 863.816 1.67804 4.96933 0
M  V30 9214 H 865.29 0.0588205 5.51969 0
M  V30 9215 H 865.767 -1.07529 4.25833 0
M  V30 9216 H 866.373 0.59624 4.211 0
M  V30 9217 N 864.689 -1.48329 0.532571 0
M  V30 9218 C 865.935 -2.028 -0.000583219 0
M  V30 9219 C 866.268 -1.40858 -1.33688 0
M  V30 9220 O 865.543 -0.555261 -1.86406 0
M  V30 9221 C 865.826 -3.59901 -0.119846 0
M  V30 9222 C 865.679 -4.32318 1.2418 0
M  V30 9223 C 866.998 -4.31904 -0.845372 0
M  V30 9224 H 864.117 -0.736999 0.00126205 0
M  V30 9225 H 866.759 -1.77024 0.690102 0
M  V30 9226 H 864.909 -3.81993 -0.708092 0
M  V30 9227 H 866.581 -4.21637 1.87136 0
M  V30 9228 H 864.824 -3.93635 1.82301 0
M  V30 9229 H 865.495 -5.40697 1.11132 0
M  V30 9230 H 867.971 -4.14658 -0.346159 0
M  V30 9231 H 866.847 -5.41509 -0.897723 0
M  V30 9232 H 867.108 -3.99369 -1.89622 0
M  V30 9233 N 866.167 -0.267825 -1.55308 0
M  V30 9234 C 867.415 0.350343 -1.9904 0
M  V30 9235 C 867.736 1.56924 -1.15758 0
M  V30 9236 O 867.006 1.94358 -0.245336 0
M  V30 9237 H 865.586 0.132435 -0.735167 0
M  V30 9238 H 868.248 -0.371471 -1.91327 0
M  V30 9239 H 867.344 0.645203 -3.05358 0
M  V30 9240 N 867.645 1.57599 0.00500368 0
M  V30 9241 C 868.892 1.90349 0.690895 0
M  V30 9242 C 869.22 0.868045 1.74055 0
M  V30 9243 O 868.475 -0.127855 1.95282 0
M  V30 9244 C 868.774 3.29855 1.37588 0
M  V30 9245 C 868.44 4.48548 0.459906 0
M  V30 9246 C 867.102 4.80752 0.207693 0
M  V30 9247 C 869.454 5.20919 -0.171054 0
M  V30 9248 C 866.782 5.82701 -0.683855 0
M  V30 9249 C 869.134 6.23818 -1.05045 0
M  V30 9250 C 867.798 6.54481 -1.31189 0
M  V30 9251 H 867.068 0.696538 0.252816 0
M  V30 9252 H 869.715 1.91436 -0.0494495 0
M  V30 9253 H 868.02 3.24869 2.19015 0
M  V30 9254 H 869.717 3.52452 1.91255 0
M  V30 9255 H 866.307 4.23384 0.666648 0
M  V30 9256 H 870.491 4.96299 0.0107942 0
M  V30 9257 H 865.747 6.04822 -0.894467 0
M  V30 9258 H 869.921 6.79029 -1.54574 0
M  V30 9259 H 867.548 7.33299 -2.00442 0
M  V30 9260 N 869.123 -0.277682 1.55134 0
M  V30 9261 C 870.353 -1.02677 1.79279 0
M  V30 9262 C 870.761 -1.80599 0.563962 0
M  V30 9263 O 870.104 -1.77416 -0.476378 0
M  V30 9264 C 870.166 -2.03617 2.96277 0
M  V30 9265 C 869.83 -1.44676 4.33495 0
M  V30 9266 C 870.827 -0.864811 5.12657 0
M  V30 9267 C 868.512 -1.47537 4.80144 0
M  V30 9268 C 870.506 -0.319322 6.366 0
M  V30 9269 C 868.193 -0.926016 6.04043 0
M  V30 9270 C 869.191 -0.348988 6.82108 0
M  V30 9271 O 868.879 0.191964 8.03671 0
M  V30 9272 H 868.611 -0.309232 0.601125 0
M  V30 9273 H 871.165 -0.315308 2.02965 0
M  V30 9274 H 869.395 -2.78509 2.68272 0
M  V30 9275 H 871.084 -2.64616 3.07788 0
M  V30 9276 H 871.85 -0.835438 4.7775 0
M  V30 9277 H 867.729 -1.91389 4.19394 0
M  V30 9278 H 871.273 0.131709 6.97476 0
M  V30 9279 H 867.17 -0.952613 6.38432 0
M  V30 9280 H 867.938 0.0808779 8.1846 0
M  V30 9281 N 870.601 -1.47988 -0.541979 0
M  V30 9282 C 872.017 -1.33843 -0.869383 0
M  V30 9283 C 872.217 -0.340374 -1.98604 0
M  V30 9284 O 871.273 0.242696 -2.51331 0
M  V30 9285 C 872.586 -2.73568 -1.24823 0
M  V30 9286 C 874.134 -2.81967 -1.3588 0
M  V30 9287 C 874.609 -4.22368 -1.77114 0
M  V30 9288 N 876.1 -4.24983 -1.84237 0
M  V30 9289 C 876.835 -5.30547 -2.17503 0
M  V30 9290 N 876.331 -6.46401 -2.49275 0
M  V30 9291 N 878.124 -5.17933 -2.18406 0
M  V30 9292 H 870.275 -2.11503 0.195001 0
M  V30 9293 H 872.538 -0.947681 0.0245862 0
M  V30 9294 H 872.244 -3.48107 -0.501435 0
M  V30 9295 H 872.118 -3.06322 -2.20106 0
M  V30 9296 H 874.505 -2.07692 -2.09638 0
M  V30 9297 H 874.586 -2.52848 -0.387478 0
M  V30 9298 H 874.23 -4.97155 -1.0392 0
M  V30 9299 H 874.16 -4.48922 -2.75275 0
M  V30 9300 H 876.651 -3.41411 -1.62009 0
M  V30 9301 H 876.964 -7.22698 -2.73729 0
M  V30 9302 H 875.309 -6.49696 -2.46821 0
M  V30 9303 H 878.5 -4.26445 -1.93034 0
M  V30 9304 H 878.673 -6.00307 -2.44 0
M  V30 9305 N 872.079 0.78992 -1.36375 0
M  V30 9306 C 873.307 1.57873 -1.3373 0
M  V30 9307 C 873.722 1.88624 0.0815544 0
M  V30 9308 O 873.079 1.50085 1.03831 0
M  V30 9309 C 873.13 2.90003 -2.15825 0
M  V30 9310 O 872.851 2.60578 -3.5218 0
M  V30 9311 C 874.352 3.84309 -2.20955 0
M  V30 9312 H 871.572 0.489685 -0.458748 0
M  V30 9313 H 874.116 0.980436 -1.79465 0
M  V30 9314 H 872.271 3.46303 -1.73646 0
M  V30 9315 H 872.685 3.4506 -3.95011 0
M  V30 9316 H 874.159 4.74081 -2.82756 0
M  V30 9317 H 874.636 4.22121 -1.21287 0
M  V30 9318 H 875.242 3.33942 -2.63368 0
M  V30 9319 N 873.557 1.20646 1.01402 0
M  V30 9320 C 874.489 0.915392 2.10127 0
M  V30 9321 C 875.502 -0.0978705 1.62506 0
M  V30 9322 O 876.691 0.133477 1.78 0
M  V30 9323 C 873.791 0.351304 3.37074 0
M  V30 9324 C 872.964 1.41673 4.13821 0
M  V30 9325 C 872.023 0.8635 5.19067 0
M  V30 9326 O 871.049 1.54481 5.47836 0
M  V30 9327 N 872.251 -0.325799 5.79585 0
M  V30 9328 H 875.016 1.85132 2.35682 0
M  V30 9329 H 872.577 1.11048 1.17813 0
M  V30 9330 H 874.569 -0.032996 4.04687 0
M  V30 9331 H 873.139 -0.489242 3.08748 0
M  V30 9332 H 872.359 1.97526 3.41141 0
M  V30 9333 H 873.647 2.1342 4.61876 0
M  V30 9334 H 873.045 -0.896534 5.58551 0
M  V30 9335 H 871.602 -0.651708 6.48534 0
M  V30 9336 N 875.035 -1.20752 1.01276 0
M  V30 9337 C 876.265 -1.93725 0.717934 0
M  V30 9338 C 876.673 -1.74769 -0.724732 0
M  V30 9339 O 876.016 -1.05642 -1.50285 0
M  V30 9340 C 876.078 -3.46196 0.968954 0
M  V30 9341 C 875.742 -3.88909 2.39998 0
M  V30 9342 C 876.739 -3.94982 3.38061 0
M  V30 9343 C 874.424 -4.21006 2.7397 0
M  V30 9344 C 876.418 -4.32558 4.68159 0
M  V30 9345 C 874.105 -4.58257 4.04282 0
M  V30 9346 C 875.103 -4.64004 5.01187 0
M  V30 9347 O 874.791 -5.00403 6.29168 0
M  V30 9348 H 874.523 -0.622663 0.263186 0
M  V30 9349 H 877.077 -1.54299 1.35577 0
M  V30 9350 H 875.307 -3.85728 0.273952 0
M  V30 9351 H 876.996 -4.00394 0.666312 0
M  V30 9352 H 877.762 -3.70353 3.13151 0
M  V30 9353 H 873.641 -4.15725 1.99233 0
M  V30 9354 H 877.185 -4.36959 5.43795 0
M  V30 9355 H 873.082 -4.82341 4.28973 0
M  V30 9356 H 873.85 -5.18409 6.33399 0
M  V30 9357 N 876.513 -0.788492 -1.36457 0
M  V30 9358 C 877.738 -0.371224 -2.04051 0
M  V30 9359 C 878.163 1.004 -1.59064 0
M  V30 9360 O 877.521 1.64663 -0.758679 0
M  V30 9361 C 877.569 -0.442275 -3.57877 0
M  V30 9362 O 876.673 0.55113 -4.08701 0
M  V30 9363 H 876.014 -0.157808 -0.644975 0
M  V30 9364 H 878.544 -1.06935 -1.74431 0
M  V30 9365 H 878.554 -0.305548 -4.06854 0
M  V30 9366 H 877.229 -1.44547 -3.89973 0
M  V30 9367 H 875.806 0.37614 -3.70998 0
M  V30 9368 N 877.991 1.48044 -0.54043 0
M  V30 9369 C 879.216 2.07396 -0.0124765 0
M  V30 9370 C 879.641 1.39288 1.26414 0
M  V30 9371 O 878.999 0.462252 1.75308 0
M  V30 9372 C 879.047 3.60131 0.18377 0
M  V30 9373 O 878.151 3.92995 1.25014 0
M  V30 9374 H 877.492 0.662554 -0.0438026 0
M  V30 9375 H 880.022 1.90306 -0.751327 0
M  V30 9376 H 880.032 4.06003 0.403197 0
M  V30 9377 H 878.707 4.09105 -0.74874 0
M  V30 9378 H 877.284 3.5889 1.01254 0
M  V30 9379 N 879.47 0.276058 1.55163 0
M  V30 9380 C 880.433 -0.597924 2.21263 0
M  V30 9381 C 881.433 -1.0806 1.19078 0
M  V30 9382 O 882.623 -0.980626 1.43977 0
M  V30 9383 C 879.755 -1.82503 2.87933 0
M  V30 9384 H 880.948 -0.0207769 2.99893 0
M  V30 9385 H 878.501 0.0266823 1.56277 0
M  V30 9386 H 879.236 -2.44266 2.13318 0
M  V30 9387 H 879.021 -1.48683 3.62816 0
M  V30 9388 H 880.511 -2.44651 3.38431 0
M  V30 9389 N 880.948 -1.576 0.00335426 0
M  V30 9390 C 881.881 -2.04085 -1.021 0
M  V30 9391 C 882.859 -0.931382 -1.33282 0
M  V30 9392 O 884.043 -1.19976 -1.45389 0
M  V30 9393 C 881.17 -2.44128 -2.34775 0
M  V30 9394 C 880.216 -3.65841 -2.19232 0
M  V30 9395 S 881.049 -5.13616 -1.51521 0
M  V30 9396 C 882.205 -5.56931 -2.8562 0
M  V30 9397 H 882.438 -2.90652 -0.625192 0
M  V30 9398 H 879.971 -1.52998 -0.207611 0
M  V30 9399 H 881.929 -2.67866 -3.1106 0
M  V30 9400 H 880.59 -1.57954 -2.71495 0
M  V30 9401 H 879.783 -3.9162 -3.17253 0
M  V30 9402 H 879.385 -3.42122 -1.51091 0
M  V30 9403 H 881.677 -5.59596 -3.81914 0
M  V30 9404 H 882.62 -6.5683 -2.64536 0
M  V30 9405 H 883.028 -4.84504 -2.89683 0
M  V30 9406 N 882.426 0.269451 -1.5528 0
M  V30 9407 C 883.356 1.33729 -1.91413 0
M  V30 9408 C 884.337 1.51348 -0.776391 0
M  V30 9409 O 885.522 1.64332 -1.03482 0
M  V30 9410 C 882.652 2.69618 -2.18914 0
M  V30 9411 C 881.606 2.66725 -3.34726 0
M  V30 9412 C 880.932 4.06199 -3.47716 0
M  V30 9413 C 882.232 2.25684 -4.71025 0
M  V30 9414 H 883.926 1.03736 -2.80854 0
M  V30 9415 H 881.472 0.497579 -1.3513 0
M  V30 9416 H 883.425 3.44436 -2.42779 0
M  V30 9417 H 882.149 3.01201 -1.26275 0
M  V30 9418 H 880.808 1.94365 -3.10834 0
M  V30 9419 H 880.456 4.3501 -2.52537 0
M  V30 9420 H 880.156 4.05157 -4.25583 0
M  V30 9421 H 881.68 4.8275 -3.73877 0
M  V30 9422 H 883.094 2.90225 -4.94411 0
M  V30 9423 H 881.491 2.35797 -5.51833 0
M  V30 9424 H 882.561 1.20819 -4.69607 0
M  V30 9425 N 883.904 1.48273 0.534124 0
M  V30 9426 C 884.814 1.65162 1.66609 0
M  V30 9427 C 885.83 0.534177 1.65598 0
M  V30 9428 O 887.006 0.804715 1.84625 0
M  V30 9429 C 884.071 1.68354 3.03081 0
M  V30 9430 C 883.132 2.91696 3.1498 0
M  V30 9431 C 882.365 2.94725 4.44941 0
M  V30 9432 O 882.588 2.06285 5.31792 0
M  V30 9433 O 881.522 3.8685 4.61119 0
M  V30 9434 H 885.348 2.60991 1.55298 0
M  V30 9435 H 882.933 1.31626 0.706749 0
M  V30 9436 H 884.815 1.72998 3.84252 0
M  V30 9437 H 883.49 0.756978 3.14725 0
M  V30 9438 H 882.397 2.92586 2.33119 0
M  V30 9439 H 883.73 3.83722 3.0825 0
M  V30 9440 N 885.382 -0.782676 1.36792 0
M  V30 9441 C 886.607 -1.57676 1.34733 0
M  V30 9442 C 887.032 -1.87979 -0.0675253 0
M  V30 9443 O 886.39 -1.48404 -1.04144 0
M  V30 9444 C 886.438 -2.87047 2.18257 0
M  V30 9445 O 885.542 -3.80946 1.57969 0
M  V30 9446 H 884.883 -0.478034 0.460846 0
M  V30 9447 H 887.413 -0.969578 1.80168 0
M  V30 9448 H 887.423 -3.36254 2.31079 0
M  V30 9449 H 886.098 -2.64319 3.21104 0
M  V30 9450 H 884.675 -3.39558 1.54126 0
M  V30 9451 N 886.86 -1.21182 -1.00761 0
M  V30 9452 C 887.79 -0.992773 -2.11344 0
M  V30 9453 C 888.771 0.0813618 -1.69905 0
M  V30 9454 O 889.956 -0.0779503 -1.94043 0
M  V30 9455 C 887.086 -0.553826 -3.42856 0
M  V30 9456 C 886.04 -1.57223 -3.98077 0
M  V30 9457 C 885.366 -0.989605 -5.25463 0
M  V30 9458 C 886.666 -2.95839 -4.30438 0
M  V30 9459 H 888.36 -1.91766 -2.29927 0
M  V30 9460 H 885.906 -0.923426 -1.10494 0
M  V30 9461 H 887.859 -0.387771 -4.19612 0
M  V30 9462 H 886.583 0.406702 -3.24058 0
M  V30 9463 H 885.242 -1.7258 -3.23437 0
M  V30 9464 H 884.89 -0.0208743 -5.02996 0
M  V30 9465 H 884.59 -1.66984 -5.63374 0
M  V30 9466 H 886.114 -0.834815 -6.04866 0
M  V30 9467 H 887.528 -2.8394 -4.98047 0
M  V30 9468 H 885.925 -3.60851 -4.79486 0
M  V30 9469 H 886.995 -3.46882 -3.38823 0
M  V30 9470 N 888.338 1.20213 -1.01915 0
M  V30 9471 C 889.268 2.25336 -0.612023 0
M  V30 9472 C 890.249 1.65933 0.374186 0
M  V30 9473 O 891.434 1.92464 0.259053 0
M  V30 9474 C 888.564 3.47267 0.047904 0
M  V30 9475 C 887.518 4.1928 -0.859557 0
M  V30 9476 C 886.844 5.3466 -0.0652655 0
M  V30 9477 C 888.144 4.75143 -2.1688 0
M  V30 9478 H 889.838 2.59645 -1.49079 0
M  V30 9479 H 887.384 1.24808 -0.718263 0
M  V30 9480 H 889.337 4.19991 0.344294 0
M  V30 9481 H 888.061 3.12129 0.961404 0
M  V30 9482 H 886.72 3.48425 -1.13999 0
M  V30 9483 H 886.368 4.95767 0.849964 0
M  V30 9484 H 886.068 5.83772 -0.669618 0
M  V30 9485 H 887.592 6.10187 0.224612 0
M  V30 9486 H 889.006 5.39672 -1.9346 0
M  V30 9487 H 887.403 5.34702 -2.72422 0
M  V30 9488 H 888.473 3.93744 -2.83008 0
M  V30 9489 N 889.816 0.795718 1.36037 0
M  V30 9490 C 891.227 0.433379 1.816 0
M  V30 9491 C 891.578 -1.04341 1.66155 0
M  V30 9492 O 890.703 -1.81004 1.18603 0
M  V30 9493 C 891.298 0.77985 3.29703 0
M  V30 9494 C 889.857 0.470256 3.73451 0
M  V30 9495 C 889.004 1.01119 2.58206 0
M  V30 9496 H 891.955 0.988317 1.24169 0
M  V30 9497 H 891.976 0.0732898 3.80429 0
M  V30 9498 H 891.488 1.85473 3.40913 0
M  V30 9499 H 889.589 -0.596332 3.67797 0
M  V30 9500 H 889.702 0.995276 4.68648 0
M  V30 9501 H 888.066 0.434077 2.50974 0
M  V30 9502 H 888.849 2.09196 2.72198 0
M  V30 9503 N 891.294 -1.47756 0.548274 0
M  V30 9504 C 892.542 -2.02089 0.0208542 0
M  V30 9505 C 892.863 -1.42589 -1.33017 0
M  V30 9506 O 892.133 -0.597825 -1.86555 0
M  V30 9507 H 890.713 -0.746985 0.00472023 0
M  V30 9508 H 893.375 -1.81262 0.716257 0
M  V30 9509 H 892.471 -3.12012 -0.0739016 0
M  V30 9510 N 892.772 -0.284283 -1.55015 0
M  V30 9511 C 894.021 0.33055 -1.98973 0
M  V30 9512 C 894.334 1.56284 -1.17621 0
M  V30 9513 O 895.54 2.2512 -1.51767 0
M  V30 9514 C 893.996 0.639457 -3.54174 0
M  V30 9515 C 893.604 -0.573543 -4.44313 0
M  V30 9516 C 895.348 1.21641 -4.06699 0
M  V30 9517 C 893.255 -0.238715 -5.90918 0
M  V30 9518 H 892.185 0.127285 -0.743179 0
M  V30 9519 H 894.836 -0.390372 -1.793 0
M  V30 9520 H 893.218 1.41953 -3.69683 0
M  V30 9521 H 894.392 -1.3502 -4.40575 0
M  V30 9522 H 892.707 -1.06797 -4.02472 0
M  V30 9523 H 895.304 1.48088 -5.13784 0
M  V30 9524 H 895.647 2.15328 -3.56286 0
M  V30 9525 H 896.18 0.498422 -3.94665 0
M  V30 9526 H 892.919 -1.1437 -6.45445 0
M  V30 9527 H 892.439 0.500997 -5.97704 0
M  V30 9528 H 894.118 0.165774 -6.46788 0
M  V30 9529 N 894.251 1.57596 -0.0117121 0
M  V30 9530 C 895.667 1.55837 0.344506 0
M  V30 9531 C 895.867 1.01557 1.74036 0
M  V30 9532 O 894.923 0.654563 2.43868 0
M  V30 9533 C 896.236 2.99973 0.209023 0
M  V30 9534 C 897.784 3.11717 0.283092 0
M  V30 9535 C 898.259 4.57659 0.176599 0
M  V30 9536 N 899.75 4.62608 0.234133 0
M  V30 9537 C 900.485 5.73132 0.175252 0
M  V30 9538 N 899.981 6.92768 0.0662888 0
M  V30 9539 N 901.774 5.61638 0.227972 0
M  V30 9540 H 893.925 1.91215 -0.924692 0
M  V30 9541 H 896.188 0.878807 -0.355531 0
M  V30 9542 H 895.894 3.4357 -0.751826 0
M  V30 9543 H 895.768 3.64075 0.98635 0
M  V30 9544 H 898.155 2.68043 1.23439 0
M  V30 9545 H 898.236 2.50369 -0.52431 0
M  V30 9546 H 897.88 5.02011 -0.771205 0
M  V30 9547 H 897.81 5.16967 1.00264 0
M  V30 9548 H 900.301 3.76549 0.319203 0
M  V30 9549 H 900.614 7.72795 0.0275765 0
M  V30 9550 H 898.959 6.94993 0.0317502 0
M  V30 9551 H 902.15 4.67063 0.311377 0
M  V30 9552 H 902.323 6.47754 0.178621 0
M  V30 9553 N 895.729 -0.261212 1.5542 0
M  V30 9554 C 897.006 -1.01321 1.67312 0
M  V30 9555 C 897.386 -2.0388 0.547356 0
M  V30 9556 O 896.734 -2.24003 -0.451083 0
M  V30 9557 C 896.944 -1.65943 3.07024 0
M  V30 9558 C 898.292 -2.16666 3.65159 0
M  V30 9559 O 899.316 -1.75909 3.09733 0
M  V30 9560 O 898.175 -2.91455 4.62294 0
M  V30 9561 H 895.269 -0.470714 0.679968 0
M  V30 9562 H 897.815 -0.256133 1.67756 0
M  V30 9563 H 896.587 -0.916868 3.80407 0
M  V30 9564 H 896.21 -2.48308 3.1053 0
M  V30 9565 N 897.207 -1.48554 -0.526253 0
M  V30 9566 C 898.137 -1.66252 -1.63959 0
M  V30 9567 C 899.118 -0.511351 -1.62232 0
M  V30 9568 O 900.303 -0.744322 -1.7937 0
M  V30 9569 C 897.433 -1.70556 -3.02536 0
M  V30 9570 C 896.387 -2.8521 -3.19123 0
M  V30 9571 C 895.713 -2.74606 -4.58798 0
M  V30 9572 C 897.013 -4.26463 -3.0154 0
M  V30 9573 H 898.707 -2.59459 -1.49404 0
M  V30 9574 H 896.253 -1.24862 -0.717326 0
M  V30 9575 H 898.206 -1.81524 -3.80298 0
M  V30 9576 H 896.93 -0.739297 -3.18123 0
M  V30 9577 H 895.589 -2.73802 -2.43779 0
M  V30 9578 H 895.237 -1.75941 -4.71226 0
M  V30 9579 H 894.937 -3.51544 -4.70841 0
M  V30 9580 H 896.461 -2.87548 -5.38655 0
M  V30 9581 H 897.875 -4.38685 -3.69091 0
M  V30 9582 H 896.272 -5.04428 -3.25073 0
M  V30 9583 H 897.342 -4.42667 -1.97925 0
M  V30 9584 N 898.685 0.775411 -1.37205 0
M  V30 9585 C 899.91 1.5696 -1.35567 0
M  V30 9586 C 900.335 1.88012 0.0575554 0
M  V30 9587 O 899.693 1.48954 1.03355 0
M  V30 9588 C 899.741 2.85886 -2.19776 0
M  V30 9589 O 898.845 3.80103 -1.59987 0
M  V30 9590 H 898.186 0.475583 -0.463375 0
M  V30 9591 H 900.716 0.96001 -1.80679 0
M  V30 9592 H 900.726 3.35024 -2.32859 0
M  V30 9593 H 899.401 2.62613 -3.22502 0
M  V30 9594 H 897.978 3.38736 -1.55924 0
M  V30 9595 N 900.163 1.21714 1.00117 0
M  V30 9596 C 901.093 1.00397 2.10815 0
M  V30 9597 C 902.074 -0.0723502 1.69946 0
M  V30 9598 O 903.259 0.0882398 1.93999 0
M  V30 9599 C 900.389 0.572001 3.42557 0
M  V30 9600 C 899.343 1.59331 3.97237 0
M  V30 9601 C 898.669 1.01746 5.2493 0
M  V30 9602 C 899.969 2.98117 4.28863 0
M  V30 9603 H 901.663 1.92983 2.28906 0
M  V30 9604 H 899.209 0.929273 1.10002 0
M  V30 9605 H 901.162 0.410018 4.19401 0
M  V30 9606 H 899.886 -0.38951 3.24269 0
M  V30 9607 H 898.545 1.74293 3.22518 0
M  V30 9608 H 898.193 0.0475491 5.02978 0
M  V30 9609 H 897.893 1.69969 5.62481 0
M  V30 9610 H 899.417 0.866881 6.04415 0
M  V30 9611 H 900.831 2.86578 4.96534 0
M  V30 9612 H 899.228 3.63389 4.77565 0
M  V30 9613 H 900.298 3.48674 3.36979 0
M  V30 9614 N 901.641 -1.19671 1.02551 0
M  V30 9615 C 903.052 -1.70964 0.750208 0
M  V30 9616 C 903.403 -1.82095 -0.730461 0
M  V30 9617 O 902.528 -1.48974 -1.56958 0
M  V30 9618 C 903.123 -3.10516 1.35518 0
M  V30 9619 C 901.682 -3.59083 1.12854 0
M  V30 9620 C 900.829 -2.36041 1.45534 0
M  V30 9621 H 903.78 -1.04559 1.19386 0
M  V30 9622 H 903.801 -3.73028 0.750378 0
M  V30 9623 H 903.313 -3.02383 2.43282 0
M  V30 9624 H 901.414 -3.72536 0.0689627 0
M  V30 9625 H 901.527 -4.43395 1.81488 0
M  V30 9626 H 899.891 -2.39214 0.87458 0
M  V30 9627 H 900.674 -2.3054 2.54374 0
M  V30 9628 N 903.119 -0.802921 -1.35613 0
M  V30 9629 C 904.53 -0.443004 -1.81368 0
M  V30 9630 C 904.881 1.03459 -1.66706 0
M  V30 9631 O 904.006 1.80372 -1.19561 0
M  V30 9632 C 904.601 -0.797324 -3.29284 0
M  V30 9633 C 903.16 -0.490055 -3.73196 0
M  V30 9634 C 902.307 -1.02487 -2.57666 0
M  V30 9635 H 905.258 -0.994888 -1.23643 0
M  V30 9636 H 905.279 -0.0934638 -3.80385 0
M  V30 9637 H 904.791 -1.87278 -3.39924 0
M  V30 9638 H 902.892 0.576818 -3.68108 0
M  V30 9639 H 903.005 -1.02012 -4.68114 0
M  V30 9640 H 901.369 -0.44738 -2.5074 0
M  V30 9641 H 902.152 -2.10636 -2.71085 0
M  V30 9642 N 904.597 1.47463 -0.556102 0
M  V30 9643 C 905.843 2.02775 -0.0316806 0
M  V30 9644 C 906.176 1.42967 1.3143 0
M  V30 9645 O 905.451 0.584847 1.85499 0
M  V30 9646 C 905.734 3.60046 0.0625742 0
M  V30 9647 C 905.587 4.30288 -1.31043 0
M  V30 9648 C 906.906 4.33195 0.776553 0
M  V30 9649 H 904.025 0.736886 -0.0129869 0
M  V30 9650 H 906.667 1.75904 -0.718177 0
M  V30 9651 H 904.817 3.83071 0.647231 0
M  V30 9652 H 906.489 4.18607 -1.9382 0
M  V30 9653 H 904.732 3.90685 -1.8854 0
M  V30 9654 H 905.403 5.38861 -1.1972 0
M  V30 9655 H 907.879 4.15156 0.280147 0
M  V30 9656 H 906.755 5.42869 0.81146 0
M  V30 9657 H 907.016 4.02336 1.83244 0
M  V30 9658 N 906.075 0.2925 1.54862 0
M  V30 9659 C 907.352 -0.371946 1.92031 0
M  V30 9660 C 907.732 -1.72363 1.21878 0
M  V30 9661 O 907.08 -2.25779 0.351573 0
M  V30 9662 C 907.29 -0.495027 3.45471 0
M  V30 9663 C 908.638 -0.769855 4.17562 0
M  V30 9664 O 909.662 -0.579168 3.5146 0
M  V30 9665 O 908.521 -1.13561 5.34571 0
M  V30 9666 H 905.615 -0.206463 0.800813 0
M  V30 9667 H 908.161 0.339933 1.6626 0
M  V30 9668 H 906.933 0.455528 3.88639 0
M  V30 9669 H 906.556 -1.2557 3.7725 0
M  V30 9670 N 907.553 -1.57587 0.0200696 0
M  V30 9671 C 908.969 -1.56018 -0.336237 0
M  V30 9672 C 909.169 -1.02478 -1.73495 0
M  V30 9673 O 908.225 -0.667487 -2.43518 0
M  V30 9674 C 909.538 -3.00079 -0.193112 0
M  V30 9675 C 911.086 -3.11863 -0.266557 0
M  V30 9676 C 911.561 -4.57747 -0.152326 0
M  V30 9677 N 913.052 -4.62726 -0.209596 0
M  V30 9678 C 913.787 -5.73217 -0.144855 0
M  V30 9679 N 913.283 -6.92794 -0.0295487 0
M  V30 9680 N 915.076 -5.61751 -0.198184 0
M  V30 9681 H 907.227 -1.90722 0.93482 0
M  V30 9682 H 909.49 -0.876909 0.360186 0
M  V30 9683 H 909.196 -3.43167 0.770036 0
M  V30 9684 H 909.07 -3.64593 -0.967029 0
M  V30 9685 H 911.457 -2.68693 -1.22016 0
M  V30 9686 H 911.538 -2.50087 0.53758 0
M  V30 9687 H 911.182 -5.01595 0.797817 0
M  V30 9688 H 911.112 -5.17491 -0.97521 0
M  V30 9689 H 913.603 -3.76713 -0.299229 0
M  V30 9690 H 913.916 -7.72799 0.0134071 0
M  V30 9691 H 912.261 -6.95 0.00510737 0
M  V30 9692 H 915.452 -4.67222 -0.286603 0
M  V30 9693 H 915.625 -6.47839 -0.144266 0
M  V30 9694 N 909.032 0.252966 -1.55557 0
M  V30 9695 C 909.962 1.31691 -1.9282 0
M  V30 9696 C 910.943 1.50516 -0.7924 0
M  V30 9697 O 912.128 1.63225 -1.05219 0
M  V30 9698 C 909.258 2.67281 -2.21762 0
M  V30 9699 C 908.212 2.6316 -3.37536 0
M  V30 9700 C 907.538 4.02488 -3.52005 0
M  V30 9701 C 908.838 2.20675 -4.73392 0
M  V30 9702 H 910.532 1.00751 -2.81939 0
M  V30 9703 H 908.078 0.483219 -1.3565 0
M  V30 9704 H 910.031 3.41842 -2.46419 0
M  V30 9705 H 908.755 2.99845 -1.29463 0
M  V30 9706 H 907.414 1.91057 -3.12878 0
M  V30 9707 H 907.062 4.32307 -2.57137 0
M  V30 9708 H 906.762 4.00621 -4.29857 0
M  V30 9709 H 908.286 4.78758 -3.78977 0
M  V30 9710 H 909.7 2.84965 -4.97461 0
M  V30 9711 H 908.097 2.29931 -5.54303 0
M  V30 9712 H 909.167 1.15831 -4.70862 0
M  V30 9713 N 910.51 1.48831 0.518367 0
M  V30 9714 C 911.758 1.57128 1.27103 0
M  V30 9715 C 912.079 0.252098 1.93364 0
M  V30 9716 O 911.349 -0.727281 1.819 0
M  V30 9717 H 909.929 0.578891 0.472116 0
M  V30 9718 H 912.591 1.85361 0.602262 0
M  V30 9719 H 911.687 2.35838 2.04418 0
M  V30 9720 N 911.988 -0.768124 1.37614 0
M  V30 9721 C 912.918 -1.89537 1.36374 0
M  V30 9722 C 913.899 -1.68513 0.231803 0
M  V30 9723 O 915.084 -1.89318 0.432705 0
M  V30 9724 C 912.214 -3.26871 1.17358 0
M  V30 9725 C 911.168 -3.62466 2.27602 0
M  V30 9726 C 910.494 -4.9838 1.93705 0
M  V30 9727 C 911.794 -3.68841 3.69802 0
M  V30 9728 H 913.488 -1.90832 2.30702 0
M  V30 9729 H 911.034 -0.91672 1.11051 0
M  V30 9730 H 912.987 -4.05371 1.15119 0
M  V30 9731 H 911.711 -3.26018 0.194865 0
M  V30 9732 H 910.37 -2.86276 2.29002 0
M  V30 9733 H 910.018 -4.94071 0.943539 0
M  V30 9734 H 909.718 -5.23165 2.6753 0
M  V30 9735 H 911.242 -5.79276 1.93059 0
M  V30 9736 H 912.656 -4.37485 3.70513 0
M  V30 9737 H 911.053 -4.05126 4.42711 0
M  V30 9738 H 912.123 -2.69415 4.03167 0
M  V30 9739 N 913.466 -1.22244 -0.994698 0
M  V30 9740 C 914.398 -0.948706 -2.08644 0
M  V30 9741 C 915.411 0.0720049 -1.62641 0
M  V30 9742 O 916.6 -0.161778 -1.77765 0
M  V30 9743 C 913.7 -0.404885 -3.36473 0
M  V30 9744 C 912.873 -1.48239 -4.11514 0
M  V30 9745 C 911.932 -0.94597 -5.17627 0
M  V30 9746 O 910.958 -1.63177 -5.45309 0
M  V30 9747 N 912.16 0.23355 -5.8003 0
M  V30 9748 H 914.925 -1.88858 -2.32707 0
M  V30 9749 H 912.486 -1.12908 -1.16032 0
M  V30 9750 H 914.478 -0.0313903 -4.04688 0
M  V30 9751 H 913.048 0.440061 -3.09487 0
M  V30 9752 H 912.268 -2.02928 -3.37955 0
M  V30 9753 H 913.556 -2.20741 -4.58422 0
M  V30 9754 H 912.954 0.80756 -5.59906 0
M  V30 9755 H 911.511 0.54845 -6.49488 0
M  V30 9756 N 914.944 1.19125 -1.03184 0
M  V30 9757 C 915.892 2.24492 -0.608781 0
M  V30 9758 C 916.886 1.65529 0.360065 0
M  V30 9759 O 918.092 1.78546 0.22832 0
M  V30 9760 H 914.467 0.73048 -0.178616 0
M  V30 9761 H 916.438 2.5749 -1.50803 0
M  V30 9762 C 915.187 3.47693 0.0215126 0
M  V30 9763 H 914.51 3.93354 -0.715024 0
M  V30 9764 H 915.95 4.23072 0.280429 0
M  V30 9765 C 914.409 3.12088 1.26896 0
M  V30 9766 O 914.939 3.25013 2.36071 0
M  V30 9767 N 913.145 2.66494 1.15886 0
M  V30 9768 H 912.692 2.56176 0.270463 0
M  V30 9769 H 912.65 2.43042 1.99444 0
M  V30 9770 N 916.422 0.810101 1.35185 0
M  V30 9771 C 917.699 0.315235 1.93043 0
M  V30 9772 C 918.079 -1.19567 1.73974 0
M  V30 9773 O 917.427 -1.99682 1.11083 0
M  V30 9774 C 917.637 0.730492 3.41269 0
M  V30 9775 C 918.985 0.721985 4.18417 0
M  V30 9776 O 920.009 0.672258 3.49799 0
M  V30 9777 O 918.868 0.783535 5.40854 0
M  V30 9778 H 915.962 0.0832774 0.822796 0
M  V30 9779 H 918.508 0.894034 1.4424 0
M  V30 9780 H 917.28 1.77169 3.48894 0
M  V30 9781 H 916.903 0.12669 3.97398 0
M  V30 9782 N 917.9 -1.47166 0.563914 0
M  V30 9783 C 918.83 -2.32894 -0.168148 0
M  V30 9784 C 919.811 -1.44202 -0.902214 0
M  V30 9785 O 920.996 -1.73048 -0.881365 0
M  V30 9786 C 918.126 -3.26116 -1.19439 0
M  V30 9787 C 917.08 -4.24101 -0.576363 0
M  V30 9788 C 916.406 -5.06696 -1.70772 0
M  V30 9789 C 917.706 -5.20142 0.47425 0
M  V30 9790 H 919.4 -2.9435 0.547573 0
M  V30 9791 H 916.946 -1.41545 0.264778 0
M  V30 9792 H 918.899 -3.84935 -1.71474 0
M  V30 9793 H 917.623 -2.62728 -1.94014 0
M  V30 9794 H 916.282 -3.66519 -0.0772534 0
M  V30 9795 H 915.93 -4.39707 -2.44268 0
M  V30 9796 H 915.63 -5.7304 -1.29994 0
M  V30 9797 H 917.154 -5.68375 -2.2312 0
M  V30 9798 H 918.568 -5.73286 0.0397035 0
M  V30 9799 H 916.965 -5.94726 0.801287 0
M  V30 9800 H 918.035 -4.65214 1.36764 0
M  V30 9801 N 919.378 -0.300708 -1.54705 0
M  V30 9802 C 920.625 0.308654 -2.00134 0
M  V30 9803 C 920.953 1.53918 -1.1891 0
M  V30 9804 O 920.208 1.94054 -0.253263 0
M  V30 9805 C 920.507 0.710108 -3.50275 0
M  V30 9806 C 920.173 -0.418651 -4.48952 0
M  V30 9807 C 918.835 -0.728524 -4.75653 0
M  V30 9808 C 921.187 -1.17797 -5.07714 0
M  V30 9809 C 918.515 -1.80085 -5.58378 0
M  V30 9810 C 920.867 -2.24022 -5.91606 0
M  V30 9811 C 919.531 -2.55616 -6.16617 0
M  V30 9812 H 918.801 0.112945 -0.732342 0
M  V30 9813 H 921.448 -0.419744 -1.86843 0
M  V30 9814 H 919.753 1.51859 -3.61173 0
M  V30 9815 H 921.45 1.19277 -3.8285 0
M  V30 9816 H 918.04 -0.167034 -4.28274 0
M  V30 9817 H 922.224 -0.951835 -4.87087 0
M  V30 9818 H 917.48 -2.05036 -5.75995 0
M  V30 9819 H 921.654 -2.83317 -6.36164 0
M  V30 9820 H 919.281 -3.38839 -6.80509 0
M  V30 9821 N 920.856 1.57574 -0.0284266 0
M  V30 9822 C 922.081 1.96479 0.664137 0
M  V30 9823 C 922.506 0.904826 1.64908 0
M  V30 9824 O 921.864 -0.134339 1.80802 0
M  V30 9825 C 921.912 3.34479 1.34745 0
M  V30 9826 O 921.016 3.30794 2.46271 0
M  V30 9827 H 920.357 0.640654 0.174524 0
M  V30 9828 H 922.887 2.04402 -0.0900729 0
M  V30 9829 H 922.897 3.70694 1.7044 0
M  V30 9830 H 921.572 4.1117 0.625468 0
M  V30 9831 H 920.149 3.06294 2.12693 0
M  V30 9832 N 922.334 -0.244713 1.55689 0
M  V30 9833 C 923.264 -1.30667 1.93516 0
M  V30 9834 C 924.245 -1.50094 0.800371 0
M  V30 9835 O 925.43 -1.62665 1.06083 0
M  V30 9836 C 922.56 -2.66101 2.23176 0
M  V30 9837 C 921.514 -2.61366 3.38927 0
M  V30 9838 C 920.84 -4.00616 3.54134 0
M  V30 9839 C 922.14 -2.18161 4.74555 0
M  V30 9840 H 923.834 -0.992546 2.82469 0
M  V30 9841 H 921.38 -0.476018 1.35905 0
M  V30 9842 H 923.333 -3.4053 2.48228 0
M  V30 9843 H 922.057 -2.99154 1.31051 0
M  V30 9844 H 920.716 -1.89395 3.13887 0
M  V30 9845 H 920.364 -4.30938 2.59426 0
M  V30 9846 H 920.064 -3.98335 4.31975 0
M  V30 9847 H 921.588 -4.76741 3.8151 0
M  V30 9848 H 923.002 -2.82323 4.98965 0
M  V30 9849 H 921.399 -2.26988 5.55515 0
M  V30 9850 H 922.469 -1.13333 4.7147 0
M  V30 9851 N 923.813 -1.49104 -0.510467 0
M  V30 9852 C 924.776 -1.64569 -1.59529 0
M  V30 9853 C 925.776 -0.517937 -1.5223 0
M  V30 9854 O 926.966 -0.784183 -1.55551 0
M  V30 9855 C 924.098 -1.6342 -2.99177 0
M  V30 9856 H 925.291 -2.61318 -1.4715 0
M  V30 9857 H 922.844 -1.37993 -0.734001 0
M  V30 9858 H 923.579 -0.68221 -3.17043 0
M  V30 9859 H 923.364 -2.45312 -3.05883 0
M  V30 9860 H 924.854 -1.77474 -3.78011 0
M  V30 9861 N 925.291 0.760815 -1.38019 0
M  V30 9862 C 926.707 1.06289 -1.19058 0
M  V30 9863 C 926.907 2.01471 -0.0342603 0
M  V30 9864 O 925.963 2.44713 0.62224 0
M  V30 9865 C 927.276 1.6499 -2.51394 0
M  V30 9866 C 928.824 1.77196 -2.58013 0
M  V30 9867 C 929.299 2.3931 -3.90506 0
M  V30 9868 N 930.79 2.46749 -3.92007 0
M  V30 9869 C 931.525 2.95687 -4.91281 0
M  V30 9870 N 931.021 3.44715 -6.00952 0
M  V30 9871 N 932.814 2.94661 -4.78677 0
M  V30 9872 H 924.965 0.129045 -2.12008 0
M  V30 9873 H 927.228 0.119878 -0.94039 0
M  V30 9874 H 926.934 1.0252 -3.36426 0
M  V30 9875 H 926.808 2.64146 -2.6927 0
M  V30 9876 H 929.195 2.38796 -1.7338 0
M  V30 9877 H 929.276 0.767645 -2.4401 0
M  V30 9878 H 928.92 1.78346 -4.75558 0
M  V30 9879 H 928.85 3.40369 -4.01817 0
M  V30 9880 H 931.341 2.12064 -3.12789 0
M  V30 9881 H 931.654 3.80492 -6.72641 0
M  V30 9882 H 929.999 3.42791 -6.04582 0
M  V30 9883 H 933.19 2.55665 -3.92113 0
M  V30 9884 H 933.363 3.32489 -5.56197 0
M  V30 9885 N 926.769 1.22769 0.988202 0
M  V30 9886 C 927.732 1.00325 2.06076 0
M  V30 9887 C 928.732 -0.0320618 1.60768 0
M  V30 9888 O 929.922 0.206912 1.72967 0
M  V30 9889 C 927.054 0.516376 3.36966 0
M  V30 9890 H 928.247 1.95499 2.27421 0
M  V30 9891 H 925.8 1.04704 1.16047 0
M  V30 9892 H 926.535 -0.439498 3.21308 0
M  V30 9893 H 926.32 1.26337 3.71189 0
M  V30 9894 H 927.81 0.37974 4.1587 0
M  V30 9895 N 928.247 -1.18576 1.03814 0
M  V30 9896 C 929.495 -1.88121 0.738574 0
M  V30 9897 C 929.816 -1.80587 -0.735744 0
M  V30 9898 O 929.086 -1.22251 -1.53074 0
M  V30 9899 H 927.666 -0.696417 0.270208 0
M  V30 9900 H 930.328 -1.43912 1.31435 0
M  V30 9901 H 929.424 -2.94222 1.04115 0
M  V30 9902 N 929.725 -0.817259 -1.34754 0
M  V30 9903 C 930.974 -0.39908 -1.97713 0
M  V30 9904 C 931.287 1.04203 -1.65533 0
M  V30 9905 O 932.493 1.56384 -2.21937 0
M  V30 9906 C 930.949 -0.662634 -3.53747 0
M  V30 9907 C 930.557 -2.11699 -3.94826 0
M  V30 9908 C 932.301 -0.31034 -4.23364 0
M  V30 9909 C 930.208 -2.32573 -5.4375 0
M  V30 9910 H 929.138 -0.145488 -0.739831 0
M  V30 9911 H 931.789 -1.00282 -1.53674 0
M  V30 9912 H 930.171 0.0111972 -3.95998 0
M  V30 9913 H 931.345 -2.82951 -3.63697 0
M  V30 9914 H 929.66 -2.43017 -3.3813 0
M  V30 9915 H 932.257 -0.44421 -5.32852 0
M  V30 9916 H 932.6 0.744594 -4.09587 0
M  V30 9917 H 933.133 -0.938518 -3.8657 0
M  V30 9918 H 929.872 -3.36551 -5.62507 0
M  V30 9919 H 929.392 -1.65858 -5.76412 0
M  V30 9920 H 931.071 -2.14651 -6.10356 0
M  V30 9921 N 931.203 1.46865 -0.571711 0
M  V30 9922 C 932.452 2.01636 -0.050881 0
M  V30 9923 C 932.765 1.45001 1.31279 0
M  V30 9924 O 933.971 1.91523 1.92435 0
M  V30 9925 C 932.427 3.59877 -0.0404114 0
M  V30 9926 C 932.035 4.25506 -1.40172 0
M  V30 9927 C 933.779 4.22346 0.42705 0
M  V30 9928 C 931.686 5.75795 -1.34958 0
M  V30 9929 H 930.616 0.753846 -0.0152514 0
M  V30 9930 H 933.267 1.68711 -0.721723 0
M  V30 9931 H 931.649 3.89829 0.696374 0
M  V30 9932 H 932.823 4.07178 -2.15737 0
M  V30 9933 H 931.138 3.75086 -1.8083 0
M  V30 9934 H 933.735 5.32499 0.484688 0
M  V30 9935 H 934.078 3.9052 1.44222 0
M  V30 9936 H 934.611 3.9698 -0.255326 0
M  V30 9937 H 931.35 6.12265 -2.3412 0
M  V30 9938 H 930.87 5.96419 -0.635962 0
M  V30 9939 H 932.549 6.38294 -1.05779 0
M  V30 9940 N 932.681 0.308908 1.54543 0
M  V30 9941 C 933.906 -0.303196 2.05172 0
M  V30 9942 C 934.331 -1.46133 1.18434 0
M  V30 9943 O 933.689 -1.803 0.190162 0
M  V30 9944 C 933.737 -0.729526 3.53143 0
M  V30 9945 O 932.841 -1.83348 3.69401 0
M  V30 9946 H 932.182 -0.0575066 0.661505 0
M  V30 9947 H 934.712 0.453055 1.99521 0
M  V30 9948 H 934.722 -1.01619 3.95143 0
M  V30 9949 H 933.397 0.117622 4.15734 0
M  V30 9950 H 931.974 -1.54676 3.39308 0
M  V30 9951 N 934.159 -1.57557 0.0367827 0
M  V30 9952 C 935.387 -1.96419 -0.650168 0
M  V30 9953 C 935.802 -0.913656 -1.6522 0
M  V30 9954 O 935.159 0.103718 -1.82205 0
M  V30 9955 C 935.21 -3.35355 -1.3498 0
M  V30 9956 O 934.931 -4.36379 -0.387905 0
M  V30 9957 C 936.432 -3.88892 -2.12786 0
M  V30 9958 H 933.652 -0.646751 -0.178756 0
M  V30 9959 H 936.196 -2.04261 0.0988197 0
M  V30 9960 H 934.351 -3.28708 -2.05012 0
M  V30 9961 H 934.765 -5.16969 -0.885596 0
M  V30 9962 H 936.239 -4.88428 -2.5718 0
M  V30 9963 H 936.716 -3.23547 -2.97008 0
M  V30 9964 H 937.322 -3.98831 -1.47694 0
M  V30 9965 N 935.637 0.236453 -1.55816 0
M  V30 9966 C 936.883 0.964439 -1.784 0
M  V30 9967 C 937.216 1.84573 -0.603868 0
M  V30 9968 O 936.491 1.90395 0.397473 0
M  V30 9969 C 936.774 1.81608 -3.10951 0
M  V30 9970 C 936.627 0.962283 -4.39386 0
M  V30 9971 C 937.946 2.79665 -3.39817 0
M  V30 9972 H 935.065 0.349192 -0.649026 0
M  V30 9973 H 937.707 0.234247 -1.8855 0
M  V30 9974 H 935.857 2.43864 -3.02428 0
M  V30 9975 H 937.529 0.35762 -4.59912 0
M  V30 9976 H 935.772 0.267062 -4.32977 0
M  V30 9977 H 936.443 1.59222 -5.28538 0
M  V30 9978 H 938.919 2.27546 -3.4837 0
M  V30 9979 H 937.795 3.36367 -4.33761 0
M  V30 9980 H 938.056 3.56657 -2.61244 0
M  V30 9981 N 937.115 1.49373 0.502552 0
M  V30 9982 C 938.025 1.68659 1.63068 0
M  V30 9983 C 939.041 0.569182 1.64427 0
M  V30 9984 O 940.217 0.843695 1.82876 0
M  V30 9985 C 937.282 1.74745 2.99441 0
M  V30 9986 C 936.343 2.98311 3.08721 0
M  V30 9987 C 935.576 3.04097 4.38589 0
M  V30 9988 O 935.799 2.17519 5.27297 0
M  V30 9989 O 934.733 3.96544 4.52809 0
M  V30 9990 H 938.559 2.64226 1.49727 0
M  V30 9991 H 936.144 1.33096 0.67867 0
M  V30 9992 H 938.026 1.8111 3.80496 0
M  V30 9993 H 936.701 0.823565 3.13048 0
M  V30 9994 H 935.608 2.97465 2.2686 0
M  V30 9995 H 936.941 3.90174 3.00041 0
M  V30 9996 N 938.594 -0.753485 1.38421 0
M  V30 9997 C 939.84 -1.51485 1.34834 0
M  V30 9998 C 940.173 -1.94102 -0.0615381 0
M  V30 9999 O 939.448 -1.65439 -1.02274 0
M  V30 10000 C 939.731 -2.76736 2.30411 0
M  V30 10001 C 939.584 -2.40256 3.80259 0
M  V30 10002 C 940.903 -3.7876 2.24119 0
M  V30 10003 H 938.022 -0.549534 0.491102 0
M  V30 10004 H 940.664 -0.863006 1.6927 0
M  V30 10005 H 938.814 -3.32357 2.01175 0
M  V30 10006 H 940.486 -1.90409 4.20169 0
M  V30 10007 H 938.729 -1.72714 3.97935 0
M  V30 10008 H 939.4 -3.29869 4.42595 0
M  V30 10009 H 941.876 -3.32679 2.49928 0
M  V30 10010 H 940.752 -4.64092 2.93104 0
M  V30 10011 H 941.013 -4.24352 1.24006 0
M  V30 10012 N 940.072 -1.23292 -0.981677 0
M  V30 10013 C 941.002 -1.03738 -2.09191 0
M  V30 10014 C 941.983 0.0453041 -1.7004 0
M  V30 10015 O 943.168 -0.119092 -1.93834 0
M  V30 10016 C 940.298 -0.626426 -3.41604 0
M  V30 10017 C 939.252 -1.65631 -3.94652 0
M  V30 10018 C 938.578 -1.10084 -5.23245 0
M  V30 10019 C 939.878 -3.04903 -4.24066 0
M  V30 10020 H 941.572 -1.966 -2.25807 0
M  V30 10021 H 939.118 -0.946656 -1.0851 0
M  V30 10022 H 941.071 -0.476689 -4.18695 0
M  V30 10023 H 939.795 0.337873 -3.24848 0
M  V30 10024 H 938.454 -1.79402 -3.19704 0
M  V30 10025 H 938.102 -0.127562 -5.02838 0
M  V30 10026 H 937.802 -1.78896 -5.59705 0
M  V30 10027 H 939.326 -0.962928 -6.02959 0
M  V30 10028 H 940.74 -2.94441 -4.91912 0
M  V30 10029 H 939.137 -3.70941 -4.71724 0
M  V30 10030 H 940.207 -3.53991 -3.31389 0
M  V30 10031 N 941.55 1.18024 -1.04442 0
M  V30 10032 C 942.497 2.21785 -0.638759 0
M  V30 10033 C 943.467 1.62255 0.355312 0
M  V30 10034 O 944.652 1.89176 0.24844 0
M  V30 10035 C 941.792 3.45098 -0.0118002 0
M  V30 10036 C 940.905 4.1895 -1.05379 0
M  V30 10037 C 940.04 5.2973 -0.394951 0
M  V30 10038 C 939.079 5.95359 -1.42178 0
M  V30 10039 N 938.216 6.97668 -0.787635 0
M  V30 10040 H 943.056 2.55839 -1.52808 0
M  V30 10041 H 940.593 1.25681 -0.764378 0
M  V30 10042 H 942.551 4.15564 0.369075 0
M  V30 10043 H 941.181 3.11652 0.84102 0
M  V30 10044 H 940.233 3.47274 -1.55258 0
M  V30 10045 H 941.545 4.63877 -1.83355 0
M  V30 10046 H 940.699 6.06687 0.0399244 0
M  V30 10047 H 939.438 4.85915 0.416867 0
M  V30 10048 H 938.443 5.17139 -1.86675 0
M  V30 10049 H 939.668 6.41255 -2.23536 0
M  V30 10050 H 937.614 6.56 0.00380893 0
M  V30 10051 H 937.531 7.40867 -1.50505 0
M  V30 10052 H 938.799 7.78586 -0.377282 0
M  V30 10053 N 943.028 0.824394 1.34319 0
M  V30 10054 C 944.274 0.413779 1.98534 0
M  V30 10055 C 944.607 -1.02089 1.65201 0
M  V30 10056 O 943.882 -1.71129 0.924402 0
M  V30 10057 C 944.165 0.61801 3.54757 0
M  V30 10058 C 944.018 2.0989 3.97827 0
M  V30 10059 C 945.337 0.0549041 4.40066 0
M  V30 10060 H 942.456 0.151815 0.721194 0
M  V30 10061 H 945.098 1.03723 1.5919 0
M  V30 10062 H 943.248 0.0873107 3.88402 0
M  V30 10063 H 944.92 2.69335 3.74508 0
M  V30 10064 H 943.163 2.58881 3.48085 0
M  V30 10065 H 943.834 2.1926 5.06586 0
M  V30 10066 H 946.31 0.508348 4.12983 0
M  V30 10067 H 945.186 0.227595 5.48428 0
M  V30 10068 H 945.447 -1.04025 4.29687 0
M  V30 10069 N 944.506 -1.46559 0.579492 0
M  V30 10070 C 945.439 -2.27287 -0.203894 0
M  V30 10071 C 946.417 -1.3543 -0.899865 0
M  V30 10072 O 947.601 -1.64836 -0.914398 0
M  V30 10073 C 944.728 -3.13077 -1.2923 0
M  V30 10074 C 943.774 -4.20675 -0.702505 0
M  V30 10075 S 944.607 -5.3345 0.468136 0
M  V30 10076 C 945.763 -6.22806 -0.621544 0
M  V30 10077 H 945.996 -2.93382 0.481083 0
M  V30 10078 H 943.529 -1.49992 0.366311 0
M  V30 10079 H 945.487 -3.63069 -1.91548 0
M  V30 10080 H 944.148 -2.46302 -1.94921 0
M  V30 10081 H 943.341 -4.80516 -1.52053 0
M  V30 10082 H 942.943 -3.73678 -0.155046 0
M  V30 10083 H 945.235 -6.60503 -1.50803 0
M  V30 10084 H 946.178 -7.08075 -0.059961 0
M  V30 10085 H 946.586 -5.56882 -0.924242 0
M  V30 10086 N 945.984 -0.3171 -1.54377 0
M  V30 10087 C 946.894 0.560867 -2.27797 0
M  V30 10088 C 947.91 1.13473 -1.31908 0
M  V30 10089 O 949.086 1.15608 -1.64914 0
M  V30 10090 C 946.151 1.70886 -3.0166 0
M  V30 10091 C 945.212 1.16745 -4.13121 0
M  V30 10092 C 944.445 2.26073 -4.83453 0
M  V30 10093 O 944.668 3.46292 -4.53252 0
M  V30 10094 O 943.602 1.91856 -5.70504 0
M  V30 10095 H 947.428 -0.035193 -3.0368 0
M  V30 10096 H 945.013 -0.0830062 -1.49169 0
M  V30 10097 H 946.895 2.37736 -3.47936 0
M  V30 10098 H 945.57 2.29122 -2.28658 0
M  V30 10099 H 944.477 0.464224 -3.71209 0
M  V30 10100 H 945.81 0.630307 -4.88147 0
M  V30 10101 N 947.462 1.57535 -0.0451378 0
M  V30 10102 C 948.425 2.1008 0.916461 0
M  V30 10103 C 949.425 1.01913 1.2438 0
M  V30 10104 O 950.615 1.2801 1.18148 0
M  V30 10105 C 947.747 2.58001 2.22818 0
M  V30 10106 H 948.94 2.96334 0.461076 0
M  V30 10107 H 946.493 1.54974 0.203169 0
M  V30 10108 H 947.228 1.75123 2.72951 0
M  V30 10109 H 947.013 3.3704 2.00366 0
M  V30 10110 H 948.503 2.98822 2.9171 0
M  V30 10111 N 948.94 -0.228186 1.55939 0
M  V30 10112 C 950.187 -0.953552 1.78644 0
M  V30 10113 C 950.515 -1.84596 0.61275 0
M  V30 10114 O 949.77 -1.91502 -0.403175 0
M  V30 10115 C 950.069 -1.82924 3.0704 0
M  V30 10116 C 949.735 -1.09062 4.37511 0
M  V30 10117 C 948.397 -0.886565 4.72962 0
M  V30 10118 C 950.749 -0.568533 5.1809 0
M  V30 10119 C 948.077 -0.148413 5.86512 0
M  V30 10120 C 950.429 0.156243 6.32407 0
M  V30 10121 C 949.093 0.371612 6.66465 0
M  V30 10122 H 948.363 -0.348929 0.653704 0
M  V30 10123 H 951.01 -0.222211 1.90206 0
M  V30 10124 H 949.315 -2.62823 2.90571 0
M  V30 10125 H 951.012 -2.3925 3.21808 0
M  V30 10126 H 947.602 -1.25963 4.09672 0
M  V30 10127 H 951.786 -0.713673 4.91142 0
M  V30 10128 H 947.042 0.0287418 6.11393 0
M  V30 10129 H 951.216 0.568333 6.94077 0
M  V30 10130 H 948.843 0.945522 7.54297 0
M  V30 10131 N 950.418 -1.49637 -0.494624 0
M  V30 10132 C 951.664 -1.59681 -1.25019 0
M  V30 10133 C 951.997 -0.285511 -1.9209 0
M  V30 10134 O 951.272 0.711398 -1.81023 0
M  V30 10135 C 951.555 -2.76058 -2.31222 0
M  V30 10136 C 951.408 -4.17002 -1.68611 0
M  V30 10137 C 952.727 -2.88056 -3.32734 0
M  V30 10138 H 949.846 -0.581209 -0.453172 0
M  V30 10139 H 952.488 -1.81944 -0.547391 0
M  V30 10140 H 950.638 -2.57207 -2.91164 0
M  V30 10141 H 952.31 -4.47385 -1.12447 0
M  V30 10142 H 950.553 -4.22352 -0.989991 0
M  V30 10143 H 951.224 -4.94316 -2.45674 0
M  V30 10144 H 953.7 -3.05237 -2.82789 0
M  V30 10145 H 952.576 -3.71151 -4.04399 0
M  V30 10146 H 952.837 -1.97676 -3.95445 0
M  V30 10147 N 951.896 0.746133 -1.38819 0
M  V30 10148 C 952.844 1.88137 -1.36774 0
M  V30 10149 C 953.838 1.67508 -0.252495 0
M  V30 10150 O 955.044 1.74985 -0.421935 0
M  V30 10151 H 951.419 0.619116 -0.426849 0
M  V30 10152 H 953.39 1.86978 -2.32555 0
M  V30 10153 C 952.139 3.25703 -1.21708 0
M  V30 10154 H 951.462 3.42168 -2.06788 0
M  V30 10155 H 952.902 4.05361 -1.24332 0
M  V30 10156 C 951.361 3.36816 0.0754257 0
M  V30 10157 O 951.891 3.87742 1.04972 0
M  V30 10158 N 950.097 2.90287 0.134761 0
M  V30 10159 H 949.644 2.49034 -0.658779 0
M  V30 10160 H 949.602 2.98103 0.999109 0
M  V30 10161 N 953.375 1.23811 0.975125 0
M  V30 10162 C 954.285 1.0408 2.10249 0
M  V30 10163 C 955.301 -0.0162404 1.73992 0
M  V30 10164 O 956.477 0.180346 2.00591 0
M  V30 10165 C 953.542 0.640013 3.40741 0
M  V30 10166 C 952.603 1.7727 3.90991 0
M  V30 10167 C 951.836 1.39094 5.15256 0
M  V30 10168 O 952.059 0.277483 5.69725 0
M  V30 10169 O 950.993 2.21392 5.59704 0
M  V30 10170 H 954.819 1.98575 2.29786 0
M  V30 10171 H 952.404 1.02563 1.08633 0
M  V30 10172 H 954.286 0.427684 4.19224 0
M  V30 10173 H 952.961 -0.27589 3.22522 0
M  V30 10174 H 951.868 2.03971 3.13602 0
M  V30 10175 H 953.201 2.66711 4.13674 0
M  V30 10176 N 954.853 -1.17469 1.05066 0
M  V30 10177 C 956.264 -1.69334 0.786304 0
M  V30 10178 C 956.615 -1.83604 -0.691671 0
M  V30 10179 O 955.74 -1.52269 -1.53763 0
M  V30 10180 C 956.335 -3.07572 1.42074 0
M  V30 10181 C 954.894 -3.56609 1.20446 0
M  V30 10182 C 954.041 -2.329 1.50508 0
M  V30 10183 H 956.992 -1.02003 1.21577 0
M  V30 10184 H 957.013 -3.71352 0.829334 0
M  V30 10185 H 956.525 -2.97154 2.49642 0
M  V30 10186 H 954.626 -3.72306 0.147968 0
M  V30 10187 H 954.739 -4.39446 1.90852 0
M  V30 10188 H 953.103 -2.37305 0.925124 0
M  V30 10189 H 953.886 -2.25093 2.59207 0
M  V30 10190 N 956.331 -0.831506 -1.3388 0
M  V30 10191 C 957.279 -0.247896 -2.31275 0
M  V30 10192 C 958.273 0.616083 -1.578 0
M  V30 10193 O 959.479 0.506465 -1.72728 0
M  V30 10194 H 955.854 -0.0614293 -0.749487 0
M  V30 10195 H 957.825 -1.08401 -2.78014 0
M  V30 10196 C 956.574 0.568434 -3.43022 0
M  V30 10197 H 955.897 -0.0870654 -3.99705 0
M  V30 10198 H 957.337 0.942751 -4.13386 0
M  V30 10199 C 955.796 1.74431 -2.88228 0
M  V30 10200 O 956.326 2.84278 -2.83811 0
M  V30 10201 N 954.532 1.56382 -2.44935 0
M  V30 10202 H 954.079 0.670255 -2.48727 0
M  V30 10203 H 954.037 2.35208 -2.08625 0
M  V30 10204 N 957.809 1.4625 -0.587256 0
M  V30 10205 C 959.039 2.06444 -0.0802135 0
M  V30 10206 C 959.447 1.43585 1.23207 0
M  V30 10207 O 958.79 0.536956 1.75677 0
M  V30 10208 C 958.852 3.59165 0.155129 0
M  V30 10209 C 958.516 4.44243 -1.07225 0
M  V30 10210 C 959.513 4.80497 -1.98542 0
M  V30 10211 C 957.198 4.8531 -1.29537 0
M  V30 10212 C 959.192 5.56649 -3.10516 0
M  V30 10213 C 956.879 5.61221 -2.41815 0
M  V30 10214 C 957.877 5.96805 -3.32134 0
M  V30 10215 O 957.565 6.71181 -4.42461 0
M  V30 10216 H 957.297 0.673626 -0.0566063 0
M  V30 10217 H 959.851 1.88797 -0.809004 0
M  V30 10218 H 958.081 3.75137 0.938583 0
M  V30 10219 H 959.77 4.01271 0.611243 0
M  V30 10220 H 960.536 4.49345 -1.82522 0
M  V30 10221 H 956.415 4.5706 -0.601431 0
M  V30 10222 H 959.959 5.84343 -3.81037 0
M  V30 10223 H 955.856 5.91786 -2.57797 0
M  V30 10224 H 956.624 6.8961 -4.40886 0
M  V30 10225 N 959.287 0.325282 1.54207 0
M  V30 10226 C 960.515 -0.27869 2.05014 0
M  V30 10227 C 960.93 -1.45649 1.20133 0
M  V30 10228 O 960.287 -1.81014 0.232398 0
M  V30 10229 C 960.338 -0.711486 3.54429 0
M  V30 10230 O 960.059 0.419458 4.36087 0
M  V30 10231 C 961.56 -1.37809 4.21336 0
M  V30 10232 H 958.78 -0.0570388 0.668571 0
M  V30 10233 H 961.324 0.47197 1.98979 0
M  V30 10234 H 959.479 -1.41212 3.60746 0
M  V30 10235 H 959.893 0.0781037 5.24442 0
M  V30 10236 H 961.367 -1.63184 5.27328 0
M  V30 10237 H 961.844 -2.32593 3.72555 0
M  V30 10238 H 962.45 -0.719987 4.19161 0
M  V30 10239 N 960.765 -1.57509 0.0534917 0
M  V30 10240 C 962.011 -1.93068 -0.62069 0
M  V30 10241 C 962.344 -0.932313 -1.70357 0
M  V30 10242 O 961.619 0.0413393 -1.94456 0
M  V30 10243 C 961.902 -3.38997 -1.21463 0
M  V30 10244 C 961.755 -4.49583 -0.13965 0
M  V30 10245 C 963.074 -3.85366 -2.12558 0
M  V30 10246 H 960.193 -0.702083 -0.224163 0
M  V30 10247 H 962.835 -1.89647 0.115729 0
M  V30 10248 H 960.985 -3.42043 -1.84226 0
M  V30 10249 H 962.657 -4.58664 0.492411 0
M  V30 10250 H 960.9 -4.30525 0.532006 0
M  V30 10251 H 961.571 -5.48781 -0.595287 0
M  V30 10252 H 964.047 -3.8421 -1.59755 0
M  V30 10253 H 962.923 -4.8812 -2.51058 0
M  V30 10254 H 963.184 -3.22256 -3.02661 0
M  V30 10255 N 962.243 0.219913 -1.56058 0
M  V30 10256 C 963.489 0.941055 -1.80321 0
M  V30 10257 C 963.844 1.81906 -0.626735 0
M  V30 10258 O 963.137 1.87811 0.379147 0
M  V30 10259 C 963.331 1.81293 -3.08006 0
M  V30 10260 C 963.16 1.02082 -4.37961 0
M  V30 10261 C 961.93 0.715096 -5.00214 0
M  V30 10262 C 964.128 0.385342 -5.12854 0
M  V30 10263 N 962.11 -0.098246 -6.13821 0
M  V30 10264 C 963.481 -0.291319 -6.19315 0
M  V30 10265 C 965.536 0.29854 -4.97004 0
M  V30 10266 C 964.239 -1.04648 -7.11647 0
M  V30 10267 C 966.265 -0.443159 -5.89737 0
M  V30 10268 C 965.627 -1.10836 -6.95625 0
M  V30 10269 H 961.726 0.324568 -0.711463 0
M  V30 10270 H 964.31 0.211795 -1.93545 0
M  V30 10271 H 962.481 2.51399 -2.96063 0
M  V30 10272 H 964.213 2.47167 -3.20454 0
M  V30 10273 H 960.968 1.03352 -4.62185 0
M  V30 10274 H 961.392 -0.4938 -6.75197 0
M  V30 10275 H 966.034 0.798478 -4.15192 0
M  V30 10276 H 963.752 -1.55793 -7.9294 0
M  V30 10277 H 967.338 -0.511348 -5.79549 0
M  V30 10278 H 966.218 -1.6731 -7.66144 0
M  V30 10279 N 963.721 1.49897 0.486681 0
M  V30 10280 C 964.946 1.64106 1.26823 0
M  V30 10281 C 965.371 0.317967 1.85393 0
M  V30 10282 O 964.729 -0.71626 1.66551 0
M  V30 10283 C 964.777 2.72301 2.36399 0
M  V30 10284 O 963.881 2.32469 3.40634 0
M  V30 10285 H 963.222 0.548794 0.373793 0
M  V30 10286 H 965.752 1.96177 0.581017 0
M  V30 10287 H 965.762 2.94906 2.81948 0
M  V30 10288 H 964.437 3.68335 1.93137 0
M  V30 10289 H 963.014 2.20251 3.00905 0
M  V30 10290 N 965.199 -0.738761 1.39212 0
M  V30 10291 C 966.476 -1.48982 1.26742 0
M  V30 10292 C 966.856 -2.10732 -0.12466 0
M  V30 10293 O 966.204 -1.98287 -1.13554 0
M  V30 10294 C 966.414 -2.54427 2.38889 0
M  V30 10295 C 967.762 -3.20915 2.78027 0
M  V30 10296 O 968.786 -2.64738 2.38311 0
M  V30 10297 O 967.645 -4.22558 3.46565 0
M  V30 10298 H 964.739 -0.661395 0.496473 0
M  V30 10299 H 967.285 -0.772907 1.51077 0
M  V30 10300 H 966.057 -2.07151 3.3197 0
M  V30 10301 H 965.68 -3.33682 2.162 0
M  V30 10302 N 966.677 -1.24326 -0.968545 0
M  V30 10303 C 967.607 -1.05951 -2.08079 0
M  V30 10304 C 968.588 0.0272666 -1.70078 0
M  V30 10305 O 969.773 -0.139644 -1.93697 0
M  V30 10306 C 966.903 -0.662623 -3.4092 0
M  V30 10307 C 965.857 -1.69807 -3.92873 0
M  V30 10308 C 965.183 -1.15628 -5.22048 0
M  V30 10309 C 966.483 -3.09383 -4.20808 0
M  V30 10310 H 968.177 -1.98984 -2.23709 0
M  V30 10311 H 965.723 -0.958112 -1.075 0
M  V30 10312 H 967.676 -0.521071 -4.18166 0
M  V30 10313 H 966.4 0.303399 -3.25188 0
M  V30 10314 H 965.059 -1.82783 -3.17783 0
M  V30 10315 H 964.707 -0.180888 -5.02675 0
M  V30 10316 H 964.407 -1.84822 -5.57776 0
M  V30 10317 H 965.931 -1.02683 -6.01904 0
M  V30 10318 H 967.345 -2.99642 -4.88761 0
M  V30 10319 H 965.742 -3.75923 -4.67763 0
M  V30 10320 H 966.812 -3.57486 -3.27616 0
M  V30 10321 N 968.156 1.1691 -1.05688 0
M  V30 10322 C 969.381 1.91745 -0.790478 0
M  V30 10323 C 969.806 1.76568 0.648478 0
M  V30 10324 O 969.164 1.08682 1.45114 0
M  V30 10325 C 969.212 3.4067 -1.18222 0
M  V30 10326 O 968.316 4.11177 -0.317341 0
M  V30 10327 H 967.657 0.5976 -0.28943 0
M  V30 10328 H 970.187 1.48157 -1.41105 0
M  V30 10329 H 970.197 3.91424 -1.15114 0
M  V30 10330 H 968.872 3.51036 -2.2304 0
M  V30 10331 H 967.449 3.70645 -0.409459 0
M  V30 10332 N 969.634 0.838594 1.33437 0
M  V30 10333 C 970.874 0.440239 1.99603 0
M  V30 10334 C 971.238 -0.982061 1.64984 0
M  V30 10335 O 972.439 -1.48413 2.24114 0
M  V30 10336 C 970.71 0.654201 3.51362 0
M  V30 10337 S 972.269 0.351025 4.37394 0
M  V30 10338 H 969.087 0.165608 0.691444 0
M  V30 10339 H 971.689 1.08782 1.6244 0
M  V30 10340 H 970.393 1.68873 3.74045 0
M  V30 10341 H 969.924 -0.00754449 3.93399 0
M  V30 10342 H 971.939 -0.829298 4.89221 0
M  V30 10343 N 971.112 -1.45937 0.595003 0
M  V30 10344 C 972.06 -2.32155 -0.143798 0
M  V30 10345 C 973.054 -1.45221 -0.872198 0
M  V30 10346 O 974.26 -1.61777 -0.789191 0
M  V30 10347 H 970.635 -0.749165 -0.0652377 0
M  V30 10348 H 972.606 -2.92264 0.602005 0
M  V30 10349 C 971.355 -3.28615 -1.13611 0
M  V30 10350 H 970.678 -3.95496 -0.585044 0
M  V30 10351 H 972.118 -3.91699 -1.62321 0
M  V30 10352 C 970.577 -2.54863 -2.20333 0
M  V30 10353 O 971.107 -2.32071 -3.27881 0
M  V30 10354 N 969.313 -2.15213 -1.95274 0
M  V30 10355 H 968.86 -2.33949 -1.07822 0
M  V30 10356 H 968.818 -1.66188 -2.66888 0
M  V30 10357 N 972.59 -0.333456 -1.54032 0
M  V30 10358 C 973.52 0.52051 -2.27625 0
M  V30 10359 C 974.501 1.1111 -1.28797 0
M  V30 10360 O 975.686 1.13438 -1.57625 0
M  V30 10361 C 972.816 1.67663 -3.04149 0
M  V30 10362 C 971.77 1.21487 -4.10396 0
M  V30 10363 C 971.096 2.45872 -4.74817 0
M  V30 10364 C 972.396 0.322603 -5.21303 0
M  V30 10365 H 974.09 -0.0933823 -2.99254 0
M  V30 10366 H 971.636 -0.0463526 -1.43925 0
M  V30 10367 H 973.589 2.28041 -3.54366 0
M  V30 10368 H 972.313 2.31727 -2.30153 0
M  V30 10369 H 970.972 0.633966 -3.61077 0
M  V30 10370 H 970.62 3.0832 -3.97426 0
M  V30 10371 H 970.32 2.15662 -5.46593 0
M  V30 10372 H 971.844 3.06994 -5.27814 0
M  V30 10373 H 973.258 0.832942 -5.67217 0
M  V30 10374 H 971.655 0.112843 -5.99994 0
M  V30 10375 H 972.725 -0.643954 -4.80605 0
M  V30 10376 N 974.068 1.57479 -0.061844 0
M  V30 10377 C 975.316 1.92727 0.608336 0
M  V30 10378 C 975.637 0.941799 1.70749 0
M  V30 10379 O 974.907 -0.0116608 1.95897 0
M  V30 10380 H 973.487 0.71145 0.2277 0
M  V30 10381 H 976.149 1.94546 -0.117359 0
M  V30 10382 H 975.245 2.9426 1.04007 0
M  V30 10383 N 975.546 -0.211634 1.56173 0
M  V30 10384 C 976.795 -0.932647 1.78842 0
M  V30 10385 C 977.108 -1.85103 0.63217 0
M  V30 10386 O 978.314 -2.61143 0.742746 0
M  V30 10387 C 976.77 -1.70866 3.16753 0
M  V30 10388 C 976.378 -0.835934 4.40132 0
M  V30 10389 C 978.122 -2.4203 3.48743 0
M  V30 10390 C 976.029 -1.60987 5.69067 0
M  V30 10391 H 974.959 -0.351983 0.666801 0
M  V30 10392 H 977.61 -0.186284 1.82552 0
M  V30 10393 H 975.992 -2.4983 3.07247 0
M  V30 10394 H 977.166 -0.0861298 4.60719 0
M  V30 10395 H 975.481 -0.235941 4.15731 0
M  V30 10396 H 978.078 -3.00453 4.42303 0
M  V30 10397 H 978.421 -3.15406 2.71707 0
M  V30 10398 H 978.954 -1.70048 3.59623 0
M  V30 10399 H 975.693 -0.9192 6.49023 0
M  V30 10400 H 975.213 -2.33403 5.52524 0
M  V30 10401 H 976.892 -2.16798 6.09596 0
M  V30 10402 N 977.024 -1.50153 -0.478725 0
M  V30 10403 C 977.954 -1.71384 -1.58587 0
M  V30 10404 C 978.935 -0.562705 -1.60523 0
M  V30 10405 O 980.12 -0.80101 -1.76911 0
M  V30 10406 C 977.25 -1.80094 -2.96957 0
M  V30 10407 C 976.204 -2.95218 -3.09888 0
M  V30 10408 C 975.53 -2.89063 -4.49829 0
M  V30 10409 C 976.83 -4.35841 -2.8782 0
M  V30 10410 H 978.524 -2.64081 -1.41073 0
M  V30 10411 H 976.07 -1.27081 -0.677239 0
M  V30 10412 H 978.023 -1.93531 -3.74331 0
M  V30 10413 H 976.747 -0.840131 -3.1561 0
M  V30 10414 H 975.406 -2.81419 -2.34944 0
M  V30 10415 H 975.054 -1.90844 -4.6539 0
M  V30 10416 H 974.754 -3.66345 -4.59418 0
M  V30 10417 H 976.278 -3.04539 -5.29234 0
M  V30 10418 H 977.692 -4.50205 -3.54948 0
M  V30 10419 H 976.089 -5.14515 -3.0886 0
M  V30 10420 H 977.159 -4.48739 -1.83742 0
M  V30 10421 N 978.502 0.731368 -1.39602 0
M  V30 10422 C 979.727 1.52567 -1.40492 0
M  V30 10423 C 980.152 1.881 -0.00228828 0
M  V30 10424 O 979.51 1.52167 0.985643 0
M  V30 10425 C 979.558 2.78749 -2.2876 0
M  V30 10426 O 978.662 3.7482 -1.71999 0
M  V30 10427 H 978.003 0.460601 -0.478271 0
M  V30 10428 H 980.533 0.902042 -1.83642 0
M  V30 10429 H 980.543 3.27446 -2.43399 0
M  V30 10430 H 979.218 2.5222 -3.30693 0
M  V30 10431 H 977.795 3.33604 -1.66622 0
M  V30 10432 N 979.98 1.24838 0.961938 0
M  V30 10433 C 981.208 1.11871 1.74047 0
M  V30 10434 C 981.623 -0.328209 1.85925 0
M  V30 10435 O 980.98 -1.22616 1.35173 0
M  V30 10436 C 981.031 1.75931 3.15801 0
M  V30 10437 O 980.752 3.14967 3.04512 0
M  V30 10438 C 982.253 1.68649 4.09966 0
M  V30 10439 H 979.473 0.390569 0.545616 0
M  V30 10440 H 982.017 1.65058 1.20732 0
M  V30 10441 H 980.172 1.26733 3.66084 0
M  V30 10442 H 980.586 3.46349 3.93882 0
M  V30 10443 H 982.06 2.18144 5.07067 0
M  V30 10444 H 982.537 0.648831 4.34381 0
M  V30 10445 H 983.143 2.17301 3.65596 0
M  V30 10446 N 981.458 -1.16348 1.06306 0
M  V30 10447 C 982.388 -2.2291 0.695234 0
M  V30 10448 C 983.369 -1.67208 -0.312343 0
M  V30 10449 O 984.554 -1.93293 -0.187442 0
M  V30 10450 C 981.684 -3.47205 0.0810149 0
M  V30 10451 C 980.638 -4.15801 1.01458 0
M  V30 10452 C 979.964 -5.3405 0.263656 0
M  V30 10453 C 981.264 -4.66766 2.34365 0
M  V30 10454 H 982.958 -2.53934 1.58613 0
M  V30 10455 H 980.504 -1.22056 0.76409 0
M  V30 10456 H 982.457 -4.2098 -0.18818 0
M  V30 10457 H 981.181 -3.15482 -0.844897 0
M  V30 10458 H 979.84 -3.43954 1.26852 0
M  V30 10459 H 979.488 -4.9858 -0.665378 0
M  V30 10460 H 979.188 -5.80885 0.88582 0
M  V30 10461 H 980.712 -6.106 0.00200994 0
M  V30 10462 H 982.126 -5.3212 2.13356 0
M  V30 10463 H 980.523 -5.24223 2.9208 0
M  V30 10464 H 981.593 -3.82969 2.97426 0
M  V30 10465 N 982.937 -0.845659 -1.3299 0
M  V30 10466 C 983.867 -0.298957 -2.31578 0
M  V30 10467 C 984.848 0.597012 -1.59279 0
M  V30 10468 O 986.033 0.519142 -1.87132 0
M  V30 10469 C 983.163 0.521109 -3.43368 0
M  V30 10470 C 982.117 -0.279651 -4.27085 0
M  V30 10471 C 981.443 0.664591 -5.30554 0
M  V30 10472 C 982.743 -1.50046 -5.00283 0
M  V30 10473 H 984.437 -1.12272 -2.77552 0
M  V30 10474 H 981.983 -0.54132 -1.33438 0
M  V30 10475 H 983.936 0.913921 -4.1137 0
M  V30 10476 H 982.66 1.37815 -2.96099 0
M  V30 10477 H 981.319 -0.654106 -3.60717 0
M  V30 10478 H 980.967 1.51822 -4.79541 0
M  V30 10479 H 980.667 0.132871 -5.8745 0
M  V30 10480 H 982.191 1.05477 -6.01421 0
M  V30 10481 H 983.605 -1.18044 -5.61016 0
M  V30 10482 H 982.002 -1.96946 -5.66862 0
M  V30 10483 H 983.072 -2.26659 -4.28665 0
M  V30 10484 N 984.415 1.45619 -0.602734 0
M  V30 10485 C 985.64 2.07157 -0.100429 0
M  V30 10486 C 986.065 1.44524 1.20393 0
M  V30 10487 O 985.423 0.536191 1.7319 0
M  V30 10488 C 985.471 3.60587 0.0308604 0
M  V30 10489 O 984.575 3.97944 1.08234 0
M  V30 10490 H 983.916 0.6601 -0.0718643 0
M  V30 10491 H 986.446 1.86948 -0.831366 0
M  V30 10492 H 986.456 4.07348 0.230634 0
M  V30 10493 H 985.131 4.05561 -0.921581 0
M  V30 10494 H 983.708 3.62862 0.859414 0
M  V30 10495 N 985.893 0.34162 1.53853 0
M  V30 10496 C 986.843 -0.531995 2.21707 0
M  V30 10497 C 987.827 -1.06759 1.2038 0
M  V30 10498 O 989.019 -1.00161 1.45934 0
M  V30 10499 C 986.148 -1.6834 2.99193 0
M  V30 10500 C 985.234 -1.16184 4.07875 0
M  V30 10501 N 985.625 -0.361348 5.04508 0
M  V30 10502 C 983.923 -1.43891 4.22151 0
M  V30 10503 C 984.624 -0.0785378 5.81647 0
M  V30 10504 N 983.6 -0.669651 5.3946 0
M  V30 10505 H 987.402 0.0866825 2.93772 0
M  V30 10506 H 984.916 0.148386 1.61721 0
M  V30 10507 H 986.913 -2.32121 3.46303 0
M  V30 10508 H 985.573 -2.30538 2.28653 0
M  V30 10509 H 986.584 -0.00259906 5.179 0
M  V30 10510 H 983.261 -2.06542 3.62832 0
M  V30 10511 H 984.651 0.567068 6.69503 0
M  V30 10512 N 987.371 -1.57444 0.0701946 0
M  V30 10513 C 988.599 -1.97754 -0.608358 0
M  V30 10514 C 989.014 -0.948496 -1.63245 0
M  V30 10515 O 988.371 0.065046 -1.82384 0
M  V30 10516 C 988.422 -3.38142 -1.27836 0
M  V30 10517 O 988.143 -4.37104 -0.295255 0
M  V30 10518 C 989.644 -3.93318 -2.04489 0
M  V30 10519 H 986.864 -0.650398 -0.164997 0
M  V30 10520 H 989.408 -2.04006 0.142124 0
M  V30 10521 H 987.563 -3.32982 -1.97994 0
M  V30 10522 H 987.977 -5.18732 -0.77574 0
M  V30 10523 H 989.451 -4.93774 -2.46762 0
M  V30 10524 H 989.928 -3.29774 -2.90079 0
M  V30 10525 H 990.534 -4.01875 -1.39201 0
M  V30 10526 N 988.849 0.203349 -1.56283 0
M  V30 10527 C 990.126 0.950415 -1.70958 0
M  V30 10528 C 990.506 2.01708 -0.622647 0
M  V30 10529 O 989.854 2.25523 0.367635 0
M  V30 10530 C 990.064 1.54434 -3.12971 0
M  V30 10531 C 991.412 2.02964 -3.72949 0
M  V30 10532 O 992.436 1.64293 -3.16048 0
M  V30 10533 O 991.295 2.74097 -4.72793 0
M  V30 10534 H 988.389 0.445154 -0.69697 0
M  V30 10535 H 990.935 0.193695 -1.68591 0
M  V30 10536 H 989.707 0.77505 -3.83547 0
M  V30 10537 H 989.33 2.36611 -3.19532 0
M  V30 10538 N 990.327 1.50405 0.470755 0
M  V30 10539 C 991.574 1.61411 1.22281 0
M  V30 10540 C 991.902 0.314603 1.91939 0
M  V30 10541 O 991.157 -0.699531 1.82771 0
M  V30 10542 C 991.456 2.74426 2.28965 0
M  V30 10543 C 991.122 4.14896 1.76557 0
M  V30 10544 C 989.784 4.53116 1.61985 0
M  V30 10545 C 992.136 5.02686 1.3768 0
M  V30 10546 C 989.464 5.76868 1.0696 0
M  V30 10547 C 991.816 6.26985 0.840967 0
M  V30 10548 C 990.48 6.64008 0.68188 0
M  V30 10549 H 989.75 0.590645 0.447459 0
M  V30 10550 H 992.397 1.84339 0.518783 0
M  V30 10551 H 990.702 2.45588 3.05277 0
M  V30 10552 H 992.399 2.80146 2.86914 0
M  V30 10553 H 988.989 3.84743 1.88867 0
M  V30 10554 H 993.173 4.7379 1.47772 0
M  V30 10555 H 988.429 6.04227 0.933808 0
M  V30 10556 H 992.603 6.94372 0.531066 0
M  V30 10557 H 990.23 7.59778 0.25335 0
M  V30 10558 N 991.805 -0.723954 1.39988 0
M  V30 10559 C 993.035 -1.51094 1.40905 0
M  V30 10560 C 993.443 -1.89199 0.00476744 0
M  V30 10561 O 992.786 -1.55398 -0.979646 0
M  V30 10562 C 992.848 -2.82114 2.22827 0
M  V30 10563 C 992.512 -2.66379 3.71337 0
M  V30 10564 C 993.509 -2.34192 4.64166 0
M  V30 10565 C 991.194 -2.82905 4.15054 0
M  V30 10566 C 993.188 -2.18729 5.98696 0
M  V30 10567 C 990.875 -2.67059 5.49657 0
M  V30 10568 C 991.873 -2.35018 6.41292 0
M  V30 10569 O 991.561 -2.19284 7.73414 0
M  V30 10570 H 991.293 -0.473142 0.482818 0
M  V30 10571 H 993.847 -0.901321 1.84568 0
M  V30 10572 H 992.077 -3.45377 1.7393 0
M  V30 10573 H 993.766 -3.43789 2.15787 0
M  V30 10574 H 994.532 -2.21065 4.31689 0
M  V30 10575 H 990.411 -3.06834 3.44055 0
M  V30 10576 H 993.955 -1.93641 6.70186 0
M  V30 10577 H 989.852 -2.79768 5.81722 0
M  V30 10578 H 990.62 -2.34269 7.84258 0
M  V30 10579 N 993.283 -1.25346 -0.955304 0
M  V30 10580 C 994.193 -1.07412 -2.08566 0
M  V30 10581 C 995.209 -0.0114424 -1.73996 0
M  V30 10582 O 996.385 -0.212236 -2.00279 0
M  V30 10583 C 993.45 -0.694141 -3.3968 0
M  V30 10584 C 992.511 -1.83468 -3.88121 0
M  V30 10585 C 991.744 -1.47274 -5.12978 0
M  V30 10586 O 991.967 -0.368086 -5.69211 0
M  V30 10587 O 990.901 -2.30269 -5.56111 0
M  V30 10588 H 994.727 -2.02206 -2.26598 0
M  V30 10589 H 992.312 -1.04279 -1.06988 0
M  V30 10590 H 994.194 -0.494325 -4.18491 0
M  V30 10591 H 992.869 0.224545 -3.2292 0
M  V30 10592 H 991.776 -2.08935 -3.10318 0
M  V30 10593 H 993.109 -2.73258 -4.09379 0
M  V30 10594 N 994.761 1.15782 -1.06922 0
M  V30 10595 C 995.671 2.24008 -0.696948 0
M  V30 10596 C 996.687 1.71569 0.289862 0
M  V30 10597 O 997.863 2.00929 0.137585 0
M  V30 10598 C 994.928 3.46568 -0.0957895 0
M  V30 10599 C 993.989 4.14017 -1.13528 0
M  V30 10600 C 993.222 5.30725 -0.562713 0
M  V30 10601 O 993.445 5.66992 0.62259 0
M  V30 10602 O 992.379 5.87572 -1.30549 0
M  V30 10603 H 996.205 2.58174 -1.59938 0
M  V30 10604 H 993.79 1.2342 -0.841889 0
M  V30 10605 H 995.672 4.20731 0.237407 0
M  V30 10606 H 994.347 3.14161 0.780027 0
M  V30 10607 H 993.254 3.41795 -1.52076 0
M  V30 10608 H 994.587 4.50493 -1.98285 0
M  V30 10609 N 996.239 0.8527 1.3254 0
M  V30 10610 C 997.488 0.45136 1.96585 0
M  V30 10611 C 997.801 -0.997773 1.68237 0
M  V30 10612 O 999.007 -1.50445 2.26006 0
M  V30 10613 C 997.463 0.75619 3.51866 0
M  V30 10614 C 997.071 2.22092 3.89075 0
M  V30 10615 C 998.815 0.422478 4.22392 0
M  V30 10616 C 996.722 2.46908 5.37392 0
M  V30 10617 H 995.652 0.165052 0.735713 0
M  V30 10618 H 998.303 1.04321 1.50962 0
M  V30 10619 H 996.685 0.0937988 3.95889 0
M  V30 10620 H 997.859 2.92494 3.56067 0
M  V30 10621 H 996.174 2.51896 3.31568 0
M  V30 10622 H 998.771 0.58533 5.31487 0
M  V30 10623 H 999.114 -0.635737 4.11417 0
M  V30 10624 H 999.647 1.04068 3.83946 0
M  V30 10625 H 996.386 3.51346 5.53386 0
M  V30 10626 H 995.906 1.81082 5.71812 0
M  V30 10627 H 997.585 2.30758 6.0445 0
M  V30 10628 N 997.718 -1.45297 0.610449 0
M  V30 10629 C 998.65 -2.28742 -0.144884 0
M  V30 10630 C 999.663 -1.40114 -0.828977 0
M  V30 10631 O 1000.85 -1.64461 -0.693887 0
M  V30 10632 C 997.952 -3.15934 -1.22632 0
M  V30 10633 C 997.125 -4.32857 -0.628785 0
M  V30 10634 C 996.184 -5.01237 -1.60148 0
M  V30 10635 O 995.21 -5.57938 -1.12667 0
M  V30 10636 N 996.412 -5.00785 -2.9359 0
M  V30 10637 H 999.177 -2.94207 0.571145 0
M  V30 10638 H 996.738 -1.55517 0.450134 0
M  V30 10639 H 998.73 -3.58545 -1.87691 0
M  V30 10640 H 997.3 -2.52358 -1.84483 0
M  V30 10641 H 996.52 -3.93693 0.199951 0
M  V30 10642 H 997.808 -5.08367 -0.209845 0
M  V30 10643 H 997.206 -4.56014 -3.34765 0
M  V30 10644 H 995.763 -5.4725 -3.54064 0
M  V30 10645 N 999.196 -0.349774 -1.5367 0
M  V30 10646 C 1000.11 0.512421 -2.28935 0
M  V30 10647 C 1001.12 1.1065 -1.34286 0
M  V30 10648 O 1002.3 1.12084 -1.67329 0
M  V30 10649 C 999.363 1.64449 -3.05217 0
M  V30 10650 C 998.424 1.07956 -4.15505 0
M  V30 10651 C 997.657 2.15768 -4.88139 0
M  V30 10652 O 997.88 3.366 -4.60496 0
M  V30 10653 O 996.814 1.79712 -5.74445 0
M  V30 10654 H 1000.64 -0.0996001 -3.03537 0
M  V30 10655 H 998.225 -0.114629 -1.4896 0
M  V30 10656 H 1000.11 2.30302 -3.52901 0
M  V30 10657 H 998.782 2.24221 -2.33467 0
M  V30 10658 H 997.689 0.385381 -3.7211 0
M  V30 10659 H 999.022 0.526621 -4.89375 0
M  V30 10660 N 1000.67 1.57404 -0.0785433 0
M  V30 10661 C 1001.92 1.93744 0.589024 0
M  V30 10662 C 1002.25 0.959087 1.69209 0
M  V30 10663 O 1001.5 -0.0241604 1.95685 0
M  V30 10664 C 1001.8 3.36684 1.1991 0
M  V30 10665 C 1001.47 4.50356 0.221493 0
M  V30 10666 C 1000.13 4.81177 -0.0474347 0
M  V30 10667 C 1002.48 5.1928 -0.446941 0
M  V30 10668 C 999.811 5.78257 -0.99177 0
M  V30 10669 C 1002.16 6.17372 -1.37964 0
M  V30 10670 C 1000.83 6.46607 -1.65697 0
M  V30 10671 H 1000.1 0.70896 0.215539 0
M  V30 10672 H 1002.74 1.90905 -0.150856 0
M  V30 10673 H 1001.05 3.36022 2.01486 0
M  V30 10674 H 1002.75 3.62095 1.72303 0
M  V30 10675 H 999.336 4.26322 0.441284 0
M  V30 10676 H 1003.52 4.95658 -0.252298 0
M  V30 10677 H 998.776 5.9923 -1.21381 0
M  V30 10678 H 1002.95 6.6988 -1.9035 0
M  V30 10679 H 1000.58 7.21643 -2.39031 0
M  V30 10680 N 1002.15 -0.195058 1.56388 0
M  V30 10681 C 1003.4 -0.9168 1.80894 0
M  V30 10682 C 1003.73 -1.82907 0.652592 0
M  V30 10683 O 1003.01 -1.91382 -0.346853 0
M  V30 10684 C 1003.29 -1.733 3.15657 0
M  V30 10685 C 1003.14 -0.845449 4.41783 0
M  V30 10686 C 1004.46 -2.70557 3.47112 0
M  V30 10687 H 1001.58 -0.331861 0.658056 0
M  V30 10688 H 1004.22 -0.184174 1.89105 0
M  V30 10689 H 1002.37 -2.3576 3.08787 0
M  V30 10690 H 1004.04 -0.235557 4.60698 0
M  V30 10691 H 1002.29 -0.152172 4.33533 0
M  V30 10692 H 1002.96 -1.45152 5.32574 0
M  V30 10693 H 1005.43 -2.1823 3.54281 0
M  V30 10694 H 1004.31 -3.24749 4.42526 0
M  V30 10695 H 1004.57 -3.49605 2.70608 0
M  V30 10696 N 1003.63 -1.50653 -0.462772 0
M  V30 10697 C 1004.58 -1.70122 -1.55971 0
M  V30 10698 C 1005.55 -0.542581 -1.56988 0
M  V30 10699 O 1006.73 -0.774114 -1.74391 0
M  V30 10700 C 1003.87 -1.80899 -2.93887 0
M  V30 10701 C 1002.98 -3.08318 -3.02595 0
M  V30 10702 C 1002.12 -3.09841 -4.31477 0
M  V30 10703 C 1001.16 -4.3168 -4.33957 0
M  V30 10704 N 1000.3 -4.30894 -5.54323 0
M  V30 10705 H 1005.14 -2.63768 -1.38674 0
M  V30 10706 H 1002.67 -1.30746 -0.674091 0
M  V30 10707 H 1004.63 -1.85128 -3.73876 0
M  V30 10708 H 1003.26 -0.906854 -3.098 0
M  V30 10709 H 1002.31 -3.13521 -2.15427 0
M  V30 10710 H 1003.62 -3.98282 -3.00288 0
M  V30 10711 H 1002.78 -3.12845 -5.1982 0
M  V30 10712 H 1001.52 -2.17722 -4.36404 0
M  V30 10713 H 1000.52 -4.28879 -3.4401 0
M  V30 10714 H 1001.75 -5.25035 -4.30715 0
M  V30 10715 H 999.694 -3.41633 -5.6002 0
M  V30 10716 H 999.611 -5.14636 -5.53792 0
M  V30 10717 H 1000.88 -4.38056 -6.44769 0
M  V30 10718 N 1005.11 0.71652 -1.4037 0
M  V30 10719 C 1006.39 1.46947 -1.29097 0
M  V30 10720 C 1006.77 2.10903 0.0911182 0
M  V30 10721 O 1006.11 2.00068 1.10385 0
M  V30 10722 C 1006.32 2.50594 -2.42907 0
M  V30 10723 C 1007.67 3.16451 -2.83097 0
M  V30 10724 O 1008.7 2.60913 -2.42493 0
M  V30 10725 O 1007.55 4.16991 -3.53244 0
M  V30 10726 H 1004.65 0.653413 -0.506932 0
M  V30 10727 H 1007.19 0.748774 -1.52287 0
M  V30 10728 H 1005.97 2.01843 -3.35224 0
M  V30 10729 H 1005.59 3.302 -2.21481 0
M  V30 10730 N 1006.59 1.25851 0.948643 0
M  V30 10731 C 1007.83 1.11119 1.69648 0
M  V30 10732 C 1008.17 -0.345995 1.91093 0
M  V30 10733 O 1007.44 -1.25467 1.48621 0
M  V30 10734 C 1007.72 1.87261 3.0758 0
M  V30 10735 C 1007.58 3.40842 2.93507 0
M  V30 10736 C 1008.9 1.6605 4.07573 0
M  V30 10737 H 1006.01 0.405052 0.615713 0
M  V30 10738 H 1008.66 1.54756 1.10229 0
M  V30 10739 H 1006.81 1.50172 3.58303 0
M  V30 10740 H 1008.48 3.87641 2.50064 0
M  V30 10741 H 1006.72 3.68248 2.29294 0
M  V30 10742 H 1007.39 3.89339 3.91305 0
M  V30 10743 H 1009.87 1.98348 3.65783 0
M  V30 10744 H 1008.74 2.21753 5.02113 0
M  V30 10745 H 1009.01 0.603256 4.37965 0
M  V30 10746 N 1008.06 -1.15214 1.07534 0
M  V30 10747 C 1009.31 -1.86043 0.799629 0
M  V30 10748 C 1009.64 -1.82435 -0.674356 0
M  V30 10749 O 1008.89 -1.24379 -1.51091 0
M  V30 10750 C 1009.19 -3.34623 1.25547 0
M  V30 10751 C 1008.86 -3.58425 2.73573 0
M  V30 10752 C 1007.52 -3.6463 3.14004 0
M  V30 10753 C 1009.87 -3.67977 3.6911 0
M  V30 10754 C 1007.2 -3.779 4.48786 0
M  V30 10755 C 1009.55 -3.82771 5.03656 0
M  V30 10756 C 1008.22 -3.87222 5.43705 0
M  V30 10757 H 1007.49 -0.680781 0.292605 0
M  V30 10758 H 1010.13 -1.36149 1.34669 0
M  V30 10759 H 1008.44 -3.86737 0.627828 0
M  V30 10760 H 1010.14 -3.87836 1.01901 0
M  V30 10761 H 1006.73 -3.54238 2.41275 0
M  V30 10762 H 1010.91 -3.62482 3.39 0
M  V30 10763 H 1006.17 -3.79604 4.79281 0
M  V30 10764 H 1010.34 -3.89104 5.77556 0
M  V30 10765 H 1007.97 -3.97256 6.48145 0
M  V30 10766 N 1009.54 -0.859717 -1.32086 0
M  V30 10767 C 1010.77 -0.478865 -2.01796 0
M  V30 10768 C 1011.19 0.918274 -1.64163 0
M  V30 10769 O 1010.55 1.60409 -0.844896 0
M  V30 10770 C 1010.6 -0.631356 -3.5503 0
M  V30 10771 O 1009.7 0.333712 -4.11048 0
M  V30 10772 H 1009.04 -0.191775 -0.635703 0
M  V30 10773 H 1011.57 -1.16031 -1.68517 0
M  V30 10774 H 1011.58 -0.520783 -4.04663 0
M  V30 10775 H 1010.26 -1.65015 -3.81763 0
M  V30 10776 H 1008.84 0.178953 -3.7247 0
M  V30 10777 N 1011.02 1.44971 -0.618145 0
M  V30 10778 C 1012.43 1.85611 -0.201334 0
M  V30 10779 C 1012.78 1.51698 1.24427 0
M  V30 10780 O 1011.91 0.94875 1.94493 0
M  V30 10781 C 1012.5 3.36897 -0.358619 0
M  V30 10782 C 1011.06 3.764 0.00358196 0
M  V30 10783 C 1010.21 2.68881 -0.678118 0
M  V30 10784 H 1013.16 1.35622 -0.824152 0
M  V30 10785 H 1013.18 3.78326 0.406176 0
M  V30 10786 H 1012.69 3.61548 -1.41084 0
M  V30 10787 H 1010.79 3.57365 1.05457 0
M  V30 10788 H 1010.91 4.77449 -0.397427 0
M  V30 10789 H 1009.27 2.54442 -0.114699 0
M  V30 10790 H 1010.05 2.96367 -1.73268 0
M  V30 10791 N 1012.5 0.357919 1.53482 0
M  V30 10792 C 1013.75 -0.235241 2.00324 0
M  V30 10793 C 1014.06 -1.50494 1.24944 0
M  V30 10794 O 1015.27 -2.17623 1.62335 0
M  V30 10795 C 1013.72 -0.469748 3.56821 0
M  V30 10796 C 1013.33 0.784877 4.41071 0
M  V30 10797 C 1015.07 -1.02098 4.12039 0
M  V30 10798 C 1012.98 0.520377 5.89106 0
M  V30 10799 H 1011.91 -0.0916816 0.748405 0
M  V30 10800 H 1014.56 0.475474 1.77233 0
M  V30 10801 H 1012.94 -1.24153 3.76035 0
M  V30 10802 H 1014.12 1.55886 4.33631 0
M  V30 10803 H 1012.43 1.25878 3.96918 0
M  V30 10804 H 1015.03 -1.23406 5.20264 0
M  V30 10805 H 1015.37 -1.98084 3.66154 0
M  V30 10806 H 1015.91 -0.309554 3.96594 0
M  V30 10807 H 1012.65 1.45035 6.39254 0
M  V30 10808 H 1012.17 -0.215254 5.99414 0
M  V30 10809 H 1013.84 0.143006 6.46842 0
M  V30 10810 N 1013.98 -1.5736 0.0868897 0
M  V30 10811 C 1015.22 -1.9367 -0.577598 0
M  V30 10812 C 1015.55 -0.968844 -1.69229 0
M  V30 10813 O 1014.82 -0.0195061 -1.9589 0
M  V30 10814 H 1013.4 -0.714983 -0.216353 0
M  V30 10815 H 1016.06 -1.94335 0.148294 0
M  V30 10816 H 1015.15 -2.95877 -0.993128 0
M  V30 10817 N 1015.45 0.186762 -1.56489 0
M  V30 10818 C 1016.36 1.25169 -1.98419 0
M  V30 10819 C 1017.38 1.49329 -0.893124 0
M  V30 10820 O 1018.56 1.61781 -1.19954 0
M  V30 10821 C 1015.62 2.57422 -2.32239 0
M  V30 10822 C 1014.68 2.4126 -3.55095 0
M  V30 10823 C 1013.92 3.67206 -3.87292 0
M  V30 10824 O 1014.14 4.71731 -3.20665 0
M  V30 10825 O 1013.07 3.62238 -4.80695 0
M  V30 10826 H 1016.9 0.925834 -2.89244 0
M  V30 10827 H 1014.48 0.392421 -1.44154 0
M  V30 10828 H 1016.37 3.35466 -2.5503 0
M  V30 10829 H 1015.04 2.89618 -1.44579 0
M  V30 10830 H 1013.95 1.61299 -3.37541 0
M  V30 10831 H 1015.28 2.13994 -4.43247 0
M  V30 10832 N 1016.93 1.50896 0.454776 0
M  V30 10833 C 1018.35 1.38684 0.78987 0
M  V30 10834 C 1018.55 0.455587 1.96282 0
M  V30 10835 O 1017.6 -0.0957503 2.52318 0
M  V30 10836 C 1018.92 2.80381 1.08661 0
M  V30 10837 C 1020.47 2.8941 1.19209 0
M  V30 10838 C 1020.94 4.31976 1.52187 0
M  V30 10839 N 1022.43 4.35002 1.59146 0
M  V30 10840 C 1023.17 5.42326 1.862 0
M  V30 10841 N 1022.66 6.59835 2.11164 0
M  V30 10842 N 1024.46 5.29786 1.87838 0
M  V30 10843 H 1016.61 2.10006 -0.317981 0
M  V30 10844 H 1018.87 0.944636 -0.0797969 0
M  V30 10845 H 1018.58 3.50438 0.297626 0
M  V30 10846 H 1018.45 3.18634 2.01872 0
M  V30 10847 H 1020.84 2.19561 1.97173 0
M  V30 10848 H 1020.92 2.54677 0.239401 0
M  V30 10849 H 1020.56 5.02368 0.747576 0
M  V30 10850 H 1020.49 4.64208 2.48633 0
M  V30 10851 H 1022.98 3.50276 1.41828 0
M  V30 10852 H 1023.3 7.37428 2.31128 0
M  V30 10853 H 1021.64 6.62981 2.08522 0
M  V30 10854 H 1024.83 4.36974 1.67843 0
M  V30 10855 H 1025 6.13511 2.08585 0
M  V30 10856 N 1018.41 -0.709066 1.40748 0
M  V30 10857 C 1019.34 -1.83583 1.4429 0
M  V30 10858 C 1020.32 -1.67378 0.303067 0
M  V30 10859 O 1021.51 -1.87312 0.512612 0
M  V30 10860 C 1018.64 -3.21599 1.31116 0
M  V30 10861 C 1017.59 -3.52486 2.4277 0
M  V30 10862 C 1016.92 -4.89716 2.14668 0
M  V30 10863 C 1018.22 -3.52824 3.85113 0
M  V30 10864 H 1019.91 -1.80876 2.38588 0
M  V30 10865 H 1017.46 -0.868795 1.14839 0
M  V30 10866 H 1019.41 -4.00123 1.32209 0
M  V30 10867 H 1018.13 -3.24898 0.332965 0
M  V30 10868 H 1016.79 -2.76305 2.40937 0
M  V30 10869 H 1016.44 -4.89625 1.15224 0
M  V30 10870 H 1016.14 -5.11347 2.89478 0
M  V30 10871 H 1017.66 -5.70566 2.17455 0
M  V30 10872 H 1019.08 -4.21377 3.88734 0
M  V30 10873 H 1017.48 -3.85984 4.59496 0
M  V30 10874 H 1018.55 -2.52073 4.14231 0
M  V30 10875 N 1019.89 -1.26353 -0.941956 0
M  V30 10876 C 1021.14 -1.1163 -1.68473 0
M  V30 10877 C 1021.46 0.34108 -1.91994 0
M  V30 10878 O 1020.73 1.24065 -1.51607 0
M  V30 10879 H 1019.31 -0.410113 -0.624353 0
M  V30 10880 H 1021.97 -1.58669 -1.13182 0
M  V30 10881 H 1021.07 -1.63445 -2.6588 0
M  V30 10882 N 1021.37 1.14642 -1.08144 0
M  V30 10883 C 1022.61 1.86115 -0.820533 0
M  V30 10884 C 1022.97 1.81208 0.646635 0
M  V30 10885 O 1022.26 1.22997 1.46909 0
M  V30 10886 C 1022.46 3.33953 -1.2732 0
M  V30 10887 C 1022.28 3.53254 -2.78283 0
M  V30 10888 C 1021.05 3.68259 -3.45996 0
M  V30 10889 C 1023.25 3.504 -3.76463 0
M  V30 10890 N 1021.23 3.75692 -4.85519 0
M  V30 10891 C 1022.61 3.64045 -5.01868 0
M  V30 10892 C 1024.66 3.33722 -3.69505 0
M  V30 10893 C 1023.36 3.62734 -6.21141 0
M  V30 10894 C 1025.39 3.33713 -4.88251 0
M  V30 10895 C 1024.75 3.47896 -6.12493 0
M  V30 10896 H 1020.85 0.697829 -0.352929 0
M  V30 10897 H 1023.43 1.3742 -1.37927 0
M  V30 10898 H 1021.61 3.81245 -0.742066 0
M  V30 10899 H 1023.34 3.93174 -0.958991 0
M  V30 10900 H 1020.09 3.69376 -2.96409 0
M  V30 10901 H 1020.52 3.83133 -5.58156 0
M  V30 10902 H 1025.16 3.2167 -2.74387 0
M  V30 10903 H 1022.88 3.73563 -7.16573 0
M  V30 10904 H 1026.46 3.22025 -4.84553 0
M  V30 10905 H 1025.34 3.47833 -7.02838 0
M  V30 10906 N 1022.85 0.866709 1.31628 0
M  V30 10907 C 1024.12 0.396828 1.91532 0
M  V30 10908 C 1024.5 -1.12081 1.78889 0
M  V30 10909 O 1023.85 -1.94791 1.19452 0
M  V30 10910 C 1024.06 0.874578 3.37864 0
M  V30 10911 C 1025.41 0.8988 4.14978 0
M  V30 10912 O 1026.43 0.820014 3.46633 0
M  V30 10913 O 1025.29 1.01223 5.37044 0
M  V30 10914 H 1022.39 0.1181 0.818524 0
M  V30 10915 H 1024.93 0.954407 1.40318 0
M  V30 10916 H 1023.7 1.91807 3.41066 0
M  V30 10917 H 1023.33 0.295126 3.96503 0
M  V30 10918 N 1024.32 -1.44642 0.625825 0
M  V30 10919 C 1025.73 -1.85502 0.211175 0
M  V30 10920 C 1026.09 -1.52356 -1.2362 0
M  V30 10921 O 1025.21 -0.959051 -1.93988 0
M  V30 10922 C 1025.81 -3.36702 0.37648 0
M  V30 10923 C 1024.36 -3.76396 0.0163795 0
M  V30 10924 C 1023.51 -2.68517 0.692368 0
M  V30 10925 H 1026.46 -1.35183 0.831333 0
M  V30 10926 H 1026.48 -3.78536 -0.386106 0
M  V30 10927 H 1026 -3.60795 1.42999 0
M  V30 10928 H 1024.1 -3.57919 -1.0356 0
M  V30 10929 H 1024.21 -4.77231 0.422742 0
M  V30 10930 H 1022.57 -2.54377 0.128191 0
M  V30 10931 H 1023.36 -2.95444 1.74837 0
M  V30 10932 N 1025.8 -0.366053 -1.5329 0
M  V30 10933 C 1026.75 0.480205 -2.25749 0
M  V30 10934 C 1027.72 1.07713 -1.2644 0
M  V30 10935 O 1028.9 1.10953 -1.55222 0
M  V30 10936 C 1026.04 1.61374 -3.05045 0
M  V30 10937 C 1025.16 1.04194 -4.19246 0
M  V30 10938 C 1024.29 2.14462 -4.85983 0
M  V30 10939 C 1023.33 1.5475 -5.92215 0
M  V30 10940 N 1022.47 2.58852 -6.52641 0
M  V30 10941 H 1027.31 -0.144199 -2.97651 0
M  V30 10942 H 1024.84 -0.0829321 -1.46866 0
M  V30 10943 H 1026.8 2.28144 -3.49294 0
M  V30 10944 H 1025.43 2.2088 -2.35397 0
M  V30 10945 H 1024.48 0.264514 -3.79479 0
M  V30 10946 H 1025.8 0.565379 -4.95585 0
M  V30 10947 H 1024.95 2.89051 -5.33418 0
M  V30 10948 H 1023.69 2.6547 -4.09117 0
M  V30 10949 H 1022.69 0.786759 -5.44142 0
M  V30 10950 H 1023.92 1.04566 -6.71001 0
M  V30 10951 H 1021.87 3.09073 -5.78627 0
M  V30 10952 H 1021.78 2.15884 -7.24521 0
M  V30 10953 H 1023.05 3.33142 -7.04724 0
M  V30 10954 N 1027.28 1.57312 -0.0952337 0
M  V30 10955 C 1028.69 1.81589 0.433875 0
M  V30 10956 C 1029.04 1.01086 1.68155 0
M  V30 10957 O 1028.17 0.240272 2.15062 0
M  V30 10958 C 1028.76 3.29366 0.793931 0
M  V30 10959 C 1027.32 3.54407 1.26778 0
M  V30 10960 C 1026.47 2.76035 0.264518 0
M  V30 10961 H 1029.42 1.55426 -0.320675 0
M  V30 10962 H 1029.44 3.42697 1.65345 0
M  V30 10963 H 1028.95 3.87932 -0.114334 0
M  V30 10964 H 1027.05 3.01173 2.19376 0
M  V30 10965 H 1027.17 4.63055 1.22952 0
M  V30 10966 H 1025.53 2.43509 0.746691 0
M  V30 10967 H 1026.31 3.37349 -0.636429 0
M  V30 10968 N 1028.76 -0.17846 1.56586 0
M  V30 10969 C 1030.01 -0.894464 1.81228 0
M  V30 10970 C 1030.33 -1.83089 0.671062 0
M  V30 10971 O 1029.6 -1.93439 -0.309557 0
M  V30 10972 H 1028.18 -0.333288 0.668527 0
M  V30 10973 H 1030.84 -0.179986 1.94067 0
M  V30 10974 H 1029.93 -1.47565 2.75011 0
M  V30 10975 N 1030.24 -1.51135 -0.446768 0
M  V30 10976 C 1031.15 -1.74595 -1.56696 0
M  V30 10977 C 1032.16 -0.629816 -1.62201 0
M  V30 10978 O 1033.34 -0.910987 -1.79619 0
M  V30 10979 C 1030.4 -1.85738 -2.9275 0
M  V30 10980 C 1029.46 -3.09564 -2.97437 0
M  V30 10981 C 1028.7 -3.20165 -4.27001 0
M  V30 10982 O 1028.92 -2.36939 -5.1886 0
M  V30 10983 O 1027.85 -4.13077 -4.3778 0
M  V30 10984 H 1031.68 -2.69601 -1.39817 0
M  V30 10985 H 1029.26 -1.35523 -0.628805 0
M  V30 10986 H 1031.15 -1.95107 -3.73512 0
M  V30 10987 H 1029.82 -0.939184 -3.09776 0
M  V30 10988 H 1028.73 -3.05679 -2.15664 0
M  V30 10989 H 1030.06 -4.01041 -2.85353 0
M  V30 10990 N 1031.71 0.701592 -1.41122 0
M  V30 10991 C 1032.96 1.45871 -1.39879 0
M  V30 10992 C 1033.28 1.94999 -0.00668769 0
M  V30 10993 O 1032.55 1.71298 0.95047 0
M  V30 10994 H 1031.13 0.541231 -0.514857 0
M  V30 10995 H 1033.79 0.830803 -1.76306 0
M  V30 10996 H 1032.89 2.32479 -2.0823 0
M  V30 10997 N 1033.19 1.2685 0.935242 0
M  V30 10998 C 1034.14 1.05586 2.02078 0
M  V30 10999 C 1035.13 -0.013699 1.60894 0
M  V30 11000 O 1036.32 0.203956 1.75821 0
M  V30 11001 C 1033.45 0.697118 3.36148 0
M  V30 11002 C 1032.53 1.80444 3.83798 0
M  V30 11003 N 1032.92 3.04283 4.04037 0
M  V30 11004 C 1031.22 1.68939 4.12766 0
M  V30 11005 C 1031.92 3.7629 4.436 0
M  V30 11006 N 1030.9 3.04011 4.50642 0
M  V30 11007 H 1034.7 1.99577 2.15746 0
M  V30 11008 H 1032.21 1.17455 1.12153 0
M  V30 11009 H 1034.21 0.525915 4.1357 0
M  V30 11010 H 1032.87 -0.235247 3.23847 0
M  V30 11011 H 1033.88 3.40125 3.90558 0
M  V30 11012 H 1030.56 0.827341 4.0922 0
M  V30 11013 H 1031.95 4.82687 4.67401 0
M  V30 11014 N 1034.67 -1.14067 1.0875 0
M  V30 11015 C 1035.6 -2.21385 0.74236 0
M  V30 11016 C 1036.58 -1.67833 -0.276805 0
M  V30 11017 O 1037.77 -1.93647 -0.1464 0
M  V30 11018 C 1034.9 -3.46956 0.154644 0
M  V30 11019 C 1033.85 -4.13555 1.10255 0
M  V30 11020 C 1033.18 -5.3337 0.376877 0
M  V30 11021 C 1034.48 -4.6169 2.44213 0
M  V30 11022 H 1036.17 -2.50512 1.63964 0
M  V30 11023 H 1033.72 -1.20408 0.789807 0
M  V30 11024 H 1035.67 -4.21284 -0.0988419 0
M  V30 11025 H 1034.39 -3.17203 -0.777789 0
M  V30 11026 H 1033.05 -3.41186 1.34119 0
M  V30 11027 H 1032.7 -4.99879 -0.559472 0
M  V30 11028 H 1032.4 -5.78875 1.00884 0
M  V30 11029 H 1033.92 -6.10458 0.131527 0
M  V30 11030 H 1035.34 -5.27475 2.24595 0
M  V30 11031 H 1033.74 -5.17909 3.03134 0
M  V30 11032 H 1034.81 -3.76574 3.05483 0
M  V30 11033 N 1036.15 -0.873678 -1.31166 0
M  V30 11034 C 1037.43 -0.40698 -1.91319 0
M  V30 11035 C 1037.81 1.1113 -1.79481 0
M  V30 11036 O 1037.15 1.94155 -1.20483 0
M  V30 11037 C 1037.36 -0.892484 -3.37396 0
M  V30 11038 C 1038.71 -0.920795 -4.14496 0
M  V30 11039 O 1039.74 -0.838386 -3.46193 0
M  V30 11040 O 1038.59 -1.04069 -5.365 0
M  V30 11041 H 1035.69 -0.122439 -0.817886 0
M  V30 11042 H 1038.23 -0.961835 -1.3981 0
M  V30 11043 H 1037.01 -1.93613 -3.40044 0
M  V30 11044 H 1036.63 -0.31615 -3.96341 0
M  V30 11045 N 1037.63 1.44308 -0.633487 0
M  V30 11046 C 1038.59 2.2912 0.060376 0
M  V30 11047 C 1039.59 1.41166 0.769992 0
M  V30 11048 O 1040.78 1.63012 0.614224 0
M  V30 11049 C 1037.91 3.22798 1.0961 0
M  V30 11050 H 1039.1 2.91958 -0.685617 0
M  V30 11051 H 1036.66 1.51259 -0.393738 0
M  V30 11052 H 1037.39 2.64815 1.87199 0
M  V30 11053 H 1037.18 3.87618 0.591161 0
M  V30 11054 H 1038.67 3.86504 1.58127 0
M  V30 11055 N 1039.1 0.374177 1.53094 0
M  V30 11056 C 1040.03 -0.459976 2.28925 0
M  V30 11057 C 1041.02 -1.07656 1.31698 0
M  V30 11058 O 1042.2 -1.09219 1.60577 0
M  V30 11059 C 1039.33 -1.5954 3.08487 0
M  V30 11060 C 1038.28 -1.10563 4.13473 0
M  V30 11061 C 1037.61 -2.33196 4.81169 0
M  V30 11062 C 1038.91 -0.184275 5.21975 0
M  V30 11063 H 1040.6 0.172692 2.98902 0
M  V30 11064 H 1038.15 0.0844956 1.43752 0
M  V30 11065 H 1040.1 -2.18565 3.60288 0
M  V30 11066 H 1038.83 -2.25543 2.36216 0
M  V30 11067 H 1037.49 -0.53801 3.62631 0
M  V30 11068 H 1037.13 -2.97675 4.05461 0
M  V30 11069 H 1036.83 -2.01094 5.52119 0
M  V30 11070 H 1038.36 -2.92892 5.35767 0
M  V30 11071 H 1039.77 -0.682262 5.69226 0
M  V30 11072 H 1038.17 0.0462746 6.00082 0
M  V30 11073 H 1039.24 0.771152 4.78729 0
M  V30 11074 N 1040.58 -1.57259 0.103575 0
M  V30 11075 C 1041.51 -2.17509 -0.84923 0
M  V30 11076 C 1042.49 -1.11079 -1.28824 0
M  V30 11077 O 1043.68 -1.39252 -1.35361 0
M  V30 11078 C 1040.81 -2.76221 -2.10522 0
M  V30 11079 C 1039.76 -3.88098 -1.80454 0
M  V30 11080 C 1039.09 -4.33549 -3.12952 0
M  V30 11081 C 1040.39 -5.10909 -1.08486 0
M  V30 11082 H 1042.08 -2.9738 -0.347217 0
M  V30 11083 H 1039.63 -1.43045 -0.165568 0
M  V30 11084 H 1041.58 -3.17024 -2.77621 0
M  V30 11085 H 1040.31 -1.93617 -2.63021 0
M  V30 11086 H 1038.96 -3.47847 -1.15749 0
M  V30 11087 H 1038.61 -3.47825 -3.63355 0
M  V30 11088 H 1038.31 -5.08984 -2.93614 0
M  V30 11089 H 1039.84 -4.76992 -3.81196 0
M  V30 11090 H 1041.25 -5.48828 -1.65711 0
M  V30 11091 H 1039.65 -5.91828 -0.992973 0
M  V30 11092 H 1040.72 -4.84851 -0.0690108 0
M  V30 11093 N 1042.06 0.170153 -1.56679 0
M  V30 11094 C 1043.48 0.521966 -1.50823 0
M  V30 11095 C 1043.68 1.84589 -0.808037 0
M  V30 11096 O 1042.73 2.49791 -0.368891 0
M  V30 11097 C 1044.05 0.553648 -2.95559 0
M  V30 11098 C 1045.59 0.640769 -3.06371 0
M  V30 11099 C 1046.07 0.703332 -4.52567 0
M  V30 11100 N 1047.56 0.76619 -4.56819 0
M  V30 11101 C 1048.29 0.835192 -5.67285 0
M  V30 11102 N 1047.79 0.864957 -6.87379 0
M  V30 11103 N 1049.58 0.874302 -5.55259 0
M  V30 11104 H 1041.73 -0.697952 -2.00605 0
M  V30 11105 H 1044 -0.251787 -0.913952 0
M  V30 11106 H 1043.7 -0.350498 -3.49949 0
M  V30 11107 H 1043.58 1.39973 -3.50268 0
M  V30 11108 H 1045.96 1.53534 -2.52015 0
M  V30 11109 H 1046.05 -0.232008 -2.54746 0
M  V30 11110 H 1045.69 -0.186986 -5.07556 0
M  V30 11111 H 1045.62 1.59227 -5.0195 0
M  V30 11112 H 1048.11 0.751424 -3.70354 0
M  V30 11113 H 1048.42 0.918814 -7.67318 0
M  V30 11114 H 1046.77 0.833215 -6.89987 0
M  V30 11115 H 1049.96 0.848057 -4.60354 0
M  V30 11116 H 1050.13 0.924615 -6.4137 0
M  V30 11117 N 1043.54 1.5137 0.438746 0
M  V30 11118 C 1044.79 1.63645 1.18595 0
M  V30 11119 C 1045.11 0.354241 1.91755 0
M  V30 11120 O 1044.38 -0.629838 1.85499 0
M  V30 11121 H 1042.96 0.603103 0.440767 0
M  V30 11122 H 1045.62 1.88293 0.503159 0
M  V30 11123 H 1044.72 2.46342 1.9163 0
M  V30 11124 N 1045.02 -0.694098 1.41492 0
M  V30 11125 C 1045.95 -1.82042 1.46229 0
M  V30 11126 C 1046.93 -1.67047 0.320803 0
M  V30 11127 O 1048.11 -1.86758 0.53245 0
M  V30 11128 C 1045.24 -3.2019 1.34519 0
M  V30 11129 C 1044.2 -3.49892 2.46495 0
M  V30 11130 C 1043.52 -4.87411 2.1985 0
M  V30 11131 C 1044.82 -3.4872 3.88834 0
M  V30 11132 H 1046.52 -1.78335 2.40493 0
M  V30 11133 H 1044.06 -0.856566 1.15754 0
M  V30 11134 H 1046.02 -3.98699 1.36445 0
M  V30 11135 H 1044.74 -3.24527 0.367406 0
M  V30 11136 H 1043.4 -2.73734 2.43854 0
M  V30 11137 H 1043.05 -4.88375 1.20411 0
M  V30 11138 H 1042.75 -5.08248 2.94885 0
M  V30 11139 H 1044.27 -5.68228 2.23494 0
M  V30 11140 H 1045.68 -4.1723 3.93182 0
M  V30 11141 H 1044.08 -3.81089 4.63564 0
M  V30 11142 H 1045.15 -2.47665 4.16881 0
M  V30 11143 N 1046.49 -1.27344 -0.928501 0
M  V30 11144 C 1047.74 -1.13804 -1.67859 0
M  V30 11145 C 1048.07 0.31555 -1.91619 0
M  V30 11146 O 1047.35 1.23087 -1.50599 0
M  V30 11147 C 1047.63 -1.9213 -3.04562 0
M  V30 11148 C 1047.48 -3.45468 -2.88048 0
M  V30 11149 C 1048.8 -1.72513 -4.04879 0
M  V30 11150 H 1045.92 -0.414796 -0.609191 0
M  V30 11151 H 1048.56 -1.5649 -1.07753 0
M  V30 11152 H 1046.71 -1.55853 -3.55868 0
M  V30 11153 H 1048.39 -3.9157 -2.43865 0
M  V30 11154 H 1046.63 -3.71849 -2.23407 0
M  V30 11155 H 1047.3 -3.95515 -3.85061 0
M  V30 11156 H 1049.78 -2.04143 -3.62581 0
M  V30 11157 H 1048.65 -2.29713 -4.98521 0
M  V30 11158 H 1048.91 -0.672856 -4.3695 0
M  V30 11159 N 1047.97 1.13488 -1.09353 0
M  V30 11160 C 1048.9 2.20988 -0.75409 0
M  V30 11161 C 1049.88 1.67977 0.267901 0
M  V30 11162 O 1051.07 1.93722 0.136128 0
M  V30 11163 C 1048.2 3.46869 -0.173042 0
M  V30 11164 C 1047.15 4.12965 -1.12446 0
M  V30 11165 C 1046.48 5.33163 -0.405157 0
M  V30 11166 C 1047.78 4.60388 -2.46658 0
M  V30 11167 H 1049.47 2.49639 -1.6529 0
M  V30 11168 H 1047.02 1.19987 -0.796182 0
M  V30 11169 H 1048.97 4.21331 0.0764988 0
M  V30 11170 H 1047.7 3.17611 0.760956 0
M  V30 11171 H 1046.35 3.40469 -1.35927 0
M  V30 11172 H 1046 5.00169 0.532955 0
M  V30 11173 H 1045.7 5.78332 -1.03952 0
M  V30 11174 H 1047.23 6.1038 -0.163899 0
M  V30 11175 H 1048.64 5.26276 -2.27389 0
M  V30 11176 H 1047.04 5.16294 -3.05876 0
M  V30 11177 H 1048.11 3.74949 -3.07476 0
M  V30 11178 N 1049.45 0.880621 1.30701 0
M  V30 11179 C 1050.7 0.495894 1.95922 0
M  V30 11180 C 1051.02 -0.957214 1.69889 0
M  V30 11181 O 1050.29 -1.67245 1.0201 0
M  V30 11182 H 1048.87 0.180394 0.724891 0
M  V30 11183 H 1051.53 1.12274 1.59313 0
M  V30 11184 H 1050.63 0.662508 3.04987 0
M  V30 11185 N 1050.93 -1.4397 0.641131 0
M  V30 11186 C 1051.88 -2.30728 -0.0577905 0
M  V30 11187 C 1052.85 -1.44059 -0.826819 0
M  V30 11188 O 1054.03 -1.72947 -0.805853 0
M  V30 11189 C 1051.17 -3.29478 -1.02657 0
M  V30 11190 C 1050.28 -4.31247 -0.254913 0
M  V30 11191 C 1049.42 -5.17085 -1.2164 0
M  V30 11192 C 1048.46 -6.10556 -0.434481 0
M  V30 11193 N 1047.6 -6.89059 -1.34694 0
M  V30 11194 H 1052.44 -2.8995 0.687953 0
M  V30 11195 H 1049.97 -1.4285 0.351029 0
M  V30 11196 H 1051.93 -3.85228 -1.60173 0
M  V30 11197 H 1050.56 -2.71932 -1.73933 0
M  V30 11198 H 1049.61 -3.77889 0.436338 0
M  V30 11199 H 1050.92 -4.97545 0.353642 0
M  V30 11200 H 1050.08 -5.77402 -1.86258 0
M  V30 11201 H 1048.82 -4.50885 -1.85888 0
M  V30 11202 H 1047.82 -5.49339 0.225125 0
M  V30 11203 H 1049.05 -6.78795 0.203415 0
M  V30 11204 H 1046.99 -6.25518 -1.97644 0
M  V30 11205 H 1046.91 -7.51833 -0.792657 0
M  V30 11206 H 1048.18 -7.5389 -1.98165 0
M  V30 11207 N 1052.41 -0.382291 -1.52893 0
M  V30 11208 C 1053.34 0.447829 -2.29165 0
M  V30 11209 C 1054.32 1.06956 -1.32267 0
M  V30 11210 O 1055.5 1.08365 -1.61154 0
M  V30 11211 C 1052.63 1.57902 -3.09329 0
M  V30 11212 C 1051.59 1.08369 -4.14053 0
M  V30 11213 C 1050.91 2.30641 -4.82399 0
M  V30 11214 C 1052.21 0.156591 -5.22065 0
M  V30 11215 H 1053.91 -0.188541 -2.98806 0
M  V30 11216 H 1051.45 -0.0921179 -1.43705 0
M  V30 11217 H 1053.41 2.16652 -3.61442 0
M  V30 11218 H 1052.13 2.24287 -2.37409 0
M  V30 11219 H 1050.79 0.518772 -3.62911 0
M  V30 11220 H 1050.44 2.9552 -4.07034 0
M  V30 11221 H 1050.14 1.98163 -5.53177 0
M  V30 11222 H 1051.66 2.90047 -5.37313 0
M  V30 11223 H 1053.08 0.652065 -5.6958 0
M  V30 11224 H 1051.47 -0.0780978 -6.00049 0
M  V30 11225 H 1052.54 -0.796529 -4.78313 0
M  V30 11226 N 1053.89 1.57202 -0.111913 0
M  V30 11227 C 1055.13 1.94565 0.546713 0
M  V30 11228 C 1055.45 0.995644 1.67666 0
M  V30 11229 O 1054.72 0.0506681 1.95834 0
M  V30 11230 H 1053.3 0.718334 0.204951 0
M  V30 11231 H 1055.97 1.94074 -0.179193 0
M  V30 11232 H 1055.06 2.9742 0.945931 0
M  V30 11233 N 1055.36 -0.161842 1.56767 0
M  V30 11234 C 1056.31 -1.2002 1.97139 0
M  V30 11235 C 1057.28 -1.43486 0.836713 0
M  V30 11236 O 1058.47 -1.56069 1.0976 0
M  V30 11237 C 1055.61 -2.53228 2.34456 0
M  V30 11238 C 1054.72 -2.37062 3.61145 0
M  V30 11239 C 1053.85 -3.63202 3.87631 0
M  V30 11240 C 1052.89 -3.42008 5.07638 0
M  V30 11241 N 1052.03 -4.60242 5.30209 0
M  V30 11242 H 1056.87 -0.848918 2.85653 0
M  V30 11243 H 1054.41 -0.407753 1.41336 0
M  V30 11244 H 1056.36 -3.30879 2.54116 0
M  V30 11245 H 1054.99 -2.86333 1.4904 0
M  V30 11246 H 1054.05 -1.50539 3.49345 0
M  V30 11247 H 1055.36 -2.17353 4.48953 0
M  V30 11248 H 1054.51 -4.49285 4.0771 0
M  V30 11249 H 1053.25 -3.85899 2.98216 0
M  V30 11250 H 1052.26 -2.54312 4.87448 0
M  V30 11251 H 1053.48 -3.20724 5.98593 0
M  V30 11252 H 1051.43 -4.8314 4.43747 0
M  V30 11253 H 1051.34 -4.43481 6.12259 0
M  V30 11254 H 1052.61 -5.47581 5.54775 0
M  V30 11255 N 1056.84 -1.516 -0.430713 0
M  V30 11256 C 1057.8 -1.72794 -1.50582 0
M  V30 11257 C 1058.8 -0.597903 -1.49271 0
M  V30 11258 O 1059.99 -0.865535 -1.51176 0
M  V30 11259 C 1057.13 -1.79049 -2.90093 0
M  V30 11260 H 1058.32 -2.68751 -1.33091 0
M  V30 11261 H 1055.87 -1.4169 -0.659822 0
M  V30 11262 H 1056.61 -0.849309 -3.12981 0
M  V30 11263 H 1056.39 -2.61181 -2.92449 0
M  V30 11264 H 1057.88 -1.97262 -3.68072 0
M  V30 11265 N 1058.32 0.686584 -1.41858 0
M  V30 11266 C 1059.57 1.44379 -1.41418 0
M  V30 11267 C 1059.89 1.94981 -0.0273696 0
M  V30 11268 O 1059.16 1.72296 0.932248 0
M  V30 11269 H 1057.74 0.53574 -0.520568 0
M  V30 11270 H 1060.4 0.812056 -1.77177 0
M  V30 11271 H 1059.5 2.30258 -2.10684 0
M  V30 11272 N 1059.8 1.27835 0.921735 0
M  V30 11273 C 1060.75 1.07723 2.00947 0
M  V30 11274 C 1061.73 0.00336676 1.609 0
M  V30 11275 O 1062.92 0.222593 1.75595 0
M  V30 11276 C 1060.05 0.732732 3.35389 0
M  V30 11277 C 1059.14 1.84504 3.81863 0
M  V30 11278 N 1059.53 3.08551 4.00787 0
M  V30 11279 C 1057.83 1.73308 4.10951 0
M  V30 11280 C 1058.53 3.80974 4.39584 0
M  V30 11281 N 1057.5 3.08773 4.47393 0
M  V30 11282 H 1061.31 2.01854 2.13617 0
M  V30 11283 H 1058.82 1.18637 1.109 0
M  V30 11284 H 1060.82 0.56975 4.12988 0
M  V30 11285 H 1059.48 -0.200885 3.24078 0
M  V30 11286 H 1060.49 3.44248 3.86928 0
M  V30 11287 H 1057.17 0.870698 4.0832 0
M  V30 11288 H 1058.56 4.87617 4.62255 0
M  V30 11289 N 1061.28 -1.12907 1.09954 0
M  V30 11290 C 1062.22 -2.18485 0.743848 0
M  V30 11291 C 1063.19 -1.63766 -0.277494 0
M  V30 11292 O 1064.38 -1.90146 -0.157899 0
M  V30 11293 C 1061.52 -3.44649 0.176437 0
M  V30 11294 C 1060.63 -4.13445 1.25248 0
M  V30 11295 C 1059.77 -5.27242 0.647242 0
M  V30 11296 C 1058.8 -5.87897 1.70421 0
M  V30 11297 N 1057.94 -6.93116 1.1196 0
M  V30 11298 H 1062.78 -2.48257 1.64841 0
M  V30 11299 H 1060.32 -1.21891 0.823471 0
M  V30 11300 H 1062.28 -4.16852 -0.170384 0
M  V30 11301 H 1060.91 -3.15309 -0.69137 0
M  V30 11302 H 1059.96 -3.39471 1.7165 0
M  V30 11303 H 1061.27 -4.54601 2.05279 0
M  V30 11304 H 1060.42 -6.06186 0.249579 0
M  V30 11305 H 1059.16 -4.87351 -0.184556 0
M  V30 11306 H 1058.17 -5.07643 2.11136 0
M  V30 11307 H 1059.39 -6.2986 2.53877 0
M  V30 11308 H 1057.34 -6.55271 0.309181 0
M  V30 11309 H 1057.26 -7.32843 1.85681 0
M  V30 11310 H 1058.52 -7.759 0.748326 0
M  V30 11311 N 1062.75 -0.88754 -1.30232 0
M  V30 11312 C 1063.72 -0.361095 -2.26338 0
M  V30 11313 C 1064.72 0.497871 -1.52898 0
M  V30 11314 O 1065.91 0.30466 -1.71515 0
M  V30 11315 C 1063.04 0.485135 -3.3743 0
M  V30 11316 H 1064.23 -1.20973 -2.74419 0
M  V30 11317 H 1061.78 -0.664619 -1.41466 0
M  V30 11318 H 1062.52 1.35425 -2.9467 0
M  V30 11319 H 1062.3 -0.130173 -3.91884 0
M  V30 11320 H 1063.79 0.845169 -4.08958 0
M  V30 11321 N 1064.23 1.43628 -0.648757 0
M  V30 11322 C 1065.46 2.06217 -0.167945 0
M  V30 11323 C 1065.88 1.486 1.16462 0
M  V30 11324 O 1065.23 0.61559 1.71804 0
M  V30 11325 C 1065.28 3.6144 -0.0660114 0
M  V30 11326 O 1065 4.16914 -1.34589 0
M  V30 11327 C 1066.51 4.41097 0.441408 0
M  V30 11328 H 1063.73 0.665228 -0.0878237 0
M  V30 11329 H 1066.27 1.84207 -0.888144 0
M  V30 11330 H 1064.42 3.82651 0.604722 0
M  V30 11331 H 1064.84 5.10537 -1.20218 0
M  V30 11332 H 1066.31 5.50066 0.461697 0
M  V30 11333 H 1066.79 4.13803 1.47187 0
M  V30 11334 H 1067.4 4.24845 -0.19668 0
M  V30 11335 N 1065.71 0.390394 1.52688 0
M  V30 11336 C 1066.64 -0.43567 2.294 0
M  V30 11337 C 1067.62 -1.06253 1.32832 0
M  V30 11338 O 1068.81 -1.07509 1.61726 0
M  V30 11339 C 1065.94 -1.56259 3.10162 0
M  V30 11340 C 1064.89 -1.06172 4.14622 0
M  V30 11341 C 1064.22 -2.2808 4.83615 0
M  V30 11342 C 1065.52 -0.128902 5.22141 0
M  V30 11343 H 1067.21 0.204384 2.98702 0
M  V30 11344 H 1064.76 0.0997377 1.43654 0
M  V30 11345 H 1066.71 -2.14732 3.62585 0
M  V30 11346 H 1065.43 -2.23025 2.38595 0
M  V30 11347 H 1064.09 -0.499518 3.63181 0
M  V30 11348 H 1063.74 -2.93358 4.08595 0
M  V30 11349 H 1063.44 -1.95227 5.5422 0
M  V30 11350 H 1064.96 -2.87193 5.38844 0
M  V30 11351 H 1066.38 -0.621849 5.69917 0
M  V30 11352 H 1064.78 0.109919 5.99999 0
M  V30 11353 H 1065.85 0.821884 4.77884 0
M  V30 11354 N 1067.19 -1.57141 0.120249 0
M  V30 11355 C 1068.1 -2.18925 -0.843155 0
M  V30 11356 C 1069.11 -1.16575 -1.29175 0
M  V30 11357 O 1070.29 -1.4905 -1.35448 0
M  V30 11358 C 1067.36 -2.7775 -2.075 0
M  V30 11359 C 1066.42 -3.95139 -1.6782 0
M  V30 11360 C 1065.65 -4.51149 -2.85132 0
M  V30 11361 O 1065.87 -4.06056 -4.00593 0
M  V30 11362 O 1064.81 -5.41815 -2.62145 0
M  V30 11363 H 1068.63 -3.01707 -0.347357 0
M  V30 11364 H 1066.22 -1.49028 -0.105427 0
M  V30 11365 H 1068.1 -3.15243 -2.79643 0
M  V30 11366 H 1066.77 -1.97998 -2.56083 0
M  V30 11367 H 1065.68 -3.62412 -0.927807 0
M  V30 11368 H 1067.01 -4.7633 -1.23977 0
M  V30 11369 N 1068.67 0.153526 -1.5685 0
M  V30 11370 C 1069.58 1.20932 -2.01029 0
M  V30 11371 C 1070.59 1.47401 -0.924598 0
M  V30 11372 O 1071.77 1.592 -1.23359 0
M  V30 11373 C 1068.83 2.52438 -2.37647 0
M  V30 11374 C 1067.89 2.33673 -3.60132 0
M  V30 11375 C 1067.13 3.58909 -3.94994 0
M  V30 11376 O 1067.35 4.64823 -3.30599 0
M  V30 11377 O 1066.28 3.5196 -4.8827 0
M  V30 11378 H 1070.11 0.864273 -2.91143 0
M  V30 11379 H 1067.7 0.361755 -1.44954 0
M  V30 11380 H 1069.58 3.29981 -2.62088 0
M  V30 11381 H 1068.25 2.86486 -1.5069 0
M  V30 11382 H 1067.16 1.54102 -3.40886 0
M  V30 11383 H 1068.49 2.04544 -4.47686 0
M  V30 11384 N 1070.14 1.51827 0.422667 0
M  V30 11385 C 1071.11 1.7359 1.49663 0
M  V30 11386 C 1072.11 0.605811 1.48952 0
M  V30 11387 O 1073.3 0.87354 1.50715 0
M  V30 11388 C 1070.43 1.80585 2.8914 0
M  V30 11389 H 1071.62 2.69453 1.31664 0
M  V30 11390 H 1069.18 1.42038 0.652298 0
M  V30 11391 H 1069.91 0.865895 3.12526 0
M  V30 11392 H 1069.7 2.62729 2.9106 0
M  V30 11393 H 1071.19 1.99212 3.67021 0
M  V30 11394 N 1071.62 -0.679052 1.4222 0
M  V30 11395 C 1073.04 -0.991665 1.25053 0
M  V30 11396 C 1073.24 -2.00928 0.151665 0
M  V30 11397 O 1072.29 -2.47925 -0.478507 0
M  V30 11398 C 1073.61 -1.50053 2.60585 0
M  V30 11399 C 1075.16 -1.61852 2.67905 0
M  V30 11400 C 1075.63 -2.16135 4.03794 0
M  V30 11401 N 1077.12 -2.23474 4.05726 0
M  V30 11402 C 1077.86 -2.66541 5.07685 0
M  V30 11403 N 1077.35 -3.09092 6.20028 0
M  V30 11404 N 1079.15 -2.66252 4.95042 0
M  V30 11405 H 1071.3 -0.00521851 2.12399 0
M  V30 11406 H 1073.56 -0.0648465 0.94578 0
M  V30 11407 H 1073.27 -0.82731 3.41831 0
M  V30 11408 H 1073.14 -2.47998 2.84213 0
M  V30 11409 H 1075.53 -2.28281 1.87008 0
M  V30 11410 H 1075.61 -0.624074 2.4807 0
M  V30 11411 H 1075.25 -1.50316 4.85147 0
M  V30 11412 H 1075.18 -3.16363 4.20978 0
M  V30 11413 H 1077.67 -1.93467 3.24621 0
M  V30 11414 H 1077.99 -3.40627 6.93681 0
M  V30 11415 H 1076.33 -3.06959 6.23539 0
M  V30 11416 H 1079.52 -2.32369 4.06352 0
M  V30 11417 H 1079.69 -2.99496 5.74636 0
M  V30 11418 N 1073.1 -1.28322 -0.914942 0
M  V30 11419 C 1074.52 -1.06003 -1.19313 0
M  V30 11420 C 1074.72 0.198366 -2.00521 0
M  V30 11421 O 1073.77 0.900364 -2.35902 0
M  V30 11422 C 1075.09 -2.30684 -1.92887 0
M  V30 11423 C 1076.63 -2.35851 -2.05775 0
M  V30 11424 C 1077.11 -3.60295 -2.82757 0
M  V30 11425 N 1078.6 -3.60928 -2.9032 0
M  V30 11426 C 1079.33 -4.53894 -3.50383 0
M  V30 11427 N 1078.83 -5.57178 -4.11734 0
M  V30 11428 N 1080.62 -4.41492 -3.4791 0
M  V30 11429 H 1072.77 -2.09104 -0.372735 0
M  V30 11430 H 1075.04 -0.920285 -0.227552 0
M  V30 11431 H 1074.74 -3.22355 -1.40643 0
M  V30 11432 H 1074.62 -2.37003 -2.93444 0
M  V30 11433 H 1077 -1.44678 -2.57201 0
M  V30 11434 H 1077.09 -2.33526 -1.04399 0
M  V30 11435 H 1076.73 -4.51811 -2.32011 0
M  V30 11436 H 1076.66 -3.59873 -3.84446 0
M  V30 11437 H 1079.15 -2.8624 -2.46729 0
M  V30 11438 H 1079.46 -6.24261 -4.55541 0
M  V30 11439 H 1077.81 -5.61005 -4.10242 0
M  V30 11440 H 1081 -3.60005 -2.99189 0
M  V30 11441 H 1081.17 -5.14132 -3.94427 0
M  V30 11442 N 1074.58 1.12322 -1.10551 0
M  V30 11443 C 1075.99 1.35858 -0.837543 0
M  V30 11444 C 1076.19 1.94062 0.54241 0
M  V30 11445 O 1075.25 2.1676 1.29505 0
M  V30 11446 C 1076.56 2.299 -1.9382 0
M  V30 11447 C 1078.11 2.43488 -1.96679 0
M  V30 11448 C 1078.59 3.40846 -3.05922 0
M  V30 11449 N 1080.08 3.48404 -3.05236 0
M  V30 11450 C 1080.81 4.2365 -3.86405 0
M  V30 11451 N 1080.31 5.01951 -4.77512 0
M  V30 11452 N 1082.1 4.19068 -3.74618 0
M  V30 11453 H 1074.25 0.729002 -1.99498 0
M  V30 11454 H 1076.52 0.38339 -0.867016 0
M  V30 11455 H 1076.22 1.94309 -2.9315 0
M  V30 11456 H 1076.1 3.30033 -1.82641 0
M  V30 11457 H 1078.48 2.78359 -0.979813 0
M  V30 11458 H 1078.56 1.43239 -2.11934 0
M  V30 11459 H 1078.21 3.06704 -4.04839 0
M  V30 11460 H 1078.14 4.40927 -2.87907 0
M  V30 11461 H 1080.63 2.92545 -2.39219 0
M  V30 11462 H 1080.94 5.56707 -5.36002 0
M  V30 11463 H 1079.29 5.01143 -4.8154 0
M  V30 11464 H 1082.48 3.5698 -3.02792 0
M  V30 11465 H 1082.65 4.77455 -4.38111 0
M  V30 11466 N 1076.06 0.894434 1.2976 0
M  V30 11467 C 1077.3 0.517669 1.95771 0
M  V30 11468 C 1077.63 -0.935028 1.70551 0
M  V30 11469 O 1076.89 -1.67722 1.00835 0
M  V30 11470 C 1077.19 0.750307 3.49435 0
M  V30 11471 C 1076.85 2.17955 3.94723 0
M  V30 11472 C 1075.51 2.57036 4.068 0
M  V30 11473 C 1077.87 3.11053 4.18205 0
M  V30 11474 C 1075.19 3.88406 4.39724 0
M  V30 11475 C 1077.55 4.41966 4.52602 0
M  V30 11476 C 1076.21 4.80927 4.62888 0
M  V30 11477 H 1075.48 0.189428 0.716378 0
M  V30 11478 H 1078.13 1.13209 1.54454 0
M  V30 11479 H 1076.43 0.0529242 3.91764 0
M  V30 11480 H 1078.13 0.438251 3.98598 0
M  V30 11481 H 1074.72 1.86622 3.85837 0
M  V30 11482 H 1078.9 2.82076 4.08347 0
M  V30 11483 H 1074.16 4.18321 4.4589 0
M  V30 11484 H 1078.33 5.14134 4.69722 0
M  V30 11485 H 1075.96 5.82759 4.88156 0
M  V30 11486 N 1077.53 -1.43282 0.656365 0
M  V30 11487 C 1078.48 -2.30776 -0.0333155 0
M  V30 11488 C 1079.45 -1.44928 -0.811493 0
M  V30 11489 O 1080.64 -1.73792 -0.787465 0
M  V30 11490 C 1077.78 -3.30548 -0.991566 0
M  V30 11491 C 1076.89 -4.31493 -0.209159 0
M  V30 11492 C 1076.02 -5.18346 -1.16149 0
M  V30 11493 C 1075.06 -6.10983 -0.369699 0
M  V30 11494 N 1074.2 -6.90449 -1.27378 0
M  V30 11495 H 1079.04 -2.89204 0.718668 0
M  V30 11496 H 1076.58 -1.4247 0.366161 0
M  V30 11497 H 1078.54 -3.86905 -1.56078 0
M  V30 11498 H 1077.17 -2.73762 -1.71039 0
M  V30 11499 H 1076.22 -3.77405 0.476394 0
M  V30 11500 H 1077.53 -4.97142 0.406394 0
M  V30 11501 H 1076.68 -5.79345 -1.80124 0
M  V30 11502 H 1075.42 -4.52831 -1.81095 0
M  V30 11503 H 1074.43 -5.49069 0.283377 0
M  V30 11504 H 1075.65 -6.78541 0.275399 0
M  V30 11505 H 1073.6 -6.27579 -1.90999 0
M  V30 11506 H 1073.52 -7.52631 -0.71287 0
M  V30 11507 H 1074.78 -7.5595 -1.90158 0
M  V30 11508 N 1079.01 -0.398486 -1.52479 0
M  V30 11509 C 1080.29 0.238776 -1.94137 0
M  V30 11510 C 1080.67 1.63558 -1.33462 0
M  V30 11511 O 1080.02 2.22821 -0.506272 0
M  V30 11512 C 1080.23 0.255863 -3.48061 0
M  V30 11513 C 1081.58 0.480376 -4.21874 0
M  V30 11514 O 1082.6 0.335679 -3.54615 0
M  V30 11515 O 1081.46 0.764654 -5.41124 0
M  V30 11516 H 1078.55 0.150806 -0.813134 0
M  V30 11517 H 1081.1 -0.453659 -1.63524 0
M  V30 11518 H 1079.87 -0.722171 -3.84578 0
M  V30 11519 H 1079.49 0.99284 -3.85004 0
M  V30 11520 N 1080.49 1.57075 -0.12858 0
M  V30 11521 C 1081.44 2.12379 0.829418 0
M  V30 11522 C 1082.43 1.04694 1.2218 0
M  V30 11523 O 1083.62 1.30909 1.1913 0
M  V30 11524 C 1080.75 2.73436 2.07575 0
M  V30 11525 C 1079.83 3.88217 1.7073 0
M  V30 11526 N 1080.22 4.94864 1.04609 0
M  V30 11527 C 1078.52 3.9858 2.00125 0
M  V30 11528 C 1079.22 5.7514 0.871137 0
M  V30 11529 N 1078.2 5.25284 1.39918 0
M  V30 11530 H 1082 2.92209 0.314816 0
M  V30 11531 H 1079.51 1.62233 0.0735788 0
M  V30 11532 H 1081.51 3.11406 2.77185 0
M  V30 11533 H 1080.17 1.95073 2.5957 0
M  V30 11534 H 1081.18 5.13025 0.708961 0
M  V30 11535 H 1077.86 3.3127 2.541 0
M  V30 11536 H 1079.25 6.7098 0.351395 0
M  V30 11537 N 1081.97 -0.145205 1.5693 0
M  V30 11538 C 1083.22 -0.858786 1.83719 0
M  V30 11539 C 1083.55 -1.80738 0.710452 0
M  V30 11540 O 1082.82 -1.92389 -0.285791 0
M  V30 11541 C 1083.11 -1.6317 3.2101 0
M  V30 11542 C 1082.96 -0.704472 4.44249 0
M  V30 11543 C 1084.28 -2.59377 3.55544 0
M  V30 11544 H 1081.4 -0.310757 0.66828 0
M  V30 11545 H 1084.04 -0.123918 1.89595 0
M  V30 11546 H 1082.19 -2.25816 3.16132 0
M  V30 11547 H 1083.86 -0.08887 4.61214 0
M  V30 11548 H 1082.1 -0.0141693 4.33798 0
M  V30 11549 H 1082.78 -1.28135 5.36922 0
M  V30 11550 H 1085.25 -2.06848 3.61044 0
M  V30 11551 H 1084.13 -3.10506 4.52634 0
M  V30 11552 H 1084.39 -3.40819 2.81594 0
M  V30 11553 N 1083.45 -1.52049 -0.414609 0
M  V30 11554 C 1084.36 -1.7788 -1.52958 0
M  V30 11555 C 1085.37 -0.66408 -1.60829 0
M  V30 11556 O 1086.55 -0.948882 -1.77646 0
M  V30 11557 C 1083.61 -1.91906 -2.88744 0
M  V30 11558 C 1082.68 -3.15803 -2.90804 0
M  V30 11559 C 1081.91 -3.29151 -4.20114 0
M  V30 11560 O 1082.13 -2.47892 -5.13718 0
M  V30 11561 O 1081.07 -4.2227 -4.28919 0
M  V30 11562 H 1084.89 -2.72506 -1.34067 0
M  V30 11563 H 1082.48 -1.36826 -0.599918 0
M  V30 11564 H 1084.36 -2.02986 -3.6929 0
M  V30 11565 H 1083.03 -1.00468 -3.07714 0
M  V30 11566 H 1081.94 -3.10185 -2.09131 0
M  V30 11567 H 1083.27 -4.07004 -2.76783 0
M  V30 11568 N 1084.93 0.6715 -1.42579 0
M  V30 11569 C 1086.17 1.42871 -1.42941 0
M  V30 11570 C 1086.49 1.94941 -0.0480483 0
M  V30 11571 O 1085.76 1.73275 0.913921 0
M  V30 11572 H 1084.34 0.530189 -0.526221 0
M  V30 11573 H 1087.01 0.793219 -1.78028 0
M  V30 11574 H 1086.1 2.2801 -2.13114 0
M  V30 11575 N 1086.4 1.28806 0.908124 0
M  V30 11576 C 1087.35 1.13215 2.01125 0
M  V30 11577 C 1088.32 0.0277357 1.66077 0
M  V30 11578 O 1089.51 0.193707 1.89814 0
M  V30 11579 C 1086.65 0.805887 3.35558 0
M  V30 11580 C 1085.76 1.9899 3.83441 0
M  V30 11581 C 1084.89 1.60376 5.06412 0
M  V30 11582 C 1083.93 2.75409 5.46641 0
M  V30 11583 N 1083.07 2.37249 6.60801 0
M  V30 11584 H 1087.91 2.07598 2.13792 0
M  V30 11585 H 1085.45 1.03316 1.0471 0
M  V30 11586 H 1087.4 0.597451 4.129 0
M  V30 11587 H 1086.03 -0.101023 3.22642 0
M  V30 11588 H 1085.09 2.31029 3.02208 0
M  V30 11589 H 1086.4 2.85214 4.09212 0
M  V30 11590 H 1085.55 1.35772 5.91313 0
M  V30 11591 H 1084.29 0.712888 4.82462 0
M  V30 11592 H 1083.3 3.00705 4.60279 0
M  V30 11593 H 1084.52 3.65148 5.72577 0
M  V30 11594 H 1082.47 1.50638 6.3847 0
M  V30 11595 H 1082.38 3.17008 6.86325 0
M  V30 11596 H 1083.65 2.15943 7.48992 0
M  V30 11597 N 1087.88 -1.11734 1.11145 0
M  V30 11598 C 1088.81 -2.17438 0.724804 0
M  V30 11599 C 1089.83 -1.6099 -0.242069 0
M  V30 11600 O 1091.02 -1.78482 -0.0254259 0
M  V30 11601 C 1088.12 -3.38863 0.050004 0
M  V30 11602 C 1087.29 -4.24785 1.04292 0
M  V30 11603 C 1086.35 -5.24691 0.398243 0
M  V30 11604 O 1085.37 -5.59408 1.05125 0
M  V30 11605 N 1086.58 -5.74388 -0.840184 0
M  V30 11606 H 1089.34 -2.51219 1.63429 0
M  V30 11607 H 1086.9 -1.27226 1.00125 0
M  V30 11608 H 1088.89 -4.02788 -0.392929 0
M  V30 11609 H 1087.46 -3.0317 -0.762005 0
M  V30 11610 H 1086.68 -3.57363 1.6639 0
M  V30 11611 H 1087.97 -4.79033 1.71478 0
M  V30 11612 H 1087.37 -5.48359 -1.38994 0
M  V30 11613 H 1085.93 -6.40163 -1.22615 0
M  V30 11614 N 1089.36 -0.901303 -1.29284 0
M  V30 11615 C 1090.61 -0.52401 -1.94774 0
M  V30 11616 C 1090.92 0.934645 -1.71825 0
M  V30 11617 O 1092.13 1.41953 -2.31434 0
M  V30 11618 C 1090.58 -0.886262 -3.48817 0
M  V30 11619 C 1090.19 -2.3638 -3.80564 0
M  V30 11620 C 1091.94 -0.578955 -4.20533 0
M  V30 11621 C 1089.84 -2.66682 -5.27858 0
M  V30 11622 H 1088.77 -0.192244 -0.72908 0
M  V30 11623 H 1091.42 -1.09852 -1.46986 0
M  V30 11624 H 1089.81 -0.240666 -3.95268 0
M  V30 11625 H 1090.98 -3.05508 -3.44966 0
M  V30 11626 H 1089.29 -2.64029 -3.2199 0
M  V30 11627 H 1091.89 -0.782185 -5.28948 0
M  V30 11628 H 1092.23 0.482605 -4.13493 0
M  V30 11629 H 1092.77 -1.18246 -3.79819 0
M  V30 11630 H 1089.51 -3.71643 -5.39965 0
M  V30 11631 H 1089.03 -2.02179 -5.64698 0
M  V30 11632 H 1090.71 -2.53033 -5.95469 0
M  V30 11633 N 1090.84 1.42931 -0.663954 0
M  V30 11634 C 1091.77 2.33499 0.00731327 0
M  V30 11635 C 1092.75 1.50074 0.800733 0
M  V30 11636 O 1093.93 1.78708 0.760062 0
M  V30 11637 C 1091.06 3.33569 0.966897 0
M  V30 11638 C 1090.02 4.27064 0.282839 0
M  V30 11639 C 1089.34 5.17257 1.35461 0
M  V30 11640 C 1090.64 5.1564 -0.831438 0
M  V30 11641 H 1092.34 2.89879 -0.749044 0
M  V30 11642 H 1089.88 1.39385 -0.361656 0
M  V30 11643 H 1091.84 3.95833 1.44549 0
M  V30 11644 H 1090.56 2.75469 1.75455 0
M  V30 11645 H 1089.22 3.6618 -0.175417 0
M  V30 11646 H 1088.87 4.5549 2.13397 0
M  V30 11647 H 1088.57 5.80634 0.902098 0
M  V30 11648 H 1090.09 5.82395 1.83436 0
M  V30 11649 H 1091.51 5.71651 -0.434534 0
M  V30 11650 H 1089.9 5.87794 -1.20908 0
M  V30 11651 H 1090.97 4.54687 -1.68487 0
M  V30 11652 N 1092.32 0.406567 1.52266 0
M  V30 11653 C 1093.54 -0.172101 2.06685 0
M  V30 11654 C 1093.97 -1.38306 1.27488 0
M  V30 11655 O 1093.32 -1.78726 0.304441 0
M  V30 11656 C 1093.37 -0.503463 3.57068 0
M  V30 11657 O 1092.48 -1.59485 3.80314 0
M  V30 11658 H 1091.82 -0.0153209 0.663823 0
M  V30 11659 H 1094.35 0.579025 1.96236 0
M  V30 11660 H 1094.36 -0.762833 4.00805 0
M  V30 11661 H 1093.03 0.381775 4.14144 0
M  V30 11662 H 1091.61 -1.32784 3.48458 0
M  V30 11663 N 1093.79 -1.57004 0.136909 0
M  V30 11664 C 1094.76 -2.15066 -0.792419 0
M  V30 11665 C 1095.76 -1.08991 -1.18226 0
M  V30 11666 O 1096.95 -1.34681 -1.10484 0
M  V30 11667 C 1094.08 -2.70554 -2.07397 0
M  V30 11668 H 1095.27 -2.98519 -0.28752 0
M  V30 11669 H 1092.83 -1.55895 -0.112469 0
M  V30 11670 H 1093.56 -1.90739 -2.62277 0
M  V30 11671 H 1093.35 -3.48149 -1.80374 0
M  V30 11672 H 1094.84 -3.15322 -2.73792 0
M  V30 11673 N 1095.27 0.136881 -1.57004 0
M  V30 11674 C 1096.55 0.87705 -1.74835 0
M  V30 11675 C 1096.93 1.98886 -0.707639 0
M  V30 11676 O 1096.28 2.26879 0.271652 0
M  V30 11677 C 1096.49 1.41021 -3.1924 0
M  V30 11678 C 1097.84 1.86963 -3.81222 0
M  V30 11679 O 1098.86 1.5074 -3.22732 0
M  V30 11680 O 1097.72 2.53798 -4.83993 0
M  V30 11681 H 1094.81 0.415192 -0.715223 0
M  V30 11682 H 1097.36 0.122016 -1.69261 0
M  V30 11683 H 1096.13 0.611677 -3.8649 0
M  V30 11684 H 1095.75 2.22846 -3.2928 0
M  V30 11685 N 1096.75 1.52266 0.40654 0
M  V30 11686 C 1097.68 1.78755 1.50229 0
M  V30 11687 C 1098.66 0.638652 1.57655 0
M  V30 11688 O 1099.85 0.884505 1.72888 0
M  V30 11689 C 1096.98 1.94057 2.88026 0
M  V30 11690 C 1095.93 3.09667 2.95449 0
M  V30 11691 C 1095.26 3.10196 4.35526 0
M  V30 11692 C 1096.56 4.49077 2.66697 0
M  V30 11693 H 1098.25 2.70511 1.28313 0
M  V30 11694 H 1095.8 1.30167 0.615836 0
M  V30 11695 H 1097.75 2.11171 3.64671 0
M  V30 11696 H 1096.47 0.989755 3.11242 0
M  V30 11697 H 1095.13 2.92308 2.2125 0
M  V30 11698 H 1094.78 2.12831 4.55754 0
M  V30 11699 H 1094.48 3.87847 4.41416 0
M  V30 11700 H 1096 3.29443 5.14101 0
M  V30 11701 H 1097.42 4.66628 3.33064 0
M  V30 11702 H 1095.82 5.28665 2.8396 0
M  V30 11703 H 1096.89 4.56995 1.62122 0
M  V30 11704 N 1098.23 -0.663929 1.42933 0
M  V30 11705 C 1099.64 -0.978346 1.26097 0
M  V30 11706 C 1099.84 -2.00756 0.172968 0
M  V30 11707 O 1098.9 -2.48418 -0.452184 0
M  V30 11708 C 1100.21 -1.4728 2.62162 0
M  V30 11709 C 1101.76 -1.59001 2.69606 0
M  V30 11710 C 1102.24 -2.1184 4.06064 0
M  V30 11711 N 1103.73 -2.19158 4.08074 0
M  V30 11712 C 1104.46 -2.61141 5.10483 0
M  V30 11713 N 1103.96 -3.02498 6.23271 0
M  V30 11714 N 1105.75 -2.60986 4.97838 0
M  V30 11715 H 1097.9 0.0173096 2.12393 0
M  V30 11716 H 1100.17 -0.0548116 0.946414 0
M  V30 11717 H 1099.87 -0.791008 3.42689 0
M  V30 11718 H 1099.75 -2.4497 2.86827 0
M  V30 11719 H 1102.13 -2.26284 1.89418 0
M  V30 11720 H 1102.21 -0.597728 2.48718 0
M  V30 11721 H 1101.86 -1.45162 4.86714 0
M  V30 11722 H 1101.79 -3.1188 4.2431 0
M  V30 11723 H 1104.28 -1.90013 3.26655 0
M  V30 11724 H 1104.59 -3.33251 6.97254 0
M  V30 11725 H 1102.94 -3.00328 6.2676 0
M  V30 11726 H 1106.13 -2.28046 4.08794 0
M  V30 11727 H 1106.3 -2.93384 5.7778 0
M  V30 11728 N 1099.71 -1.29285 -0.901281 0
M  V30 11729 C 1100.93 -1.20169 -1.69039 0
M  V30 11730 C 1101.36 0.234509 -1.86632 0
M  V30 11731 O 1100.71 1.16935 -1.38549 0
M  V30 11732 C 1100.76 -1.91852 -3.05328 0
M  V30 11733 O 1099.87 -1.23448 -3.9349 0
M  V30 11734 H 1099.21 -0.416486 -0.517141 0
M  V30 11735 H 1101.74 -1.70826 -1.12603 0
M  V30 11736 H 1101.75 -2.00244 -3.5548 0
M  V30 11737 H 1100.42 -2.96313 -2.91841 0
M  V30 11738 H 1099 -1.23303 -3.51924 0
M  V30 11739 N 1101.18 1.11143 -1.11736 0
M  V30 11740 C 1102.6 1.64462 -0.883693 0
M  V30 11741 C 1102.95 1.87324 0.583448 0
M  V30 11742 O 1102.07 1.60975 1.44623 0
M  V30 11743 C 1102.67 2.98765 -1.59764 0
M  V30 11744 C 1101.23 3.4898 -1.41032 0
M  V30 11745 C 1100.37 2.23729 -1.63831 0
M  V30 11746 H 1103.32 0.947415 -1.27317 0
M  V30 11747 H 1103.34 3.65885 -1.04443 0
M  V30 11748 H 1102.86 2.82094 -2.66542 0
M  V30 11749 H 1100.96 3.7081 -0.364781 0
M  V30 11750 H 1101.07 4.27571 -2.16148 0
M  V30 11751 H 1099.43 2.31507 -1.06191 0
M  V30 11752 H 1100.22 2.09597 -2.7189 0
M  V30 11753 N 1102.66 0.908147 1.28804 0
M  V30 11754 C 1103.91 0.539201 1.95501 0
M  V30 11755 C 1104.24 -0.913759 1.7136 0
M  V30 11756 O 1103.52 -1.64904 1.03136 0
M  V30 11757 C 1103.8 0.842372 3.50109 0
M  V30 11758 C 1103.65 2.34765 3.83673 0
M  V30 11759 C 1104.97 0.334658 4.38826 0
M  V30 11760 H 1102.09 0.197373 0.71008 0
M  V30 11761 H 1104.73 1.13637 1.52272 0
M  V30 11762 H 1102.88 0.334143 3.8706 0
M  V30 11763 H 1104.55 2.92607 3.56621 0
M  V30 11764 H 1102.8 2.80494 3.30916 0
M  V30 11765 H 1103.47 2.51034 4.91616 0
M  V30 11766 H 1105.94 0.769961 4.08914 0
M  V30 11767 H 1104.82 0.575914 5.4587 0
M  V30 11768 H 1105.08 -0.764878 4.35433 0
M  V30 11769 N 1104.14 -1.42577 0.671525 0
M  V30 11770 C 1105.37 -2.05625 0.20044 0
M  V30 11771 C 1105.78 -1.50524 -1.14626 0
M  V30 11772 O 1105.12 -0.638468 -1.72248 0
M  V30 11773 C 1105.18 -3.59459 0.0545385 0
M  V30 11774 C 1104.85 -4.37236 1.32943 0
M  V30 11775 C 1105.84 -4.68104 2.26219 0
M  V30 11776 C 1103.53 -4.76932 1.57612 0
M  V30 11777 C 1105.52 -5.37599 3.42442 0
M  V30 11778 C 1103.21 -5.46167 2.74125 0
M  V30 11779 C 1104.21 -5.76425 3.66364 0
M  V30 11780 O 1103.9 -6.44242 4.8084 0
M  V30 11781 H 1103.63 -0.66918 0.0957843 0
M  V30 11782 H 1106.18 -1.83759 0.917701 0
M  V30 11783 H 1104.41 -3.79971 -0.718271 0
M  V30 11784 H 1106.1 -4.04152 -0.376251 0
M  V30 11785 H 1106.87 -4.37939 2.08409 0
M  V30 11786 H 1102.75 -4.52776 0.866887 0
M  V30 11787 H 1106.29 -5.61133 4.14458 0
M  V30 11788 H 1102.19 -5.75749 2.91861 0
M  V30 11789 H 1102.96 -6.62732 4.80342 0
M  V30 11790 N 1105.62 -0.414636 -1.52048 0
M  V30 11791 C 1106.55 0.399119 -2.30064 0
M  V30 11792 C 1107.53 1.04126 -1.34506 0
M  V30 11793 O 1108.71 1.04923 -1.63416 0
M  V30 11794 C 1105.84 1.51305 -3.12608 0
M  V30 11795 C 1104.8 0.995621 -4.16259 0
M  V30 11796 C 1104.12 2.20357 -4.87183 0
M  V30 11797 C 1105.42 0.0458178 -5.2228 0
M  V30 11798 H 1107.12 -0.251879 -2.98339 0
M  V30 11799 H 1104.66 -0.122579 -1.43477 0
M  V30 11800 H 1106.62 2.08936 -3.65956 0
M  V30 11801 H 1105.34 2.19201 -2.42113 0
M  V30 11802 H 1104 0.441676 -3.6393 0
M  V30 11803 H 1103.65 2.8682 -4.13211 0
M  V30 11804 H 1103.35 1.86385 -5.57256 0
M  V30 11805 H 1104.87 2.78584 -5.43345 0
M  V30 11806 H 1106.29 0.531102 -5.70835 0
M  V30 11807 H 1104.68 -0.20536 -5.99749 0
M  V30 11808 H 1105.75 -0.897807 -4.76516 0
M  V30 11809 N 1107.1 1.56929 -0.145233 0
M  V30 11810 C 1108.32 2.00431 0.513314 0
M  V30 11811 C 1108.74 1.0253 1.58534 0
M  V30 11812 O 1108.1 0.0220459 1.82487 0
M  V30 11813 C 1108.15 3.43856 1.11557 0
M  V30 11814 O 1107.87 4.38015 0.0863707 0
M  V30 11815 C 1109.37 4.02627 1.8549 0
M  V30 11816 H 1106.59 0.657529 0.133778 0
M  V30 11817 H 1109.13 2.03095 -0.239296 0
M  V30 11818 H 1107.29 3.4205 1.81881 0
M  V30 11819 H 1107.7 5.21842 0.527363 0
M  V30 11820 H 1109.18 5.04985 2.22923 0
M  V30 11821 H 1109.65 3.43239 2.74014 0
M  V30 11822 H 1110.26 4.08058 1.19869 0
M  V30 11823 N 1108.58 -0.128553 1.57075 0
M  V30 11824 C 1109.82 -0.839252 1.8462 0
M  V30 11825 C 1110.15 -1.79974 0.729582 0
M  V30 11826 O 1109.43 -1.92681 -0.265369 0
M  V30 11827 C 1109.71 -1.59756 3.22723 0
M  V30 11828 C 1109.57 -0.657313 4.44971 0
M  V30 11829 C 1110.88 -2.55592 3.58275 0
M  V30 11830 H 1108 -0.303652 0.671539 0
M  V30 11831 H 1110.65 -0.103802 1.89716 0
M  V30 11832 H 1108.8 -2.22451 3.18509 0
M  V30 11833 H 1110.47 -0.0399471 4.61283 0
M  V30 11834 H 1108.71 0.0318416 4.33788 0
M  V30 11835 H 1109.38 -1.22433 5.38251 0
M  V30 11836 H 1111.86 -2.03007 3.63218 0
M  V30 11837 H 1110.73 -3.05687 4.55902 0
M  V30 11838 H 1110.99 -3.37813 2.85193 0
M  V30 11839 N 1110.05 -1.5248 -0.398459 0
M  V30 11840 C 1110.98 -1.79549 -1.49279 0
M  V30 11841 C 1111.96 -0.647004 -1.57315 0
M  V30 11842 O 1113.15 -0.893661 -1.72416 0
M  V30 11843 C 1110.28 -1.95582 -2.86993 0
M  V30 11844 C 1109.23 -3.1123 -2.93803 0
M  V30 11845 C 1108.56 -3.12501 -4.33874 0
M  V30 11846 C 1109.86 -4.50485 -2.64312 0
M  V30 11847 H 1111.55 -2.71187 -1.26877 0
M  V30 11848 H 1109.1 -1.30492 -0.608924 0
M  V30 11849 H 1111.05 -2.13102 -3.63546 0
M  V30 11850 H 1109.78 -1.00625 -3.10712 0
M  V30 11851 H 1108.44 -2.93477 -2.19697 0
M  V30 11852 H 1108.08 -2.15245 -4.54619 0
M  V30 11853 H 1107.78 -3.90183 -4.39353 0
M  V30 11854 H 1109.31 -3.32164 -5.12347 0
M  V30 11855 H 1110.72 -4.68387 -3.30585 0
M  V30 11856 H 1109.12 -5.30163 -2.81153 0
M  V30 11857 H 1110.19 -4.57848 -1.59696 0
M  V30 11858 N 1111.53 0.65634 -1.43283 0
M  V30 11859 C 1112.48 1.76934 -1.48199 0
M  V30 11860 C 1113.45 1.62748 -0.332023 0
M  V30 11861 O 1114.63 1.83036 -0.538735 0
M  V30 11862 C 1111.77 3.15072 -1.40797 0
M  V30 11863 C 1110.89 3.40414 -2.65974 0
M  V30 11864 C 1110.02 4.68383 -2.50582 0
M  V30 11865 C 1109.06 4.8682 -3.71043 0
M  V30 11866 N 1108.2 6.06043 -3.5448 0
M  V30 11867 H 1113.04 1.72067 -2.43304 0
M  V30 11868 H 1110.57 0.839728 -1.20777 0
M  V30 11869 H 1112.53 3.94925 -1.345 0
M  V30 11870 H 1111.16 3.19017 -0.492754 0
M  V30 11871 H 1110.21 2.54681 -2.82563 0
M  V30 11872 H 1111.53 3.49925 -3.55463 0
M  V30 11873 H 1110.68 5.56357 -2.41975 0
M  V30 11874 H 1109.42 4.61187 -1.58612 0
M  V30 11875 H 1108.42 3.97282 -3.80062 0
M  V30 11876 H 1109.65 4.95847 -4.64017 0
M  V30 11877 H 1107.6 5.99985 -2.65242 0
M  V30 11878 H 1107.51 6.16498 -4.37568 0
M  V30 11879 H 1108.78 6.96647 -3.49719 0
M  V30 11880 N 1113.01 1.29761 0.894412 0
M  V30 11881 C 1113.96 1.11962 1.98617 0
M  V30 11882 C 1114.94 0.0374952 1.60856 0
M  V30 11883 O 1116.14 0.259789 1.75083 0
M  V30 11884 C 1113.26 0.803708 3.3376 0
M  V30 11885 C 1112.35 1.92563 3.77863 0
M  V30 11886 N 1112.74 3.16983 3.94152 0
M  V30 11887 C 1111.04 1.81986 4.07182 0
M  V30 11888 C 1111.74 3.90212 4.31404 0
M  V30 11889 N 1110.72 3.18194 4.40742 0
M  V30 11890 H 1114.52 2.06339 2.09287 0
M  V30 11891 H 1112.03 1.20963 1.08359 0
M  V30 11892 H 1114.03 0.657223 4.11687 0
M  V30 11893 H 1112.69 -0.132098 3.24431 0
M  V30 11894 H 1113.7 3.52378 3.79539 0
M  V30 11895 H 1110.38 0.957112 4.06381 0
M  V30 11896 H 1111.77 4.97312 4.51808 0
M  V30 11897 N 1114.49 -1.10549 1.12324 0
M  V30 11898 C 1115.74 -1.82124 0.876083 0
M  V30 11899 C 1116.06 -1.85547 -0.599761 0
M  V30 11900 O 1115.33 -1.33269 -1.43584 0
M  V30 11901 H 1113.91 -0.674455 0.321122 0
M  V30 11902 H 1116.57 -1.33766 1.41748 0
M  V30 11903 H 1115.66 -2.85688 1.25653 0
M  V30 11904 N 1115.97 -0.914965 -1.28321 0
M  V30 11905 C 1117.24 -0.46764 -1.89928 0
M  V30 11906 C 1117.62 1.05364 -1.82925 0
M  V30 11907 O 1116.97 1.90223 -1.26599 0
M  V30 11908 C 1117.18 -0.999372 -3.34385 0
M  V30 11909 C 1118.53 -1.0522 -4.11356 0
M  V30 11910 O 1119.55 -0.9481 -3.4335 0
M  V30 11911 O 1118.41 -1.21085 -5.32917 0
M  V30 11912 H 1115.51 -0.148398 -0.813577 0
M  V30 11913 H 1118.05 -1.00583 -1.36679 0
M  V30 11914 H 1116.82 -2.04333 -3.33712 0
M  V30 11915 H 1116.45 -0.442083 -3.95135 0
M  V30 11916 N 1117.44 1.42219 -0.679077 0
M  V30 11917 C 1118.69 2.01081 -0.202718 0
M  V30 11918 C 1119.01 1.53986 1.19639 0
M  V30 11919 O 1118.28 0.763359 1.80415 0
M  V30 11920 H 1116.86 0.743526 -0.0719547 0
M  V30 11921 H 1119.52 1.74077 -0.876544 0
M  V30 11922 H 1118.62 3.11411 -0.207314 0
M  V30 11923 N 1118.92 0.422693 1.51826 0
M  V30 11924 C 1120.15 -0.147744 2.06372 0
M  V30 11925 C 1120.56 -1.37714 1.29152 0
M  V30 11926 O 1119.92 -1.7917 0.347046 0
M  V30 11927 C 1119.97 -0.484642 3.58237 0
M  V30 11928 O 1119.69 0.695944 4.32537 0
M  V30 11929 C 1121.19 -1.10734 4.29247 0
M  V30 11930 H 1118.41 -0.0144047 0.670845 0
M  V30 11931 H 1120.96 0.597558 1.95575 0
M  V30 11932 H 1119.11 -1.17984 3.68997 0
M  V30 11933 H 1119.53 0.411471 5.22884 0
M  V30 11934 H 1121 -1.29318 5.36639 0
M  V30 11935 H 1121.48 -2.08429 3.86593 0
M  V30 11936 H 1122.08 -0.451958 4.22892 0
M  V30 11937 N 1120.4 -1.5685 0.153553 0
M  V30 11938 C 1121.63 -2.00701 -0.502678 0
M  V30 11939 C 1122.04 -1.0337 -1.57988 0
M  V30 11940 O 1121.4 -0.0317233 -1.82472 0
M  V30 11941 C 1121.45 -3.44443 -1.09732 0
M  V30 11942 O 1121.17 -4.38054 -0.0631405 0
M  V30 11943 C 1122.67 -4.03605 -1.83352 0
M  V30 11944 H 1119.89 -0.658229 -0.130289 0
M  V30 11945 H 1122.44 -2.02965 0.250063 0
M  V30 11946 H 1120.59 -3.43009 -1.80065 0
M  V30 11947 H 1121.01 -5.22114 -0.499681 0
M  V30 11948 H 1122.48 -5.0616 -2.20241 0
M  V30 11949 H 1122.96 -3.44687 -2.7219 0
M  V30 11950 H 1123.56 -4.08688 -1.17703 0
M  V30 11951 N 1121.88 0.120221 -1.57141 0
M  V30 11952 C 1122.81 1.14876 -2.03287 0
M  V30 11953 C 1123.79 1.43259 -0.917112 0
M  V30 11954 O 1124.97 1.53721 -1.18674 0
M  V30 11955 C 1122.1 2.47525 -2.43616 0
M  V30 11956 C 1121.06 2.33607 -3.58625 0
M  V30 11957 C 1120.38 3.71207 -3.84849 0
M  V30 11958 C 1121.68 1.79761 -4.90391 0
M  V30 11959 H 1123.38 0.764943 -2.89463 0
M  V30 11960 H 1120.92 0.366516 -1.39258 0
M  V30 11961 H 1122.88 3.19728 -2.74504 0
M  V30 11962 H 1121.6 2.87794 -1.54409 0
M  V30 11963 H 1120.26 1.63853 -3.27945 0
M  V30 11964 H 1119.91 4.0896 -2.9285 0
M  V30 11965 H 1119.61 3.62749 -4.62263 0
M  V30 11966 H 1121.13 4.44917 -4.18188 0
M  V30 11967 H 1122.55 2.4178 -5.19822 0
M  V30 11968 H 1120.94 1.82126 -5.71795 0
M  V30 11969 H 1122.01 0.755087 -4.78985 0
M  V30 11970 N 1123.36 1.52689 0.390367 0
M  V30 11971 C 1124.63 1.58246 1.14968 0
M  V30 11972 C 1125.01 0.374808 2.07746 0
M  V30 11973 O 1124.36 -0.636969 2.19442 0
M  V30 11974 C 1124.57 2.92059 1.91056 0
M  V30 11975 C 1125.92 3.45745 2.46466 0
M  V30 11976 O 1126.94 2.93924 2.01214 0
M  V30 11977 O 1125.8 4.3628 3.29122 0
M  V30 11978 H 1122.9 0.638189 0.52597 0
M  V30 11979 H 1125.44 1.65024 0.39563 0
M  V30 11980 H 1124.21 3.71399 1.23201 0
M  V30 11981 H 1123.84 2.8866 2.73425 0
M  V30 11982 N 1124.83 -0.648732 1.43629 0
M  V30 11983 C 1126.08 -1.40446 1.44768 0
M  V30 11984 C 1126.4 -1.95447 0.0773445 0
M  V30 11985 O 1127.6 -2.71479 -0.0337942 0
M  V30 11986 C 1126.06 -2.54194 2.54781 0
M  V30 11987 C 1125.67 -2.05781 3.97942 0
M  V30 11988 C 1127.41 -3.31529 2.65121 0
M  V30 11989 C 1125.32 -3.16767 4.99412 0
M  V30 11990 H 1124.25 -0.527717 0.538545 0
M  V30 11991 H 1126.9 -0.699756 1.69634 0
M  V30 11992 H 1125.28 -3.27156 2.23125 0
M  V30 11993 H 1126.45 -1.398 4.39081 0
M  V30 11994 H 1124.77 -1.41312 3.91688 0
M  V30 11995 H 1127.37 -4.14233 3.38105 0
M  V30 11996 H 1127.71 -3.79855 1.70341 0
M  V30 11997 H 1128.24 -2.65649 2.961 0
M  V30 11998 H 1124.98 -2.73404 5.9576 0
M  V30 11999 H 1124.5 -3.81445 4.62882 0
M  V30 12000 H 1126.18 -3.81827 5.22319 0
M  V30 12001 N 1126.31 -1.30234 -0.887518 0
M  V30 12002 C 1127.25 -1.10726 -1.99537 0
M  V30 12003 C 1128.22 -0.0156237 -1.62592 0
M  V30 12004 O 1129.41 -0.168687 -1.87744 0
M  V30 12005 C 1126.53 -0.688185 -3.31635 0
M  V30 12006 C 1125.58 -1.78031 -3.87566 0
M  V30 12007 S 1126.41 -3.38219 -4.15172 0
M  V30 12008 C 1127.57 -2.98208 -5.50293 0
M  V30 12009 H 1127.8 -2.04516 -2.15778 0
M  V30 12010 H 1125.34 -1.14519 -1.0356 0
M  V30 12011 H 1127.29 -0.453124 -4.07991 0
M  V30 12012 H 1125.95 0.230315 -3.13254 0
M  V30 12013 H 1125.15 -1.43931 -4.83011 0
M  V30 12014 H 1124.75 -1.96952 -3.1794 0
M  V30 12015 H 1127.04 -2.4601 -6.31257 0
M  V30 12016 H 1127.98 -3.92551 -5.89329 0
M  V30 12017 H 1128.39 -2.36149 -5.12732 0
M  V30 12018 N 1127.79 1.09952 -1.12909 0
M  V30 12019 C 1128.72 2.18477 -0.824014 0
M  V30 12020 C 1129.7 1.68744 0.214324 0
M  V30 12021 O 1130.89 1.94057 0.0744281 0
M  V30 12022 C 1128.02 3.46143 -0.283308 0
M  V30 12023 C 1126.97 4.09178 -1.25528 0
M  V30 12024 C 1126.3 5.31604 -0.574574 0
M  V30 12025 C 1127.6 4.52308 -2.6118 0
M  V30 12026 H 1129.29 2.44254 -1.73148 0
M  V30 12027 H 1126.84 1.17394 -0.833952 0
M  V30 12028 H 1128.79 4.21361 -0.057583 0
M  V30 12029 H 1127.51 3.19872 0.659525 0
M  V30 12030 H 1126.17 3.35973 -1.4669 0
M  V30 12031 H 1125.82 5.01611 0.37356 0
M  V30 12032 H 1125.52 5.74732 -1.22299 0
M  V30 12033 H 1127.04 6.0955 -0.358004 0
M  V30 12034 H 1128.46 5.18776 -2.44017 0
M  V30 12035 H 1126.86 5.06302 -3.22147 0
M  V30 12036 H 1127.93 3.64977 -3.19249 0
M  V30 12037 N 1129.27 0.921757 1.27833 0
M  V30 12038 C 1130.22 0.414838 2.27041 0
M  V30 12039 C 1131.19 -0.515045 1.57913 0
M  V30 12040 O 1132.37 -0.435499 1.85763 0
M  V30 12041 C 1129.51 -0.331744 3.43502 0
M  V30 12042 C 1128.62 0.631565 4.27358 0
M  V30 12043 C 1127.76 -0.134265 5.3103 0
M  V30 12044 C 1126.8 0.822138 6.06554 0
M  V30 12045 N 1125.93 0.0893149 7.02043 0
M  V30 12046 H 1130.77 1.26585 2.69778 0
M  V30 12047 H 1128.31 0.635488 1.32665 0
M  V30 12048 H 1130.27 -0.780866 4.09827 0
M  V30 12049 H 1128.9 -1.14704 3.01733 0
M  V30 12050 H 1127.95 1.19922 3.61003 0
M  V30 12051 H 1129.26 1.36274 4.79824 0
M  V30 12052 H 1128.42 -0.643579 6.03277 0
M  V30 12053 H 1127.16 -0.898443 4.79353 0
M  V30 12054 H 1126.16 1.34275 5.33151 0
M  V30 12055 H 1127.39 1.586 6.6032 0
M  V30 12056 H 1125.33 -0.656725 6.52704 0
M  V30 12057 H 1125.25 0.760167 7.52169 0
M  V30 12058 H 1126.52 -0.399541 7.78475 0
M  V30 12059 N 1130.75 -1.41857 0.686609 0
M  V30 12060 C 1131.68 -2.33481 0.0298353 0
M  V30 12061 C 1132.66 -1.51329 -0.776756 0
M  V30 12062 O 1133.84 -1.79895 -0.731535 0
M  V30 12063 C 1130.97 -3.35065 -0.913707 0
M  V30 12064 C 1129.93 -4.2746 -0.214861 0
M  V30 12065 C 1129.25 -5.19346 -1.27215 0
M  V30 12066 C 1130.55 -5.14252 0.913367 0
M  V30 12067 H 1132.25 -2.8865 0.795067 0
M  V30 12068 H 1129.79 -1.38792 0.383785 0
M  V30 12069 H 1131.75 -3.98082 -1.38234 0
M  V30 12070 H 1130.47 -2.78226 -1.7105 0
M  V30 12071 H 1129.13 -3.65855 0.233651 0
M  V30 12072 H 1128.78 -4.58827 -2.06124 0
M  V30 12073 H 1128.48 -5.81996 -0.80961 0
M  V30 12074 H 1130 -5.85239 -1.74147 0
M  V30 12075 H 1131.41 -5.70887 0.525424 0
M  V30 12076 H 1129.81 -5.85796 1.30244 0
M  V30 12077 H 1130.88 -4.51949 1.75699 0
M  V30 12078 N 1132.22 -0.430739 -1.51599 0
M  V30 12079 C 1133.17 0.401828 -2.24431 0
M  V30 12080 C 1134.16 0.995588 -1.264 0
M  V30 12081 O 1135.35 0.914822 -1.51526 0
M  V30 12082 C 1132.48 1.5061 -3.08499 0
M  V30 12083 C 1131.57 0.922059 -4.13955 0
M  V30 12084 N 1131.96 0.0665912 -5.05756 0
M  V30 12085 C 1130.25 1.19034 -4.29822 0
M  V30 12086 C 1130.96 -0.260713 -5.81115 0
M  V30 12087 N 1129.93 0.353991 -5.42446 0
M  V30 12088 H 1133.73 -0.257813 -2.92767 0
M  V30 12089 H 1131.25 -0.242421 -1.6058 0
M  V30 12090 H 1133.24 2.11535 -3.59247 0
M  V30 12091 H 1131.9 2.16815 -2.41706 0
M  V30 12092 H 1132.92 -0.299356 -5.17034 0
M  V30 12093 H 1129.59 1.85036 -3.74256 0
M  V30 12094 H 1130.98 -0.956442 -6.65058 0
M  V30 12095 N 1133.7 1.56767 -0.161869 0
M  V30 12096 C 1134.65 2.17502 0.772102 0
M  V30 12097 C 1135.62 1.11223 1.23364 0
M  V30 12098 O 1136.8 1.39332 1.30351 0
M  V30 12099 C 1133.94 2.81248 1.99984 0
M  V30 12100 C 1133.06 4.01962 1.58274 0
M  V30 12101 C 1132.19 4.53662 2.76341 0
M  V30 12102 C 1131.23 5.66807 2.31076 0
M  V30 12103 N 1130.37 6.13059 3.42203 0
M  V30 12104 H 1135.21 2.96971 0.247382 0
M  V30 12105 H 1132.75 1.46685 0.110382 0
M  V30 12106 H 1134.7 3.16359 2.7198 0
M  V30 12107 H 1133.33 2.04398 2.49842 0
M  V30 12108 H 1132.39 3.72733 0.759874 0
M  V30 12109 H 1133.7 4.83891 1.2104 0
M  V30 12110 H 1132.85 4.90905 3.56507 0
M  V30 12111 H 1131.59 3.7077 3.16829 0
M  V30 12112 H 1130.6 5.29125 1.49354 0
M  V30 12113 H 1131.82 6.51494 1.91657 0
M  V30 12114 H 1129.77 5.33099 3.82285 0
M  V30 12115 H 1129.68 6.89953 3.09033 0
M  V30 12116 H 1130.95 6.54951 4.22682 0
M  V30 12117 N 1135.18 -0.111886 1.57202 0
M  V30 12118 C 1136.11 -1.16274 1.97517 0
M  V30 12119 C 1137.13 -1.37259 0.875425 0
M  V30 12120 O 1138.31 -1.36208 1.15367 0
M  V30 12121 C 1135.41 -2.52145 2.26442 0
M  V30 12122 C 1134.59 -2.51666 3.57747 0
M  V30 12123 C 1133.65 -3.69337 3.74802 0
M  V30 12124 O 1132.67 -3.52596 4.46839 0
M  V30 12125 N 1133.87 -4.88177 3.14108 0
M  V30 12126 H 1136.64 -0.819747 2.88271 0
M  V30 12127 H 1134.2 -0.301076 1.59076 0
M  V30 12128 H 1136.19 -3.29437 2.3506 0
M  V30 12129 H 1134.76 -2.78599 1.41779 0
M  V30 12130 H 1133.98 -1.60038 3.60252 0
M  V30 12131 H 1135.27 -2.48408 4.44039 0
M  V30 12132 H 1134.67 -5.04682 2.55564 0
M  V30 12133 H 1133.23 -5.6312 3.28237 0
M  V30 12134 N 1136.66 -1.52894 -0.382264 0
M  V30 12135 C 1137.62 -1.77497 -1.45008 0
M  V30 12136 C 1138.62 -0.64509 -1.47293 0
M  V30 12137 O 1139.81 -0.913192 -1.48346 0
M  V30 12138 C 1136.94 -1.88188 -2.8425 0
M  V30 12139 H 1138.14 -2.72849 -1.24473 0
M  V30 12140 H 1135.69 -1.43717 -0.61441 0
M  V30 12141 H 1136.42 -0.948451 -3.10121 0
M  V30 12142 H 1136.21 -2.70353 -2.83992 0
M  V30 12143 H 1137.7 -2.08873 -3.6161 0
M  V30 12144 N 1138.14 0.641106 -1.43971 0
M  V30 12145 C 1139.41 1.39897 -1.36704 0
M  V30 12146 C 1139.79 2.1109 -0.0208051 0
M  V30 12147 O 1139.14 2.05638 0.99625 0
M  V30 12148 C 1139.35 2.37366 -2.55849 0
M  V30 12149 C 1140.7 3.01 -2.99473 0
M  V30 12150 O 1141.72 2.47692 -2.55982 0
M  V30 12151 O 1140.58 3.9768 -3.74851 0
M  V30 12152 H 1137.68 0.625623 -0.540855 0
M  V30 12153 H 1140.22 0.666997 -1.56042 0
M  V30 12154 H 1139 1.8379 -3.45452 0
M  V30 12155 H 1138.62 3.17995 -2.38673 0
M  V30 12156 N 1139.62 1.30703 0.880598 0
M  V30 12157 C 1140.55 1.11783 1.98947 0
M  V30 12158 C 1141.53 0.0242461 1.62582 0
M  V30 12159 O 1142.71 0.178641 1.87652 0
M  V30 12160 C 1139.84 0.705762 3.31265 0
M  V30 12161 C 1138.88 1.80084 3.86616 0
M  V30 12162 S 1139.72 3.40416 4.13373 0
M  V30 12163 C 1140.87 3.01122 5.48704 0
M  V30 12164 H 1141.11 2.05658 2.14691 0
M  V30 12165 H 1138.64 1.15067 1.02951 0
M  V30 12166 H 1140.6 0.474754 4.07745 0
M  V30 12167 H 1139.26 -0.213699 3.13372 0
M  V30 12168 H 1138.45 1.4649 4.82241 0
M  V30 12169 H 1138.05 1.98636 3.16891 0
M  V30 12170 H 1140.34 2.49355 6.29943 0
M  V30 12171 H 1141.29 3.95671 5.87239 0
M  V30 12172 H 1141.7 2.38865 5.11472 0
M  V30 12173 N 1141.09 -1.09351 1.1349 0
M  V30 12174 C 1142.03 -2.15852 0.770763 0
M  V30 12175 C 1143.04 -1.61468 -0.207866 0
M  V30 12176 O 1144.23 -1.78496 0.0124385 0
M  V30 12177 C 1141.33 -3.38681 0.121871 0
M  V30 12178 C 1140.5 -4.22477 1.13279 0
M  V30 12179 C 1139.56 -5.23728 0.509448 0
M  V30 12180 O 1138.59 -5.57052 1.16967 0
M  V30 12181 N 1139.79 -5.76041 -0.718159 0
M  V30 12182 H 1142.55 -2.47696 1.6872 0
M  V30 12183 H 1140.11 -1.25074 1.02801 0
M  V30 12184 H 1142.11 -4.03531 -0.307404 0
M  V30 12185 H 1140.68 -3.04718 -0.697527 0
M  V30 12186 H 1139.9 -3.53753 1.73933 0
M  V30 12187 H 1141.18 -4.75288 1.81601 0
M  V30 12188 H 1140.58 -5.51183 -1.27331 0
M  V30 12189 H 1139.14 -6.4262 -1.09008 0
M  V30 12190 N 1142.57 -0.928524 -1.27343 0
M  V30 12191 C 1143.48 -0.433901 -2.30553 0
M  V30 12192 C 1144.5 0.485832 -1.6708 0
M  V30 12193 O 1145.67 0.36844 -1.98001 0
M  V30 12194 C 1142.74 0.304617 -3.45359 0
M  V30 12195 C 1141.8 -0.650131 -4.24349 0
M  V30 12196 C 1141.03 0.0532372 -5.33673 0
M  V30 12197 O 1141.26 1.27246 -5.56026 0
M  V30 12198 O 1140.19 -0.619009 -5.98709 0
M  V30 12199 H 1144.02 -1.2909 -2.74899 0
M  V30 12200 H 1141.6 -0.693903 -1.32308 0
M  V30 12201 H 1143.48 0.721137 -4.15184 0
M  V30 12202 H 1142.16 1.13721 -3.03066 0
M  V30 12203 H 1141.06 -1.11635 -3.57055 0
M  V30 12204 H 1142.4 -1.44996 -4.70358 0
M  V30 12205 N 1144.05 1.41491 -0.694123 0
M  V30 12206 C 1144.96 2.34583 -0.0283414 0
M  V30 12207 C 1145.98 1.5615 0.767662 0
M  V30 12208 O 1147.15 1.88637 0.705556 0
M  V30 12209 C 1144.22 3.34876 0.897726 0
M  V30 12210 C 1143.28 4.29197 0.0940905 0
M  V30 12211 C 1142.51 5.24699 0.976051 0
M  V30 12212 O 1142.73 5.25613 2.21556 0
M  V30 12213 O 1141.67 6.00387 0.426503 0
M  V30 12214 H 1145.49 2.93092 -0.795656 0
M  V30 12215 H 1143.08 1.4232 -0.45445 0
M  V30 12216 H 1144.96 3.96438 1.4288 0
M  V30 12217 H 1143.64 2.78812 1.64456 0
M  V30 12218 H 1142.54 3.70988 -0.481552 0
M  V30 12219 H 1143.88 4.88355 -0.614045 0
M  V30 12220 N 1145.53 0.438773 1.51369 0
M  V30 12221 C 1146.47 -0.37195 2.27783 0
M  V30 12222 C 1147.44 -1.01558 1.31435 0
M  V30 12223 O 1148.63 -1.03421 1.60339 0
M  V30 12224 C 1145.77 -1.46636 3.12397 0
M  V30 12225 C 1144.88 -0.840727 4.2374 0
M  V30 12226 C 1144.02 -1.91031 4.95662 0
M  V30 12227 C 1143.06 -1.26318 5.98924 0
M  V30 12228 N 1142.19 -2.27419 6.64248 0
M  V30 12229 H 1147.03 0.286048 2.96624 0
M  V30 12230 H 1144.57 0.152909 1.46303 0
M  V30 12231 H 1146.53 -2.11219 3.59781 0
M  V30 12232 H 1145.16 -2.09397 2.45668 0
M  V30 12233 H 1144.21 -0.0831588 3.80309 0
M  V30 12234 H 1145.52 -0.328285 4.97719 0
M  V30 12235 H 1144.68 -2.63272 5.46601 0
M  V30 12236 H 1143.42 -2.45649 4.21317 0
M  V30 12237 H 1142.42 -0.526246 5.47276 0
M  V30 12238 H 1143.65 -0.724324 6.75226 0
M  V30 12239 H 1141.59 -2.81114 5.92715 0
M  V30 12240 H 1141.51 -1.81071 7.33996 0
M  V30 12241 H 1142.78 -2.99139 7.19817 0
M  V30 12242 N 1147.01 -1.56678 0.170181 0
M  V30 12243 C 1147.95 -2.19222 -0.777459 0
M  V30 12244 C 1148.95 -1.15592 -1.23834 0
M  V30 12245 O 1150.15 -1.33794 -1.20412 0
M  V30 12246 H 1146.53 -0.702244 -0.268992 0
M  V30 12247 H 1148.5 -2.97543 -0.225989 0
M  V30 12248 C 1147.25 -2.84631 -1.997 0
M  V30 12249 H 1146.57 -3.641 -1.65139 0
M  V30 12250 H 1148.01 -3.31864 -2.63898 0
M  V30 12251 C 1146.47 -1.84345 -2.81991 0
M  V30 12252 O 1147 -1.32821 -3.79106 0
M  V30 12253 N 1145.21 -1.53127 -2.46983 0
M  V30 12254 H 1144.75 -1.95219 -1.6807 0
M  V30 12255 H 1144.71 -0.862787 -3.0233 0
M  V30 12256 N 1148.48 0.103547 -1.57259 0
M  V30 12257 C 1149.9 0.457527 -1.52901 0
M  V30 12258 C 1150.1 1.80995 -0.8856 0
M  V30 12259 O 1149.16 2.48001 -0.474504 0
M  V30 12260 C 1150.47 0.427793 -2.97641 0
M  V30 12261 C 1152.02 0.51025 -3.08813 0
M  V30 12262 C 1152.49 0.51075 -4.55143 0
M  V30 12263 N 1153.98 0.571748 -4.59658 0
M  V30 12264 C 1154.72 0.593836 -5.70317 0
M  V30 12265 N 1154.21 0.572638 -6.90429 0
M  V30 12266 N 1156.01 0.638011 -5.58467 0
M  V30 12267 H 1148.16 -0.782408 -1.97464 0
M  V30 12268 H 1150.42 -0.290324 -0.90245 0
M  V30 12269 H 1150.13 -0.498608 -3.48148 0
M  V30 12270 H 1150 1.24991 -3.55889 0
M  V30 12271 H 1152.39 1.42707 -2.583 0
M  V30 12272 H 1152.47 -0.339846 -2.53532 0
M  V30 12273 H 1152.11 -0.40209 -5.06306 0
M  V30 12274 H 1152.04 1.37794 -5.08252 0
M  V30 12275 H 1154.53 0.593668 -3.73208 0
M  V30 12276 H 1154.85 0.592542 -7.70525 0
M  V30 12277 H 1153.19 0.539818 -6.929 0
M  V30 12278 H 1156.38 0.652042 -4.63536 0
M  V30 12279 H 1156.56 0.651756 -6.44714 0
M  V30 12280 N 1149.96 1.53094 0.37415 0
M  V30 12281 C 1151.21 1.68082 1.11495 0
M  V30 12282 C 1151.52 0.434685 1.90709 0
M  V30 12283 O 1152.73 0.464956 2.67489 0
M  V30 12284 C 1151.19 2.97101 2.03124 0
M  V30 12285 C 1150.79 4.28947 1.29262 0
M  V30 12286 C 1152.54 3.21456 2.77248 0
M  V30 12287 C 1150.44 5.4906 2.19743 0
M  V30 12288 H 1149.37 0.626238 0.419931 0
M  V30 12289 H 1152.03 1.79594 0.376588 0
M  V30 12290 H 1150.41 2.79371 2.80656 0
M  V30 12291 H 1151.58 4.57279 0.568528 0
M  V30 12292 H 1149.9 4.10968 0.670362 0
M  V30 12293 H 1152.49 4.08377 3.45155 0
M  V30 12294 H 1152.84 2.37153 3.42146 0
M  V30 12295 H 1153.37 3.3982 2.06803 0
M  V30 12296 H 1150.11 6.35815 1.59437 0
M  V30 12297 H 1149.63 5.25019 2.90027 0
M  V30 12298 H 1151.31 5.83517 2.79495 0
M  V30 12299 N 1151.44 -0.633461 1.44309 0
M  V30 12300 C 1152.35 -1.77428 1.53481 0
M  V30 12301 C 1153.37 -1.68839 0.420628 0
M  V30 12302 O 1154.54 -1.89658 0.677638 0
M  V30 12303 C 1151.61 -3.13801 1.47409 0
M  V30 12304 C 1150.67 -3.34039 2.6966 0
M  V30 12305 C 1149.9 -4.63907 2.63868 0
M  V30 12306 O 1150.12 -5.44559 1.69741 0
M  V30 12307 O 1149.06 -4.86295 3.54684 0
M  V30 12308 H 1152.88 -1.72642 2.49857 0
M  V30 12309 H 1150.47 -0.794399 1.26529 0
M  V30 12310 H 1152.35 -3.95101 1.46537 0
M  V30 12311 H 1151.03 -3.19134 0.541769 0
M  V30 12312 H 1149.93 -2.52427 2.761 0
M  V30 12313 H 1151.27 -3.33566 3.61931 0
M  V30 12314 N 1152.92 -1.31168 -0.873655 0
M  V30 12315 C 1154.33 -1.09745 -1.1588 0
M  V30 12316 C 1154.53 0.134471 -2.01051 0
M  V30 12317 O 1153.59 0.824857 -2.38647 0
M  V30 12318 C 1154.9 -2.36704 -1.85451 0
M  V30 12319 C 1156.45 -2.42278 -1.98167 0
M  V30 12320 C 1156.93 -3.69108 -2.71152 0
M  V30 12321 N 1158.42 -3.69981 -2.7869 0
M  V30 12322 C 1159.15 -4.64811 -3.35765 0
M  V30 12323 N 1158.65 -5.69995 -3.938 0
M  V30 12324 N 1160.44 -4.52337 -3.33688 0
M  V30 12325 H 1152.59 -2.10184 -0.306021 0
M  V30 12326 H 1154.86 -0.927058 -0.198159 0
M  V30 12327 H 1154.56 -3.26666 -1.30316 0
M  V30 12328 H 1154.44 -2.46219 -2.85755 0
M  V30 12329 H 1156.82 -1.52787 -2.52468 0
M  V30 12330 H 1156.9 -2.3673 -0.969164 0
M  V30 12331 H 1156.55 -4.58963 -2.1752 0
M  V30 12332 H 1156.48 -3.71922 -3.72803 0
M  V30 12333 H 1158.97 -2.93944 -2.37498 0
M  V30 12334 H 1159.28 -6.38438 -4.3545 0
M  V30 12335 H 1157.63 -5.73773 -3.92186 0
M  V30 12336 H 1160.82 -3.69341 -2.87584 0
M  V30 12337 H 1160.99 -5.2642 -3.77871 0
M  V30 12338 N 1154.4 1.08748 -1.14068 0
M  V30 12339 C 1155.64 1.81333 -0.908081 0
M  V30 12340 C 1155.98 1.85826 0.564112 0
M  V30 12341 O 1155.25 1.33157 1.41773 0
M  V30 12342 C 1155.53 3.27127 -1.50531 0
M  V30 12343 C 1155.39 3.30865 -3.04711 0
M  V30 12344 C 1156.71 4.24006 -1.17928 0
M  V30 12345 H 1153.82 0.658326 -0.331325 0
M  V30 12346 H 1156.47 1.27345 -1.41008 0
M  V30 12347 H 1154.62 3.73233 -1.07839 0
M  V30 12348 H 1156.29 2.93109 -3.56209 0
M  V30 12349 H 1154.53 2.70241 -3.39341 0
M  V30 12350 H 1155.2 4.33603 -3.41603 0
M  V30 12351 H 1157.68 3.86221 -1.54831 0
M  V30 12352 H 1156.55 5.2434 -1.62353 0
M  V30 12353 H 1156.82 4.42 -0.0940349 0
M  V30 12354 N 1155.87 0.935264 1.26849 0
M  V30 12355 C 1156.8 0.457776 2.28969 0
M  V30 12356 C 1157.79 -0.48587 1.63013 0
M  V30 12357 O 1158.97 -0.388998 1.90264 0
M  V30 12358 C 1156.1 -0.283332 3.46142 0
M  V30 12359 C 1155.05 0.573196 4.24144 0
M  V30 12360 C 1154.38 -0.297525 5.33872 0
M  V30 12361 C 1155.68 1.84153 4.88759 0
M  V30 12362 H 1157.37 1.31125 2.69159 0
M  V30 12363 H 1154.92 0.631956 1.29392 0
M  V30 12364 H 1156.87 -0.628366 4.16689 0
M  V30 12365 H 1155.6 -1.1709 3.04889 0
M  V30 12366 H 1154.26 0.901043 3.55354 0
M  V30 12367 H 1153.9 -1.18427 4.8886 0
M  V30 12368 H 1153.6 0.272126 5.8697 0
M  V30 12369 H 1155.13 -0.637961 6.07258 0
M  V30 12370 H 1156.54 1.5641 5.51551 0
M  V30 12371 H 1154.94 2.35528 5.51948 0
M  V30 12372 H 1156.01 2.5565 4.12033 0
M  V30 12373 N 1157.35 -1.41121 0.701616 0
M  V30 12374 C 1158.6 -2.00733 0.234682 0
M  V30 12375 C 1158.92 -1.55869 -1.17174 0
M  V30 12376 O 1158.19 -0.791965 -1.79178 0
M  V30 12377 H 1156.77 -0.742288 0.0837745 0
M  V30 12378 H 1159.43 -1.7266 0.904127 0
M  V30 12379 H 1158.53 -3.11041 0.256831 0
M  V30 12380 N 1158.83 -0.446794 -1.51134 0
M  V30 12381 C 1159.79 0.348311 -2.26538 0
M  V30 12382 C 1160.79 0.941566 -1.3035 0
M  V30 12383 O 1161.98 0.814537 -1.53984 0
M  V30 12384 C 1159.12 1.49371 -3.06433 0
M  V30 12385 H 1160.31 -0.312648 -2.98266 0
M  V30 12386 H 1157.86 -0.200201 -1.55013 0
M  V30 12387 H 1158.6 2.19045 -2.39144 0
M  V30 12388 H 1158.38 1.07439 -3.77093 0
M  V30 12389 H 1159.87 2.05522 -3.63525 0
M  V30 12390 N 1160.31 1.56586 -0.178487 0
M  V30 12391 C 1161.54 2.01475 0.470684 0
M  V30 12392 C 1161.95 1.0587 1.56323 0
M  V30 12393 O 1161.31 0.060749 1.82399 0
M  V30 12394 C 1161.36 3.46145 1.04238 0
M  V30 12395 O 1161.08 4.381 -0.0065582 0
M  V30 12396 C 1162.58 4.06471 1.76908 0
M  V30 12397 H 1159.8 0.660219 0.119801 0
M  V30 12398 H 1162.35 2.02542 -0.282322 0
M  V30 12399 H 1160.5 3.45831 1.74585 0
M  V30 12400 H 1160.91 5.22843 0.416554 0
M  V30 12401 H 1162.39 5.096 2.12161 0
M  V30 12402 H 1162.87 3.48974 2.66672 0
M  V30 12403 H 1163.47 4.10509 1.11186 0
M  V30 12404 N 1161.79 -0.095206 1.57312 0
M  V30 12405 C 1162.72 -1.11627 2.05089 0
M  V30 12406 C 1163.7 -1.41782 0.939787 0
M  V30 12407 O 1164.88 -1.51813 1.21105 0
M  V30 12408 C 1162.01 -2.43618 2.47523 0
M  V30 12409 C 1160.97 -2.27872 3.62296 0
M  V30 12410 C 1160.29 -3.65038 3.90706 0
M  V30 12411 C 1161.59 -1.71936 4.93189 0
M  V30 12412 H 1163.29 -0.718795 2.90644 0
M  V30 12413 H 1160.83 -0.344315 1.39823 0
M  V30 12414 H 1162.79 -3.1532 2.79556 0
M  V30 12415 H 1161.51 -2.85301 1.58968 0
M  V30 12416 H 1160.17 -1.58615 3.3051 0
M  V30 12417 H 1159.82 -4.04249 2.99319 0
M  V30 12418 H 1159.52 -3.55349 4.67976 0
M  V30 12419 H 1161.04 -4.38208 4.25213 0
M  V30 12420 H 1162.45 -2.33479 5.23603 0
M  V30 12421 H 1160.85 -1.73006 5.74621 0
M  V30 12422 H 1161.92 -0.678789 4.80125 0
M  V30 12423 N 1163.26 -1.53291 -0.366026 0
M  V30 12424 C 1164.19 -1.82675 -1.45437 0
M  V30 12425 C 1165.18 -0.680227 -1.55907 0
M  V30 12426 O 1166.36 -0.930032 -1.70482 0
M  V30 12427 C 1163.49 -2.01626 -2.8278 0
M  V30 12428 C 1162.44 -3.17391 -2.87135 0
M  V30 12429 C 1161.77 -3.21634 -4.27148 0
M  V30 12430 C 1163.07 -4.5599 -2.54697 0
M  V30 12431 H 1164.76 -2.73818 -1.21096 0
M  V30 12432 H 1162.31 -1.31754 -0.581108 0
M  V30 12433 H 1164.26 -2.20765 -3.58944 0
M  V30 12434 H 1162.99 -1.07193 -3.08508 0
M  V30 12435 H 1161.65 -2.98071 -2.13422 0
M  V30 12436 H 1161.29 -2.2484 -4.49951 0
M  V30 12437 H 1160.99 -3.99414 -4.30978 0
M  V30 12438 H 1162.52 -3.42957 -5.05186 0
M  V30 12439 H 1163.93 -4.75294 -3.20575 0
M  V30 12440 H 1162.33 -5.36008 -2.69844 0
M  V30 12441 H 1163.4 -4.61133 -1.49949 0
M  V30 12442 N 1164.74 0.6258 -1.44643 0
M  V30 12443 C 1166.15 1.20751 -1.42394 0
M  V30 12444 C 1166.5 1.95685 -0.142047 0
M  V30 12445 O 1165.63 2.02715 0.757332 0
M  V30 12446 C 1166.22 2.1964 -2.57961 0
M  V30 12447 C 1164.78 2.73227 -2.5889 0
M  V30 12448 C 1163.93 1.48315 -2.34303 0
M  V30 12449 H 1166.88 0.416162 -1.53146 0
M  V30 12450 H 1166.9 3.02342 -2.31019 0
M  V30 12451 H 1166.41 1.65073 -3.51244 0
M  V30 12452 H 1164.52 3.31782 -1.69563 0
M  V30 12453 H 1164.63 3.18902 -3.57545 0
M  V30 12454 H 1162.99 1.76634 -1.83501 0
M  V30 12455 H 1163.78 0.956427 -3.29708 0
M  V30 12456 N 1166.22 1.31629 0.866686 0
M  V30 12457 C 1167.5 1.12136 1.60265 0
M  V30 12458 C 1167.88 -0.322729 2.08618 0
M  V30 12459 O 1167.23 -1.31738 1.86701 0
M  V30 12460 C 1167.44 2.13845 2.7581 0
M  V30 12461 C 1168.78 2.46541 3.45692 0
M  V30 12462 O 1169.81 2.12298 2.86021 0
M  V30 12463 O 1168.67 3.05194 4.53342 0
M  V30 12464 H 1165.76 0.431923 0.705246 0
M  V30 12465 H 1168.31 1.43119 0.911863 0
M  V30 12466 H 1167.08 3.10967 2.37518 0
M  V30 12467 H 1166.7 1.83786 3.52574 0
M  V30 12468 N 1167.7 -1.08142 1.14644 0
M  V30 12469 C 1168.63 -2.17139 0.858667 0
M  V30 12470 C 1169.61 -1.69064 -0.187452 0
M  V30 12471 O 1170.8 -1.94151 -0.0435458 0
M  V30 12472 C 1167.93 -3.45648 0.33834 0
M  V30 12473 C 1166.88 -4.07129 1.32021 0
M  V30 12474 C 1166.21 -5.30623 0.659075 0
M  V30 12475 C 1167.51 -4.48095 2.68343 0
M  V30 12476 H 1169.2 -2.41468 1.77012 0
M  V30 12477 H 1166.75 -1.16052 0.852523 0
M  V30 12478 H 1168.7 -4.21216 0.124611 0
M  V30 12479 H 1167.42 -3.2088 -0.608553 0
M  V30 12480 H 1166.08 -3.33596 1.52016 0
M  V30 12481 H 1165.73 -5.02142 -0.293711 0
M  V30 12482 H 1165.43 -5.72714 1.31427 0
M  V30 12483 H 1166.95 -6.08903 0.454933 0
M  V30 12484 H 1168.37 -5.14828 2.5224 0
M  V30 12485 H 1166.76 -5.01113 3.30161 0
M  V30 12486 H 1167.83 -3.59852 3.25015 0
M  V30 12487 N 1169.18 -0.941978 -1.26351 0
M  V30 12488 C 1170.43 -0.585711 -1.93009 0
M  V30 12489 C 1170.74 0.879507 -1.74711 0
M  V30 12490 O 1171.95 1.34518 -2.35833 0
M  V30 12491 C 1170.4 -0.996787 -3.45821 0
M  V30 12492 C 1170.01 -2.48367 -3.72851 0
M  V30 12493 C 1171.75 -0.712452 -4.18479 0
M  V30 12494 C 1169.66 -2.83341 -5.19107 0
M  V30 12495 H 1168.59 -0.215342 -0.722595 0
M  V30 12496 H 1171.24 -1.14472 -1.43417 0
M  V30 12497 H 1169.62 -0.366295 -3.94302 0
M  V30 12498 H 1170.8 -3.16328 -3.35072 0
M  V30 12499 H 1169.11 -2.74139 -3.13427 0
M  V30 12500 H 1171.71 -0.95007 -5.26192 0
M  V30 12501 H 1172.05 0.350811 -4.14819 0
M  V30 12502 H 1172.59 -1.3027 -3.75865 0
M  V30 12503 H 1169.32 -3.88633 -5.27868 0
M  V30 12504 H 1168.84 -2.20043 -5.5798 0
M  V30 12505 H 1170.52 -2.71849 -5.87118 0
M  V30 12506 N 1170.66 1.40747 -0.709091 0
M  V30 12507 C 1171.59 2.29196 -0.0130359 0
M  V30 12508 C 1172.6 1.45491 0.730487 0
M  V30 12509 O 1173.79 1.6885 0.578944 0
M  V30 12510 C 1170.89 3.23632 1.00577 0
M  V30 12511 C 1170.06 4.3616 0.329105 0
M  V30 12512 C 1169.12 5.11079 1.25239 0
M  V30 12513 O 1168.15 5.64374 0.739641 0
M  V30 12514 N 1169.35 5.1982 2.58394 0
M  V30 12515 H 1172.11 2.89574 -0.772462 0
M  V30 12516 H 1169.68 1.52046 -0.556197 0
M  V30 12517 H 1171.67 3.70622 1.62546 0
M  V30 12518 H 1170.24 2.64467 1.66661 0
M  V30 12519 H 1169.46 3.9138 -0.470683 0
M  V30 12520 H 1170.75 5.08605 -0.140856 0
M  V30 12521 H 1170.14 4.77992 3.02556 0
M  V30 12522 H 1168.7 5.7034 3.15524 0
M  V30 12523 N 1172.13 0.454803 1.50895 0
M  V30 12524 C 1173.08 -0.347769 2.28165 0
M  V30 12525 C 1174.05 -1.00158 1.32505 0
M  V30 12526 O 1175.24 -1.01715 1.61427 0
M  V30 12527 C 1172.38 -1.43315 3.13934 0
M  V30 12528 C 1171.49 -0.795736 4.24608 0
M  V30 12529 C 1170.62 -1.85763 4.9766 0
M  V30 12530 C 1169.66 -1.19959 6.0023 0
M  V30 12531 N 1168.8 -2.20361 6.66622 0
M  V30 12532 H 1173.64 0.317493 2.96304 0
M  V30 12533 H 1171.18 0.168418 1.46133 0
M  V30 12534 H 1173.13 -2.07391 3.62001 0
M  V30 12535 H 1171.76 -2.0678 2.47875 0
M  V30 12536 H 1170.82 -0.0428173 3.80376 0
M  V30 12537 H 1172.13 -0.275477 4.98039 0
M  V30 12538 H 1171.28 -2.5746 5.49363 0
M  V30 12539 H 1170.02 -2.41166 4.23899 0
M  V30 12540 H 1169.03 -0.46817 5.47803 0
M  V30 12541 H 1170.25 -0.652666 6.75956 0
M  V30 12542 H 1168.2 -2.74812 5.95663 0
M  V30 12543 H 1168.11 -1.73275 7.35875 0
M  V30 12544 H 1169.38 -2.91488 7.22949 0
M  V30 12545 N 1173.61 -1.56489 0.186789 0
M  V30 12546 C 1174.86 -1.97634 -0.454831 0
M  V30 12547 C 1175.19 -1.07334 -1.61843 0
M  V30 12548 O 1174.47 -0.123612 -1.94107 0
M  V30 12549 C 1174.75 -3.48071 -0.922962 0
M  V30 12550 C 1174.6 -4.49149 0.241877 0
M  V30 12551 C 1175.92 -4.01994 -1.79134 0
M  V30 12552 H 1173.04 -0.718555 -0.163854 0
M  V30 12553 H 1175.68 -1.87984 0.27604 0
M  V30 12554 H 1173.83 -3.56425 -1.54575 0
M  V30 12555 H 1175.5 -4.52841 0.87936 0
M  V30 12556 H 1173.75 -4.24468 0.894964 0
M  V30 12557 H 1174.42 -5.51851 -0.128051 0
M  V30 12558 H 1176.89 -3.96367 -1.26618 0
M  V30 12559 H 1175.77 -5.07641 -2.08787 0
M  V30 12560 H 1176.03 -3.46747 -2.74261 0
M  V30 12561 N 1175.09 0.086862 -1.5736 0
M  V30 12562 C 1176.02 1.10538 -2.05678 0
M  V30 12563 C 1177 1.41281 -0.947293 0
M  V30 12564 O 1178.19 1.51169 -1.21908 0
M  V30 12565 C 1175.32 2.42302 -2.48812 0
M  V30 12566 C 1174.27 2.25948 -3.63499 0
M  V30 12567 C 1173.6 3.62961 -3.92637 0
M  V30 12568 C 1174.9 1.69319 -4.94094 0
M  V30 12569 H 1176.59 0.703371 -2.91021 0
M  V30 12570 H 1174.14 0.336895 -1.40004 0
M  V30 12571 H 1176.09 3.13833 -2.81224 0
M  V30 12572 H 1174.81 2.84454 -1.60479 0
M  V30 12573 H 1173.47 1.5686 -3.31347 0
M  V30 12574 H 1173.12 4.02656 -3.01459 0
M  V30 12575 H 1172.82 3.52862 -4.69853 0
M  V30 12576 H 1174.34 4.35946 -4.27531 0
M  V30 12577 H 1175.76 2.30699 -5.24834 0
M  V30 12578 H 1174.15 1.69957 -5.7553 0
M  V30 12579 H 1175.22 0.653318 -4.80479 0
M  V30 12580 N 1176.57 1.53483 0.357892 0
M  V30 12581 C 1177.8 1.73956 1.12013 0
M  V30 12582 C 1178.21 0.472053 1.82803 0
M  V30 12583 O 1177.57 -0.555499 1.7384 0
M  V30 12584 C 1177.62 2.91015 2.14459 0
M  V30 12585 O 1177.34 4.12862 1.4655 0
M  V30 12586 C 1178.84 3.23423 3.0317 0
M  V30 12587 H 1176.06 0.58161 0.334621 0
M  V30 12588 H 1178.6 2.00256 0.414467 0
M  V30 12589 H 1176.76 2.67087 2.80612 0
M  V30 12590 H 1177.17 4.78468 2.14869 0
M  V30 12591 H 1178.65 4.08717 3.71018 0
M  V30 12592 H 1179.12 2.39114 3.68404 0
M  V30 12593 H 1179.73 3.49305 2.42624 0
M  V30 12594 N 1178.05 -0.61812 1.44973 0
M  V30 12595 C 1179.29 -1.3774 1.48439 0
M  V30 12596 C 1179.62 -1.94117 0.121999 0
M  V30 12597 O 1178.88 -1.749 -0.877974 0
M  V30 12598 C 1179.17 -2.55143 2.50274 0
M  V30 12599 C 1178.84 -2.16976 3.95262 0
M  V30 12600 C 1177.5 -2.06281 4.34743 0
M  V30 12601 C 1179.85 -1.8703 4.86486 0
M  V30 12602 C 1177.18 -1.63846 5.63357 0
M  V30 12603 C 1179.53 -1.46085 6.15501 0
M  V30 12604 C 1178.2 -1.3394 6.53924 0
M  V30 12605 H 1177.47 -0.504026 0.543175 0
M  V30 12606 H 1180.12 -0.699685 1.7826 0
M  V30 12607 H 1178.42 -3.28205 2.13983 0
M  V30 12608 H 1180.12 -3.13373 2.50197 0
M  V30 12609 H 1176.71 -2.26223 3.64034 0
M  V30 12610 H 1180.89 -1.94196 4.56729 0
M  V30 12611 H 1176.15 -1.53058 5.91932 0
M  V30 12612 H 1180.32 -1.21956 6.85638 0
M  V30 12613 H 1177.95 -1.00832 7.53483 0
M  V30 12614 N 1179.52 -1.32087 -0.859693 0
M  V30 12615 C 1180.49 -1.20546 -1.94939 0
M  V30 12616 C 1181.49 -0.12982 -1.60275 0
M  V30 12617 O 1182.68 -0.379853 -1.70008 0
M  V30 12618 C 1179.81 -0.852717 -3.30063 0
M  V30 12619 H 1181 -2.17384 -2.06602 0
M  V30 12620 H 1178.55 -1.15846 -1.04926 0
M  V30 12621 H 1179.29 0.114059 -3.24099 0
M  V30 12622 H 1179.07 -1.63035 -3.56598 0
M  V30 12623 H 1180.56 -0.796145 -4.09941 0
M  V30 12624 N 1181 1.07532 -1.15215 0
M  V30 12625 C 1181.93 2.1668 -0.870171 0
M  V30 12626 C 1182.91 1.69161 0.178483 0
M  V30 12627 O 1184.1 1.94172 0.0332489 0
M  V30 12628 C 1181.23 3.45464 -0.356666 0
M  V30 12629 C 1180.18 4.06424 -1.34179 0
M  V30 12630 C 1179.51 5.30266 -0.687206 0
M  V30 12631 C 1180.81 4.46666 -2.70715 0
M  V30 12632 H 1182.5 2.40526 -1.7829 0
M  V30 12633 H 1180.05 1.15598 -0.858665 0
M  V30 12634 H 1182 4.21144 -0.146947 0
M  V30 12635 H 1180.72 3.21199 0.591527 0
M  V30 12636 H 1179.38 3.32786 -1.53783 0
M  V30 12637 H 1179.03 5.0229 0.267077 0
M  V30 12638 H 1178.73 5.72009 -1.34462 0
M  V30 12639 H 1180.26 6.08653 -0.487218 0
M  V30 12640 H 1181.67 5.13483 -2.54966 0
M  V30 12641 H 1180.07 4.99355 -3.32813 0
M  V30 12642 H 1181.14 3.58123 -3.26919 0
M  V30 12643 N 1182.48 0.948665 1.2585 0
M  V30 12644 C 1183.71 0.616741 1.98018 0
M  V30 12645 C 1184.13 -0.803005 1.70098 0
M  V30 12646 O 1183.49 -1.54208 0.953392 0
M  V30 12647 C 1183.54 0.874429 3.49837 0
M  V30 12648 O 1182.64 -0.0497568 4.1237 0
M  V30 12649 H 1181.98 0.235112 0.620982 0
M  V30 12650 H 1184.51 1.27364 1.60124 0
M  V30 12651 H 1184.52 0.798309 4.00114 0
M  V30 12652 H 1183.2 1.90922 3.69488 0
M  V30 12653 H 1181.77 0.0780591 3.72818 0
M  V30 12654 N 1183.96 -1.40369 0.716545 0
M  V30 12655 C 1184.87 -2.34508 0.065658 0
M  V30 12656 C 1185.88 -1.57352 -0.742723 0
M  V30 12657 O 1187.06 -1.89735 -0.675456 0
M  V30 12658 C 1184.13 -3.36262 -0.844337 0
M  V30 12659 C 1183.19 -4.29292 -0.0257971 0
M  V30 12660 C 1182.42 -5.26185 -0.892452 0
M  V30 12661 O 1182.64 -5.29071 -2.13166 0
M  V30 12662 O 1181.58 -6.0099 -0.330933 0
M  V30 12663 H 1185.4 -2.91789 0.842184 0
M  V30 12664 H 1182.99 -1.41579 0.477034 0
M  V30 12665 H 1184.87 -3.98661 -1.36555 0
M  V30 12666 H 1183.54 -2.81393 -1.59999 0
M  V30 12667 H 1182.45 -3.70175 0.540512 0
M  V30 12668 H 1183.78 -4.87316 0.69166 0
M  V30 12669 N 1185.44 -0.462799 -1.50652 0
M  V30 12670 C 1186.35 0.341191 -2.32106 0
M  V30 12671 C 1187.36 1.00384 -1.42123 0
M  V30 12672 O 1188.54 0.993635 -1.75182 0
M  V30 12673 C 1185.6 1.41356 -3.16575 0
M  V30 12674 C 1184.66 0.768375 -4.22368 0
M  V30 12675 C 1183.9 1.78964 -5.028 0
M  V30 12676 O 1184.12 3.01515 -4.84195 0
M  V30 12677 O 1183.05 1.36606 -5.86193 0
M  V30 12678 H 1186.88 -0.324482 -3.01962 0
M  V30 12679 H 1184.47 -0.224807 -1.47699 0
M  V30 12680 H 1186.35 2.0349 -3.69012 0
M  V30 12681 H 1185.02 2.06285 -2.49456 0
M  V30 12682 H 1183.93 0.108297 -3.73943 0
M  V30 12683 H 1185.26 0.162164 -4.91933 0
M  V30 12684 N 1186.91 1.56388 -0.195085 0
M  V30 12685 C 1188.16 1.97872 0.444344 0
M  V30 12686 C 1188.49 1.0819 1.61271 0
M  V30 12687 O 1187.77 0.133904 1.94039 0
M  V30 12688 C 1188.05 3.48556 0.90449 0
M  V30 12689 C 1187.9 4.49015 -0.265693 0
M  V30 12690 C 1189.22 4.02938 1.76999 0
M  V30 12691 H 1186.34 0.719413 0.160041 0
M  V30 12692 H 1188.98 1.87835 -0.286005 0
M  V30 12693 H 1187.13 3.5724 1.52682 0
M  V30 12694 H 1188.81 4.52368 -0.903363 0
M  V30 12695 H 1187.05 4.23987 -0.917462 0
M  V30 12696 H 1187.72 5.51912 0.0987834 0
M  V30 12697 H 1190.2 3.97033 1.24514 0
M  V30 12698 H 1189.07 5.08741 2.06092 0
M  V30 12699 H 1189.33 3.48197 2.72418 0
M  V30 12700 N 1188.39 -0.0785156 1.57404 0
M  V30 12701 C 1189.81 -0.433143 1.5361 0
M  V30 12702 C 1190.01 -1.79564 0.914283 0
M  V30 12703 O 1189.06 -2.47215 0.513899 0
M  V30 12704 C 1190.38 -0.380387 2.98284 0
M  V30 12705 C 1191.93 -0.461056 3.09586 0
M  V30 12706 C 1192.4 -0.438276 4.55898 0
M  V30 12707 N 1193.89 -0.498548 4.60509 0
M  V30 12708 C 1194.63 -0.503028 5.71189 0
M  V30 12709 N 1194.12 -0.462724 6.91253 0
M  V30 12710 N 1195.92 -0.549083 5.59412 0
M  V30 12711 H 1188.07 0.813724 1.96195 0
M  V30 12712 H 1190.33 0.304644 0.897717 0
M  V30 12713 H 1190.04 0.553932 3.4731 0
M  V30 12714 H 1189.91 -1.19313 3.57833 0
M  V30 12715 H 1192.3 -1.3858 2.60537 0
M  V30 12716 H 1192.38 0.380138 2.5296 0
M  V30 12717 H 1192.02 0.482588 5.05602 0
M  V30 12718 H 1191.95 -1.29691 5.1038 0
M  V30 12719 H 1194.44 -0.534219 3.74105 0
M  V30 12720 H 1194.76 -0.469883 7.7137 0
M  V30 12721 H 1193.1 -0.429515 6.93672 0
M  V30 12722 H 1196.29 -0.578215 4.64515 0
M  V30 12723 H 1196.46 -0.549105 6.45669 0
M  V30 12724 N 1189.87 -1.5367 -0.349747 0
M  V30 12725 C 1191.28 -1.62135 -0.925704 0
M  V30 12726 C 1191.63 -0.498725 -1.89756 0
M  V30 12727 O 1190.76 0.372481 -2.1317 0
M  V30 12728 C 1191.35 -2.93885 -1.68573 0
M  V30 12729 C 1189.91 -3.04632 -2.2108 0
M  V30 12730 C 1189.06 -2.57541 -1.02801 0
M  V30 12731 H 1192.01 -1.58182 -0.128065 0
M  V30 12732 H 1192.03 -2.82577 -2.54815 0
M  V30 12733 H 1191.54 -3.75571 -0.978153 0
M  V30 12734 H 1189.64 -2.27567 -2.95032 0
M  V30 12735 H 1189.76 -4.09993 -2.47876 0
M  V30 12736 H 1188.12 -2.12798 -1.39962 0
M  V30 12737 H 1188.9 -3.4166 -0.335157 0
M  V30 12738 N 1191.35 0.610423 -1.45298 0
M  V30 12739 C 1192.28 1.73507 -1.4976 0
M  V30 12740 C 1193.29 1.58092 -0.38867 0
M  V30 12741 O 1194.48 1.66026 -0.655571 0
M  V30 12742 C 1191.58 3.11475 -1.33554 0
M  V30 12743 C 1190.76 3.53156 -2.5807 0
M  V30 12744 C 1189.81 4.70076 -2.36463 0
M  V30 12745 O 1188.84 4.77337 -3.10061 0
M  V30 12746 N 1190.04 5.63155 -1.40843 0
M  V30 12747 H 1192.81 1.70144 -2.46721 0
M  V30 12748 H 1190.37 0.79562 -1.41002 0
M  V30 12749 H 1192.36 3.87444 -1.16914 0
M  V30 12750 H 1190.93 3.09361 -0.448803 0
M  V30 12751 H 1190.15 2.67178 -2.89844 0
M  V30 12752 H 1191.44 3.77761 -3.40843 0
M  V30 12753 H 1190.84 5.60001 -0.800982 0
M  V30 12754 H 1189.39 6.38669 -1.30175 0
M  V30 12755 N 1192.83 1.32541 0.852676 0
M  V30 12756 C 1194.1 1.1383 1.59067 0
M  V30 12757 C 1194.48 -0.300584 2.08949 0
M  V30 12758 O 1193.83 -1.29751 1.88088 0
M  V30 12759 C 1194.04 2.16758 2.73527 0
M  V30 12760 C 1195.39 2.50194 3.43057 0
M  V30 12761 O 1196.41 2.15319 2.83754 0
M  V30 12762 O 1195.27 3.09985 4.50079 0
M  V30 12763 H 1192.37 0.439379 0.700625 0
M  V30 12764 H 1194.91 1.44078 0.896632 0
M  V30 12765 H 1193.68 3.13469 2.34207 0
M  V30 12766 H 1193.31 1.87515 3.50605 0
M  V30 12767 N 1194.3 -1.0692 1.15784 0
M  V30 12768 C 1195.53 -1.8331 0.959422 0
M  V30 12769 C 1195.95 -1.82268 -0.492332 0
M  V30 12770 O 1195.3 -1.23727 -1.34156 0
M  V30 12771 C 1195.36 -3.30202 1.47135 0
M  V30 12772 O 1195.08 -3.31328 2.86624 0
M  V30 12773 C 1196.58 -4.23346 1.31504 0
M  V30 12774 H 1193.8 -0.578202 0.340475 0
M  V30 12775 H 1196.34 -1.34939 1.53661 0
M  V30 12776 H 1194.5 -3.75908 0.936587 0
M  V30 12777 H 1194.91 -4.23135 3.0993 0
M  V30 12778 H 1196.38 -5.24465 1.72163 0
M  V30 12779 H 1196.86 -4.38431 0.259773 0
M  V30 12780 H 1197.47 -3.8348 1.83911 0
M  V30 12781 N 1195.78 -0.955326 -1.25345 0
M  V30 12782 C 1197.03 -0.611388 -1.93365 0
M  V30 12783 C 1197.36 0.84953 -1.74633 0
M  V30 12784 O 1196.64 1.60962 -1.09185 0
M  V30 12785 C 1196.92 -0.971732 -3.46741 0
M  V30 12786 C 1196.77 -2.48843 -3.74696 0
M  V30 12787 C 1198.09 -0.497295 -4.37281 0
M  V30 12788 H 1195.21 -0.223591 -0.702265 0
M  V30 12789 H 1197.85 -1.1921 -1.47949 0
M  V30 12790 H 1196 -0.477568 -3.85554 0
M  V30 12791 H 1197.67 -3.05641 -3.45516 0
M  V30 12792 H 1195.92 -2.92582 -3.20278 0
M  V30 12793 H 1196.59 -2.69107 -4.8196 0
M  V30 12794 H 1199.06 -0.921196 -4.05775 0
M  V30 12795 H 1197.94 -0.778113 -5.43357 0
M  V30 12796 H 1198.2 0.602743 -4.37972 0
M  V30 12797 N 1197.26 1.39987 -0.723979 0
M  V30 12798 C 1198.49 2.0556 -0.275634 0
M  V30 12799 C 1198.91 1.54207 1.07711 0
M  V30 12800 O 1198.27 0.681041 1.68022 0
M  V30 12801 C 1198.32 3.59551 -0.27485 0
M  V30 12802 O 1197.42 4.05685 0.741182 0
M  V30 12803 H 1196.76 0.651634 -0.12755 0
M  V30 12804 H 1199.29 1.79229 -0.986814 0
M  V30 12805 H 1199.3 4.07837 -0.115425 0
M  V30 12806 H 1197.98 3.96291 -1.26198 0
M  V30 12807 H 1196.55 3.6884 0.548795 0
M  V30 12808 N 1198.74 0.470782 1.50404 0
M  V30 12809 C 1199.99 -0.0844409 2.02624 0
M  V30 12810 C 1200.32 -1.39398 1.3521 0
M  V30 12811 O 1199.59 -1.88542 0.477707 0
M  V30 12812 C 1199.88 -0.268563 3.59097 0
M  V30 12813 C 1199.73 1.06198 4.37084 0
M  V30 12814 C 1201.05 -1.02324 4.28039 0
M  V30 12815 H 1198.17 -0.0292141 0.736421 0
M  V30 12816 H 1200.81 0.616312 1.79726 0
M  V30 12817 H 1198.96 -0.865441 3.78738 0
M  V30 12818 H 1200.63 1.69541 4.29015 0
M  V30 12819 H 1198.87 1.65868 4.00837 0
M  V30 12820 H 1199.55 0.886795 5.4483 0
M  V30 12821 H 1202.02 -0.517325 4.12872 0
M  V30 12822 H 1200.9 -1.12087 5.37334 0
M  V30 12823 H 1201.16 -2.05974 3.91187 0
M  V30 12824 N 1200.22 -1.56282 0.203376 0
M  V30 12825 C 1201.47 -1.96987 -0.433461 0
M  V30 12826 C 1201.78 -1.09344 -1.62183 0
M  V30 12827 O 1202.99 -1.39868 -2.327 0
M  V30 12828 C 1201.44 -3.50374 -0.82257 0
M  V30 12829 C 1201.05 -4.46693 0.341969 0
M  V30 12830 C 1202.79 -3.99831 -1.42603 0
M  V30 12831 C 1200.7 -5.9136 -0.0685608 0
M  V30 12832 H 1199.63 -0.735564 -0.165717 0
M  V30 12833 H 1202.28 -1.81085 0.296708 0
M  V30 12834 H 1200.66 -3.6181 -1.60964 0
M  V30 12835 H 1201.84 -4.46994 1.11952 0
M  V30 12836 H 1200.15 -4.07476 0.857463 0
M  V30 12837 H 1202.75 -5.05398 -1.74577 0
M  V30 12838 H 1203.09 -3.4462 -2.33544 0
M  V30 12839 H 1203.63 -3.91543 -0.702758 0
M  V30 12840 H 1200.36 -6.50515 0.80688 0
M  V30 12841 H 1199.88 -5.94295 -0.810798 0
M  V30 12842 H 1201.56 -6.45053 -0.501525 0
M  V30 12843 N 1201.7 0.070167 -1.57444 0
M  V30 12844 C 1202.94 0.767495 -1.8696 0
M  V30 12845 C 1203.26 1.78032 -0.795595 0
M  V30 12846 O 1202.53 1.95112 0.175566 0
M  V30 12847 H 1201.11 0.286443 -0.689898 0
M  V30 12848 H 1203.78 0.0458692 -1.94846 0
M  V30 12849 H 1202.87 1.28269 -2.84523 0
M  V30 12850 N 1203.17 1.53854 0.341593 0
M  V30 12851 C 1204.42 1.70856 1.07948 0
M  V30 12852 C 1204.74 0.475474 1.89114 0
M  V30 12853 O 1204.01 -0.510592 1.89129 0
M  V30 12854 H 1202.59 0.629914 0.401519 0
M  V30 12855 H 1205.25 1.91112 0.382393 0
M  V30 12856 H 1204.35 2.5803 1.75575 0
M  V30 12857 N 1204.65 -0.602709 1.4562 0
M  V30 12858 C 1205.9 -1.36359 1.50113 0
M  V30 12859 C 1206.23 -1.93663 0.144297 0
M  V30 12860 O 1205.51 -1.75337 -0.841851 0
M  V30 12861 C 1205.79 -2.50788 2.58413 0
M  V30 12862 C 1205.64 -1.98649 4.03557 0
M  V30 12863 C 1206.96 -3.52905 2.62957 0
M  V30 12864 H 1204.08 -0.494455 0.54652 0
M  V30 12865 H 1206.72 -0.678957 1.77455 0
M  V30 12866 H 1204.87 -3.09191 2.3523 0
M  V30 12867 H 1206.54 -1.44857 4.37966 0
M  V30 12868 H 1204.79 -1.29615 4.13984 0
M  V30 12869 H 1205.46 -2.81159 4.7503 0
M  V30 12870 H 1207.93 -3.0435 2.83743 0
M  V30 12871 H 1206.81 -4.30454 3.40589 0
M  V30 12872 H 1207.07 -4.0884 1.68233 0
M  V30 12873 N 1206.13 -1.32992 -0.845635 0
M  V30 12874 C 1207.09 -1.22607 -1.9365 0
M  V30 12875 C 1208.09 -0.146812 -1.60128 0
M  V30 12876 O 1209.28 -0.397863 -1.69596 0
M  V30 12877 C 1206.41 -0.887677 -3.2914 0
M  V30 12878 H 1207.61 -2.19563 -2.04285 0
M  V30 12879 H 1205.16 -1.16952 -1.03691 0
M  V30 12880 H 1205.9 0.0796777 -3.24202 0
M  V30 12881 H 1205.68 -1.66808 -3.54849 0
M  V30 12882 H 1207.17 -0.83958 -4.09073 0
M  V30 12883 N 1207.61 1.06304 -1.1635 0
M  V30 12884 C 1208.86 1.78747 -0.943074 0
M  V30 12885 C 1209.18 1.87646 0.530483 0
M  V30 12886 O 1208.45 1.38506 1.38538 0
M  V30 12887 H 1207.03 0.662072 -0.345932 0
M  V30 12888 H 1209.69 1.28413 -1.46615 0
M  V30 12889 H 1208.78 2.80828 -1.3617 0
M  V30 12890 N 1209.09 0.96196 1.24836 0
M  V30 12891 C 1210.33 0.619489 1.92371 0
M  V30 12892 C 1210.65 -0.847233 1.75633 0
M  V30 12893 O 1209.92 -1.60419 1.12439 0
M  V30 12894 H 1208.5 0.226129 0.711951 0
M  V30 12895 H 1211.17 1.22179 1.5185 0
M  V30 12896 H 1210.26 0.855128 3.00157 0
M  V30 12897 N 1210.56 -1.39601 0.731392 0
M  V30 12898 C 1211.79 -2.05411 0.286532 0
M  V30 12899 C 1212.21 -1.54777 -1.06892 0
M  V30 12900 O 1211.57 -0.689942 -1.67659 0
M  V30 12901 C 1211.62 -3.594 0.293914 0
M  V30 12902 O 1210.72 -4.06072 -0.719657 0
M  V30 12903 H 1210.06 -0.650949 0.131004 0
M  V30 12904 H 1212.59 -1.78703 0.996305 0
M  V30 12905 H 1212.6 -4.0777 0.137052 0
M  V30 12906 H 1211.28 -3.95617 1.28298 0
M  V30 12907 H 1209.86 -3.69125 -0.529226 0
M  V30 12908 N 1212.04 -0.478751 -1.50152 0
M  V30 12909 C 1212.99 0.311426 -2.28689 0
M  V30 12910 C 1213.96 0.980375 -1.34082 0
M  V30 12911 O 1215.14 0.991337 -1.63025 0
M  V30 12912 C 1212.28 1.38302 -3.16175 0
M  V30 12913 C 1211.4 0.728084 -4.2582 0
M  V30 12914 C 1210.53 1.77822 -5.00552 0
M  V30 12915 C 1209.57 1.10395 -6.02063 0
M  V30 12916 N 1208.71 2.09728 -6.70044 0
M  V30 12917 H 1213.55 -0.364592 -2.95761 0
M  V30 12918 H 1211.09 -0.191645 -1.45846 0
M  V30 12919 H 1213.04 2.01606 -3.65255 0
M  V30 12920 H 1211.67 2.0281 -2.51133 0
M  V30 12921 H 1210.73 -0.0177026 -3.80396 0
M  V30 12922 H 1212.04 0.196209 -4.98414 0
M  V30 12923 H 1211.19 2.48687 -5.53389 0
M  V30 12924 H 1209.93 2.34392 -4.27682 0
M  V30 12925 H 1208.94 0.38096 -5.48479 0
M  V30 12926 H 1210.16 0.545045 -6.76909 0
M  V30 12927 H 1208.11 2.65301 -5.9996 0
M  V30 12928 H 1208.02 1.61546 -7.38538 0
M  V30 12929 H 1209.29 2.7995 -7.27495 0
M  V30 12930 N 1213.52 1.56172 -0.211661 0
M  V30 12931 C 1214.47 2.16477 0.715675 0
M  V30 12932 C 1215.45 1.11023 1.16459 0
M  V30 12933 O 1216.65 1.3704 1.12023 0
M  V30 12934 C 1213.78 2.84055 1.92789 0
M  V30 12935 C 1212.86 3.96721 1.49911 0
M  V30 12936 N 1213.25 4.99714 0.782304 0
M  V30 12937 C 1211.55 4.08628 1.78716 0
M  V30 12938 C 1212.25 5.78949 0.565043 0
M  V30 12939 N 1211.23 5.31963 1.11878 0
M  V30 12940 H 1215.03 2.93467 0.15948 0
M  V30 12941 H 1212.54 1.62395 -0.012521 0
M  V30 12942 H 1214.54 3.25662 2.60289 0
M  V30 12943 H 1213.2 2.08558 2.48865 0
M  V30 12944 H 1214.21 5.16061 0.436021 0
M  V30 12945 H 1210.89 3.44273 2.36183 0
M  V30 12946 H 1212.28 6.719 -0.00477074 0
M  V30 12947 N 1215 -0.0618163 1.57479 0
M  V30 12948 C 1216.25 -0.757569 1.87364 0
M  V30 12949 C 1216.57 -1.77607 0.805025 0
M  V30 12950 O 1215.84 -1.95202 -0.165216 0
M  V30 12951 H 1214.42 -0.28278 0.691408 0
M  V30 12952 H 1217.08 -0.0355354 1.94868 0
M  V30 12953 H 1216.18 -1.26758 2.85199 0
M  V30 12954 N 1216.48 -1.54033 -0.333429 0
M  V30 12955 C 1217.89 -1.44522 -0.677166 0
M  V30 12956 C 1218.09 -0.610122 -1.92041 0
M  V30 12957 O 1217.15 -0.105058 -2.52281 0
M  V30 12958 C 1218.46 -2.88129 -0.860369 0
M  V30 12959 C 1220.01 -2.97968 -0.958342 0
M  V30 12960 C 1220.48 -4.42703 -1.17379 0
M  V30 12961 N 1221.98 -4.46273 -1.24075 0
M  V30 12962 C 1222.71 -5.55407 -1.42515 0
M  V30 12963 N 1222.21 -6.74528 -1.58062 0
M  V30 12964 N 1224 -5.43037 -1.45144 0
M  V30 12965 H 1216.15 -2.06815 0.483858 0
M  V30 12966 H 1218.41 -0.935307 0.15461 0
M  V30 12967 H 1218.12 -3.51695 -0.0182085 0
M  V30 12968 H 1217.99 -3.33668 -1.75913 0
M  V30 12969 H 1220.38 -2.34535 -1.79102 0
M  V30 12970 H 1220.46 -2.55774 -0.0362643 0
M  V30 12971 H 1220.11 -5.0672 -0.346004 0
M  V30 12972 H 1220.04 -4.82498 -2.10959 0
M  V30 12973 H 1222.53 -3.60439 -1.13545 0
M  V30 12974 H 1222.84 -7.53462 -1.71797 0
M  V30 12975 H 1221.18 -6.77454 -1.55179 0
M  V30 12976 H 1224.38 -4.4893 -1.32588 0
M  V30 12977 H 1224.55 -6.28146 -1.59173 0
M  V30 12978 N 1217.95 0.594978 -1.45938 0
M  V30 12979 C 1218.9 1.70489 -1.5557 0
M  V30 12980 C 1219.87 1.61193 -0.400751 0
M  V30 12981 O 1221.06 1.80587 -0.615882 0
M  V30 12982 C 1218.2 3.08817 -1.54033 0
M  V30 12983 C 1217.31 3.28827 -2.80173 0
M  V30 12984 C 1216.44 4.57333 -2.70222 0
M  V30 12985 C 1215.48 4.70644 -3.91357 0
M  V30 12986 N 1214.62 5.90463 -3.79865 0
M  V30 12987 H 1219.46 1.61593 -2.50383 0
M  V30 12988 H 1217 0.787747 -1.24229 0
M  V30 12989 H 1218.96 3.88865 -1.51129 0
M  V30 12990 H 1217.59 3.1664 -0.627617 0
M  V30 12991 H 1216.64 2.42467 -2.9311 0
M  V30 12992 H 1217.95 3.34534 -3.69985 0
M  V30 12993 H 1217.1 5.45593 -2.65354 0
M  V30 12994 H 1215.84 4.54045 -1.7803 0
M  V30 12995 H 1214.85 3.80805 -3.9657 0
M  V30 12996 H 1216.07 4.75721 -4.8463 0
M  V30 12997 H 1214.02 5.88196 -2.90451 0
M  V30 12998 H 1213.94 5.97385 -4.63322 0
M  V30 12999 H 1215.2 6.81187 -3.78952 0
M  V30 13000 N 1219.43 1.33438 0.838571 0
M  V30 13001 C 1220.4 1.23632 1.92997 0
M  V30 13002 C 1221.4 0.155302 1.60048 0
M  V30 13003 O 1222.59 0.406852 1.69382 0
M  V30 13004 C 1219.72 0.90512 3.28665 0
M  V30 13005 H 1220.91 2.20643 2.03117 0
M  V30 13006 H 1218.46 1.17501 1.03069 0
M  V30 13007 H 1219.2 -0.0624833 3.2424 0
M  V30 13008 H 1218.98 1.68688 3.53959 0
M  V30 13009 H 1220.47 0.861262 4.08622 0
M  V30 13010 N 1220.91 -1.05686 1.16912 0
M  V30 13011 C 1221.87 -2.11481 0.883647 0
M  V30 13012 C 1222.87 -1.60321 -0.124034 0
M  V30 13013 O 1224.06 -1.73868 0.107566 0
M  V30 13014 C 1221.2 -3.3937 0.322649 0
M  V30 13015 H 1222.39 -2.38239 1.8216 0
M  V30 13016 H 1219.94 -1.2185 0.978895 0
M  V30 13017 H 1220.68 -3.18266 -0.622695 0
M  V30 13018 H 1220.46 -3.77812 1.04883 0
M  V30 13019 H 1221.95 -4.17362 0.141072 0
M  V30 13020 N 1222.39 -0.968567 -1.24324 0
M  V30 13021 C 1223.63 -0.641458 -1.9302 0
M  V30 13022 C 1223.99 0.814553 -1.74307 0
M  V30 13023 O 1223.28 1.57848 -1.08603 0
M  V30 13024 C 1223.48 -0.952762 -3.44467 0
M  V30 13025 C 1223.31 -2.43748 -3.77911 0
M  V30 13026 C 1222.08 -3.09746 -3.99231 0
M  V30 13027 C 1224.27 -3.4176 -3.84324 0
M  V30 13028 N 1222.26 -4.47947 -4.19782 0
M  V30 13029 C 1223.63 -4.65321 -4.09728 0
M  V30 13030 C 1225.68 -3.36406 -3.67064 0
M  V30 13031 C 1224.38 -5.84186 -4.19665 0
M  V30 13032 C 1226.41 -4.54624 -3.78248 0
M  V30 13033 C 1225.77 -5.76976 -4.04077 0
M  V30 13034 H 1221.87 -0.285584 -0.727987 0
M  V30 13035 H 1224.46 -1.2436 -1.49808 0
M  V30 13036 H 1222.63 -0.379421 -3.86542 0
M  V30 13037 H 1224.36 -0.584137 -4.00462 0
M  V30 13038 H 1221.11 -2.60274 -3.95669 0
M  V30 13039 H 1221.54 -5.19559 -4.34036 0
M  V30 13040 H 1226.18 -2.42847 -3.461 0
M  V30 13041 H 1223.9 -6.78172 -4.3944 0
M  V30 13042 H 1227.48 -4.52043 -3.66262 0
M  V30 13043 H 1226.36 -6.66925 -4.1253 0
M  V30 13044 N 1223.87 1.39211 -0.738786 0
M  V30 13045 C 1224.81 2.30578 -0.10129 0
M  V30 13046 C 1225.78 1.49412 0.725616 0
M  V30 13047 O 1226.97 1.78087 0.684799 0
M  V30 13048 C 1224.11 3.35767 0.797161 0
M  V30 13049 C 1223.22 4.31979 -0.0427701 0
M  V30 13050 C 1222.36 5.24236 0.857306 0
M  V30 13051 C 1221.4 6.12099 0.0128501 0
M  V30 13052 N 1220.53 6.96701 0.869067 0
M  V30 13053 H 1225.37 2.84522 -0.88606 0
M  V30 13054 H 1222.91 1.40093 -0.448602 0
M  V30 13055 H 1224.87 3.95347 1.33255 0
M  V30 13056 H 1223.5 2.83268 1.54787 0
M  V30 13057 H 1222.55 3.73986 -0.695622 0
M  V30 13058 H 1223.86 4.93927 -0.69555 0
M  V30 13059 H 1223.02 5.88861 1.4604 0
M  V30 13060 H 1221.75 4.62619 1.54386 0
M  V30 13061 H 1220.76 5.46483 -0.603018 0
M  V30 13062 H 1221.98 6.75781 -0.67054 0
M  V30 13063 H 1219.93 6.37647 1.54084 0
M  V30 13064 H 1219.85 7.55507 0.272852 0
M  V30 13065 H 1221.12 7.65751 1.4576 0
M  V30 13066 N 1225.34 0.486708 1.49896 0
M  V30 13067 C 1226.59 -0.062852 2.02402 0
M  V30 13068 C 1226.92 -1.38306 1.36754 0
M  V30 13069 O 1226.17 -1.89531 0.487493 0
M  V30 13070 C 1226.47 -0.278643 3.56312 0
M  V30 13071 C 1226.14 0.961794 4.40523 0
M  V30 13072 C 1224.8 1.30185 4.63255 0
M  V30 13073 C 1227.15 1.78697 4.89609 0
M  V30 13074 C 1224.48 2.46686 5.32318 0
M  V30 13075 C 1226.83 2.9434 5.59953 0
M  V30 13076 C 1225.5 3.28742 5.80935 0
M  V30 13077 H 1224.77 -0.0229992 0.740643 0
M  V30 13078 H 1227.41 0.643963 1.80348 0
M  V30 13079 H 1225.72 -1.06785 3.76967 0
M  V30 13080 H 1227.42 -0.718078 3.94518 0
M  V30 13081 H 1224.01 0.686887 4.2306 0
M  V30 13082 H 1228.19 1.53742 4.71887 0
M  V30 13083 H 1223.45 2.73596 5.46768 0
M  V30 13084 H 1227.62 3.58616 5.96965 0
M  V30 13085 H 1225.25 4.19121 6.34225 0
M  V30 13086 N 1226.82 -1.56058 0.219941 0
M  V30 13087 C 1228.07 -1.97436 -0.412543 0
M  V30 13088 C 1228.39 -1.11058 -1.61014 0
M  V30 13089 O 1229.59 -1.42328 -2.31203 0
M  V30 13090 C 1228.05 -3.51227 -0.785362 0
M  V30 13091 C 1227.66 -4.46305 0.389328 0
M  V30 13092 C 1229.4 -4.01321 -1.38354 0
M  V30 13093 C 1227.31 -5.914 -0.00583531 0
M  V30 13094 H 1226.24 -0.73728 -0.157906 0
M  V30 13095 H 1228.89 -1.8076 0.315898 0
M  V30 13096 H 1227.27 -3.63497 -1.57118 0
M  V30 13097 H 1228.44 -4.45781 1.16686 0
M  V30 13098 H 1226.76 -4.06543 0.900633 0
M  V30 13099 H 1229.36 -5.07221 -1.69207 0
M  V30 13100 H 1229.7 -3.47077 -2.29876 0
M  V30 13101 H 1230.23 -3.92267 -0.66119 0
M  V30 13102 H 1226.97 -6.49623 0.87583 0
M  V30 13103 H 1226.49 -5.95121 -0.74772 0
M  V30 13104 H 1228.17 -6.45549 -0.43308 0
M  V30 13105 N 1228.3 0.053464 -1.57509 0
M  V30 13106 C 1229.25 1.06155 -2.04939 0
M  V30 13107 C 1230.22 1.37382 -0.93357 0
M  V30 13108 O 1231.4 1.48137 -1.2025 0
M  V30 13109 C 1228.54 2.36476 -2.51343 0
M  V30 13110 C 1227.66 2.1162 -3.76618 0
M  V30 13111 C 1226.79 3.35636 -4.11731 0
M  V30 13112 C 1225.83 3.06226 -5.29993 0
M  V30 13113 N 1224.97 4.22623 -5.60655 0
M  V30 13114 H 1229.81 0.650122 -2.90822 0
M  V30 13115 H 1227.34 0.309421 -1.43809 0
M  V30 13116 H 1229.3 3.12588 -2.76306 0
M  V30 13117 H 1227.93 2.75386 -1.68411 0
M  V30 13118 H 1226.98 1.26116 -3.58886 0
M  V30 13119 H 1228.3 1.85909 -4.6286 0
M  V30 13120 H 1227.45 4.20132 -4.37692 0
M  V30 13121 H 1226.19 3.64439 -3.24092 0
M  V30 13122 H 1225.19 2.20128 -5.03809 0
M  V30 13123 H 1226.42 2.78726 -6.19265 0
M  V30 13124 H 1224.37 4.51424 -4.75976 0
M  V30 13125 H 1224.28 4.0025 -6.41355 0
M  V30 13126 H 1225.55 5.08063 -5.91178 0
M  V30 13127 N 1229.78 1.54207 0.325255 0
M  V30 13128 C 1231.06 1.6298 1.08153 0
M  V30 13129 C 1231.44 0.462583 2.05969 0
M  V30 13130 O 1230.78 -0.543323 2.21947 0
M  V30 13131 C 1230.99 2.999 1.78497 0
M  V30 13132 C 1232.34 3.55888 2.3158 0
M  V30 13133 O 1233.37 3.02194 1.88566 0
M  V30 13134 O 1232.23 4.49847 3.10322 0
M  V30 13135 H 1229.32 0.659923 0.498429 0
M  V30 13136 H 1231.87 1.66553 0.325282 0
M  V30 13137 H 1230.64 3.7629 1.07338 0
M  V30 13138 H 1230.26 2.99997 2.60936 0
M  V30 13139 N 1231.26 -0.58723 1.46251 0
M  V30 13140 C 1232.21 -1.71771 1.56836 0
M  V30 13141 C 1233.2 -1.63664 0.437096 0
M  V30 13142 O 1234.41 -1.69212 0.613797 0
M  V30 13143 H 1230.78 -0.567841 0.493012 0
M  V30 13144 H 1232.75 -1.59974 2.51895 0
M  V30 13145 C 1231.5 -3.10159 1.57152 0
M  V30 13146 H 1230.82 -3.17066 2.43535 0
M  V30 13147 H 1232.26 -3.89032 1.68613 0
M  V30 13148 C 1230.72 -3.35567 0.299374 0
M  V30 13149 O 1231.25 -3.97006 -0.612291 0
M  V30 13150 N 1229.46 -2.89987 0.188695 0
M  V30 13151 H 1229.01 -2.4017 0.93147 0
M  V30 13152 H 1228.96 -3.0736 -0.661612 0
M  V30 13153 N 1232.74 -1.33881 -0.831482 0
M  V30 13154 C 1233.98 -1.26951 -1.58918 0
M  V30 13155 C 1234.34 0.161359 -1.91722 0
M  V30 13156 O 1233.63 1.1054 -1.56498 0
M  V30 13157 C 1233.82 -2.08544 -2.90249 0
M  V30 13158 C 1233.65 -3.5942 -2.70273 0
M  V30 13159 C 1232.42 -4.28718 -2.67449 0
M  V30 13160 C 1234.62 -4.53599 -2.42388 0
M  V30 13161 N 1232.6 -5.65496 -2.38929 0
M  V30 13162 C 1233.97 -5.7832 -2.23485 0
M  V30 13163 C 1236.03 -4.42605 -2.28046 0
M  V30 13164 C 1234.73 -6.93286 -1.91695 0
M  V30 13165 C 1236.76 -5.57395 -1.97649 0
M  V30 13166 C 1236.12 -6.81129 -1.79563 0
M  V30 13167 H 1232.22 -0.519762 -0.58427 0
M  V30 13168 H 1234.8 -1.68502 -0.97546 0
M  V30 13169 H 1232.97 -1.69302 -3.49559 0
M  V30 13170 H 1234.71 -1.93325 -3.55538 0
M  V30 13171 H 1231.46 -3.81068 -2.81219 0
M  V30 13172 H 1231.88 -6.37619 -2.27532 0
M  V30 13173 H 1236.53 -3.47571 -2.40737 0
M  V30 13174 H 1234.24 -7.88311 -1.7774 0
M  V30 13175 H 1237.83 -5.50828 -1.87296 0
M  V30 13176 H 1236.71 -7.68449 -1.56382 0
M  V30 13177 N 1234.21 1.05064 -1.1747 0
M  V30 13178 C 1235.12 2.16346 -0.907286 0
M  V30 13179 C 1236.14 1.7355 0.125013 0
M  V30 13180 O 1237.32 2.01326 -0.0545551 0
M  V30 13181 C 1234.38 3.44077 -0.425681 0
M  V30 13182 C 1233.44 4.01311 -1.52473 0
M  V30 13183 C 1232.67 5.22946 -1.06601 0
M  V30 13184 O 1232.9 5.70345 0.0793329 0
M  V30 13185 O 1231.83 5.72454 -1.85958 0
M  V30 13186 H 1235.66 2.41754 -1.83817 0
M  V30 13187 H 1233.24 1.14834 -0.955693 0
M  V30 13188 H 1235.12 4.21078 -0.164689 0
M  V30 13189 H 1233.8 3.20166 0.477037 0
M  V30 13190 H 1232.71 3.25744 -1.83961 0
M  V30 13191 H 1234.04 4.29543 -2.4032 0
M  V30 13192 N 1235.69 0.975146 1.23809 0
M  V30 13193 C 1236.6 0.51917 2.28783 0
M  V30 13194 C 1237.62 -0.423487 1.68768 0
M  V30 13195 O 1238.79 -0.294699 1.99232 0
M  V30 13196 C 1235.86 -0.176229 3.46252 0
M  V30 13197 C 1234.92 0.807177 4.21643 0
M  V30 13198 C 1234.15 0.144869 5.33503 0
M  V30 13199 O 1234.38 -1.06522 5.60365 0
M  V30 13200 O 1233.31 0.84079 5.95999 0
M  V30 13201 H 1237.14 1.39204 2.69919 0
M  V30 13202 H 1234.72 0.74253 1.29641 0
M  V30 13203 H 1236.6 -0.566547 4.17574 0
M  V30 13204 H 1235.28 -1.02394 3.07078 0
M  V30 13205 H 1234.18 1.2481 3.52666 0
M  V30 13206 H 1235.52 1.62354 4.64653 0
M  V30 13207 N 1237.17 -1.38817 0.746158 0
M  V30 13208 C 1238.1 -2.33144 0.128836 0
M  V30 13209 C 1239.08 -1.54487 -0.711873 0
M  V30 13210 O 1240.27 -1.82836 -0.654577 0
M  V30 13211 C 1237.4 -3.38639 -0.770772 0
M  V30 13212 C 1236.35 -4.27987 -0.0333669 0
M  V30 13213 C 1235.68 -5.24274 -1.05073 0
M  V30 13214 C 1236.98 -5.09915 1.13066 0
M  V30 13215 H 1238.67 -2.85019 0.916778 0
M  V30 13216 H 1236.22 -1.37039 0.442306 0
M  V30 13217 H 1238.17 -4.03587 -1.21225 0
M  V30 13218 H 1236.89 -2.8523 -1.59095 0
M  V30 13219 H 1235.55 -3.64534 0.388612 0
M  V30 13220 H 1235.2 -4.67156 -1.86478 0
M  V30 13221 H 1234.9 -5.84906 -0.562037 0
M  V30 13222 H 1236.42 -5.92099 -1.49169 0
M  V30 13223 H 1237.84 -5.68145 0.767084 0
M  V30 13224 H 1236.23 -5.79744 1.54972 0
M  V30 13225 H 1237.3 -4.4409 1.94709 0
M  V30 13226 N 1238.65 -0.49465 -1.49636 0
M  V30 13227 C 1239.88 0.0490417 -2.06542 0
M  V30 13228 C 1240.29 1.31945 -1.35599 0
M  V30 13229 O 1239.63 1.78691 -0.426047 0
M  V30 13230 C 1239.69 0.379426 -3.57492 0
M  V30 13231 C 1239.35 -0.792345 -4.50079 0
M  V30 13232 C 1240.35 -1.68106 -4.91972 0
M  V30 13233 C 1238.04 -0.98935 -4.9246 0
M  V30 13234 C 1240.03 -2.75099 -5.74978 0
M  V30 13235 C 1237.72 -2.06247 -5.75244 0
M  V30 13236 C 1238.72 -2.94163 -6.16407 0
M  V30 13237 O 1238.4 -3.99623 -6.97536 0
M  V30 13238 H 1238.14 -0.0143708 -0.675847 0
M  V30 13239 H 1240.69 -0.689358 -1.93486 0
M  V30 13240 H 1238.92 1.17133 -3.68533 0
M  V30 13241 H 1240.61 0.860979 -3.96664 0
M  V30 13242 H 1241.37 -1.54065 -4.59879 0
M  V30 13243 H 1237.25 -0.314435 -4.59926 0
M  V30 13244 H 1240.8 -3.4375 -6.07027 0
M  V30 13245 H 1236.69 -2.20285 -6.06749 0
M  V30 13246 H 1237.46 -3.96899 -7.15831 0
M  V30 13247 N 1240.13 1.55939 -0.228214 0
M  V30 13248 C 1241.07 2.21957 0.69556 0
M  V30 13249 C 1242.07 1.20109 1.19458 0
M  V30 13250 O 1243.27 1.38171 1.15364 0
M  V30 13251 H 1239.65 0.711744 0.242744 0
M  V30 13252 H 1241.62 2.98177 0.115403 0
M  V30 13253 C 1240.37 2.91847 1.88999 0
M  V30 13254 H 1239.69 3.69978 1.51512 0
M  V30 13255 H 1241.13 3.4143 2.51399 0
M  V30 13256 C 1239.59 1.94683 2.74954 0
M  V30 13257 O 1240.12 1.468 3.73915 0
M  V30 13258 N 1238.33 1.62188 2.41129 0
M  V30 13259 H 1237.87 2.01322 1.60709 0
M  V30 13260 H 1237.83 0.9744 2.98919 0
M  V30 13261 N 1241.6 -0.0451101 1.57535 0
M  V30 13262 C 1243.02 -0.400463 1.54494 0
M  V30 13263 C 1243.22 -1.77584 0.952166 0
M  V30 13264 O 1242.28 -2.46069 0.566221 0
M  V30 13265 C 1243.59 -0.31703 2.99024 0
M  V30 13266 C 1245.14 -0.395284 3.10494 0
M  V30 13267 C 1245.61 -0.341475 4.56725 0
M  V30 13268 N 1247.1 -0.400755 4.61463 0
M  V30 13269 C 1247.84 -0.381757 5.72128 0
M  V30 13270 N 1247.33 -0.315995 6.92079 0
M  V30 13271 N 1249.13 -0.4303 5.60451 0
M  V30 13272 H 1241.28 0.855156 1.94424 0
M  V30 13273 H 1243.54 0.323618 0.891053 0
M  V30 13274 H 1243.25 0.627477 3.46057 0
M  V30 13275 H 1243.12 -1.11696 3.60283 0
M  V30 13276 H 1245.51 -1.33022 2.63418 0
M  V30 13277 H 1245.59 0.433709 2.52096 0
M  V30 13278 H 1245.23 0.589725 5.04465 0
M  V30 13279 H 1245.16 -1.18836 5.13016 0
M  V30 13280 H 1247.65 -0.454745 3.75154 0
M  V30 13281 H 1247.97 -0.306158 7.72193 0
M  V30 13282 H 1246.31 -0.282281 6.94427 0
M  V30 13283 H 1249.5 -0.479555 4.65637 0
M  V30 13284 H 1249.68 -0.412025 6.46689 0
M  V30 13285 N 1243.08 -1.54377 -0.317073 0
M  V30 13286 C 1244.31 -1.76608 -1.07206 0
M  V30 13287 C 1244.72 -0.517818 -1.81976 0
M  V30 13288 O 1244.06 0.521375 -1.76146 0
M  V30 13289 C 1244.13 -2.91 -2.11091 0
M  V30 13290 C 1243.79 -4.29673 -1.55661 0
M  V30 13291 C 1244.79 -5.1029 -0.994999 0
M  V30 13292 C 1242.47 -4.76234 -1.59708 0
M  V30 13293 C 1244.47 -6.35581 -0.48123 0
M  V30 13294 C 1242.15 -6.01491 -1.07944 0
M  V30 13295 C 1243.15 -6.80999 -0.522467 0
M  V30 13296 O 1242.84 -8.03899 -0.0126274 0
M  V30 13297 H 1242.57 -0.593061 -0.32443 0
M  V30 13298 H 1245.12 -2.02097 -0.366859 0
M  V30 13299 H 1243.35 -2.61097 -2.85246 0
M  V30 13300 H 1245.04 -3.00954 -2.72363 0
M  V30 13301 H 1245.81 -4.7547 -0.956752 0
M  V30 13302 H 1241.69 -4.14387 -2.02 0
M  V30 13303 H 1245.23 -6.97585 -0.0458374 0
M  V30 13304 H 1241.13 -6.35801 -1.11478 0
M  V30 13305 H 1241.9 -8.18401 -0.127442 0
M  V30 13306 N 1244.56 0.579466 -1.4656 0
M  V30 13307 C 1245.49 1.70291 -1.53406 0
M  V30 13308 C 1246.51 1.57232 -0.422116 0
M  V30 13309 O 1247.69 1.64598 -0.69064 0
M  V30 13310 C 1244.79 3.08572 -1.40131 0
M  V30 13311 C 1243.97 3.47602 -2.65502 0
M  V30 13312 C 1243.03 4.64955 -2.4638 0
M  V30 13313 O 1242.05 4.70653 -3.20116 0
M  V30 13314 N 1243.25 5.60041 -1.52756 0
M  V30 13315 H 1246.02 1.64873 -2.50274 0
M  V30 13316 H 1243.58 0.765533 -1.42658 0
M  V30 13317 H 1245.57 3.84877 -1.25106 0
M  V30 13318 H 1244.14 3.0834 -0.514322 0
M  V30 13319 H 1243.36 2.60969 -2.95446 0
M  V30 13320 H 1244.65 3.70446 -3.48779 0
M  V30 13321 H 1244.05 5.58176 -0.919587 0
M  V30 13322 H 1242.61 6.35764 -1.43693 0
M  V30 13323 N 1246.04 1.3432 0.824371 0
M  V30 13324 C 1247.29 1.26345 1.57738 0
M  V30 13325 C 1247.61 -0.166836 1.94285 0
M  V30 13326 O 1246.88 -1.09911 1.62162 0
M  V30 13327 H 1245.46 0.46466 0.584893 0
M  V30 13328 H 1248.12 1.68214 0.984373 0
M  V30 13329 H 1247.22 1.8672 2.50084 0
M  V30 13330 N 1247.52 -1.0444 1.18026 0
M  V30 13331 C 1248.76 -1.77224 0.971391 0
M  V30 13332 C 1249.09 -1.88466 -0.500564 0
M  V30 13333 O 1248.36 -1.40692 -1.36317 0
M  V30 13334 H 1246.94 -0.656485 0.356422 0
M  V30 13335 H 1249.6 -1.26064 1.4864 0
M  V30 13336 H 1248.69 -2.78626 1.4062 0
M  V30 13337 N 1248.99 -0.981699 -1.2329 0
M  V30 13338 C 1250.24 -0.651302 -1.9174 0
M  V30 13339 C 1250.57 0.815318 -1.76587 0
M  V30 13340 O 1249.82 1.60377 -1.1215 0
M  V30 13341 C 1250.12 -0.989244 -3.43437 0
M  V30 13342 C 1249.79 -2.44629 -3.78771 0
M  V30 13343 C 1248.45 -2.84449 -3.88127 0
M  V30 13344 C 1250.8 -3.39123 -3.95784 0
M  V30 13345 C 1248.13 -4.17775 -4.11923 0
M  V30 13346 C 1250.48 -4.72095 -4.21081 0
M  V30 13347 C 1249.15 -5.11672 -4.28659 0
M  V30 13348 H 1248.42 -0.238328 -0.701627 0
M  V30 13349 H 1251.06 -1.2358 -1.46288 0
M  V30 13350 H 1249.37 -0.322677 -3.90469 0
M  V30 13351 H 1251.07 -0.711796 -3.94632 0
M  V30 13352 H 1247.66 -2.12759 -3.72064 0
M  V30 13353 H 1251.84 -3.09536 -3.87945 0
M  V30 13354 H 1247.1 -4.48043 -4.16013 0
M  V30 13355 H 1251.27 -5.45271 -4.33189 0
M  V30 13356 H 1248.9 -6.15003 -4.46851 0
M  V30 13357 N 1250.47 1.3842 -0.753509 0
M  V30 13358 C 1251.4 2.33073 -0.141198 0
M  V30 13359 C 1252.38 1.54863 0.70367 0
M  V30 13360 O 1253.57 1.8318 0.644872 0
M  V30 13361 C 1250.7 3.39043 0.752802 0
M  V30 13362 C 1249.65 4.27999 0.0106692 0
M  V30 13363 C 1248.98 5.24824 1.02291 0
M  V30 13364 C 1250.28 5.09308 -1.15768 0
M  V30 13365 H 1251.97 2.84528 -0.93188 0
M  V30 13366 H 1249.52 1.36802 -0.449567 0
M  V30 13367 H 1251.47 4.04224 1.19083 0
M  V30 13368 H 1250.2 2.8607 1.57581 0
M  V30 13369 H 1248.85 3.64323 -0.407939 0
M  V30 13370 H 1248.5 4.68139 1.83998 0
M  V30 13371 H 1248.2 5.85196 0.53101 0
M  V30 13372 H 1249.73 5.92882 1.46026 0
M  V30 13373 H 1251.14 5.6773 -0.797203 0
M  V30 13374 H 1249.54 5.78914 -1.58044 0
M  V30 13375 H 1250.61 4.43051 -1.97062 0
M  V30 13376 N 1251.95 0.502579 1.49372 0
M  V30 13377 C 1253.2 -0.0432341 2.01654 0
M  V30 13378 C 1253.51 -1.379 1.38719 0
M  V30 13379 O 1254.72 -2.01159 1.82338 0
M  V30 13380 C 1253.17 -0.127509 3.59674 0
M  V30 13381 C 1252.78 1.20171 4.31582 0
M  V30 13382 C 1254.53 -0.623603 4.19895 0
M  V30 13383 C 1252.43 1.07951 5.81464 0
M  V30 13384 H 1251.36 -0.0199308 0.753737 0
M  V30 13385 H 1254.01 0.642237 1.71894 0
M  V30 13386 H 1252.4 -0.877465 3.86156 0
M  V30 13387 H 1253.57 1.96508 4.16799 0
M  V30 13388 H 1251.89 1.63136 3.83113 0
M  V30 13389 H 1254.48 -0.732562 5.29658 0
M  V30 13390 H 1254.83 -1.62282 3.83367 0
M  V30 13391 H 1255.36 0.0698641 3.97739 0
M  V30 13392 H 1252.1 2.05304 6.22519 0
M  V30 13393 H 1251.62 0.357051 5.98736 0
M  V30 13394 H 1253.3 0.758885 6.42534 0
M  V30 13395 N 1253.43 -1.55816 0.23648 0
M  V30 13396 C 1254.65 -2.03534 -0.398575 0
M  V30 13397 C 1255.08 -1.11488 -1.51499 0
M  V30 13398 O 1254.44 -0.105848 -1.80991 0
M  V30 13399 C 1254.48 -3.49356 -0.893467 0
M  V30 13400 O 1253.59 -3.60446 -2.00381 0
M  V30 13401 H 1252.93 -0.658102 -0.0883021 0
M  V30 13402 H 1255.46 -2.01417 0.359488 0
M  V30 13403 H 1255.47 -3.89972 -1.19941 0
M  V30 13404 H 1254.14 -4.1583 -0.0764388 0
M  V30 13405 H 1252.72 -3.31723 -1.70336 0
M  V30 13406 N 1254.91 0.036755 -1.57557 0
M  V30 13407 C 1256.32 0.392264 -1.54704 0
M  V30 13408 C 1256.52 1.77076 -0.96157 0
M  V30 13409 O 1255.58 2.45766 -0.579263 0
M  V30 13410 C 1256.89 0.301168 -2.99188 0
M  V30 13411 C 1258.44 0.378813 -3.10699 0
M  V30 13412 C 1258.91 0.317249 -4.569 0
M  V30 13413 N 1260.41 0.376277 -4.61669 0
M  V30 13414 C 1261.14 0.351411 -5.72322 0
M  V30 13415 N 1260.64 0.279288 -6.92237 0
M  V30 13416 N 1262.43 0.400571 -5.60671 0
M  V30 13417 H 1254.58 -0.865455 -1.93968 0
M  V30 13418 H 1256.84 -0.328339 -0.889324 0
M  V30 13419 H 1256.55 -0.64582 -3.4572 0
M  V30 13420 H 1256.42 1.09784 -3.6087 0
M  V30 13421 H 1258.81 1.31623 -2.6412 0
M  V30 13422 H 1258.89 -0.447072 -2.51863 0
M  V30 13423 H 1258.54 -0.616469 -5.04145 0
M  V30 13424 H 1258.47 1.16114 -5.13639 0
M  V30 13425 H 1260.96 0.434843 -3.7539 0
M  V30 13426 H 1261.27 0.265202 -7.72345 0
M  V30 13427 H 1259.61 0.24545 -6.94566 0
M  V30 13428 H 1262.81 0.454854 -4.65885 0
M  V30 13429 H 1262.98 0.377724 -6.46898 0
M  V30 13430 N 1256.39 1.54543 0.308881 0
M  V30 13431 C 1257.32 1.87947 1.38557 0
M  V30 13432 C 1258.3 0.737622 1.53275 0
M  V30 13433 O 1259.48 0.992664 1.66913 0
M  V30 13434 C 1256.61 2.11982 2.75102 0
M  V30 13435 C 1255.57 3.2783 2.75158 0
M  V30 13436 C 1254.89 3.37266 4.14917 0
M  V30 13437 C 1256.19 4.65129 2.37598 0
M  V30 13438 H 1257.89 2.78123 1.1085 0
M  V30 13439 H 1255.43 1.3382 0.531808 0
M  V30 13440 H 1257.38 2.33935 3.50503 0
M  V30 13441 H 1256.11 1.18569 3.04317 0
M  V30 13442 H 1254.77 3.05787 2.02212 0
M  V30 13443 H 1254.42 2.41384 4.41296 0
M  V30 13444 H 1254.12 4.15135 4.15857 0
M  V30 13445 H 1255.64 3.61471 4.92109 0
M  V30 13446 H 1257.05 4.86865 3.02714 0
M  V30 13447 H 1255.45 5.45653 2.49765 0
M  V30 13448 H 1256.52 4.6638 1.32731 0
M  V30 13449 N 1257.86 -0.571685 1.46866 0
M  V30 13450 C 1259.11 -1.32574 1.5201 0
M  V30 13451 C 1259.43 -1.94762 0.180838 0
M  V30 13452 O 1260.63 -2.71276 0.110158 0
M  V30 13453 C 1259.09 -2.40331 2.67897 0
M  V30 13454 C 1258.7 -1.84398 4.08291 0
M  V30 13455 C 1260.44 -3.17009 2.82321 0
M  V30 13456 C 1258.35 -2.89849 5.15501 0
M  V30 13457 H 1257.28 -0.498428 0.565761 0
M  V30 13458 H 1259.93 -0.608853 1.73105 0
M  V30 13459 H 1258.31 -3.14869 2.40153 0
M  V30 13460 H 1259.48 -1.16329 4.45875 0
M  V30 13461 H 1257.8 -1.20351 3.98628 0
M  V30 13462 H 1260.4 -3.95729 3.59587 0
M  V30 13463 H 1260.74 -3.70292 1.90236 0
M  V30 13464 H 1261.27 -2.4958 3.09765 0
M  V30 13465 H 1258.01 -2.4144 6.09415 0
M  V30 13466 H 1257.53 -3.56372 4.82451 0
M  V30 13467 H 1259.21 -3.53603 5.41825 0
M  V30 13468 N 1259.34 -1.34755 -0.817236 0
M  V30 13469 C 1260.29 -1.26801 -1.92848 0
M  V30 13470 C 1261.26 -0.142077 -1.65491 0
M  V30 13471 O 1262.44 -0.324006 -1.88029 0
M  V30 13472 C 1259.58 -1.03513 -3.2921 0
M  V30 13473 C 1258.7 -2.24932 -3.68822 0
M  V30 13474 C 1257.83 -1.94881 -4.94161 0
M  V30 13475 C 1256.87 -3.12411 -5.2637 0
M  V30 13476 N 1256.01 -2.82207 -6.42887 0
M  V30 13477 H 1260.85 -2.21832 -1.98983 0
M  V30 13478 H 1258.38 -1.10284 -0.973439 0
M  V30 13479 H 1260.34 -0.88047 -4.07803 0
M  V30 13480 H 1258.97 -0.121478 -3.22571 0
M  V30 13481 H 1258.02 -2.51299 -2.85575 0
M  V30 13482 H 1259.34 -3.12726 -3.88592 0
M  V30 13483 H 1258.49 -1.76184 -5.80555 0
M  V30 13484 H 1257.23 -1.04355 -4.76405 0
M  V30 13485 H 1256.23 -3.31698 -4.3847 0
M  V30 13486 H 1257.46 -4.03724 -5.46062 0
M  V30 13487 H 1255.41 -1.94263 -6.26576 0
M  V30 13488 H 1255.32 -3.63534 -6.62857 0
M  V30 13489 H 1256.59 -2.67026 -7.32337 0
M  V30 13490 N 1260.82 1.03812 -1.18578 0
M  V30 13491 C 1261.75 2.13802 -0.938665 0
M  V30 13492 C 1262.73 1.69643 0.124575 0
M  V30 13493 O 1263.92 1.94179 -0.0285421 0
M  V30 13494 C 1261.05 3.44154 -0.466392 0
M  V30 13495 C 1260 4.01949 -1.47041 0
M  V30 13496 C 1259.33 5.27811 -0.855558 0
M  V30 13497 C 1260.63 4.37827 -2.84789 0
M  V30 13498 H 1262.32 2.34732 -1.85852 0
M  V30 13499 H 1259.87 1.12808 -0.895007 0
M  V30 13500 H 1261.82 4.20463 -0.280856 0
M  V30 13501 H 1260.54 3.22918 0.489041 0
M  V30 13502 H 1259.2 3.27725 -1.64293 0
M  V30 13503 H 1258.85 5.02886 0.107142 0
M  V30 13504 H 1258.55 5.67441 -1.52592 0
M  V30 13505 H 1260.07 6.06795 -0.680609 0
M  V30 13506 H 1261.49 5.05112 -2.71173 0
M  V30 13507 H 1259.88 4.88514 -3.48532 0
M  V30 13508 H 1260.95 3.47541 -3.38147 0
M  V30 13509 N 1262.3 0.988223 1.22768 0
M  V30 13510 C 1263.52 0.679426 1.95955 0
M  V30 13511 C 1263.95 -0.748483 1.72567 0
M  V30 13512 O 1263.31 -1.51097 1.00197 0
M  V30 13513 C 1263.35 0.985284 3.46878 0
M  V30 13514 O 1262.46 0.0814607 4.1232 0
M  V30 13515 H 1261.8 0.254749 0.613188 0
M  V30 13516 H 1264.33 1.32393 1.55991 0
M  V30 13517 H 1264.34 0.925198 3.97371 0
M  V30 13518 H 1263.01 2.02581 3.63227 0
M  V30 13519 H 1261.59 0.196629 3.72381 0
M  V30 13520 N 1263.78 -1.38018 0.760839 0
M  V30 13521 C 1265.02 -2.00248 0.320716 0
M  V30 13522 C 1265.35 -1.60259 -1.09684 0
M  V30 13523 O 1264.63 -0.843567 -1.75255 0
M  V30 13524 C 1264.91 -3.57254 0.451849 0
M  V30 13525 C 1264.77 -4.07185 1.91103 0
M  V30 13526 C 1266.08 -4.39843 -0.150439 0
M  V30 13527 H 1263.2 -0.727491 0.118007 0
M  V30 13528 H 1265.85 -1.63855 0.961842 0
M  V30 13529 H 1264 -3.88386 -0.0939672 0
M  V30 13530 H 1265.67 -3.86665 2.51571 0
M  V30 13531 H 1263.91 -3.59782 2.42362 0
M  V30 13532 H 1264.58 -5.16262 1.9539 0
M  V30 13533 H 1267.06 -4.14905 0.315145 0
M  V30 13534 H 1265.93 -5.48893 -0.0284853 0
M  V30 13535 H 1266.19 -4.24367 -1.23956 0
M  V30 13536 N 1265.25 -0.510493 -1.49103 0
M  V30 13537 C 1266.16 0.267176 -2.33074 0
M  V30 13538 C 1267.18 0.958117 -1.45245 0
M  V30 13539 O 1268.36 0.937399 -1.78255 0
M  V30 13540 C 1265.42 1.31212 -3.20911 0
M  V30 13541 C 1264.48 0.633613 -4.24598 0
M  V30 13542 C 1263.71 1.62878 -5.08239 0
M  V30 13543 O 1263.94 2.85958 -4.93543 0
M  V30 13544 O 1262.87 1.17887 -5.90242 0
M  V30 13545 H 1266.7 -0.420384 -3.00776 0
M  V30 13546 H 1264.28 -0.271683 -1.46909 0
M  V30 13547 H 1266.16 1.91647 -3.75299 0
M  V30 13548 H 1264.84 1.98244 -2.55892 0
M  V30 13549 H 1263.75 -0.0107246 -3.74098 0
M  V30 13550 H 1265.08 0.0055777 -4.922 0
M  V30 13551 N 1266.73 1.55688 -0.24474 0
M  V30 13552 C 1267.98 1.98498 0.379852 0
M  V30 13553 C 1268.3 1.13416 1.58625 0
M  V30 13554 O 1267.57 0.216456 1.947 0
M  V30 13555 H 1266.15 0.73312 0.143334 0
M  V30 13556 H 1268.81 1.91858 -0.343027 0
M  V30 13557 H 1267.91 3.04367 0.690463 0
M  V30 13558 N 1268.21 -0.0283989 1.57574 0
M  V30 13559 C 1269.46 -0.719077 1.89303 0
M  V30 13560 C 1269.78 -1.75325 0.84211 0
M  V30 13561 O 1269.04 -1.95071 -0.15683 0
M  V30 13562 C 1269.34 -1.4247 3.27776 0
M  V30 13563 C 1269 -0.526442 4.47816 0
M  V30 13564 C 1267.67 -0.279038 4.8039 0
M  V30 13565 C 1270.02 0.0937038 5.21116 0
M  V30 13566 C 1267.35 0.597277 5.83652 0
M  V30 13567 C 1269.7 0.957725 6.25308 0
M  V30 13568 C 1268.36 1.21458 6.56357 0
M  V30 13569 H 1267.63 -0.263129 0.692708 0
M  V30 13570 H 1270.28 0.0210252 1.91488 0
M  V30 13571 H 1268.58 -2.23813 3.21582 0
M  V30 13572 H 1270.28 -1.96466 3.49574 0
M  V30 13573 H 1266.87 -0.729426 4.22347 0
M  V30 13574 H 1271.06 -0.084469 4.96228 0
M  V30 13575 H 1266.31 0.804582 6.06083 0
M  V30 13576 H 1270.49 1.44476 6.81249 0
M  V30 13577 H 1268.11 1.89534 7.36193 0
M  V30 13578 N 1269.69 -1.54705 -0.300681 0
M  V30 13579 C 1270.65 -1.84934 -1.35395 0
M  V30 13580 C 1271.65 -0.72226 -1.43666 0
M  V30 13581 O 1272.84 -0.990543 -1.43296 0
M  V30 13582 C 1269.97 -2.02991 -2.73875 0
M  V30 13583 H 1271.17 -2.79063 -1.09835 0
M  V30 13584 H 1268.72 -1.46772 -0.537365 0
M  V30 13585 H 1269.45 -1.11151 -3.04657 0
M  V30 13586 H 1269.24 -2.85027 -2.69262 0
M  V30 13587 H 1270.73 -2.27747 -3.5003 0
M  V30 13588 N 1271.17 0.563888 -1.47167 0
M  V30 13589 C 1272.41 1.32331 -1.53676 0
M  V30 13590 C 1272.75 1.93213 -0.195593 0
M  V30 13591 O 1272.02 1.77508 0.795068 0
M  V30 13592 C 1272.3 2.43848 -2.64972 0
M  V30 13593 C 1272.16 1.8788 -4.08682 0
M  V30 13594 C 1273.48 3.45809 -2.72221 0
M  V30 13595 H 1270.59 0.479791 -0.559437 0
M  V30 13596 H 1273.24 0.631669 -1.79192 0
M  V30 13597 H 1271.39 3.02846 -2.43345 0
M  V30 13598 H 1273.06 1.33195 -4.41652 0
M  V30 13599 H 1271.3 1.18593 -4.17275 0
M  V30 13600 H 1271.97 2.68465 -4.82318 0
M  V30 13601 H 1274.45 2.9672 -2.91713 0
M  V30 13602 H 1273.32 4.21272 -3.51882 0
M  V30 13603 H 1273.59 4.04236 -1.79014 0
M  V30 13604 N 1272.64 1.35187 0.810078 0
M  V30 13605 C 1273.92 1.18832 1.55365 0
M  V30 13606 C 1274.3 -0.233956 2.098 0
M  V30 13607 O 1273.65 -1.23701 1.92121 0
M  V30 13608 C 1273.86 2.25351 2.66492 0
M  V30 13609 C 1275.21 2.60981 3.34924 0
M  V30 13610 O 1276.23 2.24238 2.7676 0
M  V30 13611 O 1275.09 3.24147 4.3999 0
M  V30 13612 H 1272.18 0.461446 0.686292 0
M  V30 13613 H 1274.73 1.46858 0.850341 0
M  V30 13614 H 1273.5 3.20762 2.24115 0
M  V30 13615 H 1273.13 1.98575 3.44462 0
M  V30 13616 N 1274.12 -1.03182 1.19127 0
M  V30 13617 C 1275.07 -2.11394 0.926339 0
M  V30 13618 C 1276.04 -1.65528 -0.137703 0
M  V30 13619 O 1277.22 -1.908 0.00381804 0
M  V30 13620 C 1274.36 -3.41913 0.467894 0
M  V30 13621 C 1273.48 -4.01343 1.59837 0
M  V30 13622 C 1272.61 -5.1986 1.09175 0
M  V30 13623 C 1271.65 -5.71339 2.19632 0
M  V30 13624 N 1270.79 -6.81133 1.703 0
M  V30 13625 H 1275.63 -2.33393 1.85288 0
M  V30 13626 H 1273.17 -1.14473 0.923811 0
M  V30 13627 H 1275.12 -4.16796 0.183513 0
M  V30 13628 H 1273.75 -3.20034 -0.421656 0
M  V30 13629 H 1272.81 -3.23702 1.99803 0
M  V30 13630 H 1274.12 -4.35568 2.43068 0
M  V30 13631 H 1273.27 -6.0189 0.762427 0
M  V30 13632 H 1272.01 -4.87161 0.22914 0
M  V30 13633 H 1271.02 -4.87923 2.53399 0
M  V30 13634 H 1272.24 -6.06078 3.06344 0
M  V30 13635 H 1270.19 -6.50293 0.863415 0
M  V30 13636 H 1270.1 -7.1447 2.47122 0
M  V30 13637 H 1271.37 -7.66766 1.40321 0
M  V30 13638 N 1275.6 -0.99472 -1.22242 0
M  V30 13639 C 1276.53 -0.491445 -2.22845 0
M  V30 13640 C 1277.51 0.449265 -1.5627 0
M  V30 13641 O 1278.7 0.374386 -1.84745 0
M  V30 13642 C 1275.82 0.287355 -3.37479 0
M  V30 13643 C 1274.87 -0.599617 -4.22264 0
M  V30 13644 S 1275.7 -2.05599 -4.94459 0
M  V30 13645 C 1276.86 -1.28673 -6.12531 0
M  V30 13646 H 1277.09 -1.34393 -2.6519 0
M  V30 13647 H 1274.62 -0.801833 -1.31947 0
M  V30 13648 H 1276.58 0.730646 -4.03945 0
M  V30 13649 H 1275.24 1.11514 -2.93638 0
M  V30 13650 H 1274.44 -0.000289277 -5.04 0
M  V30 13651 H 1274.04 -0.979748 -3.60939 0
M  V30 13652 H 1276.33 -0.555315 -6.7522 0
M  V30 13653 H 1277.27 -2.07943 -6.76879 0
M  V30 13654 H 1277.68 -0.79922 -5.58814 0
M  V30 13655 N 1277.08 1.37613 -0.768148 0
M  V30 13656 C 1278.04 2.28653 -0.158283 0
M  V30 13657 C 1279.04 1.47862 0.631936 0
M  V30 13658 O 1280.23 1.68124 0.456055 0
M  V30 13659 C 1277.36 3.31776 0.783435 0
M  V30 13660 H 1278.56 2.84094 -0.960772 0
M  V30 13661 H 1276.11 1.46818 -0.536116 0
M  V30 13662 H 1276.84 2.81452 1.61106 0
M  V30 13663 H 1276.63 3.91488 0.219016 0
M  V30 13664 H 1278.12 3.99816 1.20568 0
M  V30 13665 N 1278.56 0.518393 1.4883 0
M  V30 13666 C 1279.8 -0.019866 2.0209 0
M  V30 13667 C 1280.13 -1.35863 1.3988 0
M  V30 13668 O 1279.4 -1.87722 0.560117 0
M  V30 13669 H 1277.98 -0.0103306 0.746929 0
M  V30 13670 H 1280.64 0.679591 1.82668 0
M  V30 13671 H 1279.73 -0.136749 3.118 0
M  V30 13672 N 1280.03 -1.55556 0.252993 0
M  V30 13673 C 1280.94 -2.25283 -0.654581 0
M  V30 13674 C 1281.96 -1.27103 -1.18831 0
M  V30 13675 O 1283.14 -1.59993 -1.22329 0
M  V30 13676 C 1280.2 -2.94336 -1.83214 0
M  V30 13677 C 1279.26 -4.0794 -1.33728 0
M  V30 13678 C 1278.5 -4.73691 -2.45871 0
M  V30 13679 O 1278.72 -4.38545 -3.64738 0
M  V30 13680 O 1277.65 -5.62083 -2.15283 0
M  V30 13681 H 1281.48 -3.03565 -0.0904091 0
M  V30 13682 H 1279.06 -1.49385 0.0212535 0
M  V30 13683 H 1280.95 -3.37808 -2.5192 0
M  V30 13684 H 1279.62 -2.18989 -2.38381 0
M  V30 13685 H 1278.53 -3.68971 -0.617323 0
M  V30 13686 H 1279.86 -4.85124 -0.831617 0
M  V30 13687 N 1281.51 0.0200419 -1.57587 0
M  V30 13688 C 1282.76 0.710078 -1.89962 0
M  V30 13689 C 1283.09 1.74521 -0.851829 0
M  V30 13690 O 1282.37 1.94052 0.132005 0
M  V30 13691 C 1282.65 1.37145 -3.32961 0
M  V30 13692 C 1282.5 0.349221 -4.48442 0
M  V30 13693 C 1283.82 2.30304 -3.75031 0
M  V30 13694 H 1280.94 0.25667 -0.690862 0
M  V30 13695 H 1283.58 -0.0271362 -1.89981 0
M  V30 13696 H 1281.73 1.99981 -3.33076 0
M  V30 13697 H 1283.4 -0.277916 -4.60462 0
M  V30 13698 H 1281.65 -0.330594 -4.32538 0
M  V30 13699 H 1282.32 0.850636 -5.45406 0
M  V30 13700 H 1284.79 1.77503 -3.7634 0
M  V30 13701 H 1283.67 2.73555 -4.75877 0
M  V30 13702 H 1283.93 3.17364 -3.07786 0
M  V30 13703 N 1282.99 1.54862 0.292472 0
M  V30 13704 C 1283.94 1.86403 1.36098 0
M  V30 13705 C 1284.91 0.713694 1.49985 0
M  V30 13706 O 1286.09 0.963134 1.64707 0
M  V30 13707 C 1283.23 2.1244 2.71962 0
M  V30 13708 C 1282.35 3.40038 2.66454 0
M  V30 13709 C 1281.48 3.55875 3.94368 0
M  V30 13710 C 1280.52 4.77235 3.83293 0
M  V30 13711 N 1279.66 4.89832 5.03 0
M  V30 13712 H 1284.5 2.77546 1.085 0
M  V30 13713 H 1282.03 1.37427 0.524607 0
M  V30 13714 H 1283.99 2.25533 3.50985 0
M  V30 13715 H 1282.62 1.24554 2.97802 0
M  V30 13716 H 1281.67 3.35521 1.79248 0
M  V30 13717 H 1282.99 4.29188 2.54163 0
M  V30 13718 H 1282.14 3.68679 4.8183 0
M  V30 13719 H 1280.88 2.64874 4.09503 0
M  V30 13720 H 1279.88 4.64455 2.94214 0
M  V30 13721 H 1281.11 5.69651 3.69695 0
M  V30 13722 H 1279.05 4.01756 5.18582 0
M  V30 13723 H 1278.97 5.72996 4.93165 0
M  V30 13724 H 1280.24 5.07001 5.92089 0
M  V30 13725 N 1284.47 -0.556076 1.47464 0
M  V30 13726 C 1285.43 -1.64515 1.59586 0
M  V30 13727 C 1286.43 -1.53751 0.470881 0
M  V30 13728 O 1287.62 -1.57889 0.735979 0
M  V30 13729 C 1284.75 -3.0406 1.54143 0
M  V30 13730 H 1285.95 -1.55116 2.56669 0
M  V30 13731 H 1283.5 -0.776087 1.35671 0
M  V30 13732 H 1284.23 -3.18991 0.584395 0
M  V30 13733 H 1284.02 -3.13282 2.3579 0
M  V30 13734 H 1285.51 -3.8329 1.65766 0
M  V30 13735 N 1285.95 -1.35615 -0.802897 0
M  V30 13736 C 1287.19 -1.29094 -1.56016 0
M  V30 13737 C 1287.52 0.133617 -1.9404 0
M  V30 13738 O 1286.78 1.09975 -1.61876 0
M  V30 13739 C 1287.08 -2.14653 -2.8576 0
M  V30 13740 C 1286.74 -3.63395 -2.66936 0
M  V30 13741 C 1285.4 -4.03937 -2.61511 0
M  V30 13742 C 1287.76 -4.57758 -2.49212 0
M  V30 13743 C 1285.08 -5.37006 -2.36309 0
M  V30 13744 C 1287.44 -5.91029 -2.25539 0
M  V30 13745 C 1286.1 -6.30712 -2.18538 0
M  V30 13746 H 1285.37 -0.472387 -0.570904 0
M  V30 13747 H 1288.02 -1.67545 -0.92741 0
M  V30 13748 H 1286.32 -1.69095 -3.53432 0
M  V30 13749 H 1288.02 -2.06941 -3.43477 0
M  V30 13750 H 1284.61 -3.31224 -2.72009 0
M  V30 13751 H 1288.79 -4.27318 -2.52414 0
M  V30 13752 H 1284.05 -5.66748 -2.29361 0
M  V30 13753 H 1288.22 -6.63724 -2.10816 0
M  V30 13754 H 1285.85 -7.33753 -1.98772 0
M  V30 13755 N 1287.43 1.02549 -1.19673 0
M  V30 13756 C 1288.67 1.76004 -1.00144 0
M  V30 13757 C 1289 1.888 0.467423 0
M  V30 13758 O 1288.26 1.404 1.36331 0
M  V30 13759 C 1288.55 3.18597 -1.61959 0
M  V30 13760 C 1288.22 3.258 -3.11713 0
M  V30 13761 C 1286.88 3.27473 -3.52583 0
M  V30 13762 C 1289.23 3.24675 -4.0772 0
M  V30 13763 C 1286.56 3.25681 -4.88005 0
M  V30 13764 C 1288.91 3.24424 -5.43076 0
M  V30 13765 C 1287.58 3.24396 -5.83372 0
M  V30 13766 H 1286.85 0.644044 -0.366453 0
M  V30 13767 H 1289.5 1.20338 -1.48966 0
M  V30 13768 H 1287.8 3.77364 -1.05375 0
M  V30 13769 H 1289.5 3.74109 -1.44374 0
M  V30 13770 H 1286.09 3.25228 -2.7915 0
M  V30 13771 H 1290.27 3.2256 -3.77185 0
M  V30 13772 H 1285.53 3.23986 -5.18501 0
M  V30 13773 H 1289.7 3.22504 -6.17223 0
M  V30 13774 H 1287.33 3.22762 -6.8828 0
M  V30 13775 N 1288.9 1.00119 1.21713 0
M  V30 13776 C 1289.81 0.567582 2.27631 0
M  V30 13777 C 1290.83 -0.387593 1.69628 0
M  V30 13778 O 1292.01 -0.252372 1.99813 0
M  V30 13779 C 1289.07 -0.102745 3.46548 0
M  V30 13780 C 1288.13 0.896433 4.19836 0
M  V30 13781 C 1287.36 0.258 5.33076 0
M  V30 13782 O 1287.59 -0.946118 5.62499 0
M  V30 13783 O 1286.52 0.967021 5.94081 0
M  V30 13784 H 1290.35 1.44898 2.66905 0
M  V30 13785 H 1287.93 0.769862 1.28037 0
M  V30 13786 H 1289.81 -0.477846 4.18682 0
M  V30 13787 H 1288.49 -0.958576 3.09181 0
M  V30 13788 H 1287.4 1.32262 3.49939 0
M  V30 13789 H 1288.73 1.72173 4.61104 0
M  V30 13790 N 1290.38 -1.37203 0.775435 0
M  V30 13791 C 1291.61 -2.04396 0.351737 0
M  V30 13792 C 1292.03 -1.58099 -1.01913 0
M  V30 13793 O 1291.39 -0.742932 -1.65379 0
M  V30 13794 C 1291.44 -3.58283 0.408105 0
M  V30 13795 O 1290.54 -4.08156 -0.590104 0
M  V30 13796 H 1289.88 -0.646451 0.151647 0
M  V30 13797 H 1292.41 -1.75443 1.05265 0
M  V30 13798 H 1292.42 -4.07127 0.266711 0
M  V30 13799 H 1291.1 -3.91335 1.40819 0
M  V30 13800 H 1289.67 -3.70622 -0.411524 0
M  V30 13801 N 1291.86 -0.526279 -1.48553 0
M  V30 13802 C 1292.81 0.258285 -2.26532 0
M  V30 13803 C 1293.79 0.913187 -1.32475 0
M  V30 13804 O 1294.99 0.816606 -1.57037 0
M  V30 13805 C 1292.11 1.30686 -3.17452 0
M  V30 13806 C 1291.2 0.656933 -4.18981 0
M  V30 13807 N 1291.59 -0.255186 -5.05156 0
M  V30 13808 C 1289.89 0.914575 -4.36522 0
M  V30 13809 C 1290.59 -0.629753 -5.78281 0
M  V30 13810 N 1289.57 0.00829904 -5.43599 0
M  V30 13811 H 1293.37 -0.44348 -2.90535 0
M  V30 13812 H 1290.88 -0.344054 -1.58714 0
M  V30 13813 H 1292.88 1.8826 -3.71973 0
M  V30 13814 H 1291.54 2.01004 -2.55005 0
M  V30 13815 H 1292.55 -0.627564 -5.14084 0
M  V30 13816 H 1289.23 1.6086 -3.85266 0
M  V30 13817 H 1290.62 -1.37746 -6.57629 0
M  V30 13818 N 1293.34 1.5542 -0.261239 0
M  V30 13819 C 1294.75 1.85161 0.239195 0
M  V30 13820 C 1295.1 1.18319 1.56509 0
M  V30 13821 O 1294.22 0.4666 2.1131 0
M  V30 13822 C 1294.82 3.3592 0.440781 0
M  V30 13823 C 1293.38 3.65837 0.885461 0
M  V30 13824 C 1292.53 2.77285 -0.0291982 0
M  V30 13825 H 1295.48 1.51158 -0.483417 0
M  V30 13826 H 1295.5 3.58276 1.28136 0
M  V30 13827 H 1295.01 3.84541 -0.524382 0
M  V30 13828 H 1293.11 3.22705 1.86259 0
M  V30 13829 H 1293.22 4.73469 0.732394 0
M  V30 13830 H 1291.59 2.50045 0.484701 0
M  V30 13831 H 1292.37 3.28716 -0.989992 0
M  V30 13832 N 1294.82 -0.0116844 1.57596 0
M  V30 13833 C 1295.78 -0.991601 2.0664 0
M  V30 13834 C 1296.78 -1.27973 0.973629 0
M  V30 13835 O 1297.97 -1.22686 1.23668 0
M  V30 13836 C 1295.1 -2.31975 2.49801 0
M  V30 13837 H 1296.29 -0.567607 2.9448 0
M  V30 13838 H 1293.85 -0.258906 1.54141 0
M  V30 13839 H 1294.58 -2.79087 1.65169 0
M  V30 13840 H 1294.37 -2.12386 3.29598 0
M  V30 13841 H 1295.86 -3.02294 2.88112 0
M  V30 13842 N 1296.29 -1.55015 -0.284256 0
M  V30 13843 C 1297.7 -1.65915 -0.856104 0
M  V30 13844 C 1298.06 -0.578758 -1.8747 0
M  V30 13845 O 1297.18 0.281733 -2.14558 0
M  V30 13846 C 1297.78 -3.0077 -1.55957 0
M  V30 13847 C 1296.33 -3.13735 -2.0796 0
M  V30 13848 C 1295.48 -2.61669 -0.917849 0
M  V30 13849 H 1298.43 -1.58583 -0.0608587 0
M  V30 13850 H 1298.45 -2.9313 -2.42601 0
M  V30 13851 H 1297.97 -3.79382 -0.81798 0
M  V30 13852 H 1296.07 -2.39875 -2.85115 0
M  V30 13853 H 1296.18 -4.20138 -2.30263 0
M  V30 13854 H 1294.54 -2.18542 -1.3081 0
M  V30 13855 H 1295.33 -3.42774 -0.189946 0
M  V30 13856 N 1297.77 0.548248 -1.47757 0
M  V30 13857 C 1299 1.335 -1.58722 0
M  V30 13858 C 1299.42 1.86549 -0.241034 0
M  V30 13859 O 1298.78 1.63447 0.784517 0
M  V30 13860 C 1298.83 2.47457 -2.62293 0
M  V30 13861 O 1297.93 3.49956 -2.18185 0
M  V30 13862 H 1297.27 0.396166 -0.532868 0
M  V30 13863 H 1299.8 0.66164 -1.93607 0
M  V30 13864 H 1299.81 2.93901 -2.82995 0
M  V30 13865 H 1298.49 2.08203 -3.60034 0
M  V30 13866 H 1297.06 3.09755 -2.0762 0
M  V30 13867 N 1299.25 1.36039 0.795694 0
M  V30 13868 C 1300.21 1.29709 1.88966 0
M  V30 13869 C 1301.21 0.206142 1.59473 0
M  V30 13870 O 1302.4 0.460534 1.68002 0
M  V30 13871 C 1299.53 1.00922 3.25619 0
M  V30 13872 H 1300.73 2.26993 1.95995 0
M  V30 13873 H 1298.28 1.2072 0.992791 0
M  V30 13874 H 1299.02 0.0407027 3.24274 0
M  V30 13875 H 1298.8 1.79863 3.48413 0
M  V30 13876 H 1300.29 0.990826 4.05675 0
M  V30 13877 N 1300.73 -1.01913 1.20215 0
M  V30 13878 C 1301.64 -2.13864 0.964328 0
M  V30 13879 C 1302.65 -1.73821 -0.0789556 0
M  V30 13880 O 1303.83 -2.01111 0.107914 0
M  V30 13881 C 1300.9 -3.42827 0.516757 0
M  V30 13882 C 1299.96 -3.97127 1.63059 0
M  V30 13883 C 1299.19 -5.19935 1.20428 0
M  V30 13884 O 1299.41 -5.70355 0.0719119 0
M  V30 13885 O 1298.35 -5.67322 2.01071 0
M  V30 13886 H 1302.17 -2.36795 1.90162 0
M  V30 13887 H 1299.76 -1.1226 0.985803 0
M  V30 13888 H 1301.64 -4.20493 0.276272 0
M  V30 13889 H 1300.31 -3.21318 -0.391983 0
M  V30 13890 H 1299.22 -3.20752 1.92533 0
M  V30 13891 H 1300.55 -4.2302 2.51624 0
M  V30 13892 N 1302.21 -1.00763 -1.2118 0
M  V30 13893 C 1303.62 -0.720905 -1.42391 0
M  V30 13894 C 1303.82 0.702918 -1.88842 0
M  V30 13895 O 1302.88 1.47191 -2.05161 0
M  V30 13896 C 1304.19 -1.739 -2.45315 0
M  V30 13897 C 1305.74 -1.75611 -2.59094 0
M  V30 13898 C 1306.21 -2.76323 -3.65253 0
M  V30 13899 N 1307.71 -2.75007 -3.72727 0
M  V30 13900 C 1308.44 -3.49594 -4.54502 0
M  V30 13901 N 1307.94 -4.33828 -5.40153 0
M  V30 13902 N 1309.73 -3.38232 -4.4895 0
M  V30 13903 H 1301.88 -1.92697 -0.893404 0
M  V30 13904 H 1304.14 -0.831888 -0.454606 0
M  V30 13905 H 1303.85 -2.75859 -2.18162 0
M  V30 13906 H 1303.72 -1.5438 -3.44161 0
M  V30 13907 H 1306.11 -0.743416 -2.85582 0
M  V30 13908 H 1306.19 -1.99203 -1.60474 0
M  V30 13909 H 1305.84 -3.77751 -3.39509 0
M  V30 13910 H 1305.77 -2.49996 -4.63476 0
M  V30 13911 H 1308.26 -2.13897 -3.11539 0
M  V30 13912 H 1308.57 -4.8753 -5.99612 0
M  V30 13913 H 1306.91 -4.3791 -5.39685 0
M  V30 13914 H 1310.11 -2.71855 -3.81068 0
M  V30 13915 H 1310.28 -3.96615 -5.12445 0
M  V30 13916 N 1303.68 1.3679 -0.7827 0
M  V30 13917 C 1304.91 2.03678 -0.363734 0
M  V30 13918 C 1305.33 1.59024 1.01768 0
M  V30 13919 O 1304.68 0.776541 1.65155 0
M  V30 13920 C 1304.74 3.59165 -0.410213 0
M  V30 13921 O 1304.46 4.02188 -1.73714 0
M  V30 13922 C 1305.96 4.43296 0.018972 0
M  V30 13923 H 1303.18 0.653828 -0.150829 0
M  V30 13924 H 1305.72 1.74903 -1.05968 0
M  V30 13925 H 1303.88 3.86673 0.237249 0
M  V30 13926 H 1304.29 4.96754 -1.68332 0
M  V30 13927 H 1305.76 5.51962 -0.0646943 0
M  V30 13928 H 1306.24 4.25948 1.07076 0
M  V30 13929 H 1306.85 4.21036 -0.600721 0
M  V30 13930 N 1305.16 0.53415 1.48272 0
M  V30 13931 C 1306.41 -0.000450626 2.017 0
M  V30 13932 C 1306.72 -1.34926 1.41613 0
M  V30 13933 O 1307.93 -1.97246 1.86564 0
M  V30 13934 C 1306.39 -0.0511883 3.59864 0
M  V30 13935 C 1305.99 1.29298 4.28936 0
M  V30 13936 C 1307.74 -0.534397 4.21123 0
M  V30 13937 C 1305.65 1.2026 5.79044 0
M  V30 13938 H 1304.58 -0.00393844 0.75399 0
M  V30 13939 H 1307.23 0.678554 1.70493 0
M  V30 13940 H 1305.61 -0.795358 3.8793 0
M  V30 13941 H 1306.78 2.05305 4.12537 0
M  V30 13942 H 1305.1 1.71226 3.79566 0
M  V30 13943 H 1307.69 -0.620048 5.31093 0
M  V30 13944 H 1308.04 -1.54114 3.86723 0
M  V30 13945 H 1308.57 0.154215 3.97501 0
M  V30 13946 H 1305.31 2.18463 6.18025 0
M  V30 13947 H 1304.83 0.483971 5.97844 0
M  V30 13948 H 1306.51 0.895005 6.4078 0
M  V30 13949 N 1306.64 -1.55279 0.269478 0
M  V30 13950 C 1307.57 -2.19684 -0.653573 0
M  V30 13951 C 1308.59 -1.17985 -1.12176 0
M  V30 13952 O 1309.77 -1.44739 -1.04464 0
M  V30 13953 C 1306.87 -2.80438 -1.90284 0
M  V30 13954 C 1306.05 -4.07774 -1.58239 0
M  V30 13955 C 1305.11 -4.52629 -2.68354 0
M  V30 13956 O 1304.13 -5.18524 -2.3478 0
M  V30 13957 N 1305.33 -4.22297 -3.98303 0
M  V30 13958 H 1308.1 -2.99525 -0.102379 0
M  V30 13959 H 1305.66 -1.61648 0.0903465 0
M  V30 13960 H 1307.65 -3.07392 -2.63234 0
M  V30 13961 H 1306.22 -2.04622 -2.36323 0
M  V30 13962 H 1305.44 -3.88168 -0.686983 0
M  V30 13963 H 1306.73 -4.90749 -1.34323 0
M  V30 13964 H 1306.13 -3.69441 -4.28404 0
M  V30 13965 H 1304.69 -4.54035 -4.67649 0
M  V30 13966 N 1308.12 0.00332656 -1.576 0
M  V30 13967 C 1309.05 1.02391 -2.05058 0
M  V30 13968 C 1310.06 1.30903 -0.967901 0
M  V30 13969 O 1311.25 1.27937 -1.24476 0
M  V30 13970 C 1308.35 2.35947 -2.43274 0
M  V30 13971 C 1307.53 2.26423 -3.74234 0
M  V30 13972 C 1306.58 3.4264 -3.99355 0
M  V30 13973 O 1305.61 3.20977 -4.70067 0
M  V30 13974 N 1306.81 4.65379 -3.46991 0
M  V30 13975 H 1309.58 0.619216 -2.93233 0
M  V30 13976 H 1307.14 0.190777 -1.60772 0
M  V30 13977 H 1309.13 3.12462 -2.57196 0
M  V30 13978 H 1307.7 2.6817 -1.60635 0
M  V30 13979 H 1306.92 1.34841 -3.70421 0
M  V30 13980 H 1308.21 2.17229 -4.60097 0
M  V30 13981 H 1307.61 4.85878 -2.89723 0
M  V30 13982 H 1306.16 5.39171 -3.66249 0
M  V30 13983 N 1309.6 1.55164 0.276031 0
M  V30 13984 C 1310.84 1.77377 1.01572 0
M  V30 13985 C 1311.2 0.56142 1.83608 0
M  V30 13986 O 1312.4 0.661745 2.60527 0
M  V30 13987 C 1310.67 3.0412 1.87738 0
M  V30 13988 S 1312.23 3.4744 2.68013 0
M  V30 13989 H 1309.05 0.62326 0.342153 0
M  V30 13990 H 1311.65 1.9339 0.286456 0
M  V30 13991 H 1310.36 3.90453 1.26389 0
M  V30 13992 H 1309.89 2.90764 2.6499 0
M  V30 13993 H 1311.9 3.06474 3.90241 0
M  V30 13994 N 1311.07 -0.540404 1.48045 0
M  V30 13995 C 1312.31 -1.30737 1.57121 0
M  V30 13996 C 1312.68 -1.90554 0.23518 0
M  V30 13997 O 1313.88 -2.68048 0.20087 0
M  V30 13998 C 1312.15 -2.37539 2.6704 0
M  V30 13999 S 1313.71 -3.241 2.95812 0
M  V30 14000 H 1310.53 -0.444856 0.554639 0
M  V30 14001 H 1313.13 -0.61683 1.85514 0
M  V30 14002 H 1311.83 -1.92057 3.62688 0
M  V30 14003 H 1311.36 -3.11313 2.40515 0
M  V30 14004 H 1313.38 -4.37393 2.34311 0
M  V30 14005 N 1312.55 -1.36459 -0.788468 0
M  V30 14006 C 1313.46 -1.33017 -1.93245 0
M  V30 14007 C 1314.48 -0.232212 -1.72444 0
M  V30 14008 O 1315.65 -0.464743 -1.95965 0
M  V30 14009 C 1312.72 -1.1197 -3.28121 0
M  V30 14010 C 1311.78 -2.3125 -3.61693 0
M  V30 14011 C 1311.01 -2.11197 -4.90134 0
M  V30 14012 O 1311.24 -1.08764 -5.59934 0
M  V30 14013 O 1310.17 -2.98996 -5.22384 0
M  V30 14014 H 1314 -2.29333 -1.99098 0
M  V30 14015 H 1311.58 -1.17016 -0.928856 0
M  V30 14016 H 1313.46 -1.02154 -4.08831 0
M  V30 14017 H 1312.14 -0.187171 -3.23158 0
M  V30 14018 H 1311.05 -2.46635 -2.81286 0
M  V30 14019 H 1312.38 -3.23012 -3.71381 0
M  V30 14020 N 1314.03 1.01274 -1.20754 0
M  V30 14021 C 1314.98 2.12012 -0.95675 0
M  V30 14022 C 1315.97 1.69143 0.0932738 0
M  V30 14023 O 1317.18 1.79908 -0.0574298 0
M  V30 14024 H 1313.55 0.692956 -0.292088 0
M  V30 14025 H 1315.52 2.30347 -1.89692 0
M  V30 14026 C 1314.27 3.43643 -0.529602 0
M  V30 14027 H 1313.6 3.77058 -1.32918 0
M  V30 14028 H 1315.04 4.22171 -0.393376 0
M  V30 14029 C 1313.5 3.2825 0.758505 0
M  V30 14030 O 1314.03 3.58309 1.81598 0
M  V30 14031 N 1312.23 2.81487 0.722022 0
M  V30 14032 H 1311.78 2.57226 -0.138807 0
M  V30 14033 H 1311.74 2.7157 1.58421 0
M  V30 14034 N 1315.51 1.01404 1.20644 0
M  V30 14035 C 1316.76 0.697244 1.89265 0
M  V30 14036 C 1317.07 -0.776149 1.79542 0
M  V30 14037 O 1318.28 -1.2054 2.43274 0
M  V30 14038 C 1316.73 1.19672 3.39421 0
M  V30 14039 C 1316.34 2.69683 3.57736 0
M  V30 14040 C 1318.09 0.955225 4.13613 0
M  V30 14041 C 1315.99 3.13124 5.01704 0
M  V30 14042 H 1314.92 0.257105 0.708811 0
M  V30 14043 H 1317.57 1.22639 1.36499 0
M  V30 14044 H 1315.96 0.595562 3.91496 0
M  V30 14045 H 1317.13 3.35326 3.16059 0
M  V30 14046 H 1315.44 2.91946 2.96911 0
M  V30 14047 H 1318.04 1.25524 5.19757 0
M  V30 14048 H 1318.38 -0.108362 4.16159 0
M  V30 14049 H 1318.92 1.51962 3.67631 0
M  V30 14050 H 1315.66 4.18748 5.04311 0
M  V30 14051 H 1315.18 2.522 5.44201 0
M  V30 14052 H 1316.86 3.05617 5.70269 0
M  V30 14053 N 1316.99 -1.36373 0.789944 0
M  V30 14054 C 1317.92 -2.32616 0.202944 0
M  V30 14055 C 1318.9 -1.56674 -0.662364 0
M  V30 14056 O 1320.08 -1.84826 -0.596078 0
M  V30 14057 C 1317.21 -3.4092 -0.662646 0
M  V30 14058 C 1316.17 -4.27877 0.102811 0
M  V30 14059 C 1315.49 -5.27352 -0.883407 0
M  V30 14060 C 1316.79 -5.0606 1.29231 0
M  V30 14061 H 1318.49 -2.81958 1.00699 0
M  V30 14062 H 1316.03 -1.35562 0.48568 0
M  V30 14063 H 1317.99 -4.07239 -1.08324 0
M  V30 14064 H 1316.71 -2.90147 -1.4994 0
M  V30 14065 H 1315.37 -3.63114 0.504389 0
M  V30 14066 H 1315.02 -4.72853 -1.71521 0
M  V30 14067 H 1314.72 -5.86398 -0.375669 0
M  V30 14068 H 1316.24 -5.96545 -1.30256 0
M  V30 14069 H 1317.66 -5.65417 0.947446 0
M  V30 14070 H 1316.05 -5.74521 1.73338 0
M  V30 14071 H 1317.12 -4.37671 2.08739 0
M  V30 14072 N 1318.47 -0.542005 -1.47987 0
M  V30 14073 C 1319.4 0.202703 -2.32618 0
M  V30 14074 C 1320.38 0.923521 -1.42846 0
M  V30 14075 O 1321.56 0.906957 -1.7172 0
M  V30 14076 C 1318.69 1.24267 -3.24307 0
M  V30 14077 C 1317.65 0.639257 -4.23199 0
M  V30 14078 C 1316.97 1.78275 -5.04105 0
M  V30 14079 C 1318.27 -0.396982 -5.20789 0
M  V30 14080 H 1319.97 -0.503817 -2.95131 0
M  V30 14081 H 1317.51 -0.243736 -1.41922 0
M  V30 14082 H 1319.46 1.7717 -3.82347 0
M  V30 14083 H 1318.19 1.97893 -2.59819 0
M  V30 14084 H 1316.85 0.131655 -3.66364 0
M  V30 14085 H 1316.5 2.50768 -4.36032 0
M  V30 14086 H 1316.2 1.38487 -5.71047 0
M  V30 14087 H 1317.72 2.31533 -5.65 0
M  V30 14088 H 1319.13 0.0454057 -5.73282 0
M  V30 14089 H 1317.53 -0.712911 -5.9585 0
M  V30 14090 H 1318.6 -1.29843 -4.67193 0
M  V30 14091 N 1319.94 1.55134 -0.277709 0
M  V30 14092 C 1320.89 2.24057 0.624594 0
M  V30 14093 C 1321.89 1.23848 1.15577 0
M  V30 14094 O 1323.09 1.41771 1.1091 0
M  V30 14095 H 1319.47 0.719106 0.219977 0
M  V30 14096 H 1321.44 2.98393 0.0204815 0
M  V30 14097 C 1320.19 2.97712 1.79618 0
M  V30 14098 H 1319.51 3.74611 1.39665 0
M  V30 14099 H 1320.95 3.49255 2.4041 0
M  V30 14100 C 1319.41 2.03332 2.68622 0
M  V30 14101 O 1319.94 1.58622 3.69056 0
M  V30 14102 N 1318.14 1.69778 2.35847 0
M  V30 14103 H 1317.69 2.06333 1.54222 0
M  V30 14104 H 1317.65 1.06901 2.95668 0
M  V30 14105 N 1321.42 0.00503138 1.57599 0
M  V30 14106 C 1322.38 -0.969628 2.0768 0
M  V30 14107 C 1323.38 -1.26933 0.987148 0
M  V30 14108 O 1324.57 -1.21368 1.24962 0
M  V30 14109 C 1321.71 -2.29312 2.52247 0
M  V30 14110 H 1322.9 -0.536342 2.95065 0
M  V30 14111 H 1320.45 -0.242543 1.54407 0
M  V30 14112 H 1321.19 -2.7732 1.6812 0
M  V30 14113 H 1320.97 -2.08878 3.31832 0
M  V30 14114 H 1322.46 -2.99221 2.91302 0
M  V30 14115 N 1322.9 -1.55308 -0.267798 0
M  V30 14116 C 1323.86 -1.87765 -1.31442 0
M  V30 14117 C 1324.86 -0.752571 -1.42102 0
M  V30 14118 O 1326.05 -1.02072 -1.41163 0
M  V30 14119 C 1323.18 -2.08754 -2.69508 0
M  V30 14120 H 1324.38 -2.8133 -1.03891 0
M  V30 14121 H 1321.93 -1.47879 -0.506111 0
M  V30 14122 H 1322.67 -1.17588 -3.02231 0
M  V30 14123 H 1322.45 -2.90674 -2.63156 0
M  V30 14124 H 1323.94 -2.3512 -3.4512 0
M  V30 14125 N 1324.38 0.532545 -1.4833 0
M  V30 14126 C 1325.62 1.28795 -1.57427 0
M  V30 14127 C 1325.98 1.90848 -0.243885 0
M  V30 14128 O 1325.27 1.76183 0.753 0
M  V30 14129 C 1325.47 2.40117 -2.64724 0
M  V30 14130 C 1325.29 1.88976 -4.08066 0
M  V30 14131 C 1324.06 1.71696 -4.75235 0
M  V30 14132 C 1326.26 1.41979 -4.94314 0
M  V30 14133 N 1324.24 1.15154 -6.03003 0
M  V30 14134 C 1325.62 0.973661 -6.12307 0
M  V30 14135 C 1327.67 1.30258 -4.80559 0
M  V30 14136 C 1326.37 0.42195 -7.18061 0
M  V30 14137 C 1328.4 0.764867 -5.86433 0
M  V30 14138 C 1327.76 0.328799 -7.03632 0
M  V30 14139 H 1323.86 0.462412 -0.630634 0
M  V30 14140 H 1326.44 0.600796 -1.85199 0
M  V30 14141 H 1324.62 3.06332 -2.38779 0
M  V30 14142 H 1326.35 3.07146 -2.63521 0
M  V30 14143 H 1323.1 1.95143 -4.31528 0
M  V30 14144 H 1323.53 0.888999 -6.71138 0
M  V30 14145 H 1328.17 1.62578 -3.90293 0
M  V30 14146 H 1325.89 0.0864233 -8.08054 0
M  V30 14147 H 1329.47 0.677391 -5.77843 0
M  V30 14148 H 1328.35 -0.0808116 -7.84158 0
M  V30 14149 N 1325.86 1.36875 0.78122 0
M  V30 14150 C 1326.79 1.34559 1.9083 0
M  V30 14151 C 1327.77 0.215713 1.68727 0
M  V30 14152 O 1328.95 0.41462 1.89722 0
M  V30 14153 C 1326.08 1.14233 3.27976 0
M  V30 14154 C 1325.04 2.24132 3.64621 0
M  V30 14155 C 1324.36 1.8894 5.00206 0
M  V30 14156 C 1325.66 3.66266 3.72353 0
M  V30 14157 H 1327.36 2.28871 1.93025 0
M  V30 14158 H 1324.9 1.10171 0.927275 0
M  V30 14159 H 1326.85 1.11246 4.06451 0
M  V30 14160 H 1325.58 0.163747 3.26189 0
M  V30 14161 H 1324.24 2.26259 2.88448 0
M  V30 14162 H 1323.89 0.896351 4.94949 0
M  V30 14163 H 1323.59 2.62525 5.25694 0
M  V30 14164 H 1325.11 1.87523 5.81092 0
M  V30 14165 H 1326.52 3.66321 4.41001 0
M  V30 14166 H 1324.92 4.38825 4.09332 0
M  V30 14167 H 1325.99 4.00578 2.7325 0
M  V30 14168 N 1327.33 -1.00632 1.21289 0
M  V30 14169 C 1328.28 -2.09382 0.97097 0
M  V30 14170 C 1329.25 -1.65783 -0.102561 0
M  V30 14171 O 1330.44 -1.90749 0.0442886 0
M  V30 14172 C 1327.58 -3.40844 0.540314 0
M  V30 14173 C 1326.69 -3.97862 1.68314 0
M  V30 14174 C 1325.82 -5.17427 1.20178 0
M  V30 14175 C 1324.86 -5.66552 2.31702 0
M  V30 14176 N 1324 -6.77368 1.84709 0
M  V30 14177 H 1328.84 -2.29411 1.90196 0
M  V30 14178 H 1326.38 -1.12488 0.947885 0
M  V30 14179 H 1328.33 -4.16313 0.271881 0
M  V30 14180 H 1326.96 -3.20857 -0.353677 0
M  V30 14181 H 1326.02 -3.19391 2.06624 0
M  V30 14182 H 1327.33 -4.30314 2.52252 0
M  V30 14183 H 1326.48 -6.00138 0.889926 0
M  V30 14184 H 1325.22 -4.86566 0.332422 0
M  V30 14185 H 1324.23 -4.82438 2.63691 0
M  V30 14186 H 1325.45 -5.99443 3.19131 0
M  V30 14187 H 1323.4 -6.48315 1.00116 0
M  V30 14188 H 1323.31 -7.09067 2.62221 0
M  V30 14189 H 1324.58 -7.63617 1.56554 0
M  V30 14190 N 1328.81 -1.02043 -1.20104 0
M  V30 14191 C 1330.23 -0.735967 -1.41618 0
M  V30 14192 C 1330.43 0.68285 -1.89577 0
M  V30 14193 O 1329.48 1.45007 -2.06711 0
M  V30 14194 C 1330.8 -1.76492 -2.43457 0
M  V30 14195 C 1332.34 -1.78349 -2.57217 0
M  V30 14196 C 1332.82 -2.80181 -3.62302 0
M  V30 14197 N 1334.31 -2.78945 -3.69789 0
M  V30 14198 C 1335.05 -3.54395 -4.50768 0
M  V30 14199 N 1334.54 -4.39533 -5.35521 0
M  V30 14200 N 1336.33 -3.42974 -4.45337 0
M  V30 14201 H 1328.49 -1.93634 -0.872916 0
M  V30 14202 H 1330.75 -0.836663 -0.445757 0
M  V30 14203 H 1330.45 -2.78158 -2.15223 0
M  V30 14204 H 1330.33 -1.58022 -3.42504 0
M  V30 14205 H 1332.72 -0.773665 -2.84778 0
M  V30 14206 H 1332.8 -2.00894 -1.58352 0
M  V30 14207 H 1332.44 -3.81331 -3.35484 0
M  V30 14208 H 1332.37 -2.54898 -4.60798 0
M  V30 14209 H 1334.86 -2.17189 -3.09253 0
M  V30 14210 H 1335.17 -4.93863 -5.94407 0
M  V30 14211 H 1333.52 -4.43609 -5.3501 0
M  V30 14212 H 1336.71 -2.75881 -3.78163 0
M  V30 14213 H 1336.88 -4.02028 -5.0821 0
M  V30 14214 N 1330.29 1.35952 -0.797165 0
M  V30 14215 C 1331.57 1.93335 -0.2968 0
M  V30 14216 C 1331.95 1.72825 1.21222 0
M  V30 14217 O 1331.3 1.09172 2.00733 0
M  V30 14218 C 1331.51 3.41951 -0.697894 0
M  V30 14219 C 1332.85 4.19087 -0.682026 0
M  V30 14220 O 1333.88 3.50424 -0.638849 0
M  V30 14221 O 1332.74 5.41577 -0.73189 0
M  V30 14222 H 1329.83 0.823554 -0.0754223 0
M  V30 14223 H 1332.38 1.45086 -0.88023 0
M  V30 14224 H 1331.15 3.50569 -1.73831 0
M  V30 14225 H 1330.77 3.97501 -0.088764 0
M  V30 14226 N 1331.77 0.549846 1.47697 0
M  V30 14227 C 1332.73 -0.191427 2.28399 0
M  V30 14228 C 1333.73 -0.849533 1.36527 0
M  V30 14229 O 1334.92 -0.706526 1.59229 0
M  V30 14230 C 1332.05 -1.27907 3.15995 0
M  V30 14231 H 1333.25 0.517375 2.95404 0
M  V30 14232 H 1330.8 0.30651 1.53265 0
M  V30 14233 H 1331.53 -2.0205 2.53665 0
M  V30 14234 H 1331.32 -0.812066 3.83599 0
M  V30 14235 H 1332.81 -1.79992 3.76819 0
M  V30 14236 N 1333.25 -1.54984 0.285932 0
M  V30 14237 C 1334.16 -2.26621 -0.606648 0
M  V30 14238 C 1335.17 -1.29595 -1.16108 0
M  V30 14239 O 1336.35 -1.62551 -1.18908 0
M  V30 14240 C 1333.41 -2.98156 -1.76929 0
M  V30 14241 C 1332.47 -4.10685 -1.25045 0
M  V30 14242 C 1331.71 -4.788 -2.35768 0
M  V30 14243 O 1331.93 -4.46183 -3.55354 0
M  V30 14244 O 1330.86 -5.66523 -2.03312 0
M  V30 14245 H 1334.69 -3.03689 -0.0259981 0
M  V30 14246 H 1332.28 -1.49306 0.0529355 0
M  V30 14247 H 1334.16 -3.43076 -2.44697 0
M  V30 14248 H 1332.83 -2.23996 -2.33683 0
M  V30 14249 H 1331.74 -3.70198 -0.538919 0
M  V30 14250 H 1333.07 -4.86778 -0.728528 0
M  V30 14251 N 1334.72 -0.0133892 -1.57594 0
M  V30 14252 C 1335.95 0.682855 -1.95836 0
M  V30 14253 C 1336.37 1.65763 -0.889049 0
M  V30 14254 O 1335.73 1.80665 0.151585 0
M  V30 14255 C 1335.78 1.37931 -3.33178 0
M  V30 14256 O 1334.88 2.49416 -3.28429 0
M  V30 14257 H 1334.23 0.180629 -0.638959 0
M  V30 14258 H 1336.76 -0.0705644 -2.04478 0
M  V30 14259 H 1336.77 1.73969 -3.69051 0
M  V30 14260 H 1335.44 0.664675 -4.10554 0
M  V30 14261 H 1334.02 2.15606 -3.04251 0
M  V30 14262 N 1336.2 1.55448 0.259558 0
M  V30 14263 C 1337.45 1.7589 0.987201 0
M  V30 14264 C 1337.76 0.574951 1.86959 0
M  V30 14265 O 1338.97 0.662091 2.63303 0
M  V30 14266 C 1337.43 3.11349 1.80526 0
M  V30 14267 C 1337.03 4.37353 0.970882 0
M  V30 14268 C 1338.78 3.41136 2.5264 0
M  V30 14269 C 1336.69 5.63847 1.7841 0
M  V30 14270 H 1335.62 0.655662 0.372321 0
M  V30 14271 H 1338.27 1.81893 0.242332 0
M  V30 14272 H 1336.65 2.9942 2.5916 0
M  V30 14273 H 1337.82 4.60237 0.227763 0
M  V30 14274 H 1336.14 4.14809 0.363669 0
M  V30 14275 H 1338.73 4.32855 3.13912 0
M  V30 14276 H 1339.08 2.61879 3.23612 0
M  V30 14277 H 1339.61 3.54224 1.81026 0
M  V30 14278 H 1336.35 6.4589 1.11834 0
M  V30 14279 H 1335.87 5.45086 2.50283 0
M  V30 14280 H 1337.55 6.02641 2.35441 0
M  V30 14281 N 1337.68 -0.524672 1.4861 0
M  V30 14282 C 1338.63 -1.62504 1.59927 0
M  V30 14283 C 1339.61 -1.543 0.456094 0
M  V30 14284 O 1340.81 -1.62231 0.707818 0
M  V30 14285 C 1337.94 -3.01207 1.64709 0
M  V30 14286 C 1337.02 -3.14495 2.84523 0
M  V30 14287 N 1337.41 -2.97741 4.08882 0
M  V30 14288 C 1335.71 -3.45559 2.81967 0
M  V30 14289 C 1336.41 -3.14585 4.89297 0
M  V30 14290 N 1335.39 -3.424 4.22212 0
M  V30 14291 H 1339.19 -1.48168 2.53818 0
M  V30 14292 H 1336.7 -0.730258 1.45055 0
M  V30 14293 H 1338.7 -3.80257 1.7091 0
M  V30 14294 H 1337.36 -3.16631 0.719376 0
M  V30 14295 H 1338.37 -2.74395 4.39235 0
M  V30 14296 H 1335.05 -3.67307 1.98474 0
M  V30 14297 H 1336.44 -3.06324 5.98009 0
M  V30 14298 N 1339.16 -1.37287 -0.77395 0
M  V30 14299 C 1340.09 -1.28746 -1.89624 0
M  V30 14300 C 1341.1 -0.203715 -1.6152 0
M  V30 14301 O 1342.29 -0.459684 -1.72479 0
M  V30 14302 C 1339.39 -0.967342 -3.24801 0
M  V30 14303 C 1338.57 -2.1561 -3.80567 0
M  V30 14304 C 1337.62 -1.80661 -4.94215 0
M  V30 14305 O 1336.65 -2.5293 -5.09917 0
M  V30 14306 N 1337.85 -0.749424 -5.75642 0
M  V30 14307 H 1340.62 -2.25447 -1.97468 0
M  V30 14308 H 1338.18 -1.30883 -0.952956 0
M  V30 14309 H 1340.17 -0.714421 -3.98344 0
M  V30 14310 H 1338.74 -0.0889573 -3.12473 0
M  V30 14311 H 1337.96 -2.57091 -2.98828 0
M  V30 14312 H 1339.25 -2.94993 -4.14556 0
M  V30 14313 H 1338.65 -0.149673 -5.65502 0
M  V30 14314 H 1337.2 -0.556358 -6.49421 0
M  V30 14315 N 1340.64 0.999871 -1.21821 0
M  V30 14316 C 1341.87 1.77148 -1.06312 0
M  V30 14317 C 1342.27 1.85142 0.389747 0
M  V30 14318 O 1341.62 1.31562 1.28207 0
M  V30 14319 C 1341.68 3.22367 -1.59122 0
M  V30 14320 C 1341.34 3.37937 -3.07649 0
M  V30 14321 C 1342.34 3.25808 -4.05148 0
M  V30 14322 C 1340.03 3.63213 -3.46961 0
M  V30 14323 C 1342.02 3.38729 -5.39946 0
M  V30 14324 C 1339.71 3.75775 -4.81909 0
M  V30 14325 C 1340.7 3.6354 -5.78211 0
M  V30 14326 O 1340.39 3.75694 -7.1071 0
M  V30 14327 H 1340.12 0.563396 -0.373578 0
M  V30 14328 H 1342.68 1.26627 -1.61724 0
M  V30 14329 H 1340.91 3.74047 -0.98111 0
M  V30 14330 H 1342.6 3.81219 -1.39379 0
M  V30 14331 H 1343.36 3.062 -3.76121 0
M  V30 14332 H 1339.24 3.71816 -2.72533 0
M  V30 14333 H 1342.79 3.29096 -6.15095 0
M  V30 14334 H 1338.68 3.94889 -5.1062 0
M  V30 14335 H 1339.45 3.9261 -7.18192 0
M  V30 14336 N 1342.11 1.02678 1.19562 0
M  V30 14337 C 1343.04 0.626359 2.24942 0
M  V30 14338 C 1344.03 -0.363612 1.66168 0
M  V30 14339 O 1345.21 -0.246793 1.92625 0
M  V30 14340 C 1342.34 -0.0257912 3.4729 0
M  V30 14341 C 1341.29 0.886237 4.18724 0
M  V30 14342 C 1340.62 0.0993081 5.34608 0
M  V30 14343 C 1341.92 2.19901 4.73752 0
M  V30 14344 H 1343.61 1.50729 2.58691 0
M  V30 14345 H 1341.16 0.726195 1.24348 0
M  V30 14346 H 1343.11 -0.317545 4.20202 0
M  V30 14347 H 1341.84 -0.941511 3.12735 0
M  V30 14348 H 1340.5 1.16215 3.47692 0
M  V30 14349 H 1340.14 -0.81838 4.96298 0
M  V30 14350 H 1339.84 0.706776 5.83334 0
M  V30 14351 H 1341.37 -0.185754 6.10317 0
M  V30 14352 H 1342.78 1.96892 5.3843 0
M  V30 14353 H 1341.18 2.75821 5.32956 0
M  V30 14354 H 1342.25 2.85509 3.91934 0
M  V30 14355 N 1343.59 -1.35528 0.804364 0
M  V30 14356 C 1344.52 -2.32388 0.227604 0
M  V30 14357 C 1345.5 -1.57368 -0.645709 0
M  V30 14358 O 1346.69 -1.85448 -0.576441 0
M  V30 14359 C 1343.82 -3.41603 -0.62645 0
M  V30 14360 C 1342.77 -4.27743 0.148187 0
M  V30 14361 C 1342.1 -5.28259 -0.827425 0
M  V30 14362 C 1343.4 -5.04661 1.34591 0
M  V30 14363 H 1345.09 -2.80874 1.03684 0
M  V30 14364 H 1342.64 -1.3504 0.500031 0
M  V30 14365 H 1344.59 -4.08365 -1.03999 0
M  V30 14366 H 1343.32 -2.91721 -1.46855 0
M  V30 14367 H 1341.97 -3.62558 0.542874 0
M  V30 14368 H 1341.62 -4.74645 -1.66496 0
M  V30 14369 H 1341.32 -5.86763 -0.313453 0
M  V30 14370 H 1342.85 -5.97893 -1.23921 0
M  V30 14371 H 1344.26 -5.6438 1.00736 0
M  V30 14372 H 1342.66 -5.7265 1.79422 0
M  V30 14373 H 1343.73 -4.35432 2.1337 0
M  V30 14374 N 1345.07 -0.557671 -1.47404 0
M  V30 14375 C 1346 0.227253 -2.28071 0
M  V30 14376 C 1347.02 0.878951 -1.37034 0
M  V30 14377 O 1348.21 0.752725 -1.61853 0
M  V30 14378 C 1345.31 1.33942 -3.11308 0
M  V30 14379 C 1344.48 0.784425 -4.30309 0
M  V30 14380 C 1343.54 1.78114 -4.95138 0
M  V30 14381 O 1342.56 1.32708 -5.53514 0
M  V30 14382 N 1343.77 3.11453 -4.89875 0
M  V30 14383 H 1346.53 -0.464709 -2.96075 0
M  V30 14384 H 1344.09 -0.393777 -1.57038 0
M  V30 14385 H 1346.08 2.00495 -3.51545 0
M  V30 14386 H 1344.65 1.93461 -2.45543 0
M  V30 14387 H 1343.87 -0.0578917 -3.94157 0
M  V30 14388 H 1345.16 0.39298 -5.0728 0
M  V30 14389 H 1344.56 3.50987 -4.43649 0
M  V30 14390 H 1343.12 3.73563 -5.34129 0
M  V30 14391 N 1346.55 1.54831 -0.294147 0
M  V30 14392 C 1347.97 1.59489 0.0594489 0
M  V30 14393 C 1348.17 1.31121 1.53002 0
M  V30 14394 O 1347.22 1.08129 2.28176 0
M  V30 14395 C 1348.53 2.98858 -0.332323 0
M  V30 14396 C 1350.08 3.1174 -0.280518 0
M  V30 14397 C 1350.56 4.53407 -0.64701 0
M  V30 14398 N 1352.05 4.59307 -0.599284 0
M  V30 14399 C 1352.78 5.66983 -0.85542 0
M  V30 14400 N 1352.28 6.82726 -1.17717 0
M  V30 14401 N 1354.07 5.56621 -0.78294 0
M  V30 14402 H 1346.22 1.71532 -1.25262 0
M  V30 14403 H 1348.49 0.800801 -0.507368 0
M  V30 14404 H 1348.19 3.24517 -1.35578 0
M  V30 14405 H 1348.07 3.75862 0.317443 0
M  V30 14406 H 1350.45 2.85834 0.733683 0
M  V30 14407 H 1350.53 2.36907 -0.96481 0
M  V30 14408 H 1350.18 4.80042 -1.65899 0
M  V30 14409 H 1350.11 5.26567 0.0592796 0
M  V30 14410 H 1352.6 3.76169 -0.361259 0
M  V30 14411 H 1352.91 7.60761 -1.35877 0
M  V30 14412 H 1351.26 6.84295 -1.21513 0
M  V30 14413 H 1354.45 4.65075 -0.531282 0
M  V30 14414 H 1354.62 6.40456 -0.985929 0
M  V30 14415 N 1348.03 0.0217466 1.57585 0
M  V30 14416 C 1348.97 -0.962559 2.0977 0
M  V30 14417 C 1349.94 -1.32771 0.998053 0
M  V30 14418 O 1351.13 -1.42231 1.27181 0
M  V30 14419 C 1348.27 -2.24214 2.62339 0
M  V30 14420 C 1347.38 -1.9341 3.86286 0
M  V30 14421 C 1346.52 -3.15609 4.27275 0
M  V30 14422 C 1345.56 -2.8059 5.43999 0
M  V30 14423 N 1344.69 -3.95392 5.8018 0
M  V30 14424 H 1349.53 -0.510626 2.93593 0
M  V30 14425 H 1347.07 -0.240456 1.45121 0
M  V30 14426 H 1349.03 -2.99049 2.90905 0
M  V30 14427 H 1347.66 -2.67037 1.81358 0
M  V30 14428 H 1346.71 -1.08849 3.64494 0
M  V30 14429 H 1348.02 -1.63614 4.71203 0
M  V30 14430 H 1347.18 -3.9877 4.57239 0
M  V30 14431 H 1345.92 -3.48561 3.41111 0
M  V30 14432 H 1344.92 -1.9584 5.13738 0
M  V30 14433 H 1346.15 -2.48863 6.31858 0
M  V30 14434 H 1344.09 -4.282 4.96971 0
M  V30 14435 H 1344.01 -3.69195 6.59721 0
M  V30 14436 H 1345.28 -4.79279 6.14746 0
M  V30 14437 N 1349.51 -1.55583 -0.251311 0
M  V30 14438 C 1350.47 -1.89148 -1.29443 0
M  V30 14439 C 1351.47 -0.7676 -1.41296 0
M  V30 14440 O 1352.66 -1.03563 -1.40073 0
M  V30 14441 C 1349.79 -2.11601 -2.67279 0
M  V30 14442 H 1350.98 -2.82416 -1.00901 0
M  V30 14443 H 1348.54 -1.48407 -0.490398 0
M  V30 14444 H 1349.27 -1.20787 -3.00967 0
M  V30 14445 H 1349.06 -2.93449 -2.60058 0
M  V30 14446 H 1350.55 -2.38768 -3.42607 0
M  V30 14447 N 1350.98 0.516783 -1.48886 0
M  V30 14448 C 1352.21 1.30103 -1.61518 0
M  V30 14449 C 1352.63 1.85996 -0.28055 0
M  V30 14450 O 1351.99 1.65075 0.749671 0
M  V30 14451 C 1352.04 2.41837 -2.67483 0
M  V30 14452 O 1351.14 3.45249 -2.25559 0
M  V30 14453 H 1350.48 0.384774 -0.541152 0
M  V30 14454 H 1353.01 0.620424 -1.94966 0
M  V30 14455 H 1353.02 2.87832 -2.89165 0
M  V30 14456 H 1351.7 2.00519 -3.64369 0
M  V30 14457 H 1350.28 3.05281 -2.14144 0
M  V30 14458 N 1352.46 1.37696 0.766659 0
M  V30 14459 C 1353.87 1.29668 1.34324 0
M  V30 14460 C 1354.22 -0.0534297 1.96127 0
M  V30 14461 O 1353.35 -0.95534 1.94171 0
M  V30 14462 C 1353.94 2.34818 2.44225 0
M  V30 14463 C 1352.5 2.3041 2.97638 0
M  V30 14464 C 1351.65 2.18378 1.70899 0
M  V30 14465 H 1354.6 1.48244 0.566526 0
M  V30 14466 H 1354.62 1.99778 3.23835 0
M  V30 14467 H 1354.13 3.3307 1.99214 0
M  V30 14468 H 1352.23 1.35698 3.47011 0
M  V30 14469 H 1352.35 3.24028 3.52906 0
M  V30 14470 H 1350.71 1.65008 1.94021 0
M  V30 14471 H 1351.49 3.18551 1.27985 0
M  V30 14472 N 1353.94 -0.993397 1.22349 0
M  V30 14473 C 1355.35 -1.54739 1.04465 0
M  V30 14474 C 1355.7 -1.92243 -0.392057 0
M  V30 14475 O 1354.83 -1.74707 -1.27697 0
M  V30 14476 C 1355.42 -2.81179 1.89007 0
M  V30 14477 C 1353.98 -3.33023 1.75421 0
M  V30 14478 C 1353.13 -2.06114 1.85505 0
M  V30 14479 H 1356.08 -0.814539 1.36202 0
M  V30 14480 H 1356.1 -3.53523 1.40718 0
M  V30 14481 H 1355.61 -2.53851 2.93566 0
M  V30 14482 H 1353.71 -3.6526 0.735935 0
M  V30 14483 H 1353.83 -4.03659 2.58062 0
M  V30 14484 H 1352.19 -2.19651 1.2894 0
M  V30 14485 H 1352.97 -1.81184 2.91594 0
M  V30 14486 N 1355.42 -1.03311 -1.19015 0
M  V30 14487 C 1356.65 -0.751802 -1.92758 0
M  V30 14488 C 1357.06 0.689982 -1.7574 0
M  V30 14489 O 1356.42 1.46961 -1.08207 0
M  V30 14490 C 1356.47 -1.09892 -3.44392 0
M  V30 14491 O 1356.19 -2.48409 -3.60866 0
M  V30 14492 C 1357.69 -0.841029 -4.35249 0
M  V30 14493 H 1354.91 -0.274757 -0.612168 0
M  V30 14494 H 1357.45 -1.37873 -1.51034 0
M  V30 14495 H 1355.61 -0.517092 -3.83933 0
M  V30 14496 H 1356.02 -2.61468 -4.54681 0
M  V30 14497 H 1357.5 -1.13383 -5.4023 0
M  V30 14498 H 1357.97 0.224434 -4.38626 0
M  V30 14499 H 1358.58 -1.40579 -4.01395 0
M  V30 14500 N 1356.9 1.35099 -0.81154 0
M  V30 14501 C 1358.14 1.9892 -0.394815 0
M  V30 14502 C 1358.47 1.6422 1.0366 0
M  V30 14503 O 1357.75 0.908031 1.72003 0
M  V30 14504 C 1358.03 3.55331 -0.58413 0
M  V30 14505 C 1357.89 3.99812 -2.06084 0
M  V30 14506 C 1359.2 4.40098 -0.0129096 0
M  V30 14507 H 1356.32 0.72261 -0.144926 0
M  V30 14508 H 1358.97 1.60173 -1.02199 0
M  V30 14509 H 1357.12 3.88468 -0.0502446 0
M  V30 14510 H 1358.79 3.77061 -2.65749 0
M  V30 14511 H 1357.03 3.50539 -2.55548 0
M  V30 14512 H 1357.7 5.08655 -2.14416 0
M  V30 14513 H 1360.18 4.13449 -0.468917 0
M  V30 14514 H 1359.05 5.4862 -0.175252 0
M  V30 14515 H 1359.31 4.28675 1.0812 0
M  V30 14516 O 1358.41 0.706436 1.4523 0
M  V30 14517 H 1359.1 0.248661 1.92097 0
M  V30 END ATOM
M  V30 BEGIN BOND
M  V30 END BOND
M  V30 END CTAB
M  END
$$$$
