drugbank_target|P55792 4-hydroxybutyryl-CoA dehydratase/vinylacetyl-CoA-Delta-isomerase (DB03147)
 OpenBabel12092120263D

  0  0  0     0  0            999 V3000
M  V30 BEGIN CTAB
M  V30 COUNTS 7554 7620 0 0 0
M  V30 BEGIN ATOM
M  V30 1 H -0.908 1.98254 -0.117106 0
M  V30 2 N 0 1.576 0 0
M  V30 3 C 0.933 2.03868 1.02534 0
M  V30 4 C 1.911 0.928543 1.3348 0
M  V30 5 O 3.095 1.19667 1.45644 0
M  V30 6 C 0.222 2.43627 2.35294 0
M  V30 7 C -0.732 3.65373 2.2001 0
M  V30 8 S 0.101 5.13292 1.52614 0
M  V30 9 C 1.257 5.56322 2.86805 0
M  V30 10 H 1.49 2.90518 0.631377 0
M  V30 11 H -0.977 1.52953 0.210867 0
M  V30 12 H 0.981 2.67203 3.11629 0
M  V30 13 H -0.358 1.57376 2.7183 0
M  V30 14 H -1.165 3.90944 3.18086 0
M  V30 15 H -1.563 3.418 1.51819 0
M  V30 16 H 0.729 5.58782 3.83104 0
M  V30 17 H 1.672 6.56266 2.65933 0
M  V30 18 H 2.08 4.83886 2.90714 0
M  V30 19 N 1.4781 -0.272755 1.55222 0
M  V30 20 C 2.4081 -1.34136 1.91127 0
M  V30 21 C 3.3891 -1.51513 0.773168 0
M  V30 22 O 4.5741 -1.64552 1.03132 0
M  V30 23 C 1.7041 -2.70083 2.1834 0
M  V30 24 C 0.6581 -2.67437 3.34158 0
M  V30 25 C -0.0159 -4.06938 3.46851 0
M  V30 26 C 1.2841 -2.26686 4.70543 0
M  V30 27 H 2.9781 -1.04333 2.80633 0
M  V30 28 H 0.5241 -0.500454 1.35024 0
M  V30 29 H 2.4771 -3.44952 2.42046 0
M  V30 30 H 1.2011 -3.01469 1.25634 0
M  V30 31 H -0.1399 -1.95026 3.1042 0
M  V30 32 H -0.4919 -4.35547 2.51611 0
M  V30 33 H -0.7919 -4.06062 4.2472 0
M  V30 34 H 0.7321 -4.83545 3.72849 0
M  V30 35 H 2.1461 -2.91277 4.93792 0
M  V30 36 H 0.5431 -2.36971 5.5133 0
M  V30 37 H 1.6131 -1.21818 4.69349 0
M  V30 38 N 2.9562 -1.48159 -0.537278 0
M  V30 39 C 3.8892 -1.567 -1.65893 0
M  V30 40 C 4.8672 -0.41787 -1.57139 0
M  V30 41 O 6.0512 -0.628461 -1.77715 0
M  V30 42 C 3.1782 -1.48818 -3.04255 0
M  V30 43 C 2.2242 -2.68482 -3.31391 0
M  V30 44 S 3.0572 -4.30516 -3.1846 0
M  V30 45 C 4.2132 -4.2522 -4.59281 0
M  V30 46 H 4.4462 -2.5159 -1.58397 0
M  V30 47 H 1.9792 -1.36602 -0.719672 0
M  V30 48 H 3.9372 -1.44958 -3.84054 0
M  V30 49 H 2.5982 -0.552777 -3.09198 0
M  V30 50 H 1.7912 -2.59085 -4.32309 0
M  V30 51 H 1.3932 -2.69567 -2.59248 0
M  V30 52 H 3.6852 -3.94703 -5.5065 0
M  V30 53 H 4.6282 -5.26292 -4.73732 0
M  V30 54 H 5.0362 -3.55791 -4.38261 0
M  V30 55 N 4.4343 0.785586 -1.36625 0
M  V30 56 C 5.6623 1.57448 -1.3423 0
M  V30 57 C 6.0773 1.88649 0.0755653 0
M  V30 58 O 5.4343 1.50414 1.03354 0
M  V30 59 C 5.4853 2.89316 -2.16745 0
M  V30 60 O 5.2063 2.59459 -3.53005 0
M  V30 61 C 6.7073 3.83606 -2.22174 0
M  V30 62 H 3.9273 0.488226 -0.4603 0
M  V30 63 H 6.4713 0.974733 -1.79775 0
M  V30 64 H 4.6263 3.4575 -1.74745 0
M  V30 65 H 5.0403 3.43804 -3.96105 0
M  V30 66 H 6.5143 4.73181 -2.8426 0
M  V30 67 H 6.9913 4.21734 -1.22627 0
M  V30 68 H 7.5973 3.33104 -2.64427 0
M  V30 69 N 5.9124 1.20967 1.01018 0
M  V30 70 C 6.8754 0.965918 2.07853 0
M  V30 71 C 7.8754 -0.0610545 1.60684 0
M  V30 72 O 9.0654 0.175681 1.73312 0
M  V30 73 C 6.1974 0.455513 3.37843 0
M  V30 74 H 7.3904 1.91365 2.3091 0
M  V30 75 H 4.9434 1.02594 1.17916 0
M  V30 76 H 5.6784 -0.497381 3.20463 0
M  V30 77 H 5.4634 1.19622 3.73407 0
M  V30 78 H 6.9534 0.304667 4.16487 0
M  V30 79 N 7.3905 -1.2043 1.01659 0
M  V30 80 C 8.3005 -2.2689 0.596484 0
M  V30 81 C 9.3165 -1.70107 -0.36599 0
M  V30 82 O 10.4925 -2.00117 -0.226942 0
M  V30 83 C 7.5575 -3.4665 -0.0586659 0
M  V30 84 C 6.6185 -4.18662 0.949751 0
M  V30 85 C 5.8515 -5.32705 0.32577 0
M  V30 86 O 6.0745 -5.63656 -0.874509 0
M  V30 87 O 5.0085 -5.92803 1.04249 0
M  V30 88 H 8.8345 -2.65041 1.4828 0
M  V30 89 H 6.4195 -1.27048 0.786082 0
M  V30 90 H 8.3015 -4.19256 -0.424564 0
M  V30 91 H 6.9765 -3.10375 -0.91918 0
M  V30 92 H 5.8835 -3.48229 1.36702 0
M  V30 93 H 7.2165 -4.58878 1.78023 0
M  V30 94 N 8.8686 -0.792821 -1.36206 0
M  V30 95 C 9.8006 -0.151469 -2.28699 0
M  V30 96 C 10.8136 0.641262 -1.49638 0
M  V30 97 O 12.0026 0.475885 -1.72039 0
M  V30 98 C 9.1026 0.808424 -3.29117 0
M  V30 99 C 8.2756 0.0650202 -4.37352 0
M  V30 100 C 7.3346 0.941358 -5.17711 0
M  V30 101 O 6.3606 0.397352 -5.67811 0
M  V30 102 N 7.5626 2.2652 -5.3448 0
M  V30 103 H 10.3276 -0.945982 -2.84379 0
M  V30 104 H 7.8886 -0.647032 -1.48409 0
M  V30 105 H 9.8806 1.3986 -3.79765 0
M  V30 106 H 8.4506 1.5038 -2.74052 0
M  V30 107 H 7.6706 -0.706255 -3.87822 0
M  V30 108 H 8.9586 -0.447847 -5.06825 0
M  V30 109 H 8.3566 2.73128 -4.95396 0
M  V30 110 H 6.9136 2.80493 -5.88359 0
M  V30 111 N 10.3467 1.47872 -0.545128 0
M  V30 112 C 11.5767 2.06589 -0.0210534 0
M  V30 113 C 11.9847 1.39997 1.27269 0
M  V30 114 O 11.3277 0.486421 1.77143 0
M  V30 115 C 11.3897 3.58574 0.257933 0
M  V30 116 C 11.0537 4.47132 -0.944573 0
M  V30 117 C 12.0507 4.85986 -1.84699 0
M  V30 118 C 9.7357 4.88821 -1.15584 0
M  V30 119 C 11.7297 5.65314 -2.94446 0
M  V30 120 C 9.4167 5.67916 -2.25642 0
M  V30 121 C 10.4147 6.06073 -3.14905 0
M  V30 122 O 10.1027 6.83578 -4.23057 0
M  V30 123 H 9.8347 0.674971 -0.0372899 0
M  V30 124 H 12.3887 1.91037 -0.754599 0
M  V30 125 H 10.6187 3.72295 1.04564 0
M  V30 126 H 12.3077 3.99356 0.72592 0
M  V30 127 H 13.0737 4.54388 -1.69577 0
M  V30 128 H 8.9527 4.58595 -0.470279 0
M  V30 129 H 12.4967 5.95016 -3.64145 0
M  V30 130 H 8.3937 5.98927 -2.40742 0
M  V30 131 H 9.1617 7.01954 -4.20954 0
M  V30 132 N 11.8248 0.280983 1.55075 0
M  V30 133 C 13.0738 -0.334784 1.98902 0
M  V30 134 C 13.3868 -1.56534 1.17288 0
M  V30 135 O 14.5928 -2.25443 1.51287 0
M  V30 136 C 13.0488 -0.646994 3.54037 0
M  V30 137 C 12.6568 0.564085 4.44435 0
M  V30 138 C 14.4008 -1.22506 4.06439 0
M  V30 139 C 12.3078 0.226137 5.90967 0
M  V30 140 H 11.2378 -0.128866 0.742906 0
M  V30 141 H 13.8888 0.386556 1.79382 0
M  V30 142 H 12.2708 -1.42739 3.6938 0
M  V30 143 H 13.4448 1.34082 4.40861 0
M  V30 144 H 11.7598 1.0594 4.02698 0
M  V30 145 H 14.3568 -1.49182 5.13468 0
M  V30 146 H 14.6998 -2.16085 3.55827 0
M  V30 147 H 15.2328 -0.50682 3.94558 0
M  V30 148 H 11.9718 1.12996 6.45687 0
M  V30 149 H 11.4918 -0.513717 5.97596 0
M  V30 150 H 13.1708 -0.179539 6.46751 0
M  V30 151 N 13.3029 -1.57598 0.00835791 0
M  V30 152 C 14.2129 -2.12385 -0.996487 0
M  V30 153 C 15.2289 -1.07108 -1.37127 0
M  V30 154 O 16.4049 -1.39055 -1.4569 0
M  V30 155 C 13.4699 -2.62314 -2.26699 0
M  V30 156 C 12.5309 -3.82225 -1.95456 0
M  V30 157 C 11.7639 -4.29763 -3.16449 0
M  V30 158 O 11.9869 -3.76584 -4.28416 0
M  V30 159 O 10.9209 -5.21832 -2.99958 0
M  V30 160 H 14.7469 -2.98479 -0.560725 0
M  V30 161 H 12.3319 -1.47903 -0.210987 0
M  V30 162 H 14.2139 -2.94589 -3.01322 0
M  V30 163 H 12.8889 -1.79313 -2.69497 0
M  V30 164 H 11.7959 -3.54909 -1.18282 0
M  V30 165 H 13.1289 -4.66324 -1.57489 0
M  V30 166 N 14.781 0.264519 -1.55364 0
M  V30 167 C 16.006 1.01726 -1.80739 0
M  V30 168 C 16.431 1.78836 -0.583044 0
M  V30 169 O 15.789 1.75167 0.467566 0
M  V30 170 C 15.837 1.94482 -3.03659 0
M  V30 171 O 14.941 3.03386 -2.7934 0
M  V30 172 H 14.282 0.290395 -0.597132 0
M  V30 173 H 16.812 0.290854 -2.02522 0
M  V30 174 H 16.822 2.36278 -3.32621 0
M  V30 175 H 15.497 1.37772 -3.92418 0
M  V30 176 H 14.074 2.65844 -2.61498 0
M  V30 177 N 16.2591 1.48442 0.529413 0
M  V30 178 C 17.1891 1.65902 1.64313 0
M  V30 179 C 18.1701 0.507897 1.6234 0
M  V30 180 O 19.3551 0.740503 1.79528 0
M  V30 181 C 16.4851 1.69911 3.02898 0
M  V30 182 C 15.4391 2.8453 3.19729 0
M  V30 183 C 14.7651 2.73629 4.59381 0
M  V30 184 C 16.0651 4.25821 3.02447 0
M  V30 185 H 17.7591 2.5914 1.49955 0
M  V30 186 H 15.3051 1.24709 0.719982 0
M  V30 187 H 17.2581 1.80715 3.80684 0
M  V30 188 H 15.9821 0.732524 3.18279 0
M  V30 189 H 14.6411 2.73283 2.44361 0
M  V30 190 H 14.2891 1.74938 4.71599 0
M  V30 191 H 13.9891 3.50541 4.71588 0
M  V30 192 H 15.5131 2.86401 5.39265 0
M  V30 193 H 16.9271 4.37898 3.70024 0
M  V30 194 H 15.3241 5.03735 3.26146 0
M  V30 195 H 16.3941 4.42244 1.98867 0
M  V30 196 N 17.7372 -0.778329 1.37039 0
M  V30 197 C 19.1532 -1.07796 1.17695 0
M  V30 198 C 19.3532 -2.01498 0.00860115 0
M  V30 199 O 18.4092 -2.43901 -0.653352 0
M  V30 200 C 19.7222 -1.68178 2.49272 0
M  V30 201 C 21.2702 -1.80467 2.55735 0
M  V30 202 C 21.7452 -2.44263 3.87427 0
M  V30 203 N 23.2362 -2.51721 3.88833 0
M  V30 204 C 23.9712 -3.01919 4.87476 0
M  V30 205 N 23.4672 -3.5234 5.96513 0
M  V30 206 N 25.2602 -3.00733 4.74885 0
M  V30 207 H 17.4112 -0.156032 2.11826 0
M  V30 208 H 19.6742 -0.131844 0.938787 0
M  V30 209 H 19.3802 -1.06796 3.35093 0
M  V30 210 H 19.2542 -2.67554 2.65885 0
M  V30 211 H 21.6412 -2.40984 1.70325 0
M  V30 212 H 21.7222 -0.798656 2.43013 0
M  V30 213 H 21.3662 -1.84388 4.73248 0
M  V30 214 H 21.2962 -3.45458 3.9745 0
M  V30 215 H 23.7872 -2.1603 3.10063 0
M  V30 216 H 24.1002 -3.89027 6.67741 0
M  V30 217 H 22.4452 -3.50462 6.00168 0
M  V30 218 H 25.6362 -2.60638 3.88826 0
M  V30 219 H 25.8092 -3.39545 5.51918 0
M  V30 220 N 19.2153 -1.21501 -1.00376 0
M  V30 221 C 20.1623 -0.975387 -2.09177 0
M  V30 222 C 21.1323 0.0990615 -1.65804 0
M  V30 223 O 22.3173 -0.0483147 -1.90739 0
M  V30 224 C 19.4573 -0.547507 -3.40729 0
M  V30 225 C 18.5703 -1.69153 -3.97506 0
M  V30 226 C 17.7053 -1.2127 -5.17172 0
M  V30 227 C 16.7443 -2.32897 -5.66061 0
M  V30 228 N 15.8813 -1.86138 -6.76976 0
M  V30 229 H 20.7213 -1.9068 -2.29009 0
M  V30 230 H 18.2583 -0.950257 -1.12288 0
M  V30 231 H 20.2163 -0.280667 -4.16255 0
M  V30 232 H 18.8463 0.346904 -3.20931 0
M  V30 233 H 17.8983 -2.07298 -3.18954 0
M  V30 234 H 19.2103 -2.5316 -4.29781 0
M  V30 235 H 18.3643 -0.902591 -5.99948 0
M  V30 236 H 17.1033 -0.342692 -4.86495 0
M  V30 237 H 16.1083 -2.64709 -4.81881 0
M  V30 238 H 17.3333 -3.20396 -5.98768 0
M  V30 239 H 15.2793 -1.01484 -6.48103 0
M  V30 240 H 15.1963 -2.63717 -7.08512 0
M  V30 241 H 16.4643 -1.58165 -7.63285 0
M  V30 242 N 20.6934 1.19889 -1.02296 0
M  V30 243 C 21.6234 2.25141 -0.619174 0
M  V30 244 C 22.6044 1.66051 0.368915 0
M  V30 245 O 23.7894 1.92546 0.252941 0
M  V30 246 C 20.9194 3.4728 0.0368783 0
M  V30 247 C 19.8734 4.19005 -0.872865 0
M  V30 248 C 19.1994 5.34637 -0.0822402 0
M  V30 249 C 20.4994 4.74452 -2.18387 0
M  V30 250 H 22.1934 2.59171 -1.49903 0
M  V30 251 H 19.7394 1.24579 -0.722222 0
M  V30 252 H 21.6924 4.20098 0.330958 0
M  V30 253 H 20.4164 3.12433 0.95149 0
M  V30 254 H 19.0754 3.48061 -1.15105 0
M  V30 255 H 18.7234 4.96034 0.83422 0
M  V30 256 H 18.4234 5.83557 -0.688149 0
M  V30 257 H 19.9474 6.10255 0.205238 0
M  V30 258 H 21.3614 5.39055 -1.95172 0
M  V30 259 H 19.7584 5.33834 -2.74119 0
M  V30 260 H 20.8284 3.92844 -2.84257 0
M  V30 261 N 22.1715 0.800033 1.35784 0
M  V30 262 C 23.1195 0.193851 2.31791 0
M  V30 263 C 24.1135 -0.652744 1.56319 0
M  V30 264 O 25.3195 -0.546641 1.71499 0
M  V30 265 H 21.6945 0.04392 0.750716 0
M  V30 266 H 23.6655 1.01883 2.80468 0
M  V30 267 C 22.4145 -0.648338 3.41602 0
M  V30 268 H 21.7375 -0.00624665 3.998 0
M  V30 269 H 23.1775 -1.03898 4.11073 0
M  V30 270 C 21.6365 -1.8111 2.84079 0
M  V30 271 O 22.1665 -2.90825 2.77099 0
M  V30 272 N 20.3725 -1.62056 2.41218 0
M  V30 273 H 19.9195 -0.728123 2.47095 0
M  V30 274 H 19.8775 -2.40013 2.03079 0
M  V30 275 N 23.6496 -1.47581 0.552962 0
M  V30 276 C 24.8776 -2.06875 0.0320556 0
M  V30 277 C 25.2926 -1.40625 -1.25976 0
M  V30 278 O 24.6496 -0.501349 -1.75479 0
M  V30 279 C 24.7006 -3.61092 -0.17167 0
M  V30 280 O 24.4216 -4.24858 1.06899 0
M  V30 281 C 25.9226 -4.37242 -0.730344 0
M  V30 282 H 23.1426 -0.669561 0.043915 0
M  V30 283 H 25.6866 -1.89646 0.765163 0
M  V30 284 H 23.8416 -3.7785 -0.854894 0
M  V30 285 H 24.2556 -5.17334 0.864059 0
M  V30 286 H 25.7296 -5.45842 -0.822203 0
M  V30 287 H 26.2066 -4.03235 -1.74064 0
M  V30 288 H 26.8126 -4.25219 -0.0829543 0
M  V30 289 N 25.1277 -0.289203 -1.54924 0
M  V30 290 C 26.5437 0.0645403 -1.59469 0
M  V30 291 C 26.7437 1.53419 -1.30632 0
M  V30 292 O 25.7997 2.2852 -1.074 0
M  V30 293 C 27.1127 -0.32278 -2.98963 0
M  V30 294 C 28.6607 -0.270564 -3.11828 0
M  V30 295 C 29.1357 -0.632532 -4.53611 0
M  V30 296 N 30.6267 -0.584617 -4.59496 0
M  V30 297 C 31.3617 -0.837314 -5.67254 0
M  V30 298 N 30.8577 -1.15536 -6.83098 0
M  V30 299 N 32.6507 -0.765166 -5.56868 0
M  V30 300 H 24.8017 -1.24714 -1.71931 0
M  V30 301 H 27.0647 -0.504809 -0.802416 0
M  V30 302 H 26.7707 -1.34541 -3.24948 0
M  V30 303 H 26.6447 0.32944 -3.75759 0
M  V30 304 H 29.0317 0.742805 -2.85598 0
M  V30 305 H 29.1127 -0.957242 -2.37214 0
M  V30 306 H 28.7567 -1.64365 -4.80569 0
M  V30 307 H 28.6867 0.07609 -5.26545 0
M  V30 308 H 31.1777 -0.349248 -3.76283 0
M  V30 309 H 31.4907 -1.33447 -7.61191 0
M  V30 310 H 29.8357 -1.19328 -6.84679 0
M  V30 311 H 33.0267 -0.516432 -4.65243 0
M  V30 312 H 33.1997 -0.965477 -6.40767 0
M  V30 313 N 26.6058 1.57591 -0.0167156 0
M  V30 314 C 27.8518 1.91567 0.665582 0
M  V30 315 C 28.1848 0.892298 1.72487 0
M  V30 316 O 27.4598 -0.0867127 1.94307 0
M  V30 317 C 27.7428 3.36069 1.29342 0
M  V30 318 C 27.5958 4.49135 0.244541 0
M  V30 319 C 28.9148 3.803 2.21495 0
M  V30 320 H 26.0338 0.69666 0.240488 0
M  V30 321 H 28.6758 1.89866 -0.0714356 0
M  V30 322 H 26.8258 3.3765 1.92158 0
M  V30 323 H 28.4978 4.59689 -0.385228 0
M  V30 324 H 26.7408 4.3165 -0.431379 0
M  V30 325 H 27.4118 5.47242 0.723207 0
M  V30 326 H 29.8878 3.80377 1.68678 0
M  V30 327 H 28.7638 4.82127 2.62382 0
M  V30 328 H 29.0248 3.15104 3.101 0
M  V30 329 N 28.0839 -0.256276 1.55502 0
M  V30 330 C 29.3139 -1.00196 1.80677 0
M  V30 331 C 29.7219 -1.79805 0.588797 0
M  V30 332 O 29.0649 -1.78055 -0.451883 0
M  V30 333 C 29.1269 -1.99515 2.99055 0
M  V30 334 C 28.7909 -1.38688 4.35448 0
M  V30 335 C 29.7879 -0.794079 5.138 0
M  V30 336 C 27.4729 -1.40906 4.82132 0
M  V30 337 C 29.4669 -0.231562 6.36979 0
M  V30 338 C 27.1539 -0.842684 6.05262 0
M  V30 339 C 28.1519 -0.254953 6.82524 0
M  V30 340 O 27.8399 0.3027 8.0333 0
M  V30 341 H 27.5719 -0.300919 0.60533 0
M  V30 342 H 30.1259 -0.287307 2.03381 0
M  V30 343 H 28.3559 -2.74785 2.72084 0
M  V30 344 H 30.0449 -2.60349 3.11405 0
M  V30 345 H 30.8109 -0.769519 4.78856 0
M  V30 346 H 26.6899 -1.85591 4.21992 0
M  V30 347 H 30.2339 0.227816 6.97228 0
M  V30 348 H 26.1309 -0.86454 6.39684 0
M  V30 349 H 26.8989 0.193662 8.18271 0
M  V30 350 N 29.562 -1.4872 -0.521534 0
M  V30 351 C 30.495 -1.58451 -1.64221 0
M  V30 352 C 31.473 -0.434513 -1.56687 0
M  V30 353 O 32.657 -0.647275 -1.77038 0
M  V30 354 C 29.784 -1.52037 -3.02659 0
M  V30 355 C 28.83 -2.71981 -3.28525 0
M  V30 356 S 29.663 -4.33869 -3.13876 0
M  V30 357 C 30.819 -4.30067 -4.54745 0
M  V30 358 H 31.052 -2.53256 -1.55719 0
M  V30 359 H 28.585 -1.37358 -0.705143 0
M  V30 360 H 30.543 -1.49023 -3.82495 0
M  V30 361 H 29.204 -0.585541 -3.08594 0
M  V30 362 H 28.397 -2.63656 -4.29536 0
M  V30 363 H 27.999 -2.72302 -2.56374 0
M  V30 364 H 30.291 -4.00521 -5.46433 0
M  V30 365 H 31.234 -5.31287 -4.68123 0
M  V30 366 H 31.642 -3.60419 -4.34463 0
M  V30 367 N 31.0401 0.771051 -1.3745 0
M  V30 368 C 32.2871 1.52963 -1.32697 0
M  V30 369 C 32.6151 1.94299 0.0883274 0
M  V30 370 O 31.8701 1.64397 1.0617 0
M  V30 371 C 32.1691 2.80676 -2.2126 0
M  V30 372 C 31.8351 2.58389 -3.69521 0
M  V30 373 C 30.4971 2.52019 -4.09927 0
M  V30 374 C 32.8491 2.38469 -4.63446 0
M  V30 375 C 30.1771 2.23721 -5.42371 0
M  V30 376 C 32.5291 2.11694 -5.96128 0
M  V30 377 C 31.1931 2.03769 -6.35637 0
M  V30 378 H 30.4631 0.559732 -0.485573 0
M  V30 379 H 33.1101 0.888083 -1.69662 0
M  V30 380 H 31.4151 3.49392 -1.77291 0
M  V30 381 H 33.1121 3.38557 -2.14895 0
M  V30 382 H 29.7021 2.6421 -3.37478 0
M  V30 383 H 33.8861 2.4238 -4.33089 0
M  V30 384 H 29.1421 2.16081 -5.71943 0
M  V30 385 H 33.3161 1.9528 -6.6846 0
M  V30 386 H 30.9431 1.81606 -7.38189 0
M  V30 387 N 32.5182 1.22032 0.997298 0
M  V30 388 C 33.7662 1.04016 1.73278 0
M  V30 389 C 34.0872 -0.426255 1.90284 0
M  V30 390 O 33.3572 -1.30694 1.45931 0
M  V30 391 H 31.9372 0.381897 0.642 0
M  V30 392 H 34.5992 1.5347 1.20137 0
M  V30 393 H 33.6952 1.51441 2.72896 0
M  V30 394 N 33.9963 -1.19345 1.0293 0
M  V30 395 C 34.9063 -2.26245 0.620515 0
M  V30 396 C 35.9223 -1.70486 -0.347928 0
M  V30 397 O 37.0983 -2.00347 -0.205704 0
M  V30 398 C 34.1633 -3.46693 -0.0218957 0
M  V30 399 C 33.2243 -4.17632 0.994102 0
M  V30 400 C 32.4573 -5.32329 0.382253 0
M  V30 401 O 32.6803 -5.64552 -0.814676 0
M  V30 402 O 31.6143 -5.91664 1.10531 0
M  V30 403 H 35.4403 -2.63453 1.51083 0
M  V30 404 H 33.0253 -1.26207 0.799513 0
M  V30 405 H 34.9073 -4.19683 -0.380072 0
M  V30 406 H 33.5823 -3.11333 -0.886209 0
M  V30 407 H 32.4893 -3.4676 1.40387 0
M  V30 408 H 33.8223 -4.56964 1.8288 0
M  V30 409 N 35.4744 -0.807222 -1.35358 0
M  V30 410 C 36.4214 -0.216037 -2.29787 0
M  V30 411 C 37.3914 0.650278 -1.52842 0
M  V30 412 O 38.5764 0.595227 -1.81278 0
M  V30 413 C 35.7164 0.628893 -3.39321 0
M  V30 414 C 34.8294 -0.257927 -4.31229 0
M  V30 415 C 33.9644 0.595069 -5.27856 0
M  V30 416 C 33.0034 -0.292111 -6.11403 0
M  V30 417 N 32.1404 0.520895 -7.00165 0
M  V30 418 H 36.9804 -1.02671 -2.79755 0
M  V30 419 H 34.5174 -0.517839 -1.37684 0
M  V30 420 H 36.4754 1.13393 -4.01494 0
M  V30 421 H 35.1054 1.40482 -2.90628 0
M  V30 422 H 34.1574 -0.881076 -3.70056 0
M  V30 423 H 35.4694 -0.940759 -4.89848 0
M  V30 424 H 34.6234 1.16522 -5.95405 0
M  V30 425 H 33.3624 1.31146 -4.69736 0
M  V30 426 H 32.3674 -0.874525 -5.428 0
M  V30 427 H 33.5924 -1.00638 -6.71602 0
M  V30 428 H 31.5384 1.22125 -6.44532 0
M  V30 429 H 31.4554 -0.103877 -7.55929 0
M  V30 430 H 32.7234 1.0743 -7.72062 0
M  V30 431 N 36.9525 1.47285 -0.560781 0
M  V30 432 C 38.2015 2.01668 -0.035895 0
M  V30 433 C 38.5145 1.44021 1.32353 0
M  V30 434 O 39.7205 1.90088 1.93853 0
M  V30 435 C 38.1765 3.59897 -0.0136659 0
M  V30 436 C 37.7845 4.26536 -1.37006 0
M  V30 437 C 39.5285 4.22017 0.458425 0
M  V30 438 C 37.4355 5.76782 -1.30675 0
M  V30 439 H 36.3655 0.753938 -0.00964879 0
M  V30 440 H 39.0165 1.69243 -0.709166 0
M  V30 441 H 37.3985 3.89301 0.725325 0
M  V30 442 H 38.5725 4.0877 -2.12705 0
M  V30 443 H 36.8875 3.76419 -1.78038 0
M  V30 444 H 39.4845 5.32124 0.524247 0
M  V30 445 H 39.8275 3.89437 1.4712 0
M  V30 446 H 40.3605 3.97159 -0.225818 0
M  V30 447 H 37.0995 6.13988 -2.29564 0
M  V30 448 H 36.6195 5.96875 -0.591622 0
M  V30 449 H 38.2985 6.39063 -1.01033 0
M  V30 450 N 38.4306 0.297415 1.54768 0
M  V30 451 C 39.3406 -0.58983 2.27064 0
M  V30 452 C 40.3566 -1.15144 1.30453 0
M  V30 453 O 41.5326 -1.17699 1.63428 0
M  V30 454 C 38.5976 -1.74714 2.9946 0
M  V30 455 C 37.6586 -1.21997 4.11601 0
M  V30 456 C 36.8916 -2.32212 4.80535 0
M  V30 457 O 37.1146 -3.52036 4.48806 0
M  V30 458 O 36.0486 -1.99106 5.68014 0
M  V30 459 H 39.8746 -0.00348199 3.037 0
M  V30 460 H 37.4596 0.0640035 1.49263 0
M  V30 461 H 39.3416 -2.42147 3.44881 0
M  V30 462 H 38.0166 -2.32016 2.25722 0
M  V30 463 H 36.9236 -0.511458 3.70587 0
M  V30 464 H 38.2566 -0.692419 4.87305 0
M  V30 465 N 39.9087 -1.5758 0.0250728 0
M  V30 466 C 40.8567 -2.11125 -0.97617 0
M  V30 467 C 41.8507 -1.03689 -1.33959 0
M  V30 468 O 43.0567 -1.22128 -1.3223 0
M  V30 469 H 39.4317 -0.674468 -0.332561 0
M  V30 470 H 41.4027 -2.94194 -0.499223 0
M  V30 471 C 40.1517 -2.65017 -2.2508 0
M  V30 472 H 39.4747 -3.47333 -1.9799 0
M  V30 473 H 40.9147 -3.06133 -2.93357 0
M  V30 474 C 39.3737 -1.57574 -2.97779 0
M  V30 475 O 39.9037 -0.973203 -3.89733 0
M  V30 476 N 38.1097 -1.29716 -2.60043 0
M  V30 477 H 37.6567 -1.789 -1.85345 0
M  V30 478 H 37.6147 -0.58051 -3.08994 0
M  V30 479 N 41.3868 0.248026 -1.55636 0
M  V30 480 C 42.6328 0.973427 -1.78594 0
M  V30 481 C 42.9878 1.83007 -0.593823 0
M  V30 482 O 42.2808 1.87097 0.412961 0
M  V30 483 C 42.4748 1.86819 -3.04686 0
M  V30 484 C 42.3038 1.09965 -4.36048 0
M  V30 485 C 41.0738 0.805204 -4.98843 0
M  V30 486 C 43.2718 0.477783 -5.12076 0
M  V30 487 N 41.2538 0.0124859 -6.13899 0
M  V30 488 C 42.6248 -0.179565 -6.1974 0
M  V30 489 C 44.6798 0.388136 -4.96385 0
M  V30 490 C 43.3828 -0.91795 -7.13419 0
M  V30 491 C 45.4088 -0.336716 -5.90441 0
M  V30 492 C 44.7708 -0.982705 -6.97511 0
M  V30 493 H 40.8698 0.337348 -0.705493 0
M  V30 494 H 43.4538 0.24667 -1.93131 0
M  V30 495 H 41.6248 2.56698 -2.9148 0
M  V30 496 H 43.3568 2.52907 -3.15944 0
M  V30 497 H 40.1118 1.11671 -4.60246 0
M  V30 498 H 40.5358 -0.371933 -6.75978 0
M  V30 499 H 45.1778 0.873237 -4.13684 0
M  V30 500 H 42.8958 -1.41466 -7.95621 0
M  V30 501 H 46.4818 -0.406731 -5.80377 0
M  V30 502 H 45.3618 -1.53464 -7.69037 0
M  V30 503 N 42.8649 1.48995 0.513639 0
M  V30 504 C 44.1109 1.58076 1.27042 0
M  V30 505 C 44.4439 0.261026 1.92438 0
M  V30 506 O 43.7189 -0.734393 1.80103 0
M  V30 507 C 44.0019 2.73091 2.34719 0
M  V30 508 C 43.8549 4.14821 1.73907 0
M  V30 509 C 45.1739 2.83796 3.36375 0
M  V30 510 H 42.2929 0.575391 0.460536 0
M  V30 511 H 44.9349 1.81232 0.570516 0
M  V30 512 H 43.0849 2.53479 2.94416 0
M  V30 513 H 44.7569 4.45917 1.18135 0
M  V30 514 H 42.9999 4.21058 1.0437 0
M  V30 515 H 43.6709 4.91147 2.51949 0
M  V30 516 H 46.1469 3.01611 2.86653 0
M  V30 517 H 45.0229 3.65971 4.09093 0
M  V30 518 H 45.2839 1.92624 3.9793 0
M  V30 519 N 44.343 -0.763751 1.37857 0
M  V30 520 C 45.62 -1.51244 1.24035 0
M  V30 521 C 46 -2.10472 -0.162649 0
M  V30 522 O 45.348 -1.96206 -1.17112 0
M  V30 523 C 45.558 -2.58694 2.34261 0
M  V30 524 C 46.906 -3.25878 2.72193 0
M  V30 525 O 47.93 -2.68993 2.33497 0
M  V30 526 O 46.789 -4.2874 3.38887 0
M  V30 527 H 43.883 -0.670243 0.484462 0
M  V30 528 H 46.429 -0.800031 1.49658 0
M  V30 529 H 45.201 -2.13105 3.2818 0
M  V30 530 H 44.824 -3.37527 2.10146 0
M  V30 531 N 45.8211 -1.22559 -0.990812 0
M  V30 532 C 46.7711 -0.964807 -2.0658 0
M  V30 533 C 47.7551 0.0853472 -1.60673 0
M  V30 534 O 48.9471 -0.125443 -1.76555 0
M  V30 535 C 46.0761 -0.546707 -3.38919 0
M  V30 536 C 45.1621 -1.6317 -3.91454 0
M  V30 537 N 45.5531 -2.85985 -4.17189 0
M  V30 538 C 43.8511 -1.50387 -4.19881 0
M  V30 539 C 44.5521 -3.56159 -4.59919 0
M  V30 540 N 43.5281 -2.83637 -4.63736 0
M  V30 541 H 47.3301 -1.89769 -2.24421 0
M  V30 542 H 44.8441 -1.12343 -1.17273 0
M  V30 543 H 46.8411 -0.34119 -4.15502 0
M  V30 544 H 45.5011 0.379254 -3.22478 0
M  V30 545 H 46.5121 -3.22392 -4.05319 0
M  V30 546 H 43.1891 -0.644254 -4.12499 0
M  V30 547 H 44.5791 -4.6139 -4.88435 0
M  V30 548 N 47.2992 1.18797 -1.03562 0
M  V30 549 C 48.7102 1.70322 -0.764676 0
M  V30 550 C 49.0612 1.82708 0.714996 0
M  V30 551 O 48.1862 1.50299 1.55689 0
M  V30 552 C 48.7812 3.09356 -1.38145 0
M  V30 553 C 47.3402 3.58114 -1.15895 0
M  V30 554 C 46.4872 2.34798 -1.4753 0
M  V30 555 H 49.4382 1.03543 -1.20268 0
M  V30 556 H 49.4592 3.72378 -0.781977 0
M  V30 557 H 48.9712 3.00309 -2.45837 0
M  V30 558 H 47.0722 3.72464 -0.100544 0
M  V30 559 H 47.1852 4.4184 -1.8524 0
M  V30 560 H 45.5492 2.38464 -0.894829 0
M  V30 561 H 46.3322 2.28375 -2.56319 0
M  V30 562 N 48.7773 0.814389 1.34928 0
M  V30 563 C 49.7103 0.175641 2.27523 0
M  V30 564 C 50.6883 -0.662953 1.48471 0
M  V30 565 O 51.8723 -0.628545 1.77712 0
M  V30 566 C 48.9993 -0.755516 3.30166 0
M  V30 567 C 48.0453 0.00445305 4.265 0
M  V30 568 S 48.8783 1.34582 5.18313 0
M  V30 569 C 50.0343 0.419315 6.24494 0
M  V30 570 H 50.2673 0.960691 2.8135 0
M  V30 571 H 47.8003 0.609846 1.41846 0
M  V30 572 H 49.7583 -1.28723 3.89796 0
M  V30 573 H 48.4193 -1.51402 2.75202 0
M  V30 574 H 47.6123 -0.703077 4.99072 0
M  V30 575 H 47.2143 0.466447 3.7108 0
M  V30 576 H 49.5063 -0.392432 6.76362 0
M  V30 577 H 50.4493 1.11446 6.99275 0
M  V30 578 H 50.8573 0.0115389 5.64499 0
M  V30 579 N 50.2554 -1.46986 0.568584 0
M  V30 580 C 51.5044 -2.01646 0.0465894 0
M  V30 581 C 51.8174 -1.44721 -1.31587 0
M  V30 582 O 53.0234 -1.91113 -1.92842 0
M  V30 583 C 51.4794 -3.59885 0.032752 0
M  V30 584 C 51.0874 -4.25804 1.39266 0
M  V30 585 C 52.8314 -4.22255 -0.436038 0
M  V30 586 C 50.7384 -5.76081 1.33732 0
M  V30 587 H 49.6684 -0.753876 0.013647 0
M  V30 588 H 52.3194 -1.68864 0.718131 0
M  V30 589 H 50.7014 -3.8968 -0.704669 0
M  V30 590 H 51.8754 -4.07637 2.1487 0
M  V30 591 H 50.1904 -3.7547 1.80032 0
M  V30 592 H 52.7874 -5.32394 -0.49602 0
M  V30 593 H 53.1304 -3.90212 -1.45053 0
M  V30 594 H 53.6634 -3.97033 0.246877 0
M  V30 595 H 50.4024 -6.12761 2.32817 0
M  V30 596 H 49.9224 -5.96553 0.623267 0
M  V30 597 H 51.6014 -6.38518 1.0442 0
M  V30 598 N 51.7335 -0.305618 -1.54608 0
M  V30 599 C 53.1495 0.0476228 -1.59529 0
M  V30 600 C 53.3495 1.52025 -1.32252 0
M  V30 601 O 52.4055 2.27368 -1.09818 0
M  V30 602 C 53.7185 -0.354471 -2.98603 0
M  V30 603 C 55.2665 -0.303622 -3.11524 0
M  V30 604 C 55.7415 -0.680608 -4.52915 0
M  V30 605 N 57.2325 -0.63332 -4.5885 0
M  V30 606 C 57.9675 -0.897432 -5.66334 0
M  V30 607 N 57.4635 -1.22775 -6.81834 0
M  V30 608 N 59.2565 -0.824186 -5.56025 0
M  V30 609 H 51.4075 -1.2653 -1.70599 0
M  V30 610 H 53.6705 -0.513291 -0.797017 0
M  V30 611 H 53.3765 -1.3798 -3.23503 0
M  V30 612 H 53.2505 0.289568 -3.76087 0
M  V30 613 H 55.6375 0.712472 -2.8637 0
M  V30 614 H 55.7185 -0.982348 -2.36185 0
M  V30 615 H 55.3625 -1.69453 -4.78799 0
M  V30 616 H 55.2925 0.0202385 -5.26596 0
M  V30 617 H 57.7835 -0.389138 -3.75891 0
M  V30 618 H 58.0965 -1.41513 -7.59733 0
M  V30 619 H 56.4415 -1.26583 -6.83375 0
M  V30 620 H 59.6325 -0.565748 -4.64669 0
M  V30 621 H 59.8055 -1.03338 -6.39707 0
M  V30 622 N 53.2116 1.57565 -0.0334293 0
M  V30 623 C 54.6226 1.79746 0.504798 0
M  V30 624 C 54.9736 0.944091 1.71992 0
M  V30 625 O 54.0986 0.155694 2.15839 0
M  V30 626 C 54.6936 3.25997 0.922567 0
M  V30 627 C 53.2526 3.49159 1.40588 0
M  V30 628 C 52.3996 2.74785 0.372633 0
M  V30 629 H 55.3506 1.56565 -0.259436 0
M  V30 630 H 55.3716 3.35945 1.78666 0
M  V30 631 H 54.8836 3.88081 0.0379825 0
M  V30 632 H 52.9846 2.92332 2.31025 0
M  V30 633 H 53.0976 4.57873 1.41028 0
M  V30 634 H 51.4616 2.40391 0.841672 0
M  V30 635 H 52.2446 3.39587 -0.503559 0
M  V30 636 N 54.6897 -0.239769 1.55765 0
M  V30 637 C 55.9147 -0.988373 1.82335 0
M  V30 638 C 56.3397 -1.77886 0.611421 0
M  V30 639 O 55.6977 -1.75889 -0.439639 0
M  V30 640 C 55.7457 -1.89627 3.06715 0
M  V30 641 O 54.8497 -2.98904 2.84131 0
M  V30 642 H 54.1907 -0.280858 0.601677 0
M  V30 643 H 56.7207 -0.258597 2.02959 0
M  V30 644 H 56.7307 -2.30957 3.36338 0
M  V30 645 H 55.4057 -1.31511 3.9456 0
M  V30 646 H 53.9827 -2.61651 2.65694 0
M  V30 647 N 56.1678 -1.49265 -0.50573 0
M  V30 648 C 57.4168 -1.57761 -1.25675 0
M  V30 649 C 57.7298 -0.267371 -1.93764 0
M  V30 650 O 58.9358 -0.230827 -2.70517 0
M  V30 651 C 57.3918 -2.78332 -2.28165 0
M  V30 652 C 56.9998 -4.16096 -1.66037 0
M  V30 653 C 58.7438 -2.96155 -3.04125 0
M  V30 654 C 56.6508 -5.27895 -2.6661 0
M  V30 655 H 55.5808 -0.587391 -0.472745 0
M  V30 656 H 58.2318 -1.75644 -0.53118 0
M  V30 657 H 56.6138 -2.53934 -3.03865 0
M  V30 658 H 57.7878 -4.50612 -0.963622 0
M  V30 659 H 56.1028 -4.03591 -1.02484 0
M  V30 660 H 58.6998 -3.76849 -3.79327 0
M  V30 661 H 59.0428 -2.06534 -3.61455 0
M  V30 662 H 59.5758 -3.2057 -2.35541 0
M  V30 663 H 56.3148 -6.1956 -2.14068 0
M  V30 664 H 55.8348 -4.97839 -3.34539 0
M  V30 665 H 57.5138 -5.57031 -3.29129 0
M  V30 666 N 57.6459 0.756429 -1.3826 0
M  V30 667 C 58.5939 1.89149 -1.35372 0
M  V30 668 C 59.5879 1.67691 -0.24004 0
M  V30 669 O 60.7939 1.75294 -0.408919 0
M  V30 670 H 57.1689 0.622271 -0.422236 0
M  V30 671 H 59.1399 1.88701 -2.31159 0
M  V30 672 C 57.8889 3.26599 -1.19284 0
M  V30 673 H 57.2119 3.43695 -2.0424 0
M  V30 674 H 58.6519 4.06274 -1.21316 0
M  V30 675 C 57.1109 3.3675 0.100454 0
M  V30 676 O 57.6409 3.86951 1.07851 0
M  V30 677 N 55.8469 2.90179 0.15633 0
M  V30 678 H 55.3939 2.49517 -0.640253 0
M  V30 679 H 55.3519 2.97352 1.02123 0
M  V30 680 N 59.124 1.23083 0.984299 0
M  V30 681 C 60.364 1.07226 1.74017 0
M  V30 682 C 60.728 -0.384766 1.88105 0
M  V30 683 O 61.929 -0.664411 2.60459 0
M  V30 684 C 60.2 1.77348 3.10294 0
M  V30 685 S 61.759 1.77014 4.01512 0
M  V30 686 H 58.577 0.383819 0.598502 0
M  V30 687 H 61.179 1.56158 1.17622 0
M  V30 688 H 59.883 2.82506 2.97689 0
M  V30 689 H 59.414 1.28682 3.71759 0
M  V30 690 H 61.429 0.825956 4.89277 0
M  V30 691 N 60.6021 -1.18246 1.0419 0
M  V30 692 C 61.8481 -1.88536 0.747122 0
M  V30 693 C 62.1811 -1.80223 -0.723409 0
M  V30 694 O 61.4561 -1.20337 -1.52804 0
M  V30 695 C 61.7391 -3.38968 1.21544 0
M  V30 696 C 61.5921 -3.56084 2.74816 0
M  V30 697 C 62.9111 -4.32648 0.806482 0
M  V30 698 H 60.0301 -0.684619 0.272883 0
M  V30 699 H 62.6721 -1.39113 1.29413 0
M  V30 700 H 60.8221 -3.8119 0.750081 0
M  V30 701 H 62.4941 -3.22946 3.29399 0
M  V30 702 H 60.7371 -2.98699 3.14582 0
M  V30 703 H 61.4081 -4.61639 3.02644 0
M  V30 704 H 63.8841 -3.98211 1.20695 0
M  V30 705 H 62.7601 -5.36462 1.1619 0
M  V30 706 H 63.0211 -4.41146 -0.29029 0
M  V30 707 N 62.0802 -0.821533 -1.34494 0
M  V30 708 C 63.0432 -0.247847 -2.27856 0
M  V30 709 C 64.0432 0.573453 -1.50227 0
M  V30 710 O 65.2332 0.389759 -1.69784 0
M  V30 711 C 62.3652 0.652698 -3.34593 0
M  V30 712 H 63.5582 -1.07146 -2.80107 0
M  V30 713 H 61.1112 -0.593291 -1.44602 0
M  V30 714 H 61.8462 1.49943 -2.87555 0
M  V30 715 H 61.6312 0.065292 -3.92046 0
M  V30 716 H 63.1212 1.04793 -4.04238 0
M  V30 717 N 63.5583 1.46682 -0.576371 0
M  V30 718 C 64.4913 2.27243 0.208731 0
M  V30 719 C 65.4693 1.35238 0.902746 0
M  V30 720 O 66.6533 1.64641 0.917904 0
M  V30 721 C 63.7803 3.12802 1.29896 0
M  V30 722 C 62.8263 4.20524 0.711457 0
M  V30 723 S 63.6593 5.33548 -0.456781 0
M  V30 724 C 64.8153 6.22673 0.634798 0
M  V30 725 H 65.0483 2.93484 -0.474838 0
M  V30 726 H 62.5813 1.50069 -0.363118 0
M  V30 727 H 64.5393 3.62661 1.92321 0
M  V30 728 H 63.2003 2.45887 1.95444 0
M  V30 729 H 62.3933 4.80191 1.53076 0
M  V30 730 H 61.9953 3.73645 0.162999 0
M  V30 731 H 64.2873 6.60181 1.52209 0
M  V30 732 H 65.2303 7.0806 0.0750311 0
M  V30 733 H 65.6383 5.56684 0.936092 0
M  V30 734 N 65.0364 0.313813 1.54444 0
M  V30 735 C 66.2644 -0.293918 2.04802 0
M  V30 736 C 66.6794 -1.46537 1.19047 0
M  V30 737 O 66.0364 -1.81182 0.218939 0
M  V30 738 C 66.0874 -0.737806 3.53891 0
M  V30 739 O 65.8084 0.387038 4.36387 0
M  V30 740 C 67.3094 -1.40936 4.203 0
M  V30 741 H 64.5294 -0.0620057 0.668129 0
M  V30 742 H 67.0734 0.457169 1.99324 0
M  V30 743 H 65.2284 -1.43889 3.59687 0
M  V30 744 H 65.6424 0.0391274 5.24485 0
M  V30 745 H 67.1164 -1.67099 5.26101 0
M  V30 746 H 67.5934 -2.35355 3.70816 0
M  V30 747 H 68.1994 -0.751117 4.18615 0
M  V30 748 N 66.5145 -1.57545 0.0417849 0
M  V30 749 C 67.7445 -1.96339 -0.642995 0
M  V30 750 C 68.1525 -0.917536 -1.65463 0
M  V30 751 O 67.4955 0.107747 -1.83384 0
M  V30 752 C 67.5575 -3.31333 -1.39494 0
M  V30 753 C 67.2215 -4.53796 -0.540204 0
M  V30 754 C 68.2185 -5.19553 0.189806 0
M  V30 755 C 65.9035 -5.0006 -0.473886 0
M  V30 756 C 67.8975 -6.29904 0.974674 0
M  V30 757 C 65.5845 -6.10289 0.314677 0
M  V30 758 C 66.5825 -6.75072 1.03765 0
M  V30 759 O 66.2705 -7.83183 1.81327 0
M  V30 760 H 66.0025 -0.651241 -0.181277 0
M  V30 761 H 68.5565 -2.05148 0.101665 0
M  V30 762 H 66.7865 -3.19052 -2.18502 0
M  V30 763 H 68.4755 -3.54942 -1.96904 0
M  V30 764 H 69.2415 -4.84774 0.147981 0
M  V30 765 H 65.1205 -4.49433 -1.0262 0
M  V30 766 H 68.6645 -6.80401 1.5395 0
M  V30 767 H 64.5615 -6.44506 0.358174 0
M  V30 768 H 65.3295 -7.99913 1.73438 0
M  V30 769 N 67.9926 0.231505 -1.5589 0
M  V30 770 C 68.9026 1.308 -1.94752 0
M  V30 771 C 69.9186 1.51826 -0.849989 0
M  V30 772 O 71.0946 1.6515 -1.15271 0
M  V30 773 C 68.1596 2.63968 -2.24771 0
M  V30 774 C 67.2206 2.51331 -3.48039 0
M  V30 775 C 66.4536 3.78148 -3.76616 0
M  V30 776 O 66.6766 4.80722 -3.07022 0
M  V30 777 O 65.6106 3.75857 -4.70123 0
M  V30 778 H 69.4366 1.0083 -2.86474 0
M  V30 779 H 67.0216 0.433547 -1.42971 0
M  V30 780 H 68.9036 3.42633 -2.45318 0
M  V30 781 H 67.5786 2.9364 -1.36225 0
M  V30 782 H 66.4856 1.709 -3.32782 0
M  V30 783 H 67.8186 2.26601 -4.36936 0
M  V30 784 N 69.4707 1.49531 0.497807 0
M  V30 785 C 70.4007 1.6935 1.60757 0
M  V30 786 C 71.3817 0.542218 1.61227 0
M  V30 787 O 72.5667 0.778417 1.77917 0
M  V30 788 C 69.6967 1.76298 2.99226 0
M  V30 789 C 68.6507 2.91248 3.13622 0
M  V30 790 C 67.9767 2.83312 4.53474 0
M  V30 791 C 69.2767 4.3214 2.93346 0
M  V30 792 H 70.9707 2.62263 1.44425 0
M  V30 793 H 68.5167 1.26208 0.693367 0
M  V30 794 H 70.4697 1.88749 3.76765 0
M  V30 795 H 69.1937 0.799871 3.16654 0
M  V30 796 H 67.8527 2.78404 2.38509 0
M  V30 797 H 67.5007 1.84902 4.67782 0
M  V30 798 H 67.2007 3.60465 4.64046 0
M  V30 799 H 68.7247 2.97775 5.33069 0
M  V30 800 H 70.1387 4.45649 3.60652 0
M  V30 801 H 68.5357 5.1054 3.15387 0
M  V30 802 H 69.6057 4.46363 1.89441 0
M  V30 803 N 70.9488 -0.749086 1.3866 0
M  V30 804 C 71.9118 -1.84457 1.36045 0
M  V30 805 C 72.9118 -1.58682 0.260122 0
M  V30 806 O 74.1018 -1.66343 0.517261 0
M  V30 807 C 71.2338 -3.22008 1.11911 0
M  V30 808 H 72.4268 -1.88182 2.33512 0
M  V30 809 H 69.9798 -0.951266 1.24019 0
M  V30 810 H 70.7148 -3.2395 0.150686 0
M  V30 811 H 70.4998 -3.42111 1.91579 0
M  V30 812 H 71.9898 -4.0208 1.12788 0
M  V30 813 N 72.4269 -1.23603 -0.977757 0
M  V30 814 C 73.3589 -0.977369 -2.07317 0
M  V30 815 C 74.3719 0.0495845 -1.62724 0
M  V30 816 O 75.5609 -0.186261 -1.77526 0
M  V30 817 C 72.6609 -0.451216 -3.35883 0
M  V30 818 C 71.8339 -1.53896 -4.09432 0
M  V30 819 C 70.8929 -1.01721 -5.16274 0
M  V30 820 O 69.9189 -1.70676 -5.43009 0
M  V30 821 N 71.1209 0.153594 -5.80297 0
M  V30 822 H 73.8859 -1.92047 -2.30082 0
M  V30 823 H 71.4469 -1.14497 -1.14465 0
M  V30 824 H 73.4389 -0.0871574 -4.04606 0
M  V30 825 H 72.0089 0.397368 -3.10064 0
M  V30 826 H 71.2289 -2.07566 -3.35127 0
M  V30 827 H 72.5169 -2.27037 -4.55337 0
M  V30 828 H 71.9149 0.730323 -5.60966 0
M  V30 829 H 70.4719 0.458892 -6.50183 0
M  V30 830 N 73.905 1.17692 -1.04816 0
M  V30 831 C 75.182 1.83768 -0.669963 0
M  V30 832 C 75.562 1.93232 0.849986 0
M  V30 833 O 74.91 1.46397 1.75443 0
M  V30 834 C 75.12 3.21641 -1.35455 0
M  V30 835 C 76.468 3.97592 -1.49017 0
M  V30 836 O 77.492 3.31107 -1.31326 0
M  V30 837 O 76.351 5.16729 -1.77914 0
M  V30 838 H 73.445 0.792799 -0.235368 0
M  V30 839 H 75.991 1.25021 -1.14751 0
M  V30 840 H 74.763 3.097 -2.39168 0
M  V30 841 H 74.386 3.88052 -0.866107 0
M  V30 842 N 75.3831 0.828654 1.34056 0
M  V30 843 C 76.7941 0.477534 1.8049 0
M  V30 844 C 77.1451 -1.00258 1.6865 0
M  V30 845 O 76.2701 -1.78057 1.22982 0
M  V30 846 C 76.8651 0.860018 3.27703 0
M  V30 847 C 75.4241 0.561185 3.72193 0
M  V30 848 C 74.5711 1.07385 2.55663 0
M  V30 849 H 77.5221 1.0183 1.21722 0
M  V30 850 H 77.5431 0.166038 3.80138 0
M  V30 851 H 77.0551 1.93731 3.36288 0
M  V30 852 H 75.1561 -0.506465 3.69142 0
M  V30 853 H 75.2691 1.10926 4.66082 0
M  V30 854 H 73.6331 0.495149 2.49841 0
M  V30 855 H 74.4161 2.15771 2.67016 0
M  V30 856 N 76.8612 -1.46375 0.584142 0
M  V30 857 C 77.7932 -2.28443 -0.186119 0
M  V30 858 C 78.8062 -1.38596 -0.854115 0
M  V30 859 O 79.9952 -1.63183 -0.723438 0
M  V30 860 C 77.0952 -3.13671 -1.28311 0
M  V30 861 C 76.2682 -4.31652 -0.706758 0
M  V30 862 C 75.3272 -4.98267 -1.69163 0
M  V30 863 O 74.3532 -5.55815 -1.22712 0
M  V30 864 N 75.5552 -4.95408 -3.02575 0
M  V30 865 H 78.3202 -2.9519 0.517986 0
M  V30 866 H 75.8812 -1.56303 0.42201 0
M  V30 867 H 77.8732 -3.55101 -1.94128 0
M  V30 868 H 76.4432 -2.48989 -1.89005 0
M  V30 869 H 75.6632 -3.93989 0.128908 0
M  V30 870 H 76.9512 -5.07906 -0.301506 0
M  V30 871 H 76.3492 -4.49902 -3.42936 0
M  V30 872 H 74.9062 -5.40774 -3.63877 0
M  V30 873 N 78.3393 -0.321999 -1.54275 0
M  V30 874 C 79.5693 0.282642 -2.04658 0
M  V30 875 C 79.9773 1.46453 -1.19784 0
M  V30 876 O 79.3203 1.82367 -0.220932 0
M  V30 877 C 79.3823 0.781857 -3.50895 0
M  V30 878 C 79.0463 -0.277517 -4.56157 0
M  V30 879 C 80.0433 -1.11307 -5.07845 0
M  V30 880 C 77.7283 -0.425256 -5.00497 0
M  V30 881 C 79.7223 -2.08211 -6.02434 0
M  V30 882 C 77.4093 -1.39771 -5.94901 0
M  V30 883 C 78.4073 -2.2246 -6.45756 0
M  V30 884 O 78.0953 -3.18054 -7.38307 0
M  V30 885 H 77.8273 0.0622636 -0.673126 0
M  V30 886 H 80.3813 -0.465792 -2.00049 0
M  V30 887 H 78.6113 1.58118 -3.52896 0
M  V30 888 H 80.3003 1.30467 -3.84361 0
M  V30 889 H 81.0663 -1.00991 -4.74369 0
M  V30 890 H 76.9453 0.20847 -4.60528 0
M  V30 891 H 80.4893 -2.72791 -6.42052 0
M  V30 892 H 76.3863 -1.50152 -6.27794 0
M  V30 893 H 77.1543 -3.13275 -7.56175 0
M  V30 894 N 79.8174 1.5752 -0.0501392 0
M  V30 895 C 80.7804 2.1037 0.909786 0
M  V30 896 C 81.7804 1.02308 1.24056 0
M  V30 897 O 82.9704 1.28385 1.17741 0
M  V30 898 C 80.1024 2.58708 2.21998 0
M  V30 899 H 81.2954 2.96479 0.451665 0
M  V30 900 H 78.8484 1.55038 0.198248 0
M  V30 901 H 79.5834 1.75989 2.72394 0
M  V30 902 H 79.3684 3.37675 1.99295 0
M  V30 903 H 80.8584 2.99747 2.9076 0
M  V30 904 N 81.2955 -0.223234 1.56011 0
M  V30 905 C 82.5725 -0.972108 1.69733 0
M  V30 906 C 82.9525 -2.02485 0.59691 0
M  V30 907 O 82.3005 -2.25037 -0.396324 0
M  V30 908 C 82.5105 -1.58407 3.10979 0
M  V30 909 C 83.8585 -2.07696 3.70334 0
M  V30 910 O 84.8825 -1.68304 3.1393 0
M  V30 911 O 83.7415 -2.80096 4.69264 0
M  V30 912 H 80.8355 -0.453993 0.691245 0
M  V30 913 H 83.3815 -0.215149 1.68331 0
M  V30 914 H 82.1535 -0.823831 3.82529 0
M  V30 915 H 81.7765 -2.40661 3.16493 0
M  V30 916 N 82.7736 -1.49793 -0.48987 0
M  V30 917 C 83.7036 -1.70201 -1.59856 0
M  V30 918 C 84.6846 -0.55076 -1.60937 0
M  V30 919 O 85.8696 -0.787841 -1.77501 0
M  V30 920 C 82.9996 -1.77882 -2.98287 0
M  V30 921 C 81.9536 -2.92907 -3.12073 0
M  V30 922 C 81.2796 -2.85712 -4.51965 0
M  V30 923 C 82.5796 -4.3369 -2.91051 0
M  V30 924 H 84.2736 -2.63025 -1.43032 0
M  V30 925 H 81.8196 -1.26574 -0.686664 0
M  V30 926 H 83.7726 -1.90744 -3.75759 0
M  V30 927 H 82.4966 -0.816653 -3.16225 0
M  V30 928 H 81.1556 -2.79665 -2.37029 0
M  V30 929 H 80.8036 -1.8738 -4.66795 0
M  V30 930 H 80.5036 -3.62921 -4.62128 0
M  V30 931 H 82.0276 -3.00598 -5.31482 0
M  V30 932 H 83.4416 -4.47555 -3.58284 0
M  V30 933 H 81.8386 -5.12205 -3.12675 0
M  V30 934 H 82.9086 -4.47362 -1.87071 0
M  V30 935 N 84.2517 0.741722 -1.39055 0
M  V30 936 C 85.1847 1.86416 -1.31622 0
M  V30 937 C 86.1627 1.61473 -0.191076 0
M  V30 938 O 87.3467 1.84825 -0.370399 0
M  V30 939 C 84.4737 3.22266 -1.04221 0
M  V30 940 C 83.5197 3.66079 -2.18834 0
M  V30 941 S 84.3527 3.7623 -3.81066 0
M  V30 942 C 85.5087 5.14881 -3.55877 0
M  V30 943 H 85.7417 1.92437 -2.26617 0
M  V30 944 H 83.2747 0.905907 -1.25031 0
M  V30 945 H 85.2327 4.00714 -0.890964 0
M  V30 946 H 83.8937 3.1391 -0.109237 0
M  V30 947 H 83.0867 4.64648 -1.95238 0
M  V30 948 H 82.6887 2.94817 -2.30128 0
M  V30 949 H 84.9807 6.01006 -3.12726 0
M  V30 950 H 85.9237 5.43503 -4.53884 0
M  V30 951 H 86.3317 4.84239 -2.90126 0
M  V30 952 N 85.7298 1.2412 0.971189 0
M  V30 953 C 86.9578 1.10575 1.74874 0
M  V30 954 C 87.3728 -0.342017 1.85676 0
M  V30 955 O 86.7298 -1.23617 1.34258 0
M  V30 956 C 86.7808 1.73579 3.171 0
M  V30 957 O 86.5018 3.12695 3.06844 0
M  V30 958 C 88.0028 1.65598 4.11208 0
M  V30 959 H 85.2228 0.386504 0.548503 0
M  V30 960 H 87.7668 1.64156 1.21955 0
M  V30 961 H 85.9218 1.24009 3.67016 0
M  V30 962 H 86.3358 3.43412 3.96445 0
M  V30 963 H 87.8098 2.1437 5.08674 0
M  V30 964 H 88.2868 0.616532 4.34851 0
M  V30 965 H 88.8928 2.14578 3.67201 0
M  V30 966 N 87.2079 -1.17134 1.05439 0
M  V30 967 C 88.4359 -1.91372 0.786414 0
M  V30 968 C 88.8509 -1.76955 -0.658202 0
M  V30 969 O 88.2079 -1.10838 -1.44987 0
M  V30 970 C 88.2589 -3.42356 1.1608 0
M  V30 971 O 87.9799 -3.56332 2.54871 0
M  V30 972 C 89.4809 -4.33663 0.919322 0
M  V30 973 H 86.7009 -0.607118 0.285743 0
M  V30 974 H 89.2449 -1.48525 1.40572 0
M  V30 975 H 87.3999 -3.82939 0.586191 0
M  V30 976 H 87.8139 -4.49896 2.69618 0
M  V30 977 H 89.2879 -5.38099 1.231 0
M  V30 978 H 89.7649 -4.38959 -0.145359 0
M  V30 979 H 90.3709 -3.98796 1.47789 0
M  V30 980 N 88.686 -0.835752 -1.33615 0
M  V30 981 C 89.633 -0.26473 -2.29277 0
M  V30 982 C 90.603 0.617712 -1.54187 0
M  V30 983 O 91.788 0.556641 -1.825 0
M  V30 984 C 88.928 0.556777 -3.40579 0
M  V30 985 C 88.041 -0.349339 -4.30585 0
M  V30 986 C 87.176 0.482969 -5.29 0
M  V30 987 C 86.215 -0.421732 -6.10645 0
M  V30 988 N 85.352 0.372262 -7.01112 0
M  V30 989 H 90.192 -1.08582 -2.77514 0
M  V30 990 H 87.729 -0.546927 -1.36554 0
M  V30 991 H 89.687 1.04852 -4.03809 0
M  V30 992 H 88.317 1.34286 -2.93542 0
M  V30 993 H 87.369 -0.959372 -3.68104 0
M  V30 994 H 88.681 -1.04445 -4.87742 0
M  V30 995 H 87.835 1.03866 -5.97743 0
M  V30 996 H 86.574 1.21153 -4.72412 0
M  V30 997 H 85.579 -0.989464 -5.40823 0
M  V30 998 H 86.804 -1.14861 -6.69316 0
M  V30 999 H 84.75 1.08426 -6.46977 0
M  V30 1000 H 84.667 -0.264198 -7.55538 0
M  V30 1001 H 85.935 0.910293 -7.74167 0
M  V30 1002 N 90.1641 1.46063 -0.591896 0
M  V30 1003 C 91.3891 2.07226 -0.0850314 0
M  V30 1004 C 91.8141 1.43625 1.21463 0
M  V30 1005 O 91.1721 0.523305 1.73583 0
M  V30 1006 C 91.2201 3.60554 0.0576567 0
M  V30 1007 O 90.3241 3.97128 1.11188 0
M  V30 1008 H 89.6651 0.660615 -0.0669568 0
M  V30 1009 H 92.1951 1.8756 -0.81745 0
M  V30 1010 H 92.2051 4.07165 0.2609 0
M  V30 1011 H 90.8801 4.06235 -0.891416 0
M  V30 1012 H 89.4571 3.62213 0.886356 0
M  V30 1013 N 91.6422 0.330177 1.54103 0
M  V30 1014 C 92.5902 -0.548226 2.26047 0
M  V30 1015 C 93.5842 -1.11309 1.27698 0
M  V30 1016 O 94.7902 -1.06036 1.45452 0
M  V30 1017 H 91.1652 -0.195456 0.726155 0
M  V30 1018 H 93.1362 0.0807567 2.98291 0
M  V30 1019 C 91.8852 -1.69415 3.03634 0
M  V30 1020 H 91.2082 -1.26876 3.79134 0
M  V30 1021 H 92.6482 -2.28423 3.5721 0
M  V30 1022 C 91.1072 -2.61569 2.12328 0
M  V30 1023 O 91.6372 -3.63462 1.7105 0
M  V30 1024 N 89.8432 -2.29952 1.77681 0
M  V30 1025 H 89.3902 -1.47134 2.11446 0
M  V30 1026 H 89.3482 -2.91871 1.16869 0
M  V30 1027 N 93.1203 -1.57491 0.0584922 0
M  V30 1028 C 94.0503 -2.14988 -0.911178 0
M  V30 1029 C 95.0313 -1.07343 -1.31952 0
M  V30 1030 O 96.2163 -1.35318 -1.39294 0
M  V30 1031 C 93.3463 -2.70078 -2.18347 0
M  V30 1032 C 92.3003 -3.82771 -1.91495 0
M  V30 1033 C 91.6263 -4.24408 -3.25241 0
M  V30 1034 C 92.9263 -5.07592 -1.23075 0
M  V30 1035 H 94.6203 -2.96263 -0.432246 0
M  V30 1036 H 92.1663 -1.42512 -0.206469 0
M  V30 1037 H 94.1193 -3.08943 -2.86587 0
M  V30 1038 H 92.8433 -1.86005 -2.68458 0
M  V30 1039 H 91.5023 -3.44389 -1.25664 0
M  V30 1040 H 91.1503 -3.37275 -3.73168 0
M  V30 1041 H 90.8503 -5.00366 -3.08071 0
M  V30 1042 H 92.3743 -4.65879 -3.94701 0
M  V30 1043 H 93.7883 -5.43857 -1.81362 0
M  V30 1044 H 92.1853 -5.88741 -1.16207 0
M  V30 1045 H 93.2553 -4.84454 -0.207847 0
M  V30 1046 N 94.5984 0.214957 -1.56127 0
M  V30 1047 C 95.8474 0.936451 -1.78643 0
M  V30 1048 C 96.1604 1.85237 -0.628229 0
M  V30 1049 O 97.3664 2.613 -0.737186 0
M  V30 1050 C 95.8224 1.7154 -3.16389 0
M  V30 1051 C 95.4304 0.845299 -4.39953 0
M  V30 1052 C 97.1744 2.42772 -3.48227 0
M  V30 1053 C 95.0814 1.62198 -5.68723 0
M  V30 1054 H 94.0114 0.353401 -0.666051 0
M  V30 1055 H 96.6624 0.190169 -1.82512 0
M  V30 1056 H 95.0444 2.50484 -3.06715 0
M  V30 1057 H 96.2184 0.0959353 -4.607 0
M  V30 1058 H 94.5334 0.244789 -4.1568 0
M  V30 1059 H 97.1304 3.01394 -4.41663 0
M  V30 1060 H 97.4734 3.15984 -2.71035 0
M  V30 1061 H 98.0064 1.70813 -3.5926 0
M  V30 1062 H 94.7454 0.933011 -6.48826 0
M  V30 1063 H 94.2654 2.34579 -5.52026 0
M  V30 1064 H 95.9444 2.18095 -6.09133 0
M  V30 1065 N 96.0765 1.50051 0.48192 0
M  V30 1066 C 97.3245 1.60181 1.23234 0
M  V30 1067 C 97.6455 0.299176 1.92691 0
M  V30 1068 O 96.9155 -0.682708 1.83619 0
M  V30 1069 H 95.4955 0.590232 0.457859 0
M  V30 1070 H 98.1575 1.86775 0.556881 0
M  V30 1071 H 97.2535 2.40753 1.98607 0
M  V30 1072 N 97.5546 -0.734337 1.39446 0
M  V30 1073 C 98.5016 -1.84835 1.38219 0
M  V30 1074 C 99.4716 -1.64331 0.24179 0
M  V30 1075 O 100.657 -1.85728 0.437002 0
M  V30 1076 C 97.7966 -3.22355 1.23212 0
M  V30 1077 C 96.9096 -3.5456 2.46801 0
M  V30 1078 C 96.0446 -4.81485 2.24377 0
M  V30 1079 C 95.0836 -5.06536 3.43639 0
M  V30 1080 N 94.2206 -6.24665 3.20528 0
M  V30 1081 H 99.0606 -1.85219 2.33448 0
M  V30 1082 H 96.5976 -0.905039 1.15963 0
M  V30 1083 H 98.5556 -4.0174 1.12522 0
M  V30 1084 H 97.1856 -3.21248 0.316121 0
M  V30 1085 H 96.2376 -2.69872 2.68092 0
M  V30 1086 H 97.5496 -3.6899 3.3563 0
M  V30 1087 H 96.7036 -5.68852 2.10933 0
M  V30 1088 H 95.4426 -4.6923 1.32944 0
M  V30 1089 H 94.4476 -4.17632 3.5758 0
M  V30 1090 H 95.6726 -5.20676 4.35974 0
M  V30 1091 H 93.6186 -6.13696 2.3176 0
M  V30 1092 H 93.5356 -6.39685 4.02913 0
M  V30 1093 H 94.8036 -7.14868 3.10779 0
M  V30 1094 N 99.0327 -1.24633 -0.964593 0
M  V30 1095 C 100.261 -1.11501 -1.74285 0
M  V30 1096 C 100.676 0.332165 -1.85855 0
M  V30 1097 O 100.033 1.22903 -1.34911 0
M  V30 1098 C 100.084 -1.75258 -3.16175 0
M  V30 1099 O 99.8047 -3.14318 -3.05182 0
M  V30 1100 C 101.306 -1.67776 -4.10324 0
M  V30 1101 H 98.5257 -0.389407 -0.546446 0
M  V30 1102 H 101.07 -1.64801 -1.21083 0
M  V30 1103 H 99.2247 -1.25954 -3.66353 0
M  V30 1104 H 99.6387 -3.4551 -3.94618 0
M  V30 1105 H 101.113 -2.17064 -5.0753 0
M  V30 1106 H 101.59 -0.639584 -4.34518 0
M  V30 1107 H 102.196 -2.16522 -3.66058 0
M  V30 1108 N 100.511 1.16574 -1.06058 0
M  V30 1109 C 101.76 1.86385 -0.770944 0
M  V30 1110 C 102.073 1.82448 0.705129 0
M  V30 1111 O 103.279 2.47815 1.10905 0
M  V30 1112 C 101.735 3.34466 -1.32893 0
M  V30 1113 C 101.343 3.46883 -2.83507 0
M  V30 1114 C 103.087 4.09548 -1.11672 0
M  V30 1115 C 100.994 4.89036 -3.32562 0
M  V30 1116 H 99.9238 0.698181 -0.284709 0
M  V30 1117 H 102.575 1.31583 -1.27899 0
M  V30 1118 H 100.957 3.88859 -0.748662 0
M  V30 1119 H 102.131 3.02663 -3.47465 0
M  V30 1120 H 100.446 2.85232 -3.03368 0
M  V30 1121 H 103.043 5.14434 -1.45814 0
M  V30 1122 H 103.386 4.16264 -0.0549535 0
M  V30 1123 H 103.919 3.61387 -1.66265 0
M  V30 1124 H 100.658 4.87499 -4.38207 0
M  V30 1125 H 100.178 5.3389 -2.73351 0
M  V30 1126 H 101.857 5.57843 -3.2775 0
M  V30 1127 N 101.989 0.842826 1.3317 0
M  V30 1128 C 102.937 0.267495 2.31057 0
M  V30 1129 C 103.931 -0.602682 1.58316 0
M  V30 1130 O 105.137 -0.491803 1.73151 0
M  V30 1131 H 101.512 0.0677813 0.748939 0
M  V30 1132 H 103.483 1.10754 2.77085 0
M  V30 1133 C 102.232 -0.539331 3.43492 0
M  V30 1134 H 101.555 0.12095 3.99617 0
M  V30 1135 H 102.995 -0.90767 4.14171 0
M  V30 1136 C 101.454 -1.71981 2.89697 0
M  V30 1137 O 101.984 -2.81862 2.86211 0
M  V30 1138 N 100.19 -1.54299 2.46252 0
M  V30 1139 H 99.7369 -0.649143 2.49287 0
M  V30 1140 H 99.6949 -2.33431 2.10612 0
M  V30 1141 N 103.467 -1.45747 0.599634 0
M  V30 1142 C 104.883 -1.57424 0.26264 0
M  V30 1143 C 105.083 -1.59222 -1.23493 0
M  V30 1144 O 104.139 -1.51825 -2.01756 0
M  V30 1145 C 105.452 -2.86061 0.926795 0
M  V30 1146 C 107 -2.99722 0.901967 0
M  V30 1147 C 107.475 -4.31119 1.54598 0
M  V30 1148 N 108.966 -4.37858 1.5111 0
M  V30 1149 C 109.701 -5.3818 1.97863 0
M  V30 1150 N 109.197 -6.45083 2.52666 0
M  V30 1151 N 110.99 -5.29487 1.88679 0
M  V30 1152 H 103.141 -1.42823 1.57211 0
M  V30 1153 H 105.404 -0.68235 0.658105 0
M  V30 1154 H 105.11 -2.90605 1.98095 0
M  V30 1155 H 104.984 -3.74563 0.445238 0
M  V30 1156 H 107.371 -2.9475 -0.143617 0
M  V30 1157 H 107.452 -2.12652 1.42171 0
M  V30 1158 H 107.096 -4.36849 2.59085 0
M  V30 1159 H 107.026 -5.16992 1.00132 0
M  V30 1160 H 109.517 -3.61209 1.11068 0
M  V30 1161 H 109.83 -7.17869 2.86155 0
M  V30 1162 H 108.175 -6.45856 2.56701 0
M  V30 1163 H 111.366 -4.44877 1.4561 0
M  V30 1164 H 111.539 -6.07524 2.25429 0
M  V30 1165 N 104.945 -0.338344 -1.53925 0
M  V30 1166 C 106.192 0.259758 -2.00827 0
M  V30 1167 C 106.52 1.50973 -1.22628 0
M  V30 1168 O 105.775 1.93379 -0.300509 0
M  V30 1169 C 106.074 0.62448 -3.51902 0
M  V30 1170 C 105.74 -0.528006 -4.47798 0
M  V30 1171 C 104.402 -0.844298 -4.73735 0
M  V30 1172 C 106.754 -1.30143 -5.0469 0
M  V30 1173 C 104.082 -1.93648 -5.53821 0
M  V30 1174 C 106.434 -2.38382 -5.85967 0
M  V30 1175 C 105.098 -2.70576 -6.10201 0
M  V30 1176 H 104.368 0.0950523 -0.734878 0
M  V30 1177 H 107.015 -0.465182 -1.85764 0
M  V30 1178 H 105.32 1.43006 -3.64769 0
M  V30 1179 H 107.017 1.09905 -3.85645 0
M  V30 1180 H 103.607 -0.271421 -4.2774 0
M  V30 1181 H 107.791 -1.07033 -4.84621 0
M  V30 1182 H 103.047 -2.19021 -5.70824 0
M  V30 1183 H 107.221 -2.98746 -6.29066 0
M  V30 1184 H 104.848 -3.55333 -6.72044 0
M  V30 1185 N 106.423 1.57458 -0.0668435 0
M  V30 1186 C 107.386 2.11323 0.887422 0
M  V30 1187 C 108.386 1.03618 1.22964 0
M  V30 1188 O 109.576 1.29626 1.16373 0
M  V30 1189 C 106.708 2.61048 2.19242 0
M  V30 1190 H 107.901 2.96942 0.420194 0
M  V30 1191 H 105.454 1.55239 0.181793 0
M  V30 1192 H 106.189 1.78868 2.70512 0
M  V30 1193 H 105.974 3.39769 1.95702 0
M  V30 1194 H 107.464 3.02814 2.87565 0
M  V30 1195 N 107.901 -0.206675 1.56239 0
M  V30 1196 C 108.849 -1.27571 1.94495 0
M  V30 1197 C 109.843 -1.47737 0.828862 0
M  V30 1198 O 111.049 -1.48735 1.0138 0
M  V30 1199 H 107.424 -0.428029 0.6183 0
M  V30 1200 H 109.395 -0.925961 2.8367 0
M  V30 1201 C 108.144 -2.61568 2.29079 0
M  V30 1202 H 107.467 -2.46863 3.14482 0
M  V30 1203 H 108.907 -3.35144 2.5972 0
M  V30 1204 C 107.366 -3.17695 1.12123 0
M  V30 1205 O 107.896 -3.99801 0.390153 0
M  V30 1206 N 106.102 -2.76276 0.901097 0
M  V30 1207 H 105.649 -2.09613 1.49733 0
M  V30 1208 H 105.607 -3.1417 0.120319 0
M  V30 1209 N 109.379 -1.50304 -0.473955 0
M  V30 1210 C 110.309 -1.71886 -1.58042 0
M  V30 1211 C 111.29 -0.567799 -1.60344 0
M  V30 1212 O 112.475 -0.806623 -1.76656 0
M  V30 1213 C 109.605 -1.81036 -2.96384 0
M  V30 1214 C 108.559 -2.962 -3.08949 0
M  V30 1215 C 107.885 -2.9049 -4.48909 0
M  V30 1216 C 109.185 -4.36752 -2.86434 0
M  V30 1217 H 110.879 -2.64527 -1.40234 0
M  V30 1218 H 108.425 -1.27295 -0.673201 0
M  V30 1219 H 110.378 -1.94719 -3.73714 0
M  V30 1220 H 109.102 -0.850147 -3.15341 0
M  V30 1221 H 107.761 -2.82164 -2.3405 0
M  V30 1222 H 107.409 -1.92321 -4.64781 0
M  V30 1223 H 107.109 -3.67802 -4.58253 0
M  V30 1224 H 108.633 -3.06218 -5.28264 0
M  V30 1225 H 110.047 -4.5133 -3.53517 0
M  V30 1226 H 108.444 -5.15493 -3.07225 0
M  V30 1227 H 109.514 -4.49321 -1.82316 0
M  V30 1228 N 110.857 0.726932 -1.39834 0
M  V30 1229 C 111.807 1.83232 -1.35683 0
M  V30 1230 C 112.791 1.59155 -0.236295 0
M  V30 1231 O 113.983 1.70522 -0.474488 0
M  V30 1232 C 111.112 3.21246 -1.21062 0
M  V30 1233 C 110.198 3.51125 -2.37849 0
M  V30 1234 N 110.589 3.51889 -3.63329 0
M  V30 1235 C 108.887 3.81527 -2.30982 0
M  V30 1236 C 109.588 3.79791 -4.40606 0
M  V30 1237 N 108.564 3.97971 -3.70297 0
M  V30 1238 H 112.366 1.8214 -2.30656 0
M  V30 1239 H 109.88 0.925545 -1.33444 0
M  V30 1240 H 111.877 4.00387 -1.16171 0
M  V30 1241 H 110.537 3.23572 -0.270458 0
M  V30 1242 H 111.548 3.33008 -3.96643 0
M  V30 1243 H 108.225 3.91411 -1.45272 0
M  V30 1244 H 109.615 3.86783 -5.49408 0
M  V30 1245 N 112.336 1.25143 0.95797 0
M  V30 1246 C 113.268 1.01023 2.05735 0
M  V30 1247 C 114.281 -0.0236902 1.62783 0
M  V30 1248 O 115.47 0.21448 1.77207 0
M  V30 1249 C 112.57 0.504595 3.35122 0
M  V30 1250 C 111.743 1.6039 4.06932 0
M  V30 1251 C 110.802 1.09922 5.14591 0
M  V30 1252 O 109.828 1.79293 5.40225 0
M  V30 1253 N 111.03 -0.0612545 5.80468 0
M  V30 1254 H 113.795 1.95683 2.26998 0
M  V30 1255 H 111.356 1.16303 1.12629 0
M  V30 1256 H 113.348 0.151516 4.04416 0
M  V30 1257 H 111.918 -0.347989 3.10657 0
M  V30 1258 H 111.138 2.12872 3.31782 0
M  V30 1259 H 112.426 2.34252 4.51667 0
M  V30 1260 H 111.824 -0.640985 5.62057 0
M  V30 1261 H 110.381 -0.355395 6.5083 0
M  V30 1262 N 113.814 -1.1601 1.06675 0
M  V30 1263 C 115.039 -1.91068 0.806706 0
M  V30 1264 C 115.464 -1.77112 -0.633485 0
M  V30 1265 O 114.822 -1.09908 -1.44187 0
M  V30 1266 C 114.87 -3.39655 1.21106 0
M  V30 1267 O 113.974 -4.10893 0.352189 0
M  V30 1268 H 113.315 -0.595125 0.294486 0
M  V30 1269 H 115.845 -1.46955 1.42356 0
M  V30 1270 H 115.855 -3.90434 1.18428 0
M  V30 1271 H 114.53 -3.49132 2.26008 0
M  V30 1272 H 113.107 -3.70285 0.440868 0
M  V30 1273 N 115.292 -0.849877 -1.32721 0
M  V30 1274 C 116.52 -0.464754 -2.01613 0
M  V30 1275 C 116.935 0.937191 -1.63897 0
M  V30 1276 O 116.292 1.61081 -0.857856 0
M  V30 1277 C 116.343 -0.588638 -3.56675 0
M  V30 1278 O 116.064 -1.93535 -3.93034 0
M  V30 1279 C 117.565 -0.2019 -4.4284 0
M  V30 1280 H 114.785 -0.183215 -0.645502 0
M  V30 1281 H 117.329 -1.1455 -1.69407 0
M  V30 1282 H 115.484 0.0443159 -3.87375 0
M  V30 1283 H 115.898 -1.92871 -4.87751 0
M  V30 1284 H 117.372 -0.339599 -5.50954 0
M  V30 1285 H 117.849 0.857224 -4.30753 0
M  V30 1286 H 118.455 -0.809733 -4.17521 0
M  V30 1287 N 116.77 1.45427 -0.607355 0
M  V30 1288 C 118.047 1.9557 -0.0344566 0
M  V30 1289 C 118.427 1.54979 1.43334 0
M  V30 1290 O 117.775 0.812241 2.13576 0
M  V30 1291 C 117.985 3.48226 -0.232321 0
M  V30 1292 C 119.333 4.2445 -0.113001 0
M  V30 1293 O 120.357 3.55829 -0.162431 0
M  V30 1294 O 119.216 5.465 0.00209442 0
M  V30 1295 H 116.31 0.826222 0.0358667 0
M  V30 1296 H 118.856 1.55594 -0.6774 0
M  V30 1297 H 117.628 3.70739 -1.25174 0
M  V30 1298 H 117.251 3.95092 0.445896 0
M  V30 1299 N 118.248 0.346503 1.53744 0
M  V30 1300 C 119.525 -0.304532 1.93215 0
M  V30 1301 C 119.905 -1.67993 1.27834 0
M  V30 1302 O 119.253 -2.24411 0.430352 0
M  V30 1303 C 119.463 -0.373852 3.46992 0
M  V30 1304 C 120.811 -0.62329 4.2 0
M  V30 1305 O 121.835 -0.455847 3.53271 0
M  V30 1306 O 120.694 -0.947879 5.38217 0
M  V30 1307 H 117.788 -0.178318 0.807547 0
M  V30 1308 H 120.334 0.397895 1.64969 0
M  V30 1309 H 119.106 0.591224 3.86808 0
M  V30 1310 H 118.729 -1.12294 3.81413 0
M  V30 1311 N 119.726 -1.57421 0.075193 0
M  V30 1312 C 120.656 -2.15942 -0.888324 0
M  V30 1313 C 121.637 -1.08737 -1.30806 0
M  V30 1314 O 122.822 -1.36787 -1.37851 0
M  V30 1315 C 119.952 -2.72379 -2.1547 0
M  V30 1316 C 118.906 -3.8478 -1.87425 0
M  V30 1317 C 118.232 -4.27834 -3.20721 0
M  V30 1318 C 119.532 -5.08869 -1.17684 0
M  V30 1319 H 121.226 -2.96705 -0.400799 0
M  V30 1320 H 118.772 -1.42723 -0.191342 0
M  V30 1321 H 120.725 -3.11965 -2.83295 0
M  V30 1322 H 119.449 -1.88841 -2.6647 0
M  V30 1323 H 118.108 -3.45703 -1.22004 0
M  V30 1324 H 117.756 -3.41214 -3.6957 0
M  V30 1325 H 117.456 -5.03605 -3.02746 0
M  V30 1326 H 118.98 -4.70039 -3.89738 0
M  V30 1327 H 120.394 -5.4575 -1.75584 0
M  V30 1328 H 118.791 -5.8994 -1.09956 0
M  V30 1329 H 119.861 -4.84648 -0.156453 0
M  V30 1330 N 121.204 0.198386 -1.56346 0
M  V30 1331 C 122.62 0.549085 -1.49857 0
M  V30 1332 C 122.82 1.86016 -0.774611 0
M  V30 1333 O 121.876 2.50416 -0.323776 0
M  V30 1334 C 123.189 0.606868 -2.94512 0
M  V30 1335 C 124.737 0.695925 -3.05165 0
M  V30 1336 C 125.212 0.784848 -4.51225 0
M  V30 1337 N 126.703 0.848463 -4.55363 0
M  V30 1338 C 127.438 0.937378 -5.65686 0
M  V30 1339 N 126.934 0.9888 -6.85707 0
M  V30 1340 N 128.727 0.974312 -5.53592 0
M  V30 1341 H 120.878 -0.661655 -2.01831 0
M  V30 1342 H 123.141 -0.235261 -0.918344 0
M  V30 1343 H 122.847 -0.28732 -3.50524 0
M  V30 1344 H 122.721 1.46268 -3.47686 0
M  V30 1345 H 125.108 1.58055 -2.49204 0
M  V30 1346 H 125.189 -0.186022 -2.55123 0
M  V30 1347 H 124.833 -0.0954072 -5.0781 0
M  V30 1348 H 124.763 1.68255 -4.98997 0
M  V30 1349 H 127.254 0.818103 -3.68938 0
M  V30 1350 H 127.567 1.05707 -7.65536 0
M  V30 1351 H 125.912 0.957534 -6.88372 0
M  V30 1352 H 129.103 0.930954 -4.58749 0
M  V30 1353 H 129.276 1.04015 -6.39597 0
M  V30 1354 N 122.682 1.50554 0.465978 0
M  V30 1355 C 123.629 1.6979 1.56333 0
M  V30 1356 C 124.599 0.539239 1.57103 0
M  V30 1357 O 125.784 0.770401 1.74555 0
M  V30 1358 C 122.924 1.80273 2.94271 0
M  V30 1359 C 122.037 3.07674 3.0325 0
M  V30 1360 C 121.172 3.08922 4.32135 0
M  V30 1361 C 120.211 4.30755 4.34875 0
M  V30 1362 N 119.348 4.29714 5.55239 0
M  V30 1363 H 124.188 2.63472 1.39235 0
M  V30 1364 H 121.725 1.30602 0.676873 0
M  V30 1365 H 123.683 1.84332 3.74269 0
M  V30 1366 H 122.313 0.900258 3.09992 0
M  V30 1367 H 121.365 3.13062 2.16094 0
M  V30 1368 H 122.677 3.97642 3.01135 0
M  V30 1369 H 121.831 3.11738 5.20485 0
M  V30 1370 H 120.57 2.16792 4.36866 0
M  V30 1371 H 119.575 4.28146 3.44922 0
M  V30 1372 H 120.8 5.24117 4.31831 0
M  V30 1373 H 118.746 3.4044 5.60746 0
M  V30 1374 H 118.663 5.13456 5.54886 0
M  V30 1375 H 119.931 4.36683 6.457 0
M  V30 1376 N 124.16 -0.719506 1.40217 0
M  V30 1377 C 125.107 -1.83359 1.40172 0
M  V30 1378 C 126.077 -1.64065 0.259206 0
M  V30 1379 O 127.262 -1.85254 0.456677 0
M  V30 1380 C 124.402 -3.2103 1.26624 0
M  V30 1381 C 123.515 -3.51923 2.50548 0
M  V30 1382 C 122.65 -4.79079 2.29471 0
M  V30 1383 C 121.689 -5.02863 3.48992 0
M  V30 1384 N 120.826 -6.2123 3.27135 0
M  V30 1385 H 125.666 -1.82733 2.35399 0
M  V30 1386 H 123.203 -0.892688 1.16917 0
M  V30 1387 H 125.161 -4.00524 1.16776 0
M  V30 1388 H 123.791 -3.20895 0.350176 0
M  V30 1389 H 122.843 -2.67014 2.70939 0
M  V30 1390 H 124.155 -3.6541 3.39525 0
M  V30 1391 H 123.309 -5.66582 2.16955 0
M  V30 1392 H 122.048 -4.67794 1.37913 0
M  V30 1393 H 121.053 -4.13816 3.6199 0
M  V30 1394 H 122.278 -5.16023 4.41472 0
M  V30 1395 H 120.224 -6.11204 2.38256 0
M  V30 1396 H 120.141 -6.35375 4.09675 0
M  V30 1397 H 121.409 -7.11532 3.18344 0
M  V30 1398 N 125.638 -1.25649 -0.95132 0
M  V30 1399 C 126.884 -1.10757 -1.69884 0
M  V30 1400 C 127.217 0.350061 -1.91019 0
M  V30 1401 O 126.492 1.25783 -1.48354 0
M  V30 1402 C 126.775 -1.86606 -3.07978 0
M  V30 1403 C 126.628 -3.40217 -2.94232 0
M  V30 1404 C 127.947 -1.65182 -4.07925 0
M  V30 1405 H 125.066 -0.40374 -0.616574 0
M  V30 1406 H 127.708 -1.54521 -1.10558 0
M  V30 1407 H 125.858 -1.49409 -3.58621 0
M  V30 1408 H 127.53 -3.87108 -2.50889 0
M  V30 1409 H 125.773 -3.67759 -2.30078 0
M  V30 1410 H 126.444 -3.88505 -3.92133 0
M  V30 1411 H 128.92 -1.9757 -3.66204 0
M  V30 1412 H 127.796 -2.20683 -5.02583 0
M  V30 1413 H 128.057 -0.593933 -4.38092 0
M  V30 1414 N 127.117 1.15442 -1.07289 0
M  V30 1415 C 128.064 2.20161 -0.692653 0
M  V30 1416 C 129.034 1.63073 0.31564 0
M  V30 1417 O 130.219 1.89725 0.202235 0
M  V30 1418 C 127.359 3.44967 -0.0959509 0
M  V30 1419 C 126.472 4.16256 -1.15564 0
M  V30 1420 C 125.607 5.28609 -0.524011 0
M  V30 1421 C 124.646 5.91715 -1.56653 0
M  V30 1422 N 123.783 6.9554 -0.957531 0
M  V30 1423 H 128.623 2.52037 -1.59002 0
M  V30 1424 H 126.16 1.2378 -0.794798 0
M  V30 1425 H 128.118 4.16341 0.267628 0
M  V30 1426 H 126.748 3.1361 0.764772 0
M  V30 1427 H 125.8 3.43385 -1.6368 0
M  V30 1428 H 127.112 4.59268 -1.94613 0
M  V30 1429 H 126.266 6.06604 -0.108032 0
M  V30 1430 H 125.005 4.86787 0.29825 0
M  V30 1431 H 124.01 5.12433 -1.9923 0
M  V30 1432 H 125.235 6.35614 -2.39107 0
M  V30 1433 H 123.181 6.55814 -0.156162 0
M  V30 1434 H 123.098 7.36977 -1.68526 0
M  V30 1435 H 124.366 7.77435 -0.567032 0
M  V30 1436 N 128.595 0.856903 1.32268 0
M  V30 1437 C 129.528 0.247937 2.26849 0
M  V30 1438 C 130.506 -0.615382 1.50505 0
M  V30 1439 O 131.69 -0.571689 1.79622 0
M  V30 1440 C 128.817 -0.650093 3.32403 0
M  V30 1441 C 127.863 0.140138 4.2627 0
M  V30 1442 S 128.696 1.51004 5.13769 0
M  V30 1443 C 129.852 0.61778 6.22844 0
M  V30 1444 H 130.085 1.04971 2.78152 0
M  V30 1445 H 127.618 0.654665 1.39834 0
M  V30 1446 H 129.576 -1.16256 3.93694 0
M  V30 1447 H 128.237 -1.4257 2.7988 0
M  V30 1448 H 127.43 -0.543945 5.01056 0
M  V30 1449 H 127.032 0.584267 3.69408 0
M  V30 1450 H 129.324 -0.177053 6.77269 0
M  V30 1451 H 130.267 1.33636 6.95375 0
M  V30 1452 H 130.675 0.191124 5.64176 0
M  V30 1453 N 130.073 -1.45103 0.615059 0
M  V30 1454 C 131.005 -2.28786 -0.13762 0
M  V30 1455 C 132.018 -1.40376 -0.824525 0
M  V30 1456 O 133.207 -1.64681 -0.688662 0
M  V30 1457 C 130.307 -3.16322 -1.21628 0
M  V30 1458 C 129.48 -4.33054 -0.615039 0
M  V30 1459 C 128.539 -5.01743 -1.58556 0
M  V30 1460 O 127.565 -5.58293 -1.10895 0
M  V30 1461 N 128.767 -5.01714 -2.91998 0
M  V30 1462 H 131.532 -2.94025 0.580483 0
M  V30 1463 H 129.093 -1.55373 0.45507 0
M  V30 1464 H 131.085 -3.59139 -1.86552 0
M  V30 1465 H 129.655 -2.52943 -1.83681 0
M  V30 1466 H 128.875 -3.93627 0.21245 0
M  V30 1467 H 130.163 -5.08431 -0.193704 0
M  V30 1468 H 129.561 -4.57075 -3.33316 0
M  V30 1469 H 128.118 -5.48371 -3.52325 0
M  V30 1470 N 131.551 -0.354651 -1.53558 0
M  V30 1471 C 132.967 -0.00315426 -1.596 0
M  V30 1472 C 133.167 1.47741 -1.37021 0
M  V30 1473 O 132.223 2.23759 -1.16996 0
M  V30 1474 C 133.536 -0.44929 -2.97325 0
M  V30 1475 C 135.084 -0.402578 -3.104 0
M  V30 1476 C 135.559 -0.824355 -4.5052 0
M  V30 1477 N 137.05 -0.778979 -4.56603 0
M  V30 1478 C 137.785 -1.07715 -5.63192 0
M  V30 1479 N 137.281 -1.44405 -6.77583 0
M  V30 1480 N 139.074 -1.00066 -5.53121 0
M  V30 1481 H 131.225 -1.31893 -1.66487 0
M  V30 1482 H 133.488 -0.538388 -0.780284 0
M  V30 1483 H 133.194 -1.48202 -3.1895 0
M  V30 1484 H 133.068 0.169772 -3.76818 0
M  V30 1485 H 135.455 0.621004 -2.88492 0
M  V30 1486 H 135.536 -1.05699 -2.32941 0
M  V30 1487 H 135.18 -1.846 -4.73165 0
M  V30 1488 H 135.11 -0.147304 -5.26394 0
M  V30 1489 H 137.601 -0.508528 -3.74463 0
M  V30 1490 H 137.914 -1.65612 -7.54846 0
M  V30 1491 H 136.259 -1.4826 -6.79002 0
M  V30 1492 H 139.45 -0.713293 -4.62633 0
M  V30 1493 H 139.623 -1.23638 -6.36096 0
M  V30 1494 N 133.029 1.57378 -0.0835403 0
M  V30 1495 C 133.959 2.1641 0.87686 0
M  V30 1496 C 134.94 1.09429 1.30228 0
M  V30 1497 O 136.125 1.37516 1.37124 0
M  V30 1498 C 133.255 2.73517 2.14022 0
M  V30 1499 C 132.209 3.85769 1.85381 0
M  V30 1500 C 131.535 4.29529 3.18448 0
M  V30 1501 C 132.835 5.09486 1.14984 0
M  V30 1502 H 134.529 2.96914 0.385059 0
M  V30 1503 H 132.075 1.42823 0.18377 0
M  V30 1504 H 134.028 3.13463 2.81636 0
M  V30 1505 H 132.752 1.90252 2.65465 0
M  V30 1506 H 131.411 3.46345 1.20169 0
M  V30 1507 H 131.059 3.43169 3.67755 0
M  V30 1508 H 130.759 5.05204 3.00071 0
M  V30 1509 H 132.283 4.72099 3.8724 0
M  V30 1510 H 133.697 5.46674 1.72687 0
M  V30 1511 H 132.094 5.90515 1.06826 0
M  V30 1512 H 133.164 4.84724 0.130749 0
M  V30 1513 N 134.507 -0.190092 1.56449 0
M  V30 1514 C 135.437 -1.23816 1.97969 0
M  V30 1515 C 136.418 -1.47201 0.852395 0
M  V30 1516 O 137.603 -1.58854 1.1171 0
M  V30 1517 C 134.733 -2.5813 2.3235 0
M  V30 1518 C 133.687 -2.49348 3.47864 0
M  V30 1519 C 133.013 -3.8798 3.67934 0
M  V30 1520 C 134.313 -2.01424 4.81898 0
M  V30 1521 H 136.007 -0.89311 2.85769 0
M  V30 1522 H 133.553 -0.428177 1.37487 0
M  V30 1523 H 135.506 -3.31637 2.59991 0
M  V30 1524 H 134.23 -2.94386 1.41438 0
M  V30 1525 H 132.889 -1.78297 3.20321 0
M  V30 1526 H 132.537 -4.21597 2.74344 0
M  V30 1527 H 132.237 -3.82978 4.45648 0
M  V30 1528 H 133.761 -4.63101 3.97957 0
M  V30 1529 H 135.175 -2.64693 5.08538 0
M  V30 1530 H 133.572 -2.07413 5.63116 0
M  V30 1531 H 134.642 -0.967677 4.75146 0
M  V30 1532 N 135.985 -1.50799 -0.457987 0
M  V30 1533 C 137.233 -1.62121 -1.2067 0
M  V30 1534 C 137.554 -0.329793 -1.92191 0
M  V30 1535 O 136.824 0.653409 -1.84682 0
M  V30 1536 H 135.404 -0.597441 -0.448411 0
M  V30 1537 H 138.066 -1.87637 -0.527096 0
M  V30 1538 H 137.162 -2.43882 -1.94751 0
M  V30 1539 N 137.463 0.71206 -1.40597 0
M  V30 1540 C 138.395 1.83704 -1.37061 0
M  V30 1541 C 139.408 1.60453 -0.275426 0
M  V30 1542 O 140.597 1.70262 -0.53602 0
M  V30 1543 C 137.697 3.20172 -1.11099 0
M  V30 1544 C 136.87 3.7059 -2.3234 0
M  V30 1545 C 135.929 4.85681 -2.02485 0
M  V30 1546 O 134.955 4.9815 -2.75382 0
M  V30 1547 N 136.157 5.71735 -1.00497 0
M  V30 1548 H 138.922 1.87235 -2.34016 0
M  V30 1549 H 136.483 0.893739 -1.34996 0
M  V30 1550 H 138.475 3.94768 -0.891064 0
M  V30 1551 H 137.045 3.11767 -0.227989 0
M  V30 1552 H 136.265 2.87085 -2.7014 0
M  V30 1553 H 137.553 4.01011 -3.13157 0
M  V30 1554 H 136.951 5.64275 -0.401298 0
M  V30 1555 H 135.508 6.463 -0.844942 0
M  V30 1556 N 138.941 1.26152 0.944643 0
M  V30 1557 C 139.888 1.07408 2.04285 0
M  V30 1558 C 140.858 -0.0198413 1.66088 0
M  V30 1559 O 142.043 0.139264 1.90291 0
M  V30 1560 C 139.183 0.70945 3.37729 0
M  V30 1561 C 138.296 1.87926 3.88983 0
M  V30 1562 C 137.431 1.45807 5.10797 0
M  V30 1563 C 136.47 2.5964 5.54305 0
M  V30 1564 N 135.607 2.18226 6.67324 0
M  V30 1565 H 140.447 2.01389 2.1965 0
M  V30 1566 H 137.984 1.00275 1.07626 0
M  V30 1567 H 139.942 0.478948 4.14442 0
M  V30 1568 H 138.572 -0.193389 3.2222 0
M  V30 1569 H 137.624 2.22279 3.08701 0
M  V30 1570 H 138.936 2.73377 4.17213 0
M  V30 1571 H 138.09 1.18781 5.94959 0
M  V30 1572 H 136.829 0.574414 4.84305 0
M  V30 1573 H 135.834 2.87399 4.68702 0
M  V30 1574 H 137.059 3.48599 5.828 0
M  V30 1575 H 135.005 1.3229 6.42523 0
M  V30 1576 H 134.922 2.97221 6.95123 0
M  V30 1577 H 136.19 1.94403 7.54869 0
M  V30 1578 N 140.419 -1.14872 1.07899 0
M  V30 1579 C 141.647 -1.89661 0.82683 0
M  V30 1580 C 142.062 -1.78312 -0.620519 0
M  V30 1581 O 141.419 -1.13888 -1.42604 0
M  V30 1582 C 141.47 -3.39817 1.23316 0
M  V30 1583 O 141.191 -3.50845 2.62372 0
M  V30 1584 C 142.692 -4.31615 1.0111 0
M  V30 1585 H 139.912 -0.60092 0.298557 0
M  V30 1586 H 142.456 -1.4551 1.43691 0
M  V30 1587 H 140.611 -3.8161 0.667286 0
M  V30 1588 H 141.025 -4.44076 2.79101 0
M  V30 1589 H 142.499 -5.35367 1.34486 0
M  V30 1590 H 142.976 -4.39169 -0.0522168 0
M  V30 1591 H 143.582 -3.95572 1.56215 0
M  V30 1592 N 141.898 -0.863906 -1.31812 0
M  V30 1593 C 142.861 -0.320212 -2.26952 0
M  V30 1594 C 143.861 0.525369 -1.51975 0
M  V30 1595 O 145.051 0.335547 -1.70938 0
M  V30 1596 C 142.183 0.545919 -3.365 0
M  V30 1597 H 143.376 -1.16004 -2.76556 0
M  V30 1598 H 140.929 -0.638995 -1.42641 0
M  V30 1599 H 141.664 1.40718 -2.92179 0
M  V30 1600 H 141.449 -0.0594674 -3.92055 0
M  V30 1601 H 142.939 0.918796 -4.07367 0
M  V30 1602 N 143.376 1.44774 -0.622745 0
M  V30 1603 C 144.601 2.06999 -0.128968 0
M  V30 1604 C 145.026 1.4617 1.1839 0
M  V30 1605 O 144.384 0.560007 1.72434 0
M  V30 1606 C 144.432 3.60595 -0.0188351 0
M  V30 1607 O 143.536 3.99398 1.02739 0
M  V30 1608 H 142.877 0.659047 -0.0809544 0
M  V30 1609 H 145.407 1.85784 -0.85705 0
M  V30 1610 H 145.417 4.07627 0.174476 0
M  V30 1611 H 144.092 4.04252 -0.977384 0
M  V30 1612 H 142.669 3.64011 0.809326 0
M  V30 1613 N 144.854 0.36279 1.53368 0
M  V30 1614 C 146.094 -0.227882 2.03126 0
M  V30 1615 C 146.458 -1.4622 1.24434 0
M  V30 1616 O 147.659 -2.12831 1.64184 0
M  V30 1617 C 145.93 -0.515427 3.53664 0
M  V30 1618 S 147.489 -1.08017 4.25297 0
M  V30 1619 H 144.307 -0.0665377 0.70788 0
M  V30 1620 H 146.909 0.50501 1.88865 0
M  V30 1621 H 145.613 0.390436 4.08539 0
M  V30 1622 H 145.144 -1.27747 3.72081 0
M  V30 1623 H 147.159 -2.36462 4.36234 0
M  V30 1624 N 146.332 -1.57332 0.0918853 0
M  V30 1625 C 147.579 -1.94236 -0.572577 0
M  V30 1626 C 147.907 -0.973398 -1.6839 0
M  V30 1627 O 147.162 0.00756912 -1.95699 0
M  V30 1628 C 147.461 -3.37689 -1.17051 0
M  V30 1629 C 147.127 -4.50527 -0.183304 0
M  V30 1630 C 145.789 -4.81119 0.0882276 0
M  V30 1631 C 148.141 -5.18883 0.49095 0
M  V30 1632 C 145.469 -5.77395 1.04076 0
M  V30 1633 C 147.821 -6.1618 1.43193 0
M  V30 1634 C 146.485 -6.45179 1.71173 0
M  V30 1635 H 145.755 -0.710762 -0.209521 0
M  V30 1636 H 148.402 -1.9077 0.167036 0
M  V30 1637 H 146.707 -3.37718 -1.9863 0
M  V30 1638 H 148.404 -3.63543 -1.69227 0
M  V30 1639 H 144.994 -4.26681 -0.405124 0
M  V30 1640 H 149.178 -4.95427 0.294312 0
M  V30 1641 H 144.434 -5.98179 1.26457 0
M  V30 1642 H 148.608 -6.68243 1.96023 0
M  V30 1643 H 146.235 -7.1959 2.4514 0
M  V30 1644 N 147.81 0.181792 -1.56548 0
M  V30 1645 C 148.742 1.24956 -1.92142 0
M  V30 1646 C 149.755 1.41022 -0.813422 0
M  V30 1647 O 150.944 1.41212 -1.09186 0
M  V30 1648 C 148.044 2.61981 -2.14987 0
M  V30 1649 C 147.217 2.6735 -3.46183 0
M  V30 1650 C 146.276 3.85664 -3.5798 0
M  V30 1651 O 145.302 3.72148 -4.30691 0
M  V30 1652 N 146.504 5.01683 -2.92053 0
M  V30 1653 H 149.269 0.947329 -2.84334 0
M  V30 1654 H 146.83 0.371629 -1.57577 0
M  V30 1655 H 148.822 3.3958 -2.20154 0
M  V30 1656 H 147.392 2.84637 -1.2923 0
M  V30 1657 H 146.612 1.75925 -3.52766 0
M  V30 1658 H 147.9 2.67939 -4.32534 0
M  V30 1659 H 147.298 5.15564 -2.32832 0
M  V30 1660 H 145.855 5.77181 -3.0283 0
M  V30 1661 N 149.288 1.51039 0.449983 0
M  V30 1662 C 150.704 1.38934 0.785462 0
M  V30 1663 C 150.904 0.461817 1.96136 0
M  V30 1664 O 149.96 -0.0877389 2.52348 0
M  V30 1665 C 151.273 2.80724 1.0777 0
M  V30 1666 C 152.821 2.89787 1.1829 0
M  V30 1667 C 153.296 4.32457 1.50815 0
M  V30 1668 N 154.787 4.35505 1.57764 0
M  V30 1669 C 155.522 5.42914 1.84477 0
M  V30 1670 N 155.018 6.60502 2.09068 0
M  V30 1671 N 156.811 5.3038 1.86155 0
M  V30 1672 H 148.962 2.09904 -0.324647 0
M  V30 1673 H 151.225 0.944378 -0.0827957 0
M  V30 1674 H 150.931 3.50531 0.286498 0
M  V30 1675 H 150.805 3.19273 2.00859 0
M  V30 1676 H 153.192 2.20186 1.96474 0
M  V30 1677 H 153.273 2.54752 0.231314 0
M  V30 1678 H 152.917 5.02603 0.731622 0
M  V30 1679 H 152.847 4.64995 2.47158 0
M  V30 1680 H 155.338 3.50724 1.40715 0
M  V30 1681 H 155.651 7.38158 2.28785 0
M  V30 1682 H 153.996 6.63639 2.06416 0
M  V30 1683 H 157.187 4.37505 1.66454 0
M  V30 1684 H 157.36 6.1417 2.06637 0
M  V30 1685 N 150.766 -0.704594 1.40972 0
M  V30 1686 C 152.006 -1.47691 1.41304 0
M  V30 1687 C 152.37 -1.91992 0.0178582 0
M  V30 1688 O 153.571 -2.68599 -0.103996 0
M  V30 1689 C 151.842 -2.66254 2.38419 0
M  V30 1690 S 153.401 -3.55516 2.57204 0
M  V30 1691 H 150.219 -0.504808 0.500689 0
M  V30 1692 H 152.821 -0.822962 1.77335 0
M  V30 1693 H 151.525 -2.31897 3.38603 0
M  V30 1694 H 151.056 -3.3655 2.03711 0
M  V30 1695 H 153.071 -4.61115 1.83268 0
M  V30 1696 N 152.244 -1.26651 -0.937939 0
M  V30 1697 C 153.49 -1.12553 -1.687 0
M  V30 1698 C 153.823 0.329782 -1.91379 0
M  V30 1699 O 153.098 1.24202 -1.4968 0
M  V30 1700 C 153.381 -1.89862 -3.05981 0
M  V30 1701 C 153.234 -3.43318 -2.90607 0
M  V30 1702 C 154.553 -1.69499 -4.0615 0
M  V30 1703 H 151.672 -0.410257 -0.612257 0
M  V30 1704 H 154.314 -1.55685 -1.08913 0
M  V30 1705 H 152.464 -1.53204 -3.57017 0
M  V30 1706 H 154.136 -3.89747 -2.46769 0
M  V30 1707 H 152.379 -3.70179 -2.26164 0
M  V30 1708 H 153.05 -3.92642 -3.8799 0
M  V30 1709 H 155.526 -2.01442 -3.64088 0
M  V30 1710 H 154.402 -2.26002 -5.00214 0
M  V30 1711 H 154.663 -0.640365 -4.37438 0
M  V30 1712 N 153.722 1.14298 -1.08507 0
M  V30 1713 C 154.97 1.84993 -0.813763 0
M  V30 1714 C 155.291 1.83405 0.662393 0
M  V30 1715 O 154.561 1.28319 1.48024 0
M  V30 1716 H 153.141 0.684966 -0.298045 0
M  V30 1717 H 155.803 1.385 -1.37126 0
M  V30 1718 H 154.899 2.89788 -1.15884 0
M  V30 1719 N 155.201 0.870884 1.31352 0
M  V30 1720 C 156.134 0.271983 2.26573 0
M  V30 1721 C 157.112 -0.599385 1.51149 0
M  V30 1722 O 158.296 -0.552605 1.80218 0
M  V30 1723 C 155.423 -0.614801 3.33073 0
M  V30 1724 C 154.469 0.185342 4.26097 0
M  V30 1725 S 155.302 1.56444 5.12138 0
M  V30 1726 C 156.458 0.683807 6.22153 0
M  V30 1727 H 156.691 1.07916 2.77023 0
M  V30 1728 H 154.224 0.669459 1.39132 0
M  V30 1729 H 156.182 -1.12074 3.94905 0
M  V30 1730 H 154.843 -1.39593 2.81376 0
M  V30 1731 H 154.036 -0.490771 5.01605 0
M  V30 1732 H 153.638 0.623415 3.68768 0
M  V30 1733 H 155.93 -0.10521 6.77418 0
M  V30 1734 H 156.873 1.41004 6.93919 0
M  V30 1735 H 157.281 0.250952 5.63942 0
M  V30 1736 N 156.679 -1.44442 0.630414 0
M  V30 1737 C 157.956 -1.9549 0.0655657 0
M  V30 1738 C 158.336 -1.5724 -1.40851 0
M  V30 1739 O 157.684 -0.846116 -2.12257 0
M  V30 1740 C 157.894 -3.47812 0.287691 0
M  V30 1741 C 159.242 -4.24216 0.180513 0
M  V30 1742 O 160.266 -3.55526 0.219019 0
M  V30 1743 O 159.125 -5.46434 0.0848493 0
M  V30 1744 H 156.219 -0.826688 -0.0227177 0
M  V30 1745 H 158.765 -1.54496 0.702068 0
M  V30 1746 H 157.537 -3.687 1.31056 0
M  V30 1747 H 157.16 -3.95751 -0.382984 0
M  V30 1748 N 158.157 -0.370918 -1.53173 0
M  V30 1749 C 159.12 0.460778 -2.24521 0
M  V30 1750 C 160.12 1.00536 -1.25496 0
M  V30 1751 O 161.31 0.890266 -1.49733 0
M  V30 1752 C 158.442 1.64457 -2.98608 0
M  V30 1753 H 159.635 -0.163613 -2.99453 0
M  V30 1754 H 157.188 -0.122699 -1.55818 0
M  V30 1755 H 157.923 2.30691 -2.2793 0
M  V30 1756 H 157.708 1.26099 -3.7127 0
M  V30 1757 H 159.198 2.23384 -3.5283 0
M  V30 1758 N 159.635 1.57281 -0.100228 0
M  V30 1759 C 160.882 1.94537 0.562268 0
M  V30 1760 C 161.21 0.982315 1.67871 0
M  V30 1761 O 160.465 0.00280936 1.957 0
M  V30 1762 C 160.764 3.38305 1.15259 0
M  V30 1763 C 160.43 4.50618 0.159409 0
M  V30 1764 C 159.092 4.81066 -0.113741 0
M  V30 1765 C 161.444 5.18615 -0.518461 0
M  V30 1766 C 158.772 5.76835 -1.07137 0
M  V30 1767 C 161.124 6.15412 -1.46459 0
M  V30 1768 C 159.788 6.44262 -1.74592 0
M  V30 1769 H 159.058 0.711863 0.205748 0
M  V30 1770 H 161.705 1.90679 -0.17715 0
M  V30 1771 H 160.01 3.38766 1.96836 0
M  V30 1772 H 161.707 3.64435 1.67297 0
M  V30 1773 H 158.297 4.2689 0.382491 0
M  V30 1774 H 162.481 4.95264 -0.320581 0
M  V30 1775 H 157.737 5.975 -1.29628 0
M  V30 1776 H 161.911 6.67194 -1.99564 0
M  V30 1777 H 159.538 7.1828 -2.48953 0
M  V30 1778 N 161.113 -0.173488 1.56642 0
M  V30 1779 C 162.061 -1.23417 1.97157 0
M  V30 1780 C 163.055 -1.45946 0.860013 0
M  V30 1781 O 164.261 -1.46551 1.04512 0
M  V30 1782 H 160.636 -0.414818 0.62724 0
M  V30 1783 H 162.607 -0.865582 2.8557 0
M  V30 1784 C 161.356 -2.5665 2.34576 0
M  V30 1785 H 160.679 -2.40137 3.19647 0
M  V30 1786 H 162.119 -3.2956 2.6677 0
M  V30 1787 C 160.578 -3.15245 1.18836 0
M  V30 1788 O 161.108 -3.98883 0.474869 0
M  V30 1789 N 159.314 -2.74303 0.959497 0
M  V30 1790 H 158.861 -2.0639 1.54146 0
M  V30 1791 H 158.819 -3.13844 0.186932 0
M  V30 1792 N 162.591 -1.51276 -0.441967 0
M  V30 1793 C 163.554 -1.7167 -1.51862 0
M  V30 1794 C 164.554 -0.586793 -1.49711 0
M  V30 1795 O 165.744 -0.854276 -1.51815 0
M  V30 1796 C 162.876 -1.76889 -2.91416 0
M  V30 1797 H 164.069 -2.67754 -1.35084 0
M  V30 1798 H 161.622 -1.41196 -0.670333 0
M  V30 1799 H 162.357 -0.826026 -3.13604 0
M  V30 1800 H 162.142 -2.59001 -2.94382 0
M  V30 1801 H 163.632 -1.94522 -3.69528 0
M  V30 1802 N 164.069 0.697108 -1.41344 0
M  V30 1803 C 165.315 1.4593 -1.40827 0
M  V30 1804 C 165.648 1.94193 -0.0167098 0
M  V30 1805 O 164.923 1.69425 0.955263 0
M  V30 1806 C 165.206 2.67229 -2.41373 0
M  V30 1807 C 165.059 2.24741 -3.8963 0
M  V30 1808 C 166.378 3.69423 -2.39196 0
M  V30 1809 H 163.497 0.529303 -0.512842 0
M  V30 1810 H 166.139 0.794112 -1.72609 0
M  V30 1811 H 164.289 3.23982 -2.14401 0
M  V30 1812 H 165.961 1.73327 -4.27499 0
M  V30 1813 H 164.204 1.56542 -4.0457 0
M  V30 1814 H 164.875 3.1177 -4.55525 0
M  V30 1815 H 167.351 3.2234 -2.63128 0
M  V30 1816 H 166.227 4.51907 -3.11563 0
M  V30 1817 H 166.488 4.19012 -1.41001 0
M  V30 1818 N 165.547 1.27147 0.931209 0
M  V30 1819 C 166.794 1.13278 1.67852 0
M  V30 1820 C 167.122 -0.32204 1.91815 0
M  V30 1821 O 166.377 -1.25224 1.50391 0
M  V30 1822 C 166.676 1.8579 3.05314 0
M  V30 1823 C 166.342 3.35657 3.01073 0
M  V30 1824 C 165.004 3.76536 2.99623 0
M  V30 1825 C 167.356 4.31299 2.92627 0
M  V30 1826 C 164.684 5.11426 2.87506 0
M  V30 1827 C 167.036 5.66242 2.82051 0
M  V30 1828 C 165.7 6.06418 2.7895 0
M  V30 1829 H 164.97 0.414515 0.614214 0
M  V30 1830 H 167.617 1.57712 1.08624 0
M  V30 1831 H 165.922 1.33854 3.68226 0
M  V30 1832 H 167.619 1.72491 3.62005 0
M  V30 1833 H 164.209 3.03146 3.02986 0
M  V30 1834 H 168.393 4.00692 2.92848 0
M  V30 1835 H 163.649 5.41705 2.83489 0
M  V30 1836 H 167.823 6.40026 2.74481 0
M  V30 1837 H 165.45 7.10895 2.69318 0
M  V30 1838 N 167.025 -1.13721 1.09112 0
M  V30 1839 C 168.25 -1.89314 0.847053 0
M  V30 1840 C 168.675 -1.78416 -0.595774 0
M  V30 1841 O 168.033 -1.12942 -1.41823 0
M  V30 1842 C 168.081 -3.3701 1.28284 0
M  V30 1843 O 167.185 -4.10054 0.439267 0
M  V30 1844 H 166.526 -0.588745 0.307044 0
M  V30 1845 H 169.056 -1.43902 1.45442 0
M  V30 1846 H 169.066 -3.87834 1.26683 0
M  V30 1847 H 167.741 -3.4426 2.33363 0
M  V30 1848 H 166.318 -3.69266 0.519312 0
M  V30 1849 N 168.503 -0.877838 -1.30888 0
M  V30 1850 C 169.731 -0.507414 -2.00581 0
M  V30 1851 C 170.146 0.902216 -1.65848 0
M  V30 1852 O 169.503 1.59225 -0.891831 0
M  V30 1853 C 169.554 -0.664162 -3.55347 0
M  V30 1854 O 169.275 -2.01829 -3.8884 0
M  V30 1855 C 170.776 -0.295787 -4.42312 0
M  V30 1856 H 167.996 -0.196866 -0.641471 0
M  V30 1857 H 170.54 -1.18117 -1.66939 0
M  V30 1858 H 168.695 -0.0378619 -3.87381 0
M  V30 1859 H 169.109 -2.03174 -4.8355 0
M  V30 1860 H 170.583 -0.456388 -5.5011 0
M  V30 1861 H 171.06 0.765663 -4.32475 0
M  V30 1862 H 171.666 -0.898113 -4.15709 0
M  V30 1863 N 169.982 1.44106 -0.638065 0
M  V30 1864 C 171.21 2.06336 -0.152615 0
M  V30 1865 C 171.625 1.47731 1.17563 0
M  V30 1866 O 170.982 0.602806 1.72257 0
M  V30 1867 C 171.033 3.61479 -0.0391491 0
M  V30 1868 O 170.754 4.17903 -1.31487 0
M  V30 1869 C 172.255 4.40757 0.474176 0
M  V30 1870 H 169.475 0.665862 -0.0828776 0
M  V30 1871 H 172.019 1.84862 -0.87443 0
M  V30 1872 H 170.174 3.82191 0.633142 0
M  V30 1873 H 170.588 5.11416 -1.16421 0
M  V30 1874 H 172.062 5.49707 0.502562 0
M  V30 1875 H 172.539 4.12697 1.50258 0
M  V30 1876 H 173.145 4.24979 -0.165102 0
M  V30 1877 N 171.46 0.379036 1.52974 0
M  V30 1878 C 172.69 -0.20649 2.05566 0
M  V30 1879 C 173.098 -1.41906 1.25137 0
M  V30 1880 O 172.441 -1.81421 0.288464 0
M  V30 1881 C 172.503 -0.651086 3.53555 0
M  V30 1882 C 172.167 0.446626 4.54812 0
M  V30 1883 C 173.164 1.30079 5.03364 0
M  V30 1884 C 170.849 0.610719 4.98573 0
M  V30 1885 C 172.843 2.30426 5.94292 0
M  V30 1886 C 170.53 1.61754 5.89304 0
M  V30 1887 C 171.528 2.46274 6.37054 0
M  V30 1888 O 171.216 3.45237 7.25994 0
M  V30 1889 H 170.948 -0.0372381 0.674974 0
M  V30 1890 H 173.502 0.539718 1.98182 0
M  V30 1891 H 171.732 -1.44911 3.58522 0
M  V30 1892 H 173.421 -1.16112 3.88938 0
M  V30 1893 H 174.187 1.18527 4.70294 0
M  V30 1894 H 170.066 -0.0374044 4.60985 0
M  V30 1895 H 173.61 2.96432 6.31485 0
M  V30 1896 H 169.507 1.73348 6.21788 0
M  V30 1897 H 170.275 3.41124 7.44027 0
M  V30 1898 N 172.938 -1.57226 0.108567 0
M  V30 1899 C 173.848 -2.18292 -0.859401 0
M  V30 1900 C 174.864 -1.15612 -1.30038 0
M  V30 1901 O 176.04 -1.48039 -1.36552 0
M  V30 1902 C 173.105 -2.762 -2.09558 0
M  V30 1903 C 172.166 -3.93881 -1.70752 0
M  V30 1904 C 171.399 -4.49018 -2.88477 0
M  V30 1905 O 171.622 -4.03068 -4.036 0
M  V30 1906 O 170.556 -5.39852 -2.66164 0
M  V30 1907 H 174.382 -3.01441 -0.369769 0
M  V30 1908 H 171.967 -1.48945 -0.1165 0
M  V30 1909 H 173.849 -3.13156 -2.81978 0
M  V30 1910 H 172.524 -1.96089 -2.57548 0
M  V30 1911 H 171.431 -3.61713 -0.954714 0
M  V30 1912 H 172.764 -4.75396 -1.27513 0
M  V30 1913 N 174.416 0.165178 -1.56732 0
M  V30 1914 C 175.665 0.879143 -1.81532 0
M  V30 1915 C 175.978 1.83144 -0.686842 0
M  V30 1916 O 177.184 2.58823 -0.819944 0
M  V30 1917 C 175.64 1.61388 -3.21686 0
M  V30 1918 C 175.248 0.704904 -4.4242 0
M  V30 1919 C 176.992 2.3157 -3.55774 0
M  V30 1920 C 174.899 1.44022 -5.73595 0
M  V30 1921 H 173.829 0.332033 -0.676957 0
M  V30 1922 H 176.48 0.132008 -1.83025 0
M  V30 1923 H 174.862 2.40599 -3.14529 0
M  V30 1924 H 176.036 -0.0506815 -4.60772 0
M  V30 1925 H 174.351 0.112419 -4.16248 0
M  V30 1926 H 176.948 2.8719 -4.51028 0
M  V30 1927 H 177.291 3.07201 -2.8095 0
M  V30 1928 H 177.824 1.59297 -3.64513 0
M  V30 1929 H 174.563 0.72612 -6.51466 0
M  V30 1930 H 174.083 2.16898 -5.5921 0
M  V30 1931 H 175.762 1.98606 -6.15764 0
M  V30 1932 N 175.894 1.51508 0.433938 0
M  V30 1933 C 177.171 1.54888 1.19453 0
M  V30 1934 C 177.551 0.315154 2.08734 0
M  V30 1935 O 176.899 -0.699558 2.17528 0
M  V30 1936 C 177.109 2.86467 1.99342 0
M  V30 1937 C 178.457 3.38545 2.56267 0
M  V30 1938 O 179.481 2.88041 2.0955 0
M  V30 1939 O 178.34 4.26675 3.41483 0
M  V30 1940 H 175.434 0.622863 0.544032 0
M  V30 1941 H 177.98 1.63823 0.442732 0
M  V30 1942 H 176.752 3.67718 1.33788 0
M  V30 1943 H 176.375 2.8071 2.8158 0
M  V30 1944 N 177.372 -0.689602 1.41712 0
M  V30 1945 C 178.304 -1.815 1.39966 0
M  V30 1946 C 179.317 -1.59995 0.300917 0
M  V30 1947 O 180.506 -1.69387 0.563039 0
M  V30 1948 C 177.606 -3.18364 1.16179 0
M  V30 1949 C 176.779 -3.66847 2.38206 0
M  V30 1950 C 175.838 -4.82398 2.10186 0
M  V30 1951 O 174.864 -4.93706 2.83272 0
M  V30 1952 N 176.066 -5.70064 1.0958 0
M  V30 1953 H 178.831 -1.83488 2.36965 0
M  V30 1954 H 176.392 -0.872149 1.36401 0
M  V30 1955 H 178.384 -3.93301 0.953756 0
M  V30 1956 H 176.954 -3.11365 0.27756 0
M  V30 1957 H 176.174 -2.82751 2.74673 0
M  V30 1958 H 177.462 -3.95978 3.19498 0
M  V30 1959 H 176.86 -5.63565 0.491019 0
M  V30 1960 H 175.417 -6.44874 0.947656 0
M  V30 1961 N 178.85 -1.27639 -0.924453 0
M  V30 1962 C 179.797 -1.10644 -2.0255 0
M  V30 1963 C 180.767 -0.00658438 -1.66099 0
M  V30 1964 O 181.952 -0.16952 -1.90045 0
M  V30 1965 C 179.092 -0.76309 -3.36557 0
M  V30 1966 C 178.205 -1.94091 -3.85944 0
M  V30 1967 C 177.34 -1.53914 -5.08413 0
M  V30 1968 C 176.379 -2.68425 -5.50104 0
M  V30 1969 N 175.516 -2.28815 -6.63768 0
M  V30 1970 H 180.356 -2.04858 -2.16419 0
M  V30 1971 H 177.893 -1.01974 -1.06017 0
M  V30 1972 H 179.851 -0.544822 -4.13627 0
M  V30 1973 H 178.481 0.142102 -3.22487 0
M  V30 1974 H 177.533 -2.27162 -3.05125 0
M  V30 1975 H 178.845 -2.7998 -4.12811 0
M  V30 1976 H 177.999 -1.28231 -5.92994 0
M  V30 1977 H 176.738 -0.651391 -4.8333 0
M  V30 1978 H 175.743 -2.94819 -4.64071 0
M  V30 1979 H 176.968 -3.57826 -5.7718 0
M  V30 1980 H 174.914 -1.42495 -6.40337 0
M  V30 1981 H 174.831 -3.08242 -6.90306 0
M  V30 1982 H 176.099 -2.06387 -7.51681 0
M  V30 1983 N 180.328 1.1314 -1.09713 0
M  V30 1984 C 181.558 1.88048 -0.855656 0
M  V30 1985 C 181.966 1.79537 0.596919 0
M  V30 1986 O 181.309 1.16196 1.42282 0
M  V30 1987 C 181.371 3.38314 -1.21589 0
M  V30 1988 C 181.035 3.70605 -2.67397 0
M  V30 1989 C 182.032 3.69596 -3.65643 0
M  V30 1990 C 179.717 4.0017 -3.03593 0
M  V30 1991 C 181.711 3.977 -4.9811 0
M  V30 1992 C 179.398 4.27935 -4.36251 0
M  V30 1993 C 180.396 4.26685 -5.33318 0
M  V30 1994 O 180.084 4.53767 -6.63589 0
M  V30 1995 H 179.816 0.60208 -0.307368 0
M  V30 1996 H 182.37 1.44128 -1.46343 0
M  V30 1997 H 180.6 3.82752 -0.551177 0
M  V30 1998 H 182.289 3.94552 -0.953083 0
M  V30 1999 H 183.055 3.46826 -3.39023 0
M  V30 2000 H 178.934 4.00289 -2.2867 0
M  V30 2001 H 182.478 3.9664 -5.73866 0
M  V30 2002 H 178.375 4.50178 -4.62613 0
M  V30 2003 H 179.143 4.71422 -6.69107 0
M  V30 2004 N 181.806 0.884767 1.30421 0
M  V30 2005 C 183.054 0.502112 1.95763 0
M  V30 2006 C 183.375 -0.951815 1.70192 0
M  V30 2007 O 182.645 -1.6692 1.0254 0
M  V30 2008 H 181.225 0.182694 0.724315 0
M  V30 2009 H 183.887 1.1278 1.58955 0
M  V30 2010 H 182.983 0.672188 3.04775 0
M  V30 2011 N 183.284 -1.43765 0.645699 0
M  V30 2012 C 184.512 -2.06253 0.163556 0
M  V30 2013 C 184.927 -1.48352 -1.16778 0
M  V30 2014 O 184.284 -0.611932 -1.71935 0
M  V30 2015 C 184.335 -3.61453 0.0583186 0
M  V30 2016 O 184.056 -4.172 1.33702 0
M  V30 2017 C 185.557 -4.41002 -0.450795 0
M  V30 2018 H 182.777 -0.665413 0.0864077 0
M  V30 2019 H 185.321 -1.84396 0.884222 0
M  V30 2020 H 183.476 -3.82522 -0.612865 0
M  V30 2021 H 183.89 -5.10791 1.19131 0
M  V30 2022 H 185.364 -5.49966 -0.473403 0
M  V30 2023 H 185.841 -4.13488 -1.48068 0
M  V30 2024 H 186.447 -4.24886 0.187637 0
M  V30 2025 N 184.763 -0.387143 -1.52771 0
M  V30 2026 C 185.711 0.463953 -2.27926 0
M  V30 2027 C 186.705 1.06493 -1.31741 0
M  V30 2028 O 187.911 1.00565 -1.49287 0
M  V30 2029 H 184.286 0.16837 -0.732909 0
M  V30 2030 H 186.257 -0.19141 -2.97785 0
M  V30 2031 C 185.006 1.5803 -3.09713 0
M  V30 2032 H 184.329 1.12718 -3.83581 0
M  V30 2033 H 185.769 2.15008 -3.65442 0
M  V30 2034 C 184.228 2.53509 -2.2189 0
M  V30 2035 O 184.758 3.56863 -1.84422 0
M  V30 2036 N 182.964 2.23199 -1.86093 0
M  V30 2037 H 182.511 1.39185 -2.16761 0
M  V30 2038 H 182.469 2.87333 -1.27621 0
M  V30 2039 N 186.241 1.57166 -0.116904 0
M  V30 2040 C 187.471 1.99184 0.548586 0
M  V30 2041 C 187.879 0.995436 1.60897 0
M  V30 2042 O 187.222 -0.0201293 1.83689 0
M  V30 2043 C 187.284 3.37611 1.23526 0
M  V30 2044 C 186.948 4.55857 0.323077 0
M  V30 2045 C 187.945 5.18056 -0.437476 0
M  V30 2046 C 185.63 5.01751 0.234761 0
M  V30 2047 C 187.624 6.24536 -1.2741 0
M  V30 2048 C 185.311 6.08093 -0.605496 0
M  V30 2049 C 186.309 6.69352 -1.35856 0
M  V30 2050 O 185.997 7.7364 -2.18487 0
M  V30 2051 H 185.729 0.659148 0.149999 0
M  V30 2052 H 188.283 2.0443 -0.199428 0
M  V30 2053 H 186.513 3.29113 2.0303 0
M  V30 2054 H 188.202 3.63932 1.79745 0
M  V30 2055 H 188.968 4.83516 -0.379105 0
M  V30 2056 H 184.847 4.53817 0.810601 0
M  V30 2057 H 188.391 6.72281 -1.86237 0
M  V30 2058 H 184.288 6.42063 -0.665268 0
M  V30 2059 H 185.056 7.90727 -2.11406 0
M  V30 2060 N 187.719 -0.156864 1.56817 0
M  V30 2061 C 188.669 -1.19891 1.93934 0
M  V30 2062 C 189.653 -1.39061 0.809372 0
M  V30 2063 O 190.845 -1.40789 1.07273 0
M  V30 2064 C 187.974 -2.53493 2.31508 0
M  V30 2065 C 187.06 -2.37957 3.51052 0
M  V30 2066 N 187.451 -1.92158 4.67877 0
M  V30 2067 C 185.749 -2.68739 3.55943 0
M  V30 2068 C 186.45 -1.8943 5.49992 0
M  V30 2069 N 185.426 -2.32375 4.91429 0
M  V30 2070 H 189.228 -0.836746 2.81737 0
M  V30 2071 H 186.742 -0.365012 1.58245 0
M  V30 2072 H 188.739 -3.28811 2.56299 0
M  V30 2073 H 187.399 -2.905 1.45051 0
M  V30 2074 H 188.41 -1.62274 4.91821 0
M  V30 2075 H 185.087 -3.09687 2.80001 0
M  V30 2076 H 186.477 -1.55596 6.53636 0
M  V30 2077 N 189.197 -1.51736 -0.425897 0
M  V30 2078 C 190.144 -1.73875 -1.51776 0
M  V30 2079 C 191.114 -0.580702 -1.55618 0
M  V30 2080 O 192.299 -0.81641 -1.72451 0
M  V30 2081 C 189.439 -1.88012 -2.89388 0
M  V30 2082 C 188.552 -3.15606 -2.94986 0
M  V30 2083 C 187.687 -3.20271 -4.23793 0
M  V30 2084 C 186.726 -4.42134 -4.23302 0
M  V30 2085 N 185.863 -4.44284 -5.43651 0
M  V30 2086 H 190.703 -2.67071 -1.32201 0
M  V30 2087 H 188.24 -1.32351 -0.642008 0
M  V30 2088 H 190.198 -1.9419 -3.69251 0
M  V30 2089 H 188.828 -0.98213 -3.07496 0
M  V30 2090 H 187.88 -3.18681 -2.07717 0
M  V30 2091 H 189.192 -4.05486 -2.90486 0
M  V30 2092 H 188.346 -3.25428 -5.12036 0
M  V30 2093 H 187.085 -2.28299 -4.30965 0
M  V30 2094 H 186.09 -4.3714 -3.3345 0
M  V30 2095 H 187.315 -5.35382 -4.17783 0
M  V30 2096 H 185.261 -3.55188 -5.51523 0
M  V30 2097 H 185.178 -5.27988 -5.41078 0
M  V30 2098 H 186.446 -4.53649 -6.33895 0
M  V30 2099 N 190.675 0.682077 -1.42076 0
M  V30 2100 C 191.623 1.81707 -1.45208 0
M  V30 2101 C 192.617 1.66183 -0.328591 0
M  V30 2102 O 193.823 1.7288 -0.501264 0
M  V30 2103 H 190.198 0.599014 -0.454628 0
M  V30 2104 H 192.169 1.76183 -2.40836 0
M  V30 2105 C 190.918 3.19816 -1.36428 0
M  V30 2106 H 190.241 3.32385 -2.22171 0
M  V30 2107 H 191.681 3.99272 -1.42681 0
M  V30 2108 C 190.14 3.36809 -0.078191 0
M  V30 2109 O 190.67 3.92124 0.87188 0
M  V30 2110 N 188.876 2.906 0.00229266 0
M  V30 2111 H 188.423 2.45772 -0.771616 0
M  V30 2112 H 188.381 3.02347 0.862179 0
M  V30 2113 N 192.153 1.28127 0.917671 0
M  V30 2114 C 193.4 1.15052 1.66641 0
M  V30 2115 C 193.728 -0.301677 1.92146 0
M  V30 2116 O 192.983 -1.23622 1.51711 0
M  V30 2117 C 193.282 1.89018 3.03327 0
M  V30 2118 C 192.948 3.38832 2.97496 0
M  V30 2119 C 191.61 3.79693 2.95613 0
M  V30 2120 C 193.962 4.34378 2.88036 0
M  V30 2121 C 191.29 5.14447 2.82066 0
M  V30 2122 C 193.642 5.69201 2.7603 0
M  V30 2123 C 192.306 6.09343 2.72502 0
M  V30 2124 H 191.576 0.421006 0.609783 0
M  V30 2125 H 194.223 1.58855 1.06945 0
M  V30 2126 H 192.528 1.37752 3.66785 0
M  V30 2127 H 194.225 1.76321 3.60156 0
M  V30 2128 H 190.815 3.06342 2.99754 0
M  V30 2129 H 194.999 4.03775 2.88581 0
M  V30 2130 H 190.255 5.44681 2.77728 0
M  V30 2131 H 194.429 6.42901 2.67678 0
M  V30 2132 H 192.056 7.13712 2.61762 0
M  V30 2133 N 193.631 -1.12557 1.10312 0
M  V30 2134 C 194.859 -1.87864 0.866873 0
M  V30 2135 C 195.274 -1.79588 -0.582557 0
M  V30 2136 O 194.631 -1.16887 -1.40156 0
M  V30 2137 C 194.682 -3.37125 1.30496 0
M  V30 2138 O 194.403 -3.45201 2.69755 0
M  V30 2139 C 195.904 -4.29373 1.10243 0
M  V30 2140 H 193.124 -0.594452 0.311236 0
M  V30 2141 H 195.668 -1.42429 1.46745 0
M  V30 2142 H 193.823 -3.80109 0.748081 0
M  V30 2143 H 194.237 -4.38056 2.88457 0
M  V30 2144 H 195.711 -5.32394 1.45811 0
M  V30 2145 H 196.188 -4.39181 0.0409492 0
M  V30 2146 H 196.794 -3.92169 1.64571 0
M  V30 2147 N 195.109 -0.891671 -1.2995 0
M  V30 2148 C 196.019 -0.367691 -2.31701 0
M  V30 2149 C 197.035 0.533486 -1.6562 0
M  V30 2150 O 198.211 0.424997 -1.96865 0
M  V30 2151 C 195.276 0.403406 -3.44345 0
M  V30 2152 C 194.337 -0.528328 -4.26037 0
M  V30 2153 C 193.57 0.206063 -5.33302 0
M  V30 2154 O 193.793 1.43119 -5.52153 0
M  V30 2155 O 192.727 -0.447281 -6.00236 0
M  V30 2156 H 196.553 -1.21163 -2.78484 0
M  V30 2157 H 194.138 -0.655725 -1.34241 0
M  V30 2158 H 196.02 0.839753 -4.12948 0
M  V30 2159 H 194.695 1.22354 -2.99685 0
M  V30 2160 H 193.602 -1.01362 -3.60106 0
M  V30 2161 H 194.935 -1.31465 -4.74318 0
M  V30 2162 N 196.587 1.43421 -0.653314 0
M  V30 2163 C 197.817 2.05864 -0.174238 0
M  V30 2164 C 198.225 1.49052 1.16534 0
M  V30 2165 O 197.568 0.616481 1.73047 0
M  V30 2166 C 197.63 3.59499 -0.00875873 0
M  V30 2167 C 197.294 4.38893 -1.27364 0
M  V30 2168 C 198.291 4.70947 -2.20239 0
M  V30 2169 C 195.976 4.789 -1.51525 0
M  V30 2170 C 197.97 5.41916 -3.35568 0
M  V30 2171 C 195.657 5.49614 -2.67147 0
M  V30 2172 C 196.655 5.81044 -3.58994 0
M  V30 2173 O 196.343 6.50313 -4.72597 0
M  V30 2174 H 196.075 0.670345 -0.0872549 0
M  V30 2175 H 198.629 1.84913 -0.894226 0
M  V30 2176 H 196.859 3.79025 0.7666 0
M  V30 2177 H 198.548 4.0364 0.427687 0
M  V30 2178 H 199.314 4.40558 -2.02815 0
M  V30 2179 H 195.193 4.53843 -0.809158 0
M  V30 2180 H 198.737 5.66365 -4.07279 0
M  V30 2181 H 194.634 5.79419 -2.84505 0
M  V30 2182 H 195.402 6.68795 -4.71864 0
M  V30 2183 N 198.065 0.39524 1.52563 0
M  V30 2184 C 198.995 -0.428384 2.29537 0
M  V30 2185 C 199.976 -1.05831 1.33169 0
M  V30 2186 O 201.161 -1.06995 1.62067 0
M  V30 2187 C 198.291 -1.55274 3.10656 0
M  V30 2188 C 197.245 -1.04855 4.14957 0
M  V30 2189 C 196.571 -2.26543 4.84337 0
M  V30 2190 C 197.871 -0.112324 5.22179 0
M  V30 2191 H 199.565 0.213867 2.98635 0
M  V30 2192 H 197.111 0.104298 1.43622 0
M  V30 2193 H 199.064 -2.1358 3.63265 0
M  V30 2194 H 197.788 -2.22266 2.39302 0
M  V30 2195 H 196.447 -0.487985 3.63338 0
M  V30 2196 H 196.095 -2.92059 4.09525 0
M  V30 2197 H 195.795 -1.93466 5.54837 0
M  V30 2198 H 197.319 -2.85481 5.39753 0
M  V30 2199 H 198.733 -0.603752 5.70112 0
M  V30 2200 H 197.13 0.128968 5.99961 0
M  V30 2201 H 198.2 0.837052 4.77621 0
M  V30 2202 N 199.544 -1.57102 0.125237 0
M  V30 2203 C 200.491 -2.15641 -0.822655 0
M  V30 2204 C 201.461 -1.08313 -1.25927 0
M  V30 2205 O 202.646 -1.36251 -1.33567 0
M  V30 2206 C 199.786 -2.76504 -2.06494 0
M  V30 2207 C 198.899 -3.98158 -1.67612 0
M  V30 2208 C 198.034 -4.47088 -2.86854 0
M  V30 2209 C 197.073 -5.6126 -2.44242 0
M  V30 2210 N 196.21 -6.04905 -3.56419 0
M  V30 2211 H 201.05 -2.96313 -0.316625 0
M  V30 2212 H 198.587 -1.46388 -0.144588 0
M  V30 2213 H 200.545 -3.09925 -2.79289 0
M  V30 2214 H 199.175 -1.98512 -2.54545 0
M  V30 2215 H 198.227 -3.70858 -0.846661 0
M  V30 2216 H 199.539 -4.80934 -1.32301 0
M  V30 2217 H 198.693 -4.82451 -3.67867 0
M  V30 2218 H 197.432 -3.63275 -3.25396 0
M  V30 2219 H 196.437 -5.25495 -1.61663 0
M  V30 2220 H 197.662 -6.46843 -2.0681 0
M  V30 2221 H 195.608 -5.24032 -3.94623 0
M  V30 2222 H 195.525 -6.82552 -3.25051 0
M  V30 2223 H 196.793 -6.44907 -4.37853 0
M  V30 2224 N 201.022 0.148545 -1.56898 0
M  V30 2225 C 202.252 0.875118 -1.8715 0
M  V30 2226 C 202.66 1.75322 -0.711262 0
M  V30 2227 O 202.003 1.80745 0.328151 0
M  V30 2228 C 202.065 1.7844 -3.12089 0
M  V30 2229 C 201.729 1.08361 -4.43967 0
M  V30 2230 C 202.726 0.438247 -5.1805 0
M  V30 2231 C 200.411 1.07358 -4.90693 0
M  V30 2232 C 202.405 -0.20779 -6.37061 0
M  V30 2233 C 200.092 0.42373 -6.09629 0
M  V30 2234 C 201.09 -0.215829 -6.82659 0
M  V30 2235 O 200.778 -0.855378 -7.99336 0
M  V30 2236 H 200.51 0.258504 -0.624621 0
M  V30 2237 H 203.064 0.14652 -2.04877 0
M  V30 2238 H 201.294 2.55389 -2.90367 0
M  V30 2239 H 202.983 2.38279 -3.286 0
M  V30 2240 H 203.749 0.437817 -4.8302 0
M  V30 2241 H 199.628 1.5608 -4.33774 0
M  V30 2242 H 203.172 -0.70758 -6.94002 0
M  V30 2243 H 199.069 0.421822 -6.4412 0
M  V30 2244 H 199.837 -0.756892 -8.14993 0
M  V30 2245 N 202.5 1.5196 0.417844 0
M  V30 2246 C 203.749 1.6482 1.16264 0
M  V30 2247 C 204.062 0.379886 1.91876 0
M  V30 2248 O 205.268 0.388154 2.68711 0
M  V30 2249 C 203.724 2.91161 2.1155 0
M  V30 2250 C 203.332 4.25068 1.41495 0
M  V30 2251 C 205.076 3.13383 2.86341 0
M  V30 2252 C 202.983 5.42541 2.35379 0
M  V30 2253 H 201.913 0.613954 0.437694 0
M  V30 2254 H 204.564 1.78442 0.427871 0
M  V30 2255 H 202.946 2.71218 2.88543 0
M  V30 2256 H 204.12 4.55463 0.699263 0
M  V30 2257 H 202.435 4.0888 0.787792 0
M  V30 2258 H 205.032 3.98324 3.5671 0
M  V30 2259 H 205.375 2.27256 3.48798 0
M  V30 2260 H 205.908 3.33757 2.1645 0
M  V30 2261 H 202.647 6.30987 1.77582 0
M  V30 2262 H 202.167 5.16497 3.04945 0
M  V30 2263 H 203.846 5.75272 2.96093 0
M  V30 2264 N 203.978 -0.674533 1.42435 0
M  V30 2265 C 204.91 -1.80005 1.41883 0
M  V30 2266 C 205.923 -1.59667 0.31787 0
M  V30 2267 O 207.112 -1.68781 0.580973 0
M  V30 2268 C 204.212 -3.17114 1.19549 0
M  V30 2269 C 203.385 -3.64299 2.42084 0
M  V30 2270 C 202.444 -4.80142 2.15291 0
M  V30 2271 O 201.47 -4.90673 2.88493 0
M  V30 2272 N 202.672 -5.68869 1.1562 0
M  V30 2273 H 205.437 -1.80964 2.38898 0
M  V30 2274 H 202.998 -0.857633 1.37318 0
M  V30 2275 H 204.99 -3.92267 0.995417 0
M  V30 2276 H 203.56 -3.11053 0.310569 0
M  V30 2277 H 202.78 -2.79822 2.77657 0
M  V30 2278 H 204.068 -3.92567 3.23679 0
M  V30 2279 H 203.466 -5.63012 0.550765 0
M  V30 2280 H 202.023 -6.43833 1.016 0
M  V30 2281 N 205.456 -1.28612 -0.910864 0
M  V30 2282 C 206.366 -1.14643 -2.0468 0
M  V30 2283 C 207.382 -0.0723121 -1.7385 0
M  V30 2284 O 208.558 -0.282178 -1.99413 0
M  V30 2285 C 205.623 -0.812561 -3.37044 0
M  V30 2286 C 204.684 -1.96935 -3.81465 0
M  V30 2287 C 203.917 -1.65131 -5.07511 0
M  V30 2288 O 204.14 -0.567013 -5.67575 0
M  V30 2289 O 203.074 -2.49585 -5.47714 0
M  V30 2290 H 206.9 -2.1001 -2.19384 0
M  V30 2291 H 204.485 -1.07958 -1.03274 0
M  V30 2292 H 206.367 -0.640441 -4.16505 0
M  V30 2293 H 205.042 0.111426 -3.23508 0
M  V30 2294 H 203.949 -2.19664 -3.02818 0
M  V30 2295 H 205.282 -2.87414 -3.99567 0
M  V30 2296 N 206.934 1.1197 -1.10907 0
M  V30 2297 C 207.882 2.19927 -0.757303 0
M  V30 2298 C 208.876 1.67564 0.248747 0
M  V30 2299 O 210.082 1.79672 0.108605 0
M  V30 2300 H 206.457 0.716925 -0.226987 0
M  V30 2301 H 208.428 2.46847 -1.67658 0
M  V30 2302 C 207.177 3.47061 -0.210671 0
M  V30 2303 H 206.5 3.87703 -0.976049 0
M  V30 2304 H 207.94 4.24 -0.0026584 0
M  V30 2305 C 206.399 3.19864 1.05777 0
M  V30 2306 O 206.929 3.40049 2.13845 0
M  V30 2307 N 205.135 2.73636 0.978349 0
M  V30 2308 H 204.682 2.5741 0.0988246 0
M  V30 2309 H 204.64 2.55815 1.82773 0
M  V30 2310 N 208.412 0.89855 1.29475 0
M  V30 2311 C 209.689 0.443416 1.90508 0
M  V30 2312 C 210.069 -1.07685 1.81569 0
M  V30 2313 O 209.417 -1.9182 1.24166 0
M  V30 2314 C 209.627 0.956708 3.35631 0
M  V30 2315 C 210.975 0.999728 4.12663 0
M  V30 2316 O 211.999 0.904299 3.4453 0
M  V30 2317 O 210.858 1.14289 5.34416 0
M  V30 2318 H 207.952 0.138025 0.815401 0
M  V30 2319 H 210.498 0.98834 1.37949 0
M  V30 2320 H 209.27 2.00067 3.36287 0
M  V30 2321 H 208.893 0.391728 3.95666 0
M  V30 2322 N 209.89 -1.43072 0.660911 0
M  V30 2323 C 210.82 -2.33497 -0.0122829 0
M  V30 2324 C 211.801 -1.49903 -0.803925 0
M  V30 2325 O 212.986 -1.78546 -0.763864 0
M  V30 2326 C 210.116 -3.33363 -0.973994 0
M  V30 2327 C 209.07 -4.27003 -0.291928 0
M  V30 2328 C 208.396 -5.16967 -1.36562 0
M  V30 2329 C 209.696 -5.15816 0.820462 0
M  V30 2330 H 211.39 -2.90038 0.742873 0
M  V30 2331 H 208.936 -1.39461 0.358688 0
M  V30 2332 H 210.889 -3.95524 -1.45392 0
M  V30 2333 H 209.613 -2.75095 -1.7604 0
M  V30 2334 H 208.272 -3.66217 0.167623 0
M  V30 2335 H 207.92 -4.55034 -2.14366 0
M  V30 2336 H 207.62 -5.80441 -0.914454 0
M  V30 2337 H 209.144 -5.82003 -1.84675 0
M  V30 2338 H 210.558 -5.71742 0.422366 0
M  V30 2339 H 208.955 -5.8805 1.19656 0
M  V30 2340 H 210.025 -4.55045 1.67518 0
M  V30 2341 N 211.368 -0.403325 -1.52352 0
M  V30 2342 C 212.617 0.175668 -2.00934 0
M  V30 2343 C 212.93 1.46718 -1.29356 0
M  V30 2344 O 214.136 2.12708 -1.68724 0
M  V30 2345 C 212.592 0.363612 -3.58058 0
M  V30 2346 C 212.2 -0.915472 -4.38547 0
M  V30 2347 C 213.944 0.89821 -4.14888 0
M  V30 2348 C 211.851 -0.695035 -5.87302 0
M  V30 2349 H 210.781 0.0694234 -0.750797 0
M  V30 2350 H 213.432 -0.527879 -1.75743 0
M  V30 2351 H 211.814 1.12935 -3.79555 0
M  V30 2352 H 212.988 -1.68691 -4.28812 0
M  V30 2353 H 211.303 -1.37606 -3.93006 0
M  V30 2354 H 213.9 1.07907 -5.23699 0
M  V30 2355 H 214.243 1.87126 -3.71873 0
M  V30 2356 H 214.776 0.191681 -3.97338 0
M  V30 2357 H 211.515 -1.63948 -6.34666 0
M  V30 2358 H 211.035 0.0372116 -5.99788 0
M  V30 2359 H 212.714 -0.33497 -6.46132 0
M  V30 2360 N 212.846 1.57033 -0.133567 0
M  V30 2361 C 214.092 1.95976 0.521649 0
M  V30 2362 C 214.425 1.01779 1.65393 0
M  V30 2363 O 213.7 0.0576581 1.94415 0
M  V30 2364 C 213.983 3.44738 1.04057 0
M  V30 2365 C 213.836 4.49711 -0.0892897 0
M  V30 2366 C 215.155 3.95682 1.92675 0
M  V30 2367 H 212.274 0.712579 0.188149 0
M  V30 2368 H 214.916 1.88813 -0.212076 0
M  V30 2369 H 213.066 3.50973 1.66583 0
M  V30 2370 H 214.738 4.55565 -0.725152 0
M  V30 2371 H 212.981 4.27261 -0.750378 0
M  V30 2372 H 213.652 5.51099 0.315284 0
M  V30 2373 H 216.128 3.91841 1.39998 0
M  V30 2374 H 215.004 5.00262 2.25897 0
M  V30 2375 H 215.265 3.37239 2.85872 0
M  V30 2376 N 214.325 -0.140222 1.56975 0
M  V30 2377 C 215.602 -0.880769 1.74648 0
M  V30 2378 C 215.982 -1.99036 0.703404 0
M  V30 2379 O 215.33 -2.26821 -0.27648 0
M  V30 2380 C 215.54 -1.417 3.18939 0
M  V30 2381 C 216.888 -1.87774 3.80823 0
M  V30 2382 O 217.912 -1.51427 3.2241 0
M  V30 2383 O 216.771 -2.54827 4.83452 0
M  V30 2384 H 213.865 -0.416713 0.714338 0
M  V30 2385 H 216.411 -0.125618 1.69234 0
M  V30 2386 H 215.183 -0.619902 3.86359 0
M  V30 2387 H 214.806 -2.23546 3.28805 0
M  V30 2388 N 215.803 -1.52179 -0.40978 0
M  V30 2389 C 217.051 -1.65878 -1.15451 0
M  V30 2390 C 217.372 -0.390771 -1.91044 0
M  V30 2391 O 216.642 0.594323 -1.86667 0
M  V30 2392 H 215.222 -0.611405 -0.429177 0
M  V30 2393 H 217.884 -1.89219 -0.467134 0
M  V30 2394 H 216.98 -2.49954 -1.86894 0
M  V30 2395 N 217.281 0.66697 -1.42791 0
M  V30 2396 C 218.244 1.76211 -1.46568 0
M  V30 2397 C 219.244 1.56896 -0.352196 0
M  V30 2398 O 220.434 1.63044 -0.613364 0
M  V30 2399 C 217.566 3.14935 -1.30494 0
M  V30 2400 H 218.759 1.74247 -2.44086 0
M  V30 2401 H 216.312 0.877342 -1.29354 0
M  V30 2402 H 217.047 3.2252 -0.339301 0
M  V30 2403 H 216.832 3.30359 -2.11199 0
M  V30 2404 H 218.322 3.94821 -1.36038 0
M  V30 2405 N 218.759 1.29093 0.90403 0
M  V30 2406 C 219.692 1.08176 2.00931 0
M  V30 2407 C 220.67 -0.005083 1.62599 0
M  V30 2408 O 221.854 0.144765 1.87943 0
M  V30 2409 C 218.981 0.645897 3.32484 0
M  V30 2410 C 218.027 1.73081 3.89801 0
M  V30 2411 S 218.86 3.32905 4.19446 0
M  V30 2412 C 220.016 2.91176 5.54046 0
M  V30 2413 H 220.249 2.01752 2.18365 0
M  V30 2414 H 217.782 1.13191 1.0501 0
M  V30 2415 H 219.74 0.401131 4.08535 0
M  V30 2416 H 218.401 -0.270188 3.12936 0
M  V30 2417 H 217.594 1.37768 4.84805 0
M  V30 2418 H 217.196 1.92888 3.20422 0
M  V30 2419 H 219.488 2.37952 6.34338 0
M  V30 2420 H 220.431 3.85014 5.94281 0
M  V30 2421 H 220.839 2.296 5.15698 0
M  V30 2422 N 220.237 -1.11381 1.11499 0
M  V30 2423 C 221.465 -1.86934 0.88675 0
M  V30 2424 C 221.88 -1.80195 -0.563476 0
M  V30 2425 O 221.237 -1.18367 -1.38908 0
M  V30 2426 C 221.288 -3.35722 1.34064 0
M  V30 2427 O 221.009 -3.4232 2.73401 0
M  V30 2428 C 222.51 -4.2818 1.14791 0
M  V30 2429 H 219.73 -0.591117 0.317523 0
M  V30 2430 H 222.274 -1.40865 1.48248 0
M  V30 2431 H 220.429 -3.79294 0.788355 0
M  V30 2432 H 220.843 -4.34971 2.93087 0
M  V30 2433 H 222.317 -5.30817 1.5145 0
M  V30 2434 H 222.794 -4.39113 0.0875279 0
M  V30 2435 H 223.4 -3.90402 1.68721 0
M  V30 2436 N 221.715 -0.905404 -1.28997 0
M  V30 2437 C 222.992 -0.453513 -1.9027 0
M  V30 2438 C 223.372 1.06721 -1.82137 0
M  V30 2439 O 222.72 1.91159 -1.25182 0
M  V30 2440 C 222.93 -0.974494 -3.35119 0
M  V30 2441 C 224.278 -1.0216 -4.12127 0
M  V30 2442 O 225.302 -0.922557 -3.44046 0
M  V30 2443 O 224.161 -1.17121 -5.33802 0
M  V30 2444 H 221.255 -0.142347 -0.814657 0
M  V30 2445 H 223.801 -0.995642 -1.37423 0
M  V30 2446 H 222.573 -2.01848 -3.35221 0
M  V30 2447 H 222.196 -0.412706 -3.95452 0
M  V30 2448 N 223.193 1.4272 -0.668489 0
M  V30 2449 C 224.604 1.84793 -0.266151 0
M  V30 2450 C 224.955 1.55959 1.19043 0
M  V30 2451 O 224.08 1.01622 1.91055 0
M  V30 2452 C 224.675 3.35436 -0.476271 0
M  V30 2453 C 223.234 3.76182 -0.128113 0
M  V30 2454 C 222.381 2.66344 -0.771777 0
M  V30 2455 H 225.332 1.32656 -0.871098 0
M  V30 2456 H 225.353 3.79515 0.273561 0
M  V30 2457 H 224.865 3.5639 -1.53647 0
M  V30 2458 H 222.966 3.60836 0.928891 0
M  V30 2459 H 223.079 4.75766 -0.564231 0
M  V30 2460 H 221.443 2.53885 -0.203652 0
M  V30 2461 H 222.226 2.90123 -1.83531 0
M  V30 2462 N 224.671 0.411399 1.52136 0
M  V30 2463 C 225.618 -0.412975 2.27075 0
M  V30 2464 C 226.588 -1.03912 1.29582 0
M  V30 2465 O 227.773 -1.06296 1.58448 0
M  V30 2466 C 224.913 -1.52247 3.09701 0
M  V30 2467 C 224.026 -0.917021 4.22155 0
M  V30 2468 C 223.161 -1.9994 4.92135 0
M  V30 2469 C 222.2 -1.37101 5.96548 0
M  V30 2470 N 221.337 -2.39364 6.60038 0
M  V30 2471 H 226.177 0.232499 2.97092 0
M  V30 2472 H 223.714 0.126496 1.46555 0
M  V30 2473 H 225.672 -2.17674 3.55913 0
M  V30 2474 H 224.302 -2.13794 2.41851 0
M  V30 2475 H 223.354 -0.151742 3.80097 0
M  V30 2476 H 224.666 -0.418006 4.97045 0
M  V30 2477 H 223.82 -2.73088 5.41763 0
M  V30 2478 H 222.559 -2.53208 4.16818 0
M  V30 2479 H 221.564 -0.624873 5.46237 0
M  V30 2480 H 222.789 -0.845998 6.7381 0
M  V30 2481 H 220.735 -2.91759 5.87548 0
M  V30 2482 H 220.652 -1.9428 7.3061 0
M  V30 2483 H 221.92 -3.12074 7.14304 0
M  V30 2484 N 226.149 -1.5696 0.141893 0
M  V30 2485 C 227.397 -1.95573 -0.509484 0
M  V30 2486 C 227.718 -1.02746 -1.65736 0
M  V30 2487 O 226.988 -0.0880311 -1.95702 0
M  V30 2488 H 225.568 -0.722115 -0.191205 0
M  V30 2489 H 228.23 -1.93697 0.216196 0
M  V30 2490 H 227.326 -2.99171 -0.889 0
M  V30 2491 N 227.627 0.131896 -1.57047 0
M  V30 2492 C 228.904 0.871495 -1.75112 0
M  V30 2493 C 229.284 1.9866 -0.713949 0
M  V30 2494 O 228.632 2.26965 0.264447 0
M  V30 2495 C 228.842 1.40007 -3.19686 0
M  V30 2496 C 230.19 1.85752 -3.81813 0
M  V30 2497 O 231.214 1.49715 -3.23209 0
M  V30 2498 O 230.073 2.5226 -4.84796 0
M  V30 2499 H 227.167 0.412919 -0.716538 0
M  V30 2500 H 229.713 0.116641 -1.69299 0
M  V30 2501 H 228.485 0.599404 -3.86682 0
M  V30 2502 H 228.108 2.218 -3.29986 0
M  V30 2503 N 229.106 1.52395 0.401703 0
M  V30 2504 C 230.522 1.41363 0.740864 0
M  V30 2505 C 230.722 0.523982 1.94568 0
M  V30 2506 O 229.778 -0.00741204 2.52499 0
M  V30 2507 C 231.091 2.84011 0.987847 0
M  V30 2508 C 232.639 2.93404 1.09011 0
M  V30 2509 C 233.114 4.37036 1.3698 0
M  V30 2510 N 234.605 4.40304 1.43829 0
M  V30 2511 C 235.34 5.48508 1.67112 0
M  V30 2512 N 234.836 6.66819 1.87949 0
M  V30 2513 N 236.629 5.36034 1.69187 0
M  V30 2514 H 228.78 2.08765 -0.391262 0
M  V30 2515 H 231.043 0.941265 -0.112798 0
M  V30 2516 H 230.749 3.51265 0.174835 0
M  V30 2517 H 230.623 3.25502 1.906 0
M  V30 2518 H 233.01 2.26325 1.8937 0
M  V30 2519 H 233.091 2.55359 0.15015 0
M  V30 2520 H 232.735 5.04676 0.571353 0
M  V30 2521 H 232.665 4.72623 2.3224 0
M  V30 2522 H 235.156 3.55024 1.29486 0
M  V30 2523 H 235.469 7.45063 2.05185 0
M  V30 2524 H 233.814 6.6987 1.85199 0
M  V30 2525 H 237.005 4.42579 1.52451 0
M  V30 2526 H 237.178 6.20434 1.86993 0
M  V30 2527 N 230.584 -0.659388 1.43143 0
M  V30 2528 C 231.832 -1.41654 1.44147 0
M  V30 2529 C 232.153 -1.94893 0.0645739 0
M  V30 2530 O 231.423 -1.74044 -0.899198 0
M  V30 2531 H 230.003 -0.525708 0.530697 0
M  V30 2532 H 232.665 -0.778097 1.78694 0
M  V30 2533 H 231.761 -2.26195 2.1504 0
M  V30 2534 N 232.062 -1.29571 -0.897171 0
M  V30 2535 C 232.992 -1.17473 -2.01798 0
M  V30 2536 C 233.973 -0.068323 -1.69963 0
M  V30 2537 O 235.158 -0.248239 -1.92607 0
M  V30 2538 C 232.288 -0.853099 -3.36659 0
M  V30 2539 C 231.242 -1.9161 -3.82713 0
M  V30 2540 C 230.568 -1.44773 -5.14728 0
M  V30 2541 C 231.868 -3.32535 -4.02763 0
M  V30 2542 H 233.562 -2.11237 -2.12177 0
M  V30 2543 H 231.108 -1.01699 -1.01948 0
M  V30 2544 H 233.061 -0.755165 -4.14578 0
M  V30 2545 H 231.785 0.120236 -3.26379 0
M  V30 2546 H 230.444 -2.00346 -3.07013 0
M  V30 2547 H 230.092 -0.462995 -5.00865 0
M  V30 2548 H 229.792 -2.15865 -5.46513 0
M  V30 2549 H 231.316 -1.36334 -5.95185 0
M  V30 2550 H 232.73 -3.26626 -4.71156 0
M  V30 2551 H 231.127 -4.01607 -4.45905 0
M  V30 2552 H 232.197 -3.75326 -3.07016 0
M  V30 2553 N 233.54 1.10788 -1.12088 0
M  V30 2554 C 234.503 2.15207 -0.788577 0
M  V30 2555 C 235.503 1.59609 0.195317 0
M  V30 2556 O 236.693 1.74174 -0.0300193 0
M  V30 2557 C 233.825 3.4047 -0.171174 0
M  V30 2558 H 235.018 2.46116 -1.71368 0
M  V30 2559 H 232.571 1.26089 -0.923652 0
M  V30 2560 H 233.306 3.15176 0.763832 0
M  V30 2561 H 233.091 3.82109 -0.879514 0
M  V30 2562 H 234.581 4.17576 0.04496 0
M  V30 2563 N 235.018 0.912232 1.28515 0
M  V30 2564 C 236.429 0.591352 1.77087 0
M  V30 2565 C 236.78 -0.8933 1.74684 0
M  V30 2566 O 235.905 -1.69876 1.34056 0
M  V30 2567 C 236.5 1.06668 3.2157 0
M  V30 2568 C 235.059 0.79675 3.67871 0
M  V30 2569 C 234.206 1.23427 2.48316 0
M  V30 2570 H 237.157 1.09365 1.15 0
M  V30 2571 H 237.178 0.407455 3.78312 0
M  V30 2572 H 236.69 2.14726 3.23287 0
M  V30 2573 H 234.791 -0.270679 3.71616 0
M  V30 2574 H 234.904 1.40343 4.58084 0
M  V30 2575 H 233.268 0.653036 2.46186 0
M  V30 2576 H 234.051 2.32316 2.52753 0
M  V30 2577 N 236.496 -1.42363 0.676048 0
M  V30 2578 C 237.721 -2.06377 0.205705 0
M  V30 2579 C 238.146 -1.50463 -1.12883 0
M  V30 2580 O 237.504 -0.623619 -1.70237 0
M  V30 2581 C 237.552 -3.60277 0.152655 0
M  V30 2582 O 236.656 -4.02935 -0.87845 0
M  V30 2583 H 235.997 -0.655588 0.105359 0
M  V30 2584 H 238.527 -1.82475 0.925412 0
M  V30 2585 H 238.537 -4.07993 -0.0230675 0
M  V30 2586 H 237.212 -4.00346 1.12675 0
M  V30 2587 H 235.789 -3.66764 -0.673668 0
M  V30 2588 N 237.974 -0.419461 -1.51915 0
M  V30 2589 C 238.937 0.389116 -2.25873 0
M  V30 2590 C 239.937 0.964924 -1.28631 0
M  V30 2591 O 241.127 0.842179 -1.52489 0
M  V30 2592 C 238.259 1.54874 -3.03689 0
M  V30 2593 H 239.452 -0.258799 -2.98781 0
M  V30 2594 H 237.005 -0.172209 -1.55348 0
M  V30 2595 H 237.74 2.23323 -2.35154 0
M  V30 2596 H 237.525 1.14223 -3.75094 0
M  V30 2597 H 239.015 2.12046 -3.59759 0
M  V30 2598 N 239.452 1.56882 -0.150215 0
M  V30 2599 C 240.384 2.14057 0.819286 0
M  V30 2600 C 241.397 1.09082 1.20851 0
M  V30 2601 O 242.586 1.36347 1.15203 0
M  V30 2602 C 239.686 2.65102 2.11127 0
M  V30 2603 C 238.859 3.94511 1.88891 0
M  V30 2604 C 237.918 4.30834 3.02107 0
M  V30 2605 O 236.944 4.99099 2.73659 0
M  V30 2606 N 238.146 3.90676 4.29363 0
M  V30 2607 H 240.911 2.97871 0.330618 0
M  V30 2608 H 238.472 1.61866 0.0332538 0
M  V30 2609 H 240.464 2.86411 2.85921 0
M  V30 2610 H 239.034 1.85994 2.51247 0
M  V30 2611 H 238.254 3.81795 0.981152 0
M  V30 2612 H 239.542 4.7907 1.71376 0
M  V30 2613 H 238.94 3.35677 4.55343 0
M  V30 2614 H 237.497 4.1703 5.00928 0
M  V30 2615 N 240.93 -0.123565 1.57115 0
M  V30 2616 C 241.877 -1.15177 2.00007 0
M  V30 2617 C 242.847 -1.41403 0.871454 0
M  V30 2618 O 244.032 -1.53346 1.13533 0
M  V30 2619 C 241.172 -2.47436 2.40561 0
M  V30 2620 C 240.285 -2.28184 3.66819 0
M  V30 2621 C 239.42 -3.53641 3.96373 0
M  V30 2622 C 238.459 -3.29528 5.15827 0
M  V30 2623 N 237.596 -4.47175 5.41275 0
M  V30 2624 H 242.436 -0.779008 2.87638 0
M  V30 2625 H 239.973 -0.373166 1.42288 0
M  V30 2626 H 241.931 -3.24584 2.62109 0
M  V30 2627 H 240.561 -2.82614 1.55978 0
M  V30 2628 H 239.613 -1.41976 3.52912 0
M  V30 2629 H 240.925 -2.0634 4.5412 0
M  V30 2630 H 240.079 -4.39209 4.18545 0
M  V30 2631 H 238.818 -3.78512 3.07538 0
M  V30 2632 H 237.823 -2.42349 4.93505 0
M  V30 2633 H 239.048 -3.06031 6.06236 0
M  V30 2634 H 236.994 -4.72175 4.55397 0
M  V30 2635 H 236.911 -4.28419 6.22891 0
M  V30 2636 H 238.179 -5.3389 5.67963 0
M  V30 2637 N 242.408 -1.52605 -0.393616 0
M  V30 2638 C 243.685 -1.58001 -1.15304 0
M  V30 2639 C 244.065 -0.370385 -2.07825 0
M  V30 2640 O 243.413 0.641638 -2.19306 0
M  V30 2641 C 243.623 -2.91652 -1.91677 0
M  V30 2642 C 244.971 -3.4522 -2.47201 0
M  V30 2643 O 245.995 -2.93495 -2.01839 0
M  V30 2644 O 244.854 -4.35579 -3.3005 0
M  V30 2645 H 241.948 -0.637068 -0.527327 0
M  V30 2646 H 244.494 -1.64939 -0.399141 0
M  V30 2647 H 243.266 -3.71136 -1.23992 0
M  V30 2648 H 242.889 -2.88077 -2.74039 0
M  V30 2649 N 243.887 0.651787 -1.4349 0
M  V30 2650 C 245.298 1.233 -1.40193 0
M  V30 2651 C 245.649 1.9591 -0.106727 0
M  V30 2652 O 244.774 2.01316 0.793773 0
M  V30 2653 C 245.369 2.24257 -2.53957 0
M  V30 2654 C 243.928 2.77852 -2.5392 0
M  V30 2655 C 243.075 1.52517 -2.3159 0
M  V30 2656 H 246.026 0.443717 -1.52371 0
M  V30 2657 H 246.047 3.0646 -2.25528 0
M  V30 2658 H 245.559 1.71382 -3.4821 0
M  V30 2659 H 243.66 3.34786 -1.63551 0
M  V30 2660 H 243.773 3.25299 -3.51735 0
M  V30 2661 H 242.137 1.79915 -1.80285 0
M  V30 2662 H 242.92 1.01574 -3.27929 0
M  V30 2663 N 245.365 1.30045 0.890287 0
M  V30 2664 C 246.642 1.09227 1.62262 0
M  V30 2665 C 247.022 -0.360305 2.08002 0
M  V30 2666 O 246.37 -1.35084 1.84295 0
M  V30 2667 C 246.58 2.08835 2.79623 0
M  V30 2668 C 247.928 2.40266 3.50082 0
M  V30 2669 O 248.952 2.07104 2.89804 0
M  V30 2670 O 247.811 2.96967 4.58773 0
M  V30 2671 H 244.905 0.419132 0.712922 0
M  V30 2672 H 247.451 1.41451 0.937529 0
M  V30 2673 H 246.223 3.06633 2.43089 0
M  V30 2674 H 245.846 1.77397 3.55832 0
M  V30 2675 N 246.843 -1.10192 1.12674 0
M  V30 2676 C 247.773 -2.18652 0.819362 0
M  V30 2677 C 248.754 -1.68698 -0.217915 0
M  V30 2678 O 249.939 -1.94041 -0.0785581 0
M  V30 2679 C 247.069 -3.46202 0.27594 0
M  V30 2680 C 246.023 -4.09444 1.24656 0
M  V30 2681 C 245.349 -5.31725 0.563258 0
M  V30 2682 C 246.649 -4.52863 2.60217 0
M  V30 2683 H 248.343 -2.44622 1.72628 0
M  V30 2684 H 245.889 -1.17571 0.831451 0
M  V30 2685 H 247.842 -4.21372 0.0486149 0
M  V30 2686 H 246.566 -3.1973 -0.666331 0
M  V30 2687 H 245.225 -3.36284 1.45974 0
M  V30 2688 H 244.873 -5.0153 -0.384235 0
M  V30 2689 H 244.573 -5.74991 1.21075 0
M  V30 2690 H 246.097 -6.09624 0.34503 0
M  V30 2691 H 247.511 -5.19294 2.42913 0
M  V30 2692 H 245.908 -5.06986 3.21068 0
M  V30 2693 H 246.978 -3.65656 3.18471 0
M  V30 2694 N 248.321 -0.919034 -1.28029 0
M  V30 2695 C 249.568 -0.554934 -1.94748 0
M  V30 2696 C 249.896 0.90231 -1.72304 0
M  V30 2697 O 249.151 1.65767 -1.04018 0
M  V30 2698 C 249.45 -0.816855 -3.4794 0
M  V30 2699 C 249.116 -2.25448 -3.90492 0
M  V30 2700 C 247.778 -2.64752 -4.01821 0
M  V30 2701 C 250.13 -3.18977 -4.12193 0
M  V30 2702 C 247.458 -3.96727 -4.32232 0
M  V30 2703 C 249.81 -4.50523 -4.44086 0
M  V30 2704 C 248.474 -4.89673 -4.53626 0
M  V30 2705 H 247.744 -0.203065 -0.712633 0
M  V30 2706 H 250.391 -1.16136 -1.52265 0
M  V30 2707 H 248.696 -0.127677 -3.91592 0
M  V30 2708 H 250.393 -0.514238 -3.97689 0
M  V30 2709 H 246.983 -1.93952 -3.82205 0
M  V30 2710 H 251.167 -2.89817 -4.02889 0
M  V30 2711 H 246.423 -4.26754 -4.37825 0
M  V30 2712 H 250.597 -5.23005 -4.59825 0
M  V30 2713 H 248.224 -5.91969 -4.76946 0
M  V30 2714 N 249.799 1.42003 -0.683588 0
M  V30 2715 C 250.729 2.33487 -0.024866 0
M  V30 2716 C 251.71 1.51163 0.779975 0
M  V30 2717 O 252.895 1.79739 0.735362 0
M  V30 2718 C 250.025 3.3487 0.920836 0
M  V30 2719 C 248.979 4.27414 0.223958 0
M  V30 2720 C 248.305 5.19074 1.2832 0
M  V30 2721 C 249.605 5.14445 -0.90242 0
M  V30 2722 H 251.299 2.88819 -0.788921 0
M  V30 2723 H 248.845 1.38873 -0.38083 0
M  V30 2724 H 250.798 3.97787 1.39081 0
M  V30 2725 H 249.522 2.77861 1.71642 0
M  V30 2726 H 248.181 3.65904 -0.225864 0
M  V30 2727 H 247.829 4.58387 2.071 0
M  V30 2728 H 247.529 5.81822 0.821995 0
M  V30 2729 H 249.053 5.84867 1.75392 0
M  V30 2730 H 250.467 5.70998 -0.513272 0
M  V30 2731 H 248.864 5.86072 -1.28997 0
M  V30 2732 H 249.934 4.52322 -1.74737 0
M  V30 2733 N 251.277 0.427512 1.51691 0
M  V30 2734 C 252.693 0.0792977 1.59403 0
M  V30 2735 C 252.893 -1.41035 1.43914 0
M  V30 2736 O 251.949 -2.17922 1.27539 0
M  V30 2737 C 253.262 0.590636 2.94842 0
M  V30 2738 C 254.81 0.550215 3.08126 0
M  V30 2739 C 255.285 1.03836 4.46074 0
M  V30 2740 N 256.776 0.995943 4.52366 0
M  V30 2741 C 257.511 1.34463 5.57411 0
M  V30 2742 N 257.007 1.76569 6.69922 0
M  V30 2743 N 258.8 1.26343 5.47717 0
M  V30 2744 H 250.951 1.39687 1.60004 0
M  V30 2745 H 253.214 0.575003 0.753708 0
M  V30 2746 H 252.92 1.63251 3.11516 0
M  V30 2747 H 252.794 0.0102061 3.77199 0
M  V30 2748 H 255.181 -0.482654 2.91126 0
M  V30 2749 H 255.262 1.16693 2.27632 0
M  V30 2750 H 254.906 2.06965 4.63819 0
M  V30 2751 H 254.836 0.398286 5.25092 0
M  V30 2752 H 257.327 0.68661 3.7161 0
M  V30 2753 H 257.64 2.01438 7.46085 0
M  V30 2754 H 255.985 1.80488 6.71155 0
M  V30 2755 H 259.176 0.933209 4.58703 0
M  V30 2756 H 259.349 1.53846 6.29472 0
M  V30 2757 N 252.755 -1.56801 0.158532 0
M  V30 2758 C 254.004 -1.95665 -0.489702 0
M  V30 2759 C 254.317 -1.04654 -1.65248 0
M  V30 2760 O 255.523 -1.33146 -2.3661 0
M  V30 2761 C 253.979 -3.47874 -0.922582 0
M  V30 2762 C 253.587 -4.47489 0.213893 0
M  V30 2763 C 255.331 -3.95583 -1.53996 0
M  V30 2764 C 253.238 -5.90921 -0.237903 0
M  V30 2765 H 252.168 -0.730516 -0.186716 0
M  V30 2766 H 254.819 -1.81861 0.244722 0
M  V30 2767 H 253.201 -3.57051 -1.71261 0
M  V30 2768 H 254.375 -4.50017 0.991036 0
M  V30 2769 H 252.69 -4.09764 0.740407 0
M  V30 2770 H 255.287 -5.0019 -1.8898 0
M  V30 2771 H 255.63 -3.37789 -2.43319 0
M  V30 2772 H 256.163 -3.8937 -0.814611 0
M  V30 2773 H 252.902 -6.52559 0.620236 0
M  V30 2774 H 252.422 -5.91729 -0.980676 0
M  V30 2775 H 254.101 -6.43352 -0.686067 0
M  V30 2776 N 254.233 0.115231 -1.57178 0
M  V30 2777 C 255.479 0.82357 -1.85325 0
M  V30 2778 C 255.812 1.79349 -0.744814 0
M  V30 2779 O 255.087 1.92899 0.249024 0
M  V30 2780 C 255.37 1.57014 -3.24066 0
M  V30 2781 C 255.223 0.619565 -4.45513 0
M  V30 2782 C 256.542 2.52545 -3.60429 0
M  V30 2783 H 253.661 0.297948 -0.674089 0
M  V30 2784 H 256.303 0.0877138 -1.89797 0
M  V30 2785 H 254.453 2.19742 -3.20383 0
M  V30 2786 H 256.125 0.000837639 -4.613 0
M  V30 2787 H 254.368 -0.0686174 -4.33746 0
M  V30 2788 H 255.039 1.17866 -5.3927 0
M  V30 2789 H 257.515 1.9992 -3.64926 0
M  V30 2790 H 256.391 3.01811 -4.58477 0
M  V30 2791 H 256.652 3.35383 -2.88047 0
M  V30 2792 N 255.711 1.52812 0.385517 0
M  V30 2793 C 256.621 1.80766 1.49535 0
M  V30 2794 C 257.637 0.694651 1.59532 0
M  V30 2795 O 258.813 0.982611 1.75803 0
M  V30 2796 C 255.878 1.97381 2.85029 0
M  V30 2797 C 254.939 3.21295 2.84724 0
M  V30 2798 C 254.172 3.37108 4.13756 0
M  V30 2799 O 254.395 2.5765 5.08893 0
M  V30 2800 O 253.329 4.30378 4.20783 0
M  V30 2801 H 257.155 2.75015 1.28842 0
M  V30 2802 H 254.74 1.37946 0.573697 0
M  V30 2803 H 256.622 2.09996 3.65349 0
M  V30 2804 H 255.297 1.06322 3.05741 0
M  V30 2805 H 254.204 3.1412 2.03174 0
M  V30 2806 H 255.537 4.12212 2.68965 0
M  V30 2807 N 257.189 -0.644168 1.43834 0
M  V30 2808 C 258.136 -1.75671 1.49694 0
M  V30 2809 C 259.106 -1.6246 0.345809 0
M  V30 2810 O 260.291 -1.82573 0.554234 0
M  V30 2811 C 257.431 -3.13867 1.43463 0
M  V30 2812 C 256.544 -3.38147 2.6885 0
M  V30 2813 C 255.679 -4.66241 2.54544 0
M  V30 2814 C 254.718 -4.83657 3.75157 0
M  V30 2815 N 253.855 -6.03016 3.59605 0
M  V30 2816 H 258.695 -1.69998 2.44754 0
M  V30 2817 H 256.232 -0.829458 1.21484 0
M  V30 2818 H 258.19 -3.9377 1.37843 0
M  V30 2819 H 256.82 -3.18588 0.519783 0
M  V30 2820 H 255.872 -2.52276 2.84712 0
M  V30 2821 H 257.184 -3.46899 3.58417 0
M  V30 2822 H 256.338 -5.54285 2.46683 0
M  V30 2823 H 255.077 -4.59826 1.62516 0
M  V30 2824 H 254.082 -3.94046 3.83416 0
M  V30 2825 H 255.307 -4.91896 4.68204 0
M  V30 2826 H 253.253 -5.97715 2.7032 0
M  V30 2827 H 253.17 -6.12766 4.42779 0
M  V30 2828 H 254.438 -6.93657 3.55613 0
M  V30 2829 N 258.668 -1.30515 -0.883378 0
M  V30 2830 C 260.084 -1.08881 -1.16692 0
M  V30 2831 C 260.284 0.149409 -2.00945 0
M  V30 2832 O 259.34 0.84257 -2.38027 0
M  V30 2833 C 260.653 -2.35319 -1.87204 0
M  V30 2834 C 262.201 -2.40799 -1.99962 0
M  V30 2835 C 262.676 -3.67083 -2.73887 0
M  V30 2836 N 264.167 -3.679 -2.81432 0
M  V30 2837 C 264.902 -4.62303 -3.3921 0
M  V30 2838 N 264.398 -5.67052 -3.98025 0
M  V30 2839 N 266.191 -4.49845 -3.3704 0
M  V30 2840 H 258.342 -2.09951 -0.321633 0
M  V30 2841 H 260.605 -0.92556 -0.205043 0
M  V30 2842 H 260.311 -3.25689 -1.3274 0
M  V30 2843 H 260.185 -2.44089 -2.87577 0
M  V30 2844 H 262.572 -1.50907 -2.53597 0
M  V30 2845 H 262.653 -2.36003 -0.98673 0
M  V30 2846 H 262.297 -4.57334 -2.20925 0
M  V30 2847 H 262.227 -3.69141 -3.75556 0
M  V30 2848 H 264.718 -2.92171 -2.39676 0
M  V30 2849 H 265.031 -6.35184 -4.40183 0
M  V30 2850 H 263.376 -5.70842 -3.96439 0
M  V30 2851 H 266.567 -3.67194 -2.90321 0
M  V30 2852 H 266.74 -5.23597 -3.81772 0
M  V30 2853 N 260.146 1.09593 -1.13257 0
M  V30 2854 C 261.056 2.19739 -0.821691 0
M  V30 2855 C 262.072 1.72926 0.19302 0
M  V30 2856 O 263.248 2.01385 0.0244895 0
M  V30 2857 C 260.313 3.45482 -0.290333 0
M  V30 2858 C 259.374 4.06985 -1.36607 0
M  V30 2859 C 258.607 5.26726 -0.859975 0
M  V30 2860 O 258.83 5.69594 0.303082 0
M  V30 2861 O 257.764 5.7931 -1.63351 0
M  V30 2862 H 261.59 2.48781 -1.74189 0
M  V30 2863 H 259.175 1.18496 -0.909894 0
M  V30 2864 H 261.057 4.214 0.000674022 0
M  V30 2865 H 259.732 3.18047 0.602306 0
M  V30 2866 H 258.639 3.32712 -1.71037 0
M  V30 2867 H 259.972 4.38643 -2.23279 0
M  V30 2868 N 261.624 0.925811 1.2754 0
M  V30 2869 C 262.901 0.483726 1.89524 0
M  V30 2870 C 263.281 -1.03809 1.83812 0
M  V30 2871 O 262.629 -1.89143 1.28207 0
M  V30 2872 C 262.839 1.02769 3.33526 0
M  V30 2873 C 264.187 1.08703 4.10449 0
M  V30 2874 O 265.211 0.977175 3.42534 0
M  V30 2875 O 264.07 1.25599 5.31871 0
M  V30 2876 H 261.164 0.15529 0.812289 0
M  V30 2877 H 263.71 1.01738 1.35822 0
M  V30 2878 H 262.482 2.07155 3.31967 0
M  V30 2879 H 262.105 0.475567 3.94746 0
M  V30 2880 N 263.102 -1.41638 0.69111 0
M  V30 2881 C 264.35 -2.00902 0.219758 0
M  V30 2882 C 264.671 -1.54994 -1.18329 0
M  V30 2883 O 263.941 -0.778628 -1.79762 0
M  V30 2884 H 262.521 -0.74289 0.0782558 0
M  V30 2885 H 265.183 -1.73327 0.891271 0
M  V30 2886 H 264.279 -3.11224 0.233708 0
M  V30 2887 N 264.58 -0.43555 -1.51462 0
M  V30 2888 C 265.829 0.133007 -2.01261 0
M  V30 2889 C 266.142 1.43942 -1.32439 0
M  V30 2890 O 267.348 2.09081 -1.73198 0
M  V30 2891 C 265.804 0.287581 -3.58749 0
M  V30 2892 C 265.412 -1.00829 -4.36506 0
M  V30 2893 C 267.156 0.810004 -4.167 0
M  V30 2894 C 265.063 -0.819454 -5.85695 0
M  V30 2895 H 263.993 0.0534822 -0.752101 0
M  V30 2896 H 266.644 -0.565038 -1.74584 0
M  V30 2897 H 265.026 1.04859 -3.81865 0
M  V30 2898 H 266.2 -1.77749 -4.25138 0
M  V30 2899 H 264.515 -1.45911 -3.89999 0
M  V30 2900 H 267.112 0.967743 -5.2587 0
M  V30 2901 H 267.455 1.79196 -3.75758 0
M  V30 2902 H 267.988 0.107357 -3.97655 0
M  V30 2903 H 264.727 -1.77374 -6.31046 0
M  V30 2904 H 264.247 -0.0900208 -5.99732 0
M  V30 2905 H 265.926 -0.471949 -6.45276 0
M  V30 2906 N 266.058 1.56714 -0.166846 0
M  V30 2907 C 267.304 1.97039 0.479962 0
M  V30 2908 C 267.637 1.05264 1.63197 0
M  V30 2909 O 266.912 0.0988833 1.94248 0
M  V30 2910 C 267.195 3.46867 0.967212 0
M  V30 2911 C 267.048 4.49421 -0.18466 0
M  V30 2912 C 268.367 3.9968 1.84238 0
M  V30 2913 H 265.486 0.71641 0.172992 0
M  V30 2914 H 268.128 1.8832 -0.252079 0
M  V30 2915 H 266.278 3.54428 1.59101 0
M  V30 2916 H 267.95 4.53924 -0.821621 0
M  V30 2917 H 266.193 4.25573 -0.840837 0
M  V30 2918 H 266.864 5.51644 0.198317 0
M  V30 2919 H 269.34 3.94723 1.31655 0
M  V30 2920 H 268.216 5.04941 2.15234 0
M  V30 2921 H 268.477 3.43226 2.78654 0
M  V30 2922 N 267.536 -0.106894 1.57237 0
M  V30 2923 C 268.782 -0.81373 1.85759 0
M  V30 2924 C 269.115 -1.78952 0.754315 0
M  V30 2925 O 268.39 -1.93029 -0.23879 0
M  V30 2926 C 268.673 -1.55293 3.24894 0
M  V30 2927 C 268.526 -0.595929 4.45835 0
M  V30 2928 C 269.845 -2.5063 3.61763 0
M  V30 2929 H 266.964 -0.294369 0.67566 0
M  V30 2930 H 269.606 -0.0776472 1.89841 0
M  V30 2931 H 267.756 -2.1804 3.21544 0
M  V30 2932 H 269.428 0.0236262 4.61294 0
M  V30 2933 H 267.671 0.0916191 4.33703 0
M  V30 2934 H 268.342 -1.15004 5.39887 0
M  V30 2935 H 270.818 -1.97982 3.65981 0
M  V30 2936 H 269.694 -2.99376 4.60071 0
M  V30 2937 H 269.955 -3.3385 2.89821 0
M  V30 2938 N 269.014 -1.53014 -0.377408 0
M  V30 2939 C 270.43 -1.42523 -0.718281 0
M  V30 2940 C 270.63 -0.55487 -1.9371 0
M  V30 2941 O 269.686 -0.0327593 -2.52479 0
M  V30 2942 C 270.999 -2.85546 -0.942539 0
M  V30 2943 C 272.547 -2.95101 -1.04329 0
M  V30 2944 C 273.022 -4.3916 -1.3001 0
M  V30 2945 N 274.513 -4.42536 -1.36806 0
M  V30 2946 C 275.248 -5.51097 -1.58364 0
M  V30 2947 N 274.744 -6.69724 -1.77317 0
M  V30 2948 N 276.537 -5.38657 -1.60638 0
M  V30 2949 H 268.688 -2.08116 0.424426 0
M  V30 2950 H 270.951 -0.939352 0.127759 0
M  V30 2951 H 270.657 -3.51499 -0.118929 0
M  V30 2952 H 270.531 -3.28493 -1.85397 0
M  V30 2953 H 272.918 -2.29309 -1.85745 0
M  V30 2954 H 272.999 -2.55566 -0.109505 0
M  V30 2955 H 272.643 -5.05521 -0.490991 0
M  V30 2956 H 272.573 -4.76258 -2.24691 0
M  V30 2957 H 275.064 -3.57039 -1.23821 0
M  V30 2958 H 275.377 -7.48233 -1.93306 0
M  V30 2959 H 273.722 -6.72732 -1.74518 0
M  V30 2960 H 276.913 -4.44948 -1.45391 0
M  V30 2961 H 277.086 -6.2333 -1.77098 0
M  V30 2962 N 270.492 0.636531 -1.44174 0
M  V30 2963 C 271.74 1.39343 -1.46383 0
M  V30 2964 C 272.061 1.94766 -0.0955715 0
M  V30 2965 O 271.331 1.75452 0.871395 0
M  V30 2966 H 269.911 0.517199 -0.538994 0
M  V30 2967 H 272.573 0.74957 -1.7991 0
M  V30 2968 H 271.669 2.22746 -2.18611 0
M  V30 2969 N 271.97 1.30982 0.876444 0
M  V30 2970 C 272.933 1.18054 1.96459 0
M  V30 2971 C 273.933 0.109399 1.60427 0
M  V30 2972 O 275.123 0.358173 1.70478 0
M  V30 2973 C 272.255 0.810616 3.31122 0
M  V30 2974 H 273.448 2.14735 2.09354 0
M  V30 2975 H 271.001 1.145 1.06392 0
M  V30 2976 H 271.736 -0.155322 3.23928 0
M  V30 2977 H 271.521 1.58481 3.58645 0
M  V30 2978 H 273.011 0.743876 4.10921 0
M  V30 2979 N 273.449 -1.08991 1.13837 0
M  V30 2980 C 274.396 -2.15748 0.819835 0
M  V30 2981 C 275.366 -1.64636 -0.220026 0
M  V30 2982 O 276.551 -1.90582 -0.0912757 0
M  V30 2983 C 273.691 -3.4382 0.296913 0
M  V30 2984 C 272.804 -4.0881 1.39636 0
M  V30 2985 C 271.939 -5.24655 0.831314 0
M  V30 2986 C 270.978 -5.81575 1.90886 0
M  V30 2987 N 270.115 -6.88774 1.36142 0
M  V30 2988 H 274.955 -2.42338 1.73426 0
M  V30 2989 H 272.492 -1.18935 0.865613 0
M  V30 2990 H 274.45 -4.17193 -0.0244339 0
M  V30 2991 H 273.08 -3.17535 -0.580628 0
M  V30 2992 H 272.132 -3.33258 1.83422 0
M  V30 2993 H 273.444 -4.47141 2.21058 0
M  V30 2994 H 272.598 -6.04942 0.461515 0
M  V30 2995 H 271.337 -4.87698 -0.013932 0
M  V30 2996 H 270.342 -4.99946 2.28767 0
M  V30 2997 H 271.567 -6.20592 2.75758 0
M  V30 2998 H 269.513 -6.53788 0.538254 0
M  V30 2999 H 269.43 -7.25898 2.11208 0
M  V30 3000 H 270.698 -7.72806 1.01933 0
M  V30 3001 N 274.927 -0.932562 -1.27047 0
M  V30 3002 C 275.89 -0.440064 -2.24936 0
M  V30 3003 C 276.89 0.444071 -1.54547 0
M  V30 3004 O 278.08 0.244465 -1.72476 0
M  V30 3005 C 275.212 0.36678 -3.38921 0
M  V30 3006 H 276.405 -1.305 -2.70018 0
M  V30 3007 H 273.958 -0.713707 -1.39054 0
M  V30 3008 H 274.693 1.25033 -2.99228 0
M  V30 3009 H 274.478 -0.267204 -3.91188 0
M  V30 3010 H 275.968 0.701567 -4.11665 0
M  V30 3011 N 276.405 1.4127 -0.698611 0
M  V30 3012 C 277.355 2.27997 -0.0119836 0
M  V30 3013 C 278.339 1.42363 0.749765 0
M  V30 3014 O 279.531 1.65607 0.624758 0
M  V30 3015 C 276.66 3.30702 0.921458 0
M  V30 3016 C 275.746 4.23814 0.155796 0
M  V30 3017 N 276.137 4.98572 -0.852015 0
M  V30 3018 C 274.435 4.44284 0.390836 0
M  V30 3019 C 275.136 5.66744 -1.3106 0
M  V30 3020 N 274.112 5.39867 -0.635944 0
M  V30 3021 H 277.914 2.83232 -0.784649 0
M  V30 3022 H 275.428 1.53518 -0.529711 0
M  V30 3023 H 277.425 3.91661 1.42854 0
M  V30 3024 H 276.085 2.77028 1.69369 0
M  V30 3025 H 277.096 5.03024 -1.23235 0
M  V30 3026 H 273.773 4.01614 1.14071 0
M  V30 3027 H 275.163 6.36672 -2.14707 0
M  V30 3028 N 277.883 0.443576 1.51229 0
M  V30 3029 C 278.815 -0.400608 2.25672 0
M  V30 3030 C 279.828 -0.980945 1.29928 0
M  V30 3031 O 281.017 -0.874024 1.55638 0
M  V30 3032 C 278.117 -1.57304 3.00181 0
M  V30 3033 C 277.29 -1.11046 4.23069 0
M  V30 3034 C 276.349 -2.15374 4.80105 0
M  V30 3035 O 275.375 -1.74554 5.41774 0
M  V30 3036 N 276.577 -3.47922 4.64683 0
M  V30 3037 H 279.342 0.23745 2.98758 0
M  V30 3038 H 276.903 0.272809 1.59585 0
M  V30 3039 H 278.895 -2.26733 3.35223 0
M  V30 3040 H 277.465 -2.11632 2.30066 0
M  V30 3041 H 276.685 -0.243019 3.9345 0
M  V30 3042 H 277.973 -0.778888 5.02803 0
M  V30 3043 H 277.371 -3.83815 4.15575 0
M  V30 3044 H 275.928 -4.13228 5.0407 0
M  V30 3045 N 279.361 -1.56624 0.175154 0
M  V30 3046 C 280.589 -2.01374 -0.474971 0
M  V30 3047 C 281.004 -1.05537 -1.56548 0
M  V30 3048 O 280.361 -0.0568668 -1.82411 0
M  V30 3049 C 280.412 -3.45923 -1.04975 0
M  V30 3050 O 280.133 -4.381 -0.00276605 0
M  V30 3051 C 281.634 -4.06093 -1.77773 0
M  V30 3052 H 278.854 -0.659962 -0.121206 0
M  V30 3053 H 281.398 -2.02601 0.27801 0
M  V30 3054 H 279.553 -3.45458 -1.75321 0
M  V30 3055 H 279.967 -5.22753 -0.427681 0
M  V30 3056 H 281.441 -5.09147 -2.13245 0
M  V30 3057 H 281.918 -3.48405 -2.67414 0
M  V30 3058 H 282.524 -4.10272 -1.12059 0
M  V30 3059 N 280.839 0.0985539 -1.57292 0
M  V30 3060 C 282.087 0.801092 -1.85545 0
M  V30 3061 C 282.408 1.79438 -0.763353 0
M  V30 3062 O 281.678 1.94763 0.21073 0
M  V30 3063 H 280.258 0.29884 -0.684619 0
M  V30 3064 H 282.92 0.0810064 -1.94732 0
M  V30 3065 H 282.016 1.3338 -2.82163 0
M  V30 3066 N 282.317 1.53212 0.369288 0
M  V30 3067 C 283.542 1.73423 1.1375 0
M  V30 3068 C 283.967 0.460404 1.82378 0
M  V30 3069 O 283.325 -0.585298 1.71592 0
M  V30 3070 C 283.373 2.89769 2.1463 0
M  V30 3071 O 282.477 2.58119 3.21634 0
M  V30 3072 H 281.818 0.576061 0.330227 0
M  V30 3073 H 284.348 2.00083 0.427547 0
M  V30 3074 H 284.358 3.15829 2.58294 0
M  V30 3075 H 283.033 3.8217 1.64071 0
M  V30 3076 H 281.61 2.42864 2.82969 0
M  V30 3077 N 283.795 -0.628877 1.44509 0
M  V30 3078 C 285.044 -1.38437 1.4669 0
M  V30 3079 C 285.357 -1.95322 0.104272 0
M  V30 3080 O 286.563 -2.715 0.00362163 0
M  V30 3081 C 285.019 -2.50659 2.5826 0
M  V30 3082 C 284.627 -2.00277 4.0074 0
M  V30 3083 C 286.371 -3.27844 2.69664 0
M  V30 3084 C 284.278 -3.09854 5.0373 0
M  V30 3085 H 283.208 -0.520245 0.545766 0
M  V30 3086 H 285.859 -0.676313 1.70582 0
M  V30 3087 H 284.241 -3.2405 2.27612 0
M  V30 3088 H 285.415 -1.33736 4.40966 0
M  V30 3089 H 283.73 -1.35901 3.93599 0
M  V30 3090 H 286.327 -4.09534 3.43781 0
M  V30 3091 H 286.67 -3.77471 1.75559 0
M  V30 3092 H 287.203 -2.61543 2.99733 0
M  V30 3093 H 283.942 -2.65168 5.99472 0
M  V30 3094 H 283.462 -3.7503 4.68095 0
M  V30 3095 H 285.141 -3.74592 5.27532 0
M  V30 3096 N 285.273 -1.31445 -0.869486 0
M  V30 3097 C 286.221 -1.19067 -1.99814 0
M  V30 3098 C 287.215 -0.0988569 -1.69111 0
M  V30 3099 O 288.421 -0.260781 -1.78101 0
M  V30 3100 H 284.796 -0.368677 -0.655425 0
M  V30 3101 H 286.767 -2.14555 -2.07385 0
M  V30 3102 C 285.516 -0.915323 -3.35436 0
M  V30 3103 H 284.839 -1.74759 -3.59582 0
M  V30 3104 H 286.279 -0.868895 -4.15001 0
M  V30 3105 C 284.738 0.381928 -3.34728 0
M  V30 3106 O 285.268 1.39857 -3.76567 0
M  V30 3107 N 283.474 0.398633 -2.87853 0
M  V30 3108 H 283.021 -0.429186 -2.54 0
M  V30 3109 H 282.979 1.26651 -2.87762 0
M  V30 3110 N 286.751 1.08385 -1.14413 0
M  V30 3111 C 287.976 1.85057 -0.936413 0
M  V30 3112 C 288.401 1.81055 0.509971 0
M  V30 3113 O 287.759 1.1958 1.36273 0
M  V30 3114 C 287.807 3.30505 -1.44217 0
M  V30 3115 O 286.911 4.07491 -0.634409 0
M  V30 3116 H 286.252 0.573425 -0.334784 0
M  V30 3117 H 288.782 1.36799 -1.52142 0
M  V30 3118 H 288.792 3.81348 -1.45043 0
M  V30 3119 H 287.467 3.32734 -2.49522 0
M  V30 3120 H 286.044 3.66368 -0.694902 0
M  V30 3121 N 288.23 0.939286 1.26551 0
M  V30 3122 C 289.18 0.418284 2.2413 0
M  V30 3123 C 290.164 -0.483935 1.5345 0
M  V30 3124 O 291.356 -0.319489 1.74093 0
M  V30 3125 C 288.485 -0.31709 3.41832 0
M  V30 3126 C 287.571 0.602311 4.19801 0
M  V30 3127 N 287.962 1.72726 4.75394 0
M  V30 3128 C 286.26 0.407534 4.44134 0
M  V30 3129 C 286.961 2.30004 5.34297 0
M  V30 3130 N 285.937 1.58828 5.1988 0
M  V30 3131 H 289.739 1.27705 2.64705 0
M  V30 3132 H 287.253 0.794929 1.41614 0
M  V30 3133 H 289.25 -0.707364 4.10855 0
M  V30 3134 H 287.91 -1.17264 3.02786 0
M  V30 3135 H 288.921 2.10944 4.72994 0
M  V30 3136 H 285.598 -0.406406 4.15517 0
M  V30 3137 H 286.988 3.24778 5.88191 0
M  V30 3138 N 289.708 -1.40897 0.706093 0
M  V30 3139 C 290.618 -2.3455 0.0482286 0
M  V30 3140 C 291.634 -1.56796 -0.754396 0
M  V30 3141 O 292.81 -1.89228 -0.689538 0
M  V30 3142 C 289.875 -3.35625 -0.869303 0
M  V30 3143 C 288.936 -4.29261 -0.0576994 0
M  V30 3144 C 288.169 -5.25508 -0.931531 0
M  V30 3145 O 288.392 -5.27472 -2.17092 0
M  V30 3146 O 287.326 -6.00727 -0.375587 0
M  V30 3147 H 291.152 -2.92407 0.820476 0
M  V30 3148 H 288.737 -1.4193 0.4665 0
M  V30 3149 H 290.619 -3.97635 -1.39514 0
M  V30 3150 H 289.294 -2.80196 -1.62086 0
M  V30 3151 H 288.201 -3.70566 0.512988 0
M  V30 3152 H 289.534 -4.87817 0.655426 0
M  V30 3153 N 291.186 -0.45159 -1.50991 0
M  V30 3154 C 292.136 0.370861 -2.24964 0
M  V30 3155 C 293.12 0.978074 -1.2776 0
M  V30 3156 O 294.312 0.893854 -1.52772 0
M  V30 3157 C 291.441 1.46344 -3.10545 0
M  V30 3158 C 290.527 0.864924 -4.15187 0
M  V30 3159 N 290.918 -0.00311354 -5.058 0
M  V30 3160 C 289.216 1.13099 -4.31422 0
M  V30 3161 C 289.917 -0.340772 -5.80701 0
M  V30 3162 N 288.893 0.279203 -5.42883 0
M  V30 3163 H 292.695 -0.298134 -2.92384 0
M  V30 3164 H 290.209 -0.264528 -1.60231 0
M  V30 3165 H 292.206 2.06565 -3.62128 0
M  V30 3166 H 290.866 2.13463 -2.4467 0
M  V30 3167 H 291.877 -0.37058 -5.16572 0
M  V30 3168 H 288.554 1.79861 -3.76771 0
M  V30 3169 H 289.944 -1.048 -6.63677 0
M  V30 3170 N 292.664 1.56529 -0.183458 0
M  V30 3171 C 293.913 1.96419 0.458511 0
M  V30 3172 C 294.226 1.0727 1.63562 0
M  V30 3173 O 295.432 1.36893 2.34462 0
M  V30 3174 C 293.888 3.49298 0.867122 0
M  V30 3175 C 293.496 4.47092 -0.285057 0
M  V30 3176 C 295.24 3.97983 1.47683 0
M  V30 3177 C 293.147 5.91225 0.143862 0
M  V30 3178 H 292.077 0.733394 0.175071 0
M  V30 3179 H 294.728 1.81448 -0.273624 0
M  V30 3180 H 293.11 3.59731 1.65559 0
M  V30 3181 H 294.284 4.48383 -1.0625 0
M  V30 3182 H 292.599 4.08535 -0.805503 0
M  V30 3183 H 295.196 5.03134 1.80999 0
M  V30 3184 H 295.539 3.41618 2.37914 0
M  V30 3185 H 296.072 3.90617 0.752562 0
M  V30 3186 H 292.811 6.5149 -0.723974 0
M  V30 3187 H 292.331 5.93214 0.886413 0
M  V30 3188 H 294.01 6.44362 0.583628 0
M  V30 3189 N 294.142 -0.090211 1.57342 0
M  V30 3190 C 295.391 -0.791531 1.8552 0
M  V30 3191 C 295.704 -1.79659 0.773441 0
M  V30 3192 O 296.91 -2.54616 0.942497 0
M  V30 3193 C 295.366 -1.45856 3.2902 0
M  V30 3194 C 294.974 -0.493017 4.45279 0
M  V30 3195 C 296.718 -2.14332 3.66418 0
M  V30 3196 C 294.625 -1.16491 5.79814 0
M  V30 3197 H 293.555 -0.299356 0.692027 0
M  V30 3198 H 296.206 -0.0445343 1.83446 0
M  V30 3199 H 294.588 -2.25318 3.2565 0
M  V30 3200 H 295.762 0.270464 4.60006 0
M  V30 3201 H 294.077 0.0863061 4.16311 0
M  V30 3202 H 296.674 -2.65344 4.64216 0
M  V30 3203 H 297.017 -2.93447 2.95287 0
M  V30 3204 H 297.55 -1.41724 3.71698 0
M  V30 3205 H 294.289 -0.41447 6.54188 0
M  V30 3206 H 293.809 -1.8997 5.68921 0
M  V30 3207 H 295.488 -1.69001 6.24538 0
M  V30 3208 N 295.62 -1.53406 -0.361157 0
M  V30 3209 C 296.553 -1.74946 -1.46524 0
M  V30 3210 C 297.531 -0.59795 -1.51206 0
M  V30 3211 O 298.715 -0.831062 -1.69191 0
M  V30 3212 C 295.842 -1.83224 -2.84863 0
M  V30 3213 C 294.888 -3.05233 -2.97885 0
M  V30 3214 S 295.721 -4.6466 -2.66179 0
M  V30 3215 C 296.877 -4.75793 -4.06659 0
M  V30 3216 H 297.11 -2.68319 -1.28033 0
M  V30 3217 H 294.643 -1.44051 -0.555764 0
M  V30 3218 H 296.601 -1.88679 -3.64569 0
M  V30 3219 H 295.262 -0.908948 -3.00661 0
M  V30 3220 H 294.455 -3.07648 -3.9921 0
M  V30 3221 H 294.057 -2.97913 -2.26106 0
M  V30 3222 H 296.349 -4.5612 -5.0096 0
M  V30 3223 H 297.292 -5.7786 -4.09247 0
M  V30 3224 H 297.7 -4.04389 -3.93865 0
M  V30 3225 N 297.098 0.621204 -1.44841 0
M  V30 3226 C 298.509 1.20298 -1.42777 0
M  V30 3227 C 298.86 1.95639 -0.148259 0
M  V30 3228 O 297.985 2.02955 0.750892 0
M  V30 3229 C 298.58 2.1882 -2.58657 0
M  V30 3230 C 297.139 2.72403 -2.59756 0
M  V30 3231 C 296.286 1.4757 -2.34773 0
M  V30 3232 H 299.237 0.411297 -1.53278 0
M  V30 3233 H 299.258 3.01607 -2.31977 0
M  V30 3234 H 298.77 1.63957 -3.51766 0
M  V30 3235 H 296.871 3.31242 -1.70615 0
M  V30 3236 H 296.984 3.17765 -3.58556 0
M  V30 3237 H 295.348 1.76051 -1.8406 0
M  V30 3238 H 296.131 0.945954 -3.3001 0
M  V30 3239 N 298.576 1.31904 0.862503 0
M  V30 3240 C 299.804 1.24998 1.64873 0
M  V30 3241 C 300.219 -0.183425 1.87907 0
M  V30 3242 O 299.576 -1.11794 1.44251 0
M  V30 3243 C 299.627 1.99829 3.01248 0
M  V30 3244 O 299.348 3.37575 2.79239 0
M  V30 3245 C 300.849 1.99852 3.95694 0
M  V30 3246 H 298.069 0.431599 0.513773 0
M  V30 3247 H 300.613 1.73901 1.07604 0
M  V30 3248 H 298.768 1.54668 3.55185 0
M  V30 3249 H 299.182 3.75776 3.65914 0
M  V30 3250 H 300.656 2.56709 4.88676 0
M  V30 3251 H 301.133 0.982852 4.28062 0
M  V30 3252 H 301.739 2.44926 3.47694 0
M  V30 3253 N 300.054 -1.07777 1.14986 0
M  V30 3254 C 301.303 -1.79669 0.916617 0
M  V30 3255 C 301.616 -1.87474 -0.557917 0
M  V30 3256 O 302.822 -2.55845 -0.908617 0
M  V30 3257 C 301.278 -3.22848 1.59051 0
M  V30 3258 C 300.886 -3.23257 3.10176 0
M  V30 3259 C 302.63 -3.99379 1.43864 0
M  V30 3260 C 300.537 -4.61063 3.70372 0
M  V30 3261 H 299.467 -0.673349 0.33929 0
M  V30 3262 H 302.118 -1.21003 1.37951 0
M  V30 3263 H 300.5 -3.8168 1.0553 0
M  V30 3264 H 301.674 -2.74095 3.70417 0
M  V30 3265 H 299.989 -2.60222 3.25074 0
M  V30 3266 H 302.586 -5.0122 1.86232 0
M  V30 3267 H 302.929 -4.14511 0.385564 0
M  V30 3268 H 303.462 -3.47032 1.94457 0
M  V30 3269 H 300.201 -4.51135 4.7556 0
M  V30 3270 H 299.721 -5.1048 3.14913 0
M  V30 3271 H 301.4 -5.30034 3.71043 0
M  V30 3272 N 301.532 -0.945985 -1.26051 0
M  V30 3273 C 302.495 -0.463897 -2.24456 0
M  V30 3274 C 303.495 0.427655 -1.55009 0
M  V30 3275 O 304.685 0.226157 -1.72726 0
M  V30 3276 C 301.817 0.330812 -3.39291 0
M  V30 3277 H 303.01 -1.33357 -2.68619 0
M  V30 3278 H 300.563 -0.728416 -1.38289 0
M  V30 3279 H 301.298 1.21852 -3.00537 0
M  V30 3280 H 301.083 -0.308679 -3.90883 0
M  V30 3281 H 302.573 0.657865 -4.12386 0
M  V30 3282 N 303.011 1.40521 -0.713556 0
M  V30 3283 C 303.944 2.28198 -0.00881422 0
M  V30 3284 C 304.922 1.43227 0.769735 0
M  V30 3285 O 306.106 1.72641 0.756799 0
M  V30 3286 C 303.233 3.23758 0.994899 0
M  V30 3287 C 302.279 4.25391 0.3074 0
M  V30 3288 S 303.112 5.26765 -0.963247 0
M  V30 3289 C 304.268 6.25888 0.0384143 0
M  V30 3290 H 304.501 2.87622 -0.752407 0
M  V30 3291 H 302.034 1.45925 -0.504502 0
M  V30 3292 H 303.992 3.79341 1.56879 0
M  V30 3293 H 302.653 2.63396 1.71118 0
M  V30 3294 H 301.846 4.92596 1.0661 0
M  V30 3295 H 301.448 3.73497 -0.193879 0
M  V30 3296 H 303.74 6.71683 0.885912 0
M  V30 3297 H 304.683 7.05552 -0.60019 0
M  V30 3298 H 305.091 5.63072 0.401233 0
M  V30 3299 N 304.489 0.459591 1.5075 0
M  V30 3300 C 305.717 -0.0973749 2.06671 0
M  V30 3301 C 306.132 -1.34524 1.32472 0
M  V30 3302 O 305.489 -1.7827 0.390634 0
M  V30 3303 C 305.54 -0.39714 3.59312 0
M  V30 3304 O 305.261 0.801214 4.30711 0
M  V30 3305 C 306.762 -1.00234 4.31819 0
M  V30 3306 H 303.982 0.00195854 0.670997 0
M  V30 3307 H 306.526 0.645072 1.94059 0
M  V30 3308 H 304.681 -1.08951 3.71764 0
M  V30 3309 H 305.095 0.538857 5.21725 0
M  V30 3310 H 306.569 -1.16193 5.39632 0
M  V30 3311 H 307.046 -1.98939 3.91561 0
M  V30 3312 H 307.652 -0.348699 4.23868 0
M  V30 3313 N 305.967 -1.56429 0.191757 0
M  V30 3314 C 306.877 -2.22541 -0.742481 0
M  V30 3315 C 307.893 -1.22342 -1.23727 0
M  V30 3316 O 309.069 -1.55069 -1.28513 0
M  V30 3317 C 306.134 -2.8692 -1.94623 0
M  V30 3318 C 305.195 -4.02378 -1.49633 0
M  V30 3319 C 304.428 -4.63678 -2.6427 0
M  V30 3320 O 304.651 -4.23895 -3.81666 0
M  V30 3321 O 303.585 -5.53202 -2.37174 0
M  V30 3322 H 307.411 -3.02977 -0.209462 0
M  V30 3323 H 304.996 -1.49353 -0.0373832 0
M  V30 3324 H 306.878 -3.27663 -2.64982 0
M  V30 3325 H 305.553 -2.09466 -2.46791 0
M  V30 3326 H 304.46 -3.66265 -0.761636 0
M  V30 3327 H 305.793 -4.81487 -1.02134 0
M  V30 3328 N 307.445 0.0818655 -1.57387 0
M  V30 3329 C 308.408 1.08265 -2.02018 0
M  V30 3330 C 309.408 1.32183 -0.915664 0
M  V30 3331 O 310.598 1.28073 -1.18081 0
M  V30 3332 C 307.73 2.42871 -2.39221 0
M  V30 3333 H 308.923 0.698204 -2.91659 0
M  V30 3334 H 306.476 0.327303 -1.52835 0
M  V30 3335 H 307.211 2.86167 -1.52575 0
M  V30 3336 H 306.996 2.26855 -3.19811 0
M  V30 3337 H 308.486 3.14826 -2.74362 0
M  V30 3338 N 308.923 1.53595 0.353017 0
M  V30 3339 C 310.2 1.61002 1.11075 0
M  V30 3340 C 310.58 0.425356 2.0677 0
M  V30 3341 O 309.928 -0.583267 2.2093 0
M  V30 3342 C 310.138 2.96631 1.83877 0
M  V30 3343 C 311.486 3.51653 2.37961 0
M  V30 3344 O 312.51 2.98743 1.93987 0
M  V30 3345 O 311.369 4.44177 3.18386 0
M  V30 3346 H 308.463 0.650825 0.510251 0
M  V30 3347 H 311.009 1.6594 0.35527 0
M  V30 3348 H 309.781 3.74293 1.14108 0
M  V30 3349 H 309.404 2.95242 2.66304 0
M  V30 3350 N 310.401 -0.613514 1.45168 0
M  V30 3351 C 311.348 -1.72456 1.53387 0
M  V30 3352 C 312.318 -1.6169 0.380191 0
M  V30 3353 O 313.503 -1.81356 0.592836 0
M  V30 3354 C 310.643 -3.10753 1.50088 0
M  V30 3355 C 309.756 -3.32368 2.75963 0
M  V30 3356 C 308.891 -4.60737 2.64376 0
M  V30 3357 C 307.93 -4.7559 3.85332 0
M  V30 3358 N 307.067 -5.95253 3.72315 0
M  V30 3359 H 311.907 -1.64768 2.48305 0
M  V30 3360 H 309.444 -0.803503 1.23216 0
M  V30 3361 H 311.402 -3.90758 1.46164 0
M  V30 3362 H 310.032 -3.17413 0.587243 0
M  V30 3363 H 309.084 -2.4618 2.89999 0
M  V30 3364 H 310.396 -3.39218 3.65695 0
M  V30 3365 H 309.55 -5.48928 2.58385 0
M  V30 3366 H 308.289 -4.56275 1.72233 0
M  V30 3367 H 307.294 -3.85824 3.91688 0
M  V30 3368 H 308.519 -4.81854 4.78533 0
M  V30 3369 H 306.465 -5.91847 2.82937 0
M  V30 3370 H 306.382 -6.03236 4.55677 0
M  V30 3371 H 307.65 -6.85958 3.70246 0
M  V30 3372 N 311.879 -1.3236 -0.855495 0
M  V30 3373 C 313.156 -1.13491 -1.59309 0
M  V30 3374 C 313.536 0.30503 -2.08885 0
M  V30 3375 O 312.884 1.30151 -1.87811 0
M  V30 3376 C 313.094 -2.16176 -2.73987 0
M  V30 3377 C 314.442 -2.49463 -3.43589 0
M  V30 3378 O 315.466 -2.14715 -2.84211 0
M  V30 3379 O 314.325 -3.09027 -4.50738 0
M  V30 3380 H 311.419 -0.437887 -0.701559 0
M  V30 3381 H 313.965 -1.43887 -0.899696 0
M  V30 3382 H 312.737 -3.1297 -2.34873 0
M  V30 3383 H 312.36 -1.86769 -3.51003 0
M  V30 3384 N 313.357 1.07166 -1.15556 0
M  V30 3385 C 314.587 1.83248 -0.954133 0
M  V30 3386 C 314.995 1.82449 0.500911 0
M  V30 3387 O 314.338 1.23575 1.35923 0
M  V30 3388 C 314.4 3.31393 -1.39351 0
M  V30 3389 C 314.064 3.5591 -2.86666 0
M  V30 3390 C 315.061 3.49695 -3.8472 0
M  V30 3391 C 312.746 3.83515 -3.24379 0
M  V30 3392 C 314.74 3.70737 -5.18491 0
M  V30 3393 C 312.427 4.04209 -4.58321 0
M  V30 3394 C 313.425 3.97815 -5.55186 0
M  V30 3395 O 313.113 4.17954 -6.86709 0
M  V30 3396 H 312.845 0.584941 -0.338851 0
M  V30 3397 H 315.399 1.36169 -1.53777 0
M  V30 3398 H 313.629 3.79292 -0.75329 0
M  V30 3399 H 315.318 3.88945 -1.16089 0
M  V30 3400 H 316.084 3.28368 -3.56931 0
M  V30 3401 H 311.963 3.87605 -2.49567 0
M  V30 3402 H 315.507 3.65663 -5.94085 0
M  V30 3403 H 311.404 4.25023 -4.85825 0
M  V30 3404 H 312.172 4.35291 -6.93155 0
M  V30 3405 N 314.835 0.952656 1.25548 0
M  V30 3406 C 315.798 0.475794 2.24207 0
M  V30 3407 C 316.798 -0.419428 1.55234 0
M  V30 3408 O 317.988 -0.216994 1.72843 0
M  V30 3409 C 315.12 -0.312814 3.39462 0
M  V30 3410 H 316.313 1.34779 2.67908 0
M  V30 3411 H 313.866 0.735739 1.37901 0
M  V30 3412 H 314.601 -1.20257 3.01179 0
M  V30 3413 H 314.386 0.329404 3.90714 0
M  V30 3414 H 315.876 -0.635986 4.12729 0
M  V30 3415 N 316.313 -1.40141 0.720998 0
M  V30 3416 C 317.559 -2.01084 0.263231 0
M  V30 3417 C 317.892 -1.57052 -1.14229 0
M  V30 3418 O 317.167 -0.793027 -1.77599 0
M  V30 3419 C 317.45 -3.58401 0.349344 0
M  V30 3420 C 317.303 -4.12491 1.79363 0
M  V30 3421 C 318.622 -4.39231 -0.276351 0
M  V30 3422 H 315.741 -0.730572 0.0971228 0
M  V30 3423 H 318.383 -1.66543 0.914518 0
M  V30 3424 H 316.533 -3.87958 -0.205165 0
M  V30 3425 H 318.205 -3.93711 2.40394 0
M  V30 3426 H 316.448 -3.66576 2.31958 0
M  V30 3427 H 317.119 -5.21646 1.80524 0
M  V30 3428 H 319.595 -4.15637 0.196184 0
M  V30 3429 H 318.471 -5.48586 -0.185681 0
M  V30 3430 H 318.732 -4.20643 -1.36059 0
M  V30 3431 N 317.792 -0.46758 -1.50504 0
M  V30 3432 C 319.017 0.0886943 -2.0721 0
M  V30 3433 C 319.442 1.33057 -1.32956 0
M  V30 3434 O 318.8 1.77354 -0.376197 0
M  V30 3435 C 318.848 0.359202 -3.58806 0
M  V30 3436 O 317.952 1.44034 -3.8643 0
M  V30 3437 H 317.293 -0.0114349 -0.663902 0
M  V30 3438 H 319.823 -0.657613 -1.93744 0
M  V30 3439 H 319.833 0.600742 -4.03553 0
M  V30 3440 H 318.508 -0.548311 -4.1227 0
M  V30 3441 H 317.085 1.18638 -3.53524 0
M  V30 3442 N 319.27 1.56325 -0.20005 0
M  V30 3443 C 320.517 1.97719 0.437411 0
M  V30 3444 C 320.845 1.08709 1.61284 0
M  V30 3445 O 320.1 0.127261 1.95286 0
M  V30 3446 C 320.399 3.4495 0.935103 0
M  V30 3447 C 320.065 4.5072 -0.12749 0
M  V30 3448 C 318.727 4.79368 -0.419451 0
M  V30 3449 C 321.079 5.14268 -0.847231 0
M  V30 3450 C 318.407 5.68854 -1.43604 0
M  V30 3451 C 320.759 6.04852 -1.85301 0
M  V30 3452 C 319.423 6.31855 -2.15211 0
M  V30 3453 H 318.693 0.723507 0.16006 0
M  V30 3454 H 321.34 1.89166 -0.298056 0
M  V30 3455 H 319.645 3.50599 1.74894 0
M  V30 3456 H 321.342 3.74337 1.43781 0
M  V30 3457 H 317.932 4.28458 0.11023 0
M  V30 3458 H 322.116 4.92222 -0.634901 0
M  V30 3459 H 317.372 5.88047 -1.67364 0
M  V30 3460 H 321.546 6.53152 -2.41591 0
M  V30 3461 H 319.173 7.00994 -2.94129 0
M  V30 3462 N 320.748 -0.0735177 1.57428 0
M  V30 3463 C 321.711 -1.07192 2.02589 0
M  V30 3464 C 322.711 -1.31695 0.922661 0
M  V30 3465 O 323.901 -1.27445 1.18758 0
M  V30 3466 C 321.033 -2.41599 2.40506 0
M  V30 3467 H 322.226 -0.682727 2.92025 0
M  V30 3468 H 319.779 -0.319193 1.53006 0
M  V30 3469 H 320.514 -2.85354 1.5409 0
M  V30 3470 H 320.299 -2.25156 3.21009 0
M  V30 3471 H 321.789 -3.13367 2.76027 0
M  V30 3472 N 322.226 -1.5378 -0.344866 0
M  V30 3473 C 323.466 -1.72677 -1.09371 0
M  V30 3474 C 323.83 -0.479084 -1.85927 0
M  V30 3475 O 325.031 -0.54505 -2.63216 0
M  V30 3476 C 323.302 -2.95457 -2.01097 0
M  V30 3477 S 324.861 -3.35158 -2.83222 0
M  V30 3478 H 321.679 -0.607402 -0.369573 0
M  V30 3479 H 324.281 -1.91922 -0.372307 0
M  V30 3480 H 322.985 -3.84437 -1.43655 0
M  V30 3481 H 322.516 -2.78673 -2.77678 0
M  V30 3482 H 324.531 -2.88789 -4.03504 0
M  V30 3483 N 323.704 0.605807 -1.45491 0
M  V30 3484 C 325.115 1.18777 -1.44045 0
M  V30 3485 C 325.466 1.95471 -0.169001 0
M  V30 3486 O 324.591 2.0374 0.729324 0
M  V30 3487 C 325.186 2.16064 -2.60963 0
M  V30 3488 C 323.745 2.69633 -2.62631 0
M  V30 3489 C 322.892 1.45072 -2.36325 0
M  V30 3490 H 325.843 0.395017 -1.53705 0
M  V30 3491 H 325.864 2.9913 -2.35163 0
M  V30 3492 H 325.376 1.60217 -3.53486 0
M  V30 3493 H 323.477 3.29414 -1.74119 0
M  V30 3494 H 323.59 3.13944 -3.61906 0
M  V30 3495 H 321.954 1.74089 -1.85917 0
M  V30 3496 H 322.737 0.910899 -3.30995 0
M  V30 3497 N 325.182 1.32811 0.848464 0
M  V30 3498 C 326.407 1.26882 1.6406 0
M  V30 3499 C 326.832 -0.15913 1.87426 0
M  V30 3500 O 326.19 -1.11258 1.43148 0
M  V30 3501 C 326.238 2.03997 2.97351 0
M  V30 3502 O 325.342 1.39201 3.88197 0
M  V30 3503 H 324.683 0.436982 0.499943 0
M  V30 3504 H 327.213 1.75224 1.0563 0
M  V30 3505 H 327.223 2.14403 3.47124 0
M  V30 3506 H 325.898 3.0783 2.79666 0
M  V30 3507 H 324.475 1.37381 3.46671 0
M  V30 3508 N 326.66 -1.06551 1.16123 0
M  V30 3509 C 327.937 -1.76097 0.85142 0
M  V30 3510 C 328.317 -2.00802 -0.6513 0
M  V30 3511 O 327.665 -1.63302 -1.59827 0
M  V30 3512 C 327.875 -3.06384 1.67122 0
M  V30 3513 C 329.223 -3.80585 1.88255 0
M  V30 3514 O 330.247 -3.16218 1.63966 0
M  V30 3515 O 329.106 -4.96212 2.2899 0
M  V30 3516 H 326.2 -0.765102 0.313923 0
M  V30 3517 H 328.746 -1.12844 1.26745 0
M  V30 3518 H 327.518 -2.84071 2.69108 0
M  V30 3519 H 327.141 -3.77371 1.25206 0
M  V30 3520 N 328.138 -0.959301 -1.25041 0
M  V30 3521 C 329.101 -0.487677 -2.23952 0
M  V30 3522 C 330.101 0.41119 -1.55454 0
M  V30 3523 O 331.291 0.207825 -1.72956 0
M  V30 3524 C 328.423 0.294807 -3.39623 0
M  V30 3525 H 329.616 -1.36198 -2.67189 0
M  V30 3526 H 327.169 -0.743042 -1.37508 0
M  V30 3527 H 327.904 1.18658 -3.01813 0
M  V30 3528 H 327.689 -0.35012 -3.90534 0
M  V30 3529 H 329.179 0.614089 -4.1306 0
M  V30 3530 N 329.616 1.39756 -0.72842 0
M  V30 3531 C 330.893 1.94574 -0.200079 0
M  V30 3532 C 331.273 1.66569 1.29684 0
M  V30 3533 O 330.621 0.990326 2.05924 0
M  V30 3534 C 330.831 3.45004 -0.526608 0
M  V30 3535 C 332.179 4.21965 -0.472318 0
M  V30 3536 O 333.203 3.53173 -0.463413 0
M  V30 3537 O 332.062 5.44552 -0.461075 0
M  V30 3538 H 329.156 0.826289 -0.0342851 0
M  V30 3539 H 331.702 1.49293 -0.806829 0
M  V30 3540 H 330.474 3.58796 -1.56144 0
M  V30 3541 H 330.097 3.97449 0.109449 0
M  V30 3542 N 331.094 0.475555 1.50254 0
M  V30 3543 C 332.342 -0.077738 2.0195 0
M  V30 3544 C 332.663 -1.39813 1.35931 0
M  V30 3545 O 331.933 -1.89249 0.506123 0
M  V30 3546 H 330.513 -0.031719 0.746326 0
M  V30 3547 H 333.175 0.626995 1.84539 0
M  V30 3548 H 332.271 -0.225995 3.11281 0
M  V30 3549 N 332.573 -1.56217 0.208337 0
M  V30 3550 C 333.503 -2.22694 -0.702116 0
M  V30 3551 C 334.484 -1.19432 -1.2112 0
M  V30 3552 O 335.669 -1.47978 -1.25762 0
M  V30 3553 C 332.799 -2.8966 -1.9161 0
M  V30 3554 C 331.753 -3.9928 -1.5414 0
M  V30 3555 C 331.079 -4.53476 -2.83308 0
M  V30 3556 C 332.379 -5.17012 -0.741339 0
M  V30 3557 H 334.073 -2.99034 -0.147898 0
M  V30 3558 H 331.619 -1.43831 -0.0696951 0
M  V30 3559 H 333.572 -3.34852 -2.55836 0
M  V30 3560 H 332.296 -2.10746 -2.49507 0
M  V30 3561 H 330.955 -3.54799 -0.922668 0
M  V30 3562 H 330.603 -3.71308 -3.39322 0
M  V30 3563 H 330.303 -5.27451 -2.58976 0
M  V30 3564 H 331.827 -5.01378 -3.485 0
M  V30 3565 H 333.241 -5.58667 -1.28699 0
M  V30 3566 H 331.638 -5.97137 -0.595627 0
M  V30 3567 H 332.708 -4.8423 0.254851 0
M  V30 3568 N 334.051 0.0651679 -1.57465 0
M  V30 3569 C 335.298 0.763063 -1.87573 0
M  V30 3570 C 335.626 1.77242 -0.800961 0
M  V30 3571 O 334.881 1.94651 0.202316 0
M  V30 3572 C 335.18 1.50081 -3.24362 0
M  V30 3573 C 334.846 0.630816 -4.46466 0
M  V30 3574 C 333.508 0.391082 -4.79608 0
M  V30 3575 C 335.86 0.0279465 -5.21193 0
M  V30 3576 C 333.188 -0.460894 -5.84887 0
M  V30 3577 C 335.54 -0.811522 -6.27373 0
M  V30 3578 C 334.204 -1.06106 -6.59013 0
M  V30 3579 H 333.474 0.279224 -0.686378 0
M  V30 3580 H 336.121 0.0236726 -1.91485 0
M  V30 3581 H 334.426 2.31258 -3.16271 0
M  V30 3582 H 336.123 2.04571 -3.44894 0
M  V30 3583 H 332.713 0.8278 -4.2053 0
M  V30 3584 H 336.897 0.200262 -4.95896 0
M  V30 3585 H 332.153 -0.662907 -6.07796 0
M  V30 3586 H 336.327 -1.28537 -6.84435 0
M  V30 3587 H 333.954 -1.723 -7.40417 0
M  V30 3588 N 335.529 1.53961 0.336706 0
M  V30 3589 C 336.462 1.77255 1.43722 0
M  V30 3590 C 337.44 0.62193 1.50236 0
M  V30 3591 O 338.624 0.857874 1.67847 0
M  V30 3592 C 335.751 1.87733 2.81912 0
M  V30 3593 C 334.797 3.09933 2.92991 0
M  V30 3594 S 335.63 4.68836 2.58753 0
M  V30 3595 C 336.786 4.82202 3.99039 0
M  V30 3596 H 337.019 2.70322 1.23748 0
M  V30 3597 H 334.552 1.44917 0.532777 0
M  V30 3598 H 336.51 1.94455 3.61521 0
M  V30 3599 H 335.171 0.956666 2.99177 0
M  V30 3600 H 334.364 3.1396 3.94265 0
M  V30 3601 H 333.966 3.01472 2.21338 0
M  V30 3602 H 336.258 4.64032 4.9364 0
M  V30 3603 H 337.201 5.84298 4.00002 0
M  V30 3604 H 337.609 4.10604 3.87382 0
M  V30 3605 N 337.007 -0.598083 1.45811 0
M  V30 3606 C 338.256 -1.35295 1.49594 0
M  V30 3607 C 338.569 -1.95057 0.145679 0
M  V30 3608 O 339.775 -2.71431 0.0612099 0
M  V30 3609 C 338.231 -2.45124 2.63519 0
M  V30 3610 C 337.839 -1.91732 4.04899 0
M  V30 3611 C 339.583 -3.2205 2.76558 0
M  V30 3612 C 337.49 -2.991 5.1019 0
M  V30 3613 H 336.42 -0.508552 0.556679 0
M  V30 3614 H 339.071 -0.639977 1.71978 0
M  V30 3615 H 337.453 -3.19149 2.34435 0
M  V30 3616 H 338.627 -1.24352 4.43704 0
M  V30 3617 H 336.942 -1.27522 3.96393 0
M  V30 3618 H 339.539 -4.0215 3.52391 0
M  V30 3619 H 339.882 -3.73663 1.83526 0
M  V30 3620 H 340.415 -2.55127 3.05213 0
M  V30 3621 H 337.154 -2.52393 6.04961 0
M  V30 3622 H 336.674 -3.65017 4.75944 0
M  V30 3623 H 338.353 -3.63318 5.35359 0
M  V30 3624 N 338.485 -1.33259 -0.841409 0
M  V30 3625 C 339.715 -1.2742 -1.62628 0
M  V30 3626 C 340.123 0.157604 -1.88542 0
M  V30 3627 O 339.466 1.10938 -1.46419 0
M  V30 3628 C 339.528 -1.97797 -3.00194 0
M  V30 3629 C 339.192 -3.47109 -2.97261 0
M  V30 3630 C 340.189 -4.42358 -2.73159 0
M  V30 3631 C 337.874 -3.89247 -3.17478 0
M  V30 3632 C 339.868 -5.77718 -2.69296 0
M  V30 3633 C 337.555 -5.24713 -3.13241 0
M  V30 3634 C 338.553 -6.1876 -2.89181 0
M  V30 3635 O 338.241 -7.51745 -2.84843 0
M  V30 3636 H 337.973 -0.440436 -0.512827 0
M  V30 3637 H 340.527 -1.76153 -1.05638 0
M  V30 3638 H 338.757 -1.43652 -3.59028 0
M  V30 3639 H 340.446 -1.8549 -3.61038 0
M  V30 3640 H 341.212 -4.11127 -2.57294 0
M  V30 3641 H 337.091 -3.16456 -3.35226 0
M  V30 3642 H 340.635 -6.51097 -2.50436 0
M  V30 3643 H 336.532 -5.55569 -3.28654 0
M  V30 3644 H 337.3 -7.61262 -3.00702 0
M  V30 3645 N 339.963 1.05934 -1.16686 0
M  V30 3646 C 341.211 1.78447 -0.948744 0
M  V30 3647 C 341.532 1.87813 0.524523 0
M  V30 3648 O 340.802 1.38945 1.38098 0
M  V30 3649 H 339.382 0.660971 -0.348033 0
M  V30 3650 H 342.044 1.27947 -1.47022 0
M  V30 3651 H 341.14 2.80394 -1.37061 0
M  V30 3652 N 341.441 0.965919 1.2453 0
M  V30 3653 C 342.857 0.67216 1.44756 0
M  V30 3654 C 343.057 -0.766609 1.86347 0
M  V30 3655 O 342.113 -1.5407 2.00047 0
M  V30 3656 C 343.426 1.65473 2.51076 0
M  V30 3657 C 344.974 1.66716 2.64905 0
M  V30 3658 C 345.449 2.63766 3.74421 0
M  V30 3659 N 346.94 2.62198 3.81846 0
M  V30 3660 C 347.675 3.33966 4.66106 0
M  V30 3661 N 347.171 4.15245 5.54566 0
M  V30 3662 N 348.964 3.22799 4.60171 0
M  V30 3663 H 341.115 1.89553 0.958293 0
M  V30 3664 H 343.378 0.815979 0.482579 0
M  V30 3665 H 343.084 2.68296 2.27399 0
M  V30 3666 H 342.958 1.4261 3.49202 0
M  V30 3667 H 345.345 0.646057 2.87941 0
M  V30 3668 H 345.426 1.93642 1.67142 0
M  V30 3669 H 345.07 3.6601 3.52135 0
M  V30 3670 H 345 2.34121 4.71694 0
M  V30 3671 H 347.491 2.032 3.18619 0
M  V30 3672 H 347.804 4.66898 6.15814 0
M  V30 3673 H 346.149 4.1934 5.54237 0
M  V30 3674 H 349.34 2.58764 3.90075 0
M  V30 3675 H 349.513 3.78994 5.25612 0
M  V30 3676 N 342.919 -1.39368 0.735821 0
M  V30 3677 C 343.851 -2.2913 0.0567723 0
M  V30 3678 C 344.864 -1.46859 -0.702589 0
M  V30 3679 O 346.053 -1.69925 -0.546616 0
M  V30 3680 C 343.153 -3.25492 -0.943823 0
M  V30 3681 C 342.326 -4.36709 -0.24581 0
M  V30 3682 C 341.385 -5.13376 -1.15463 0
M  V30 3683 O 340.411 -5.65683 -0.631803 0
M  V30 3684 N 341.613 -5.24656 -2.48427 0
M  V30 3685 H 344.378 -2.88047 0.827582 0
M  V30 3686 H 341.939 -1.50957 0.585112 0
M  V30 3687 H 343.931 -3.73657 -1.55443 0
M  V30 3688 H 342.501 -2.676 -1.61583 0
M  V30 3689 H 341.721 -3.9041 0.545286 0
M  V30 3690 H 343.009 -5.08244 0.237891 0
M  V30 3691 H 342.407 -4.83679 -2.93379 0
M  V30 3692 H 340.964 -5.76258 -3.04582 0
M  V30 3693 N 344.397 -0.483516 -1.5 0
M  V30 3694 C 345.622 0.0667119 -2.07293 0
M  V30 3695 C 346.047 1.3164 -1.3436 0
M  V30 3696 O 345.405 1.76945 -0.394987 0
M  V30 3697 C 345.453 0.321126 -3.59167 0
M  V30 3698 O 344.557 1.39927 -3.87936 0
M  V30 3699 H 343.898 -0.0184758 -0.663743 0
M  V30 3700 H 346.428 -0.678125 -1.93035 0
M  V30 3701 H 346.438 0.557906 -4.04168 0
M  V30 3702 H 345.113 -0.592007 -4.11665 0
M  V30 3703 H 343.69 1.14882 -3.54763 0
M  V30 3704 N 345.875 1.56104 -0.216619 0
M  V30 3705 C 347.115 2.00074 0.418322 0
M  V30 3706 C 347.479 1.10098 1.57297 0
M  V30 3707 O 348.68 1.43393 2.27359 0
M  V30 3708 C 346.951 3.47231 0.846477 0
M  V30 3709 S 348.51 4.13223 1.47622 0
M  V30 3710 H 345.328 0.698457 0.132962 0
M  V30 3711 H 347.93 1.92784 -0.324748 0
M  V30 3712 H 346.634 4.104 -0.0036319 0
M  V30 3713 H 346.165 3.58384 1.62248 0
M  V30 3714 H 348.18 4.12005 2.76526 0
M  V30 3715 N 347.353 -0.0568162 1.57498 0
M  V30 3716 C 348.63 -0.786954 1.79071 0
M  V30 3717 C 349.01 -1.95028 0.80792 0
M  V30 3718 O 348.358 -2.27968 -0.155858 0
M  V30 3719 C 348.568 -1.24594 3.26002 0
M  V30 3720 C 349.916 -1.67323 3.90241 0
M  V30 3721 O 350.94 -1.34124 3.29984 0
M  V30 3722 O 349.799 -2.28842 4.9628 0
M  V30 3723 H 346.893 -0.378262 0.735423 0
M  V30 3724 H 349.439 -0.035734 1.69662 0
M  V30 3725 H 348.211 -0.41423 3.89101 0
M  V30 3726 H 347.834 -2.05803 3.40192 0
M  V30 3727 N 348.832 -1.54138 -0.328536 0
M  V30 3728 C 350.06 -1.76062 -1.08673 0
M  V30 3729 C 350.475 -0.506852 -1.81869 0
M  V30 3730 O 349.832 0.522223 -1.74869 0
M  V30 3731 C 349.883 -2.95054 -2.08866 0
M  V30 3732 O 349.604 -4.15583 -1.38644 0
M  V30 3733 C 351.105 -3.2915 -2.96943 0
M  V30 3734 H 348.325 -0.587889 -0.323461 0
M  V30 3735 H 350.869 -2.0101 -0.376175 0
M  V30 3736 H 349.024 -2.72394 -2.75464 0
M  V30 3737 H 349.438 -4.82481 -2.05699 0
M  V30 3738 H 350.912 -4.15723 -3.63151 0
M  V30 3739 H 351.389 -2.461 -3.63774 0
M  V30 3740 H 351.995 -3.53871 -2.35914 0
M  V30 3741 N 350.31 0.590341 -1.46126 0
M  V30 3742 C 351.726 0.912917 -1.30912 0
M  V30 3743 C 351.926 1.99616 -0.274893 0
M  V30 3744 O 350.982 2.50397 0.325197 0
M  V30 3745 C 352.295 1.3375 -2.69317 0
M  V30 3746 C 353.843 1.45077 -2.77348 0
M  V30 3747 C 354.318 1.90904 -4.16317 0
M  V30 3748 N 355.809 1.9811 -4.18696 0
M  V30 3749 C 356.544 2.34828 -5.23109 0
M  V30 3750 N 356.04 2.70393 -6.37856 0
M  V30 3751 N 357.833 2.35317 -5.10473 0
M  V30 3752 H 349.984 -0.125358 -2.1203 0
M  V30 3753 H 352.247 0.00658481 -0.947977 0
M  V30 3754 H 351.953 0.615614 -3.4627 0
M  V30 3755 H 351.827 2.30058 -2.9892 0
M  V30 3756 H 354.214 2.16353 -2.00687 0
M  V30 3757 H 354.295 0.4704 -2.51438 0
M  V30 3758 H 353.939 1.20209 -4.9347 0
M  V30 3759 H 353.869 2.89886 -4.39629 0
M  V30 3760 H 356.36 1.73146 -3.359 0
M  V30 3761 H 356.673 2.97341 -7.13308 0
M  V30 3762 H 355.018 2.68048 -6.41229 0
M  V30 3763 H 358.209 2.0695 -4.19868 0
M  V30 3764 H 358.382 2.63605 -5.9196 0
M  V30 3765 N 351.788 1.33704 0.83433 0
M  V30 3766 C 352.735 1.24335 1.94447 0
M  V30 3767 C 353.705 0.120991 1.65659 0
M  V30 3768 O 354.89 0.300035 1.88426 0
M  V30 3769 C 352.03 0.993124 3.30501 0
M  V30 3770 C 351.143 2.20217 3.71657 0
M  V30 3771 C 350.278 1.88572 4.96602 0
M  V30 3772 C 349.317 3.05683 5.30306 0
M  V30 3773 N 348.454 2.73997 6.46429 0
M  V30 3774 H 353.294 2.1928 2.01792 0
M  V30 3775 H 350.831 1.09035 0.987404 0
M  V30 3776 H 352.789 0.828467 4.08892 0
M  V30 3777 H 351.419 0.0803902 3.227 0
M  V30 3778 H 350.471 2.47642 2.88752 0
M  V30 3779 H 351.783 3.07752 3.92543 0
M  V30 3780 H 350.937 1.68776 5.82752 0
M  V30 3781 H 349.676 0.982799 4.77695 0
M  V30 3782 H 348.681 3.26088 4.42659 0
M  V30 3783 H 349.906 3.96737 5.51159 0
M  V30 3784 H 347.852 1.86268 6.28999 0
M  V30 3785 H 347.769 3.55064 6.67432 0
M  V30 3786 H 349.037 2.57679 7.35678 0
M  V30 3787 N 353.266 -1.05314 1.17247 0
M  V30 3788 C 354.199 -2.12512 0.831507 0
M  V30 3789 C 355.177 -1.61351 -0.201168 0
M  V30 3790 O 356.361 -1.88317 -0.0829831 0
M  V30 3791 C 353.488 -3.37848 0.24015 0
M  V30 3792 C 352.534 -4.07832 1.24801 0
M  V30 3793 S 353.367 -4.56537 2.79882 0
M  V30 3794 C 354.523 -5.85122 2.22223 0
M  V30 3795 H 354.756 -2.41106 1.7394 0
M  V30 3796 H 352.289 -1.17896 0.996988 0
M  V30 3797 H 354.247 -4.10391 -0.0945588 0
M  V30 3798 H 352.908 -3.07392 -0.645668 0
M  V30 3799 H 352.101 -4.97883 0.78287 0
M  V30 3800 H 351.703 -3.41348 1.52831 0
M  V30 3801 H 353.995 -6.58408 1.59703 0
M  V30 3802 H 354.938 -6.36381 3.10523 0
M  V30 3803 H 355.346 -5.39626 1.65722 0
M  V30 3804 N 354.744 -0.972509 -1.24016 0
M  V30 3805 C 355.654 -0.5143 -2.28893 0
M  V30 3806 C 356.67 0.427078 -1.68677 0
M  V30 3807 O 357.846 0.298939 -1.99169 0
M  V30 3808 C 354.911 0.183598 -3.46214 0
M  V30 3809 C 353.972 -0.798202 -4.21814 0
M  V30 3810 C 353.205 -0.133514 -5.33533 0
M  V30 3811 O 353.428 1.07714 -5.60137 0
M  V30 3812 O 352.362 -0.828103 -5.96176 0
M  V30 3813 H 356.188 -1.38629 -2.70214 0
M  V30 3814 H 353.773 -0.739769 -1.29799 0
M  V30 3815 H 355.655 0.575433 -4.17453 0
M  V30 3816 H 354.33 1.03048 -3.0686 0
M  V30 3817 H 353.237 -1.24059 -3.52931 0
M  V30 3818 H 354.57 -1.61364 -4.64997 0
M  V30 3819 N 356.222 1.38976 -0.743202 0
M  V30 3820 C 357.132 2.3434 -0.110399 0
M  V30 3821 C 358.148 1.58741 0.712559 0
M  V30 3822 O 359.324 1.9099 0.639125 0
M  V30 3823 C 356.389 3.37812 0.780012 0
M  V30 3824 C 355.45 4.29263 -0.0561319 0
M  V30 3825 C 354.683 5.27793 0.791875 0
M  V30 3826 O 354.906 5.33043 2.03031 0
M  V30 3827 O 353.84 6.01512 0.216183 0
M  V30 3828 H 357.666 2.90129 -0.897714 0
M  V30 3829 H 355.251 1.40643 -0.503966 0
M  V30 3830 H 357.133 4.01194 1.28923 0
M  V30 3831 H 355.808 2.84395 1.546 0
M  V30 3832 H 354.715 3.69076 -0.611056 0
M  V30 3833 H 356.048 4.85907 -0.784531 0
M  V30 3834 N 357.7 0.491464 1.49741 0
M  V30 3835 C 358.948 -0.0563141 2.02022 0
M  V30 3836 C 359.269 -1.38363 1.37407 0
M  V30 3837 O 358.539 -1.88702 0.526166 0
M  V30 3838 H 357.119 -0.0238014 0.746621 0
M  V30 3839 H 359.781 0.646533 1.83864 0
M  V30 3840 H 358.877 -0.192967 3.11503 0
M  V30 3841 N 359.178 -1.55987 0.224894 0
M  V30 3842 C 360.141 -2.19178 -0.670348 0
M  V30 3843 C 361.141 -1.15461 -1.11917 0
M  V30 3844 O 362.331 -1.40675 -1.02743 0
M  V30 3845 C 359.463 -2.81777 -1.9187 0
M  V30 3846 H 360.656 -2.99662 -0.119364 0
M  V30 3847 H 358.209 -1.5628 -0.0247128 0
M  V30 3848 H 358.944 -2.05172 -2.51147 0
M  V30 3849 H 358.729 -3.57732 -1.60531 0
M  V30 3850 H 360.219 -3.30205 -2.55645 0
M  V30 3851 N 360.656 0.0484629 -1.57525 0
M  V30 3852 C 361.933 0.777447 -1.79486 0
M  V30 3853 C 362.313 1.94597 -0.818251 0
M  V30 3854 O 361.661 2.28047 0.143767 0
M  V30 3855 C 361.871 1.22864 -3.26658 0
M  V30 3856 C 363.219 1.65251 -3.91123 0
M  V30 3857 O 364.243 1.32372 -3.3069 0
M  V30 3858 O 363.102 2.26207 -4.97486 0
M  V30 3859 H 360.196 0.374357 -0.737419 0
M  V30 3860 H 362.742 0.0267359 -1.69679 0
M  V30 3861 H 361.514 0.393589 -3.89316 0
M  V30 3862 H 361.137 2.03996 -3.41279 0
M  V30 3863 N 362.134 1.5431 0.320358 0
M  V30 3864 C 363.383 1.7188 1.05546 0
M  V30 3865 C 363.696 0.501143 1.89071 0
M  V30 3866 O 364.902 0.558258 2.65699 0
M  V30 3867 C 363.358 3.04025 1.92605 0
M  V30 3868 C 362.966 4.33207 1.14176 0
M  V30 3869 C 364.71 3.30959 2.65832 0
M  V30 3870 C 362.617 5.56412 2.00399 0
M  V30 3871 H 361.547 0.640547 0.397763 0
M  V30 3872 H 364.198 1.80802 0.313522 0
M  V30 3873 H 362.58 2.89019 2.7071 0
M  V30 3874 H 363.754 4.58989 0.40819 0
M  V30 3875 H 362.069 4.13062 0.526165 0
M  V30 3876 H 364.666 4.20203 3.30656 0
M  V30 3877 H 365.009 2.48979 3.33639 0
M  V30 3878 H 365.542 3.46847 1.94787 0
M  V30 3879 H 362.281 6.41004 1.37094 0
M  V30 3880 H 361.801 5.34844 2.7148 0
M  V30 3881 H 363.48 5.92938 2.58908 0
M  V30 3882 N 363.613 -0.582584 1.46437 0
M  V30 3883 C 364.89 -1.34276 1.4223 0
M  V30 3884 C 365.27 -2.10835 0.10583 0
M  V30 3885 O 364.618 -2.09485 -0.912596 0
M  V30 3886 C 364.828 -2.26865 2.65204 0
M  V30 3887 C 366.176 -2.88691 3.11356 0
M  V30 3888 O 367.2 -2.37178 2.65753 0
M  V30 3889 O 366.059 -3.82255 3.90568 0
M  V30 3890 H 363.153 -0.603326 0.565621 0
M  V30 3891 H 365.699 -0.603591 1.58603 0
M  V30 3892 H 364.471 -1.69724 3.52576 0
M  V30 3893 H 364.094 -3.08122 2.5129 0
M  V30 3894 N 365.091 -1.34144 -0.827227 0
M  V30 3895 C 366.021 -1.28005 -1.95287 0
M  V30 3896 C 367.002 -0.158321 -1.69362 0
M  V30 3897 O 368.187 -0.349987 -1.9102 0
M  V30 3898 C 365.317 -1.03036 -3.31664 0
M  V30 3899 C 364.271 -2.11628 -3.72019 0
M  V30 3900 C 363.597 -1.71854 -5.0633 0
M  V30 3901 C 364.897 -3.53417 -3.8457 0
M  V30 3902 H 366.591 -2.22187 -2.00682 0
M  V30 3903 H 364.137 -1.0696 -0.964135 0
M  V30 3904 H 366.09 -0.973863 -4.09993 0
M  V30 3905 H 364.814 -0.0529391 -3.26557 0
M  V30 3906 H 363.473 -2.16339 -2.95961 0
M  V30 3907 H 363.121 -0.727841 -4.97706 0
M  V30 3908 H 362.821 -2.44531 -5.34302 0
M  V30 3909 H 364.345 -1.67692 -5.87122 0
M  V30 3910 H 365.759 -3.51142 -4.5318 0
M  V30 3911 H 364.156 -4.24679 -4.2399 0
M  V30 3912 H 365.226 -3.91072 -2.86689 0
M  V30 3913 N 366.569 1.04691 -1.17803 0
M  V30 3914 C 367.817 1.7743 -0.967617 0
M  V30 3915 C 368.138 1.88359 0.504574 0
M  V30 3916 O 367.408 1.40402 1.36617 0
M  V30 3917 H 365.988 0.657242 -0.355024 0
M  V30 3918 H 368.65 1.2638 -1.48371 0
M  V30 3919 H 367.746 2.78924 -1.40027 0
M  V30 3920 N 368.047 0.979072 1.23499 0
M  V30 3921 C 368.995 0.510604 2.26926 0
M  V30 3922 C 369.989 -0.431691 1.63807 0
M  V30 3923 O 371.195 -0.30573 1.77385 0
M  V30 3924 H 367.57 0.146688 0.737554 0
M  V30 3925 H 369.541 1.39466 2.63803 0
M  V30 3926 C 368.29 -0.172658 3.47271 0
M  V30 3927 H 367.613 0.543331 3.96091 0
M  V30 3928 H 369.053 -0.464101 4.21452 0
M  V30 3929 C 367.512 -1.40345 3.06276 0
M  V30 3930 O 368.042 -2.49978 3.14442 0
M  V30 3931 N 366.248 -1.27362 2.61203 0
M  V30 3932 H 365.795 -0.381584 2.54758 0
M  V30 3933 H 365.753 -2.09822 2.34141 0
M  V30 3934 N 369.525 -1.3858 0.750561 0
M  V30 3935 C 370.472 -2.30483 0.120835 0
M  V30 3936 C 371.442 -1.50022 -0.712923 0
M  V30 3937 O 372.627 -1.78662 -0.669676 0
M  V30 3938 C 369.767 -3.36431 -0.768666 0
M  V30 3939 C 368.88 -4.31927 0.0793922 0
M  V30 3940 C 368.015 -5.24944 -0.81283 0
M  V30 3941 C 367.054 -6.12088 0.0390447 0
M  V30 3942 N 366.191 -6.97412 -0.809969 0
M  V30 3943 H 371.031 -2.83761 0.91015 0
M  V30 3944 H 368.568 -1.39707 0.460463 0
M  V30 3945 H 370.526 -3.96462 -1.29898 0
M  V30 3946 H 369.156 -2.8457 -1.5238 0
M  V30 3947 H 368.208 -3.73382 0.727303 0
M  V30 3948 H 369.52 -4.93319 0.737401 0
M  V30 3949 H 368.674 -5.90078 -1.41042 0
M  V30 3950 H 367.413 -4.63911 -1.50458 0
M  V30 3951 H 366.418 -5.45952 0.649328 0
M  V30 3952 H 367.643 -6.75189 0.727809 0
M  V30 3953 H 365.589 -6.38931 -1.48672 0
M  V30 3954 H 365.506 -7.55712 -0.208789 0
M  V30 3955 H 366.774 -7.66959 -1.39263 0
M  V30 3956 N 371.003 -0.499398 -1.49478 0
M  V30 3957 C 371.935 0.316575 -2.27003 0
M  V30 3958 C 372.948 0.932047 -1.33479 0
M  V30 3959 O 374.137 0.815658 -1.58774 0
M  V30 3960 C 371.237 1.46055 -3.05812 0
M  V30 3961 C 370.41 0.952679 -4.26899 0
M  V30 3962 C 369.469 1.97407 -4.87767 0
M  V30 3963 O 368.495 1.54326 -5.4788 0
M  V30 3964 N 369.697 3.30436 -4.77276 0
M  V30 3965 H 372.462 -0.348168 -2.97671 0
M  V30 3966 H 370.023 -0.33185 -1.58463 0
M  V30 3967 H 372.015 2.14135 -3.43407 0
M  V30 3968 H 370.585 2.02948 -2.37762 0
M  V30 3969 H 369.805 0.0968248 -3.94081 0
M  V30 3970 H 371.093 0.59174 -5.05347 0
M  V30 3971 H 370.491 3.68126 -4.29534 0
M  V30 3972 H 369.048 3.94235 -5.19059 0
M  V30 3973 N 372.481 1.55866 -0.233164 0
M  V30 3974 C 373.728 1.98603 0.395374 0
M  V30 3975 C 374.056 1.12105 1.58942 0
M  V30 3976 O 373.311 0.168656 1.94972 0
M  V30 3977 C 373.61 3.46856 0.861724 0
M  V30 3978 C 373.276 4.50348 -0.223066 0
M  V30 3979 C 371.938 4.78371 -0.521038 0
M  V30 3980 C 374.29 5.12355 -0.956124 0
M  V30 3981 C 371.618 5.6568 -1.55638 0
M  V30 3982 C 373.97 6.00786 -1.98089 0
M  V30 3983 C 372.634 6.27148 -2.28565 0
M  V30 3984 H 371.904 0.726739 0.144677 0
M  V30 3985 H 374.551 1.88491 -0.338114 0
M  V30 3986 H 372.856 3.5423 1.67418 0
M  V30 3987 H 374.553 3.77302 1.35809 0
M  V30 3988 H 371.143 4.28596 0.0193234 0
M  V30 3989 H 375.327 4.90765 -0.739166 0
M  V30 3990 H 370.583 5.84365 -1.798 0
M  V30 3991 H 374.757 6.4788 -2.55391 0
M  V30 3992 H 372.384 6.94597 -3.08932 0
M  V30 3993 N 373.959 -0.0401083 1.57549 0
M  V30 3994 C 375.207 -0.731677 1.8839 0
M  V30 3995 C 375.528 -1.76481 0.829425 0
M  V30 3996 O 374.798 -1.95411 -0.1383 0
M  V30 3997 H 373.378 -0.273225 0.695239 0
M  V30 3998 H 376.04 -0.00867725 1.94898 0
M  V30 3999 H 375.136 -1.22816 2.86919 0
M  V30 4000 N 375.437 -1.54477 -0.31217 0
M  V30 4001 C 376.685 -1.72884 -1.04668 0
M  V30 4002 C 377.006 -0.511477 -1.88173 0
M  V30 4003 O 376.276 0.474407 -1.90069 0
M  V30 4004 H 374.856 -0.637461 -0.389425 0
M  V30 4005 H 377.518 -1.91807 -0.345852 0
M  V30 4006 H 376.614 -2.61334 -1.70619 0
M  V30 4007 N 376.915 0.57481 -1.46744 0
M  V30 4008 C 377.847 1.69804 -1.53946 0
M  V30 4009 C 378.86 1.57098 -0.427106 0
M  V30 4010 O 380.049 1.64378 -0.695863 0
M  V30 4011 C 377.149 3.08125 -1.4111 0
M  V30 4012 C 376.322 3.46757 -2.66605 0
M  V30 4013 C 375.381 4.6417 -2.47855 0
M  V30 4014 O 374.407 4.69634 -3.21609 0
M  V30 4015 N 375.609 5.59553 -1.54534 0
M  V30 4016 H 378.374 1.64077 -2.50796 0
M  V30 4017 H 375.935 0.761 -1.429 0
M  V30 4018 H 377.927 3.84478 -1.26328 0
M  V30 4019 H 376.497 3.08175 -0.524109 0
M  V30 4020 H 375.717 2.6003 -2.96274 0
M  V30 4021 H 377.005 3.69337 -3.49954 0
M  V30 4022 H 376.403 5.57881 -0.937304 0
M  V30 4023 H 374.96 6.35304 -1.45711 0
M  V30 4024 N 378.394 1.34581 0.820102 0
M  V30 4025 C 379.304 1.28471 1.96297 0
M  V30 4026 C 380.32 0.191902 1.72939 0
M  V30 4027 O 381.496 0.418879 1.96996 0
M  V30 4028 C 378.561 1.04281 3.30645 0
M  V30 4029 C 377.622 2.22745 3.66992 0
M  V30 4030 C 376.855 1.997 4.9493 0
M  V30 4031 O 377.078 0.956656 5.6232 0
M  V30 4032 O 376.012 2.86723 5.2922 0
M  V30 4033 H 379.838 2.24624 2.04396 0
M  V30 4034 H 377.423 1.14816 0.955913 0
M  V30 4035 H 379.305 0.925841 4.11104 0
M  V30 4036 H 377.98 0.111697 3.23507 0
M  V30 4037 H 376.887 2.40003 2.86966 0
M  V30 4038 H 378.22 3.14257 3.78819 0
M  V30 4039 N 379.872 -1.04064 1.18357 0
M  V30 4040 C 380.835 -2.10243 0.912707 0
M  V30 4041 C 381.835 -1.60477 -0.101928 0
M  V30 4042 O 383.025 -1.73703 0.131517 0
M  V30 4043 C 380.157 -3.38893 0.369387 0
M  V30 4044 H 381.35 -2.35706 1.85426 0
M  V30 4045 H 378.903 -1.20489 0.995594 0
M  V30 4046 H 379.638 -3.19094 -0.578776 0
M  V30 4047 H 379.423 -3.76331 1.1008 0
M  V30 4048 H 380.913 -4.17128 0.198575 0
M  V30 4049 N 381.35 -0.985608 -1.22978 0
M  V30 4050 C 382.28 -0.549649 -2.26939 0
M  V30 4051 C 383.261 0.419803 -1.64838 0
M  V30 4052 O 384.446 0.31203 -1.91677 0
M  V30 4053 C 381.576 0.143652 -3.47003 0
M  V30 4054 C 380.53 -0.743606 -4.21491 0
M  V30 4055 C 379.856 0.0822027 -5.34637 0
M  V30 4056 C 381.156 -2.03694 -4.80943 0
M  V30 4057 H 382.85 -1.41862 -2.63658 0
M  V30 4058 H 380.396 -0.683571 -1.26741 0
M  V30 4059 H 382.349 0.459985 -4.18882 0
M  V30 4060 H 381.073 1.04711 -3.09359 0
M  V30 4061 H 379.732 -1.04347 -3.51436 0
M  V30 4062 H 379.38 0.986359 -4.93234 0
M  V30 4063 H 379.08 -0.508377 -5.85397 0
M  V30 4064 H 380.604 0.392797 -6.09335 0
M  V30 4065 H 382.018 -1.78504 -5.44802 0
M  V30 4066 H 380.415 -2.57573 -5.42011 0
M  V30 4067 H 381.485 -2.72042 -4.01399 0
M  V30 4068 N 382.828 1.3818 -0.7579 0
M  V30 4069 C 384.074 2.00316 -0.316453 0
M  V30 4070 C 384.407 1.60026 1.10025 0
M  V30 4071 O 383.682 0.839835 1.75434 0
M  V30 4072 C 383.965 3.57349 -0.444245 0
M  V30 4073 C 383.818 4.07591 -1.90236 0
M  V30 4074 C 385.137 4.3981 0.1598 0
M  V30 4075 H 382.256 0.727741 -0.116459 0
M  V30 4076 H 384.898 1.6406 -0.958352 0
M  V30 4077 H 383.048 3.88365 0.102233 0
M  V30 4078 H 384.72 3.87199 -2.50748 0
M  V30 4079 H 382.963 3.60297 -2.41595 0
M  V30 4080 H 383.634 5.16677 -1.94291 0
M  V30 4081 H 386.11 4.14971 -0.306314 0
M  V30 4082 H 384.986 5.48885 0.0401675 0
M  V30 4083 H 385.247 4.24102 1.24859 0
M  V30 4084 N 384.306 0.507319 1.49211 0
M  V30 4085 C 385.552 -0.0350047 2.0277 0
M  V30 4086 C 385.885 -1.3606 1.38569 0
M  V30 4087 O 385.16 -1.87321 0.523542 0
M  V30 4088 C 385.443 -0.180916 3.59645 0
M  V30 4089 C 385.296 1.16825 4.34364 0
M  V30 4090 C 386.615 -0.918558 4.30407 0
M  V30 4091 H 383.734 -0.0112473 0.736914 0
M  V30 4092 H 386.376 0.659956 1.7817 0
M  V30 4093 H 384.526 -0.772826 3.80736 0
M  V30 4094 H 386.198 1.79952 4.24753 0
M  V30 4095 H 384.441 1.75594 3.96673 0
M  V30 4096 H 385.112 1.01939 5.42506 0
M  V30 4097 H 387.588 -0.41649 4.1401 0
M  V30 4098 H 386.464 -0.989505 5.39907 0
M  V30 4099 H 386.725 -1.96373 3.96093 0
M  V30 4100 N 385.784 -1.5574 0.241426 0
M  V30 4101 C 387.031 -1.9881 -0.384836 0
M  V30 4102 C 387.359 -1.12947 -1.58346 0
M  V30 4103 O 386.614 -0.178993 -1.9488 0
M  V30 4104 C 386.913 -3.47308 -0.843317 0
M  V30 4105 C 386.579 -4.50223 0.246946 0
M  V30 4106 C 385.241 -4.78088 0.546399 0
M  V30 4107 C 387.593 -5.11841 0.983282 0
M  V30 4108 C 384.921 -5.64846 1.58636 0
M  V30 4109 C 387.273 -5.99727 2.01272 0
M  V30 4110 C 385.937 -6.25927 2.31888 0
M  V30 4111 H 385.207 -0.727496 -0.140821 0
M  V30 4112 H 387.854 -1.8831 0.348106 0
M  V30 4113 H 386.159 -3.55112 -1.65537 0
M  V30 4114 H 387.856 -3.78017 -1.33806 0
M  V30 4115 H 384.446 -4.286 0.00340639 0
M  V30 4116 H 388.63 -4.90366 0.765182 0
M  V30 4117 H 383.886 -5.83403 1.82896 0
M  V30 4118 H 388.06 -6.46517 2.58823 0
M  V30 4119 H 385.687 -6.92949 3.12611 0
M  V30 4120 N 387.262 0.0317525 -1.57568 0
M  V30 4121 C 388.539 0.758366 -1.803 0
M  V30 4122 C 388.919 1.93718 -0.838845 0
M  V30 4123 O 388.267 2.28187 0.119571 0
M  V30 4124 C 388.477 1.19392 -3.27943 0
M  V30 4125 C 389.825 1.61094 -3.92854 0
M  V30 4126 O 390.849 1.28857 -3.32076 0
M  V30 4127 O 389.708 2.20918 -4.99858 0
M  V30 4128 H 386.802 0.366514 -0.741348 0
M  V30 4129 H 389.348 0.00873765 -1.69698 0
M  V30 4130 H 388.12 0.352275 -3.89711 0
M  V30 4131 H 387.743 2.00365 -3.43424 0
M  V30 4132 N 388.74 1.54641 0.303973 0
M  V30 4133 C 389.688 1.86137 1.39484 0
M  V30 4134 C 390.682 0.734854 1.52631 0
M  V30 4135 O 391.888 0.918803 1.54784 0
M  V30 4136 H 388.263 0.590324 0.465856 0
M  V30 4137 H 390.234 2.77324 1.10154 0
M  V30 4138 C 388.983 2.12274 2.75382 0
M  V30 4139 H 388.306 2.98429 2.66046 0
M  V30 4140 H 389.746 2.38254 3.5073 0
M  V30 4141 C 388.205 0.920365 3.24085 0
M  V30 4142 O 388.735 0.139377 4.01458 0
M  V30 4143 N 386.941 0.726566 2.81371 0
M  V30 4144 H 386.488 1.36332 2.18567 0
M  V30 4145 H 386.446 -0.0763799 3.14307 0
M  V30 4146 N 390.218 -0.567019 1.47046 0
M  V30 4147 C 391.464 -1.32658 1.53394 0
M  V30 4148 C 391.797 -1.93254 0.19148 0
M  V30 4149 O 391.072 -1.77338 -0.798844 0
M  V30 4150 C 391.355 -2.44412 2.64452 0
M  V30 4151 C 391.208 -1.88749 4.08282 0
M  V30 4152 C 392.527 -3.46387 2.71485 0
M  V30 4153 H 389.646 -0.48098 0.558415 0
M  V30 4154 H 392.288 -0.635481 1.79058 0
M  V30 4155 H 390.438 -3.03363 2.427 0
M  V30 4156 H 392.11 -1.34134 4.41368 0
M  V30 4157 H 390.353 -1.19481 4.17021 0
M  V30 4158 H 391.024 -2.69491 4.81745 0
M  V30 4159 H 393.5 -2.9734 2.91081 0
M  V30 4160 H 392.376 -4.2202 3.50985 0
M  V30 4161 H 392.637 -4.04616 1.78153 0
M  V30 4162 N 391.696 -1.35014 -0.812953 0
M  V30 4163 C 392.943 -1.27931 -1.56971 0
M  V30 4164 C 393.271 0.148034 -1.93936 0
M  V30 4165 O 392.526 1.11175 -1.61054 0
M  V30 4166 C 392.825 -2.12524 -2.87347 0
M  V30 4167 C 392.491 -3.61401 -2.6963 0
M  V30 4168 C 391.153 -4.01983 -2.64506 0
M  V30 4169 C 393.505 -4.55894 -2.52607 0
M  V30 4170 C 390.833 -5.35235 -2.40293 0
M  V30 4171 C 393.185 -5.89336 -2.29925 0
M  V30 4172 C 391.849 -6.2907 -2.23219 0
M  V30 4173 H 391.119 -0.468131 -0.574399 0
M  V30 4174 H 393.766 -1.66851 -0.939836 0
M  V30 4175 H 392.071 -1.66463 -3.54679 0
M  V30 4176 H 393.768 -2.04383 -3.45005 0
M  V30 4177 H 390.358 -3.29193 -2.74463 0
M  V30 4178 H 394.542 -4.25431 -2.55583 0
M  V30 4179 H 389.798 -5.65028 -2.33566 0
M  V30 4180 H 393.972 -6.62139 -2.15743 0
M  V30 4181 H 391.599 -7.32256 -2.04219 0
M  V30 4182 N 393.175 1.03435 -1.18907 0
M  V30 4183 C 394.424 1.76143 -0.982669 0
M  V30 4184 C 394.737 1.89416 0.487953 0
M  V30 4185 O 395.943 2.59041 0.813036 0
M  V30 4186 C 394.399 3.16722 -1.70924 0
M  V30 4187 C 394.007 3.11522 -3.21959 0
M  V30 4188 C 395.751 3.93764 -1.58588 0
M  V30 4189 C 393.658 4.46999 -3.87228 0
M  V30 4190 H 392.588 0.660292 -0.364047 0
M  V30 4191 H 395.239 1.158 -1.42347 0
M  V30 4192 H 393.621 3.775 -1.19623 0
M  V30 4193 H 394.795 2.60158 -3.80335 0
M  V30 4194 H 393.11 2.47978 -3.34508 0
M  V30 4195 H 395.707 4.93963 -2.04707 0
M  V30 4196 H 396.05 4.12794 -0.539142 0
M  V30 4197 H 396.583 3.39576 -2.07203 0
M  V30 4198 H 393.322 4.33174 -4.91976 0
M  V30 4199 H 392.842 4.98441 -3.33642 0
M  V30 4200 H 394.521 5.15898 -3.90459 0
M  V30 4201 N 394.653 0.992116 1.22453 0
M  V30 4202 C 396.064 0.702776 1.72968 0
M  V30 4203 C 396.415 -0.780399 1.80012 0
M  V30 4204 O 395.54 -1.61007 1.44589 0
M  V30 4205 C 396.135 1.26903 3.14135 0
M  V30 4206 C 394.694 1.02909 3.62059 0
M  V30 4207 C 393.841 1.38969 2.39964 0
M  V30 4208 H 396.792 1.16457 1.07812 0
M  V30 4209 H 396.813 0.647223 3.74955 0
M  V30 4210 H 396.325 2.34851 3.08977 0
M  V30 4211 H 394.426 -0.0337979 3.72585 0
M  V30 4212 H 394.539 1.69191 4.48231 0
M  V30 4213 H 392.903 0.808279 2.41535 0
M  V30 4214 H 393.686 2.4792 2.37467 0
M  V30 4215 N 396.131 -1.37776 0.765217 0
M  V30 4216 C 397.079 -2.32209 0.134798 0
M  V30 4217 C 398.073 -1.54607 -0.692315 0
M  V30 4218 O 399.279 -1.70052 -0.590109 0
M  V30 4219 H 395.654 -0.751591 0.0248005 0
M  V30 4220 H 397.625 -2.8297 0.947119 0
M  V30 4221 C 396.374 -3.39841 -0.735063 0
M  V30 4222 H 395.697 -3.99654 -0.107991 0
M  V30 4223 H 397.137 -4.08296 -1.14326 0
M  V30 4224 C 395.596 -2.79378 -1.88281 0
M  V30 4225 O 396.126 -2.69608 -2.97783 0
M  V30 4226 N 394.332 -2.37016 -1.68142 0
M  V30 4227 H 393.879 -2.45162 -0.790772 0
M  V30 4228 H 393.837 -1.96905 -2.45104 0
M  V30 4229 N 397.609 -0.515225 -1.4894 0
M  V30 4230 C 398.886 0.0879088 -1.95402 0
M  V30 4231 C 399.266 1.52745 -1.45712 0
M  V30 4232 O 398.614 2.18238 -0.677093 0
M  V30 4233 C 398.824 -0.0141055 -3.48997 0
M  V30 4234 C 400.172 0.152646 -4.24326 0
M  V30 4235 O 401.196 0.0604025 -3.56149 0
M  V30 4236 O 400.055 0.34384 -5.45417 0
M  V30 4237 H 397.149 0.0874636 -0.822362 0
M  V30 4238 H 399.695 -0.578775 -1.59525 0
M  V30 4239 H 398.467 -1.01745 -3.77841 0
M  V30 4240 H 398.09 0.692091 -3.9153 0
M  V30 4241 N 399.087 1.5561 -0.249682 0
M  V30 4242 C 400.503 1.59254 0.105103 0
M  V30 4243 C 400.703 1.26685 1.56694 0
M  V30 4244 O 399.759 1.0155 2.31179 0
M  V30 4245 C 401.072 2.99687 -0.246592 0
M  V30 4246 C 402.62 3.12416 -0.191118 0
M  V30 4247 C 403.095 4.55074 -0.516885 0
M  V30 4248 N 404.586 4.60835 -0.467489 0
M  V30 4249 C 405.321 5.69201 -0.69268 0
M  V30 4250 N 404.817 6.85817 -0.981146 0
M  V30 4251 N 406.61 5.58635 -0.623198 0
M  V30 4252 H 398.761 1.75049 -1.20298 0
M  V30 4253 H 401.024 0.815003 -0.484225 0
M  V30 4254 H 400.73 3.28267 -1.26228 0
M  V30 4255 H 400.604 3.74798 0.424962 0
M  V30 4256 H 402.991 2.83615 0.815247 0
M  V30 4257 H 403.072 2.39573 -0.896563 0
M  V30 4258 H 402.716 4.84596 -1.52082 0
M  V30 4259 H 402.646 5.26181 0.210068 0
M  V30 4260 H 405.137 3.7705 -0.253373 0
M  V30 4261 H 405.45 7.64341 -1.14032 0
M  V30 4262 H 403.795 6.87494 -1.01865 0
M  V30 4263 H 406.986 4.66406 -0.397863 0
M  V30 4264 H 407.159 6.43017 -0.802093 0
M  V30 4265 N 400.565 -0.0233959 1.57583 0
M  V30 4266 C 401.814 -0.712133 1.8871 0
M  V30 4267 C 402.127 -1.76217 0.848944 0
M  V30 4268 O 403.333 -2.50389 1.04964 0
M  V30 4269 C 401.789 -1.3177 3.3491 0
M  V30 4270 C 401.397 -0.303715 4.46969 0
M  V30 4271 C 403.141 -1.98598 3.75179 0
M  V30 4272 C 401.048 -0.917945 5.84233 0
M  V30 4273 H 399.978 -0.269735 0.704101 0
M  V30 4274 H 402.629 0.0333114 1.8347 0
M  V30 4275 H 401.011 -2.11304 3.34913 0
M  V30 4276 H 402.185 0.465325 4.58445 0
M  V30 4277 H 400.5 0.2628 4.1557 0
M  V30 4278 H 403.097 -2.45416 4.75053 0
M  V30 4279 H 403.44 -2.80659 3.07468 0
M  V30 4280 H 403.973 -1.25831 3.77374 0
M  V30 4281 H 400.712 -0.136633 6.55358 0
M  V30 4282 H 400.232 -1.65669 5.76467 0
M  V30 4283 H 401.911 -1.4236 6.31144 0
M  V30 4284 N 402.043 -1.548 -0.295768 0
M  V30 4285 C 403.29 -1.74329 -1.03032 0
M  V30 4286 C 403.618 -0.531915 -1.87085 0
M  V30 4287 O 402.873 0.486052 -1.89568 0
M  V30 4288 C 403.172 -2.98797 -1.961 0
M  V30 4289 C 402.838 -4.32356 -1.2798 0
M  V30 4290 C 401.5 -4.68661 -1.09135 0
M  V30 4291 C 403.852 -5.15128 -0.793243 0
M  V30 4292 C 401.18 -5.85312 -0.403269 0
M  V30 4293 C 403.532 -6.32488 -0.118854 0
M  V30 4294 C 402.196 -6.6745 0.0815043 0
M  V30 4295 H 401.466 -0.637916 -0.37702 0
M  V30 4296 H 404.113 -1.8906 -0.304696 0
M  V30 4297 H 402.418 -2.78869 -2.75207 0
M  V30 4298 H 404.115 -3.11102 -2.53015 0
M  V30 4299 H 400.705 -4.03808 -1.43655 0
M  V30 4300 H 404.889 -4.87575 -0.92653 0
M  V30 4301 H 400.145 -6.1094 -0.237098 0
M  V30 4302 H 404.319 -6.95892 0.266035 0
M  V30 4303 H 401.946 -7.57695 0.616685 0
M  V30 4304 N 403.521 0.559213 -1.47345 0
M  V30 4305 C 404.451 1.67622 -1.62558 0
M  V30 4306 C 405.432 1.63331 -0.475087 0
M  V30 4307 O 406.617 1.80983 -0.704182 0
M  V30 4308 C 403.747 3.0626 -1.63774 0
M  V30 4309 C 402.701 3.25397 -2.7803 0
M  V30 4310 C 402.027 4.64801 -2.64318 0
M  V30 4311 C 403.327 3.10965 -4.19641 0
M  V30 4312 H 405.021 1.55146 -2.56067 0
M  V30 4313 H 402.567 0.744961 -1.23233 0
M  V30 4314 H 404.52 3.84247 -1.73008 0
M  V30 4315 H 403.244 3.1969 -0.66825 0
M  V30 4316 H 401.903 2.49817 -2.68304 0
M  V30 4317 H 401.551 4.75028 -1.65401 0
M  V30 4318 H 401.251 4.78555 -3.40968 0
M  V30 4319 H 402.775 5.44926 -2.75478 0
M  V30 4320 H 404.189 3.78772 -4.30354 0
M  V30 4321 H 402.586 3.36229 -4.97062 0
M  V30 4322 H 403.656 2.07736 -4.38148 0
M  V30 4323 N 404.999 1.35443 0.805782 0
M  V30 4324 C 406.239 1.30127 1.57627 0
M  V30 4325 C 406.603 -0.122567 1.91608 0
M  V30 4326 O 407.804 -0.300107 2.67119 0
M  V30 4327 C 406.075 2.18314 2.82973 0
M  V30 4328 S 407.634 2.30521 3.7337 0
M  V30 4329 H 404.452 0.462439 0.540066 0
M  V30 4330 H 407.054 1.70843 0.95042 0
M  V30 4331 H 405.758 3.20741 2.56034 0
M  V30 4332 H 405.289 1.78558 3.50543 0
M  V30 4333 H 407.304 1.49062 4.73281 0
M  V30 4334 N 406.477 -1.02803 1.19454 0
M  V30 4335 C 407.409 -2.11181 0.890807 0
M  V30 4336 C 408.422 -1.6238 -0.116829 0
M  V30 4337 O 409.611 -1.78144 0.112694 0
M  V30 4338 C 406.711 -3.37461 0.311942 0
M  V30 4339 C 405.884 -4.15446 1.36834 0
M  V30 4340 C 404.943 -5.20039 0.802864 0
M  V30 4341 O 403.969 -5.49602 1.48077 0
M  V30 4342 N 405.171 -5.79165 -0.393417 0
M  V30 4343 H 407.936 -2.37827 1.82369 0
M  V30 4344 H 405.497 -1.19101 1.09666 0
M  V30 4345 H 407.489 -4.0462 -0.0802225 0
M  V30 4346 H 406.059 -3.08156 -0.52524 0
M  V30 4347 H 405.279 -3.43423 1.93531 0
M  V30 4348 H 406.567 -4.64335 2.08015 0
M  V30 4349 H 405.965 -5.57466 -0.961658 0
M  V30 4350 H 404.522 -6.47729 -0.727351 0
M  V30 4351 N 407.956 -0.998596 -1.21925 0
M  V30 4352 C 408.866 -0.562736 -2.27751 0
M  V30 4353 C 409.882 0.391203 -1.69545 0
M  V30 4354 O 411.058 0.256625 -1.99758 0
M  V30 4355 C 408.123 0.11012 -3.46525 0
M  V30 4356 C 407.184 -0.887495 -4.20026 0
M  V30 4357 C 406.417 -0.246654 -5.3313 0
M  V30 4358 O 406.64 0.958088 -5.62296 0
M  V30 4359 O 405.574 -0.954374 -5.94286 0
M  V30 4360 H 409.4 -1.44329 -2.67213 0
M  V30 4361 H 406.985 -0.767135 -1.28201 0
M  V30 4362 H 408.867 0.486756 -4.18579 0
M  V30 4363 H 407.542 0.965154 -3.08976 0
M  V30 4364 H 406.449 -1.31517 -3.5022 0
M  V30 4365 H 407.782 -1.71191 -4.6147 0
M  V30 4366 N 409.434 1.37368 -0.772513 0
M  V30 4367 C 410.664 2.03647 -0.348082 0
M  V30 4368 C 411.072 1.58392 1.03482 0
M  V30 4369 O 410.415 0.760921 1.672 0
M  V30 4370 C 410.477 3.58131 -0.313404 0
M  V30 4371 C 410.141 4.2652 -1.64102 0
M  V30 4372 C 411.138 4.50587 -2.5936 0
M  V30 4373 C 408.823 4.64335 -1.91567 0
M  V30 4374 C 410.817 5.11526 -3.80289 0
M  V30 4375 C 408.504 5.24996 -3.12766 0
M  V30 4376 C 409.502 5.48529 -4.06946 0
M  V30 4377 O 409.19 6.07921 -5.26011 0
M  V30 4378 H 408.922 0.660538 -0.143753 0
M  V30 4379 H 411.476 1.76669 -1.04772 0
M  V30 4380 H 409.706 3.84159 0.442617 0
M  V30 4381 H 411.395 4.05813 0.0840613 0
M  V30 4382 H 412.161 4.21784 -2.39423 0
M  V30 4383 H 408.04 4.45353 -1.19088 0
M  V30 4384 H 411.584 5.29811 -4.53813 0
M  V30 4385 H 407.481 5.53223 -3.32588 0
M  V30 4386 H 408.249 6.26398 -5.26847 0
M  V30 4387 N 410.912 0.523116 1.48665 0
M  V30 4388 C 412.189 -0.0775449 1.95446 0
M  V30 4389 C 412.569 -1.5197 1.4652 0
M  V30 4390 O 411.917 -2.17876 0.688657 0
M  V30 4391 C 412.127 0.0326135 3.48985 0
M  V30 4392 C 413.475 -0.130141 4.24401 0
M  V30 4393 O 414.499 -0.0415142 3.56176 0
M  V30 4394 O 413.358 -0.31491 5.45592 0
M  V30 4395 H 410.452 -0.0831012 0.822814 0
M  V30 4396 H 412.998 0.587227 1.59216 0
M  V30 4397 H 411.77 1.03748 3.77296 0
M  V30 4398 H 411.393 -0.671317 3.91892 0
M  V30 4399 N 412.39 -1.55475 0.257931 0
M  V30 4400 C 413.637 -1.99207 -0.363728 0
M  V30 4401 C 413.965 -1.1462 -1.57139 0
M  V30 4402 O 413.22 -0.199653 -1.94679 0
M  V30 4403 C 413.519 -3.48183 -0.806433 0
M  V30 4404 C 413.185 -4.49936 0.294684 0
M  V30 4405 C 411.847 -4.77481 0.597076 0
M  V30 4406 C 414.199 -5.10769 1.03751 0
M  V30 4407 C 411.527 -5.63132 1.64618 0
M  V30 4408 C 413.879 -5.97558 2.07622 0
M  V30 4409 C 412.543 -6.23432 2.38514 0
M  V30 4410 H 411.813 -0.728949 -0.133097 0
M  V30 4411 H 414.46 -1.8793 0.368059 0
M  V30 4412 H 412.765 -3.56848 -1.61761 0
M  V30 4413 H 414.462 -3.79415 -1.29789 0
M  V30 4414 H 411.052 -4.28572 0.0488649 0
M  V30 4415 H 415.236 -4.89527 0.817149 0
M  V30 4416 H 410.492 -5.8143 1.89074 0
M  V30 4417 H 414.666 -6.43735 2.65666 0
M  V30 4418 H 412.293 -6.89594 3.19943 0
M  V30 4419 N 413.868 0.0150385 -1.57593 0
M  V30 4420 C 414.831 0.995996 -2.06428 0
M  V30 4421 C 415.831 1.2818 -0.970903 0
M  V30 4422 O 417.021 1.22949 -1.23406 0
M  V30 4423 C 414.153 2.32506 -2.49307 0
M  V30 4424 H 415.346 0.573873 -2.94358 0
M  V30 4425 H 412.899 0.262186 -1.54085 0
M  V30 4426 H 413.634 2.79438 -1.64575 0
M  V30 4427 H 413.419 2.13087 -3.29145 0
M  V30 4428 H 414.909 3.02906 -2.87468 0
M  V30 4429 N 415.346 1.54954 0.287554 0
M  V30 4430 C 416.594 1.74528 1.01904 0
M  V30 4431 C 416.915 0.541349 1.87335 0
M  V30 4432 O 416.185 -0.444108 1.908 0
M  V30 4433 H 414.765 0.643576 0.379235 0
M  V30 4434 H 417.427 1.92333 0.315294 0
M  V30 4435 H 416.523 2.64015 1.6644 0
M  V30 4436 N 416.824 -0.551391 1.4764 0
M  V30 4437 C 417.757 -1.6738 1.5511 0
M  V30 4438 C 418.735 -1.5753 0.402856 0
M  V30 4439 O 419.919 -1.78307 0.611475 0
M  V30 4440 C 417.046 -3.05661 1.45908 0
M  V30 4441 C 416.092 -3.33938 2.65307 0
M  V30 4442 S 416.925 -3.22553 4.27457 0
M  V30 4443 C 418.081 -4.63317 4.20818 0
M  V30 4444 H 418.314 -1.6079 2.50068 0
M  V30 4445 H 415.847 -0.732674 1.35909 0
M  V30 4446 H 417.805 -3.8542 1.41286 0
M  V30 4447 H 416.466 -3.09711 0.523248 0
M  V30 4448 H 415.659 -4.34761 2.54948 0
M  V30 4449 H 415.261 -2.61809 2.67081 0
M  V30 4450 H 417.553 -5.54391 3.89431 0
M  V30 4451 H 418.496 -4.78732 5.21748 0
M  V30 4452 H 418.904 -4.41636 3.51593 0
M  V30 4453 N 418.302 -1.35869 -0.798587 0
M  V30 4454 C 419.235 -1.23801 -1.91699 0
M  V30 4455 C 420.213 -0.124143 -1.62125 0
M  V30 4456 O 421.397 -0.293656 -1.86199 0
M  V30 4457 C 418.524 -0.908063 -3.263 0
M  V30 4458 C 417.57 -2.0351 -3.74815 0
M  V30 4459 S 418.403 -3.65183 -3.91665 0
M  V30 4460 C 419.559 -3.34283 -5.29156 0
M  V30 4461 H 419.792 -2.18466 -2.01643 0
M  V30 4462 H 417.325 -1.21178 -0.956833 0
M  V30 4463 H 419.283 -0.724506 -4.04056 0
M  V30 4464 H 417.944 0.0206584 -3.14093 0
M  V30 4465 H 417.137 -1.75858 -4.72324 0
M  V30 4466 H 416.739 -2.1774 -3.04081 0
M  V30 4467 H 419.031 -2.87607 -6.13424 0
M  V30 4468 H 419.974 -4.31022 -5.61806 0
M  V30 4469 H 420.382 -2.69854 -4.95822 0
M  V30 4470 N 419.78 1.02168 -1.19998 0
M  V30 4471 C 421.026 1.75945 -1.00852 0
M  V30 4472 C 421.359 1.88702 0.458828 0
M  V30 4473 O 420.634 1.40911 1.34069 0
M  V30 4474 C 420.917 3.18154 -1.68671 0
M  V30 4475 C 420.77 3.13224 -3.22817 0
M  V30 4476 C 422.089 4.16711 -1.41561 0
M  V30 4477 H 419.208 0.638673 -0.367785 0
M  V30 4478 H 421.85 1.19222 -1.4794 0
M  V30 4479 H 420 3.66586 -1.28636 0
M  V30 4480 H 421.672 2.72635 -3.72112 0
M  V30 4481 H 419.915 2.50751 -3.53986 0
M  V30 4482 H 420.586 4.13728 -3.65422 0
M  V30 4483 H 423.062 3.76913 -1.76284 0
M  V30 4484 H 421.938 5.14391 -1.91553 0
M  V30 4485 H 422.199 4.40774 -0.342193 0
M  V30 4486 N 421.258 1.00505 1.21394 0
M  V30 4487 C 422.168 0.574806 2.27449 0
M  V30 4488 C 423.184 -0.382206 1.6975 0
M  V30 4489 O 424.36 -0.246027 1.99892 0
M  V30 4490 C 421.425 -0.0917414 3.46579 0
M  V30 4491 C 420.486 0.909758 4.1955 0
M  V30 4492 C 419.719 0.274924 5.32991 0
M  V30 4493 O 419.942 -0.928254 5.62796 0
M  V30 4494 O 418.876 0.985877 5.93771 0
M  V30 4495 H 422.702 1.45744 2.66444 0
M  V30 4496 H 420.287 0.773923 1.27792 0
M  V30 4497 H 422.169 -0.464551 4.18832 0
M  V30 4498 H 420.844 -0.948755 3.09484 0
M  V30 4499 H 419.751 1.33372 3.49518 0
M  V30 4500 H 421.084 1.73636 4.60555 0
M  V30 4501 N 422.737 -1.36956 0.779787 0
M  V30 4502 C 424.153 -1.52817 0.460342 0
M  V30 4503 C 424.353 -1.7361 -1.02283 0
M  V30 4504 O 423.409 -1.76207 -1.80852 0
M  V30 4505 C 424.722 -2.71983 1.28241 0
M  V30 4506 C 426.27 -2.85849 1.27512 0
M  V30 4507 C 426.745 -4.08008 2.08072 0
M  V30 4508 N 428.236 -4.15135 2.05467 0
M  V30 4509 C 428.971 -5.08711 2.64577 0
M  V30 4510 N 428.467 -6.07792 3.32506 0
M  V30 4511 N 430.26 -5.01254 2.54363 0
M  V30 4512 H 422.411 -1.21713 1.74068 0
M  V30 4513 H 424.674 -0.593294 0.739396 0
M  V30 4514 H 424.38 -2.63109 2.33381 0
M  V30 4515 H 424.254 -3.65882 0.917088 0
M  V30 4516 H 426.641 -2.94189 0.231686 0
M  V30 4517 H 426.722 -1.92886 1.68014 0
M  V30 4518 H 426.366 -4.00429 3.12441 0
M  V30 4519 H 426.296 -5.001 1.64947 0
M  V30 4520 H 428.787 -3.44189 1.5602 0
M  V30 4521 H 429.1 -6.75739 3.74963 0
M  V30 4522 H 427.445 -6.08047 3.36606 0
M  V30 4523 H 430.636 -4.22795 2.00902 0
M  V30 4524 H 430.809 -5.73995 3.00722 0
M  V30 4525 N 424.215 -0.530993 -1.48385 0
M  V30 4526 C 425.462 0.0027373 -2.025 0
M  V30 4527 C 425.79 1.34186 -1.40799 0
M  V30 4528 O 425.045 1.88 -0.543544 0
M  V30 4529 C 425.344 0.172742 -3.56982 0
M  V30 4530 C 425.01 -1.09215 -4.37473 0
M  V30 4531 C 423.672 -1.43881 -4.59186 0
M  V30 4532 C 426.024 -1.93153 -4.84088 0
M  V30 4533 C 423.352 -2.62381 -5.2476 0
M  V30 4534 C 425.704 -3.10833 -5.50968 0
M  V30 4535 C 424.368 -3.45843 -5.70919 0
M  V30 4536 H 423.638 0.00100165 -0.740999 0
M  V30 4537 H 426.285 -0.697219 -1.78357 0
M  V30 4538 H 424.59 0.955473 -3.79971 0
M  V30 4539 H 426.287 0.600642 -3.96476 0
M  V30 4540 H 422.877 -0.812177 -4.20834 0
M  V30 4541 H 427.061 -1.67683 -4.67115 0
M  V30 4542 H 422.317 -2.89707 -5.38405 0
M  V30 4543 H 426.491 -3.7618 -5.86056 0
M  V30 4544 H 424.118 -4.37764 -6.21503 0
M  V30 4545 N 425.693 1.55336 -0.266172 0
M  V30 4546 C 426.656 2.20878 0.612001 0
M  V30 4547 C 427.656 1.18388 1.08816 0
M  V30 4548 O 428.846 1.4335 0.989774 0
M  V30 4549 C 425.978 2.86765 1.84332 0
M  V30 4550 H 427.171 2.99873 0.0398718 0
M  V30 4551 H 424.724 1.56291 -0.0167309 0
M  V30 4552 H 425.459 2.11759 2.45619 0
M  V30 4553 H 425.244 3.61862 1.5099 0
M  V30 4554 H 426.734 3.36867 2.46801 0
M  V30 4555 N 427.171 -0.0066808 1.57599 0
M  V30 4556 C 428.419 -0.691552 1.899 0
M  V30 4557 C 428.74 -1.74682 0.866672 0
M  V30 4558 O 428.01 -1.95661 -0.0968189 0
M  V30 4559 H 426.59 -0.258416 0.700878 0
M  V30 4560 H 429.252 0.0326655 1.94873 0
M  V30 4561 H 428.348 -1.16702 2.8946 0
M  V30 4562 N 428.649 -1.55105 -0.279332 0
M  V30 4563 C 429.879 -1.7917 -1.02867 0
M  V30 4564 C 430.287 -0.56204 -1.80659 0
M  V30 4565 O 429.63 0.478266 -1.77365 0
M  V30 4566 C 429.692 -2.96061 -2.03932 0
M  V30 4567 C 429.356 -4.33341 -1.45137 0
M  V30 4568 C 430.353 -5.12565 -0.870266 0
M  V30 4569 C 428.038 -4.79987 -1.48048 0
M  V30 4570 C 430.032 -6.36565 -0.326097 0
M  V30 4571 C 427.719 -6.03944 -0.932443 0
M  V30 4572 C 428.717 -6.8207 -0.356247 0
M  V30 4573 O 428.405 -8.03691 0.183412 0
M  V30 4574 H 428.137 -0.600796 -0.309872 0
M  V30 4575 H 430.691 -2.02932 -0.317468 0
M  V30 4576 H 428.921 -2.67975 -2.78794 0
M  V30 4577 H 430.61 -3.07506 -2.64943 0
M  V30 4578 H 431.376 -4.77661 -0.840521 0
M  V30 4579 H 427.255 -4.1919 -1.91835 0
M  V30 4580 H 430.799 -6.97489 0.124286 0
M  V30 4581 H 426.696 -6.3833 -0.959407 0
M  V30 4582 H 427.464 -8.18468 0.0721681 0
M  V30 4583 N 430.127 0.543554 -1.4793 0
M  V30 4584 C 431.077 1.64527 -1.57844 0
M  V30 4585 C 432.061 1.54869 -0.436408 0
M  V30 4586 O 433.253 1.63119 -0.687101 0
M  V30 4587 C 430.382 3.03281 -1.6086 0
M  V30 4588 C 429.468 3.18093 -2.80495 0
M  V30 4589 N 429.859 3.02923 -4.05057 0
M  V30 4590 C 428.157 3.49121 -2.77543 0
M  V30 4591 C 428.858 3.20791 -4.85251 0
M  V30 4592 N 427.834 3.47749 -4.17818 0
M  V30 4593 H 431.636 1.51388 -2.5191 0
M  V30 4594 H 429.15 0.748671 -1.44113 0
M  V30 4595 H 431.147 3.82403 -1.66054 0
M  V30 4596 H 429.807 3.17521 -0.678996 0
M  V30 4597 H 430.818 2.79966 -4.35705 0
M  V30 4598 H 427.495 3.69804 -1.93781 0
M  V30 4599 H 428.885 3.13915 -5.9406 0
M  V30 4600 N 431.605 1.3629 0.791371 0
M  V30 4601 C 433.021 1.16661 1.08914 0
M  V30 4602 C 433.221 -0.0106266 2.01497 0
M  V30 4603 O 432.277 -0.676596 2.43266 0
M  V30 4604 C 433.59 2.47656 1.70549 0
M  V30 4605 C 435.138 2.54002 1.82899 0
M  V30 4606 C 435.613 3.85078 2.47949 0
M  V30 4607 N 437.104 3.86413 2.5542 0
M  V30 4608 C 437.839 4.84572 3.06557 0
M  V30 4609 N 437.335 5.93124 3.58016 0
M  V30 4610 N 439.128 4.71994 3.05251 0
M  V30 4611 H 431.279 2.11668 0.176238 0
M  V30 4612 H 433.542 0.937486 0.140796 0
M  V30 4613 H 433.248 3.34059 1.09989 0
M  V30 4614 H 433.122 2.63319 2.70079 0
M  V30 4615 H 435.509 1.68018 2.42598 0
M  V30 4616 H 435.59 2.42239 0.821808 0
M  V30 4617 H 435.234 4.71467 1.88895 0
M  V30 4618 H 435.164 3.94135 3.49235 0
M  V30 4619 H 437.655 3.07988 2.18979 0
M  V30 4620 H 437.968 6.63999 3.95381 0
M  V30 4621 H 436.313 5.96796 3.56173 0
M  V30 4622 H 439.504 3.86321 2.64336 0
M  V30 4623 H 439.677 5.48653 3.44796 0
M  V30 4624 N 433.083 -1.0153 1.20538 0
M  V30 4625 C 434.015 -2.10224 0.913155 0
M  V30 4626 C 435.028 -1.62495 -0.0995998 0
M  V30 4627 O 436.217 -1.78014 0.131582 0
M  V30 4628 C 433.317 -3.37111 0.347717 0
M  V30 4629 C 432.49 -4.13971 1.41233 0
M  V30 4630 C 431.549 -5.19158 0.857976 0
M  V30 4631 O 430.575 -5.48 1.53897 0
M  V30 4632 N 431.777 -5.7955 -0.331966 0
M  V30 4633 H 434.542 -2.35879 1.84881 0
M  V30 4634 H 432.103 -1.17931 1.10923 0
M  V30 4635 H 434.095 -4.04683 -0.0373026 0
M  V30 4636 H 432.665 -3.08696 -0.492527 0
M  V30 4637 H 431.885 -3.41351 1.97163 0
M  V30 4638 H 433.173 -4.62103 2.12928 0
M  V30 4639 H 432.571 -5.58455 -0.902478 0
M  V30 4640 H 431.128 -6.48464 -0.65861 0
M  V30 4641 N 434.561 -1.01147 -1.20859 0
M  V30 4642 C 435.786 -0.716698 -1.94623 0
M  V30 4643 C 436.211 0.715415 -1.73964 0
M  V30 4644 O 435.569 1.49157 -1.03062 0
M  V30 4645 C 435.617 -1.0513 -3.44935 0
M  V30 4646 O 434.721 -0.160131 -4.12089 0
M  V30 4647 H 434.062 -0.266404 -0.608214 0
M  V30 4648 H 436.592 -1.35346 -1.53436 0
M  V30 4649 H 436.602 -1.00086 -3.95533 0
M  V30 4650 H 435.277 -2.09475 -3.59295 0
M  V30 4651 H 433.854 -0.267657 -3.71938 0
M  V30 4652 N 436.039 1.36541 -0.78704 0
M  V30 4653 C 437.269 2.03266 -0.369662 0
M  V30 4654 C 437.677 1.59481 1.01796 0
M  V30 4655 O 437.02 0.778612 1.66383 0
M  V30 4656 C 437.082 3.57779 -0.351371 0
M  V30 4657 C 436.746 4.24756 -1.68617 0
M  V30 4658 C 437.743 4.47811 -2.64124 0
M  V30 4659 C 435.428 4.62277 -1.96481 0
M  V30 4660 C 437.422 5.07464 -3.85693 0
M  V30 4661 C 435.109 5.21649 -3.18317 0
M  V30 4662 C 436.107 5.44182 -4.12741 0
M  V30 4663 O 435.795 6.02307 -5.32429 0
M  V30 4664 H 435.527 0.658977 -0.150751 0
M  V30 4665 H 438.081 1.75548 -1.0664 0
M  V30 4666 H 436.311 3.84606 0.401847 0
M  V30 4667 H 438 4.05879 0.0410147 0
M  V30 4668 H 438.766 4.19221 -2.43883 0
M  V30 4669 H 434.645 4.44065 -1.23805 0
M  V30 4670 H 438.189 5.24968 -4.59407 0
M  V30 4671 H 434.086 5.49664 -3.38437 0
M  V30 4672 H 434.854 6.20775 -5.33461 0
M  V30 4673 N 437.518 0.538854 1.48102 0
M  V30 4674 C 438.766 0.00798599 2.02098 0
M  V30 4675 C 439.087 -1.33922 1.41739 0
M  V30 4676 O 438.357 -1.86932 0.585934 0
M  V30 4677 H 436.937 -3.62179e-05 0.747 0
M  V30 4678 H 439.599 0.7047 1.81714 0
M  V30 4679 H 438.695 -0.0937672 3.11959 0
M  V30 4680 N 438.996 -1.55193 0.274407 0
M  V30 4681 C 440.244 -1.99187 -0.341902 0
M  V30 4682 C 440.565 -1.16422 -1.56431 0
M  V30 4683 O 439.835 -0.253573 -1.94252 0
M  V30 4684 H 438.415 -0.735721 -0.129317 0
M  V30 4685 H 441.077 -1.91168 0.379578 0
M  V30 4686 H 440.173 -3.05629 -0.632253 0
M  V30 4687 N 440.474 -0.00167713 -1.576 0
M  V30 4688 C 441.714 0.687302 -1.92498 0
M  V30 4689 C 442.078 1.70844 -0.876144 0
M  V30 4690 O 443.279 2.44792 -1.11043 0
M  V30 4691 C 441.55 1.31217 -3.32441 0
M  V30 4692 S 443.109 2.02604 -3.89226 0
M  V30 4693 H 439.927 0.226985 -0.673794 0
M  V30 4694 H 442.529 -0.0587666 -1.95412 0
M  V30 4695 H 441.233 0.556164 -4.06614 0
M  V30 4696 H 440.764 2.09613 -3.32905 0
M  V30 4697 H 442.779 3.30137 -3.70438 0
M  V30 4698 N 441.952 1.55251 0.271103 0
M  V30 4699 C 442.899 1.88261 1.33516 0
M  V30 4700 C 443.869 0.734296 1.48988 0
M  V30 4701 O 445.054 0.985741 1.63364 0
M  V30 4702 C 442.194 2.16168 2.69008 0
M  V30 4703 C 441.307 3.43678 2.61743 0
M  V30 4704 C 440.442 3.61276 3.89427 0
M  V30 4705 C 439.481 4.82472 3.7668 0
M  V30 4706 N 438.618 4.96717 4.96202 0
M  V30 4707 H 443.458 2.79015 1.04665 0
M  V30 4708 H 440.995 1.38137 0.505618 0
M  V30 4709 H 442.953 2.30349 3.47844 0
M  V30 4710 H 441.583 1.28646 2.96057 0
M  V30 4711 H 440.635 3.37959 1.74607 0
M  V30 4712 H 441.947 4.3265 2.48224 0
M  V30 4713 H 441.101 3.75284 4.76704 0
M  V30 4714 H 439.84 2.70492 4.05814 0
M  V30 4715 H 438.845 4.68465 2.87786 0
M  V30 4716 H 440.07 5.74692 3.61809 0
M  V30 4717 H 438.016 4.08865 5.12997 0
M  V30 4718 H 437.933 5.79738 4.85222 0
M  V30 4719 H 439.201 5.15113 5.85046 0
M  V30 4720 N 443.43 -0.535701 1.48216 0
M  V30 4721 C 444.676 -1.29375 1.56173 0
M  V30 4722 C 445.009 -1.92804 0.232429 0
M  V30 4723 O 444.284 -1.78992 -0.761048 0
M  V30 4724 C 444.567 -2.38747 2.69577 0
M  V30 4725 C 444.42 -1.80046 4.12193 0
M  V30 4726 C 445.739 -3.40551 2.78771 0
M  V30 4727 H 442.858 -0.469027 0.568491 0
M  V30 4728 H 445.5 -0.597358 1.80365 0
M  V30 4729 H 443.65 -2.98147 2.4908 0
M  V30 4730 H 445.322 -1.24742 4.44114 0
M  V30 4731 H 443.565 -1.10609 4.19462 0
M  V30 4732 H 444.236 -2.59212 4.87353 0
M  V30 4733 H 446.712 -2.91099 2.97322 0
M  V30 4734 H 445.588 -4.1448 3.59857 0
M  V30 4735 H 445.849 -4.00746 1.86696 0
M  V30 4736 N 444.908 -1.36708 -0.784132 0
M  V30 4737 C 446.156 -1.30972 -1.53918 0
M  V30 4738 C 446.477 0.109086 -1.94695 0
M  V30 4739 O 445.747 1.05048 -1.65353 0
M  V30 4740 H 444.327 -0.481819 -0.570841 0
M  V30 4741 H 446.989 -1.71063 -0.934002 0
M  V30 4742 H 446.085 -1.94061 -2.44431 0
M  V30 4743 N 446.386 1.0089 -1.21074 0
M  V30 4744 C 447.632 1.74866 -1.02712 0
M  V30 4745 C 447.965 1.89178 0.438787 0
M  V30 4746 O 447.24 1.42325 1.32567 0
M  V30 4747 C 447.523 3.16347 -1.72036 0
M  V30 4748 C 447.376 3.09782 -3.26121 0
M  V30 4749 C 448.695 4.15187 -1.45973 0
M  V30 4750 H 445.814 0.634736 -0.374539 0
M  V30 4751 H 448.456 1.17646 -1.49196 0
M  V30 4752 H 446.606 3.65201 -1.32517 0
M  V30 4753 H 448.278 2.68673 -3.74983 0
M  V30 4754 H 446.521 2.46982 -3.56626 0
M  V30 4755 H 447.192 4.09829 -3.6979 0
M  V30 4756 H 449.668 3.75022 -1.80272 0
M  V30 4757 H 448.544 5.12331 -1.96999 0
M  V30 4758 H 448.805 4.40386 -0.388924 0
M  V30 4759 N 447.864 1.01787 1.20321 0
M  V30 4760 C 449.112 0.706538 1.89347 0
M  V30 4761 C 449.433 -0.766289 1.79313 0
M  V30 4762 O 448.703 -1.55126 1.19635 0
M  V30 4763 H 447.283 0.258348 0.700903 0
M  V30 4764 H 449.945 1.28974 1.46122 0
M  V30 4765 H 449.041 0.991066 2.95946 0
M  V30 4766 N 449.342 -1.36122 0.79427 0
M  V30 4767 C 450.619 -1.93398 0.292685 0
M  V30 4768 C 450.999 -1.72567 -1.21589 0
M  V30 4769 O 450.347 -1.08745 -2.00965 0
M  V30 4770 C 450.557 -3.42099 0.690614 0
M  V30 4771 C 451.905 -4.19231 0.673105 0
M  V30 4772 O 452.929 -3.50559 0.631389 0
M  V30 4773 O 451.788 -5.41732 0.720362 0
M  V30 4774 H 448.882 -0.823712 0.0736693 0
M  V30 4775 H 451.428 -1.45273 0.87714 0
M  V30 4776 H 450.2 -3.50938 1.73085 0
M  V30 4777 H 449.823 -3.97519 0.0803036 0
M  V30 4778 N 450.82 -0.546701 -1.47814 0
M  V30 4779 C 452.066 -0.0187684 -2.02791 0
M  V30 4780 C 452.399 1.32338 -1.42128 0
M  V30 4781 O 451.674 1.85867 -0.573023 0
M  V30 4782 C 451.957 0.0854985 -3.59998 0
M  V30 4783 C 451.81 -1.283 -4.31114 0
M  V30 4784 C 453.129 0.80412 -4.32691 0
M  V30 4785 H 450.248 -0.0082946 -0.736953 0
M  V30 4786 H 452.89 -0.706962 -1.76358 0
M  V30 4787 H 451.04 0.671609 -3.82651 0
M  V30 4788 H 452.712 -1.91151 -4.19832 0
M  V30 4789 H 450.955 -1.86049 -3.91878 0
M  V30 4790 H 451.626 -1.16287 -5.39612 0
M  V30 4791 H 454.102 0.306576 -4.14969 0
M  V30 4792 H 452.978 0.846011 -5.42341 0
M  V30 4793 H 453.239 1.85802 -4.01161 0
M  V30 4794 N 452.299 1.55045 -0.282633 0
M  V30 4795 C 453.545 2.00056 0.332481 0
M  V30 4796 C 453.878 1.1708 1.54939 0
M  V30 4797 O 453.153 0.2427 1.9298 0
M  V30 4798 C 453.436 3.53086 0.70725 0
M  V30 4799 C 453.289 4.46813 -0.517521 0
M  V30 4800 C 454.608 4.12245 1.54084 0
M  V30 4801 H 451.727 0.727268 0.119373 0
M  V30 4802 H 454.369 1.85932 -0.391076 0
M  V30 4803 H 452.519 3.65253 1.32372 0
M  V30 4804 H 454.191 4.46579 -1.15607 0
M  V30 4805 H 452.434 4.18163 -1.1542 0
M  V30 4806 H 453.105 5.51595 -0.211426 0
M  V30 4807 H 455.581 4.03401 1.02013 0
M  V30 4808 H 454.457 5.19515 1.77186 0
M  V30 4809 H 454.718 3.62951 2.52427 0
M  V30 4810 N 453.777 0.010035 1.57597 0
M  V30 4811 C 455.026 -0.671945 1.90178 0
M  V30 4812 C 455.339 -1.74376 0.886131 0
M  V30 4813 O 456.545 -2.48107 1.10252 0
M  V30 4814 C 455.001 -1.24636 3.3763 0
M  V30 4815 C 454.609 -0.208838 4.47513 0
M  V30 4816 C 456.353 -1.90595 3.79307 0
M  V30 4817 C 454.26 -0.793814 5.86048 0
M  V30 4818 H 453.19 -0.25474 0.709665 0
M  V30 4819 H 455.841 0.0722206 1.83358 0
M  V30 4820 H 454.223 -2.04152 3.3932 0
M  V30 4821 H 455.397 0.562463 4.57354 0
M  V30 4822 H 453.712 0.350889 4.14919 0
M  V30 4823 H 456.309 -2.35284 4.80151 0
M  V30 4824 H 456.652 -2.74074 3.13352 0
M  V30 4825 H 457.185 -1.17798 3.79958 0
M  V30 4826 H 453.924 0.00240855 6.555 0
M  V30 4827 H 453.444 -1.53404 5.79851 0
M  V30 4828 H 455.123 -1.2894 6.34022 0
M  V30 4829 N 455.255 -1.55392 -0.262866 0
M  V30 4830 C 456.503 -1.76127 -0.991147 0
M  V30 4831 C 456.824 -0.571083 -1.8645 0
M  V30 4832 O 456.094 0.413698 -1.91482 0
M  V30 4833 H 454.674 -0.649528 -0.368948 0
M  V30 4834 H 457.336 -1.9281 -0.284655 0
M  V30 4835 H 456.432 -2.6663 -1.62219 0
M  V30 4836 N 456.733 0.527833 -1.48498 0
M  V30 4837 C 457.696 1.61439 -1.62696 0
M  V30 4838 C 458.696 1.52824 -0.500136 0
M  V30 4839 O 459.886 1.56456 -0.765976 0
M  V30 4840 C 457.018 3.01063 -1.59918 0
M  V30 4841 H 458.211 1.50189 -2.59583 0
M  V30 4842 H 455.764 0.750055 -1.37127 0
M  V30 4843 H 456.499 3.17818 -0.645163 0
M  V30 4844 H 456.284 3.08725 -2.41726 0
M  V30 4845 H 457.774 3.80057 -1.73051 0
M  V30 4846 N 458.211 1.37122 0.776871 0
M  V30 4847 C 459.174 1.32301 1.8716 0
M  V30 4848 C 460.174 0.228099 1.59174 0
M  V30 4849 O 461.364 0.483642 1.67352 0
M  V30 4850 C 458.496 1.054 3.24197 0
M  V30 4851 H 459.689 2.29673 1.92848 0
M  V30 4852 H 457.242 1.22077 0.97606 0
M  V30 4853 H 457.977 0.0853872 3.24188 0
M  V30 4854 H 457.762 1.84648 3.45901 0
M  V30 4855 H 459.252 1.04664 4.04271 0
M  V30 4856 N 459.689 -1.00246 1.21608 0
M  V30 4857 C 460.652 -2.07233 0.979133 0
M  V30 4858 C 461.652 -1.6072 -0.0508219 0
M  V30 4859 O 462.842 -1.73196 0.186712 0
M  V30 4860 C 459.974 -3.37546 0.477016 0
M  V30 4861 H 461.167 -2.29687 1.92831 0
M  V30 4862 H 458.72 -1.17261 1.03342 0
M  V30 4863 H 459.455 -3.20773 -0.476966 0
M  V30 4864 H 459.24 -3.72638 1.21997 0
M  V30 4865 H 460.73 -4.16285 0.331181 0
M  V30 4866 N 461.167 -1.02423 -1.1978 0
M  V30 4867 C 462.097 -0.62157 -2.25075 0
M  V30 4868 C 463.078 0.367148 -1.6609 0
M  V30 4869 O 464.263 0.250892 -1.92573 0
M  V30 4870 C 461.393 0.0331826 -3.47284 0
M  V30 4871 C 460.347 -0.877323 -4.18912 0
M  V30 4872 C 459.673 -0.0879296 -5.34628 0
M  V30 4873 C 460.973 -2.18892 -4.74219 0
M  V30 4874 H 462.667 -1.50179 -2.59011 0
M  V30 4875 H 460.213 -0.723547 -1.24502 0
M  V30 4876 H 462.166 0.326488 -4.20133 0
M  V30 4877 H 460.89 0.948164 -3.12534 0
M  V30 4878 H 459.549 -1.15475 -3.47938 0
M  V30 4879 H 459.197 0.828941 -4.96123 0
M  V30 4880 H 458.897 -0.694359 -5.83483 0
M  V30 4881 H 460.421 0.198743 -6.10276 0
M  V30 4882 H 461.835 -1.95746 -5.38847 0
M  V30 4883 H 460.232 -2.74686 -5.33542 0
M  V30 4884 H 461.302 -2.84674 -3.92541 0
M  V30 4885 N 462.645 1.35699 -0.801477 0
M  V30 4886 C 463.608 2.28199 -0.213994 0
M  V30 4887 C 464.608 1.49359 0.595691 0
M  V30 4888 O 465.798 1.69186 0.414921 0
M  V30 4889 C 462.93 3.33587 0.702297 0
M  V30 4890 H 464.123 2.81666 -1.02976 0
M  V30 4891 H 461.676 1.45467 -0.571759 0
M  V30 4892 H 462.411 2.85297 1.54195 0
M  V30 4893 H 462.196 3.91906 0.123484 0
M  V30 4894 H 463.686 4.02638 1.10783 0
M  V30 4895 N 464.123 0.554532 1.47522 0
M  V30 4896 C 465.086 -0.184174 2.28459 0
M  V30 4897 C 466.086 -0.845195 1.36796 0
M  V30 4898 O 467.276 -0.701467 1.59452 0
M  V30 4899 C 464.408 -1.26903 3.16399 0
M  V30 4900 H 465.601 0.526751 2.95238 0
M  V30 4901 H 463.154 0.311375 1.53167 0
M  V30 4902 H 463.889 -2.01244 2.54306 0
M  V30 4903 H 463.674 -0.799883 3.83854 0
M  V30 4904 H 465.164 -1.78794 3.77389 0
M  V30 4905 N 465.601 -1.54893 0.290851 0
M  V30 4906 C 466.878 -1.91991 -0.373989 0
M  V30 4907 C 467.258 -1.21694 -1.72493 0
M  V30 4908 O 466.606 -0.34917 -2.25816 0
M  V30 4909 C 466.816 -3.45419 -0.498703 0
M  V30 4910 C 468.164 -4.1748 -0.774298 0
M  V30 4911 O 469.188 -3.51398 -0.582908 0
M  V30 4912 O 468.047 -5.3445 -1.14129 0
M  V30 4913 H 465.141 -0.800593 -0.207315 0
M  V30 4914 H 467.687 -1.66297 0.338164 0
M  V30 4915 H 466.459 -3.88688 0.451392 0
M  V30 4916 H 466.082 -3.77117 -1.25972 0
M  V30 4917 N 467.08 -0.0183926 -1.57589 0
M  V30 4918 C 468.31 0.67207 -1.95363 0
M  V30 4919 C 468.718 1.66807 -0.892872 0
M  V30 4920 O 468.061 1.83204 0.134958 0
M  V30 4921 C 468.123 1.44397 -3.29226 0
M  V30 4922 C 467.787 0.607511 -4.52944 0
M  V30 4923 C 468.784 -0.112657 -5.19778 0
M  V30 4924 C 466.469 0.548068 -4.99301 0
M  V30 4925 C 468.463 -0.881057 -6.31281 0
M  V30 4926 C 466.15 -0.224044 -6.10689 0
M  V30 4927 C 467.148 -0.937323 -6.76538 0
M  V30 4928 O 466.836 -1.6968 -7.85789 0
M  V30 4929 H 466.568 0.190925 -0.648478 0
M  V30 4930 H 469.122 -0.0711994 -2.05277 0
M  V30 4931 H 467.352 2.23214 -3.15773 0
M  V30 4932 H 469.041 2.02152 -3.51979 0
M  V30 4933 H 469.807 -0.0759998 -4.8494 0
M  V30 4934 H 465.686 1.09281 -4.4786 0
M  V30 4935 H 469.23 -1.43832 -6.82611 0
M  V30 4936 H 465.127 -0.262457 -6.44966 0
M  V30 4937 H 465.895 -1.61544 -8.024 0
M  V30 4938 N 468.558 1.5553 0.254621 0
M  V30 4939 C 469.506 1.9048 1.33492 0
M  V30 4940 C 470.5 0.78304 1.50216 0
M  V30 4941 O 471.706 0.967582 1.51782 0
M  V30 4942 H 468.081 0.604846 0.44684 0
M  V30 4943 H 470.052 2.80688 1.01275 0
M  V30 4944 C 468.801 2.20928 2.68489 0
M  V30 4945 H 468.124 3.06742 2.56417 0
M  V30 4946 H 469.564 2.49291 3.42972 0
M  V30 4947 C 468.023 1.023 3.20993 0
M  V30 4948 O 468.553 0.267027 4.00811 0
M  V30 4949 N 466.759 0.815714 2.78917 0
M  V30 4950 H 466.306 1.43217 2.14119 0
M  V30 4951 H 466.264 0.0236532 3.14391 0
M  V30 4952 N 470.036 -0.519951 1.48776 0
M  V30 4953 C 471.284 -1.2727 1.56993 0
M  V30 4954 C 471.605 -1.9339 0.25004 0
M  V30 4955 O 470.875 -1.81822 -0.729216 0
M  V30 4956 H 469.455 -0.472732 0.578389 0
M  V30 4957 H 472.117 -0.604234 1.85297 0
M  V30 4958 H 471.213 -2.04669 2.3562 0
M  V30 4959 N 471.514 -1.37532 -0.769588 0
M  V30 4960 C 472.477 -1.33292 -1.86456 0
M  V30 4961 C 473.477 -0.236537 -1.59051 0
M  V30 4962 O 474.667 -0.492511 -1.67093 0
M  V30 4963 C 471.799 -1.07118 -3.23633 0
M  V30 4964 H 472.992 -2.30692 -1.91628 0
M  V30 4965 H 470.545 -1.22593 -0.969572 0
M  V30 4966 H 471.28 -0.102578 -3.24138 0
M  V30 4967 H 471.065 -1.86479 -3.44917 0
M  V30 4968 H 472.555 -1.06806 -4.03711 0
M  V30 4969 N 472.992 0.995999 -1.22138 0
M  V30 4970 C 473.924 2.08745 -0.946485 0
M  V30 4971 C 474.937 1.62633 0.0737356 0
M  V30 4972 O 476.126 1.77782 -0.159886 0
M  V30 4973 C 473.226 3.36516 -0.401305 0
M  V30 4974 C 472.399 4.11672 -1.47801 0
M  V30 4975 C 471.458 5.17728 -0.940461 0
M  V30 4976 O 470.484 5.45482 -1.62596 0
M  V30 4977 N 471.686 5.80005 0.239723 0
M  V30 4978 H 474.451 2.32908 -1.88611 0
M  V30 4979 H 472.012 1.16152 -1.12785 0
M  V30 4980 H 474.004 4.04691 -0.0270837 0
M  V30 4981 H 472.574 3.0944 0.443354 0
M  V30 4982 H 471.794 3.38171 -2.02568 0
M  V30 4983 H 473.082 4.58657 -2.20253 0
M  V30 4984 H 472.48 5.5982 0.813518 0
M  V30 4985 H 471.037 6.4943 0.555361 0
M  V30 4986 N 474.47 1.03057 1.19235 0
M  V30 4987 C 475.417 0.612832 2.22515 0
M  V30 4988 C 476.387 -0.374224 1.61829 0
M  V30 4989 O 477.572 -0.270501 1.88873 0
M  V30 4990 C 474.712 -0.028475 3.45088 0
M  V30 4991 C 473.825 1.00483 4.20151 0
M  V30 4992 C 472.96 0.333102 5.30155 0
M  V30 4993 C 471.999 1.3522 5.96977 0
M  V30 4994 N 471.136 0.70616 6.9854 0
M  V30 4995 H 475.976 1.49812 2.57605 0
M  V30 4996 H 473.513 0.749658 1.26564 0
M  V30 4997 H 475.471 -0.417548 4.15105 0
M  V30 4998 H 474.101 -0.877334 3.10649 0
M  V30 4999 H 473.153 1.51194 3.49062 0
M  V30 5000 H 474.465 1.77929 4.65986 0
M  V30 5001 H 473.619 -0.110725 6.06599 0
M  V30 5002 H 472.358 -0.473547 4.85396 0
M  V30 5003 H 471.363 1.80627 5.19282 0
M  V30 5004 H 472.588 2.16037 6.4382 0
M  V30 5005 H 470.534 -0.0803667 6.55951 0
M  V30 5006 H 470.451 1.41848 7.42573 0
M  V30 5007 H 471.719 0.286391 7.78974 0
M  V30 5008 N 475.948 -1.35272 0.808662 0
M  V30 5009 C 476.911 -2.28082 0.226093 0
M  V30 5010 C 477.911 -1.49673 -0.587762 0
M  V30 5011 O 479.101 -1.69404 -0.405943 0
M  V30 5012 C 476.233 -3.33955 -0.684596 0
M  V30 5013 H 477.426 -2.81116 1.04469 0
M  V30 5014 H 474.979 -1.45162 0.579466 0
M  V30 5015 H 475.714 -2.86111 -1.5268 0
M  V30 5016 H 475.499 -3.91965 -0.102699 0
M  V30 5017 H 476.989 -4.03219 -1.08646 0
M  V30 5018 N 477.426 -0.562348 -1.47226 0
M  V30 5019 C 478.651 -0.0432632 -2.07355 0
M  V30 5020 C 479.076 1.24332 -1.41149 0
M  V30 5021 O 478.434 1.74603 -0.488226 0
M  V30 5022 C 478.482 0.130288 -3.60365 0
M  V30 5023 O 477.586 1.19166 -3.94808 0
M  V30 5024 H 476.927 -0.0536334 -0.66183 0
M  V30 5025 H 479.457 -0.779495 -1.89169 0
M  V30 5026 H 479.467 0.342881 -4.06557 0
M  V30 5027 H 478.142 -0.809389 -4.07948 0
M  V30 5028 H 476.719 0.959153 -3.60354 0
M  V30 5029 N 478.904 1.54736 -0.299062 0
M  V30 5030 C 479.854 2.20155 0.592932 0
M  V30 5031 C 480.838 1.1739 1.10038 0
M  V30 5032 O 482.03 1.43116 1.04147 0
M  V30 5033 C 479.159 2.94437 1.76527 0
M  V30 5034 C 478.245 4.04516 1.27388 0
M  V30 5035 N 478.636 5.03319 0.500339 0
M  V30 5036 C 476.934 4.18022 1.55478 0
M  V30 5037 C 477.635 5.81209 0.238909 0
M  V30 5038 N 476.611 5.37408 0.818163 0
M  V30 5039 H 480.413 2.93899 -0.00563596 0
M  V30 5040 H 477.927 1.62068 -0.103732 0
M  V30 5041 H 479.924 3.3977 2.41582 0
M  V30 5042 H 478.584 2.22209 2.36756 0
M  V30 5043 H 479.595 5.17696 0.145419 0
M  V30 5044 H 476.272 3.56998 2.16469 0
M  V30 5045 H 477.662 6.70812 -0.382223 0
M  V30 5046 N 480.382 0.0267497 1.57577 0
M  V30 5047 C 481.628 -0.653371 1.91987 0
M  V30 5048 C 481.961 -1.71915 0.903263 0
M  V30 5049 O 481.236 -1.94358 -0.0743387 0
M  V30 5050 C 481.519 -1.272 3.36886 0
M  V30 5051 C 481.372 -0.215938 4.49281 0
M  V30 5052 C 482.691 -2.19069 3.81703 0
M  V30 5053 H 479.81 -0.236047 0.698177 0
M  V30 5054 H 482.452 0.0835236 1.89816 0
M  V30 5055 H 480.602 -1.90005 3.38866 0
M  V30 5056 H 482.274 0.41449 4.59434 0
M  V30 5057 H 480.517 0.458855 4.31366 0
M  V30 5058 H 481.188 -0.688347 5.47691 0
M  V30 5059 H 483.664 -1.66253 3.81444 0
M  V30 5060 H 482.54 -2.59307 4.83788 0
M  V30 5061 H 482.801 -3.08087 3.17072 0
M  V30 5062 N 481.861 -1.55662 -0.24637 0
M  V30 5063 C 482.808 -1.90361 -1.30504 0
M  V30 5064 C 483.778 -0.757905 -1.47801 0
M  V30 5065 O 484.963 -1.01161 -1.61775 0
M  V30 5066 C 482.103 -2.2042 -2.65535 0
M  V30 5067 C 481.216 -3.47799 -2.56242 0
M  V30 5068 C 480.351 -3.67426 -3.8363 0
M  V30 5069 C 479.39 -4.88403 -3.68956 0
M  V30 5070 N 478.527 -5.04548 -4.88237 0
M  V30 5071 H 483.367 -2.80645 -1.00213 0
M  V30 5072 H 480.904 -1.38924 -0.483577 0
M  V30 5073 H 482.862 -2.35853 -3.44135 0
M  V30 5074 H 481.492 -1.3334 -2.93973 0
M  V30 5075 H 480.544 -3.40694 -1.69208 0
M  V30 5076 H 481.856 -4.36544 -2.4131 0
M  V30 5077 H 481.01 -3.82821 -4.70673 0
M  V30 5078 H 479.749 -2.76914 -4.01459 0
M  V30 5079 H 478.754 -4.72984 -2.80296 0
M  V30 5080 H 479.979 -5.80375 -3.52621 0
M  V30 5081 H 477.925 -4.16974 -5.06427 0
M  V30 5082 H 477.842 -5.87384 -4.75937 0
M  V30 5083 H 479.11 -5.24355 -5.76777 0
M  V30 5084 N 483.339 0.512053 -1.4905 0
M  V30 5085 C 484.616 1.27337 -1.48474 0
M  V30 5086 C 484.996 2.1009 -0.206301 0
M  V30 5087 O 484.344 2.136 0.811609 0
M  V30 5088 C 484.554 2.13954 -2.75726 0
M  V30 5089 C 485.902 2.73507 -3.24776 0
M  V30 5090 O 486.926 2.24229 -2.76767 0
M  V30 5091 O 485.785 3.63186 -4.08361 0
M  V30 5092 H 482.879 0.575652 -0.593762 0
M  V30 5093 H 485.425 0.527232 -1.61302 0
M  V30 5094 H 484.197 1.52709 -3.60272 0
M  V30 5095 H 483.82 2.95782 -2.65705 0
M  V30 5096 N 484.817 1.37938 0.762283 0
M  V30 5097 C 485.764 1.34467 1.87583 0
M  V30 5098 C 486.734 0.208633 1.64785 0
M  V30 5099 O 487.919 0.399494 1.86571 0
M  V30 5100 C 485.059 1.16692 3.24772 0
M  V30 5101 C 484.172 2.39608 3.59461 0
M  V30 5102 C 483.307 2.14631 4.85908 0
M  V30 5103 C 482.346 3.33364 5.13357 0
M  V30 5104 N 481.483 3.07877 6.30996 0
M  V30 5105 H 486.323 2.29669 1.89885 0
M  V30 5106 H 483.86 1.14116 0.928219 0
M  V30 5107 H 485.818 1.04405 4.03925 0
M  V30 5108 H 484.448 0.251333 3.2182 0
M  V30 5109 H 483.5 2.626 2.75219 0
M  V30 5110 H 484.812 3.28128 3.75678 0
M  V30 5111 H 483.966 1.99429 5.72986 0
M  V30 5112 H 482.705 1.23463 4.71814 0
M  V30 5113 H 481.71 3.49094 4.24751 0
M  V30 5114 H 482.935 4.25395 5.29354 0
M  V30 5115 H 480.881 2.19348 6.18241 0
M  V30 5116 H 480.798 3.89944 6.47673 0
M  V30 5117 H 482.066 2.96313 7.20985 0
M  V30 5118 N 486.295 -0.989507 1.22664 0
M  V30 5119 C 487.225 -2.09847 1.02404 0
M  V30 5120 C 488.206 -1.70007 -0.0561303 0
M  V30 5121 O 489.391 -1.93906 0.106748 0
M  V30 5122 C 486.521 -3.41996 0.604663 0
M  V30 5123 C 485.475 -3.95699 1.63115 0
M  V30 5124 C 484.801 -5.23936 1.0675 0
M  V30 5125 C 486.101 -4.25999 3.02196 0
M  V30 5126 H 487.795 -2.27054 1.95158 0
M  V30 5127 H 485.341 -1.09111 0.939727 0
M  V30 5128 H 487.294 -4.1899 0.45002 0
M  V30 5129 H 486.018 -3.24626 -0.35855 0
M  V30 5130 H 484.677 -3.2084 1.77362 0
M  V30 5131 H 484.325 -5.02909 0.0955422 0
M  V30 5132 H 484.025 -5.60833 1.75328 0
M  V30 5133 H 485.549 -6.0356 0.924516 0
M  V30 5134 H 486.963 -4.93777 2.91303 0
M  V30 5135 H 485.36 -4.74076 3.67929 0
M  V30 5136 H 486.43 -3.33636 3.51873 0
M  V30 5137 N 487.773 -1.03688 -1.18687 0
M  V30 5138 C 489.022 -0.733235 -1.879 0
M  V30 5139 C 489.335 0.741745 -1.8099 0
M  V30 5140 O 490.541 1.15875 -2.4553 0
M  V30 5141 C 488.997 -1.26127 -3.37076 0
M  V30 5142 C 488.605 -2.76461 -3.52524 0
M  V30 5143 C 490.349 -1.03398 -4.11715 0
M  V30 5144 C 488.256 -3.22642 -4.95637 0
M  V30 5145 H 487.186 -0.270584 -0.703776 0
M  V30 5146 H 489.837 -1.25222 -1.34133 0
M  V30 5147 H 488.219 -0.670165 -3.90288 0
M  V30 5148 H 489.393 -3.41296 -3.09602 0
M  V30 5149 H 487.708 -2.97559 -2.91286 0
M  V30 5150 H 490.305 -1.3542 -5.17267 0
M  V30 5151 H 490.648 0.0289246 -4.1629 0
M  V30 5152 H 491.181 -1.5895 -3.64664 0
M  V30 5153 H 487.92 -4.28296 -4.96228 0
M  V30 5154 H 487.44 -2.62539 -5.39289 0
M  V30 5155 H 489.119 -3.16444 -5.64333 0
M  V30 5156 N 489.251 1.34841 -0.815825 0
M  V30 5157 C 490.161 2.33425 -0.234462 0
M  V30 5158 C 491.177 1.62295 0.627413 0
M  V30 5159 O 492.353 1.94109 0.536987 0
M  V30 5160 C 489.418 3.41471 0.599849 0
M  V30 5161 C 488.479 4.28362 -0.283596 0
M  V30 5162 C 487.712 5.31248 0.51099 0
M  V30 5163 O 487.935 5.43056 1.7449 0
M  V30 5164 O 486.869 6.01812 -0.10297 0
M  V30 5165 H 490.695 2.84962 -1.05024 0
M  V30 5166 H 488.28 1.37774 -0.577809 0
M  V30 5167 H 490.162 4.07464 1.07475 0
M  V30 5168 H 488.837 2.9219 1.39308 0
M  V30 5169 H 487.744 3.65318 -0.805836 0
M  V30 5170 H 489.077 4.81066 -1.041 0
M  V30 5171 N 490.729 0.570148 1.46925 0
M  V30 5172 C 491.662 -0.218362 2.27153 0
M  V30 5173 C 492.64 -0.90847 1.34854 0
M  V30 5174 O 493.824 -0.924875 1.64251 0
M  V30 5175 C 490.951 -1.3122 3.12248 0
M  V30 5176 C 489.997 -0.729277 4.20219 0
M  V30 5177 S 490.83 0.434159 5.33737 0
M  V30 5178 C 491.986 -0.661188 6.22398 0
M  V30 5179 H 492.219 0.462393 2.93682 0
M  V30 5180 H 489.752 0.356753 1.50222 0
M  V30 5181 H 491.71 -1.93856 3.61842 0
M  V30 5182 H 490.371 -1.96485 2.45056 0
M  V30 5183 H 489.564 -1.5511 4.79538 0
M  V30 5184 H 489.166 -0.178836 3.73572 0
M  V30 5185 H 491.458 -1.55006 6.5953 0
M  V30 5186 H 492.401 -0.105046 7.08022 0
M  V30 5187 H 492.809 -0.959682 5.56283 0
M  V30 5188 N 492.207 -1.54576 0.307264 0
M  V30 5189 C 493.435 -2.04675 -0.302597 0
M  V30 5190 C 493.85 -1.18425 -1.47041 0
M  V30 5191 O 493.207 -0.211257 -1.81273 0
M  V30 5192 C 493.258 -3.53575 -0.752801 0
M  V30 5193 O 492.979 -4.36547 0.368536 0
M  V30 5194 C 494.48 -4.19699 -1.42717 0
M  V30 5195 H 491.7 -0.66786 -0.0648374 0
M  V30 5196 H 494.244 -1.99516 0.448716 0
M  V30 5197 H 492.399 -3.59074 -1.45412 0
M  V30 5198 H 492.813 -5.24497 0.0168937 0
M  V30 5199 H 494.287 -5.25388 -1.69327 0
M  V30 5200 H 494.764 -3.69815 -2.36925 0
M  V30 5201 H 495.37 -4.18293 -0.768856 0
M  V30 5202 N 493.685 -0.035106 -1.57561 0
M  V30 5203 C 494.635 0.954034 -2.0708 0
M  V30 5204 C 495.619 1.2818 -0.972558 0
M  V30 5205 O 496.811 1.26691 -1.23606 0
M  V30 5206 C 493.94 2.23442 -2.60631 0
M  V30 5207 C 493.026 1.93475 -3.77396 0
M  V30 5208 N 493.417 1.33802 -4.87781 0
M  V30 5209 C 491.715 2.23434 -3.85996 0
M  V30 5210 C 492.416 1.21103 -5.68954 0
M  V30 5211 N 491.392 1.70855 -5.16052 0
M  V30 5212 H 495.194 0.487731 -2.89825 0
M  V30 5213 H 492.708 0.169759 -1.6151 0
M  V30 5214 H 494.705 2.95183 -2.94402 0
M  V30 5215 H 493.365 2.70693 -1.79319 0
M  V30 5216 H 494.376 1.01227 -5.07911 0
M  V30 5217 H 491.053 2.73317 -3.15601 0
M  V30 5218 H 492.443 0.749105 -6.67711 0
M  V30 5219 N 495.163 1.55791 0.238111 0
M  V30 5220 C 496.093 1.94068 1.29846 0
M  V30 5221 C 497.074 0.806726 1.49753 0
M  V30 5222 O 498.259 1.06772 1.62214 0
M  V30 5223 C 495.389 2.24302 2.65153 0
M  V30 5224 C 494.343 3.40032 2.59927 0
M  V30 5225 C 493.669 3.55829 3.99111 0
M  V30 5226 C 494.969 4.75476 2.16148 0
M  V30 5227 H 496.663 2.82887 0.980563 0
M  V30 5228 H 494.209 1.36105 0.470253 0
M  V30 5229 H 496.162 2.4967 3.39475 0
M  V30 5230 H 494.886 1.32318 2.98596 0
M  V30 5231 H 493.545 3.14687 1.88063 0
M  V30 5232 H 493.193 2.6125 4.29834 0
M  V30 5233 H 492.893 4.3366 3.96501 0
M  V30 5234 H 494.417 3.83528 4.7512 0
M  V30 5235 H 495.831 5.00158 2.80205 0
M  V30 5236 H 494.228 5.56472 2.24631 0
M  V30 5237 H 495.298 4.71946 1.11333 0
M  V30 5238 N 496.642 -0.504142 1.49319 0
M  V30 5239 C 497.59 -1.62689 1.66238 0
M  V30 5240 C 498.584 -1.6095 0.528349 0
M  V30 5241 O 499.79 -1.65496 0.707887 0
M  V30 5242 H 496.165 -0.539247 0.524134 0
M  V30 5243 H 498.136 -1.45571 2.60484 0
M  V30 5244 C 496.885 -3.00841 1.74328 0
M  V30 5245 H 496.208 -3.02884 2.60963 0
M  V30 5246 H 497.648 -3.78945 1.90202 0
M  V30 5247 C 496.107 -3.33355 0.487416 0
M  V30 5248 O 496.637 -3.99819 -0.388294 0
M  V30 5249 N 494.843 -2.88469 0.351306 0
M  V30 5250 H 494.39 -2.34557 1.06492 0
M  V30 5251 H 494.348 -3.10591 -0.487899 0
M  V30 5252 N 498.12 -1.38341 -0.754957 0
M  V30 5253 C 499.03 -1.3769 -1.89944 0
M  V30 5254 C 500.046 -0.274194 -1.71826 0
M  V30 5255 O 501.222 -0.512391 -1.94773 0
M  V30 5256 C 498.287 -1.19938 -3.25293 0
M  V30 5257 C 497.348 -2.40001 -3.55946 0
M  V30 5258 C 496.581 -2.23087 -4.84838 0
M  V30 5259 O 496.804 -1.22386 -5.57116 0
M  V30 5260 O 495.738 -3.11646 -5.14937 0
M  V30 5261 H 499.564 -2.3412 -1.93446 0
M  V30 5262 H 497.149 -1.19246 -0.900044 0
M  V30 5263 H 499.031 -1.12093 -4.06218 0
M  V30 5264 H 497.706 -0.265919 -3.22606 0
M  V30 5265 H 496.613 -2.53421 -2.75188 0
M  V30 5266 H 497.946 -3.31973 -3.63394 0
M  V30 5267 N 499.598 0.982988 -1.23187 0
M  V30 5268 C 500.826 1.75921 -1.08901 0
M  V30 5269 C 501.241 1.85341 0.359719 0
M  V30 5270 O 500.598 1.33072 1.24892 0
M  V30 5271 C 500.649 3.18742 -1.70545 0
M  V30 5272 O 500.37 3.09814 -3.09753 0
M  V30 5273 C 501.871 4.1277 -1.61667 0
M  V30 5274 H 499.091 0.552166 -0.381252 0
M  V30 5275 H 501.635 1.23516 -1.62985 0
M  V30 5276 H 499.79 3.68182 -1.20501 0
M  V30 5277 H 500.204 3.99703 -3.39614 0
M  V30 5278 H 501.678 5.10697 -2.09506 0
M  V30 5279 H 502.155 4.3542 -0.575009 0
M  V30 5280 H 502.761 3.69232 -2.11064 0
M  V30 5281 N 501.076 1.04316 1.18135 0
M  V30 5282 C 502.006 0.657299 2.24058 0
M  V30 5283 C 502.987 -0.340678 1.66654 0
M  V30 5284 O 504.172 -0.220223 1.92947 0
M  V30 5285 C 501.302 0.0220715 3.47293 0
M  V30 5286 C 500.256 0.943857 4.17463 0
M  V30 5287 C 499.582 0.172973 5.3442 0
M  V30 5288 C 500.882 2.26409 4.70677 0
M  V30 5289 H 502.576 1.5428 2.56589 0
M  V30 5290 H 500.122 0.743263 1.23335 0
M  V30 5291 H 502.075 -0.259607 4.206 0
M  V30 5292 H 500.799 -0.898323 3.14003 0
M  V30 5293 H 499.458 1.20996 3.46057 0
M  V30 5294 H 499.106 -0.749907 4.97379 0
M  V30 5295 H 498.806 0.787098 5.82304 0
M  V30 5296 H 500.33 -0.101628 6.10515 0
M  V30 5297 H 501.744 2.04294 5.35665 0
M  V30 5298 H 500.141 2.8314 5.29105 0
M  V30 5299 H 501.211 2.90883 3.87962 0
M  V30 5300 N 502.554 -1.34406 0.822964 0
M  V30 5301 C 503.784 -2.02214 0.423424 0
M  V30 5302 C 504.192 -1.62124 -0.975322 0
M  V30 5303 O 503.535 -0.822452 -1.6426 0
M  V30 5304 C 503.597 -3.56721 0.446107 0
M  V30 5305 C 503.261 -4.20136 1.79819 0
M  V30 5306 C 504.258 -4.4065 2.75904 0
M  V30 5307 C 501.943 -4.56906 2.08669 0
M  V30 5308 C 503.937 -4.9706 3.99012 0
M  V30 5309 C 501.624 -5.13026 3.32036 0
M  V30 5310 C 502.622 -5.33047 4.27024 0
M  V30 5311 O 502.31 -5.87979 5.48211 0
M  V30 5312 H 502.042 -0.654748 0.168169 0
M  V30 5313 H 504.596 -1.72659 1.11257 0
M  V30 5314 H 502.826 -3.85537 -0.299734 0
M  V30 5315 H 504.515 -4.05845 0.0666114 0
M  V30 5316 H 505.281 -4.12607 2.54912 0
M  V30 5317 H 501.16 -4.40626 1.35535 0
M  V30 5318 H 504.704 -5.12603 4.73164 0
M  V30 5319 H 500.601 -5.40498 3.52891 0
M  V30 5320 H 501.369 -6.06413 5.49732 0
M  V30 5321 N 504.032 -0.577932 -1.46621 0
M  V30 5322 C 505.272 -0.0643097 -2.04299 0
M  V30 5323 C 505.636 1.26967 -1.44026 0
M  V30 5324 O 506.837 1.87224 -1.92875 0
M  V30 5325 C 505.108 0.00547588 -3.574 0
M  V30 5326 S 506.667 0.462216 -4.36359 0
M  V30 5327 H 503.485 -0.0351573 -0.71013 0
M  V30 5328 H 506.087 -0.76935 -1.79725 0
M  V30 5329 H 504.791 -0.969423 -3.98786 0
M  V30 5330 H 504.322 0.733435 -3.86503 0
M  V30 5331 H 506.337 1.71791 -4.65513 0
M  V30 5332 N 505.51 1.54411 -0.315457 0
M  V30 5333 C 506.75 2.02329 0.290236 0
M  V30 5334 C 507.114 1.19878 1.49977 0
M  V30 5335 O 508.315 1.57562 2.17779 0
M  V30 5336 C 506.586 3.51912 0.623937 0
M  V30 5337 S 508.145 4.21775 1.21044 0
M  V30 5338 H 504.963 0.705499 0.0882739 0
M  V30 5339 H 507.565 1.90328 -0.446694 0
M  V30 5340 H 506.269 4.09546 -0.264624 0
M  V30 5341 H 505.8 3.67977 1.39128 0
M  V30 5342 H 507.815 4.28757 2.49764 0
M  V30 5343 N 506.988 0.0434614 1.5754 0
M  V30 5344 C 508.236 -0.630786 1.92004 0
M  V30 5345 C 508.557 -1.71836 0.921807 0
M  V30 5346 O 507.827 -1.9587 -0.034522 0
M  V30 5347 H 506.407 -0.235988 0.708745 0
M  V30 5348 H 509.069 0.0946462 1.9467 0
M  V30 5349 H 508.165 -1.07434 2.93026 0
M  V30 5350 N 508.466 -1.55915 -0.229846 0
M  V30 5351 C 509.715 -1.77742 -0.953455 0
M  V30 5352 C 510.028 -0.610524 -1.85828 0
M  V30 5353 O 511.234 -0.712219 -2.61992 0
M  V30 5354 C 509.69 -3.14738 -1.74551 0
M  V30 5355 C 509.298 -4.39126 -0.887242 0
M  V30 5356 C 511.042 -3.45895 -2.46084 0
M  V30 5357 C 508.949 -5.67149 -1.67617 0
M  V30 5358 H 507.879 -0.662648 -0.359741 0
M  V30 5359 H 510.53 -1.82322 -0.207576 0
M  V30 5360 H 508.912 -3.04311 -2.53399 0
M  V30 5361 H 510.086 -4.60588 -0.139892 0
M  V30 5362 H 508.401 -4.15427 -0.284443 0
M  V30 5363 H 510.998 -4.38767 -3.05594 0
M  V30 5364 H 511.341 -2.68007 -3.18556 0
M  V30 5365 H 511.874 -3.57614 -1.74233 0
M  V30 5366 H 508.613 -6.47906 -0.994881 0
M  V30 5367 H 508.133 -5.49763 -2.39836 0
M  V30 5368 H 509.812 -6.07025 -2.23898 0
M  V30 5369 N 509.944 0.496216 -1.49584 0
M  V30 5370 C 510.907 1.57952 -1.66084 0
M  V30 5371 C 511.907 1.51729 -0.53244 0
M  V30 5372 O 513.097 1.54796 -0.79899 0
M  V30 5373 C 510.229 2.97604 -1.66268 0
M  V30 5374 H 511.422 1.44649 -2.6271 0
M  V30 5375 H 508.975 0.7208 -1.38687 0
M  V30 5376 H 509.71 3.16378 -0.712432 0
M  V30 5377 H 509.495 3.03528 -2.4822 0
M  V30 5378 H 510.985 3.76301 -1.81073 0
M  V30 5379 N 511.423 1.38739 0.74761 0
M  V30 5380 C 512.663 1.36695 1.51966 0
M  V30 5381 C 513.027 -0.0411889 1.91956 0
M  V30 5382 O 514.228 -0.186543 2.68152 0
M  V30 5383 C 512.499 2.30119 2.73459 0
M  V30 5384 S 514.058 2.4615 3.63257 0
M  V30 5385 H 510.876 0.484929 0.519966 0
M  V30 5386 H 513.478 1.7472 0.877104 0
M  V30 5387 H 512.182 3.31312 2.422 0
M  V30 5388 H 511.713 1.93265 3.42655 0
M  V30 5389 H 513.728 1.69001 4.66533 0
M  V30 5390 N 512.901 -0.976442 1.23707 0
M  V30 5391 C 514.126 -1.75875 1.09922 0
M  V30 5392 C 514.551 -1.84911 -0.34489 0
M  V30 5393 O 513.909 -1.31363 -1.24954 0
M  V30 5394 C 513.957 -3.16179 1.73388 0
M  V30 5395 O 513.061 -4.00124 0.99871 0
M  V30 5396 H 512.402 -0.540954 0.385052 0
M  V30 5397 H 514.932 -1.22546 1.6384 0
M  V30 5398 H 514.942 -3.66741 1.78788 0
M  V30 5399 H 513.617 -3.08917 2.78466 0
M  V30 5400 H 512.194 -3.58624 1.02193 0
M  V30 5401 N 514.379 -1.04941 -1.1758 0
M  V30 5402 C 515.342 -0.652456 -2.19717 0
M  V30 5403 C 516.342 0.294745 -1.58076 0
M  V30 5404 O 517.532 0.0789579 -1.74021 0
M  V30 5405 C 514.664 0.0420712 -3.40874 0
M  V30 5406 H 515.857 -1.55642 -2.5635 0
M  V30 5407 H 513.41 -0.842995 -1.31618 0
M  V30 5408 H 514.145 0.95943 -3.09783 0
M  V30 5409 H 513.93 -0.638844 -3.86861 0
M  V30 5410 H 515.42 0.306 -4.16477 0
M  V30 5411 N 515.857 1.33968 -0.830081 0
M  V30 5412 C 516.767 2.33164 -0.259207 0
M  V30 5413 C 517.783 1.62951 0.610164 0
M  V30 5414 O 518.959 1.94668 0.516369 0
M  V30 5415 C 516.024 3.42088 0.563598 0
M  V30 5416 C 515.085 4.28037 -0.329014 0
M  V30 5417 C 514.318 5.3176 0.454616 0
M  V30 5418 O 514.541 5.44876 1.6872 0
M  V30 5419 O 513.475 6.01669 -0.166794 0
M  V30 5420 H 517.301 2.83832 -1.08041 0
M  V30 5421 H 514.886 1.37154 -0.59239 0
M  V30 5422 H 516.768 4.08581 1.03147 0
M  V30 5423 H 515.443 2.93651 1.36201 0
M  V30 5424 H 514.35 3.64443 -0.844538 0
M  V30 5425 H 515.683 4.79934 -1.09196 0
M  V30 5426 N 517.335 0.585699 1.46312 0
M  V30 5427 C 518.583 0.072278 2.01971 0
M  V30 5428 C 518.904 -1.29345 1.45928 0
M  V30 5429 O 518.174 -1.84973 0.645109 0
M  V30 5430 H 516.754 0.023729 0.746623 0
M  V30 5431 H 519.416 0.762155 1.7938 0
M  V30 5432 H 518.512 0.00552767 3.121 0
M  V30 5433 N 518.813 -1.54241 0.323641 0
M  V30 5434 C 520.043 -2.04687 -0.280464 0
M  V30 5435 C 520.451 -1.19939 -1.46326 0
M  V30 5436 O 519.794 -0.222872 -1.82343 0
M  V30 5437 C 519.856 -3.50978 -0.778123 0
M  V30 5438 C 519.52 -4.56127 0.282371 0
M  V30 5439 C 520.517 -5.07726 1.11847 0
M  V30 5440 C 518.202 -5.00451 0.430582 0
M  V30 5441 C 520.196 -6.02212 2.08851 0
M  V30 5442 C 517.883 -5.94752 1.40404 0
M  V30 5443 C 518.881 -6.45519 2.23147 0
M  V30 5444 O 518.569 -7.37968 3.1884 0
M  V30 5445 H 518.301 -0.673192 -0.0615473 0
M  V30 5446 H 520.855 -1.99999 0.467921 0
M  V30 5447 H 519.085 -3.53064 -1.57742 0
M  V30 5448 H 520.774 -3.84499 -1.30058 0
M  V30 5449 H 521.54 -4.74261 1.01496 0
M  V30 5450 H 517.419 -4.6055 -0.203569 0
M  V30 5451 H 520.963 -6.41761 2.73474 0
M  V30 5452 H 516.86 -6.27633 1.5082 0
M  V30 5453 H 517.628 -7.55841 3.14079 0
M  V30 5454 N 520.291 -0.0518155 -1.57515 0
M  V30 5455 C 521.702 0.483787 -1.80323 0
M  V30 5456 C 522.053 1.70879 -0.964099 0
M  V30 5457 O 521.178 2.15643 -0.180872 0
M  V30 5458 C 521.773 0.884459 -3.27052 0
M  V30 5459 C 520.332 1.36504 -3.50776 0
M  V30 5460 C 519.479 0.340539 -2.75201 0
M  V30 5461 H 522.43 -0.277691 -1.56252 0
M  V30 5462 H 522.451 1.74733 -3.38007 0
M  V30 5463 H 521.963 -0.00731093 -3.88099 0
M  V30 5464 H 520.064 2.27598 -2.95009 0
M  V30 5465 H 520.177 1.35675 -4.59488 0
M  V30 5466 H 518.541 0.81356 -2.41357 0
M  V30 5467 H 519.324 -0.543156 -3.38976 0
M  V30 5468 N 521.769 1.56035 0.221574 0
M  V30 5469 C 522.997 1.8313 0.962864 0
M  V30 5470 C 523.412 0.630934 1.77946 0
M  V30 5471 O 522.769 -0.400519 1.78051 0
M  V30 5472 C 522.82 3.08742 1.88045 0
M  V30 5473 O 522.541 4.24147 1.09686 0
M  V30 5474 C 524.042 3.48824 2.73563 0
M  V30 5475 H 521.262 0.608775 0.282194 0
M  V30 5476 H 523.806 2.03124 0.23681 0
M  V30 5477 H 521.961 2.90723 2.56045 0
M  V30 5478 H 522.375 4.95505 1.71974 0
M  V30 5479 H 523.849 4.39752 3.3365 0
M  V30 5480 H 524.326 2.70575 3.45956 0
M  V30 5481 H 524.932 3.69282 2.10976 0
M  V30 5482 N 523.247 -0.488276 1.49845 0
M  V30 5483 C 524.21 -1.57069 1.66919 0
M  V30 5484 C 525.21 -1.51445 0.540479 0
M  V30 5485 O 526.4 -1.5437 0.807188 0
M  V30 5486 C 523.532 -2.96718 1.67844 0
M  V30 5487 H 524.725 -1.43254 2.63474 0
M  V30 5488 H 522.278 -0.713435 1.39068 0
M  V30 5489 H 523.013 -3.15996 0.7292 0
M  V30 5490 H 522.798 -3.02208 2.49826 0
M  V30 5491 H 524.288 -3.75335 1.83066 0
M  V30 5492 N 524.725 -1.39134 -0.740242 0
M  V30 5493 C 525.688 -1.37217 -1.83587 0
M  V30 5494 C 526.688 -0.270221 -1.58513 0
M  V30 5495 O 527.878 -0.527843 -1.6601 0
M  V30 5496 C 525.01 -1.13959 -3.21288 0
M  V30 5497 H 526.203 -2.34705 -1.86691 0
M  V30 5498 H 523.756 -1.24622 -0.94335 0
M  V30 5499 H 524.491 -0.17131 -3.23847 0
M  V30 5500 H 524.276 -1.93754 -3.40884 0
M  V30 5501 H 525.766 -1.15346 -4.01354 0
M  V30 5502 N 526.204 0.969867 -1.24223 0
M  V30 5503 C 527.452 1.70918 -1.0785 0
M  V30 5504 C 527.773 1.91186 0.383763 0
M  V30 5505 O 527.043 1.48806 1.27411 0
M  V30 5506 H 525.623 0.633334 -0.396103 0
M  V30 5507 H 528.285 1.16689 -1.56108 0
M  V30 5508 H 527.381 2.69455 -1.57482 0
M  V30 5509 N 527.682 1.05563 1.17022 0
M  V30 5510 C 528.63 0.653887 2.2322 0
M  V30 5511 C 529.624 -0.326642 1.66221 0
M  V30 5512 O 530.83 -0.192301 1.7897 0
M  V30 5513 H 527.205 0.193297 0.726733 0
M  V30 5514 H 529.176 1.5596 2.54399 0
M  V30 5515 C 527.925 0.0485434 3.47666 0
M  V30 5516 H 527.248 0.79413 3.91834 0
M  V30 5517 H 528.688 -0.195133 4.23551 0
M  V30 5518 C 527.147 -1.20583 3.14581 0
M  V30 5519 O 527.677 -2.29475 3.29703 0
M  V30 5520 N 525.883 -1.10493 2.68774 0
M  V30 5521 H 525.43 -0.218795 2.56669 0
M  V30 5522 H 525.388 -1.94507 2.47011 0
M  V30 5523 N 529.16 -1.33526 0.837174 0
M  V30 5524 C 530.39 -2.01754 0.444848 0
M  V30 5525 C 530.798 -1.63149 -0.958072 0
M  V30 5526 O 530.141 -0.839827 -1.63379 0
M  V30 5527 C 530.203 -3.56228 0.483917 0
M  V30 5528 C 529.867 -4.18205 1.84265 0
M  V30 5529 C 530.864 -4.37699 2.80563 0
M  V30 5530 C 528.549 -4.54667 2.13503 0
M  V30 5531 C 530.543 -4.928 4.04261 0
M  V30 5532 C 528.23 -5.09475 3.37458 0
M  V30 5533 C 529.228 -5.28488 4.32654 0
M  V30 5534 O 528.916 -5.82132 5.54417 0
M  V30 5535 H 528.648 -0.652928 0.175104 0
M  V30 5536 H 531.202 -1.71469 1.13082 0
M  V30 5537 H 529.432 -3.85833 -0.258826 0
M  V30 5538 H 531.121 -4.05752 0.109653 0
M  V30 5539 H 531.887 -4.0988 2.59274 0
M  V30 5540 H 527.766 -4.39164 1.40201 0
M  V30 5541 H 531.31 -5.07555 4.78574 0
M  V30 5542 H 527.207 -5.36725 3.58604 0
M  V30 5543 H 527.975 -6.00548 5.56133 0
M  V30 5544 N 530.638 -0.59345 -1.46 0
M  V30 5545 C 531.57 0.171569 -2.28557 0
M  V30 5546 C 532.583 0.845273 -1.39137 0
M  V30 5547 O 533.772 0.713033 -1.6364 0
M  V30 5548 C 530.872 1.26311 -3.14482 0
M  V30 5549 C 530.045 0.679258 -4.32094 0
M  V30 5550 C 529.104 1.65987 -4.99334 0
M  V30 5551 O 528.13 1.19171 -5.56585 0
M  V30 5552 N 529.332 2.99414 -4.97324 0
M  V30 5553 H 532.097 -0.536771 -2.94854 0
M  V30 5554 H 529.658 -0.431954 -1.56031 0
M  V30 5555 H 531.65 1.91863 -3.5633 0
M  V30 5556 H 530.22 1.87416 -2.50188 0
M  V30 5557 H 529.44 -0.153992 -3.93899 0
M  V30 5558 H 530.728 0.26916 -5.08088 0
M  V30 5559 H 530.126 3.40064 -4.52076 0
M  V30 5560 H 528.683 3.60426 -5.4308 0
M  V30 5561 N 532.116 1.54067 -0.331816 0
M  V30 5562 C 533.365 1.99895 0.269209 0
M  V30 5563 C 533.678 1.22371 1.52593 0
M  V30 5564 O 534.884 1.58618 2.20347 0
M  V30 5565 C 533.34 3.55972 0.530244 0
M  V30 5566 C 532.948 4.4234 -0.709901 0
M  V30 5567 C 534.692 4.10247 1.09077 0
M  V30 5568 C 532.599 5.89905 -0.420312 0
M  V30 5569 H 531.529 0.746741 0.104371 0
M  V30 5570 H 534.18 1.78014 -0.445324 0
M  V30 5571 H 532.562 3.73873 1.30518 0
M  V30 5572 H 533.736 4.36215 -1.48504 0
M  V30 5573 H 532.051 3.98997 -1.19123 0
M  V30 5574 H 534.648 5.18095 1.32219 0
M  V30 5575 H 534.991 3.62739 2.0427 0
M  V30 5576 H 535.524 3.96011 0.376824 0
M  V30 5577 H 532.263 6.41623 -1.34164 0
M  V30 5578 H 531.783 5.98962 0.316962 0
M  V30 5579 H 533.462 6.46991 -0.0331956 0
M  V30 5580 N 533.594 0.0601682 1.57485 0
M  V30 5581 C 534.871 -0.651956 1.84415 0
M  V30 5582 C 535.251 -1.88498 0.950361 0
M  V30 5583 O 534.599 -2.28496 0.0136719 0
M  V30 5584 C 534.809 -1.00069 3.34346 0
M  V30 5585 C 536.157 -1.37915 4.01578 0
M  V30 5586 O 537.181 -1.09277 3.39024 0
M  V30 5587 O 536.04 -1.91399 5.11887 0
M  V30 5588 H 533.134 -0.322668 0.761455 0
M  V30 5589 H 535.68 0.0902159 1.6946 0
M  V30 5590 H 534.452 -0.124463 3.91102 0
M  V30 5591 H 534.075 -1.80001 3.54521 0
M  V30 5592 N 535.072 -1.5615 -0.213296 0
M  V30 5593 C 536.002 -1.96109 -1.26742 0
M  V30 5594 C 536.983 -0.830448 -1.48451 0
M  V30 5595 O 538.168 -1.09339 -1.60495 0
M  V30 5596 C 535.298 -2.28492 -2.61551 0
M  V30 5597 C 534.252 -3.44124 -2.54485 0
M  V30 5598 C 533.578 -3.62134 -3.93399 0
M  V30 5599 C 534.878 -4.78855 -2.08556 0
M  V30 5600 H 536.572 -2.84412 -0.935434 0
M  V30 5601 H 534.118 -1.36836 -0.44854 0
M  V30 5602 H 536.071 -2.55039 -3.3546 0
M  V30 5603 H 534.795 -1.37052 -2.96453 0
M  V30 5604 H 533.454 -3.17639 -1.83033 0
M  V30 5605 H 533.102 -2.68055 -4.25623 0
M  V30 5606 H 532.802 -4.39913 -3.89551 0
M  V30 5607 H 534.326 -3.91038 -4.68958 0
M  V30 5608 H 535.74 -5.04552 -2.72213 0
M  V30 5609 H 534.137 -5.59975 -2.1575 0
M  V30 5610 H 535.207 -4.73657 -1.03811 0
M  V30 5611 N 536.55 0.480323 -1.50102 0
M  V30 5612 C 537.48 1.58769 -1.71215 0
M  V30 5613 C 538.461 1.60583 -0.560997 0
M  V30 5614 O 539.646 1.76996 -0.799127 0
M  V30 5615 C 536.776 2.97148 -1.79778 0
M  V30 5616 C 535.73 3.10201 -2.94888 0
M  V30 5617 C 535.056 4.50137 -2.88584 0
M  V30 5618 C 536.356 2.88283 -4.35534 0
M  V30 5619 H 538.05 1.41354 -2.6393 0
M  V30 5620 H 535.596 0.678591 -1.27008 0
M  V30 5621 H 537.549 3.74536 -1.93133 0
M  V30 5622 H 536.273 3.15699 -0.836772 0
M  V30 5623 H 534.932 2.35244 -2.81169 0
M  V30 5624 H 534.58 4.65593 -1.90349 0
M  V30 5625 H 534.28 4.59808 -3.65856 0
M  V30 5626 H 535.804 5.29558 -3.03976 0
M  V30 5627 H 537.218 3.55427 -4.49827 0
M  V30 5628 H 535.615 3.09408 -5.14186 0
M  V30 5629 H 536.685 1.84219 -4.48544 0
M  V30 5630 N 538.028 1.39524 0.732853 0
M  V30 5631 C 538.958 1.41153 1.86005 0
M  V30 5632 C 539.939 0.274614 1.67869 0
M  V30 5633 O 541.124 0.480745 1.88155 0
M  V30 5634 C 538.254 1.25638 3.23778 0
M  V30 5635 C 537.208 2.36752 3.56556 0
M  V30 5636 C 536.534 2.06326 4.93289 0
M  V30 5637 C 537.834 3.79069 3.5931 0
M  V30 5638 H 539.528 2.35484 1.84899 0
M  V30 5639 H 537.074 1.13348 0.888162 0
M  V30 5640 H 539.027 1.25398 4.0231 0
M  V30 5641 H 537.751 0.277772 3.25417 0
M  V30 5642 H 536.41 2.36213 2.80355 0
M  V30 5643 H 536.058 1.06897 4.9151 0
M  V30 5644 H 535.758 2.80757 5.16187 0
M  V30 5645 H 537.282 2.07739 5.74175 0
M  V30 5646 H 538.696 3.81526 4.27914 0
M  V30 5647 H 537.093 4.52878 3.93728 0
M  V30 5648 H 538.163 4.09893 2.59068 0
M  V30 5649 N 539.506 -0.963266 1.24736 0
M  V30 5650 C 540.469 -2.04013 1.04457 0
M  V30 5651 C 541.469 -1.608 0.000335555 0
M  V30 5652 O 542.659 -1.72515 0.241719 0
M  V30 5653 C 539.791 -3.35858 0.584162 0
M  V30 5654 H 540.984 -2.23436 2.00041 0
M  V30 5655 H 538.537 -1.13914 1.07021 0
M  V30 5656 H 539.272 -3.22128 -0.374673 0
M  V30 5657 H 539.057 -3.68568 1.3379 0
M  V30 5658 H 540.547 -4.1502 0.463451 0
M  V30 5659 N 540.985 -1.06182 -1.16461 0
M  V30 5660 C 541.933 -0.665716 -2.2287 0
M  V30 5661 C 542.927 0.317822 -1.66392 0
M  V30 5662 O 544.133 0.182807 -1.79069 0
M  V30 5663 H 540.508 -0.197148 -0.725697 0
M  V30 5664 H 542.479 -1.57307 -2.53569 0
M  V30 5665 C 541.228 -0.0669803 -3.47635 0
M  V30 5666 H 540.551 -0.814899 -3.91407 0
M  V30 5667 H 541.991 0.172669 -4.23648 0
M  V30 5668 C 540.45 1.18913 -3.15216 0
M  V30 5669 O 540.98 2.27723 -3.30916 0
M  V30 5670 N 539.186 1.09066 -2.69357 0
M  V30 5671 H 538.733 0.20518 -2.56782 0
M  V30 5672 H 538.691 1.93195 -2.48039 0
M  V30 5673 N 542.463 1.3308 -0.844243 0
M  V30 5674 C 543.709 1.97898 -0.443206 0
M  V30 5675 C 544.042 1.66699 0.99625 0
M  V30 5676 O 543.317 0.949704 1.69738 0
M  V30 5677 C 543.6 3.53801 -0.670606 0
M  V30 5678 C 543.453 3.94667 -2.15772 0
M  V30 5679 C 544.772 4.39936 -0.120226 0
M  V30 5680 H 541.891 0.718861 -0.162504 0
M  V30 5681 H 544.533 1.57633 -1.06075 0
M  V30 5682 H 542.683 3.88229 -0.14496 0
M  V30 5683 H 544.355 3.70469 -2.74865 0
M  V30 5684 H 542.598 3.44203 -2.6402 0
M  V30 5685 H 543.269 5.03275 -2.26757 0
M  V30 5686 H 545.745 4.12183 -0.5696 0
M  V30 5687 H 544.621 5.4803 -0.308984 0
M  V30 5688 H 544.882 4.31184 0.976347 0
M  V30 5689 N 543.941 0.601185 1.45683 0
M  V30 5690 C 545.181 0.0968037 2.04171 0
M  V30 5691 C 545.545 -1.2466 1.46027 0
M  V30 5692 O 546.746 -1.84132 1.95829 0
M  V30 5693 C 545.017 0.051384 3.57363 0
M  V30 5694 S 546.576 -0.392737 4.37039 0
M  V30 5695 H 543.394 0.0464504 0.709481 0
M  V30 5696 H 545.996 0.797846 1.78479 0
M  V30 5697 H 544.7 1.03274 3.97193 0
M  V30 5698 H 544.231 -0.671853 3.87621 0
M  V30 5699 H 546.246 -1.64364 4.68187 0
M  V30 5700 N 545.419 -1.53889 0.339982 0
M  V30 5701 C 546.366 -2.24902 -0.518452 0
M  V30 5702 C 547.336 -1.24593 -1.09844 0
M  V30 5703 O 548.521 -1.53317 -1.13572 0
M  V30 5704 C 545.661 -3.02262 -1.66529 0
M  V30 5705 C 544.774 -4.17418 -1.11295 0
M  V30 5706 C 543.909 -4.82273 -2.2268 0
M  V30 5707 C 542.948 -5.89503 -1.6478 0
M  V30 5708 N 542.085 -6.48153 -2.69893 0
M  V30 5709 H 546.925 -2.97853 0.0936579 0
M  V30 5710 H 544.462 -1.46986 0.0579924 0
M  V30 5711 H 546.42 -3.45371 -2.3404 0
M  V30 5712 H 545.05 -2.31614 -2.24844 0
M  V30 5713 H 544.102 -3.78976 -0.328886 0
M  V30 5714 H 545.414 -4.94554 -0.649414 0
M  V30 5715 H 544.568 -5.28435 -2.98063 0
M  V30 5716 H 543.307 -4.04552 -2.72376 0
M  V30 5717 H 542.312 -5.42728 -0.879004 0
M  V30 5718 H 543.537 -6.6913 -1.1594 0
M  V30 5719 H 541.483 -5.73298 -3.1885 0
M  V30 5720 H 541.4 -7.20752 -2.28151 0
M  V30 5721 H 542.668 -6.98968 -3.45056 0
M  V30 5722 N 546.897 -0.0685191 -1.57451 0
M  V30 5723 C 547.829 0.929372 -2.09512 0
M  V30 5724 C 548.842 1.26354 -1.02657 0
M  V30 5725 O 550.031 1.2213 -1.30179 0
M  V30 5726 C 547.131 2.24612 -2.53777 0
M  V30 5727 C 546.304 2.09128 -3.84167 0
M  V30 5728 C 545.363 3.24079 -4.14559 0
M  V30 5729 O 544.389 2.99215 -4.8421 0
M  V30 5730 N 545.591 4.49077 -3.67845 0
M  V30 5731 H 548.356 0.484901 -2.95751 0
M  V30 5732 H 545.917 0.11729 -1.61475 0
M  V30 5733 H 547.909 3.00412 -2.71172 0
M  V30 5734 H 546.479 2.60569 -1.72692 0
M  V30 5735 H 545.699 1.17815 -3.76182 0
M  V30 5736 H 546.987 1.9603 -4.69521 0
M  V30 5737 H 546.385 4.72165 -3.11571 0
M  V30 5738 H 544.942 5.21915 -3.90446 0
M  V30 5739 N 548.375 1.56261 0.205012 0
M  V30 5740 C 549.323 1.94631 1.27364 0
M  V30 5741 C 550.317 0.830434 1.47649 0
M  V30 5742 O 551.523 1.01538 1.48627 0
M  V30 5743 H 547.898 0.618755 0.427371 0
M  V30 5744 H 549.869 2.83768 0.922941 0
M  V30 5745 C 548.618 2.29358 2.61324 0
M  V30 5746 H 547.941 3.14744 2.46528 0
M  V30 5747 H 549.381 2.60076 3.34868 0
M  V30 5748 C 547.84 1.12461 3.17575 0
M  V30 5749 O 548.37 0.394407 3.99759 0
M  V30 5750 N 546.576 0.904036 2.7618 0
M  V30 5751 H 546.123 1.49956 2.09454 0
M  V30 5752 H 546.081 0.123662 3.14157 0
M  V30 5753 N 549.853 -0.472356 1.50355 0
M  V30 5754 C 551.102 -1.2213 1.60522 0
M  V30 5755 C 551.415 -1.9312 0.310466 0
M  V30 5756 O 552.621 -2.69936 0.291029 0
M  V30 5757 C 551.077 -2.21909 2.83345 0
M  V30 5758 C 550.685 -1.56727 4.19691 0
M  V30 5759 C 552.429 -2.97453 3.02856 0
M  V30 5760 C 550.336 -2.54785 5.33703 0
M  V30 5761 H 549.266 -0.459543 0.597776 0
M  V30 5762 H 551.917 -0.491922 1.76783 0
M  V30 5763 H 550.299 -2.98133 2.60639 0
M  V30 5764 H 551.473 -0.863007 4.52646 0
M  V30 5765 H 549.788 -0.934685 4.05774 0
M  V30 5766 H 552.385 -3.70838 3.85205 0
M  V30 5767 H 552.728 -3.56764 2.14534 0
M  V30 5768 H 553.261 -2.28342 3.25737 0
M  V30 5769 H 550 -2.00214 6.24175 0
M  V30 5770 H 549.52 -3.23367 5.05167 0
M  V30 5771 H 551.199 -3.16639 5.64224 0
M  V30 5772 N 551.331 -1.39911 -0.725443 0
M  V30 5773 C 552.559 -1.40949 -1.51463 0
M  V30 5774 C 552.974 -0.0065242 -1.88799 0
M  V30 5775 O 552.331 0.967163 -1.54765 0
M  V30 5776 C 552.382 -2.29119 -2.79619 0
M  V30 5777 O 552.103 -3.63952 -2.43866 0
M  V30 5778 C 553.604 -2.38642 -3.73584 0
M  V30 5779 H 550.824 -0.481091 -0.467752 0
M  V30 5780 H 553.368 -1.83843 -0.895651 0
M  V30 5781 H 551.523 -1.89612 -3.37826 0
M  V30 5782 H 551.937 -4.10677 -3.26258 0
M  V30 5783 H 553.411 -3.04563 -4.60375 0
M  V30 5784 H 553.888 -1.40846 -4.16004 0
M  V30 5785 H 554.494 -2.78659 -3.21293 0
M  V30 5786 N 552.809 0.956637 -1.25245 0
M  V30 5787 C 554.225 1.22733 -1.02023 0
M  V30 5788 C 554.425 1.99761 0.264186 0
M  V30 5789 O 553.481 2.32814 0.977436 0
M  V30 5790 C 554.794 2.00367 -2.24217 0
M  V30 5791 C 556.342 2.13418 -2.28958 0
M  V30 5792 C 556.817 2.9445 -3.50803 0
M  V30 5793 N 558.308 3.02029 -3.51187 0
M  V30 5794 C 559.043 3.65116 -4.42129 0
M  V30 5795 N 558.539 4.2983 -5.43339 0
M  V30 5796 N 560.332 3.62237 -4.29815 0
M  V30 5797 H 552.483 0.441282 -2.07765 0
M  V30 5798 H 554.746 0.257686 -0.912306 0
M  V30 5799 H 554.452 1.51165 -3.17556 0
M  V30 5800 H 554.326 3.01077 -2.27228 0
M  V30 5801 H 556.713 2.61819 -1.36143 0
M  V30 5802 H 556.794 1.1202 -2.29968 0
M  V30 5803 H 556.438 2.46741 -4.43939 0
M  V30 5804 H 556.368 3.9607 -3.47039 0
M  V30 5805 H 558.859 2.56007 -2.77973 0
M  V30 5806 H 559.172 4.75819 -6.08947 0
M  V30 5807 H 557.517 4.28465 -5.47214 0
M  V30 5808 H 560.708 3.10863 -3.49974 0
M  V30 5809 H 560.881 4.11117 -5.00886 0
M  V30 5810 N 554.287 1.06798 1.15896 0
M  V30 5811 C 555.534 0.787767 1.86549 0
M  V30 5812 C 555.862 -0.685959 1.82002 0
M  V30 5813 O 555.117 -1.5188 1.23414 0
M  V30 5814 C 555.416 1.23414 3.35416 0
M  V30 5815 C 555.082 2.71285 3.6016 0
M  V30 5816 C 553.744 3.11676 3.66622 0
M  V30 5817 C 556.096 3.6676 3.7032 0
M  V30 5818 C 553.424 4.4637 3.8075 0
M  V30 5819 C 555.776 5.01209 3.8597 0
M  V30 5820 C 554.44 5.41229 3.90676 0
M  V30 5821 H 553.71 0.288264 0.682631 0
M  V30 5822 H 556.357 1.338 1.37003 0
M  V30 5823 H 554.662 0.60319 3.87129 0
M  V30 5824 H 556.359 0.994298 3.88477 0
M  V30 5825 H 552.949 2.39015 3.55767 0
M  V30 5826 H 557.133 3.36685 3.64633 0
M  V30 5827 H 552.389 4.76855 3.82648 0
M  V30 5828 H 556.563 5.75067 3.92773 0
M  V30 5829 H 554.19 6.45602 4.01375 0
M  V30 5830 N 555.766 -1.3263 0.851289 0
M  V30 5831 C 557.177 -1.79653 0.5081 0
M  V30 5832 C 557.528 -1.70327 -0.973815 0
M  V30 5833 O 556.653 -1.25986 -1.75944 0
M  V30 5834 C 557.248 -3.26196 0.915515 0
M  V30 5835 C 555.807 -3.71187 0.624277 0
M  V30 5836 C 554.954 -2.53804 1.11709 0
M  V30 5837 H 557.905 -1.19976 1.03882 0
M  V30 5838 H 557.926 -3.79801 0.230535 0
M  V30 5839 H 557.438 -3.32952 1.99411 0
M  V30 5840 H 555.539 -3.69948 -0.443737 0
M  V30 5841 H 555.652 -4.64132 1.18821 0
M  V30 5842 H 554.016 -2.48964 0.537484 0
M  V30 5843 H 554.799 -2.63315 2.20272 0
M  V30 5844 N 557.244 -0.608902 -1.45362 0
M  V30 5845 C 558.474 -0.110852 -2.06302 0
M  V30 5846 C 558.882 1.21062 -1.45398 0
M  V30 5847 O 558.225 1.74861 -0.562976 0
M  V30 5848 C 558.287 0.101793 -3.59356 0
M  V30 5849 C 557.951 -1.13808 -4.42602 0
M  V30 5850 C 558.948 -2.05653 -4.77496 0
M  V30 5851 C 556.633 -1.36727 -4.83333 0
M  V30 5852 C 558.627 -3.18745 -5.51978 0
M  V30 5853 C 556.314 -2.5012 -5.57569 0
M  V30 5854 C 557.312 -3.40957 -5.91809 0
M  V30 5855 O 557 -4.52376 -6.64538 0
M  V30 5856 H 556.732 -0.0666001 -0.672711 0
M  V30 5857 H 559.286 -0.836942 -1.87575 0
M  V30 5858 H 557.516 0.88279 -3.76489 0
M  V30 5859 H 559.205 0.551607 -4.02134 0
M  V30 5860 H 559.971 -1.89172 -4.46586 0
M  V30 5861 H 555.85 -0.669216 -4.56117 0
M  V30 5862 H 559.394 -3.8967 -5.78622 0
M  V30 5863 H 555.291 -2.66553 -5.87894 0
M  V30 5864 H 556.059 -4.51075 -6.82989 0
M  V30 5865 N 558.722 1.53707 -0.348139 0
M  V30 5866 C 559.632 2.28881 0.514857 0
M  V30 5867 C 560.648 1.34168 1.10793 0
M  V30 5868 O 561.824 1.6721 1.12262 0
M  V30 5869 C 558.889 3.05042 1.64774 0
M  V30 5870 C 557.95 4.15389 1.08398 0
M  V30 5871 C 557.183 4.87909 2.16287 0
M  V30 5872 O 557.406 4.60137 3.3709 0
M  V30 5873 O 556.34 5.74254 1.80323 0
M  V30 5874 H 560.166 3.03547 -0.0963699 0
M  V30 5875 H 557.751 1.48972 -0.113043 0
M  V30 5876 H 559.633 3.52656 2.30677 0
M  V30 5877 H 558.308 2.33228 2.24469 0
M  V30 5878 H 557.215 3.72068 0.389341 0
M  V30 5879 H 558.548 4.89318 0.531829 0
M  V30 5880 N 560.2 0.0768682 1.57412 0
M  V30 5881 C 561.449 -0.590679 1.92857 0
M  V30 5882 C 561.762 -1.70461 0.959293 0
M  V30 5883 O 562.968 -2.43207 1.20675 0
M  V30 5884 C 561.424 -1.10204 3.42612 0
M  V30 5885 C 561.032 -0.0188447 4.47996 0
M  V30 5886 C 562.776 -1.74336 3.87049 0
M  V30 5887 C 560.683 -0.544536 5.88888 0
M  V30 5888 H 559.613 -0.224411 0.71983 0
M  V30 5889 H 562.264 0.149924 1.82887 0
M  V30 5890 H 560.646 -1.89577 3.47673 0
M  V30 5891 H 561.82 0.755936 4.54557 0
M  V30 5892 H 560.135 0.526555 4.13057 0
M  V30 5893 H 562.732 -2.14708 4.89699 0
M  V30 5894 H 563.075 -2.60537 3.24694 0
M  V30 5895 H 563.608 -1.01577 3.84613 0
M  V30 5896 H 560.347 0.280426 6.549 0
M  V30 5897 H 559.867 -1.28673 5.85836 0
M  V30 5898 H 561.546 -1.01933 6.3892 0
M  V30 5899 N 561.678 -1.56367 -0.196722 0
M  V30 5900 C 562.924 -1.80796 -0.918725 0
M  V30 5901 C 563.257 -0.650645 -1.82976 0
M  V30 5902 O 562.532 0.348889 -1.91345 0
M  V30 5903 C 562.815 -3.15472 -1.73636 0
M  V30 5904 C 562.668 -4.41693 -0.85015 0
M  V30 5905 C 563.987 -3.46824 -2.70927 0
M  V30 5906 H 561.106 -0.657702 -0.332561 0
M  V30 5907 H 563.748 -1.89086 -0.186186 0
M  V30 5908 H 561.898 -3.08536 -2.36088 0
M  V30 5909 H 563.57 -4.60673 -0.240459 0
M  V30 5910 H 561.813 -4.33517 -0.156785 0
M  V30 5911 H 562.484 -5.32419 -1.45719 0
M  V30 5912 H 564.96 -3.54049 -2.18607 0
M  V30 5913 H 563.836 -4.4218 -3.25219 0
M  V30 5914 H 564.097 -2.70236 -3.49893 0
M  V30 5915 N 563.156 0.464375 -1.50603 0
M  V30 5916 C 564.572 0.798684 -1.38178 0
M  V30 5917 C 564.772 1.96568 -0.44308 0
M  V30 5918 O 563.828 2.52252 0.111814 0
M  V30 5919 C 565.141 1.10444 -2.79683 0
M  V30 5920 C 566.689 1.2105 -2.88645 0
M  V30 5921 C 567.164 1.54934 -4.30998 0
M  V30 5922 N 568.655 1.61913 -4.3398 0
M  V30 5923 C 569.39 1.8965 -5.41129 0
M  V30 5924 N 568.886 2.15361 -6.58477 0
M  V30 5925 N 570.679 1.91207 -5.28579 0
M  V30 5926 H 562.83 -0.304603 -2.10204 0
M  V30 5927 H 565.093 -0.0737804 -0.945125 0
M  V30 5928 H 564.799 0.319934 -3.50242 0
M  V30 5929 H 564.673 2.03896 -3.17342 0
M  V30 5930 H 567.06 1.98567 -2.18301 0
M  V30 5931 H 567.141 0.255613 -2.5452 0
M  V30 5932 H 566.785 0.779549 -5.01882 0
M  V30 5933 H 566.715 2.51584 -4.62615 0
M  V30 5934 H 569.206 1.44055 -3.49366 0
M  V30 5935 H 569.519 2.35818 -7.35941 0
M  V30 5936 H 567.864 2.1274 -6.6164 0
M  V30 5937 H 571.055 1.70622 -4.35897 0
M  V30 5938 H 571.228 2.12488 -6.12171 0
M  V30 5939 N 564.634 1.40294 0.718013 0
M  V30 5940 C 565.564 1.43118 1.84498 0
M  V30 5941 C 566.545 0.292403 1.67568 0
M  V30 5942 O 567.73 0.500675 1.87635 0
M  V30 5943 C 564.86 1.29065 3.22427 0
M  V30 5944 C 563.814 2.40521 3.54025 0
M  V30 5945 C 563.14 2.11546 4.91073 0
M  V30 5946 C 564.44 3.82859 3.55269 0
M  V30 5947 H 566.134 2.37432 1.82391 0
M  V30 5948 H 563.68 1.14283 0.87609 0
M  V30 5949 H 565.633 1.29658 4.00957 0
M  V30 5950 H 564.357 0.312271 3.25104 0
M  V30 5951 H 563.016 2.39173 2.77834 0
M  V30 5952 H 562.664 1.12104 4.90348 0
M  V30 5953 H 562.364 2.86216 5.1318 0
M  V30 5954 H 563.888 2.13817 5.71939 0
M  V30 5955 H 565.302 3.86044 4.23843 0
M  V30 5956 H 563.699 4.57029 3.88902 0
M  V30 5957 H 564.769 4.12617 2.54706 0
M  V30 5958 N 566.112 -0.949982 1.2575 0
M  V30 5959 C 567.075 -2.02894 1.06615 0
M  V30 5960 C 568.075 -1.60791 0.0173905 0
M  V30 5961 O 569.265 -1.72249 0.260003 0
M  V30 5962 C 566.397 -3.35219 0.619751 0
M  V30 5963 H 567.59 -2.21302 2.02399 0
M  V30 5964 H 565.143 -1.12772 1.08223 0
M  V30 5965 H 565.878 -3.22508 -0.340486 0
M  V30 5966 H 565.663 -3.67129 1.37692 0
M  V30 5967 H 567.153 -4.14505 0.507443 0
M  V30 5968 N 567.59 -1.07411 -1.15328 0
M  V30 5969 C 568.5 -0.706438 -2.23711 0
M  V30 5970 C 569.516 0.282586 -1.7169 0
M  V30 5971 O 570.692 0.129066 -2.00986 0
M  V30 5972 C 567.757 -0.11048 -3.46524 0
M  V30 5973 C 566.818 -1.15282 -4.13532 0
M  V30 5974 C 566.051 -0.585205 -5.30482 0
M  V30 5975 O 566.274 0.598549 -5.67251 0
M  V30 5976 O 565.208 -1.33039 -5.87013 0
M  V30 5977 H 569.034 -1.61031 -2.57493 0
M  V30 5978 H 566.619 -0.847113 -1.23062 0
M  V30 5979 H 568.501 0.21957 -4.20828 0
M  V30 5980 H 567.176 0.766703 -3.14489 0
M  V30 5981 H 566.083 -1.53523 -3.41147 0
M  V30 5982 H 567.416 -2.00192 -4.49649 0
M  V30 5983 N 569.068 1.32177 -0.85831 0
M  V30 5984 C 570.345 1.91781 -0.384624 0
M  V30 5985 C 570.725 1.78171 1.13217 0
M  V30 5986 O 570.073 1.18209 1.95548 0
M  V30 5987 C 570.283 3.38414 -0.853047 0
M  V30 5988 C 571.631 4.15542 -0.872359 0
M  V30 5989 O 572.655 3.47148 -0.797926 0
M  V30 5990 O 571.514 5.37678 -0.978009 0
M  V30 5991 H 568.608 0.819259 -0.112886 0
M  V30 5992 H 571.154 1.40923 -0.945453 0
M  V30 5993 H 569.926 3.4228 -1.89632 0
M  V30 5994 H 569.549 3.96683 -0.269874 0
M  V30 5995 N 570.547 0.616602 1.45037 0
M  V30 5996 C 571.796 0.112861 2.01384 0
M  V30 5997 C 572.109 -1.26758 1.48969 0
M  V30 5998 O 573.315 -1.86454 1.9735 0
M  V30 5999 C 571.771 0.151057 3.59583 0
M  V30 6000 C 571.379 1.53191 4.20995 0
M  V30 6001 C 573.123 -0.296974 4.2346 0
M  V30 6002 C 571.03 1.526 5.71373 0
M  V30 6003 H 569.96 0.0384254 0.75302 0
M  V30 6004 H 572.611 0.773262 1.66412 0
M  V30 6005 H 570.993 -0.57617 3.91786 0
M  V30 6006 H 572.167 2.28156 4.00352 0
M  V30 6007 H 570.482 1.92279 3.69348 0
M  V30 6008 H 573.079 -0.320712 5.33737 0
M  V30 6009 H 573.422 -1.32145 3.9477 0
M  V30 6010 H 573.955 0.377279 3.96007 0
M  V30 6011 H 570.694 2.52837 6.04776 0
M  V30 6012 H 570.214 0.819064 5.94181 0
M  V30 6013 H 571.893 1.25357 6.3474 0
M  V30 6014 N 572.025 -1.5352 0.356285 0
M  V30 6015 C 572.988 -2.24071 -0.482182 0
M  V30 6016 C 573.988 -1.24531 -1.01729 0
M  V30 6017 O 575.178 -1.48876 -0.904513 0
M  V30 6018 C 572.31 -2.97025 -1.67299 0
M  V30 6019 H 573.503 -2.99596 0.135031 0
M  V30 6020 H 571.056 -1.55928 0.107825 0
M  V30 6021 H 571.791 -2.25719 -2.32855 0
M  V30 6022 H 571.576 -3.7005 -1.29636 0
M  V30 6023 H 573.066 -3.50683 -2.26741 0
M  V30 6024 N 573.503 -0.0852151 -1.57369 0
M  V30 6025 C 574.751 0.579658 -1.93609 0
M  V30 6026 C 575.072 1.69332 -0.967043 0
M  V30 6027 O 574.342 1.95892 -0.0174215 0
M  V30 6028 H 572.922 0.217113 -0.714752 0
M  V30 6029 H 575.584 -0.146226 -1.94351 0
M  V30 6030 H 574.68 0.996276 -2.95771 0
M  V30 6031 N 574.981 1.5647 0.188427 0
M  V30 6032 C 576.229 1.80655 0.905986 0
M  V30 6033 C 576.55 0.659391 1.83513 0
M  V30 6034 O 575.82 -0.321868 1.93238 0
M  V30 6035 H 574.4 0.666391 0.337538 0
M  V30 6036 H 577.062 1.93949 0.192339 0
M  V30 6037 H 576.158 2.74066 1.49313 0
M  V30 6038 N 576.459 -0.456382 1.50847 0
M  V30 6039 C 577.389 -1.56025 1.73719 0
M  V30 6040 C 578.37 -1.5967 0.586473 0
M  V30 6041 O 579.555 -1.75702 0.827185 0
M  V30 6042 C 576.685 -2.94251 1.84483 0
M  V30 6043 C 575.639 -3.05471 2.99786 0
M  V30 6044 C 574.965 -4.45489 2.95709 0
M  V30 6045 C 576.265 -2.81318 4.40065 0
M  V30 6046 H 577.959 -1.37138 2.66146 0
M  V30 6047 H 575.505 -0.658299 1.28072 0
M  V30 6048 H 577.458 -3.71417 1.99067 0
M  V30 6049 H 576.182 -3.14328 0.886891 0
M  V30 6050 H 574.841 -2.30741 2.84876 0
M  V30 6051 H 574.489 -4.62505 1.97732 0
M  V30 6052 H 574.189 -4.53929 3.73125 0
M  V30 6053 H 575.713 -5.24655 3.12362 0
M  V30 6054 H 577.127 -3.48226 4.55425 0
M  V30 6055 H 575.524 -3.01188 5.19043 0
M  V30 6056 H 576.594 -1.7706 4.51418 0
M  V30 6057 N 577.937 -1.40673 -0.710563 0
M  V30 6058 C 578.87 -1.35742 -1.83438 0
M  V30 6059 C 579.848 -0.226997 -1.61008 0
M  V30 6060 O 581.032 -0.411477 -1.83954 0
M  V30 6061 C 578.159 -1.11374 -3.19865 0
M  V30 6062 C 577.205 -2.26935 -3.61113 0
M  V30 6063 S 578.038 -3.89352 -3.67648 0
M  V30 6064 C 579.194 -3.67258 -5.06826 0
M  V30 6065 H 579.427 -2.30848 -1.87341 0
M  V30 6066 H 576.96 -1.27018 -0.877831 0
M  V30 6067 H 578.918 -0.980004 -3.9863 0
M  V30 6068 H 577.579 -0.179135 -3.13589 0
M  V30 6069 H 576.772 -2.0554 -4.60184 0
M  V30 6070 H 576.374 -2.36638 -2.89618 0
M  V30 6071 H 578.666 -3.26036 -5.93891 0
M  V30 6072 H 579.609 -4.65878 -5.33257 0
M  V30 6073 H 580.017 -3.0084 -4.77656 0
M  V30 6074 N 579.415 0.9433 -1.26252 0
M  V30 6075 C 580.661 1.69175 -1.11837 0
M  V30 6076 C 580.994 1.91238 0.337891 0
M  V30 6077 O 580.269 1.49152 1.24836 0
M  V30 6078 C 580.552 3.06783 -1.88563 0
M  V30 6079 C 580.405 2.9206 -3.42083 0
M  V30 6080 C 581.724 4.06865 -1.67776 0
M  V30 6081 H 578.843 0.61399 -0.407658 0
M  V30 6082 H 581.485 1.09572 -1.55222 0
M  V30 6083 H 579.635 3.57663 -1.51689 0
M  V30 6084 H 581.307 2.48419 -3.88698 0
M  V30 6085 H 579.55 2.27731 -3.69217 0
M  V30 6086 H 580.221 3.89651 -3.90994 0
M  V30 6087 H 582.697 3.64939 -1.99897 0
M  V30 6088 H 581.573 5.01168 -2.23879 0
M  V30 6089 H 581.834 4.37705 -0.621816 0
M  V30 6090 N 580.893 1.08022 1.14757 0
M  V30 6091 C 582.121 0.828847 1.89572 0
M  V30 6092 C 582.536 -0.618621 1.78377 0
M  V30 6093 O 581.893 -1.42482 1.1404 0
M  V30 6094 C 581.944 1.23677 3.39685 0
M  V30 6095 O 581.665 2.62746 3.50566 0
M  V30 6096 C 583.166 1.01569 4.31507 0
M  V30 6097 H 580.386 0.299196 0.600602 0
M  V30 6098 H 582.93 1.43846 1.45357 0
M  V30 6099 H 581.085 0.671347 3.81539 0
M  V30 6100 H 581.499 2.79573 4.43778 0
M  V30 6101 H 582.973 1.35055 5.35223 0
M  V30 6102 H 583.45 -0.0475433 4.39174 0
M  V30 6103 H 584.056 1.56636 3.95405 0
M  V30 6104 N 582.371 -1.3172 0.865308 0
M  V30 6105 C 583.304 -2.26687 0.262376 0
M  V30 6106 C 584.282 -1.50894 -0.605787 0
M  V30 6107 O 585.466 -1.79982 -0.56024 0
M  V30 6108 C 582.593 -3.3281 -0.628915 0
M  V30 6109 C 581.639 -4.26172 0.167278 0
M  V30 6110 S 582.472 -5.12797 1.54272 0
M  V30 6111 C 583.628 -6.22438 0.657427 0
M  V30 6112 H 583.861 -2.77478 1.0674 0
M  V30 6113 H 581.394 -1.39414 0.663555 0
M  V30 6114 H 583.352 -3.94426 -1.13747 0
M  V30 6115 H 582.013 -2.80782 -1.40785 0
M  V30 6116 H 581.206 -5.01392 -0.51203 0
M  V30 6117 H 580.808 -3.69029 0.607777 0
M  V30 6118 H 583.1 -6.77368 -0.133925 0
M  V30 6119 H 584.043 -6.9451 1.38061 0
M  V30 6120 H 584.451 -5.64043 0.227044 0
M  V30 6121 N 583.85 -0.624285 -1.44708 0
M  V30 6122 C 585.26 -0.2092 -1.85524 0
M  V30 6123 C 585.611 1.23783 -1.52225 0
M  V30 6124 O 584.736 1.94089 -0.956986 0
M  V30 6125 C 585.332 -0.372897 -3.36742 0
M  V30 6126 C 583.891 -0.012374 -3.76398 0
M  V30 6127 C 583.038 -0.68951 -2.68591 0
M  V30 6128 H 585.989 -0.829894 -1.35272 0
M  V30 6129 H 586.01 0.390134 -3.78495 0
M  V30 6130 H 585.522 -1.42615 -3.60947 0
M  V30 6131 H 583.623 1.03941 -3.57809 0
M  V30 6132 H 583.736 -0.417663 -4.77276 0
M  V30 6133 H 582.1 -0.125484 -2.54391 0
M  V30 6134 H 582.883 -1.74522 -2.9563 0
M  V30 6135 N 585.328 1.53329 -0.364422 0
M  V30 6136 C 586.553 2.06132 0.229033 0
M  V30 6137 C 586.978 1.23625 1.41769 0
M  V30 6138 O 586.336 0.255038 1.79497 0
M  V30 6139 C 586.384 3.55544 0.60174 0
M  V30 6140 O 585.488 3.75771 1.69912 0
M  V30 6141 H 584.829 0.663148 0.0336213 0
M  V30 6142 H 587.359 1.97758 -0.524689 0
M  V30 6143 H 587.369 3.98549 0.873073 0
M  V30 6144 H 586.044 4.15039 -0.267421 0
M  V30 6145 H 584.621 3.44663 1.42343 0
M  V30 6146 N 586.806 0.0935595 1.57322 0
M  V30 6147 C 587.716 -0.880192 2.17462 0
M  V30 6148 C 588.732 -1.31135 1.14366 0
M  V30 6149 O 589.908 -1.37958 1.46729 0
M  V30 6150 C 586.973 -2.12184 2.74188 0
M  V30 6151 C 586.034 -1.74503 3.92234 0
M  V30 6152 C 585.267 -2.92748 4.46245 0
M  V30 6153 O 585.49 -4.07427 3.99198 0
M  V30 6154 O 584.424 -2.71303 5.37288 0
M  V30 6155 H 588.25 -0.398516 3.01074 0
M  V30 6156 H 585.835 -0.130707 1.48827 0
M  V30 6157 H 587.717 -2.84953 3.10451 0
M  V30 6158 H 586.392 -2.59407 1.93623 0
M  V30 6159 H 585.299 -0.989186 3.60785 0
M  V30 6160 H 586.632 -1.32044 4.74157 0
M  V30 6161 N 588.284 -1.56567 -0.180126 0
M  V30 6162 C 589.247 -1.94852 -1.20686 0
M  V30 6163 C 590.247 -0.831212 -1.3765 0
M  V30 6164 O 591.437 -1.09841 -1.35206 0
M  V30 6165 C 588.569 -2.23565 -2.57355 0
M  V30 6166 H 589.762 -2.86722 -0.879225 0
M  V30 6167 H 587.315 -1.50489 -0.422237 0
M  V30 6168 H 588.05 -1.34381 -2.95148 0
M  V30 6169 H 587.835 -3.04999 -2.46411 0
M  V30 6170 H 589.325 -2.54137 -3.31367 0
M  V30 6171 N 589.762 0.448376 -1.51087 0
M  V30 6172 C 591.039 1.20926 -1.53741 0
M  V30 6173 C 591.419 2.09025 -0.295222 0
M  V30 6174 O 590.767 2.16851 0.720283 0
M  V30 6175 C 590.977 2.02067 -2.84552 0
M  V30 6176 C 592.325 2.59486 -3.36084 0
M  V30 6177 O 593.349 2.12289 -2.86028 0
M  V30 6178 O 592.208 3.45539 -4.23397 0
M  V30 6179 H 589.302 0.549951 -0.617643 0
M  V30 6180 H 591.848 0.458344 -1.63393 0
M  V30 6181 H 590.62 1.37291 -3.66425 0
M  V30 6182 H 590.243 2.84246 -2.78011 0
M  V30 6183 N 591.24 1.41047 0.703093 0
M  V30 6184 C 592.487 1.4 1.46309 0
M  V30 6185 C 592.815 0.00654574 1.94499 0
M  V30 6186 O 592.07 -0.980255 1.6938 0
M  V30 6187 C 592.369 2.34686 2.6955 0
M  V30 6188 C 592.035 3.81684 2.40058 0
M  V30 6189 C 590.697 4.21731 2.31725 0
M  V30 6190 C 593.049 4.74525 2.15581 0
M  V30 6191 C 590.377 5.52637 1.97001 0
M  V30 6192 C 592.729 6.05744 1.82366 0
M  V30 6193 C 591.393 6.44819 1.72524 0
M  V30 6194 H 590.663 0.512295 0.535382 0
M  V30 6195 H 593.31 1.73792 0.804275 0
M  V30 6196 H 591.615 1.94122 3.40329 0
M  V30 6197 H 593.312 2.31152 3.27673 0
M  V30 6198 H 589.902 3.49963 2.47435 0
M  V30 6199 H 594.086 4.44395 2.20968 0
M  V30 6200 H 589.342 5.81802 1.87928 0
M  V30 6201 H 593.516 6.77189 1.62444 0
M  V30 6202 H 591.143 7.46168 1.45385 0
M  V30 6203 N 592.718 -0.936591 1.26751 0
M  V30 6204 C 593.665 -2.03597 1.08706 0
M  V30 6205 C 594.635 -1.66097 -0.00926542 0
M  V30 6206 O 595.82 -1.90199 0.151377 0
M  V30 6207 C 592.96 -3.3727 0.73094 0
M  V30 6208 C 592.073 -3.87778 1.90399 0
M  V30 6209 C 591.208 -5.09859 1.49056 0
M  V30 6210 C 590.247 -5.5264 2.63164 0
M  V30 6211 N 589.384 -6.65921 2.22471 0
M  V30 6212 H 594.224 -2.18364 2.02784 0
M  V30 6213 H 591.761 -1.06985 1.00958 0
M  V30 6214 H 593.719 -4.14128 0.505328 0
M  V30 6215 H 592.349 -3.22337 -0.172868 0
M  V30 6216 H 591.401 -3.07279 2.2424 0
M  V30 6217 H 592.713 -4.15464 2.76028 0
M  V30 6218 H 591.867 -5.9419 1.22567 0
M  V30 6219 H 590.606 -4.8393 0.60524 0
M  V30 6220 H 589.611 -4.66863 2.90377 0
M  V30 6221 H 590.836 -5.80568 3.52303 0
M  V30 6222 H 588.782 -6.41667 1.36379 0
M  V30 6223 H 588.699 -6.93216 3.01641 0
M  V30 6224 H 589.967 -7.53616 1.99205 0
M  V30 6225 N 594.196 -1.08629 -1.14182 0
M  V30 6226 C 595.421 -0.83902 -1.89671 0
M  V30 6227 C 595.846 0.603332 -1.78161 0
M  V30 6228 O 595.204 1.42301 -1.12339 0
M  V30 6229 C 595.252 -1.26854 -3.37551 0
M  V30 6230 O 594.356 -0.42188 -4.10236 0
M  V30 6231 H 593.697 -0.304545 -0.590041 0
M  V30 6232 H 596.227 -1.4483 -1.44518 0
M  V30 6233 H 596.237 -1.25038 -3.88368 0
M  V30 6234 H 594.912 -2.31901 -3.45246 0
M  V30 6235 H 593.489 -0.503654 -3.69483 0
M  V30 6236 N 595.674 1.31259 -0.872281 0
M  V30 6237 C 596.584 2.32221 -0.333255 0
M  V30 6238 C 597.6 1.6481 0.558013 0
M  V30 6239 O 598.776 1.96212 0.454175 0
M  V30 6240 C 595.841 3.43708 0.454479 0
M  V30 6241 C 594.902 4.26774 -0.465024 0
M  V30 6242 C 594.135 5.32937 0.28521 0
M  V30 6243 O 594.358 5.49968 1.513 0
M  V30 6244 O 593.292 6.00834 -0.358126 0
M  V30 6245 H 597.118 2.80252 -1.17016 0
M  V30 6246 H 594.703 1.352 -0.635724 0
M  V30 6247 H 596.585 4.11656 0.900963 0
M  V30 6248 H 595.26 2.97836 1.26789 0
M  V30 6249 H 594.167 3.61571 -0.960055 0
M  V30 6250 H 595.5 4.76217 -1.2441 0
M  V30 6251 N 597.152 0.631951 1.44375 0
M  V30 6252 C 598.38 0.143867 2.06399 0
M  V30 6253 C 598.795 -1.18188 1.47231 0
M  V30 6254 O 598.152 -1.72511 0.595498 0
M  V30 6255 C 598.203 0.0238253 3.61492 0
M  V30 6256 O 597.924 1.29715 4.18456 0
M  V30 6257 C 599.425 -0.492856 4.40552 0
M  V30 6258 H 596.645 0.0800542 0.666207 0
M  V30 6259 H 599.189 0.866586 1.85231 0
M  V30 6260 H 597.344 -0.649338 3.81919 0
M  V30 6261 H 597.758 1.14252 5.11905 0
M  V30 6262 H 599.232 -0.525861 5.49489 0
M  V30 6263 H 599.709 -1.52006 4.12057 0
M  V30 6264 H 600.315 0.147085 4.25046 0
M  V30 6265 N 598.631 -1.53133 0.372548 0
M  V30 6266 C 599.877 -2.01654 -0.215277 0
M  V30 6267 C 600.21 -1.25914 -1.47849 0
M  V30 6268 O 599.485 -0.3548 -1.91237 0
M  V30 6269 C 599.768 -3.56609 -0.500187 0
M  V30 6270 C 599.621 -4.43036 0.777145 0
M  V30 6271 C 600.94 -4.20528 -1.29786 0
M  V30 6272 H 598.059 -0.732991 -0.0767686 0
M  V30 6273 H 600.701 -1.83335 0.498814 0
M  V30 6274 H 598.851 -3.7235 -1.10852 0
M  V30 6275 H 600.523 -4.39079 1.41447 0
M  V30 6276 H 598.766 -4.10723 1.39604 0
M  V30 6277 H 599.437 -5.49424 0.532662 0
M  V30 6278 H 601.913 -4.08663 -0.783198 0
M  V30 6279 H 600.789 -5.28962 -1.46596 0
M  V30 6280 H 601.05 -3.77051 -2.30836 0
M  V30 6281 N 600.109 -0.101901 -1.5727 0
M  V30 6282 C 601.355 0.561027 -1.94885 0
M  V30 6283 C 601.688 1.6741 -0.984258 0
M  V30 6284 O 600.963 1.94491 -0.0184767 0
M  V30 6285 C 601.246 1.10982 -3.42571 0
M  V30 6286 C 601.099 0.00133418 -4.498 0
M  V30 6287 C 602.418 2.00608 -3.9172 0
M  V30 6288 H 599.537 0.202467 -0.708644 0
M  V30 6289 H 602.179 -0.173992 -1.89202 0
M  V30 6290 H 600.329 1.73621 -3.47546 0
M  V30 6291 H 602.001 -0.63322 -4.56933 0
M  V30 6292 H 600.244 -0.664143 -4.28686 0
M  V30 6293 H 600.915 0.426253 -5.50352 0
M  V30 6294 H 603.391 1.47864 -3.88941 0
M  V30 6295 H 602.267 2.3593 -4.95609 0
M  V30 6296 H 602.528 2.92608 -3.3141 0
M  V30 6297 N 601.587 1.56661 0.17182 0
M  V30 6298 C 602.835 1.81606 0.886774 0
M  V30 6299 C 603.156 0.678818 1.82803 0
M  V30 6300 O 602.426 -0.301354 1.93568 0
M  V30 6301 H 601.006 0.669934 0.330451 0
M  V30 6302 H 603.668 1.94142 0.171757 0
M  V30 6303 H 602.764 2.75634 1.46398 0
M  V30 6304 N 603.065 -0.440357 1.51323 0
M  V30 6305 C 604.481 -0.7766 1.39431 0
M  V30 6306 C 604.681 -1.95838 0.474296 0
M  V30 6307 O 603.737 -2.52398 -0.0716692 0
M  V30 6308 C 605.05 -1.05981 2.81405 0
M  V30 6309 C 606.598 -1.16442 2.90534 0
M  V30 6310 C 607.073 -1.48058 4.33408 0
M  V30 6311 N 608.564 -1.54988 4.36501 0
M  V30 6312 C 609.299 -1.81017 5.44078 0
M  V30 6313 N 608.795 -2.04858 6.61819 0
M  V30 6314 N 610.588 -1.82774 5.31554 0
M  V30 6315 H 602.739 0.338006 2.09693 0
M  V30 6316 H 605.002 0.0888072 0.943831 0
M  V30 6317 H 604.708 -0.264173 3.50706 0
M  V30 6318 H 604.582 -1.98822 3.20546 0
M  V30 6319 H 606.969 -1.95068 2.21432 0
M  V30 6320 H 607.05 -0.215088 2.54894 0
M  V30 6321 H 606.694 -0.699605 5.03059 0
M  V30 6322 H 606.624 -2.44192 4.66559 0
M  V30 6323 H 609.115 -1.38479 3.51613 0
M  V30 6324 H 609.428 -2.2408 7.396 0
M  V30 6325 H 607.773 -2.02187 6.6494 0
M  V30 6326 H 610.964 -1.63665 4.38556 0
M  V30 6327 H 611.137 -2.02722 6.15474 0
M  V30 6328 N 604.543 -1.41418 -0.695603 0
M  V30 6329 C 605.82 -1.31264 -1.45014 0
M  V30 6330 C 606.2 0.0597994 -2.11015 0
M  V30 6331 O 605.548 1.07403 -2.01685 0
M  V30 6332 C 605.758 -2.466 -2.4696 0
M  V30 6333 C 607.106 -2.87763 -3.12214 0
M  V30 6334 O 608.13 -2.46339 -2.57285 0
M  V30 6335 O 606.989 -3.59395 -4.11701 0
M  V30 6336 H 604.083 -0.516576 -0.645816 0
M  V30 6337 H 606.629 -1.53382 -0.726084 0
M  V30 6338 H 605.401 -3.38183 -1.96845 0
M  V30 6339 H 605.024 -2.26358 -3.26876 0
M  V30 6340 N 606.021 0.929856 -1.27246 0
M  V30 6341 C 607.269 1.674 -1.13233 0
M  V30 6342 C 607.59 1.92311 0.322744 0
M  V30 6343 O 606.86 1.52784 1.22612 0
M  V30 6344 H 605.44 0.620411 -0.416052 0
M  V30 6345 H 608.102 1.11663 -1.59741 0
M  V30 6346 H 607.198 2.64308 -1.65975 0
M  V30 6347 N 607.499 1.09233 1.13605 0
M  V30 6348 C 608.409 0.741939 2.22559 0
M  V30 6349 C 609.425 -0.255236 1.72118 0
M  V30 6350 O 610.601 -0.0970747 2.01166 0
M  V30 6351 C 607.666 0.165595 3.46304 0
M  V30 6352 C 606.727 1.21846 4.11645 0
M  V30 6353 C 605.96 0.669526 5.29484 0
M  V30 6354 O 606.183 -0.508228 5.68131 0
M  V30 6355 O 605.117 1.42361 5.84822 0
M  V30 6356 H 608.943 1.65107 2.54899 0
M  V30 6357 H 606.528 0.866584 1.21699 0
M  V30 6358 H 608.41 -0.152592 4.21124 0
M  V30 6359 H 607.085 -0.716573 3.15669 0
M  V30 6360 H 605.992 1.58931 3.38662 0
M  V30 6361 H 607.325 2.07321 4.46407 0
M  V30 6362 N 608.977 -1.30795 0.87923 0
M  V30 6363 C 610.205 -2.00527 0.509548 0
M  V30 6364 C 610.62 -1.65944 -0.90045 0
M  V30 6365 O 609.977 -0.893525 -1.5913 0
M  V30 6366 C 610.028 -3.55276 0.667943 0
M  V30 6367 O 609.749 -3.88625 2.02242 0
M  V30 6368 C 611.25 -4.4228 0.300494 0
M  V30 6369 H 608.47 -0.641261 0.197549 0
M  V30 6370 H 611.014 -1.66813 1.18295 0
M  V30 6371 H 609.169 -3.87377 0.0419843 0
M  V30 6372 H 609.583 -4.83334 2.03688 0
M  V30 6373 H 611.057 -5.50061 0.462242 0
M  V30 6374 H 611.534 -4.32556 -0.76106 0
M  V30 6375 H 612.14 -4.15613 0.902536 0
M  V30 6376 N 610.455 -0.639598 -1.44038 0
M  V30 6377 C 611.704 -0.144885 -2.01179 0
M  V30 6378 C 612.017 1.24372 -1.50967 0
M  V30 6379 O 613.223 1.83291 -2.00292 0
M  V30 6380 C 611.679 -0.208244 -3.59297 0
M  V30 6381 C 611.287 -1.59869 -4.18504 0
M  V30 6382 C 613.031 0.229568 -4.23879 0
M  V30 6383 C 610.938 -1.61671 -5.68873 0
M  V30 6384 H 609.868 -0.0504005 -0.752314 0
M  V30 6385 H 612.519 -0.799639 -1.65161 0
M  V30 6386 H 610.901 0.513767 -3.92653 0
M  V30 6387 H 612.075 -2.34496 -3.96671 0
M  V30 6388 H 610.39 -1.98131 -3.66242 0
M  V30 6389 H 612.987 0.235758 -5.3418 0
M  V30 6390 H 613.33 1.25848 -3.96822 0
M  V30 6391 H 613.863 -0.440233 -3.95357 0
M  V30 6392 H 610.602 -2.62427 -6.00677 0
M  V30 6393 H 610.122 -0.913489 -5.92803 0
M  V30 6394 H 611.801 -1.35439 -6.32665 0
M  V30 6395 N 611.933 1.52934 -0.380664 0
M  V30 6396 C 613.181 2.01069 0.203874 0
M  V30 6397 C 613.502 1.26922 1.4804 0
M  V30 6398 O 612.772 0.386787 1.92044 0
M  V30 6399 H 611.352 0.742882 0.0783279 0
M  V30 6400 H 614.014 1.88099 -0.510368 0
M  V30 6401 H 613.11 3.09258 0.42021 0
M  V30 6402 N 613.412 0.11024 1.57214 0
M  V30 6403 C 614.689 -0.592956 1.86396 0
M  V30 6404 C 615.069 -1.85379 1.00985 0
M  V30 6405 O 614.417 -2.28337 0.0863592 0
M  V30 6406 C 614.627 -0.893816 3.3736 0
M  V30 6407 C 615.975 -1.25069 4.05762 0
M  V30 6408 O 616.999 -0.984356 3.42329 0
M  V30 6409 O 615.858 -1.75017 5.17718 0
M  V30 6410 H 612.952 -0.29828 0.771335 0
M  V30 6411 H 615.498 0.144083 1.69087 0
M  V30 6412 H 614.27 2.6031e-05 3.913 0
M  V30 6413 H 613.893 -1.68631 3.60068 0
M  V30 6414 N 614.89 -1.56749 -0.16351 0
M  V30 6415 C 616.137 -1.82434 -0.878866 0
M  V30 6416 C 616.465 -0.688557 -1.81904 0
M  V30 6417 O 615.72 0.323644 -1.93005 0
M  V30 6418 C 616.019 -3.14342 -1.70071 0
M  V30 6419 C 615.685 -4.41647 -0.908775 0
M  V30 6420 C 614.347 -4.76224 -0.690236 0
M  V30 6421 C 616.699 -5.19998 -0.353815 0
M  V30 6422 C 614.027 -5.86624 0.0942374 0
M  V30 6423 C 616.379 -6.3122 0.41761 0
M  V30 6424 C 615.043 -6.64358 0.646879 0
M  V30 6425 H 614.313 -0.667574 -0.3216 0
M  V30 6426 H 616.96 -1.90963 -0.14337 0
M  V30 6427 H 615.265 -3.0119 -2.50583 0
M  V30 6428 H 616.962 -3.31426 -2.25738 0
M  V30 6429 H 613.552 -4.1453 -1.08916 0
M  V30 6430 H 617.736 -4.93673 -0.509975 0
M  V30 6431 H 612.992 -6.10751 0.281529 0
M  V30 6432 H 617.166 -6.91133 0.854849 0
M  V30 6433 H 614.793 -7.49742 1.25662 0
M  V30 6434 N 616.368 0.432326 -1.51554 0
M  V30 6435 C 617.608 1.19076 -1.66133 0
M  V30 6436 C 617.972 1.88364 -0.371873 0
M  V30 6437 O 619.173 2.65904 -0.39349 0
M  V30 6438 C 617.444 2.1768 -2.83461 0
M  V30 6439 S 619.003 3.01943 -3.18396 0
M  V30 6440 H 615.821 0.403735 -0.585251 0
M  V30 6441 H 618.423 0.481554 -1.89476 0
M  V30 6442 H 617.127 1.65424 -3.75583 0
M  V30 6443 H 616.658 2.93174 -2.62322 0
M  V30 6444 H 618.673 4.19373 -2.65219 0
M  V30 6445 N 617.846 1.41785 0.688094 0
M  V30 6446 C 618.794 1.44436 1.82321 0
M  V30 6447 C 619.788 0.321544 1.6632 0
M  V30 6448 O 620.994 0.493931 1.73091 0
M  V30 6449 H 617.369 0.452084 0.600936 0
M  V30 6450 H 619.34 2.40087 1.77202 0
M  V30 6451 C 618.089 1.35071 3.20392 0
M  V30 6452 H 617.412 2.2076 3.33324 0
M  V30 6453 H 618.852 1.40988 3.99873 0
M  V30 6454 C 617.311 0.0639127 3.36839 0
M  V30 6455 O 617.841 -0.888495 3.91751 0
M  V30 6456 N 616.047 -0.0146114 2.90596 0
M  V30 6457 H 615.594 0.761191 2.46097 0
M  V30 6458 H 615.552 -0.874988 3.01979 0
M  V30 6459 N 619.324 -0.923095 1.27737 0
M  V30 6460 C 620.271 -2.02432 1.1086 0
M  V30 6461 C 621.241 -1.66098 0.00835195 0
M  V30 6462 O 622.426 -1.90027 0.171542 0
M  V30 6463 C 619.566 -3.36476 0.766671 0
M  V30 6464 C 618.679 -3.85737 1.94501 0
M  V30 6465 C 617.814 -5.08249 1.54455 0
M  V30 6466 C 616.853 -5.49818 2.6901 0
M  V30 6467 N 615.99 -6.63524 2.29521 0
M  V30 6468 H 620.83 -2.16201 2.05089 0
M  V30 6469 H 618.367 -1.05909 1.02087 0
M  V30 6470 H 620.325 -4.13569 0.549223 0
M  V30 6471 H 618.955 -3.22502 -0.13867 0
M  V30 6472 H 618.007 -3.04883 2.27487 0
M  V30 6473 H 619.319 -4.12513 2.80419 0
M  V30 6474 H 618.473 -5.92857 1.28862 0
M  V30 6475 H 617.212 -4.83261 0.656534 0
M  V30 6476 H 616.217 -4.63757 2.95313 0
M  V30 6477 H 617.442 -5.76799 3.5844 0
M  V30 6478 H 615.388 -6.40185 1.43177 0
M  V30 6479 H 615.305 -6.89978 3.08977 0
M  V30 6480 H 616.573 -7.51461 2.07187 0
M  V30 6481 N 620.802 -1.09834 -1.13024 0
M  V30 6482 C 622.049 -0.83695 -1.84395 0
M  V30 6483 C 622.377 0.637463 -1.83757 0
M  V30 6484 O 621.632 1.48554 -1.27398 0
M  V30 6485 C 621.931 -1.32263 -3.32026 0
M  V30 6486 C 621.597 -2.80739 -3.52841 0
M  V30 6487 C 620.259 -3.21286 -3.5823 0
M  V30 6488 C 622.611 -3.76449 -3.60466 0
M  V30 6489 C 619.939 -4.56308 -3.68781 0
M  V30 6490 C 622.291 -5.11266 -3.72546 0
M  V30 6491 C 620.955 -5.51397 -3.76189 0
M  V30 6492 H 620.225 -0.306262 -0.674748 0
M  V30 6493 H 622.872 -1.37385 -1.33408 0
M  V30 6494 H 621.177 -0.705618 -3.85394 0
M  V30 6495 H 622.874 -1.09695 -3.85705 0
M  V30 6496 H 619.464 -2.48363 -3.49305 0
M  V30 6497 H 623.648 -3.46234 -3.55578 0
M  V30 6498 H 618.904 -4.86832 -3.69871 0
M  V30 6499 H 623.078 -5.85279 -3.77388 0
M  V30 6500 H 620.705 -6.56017 -3.84117 0
M  V30 6501 N 622.28 1.30327 -0.886154 0
M  V30 6502 C 623.527 1.96097 -0.505192 0
M  V30 6503 C 623.855 1.69952 0.945868 0
M  V30 6504 O 623.11 0.997653 1.68361 0
M  V30 6505 C 623.409 3.49906 -0.728042 0
M  V30 6506 C 623.075 3.96103 -2.15437 0
M  V30 6507 C 621.737 4.08428 -2.5444 0
M  V30 6508 C 624.089 4.20177 -3.08384 0
M  V30 6509 C 621.417 4.42189 -3.85598 0
M  V30 6510 C 623.769 4.55407 -4.39075 0
M  V30 6511 C 622.433 4.65941 -4.7797 0
M  V30 6512 H 621.703 0.71757 -0.184863 0
M  V30 6513 H 624.35 1.55171 -1.12223 0
M  V30 6514 H 622.655 3.9179 -0.027978 0
M  V30 6515 H 624.352 3.98869 -0.412862 0
M  V30 6516 H 620.942 3.87017 -1.84162 0
M  V30 6517 H 625.126 4.10134 -2.7947 0
M  V30 6518 H 620.382 4.48544 -4.15473 0
M  V30 6519 H 624.556 4.72986 -5.11133 0
M  V30 6520 H 622.183 4.91856 -5.79639 0
M  V30 6521 N 623.758 0.647228 1.43697 0
M  V30 6522 C 624.721 -0.0385101 2.29168 0
M  V30 6523 C 625.721 -0.756487 1.41894 0
M  V30 6524 O 626.911 -0.598641 1.63591 0
M  V30 6525 C 624.043 -1.06524 3.23829 0
M  V30 6526 H 625.236 0.713445 2.9129 0
M  V30 6527 H 622.789 0.408153 1.50877 0
M  V30 6528 H 623.524 -1.84664 2.66589 0
M  V30 6529 H 623.309 -0.554147 3.88164 0
M  V30 6530 H 624.799 -1.54432 3.87996 0
M  V30 6531 N 625.236 -1.5273 0.388769 0
M  V30 6532 C 626.199 -2.25043 -0.434544 0
M  V30 6533 C 627.199 -1.26661 -0.990644 0
M  V30 6534 O 628.389 -1.50762 -0.872731 0
M  V30 6535 C 625.521 -3.00507 -1.60961 0
M  V30 6536 H 626.714 -2.99242 0.198549 0
M  V30 6537 H 624.267 -1.55664 0.140875 0
M  V30 6538 H 625.002 -2.30607 -2.28015 0
M  V30 6539 H 624.787 -3.72716 -1.21757 0
M  V30 6540 H 626.277 -3.55413 -2.19251 0
M  V30 6541 N 626.714 -0.118576 -1.57153 0
M  V30 6542 C 627.677 0.817464 -2.14127 0
M  V30 6543 C 628.677 1.1949 -1.07604 0
M  V30 6544 O 629.867 1.12048 -1.33382 0
M  V30 6545 C 626.999 2.10541 -2.68115 0
M  V30 6546 H 628.192 0.322339 -2.98163 0
M  V30 6547 H 625.745 0.130655 -1.55753 0
M  V30 6548 H 626.48 2.64485 -1.87665 0
M  V30 6549 H 626.265 1.84425 -3.4602 0
M  V30 6550 H 627.755 2.77453 -3.12105 0
M  V30 6551 N 628.193 1.56834 0.155195 0
M  V30 6552 C 629.604 1.72421 0.716082 0
M  V30 6553 C 629.955 0.731685 1.82046 0
M  V30 6554 O 629.08 -0.103481 2.16152 0
M  V30 6555 C 629.675 3.12629 1.30571 0
M  V30 6556 C 628.234 3.29846 1.81325 0
M  V30 6557 C 627.381 2.68359 0.698494 0
M  V30 6558 H 630.332 1.58544 -0.0703861 0
M  V30 6559 H 630.353 3.12174 2.1755 0
M  V30 6560 H 629.865 3.84844 0.501701 0
M  V30 6561 H 627.966 2.62614 2.64319 0
M  V30 6562 H 628.079 4.37727 1.9476 0
M  V30 6563 H 626.443 2.28604 1.12305 0
M  V30 6564 H 627.226 3.43171 -0.0939366 0
M  V30 6565 N 629.671 -0.424282 1.51781 0
M  V30 6566 C 630.899 -1.1947 1.68921 0
M  V30 6567 C 631.314 -1.84683 0.39213 0
M  V30 6568 O 630.671 -1.71261 -0.630554 0
M  V30 6569 C 630.722 -2.26909 2.81416 0
M  V30 6570 O 630.443 -1.64361 4.061 0
M  V30 6571 C 631.944 -3.16945 3.09937 0
M  V30 6572 H 629.164 -0.359591 0.566511 0
M  V30 6573 H 631.708 -0.501139 1.98265 0
M  V30 6574 H 629.863 -2.91959 2.54635 0
M  V30 6575 H 630.277 -2.35468 4.68674 0
M  V30 6576 H 631.751 -3.88437 3.922 0
M  V30 6577 H 632.228 -3.78451 2.22871 0
M  V30 6578 H 632.834 -2.57581 3.38426 0
M  V30 6579 N 631.149 -1.42148 -0.680565 0
M  V30 6580 C 632.389 -1.4379 -1.45271 0
M  V30 6581 C 632.753 -0.0504426 -1.91934 0
M  V30 6582 O 633.954 0.0583916 -2.68737 0
M  V30 6583 C 632.225 -2.42904 -2.62168 0
M  V30 6584 S 633.784 -2.63201 -3.51099 0
M  V30 6585 H 630.602 -0.509185 -0.496237 0
M  V30 6586 H 633.204 -1.78706 -0.792744 0
M  V30 6587 H 631.908 -3.4249 -2.26116 0
M  V30 6588 H 631.439 -2.09394 -3.33043 0
M  V30 6589 H 633.454 -1.91068 -4.57938 0
M  V30 6590 N 632.627 0.916307 -1.28225 0
M  V30 6591 C 633.855 1.69901 -1.18073 0
M  V30 6592 C 634.27 1.86988 0.260968 0
M  V30 6593 O 633.627 1.39505 1.17663 0
M  V30 6594 C 633.678 3.09254 -1.87201 0
M  V30 6595 O 633.399 2.92959 -3.2574 0
M  V30 6596 C 634.9 4.0362 -1.83319 0
M  V30 6597 H 632.12 0.531181 -0.409985 0
M  V30 6598 H 634.664 1.14703 -1.69303 0
M  V30 6599 H 632.819 3.61277 -1.39848 0
M  V30 6600 H 633.233 3.81139 -3.60324 0
M  V30 6601 H 634.707 4.98873 -2.36282 0
M  V30 6602 H 635.184 4.3176 -0.805007 0
M  V30 6603 H 635.79 3.57524 -2.3034 0
M  V30 6604 N 634.105 1.10431 1.1244 0
M  V30 6605 C 635.333 0.868872 1.87772 0
M  V30 6606 C 635.748 -0.580645 1.7965 0
M  V30 6607 O 635.105 -1.40031 1.17036 0
M  V30 6608 C 635.156 1.30855 3.36986 0
M  V30 6609 O 634.877 2.70123 3.44914 0
M  V30 6610 C 636.378 1.107 4.29256 0
M  V30 6611 H 633.598 0.311868 0.59412 0
M  V30 6612 H 636.142 1.46897 1.42273 0
M  V30 6613 H 634.297 0.752126 3.80029 0
M  V30 6614 H 634.711 2.88923 4.37748 0
M  V30 6615 H 636.185 1.46378 5.32238 0
M  V30 6616 H 636.662 0.0456228 4.39176 0
M  V30 6617 H 637.268 1.64988 3.91994 0
M  V30 6618 N 635.583 -1.29855 0.893053 0
M  V30 6619 C 636.493 -2.31661 0.370157 0
M  V30 6620 C 637.509 -1.65677 -0.531723 0
M  V30 6621 O 638.685 -1.9691 -0.422902 0
M  V30 6622 C 635.75 -3.44388 -0.399741 0
M  V30 6623 C 634.811 -4.2598 0.532861 0
M  V30 6624 C 634.044 -5.33324 -0.200388 0
M  V30 6625 O 634.267 -5.52305 -1.42531 0
M  V30 6626 O 633.201 -6.00188 0.453668 0
M  V30 6627 H 637.027 -2.78354 1.2146 0
M  V30 6628 H 634.612 -1.34171 0.657153 0
M  V30 6629 H 636.494 -4.13037 -0.835358 0
M  V30 6630 H 635.169 -2.99815 -1.22035 0
M  V30 6631 H 634.076 -3.59998 1.01746 0
M  V30 6632 H 635.409 -4.74178 1.3197 0
M  V30 6633 N 637.061 -0.65484 -1.43351 0
M  V30 6634 C 637.971 0.0363603 -2.34572 0
M  V30 6635 C 638.987 0.810432 -1.53974 0
M  V30 6636 O 640.163 0.757308 -1.86619 0
M  V30 6637 C 637.228 0.989733 -3.32273 0
M  V30 6638 C 636.289 0.212414 -4.28774 0
M  V30 6639 C 635.522 1.12038 -5.21808 0
M  V30 6640 O 635.745 2.35967 -5.19303 0
M  V30 6641 O 634.679 0.59191 -5.98982 0
M  V30 6642 H 638.505 -0.714527 -2.95175 0
M  V30 6643 H 636.09 -0.415029 -1.4352 0
M  V30 6644 H 637.972 1.53759 -3.92347 0
M  V30 6645 H 636.647 1.72082 -2.74171 0
M  V30 6646 H 635.554 -0.379062 -3.72175 0
M  V30 6647 H 636.887 -0.479138 -4.89862 0
M  V30 6648 N 638.539 1.52521 -0.396863 0
M  V30 6649 C 639.955 1.5953 -0.0471659 0
M  V30 6650 C 640.155 1.41044 1.43906 0
M  V30 6651 O 639.211 1.23122 2.20448 0
M  V30 6652 C 640.524 2.95972 -0.531113 0
M  V30 6653 C 642.072 3.09172 -0.488024 0
M  V30 6654 C 642.547 4.48075 -0.948281 0
M  V30 6655 N 644.038 4.54281 -0.9046 0
M  V30 6656 C 644.773 5.60007 -1.23205 0
M  V30 6657 N 644.269 6.73343 -1.63036 0
M  V30 6658 N 646.062 5.50151 -1.15282 0
M  V30 6659 H 638.213 1.62786 -1.36435 0
M  V30 6660 H 640.476 0.76514 -0.559701 0
M  V30 6661 H 640.182 3.14741 -1.56942 0
M  V30 6662 H 640.056 3.77143 0.0657922 0
M  V30 6663 H 642.443 2.90095 0.541211 0
M  V30 6664 H 642.524 2.29937 -1.12083 0
M  V30 6665 H 642.168 4.67894 -1.97578 0
M  V30 6666 H 642.098 5.25788 -0.292412 0
M  V30 6667 H 644.589 3.72918 -0.6116 0
M  V30 6668 H 644.902 7.49992 -1.86365 0
M  V30 6669 H 643.247 6.74655 -1.66929 0
M  V30 6670 H 646.438 4.6049 -0.840602 0
M  V30 6671 H 646.611 6.32444 -1.41133 0
M  V30 6672 N 640.017 0.126909 1.57088 0
M  V30 6673 C 640.95 -0.857844 2.11462 0
M  V30 6674 C 641.928 -1.25569 1.03301 0
M  V30 6675 O 643.112 -1.35535 1.31006 0
M  V30 6676 C 640.239 -2.14912 2.61784 0
M  V30 6677 C 639.285 -1.89874 3.81903 0
M  V30 6678 S 640.118 -1.10785 5.23915 0
M  V30 6679 C 641.274 -2.41075 5.7761 0
M  V30 6680 H 641.507 -0.395384 2.94659 0
M  V30 6681 H 639.04 -0.0870151 1.54155 0
M  V30 6682 H 640.998 -2.89101 2.91429 0
M  V30 6683 H 639.659 -2.58275 1.78754 0
M  V30 6684 H 638.852 -2.85572 4.15289 0
M  V30 6685 H 638.454 -1.23802 3.52915 0
M  V30 6686 H 640.746 -3.36864 5.87817 0
M  V30 6687 H 641.689 -2.12223 6.75549 0
M  V30 6688 H 642.097 -2.50804 5.05725 0
M  V30 6689 N 641.495 -1.56914 -0.146875 0
M  V30 6690 C 642.911 -1.51582 -0.499518 0
M  V30 6691 C 643.111 -0.83535 -1.83369 0
M  V30 6692 O 642.167 -0.405932 -2.49216 0
M  V30 6693 C 643.48 -2.96349 -0.509711 0
M  V30 6694 C 645.028 -3.07288 -0.595217 0
M  V30 6695 C 645.503 -4.53562 -0.636071 0
M  V30 6696 N 646.994 -4.57906 -0.69829 0
M  V30 6697 C 647.729 -5.68462 -0.750886 0
M  V30 6698 N 647.225 -6.88588 -0.76282 0
M  V30 6699 N 649.018 -5.56496 -0.791777 0
M  V30 6700 H 641.169 -1.99547 0.727656 0
M  V30 6701 H 643.432 -0.910113 0.265327 0
M  V30 6702 H 643.138 -3.4939 0.402409 0
M  V30 6703 H 643.012 -3.52307 -1.34758 0
M  V30 6704 H 645.399 -2.54266 -1.49776 0
M  V30 6705 H 645.48 -2.54373 0.2698 0
M  V30 6706 H 645.124 -5.07222 0.262313 0
M  V30 6707 H 645.054 -5.04259 -1.51758 0
M  V30 6708 H 647.545 -3.71429 -0.696362 0
M  V30 6709 H 647.858 -7.68598 -0.804804 0
M  V30 6710 H 646.203 -6.91148 -0.730694 0
M  V30 6711 H 649.394 -4.61562 -0.779624 0
M  V30 6712 H 649.567 -6.42671 -0.829301 0
M  V30 6713 N 642.974 0.416227 -1.52004 0
M  V30 6714 C 644.22 1.16555 -1.6596 0
M  V30 6715 C 644.553 1.90347 -0.384906 0
M  V30 6716 O 643.828 1.84474 0.616405 0
M  V30 6717 C 644.111 2.1657 -2.87696 0
M  V30 6718 C 643.964 1.46722 -4.25197 0
M  V30 6719 C 645.283 3.17321 -3.04951 0
M  V30 6720 H 642.402 0.422369 -0.603965 0
M  V30 6721 H 645.044 0.452141 -1.84542 0
M  V30 6722 H 643.194 2.77411 -2.71985 0
M  V30 6723 H 644.866 0.89056 -4.52622 0
M  V30 6724 H 643.109 0.769263 -4.26925 0
M  V30 6725 H 643.78 2.19665 -5.0641 0
M  V30 6726 H 646.256 2.66552 -3.19514 0
M  V30 6727 H 645.132 3.84573 -3.91656 0
M  V30 6728 H 645.393 3.84643 -2.17951 0
M  V30 6729 N 644.452 1.42507 0.673017 0
M  V30 6730 C 645.382 1.48916 1.79851 0
M  V30 6731 C 646.363 0.345566 1.66553 0
M  V30 6732 O 647.548 0.560116 1.85947 0
M  V30 6733 C 644.678 1.39258 3.18158 0
M  V30 6734 C 643.632 2.51662 3.46194 0
M  V30 6735 C 642.958 2.27062 4.84094 0
M  V30 6736 C 644.258 3.93968 3.42909 0
M  V30 6737 H 645.952 2.43114 1.74745 0
M  V30 6738 H 643.498 1.17013 0.839288 0
M  V30 6739 H 645.451 1.42349 3.96629 0
M  V30 6740 H 644.175 0.415542 3.23946 0
M  V30 6741 H 642.834 2.47891 2.70084 0
M  V30 6742 H 642.482 1.27648 4.86534 0
M  V30 6743 H 642.182 3.02398 5.03815 0
M  V30 6744 H 643.706 2.31905 5.64847 0
M  V30 6745 H 645.12 3.99332 4.11347 0
M  V30 6746 H 643.517 4.6917 3.74165 0
M  V30 6747 H 644.587 4.20512 2.41449 0
M  V30 6748 N 645.93 -0.909495 1.28709 0
M  V30 6749 C 647.346 -1.18862 1.06508 0
M  V30 6750 C 647.546 -2.00604 -0.189864 0
M  V30 6751 O 646.602 -2.36281 -0.890355 0
M  V30 6752 C 647.915 -1.91908 2.31499 0
M  V30 6753 C 649.463 -2.04773 2.36721 0
M  V30 6754 C 649.938 -2.81228 3.6149 0
M  V30 6755 N 651.429 -2.88787 3.62155 0
M  V30 6756 C 652.164 -3.48455 4.55375 0
M  V30 6757 N 651.66 -4.09369 5.58918 0
M  V30 6758 N 653.453 -3.46035 4.42963 0
M  V30 6759 H 645.604 -0.363867 2.0926 0
M  V30 6760 H 647.867 -0.223649 0.921241 0
M  V30 6761 H 647.573 -1.39275 3.22948 0
M  V30 6762 H 647.447 -2.92436 2.38245 0
M  V30 6763 H 649.834 -2.56585 1.45767 0
M  V30 6764 H 649.915 -1.03408 2.33967 0
M  V30 6765 H 649.559 -2.30094 4.5279 0
M  V30 6766 H 649.489 -3.82917 3.61499 0
M  V30 6767 H 651.98 -2.45514 2.87283 0
M  V30 6768 H 652.293 -4.52891 6.26187 0
M  V30 6769 H 650.638 -4.0786 5.62739 0
M  V30 6770 H 653.829 -2.9766 3.6127 0
M  V30 6771 H 654.002 -3.92244 5.15799 0
M  V30 6772 N 647.408 -1.11026 -1.11852 0
M  V30 6773 C 648.655 -0.85646 -1.83497 0
M  V30 6774 C 648.983 0.617938 -1.84423 0
M  V30 6775 O 648.238 1.47194 -1.28966 0
M  V30 6776 C 648.537 -1.35777 -3.30604 0
M  V30 6777 C 648.203 -2.84465 -3.49843 0
M  V30 6778 C 646.865 -3.25068 -3.54802 0
M  V30 6779 C 649.217 -3.80251 -3.56453 0
M  V30 6780 C 646.545 -4.60194 -3.63921 0
M  V30 6781 C 648.897 -5.15188 -3.67102 0
M  V30 6782 C 647.561 -5.55356 -3.70319 0
M  V30 6783 H 646.831 -0.313401 -0.671462 0
M  V30 6784 H 649.478 -1.38792 -1.31943 0
M  V30 6785 H 647.783 -0.746455 -3.84624 0
M  V30 6786 H 649.48 -1.13779 -3.8452 0
M  V30 6787 H 646.07 -2.52054 -3.46651 0
M  V30 6788 H 650.254 -3.49986 -3.51886 0
M  V30 6789 H 645.51 -4.90728 -3.64686 0
M  V30 6790 H 649.684 -5.89248 -3.71159 0
M  V30 6791 H 647.311 -6.60054 -3.77138 0
M  V30 6792 N 648.886 1.2938 -0.899927 0
M  V30 6793 C 649.816 2.30144 -0.39446 0
M  V30 6794 C 650.797 1.61611 0.530639 0
M  V30 6795 O 651.982 1.89119 0.441319 0
M  V30 6796 C 649.112 3.45229 0.37868 0
M  V30 6797 C 648.066 4.25564 -0.456012 0
M  V30 6798 C 647.392 5.32848 0.444637 0
M  V30 6799 C 648.692 4.93651 -1.70605 0
M  V30 6800 H 650.386 2.72673 -1.23653 0
M  V30 6801 H 647.932 1.31086 -0.596034 0
M  V30 6802 H 649.885 4.14797 0.743037 0
M  V30 6803 H 648.609 3.01545 1.25453 0
M  V30 6804 H 647.268 3.57704 -0.802704 0
M  V30 6805 H 646.916 4.85408 1.31863 0
M  V30 6806 H 646.616 5.87497 -0.110154 0
M  V30 6807 H 648.14 6.05268 0.805182 0
M  V30 6808 H 649.554 5.55655 -1.41141 0
M  V30 6809 H 647.951 5.58233 -2.20217 0
M  V30 6810 H 649.021 4.18926 -2.4419 0
M  V30 6811 N 650.364 0.662433 1.43002 0
M  V30 6812 C 651.274 -0.0239199 2.34588 0
M  V30 6813 C 652.29 -0.802255 1.54402 0
M  V30 6814 O 653.466 -0.747401 1.87018 0
M  V30 6815 C 650.531 -0.972098 3.32793 0
M  V30 6816 C 649.592 -0.189673 4.28881 0
M  V30 6817 C 648.825 -1.09269 5.22395 0
M  V30 6818 O 649.048 -2.33209 5.20547 0
M  V30 6819 O 647.982 -0.560136 5.99288 0
M  V30 6820 H 651.808 0.730171 2.94792 0
M  V30 6821 H 649.393 0.422635 1.43297 0
M  V30 6822 H 651.275 -1.51676 3.93157 0
M  V30 6823 H 649.95 -1.70626 2.75079 0
M  V30 6824 H 648.857 0.398794 3.71968 0
M  V30 6825 H 650.19 0.50511 4.89601 0
M  V30 6826 N 651.842 -1.52309 0.404946 0
M  V30 6827 C 652.79 -2.28452 -0.437321 0
M  V30 6828 C 653.784 -1.32975 -1.04948 0
M  V30 6829 O 654.99 -1.50451 -0.988159 0
M  V30 6830 H 651.365 -0.734824 -0.159805 0
M  V30 6831 H 653.336 -2.97542 0.22615 0
M  V30 6832 C 652.085 -3.11536 -1.54404 0
M  V30 6833 H 651.408 -3.84871 -1.08233 0
M  V30 6834 H 652.848 -3.67926 -2.10729 0
M  V30 6835 C 651.307 -2.24833 -2.50902 0
M  V30 6836 O 651.837 -1.88574 -3.54687 0
M  V30 6837 N 650.043 -1.88685 -2.21012 0
M  V30 6838 H 649.59 -2.18371 -1.36646 0
M  V30 6839 H 649.548 -1.30966 -2.85824 0
M  V30 6840 N 653.32 -0.135238 -1.57019 0
M  V30 6841 C 654.569 0.518694 -1.94917 0
M  V30 6842 C 654.882 1.66783 -1.0219 0
M  V30 6843 O 656.088 2.38561 -1.29619 0
M  V30 6844 C 654.544 0.974123 -3.46466 0
M  V30 6845 C 654.152 -0.147439 -4.47757 0
M  V30 6846 C 655.896 1.59851 -3.93253 0
M  V30 6847 C 653.803 0.325599 -5.90503 0
M  V30 6848 H 652.733 0.19754 -0.727663 0
M  V30 6849 H 655.384 -0.217698 -1.82204 0
M  V30 6850 H 653.766 1.76542 -3.5447 0
M  V30 6851 H 654.94 -0.924122 -4.51438 0
M  V30 6852 H 653.255 -0.679496 -4.10818 0
M  V30 6853 H 655.852 1.96385 -4.9733 0
M  V30 6854 H 656.195 2.48306 -3.3414 0
M  V30 6855 H 656.728 0.872323 -3.88118 0
M  V30 6856 H 653.467 -0.523295 -6.53408 0
M  V30 6857 H 652.987 1.06841 -5.90208 0
M  V30 6858 H 654.666 0.781498 -6.42263 0
M  V30 6859 N 654.798 1.5699 0.138552 0
M  V30 6860 C 656.038 1.85619 0.855849 0
M  V30 6861 C 656.402 0.720663 1.77962 0
M  V30 6862 O 657.603 0.888221 2.53701 0
M  V30 6863 C 655.874 3.19447 1.60275 0
M  V30 6864 S 657.433 3.69656 2.36431 0
M  V30 6865 H 654.251 0.650926 0.286035 0
M  V30 6866 H 656.853 1.9516 0.115331 0
M  V30 6867 H 655.557 4.00053 0.915737 0
M  V30 6868 H 655.088 3.12935 2.38402 0
M  V30 6869 H 657.103 3.39595 3.61787 0
M  V30 6870 N 656.276 -0.40816 1.52223 0
M  V30 6871 C 657.206 -1.5042 1.78595 0
M  V30 6872 C 658.187 -1.57723 0.636974 0
M  V30 6873 O 659.372 -1.72982 0.882664 0
M  V30 6874 C 656.502 -2.88232 1.93751 0
M  V30 6875 C 655.456 -2.95779 3.09352 0
M  V30 6876 C 654.782 -4.35855 3.09732 0
M  V30 6877 C 656.082 -2.67175 4.48793 0
M  V30 6878 H 657.776 -1.28601 2.70374 0
M  V30 6879 H 655.322 -0.617221 1.30101 0
M  V30 6880 H 657.275 -3.64895 2.10783 0
M  V30 6881 H 655.999 -3.11347 0.986443 0
M  V30 6882 H 654.658 -2.21561 2.92072 0
M  V30 6883 H 654.306 -4.55981 2.12346 0
M  V30 6884 H 654.006 -4.41829 3.87377 0
M  V30 6885 H 655.53 -5.14451 3.28895 0
M  V30 6886 H 656.944 -3.3356 4.66273 0
M  V30 6887 H 655.341 -2.84523 5.28362 0
M  V30 6888 H 656.411 -1.62609 4.56822 0
M  V30 6889 N 657.755 -1.42862 -0.66545 0
M  V30 6890 C 659.003 -1.43546 -1.42264 0
M  V30 6891 C 659.324 -0.0563116 -1.94919 0
M  V30 6892 O 658.594 0.906568 -1.73661 0
M  V30 6893 H 657.174 -0.528464 -0.527953 0
M  V30 6894 H 659.836 -1.78363 -0.785665 0
M  V30 6895 H 658.932 -2.14079 -2.27105 0
M  V30 6896 N 659.233 0.902656 -1.29189 0
M  V30 6897 C 660.196 1.98797 -1.14071 0
M  V30 6898 C 661.196 1.60615 -0.0770549 0
M  V30 6899 O 662.386 1.71165 -0.323753 0
M  V30 6900 C 659.518 3.32688 -0.743739 0
M  V30 6901 H 660.711 2.13637 -2.10473 0
M  V30 6902 H 658.264 1.08678 -1.12334 0
M  V30 6903 H 658.999 3.23549 0.220554 0
M  V30 6904 H 658.784 3.61765 -1.51223 0
M  V30 6905 H 660.274 4.12337 -0.660935 0
M  V30 6906 N 660.711 1.11618 1.11262 0
M  V30 6907 C 661.936 0.889013 1.8738 0
M  V30 6908 C 662.361 -0.555884 1.79698 0
M  V30 6909 O 661.719 -1.39272 1.16073 0
M  V30 6910 C 661.767 1.35759 3.34069 0
M  V30 6911 O 660.871 0.530499 4.08974 0
M  V30 6912 H 660.212 0.320082 0.581759 0
M  V30 6913 H 662.742 1.48611 1.40627 0
M  V30 6914 H 662.752 1.35291 3.84916 0
M  V30 6915 H 661.427 2.40973 3.38976 0
M  V30 6916 H 660.004 0.601439 3.68018 0
M  V30 6917 N 662.189 -1.289 0.906776 0
M  V30 6918 C 663.152 -2.25777 0.394656 0
M  V30 6919 C 664.152 -1.53621 -0.475119 0
M  V30 6920 O 665.342 -1.71949 -0.279165 0
M  V30 6921 C 662.474 -3.38113 -0.43499 0
M  V30 6922 H 663.667 -2.72592 1.25033 0
M  V30 6923 H 661.22 -1.40463 0.685547 0
M  V30 6924 H 661.955 -2.96648 -1.31036 0
M  V30 6925 H 661.74 -3.91647 0.188334 0
M  V30 6926 H 663.23 -4.10168 -0.784365 0
M  V30 6927 N 663.667 -0.670007 -1.42649 0
M  V30 6928 C 664.913 -0.190568 -2.01903 0
M  V30 6929 C 665.246 1.19817 -1.52832 0
M  V30 6930 O 664.521 1.80342 -0.728485 0
M  V30 6931 C 664.804 -0.21991 -3.59428 0
M  V30 6932 C 664.657 -1.64376 -4.18689 0
M  V30 6933 C 665.976 0.434519 -4.3795 0
M  V30 6934 H 663.095 -0.0707219 -0.733599 0
M  V30 6935 H 665.737 -0.853883 -1.69732 0
M  V30 6936 H 663.887 0.344894 -3.86966 0
M  V30 6937 H 665.559 -2.26044 -4.02122 0
M  V30 6938 H 663.802 -2.18591 -3.747 0
M  V30 6939 H 664.473 -1.61601 -5.27815 0
M  V30 6940 H 666.949 -0.0462156 -4.16074 0
M  V30 6941 H 665.825 0.38333 -5.4756 0
M  V30 6942 H 666.086 1.51135 -4.15464 0
M  V30 6943 N 665.145 1.52092 -0.413018 0
M  V30 6944 C 666.393 2.01456 0.161178 0
M  V30 6945 C 666.714 1.30034 1.45314 0
M  V30 6946 O 665.984 0.427435 1.9118 0
M  V30 6947 H 664.564 0.744376 0.0625526 0
M  V30 6948 H 667.226 1.86974 -0.550151 0
M  V30 6949 H 666.322 3.1008 0.354517 0
M  V30 6950 N 666.623 0.143563 1.56945 0
M  V30 6951 C 667.853 -0.514699 2.00086 0
M  V30 6952 C 668.261 -1.59184 1.0226 0
M  V30 6953 O 667.604 -1.83697 0.0110514 0
M  V30 6954 C 667.666 -1.17778 3.39659 0
M  V30 6955 C 667.33 -0.245657 4.56339 0
M  V30 6956 C 668.327 0.525343 5.17239 0
M  V30 6957 C 666.012 -0.149564 5.02077 0
M  V30 6958 C 668.006 1.37992 6.22284 0
M  V30 6959 C 665.693 0.708621 6.06978 0
M  V30 6960 C 666.691 1.47197 6.6695 0
M  V30 6961 O 666.379 2.31586 7.6982 0
M  V30 6962 H 666.111 -0.138789 0.661599 0
M  V30 6963 H 668.665 0.234098 2.04062 0
M  V30 6964 H 666.895 -1.97415 3.32512 0
M  V30 6965 H 668.584 -1.73542 3.6693 0
M  V30 6966 H 669.35 0.461118 4.82803 0
M  V30 6967 H 665.229 -0.733457 4.55128 0
M  V30 6968 H 668.773 1.97621 6.69023 0
M  V30 6969 H 664.67 0.77415 6.40841 0
M  V30 6970 H 665.438 2.24796 7.87025 0
M  V30 6971 N 668.101 -1.57061 -0.130224 0
M  V30 6972 C 669.517 -1.52103 -0.483413 0
M  V30 6973 C 669.717 -0.854752 -1.82473 0
M  V30 6974 O 668.773 -0.432342 -2.48771 0
M  V30 6975 C 670.086 -2.96872 -0.47825 0
M  V30 6976 C 671.634 -3.07902 -0.562592 0
M  V30 6977 C 672.109 -4.54211 -0.587929 0
M  V30 6978 N 673.6 -4.58621 -0.649684 0
M  V30 6979 C 674.335 -5.69227 -0.690551 0
M  V30 6980 N 673.831 -6.89358 -0.689743 0
M  V30 6981 N 675.624 -5.57304 -0.732708 0
M  V30 6982 H 667.775 -1.98764 0.748779 0
M  V30 6983 H 670.038 -0.907248 0.274965 0
M  V30 6984 H 669.744 -3.48944 0.439444 0
M  V30 6985 H 669.618 -3.53716 -1.31013 0
M  V30 6986 H 672.005 -2.5584 -1.47071 0
M  V30 6987 H 672.086 -2.54073 0.296764 0
M  V30 6988 H 671.73 -5.06915 0.316096 0
M  V30 6989 H 671.66 -5.0584 -1.46401 0
M  V30 6990 H 674.151 -3.72146 -0.656927 0
M  V30 6991 H 674.464 -7.69408 -0.723239 0
M  V30 6992 H 672.809 -6.91884 -0.657347 0
M  V30 6993 H 676 -4.62363 -0.730625 0
M  V30 6994 H 676.173 -6.43515 -0.76109 0
M  V30 6995 N 669.579 0.400081 -1.52437 0
M  V30 6996 C 670.807 1.16768 -1.70801 0
M  V30 6997 C 671.222 1.84036 -0.421462 0
M  V30 6998 O 670.579 1.72242 0.603228 0
M  V30 6999 C 670.63 2.22403 -2.8499 0
M  V30 7000 O 670.351 1.57879 -4.08663 0
M  V30 7001 C 671.852 3.11974 -3.1494 0
M  V30 7002 H 669.072 0.350533 -0.57216 0
M  V30 7003 H 671.616 0.469534 -1.99037 0
M  V30 7004 H 669.771 2.87871 -2.59247 0
M  V30 7005 H 670.185 2.27982 -4.7236 0
M  V30 7006 H 671.659 3.82148 -3.9833 0
M  V30 7007 H 672.136 3.74858 -2.28863 0
M  V30 7008 H 672.742 2.52165 -3.42481 0
M  V30 7009 N 671.057 1.43213 0.657864 0
M  V30 7010 C 671.967 1.50448 1.80007 0
M  V30 7011 C 672.983 0.39191 1.69529 0
M  V30 7012 O 674.159 0.645349 1.90781 0
M  V30 7013 C 671.224 1.42062 3.16258 0
M  V30 7014 C 670.285 2.63951 3.38568 0
M  V30 7015 C 669.518 2.55956 4.68318 0
M  V30 7016 O 669.741 1.60473 5.47361 0
M  V30 7017 O 668.675 3.46378 4.92245 0
M  V30 7018 H 672.501 2.4689 1.76858 0
M  V30 7019 H 670.086 1.25163 0.81576 0
M  V30 7020 H 671.968 1.3981 3.97531 0
M  V30 7021 H 670.643 0.487524 3.20008 0
M  V30 7022 H 669.55 2.71776 2.57077 0
M  V30 7023 H 670.883 3.56217 3.39662 0
M  V30 7024 N 672.536 -0.895792 1.29666 0
M  V30 7025 C 673.761 -1.68528 1.20885 0
M  V30 7026 C 674.186 -1.8673 -0.226595 0
M  V30 7027 O 673.544 -1.39044 -1.16347 0
M  V30 7028 C 673.592 -3.04512 1.93144 0
M  V30 7029 O 672.696 -3.92963 1.25115 0
M  V30 7030 H 672.037 -0.515371 0.418675 0
M  V30 7031 H 674.567 -1.11878 1.71302 0
M  V30 7032 H 674.577 -3.54628 2.0175 0
M  V30 7033 H 673.252 -2.90582 2.97548 0
M  V30 7034 H 671.829 -3.51399 1.24794 0
M  V30 7035 N 674.014 -1.12206 -1.10668 0
M  V30 7036 C 674.947 -0.731468 -2.16159 0
M  V30 7037 C 675.925 0.276216 -1.60237 0
M  V30 7038 O 677.109 0.17074 -1.87725 0
M  V30 7039 C 674.236 -0.0822882 -3.386 0
M  V30 7040 C 673.282 -1.05641 -4.1321 0
M  V30 7041 S 674.115 -2.58281 -4.69096 0
M  V30 7042 C 675.271 -1.94686 -5.94851 0
M  V30 7043 H 675.504 -1.62504 -2.48957 0
M  V30 7044 H 673.037 -0.940906 -1.22419 0
M  V30 7045 H 674.995 0.285896 -4.09503 0
M  V30 7046 H 673.656 0.788358 -3.04046 0
M  V30 7047 H 672.849 -0.549764 -5.00993 0
M  V30 7048 H 672.451 -1.36741 -3.48106 0
M  V30 7049 H 674.743 -1.28815 -6.65141 0
M  V30 7050 H 675.686 -2.80499 -6.50174 0
M  V30 7051 H 676.094 -1.40369 -5.46769 0
M  V30 7052 N 675.492 1.28418 -0.913599 0
M  V30 7053 C 676.442 2.24928 -0.373042 0
M  V30 7054 C 677.426 1.52444 0.514753 0
M  V30 7055 O 678.618 1.73414 0.3545 0
M  V30 7056 C 675.747 3.41124 0.385896 0
M  V30 7057 C 674.833 4.20929 -0.51761 0
M  V30 7058 N 675.224 4.78777 -1.63113 0
M  V30 7059 C 673.522 4.44865 -0.317969 0
M  V30 7060 C 674.223 5.38822 -2.19193 0
M  V30 7061 N 673.199 5.22974 -1.48321 0
M  V30 7062 H 677.001 2.67224 -1.22346 0
M  V30 7063 H 674.515 1.43187 -0.766236 0
M  V30 7064 H 676.512 4.09347 0.789997 0
M  V30 7065 H 675.172 3.00362 1.23341 0
M  V30 7066 H 676.183 4.77148 -2.01372 0
M  V30 7067 H 672.86 4.14614 0.49004 0
M  V30 7068 H 674.25 5.94615 -3.12861 0
M  V30 7069 N 676.97 0.677563 1.42291 0
M  V30 7070 C 678.218 0.200578 2.01102 0
M  V30 7071 C 678.539 -1.19803 1.53858 0
M  V30 7072 O 677.809 -1.80496 0.761439 0
M  V30 7073 H 676.389 0.0711634 0.743603 0
M  V30 7074 H 679.051 0.874691 1.7417 0
M  V30 7075 H 678.147 0.204 3.11433 0
M  V30 7076 N 678.448 -1.51871 0.421078 0
M  V30 7077 C 679.411 -2.25914 -0.386712 0
M  V30 7078 C 680.411 -1.28733 -0.963555 0
M  V30 7079 O 681.601 -1.52579 -0.840556 0
M  V30 7080 C 678.733 -3.03853 -1.54551 0
M  V30 7081 H 679.926 -2.98754 0.261978 0
M  V30 7082 H 677.479 -1.5533 0.173862 0
M  V30 7083 H 678.214 -2.35392 -2.23072 0
M  V30 7084 H 677.999 -3.75215 -1.13824 0
M  V30 7085 H 679.489 -3.59984 -2.11663 0
M  V30 7086 N 679.926 -0.151884 -1.56866 0
M  V30 7087 C 681.174 0.497021 -1.95893 0
M  V30 7088 C 681.495 1.65078 -1.03799 0
M  V30 7089 O 680.765 1.95642 -0.10049 0
M  V30 7090 H 679.345 0.186603 -0.723318 0
M  V30 7091 H 682.007 -0.228525 -1.93556 0
M  V30 7092 H 681.103 0.869933 -2.99731 0
M  V30 7093 N 681.404 1.57128 0.121893 0
M  V30 7094 C 682.629 1.89254 0.848385 0
M  V30 7095 C 683.054 0.743527 1.72781 0
M  V30 7096 O 682.412 -0.306056 1.78698 0
M  V30 7097 C 682.46 3.20113 1.66012 0
M  V30 7098 O 681.564 3.05815 2.76679 0
M  V30 7099 H 680.905 0.621103 0.234793 0
M  V30 7100 H 683.435 2.0433 0.10516 0
M  V30 7101 H 683.445 3.52761 2.04996 0
M  V30 7102 H 682.12 4.03336 1.01452 0
M  V30 7103 H 680.697 2.84627 2.40918 0
M  V30 7104 N 682.882 -0.391992 1.52647 0
M  V30 7105 C 684.293 -0.970064 1.5952 0
M  V30 7106 C 684.644 -1.91059 0.446207 0
M  V30 7107 O 683.769 -2.12062 -0.431125 0
M  V30 7108 C 684.364 -1.76614 2.89125 0
M  V30 7109 C 682.923 -2.29396 2.9842 0
M  V30 7110 C 682.07 -1.09864 2.54608 0
M  V30 7111 H 685.021 -0.171638 1.57769 0
M  V30 7112 H 685.042 -2.62511 2.75442 0
M  V30 7113 H 684.554 -1.08135 3.72731 0
M  V30 7114 H 682.655 -3.01196 2.19344 0
M  V30 7115 H 682.768 -2.59088 4.03002 0
M  V30 7116 H 681.132 -1.45777 2.08857 0
M  V30 7117 H 681.915 -0.429249 3.40606 0
M  V30 7118 N 684.36 -1.4356 -0.65026 0
M  V30 7119 C 685.292 -1.44918 -1.77571 0
M  V30 7120 C 686.305 -0.344925 -1.59104 0
M  V30 7121 O 687.494 -0.609537 -1.6777 0
M  V30 7122 C 684.594 -1.24914 -3.15039 0
M  V30 7123 C 683.767 -2.48232 -3.60138 0
M  V30 7124 C 682.826 -2.23409 -4.76419 0
M  V30 7125 O 681.852 -2.9678 -4.85706 0
M  V30 7126 N 683.054 -1.25259 -5.66825 0
M  V30 7127 H 685.819 -2.41935 -1.76883 0
M  V30 7128 H 683.38 -1.38754 -0.834202 0
M  V30 7129 H 685.372 -1.06185 -3.90521 0
M  V30 7130 H 683.942 -0.363319 -3.10481 0
M  V30 7131 H 683.162 -2.82366 -2.75069 0
M  V30 7132 H 684.45 -3.30296 -3.87017 0
M  V30 7133 H 683.848 -0.646246 -5.61997 0
M  V30 7134 H 682.405 -1.12513 -6.42016 0
M  V30 7135 N 685.838 0.888903 -1.30139 0
M  V30 7136 C 686.801 1.97576 -1.16174 0
M  V30 7137 C 687.801 1.60525 -0.094086 0
M  V30 7138 O 688.991 1.70812 -0.341889 0
M  V30 7139 C 686.123 3.3188 -0.778983 0
M  V30 7140 H 687.316 2.11393 -2.12728 0
M  V30 7141 H 684.869 1.0748 -1.1348 0
M  V30 7142 H 685.604 3.23765 0.186225 0
M  V30 7143 H 685.389 3.60141 -1.55051 0
M  V30 7144 H 686.879 4.11612 -0.704631 0
M  V30 7145 N 687.317 1.12792 1.10072 0
M  V30 7146 C 688.249 0.757003 2.16338 0
M  V30 7147 C 689.262 -0.218144 1.61332 0
M  V30 7148 O 690.451 0.0010727 1.785 0
M  V30 7149 C 687.551 0.100303 3.38752 0
M  V30 7150 C 686.724 1.10586 4.2319 0
M  V30 7151 C 685.783 0.47609 5.24042 0
M  V30 7152 O 684.809 1.13418 5.57786 0
M  V30 7153 N 686.011 -0.754823 5.75572 0
M  V30 7154 H 688.776 1.6714 2.48766 0
M  V30 7155 H 686.337 1.02003 1.25726 0
M  V30 7156 H 688.329 -0.333092 4.03327 0
M  V30 7157 H 686.899 -0.716915 3.04268 0
M  V30 7158 H 686.119 1.71677 3.54853 0
M  V30 7159 H 687.407 1.78571 4.76435 0
M  V30 7160 H 686.805 -1.30838 5.50362 0
M  V30 7161 H 685.362 -1.13098 6.41913 0
M  V30 7162 N 688.795 -1.27931 0.920396 0
M  V30 7163 C 690.211 -1.47085 0.619537 0
M  V30 7164 C 690.411 -1.83463 -0.833291 0
M  V30 7165 O 689.467 -1.94363 -1.61181 0
M  V30 7166 C 690.78 -2.56878 1.56314 0
M  V30 7167 C 692.328 -2.70743 1.57058 0
M  V30 7168 C 692.803 -3.83687 2.50097 0
M  V30 7169 N 694.294 -3.9105 2.48262 0
M  V30 7170 C 695.029 -4.77842 3.16945 0
M  V30 7171 N 694.525 -5.69176 3.94982 0
M  V30 7172 N 696.318 -4.71509 3.06 0
M  V30 7173 H 688.469 -1.02601 1.85975 0
M  V30 7174 H 690.732 -0.511682 0.798051 0
M  V30 7175 H 690.438 -2.36923 2.59923 0
M  V30 7176 H 690.312 -3.54117 1.29928 0
M  V30 7177 H 692.699 -2.90083 0.541832 0
M  V30 7178 H 692.78 -1.74015 1.8749 0
M  V30 7179 H 692.424 -3.65101 3.53077 0
M  V30 7180 H 692.354 -4.79827 2.16964 0
M  V30 7181 H 694.845 -3.25738 1.91581 0
M  V30 7182 H 695.158 -6.32245 4.44394 0
M  V30 7183 H 693.503 -5.68995 3.99086 0
M  V30 7184 H 696.694 -3.99151 2.44533 0
M  V30 7185 H 696.867 -5.38933 3.59799 0
M  V30 7186 N 690.273 -0.685099 -1.4193 0
M  V30 7187 C 691.522 -0.208816 -2.00616 0
M  V30 7188 C 691.835 1.19506 -1.54847 0
M  V30 7189 O 693.041 1.76826 -2.06021 0
M  V30 7190 C 691.497 -0.322446 -3.58453 0
M  V30 7191 C 691.105 -1.73102 -4.13206 0
M  V30 7192 C 692.849 0.0945979 -4.24395 0
M  V30 7193 C 690.756 -1.79687 -5.63442 0
M  V30 7194 H 689.686 -0.0743092 -0.750329 0
M  V30 7195 H 692.337 -0.851778 -1.62533 0
M  V30 7196 H 690.719 0.388588 -3.94089 0
M  V30 7197 H 691.893 -2.46997 -3.8901 0
M  V30 7198 H 690.208 -2.09682 -3.59753 0
M  V30 7199 H 692.805 0.0656937 -5.3466 0
M  V30 7200 H 693.148 1.1316 -4.00625 0
M  V30 7201 H 693.681 -0.56579 -3.93756 0
M  V30 7202 H 690.42 -2.81404 -5.92024 0
M  V30 7203 H 689.94 -1.10162 -5.89597 0
M  V30 7204 H 691.619 -1.55498 -6.28036 0
M  V30 7205 N 691.751 1.51645 -0.429126 0
M  V30 7206 C 692.684 2.24083 0.431492 0
M  V30 7207 C 693.662 1.25691 1.03153 0
M  V30 7208 O 694.846 1.54802 1.07557 0
M  V30 7209 C 691.973 2.9849 1.60067 0
M  V30 7210 C 691.019 4.11474 1.12211 0
M  V30 7211 S 691.852 5.35453 0.0708449 0
M  V30 7212 C 693.008 6.13395 1.24488 0
M  V30 7213 H 693.241 2.96733 -0.183525 0
M  V30 7214 H 690.774 1.52916 -0.213574 0
M  V30 7215 H 692.732 3.4196 2.27099 0
M  V30 7216 H 691.393 2.25445 2.18708 0
M  V30 7217 H 690.586 4.62784 1.99618 0
M  V30 7218 H 690.188 3.70223 0.530149 0
M  V30 7219 H 692.48 6.41984 2.16479 0
M  V30 7220 H 693.423 7.0388 0.771921 0
M  V30 7221 H 693.831 5.44761 1.47973 0
M  V30 7222 N 693.229 0.160201 1.56784 0
M  V30 7223 C 694.478 -0.487619 1.95717 0
M  V30 7224 C 694.791 -1.65136 1.0483 0
M  V30 7225 O 695.997 -2.36468 1.33398 0
M  V30 7226 C 694.453 -0.91888 3.47972 0
M  V30 7227 C 694.061 0.218655 4.47466 0
M  V30 7228 C 695.805 -1.53575 3.95746 0
M  V30 7229 C 693.712 -0.231614 5.90946 0
M  V30 7230 H 692.642 -0.185939 0.730714 0
M  V30 7231 H 695.293 0.246657 1.81835 0
M  V30 7232 H 693.675 -1.70881 3.57234 0
M  V30 7233 H 694.849 0.995825 4.49911 0
M  V30 7234 H 693.164 0.744767 4.09685 0
M  V30 7235 H 695.761 -1.88448 5.00391 0
M  V30 7236 H 696.104 -2.42959 3.38048 0
M  V30 7237 H 696.637 -0.810467 3.89456 0
M  V30 7238 H 693.376 0.62718 6.52493 0
M  V30 7239 H 692.896 -0.974379 5.91833 0
M  V30 7240 H 694.575 -0.67922 6.43425 0
M  V30 7241 N 694.707 -1.5719 -0.113559 0
M  V30 7242 C 695.67 -1.99796 -1.12314 0
M  V30 7243 C 696.67 -0.888847 -1.34001 0
M  V30 7244 O 697.86 -1.15476 -1.30426 0
M  V30 7245 C 694.992 -2.34279 -2.47641 0
M  V30 7246 H 696.185 -2.90193 -0.756825 0
M  V30 7247 H 693.738 -1.52144 -0.358029 0
M  V30 7248 H 694.473 -1.46778 -2.89183 0
M  V30 7249 H 694.258 -3.15175 -2.33253 0
M  V30 7250 H 695.748 -2.67963 -3.2029 0
M  V30 7251 N 696.185 0.383891 -1.52853 0
M  V30 7252 C 697.601 0.724316 -1.42218 0
M  V30 7253 C 697.801 1.93943 -0.546654 0
M  V30 7254 O 696.857 2.5249 -0.0220562 0
M  V30 7255 C 698.17 0.954635 -2.85144 0
M  V30 7256 C 699.718 1.05579 -2.94656 0
M  V30 7257 C 700.193 1.3187 -4.38605 0
M  V30 7258 N 701.684 1.38681 -4.41952 0
M  V30 7259 C 702.419 1.60699 -5.50421 0
M  V30 7260 N 701.915 1.80154 -6.68967 0
M  V30 7261 N 703.708 1.6292 -5.37972 0
M  V30 7262 H 695.859 -0.4156 -2.08294 0
M  V30 7263 H 698.122 -0.123776 -0.939885 0
M  V30 7264 H 697.828 0.133829 -3.51445 0
M  V30 7265 H 697.702 1.86788 -3.27704 0
M  V30 7266 H 700.089 1.86716 -2.2852 0
M  V30 7267 H 700.17 0.120338 -2.55517 0
M  V30 7268 H 699.814 0.512416 -5.05309 0
M  V30 7269 H 699.744 2.26708 -4.75301 0
M  V30 7270 H 702.235 1.25334 -3.56511 0
M  V30 7271 H 702.548 1.96476 -7.47407 0
M  V30 7272 H 700.893 1.77368 -6.71986 0
M  V30 7273 H 704.084 1.47276 -4.44328 0
M  V30 7274 H 704.257 1.79739 -6.22574 0
M  V30 7275 N 697.663 1.43903 0.642637 0
M  V30 7276 C 698.595 1.45857 1.768 0
M  V30 7277 C 699.608 0.353358 1.58919 0
M  V30 7278 O 700.797 0.618426 1.67445 0
M  V30 7279 C 697.897 1.26583 3.14372 0
M  V30 7280 C 697.07 2.50139 3.58817 0
M  V30 7281 C 696.129 2.25933 4.75227 0
M  V30 7282 O 695.155 2.99351 4.84125 0
M  V30 7283 N 696.357 1.28263 5.66153 0
M  V30 7284 H 699.122 2.42869 1.75598 0
M  V30 7285 H 696.683 1.39194 0.826832 0
M  V30 7286 H 698.675 1.08255 3.89953 0
M  V30 7287 H 697.245 0.37978 3.10284 0
M  V30 7288 H 696.465 2.83821 2.73568 0
M  V30 7289 H 697.753 3.32344 3.8526 0
M  V30 7290 H 697.151 0.676041 5.61646 0
M  V30 7291 H 695.708 1.15916 6.4141 0
M  V30 7292 N 699.141 -0.881989 1.30609 0
M  V30 7293 C 700.389 -1.63082 1.19368 0
M  V30 7294 C 700.71 -1.93376 -0.251147 0
M  V30 7295 O 699.98 -1.5723 -1.16857 0
M  V30 7296 H 698.56 -0.604542 0.438791 0
M  V30 7297 H 701.222 -1.05658 1.63776 0
M  V30 7298 H 700.318 -2.57966 1.7567 0
M  V30 7299 N 700.619 -1.13374 -1.09472 0
M  V30 7300 C 701.567 -0.806105 -2.18185 0
M  V30 7301 C 702.561 0.21136 -1.68076 0
M  V30 7302 O 703.767 0.0685558 -1.79869 0
M  V30 7303 H 700.142 -0.242901 -0.71169 0
M  V30 7304 H 702.113 -1.73115 -2.43051 0
M  V30 7305 C 700.862 -0.287928 -3.46506 0
M  V30 7306 H 700.185 -1.06217 -3.85432 0
M  V30 7307 H 701.625 -0.0971054 -4.23889 0
M  V30 7308 C 700.084 0.986256 -3.22141 0
M  V30 7309 O 700.614 2.06217 -3.44728 0
M  V30 7310 N 698.82 0.917153 -2.75747 0
M  V30 7311 H 698.367 0.0414609 -2.57567 0
M  V30 7312 H 698.325 1.77029 -2.59823 0
M  V30 7313 N 702.098 1.27442 -0.927168 0
M  V30 7314 C 703.347 1.93679 -0.563146 0
M  V30 7315 C 703.66 1.73673 0.899837 0
M  V30 7316 O 704.866 2.34247 1.37262 0
M  V30 7317 C 703.322 3.46961 -0.95636 0
M  V30 7318 C 702.93 3.75724 -2.43999 0
M  V30 7319 C 704.674 4.19282 -0.663565 0
M  V30 7320 C 702.581 5.22378 -2.77263 0
M  V30 7321 H 701.511 0.725059 -0.206894 0
M  V30 7322 H 704.162 1.44743 -1.12791 0
M  V30 7323 H 702.544 3.94703 -0.320254 0
M  V30 7324 H 703.718 3.38741 -3.12396 0
M  V30 7325 H 702.033 3.16605 -2.70463 0
M  V30 7326 H 704.63 5.27265 -0.888596 0
M  V30 7327 H 704.973 4.14382 0.399198 0
M  V30 7328 H 705.506 3.7736 -1.25875 0
M  V30 7329 H 702.245 5.32367 -3.82446 0
M  V30 7330 H 701.765 5.6051 -2.13516 0
M  V30 7331 H 703.444 5.9025 -2.64979 0
M  V30 7332 N 703.576 0.692616 1.41565 0
M  V30 7333 C 704.524 0.0139952 2.32596 0
M  V30 7334 C 705.518 -0.771691 1.50802 0
M  V30 7335 O 706.724 -0.677646 1.66757 0
M  V30 7336 H 703.099 -0.0142745 0.751865 0
M  V30 7337 H 705.07 0.798851 2.87508 0
M  V30 7338 C 703.819 -0.910602 3.35564 0
M  V30 7339 H 703.142 -0.315446 3.98554 0
M  V30 7340 H 704.582 -1.3538 4.01806 0
M  V30 7341 C 703.041 -2.02539 2.6922 0
M  V30 7342 O 703.571 -3.11386 2.53775 0
M  V30 7343 N 701.777 -1.80227 2.27962 0
M  V30 7344 H 701.324 -0.917054 2.40724 0
M  V30 7345 H 701.282 -2.55001 1.83907 0
M  V30 7346 N 705.054 -1.51416 0.437162 0
M  V30 7347 C 706.017 -2.26312 -0.362729 0
M  V30 7348 C 707.017 -1.29748 -0.949847 0
M  V30 7349 O 708.207 -1.53462 -0.824325 0
M  V30 7350 C 705.339 -3.05475 -1.5132 0
M  V30 7351 H 706.532 -2.98459 0.29365 0
M  V30 7352 H 704.085 -1.55137 0.190327 0
M  V30 7353 H 704.82 -2.37744 -2.20563 0
M  V30 7354 H 704.605 -3.76401 -1.09838 0
M  V30 7355 H 706.095 -3.62209 -2.07833 0
M  V30 7356 N 706.532 -0.168513 -1.56696 0
M  V30 7357 C 707.479 0.762875 -2.17828 0
M  V30 7358 C 708.449 1.22892 -1.11745 0
M  V30 7359 O 709.634 1.29759 -1.39883 0
M  V30 7360 C 706.774 1.9879 -2.82093 0
M  V30 7361 C 705.887 1.56568 -4.02629 0
M  V30 7362 C 705.022 2.74416 -4.54829 0
M  V30 7363 C 704.061 2.28671 -5.67782 0
M  V30 7364 N 703.198 3.39602 -6.14504 0
M  V30 7365 H 708.038 0.23479 -2.97074 0
M  V30 7366 H 705.575 0.104163 -1.46731 0
M  V30 7367 H 707.533 2.70636 -3.17509 0
M  V30 7368 H 706.163 2.48973 -2.05456 0
M  V30 7369 H 705.215 0.744067 -3.73052 0
M  V30 7370 H 706.527 1.18988 -4.844 0
M  V30 7371 H 705.681 3.54423 -4.92412 0
M  V30 7372 H 704.42 3.15254 -3.7211 0
M  V30 7373 H 703.425 1.4711 -5.29753 0
M  V30 7374 H 704.65 1.88894 -6.52301 0
M  V30 7375 H 702.596 3.80021 -5.34715 0
M  V30 7376 H 702.513 3.06105 -6.91257 0
M  V30 7377 H 703.781 4.19902 -6.56737 0
M  V30 7378 N 708.01 1.57248 0.105221 0
M  V30 7379 C 708.957 2.01338 1.12835 0
M  V30 7380 C 709.927 0.887897 1.40377 0
M  V30 7381 O 711.112 1.15315 1.5201 0
M  V30 7382 C 708.252 2.43432 2.44611 0
M  V30 7383 C 707.365 3.69457 2.23888 0
M  V30 7384 C 706.5 4.00473 3.48991 0
M  V30 7385 C 705.539 5.19638 3.23485 0
M  V30 7386 N 704.676 5.46457 4.40828 0
M  V30 7387 H 709.516 2.88527 0.745386 0
M  V30 7388 H 707.053 1.42714 0.356535 0
M  V30 7389 H 709.011 2.65879 3.21503 0
M  V30 7390 H 707.641 1.59266 2.80774 0
M  V30 7391 H 706.693 3.54545 1.37847 0
M  V30 7392 H 708.005 4.56497 2.01026 0
M  V30 7393 H 707.159 4.23642 4.34295 0
M  V30 7394 H 705.898 3.11935 3.74897 0
M  V30 7395 H 704.903 4.96299 2.36574 0
M  V30 7396 H 706.128 6.09766 2.98935 0
M  V30 7397 H 704.074 4.60876 4.66829 0
M  V30 7398 H 703.991 6.27849 4.2112 0
M  V30 7399 H 705.259 5.74155 5.27225 0
M  V30 7400 N 709.488 -0.375779 1.53054 0
M  V30 7401 C 710.398 -1.48381 1.81715 0
M  V30 7402 C 711.414 -1.59087 0.704795 0
M  V30 7403 O 712.59 -1.75174 0.993785 0
M  V30 7404 C 709.655 -2.83767 1.99192 0
M  V30 7405 C 708.716 -2.82673 3.23102 0
M  V30 7406 C 707.949 -4.11601 3.39736 0
M  V30 7407 O 708.172 -5.07243 2.60885 0
M  V30 7408 O 707.106 -4.18034 4.33049 0
M  V30 7409 H 710.932 -1.27089 2.7583 0
M  V30 7410 H 708.517 -0.564902 1.38308 0
M  V30 7411 H 710.399 -3.64004 2.12318 0
M  V30 7412 H 709.074 -3.05057 1.08267 0
M  V30 7413 H 707.981 -2.0117 3.15407 0
M  V30 7414 H 709.314 -2.66335 4.13916 0
M  V30 7415 N 710.966 -1.44241 -0.634997 0
M  V30 7416 C 711.896 -1.53632 -1.7584 0
M  V30 7417 C 712.877 -0.389603 -1.65578 0
M  V30 7418 O 714.062 -0.609219 -1.84397 0
M  V30 7419 C 711.192 -1.47644 -3.14354 0
M  V30 7420 C 710.146 -2.60752 -3.394 0
M  V30 7421 C 709.472 -2.39817 -4.77904 0
M  V30 7422 C 710.772 -4.02921 -3.32343 0
M  V30 7423 H 712.466 -2.47662 -1.68238 0
M  V30 7424 H 710.012 -1.19197 -0.807969 0
M  V30 7425 H 711.965 -1.52815 -3.92716 0
M  V30 7426 H 710.689 -0.501284 -3.2273 0
M  V30 7427 H 709.348 -2.54965 -2.63417 0
M  V30 7428 H 708.996 -1.40502 -4.82978 0
M  V30 7429 H 708.696 -3.15649 -4.9562 0
M  V30 7430 H 710.22 -2.46799 -5.585 0
M  V30 7431 H 711.634 -4.10098 -4.00615 0
M  V30 7432 H 710.031 -4.78925 -3.61595 0
M  V30 7433 H 711.101 -4.26766 -2.30215 0
M  V30 7434 N 712.444 0.87505 -1.31075 0
M  V30 7435 C 713.407 1.96333 -1.18263 0
M  V30 7436 C 714.407 1.60416 -0.111106 0
M  V30 7437 O 715.597 1.7044 -0.359987 0
M  V30 7438 C 712.729 3.31036 -0.81414 0
M  V30 7439 H 713.922 2.09125 -2.14958 0
M  V30 7440 H 711.475 1.06271 -1.14614 0
M  V30 7441 H 712.21 3.23944 0.151875 0
M  V30 7442 H 711.995 3.58476 -1.58862 0
M  V30 7443 H 713.485 4.10842 -0.748249 0
M  V30 7444 N 713.922 1.13953 1.08869 0
M  V30 7445 C 714.869 0.82213 2.15661 0
M  V30 7446 C 715.839 -0.218274 1.6466 0
M  V30 7447 O 717.024 -0.0892475 1.90591 0
M  V30 7448 C 714.164 0.300572 3.43789 0
M  V30 7449 C 713.277 1.40071 4.08661 0
M  V30 7450 C 712.412 0.836897 5.24566 0
M  V30 7451 C 711.451 1.91504 5.81371 0
M  V30 7452 N 710.588 1.36875 6.88629 0
M  V30 7453 H 715.428 1.73683 2.42153 0
M  V30 7454 H 712.965 0.866879 1.18843 0
M  V30 7455 H 714.923 -0.0199943 4.17195 0
M  V30 7456 H 713.553 -0.577248 3.17597 0
M  V30 7457 H 712.605 1.83776 3.33062 0
M  V30 7458 H 713.917 2.21534 4.46905 0
M  V30 7459 H 713.071 0.467953 6.04893 0
M  V30 7460 H 711.81 -0.00874207 4.87699 0
M  V30 7461 H 710.815 2.29299 4.99702 0
M  V30 7462 H 712.04 2.76419 6.20298 0
M  V30 7463 H 709.986 0.545211 6.5373 0
M  V30 7464 H 709.903 2.1198 7.25672 0
M  V30 7465 H 711.171 1.02756 7.72698 0
M  V30 7466 N 715.4 -1.26948 0.933913 0
M  V30 7467 C 716.363 -2.24889 0.442457 0
M  V30 7468 C 717.363 -1.54594 -0.442426 0
M  V30 7469 O 718.553 -1.72502 -0.242629 0
M  V30 7470 C 715.685 -3.3896 -0.363173 0
M  V30 7471 H 716.878 -2.69879 1.30787 0
M  V30 7472 H 714.431 -1.38978 0.715187 0
M  V30 7473 H 715.166 -2.99361 -1.24714 0
M  V30 7474 H 714.951 -3.9116 0.271366 0
M  V30 7475 H 716.441 -4.11739 -0.697186 0
M  V30 7476 N 716.879 -0.700114 -1.41195 0
M  V30 7477 C 718.128 -0.230082 -2.00383 0
M  V30 7478 C 718.441 1.17857 -1.56106 0
M  V30 7479 O 719.647 1.74631 -2.07885 0
M  V30 7480 C 718.103 -0.360447 -3.5809 0
M  V30 7481 C 717.711 -1.77475 -4.11347 0
M  V30 7482 C 719.455 0.0495799 -4.24471 0
M  V30 7483 C 717.362 -1.85653 -5.61504 0
M  V30 7484 H 716.292 -0.0822633 -0.749499 0
M  V30 7485 H 718.943 -0.868969 -1.6162 0
M  V30 7486 H 717.325 0.346768 -3.94479 0
M  V30 7487 H 718.499 -2.51109 -3.86369 0
M  V30 7488 H 716.814 -2.13486 -3.57509 0
M  V30 7489 H 719.411 0.00898219 -5.34699 0
M  V30 7490 H 719.754 1.08904 -4.01803 0
M  V30 7491 H 720.287 -0.607521 -3.93134 0
M  V30 7492 H 717.026 -2.87667 -5.89006 0
M  V30 7493 H 716.546 -1.1641 -5.88395 0
M  V30 7494 H 718.225 -1.62151 -6.26351 0
M  V30 7495 N 718.357 1.51182 -0.445186 0
M  V30 7496 C 719.32 2.26501 0.350722 0
M  V30 7497 C 720.32 1.3025 0.942952 0
M  V30 7498 O 721.51 1.53897 0.816175 0
M  V30 7499 C 718.642 3.06274 1.49697 0
M  V30 7500 H 719.835 2.98299 -0.309474 0
M  V30 7501 H 717.388 1.55034 -0.198551 0
M  V30 7502 H 718.123 2.38911 2.19299 0
M  V30 7503 H 717.908 3.76979 1.0784 0
M  V30 7504 H 719.398 3.63306 2.05909 0
M  V30 7505 N 719.835 0.176821 1.56605 0
M  V30 7506 C 721.083 -0.465793 1.96659 0
M  V30 7507 C 721.404 -1.63406 1.06412 0
M  V30 7508 O 720.674 -1.95457 0.131603 0
M  V30 7509 H 719.254 -0.175072 0.726195 0
M  V30 7510 H 721.916 0.25929 1.93168 0
M  V30 7511 H 721.012 -0.822138 3.01077 0
M  V30 7512 N 721.313 -1.57302 -0.09688 0
M  V30 7513 C 722.562 -1.85183 -0.799388 0
M  V30 7514 C 722.875 -0.765818 -1.79985 0
M  V30 7515 O 724.081 -0.931696 -2.55013 0
M  V30 7516 C 722.537 -3.28399 -1.47249 0
M  V30 7517 C 722.145 -4.45066 -0.511888 0
M  V30 7518 C 723.889 -3.65506 -2.15883 0
M  V30 7519 C 721.796 -5.79315 -1.18948 0
M  V30 7520 H 720.726 -0.690752 -0.302287 0
M  V30 7521 H 723.377 -1.83425 -0.0523104 0
M  V30 7522 H 721.759 -3.24692 -2.26697 0
M  V30 7523 H 722.933 -4.60116 0.250962 0
M  V30 7524 H 721.248 -4.16343 0.0686576 0
M  V30 7525 H 723.845 -4.63087 -2.67309 0
M  V30 7526 H 724.188 -2.94041 -2.94696 0
M  V30 7527 H 724.721 -3.71094 -1.43298 0
M  V30 7528 H 721.46 -6.54007 -0.442198 0
M  V30 7529 H 720.98 -5.68111 -1.9238 0
M  V30 7530 H 722.659 -6.23816 -1.71646 0
M  V30 7531 N 722.791 0.367657 -1.53252 0
M  V30 7532 C 723.738 1.45028 -1.79543 0
M  V30 7533 C 724.708 1.53288 -0.63969 0
M  V30 7534 O 725.893 1.69209 -0.881653 0
M  V30 7535 C 723.033 2.82 -1.98923 0
M  V30 7536 C 722.146 2.82722 -3.26638 0
M  V30 7537 C 721.281 4.11257 -3.36216 0
M  V30 7538 C 720.32 4.06113 -4.57972 0
M  V30 7539 N 719.457 5.26293 -4.64715 0
M  V30 7540 H 724.297 1.21908 -2.71923 0
M  V30 7541 H 721.834 0.591011 -1.34705 0
M  V30 7542 H 723.792 3.61568 -2.08146 0
M  V30 7543 H 722.422 3.03523 -1.09881 0
M  V30 7544 H 721.474 1.95399 -3.26379 0
M  V30 7545 H 722.786 2.74794 -4.16281 0
M  V30 7546 H 721.94 4.99239 -3.44739 0
M  V30 7547 H 720.679 4.21935 -2.44586 0
M  V30 7548 H 719.684 3.16517 -4.49552 0
M  V30 7549 H 720.909 3.97039 -5.50942 0
M  V30 7550 H 718.855 5.37561 -3.75985 0
M  V30 7551 H 718.772 5.20526 -5.4826 0
M  V30 7552 H 720.04 6.16113 -4.77519 0
M  V30 7553 O 724.308 1.53115 0.51363 0
M  V30 7554 H 724.999 1.54476 1.16863 0
M  V30 END ATOM
M  V30 BEGIN BOND
M  V30 END BOND
M  V30 END CTAB
M  END
$$$$
