drugbank_target|P55789 FAD-linked sulfhydryl oxidase ALR (DB03147)
 OpenBabel12092120553D

  0  0  0     0  0            999 V3000
M  V30 BEGIN CTAB
M  V30 COUNTS 3193 3236 0 0 0
M  V30 BEGIN ATOM
M  V30 1 H -0.908 1.98254 -0.117106 0
M  V30 2 N 0 1.576 0 0
M  V30 3 C 0.933 2.03868 1.02534 0
M  V30 4 C 1.911 0.928543 1.3348 0
M  V30 5 O 3.095 1.19667 1.45644 0
M  V30 6 C 0.222 2.43627 2.35294 0
M  V30 7 C -0.732 3.65373 2.2001 0
M  V30 8 S 0.101 5.13292 1.52614 0
M  V30 9 C 1.257 5.56322 2.86805 0
M  V30 10 H 1.49 2.90518 0.631377 0
M  V30 11 H -0.977 1.52953 0.210867 0
M  V30 12 H 0.981 2.67203 3.11629 0
M  V30 13 H -0.358 1.57376 2.7183 0
M  V30 14 H -1.165 3.90944 3.18086 0
M  V30 15 H -1.563 3.418 1.51819 0
M  V30 16 H 0.729 5.58782 3.83104 0
M  V30 17 H 1.672 6.56266 2.65933 0
M  V30 18 H 2.08 4.83886 2.90714 0
M  V30 19 N 1.4781 -0.272755 1.55222 0
M  V30 20 C 2.4411 -1.32041 1.87344 0
M  V30 21 C 3.4411 -1.42342 0.74803 0
M  V30 22 O 4.6311 -1.41488 1.0162 0
M  V30 23 C 1.7631 -2.70173 2.07893 0
M  V30 24 H 2.9561 -1.04789 2.80997 0
M  V30 25 H 0.5091 -0.51083 1.47717 0
M  V30 26 H 1.2441 -3.02605 1.16622 0
M  V30 27 H 1.0291 -2.64082 2.89833 0
M  V30 28 H 2.5191 -3.45869 2.34017 0
M  V30 29 N 2.9562 -1.48159 -0.537278 0
M  V30 30 C 3.9192 -1.61665 -1.62472 0
M  V30 31 C 4.9192 -0.490395 -1.5314 0
M  V30 32 O 6.1092 -0.755998 -1.5694 0
M  V30 33 C 3.2412 -1.57997 -3.02076 0
M  V30 34 H 4.4342 -2.58621 -1.51839 0
M  V30 35 H 1.9872 -1.36647 -0.758771 0
M  V30 36 H 2.7222 -0.624913 -3.18222 0
M  V30 37 H 2.5072 -2.39755 -3.10258 0
M  V30 38 H 3.9972 -1.70627 -3.81151 0
M  V30 39 N 4.4343 0.785586 -1.36625 0
M  V30 40 C 5.8453 1.36101 -1.27803 0
M  V30 41 C 6.1963 1.96035 0.0804875 0
M  V30 42 O 5.3213 1.92834 0.982042 0
M  V30 43 C 5.9163 2.47442 -2.31426 0
M  V30 44 C 4.4753 3.00789 -2.26281 0
M  V30 45 C 3.6223 1.73896 -2.15999 0
M  V30 46 H 6.5733 0.586928 -1.47448 0
M  V30 47 H 6.5943 3.2656 -1.95291 0
M  V30 48 H 6.1063 2.03791 -3.30289 0
M  V30 49 H 4.2073 3.48851 -1.30896 0
M  V30 50 H 4.3203 3.57343 -3.19128 0
M  V30 51 H 2.6843 1.9628 -1.62316 0
M  V30 52 H 3.4673 1.32368 -3.16755 0
M  V30 53 N 5.9124 1.20967 1.01018 0
M  V30 54 C 7.1604 1.02172 1.74371 0
M  V30 55 C 7.4814 -0.446414 1.89821 0
M  V30 56 O 6.7514 -1.32234 1.44537 0
M  V30 57 H 5.3314 0.375066 0.646014 0
M  V30 58 H 7.9934 1.52187 1.21758 0
M  V30 59 H 7.0894 1.48538 2.74487 0
M  V30 60 N 7.3905 -1.2043 1.01659 0
M  V30 61 C 8.3005 -2.2689 0.596484 0
M  V30 62 C 9.3165 -1.70107 -0.36599 0
M  V30 63 O 10.4925 -2.00117 -0.226942 0
M  V30 64 C 7.5575 -3.4665 -0.0586659 0
M  V30 65 C 6.6185 -4.18662 0.949751 0
M  V30 66 C 5.8515 -5.32705 0.32577 0
M  V30 67 O 6.0745 -5.63656 -0.874509 0
M  V30 68 O 5.0085 -5.92803 1.04249 0
M  V30 69 H 8.8345 -2.65041 1.4828 0
M  V30 70 H 6.4195 -1.27048 0.786082 0
M  V30 71 H 8.3015 -4.19256 -0.424564 0
M  V30 72 H 6.9765 -3.10375 -0.91918 0
M  V30 73 H 5.8835 -3.48229 1.36702 0
M  V30 74 H 7.2165 -4.58878 1.78023 0
M  V30 75 N 8.8686 -0.792821 -1.36206 0
M  V30 76 C 10.2846 -0.474903 -1.52371 0
M  V30 77 C 10.4846 1.00622 -1.74578 0
M  V30 78 O 9.5406 1.79162 -1.77924 0
M  V30 79 C 10.8536 -1.3083 -2.70747 0
M  V30 80 C 12.4016 -1.30234 -2.84619 0
M  V30 81 C 12.8766 -2.11956 -4.06004 0
M  V30 82 N 14.3676 -2.09419 -4.13156 0
M  V30 83 C 15.1026 -2.69419 -5.06163 0
M  V30 84 N 14.5986 -3.3829 -6.04592 0
M  V30 85 N 16.3916 -2.59134 -4.98804 0
M  V30 86 H 8.5426 -1.75222 -1.20046 0
M  V30 87 H 10.8056 -0.745024 -0.586211 0
M  V30 88 H 10.5116 -2.35881 -2.6087 0
M  V30 89 H 10.3856 -0.95196 -3.6499 0
M  V30 90 H 12.7726 -0.259748 -2.93955 0
M  V30 91 H 12.8536 -1.69847 -1.91274 0
M  V30 92 H 12.4976 -3.16248 -3.97429 0
M  V30 93 H 12.4276 -1.69711 -4.98503 0
M  V30 94 H 14.9186 -1.59297 -3.42685 0
M  V30 95 H 15.2316 -3.81394 -6.7213 0
M  V30 96 H 13.5766 -3.42393 -6.04807 0
M  V30 97 H 16.7676 -2.04927 -4.20859 0
M  V30 98 H 16.9406 -3.06185 -5.711 0
M  V30 99 N 10.3467 1.47872 -0.545128 0
M  V30 100 C 11.5947 2.02093 -0.016553 0
M  V30 101 C 11.9157 1.42305 1.3332 0
M  V30 102 O 11.1857 0.593853 1.86682 0
M  V30 103 H 9.7657 0.746993 -0.00313038 0
M  V30 104 H 12.4277 1.81414 -0.712397 0
M  V30 105 H 11.5237 3.11996 0.0805422 0
M  V30 106 N 11.8248 0.280983 1.55075 0
M  V30 107 C 13.2408 -0.0729964 1.59433 0
M  V30 108 C 13.4408 -1.5411 1.29817 0
M  V30 109 O 12.4968 -2.29086 1.06187 0
M  V30 110 C 13.8098 0.306921 2.9913 0
M  V30 111 C 15.3578 0.254023 3.11968 0
M  V30 112 C 15.8328 0.608467 4.5394 0
M  V30 113 N 17.3238 0.560241 4.59799 0
M  V30 114 C 18.0588 0.80722 5.6769 0
M  V30 115 N 17.5548 1.11912 6.83701 0
M  V30 116 N 19.3478 0.735623 5.57266 0
M  V30 117 H 11.4988 1.238 1.7259 0
M  V30 118 H 13.7618 0.500547 0.805082 0
M  V30 119 H 13.4678 1.32816 3.25657 0
M  V30 120 H 13.3418 -0.349363 3.75579 0
M  V30 121 H 15.7288 -0.75794 2.852 0
M  V30 122 H 15.8098 0.944649 2.37718 0
M  V30 123 H 15.4538 1.61814 4.81434 0
M  V30 124 H 15.3838 -0.104013 5.26497 0
M  V30 125 H 17.8748 0.329288 3.76463 0
M  V30 126 H 18.1878 1.29409 7.61888 0
M  V30 127 H 16.5328 1.15695 6.85303 0
M  V30 128 H 19.7238 0.491752 4.6551 0
M  V30 129 H 19.8968 0.931482 6.4127 0
M  V30 130 N 13.3029 -1.57598 0.00835791 0
M  V30 131 C 14.5499 -1.90928 -0.674732 0
M  V30 132 C 14.8779 -0.88277 -1.73313 0
M  V30 133 O 14.1329 0.111294 -1.95383 0
M  V30 134 C 14.4319 -3.3101 -1.34787 0
M  V30 135 C 14.0979 -4.48922 -0.421861 0
M  V30 136 C 12.7599 -4.8091 -0.166927 0
M  V30 137 C 15.1119 -5.20755 0.215211 0
M  V30 138 C 12.4399 -5.821 0.733232 0
M  V30 139 C 14.7919 -6.22905 1.1033 0
M  V30 140 C 13.4559 -6.53346 1.36733 0
M  V30 141 H 12.7259 -0.698656 -0.246902 0
M  V30 142 H 15.3729 -1.91387 0.0656779 0
M  V30 143 H 13.6779 -3.26714 -2.16253 0
M  V30 144 H 15.3749 -3.54061 -1.8826 0
M  V30 145 H 11.9649 -4.23934 -0.630729 0
M  V30 146 H 16.1489 -4.9629 0.0312829 0
M  V30 147 H 11.4049 -6.04042 0.945712 0
M  V30 148 H 15.5789 -6.77694 1.60325 0
M  V30 149 H 13.2059 -7.31573 2.06652 0
M  V30 150 N 14.781 0.264519 -1.55364 0
M  V30 151 C 15.731 1.32966 -1.85214 0
M  V30 152 C 16.715 1.44306 -0.711653 0
M  V30 153 O 17.907 1.47844 -0.973192 0
M  V30 154 C 15.036 2.68839 -2.13495 0
M  V30 155 C 14.122 2.61575 -3.33825 0
M  V30 156 N 14.513 2.23933 -4.53528 0
M  V30 157 C 12.811 2.92621 -3.36584 0
M  V30 158 C 13.512 2.26868 -5.35636 0
M  V30 159 N 12.488 2.65677 -4.74254 0
M  V30 160 H 16.29 1.02884 -2.75304 0
M  V30 161 H 13.804 0.473157 -1.55354 0
M  V30 162 H 15.801 3.45685 -2.33039 0
M  V30 163 H 14.461 2.99802 -1.24694 0
M  V30 164 H 15.472 1.95769 -4.79474 0
M  V30 165 H 12.149 3.2824 -2.58002 0
M  V30 166 H 13.539 2.00254 -6.41364 0
M  V30 167 N 16.2591 1.48442 0.529413 0
M  V30 168 C 17.5071 1.56179 1.28267 0
M  V30 169 C 17.8281 0.237721 1.93546 0
M  V30 170 O 17.0981 -0.740779 1.81354 0
M  V30 171 H 15.6781 0.575367 0.476405 0
M  V30 172 H 18.3401 1.84909 0.61602 0
M  V30 173 H 17.4361 2.34312 2.06165 0
M  V30 174 N 17.7372 -0.778329 1.37039 0
M  V30 175 C 18.9852 -1.53361 1.31623 0
M  V30 176 C 19.3062 -1.94739 -0.100831 0
M  V30 177 O 18.5762 -1.65797 -1.04347 0
M  V30 178 H 17.1562 -0.568794 0.484234 0
M  V30 179 H 19.8182 -0.926742 1.71457 0
M  V30 180 H 18.9142 -2.43606 1.95096 0
M  V30 181 N 19.2153 -1.21501 -1.00376 0
M  V30 182 C 20.1633 -0.972442 -2.11297 0
M  V30 183 C 21.1573 0.080731 -1.69208 0
M  V30 184 O 22.3633 -0.0707666 -1.79861 0
M  V30 185 H 18.7383 -0.297218 -0.690772 0
M  V30 186 H 20.7093 -1.91394 -2.28934 0
M  V30 187 C 19.4583 -0.555065 -3.43241 0
M  V30 188 H 18.7813 -1.35709 -3.76062 0
M  V30 189 H 20.2213 -0.424664 -4.21868 0
M  V30 190 C 18.6803 0.734147 -3.28804 0
M  V30 191 O 19.2103 1.78937 -3.59645 0
M  V30 192 N 17.4163 0.701133 -2.82015 0
M  V30 193 H 16.9633 -0.157874 -2.57116 0
M  V30 194 H 16.9213 1.56403 -2.72737 0
M  V30 195 N 20.6934 1.19889 -1.02296 0
M  V30 196 C 21.6234 2.25141 -0.619174 0
M  V30 197 C 22.6044 1.66051 0.368915 0
M  V30 198 O 23.7894 1.92546 0.252941 0
M  V30 199 C 20.9194 3.4728 0.0368783 0
M  V30 200 C 19.8734 4.19005 -0.872865 0
M  V30 201 C 19.1994 5.34637 -0.0822402 0
M  V30 202 C 20.4994 4.74452 -2.18387 0
M  V30 203 H 22.1934 2.59171 -1.49903 0
M  V30 204 H 19.7394 1.24579 -0.722222 0
M  V30 205 H 21.6924 4.20098 0.330958 0
M  V30 206 H 20.4164 3.12433 0.95149 0
M  V30 207 H 19.0754 3.48061 -1.15105 0
M  V30 208 H 18.7234 4.96034 0.83422 0
M  V30 209 H 18.4234 5.83557 -0.688149 0
M  V30 210 H 19.9474 6.10255 0.205238 0
M  V30 211 H 21.3614 5.39055 -1.95172 0
M  V30 212 H 19.7584 5.33834 -2.74119 0
M  V30 213 H 20.8284 3.92844 -2.84257 0
M  V30 214 N 22.1715 0.800033 1.35784 0
M  V30 215 C 23.4185 0.377342 1.98953 0
M  V30 216 C 23.7465 -1.05378 1.6348 0
M  V30 217 O 23.0015 -1.74459 0.886707 0
M  V30 218 C 23.3005 0.500276 3.53881 0
M  V30 219 C 22.9665 1.89375 4.09204 0
M  V30 220 C 21.6285 2.27499 4.24025 0
M  V30 221 C 23.9805 2.8057 4.39238 0
M  V30 222 C 21.3085 3.562 4.66195 0
M  V30 223 C 23.6605 4.0871 4.82844 0
M  V30 224 C 22.3245 4.46843 4.95871 0
M  V30 225 H 21.5945 0.138079 0.728021 0
M  V30 226 H 24.2415 1.01955 1.62103 0
M  V30 227 H 22.5465 -0.225405 3.91151 0
M  V30 228 H 24.2435 0.154097 4.00704 0
M  V30 229 H 20.8335 1.58753 3.98115 0
M  V30 230 H 25.0175 2.52367 4.27346 0
M  V30 231 H 20.2735 3.85602 4.74469 0
M  V30 232 H 24.4475 4.79481 5.05046 0
M  V30 233 H 22.0745 5.46623 5.28306 0
M  V30 234 N 23.6496 -1.47581 0.552962 0
M  V30 235 C 24.8966 -2.02482 0.0273243 0
M  V30 236 C 25.2246 -1.42776 -1.32081 0
M  V30 237 O 24.4796 -0.571393 -1.87173 0
M  V30 238 C 24.7786 -3.57199 -0.119728 0
M  V30 239 C 24.4446 -4.35804 1.15697 0
M  V30 240 C 23.1066 -4.57 1.50681 0
M  V30 241 C 25.4586 -4.81167 2.00319 0
M  V30 242 C 22.7866 -5.20807 2.70142 0
M  V30 243 C 25.1386 -5.46293 3.18978 0
M  V30 244 C 23.8026 -5.65722 3.54281 0
M  V30 245 H 23.0726 -0.740933 0.00999866 0
M  V30 246 H 25.7196 -1.77302 0.72362 0
M  V30 247 H 24.0246 -3.81348 -0.89896 0
M  V30 248 H 25.7216 -3.97324 -0.541718 0
M  V30 249 H 22.3116 -4.19582 0.874561 0
M  V30 250 H 26.4956 -4.64574 1.74599 0
M  V30 251 H 21.7516 -5.34045 2.97668 0
M  V30 252 H 25.9256 -5.80407 3.84838 0
M  V30 253 H 23.5526 -6.14936 4.46942 0
M  V30 254 N 25.1277 -0.289203 -1.54924 0
M  V30 255 C 26.0577 0.58549 -2.2604 0
M  V30 256 C 27.0387 1.14753 -1.25562 0
M  V30 257 O 28.2237 1.17906 -1.54311 0
M  V30 258 C 25.3537 1.76305 -2.99222 0
M  V30 259 C 24.3077 1.33191 -4.06748 0
M  V30 260 C 23.6337 2.5937 -4.6758 0
M  V30 261 C 24.9337 0.471775 -5.20165 0
M  V30 262 H 26.6277 -0.00763532 -2.99399 0
M  V30 263 H 24.1737 -0.00511229 -1.43999 0
M  V30 264 H 26.1267 2.38097 -3.47689 0
M  V30 265 H 24.8507 2.38223 -2.23422 0
M  V30 266 H 23.5097 0.737121 -3.59113 0
M  V30 267 H 23.1577 3.19576 -3.88433 0
M  V30 268 H 22.8577 2.31228 -5.40192 0
M  V30 269 H 24.3817 3.21985 -5.18804 0
M  V30 270 H 25.7957 0.995056 -5.64599 0
M  V30 271 H 24.1927 0.284639 -5.99425 0
M  V30 272 H 25.2627 -0.506041 -4.82252 0
M  V30 273 N 26.6058 1.57591 -0.0167156 0
M  V30 274 C 28.0168 1.79201 0.523834 0
M  V30 275 C 28.3678 0.925796 1.72984 0
M  V30 276 O 27.4928 0.132792 2.15992 0
M  V30 277 C 28.0878 3.25 0.957091 0
M  V30 278 C 26.6468 3.47648 1.44283 0
M  V30 279 C 25.7938 2.74374 0.401757 0
M  V30 280 H 28.7448 1.56831 -0.242816 0
M  V30 281 H 28.7658 3.34031 1.82219 0
M  V30 282 H 28.2778 3.88019 0.0791415 0
M  V30 283 H 26.3788 2.89866 2.34113 0
M  V30 284 H 26.4918 4.56352 1.45877 0
M  V30 285 H 24.8558 2.39485 0.867121 0
M  V30 286 H 25.6388 3.40102 -0.467513 0
M  V30 287 N 28.0839 -0.256276 1.55502 0
M  V30 288 C 29.3319 -0.983672 1.76545 0
M  V30 289 C 29.6529 -1.86206 0.578982 0
M  V30 290 O 28.9229 -1.91656 -0.405577 0
M  V30 291 H 27.5029 -0.366191 0.651086 0
M  V30 292 H 30.1649 -0.276479 1.92929 0
M  V30 293 H 29.2609 -1.61087 2.67315 0
M  V30 294 N 29.562 -1.4872 -0.521534 0
M  V30 295 C 30.81 -1.56857 -1.27437 0
M  V30 296 C 31.131 -0.247982 -1.93417 0
M  V30 297 O 30.401 0.731151 -1.81744 0
M  V30 298 H 28.981 -0.577885 -0.473347 0
M  V30 299 H 31.643 -1.85233 -0.606205 0
M  V30 300 H 30.739 -2.35402 -2.0492 0
M  V30 301 N 31.0401 0.771051 -1.3745 0
M  V30 302 C 32.0031 1.86598 -1.33093 0
M  V30 303 C 33.0031 1.59076 -0.234845 0
M  V30 304 O 34.1931 1.67145 -0.490732 0
M  V30 305 C 31.3251 3.23747 -1.06773 0
M  V30 306 H 32.5181 1.91873 -2.30488 0
M  V30 307 H 30.0711 0.970876 -1.2249 0
M  V30 308 H 30.8061 3.24148 -0.099129 0
M  V30 309 H 30.5911 3.45115 -1.86112 0
M  V30 310 H 32.0811 4.03824 -1.06377 0
M  V30 311 N 32.5182 1.22032 0.997298 0
M  V30 312 C 33.9342 0.979326 1.26021 0
M  V30 313 C 34.1342 -0.32972 1.98784 0
M  V30 314 O 33.1902 -1.05345 2.29475 0
M  V30 315 C 34.5032 2.17509 2.07631 0
M  V30 316 C 36.0512 2.21817 2.2083 0
M  V30 317 C 36.5262 3.40933 3.05825 0
M  V30 318 N 38.0172 3.41067 3.13412 0
M  V30 319 C 38.7522 4.29885 3.79455 0
M  V30 320 N 38.2482 5.28914 4.47462 0
M  V30 321 N 40.0412 4.17673 3.76173 0
M  V30 322 H 32.1922 2.06202 0.509352 0
M  V30 323 H 34.4552 0.90334 0.287541 0
M  V30 324 H 34.1612 3.12415 1.61524 0
M  V30 325 H 34.0352 2.17206 3.08385 0
M  V30 326 H 36.4222 1.27462 2.66153 0
M  V30 327 H 36.5032 2.2616 1.1952 0
M  V30 328 H 36.1472 4.35586 2.61203 0
M  V30 329 H 36.0772 3.33829 4.07266 0
M  V30 330 H 38.5682 2.69406 2.65007 0
M  V30 331 H 38.8812 5.92973 4.95583 0
M  V30 332 H 37.2262 5.32831 4.46224 0
M  V30 333 H 40.4172 3.39564 3.22202 0
M  V30 334 H 40.5902 4.87098 4.27363 0
M  V30 335 N 33.9963 -1.19345 1.0293 0
M  V30 336 C 35.2213 -1.93538 0.745511 0
M  V30 337 C 35.6463 -1.75007 -0.689511 0
M  V30 338 O 35.0043 -1.05265 -1.47611 0
M  V30 339 C 35.0523 -3.43336 1.10239 0
M  V30 340 O 34.1563 -4.11806 0.221289 0
M  V30 341 H 33.4973 -0.604193 0.275404 0
M  V30 342 H 36.0273 -1.5141 1.37609 0
M  V30 343 H 36.0373 -3.94004 1.05947 0
M  V30 344 H 34.7123 -3.56146 2.14786 0
M  V30 345 H 33.2893 -3.715 0.322842 0
M  V30 346 N 35.4744 -0.807222 -1.35358 0
M  V30 347 C 36.3844 -0.219594 -2.3357 0
M  V30 348 C 37.4004 0.637734 -1.61892 0
M  V30 349 O 38.5764 0.549336 -1.93763 0
M  V30 350 C 35.6414 0.62158 -3.41083 0
M  V30 351 C 34.7024 -0.256315 -4.28534 0
M  V30 352 C 33.9354 0.544807 -5.30912 0
M  V30 353 O 34.1584 1.77944 -5.41934 0
M  V30 354 O 33.0924 -0.0646478 -6.01865 0
M  V30 355 H 36.9184 -1.03208 -2.85625 0
M  V30 356 H 34.5034 -0.569025 -1.38139 0
M  V30 357 H 36.3854 1.10067 -4.06772 0
M  V30 358 H 35.0604 1.41165 -2.91297 0
M  V30 359 H 33.9674 -0.782559 -3.65823 0
M  V30 360 H 35.3004 -1.01034 -4.81719 0
M  V30 361 N 36.9525 1.47285 -0.560781 0
M  V30 362 C 37.8855 2.27009 0.232821 0
M  V30 363 C 38.8635 1.34273 0.917039 0
M  V30 364 O 40.0475 1.63659 0.935315 0
M  V30 365 C 37.1745 3.11406 1.33206 0
M  V30 366 C 36.2205 4.19746 0.756019 0
M  V30 367 S 37.0535 5.34003 -0.400165 0
M  V30 368 C 38.2095 6.21964 0.700805 0
M  V30 369 H 38.4425 2.93971 -0.443683 0
M  V30 370 H 35.9755 1.50446 -0.347181 0
M  V30 371 H 37.9335 3.60601 1.96156 0
M  V30 372 H 36.5945 2.438 1.98041 0
M  V30 373 H 35.7875 4.78541 1.5816 0
M  V30 374 H 35.3895 3.73451 0.202619 0
M  V30 375 H 37.6815 6.58529 1.59202 0
M  V30 376 H 38.6245 7.07941 0.150126 0
M  V30 377 H 39.0325 5.5566 0.995083 0
M  V30 378 N 38.4306 0.297415 1.54768 0
M  V30 379 C 39.3636 -0.622188 2.19554 0
M  V30 380 C 40.3416 -1.13558 1.16376 0
M  V30 381 O 41.5256 -1.20444 1.45002 0
M  V30 382 C 38.6526 -1.8509 2.83653 0
M  V30 383 C 37.6986 -1.47106 4.00328 0
M  V30 384 S 38.5316 -0.53006 5.3287 0
M  V30 385 C 39.6876 -1.76665 6.0045 0
M  V30 386 H 39.9206 -0.0717806 2.97213 0
M  V30 387 H 37.4536 0.0815678 1.54184 0
M  V30 388 H 39.4116 -2.55605 3.21211 0
M  V30 389 H 38.0726 -2.37247 2.05846 0
M  V30 390 H 37.2656 -2.38594 4.43947 0
M  V30 391 H 36.8676 -0.845885 3.64309 0
M  V30 392 H 39.1596 -2.7077 6.21039 0
M  V30 393 H 40.1026 -1.37308 6.9466 0
M  V30 394 H 40.5106 -1.94174 5.30054 0
M  V30 395 N 39.9087 -1.5758 0.0250728 0
M  V30 396 C 41.1857 -1.82917 -0.692873 0
M  V30 397 C 41.5657 -0.908137 -1.90568 0
M  V30 398 O 40.9137 0.0372298 -2.2847 0
M  V30 399 C 41.1237 -3.32034 -1.07492 0
M  V30 400 C 42.4717 -3.98406 -1.46826 0
M  V30 401 O 43.4957 -3.36505 -1.16801 0
M  V30 402 O 42.3547 -5.07497 -2.02754 0
M  V30 403 H 39.4487 -0.754079 -0.33955 0
M  V30 404 H 41.9947 -1.69619 0.0524456 0
M  V30 405 H 40.7667 -3.90728 -0.211552 0
M  V30 406 H 40.3897 -3.50424 -1.87854 0
M  V30 407 N 41.3868 0.248026 -1.55636 0
M  V30 408 C 42.6638 0.998988 -1.68165 0
M  V30 409 C 43.0438 2.03409 -0.564621 0
M  V30 410 O 42.3918 2.24378 0.432076 0
M  V30 411 C 42.6018 1.63334 -3.0842 0
M  V30 412 C 43.9498 2.13562 -3.66983 0
M  V30 413 O 44.9738 1.73277 -3.11213 0
M  V30 414 O 43.8328 2.87526 -4.64749 0
M  V30 415 H 40.9268 0.464933 -0.683935 0
M  V30 416 H 43.4728 0.241902 -1.67967 0
M  V30 417 H 42.2448 0.884583 -3.8117 0
M  V30 418 H 41.8678 2.45666 -3.12624 0
M  V30 419 N 42.8649 1.48995 0.513639 0
M  V30 420 C 43.7949 1.67636 1.62544 0
M  V30 421 C 44.7759 0.525087 1.61793 0
M  V30 422 O 45.9609 0.759502 1.78732 0
M  V30 423 C 43.0909 1.73114 3.01079 0
M  V30 424 C 42.0449 2.87905 3.16693 0
M  V30 425 C 41.3709 2.78486 4.56453 0
M  V30 426 C 42.6709 4.29005 2.97913 0
M  V30 427 H 44.3649 2.60716 1.47198 0
M  V30 428 H 41.9109 1.25465 0.706714 0
M  V30 429 H 43.8639 1.84742 3.78746 0
M  V30 430 H 42.5879 0.766241 3.17484 0
M  V30 431 H 41.2469 2.75859 2.41448 0
M  V30 432 H 40.8949 1.7993 4.69717 0
M  V30 433 H 40.5949 3.55523 4.67843 0
M  V30 434 H 42.1189 2.92104 5.36197 0
M  V30 435 H 43.5329 4.41798 3.65359 0
M  V30 436 H 41.9299 5.07166 3.20785 0
M  V30 437 H 42.9999 4.44329 1.94165 0
M  V30 438 N 44.343 -0.763751 1.37857 0
M  V30 439 C 45.306 -1.85889 1.34081 0
M  V30 440 C 46.306 -1.58949 0.243277 0
M  V30 441 O 47.496 -1.66882 0.499589 0
M  V30 442 C 44.628 -3.23176 1.08489 0
M  V30 443 H 45.821 -1.90648 2.31502 0
M  V30 444 H 43.374 -0.964367 1.23003 0
M  V30 445 H 44.109 -3.24091 0.116318 0
M  V30 446 H 43.894 -3.44124 1.8794 0
M  V30 447 H 45.384 -4.03254 1.08517 0
M  V30 448 N 45.8211 -1.22559 -0.990812 0
M  V30 449 C 47.0491 -1.07779 -1.76611 0
M  V30 450 C 47.4641 0.371513 -1.85109 0
M  V30 451 O 46.8211 1.25737 -1.32274 0
M  V30 452 C 46.8721 -1.68512 -3.19822 0
M  V30 453 O 46.5931 -3.07774 -3.1178 0
M  V30 454 C 48.0941 -1.59035 -4.13791 0
M  V30 455 H 45.3141 -0.377729 -0.554583 0
M  V30 456 H 47.8581 -1.62195 -1.24551 0
M  V30 457 H 46.0131 -1.18154 -3.68942 0
M  V30 458 H 46.4271 -3.37062 -4.01858 0
M  V30 459 H 47.9011 -2.0625 -5.1202 0
M  V30 460 H 48.3781 -0.547273 -4.35777 0
M  V30 461 H 48.9841 -2.08709 -3.70568 0
M  V30 462 N 47.2992 1.18797 -1.03562 0
M  V30 463 C 48.5762 1.84469 -0.650434 0
M  V30 464 C 48.9562 1.92319 0.870433 0
M  V30 465 O 48.3042 1.44528 1.76986 0
M  V30 466 C 48.5142 3.2306 -1.32036 0
M  V30 467 C 49.8622 3.9915 -1.44792 0
M  V30 468 O 50.8862 3.32481 -1.27806 0
M  V30 469 O 49.7452 5.18587 -1.72423 0
M  V30 470 H 46.8392 0.795251 -0.226946 0
M  V30 471 H 49.3852 1.26231 -1.13419 0
M  V30 472 H 48.1572 3.1222 -2.3587 0
M  V30 473 H 47.7802 3.88949 -0.8249 0
M  V30 474 N 48.7773 0.814389 1.34928 0
M  V30 475 C 49.7403 0.235759 2.27984 0
M  V30 476 C 50.7403 -0.581412 1.49921 0
M  V30 477 O 51.9303 -0.398758 1.69575 0
M  V30 478 C 49.0623 -0.670433 3.34242 0
M  V30 479 H 50.2553 1.05659 2.80671 0
M  V30 480 H 47.8083 0.585614 1.44915 0
M  V30 481 H 48.5433 -1.51466 2.86755 0
M  V30 482 H 48.3283 -0.0860822 3.92005 0
M  V30 483 H 49.8183 -1.06935 4.03676 0
M  V30 484 N 50.2554 -1.46986 0.568584 0
M  V30 485 C 51.6714 -1.57946 0.229189 0
M  V30 486 C 51.8714 -1.56567 -1.26843 0
M  V30 487 O 50.9274 -1.47511 -2.04931 0
M  V30 488 C 52.2404 -2.87963 0.865909 0
M  V30 489 C 53.7884 -3.01568 0.838188 0
M  V30 490 C 54.2634 -4.34301 1.45419 0
M  V30 491 N 55.7544 -4.40965 1.41788 0
M  V30 492 C 56.4894 -5.42256 1.86403 0
M  V30 493 N 55.9854 -6.50297 2.38926 0
M  V30 494 N 57.7784 -5.3337 1.77405 0
M  V30 495 H 49.9294 -1.46126 1.54146 0
M  V30 496 H 52.1924 -0.696156 0.643484 0
M  V30 497 H 51.8984 -2.94742 1.91886 0
M  V30 498 H 51.7724 -3.75423 0.365687 0
M  V30 499 H 54.1594 -2.94379 -0.206106 0
M  V30 500 H 54.2404 -2.1562 1.37629 0
M  V30 501 H 53.8844 -4.42247 2.49761 0
M  V30 502 H 53.8144 -5.19 0.891435 0
M  V30 503 H 56.3054 -3.63484 1.03381 0
M  V30 504 H 56.6184 -7.23777 2.70863 0
M  V30 505 H 54.9634 -6.51155 2.42944 0
M  V30 506 H 58.1544 -4.47865 1.3614 0
M  V30 507 H 58.3274 -6.12169 2.12492 0
M  V30 508 N 51.7335 -0.305618 -1.54608 0
M  V30 509 C 52.9815 0.301701 -1.99835 0
M  V30 510 C 53.3025 1.54054 -1.19551 0
M  V30 511 O 52.5725 1.93702 -0.292658 0
M  V30 512 H 51.1525 0.114468 -0.738178 0
M  V30 513 H 53.8145 -0.418016 -1.90364 0
M  V30 514 H 52.9105 0.570548 -3.06841 0
M  V30 515 N 53.2116 1.57565 -0.0334293 0
M  V30 516 C 54.6276 1.56297 0.322997 0
M  V30 517 C 54.8276 1.03945 1.7262 0
M  V30 518 O 53.8836 0.688109 2.42943 0
M  V30 519 C 55.1966 3.00232 0.167664 0
M  V30 520 C 56.7446 3.12078 0.240107 0
M  V30 521 C 57.2196 4.57859 0.113513 0
M  V30 522 N 58.7106 4.62887 0.170359 0
M  V30 523 C 59.4456 5.73319 0.0962517 0
M  V30 524 N 58.9416 6.92794 -0.0291881 0
M  V30 525 N 60.7346 5.61898 0.150551 0
M  V30 526 H 52.8856 1.89923 -0.950956 0
M  V30 527 H 55.1486 0.873824 -0.367608 0
M  V30 528 H 54.8546 3.42501 -0.799102 0
M  V30 529 H 54.7286 3.654 0.936083 0
M  V30 530 H 57.1156 2.69718 1.19733 0
M  V30 531 H 57.1966 2.49623 -0.558763 0
M  V30 532 H 56.8406 5.009 -0.840314 0
M  V30 533 H 56.7706 5.18299 0.931302 0
M  V30 534 H 59.2616 3.76954 0.26728 0
M  V30 535 H 59.5746 7.7276 -0.0789252 0
M  V30 536 H 57.9196 6.94971 -0.0640299 0
M  V30 537 H 61.1106 4.67448 0.246981 0
M  V30 538 H 61.2836 6.47938 0.0893365 0
M  V30 539 N 54.6897 -0.239769 1.55765 0
M  V30 540 C 55.9377 -0.964892 1.77579 0
M  V30 541 C 56.2587 -1.85582 0.598699 0
M  V30 542 O 55.5287 -1.92075 -0.385226 0
M  V30 543 H 54.1087 -0.359265 0.654933 0
M  V30 544 H 56.7707 -0.256001 1.93211 0
M  V30 545 H 55.8667 -1.58243 2.69009 0
M  V30 546 N 56.1678 -1.49265 -0.50573 0
M  V30 547 C 57.1308 -1.65075 -1.59006 0
M  V30 548 C 58.1308 -0.522768 -1.52065 0
M  V30 549 O 59.3208 -0.789117 -1.55302 0
M  V30 550 C 56.4528 -1.64369 -2.98656 0
M  V30 551 H 57.6458 -2.61784 -1.46319 0
M  V30 552 H 55.1988 -1.38226 -0.729616 0
M  V30 553 H 55.9338 -0.692272 -3.16825 0
M  V30 554 H 55.7188 -2.46282 -3.05103 0
M  V30 555 H 57.2088 -1.78674 -3.77446 0
M  V30 556 N 57.6459 0.756429 -1.3826 0
M  V30 557 C 58.8939 1.51248 -1.34047 0
M  V30 558 C 59.2149 1.94875 0.0698372 0
M  V30 559 O 58.4849 1.67436 1.01696 0
M  V30 560 H 57.0649 0.561018 -0.493222 0
M  V30 561 H 59.7269 0.899347 -1.7291 0
M  V30 562 H 58.8229 2.40472 -1.98947 0
M  V30 563 N 59.124 1.23083 0.984299 0
M  V30 564 C 60.54 0.992637 1.24975 0
M  V30 565 C 60.74 -0.308618 1.99123 0
M  V30 566 O 59.796 -1.02905 2.30579 0
M  V30 567 C 61.109 2.19698 2.05312 0
M  V30 568 C 62.657 2.24147 2.18465 0
M  V30 569 C 63.132 3.44157 3.02192 0
M  V30 570 N 64.623 3.44372 3.09777 0
M  V30 571 C 65.358 4.33886 3.74874 0
M  V30 572 N 64.854 5.3363 4.41827 0
M  V30 573 N 66.647 4.21639 3.71721 0
M  V30 574 H 58.798 2.06731 0.487453 0
M  V30 575 H 61.061 0.906339 0.277944 0
M  V30 576 H 60.767 3.1411 1.58201 0
M  V30 577 H 60.641 2.20465 3.06064 0
M  V30 578 H 63.028 1.30277 2.64786 0
M  V30 579 H 63.109 2.27415 1.17115 0
M  V30 580 H 62.753 4.38332 2.56568 0
M  V30 581 H 62.683 3.3813 4.03702 0
M  V30 582 H 65.174 2.72201 2.62135 0
M  V30 583 H 65.487 5.98196 4.89266 0
M  V30 584 H 63.832 5.37534 4.40548 0
M  V30 585 H 67.023 3.42962 3.18582 0
M  V30 586 H 67.196 4.91604 4.22173 0
M  V30 587 N 60.6021 -1.18246 1.0419 0
M  V30 588 C 62.0181 -1.40269 0.761366 0
M  V30 589 C 62.2181 -1.90777 -0.648578 0
M  V30 590 O 61.2741 -2.0929 -1.41258 0
M  V30 591 C 62.5871 -2.40237 1.8085 0
M  V30 592 C 64.1351 -2.53961 1.82955 0
M  V30 593 C 64.6101 -3.57194 2.86664 0
M  V30 594 N 66.1011 -3.64702 2.85563 0
M  V30 595 C 66.8361 -4.44309 3.6246 0
M  V30 596 N 66.3321 -5.27514 4.49111 0
M  V30 597 N 68.1251 -4.39084 3.50944 0
M  V30 598 H 60.2761 -0.837882 1.95175 0
M  V30 599 H 62.5391 -0.430608 0.84456 0
M  V30 600 H 62.2451 -2.10176 2.81991 0
M  V30 601 H 62.1191 -3.39601 1.64168 0
M  V30 602 H 64.5061 -2.83338 0.824855 0
M  V30 603 H 64.5871 -1.54706 2.03715 0
M  V30 604 H 64.2311 -3.28558 3.87314 0
M  V30 605 H 64.1611 -4.5613 2.6316 0
M  V30 606 H 66.6521 -3.05289 2.22727 0
M  V30 607 H 66.9651 -5.85411 5.04493 0
M  V30 608 H 65.3101 -5.2693 4.53178 0
M  V30 609 H 68.5011 -3.7313 2.82651 0
M  V30 610 H 68.6741 -5.00883 4.11121 0
M  V30 611 N 62.0802 -0.821533 -1.34494 0
M  V30 612 C 63.3572 -0.33159 -1.92769 0
M  V30 613 C 63.7372 1.18088 -1.74981 0
M  V30 614 O 63.0852 1.98733 -1.12772 0
M  V30 615 C 63.2952 -0.759398 -3.40638 0
M  V30 616 C 64.6432 -0.757433 -4.1779 0
M  V30 617 O 65.6672 -0.70189 -3.49216 0
M  V30 618 O 64.5262 -0.829361 -5.4017 0
M  V30 619 H 61.6202 -0.0902502 -0.822061 0
M  V30 620 H 64.1662 -0.906231 -1.43477 0
M  V30 621 H 62.9382 -1.8012 -3.47379 0
M  V30 622 H 62.5612 -0.160378 -3.97276 0
M  V30 623 N 63.5583 1.46682 -0.576371 0
M  V30 624 C 64.5213 2.28707 0.150239 0
M  V30 625 C 65.5213 1.38035 0.824794 0
M  V30 626 O 66.7113 1.60476 0.677719 0
M  V30 627 C 63.8433 3.18248 1.22192 0
M  V30 628 H 65.0363 2.94423 -0.570521 0
M  V30 629 H 62.5893 1.52688 -0.334078 0
M  V30 630 H 63.3243 2.57265 1.97447 0
M  V30 631 H 63.1093 3.85 0.742812 0
M  V30 632 H 64.5993 3.80001 1.73172 0
M  V30 633 N 65.0364 0.313813 1.54444 0
M  V30 634 C 65.9994 -0.54379 2.22656 0
M  V30 635 C 66.9994 -1.05124 1.21678 0
M  V30 636 O 68.1894 -0.945225 1.46325 0
M  V30 637 C 65.3214 -1.75427 2.92298 0
M  V30 638 H 66.5144 0.0523599 2.99854 0
M  V30 639 H 64.0674 0.0647834 1.56166 0
M  V30 640 H 64.8024 -2.38991 2.19211 0
M  V30 641 H 64.5874 -1.39791 3.66334 0
M  V30 642 H 66.0774 -2.36325 3.44297 0
M  V30 643 N 66.5145 -1.57545 0.0417849 0
M  V30 644 C 67.4775 -2.09885 -0.92093 0
M  V30 645 C 68.4775 -1.01648 -1.24596 0
M  V30 646 O 69.6675 -1.27759 -1.1842 0
M  V30 647 C 66.7995 -2.57527 -2.23367 0
M  V30 648 H 67.9925 -2.96236 -0.467382 0
M  V30 649 H 65.5455 -1.5493 -0.206467 0
M  V30 650 H 66.2805 -1.74542 -2.73323 0
M  V30 651 H 66.0655 -3.36613 -2.01083 0
M  V30 652 H 67.5555 -2.98201 -2.92346 0
M  V30 653 N 67.9926 0.231505 -1.5589 0
M  V30 654 C 69.2176 0.978689 -1.82856 0
M  V30 655 C 69.6426 1.77559 -0.620846 0
M  V30 656 O 69.0006 1.76119 0.430305 0
M  V30 657 C 69.0486 1.87997 -3.07716 0
M  V30 658 O 68.1526 2.97393 -2.85712 0
M  V30 659 H 67.4936 0.277663 -0.603158 0
M  V30 660 H 70.0236 0.24783 -2.03093 0
M  V30 661 H 70.0336 2.2917 -3.37558 0
M  V30 662 H 68.7086 1.29417 -3.95252 0
M  V30 663 H 67.2856 2.60238 -2.67078 0
M  V30 664 N 69.4707 1.49531 0.497807 0
M  V30 665 C 70.4337 1.65916 1.58128 0
M  V30 666 C 71.4337 0.530825 1.51786 0
M  V30 667 O 72.6237 0.797342 1.54881 0
M  V30 668 C 69.7557 1.65951 2.9778 0
M  V30 669 H 70.9487 2.62556 1.44929 0
M  V30 670 H 68.5017 1.38611 0.722275 0
M  V30 671 H 69.2367 0.709065 3.16453 0
M  V30 672 H 69.0217 2.47897 3.03792 0
M  V30 673 H 70.5117 1.80673 3.76493 0
M  V30 674 N 70.9488 -0.749086 1.3866 0
M  V30 675 C 72.1738 -1.54344 1.38538 0
M  V30 676 C 72.5988 -1.88088 -0.0216655 0
M  V30 677 O 71.9568 -1.50899 -1.00494 0
M  V30 678 C 72.0048 -2.8164 2.25192 0
M  V30 679 O 71.1088 -3.7698 1.67212 0
M  V30 680 H 70.4498 -0.466654 0.472367 0
M  V30 681 H 72.9798 -0.925355 1.82478 0
M  V30 682 H 72.9898 -3.30519 2.3921 0
M  V30 683 H 71.6648 -2.56411 3.27454 0
M  V30 684 H 70.2418 -3.35699 1.6236 0
M  V30 685 N 72.4269 -1.23603 -0.977757 0
M  V30 686 C 73.6549 -1.09646 -1.75458 0
M  V30 687 C 74.0699 0.351859 -1.85492 0
M  V30 688 O 73.4269 1.24327 -1.336 0
M  V30 689 C 73.4779 -1.71895 -3.18016 0
M  V30 690 O 73.1989 -3.11063 -3.08498 0
M  V30 691 C 74.6999 -1.63415 -4.12081 0
M  V30 692 H 71.9199 -0.38359 -0.550545 0
M  V30 693 H 74.4639 -1.63507 -1.22824 0
M  V30 694 H 72.6189 -1.22061 -3.67668 0
M  V30 695 H 73.0329 -3.41305 -3.9826 0
M  V30 696 H 74.5069 -2.11669 -5.09804 0
M  V30 697 H 74.9839 -0.593462 -4.35172 0
M  V30 698 H 75.5899 -2.12628 -3.68334 0
M  V30 699 N 73.905 1.17692 -1.04816 0
M  V30 700 C 75.316 1.69501 -0.782698 0
M  V30 701 C 75.667 1.83456 0.695577 0
M  V30 702 O 74.792 1.51942 1.54086 0
M  V30 703 C 75.387 3.07874 -1.41419 0
M  V30 704 C 73.946 3.56864 -1.19686 0
M  V30 705 C 73.093 2.3322 -1.50012 0
M  V30 706 H 76.044 1.02262 -1.2136 0
M  V30 707 H 76.065 3.71528 -0.821428 0
M  V30 708 H 75.577 2.97685 -2.49009 0
M  V30 709 H 73.678 3.72337 -0.140043 0
M  V30 710 H 73.791 4.39851 -1.89916 0
M  V30 711 H 72.155 2.37501 -0.920071 0
M  V30 712 H 72.938 2.25644 -2.58727 0
M  V30 713 N 75.3831 0.828654 1.34056 0
M  V30 714 C 76.3461 0.259927 2.27721 0
M  V30 715 C 77.3461 -0.565478 1.50529 0
M  V30 716 O 78.5361 -0.38075 1.69988 0
M  V30 717 C 75.6681 -0.634944 3.34935 0
M  V30 718 H 76.8611 1.0863 2.79534 0
M  V30 719 H 74.4141 0.600951 1.44285 0
M  V30 720 H 75.1491 -1.48416 2.88346 0
M  V30 721 H 74.9341 -0.0444999 3.92075 0
M  V30 722 H 76.4241 -1.02648 4.04788 0
M  V30 723 N 76.8612 -1.46375 0.584142 0
M  V30 724 C 77.7932 -2.28443 -0.186119 0
M  V30 725 C 78.8062 -1.38596 -0.854115 0
M  V30 726 O 79.9952 -1.63183 -0.723438 0
M  V30 727 C 77.0952 -3.13671 -1.28311 0
M  V30 728 C 76.2682 -4.31652 -0.706758 0
M  V30 729 C 75.3272 -4.98267 -1.69163 0
M  V30 730 O 74.3532 -5.55815 -1.22712 0
M  V30 731 N 75.5552 -4.95408 -3.02575 0
M  V30 732 H 78.3202 -2.9519 0.517986 0
M  V30 733 H 75.8812 -1.56303 0.42201 0
M  V30 734 H 77.8732 -3.55101 -1.94128 0
M  V30 735 H 76.4432 -2.48989 -1.89005 0
M  V30 736 H 75.6632 -3.93989 0.128908 0
M  V30 737 H 76.9512 -5.07906 -0.301506 0
M  V30 738 H 76.3492 -4.49902 -3.42936 0
M  V30 739 H 74.9062 -5.40774 -3.63877 0
M  V30 740 N 78.3393 -0.321999 -1.54275 0
M  V30 741 C 79.3023 0.531975 -2.22941 0
M  V30 742 C 80.3023 1.04478 -1.22234 0
M  V30 743 O 81.4923 0.937452 -1.46825 0
M  V30 744 C 78.6243 1.73874 -2.93224 0
M  V30 745 H 79.8173 -0.0682612 -2.99822 0
M  V30 746 H 77.3703 -0.0730644 -1.56129 0
M  V30 747 H 78.1053 2.37825 -2.20476 0
M  V30 748 H 77.8903 1.37847 -3.6707 0
M  V30 749 H 79.3803 2.34496 -3.45545 0
M  V30 750 N 79.8174 1.5752 -0.0501392 0
M  V30 751 C 81.2284 1.80271 0.485705 0
M  V30 752 C 81.5794 0.96228 1.70981 0
M  V30 753 O 80.7044 0.178578 2.15662 0
M  V30 754 C 81.2994 3.26957 0.887938 0
M  V30 755 C 79.8584 3.5063 1.36877 0
M  V30 756 C 79.0054 2.75165 0.343468 0
M  V30 757 H 81.9564 1.56281 -0.276028 0
M  V30 758 H 81.9774 3.37821 1.75093 0
M  V30 759 H 81.4894 3.881 -0.0031809 0
M  V30 760 H 79.5904 2.94766 2.27911 0
M  V30 761 H 79.7034 4.59343 1.36164 0
M  V30 762 H 78.0674 2.4127 0.816128 0
M  V30 763 H 78.8504 3.39034 -0.539548 0
M  V30 764 N 81.2955 -0.223234 1.56011 0
M  V30 765 C 82.5235 -0.964812 1.83027 0
M  V30 766 C 82.9385 -1.78013 0.62904 0
M  V30 767 O 82.2955 -1.78008 -0.402414 0
M  V30 768 C 82.3465 -1.88373 3.08542 0
M  V30 769 O 82.0675 -1.10137 4.2403 0
M  V30 770 C 83.5685 -2.73934 3.48533 0
M  V30 771 H 80.7885 -0.282842 0.608475 0
M  V30 772 H 83.3325 -0.238971 2.03099 0
M  V30 773 H 81.4875 -2.56354 2.9045 0
M  V30 774 H 81.9015 -1.72501 4.95322 0
M  V30 775 H 83.3755 -3.34117 4.39397 0
M  V30 776 H 83.8525 -3.46244 2.70207 0
M  V30 777 H 84.4585 -2.11369 3.69057 0
M  V30 778 N 82.7736 -1.49793 -0.48987 0
M  V30 779 C 83.9986 -1.63836 -1.27172 0
M  V30 780 C 84.4236 -0.31402 -1.8546 0
M  V30 781 O 83.7816 0.719803 -1.66399 0
M  V30 782 C 83.8296 -2.71797 -2.36978 0
M  V30 783 O 82.9336 -2.31744 -3.41128 0
M  V30 784 H 82.2746 -0.547997 -0.37496 0
M  V30 785 H 84.8046 -1.96053 -0.585191 0
M  V30 786 H 84.8146 -2.94305 -2.82575 0
M  V30 787 H 83.4896 -3.67923 -1.93921 0
M  V30 788 H 82.0666 -2.1961 -3.01373 0
M  V30 789 N 84.2517 0.741722 -1.39055 0
M  V30 790 C 85.5287 1.49252 -1.26425 0
M  V30 791 C 85.9087 2.10705 0.129144 0
M  V30 792 O 85.2567 1.98045 1.13976 0
M  V30 793 C 85.4667 2.54934 -2.38347 0
M  V30 794 C 86.8147 3.21506 -2.77343 0
M  V30 795 O 87.8387 2.65245 -2.37747 0
M  V30 796 O 86.6977 4.23294 -3.45665 0
M  V30 797 H 83.7917 0.662451 -0.495064 0
M  V30 798 H 86.3377 0.776121 -1.50912 0
M  V30 799 H 85.1097 2.07857 -3.31529 0
M  V30 800 H 84.7327 3.34141 -2.15489 0
M  V30 801 N 85.7298 1.2412 0.971189 0
M  V30 802 C 86.9548 1.10667 1.75407 0
M  V30 803 C 87.3798 -0.337048 1.85056 0
M  V30 804 O 86.7378 -1.24396 1.31892 0
M  V30 805 C 86.7858 1.74726 3.15441 0
M  V30 806 O 85.8898 1.01566 3.99697 0
M  V30 807 H 85.2308 0.387341 0.539317 0
M  V30 808 H 87.7608 1.64358 1.2185 0
M  V30 809 H 87.7708 1.80341 3.6598 0
M  V30 810 H 86.4458 2.79773 3.07734 0
M  V30 811 H 85.0228 1.03713 3.58187 0
M  V30 812 N 87.2079 -1.17134 1.05439 0
M  V30 813 C 88.6189 -1.69084 0.791676 0
M  V30 814 C 88.9699 -1.83822 -0.685839 0
M  V30 815 O 88.0949 -1.52757 -1.53278 0
M  V30 816 C 88.6899 -3.07119 1.4305 0
M  V30 817 C 87.2489 -3.56225 1.21577 0
M  V30 818 C 86.3959 -2.32421 1.51247 0
M  V30 819 H 89.3469 -1.01617 1.219 0
M  V30 820 H 89.3679 -3.71087 0.84112 0
M  V30 821 H 88.8799 -2.9636 2.50584 0
M  V30 822 H 86.9809 -3.72257 0.159787 0
M  V30 823 H 87.0939 -4.38837 1.92246 0
M  V30 824 H 85.4579 -2.3701 0.932653 0
M  V30 825 H 86.2409 -2.24268 2.5992 0
M  V30 826 N 88.686 -0.835752 -1.33615 0
M  V30 827 C 89.932 -0.430596 -1.98176 0
M  V30 828 C 90.265 1.00684 -1.66061 0
M  V30 829 O 89.54 1.70339 -0.938877 0
M  V30 830 C 89.823 -0.648065 -3.5422 0
M  V30 831 C 89.676 -2.13255 -3.96033 0
M  V30 832 C 90.995 -0.0922113 -4.40003 0
M  V30 833 H 88.114 -0.157924 -0.719881 0
M  V30 834 H 90.756 -1.05069 -1.58305 0
M  V30 835 H 88.906 -0.120237 -3.88314 0
M  V30 836 H 90.578 -2.725 -3.72211 0
M  V30 837 H 88.821 -2.61823 -3.45878 0
M  V30 838 H 89.492 -2.23547 -5.04708 0
M  V30 839 H 91.968 -0.543343 -4.12537 0
M  V30 840 H 90.844 -0.274083 -5.48215 0
M  V30 841 H 91.105 1.00378 -4.30554 0
M  V30 842 N 90.1641 1.46063 -0.591896 0
M  V30 843 C 91.1271 2.28854 0.125973 0
M  V30 844 C 92.1271 1.38903 0.810107 0
M  V30 845 O 93.3171 1.61186 0.66066 0
M  V30 846 C 90.4491 3.19526 1.1881 0
M  V30 847 H 91.6421 2.93802 -0.601717 0
M  V30 848 H 89.1951 1.52325 -0.350254 0
M  V30 849 H 89.9301 2.59345 1.94707 0
M  V30 850 H 89.7151 3.85766 0.701936 0
M  V30 851 H 91.2051 3.81817 1.69132 0
M  V30 852 N 91.6422 0.330177 1.54103 0
M  V30 853 C 92.5522 -0.541534 2.28264 0
M  V30 854 C 93.5682 -1.12351 1.32866 0
M  V30 855 O 94.7442 -1.14206 1.65888 0
M  V30 856 C 91.8092 -1.68322 3.03098 0
M  V30 857 C 90.8702 -1.13238 4.14096 0
M  V30 858 C 90.1032 -2.21966 4.85352 0
M  V30 859 O 90.3262 -3.42437 4.56172 0
M  V30 860 O 89.2602 -1.87013 5.7211 0
M  V30 861 H 93.0862 0.060938 3.03639 0
M  V30 862 H 90.6712 0.09565 1.49093 0
M  V30 863 H 92.5532 -2.34777 3.49939 0
M  V30 864 H 91.2282 -2.27176 2.30593 0
M  V30 865 H 90.1352 -0.432736 3.71589 0
M  V30 866 H 91.4682 -0.588898 4.88664 0
M  V30 867 N 93.1203 -1.57491 0.0584922 0
M  V30 868 C 94.3973 -1.84346 -0.653918 0
M  V30 869 C 94.7773 -0.948355 -1.88599 0
M  V30 870 O 94.1253 -0.0112403 -2.28497 0
M  V30 871 C 94.3353 -3.34239 -1.00425 0
M  V30 872 C 95.6833 -4.01431 -1.38342 0
M  V30 873 O 96.7073 -3.38907 -1.09637 0
M  V30 874 O 95.5663 -5.11683 -1.91943 0
M  V30 875 H 92.6603 -0.761112 -0.323478 0
M  V30 876 H 95.2063 -1.6947 0.0884125 0
M  V30 877 H 93.9783 -3.91089 -0.128625 0
M  V30 878 H 93.6013 -3.54329 -1.80378 0
M  V30 879 N 94.5984 0.214957 -1.56127 0
M  V30 880 C 95.5614 1.24997 -1.92116 0
M  V30 881 C 96.5614 1.39467 -0.800344 0
M  V30 882 O 97.7514 1.37619 -1.06802 0
M  V30 883 C 94.8834 2.62271 -2.17777 0
M  V30 884 H 96.0764 0.942875 -2.84693 0
M  V30 885 H 93.6294 0.455654 -1.49511 0
M  V30 886 H 94.3644 2.98068 -1.27773 0
M  V30 887 H 94.1494 2.53143 -2.99434 0
M  V30 888 H 95.6394 3.36946 -2.46693 0
M  V30 889 N 96.0765 1.50051 0.48192 0
M  V30 890 C 97.3015 1.64508 1.26301 0
M  V30 891 C 97.7265 0.323851 1.85291 0
M  V30 892 O 97.0845 -0.710969 1.66778 0
M  V30 893 C 97.1325 2.7305 2.35533 0
M  V30 894 O 96.2365 2.3355 3.39895 0
M  V30 895 H 95.5775 0.549978 0.372048 0
M  V30 896 H 98.1075 1.9636 0.574786 0
M  V30 897 H 98.1175 2.95799 2.8101 0
M  V30 898 H 96.7925 3.68946 1.91967 0
M  V30 899 H 95.3695 2.21205 3.00204 0
M  V30 900 N 97.5546 -0.734337 1.39446 0
M  V30 901 C 98.9706 -1.03997 1.21065 0
M  V30 902 C 99.1706 -2.01369 0.0727019 0
M  V30 903 O 98.2266 -2.45856 -0.575426 0
M  V30 904 C 99.5396 -1.60163 2.54496 0
M  V30 905 C 101.088 -1.7224 2.61347 0
M  V30 906 C 101.563 -2.31814 3.95002 0
M  V30 907 N 103.054 -2.39223 3.96644 0
M  V30 908 C 103.789 -2.86258 4.96834 0
M  V30 909 N 103.285 -3.33184 6.07421 0
M  V30 910 N 105.078 -2.85473 4.84213 0
M  V30 911 H 97.2286 -0.0885624 2.12215 0
M  V30 912 H 99.4916 -0.10191 0.942506 0
M  V30 913 H 99.1976 -0.960811 3.38321 0
M  V30 914 H 99.0716 -2.5896 2.74262 0
M  V30 915 H 101.459 -2.35443 1.77906 0
M  V30 916 H 101.54 -0.720939 2.4543 0
M  V30 917 H 101.184 -1.69238 4.78875 0
M  V30 918 H 101.114 -3.32638 4.08239 0
M  V30 919 H 103.605 -2.06057 3.16779 0
M  V30 920 H 103.918 -3.67586 6.7978 0
M  V30 921 H 102.263 -3.31191 6.11013 0
M  V30 922 H 105.454 -2.48136 3.96921 0
M  V30 923 H 105.627 -3.21814 5.62441 0
M  V30 924 N 99.0327 -1.24633 -0.964593 0
M  V30 925 C 100.449 -1.01239 -1.2338 0
M  V30 926 C 100.649 0.2769 -1.99588 0
M  V30 927 O 99.7047 0.992241 -2.32187 0
M  V30 928 C 101.018 -2.22937 -2.01791 0
M  V30 929 C 102.566 -2.27594 -2.14872 0
M  V30 930 C 103.041 -3.48921 -2.96678 0
M  V30 931 N 104.532 -3.49257 -3.04259 0
M  V30 932 C 105.267 -4.39795 -3.67924 0
M  V30 933 N 104.763 -5.40591 -4.33281 0
M  V30 934 N 106.556 -4.275 -3.64966 0
M  V30 935 H 98.7067 -2.0748 -0.454502 0
M  V30 936 H 100.97 -0.910647 -0.26349 0
M  V30 937 H 100.676 -3.16587 -1.53184 0
M  V30 938 H 100.55 -2.25306 -3.02518 0
M  V30 939 H 102.937 -1.34473 -2.6268 0
M  V30 940 H 103.018 -2.2925 -1.13482 0
M  V30 941 H 102.662 -4.42359 -2.49562 0
M  V30 942 H 102.592 -3.4451 -3.98272 0
M  V30 943 H 105.083 -2.76337 -2.57771 0
M  V30 944 H 105.396 -6.05904 -4.79687 0
M  V30 945 H 103.741 -5.44475 -4.3194 0
M  V30 946 H 106.932 -3.47987 -3.13086 0
M  V30 947 H 107.105 -4.98258 -4.14298 0
M  V30 948 N 100.511 1.16574 -1.06058 0
M  V30 949 C 101.927 1.3904 -0.783585 0
M  V30 950 C 102.127 1.91784 0.618145 0
M  V30 951 O 101.183 2.11511 1.37911 0
M  V30 952 C 102.496 2.37329 -1.84649 0
M  V30 953 C 104.044 2.51018 -1.86973 0
M  V30 954 C 104.519 3.52588 -2.92311 0
M  V30 955 N 106.01 3.60113 -2.91329 0
M  V30 956 C 106.745 4.38486 -3.69482 0
M  V30 957 N 106.241 5.20302 -4.57447 0
M  V30 958 N 108.034 4.33446 -3.57885 0
M  V30 959 H 100.185 0.806725 -1.96483 0
M  V30 960 H 102.448 0.417117 -0.851303 0
M  V30 961 H 102.154 2.05663 -2.85299 0
M  V30 962 H 102.028 3.36946 -1.6955 0
M  V30 963 H 104.415 2.81989 -0.869827 0
M  V30 964 H 104.496 1.51445 -2.0615 0
M  V30 965 H 104.14 3.22354 -3.92492 0
M  V30 966 H 104.07 4.51886 -2.70383 0
M  V30 967 H 106.561 3.01707 -2.27555 0
M  V30 968 H 106.874 5.77311 -5.13743 0
M  V30 969 H 105.219 5.19653 -4.61503 0
M  V30 970 H 108.41 3.68586 -2.88551 0
M  V30 971 H 108.583 4.94279 -4.19037 0
M  V30 972 N 101.989 0.842826 1.3317 0
M  V30 973 C 103.4 0.496651 1.79973 0
M  V30 974 C 103.751 -0.984641 1.69703 0
M  V30 975 O 102.876 -1.76743 1.24863 0
M  V30 976 C 103.471 0.894727 3.26772 0
M  V30 977 C 102.03 0.600629 3.71577 0
M  V30 978 C 101.177 1.10091 2.5451 0
M  V30 979 H 104.128 1.03116 1.20635 0
M  V30 980 H 104.149 0.206347 3.7994 0
M  V30 981 H 103.661 1.97287 3.34215 0
M  V30 982 H 101.762 -0.467284 3.69658 0
M  V30 983 H 101.875 1.15863 4.64879 0
M  V30 984 H 100.239 0.52162 2.49301 0
M  V30 985 H 101.022 2.18591 2.64713 0
M  V30 986 N 103.467 -1.45747 0.599634 0
M  V30 987 C 104.707 -2.04181 0.0946309 0
M  V30 988 C 105.071 -1.45895 -1.24815 0
M  V30 989 O 106.272 -1.95633 -1.8434 0
M  V30 990 C 104.543 -3.57368 0.047581 0
M  V30 991 S 106.102 -4.36997 -0.397387 0
M  V30 992 H 102.92 -0.70953 0.0456954 0
M  V30 993 H 105.522 -1.78564 0.795946 0
M  V30 994 H 104.226 -3.97303 1.02852 0
M  V30 995 H 103.757 -3.87549 -0.675977 0
M  V30 996 H 105.772 -4.68012 -1.64862 0
M  V30 997 N 104.945 -0.338344 -1.53925 0
M  V30 998 C 106.361 0.0137736 -1.59594 0
M  V30 999 C 106.561 1.49186 -1.35447 0
M  V30 1000 O 105.617 2.24987 -1.14616 0
M  V30 1001 C 106.93 -0.41773 -2.97784 0
M  V30 1002 C 108.478 -0.369633 -3.1081 0
M  V30 1003 C 108.953 -0.776524 -4.51369 0
M  V30 1004 N 110.444 -0.730506 -4.57403 0
M  V30 1005 C 111.179 -1.01736 -5.64303 0
M  V30 1006 N 110.675 -1.3721 -6.79077 0
M  V30 1007 N 112.468 -0.941942 -5.54151 0
M  V30 1008 H 104.619 -1.3012 -1.67876 0
M  V30 1009 H 106.882 -0.530082 -0.78595 0
M  V30 1010 H 106.588 -1.44811 -3.20504 0
M  V30 1011 H 106.462 0.209729 -3.76616 0
M  V30 1012 H 108.849 0.651568 -2.87817 0
M  V30 1013 H 108.93 -1.03223 -2.34049 0
M  V30 1014 H 108.574 -1.79571 -4.75096 0
M  V30 1015 H 108.504 -0.0914649 -5.26521 0
M  V30 1016 H 110.995 -0.468783 -3.74981 0
M  V30 1017 H 111.308 -1.57597 -7.5656 0
M  V30 1018 H 109.653 -1.4105 -6.80536 0
M  V30 1019 H 112.844 -0.664184 -4.63364 0
M  V30 1020 H 113.017 -1.16884 -6.37371 0
M  V30 1021 N 106.423 1.57458 -0.0668435 0
M  V30 1022 C 107.386 2.11323 0.887422 0
M  V30 1023 C 108.386 1.03618 1.22964 0
M  V30 1024 O 109.576 1.29626 1.16373 0
M  V30 1025 C 106.708 2.61048 2.19242 0
M  V30 1026 H 107.901 2.96942 0.420194 0
M  V30 1027 H 105.454 1.55239 0.181793 0
M  V30 1028 H 106.189 1.78868 2.70512 0
M  V30 1029 H 105.974 3.39769 1.95702 0
M  V30 1030 H 107.464 3.02814 2.87565 0
M  V30 1031 N 107.901 -0.206675 1.56239 0
M  V30 1032 C 109.141 -0.93574 1.81723 0
M  V30 1033 C 109.505 -1.80927 0.642609 0
M  V30 1034 O 110.706 -2.57323 0.777081 0
M  V30 1035 C 108.977 -1.74012 3.12177 0
M  V30 1036 S 110.536 -2.52279 3.59028 0
M  V30 1037 H 107.354 -0.314065 0.637875 0
M  V30 1038 H 109.956 -0.200071 1.94474 0
M  V30 1039 H 108.66 -1.0888 3.95693 0
M  V30 1040 H 108.191 -2.51782 3.02274 0
M  V30 1041 H 110.206 -3.76209 3.23545 0
M  V30 1042 N 109.379 -1.50304 -0.473955 0
M  V30 1043 C 110.625 -1.61389 -1.22806 0
M  V30 1044 C 110.958 -0.311955 -1.91678 0
M  V30 1045 O 110.233 0.686384 -1.81986 0
M  V30 1046 C 110.516 -2.79219 -2.27396 0
M  V30 1047 C 110.369 -4.19286 -1.62848 0
M  V30 1048 C 111.688 -2.92614 -3.28732 0
M  V30 1049 H 108.807 -0.587399 -0.445119 0
M  V30 1050 H 111.449 -1.82681 -0.522265 0
M  V30 1051 H 109.599 -2.61195 -2.87592 0
M  V30 1052 H 111.271 -4.48892 -1.06271 0
M  V30 1053 H 109.514 -4.23677 -0.931693 0
M  V30 1054 H 110.185 -4.97655 -2.38838 0
M  V30 1055 H 112.661 -3.09105 -2.78556 0
M  V30 1056 H 111.537 -3.76688 -3.99246 0
M  V30 1057 H 111.798 -2.03107 -3.92683 0
M  V30 1058 N 110.857 0.726932 -1.39834 0
M  V30 1059 C 112.134 1.47902 -1.28001 0
M  V30 1060 C 112.514 2.1083 0.106789 0
M  V30 1061 O 111.862 1.99242 1.11869 0
M  V30 1062 C 112.072 2.52392 -2.41038 0
M  V30 1063 C 113.42 3.18546 -2.80737 0
M  V30 1064 O 114.444 2.62708 -2.40547 0
M  V30 1065 O 113.303 4.19604 -3.50135 0
M  V30 1066 H 110.397 0.657163 -0.502062 0
M  V30 1067 H 112.943 0.760071 -1.51727 0
M  V30 1068 H 111.715 2.04329 -3.33715 0
M  V30 1069 H 111.338 3.31837 -2.19021 0
M  V30 1070 N 112.336 1.25143 0.95797 0
M  V30 1071 C 113.583 1.09692 1.70217 0
M  V30 1072 C 113.911 -0.362654 1.91089 0
M  V30 1073 O 113.166 -1.28386 1.47701 0
M  V30 1074 C 113.465 1.79272 3.09187 0
M  V30 1075 C 113.131 3.29196 3.08125 0
M  V30 1076 C 111.793 3.70096 3.07543 0
M  V30 1077 C 114.145 4.24995 3.0171 0
M  V30 1078 C 111.473 5.05213 2.9829 0
M  V30 1079 C 113.825 5.60132 2.93999 0
M  V30 1080 C 112.489 6.00365 2.9175 0
M  V30 1081 H 111.759 0.401393 0.622868 0
M  V30 1082 H 114.406 1.55372 1.11945 0
M  V30 1083 H 112.711 1.26014 3.70982 0
M  V30 1084 H 114.408 1.64773 3.65583 0
M  V30 1085 H 110.998 2.96651 3.09348 0
M  V30 1086 H 115.182 3.9439 3.01281 0
M  V30 1087 H 110.438 5.35569 2.94916 0
M  V30 1088 H 114.612 6.3406 2.87996 0
M  V30 1089 H 112.239 7.05023 2.84336 0
M  V30 1090 N 113.814 -1.1601 1.06675 0
M  V30 1091 C 114.761 -2.20525 0.680967 0
M  V30 1092 C 115.731 -1.62904 -0.324283 0
M  V30 1093 O 116.916 -1.89615 -0.212294 0
M  V30 1094 C 114.056 -3.45013 0.0776551 0
M  V30 1095 C 113.169 -4.16863 1.13355 0
M  V30 1096 C 112.304 -5.2888 0.49597 0
M  V30 1097 C 111.343 -5.92537 1.53513 0
M  V30 1098 N 110.48 -6.96038 0.920631 0
M  V30 1099 H 115.32 -2.52876 1.57663 0
M  V30 1100 H 112.857 -1.24199 0.788223 0
M  V30 1101 H 114.815 -4.16193 -0.289704 0
M  V30 1102 H 113.445 -3.132 -0.781393 0
M  V30 1103 H 112.497 -3.44248 1.61857 0
M  V30 1104 H 113.809 -4.60294 1.92174 0
M  V30 1105 H 112.963 -6.06653 0.0758604 0
M  V30 1106 H 111.702 -4.86622 -0.324062 0
M  V30 1107 H 110.707 -5.13482 1.9651 0
M  V30 1108 H 111.932 -6.36873 2.35733 0
M  V30 1109 H 109.878 -6.55888 0.12138 0
M  V30 1110 H 109.795 -7.3786 1.64616 0
M  V30 1111 H 111.063 -7.77725 0.525795 0
M  V30 1112 N 115.292 -0.849877 -1.32721 0
M  V30 1113 C 116.52 -0.464754 -2.01613 0
M  V30 1114 C 116.935 0.937191 -1.63897 0
M  V30 1115 O 116.292 1.61081 -0.857856 0
M  V30 1116 C 116.343 -0.588638 -3.56675 0
M  V30 1117 O 116.064 -1.93535 -3.93034 0
M  V30 1118 C 117.565 -0.2019 -4.4284 0
M  V30 1119 H 114.785 -0.183215 -0.645502 0
M  V30 1120 H 117.329 -1.1455 -1.69407 0
M  V30 1121 H 115.484 0.0443159 -3.87375 0
M  V30 1122 H 115.898 -1.92871 -4.87751 0
M  V30 1123 H 117.372 -0.339599 -5.50954 0
M  V30 1124 H 117.849 0.857224 -4.30753 0
M  V30 1125 H 118.455 -0.809733 -4.17521 0
M  V30 1126 N 116.77 1.45427 -0.607355 0
M  V30 1127 C 118.016 2.03097 -0.111035 0
M  V30 1128 C 118.371 1.46735 1.24445 0
M  V30 1129 O 117.664 0.632478 1.8086 0
M  V30 1130 C 117.858 3.57398 -0.0129263 0
M  V30 1131 C 117.687 4.28726 -1.35735 0
M  V30 1132 C 116.457 4.66659 -1.93798 0
M  V30 1133 C 118.655 4.60699 -2.28607 0
M  V30 1134 N 116.637 5.22845 -3.21723 0
M  V30 1135 C 118.008 5.17716 -3.41131 0
M  V30 1136 C 120.063 4.42638 -2.27982 0
M  V30 1137 C 118.766 5.58576 -4.53194 0
M  V30 1138 C 120.792 4.84531 -3.39093 0
M  V30 1139 C 120.154 5.4164 -4.50339 0
M  V30 1140 H 116.253 0.777476 -0.083994 0
M  V30 1141 H 118.837 1.77249 -0.805655 0
M  V30 1142 H 117.008 3.82907 0.650914 0
M  V30 1143 H 118.74 4.01722 0.490033 0
M  V30 1144 H 115.495 4.50207 -1.47007 0
M  V30 1145 H 115.919 5.55438 -3.87063 0
M  V30 1146 H 120.561 3.97798 -1.43235 0
M  V30 1147 H 118.279 6.02382 -5.38667 0
M  V30 1148 H 121.865 4.72289 -3.39757 0
M  V30 1149 H 120.745 5.73461 -5.34895 0
M  V30 1150 N 118.248 0.346503 1.53744 0
M  V30 1151 C 119.181 -0.552023 2.21423 0
M  V30 1152 C 120.159 -1.09798 1.19929 0
M  V30 1153 O 121.343 -1.1577 1.4876 0
M  V30 1154 C 118.47 -1.75972 2.89398 0
M  V30 1155 C 117.516 -1.34295 4.04805 0
M  V30 1156 S 118.349 -0.360263 5.34287 0
M  V30 1157 C 119.505 -1.57473 6.05767 0
M  V30 1158 H 119.738 0.0228119 2.97291 0
M  V30 1159 H 117.271 0.130579 1.53847 0
M  V30 1160 H 119.229 -2.45256 3.2918 0
M  V30 1161 H 117.89 -2.30578 2.1329 0
M  V30 1162 H 117.083 -2.24349 4.51313 0
M  V30 1163 H 116.685 -0.729555 3.66815 0
M  V30 1164 H 118.977 -2.50875 6.29339 0
M  V30 1165 H 119.92 -1.15138 6.98676 0
M  V30 1166 H 120.328 -1.77212 5.35963 0
M  V30 1167 N 119.726 -1.57421 0.075193 0
M  V30 1168 C 121.142 -1.57099 -0.281444 0
M  V30 1169 C 121.342 -1.08486 -1.69803 0
M  V30 1170 O 120.398 -0.752279 -2.41033 0
M  V30 1171 C 121.711 -3.00571 -0.0880041 0
M  V30 1172 C 123.259 -3.12605 -0.157281 0
M  V30 1173 C 123.734 -4.57999 0.0079207 0
M  V30 1174 N 125.225 -4.63176 -0.0475725 0
M  V30 1175 C 125.96 -5.73373 0.0557876 0
M  V30 1176 N 125.456 -6.92473 0.21286 0
M  V30 1177 N 127.249 -5.621 -0.00152098 0
M  V30 1178 H 119.4 -1.87335 1.00098 0
M  V30 1179 H 121.663 -0.86377 0.390646 0
M  V30 1180 H 121.369 -3.40262 0.889629 0
M  V30 1181 H 121.243 -3.67754 -0.838875 0
M  V30 1182 H 123.63 -2.72798 -1.1254 0
M  V30 1183 H 123.711 -2.48053 0.62475 0
M  V30 1184 H 123.355 -4.98496 0.972824 0
M  V30 1185 H 123.285 -5.20586 -0.793556 0
M  V30 1186 H 125.776 -3.7753 -0.167244 0
M  V30 1187 H 126.089 -7.72279 0.283781 0
M  V30 1188 H 124.434 -6.94556 0.248267 0
M  V30 1189 H 127.625 -4.67938 -0.122958 0
M  V30 1190 H 127.798 -6.47948 0.0824844 0
M  V30 1191 N 121.204 0.198386 -1.56346 0
M  V30 1192 C 122.432 0.935572 -1.84539 0
M  V30 1193 C 122.847 1.76989 -0.657281 0
M  V30 1194 O 122.204 1.78626 0.374043 0
M  V30 1195 C 122.255 1.8344 -3.11499 0
M  V30 1196 O 121.976 1.03377 -4.25728 0
M  V30 1197 C 123.477 2.68355 -3.52846 0
M  V30 1198 H 120.697 0.273126 -0.612897 0
M  V30 1199 H 123.241 0.20663 -2.03453 0
M  V30 1200 H 121.396 2.51701 -2.94492 0
M  V30 1201 H 121.81 1.64599 -4.98003 0
M  V30 1202 H 123.284 3.27085 -4.44657 0
M  V30 1203 H 123.761 3.41901 -2.75681 0
M  V30 1204 H 124.367 2.05471 -3.72373 0
M  V30 1205 N 122.682 1.50554 0.465978 0
M  V30 1206 C 123.614 1.65949 1.58093 0
M  V30 1207 C 124.627 0.540827 1.53554 0
M  V30 1208 O 125.816 0.814187 1.5885 0
M  V30 1209 C 122.916 1.63261 2.96983 0
M  V30 1210 C 122.089 2.91245 3.26336 0
M  V30 1211 C 121.148 2.8113 4.44806 0
M  V30 1212 O 120.174 3.55086 4.44862 0
M  V30 1213 N 121.376 1.95032 5.46756 0
M  V30 1214 H 124.141 2.62122 1.45301 0
M  V30 1215 H 121.702 1.48082 0.65448 0
M  V30 1216 H 123.694 1.54101 3.74212 0
M  V30 1217 H 122.264 0.748032 3.03518 0
M  V30 1218 H 121.484 3.14493 2.37672 0
M  V30 1219 H 122.772 3.76022 3.42761 0
M  V30 1220 H 122.17 1.3427 5.49534 0
M  V30 1221 H 120.727 1.91772 6.2295 0
M  V30 1222 N 124.16 -0.719506 1.40217 0
M  V30 1223 C 125.092 -1.84428 1.36084 0
M  V30 1224 C 126.105 -1.60597 0.266913 0
M  V30 1225 O 127.294 -1.70544 0.526983 0
M  V30 1226 C 124.394 -3.20757 1.094 0
M  V30 1227 C 123.567 -3.71817 2.30372 0
M  V30 1228 C 122.626 -4.86748 1.99907 0
M  V30 1229 O 121.652 -4.99603 2.72737 0
M  V30 1230 N 122.854 -5.7226 0.974635 0
M  V30 1231 H 125.619 -1.88473 2.33019 0
M  V30 1232 H 123.18 -0.900885 1.3452 0
M  V30 1233 H 125.172 -3.95235 0.870116 0
M  V30 1234 H 123.742 -3.11884 0.211452 0
M  V30 1235 H 122.962 -2.88514 2.68614 0
M  V30 1236 H 124.25 -4.02666 3.11026 0
M  V30 1237 H 123.648 -5.6448 0.371368 0
M  V30 1238 H 122.205 -6.46739 0.810656 0
M  V30 1239 N 125.638 -1.25649 -0.95132 0
M  V30 1240 C 126.585 -1.06323 -2.04851 0
M  V30 1241 C 127.555 0.0286491 -1.66075 0
M  V30 1242 O 128.74 -0.12917 -1.90362 0
M  V30 1243 C 125.88 -0.691529 -3.381 0
M  V30 1244 C 124.993 -1.85861 -3.89974 0
M  V30 1245 C 124.128 -1.43096 -5.11563 0
M  V30 1246 C 123.167 -2.56696 -5.55674 0
M  V30 1247 N 122.304 -2.14684 -6.68472 0
M  V30 1248 H 127.144 -2.00222 -2.20715 0
M  V30 1249 H 124.681 -0.997027 -1.08156 0
M  V30 1250 H 126.639 -0.456963 -4.1469 0
M  V30 1251 H 125.269 0.210474 -3.22113 0
M  V30 1252 H 124.321 -2.20639 -3.09875 0
M  V30 1253 H 125.633 -2.71161 -4.18657 0
M  V30 1254 H 124.787 -1.15624 -5.9558 0
M  V30 1255 H 123.526 -0.548722 -4.84603 0
M  V30 1256 H 122.531 -2.84909 -4.7022 0
M  V30 1257 H 123.756 -3.45503 -5.8464 0
M  V30 1258 H 121.702 -1.28881 -6.43215 0
M  V30 1259 H 121.619 -2.9353 -6.96689 0
M  V30 1260 H 122.887 -1.90397 -7.5589 0
M  V30 1261 N 127.117 1.15442 -1.07289 0
M  V30 1262 C 128.533 1.38201 -0.798288 0
M  V30 1263 C 128.733 1.92429 0.597769 0
M  V30 1264 O 127.789 2.12962 1.3566 0
M  V30 1265 C 129.102 2.35357 -1.87156 0
M  V30 1266 C 130.65 2.49021 -1.89624 0
M  V30 1267 C 131.125 3.49468 -2.96034 0
M  V30 1268 N 132.616 3.57003 -2.95132 0
M  V30 1269 C 133.351 4.34543 -3.74112 0
M  V30 1270 N 132.847 5.15421 -4.6294 0
M  V30 1271 N 134.64 4.29625 -3.62462 0
M  V30 1272 H 126.791 0.78584 -1.97328 0
M  V30 1273 H 129.054 0.408065 -0.855679 0
M  V30 1274 H 128.76 2.02626 -2.87464 0
M  V30 1275 H 128.634 3.35129 -1.73114 0
M  V30 1276 H 131.021 2.81051 -0.899687 0
M  V30 1277 H 131.102 1.4925 -2.07745 0
M  V30 1278 H 130.746 3.18173 -3.95889 0
M  V30 1279 H 130.676 4.48992 -2.75161 0
M  V30 1280 H 133.167 2.99276 -2.30743 0
M  V30 1281 H 133.48 5.7183 -5.19837 0
M  V30 1282 H 131.825 5.14729 -4.66989 0
M  V30 1283 H 135.016 3.65505 -2.92444 0
M  V30 1284 H 135.189 4.89807 -4.24256 0
M  V30 1285 N 128.595 0.856903 1.32268 0
M  V30 1286 C 129.872 0.382583 1.91822 0
M  V30 1287 C 130.252 -1.13407 1.78051 0
M  V30 1288 O 129.6 -1.95673 1.18001 0
M  V30 1289 C 129.81 0.849446 3.38505 0
M  V30 1290 C 131.158 0.867936 4.15634 0
M  V30 1291 O 132.182 0.794232 3.47232 0
M  V30 1292 O 131.041 0.972286 5.37781 0
M  V30 1293 H 128.135 0.112014 0.819379 0
M  V30 1294 H 130.681 0.943952 1.41024 0
M  V30 1295 H 129.453 1.89267 3.42482 0
M  V30 1296 H 129.076 0.265652 3.96712 0
M  V30 1297 N 130.073 -1.45103 0.615059 0
M  V30 1298 C 131.301 -2.06553 0.11977 0
M  V30 1299 C 131.716 -1.45842 -1.19898 0
M  V30 1300 O 131.073 -0.575325 -1.73194 0
M  V30 1301 C 131.124 -3.61495 -0.018364 0
M  V30 1302 O 130.845 -4.19942 1.24822 0
M  V30 1303 C 132.346 -4.39947 -0.544237 0
M  V30 1304 H 129.566 -0.667096 0.0722739 0
M  V30 1305 H 132.11 -1.8623 0.84491 0
M  V30 1306 H 130.265 -3.81135 -0.693865 0
M  V30 1307 H 130.679 -5.13204 1.0827 0
M  V30 1308 H 132.153 -5.48838 -0.589953 0
M  V30 1309 H 132.63 -4.10255 -1.56805 0
M  V30 1310 H 133.236 -4.25188 0.0974703 0
M  V30 1311 N 131.551 -0.354651 -1.53558 0
M  V30 1312 C 132.498 0.496968 -2.25386 0
M  V30 1313 C 133.468 1.0865 -1.25636 0
M  V30 1314 O 134.653 1.12104 -1.54394 0
M  V30 1315 C 131.793 1.63637 -3.03837 0
M  V30 1316 C 130.906 1.07307 -4.18461 0
M  V30 1317 C 130.041 2.18068 -4.84376 0
M  V30 1318 C 129.08 1.59147 -5.91049 0
M  V30 1319 N 128.217 2.63695 -6.50699 0
M  V30 1320 H 133.057 -0.122075 -2.9775 0
M  V30 1321 H 130.594 -0.0720154 -1.46924 0
M  V30 1322 H 132.552 2.30734 -3.47589 0
M  V30 1323 H 131.182 2.22623 -2.33749 0
M  V30 1324 H 130.234 0.292708 -3.79272 0
M  V30 1325 H 131.546 0.602193 -4.95152 0
M  V30 1326 H 130.7 2.93007 -5.31255 0
M  V30 1327 H 129.439 2.68504 -4.07133 0
M  V30 1328 H 128.444 0.827175 -5.43542 0
M  V30 1329 H 129.669 1.09549 -6.70206 0
M  V30 1330 H 127.615 3.13365 -5.76315 0
M  V30 1331 H 127.532 2.21263 -7.22896 0
M  V30 1332 H 128.8 3.3837 -7.02229 0
M  V30 1333 N 133.029 1.57378 -0.0835403 0
M  V30 1334 C 134.276 1.9393 0.58287 0
M  V30 1335 C 134.604 0.964455 1.68904 0
M  V30 1336 O 133.859 -0.0179474 1.95692 0
M  V30 1337 C 134.158 3.37063 1.1884 0
M  V30 1338 C 133.824 4.50424 0.207194 0
M  V30 1339 C 132.486 4.81159 -0.0627115 0
M  V30 1340 C 134.838 5.19136 -0.463426 0
M  V30 1341 C 132.166 5.77939 -1.01012 0
M  V30 1342 C 134.518 6.16931 -1.39924 0
M  V30 1343 C 133.182 6.46078 -1.67749 0
M  V30 1344 H 132.452 0.70964 0.213287 0
M  V30 1345 H 135.099 1.90856 -0.156916 0
M  V30 1346 H 133.404 3.3666 2.00418 0
M  V30 1347 H 135.101 3.6264 1.71153 0
M  V30 1348 H 131.691 4.2646 0.427747 0
M  V30 1349 H 135.875 4.95576 -0.268034 0
M  V30 1350 H 131.131 5.98842 -1.23283 0
M  V30 1351 H 135.305 6.69273 -1.92476 0
M  V30 1352 H 132.932 7.2088 -2.41321 0
M  V30 1353 N 134.507 -0.190092 1.56449 0
M  V30 1354 C 135.923 -0.54113 1.50146 0
M  V30 1355 C 136.123 -1.85603 0.784465 0
M  V30 1356 O 135.179 -2.5024 0.337051 0
M  V30 1357 C 136.492 -0.591241 2.9483 0
M  V30 1358 C 138.04 -0.679732 3.0553 0
M  V30 1359 C 138.515 -0.760908 4.51635 0
M  V30 1360 N 140.006 -0.824302 4.55806 0
M  V30 1361 C 140.741 -0.907365 5.66175 0
M  V30 1362 N 140.237 -0.952422 6.86222 0
M  V30 1363 N 142.03 -0.94494 5.541 0
M  V30 1364 H 134.181 0.67235 2.01478 0
M  V30 1365 H 136.444 0.240127 0.917084 0
M  V30 1366 H 136.15 0.305905 3.50367 0
M  V30 1367 H 136.024 -1.44422 3.48457 0
M  V30 1368 H 138.411 -1.56731 2.50039 0
M  V30 1369 H 138.492 0.199549 2.5502 0
M  V30 1370 H 138.136 0.122336 5.07753 0
M  V30 1371 H 138.066 -1.65606 4.99882 0
M  V30 1372 H 140.557 -0.798526 3.69367 0
M  V30 1373 H 140.87 -1.01645 7.66086 0
M  V30 1374 H 139.215 -0.921014 6.8887 0
M  V30 1375 H 142.406 -0.906612 4.59236 0
M  V30 1376 H 142.579 -1.00622 6.4014 0
M  V30 1377 N 135.985 -1.50799 -0.457987 0
M  V30 1378 C 136.895 -1.73426 -1.57989 0
M  V30 1379 C 137.911 -0.617745 -1.62665 0
M  V30 1380 O 139.087 -0.897614 -1.80291 0
M  V30 1381 C 136.152 -1.83557 -2.94122 0
M  V30 1382 C 135.213 -3.07345 -2.99729 0
M  V30 1383 C 134.446 -3.16983 -4.29368 0
M  V30 1384 O 134.669 -2.33077 -5.20607 0
M  V30 1385 O 133.603 -4.09812 -4.40837 0
M  V30 1386 H 137.429 -2.68555 -1.41817 0
M  V30 1387 H 135.014 -1.35052 -0.638859 0
M  V30 1388 H 136.896 -1.92326 -3.74952 0
M  V30 1389 H 135.571 -0.916137 -3.10465 0
M  V30 1390 H 134.478 -3.04068 -2.1793 0
M  V30 1391 H 135.811 -3.9891 -2.88326 0
M  V30 1392 N 137.463 0.71206 -1.40597 0
M  V30 1393 C 138.74 1.46536 -1.29563 0
M  V30 1394 C 139.12 2.10931 0.0844217 0
M  V30 1395 O 138.468 2.00418 1.0975 0
M  V30 1396 C 138.678 2.49821 -2.43701 0
M  V30 1397 C 140.026 3.15551 -2.841 0
M  V30 1398 O 141.05 2.60142 -2.4332 0
M  V30 1399 O 139.909 4.15867 -3.54566 0
M  V30 1400 H 137.003 0.651801 -0.509004 0
M  V30 1401 H 139.549 0.743935 -1.52524 0
M  V30 1402 H 138.321 2.00778 -3.35863 0
M  V30 1403 H 137.944 3.29495 -2.22528 0
M  V30 1404 N 138.941 1.26152 0.944643 0
M  V30 1405 C 140.181 1.12708 1.70517 0
M  V30 1406 C 140.545 -0.324727 1.89234 0
M  V30 1407 O 141.746 -0.581211 2.62441 0
M  V30 1408 C 140.017 1.8713 3.04495 0
M  V30 1409 S 141.576 1.89698 3.95677 0
M  V30 1410 H 138.394 0.402665 0.585988 0
M  V30 1411 H 140.996 1.59821 1.12594 0
M  V30 1412 H 139.7 2.91833 2.88551 0
M  V30 1413 H 139.231 1.40444 3.67477 0
M  V30 1414 H 141.246 0.981198 4.86402 0
M  V30 1415 N 140.419 -1.14872 1.07899 0
M  V30 1416 C 141.83 -1.67367 0.827363 0
M  V30 1417 C 142.181 -1.85236 -0.646693 0
M  V30 1418 O 141.306 -1.55974 -1.50004 0
M  V30 1419 C 141.901 -3.04016 1.49532 0
M  V30 1420 C 140.46 -3.53566 1.29106 0
M  V30 1421 C 139.607 -2.29161 1.56143 0
M  V30 1422 H 142.558 -0.990083 1.24028 0
M  V30 1423 H 142.579 -3.69219 0.919643 0
M  V30 1424 H 142.091 -2.90978 2.56814 0
M  V30 1425 H 140.192 -3.71835 0.238713 0
M  V30 1426 H 140.305 -4.34661 2.01511 0
M  V30 1427 H 138.669 -2.34978 0.982717 0
M  V30 1428 H 139.452 -2.18705 2.64619 0
M  V30 1429 N 141.898 -0.863906 -1.31812 0
M  V30 1430 C 143.309 -0.52522 -1.7916 0
M  V30 1431 C 143.66 0.957518 -1.71248 0
M  V30 1432 O 142.785 1.74734 -1.27659 0
M  V30 1433 C 143.38 -0.9466 -3.25307 0
M  V30 1434 C 141.939 -0.659668 -3.70574 0
M  V30 1435 C 141.086 -1.14126 -2.52726 0
M  V30 1436 H 144.037 -1.05022 -1.1898 0
M  V30 1437 H 144.058 -0.266766 -3.79564 0
M  V30 1438 H 143.57 -2.02579 -3.31034 0
M  V30 1439 H 141.671 0.408416 -3.70355 0
M  V30 1440 H 141.784 -1.23245 -4.62977 0
M  V30 1441 H 140.148 -0.561216 -2.4844 0
M  V30 1442 H 140.931 -2.22775 -2.61201 0
M  V30 1443 N 143.376 1.44774 -0.622745 0
M  V30 1444 C 144.653 1.95522 -0.0551974 0
M  V30 1445 C 145.033 1.5649 1.41683 0
M  V30 1446 O 144.381 0.834848 2.12703 0
M  V30 1447 C 144.591 3.4796 -0.269242 0
M  V30 1448 C 145.939 4.24306 -0.158014 0
M  V30 1449 O 146.963 3.55637 -0.200162 0
M  V30 1450 O 145.822 5.46471 -0.0558693 0
M  V30 1451 H 142.916 0.826556 0.0271015 0
M  V30 1452 H 145.462 1.54866 -0.693864 0
M  V30 1453 H 144.234 3.6939 -1.29099 0
M  V30 1454 H 143.857 3.95543 0.403966 0
M  V30 1455 N 144.854 0.36279 1.53368 0
M  V30 1456 C 146.27 0.0116182 1.59596 0
M  V30 1457 C 146.47 -1.47012 1.37803 0
M  V30 1458 O 145.526 -2.23136 1.18181 0
M  V30 1459 C 146.839 0.465052 2.97082 0
M  V30 1460 C 148.387 0.419033 3.10182 0
M  V30 1461 C 148.862 0.848235 4.50077 0
M  V30 1462 N 150.353 0.803183 4.56183 0
M  V30 1463 C 151.088 1.107 5.62613 0
M  V30 1464 N 150.584 1.47996 6.76808 0
M  V30 1465 N 152.377 1.02998 5.52583 0
M  V30 1466 H 144.528 1.32775 1.65785 0
M  V30 1467 H 146.791 0.542518 0.777417 0
M  V30 1468 H 146.497 1.49892 3.18159 0
M  V30 1469 H 146.371 -0.149786 3.76902 0
M  V30 1470 H 148.758 -0.605696 2.88817 0
M  V30 1471 H 148.839 1.06933 2.32377 0
M  V30 1472 H 148.483 1.87107 4.7218 0
M  V30 1473 H 148.413 0.175218 5.26308 0
M  V30 1474 H 150.904 0.52838 3.74188 0
M  V30 1475 H 151.217 1.69613 7.53957 0
M  V30 1476 H 149.562 1.51859 6.78206 0
M  V30 1477 H 152.753 0.737817 4.62249 0
M  V30 1478 H 152.926 1.2701 6.35431 0
M  V30 1479 N 146.332 -1.57332 0.0918853 0
M  V30 1480 C 147.242 -2.17368 -0.882505 0
M  V30 1481 C 148.258 -1.14226 -1.31257 0
M  V30 1482 O 149.434 -1.46582 -1.38115 0
M  V30 1483 C 146.499 -2.73962 -2.12476 0
M  V30 1484 C 145.56 -3.92048 -1.7492 0
M  V30 1485 C 144.793 -4.45933 -2.93223 0
M  V30 1486 O 145.016 -3.98764 -4.07852 0
M  V30 1487 O 143.95 -5.36999 -2.71875 0
M  V30 1488 H 147.776 -3.01031 -0.40172 0
M  V30 1489 H 145.361 -1.48813 -0.132291 0
M  V30 1490 H 147.243 -3.10147 -2.85283 0
M  V30 1491 H 145.918 -1.93347 -2.59613 0
M  V30 1492 H 144.825 -3.6068 -0.993025 0
M  V30 1493 H 146.158 -4.74017 -1.32548 0
M  V30 1494 N 147.81 0.181792 -1.56548 0
M  V30 1495 C 148.72 1.24538 -1.98815 0
M  V30 1496 C 149.736 1.49045 -0.897861 0
M  V30 1497 O 150.912 1.61399 -1.20467 0
M  V30 1498 C 147.977 2.56683 -2.33055 0
M  V30 1499 C 147.038 2.40131 -3.55859 0
M  V30 1500 C 146.271 3.65975 -3.88456 0
M  V30 1501 O 146.494 4.70711 -3.22161 0
M  V30 1502 O 145.428 3.6071 -4.81842 0
M  V30 1503 H 149.254 0.916647 -2.89536 0
M  V30 1504 H 146.839 0.387842 -1.44278 0
M  V30 1505 H 148.721 3.34655 -2.56094 0
M  V30 1506 H 147.396 2.89157 -1.45498 0
M  V30 1507 H 146.303 1.60226 -3.38051 0
M  V30 1508 H 147.636 2.12585 -4.43924 0
M  V30 1509 N 149.288 1.51039 0.449983 0
M  V30 1510 C 150.218 1.74379 1.55288 0
M  V30 1511 C 151.199 0.593236 1.5942 0
M  V30 1512 O 152.384 0.834625 1.7535 0
M  V30 1513 C 149.514 1.85728 2.93466 0
M  V30 1514 C 148.468 3.01078 3.04197 0
M  V30 1515 C 147.794 2.97595 4.44231 0
M  V30 1516 C 149.094 4.41254 2.7945 0
M  V30 1517 H 150.788 2.66725 1.36008 0
M  V30 1518 H 148.334 1.2835 0.652864 0
M  V30 1519 H 150.287 2.0064 3.70569 0
M  V30 1520 H 149.011 0.900207 3.13949 0
M  V30 1521 H 147.67 2.85851 2.29531 0
M  V30 1522 H 147.318 1.99691 4.61663 0
M  V30 1523 H 147.018 3.75046 4.52343 0
M  V30 1524 H 148.542 3.14583 5.23326 0
M  V30 1525 H 149.956 4.56897 3.46292 0
M  V30 1526 H 148.353 5.20315 2.98985 0
M  V30 1527 H 149.423 4.52164 1.75144 0
M  V30 1528 N 150.766 -0.704594 1.40972 0
M  V30 1529 C 152.014 -1.46169 1.39568 0
M  V30 1530 C 152.335 -1.95 0.00253745 0
M  V30 1531 O 151.605 -1.71095 -0.954114 0
M  V30 1532 H 150.185 -0.542326 0.513704 0
M  V30 1533 H 152.847 -0.834553 1.76128 0
M  V30 1534 H 151.943 -2.32922 2.07735 0
M  V30 1535 N 152.244 -1.26651 -0.937939 0
M  V30 1536 C 153.66 -1.03834 -1.21205 0
M  V30 1537 C 153.86 0.234502 -2.00131 0
M  V30 1538 O 152.916 0.942767 -2.3424 0
M  V30 1539 C 154.229 -2.27167 -1.97017 0
M  V30 1540 C 155.777 -2.32101 -2.09996 0
M  V30 1541 C 156.252 -3.55136 -2.8921 0
M  V30 1542 N 157.743 -3.55632 -2.96783 0
M  V30 1543 C 158.478 -4.475 -3.58512 0
M  V30 1544 N 157.974 -5.4966 -4.21717 0
M  V30 1545 N 159.767 -4.35145 -3.55816 0
M  V30 1546 H 151.918 -2.08398 -0.410391 0
M  V30 1547 H 154.181 -0.916031 -0.244114 0
M  V30 1548 H 153.887 -3.19765 -1.46434 0
M  V30 1549 H 153.761 -2.31672 -2.97671 0
M  V30 1550 H 156.148 -1.40015 -2.59769 0
M  V30 1551 H 156.229 -2.31605 -1.08594 0
M  V30 1552 H 155.873 -4.47553 -2.40123 0
M  V30 1553 H 155.803 -3.5288 -3.90875 0
M  V30 1554 H 158.294 -2.81743 -2.51852 0
M  V30 1555 H 158.607 -6.15943 -4.66727 0
M  V30 1556 H 156.952 -5.53514 -4.20294 0
M  V30 1557 H 160.143 -3.5455 -3.05634 0
M  V30 1558 H 160.316 -5.06934 -4.03636 0
M  V30 1559 N 153.722 1.14298 -1.08507 0
M  V30 1560 C 154.672 2.17449 -0.685569 0
M  V30 1561 C 155.656 1.58167 0.295315 0
M  V30 1562 O 156.848 1.76675 0.107172 0
M  V30 1563 C 153.977 3.43161 -0.0975318 0
M  V30 1564 C 153.063 4.09471 -1.10426 0
M  V30 1565 N 153.454 4.51089 -2.28806 0
M  V30 1566 C 151.752 4.35976 -0.940258 0
M  V30 1567 C 152.453 5.02654 -2.9277 0
M  V30 1568 N 151.429 4.96927 -2.20374 0
M  V30 1569 H 155.231 2.47369 -1.587 0
M  V30 1570 H 152.745 1.30992 -0.959936 0
M  V30 1571 H 154.742 4.16388 0.20664 0
M  V30 1572 H 153.402 3.14719 0.798872 0
M  V30 1573 H 154.413 4.44097 -2.66455 0
M  V30 1574 H 151.09 4.17386 -0.0977441 0
M  V30 1575 H 152.48 5.44723 -3.93352 0
M  V30 1576 N 155.201 0.870884 1.31352 0
M  V30 1577 C 156.426 0.495957 2.01383 0
M  V30 1578 C 156.851 -0.904324 1.64935 0
M  V30 1579 O 156.209 -1.59687 0.858466 0
M  V30 1580 C 156.257 0.661433 3.54482 0
M  V30 1581 O 155.361 -0.298851 4.11316 0
M  V30 1582 H 154.702 0.197158 0.634054 0
M  V30 1583 H 157.232 1.17455 1.67527 0
M  V30 1584 H 157.242 0.555072 4.04207 0
M  V30 1585 H 155.917 1.68246 3.8035 0
M  V30 1586 H 154.494 -0.147368 3.72609 0
M  V30 1587 N 156.679 -1.44442 0.630414 0
M  V30 1588 C 157.925 -2.02894 0.143332 0
M  V30 1589 C 158.28 -1.48697 -1.22094 0
M  V30 1590 O 157.573 -0.661171 -1.79831 0
M  V30 1591 C 157.767 -3.57332 0.0697835 0
M  V30 1592 C 157.596 -4.26512 1.42539 0
M  V30 1593 C 156.366 -4.63516 2.01198 0
M  V30 1594 C 158.564 -4.57004 2.35907 0
M  V30 1595 N 156.546 -5.17661 3.30001 0
M  V30 1596 C 157.917 -5.12223 3.49324 0
M  V30 1597 C 159.972 -4.38955 2.34995 0
M  V30 1598 C 158.675 -5.51295 4.62024 0
M  V30 1599 C 160.701 -4.79075 3.46758 0
M  V30 1600 C 160.063 -5.34407 4.58899 0
M  V30 1601 H 156.162 -0.776041 0.0963523 0
M  V30 1602 H 158.746 -1.75945 0.833752 0
M  V30 1603 H 156.917 -3.83894 -0.589915 0
M  V30 1604 H 158.649 -4.02451 -0.42606 0
M  V30 1605 H 155.404 -4.47811 1.54151 0
M  V30 1606 H 155.828 -5.4921 3.95851 0
M  V30 1607 H 160.47 -3.95469 1.49545 0
M  V30 1608 H 158.188 -5.93736 5.48182 0
M  V30 1609 H 161.774 -4.66824 3.47227 0
M  V30 1610 H 160.654 -5.64878 5.4395 0
M  V30 1611 N 158.157 -0.370918 -1.53173 0
M  V30 1612 C 159.12 0.460778 -2.24521 0
M  V30 1613 C 160.12 1.00536 -1.25496 0
M  V30 1614 O 161.31 0.890266 -1.49733 0
M  V30 1615 C 158.442 1.64457 -2.98608 0
M  V30 1616 H 159.635 -0.163613 -2.99453 0
M  V30 1617 H 157.188 -0.122699 -1.55818 0
M  V30 1618 H 157.923 2.30691 -2.2793 0
M  V30 1619 H 157.708 1.26099 -3.7127 0
M  V30 1620 H 159.198 2.23384 -3.5283 0
M  V30 1621 N 159.635 1.57281 -0.100228 0
M  V30 1622 C 160.881 1.94826 0.563101 0
M  V30 1623 C 161.214 0.982475 1.67514 0
M  V30 1624 O 160.489 0.0164069 1.94493 0
M  V30 1625 C 160.772 3.42453 1.11346 0
M  V30 1626 C 160.625 4.498 0.00612081 0
M  V30 1627 C 161.944 3.91506 2.01024 0
M  V30 1628 H 159.063 0.708428 0.203221 0
M  V30 1629 H 161.705 1.8922 -0.171979 0
M  V30 1630 H 159.855 3.47361 1.7399 0
M  V30 1631 H 161.527 4.57 -0.628357 0
M  V30 1632 H 159.77 4.28756 -0.659581 0
M  V30 1633 H 160.441 5.50306 0.432109 0
M  V30 1634 H 162.917 3.88784 1.48278 0
M  V30 1635 H 161.793 4.95358 2.36457 0
M  V30 1636 H 162.054 3.31099 2.92961 0
M  V30 1637 N 161.113 -0.173488 1.56642 0
M  V30 1638 C 162.043 -1.2171 1.99271 0
M  V30 1639 C 163.024 -1.46289 0.867959 0
M  V30 1640 O 164.209 -1.5766 1.13388 0
M  V30 1641 C 161.339 -2.55651 2.35074 0
M  V30 1642 C 160.293 -2.45645 3.50489 0
M  V30 1643 C 159.619 -3.84056 3.72028 0
M  V30 1644 C 160.919 -1.96302 4.84007 0
M  V30 1645 H 162.613 -0.86275 2.867 0
M  V30 1646 H 160.159 -0.413571 1.37933 0
M  V30 1647 H 162.112 -3.2886 2.63494 0
M  V30 1648 H 160.836 -2.92869 1.44552 0
M  V30 1649 H 159.495 -1.7489 3.22194 0
M  V30 1650 H 159.143 -4.18664 2.788 0
M  V30 1651 H 158.843 -3.7823 4.49684 0
M  V30 1652 H 160.367 -4.58854 4.02846 0
M  V30 1653 H 161.781 -2.59284 5.11317 0
M  V30 1654 H 160.178 -2.01429 5.65284 0
M  V30 1655 H 161.248 -0.917226 4.76146 0
M  V30 1656 N 162.591 -1.51276 -0.441967 0
M  V30 1657 C 163.541 -1.6864 -1.53442 0
M  V30 1658 C 164.525 -0.540444 -1.51552 0
M  V30 1659 O 165.717 -0.796157 -1.58083 0
M  V30 1660 C 162.846 -1.8106 -2.91672 0
M  V30 1661 C 161.932 -3.01424 -2.98336 0
M  V30 1662 N 162.323 -4.2467 -2.74752 0
M  V30 1663 C 160.621 -3.00584 -3.29493 0
M  V30 1664 C 161.322 -5.05891 -2.87139 0
M  V30 1665 N 160.298 -4.40442 -3.18609 0
M  V30 1666 H 164.1 -2.61598 -1.33954 0
M  V30 1667 H 161.614 -1.4886 -0.6492 0
M  V30 1668 H 163.611 -1.91609 -3.70259 0
M  V30 1669 H 162.271 -0.892795 -3.12185 0
M  V30 1670 H 163.282 -4.53691 -2.49769 0
M  V30 1671 H 159.959 -2.18417 -3.55809 0
M  V30 1672 H 161.349 -6.13983 -2.72899 0
M  V30 1673 N 164.069 0.697108 -1.41344 0
M  V30 1674 C 165.297 1.48593 -1.43972 0
M  V30 1675 C 165.712 1.88747 -0.0445612 0
M  V30 1676 O 165.069 1.56682 0.935785 0
M  V30 1677 C 165.12 2.74946 -2.34706 0
M  V30 1678 O 164.841 2.36484 -3.68791 0
M  V30 1679 C 166.342 3.687 -2.46121 0
M  V30 1680 H 163.562 0.457964 -0.490418 0
M  V30 1681 H 166.106 0.858429 -1.8561 0
M  V30 1682 H 164.261 3.33937 -1.9638 0
M  V30 1683 H 164.675 3.17918 -4.17167 0
M  V30 1684 H 166.149 4.54145 -3.13777 0
M  V30 1685 H 166.626 4.13081 -1.49199 0
M  V30 1686 H 167.232 3.15613 -2.85076 0
M  V30 1687 N 165.547 1.27147 0.931209 0
M  V30 1688 C 166.477 1.12081 2.04842 0
M  V30 1689 C 167.458 0.0232364 1.70084 0
M  V30 1690 O 168.643 0.197085 1.93197 0
M  V30 1691 C 165.773 0.76354 3.38803 0
M  V30 1692 C 164.727 1.81396 3.87659 0
M  V30 1693 C 164.053 1.31075 5.18385 0
M  V30 1694 C 165.353 3.21739 4.11438 0
M  V30 1695 H 167.047 2.05537 2.17703 0
M  V30 1696 H 164.593 0.989603 1.04608 0
M  V30 1697 H 166.546 0.644982 4.16435 0
M  V30 1698 H 165.27 -0.206727 3.25945 0
M  V30 1699 H 163.929 1.92136 3.12217 0
M  V30 1700 H 163.577 0.330037 5.01916 0
M  V30 1701 H 163.277 2.013 5.52044 0
M  V30 1702 H 164.801 1.20506 5.98591 0
M  V30 1703 H 166.215 3.14019 4.79651 0
M  V30 1704 H 164.612 3.89644 4.56397 0
M  V30 1705 H 165.682 3.67054 3.16859 0
M  V30 1706 N 167.025 -1.13721 1.09112 0
M  V30 1707 C 167.988 -2.17222 0.731241 0
M  V30 1708 C 168.988 -1.59035 -0.237566 0
M  V30 1709 O 170.178 -1.74192 -0.0161704 0
M  V30 1710 C 167.31 -3.40804 0.0808443 0
M  V30 1711 H 168.503 -2.50573 1.64783 0
M  V30 1712 H 166.056 -1.28493 0.889897 0
M  V30 1713 H 166.791 -3.1304 -0.847127 0
M  V30 1714 H 166.576 -3.84306 0.777896 0
M  V30 1715 H 168.066 -4.1731 -0.155657 0
M  V30 1716 N 168.503 -0.877838 -1.30888 0
M  V30 1717 C 169.466 -0.344265 -2.266 0
M  V30 1718 C 170.466 0.50922 -1.52524 0
M  V30 1719 O 171.656 0.317398 -1.71284 0
M  V30 1720 C 168.788 0.510198 -3.37061 0
M  V30 1721 H 169.981 -1.1893 -2.7531 0
M  V30 1722 H 167.534 -0.654088 -1.41956 0
M  V30 1723 H 168.269 1.37612 -2.93655 0
M  V30 1724 H 168.054 -0.101047 -3.9197 0
M  V30 1725 H 169.544 0.875537 -4.08319 0
M  V30 1726 N 169.982 1.44106 -0.638065 0
M  V30 1727 C 171.212 2.06037 -0.152394 0
M  V30 1728 C 171.62 1.47808 1.18108 0
M  V30 1729 O 170.963 0.598092 1.73691 0
M  V30 1730 C 171.025 3.59488 0.0293714 0
M  V30 1731 C 170.689 4.4022 -1.22702 0
M  V30 1732 C 171.686 4.73256 -2.15232 0
M  V30 1733 C 169.371 4.8048 -1.46437 0
M  V30 1734 C 171.365 5.45444 -3.29802 0
M  V30 1735 C 169.052 5.52417 -2.61303 0
M  V30 1736 C 170.05 5.84819 -3.52811 0
M  V30 1737 O 169.738 6.55289 -4.65673 0
M  V30 1738 H 169.47 0.671233 -0.0801401 0
M  V30 1739 H 172.024 1.85851 -0.874563 0
M  V30 1740 H 170.254 3.78191 0.806758 0
M  V30 1741 H 171.943 4.03164 0.470475 0
M  V30 1742 H 172.709 4.42684 -1.98131 0
M  V30 1743 H 168.588 4.54676 -0.760977 0
M  V30 1744 H 172.132 5.70653 -4.01249 0
M  V30 1745 H 168.029 5.82404 -2.78344 0
M  V30 1746 H 168.797 6.73762 -4.64744 0
M  V30 1747 N 171.46 0.379036 1.52974 0
M  V30 1748 C 172.69 -0.20649 2.05566 0
M  V30 1749 C 173.098 -1.41906 1.25137 0
M  V30 1750 O 172.441 -1.81421 0.288464 0
M  V30 1751 C 172.503 -0.651086 3.53555 0
M  V30 1752 C 172.167 0.446626 4.54812 0
M  V30 1753 C 173.164 1.30079 5.03364 0
M  V30 1754 C 170.849 0.610719 4.98573 0
M  V30 1755 C 172.843 2.30426 5.94292 0
M  V30 1756 C 170.53 1.61754 5.89304 0
M  V30 1757 C 171.528 2.46274 6.37054 0
M  V30 1758 O 171.216 3.45237 7.25994 0
M  V30 1759 H 170.948 -0.0372381 0.674974 0
M  V30 1760 H 173.502 0.539718 1.98182 0
M  V30 1761 H 171.732 -1.44911 3.58522 0
M  V30 1762 H 173.421 -1.16112 3.88938 0
M  V30 1763 H 174.187 1.18527 4.70294 0
M  V30 1764 H 170.066 -0.0374044 4.60985 0
M  V30 1765 H 173.61 2.96432 6.31485 0
M  V30 1766 H 169.507 1.73348 6.21788 0
M  V30 1767 H 170.275 3.41124 7.44027 0
M  V30 1768 N 172.938 -1.57226 0.108567 0
M  V30 1769 C 174.349 -1.8195 -0.418464 0
M  V30 1770 C 174.7 -1.02508 -1.67292 0
M  V30 1771 O 173.825 -0.258496 -2.14851 0
M  V30 1772 C 174.42 -3.30028 -0.765979 0
M  V30 1773 C 172.979 -3.55469 -1.23769 0
M  V30 1774 C 172.126 -2.7625 -0.241106 0
M  V30 1775 H 175.077 -1.55149 0.33384 0
M  V30 1776 H 175.098 -3.44086 -1.62434 0
M  V30 1777 H 174.61 -3.87821 0.147219 0
M  V30 1778 H 172.711 -3.03022 -2.16814 0
M  V30 1779 H 172.824 -4.6408 -1.19022 0
M  V30 1780 H 171.188 -2.44133 -0.72602 0
M  V30 1781 H 171.971 -3.36797 0.665007 0
M  V30 1782 N 174.416 0.165178 -1.56732 0
M  V30 1783 C 175.693 0.908443 -1.73224 0
M  V30 1784 C 176.073 2.0013 -0.67165 0
M  V30 1785 O 175.421 2.26353 0.31253 0
M  V30 1786 C 175.631 1.46756 -3.16644 0
M  V30 1787 C 176.979 1.93809 -3.77787 0
M  V30 1788 O 178.003 1.56537 -3.1996 0
M  V30 1789 O 176.862 2.62486 -4.79336 0
M  V30 1790 H 173.956 0.428025 -0.707618 0
M  V30 1791 H 176.502 0.152526 -1.69013 0
M  V30 1792 H 175.274 0.68129 -3.85323 0
M  V30 1793 H 174.897 2.28749 -3.25207 0
M  V30 1794 N 175.894 1.51508 0.433938 0
M  V30 1795 C 176.824 1.76016 1.53429 0
M  V30 1796 C 177.805 0.610112 1.58782 0
M  V30 1797 O 178.99 0.853177 1.74455 0
M  V30 1798 C 176.12 1.88831 2.9148 0
M  V30 1799 C 175.074 3.04288 3.00987 0
M  V30 1800 C 174.4 3.0229 4.4105 0
M  V30 1801 C 175.7 4.44193 2.74754 0
M  V30 1802 H 177.394 2.68152 1.33171 0
M  V30 1803 H 174.94 1.29035 0.639214 0
M  V30 1804 H 176.893 2.04559 3.6842 0
M  V30 1805 H 175.617 0.933455 3.12976 0
M  V30 1806 H 174.276 2.8827 2.26486 0
M  V30 1807 H 173.924 2.04576 4.59519 0
M  V30 1808 H 173.624 3.79822 4.4834 0
M  V30 1809 H 175.148 3.20116 5.1996 0
M  V30 1810 H 176.562 4.60544 3.41426 0
M  V30 1811 H 174.959 5.23457 2.9345 0
M  V30 1812 H 176.029 4.53996 1.70339 0
M  V30 1813 N 177.372 -0.689602 1.41712 0
M  V30 1814 C 178.783 -1.26973 1.36875 0
M  V30 1815 C 179.134 -1.96124 0.054748 0
M  V30 1816 O 178.259 -1.99141 -0.84687 0
M  V30 1817 C 178.854 -2.30912 2.47922 0
M  V30 1818 C 177.413 -2.84486 2.46464 0
M  V30 1819 C 176.56 -1.58603 2.27465 0
M  V30 1820 H 179.511 -0.48396 1.51141 0
M  V30 1821 H 179.532 -3.12331 2.17323 0
M  V30 1822 H 179.044 -1.80554 3.43543 0
M  V30 1823 H 177.145 -3.39005 1.54617 0
M  V30 1824 H 177.258 -3.34511 3.42986 0
M  V30 1825 H 175.622 -1.84632 1.75451 0
M  V30 1826 H 176.405 -1.10233 3.25121 0
M  V30 1827 N 178.85 -1.27639 -0.924453 0
M  V30 1828 C 180.078 -1.16989 -1.70649 0
M  V30 1829 C 180.493 0.272869 -1.86818 0
M  V30 1830 O 179.85 1.18549 -1.38753 0
M  V30 1831 C 179.901 -1.85229 -3.10439 0
M  V30 1832 O 179.622 -3.23868 -2.95028 0
M  V30 1833 C 181.123 -1.80746 -4.04779 0
M  V30 1834 H 178.343 -0.406595 -0.53378 0
M  V30 1835 H 180.887 -1.68569 -1.15778 0
M  V30 1836 H 179.042 -1.37545 -3.6216 0
M  V30 1837 H 179.456 -3.57889 -3.83426 0
M  V30 1838 H 180.93 -2.33101 -5.00368 0
M  V30 1839 H 181.407 -0.777499 -4.32263 0
M  V30 1840 H 182.013 -2.28059 -3.58984 0
M  V30 1841 N 180.328 1.1314 -1.09713 0
M  V30 1842 C 181.739 1.66029 -0.853885 0
M  V30 1843 C 182.09 1.86241 0.617142 0
M  V30 1844 O 181.215 1.5834 1.47503 0
M  V30 1845 C 181.81 3.01599 -1.5435 0
M  V30 1846 C 180.369 3.51467 -1.34714 0
M  V30 1847 C 179.516 2.26648 -1.59769 0
M  V30 1848 H 182.467 0.970226 -1.25588 0
M  V30 1849 H 182.488 3.67709 -0.978267 0
M  V30 1850 H 182 2.86856 -2.6141 0
M  V30 1851 H 180.101 3.71408 -0.297838 0
M  V30 1852 H 180.214 4.314 -2.08401 0
M  V30 1853 H 178.578 2.33385 -1.01998 0
M  V30 1854 H 179.361 2.14467 -2.68065 0
M  V30 1855 N 181.806 0.884767 1.30421 0
M  V30 1856 C 182.716 0.355398 2.31892 0
M  V30 1857 C 183.732 -0.542261 1.65335 0
M  V30 1858 O 184.908 -0.435432 1.96637 0
M  V30 1859 C 181.973 -0.421661 3.44126 0
M  V30 1860 C 181.034 0.505727 4.26311 0
M  V30 1861 C 180.267 -0.234343 5.33185 0
M  V30 1862 O 180.49 -1.46045 5.51386 0
M  V30 1863 O 179.424 0.415443 6.00465 0
M  V30 1864 H 183.25 1.19685 2.79122 0
M  V30 1865 H 180.835 0.648596 1.34587 0
M  V30 1866 H 182.717 -0.861641 4.12497 0
M  V30 1867 H 181.392 -1.23942 2.99032 0
M  V30 1868 H 180.299 0.994513 3.60639 0
M  V30 1869 H 181.632 1.28948 4.75009 0
M  V30 1870 N 183.284 -1.43765 0.645699 0
M  V30 1871 C 184.216 -2.29027 -0.0890605 0
M  V30 1872 C 185.229 -1.42093 -0.794563 0
M  V30 1873 O 186.418 -1.66104 -0.653575 0
M  V30 1874 C 183.518 -3.18831 -1.14891 0
M  V30 1875 C 182.691 -4.34261 -0.523043 0
M  V30 1876 C 181.75 -5.04994 -1.47878 0
M  V30 1877 O 180.776 -5.6052 -0.990277 0
M  V30 1878 N 181.978 -5.07795 -2.81291 0
M  V30 1879 H 184.743 -2.92727 0.64272 0
M  V30 1880 H 182.304 -1.54373 0.487924 0
M  V30 1881 H 184.296 -3.63015 -1.78892 0
M  V30 1882 H 182.866 -2.56782 -1.78275 0
M  V30 1883 H 182.086 -3.93088 0.295896 0
M  V30 1884 H 183.374 -5.08728 -0.0858147 0
M  V30 1885 H 182.772 -4.64042 -3.23546 0
M  V30 1886 H 181.329 -5.55721 -3.40614 0
M  V30 1887 N 184.763 -0.387143 -1.52771 0
M  V30 1888 C 185.695 0.484089 -2.2403 0
M  V30 1889 C 186.708 1.02849 -1.26198 0
M  V30 1890 O 187.897 0.931186 -1.52286 0
M  V30 1891 C 184.997 1.68337 -2.94136 0
M  V30 1892 C 184.17 1.26672 -4.18656 0
M  V30 1893 C 183.229 2.33045 -4.7178 0
M  V30 1894 O 182.255 1.94541 -5.34923 0
M  V30 1895 N 183.457 3.64929 -4.5145 0
M  V30 1896 H 186.222 -0.126404 -2.99433 0
M  V30 1897 H 183.783 -0.213392 -1.60488 0
M  V30 1898 H 185.775 2.39019 -3.26577 0
M  V30 1899 H 184.345 2.20025 -2.22053 0
M  V30 1900 H 183.565 0.388878 -3.92277 0
M  V30 1901 H 184.853 0.964964 -4.99566 0
M  V30 1902 H 184.251 3.98974 -4.01044 0
M  V30 1903 H 182.808 4.31651 -4.88386 0
M  V30 1904 N 186.241 1.57166 -0.116904 0
M  V30 1905 C 187.173 2.12271 0.864507 0
M  V30 1906 C 188.186 1.06494 1.23138 0
M  V30 1907 O 189.375 1.33873 1.18069 0
M  V30 1908 C 186.475 2.60564 2.16702 0
M  V30 1909 C 185.648 3.90416 1.97216 0
M  V30 1910 C 184.707 4.24329 3.11178 0
M  V30 1911 O 183.733 4.93182 2.84184 0
M  V30 1912 N 184.935 3.8148 4.37554 0
M  V30 1913 H 187.7 2.97102 0.393726 0
M  V30 1914 H 185.261 1.61759 0.0675805 0
M  V30 1915 H 187.253 2.80282 2.91932 0
M  V30 1916 H 185.823 1.80623 2.55135 0
M  V30 1917 H 185.043 3.79627 1.06192 0
M  V30 1918 H 186.331 4.75327 1.81499 0
M  V30 1919 H 185.729 3.25943 4.62361 0
M  V30 1920 H 184.286 4.06311 5.09661 0
M  V30 1921 N 187.719 -0.156864 1.56817 0
M  V30 1922 C 188.996 -0.899244 1.73704 0
M  V30 1923 C 189.376 -1.99771 0.682254 0
M  V30 1924 O 188.724 -2.26515 -0.300522 0
M  V30 1925 C 188.934 -1.45075 3.17418 0
M  V30 1926 C 190.282 -1.91802 3.7881 0
M  V30 1927 O 191.306 -1.54838 3.20786 0
M  V30 1928 O 190.165 -2.5994 4.80722 0
M  V30 1929 H 187.259 -0.424267 0.709878 0
M  V30 1930 H 189.805 -0.143561 1.69092 0
M  V30 1931 H 188.577 -0.660846 3.85679 0
M  V30 1932 H 188.2 -2.27021 3.26416 0
M  V30 1933 N 189.197 -1.51736 -0.425897 0
M  V30 1934 C 190.13 -1.68574 -1.53812 0
M  V30 1935 C 191.108 -0.53328 -1.53606 0
M  V30 1936 O 192.292 -0.758555 -1.72564 0
M  V30 1937 C 189.419 -1.70977 -2.92377 0
M  V30 1938 C 188.465 -2.92324 -3.10563 0
M  V30 1939 S 189.298 -4.52952 -2.85648 0
M  V30 1940 C 190.454 -4.58117 -4.26474 0
M  V30 1941 H 190.687 -2.62647 -1.39298 0
M  V30 1942 H 188.22 -1.41564 -0.616361 0
M  V30 1943 H 190.178 -1.73047 -3.72243 0
M  V30 1944 H 188.839 -0.78061 -3.04245 0
M  V30 1945 H 188.032 -2.90439 -4.11899 0
M  V30 1946 H 187.634 -2.88055 -2.38538 0
M  V30 1947 H 189.926 -4.34462 -5.19855 0
M  V30 1948 H 190.869 -5.59983 -4.33388 0
M  V30 1949 H 191.277 -3.8732 -4.10662 0
M  V30 1950 N 190.675 0.682077 -1.42076 0
M  V30 1951 C 191.638 1.77756 -1.44691 0
M  V30 1952 C 192.638 1.5726 -0.335535 0
M  V30 1953 O 193.828 1.63686 -0.596037 0
M  V30 1954 C 190.96 3.16301 -1.27146 0
M  V30 1955 H 192.153 1.76826 -2.42224 0
M  V30 1956 H 189.706 0.891012 -1.28416 0
M  V30 1957 H 190.441 3.22862 -0.305075 0
M  V30 1958 H 190.226 3.32581 -2.07683 0
M  V30 1959 H 191.716 3.96241 -1.31843 0
M  V30 1960 N 192.153 1.28127 0.917671 0
M  V30 1961 C 193.085 1.07517 2.02417 0
M  V30 1962 C 194.098 0.0281099 1.62776 0
M  V30 1963 O 195.287 0.270748 1.76435 0
M  V30 1964 C 192.387 0.610957 3.33347 0
M  V30 1965 C 191.56 1.73255 4.01624 0
M  V30 1966 C 190.619 1.26238 5.10833 0
M  V30 1967 O 189.645 1.96389 5.34247 0
M  V30 1968 N 190.847 0.123448 5.80369 0
M  V30 1969 H 193.612 2.02806 2.20658 0
M  V30 1970 H 191.173 1.19827 1.08871 0
M  V30 1971 H 193.165 0.280101 4.0373 0
M  V30 1972 H 191.735 -0.24898 3.11607 0
M  V30 1973 H 190.955 2.23319 3.24842 0
M  V30 1974 H 192.243 2.48503 4.43986 0
M  V30 1975 H 191.641 -0.461847 5.63812 0
M  V30 1976 H 190.198 -0.148158 6.51632 0
M  V30 1977 N 193.631 -1.12557 1.10312 0
M  V30 1978 C 194.878 -1.84038 0.844759 0
M  V30 1979 C 195.206 -1.84026 -0.629668 0
M  V30 1980 O 194.461 -1.28026 -1.48013 0
M  V30 1981 C 194.76 -3.31462 1.33669 0
M  V30 1982 C 194.426 -3.51647 2.82232 0
M  V30 1983 C 193.088 -3.56864 3.22802 0
M  V30 1984 C 195.44 -3.58867 3.77974 0
M  V30 1985 C 192.768 -3.66844 4.57867 0
M  V30 1986 C 195.12 -3.70375 5.1284 0
M  V30 1987 C 193.784 -3.73848 5.52986 0
M  V30 1988 H 193.054 -0.673444 0.309119 0
M  V30 1989 H 195.701 -1.32824 1.37949 0
M  V30 1990 H 194.006 -3.85091 0.721949 0
M  V30 1991 H 195.703 -3.85236 1.11329 0
M  V30 1992 H 192.293 -3.48249 2.49842 0
M  V30 1993 H 196.477 -3.54107 3.47738 0
M  V30 1994 H 191.733 -3.67804 4.88396 0
M  V30 1995 H 195.907 -3.74904 5.86873 0
M  V30 1996 H 193.534 -3.81333 6.57639 0
M  V30 1997 N 195.109 -0.891671 -1.2995 0
M  V30 1998 C 196.358 -0.509521 -1.95158 0
M  V30 1999 C 196.671 0.947388 -1.71125 0
M  V30 2000 O 197.877 1.43669 -2.30372 0
M  V30 2001 C 196.333 -0.860315 -3.49466 0
M  V30 2002 C 195.941 -2.33545 -3.8231 0
M  V30 2003 C 197.685 -0.547687 -4.20952 0
M  V30 2004 C 195.592 -2.62752 -5.29826 0
M  V30 2005 H 194.522 -0.18682 -0.730489 0
M  V30 2006 H 197.173 -1.08756 -1.47798 0
M  V30 2007 H 195.555 -0.211285 -3.95436 0
M  V30 2008 H 196.729 -3.02936 -3.47227 0
M  V30 2009 H 195.044 -2.61629 -3.23944 0
M  V30 2010 H 197.641 -0.742854 -5.29515 0
M  V30 2011 H 197.984 0.51332 -4.13123 0
M  V30 2012 H 198.517 -1.1542 -3.80688 0
M  V30 2013 H 195.256 -3.6762 -5.42712 0
M  V30 2014 H 194.776 -1.97977 -5.66185 0
M  V30 2015 H 196.455 -2.48601 -5.97333 0
M  V30 2016 N 196.587 1.43421 -0.653314 0
M  V30 2017 C 197.537 2.2792 0.060558 0
M  V30 2018 C 198.521 1.39906 0.794677 0
M  V30 2019 O 199.713 1.63536 0.677128 0
M  V30 2020 C 196.842 3.27603 1.0262 0
M  V30 2021 C 195.928 4.23104 0.290551 0
M  V30 2022 N 196.319 5.01031 -0.692967 0
M  V30 2023 C 194.617 4.42816 0.531984 0
M  V30 2024 C 195.318 5.70626 -1.12963 0
M  V30 2025 N 194.294 5.41617 -0.463867 0
M  V30 2026 H 198.096 2.85585 -0.694143 0
M  V30 2027 H 195.61 1.55126 -0.480602 0
M  V30 2028 H 197.607 3.86918 1.55242 0
M  V30 2029 H 196.267 2.71499 1.78096 0
M  V30 2030 H 197.278 5.0669 -1.07169 0
M  V30 2031 H 193.955 3.97782 1.26791 0
M  V30 2032 H 195.345 6.4318 -1.94343 0
M  V30 2033 N 198.065 0.39524 1.52563 0
M  V30 2034 C 198.995 -0.428384 2.29537 0
M  V30 2035 C 199.976 -1.05831 1.33169 0
M  V30 2036 O 201.161 -1.06995 1.62067 0
M  V30 2037 C 198.291 -1.55274 3.10656 0
M  V30 2038 C 197.245 -1.04855 4.14957 0
M  V30 2039 C 196.571 -2.26543 4.84337 0
M  V30 2040 C 197.871 -0.112324 5.22179 0
M  V30 2041 H 199.565 0.213867 2.98635 0
M  V30 2042 H 197.111 0.104298 1.43622 0
M  V30 2043 H 199.064 -2.1358 3.63265 0
M  V30 2044 H 197.788 -2.22266 2.39302 0
M  V30 2045 H 196.447 -0.487985 3.63338 0
M  V30 2046 H 196.095 -2.92059 4.09525 0
M  V30 2047 H 195.795 -1.93466 5.54837 0
M  V30 2048 H 197.319 -2.85481 5.39753 0
M  V30 2049 H 198.733 -0.603752 5.70112 0
M  V30 2050 H 197.13 0.128968 5.99961 0
M  V30 2051 H 198.2 0.837052 4.77621 0
M  V30 2052 N 199.544 -1.57102 0.125237 0
M  V30 2053 C 200.791 -1.95407 -0.531248 0
M  V30 2054 C 201.119 -1.0089 -1.66287 0
M  V30 2055 O 200.374 -0.0339431 -1.95671 0
M  V30 2056 C 200.673 -3.40096 -1.09862 0
M  V30 2057 C 200.339 -4.50815 -0.0876989 0
M  V30 2058 C 199.001 -4.80824 0.19026 0
M  V30 2059 C 201.353 -5.17724 0.600902 0
M  V30 2060 C 198.681 -5.75058 1.163 0
M  V30 2061 C 201.033 -6.13005 1.56231 0
M  V30 2062 C 199.697 -6.41403 1.8482 0
M  V30 2063 H 198.967 -0.715046 -0.194397 0
M  V30 2064 H 201.614 -1.90373 0.207463 0
M  V30 2065 H 199.919 -3.41855 -1.91422 0
M  V30 2066 H 201.616 -3.6705 -1.61478 0
M  V30 2067 H 198.206 -4.27444 -0.314528 0
M  V30 2068 H 202.39 -4.94691 0.399333 0
M  V30 2069 H 197.646 -5.95362 1.39117 0
M  V30 2070 H 201.82 -6.63934 2.10153 0
M  V30 2071 H 199.447 -7.14229 2.60349 0
M  V30 2072 N 201.022 0.148545 -1.56898 0
M  V30 2073 C 202.247 0.880385 -1.87787 0
M  V30 2074 C 202.672 1.74018 -0.714093 0
M  V30 2075 O 202.03 1.78153 0.336343 0
M  V30 2076 C 202.078 1.71422 -3.17249 0
M  V30 2077 O 201.182 2.8183 -3.01074 0
M  V30 2078 H 200.523 0.245301 -0.617028 0
M  V30 2079 H 203.053 0.139826 -2.04122 0
M  V30 2080 H 203.063 2.10954 -3.49231 0
M  V30 2081 H 201.738 1.08284 -4.01556 0
M  V30 2082 H 200.315 2.45715 -2.80497 0
M  V30 2083 N 202.5 1.5196 0.417844 0
M  V30 2084 C 203.447 1.74678 1.50852 0
M  V30 2085 C 204.417 0.588947 1.55308 0
M  V30 2086 O 205.602 0.825544 1.72016 0
M  V30 2087 C 202.742 1.89544 2.88387 0
M  V30 2088 C 201.855 3.17166 2.93309 0
M  V30 2089 C 200.99 3.22513 4.22088 0
M  V30 2090 C 200.029 4.44372 4.20951 0
M  V30 2091 N 199.166 4.47161 5.41287 0
M  V30 2092 H 204.006 2.67768 1.30783 0
M  V30 2093 H 201.543 1.32689 0.63498 0
M  V30 2094 H 203.501 1.96146 3.68216 0
M  V30 2095 H 202.131 0.998424 3.06971 0
M  V30 2096 H 201.183 3.19778 2.06024 0
M  V30 2097 H 202.495 4.07021 2.88332 0
M  V30 2098 H 201.649 3.28139 5.10303 0
M  V30 2099 H 200.388 2.30581 4.29748 0
M  V30 2100 H 199.393 4.38902 3.31127 0
M  V30 2101 H 200.618 5.3759 4.14938 0
M  V30 2102 H 198.564 3.58108 5.49632 0
M  V30 2103 H 198.481 5.3085 5.3827 0
M  V30 2104 H 199.749 4.57005 6.3148 0
M  V30 2105 N 203.978 -0.674533 1.42435 0
M  V30 2106 C 205.225 -1.43459 1.42919 0
M  V30 2107 C 205.553 -1.94446 0.0457312 0
M  V30 2108 O 204.808 -1.7132 -0.94593 0
M  V30 2109 C 205.107 -2.64767 2.40069 0
M  V30 2110 C 204.773 -2.3232 3.86443 0
M  V30 2111 C 203.435 -2.23182 4.26314 0
M  V30 2112 C 205.787 -2.05977 4.78773 0
M  V30 2113 C 203.115 -1.85827 5.56494 0
M  V30 2114 C 205.467 -1.70125 6.09295 0
M  V30 2115 C 204.131 -1.59498 6.48164 0
M  V30 2116 H 203.401 -0.524952 0.522978 0
M  V30 2117 H 206.048 -0.769097 1.75377 0
M  V30 2118 H 204.353 -3.36349 2.00939 0
M  V30 2119 H 206.05 -3.22949 2.37707 0
M  V30 2120 H 202.64 -2.40334 3.54877 0
M  V30 2121 H 206.824 -2.11969 4.48757 0
M  V30 2122 H 202.08 -1.76168 5.8547 0
M  V30 2123 H 206.254 -1.48767 6.80324 0
M  V30 2124 H 203.881 -1.30322 7.48946 0
M  V30 2125 N 205.456 -1.28612 -0.910864 0
M  V30 2126 C 206.686 -1.1862 -1.69153 0
M  V30 2127 C 207.094 0.257324 -1.87442 0
M  V30 2128 O 206.437 1.18543 -1.40332 0
M  V30 2129 C 206.499 -1.81606 -3.10257 0
M  V30 2130 C 206.163 -3.30864 -3.15243 0
M  V30 2131 C 207.16 -4.27256 -2.96223 0
M  V30 2132 C 204.845 -3.71871 -3.37664 0
M  V30 2133 C 206.839 -5.62631 -2.99541 0
M  V30 2134 C 204.526 -5.07371 -3.40614 0
M  V30 2135 C 205.524 -6.02561 -3.21573 0
M  V30 2136 O 205.212 -7.35589 -3.2429 0
M  V30 2137 H 204.944 -0.412633 -0.535453 0
M  V30 2138 H 207.498 -1.70306 -1.14827 0
M  V30 2139 H 205.728 -1.24418 -3.66138 0
M  V30 2140 H 207.417 -1.66092 -3.70362 0
M  V30 2141 H 208.183 -3.9691 -2.78725 0
M  V30 2142 H 204.062 -2.98241 -3.5153 0
M  V30 2143 H 207.606 -6.36907 -2.84597 0
M  V30 2144 H 203.503 -5.37366 -3.57642 0
M  V30 2145 H 204.271 -7.44252 -3.40633 0
M  V30 2146 N 206.934 1.1197 -1.10907 0
M  V30 2147 C 208.345 1.65114 -0.871446 0
M  V30 2148 C 208.696 1.86885 0.597353 0
M  V30 2149 O 207.821 1.59896 1.45816 0
M  V30 2150 C 208.416 2.99944 -1.5754 0
M  V30 2151 C 206.975 3.50018 -1.38435 0
M  V30 2152 C 206.122 2.24941 -1.62164 0
M  V30 2153 H 209.073 0.956851 -1.2661 0
M  V30 2154 H 209.094 3.66651 -1.01721 0
M  V30 2155 H 208.606 2.84067 -2.64438 0
M  V30 2156 H 206.707 3.71071 -0.337214 0
M  V30 2157 H 206.82 4.29165 -2.12965 0
M  V30 2158 H 205.184 2.3229 -1.04467 0
M  V30 2159 H 205.967 2.11612 -2.70324 0
M  V30 2160 N 208.412 0.89855 1.29475 0
M  V30 2161 C 209.652 0.530771 1.97388 0
M  V30 2162 C 210.016 -0.905832 1.69289 0
M  V30 2163 O 211.217 -1.38042 2.30646 0
M  V30 2164 C 209.488 0.81369 3.48014 0
M  V30 2165 S 211.047 0.550048 4.35339 0
M  V30 2166 H 207.865 0.196956 0.683176 0
M  V30 2167 H 210.467 1.16074 1.57312 0
M  V30 2168 H 209.171 1.85749 3.65958 0
M  V30 2169 H 208.702 0.171795 3.93025 0
M  V30 2170 H 210.717 -0.605423 4.92493 0
M  V30 2171 N 209.89 -1.43072 0.660911 0
M  V30 2172 C 210.8 -2.34585 -0.0264163 0
M  V30 2173 C 211.816 -1.54316 -0.803898 0
M  V30 2174 O 212.992 -1.86939 -0.749391 0
M  V30 2175 C 210.057 -3.32689 -0.975639 0
M  V30 2176 C 209.118 -4.2886 -0.194236 0
M  V30 2177 C 208.351 -5.22278 -1.09825 0
M  V30 2178 O 208.574 -5.20299 -2.33763 0
M  V30 2179 O 207.508 -5.99228 -0.566513 0
M  V30 2180 H 211.334 -2.94869 0.727034 0
M  V30 2181 H 208.919 -1.43342 0.42111 0
M  V30 2182 H 210.801 -3.92995 -1.52094 0
M  V30 2183 H 209.476 -2.74898 -1.70918 0
M  V30 2184 H 208.383 -3.72011 0.394835 0
M  V30 2185 H 209.716 -4.89655 0.499899 0
M  V30 2186 N 211.368 -0.403325 -1.52352 0
M  V30 2187 C 212.278 0.432009 -2.30588 0
M  V30 2188 C 213.294 1.05884 -1.38075 0
M  V30 2189 O 214.47 1.06161 -1.71148 0
M  V30 2190 C 211.535 1.53669 -3.10784 0
M  V30 2191 C 210.596 0.933525 -4.19027 0
M  V30 2192 C 209.829 1.98557 -4.9539 0
M  V30 2193 O 210.052 3.20283 -4.71991 0
M  V30 2194 O 208.986 1.59504 -5.80381 0
M  V30 2195 H 212.812 -0.205739 -3.03002 0
M  V30 2196 H 210.397 -0.166675 -1.48467 0
M  V30 2197 H 212.279 2.17814 -3.60742 0
M  V30 2198 H 210.954 2.15915 -2.41169 0
M  V30 2199 H 209.861 0.254954 -3.7323 0
M  V30 2200 H 211.194 0.35508 -4.90918 0
M  V30 2201 N 212.846 1.57033 -0.133567 0
M  V30 2202 C 214.086 1.97575 0.523789 0
M  V30 2203 C 214.45 1.01605 1.62912 0
M  V30 2204 O 215.651 1.3114 2.3464 0
M  V30 2205 C 213.922 3.42256 1.02935 0
M  V30 2206 S 215.481 4.04817 1.69319 0
M  V30 2207 H 212.299 0.690427 0.169799 0
M  V30 2208 H 214.901 1.94234 -0.222101 0
M  V30 2209 H 213.605 4.09842 0.213917 0
M  V30 2210 H 213.136 3.4928 1.81017 0
M  V30 2211 H 215.151 3.96767 2.97977 0
M  V30 2212 N 214.325 -0.140222 1.56975 0
M  V30 2213 C 215.288 -1.15689 1.97861 0
M  V30 2214 C 216.288 -1.3549 0.865974 0
M  V30 2215 O 217.478 -1.32367 1.13246 0
M  V30 2216 C 214.61 -2.51582 2.30042 0
M  V30 2217 H 215.803 -0.805971 2.88867 0
M  V30 2218 H 213.356 -0.383801 1.51515 0
M  V30 2219 H 214.091 -2.91632 1.41849 0
M  V30 2220 H 213.876 -2.38569 3.11171 0
M  V30 2221 H 215.366 -3.24792 2.62488 0
M  V30 2222 N 215.803 -1.52179 -0.40978 0
M  V30 2223 C 216.713 -1.78364 -1.52392 0
M  V30 2224 C 217.729 -0.669183 -1.60617 0
M  V30 2225 O 218.905 -0.954518 -1.77344 0
M  V30 2226 C 215.97 -1.92822 -2.88133 0
M  V30 2227 C 215.031 -3.16725 -2.898 0
M  V30 2228 C 214.264 -3.30483 -4.19067 0
M  V30 2229 O 214.487 -2.49522 -5.12928 0
M  V30 2230 O 213.421 -4.2363 -4.27576 0
M  V30 2231 H 217.247 -2.72931 -1.33201 0
M  V30 2232 H 214.832 -1.37016 -0.59557 0
M  V30 2233 H 216.714 -2.04157 -3.68643 0
M  V30 2234 H 215.389 -1.01444 -3.07393 0
M  V30 2235 H 214.296 -3.10848 -2.08146 0
M  V30 2236 H 215.629 -4.07881 -2.75489 0
M  V30 2237 N 217.281 0.66697 -1.42791 0
M  V30 2238 C 218.558 1.4234 -1.34159 0
M  V30 2239 C 218.938 2.11093 0.0172729 0
M  V30 2240 O 218.286 2.03808 1.03318 0
M  V30 2241 C 218.496 2.41942 -2.51526 0
M  V30 2242 C 219.844 3.06353 -2.93995 0
M  V30 2243 O 220.868 2.52269 -2.51473 0
M  V30 2244 O 219.727 4.04376 -3.67617 0
M  V30 2245 H 216.821 0.635277 -0.529483 0
M  V30 2246 H 219.367 0.695034 -1.54814 0
M  V30 2247 H 218.139 1.89991 -3.42081 0
M  V30 2248 H 217.762 3.22249 -2.32898 0
M  V30 2249 N 218.759 1.29093 0.90403 0
M  V30 2250 C 219.689 1.16401 2.02418 0
M  V30 2251 C 220.67 0.0593085 1.69997 0
M  V30 2252 O 221.855 0.238021 1.92736 0
M  V30 2253 C 218.985 0.835233 3.37107 0
M  V30 2254 C 217.939 1.89578 3.83724 0
M  V30 2255 C 217.265 1.42041 5.15489 0
M  V30 2256 C 218.565 3.30394 4.04521 0
M  V30 2257 H 220.259 2.10109 2.13295 0
M  V30 2258 H 217.805 1.01157 1.02486 0
M  V30 2259 H 219.758 0.733169 4.14973 0
M  V30 2260 H 218.482 -0.137543 3.2631 0
M  V30 2261 H 217.141 1.98715 3.08071 0
M  V30 2262 H 216.789 0.436426 5.01103 0
M  V30 2263 H 216.489 2.12964 5.4765 0
M  V30 2264 H 218.013 1.33176 5.959 0
M  V30 2265 H 219.427 3.24123 4.72882 0
M  V30 2266 H 217.824 3.99237 4.48029 0
M  V30 2267 H 218.894 3.73692 3.09002 0
M  V30 2268 N 220.237 -1.11381 1.11499 0
M  V30 2269 C 221.653 -1.35143 0.849031 0
M  V30 2270 C 221.853 -1.94515 -0.525938 0
M  V30 2271 O 220.909 -2.1785 -1.27662 0
M  V30 2272 C 222.222 -2.28249 1.95762 0
M  V30 2273 C 223.77 -2.41812 1.98736 0
M  V30 2274 C 224.245 -3.3824 3.088 0
M  V30 2275 N 225.736 -3.45803 3.08179 0
M  V30 2276 C 226.471 -4.20358 3.89982 0
M  V30 2277 N 225.967 -4.97884 4.8175 0
M  V30 2278 N 227.76 -4.15877 3.78157 0
M  V30 2279 H 219.911 -0.712062 2.00109 0
M  V30 2280 H 222.174 -0.376025 0.870235 0
M  V30 2281 H 221.88 -1.91817 2.94787 0
M  V30 2282 H 221.754 -3.28473 1.85433 0
M  V30 2283 H 224.141 -2.77518 1.00338 0
M  V30 2284 H 224.222 -1.41437 2.13141 0
M  V30 2285 H 223.866 -3.03261 4.07425 0
M  V30 2286 H 223.796 -4.38471 2.91635 0
M  V30 2287 H 226.287 -2.90506 2.41691 0
M  V30 2288 H 226.6 -5.52142 5.40702 0
M  V30 2289 H 224.945 -4.97043 4.85771 0
M  V30 2290 H 228.136 -3.544 3.05808 0
M  V30 2291 H 228.309 -4.73723 4.42143 0
M  V30 2292 N 221.715 -0.905404 -1.28997 0
M  V30 2293 C 222.662 -0.385892 -2.27551 0
M  V30 2294 C 223.632 0.535113 -1.57244 0
M  V30 2295 O 224.817 0.459119 -1.85194 0
M  V30 2296 C 221.957 0.375461 -3.43051 0
M  V30 2297 C 221.07 -0.577092 -4.28128 0
M  V30 2298 C 220.205 0.201879 -5.30816 0
M  V30 2299 C 219.244 -0.744829 -6.07551 0
M  V30 2300 N 218.381 9.42587e-05 -7.021 0
M  V30 2301 H 223.221 -1.23139 -2.71368 0
M  V30 2302 H 220.758 -0.618542 -1.33463 0
M  V30 2303 H 222.716 0.832992 -4.088 0
M  V30 2304 H 221.346 1.18537 -3.00248 0
M  V30 2305 H 220.398 -1.15315 -3.62501 0
M  V30 2306 H 221.71 -1.30152 -4.8152 0
M  V30 2307 H 220.864 0.720351 -6.02408 0
M  V30 2308 H 219.603 0.959413 -4.7817 0
M  V30 2309 H 218.608 -1.27475 -5.34818 0
M  V30 2310 H 219.833 -1.50178 -6.62286 0
M  V30 2311 H 217.779 0.739791 -6.51815 0
M  V30 2312 H 217.696 -0.664321 -7.53076 0
M  V30 2313 H 218.964 0.498644 -7.77903 0
M  V30 2314 N 223.193 1.4272 -0.668489 0
M  V30 2315 C 224.609 1.55992 -0.33745 0
M  V30 2316 C 224.809 1.64933 1.15756 0
M  V30 2317 O 223.865 1.61278 1.94282 0
M  V30 2318 C 225.178 2.81314 -1.06222 0
M  V30 2319 C 226.726 2.95078 -1.04394 0
M  V30 2320 C 227.201 4.23252 -1.74991 0
M  V30 2321 N 228.692 4.3015 -1.71829 0
M  V30 2322 C 229.427 5.28127 -2.23315 0
M  V30 2323 N 228.923 6.32293 -2.83156 0
M  V30 2324 N 230.716 5.19882 -2.13726 0
M  V30 2325 H 222.867 1.3516 -1.63846 0
M  V30 2326 H 225.13 0.650174 -0.689912 0
M  V30 2327 H 224.836 2.80823 -2.11734 0
M  V30 2328 H 224.71 3.72012 -0.62344 0
M  V30 2329 H 227.097 2.951 0.0028244 0
M  V30 2330 H 227.178 2.05627 -1.52155 0
M  V30 2331 H 226.822 4.2399 -2.79633 0
M  V30 2332 H 226.752 5.11626 -1.24685 0
M  V30 2333 H 229.243 3.55499 -1.28175 0
M  V30 2334 H 229.556 7.03398 -3.20079 0
M  V30 2335 H 227.901 6.32873 -2.87223 0
M  V30 2336 H 231.092 4.37423 -1.66669 0
M  V30 2337 H 231.265 5.96077 -2.54158 0
M  V30 2338 N 224.671 0.411399 1.52136 0
M  V30 2339 C 225.601 -0.404015 2.29978 0
M  V30 2340 C 226.582 -1.04412 1.34284 0
M  V30 2341 O 227.767 -1.0527 1.63192 0
M  V30 2342 C 224.897 -1.5197 3.12286 0
M  V30 2343 C 223.851 -1.00448 4.16046 0
M  V30 2344 C 223.177 -2.21393 4.86712 0
M  V30 2345 C 224.477 -0.0569336 5.22269 0
M  V30 2346 H 226.171 0.245529 2.98392 0
M  V30 2347 H 223.717 0.119525 1.43503 0
M  V30 2348 H 225.67 -2.09715 3.6551 0
M  V30 2349 H 224.394 -2.19716 2.41646 0
M  V30 2350 H 223.053 -0.449421 3.63835 0
M  V30 2351 H 222.701 -2.87699 4.12599 0
M  V30 2352 H 222.401 -1.87571 5.56858 0
M  V30 2353 H 223.925 -2.7974 5.4275 0
M  V30 2354 H 225.339 -0.54325 5.7072 0
M  V30 2355 H 223.736 0.192594 5.99791 0
M  V30 2356 H 224.806 0.887663 4.76706 0
M  V30 2357 N 226.149 -1.5696 0.141893 0
M  V30 2358 C 227.389 -1.9785 -0.513304 0
M  V30 2359 C 227.753 -1.02467 -1.62371 0
M  V30 2360 O 228.954 -1.32382 -2.33941 0
M  V30 2361 C 227.225 -3.42797 -1.01118 0
M  V30 2362 S 228.784 -4.05709 -1.67169 0
M  V30 2363 H 225.602 -0.691318 -0.166135 0
M  V30 2364 H 228.204 -1.94114 0.232398 0
M  V30 2365 H 226.908 -4.0995 -0.192179 0
M  V30 2366 H 226.439 -3.50235 -1.79162 0
M  V30 2367 H 228.454 -3.98342 -2.95868 0
M  V30 2368 N 227.627 0.131896 -1.57047 0
M  V30 2369 C 229.043 0.485031 -1.52051 0
M  V30 2370 C 229.243 1.82563 -0.85281 0
M  V30 2371 O 228.299 2.48817 -0.429694 0
M  V30 2372 C 229.612 0.481409 -2.96821 0
M  V30 2373 C 231.16 0.565868 -3.07842 0
M  V30 2374 C 231.635 0.592762 -4.54148 0
M  V30 2375 N 233.126 0.654564 -4.58552 0
M  V30 2376 C 233.861 0.696608 -5.69153 0
M  V30 2377 N 233.357 0.697078 -6.89284 0
M  V30 2378 N 235.15 0.738639 -5.57226 0
M  V30 2379 H 227.301 -0.746664 -1.98843 0
M  V30 2380 H 229.564 -0.273999 -0.90754 0
M  V30 2381 H 229.27 -0.435731 -3.4899 0
M  V30 2382 H 229.144 1.3139 -3.53577 0
M  V30 2383 H 231.531 1.47343 -2.55684 0
M  V30 2384 H 231.612 -0.29406 -2.54104 0
M  V30 2385 H 231.256 -0.310701 -5.06949 0
M  V30 2386 H 231.186 1.46939 -5.05684 0
M  V30 2387 H 233.677 0.660887 -3.72076 0
M  V30 2388 H 233.99 0.731426 -7.69331 0
M  V30 2389 H 232.335 0.66471 -6.91814 0
M  V30 2390 H 235.526 0.735545 -4.62285 0
M  V30 2391 H 235.699 0.767938 -6.43434 0
M  V30 2392 N 229.106 1.52395 0.401703 0
M  V30 2393 C 230.054 1.7689 1.51039 0
M  V30 2394 C 231.048 0.636298 1.56996 0
M  V30 2395 O 232.254 0.818507 1.60314 0
M  V30 2396 H 228.629 0.559502 0.502456 0
M  V30 2397 H 230.6 2.69757 1.27568 0
M  V30 2398 C 229.349 1.94331 2.88324 0
M  V30 2399 H 228.672 2.80905 2.84486 0
M  V30 2400 H 230.112 2.15466 3.65172 0
M  V30 2401 C 228.571 0.712396 3.29282 0
M  V30 2402 O 229.101 -0.116218 4.01532 0
M  V30 2403 N 227.307 0.546154 2.85422 0
M  V30 2404 H 226.854 1.22156 2.26794 0
M  V30 2405 H 226.812 -0.276113 3.13185 0
M  V30 2406 N 230.584 -0.659388 1.43143 0
M  V30 2407 C 231.534 -1.7655 1.44271 0
M  V30 2408 C 232.518 -1.57847 0.311961 0
M  V30 2409 O 233.71 -1.68064 0.555306 0
M  V30 2410 C 230.839 -3.15104 1.36251 0
M  V30 2411 C 229.925 -3.39377 2.54331 0
M  V30 2412 N 230.316 -3.34153 3.79704 0
M  V30 2413 C 228.614 -3.70072 2.48922 0
M  V30 2414 C 229.315 -3.58337 4.58225 0
M  V30 2415 N 228.291 -3.79851 3.88863 0
M  V30 2416 H 232.093 -1.70928 2.39083 0
M  V30 2417 H 229.607 -0.860823 1.37708 0
M  V30 2418 H 231.604 -3.94389 1.35141 0
M  V30 2419 H 230.264 -3.21913 0.424531 0
M  V30 2420 H 231.275 -3.13704 4.1208 0
M  V30 2421 H 227.952 -3.84034 1.63781 0
M  V30 2422 H 229.342 -3.60129 5.67236 0
M  V30 2423 N 232.062 -1.29571 -0.897171 0
M  V30 2424 C 233.473 -1.15964 -1.46319 0
M  V30 2425 C 233.824 0.244267 -1.94674 0
M  V30 2426 O 232.949 1.13998 -1.83939 0
M  V30 2427 C 233.544 -2.09906 -2.65942 0
M  V30 2428 C 232.103 -2.00314 -3.18671 0
M  V30 2429 C 231.25 -2.00687 -1.91363 0
M  V30 2430 H 234.201 -1.42019 -0.708268 0
M  V30 2431 H 234.222 -1.67276 -3.41759 0
M  V30 2432 H 233.734 -3.12075 -2.30718 0
M  V30 2433 H 231.835 -1.01242 -3.58582 0
M  V30 2434 H 231.948 -2.88102 -3.82798 0
M  V30 2435 H 230.312 -1.45319 -2.09175 0
M  V30 2436 H 231.095 -3.04566 -1.58413 0
M  V30 2437 N 233.54 1.10788 -1.12088 0
M  V30 2438 C 234.817 1.79136 -0.785476 0
M  V30 2439 C 235.197 1.98246 0.725377 0
M  V30 2440 O 234.545 1.57258 1.65778 0
M  V30 2441 C 234.755 3.12375 -1.55636 0
M  V30 2442 C 236.103 3.8731 -1.74001 0
M  V30 2443 O 237.127 3.22085 -1.52117 0
M  V30 2444 O 235.986 5.04369 -2.10415 0
M  V30 2445 H 233.08 0.776226 -0.285311 0
M  V30 2446 H 235.626 1.1747 -1.2247 0
M  V30 2447 H 234.398 2.93863 -2.5838 0
M  V30 2448 H 234.021 3.81758 -1.11114 0
M  V30 2449 N 235.018 0.912232 1.28515 0
M  V30 2450 C 236.246 0.560416 1.99166 0
M  V30 2451 C 236.661 -0.857927 1.68182 0
M  V30 2452 O 236.018 -1.56805 0.933733 0
M  V30 2453 C 236.069 0.758142 3.53461 0
M  V30 2454 O 235.79 2.12067 3.83352 0
M  V30 2455 C 237.291 0.412954 4.41372 0
M  V30 2456 H 234.511 0.213805 0.636026 0
M  V30 2457 H 237.055 1.22502 1.63749 0
M  V30 2458 H 235.21 0.140556 3.87145 0
M  V30 2459 H 235.624 2.15923 4.77993 0
M  V30 2460 H 237.098 0.60208 5.48707 0
M  V30 2461 H 237.575 -0.65073 4.34353 0
M  V30 2462 H 238.181 1.00802 4.13182 0
M  V30 2463 N 236.496 -1.42363 0.676048 0
M  V30 2464 C 237.912 -1.55811 0.345718 0
M  V30 2465 C 238.112 -1.65544 -1.14879 0
M  V30 2466 O 237.168 -1.62306 -1.93424 0
M  V30 2467 C 238.481 -2.80746 1.07713 0
M  V30 2468 C 240.029 -2.9452 1.05958 0
M  V30 2469 C 240.504 -4.22318 1.77233 0
M  V30 2470 N 241.995 -4.29233 1.74108 0
M  V30 2471 C 242.73 -5.26935 2.26113 0
M  V30 2472 N 242.226 -6.30783 2.86505 0
M  V30 2473 N 244.019 -5.18741 2.1648 0
M  V30 2474 H 236.17 -1.34289 1.6456 0
M  V30 2475 H 238.433 -0.646506 0.69335 0
M  V30 2476 H 238.139 -2.79696 2.13221 0
M  V30 2477 H 238.013 -3.71676 0.64316 0
M  V30 2478 H 240.4 -2.95097 0.0128255 0
M  V30 2479 H 240.481 -2.04817 1.53244 0
M  V30 2480 H 240.125 -4.22502 2.81877 0
M  V30 2481 H 240.055 -5.10958 1.27396 0
M  V30 2482 H 242.546 -3.54814 1.30059 0
M  V30 2483 H 242.859 -7.01691 3.23805 0
M  V30 2484 H 241.204 -6.31341 2.90575 0
M  V30 2485 H 244.395 -4.36533 1.68987 0
M  V30 2486 H 244.568 -5.94721 2.57316 0
M  V30 2487 N 237.974 -0.419461 -1.51915 0
M  V30 2488 C 239.202 0.152136 -2.0634 0
M  V30 2489 C 239.617 1.37988 -1.28859 0
M  V30 2490 O 238.974 1.79243 -0.343232 0
M  V30 2491 C 239.025 0.492266 -3.58133 0
M  V30 2492 O 238.746 -0.686736 -4.32684 0
M  V30 2493 C 240.247 1.11648 -4.2901 0
M  V30 2494 H 237.467 0.0158325 -0.670813 0
M  V30 2495 H 240.011 -0.593394 -1.95702 0
M  V30 2496 H 238.166 1.18769 -3.68745 0
M  V30 2497 H 238.58 -0.400341 -5.2297 0
M  V30 2498 H 240.054 1.3046 -5.36362 0
M  V30 2499 H 240.531 2.09251 -3.86148 0
M  V30 2500 H 241.137 0.460958 -4.22795 0
M  V30 2501 N 239.452 1.56882 -0.150215 0
M  V30 2502 C 240.868 1.58263 0.20617 0
M  V30 2503 C 241.068 1.16464 1.64434 0
M  V30 2504 O 240.124 0.866422 2.3717 0
M  V30 2505 C 241.437 3.00649 -0.0555025 0
M  V30 2506 C 242.985 3.12999 0.00795388 0
M  V30 2507 C 243.46 4.5744 -0.226429 0
M  V30 2508 N 244.951 4.62875 -0.173469 0
M  V30 2509 C 245.686 5.72454 -0.329288 0
M  V30 2510 N 245.182 6.90669 -0.543005 0
M  V30 2511 N 246.975 5.61467 -0.266666 0
M  V30 2512 H 239.126 1.82345 -1.08922 0
M  V30 2513 H 241.389 0.844149 -0.431413 0
M  V30 2514 H 241.095 3.3563 -1.05096 0
M  V30 2515 H 240.969 3.71337 0.66246 0
M  V30 2516 H 243.356 2.77857 0.993966 0
M  V30 2517 H 243.437 2.4479 -0.742388 0
M  V30 2518 H 243.081 4.93287 -1.20956 0
M  V30 2519 H 243.011 5.2378 0.544274 0
M  V30 2520 H 245.502 3.77898 -0.0130709 0
M  V30 2521 H 245.815 7.70045 -0.651922 0
M  V30 2522 H 244.16 6.92581 -0.579366 0
M  V30 2523 H 247.351 4.67992 -0.100441 0
M  V30 2524 H 247.524 6.46816 -0.391535 0
M  V30 2525 N 240.93 -0.123565 1.57115 0
M  V30 2526 C 241.893 -1.13583 1.99076 0
M  V30 2527 C 242.893 -1.34564 0.880296 0
M  V30 2528 O 244.083 -1.31158 1.14644 0
M  V30 2529 C 241.215 -2.49128 2.32698 0
M  V30 2530 H 242.408 -0.775287 2.89706 0
M  V30 2531 H 239.961 -0.36771 1.51913 0
M  V30 2532 H 240.696 -2.90111 1.44934 0
M  V30 2533 H 240.481 -2.35255 3.13684 0
M  V30 2534 H 241.971 -3.2199 2.65918 0
M  V30 2535 N 242.408 -1.52605 -0.393616 0
M  V30 2536 C 243.648 -1.6911 -1.1481 0
M  V30 2537 C 244.012 -0.41969 -1.87357 0
M  V30 2538 O 245.213 -0.461034 -2.64817 0
M  V30 2539 C 243.484 -2.88909 -2.10395 0
M  V30 2540 S 245.043 -3.25977 -2.93742 0
M  V30 2541 H 241.861 -0.595337 -0.38871 0
M  V30 2542 H 244.463 -1.90641 -0.433178 0
M  V30 2543 H 243.167 -3.79672 -1.55812 0
M  V30 2544 H 242.698 -2.69698 -2.86403 0
M  V30 2545 H 244.713 -2.75806 -4.12487 0
M  V30 2546 N 243.887 0.651787 -1.4349 0
M  V30 2547 C 245.134 1.41167 -1.45183 0
M  V30 2548 C 245.462 1.94349 -0.0766601 0
M  V30 2549 O 244.717 1.72804 0.918555 0
M  V30 2550 C 245.016 2.60914 -2.44251 0
M  V30 2551 C 244.682 2.26142 -3.9009 0
M  V30 2552 C 243.344 2.16371 -4.2981 0
M  V30 2553 C 245.696 1.98334 -4.81989 0
M  V30 2554 C 243.024 1.7695 -5.5938 0
M  V30 2555 C 245.376 1.6041 -6.11924 0
M  V30 2556 C 244.04 1.49166 -6.5062 0
M  V30 2557 H 243.31 0.516566 -0.531263 0
M  V30 2558 H 245.957 0.741099 -1.76579 0
M  V30 2559 H 244.262 3.3311 -2.06265 0
M  V30 2560 H 245.959 3.19127 -2.42815 0
M  V30 2561 H 242.549 2.34658 -3.58655 0
M  V30 2562 H 246.733 2.04803 -4.52072 0
M  V30 2563 H 241.989 1.66831 -5.88198 0
M  V30 2564 H 246.163 1.37925 -6.82605 0
M  V30 2565 H 243.79 1.1839 -7.50925 0
M  V30 2566 N 245.365 1.30045 0.890287 0
M  V30 2567 C 246.593 1.21472 1.67487 0
M  V30 2568 C 247.008 -0.223241 1.87476 0
M  V30 2569 O 246.365 -1.14828 1.41847 0
M  V30 2570 C 246.416 1.93394 3.05419 0
M  V30 2571 O 246.137 3.31576 2.86337 0
M  V30 2572 C 247.638 1.91414 3.99844 0
M  V30 2573 H 244.858 0.420604 0.522813 0
M  V30 2574 H 247.402 1.7158 1.11268 0
M  V30 2575 H 245.557 1.47099 3.58386 0
M  V30 2576 H 245.971 3.67929 3.73802 0
M  V30 2577 H 247.445 2.46285 4.94012 0
M  V30 2578 H 247.922 0.891833 4.3005 0
M  V30 2579 H 248.528 2.37496 3.52811 0
M  V30 2580 N 246.843 -1.10192 1.12674 0
M  V30 2581 C 247.775 -2.16418 0.754701 0
M  V30 2582 C 248.788 -1.61309 -0.21986 0
M  V30 2583 O 249.977 -1.785 -0.000826841 0
M  V30 2584 C 247.077 -3.38762 0.096698 0
M  V30 2585 C 246.25 -4.23307 1.10136 0
M  V30 2586 C 245.309 -5.24092 0.470513 0
M  V30 2587 O 244.335 -5.57906 1.12824 0
M  V30 2588 N 245.537 -5.75491 -0.760948 0
M  V30 2589 H 248.302 -2.48943 1.66875 0
M  V30 2590 H 245.863 -1.25834 1.01869 0
M  V30 2591 H 247.855 -4.03291 -0.337384 0
M  V30 2592 H 246.425 -3.04192 -0.720153 0
M  V30 2593 H 245.645 -3.55036 1.71299 0
M  V30 2594 H 246.933 -4.76624 1.78064 0
M  V30 2595 H 246.331 -5.50222 -1.31424 0
M  V30 2596 H 244.888 -6.41792 -1.13781 0
M  V30 2597 N 248.321 -0.919034 -1.28029 0
M  V30 2598 C 249.567 -0.565221 -1.95389 0
M  V30 2599 C 249.922 0.882325 -1.70976 0
M  V30 2600 O 249.215 1.61988 -1.02325 0
M  V30 2601 C 249.409 -0.816855 -3.4794 0
M  V30 2602 C 249.238 -2.28731 -3.87185 0
M  V30 2603 C 248.008 -2.93841 -4.11079 0
M  V30 2604 C 250.206 -3.26415 -3.97439 0
M  V30 2605 N 248.188 -4.31129 -4.37037 0
M  V30 2606 C 249.559 -4.48884 -4.27672 0
M  V30 2607 C 251.614 -3.21742 -3.79982 0
M  V30 2608 C 250.317 -5.67268 -4.42266 0
M  V30 2609 C 252.343 -4.39431 -3.95796 0
M  V30 2610 C 251.705 -5.60675 -4.26407 0
M  V30 2611 H 247.804 -0.256797 -0.738633 0
M  V30 2612 H 250.388 -1.18386 -1.54573 0
M  V30 2613 H 248.559 -0.227445 -3.87733 0
M  V30 2614 H 250.291 -0.426542 -4.02446 0
M  V30 2615 H 247.046 -2.44547 -4.05578 0
M  V30 2616 H 247.47 -5.02127 -4.5409 0
M  V30 2617 H 252.112 -2.29079 -3.55363 0
M  V30 2618 H 249.83 -6.60406 -4.65714 0
M  V30 2619 H 253.416 -4.37323 -3.83719 0
M  V30 2620 H 252.296 -6.50223 -4.38383 0
M  V30 2621 N 249.799 1.42003 -0.683588 0
M  V30 2622 C 250.729 2.33487 -0.024866 0
M  V30 2623 C 251.71 1.51163 0.779975 0
M  V30 2624 O 252.895 1.79739 0.735362 0
M  V30 2625 C 250.025 3.3487 0.920836 0
M  V30 2626 C 248.979 4.27414 0.223958 0
M  V30 2627 C 248.305 5.19074 1.2832 0
M  V30 2628 C 249.605 5.14445 -0.90242 0
M  V30 2629 H 251.299 2.88819 -0.788921 0
M  V30 2630 H 248.845 1.38873 -0.38083 0
M  V30 2631 H 250.798 3.97787 1.39081 0
M  V30 2632 H 249.522 2.77861 1.71642 0
M  V30 2633 H 248.181 3.65904 -0.225864 0
M  V30 2634 H 247.829 4.58387 2.071 0
M  V30 2635 H 247.529 5.81822 0.821995 0
M  V30 2636 H 249.053 5.84867 1.75392 0
M  V30 2637 H 250.467 5.70998 -0.513272 0
M  V30 2638 H 248.864 5.86072 -1.28997 0
M  V30 2639 H 249.934 4.52322 -1.74737 0
M  V30 2640 N 251.277 0.427512 1.51691 0
M  V30 2641 C 252.517 -0.141524 2.03909 0
M  V30 2642 C 252.881 -1.40811 1.30523 0
M  V30 2643 O 254.082 -2.05676 1.73063 0
M  V30 2644 C 252.353 -0.364962 3.55532 0
M  V30 2645 S 253.912 -0.898812 4.29496 0
M  V30 2646 H 250.73 -0.0364542 0.710065 0
M  V30 2647 H 253.332 0.584659 1.86553 0
M  V30 2648 H 252.036 0.56336 4.06515 0
M  V30 2649 H 251.567 -1.1185 3.77164 0
M  V30 2650 H 253.582 -2.17747 4.45871 0
M  V30 2651 N 252.755 -1.56801 0.158532 0
M  V30 2652 C 253.705 -2.13923 -0.788738 0
M  V30 2653 C 254.689 -1.07006 -1.2016 0
M  V30 2654 O 255.881 -1.33159 -1.1661 0
M  V30 2655 C 253.01 -2.77348 -2.02319 0
M  V30 2656 C 252.096 -3.91404 -1.6329 0
M  V30 2657 N 252.487 -4.9677 -0.951463 0
M  V30 2658 C 250.785 -4.02326 -1.92482 0
M  V30 2659 C 251.486 -5.76698 -0.761221 0
M  V30 2660 N 250.462 -5.27859 -1.29869 0
M  V30 2661 H 254.264 -2.92757 -0.258995 0
M  V30 2662 H 251.778 -1.62344 -0.0426055 0
M  V30 2663 H 253.775 -3.16639 -2.71192 0
M  V30 2664 H 252.435 -1.99991 -2.558 0
M  V30 2665 H 253.446 -5.14284 -0.610928 0
M  V30 2666 H 250.123 -3.36059 -2.47732 0
M  V30 2667 H 251.513 -6.71529 -0.223284 0
M  V30 2668 N 254.233 0.115231 -1.57178 0
M  V30 2669 C 255.163 1.1423 -2.03651 0
M  V30 2670 C 256.144 1.42967 -0.921655 0
M  V30 2671 O 257.329 1.53343 -1.19162 0
M  V30 2672 C 254.459 2.4675 -2.44401 0
M  V30 2673 C 253.413 2.32467 -3.59365 0
M  V30 2674 C 252.739 3.69984 -3.86026 0
M  V30 2675 C 254.039 1.78203 -4.90959 0
M  V30 2676 H 255.733 0.755749 -2.89705 0
M  V30 2677 H 253.279 0.362093 -1.39373 0
M  V30 2678 H 255.232 3.18854 -2.75517 0
M  V30 2679 H 253.956 2.87302 -1.55322 0
M  V30 2680 H 252.615 1.62811 -3.28463 0
M  V30 2681 H 252.263 4.08028 -2.94147 0
M  V30 2682 H 251.963 3.61279 -4.63412 0
M  V30 2683 H 253.487 4.43587 -4.19599 0
M  V30 2684 H 254.901 2.40128 -5.20587 0
M  V30 2685 H 253.298 1.8031 -5.72371 0
M  V30 2686 H 254.368 0.739876 -4.79222 0
M  V30 2687 N 255.711 1.52812 0.385517 0
M  V30 2688 C 256.661 1.74219 1.47078 0
M  V30 2689 C 257.645 0.59632 1.49442 0
M  V30 2690 O 258.837 0.85428 1.5502 0
M  V30 2691 C 255.966 1.9176 2.84751 0
M  V30 2692 C 255.052 3.12289 2.86943 0
M  V30 2693 N 255.443 4.34575 2.58802 0
M  V30 2694 C 253.741 3.12605 3.1811 0
M  V30 2695 C 254.442 5.162 2.68166 0
M  V30 2696 N 253.418 4.51964 3.02043 0
M  V30 2697 H 257.22 2.6639 1.24152 0
M  V30 2698 H 254.734 1.51166 0.593504 0
M  V30 2699 H 256.731 2.05218 3.62893 0
M  V30 2700 H 255.391 1.00805 3.08656 0
M  V30 2701 H 256.402 4.62649 2.32759 0
M  V30 2702 H 253.079 2.31472 3.47458 0
M  V30 2703 H 254.469 6.23689 2.49923 0
M  V30 2704 N 257.189 -0.644168 1.43834 0
M  V30 2705 C 258.137 -1.77793 1.49974 0
M  V30 2706 C 259.131 -1.65253 0.372536 0
M  V30 2707 O 260.337 -1.7149 0.546924 0
M  V30 2708 H 256.712 -0.58675 0.47035 0
M  V30 2709 H 258.683 -1.69736 2.45423 0
M  V30 2710 C 257.432 -3.16087 1.4486 0
M  V30 2711 H 256.755 -3.26378 2.30905 0
M  V30 2712 H 258.195 -3.95349 1.53217 0
M  V30 2713 C 256.654 -3.36484 0.167463 0
M  V30 2714 O 257.184 -3.94298 -0.767609 0
M  V30 2715 N 255.39 -2.90504 0.0747556 0
M  V30 2716 H 254.937 -2.4364 0.836507 0
M  V30 2717 H 254.895 -3.04527 -0.781714 0
M  V30 2718 N 258.668 -1.30515 -0.883378 0
M  V30 2719 C 259.578 -1.18959 -2.02203 0
M  V30 2720 C 260.594 -0.109172 -1.73657 0
M  V30 2721 O 261.77 -0.324413 -1.9877 0
M  V30 2722 C 258.835 -0.883871 -3.35244 0
M  V30 2723 C 257.896 -2.04982 -3.77201 0
M  V30 2724 C 257.129 -1.75859 -5.03894 0
M  V30 2725 O 257.352 -0.687276 -5.66244 0
M  V30 2726 O 256.286 -2.61146 -5.42297 0
M  V30 2727 H 260.112 -2.14616 -2.1488 0
M  V30 2728 H 257.697 -1.10124 -1.0096 0
M  V30 2729 H 259.579 -0.728644 -4.15053 0
M  V30 2730 H 258.254 0.0427798 -3.23672 0
M  V30 2731 H 257.161 -2.26038 -2.9809 0
M  V30 2732 H 258.494 -2.95825 -3.93381 0
M  V30 2733 N 260.146 1.09593 -1.13257 0
M  V30 2734 C 261.392 1.82003 -0.89458 0
M  V30 2735 C 261.725 1.85402 0.577906 0
M  V30 2736 O 261 1.32099 1.42759 0
M  V30 2737 C 261.283 3.28237 -1.48096 0
M  V30 2738 C 261.136 3.3312 -3.02244 0
M  V30 2739 C 262.455 4.24871 -1.14774 0
M  V30 2740 H 259.574 0.66077 -0.326424 0
M  V30 2741 H 262.216 1.28389 -1.40058 0
M  V30 2742 H 260.366 3.74024 -1.05062 0
M  V30 2743 H 262.038 2.95748 -3.54021 0
M  V30 2744 H 260.281 2.72756 -3.37323 0
M  V30 2745 H 260.952 4.3613 -3.38371 0
M  V30 2746 H 263.428 3.87361 -1.51957 0
M  V30 2747 H 262.304 5.25532 -1.58452 0
M  V30 2748 H 262.565 4.42058 -0.0611849 0
M  V30 2749 N 261.624 0.925811 1.2754 0
M  V30 2750 C 262.572 0.413897 2.28888 0
M  V30 2751 C 263.566 -0.500779 1.61829 0
M  V30 2752 O 264.772 -0.38069 1.75928 0
M  V30 2753 H 261.147 0.115274 0.743112 0
M  V30 2754 H 263.118 1.28151 2.69481 0
M  V30 2755 C 261.867 -0.319792 3.46226 0
M  V30 2756 H 261.19 0.374846 3.98039 0
M  V30 2757 H 262.63 -0.642435 4.19105 0
M  V30 2758 C 261.089 -1.53209 3.00048 0
M  V30 2759 O 261.619 -2.6309 3.03557 0
M  V30 2760 N 259.825 -1.38326 2.55566 0
M  V30 2761 H 259.372 -0.489292 2.5291 0
M  V30 2762 H 259.33 -2.19564 2.25031 0
M  V30 2763 N 263.102 -1.41638 0.69111 0
M  V30 2764 C 264.518 -1.55435 0.362224 0
M  V30 2765 C 264.718 -1.66754 -1.13117 0
M  V30 2766 O 263.774 -1.64348 -1.91692 0
M  V30 2767 C 265.087 -2.79588 1.10684 0
M  V30 2768 C 266.635 -2.9338 1.09075 0
M  V30 2769 C 267.11 -4.20414 1.81703 0
M  V30 2770 N 268.601 -4.27362 1.7865 0
M  V30 2771 C 269.336 -5.24507 2.31689 0
M  V30 2772 N 268.832 -6.27708 2.93179 0
M  V30 2773 N 270.625 -5.16416 2.2197 0
M  V30 2774 H 262.776 -1.32536 1.65976 0
M  V30 2775 H 265.039 -0.639115 0.700168 0
M  V30 2776 H 264.745 -2.77419 2.16175 0
M  V30 2777 H 264.619 -3.70973 0.682545 0
M  V30 2778 H 267.006 -2.95067 0.0441238 0
M  V30 2779 H 267.087 -2.0318 1.55407 0
M  V30 2780 H 266.731 -4.19488 2.86343 0
M  V30 2781 H 266.661 -5.09578 1.32808 0
M  V30 2782 H 269.152 -3.53415 1.33815 0
M  V30 2783 H 269.465 -6.98217 3.31229 0
M  V30 2784 H 267.81 -6.28223 2.97255 0
M  V30 2785 H 271.001 -4.34716 1.73607 0
M  V30 2786 H 271.174 -5.91958 2.63609 0
M  V30 2787 N 264.58 -0.43555 -1.51462 0
M  V30 2788 C 265.527 0.376797 -2.27703 0
M  V30 2789 C 266.497 1.01838 -1.31219 0
M  V30 2790 O 267.682 1.03762 -1.60119 0
M  V30 2791 C 264.822 1.47301 -3.12084 0
M  V30 2792 C 263.935 0.849744 -4.2356 0
M  V30 2793 C 263.07 1.92086 -4.95254 0
M  V30 2794 C 262.109 1.27593 -5.98654 0
M  V30 2795 N 261.246 2.28833 -6.63762 0
M  V30 2796 H 266.086 -0.279734 -2.96684 0
M  V30 2797 H 263.623 -0.149795 -1.46335 0
M  V30 2798 H 265.581 2.11984 -3.59331 0
M  V30 2799 H 264.211 2.0992 -2.45221 0
M  V30 2800 H 263.263 0.0912529 -3.80291 0
M  V30 2801 H 264.575 0.338878 -4.97648 0
M  V30 2802 H 263.729 2.64435 -5.46039 0
M  V30 2803 H 262.468 2.46545 -4.20793 0
M  V30 2804 H 261.473 0.537893 -5.47162 0
M  V30 2805 H 262.698 0.738693 -6.7507 0
M  V30 2806 H 260.644 2.82375 -5.92115 0
M  V30 2807 H 260.561 1.82632 -7.33608 0
M  V30 2808 H 261.829 3.00671 -7.19178 0
M  V30 2809 N 266.058 1.56714 -0.166846 0
M  V30 2810 C 266.988 2.20754 0.760913 0
M  V30 2811 C 267.969 1.16178 1.24244 0
M  V30 2812 O 269.154 1.44592 1.29641 0
M  V30 2813 C 266.284 2.84478 1.99223 0
M  V30 2814 C 265.238 3.95053 1.64672 0
M  V30 2815 C 264.564 4.45805 2.95232 0
M  V30 2816 C 265.864 5.14865 0.878155 0
M  V30 2817 H 267.558 2.98537 0.22713 0
M  V30 2818 H 265.104 1.43596 0.107805 0
M  V30 2819 H 267.057 3.27951 2.64624 0
M  V30 2820 H 265.781 2.04056 2.55007 0
M  V30 2821 H 264.44 3.52228 1.01641 0
M  V30 2822 H 264.088 3.62181 3.49047 0
M  V30 2823 H 263.788 5.204 2.7287 0
M  V30 2824 H 265.312 4.91962 3.6167 0
M  V30 2825 H 266.726 5.55059 1.43466 0
M  V30 2826 H 265.123 5.95348 0.753738 0
M  V30 2827 H 266.193 4.84735 -0.126377 0
M  V30 2828 N 267.536 -0.106894 1.57237 0
M  V30 2829 C 268.784 -0.810921 1.85117 0
M  V30 2830 C 269.105 -1.7984 0.753827 0
M  V30 2831 O 268.375 -1.94649 -0.221056 0
M  V30 2832 H 266.955 -0.302466 0.683025 0
M  V30 2833 H 269.617 -0.0913324 1.94686 0
M  V30 2834 H 268.713 -1.34875 2.81452 0
M  V30 2835 N 269.014 -1.53014 -0.377408 0
M  V30 2836 C 269.961 -1.78616 -1.46168 0
M  V30 2837 C 270.931 -0.629917 -1.53692 0
M  V30 2838 O 272.116 -0.870861 -1.69766 0
M  V30 2839 C 269.256 -1.97123 -2.8326 0
M  V30 2840 C 268.369 -3.24831 -2.84796 0
M  V30 2841 C 267.504 -3.33591 -4.13389 0
M  V30 2842 C 266.543 -4.55377 -4.09021 0
M  V30 2843 N 265.68 -4.61355 -5.29241 0
M  V30 2844 H 270.52 -2.71142 -1.23637 0
M  V30 2845 H 268.057 -1.34326 -0.599577 0
M  V30 2846 H 270.015 -2.05839 -3.62886 0
M  V30 2847 H 268.645 -1.07946 -3.04216 0
M  V30 2848 H 267.697 -3.25128 -1.97474 0
M  V30 2849 H 269.009 -4.14523 -2.77439 0
M  V30 2850 H 268.163 -3.41554 -5.01424 0
M  V30 2851 H 266.902 -2.41894 -4.23484 0
M  V30 2852 H 265.907 -4.47527 -3.19373 0
M  V30 2853 H 267.132 -5.48402 -4.00539 0
M  V30 2854 H 265.078 -3.72554 -5.39944 0
M  V30 2855 H 264.995 -5.44935 -5.24006 0
M  V30 2856 H 266.263 -4.73586 -6.19141 0
M  V30 2857 N 270.492 0.636531 -1.44174 0
M  V30 2858 C 271.903 1.21806 -1.41493 0
M  V30 2859 C 272.254 1.95785 -0.1275 0
M  V30 2860 O 271.379 2.02147 0.772376 0
M  V30 2861 C 271.974 2.21551 -2.56321 0
M  V30 2862 C 270.533 2.75143 -2.56853 0
M  V30 2863 C 269.68 1.50052 -2.33195 0
M  V30 2864 H 272.631 0.427531 -1.52833 0
M  V30 2865 H 272.652 3.0405 -2.28765 0
M  V30 2866 H 272.164 1.67679 -3.50008 0
M  V30 2867 H 270.265 3.33033 -1.67093 0
M  V30 2868 H 270.378 3.2155 -3.55165 0
M  V30 2869 H 268.742 1.77993 -1.82183 0
M  V30 2870 H 269.525 0.980903 -3.28988 0
M  V30 2871 N 271.97 1.30982 0.876444 0
M  V30 2872 C 273.247 1.10942 1.61094 0
M  V30 2873 C 273.627 -0.338223 2.08373 0
M  V30 2874 O 272.975 -1.33122 1.85717 0
M  V30 2875 C 273.185 2.11789 2.77392 0
M  V30 2876 C 274.533 2.43965 3.47514 0
M  V30 2877 O 275.557 2.10166 2.87591 0
M  V30 2878 O 274.416 3.01817 4.55597 0
M  V30 2879 H 271.51 0.42667 0.708436 0
M  V30 2880 H 274.056 1.42438 0.922474 0
M  V30 2881 H 272.828 3.09194 2.39823 0
M  V30 2882 H 272.451 1.81161 3.5393 0
M  V30 2883 N 273.449 -1.08991 1.13837 0
M  V30 2884 C 274.696 -1.81258 0.902882 0
M  V30 2885 C 275.024 -1.85936 -0.570803 0
M  V30 2886 O 274.279 -1.3267 -1.43865 0
M  V30 2887 C 274.578 -3.27042 1.44147 0
M  V30 2888 C 274.244 -3.4249 2.93276 0
M  V30 2889 C 272.906 -3.46414 3.33992 0
M  V30 2890 C 275.258 -3.4666 3.892 0
M  V30 2891 C 272.586 -3.52091 4.69307 0
M  V30 2892 C 274.938 -3.53872 5.24364 0
M  V30 2893 C 273.602 -3.56066 5.646 0
M  V30 2894 H 272.872 -0.663268 0.330388 0
M  V30 2895 H 275.519 -1.28368 1.42105 0
M  V30 2896 H 273.824 -3.82599 0.844097 0
M  V30 2897 H 275.521 -3.81499 1.23528 0
M  V30 2898 H 272.111 -3.40124 2.60794 0
M  V30 2899 H 276.295 -3.42865 3.58828 0
M  V30 2900 H 271.551 -3.52079 4.9985 0
M  V30 2901 H 275.725 -3.56043 5.98503 0
M  V30 2902 H 273.352 -3.60218 6.69438 0
M  V30 2903 N 274.927 -0.932562 -1.27047 0
M  V30 2904 C 276.204 -0.49377 -1.89265 0
M  V30 2905 C 276.584 1.02833 -1.8436 0
M  V30 2906 O 275.932 1.88461 -1.29209 0
M  V30 2907 C 276.142 -1.04536 -3.32976 0
M  V30 2908 C 277.49 -1.10879 -4.09867 0
M  V30 2909 O 278.514 -0.995327 -3.42011 0
M  V30 2910 O 277.373 -1.28417 -5.31198 0
M  V30 2911 H 274.467 -0.159596 -0.811454 0
M  V30 2912 H 277.013 -1.02457 -1.3528 0
M  V30 2913 H 275.785 -2.08913 -3.30864 0
M  V30 2914 H 275.408 -0.496494 -3.94488 0
M  V30 2915 N 276.405 1.4127 -0.698611 0
M  V30 2916 C 277.645 2.03044 -0.235062 0
M  V30 2917 C 278.009 1.54146 1.14468 0
M  V30 2918 O 279.21 2.07867 1.70425 0
M  V30 2919 C 277.481 3.56192 -0.293651 0
M  V30 2920 S 279.04 4.38696 0.0954053 0
M  V30 2921 H 275.858 0.704697 -0.0944648 0
M  V30 2922 H 278.46 1.72656 -0.917064 0
M  V30 2923 H 277.164 3.89274 -1.29977 0
M  V30 2924 H 276.695 3.91285 0.407397 0
M  V30 2925 H 278.71 4.78257 1.3223 0
M  V30 2926 N 277.883 0.443576 1.51229 0
M  V30 2927 C 279.108 -0.121648 2.07043 0
M  V30 2928 C 279.533 -1.35156 1.30823 0
M  V30 2929 O 278.891 -1.7793 0.347934 0
M  V30 2930 C 278.939 -0.41624 3.5819 0
M  V30 2931 O 278.043 -1.50163 3.8409 0
M  V30 2932 H 277.384 0.000871367 0.663999 0
M  V30 2933 H 279.914 0.626706 1.94765 0
M  V30 2934 H 279.924 -0.664867 4.02546 0
M  V30 2935 H 278.599 0.482653 4.1309 0
M  V30 2936 H 277.176 -1.24248 3.51592 0
M  V30 2937 N 279.361 -1.56624 0.175154 0
M  V30 2938 C 280.308 -2.18149 -0.753634 0
M  V30 2939 C 281.278 -1.12265 -1.22417 0
M  V30 2940 O 282.463 -1.40432 -1.29165 0
M  V30 2941 C 279.603 -2.82933 -1.97592 0
M  V30 2942 C 278.716 -4.03289 -1.5486 0
M  V30 2943 C 277.851 -4.55988 -2.72485 0
M  V30 2944 C 276.89 -5.68746 -2.26262 0
M  V30 2945 N 276.027 -6.15938 -3.36994 0
M  V30 2946 H 280.867 -2.9717 -0.222195 0
M  V30 2947 H 278.404 -1.46774 -0.0979422 0
M  V30 2948 H 280.362 -3.18653 -2.69288 0
M  V30 2949 H 278.992 -2.06509 -2.481 0
M  V30 2950 H 278.044 -3.73364 -0.728246 0
M  V30 2951 H 279.356 -4.849 -1.16933 0
M  V30 2952 H 278.51 -4.9391 -3.52332 0
M  V30 2953 H 277.249 -3.73443 -3.13674 0
M  V30 2954 H 276.254 -5.30372 -1.44863 0
M  V30 2955 H 277.479 -6.53095 -1.86127 0
M  V30 2956 H 275.425 -5.36321 -3.77751 0
M  V30 2957 H 275.342 -6.92548 -3.03172 0
M  V30 2958 H 276.61 -6.58511 -4.17114 0
M  V30 2959 N 280.839 0.0985539 -1.57292 0
M  V30 2960 C 282.085 0.803867 -1.86188 0
M  V30 2961 C 282.418 1.78549 -0.763794 0
M  V30 2962 O 281.693 1.93153 0.22855 0
M  V30 2963 C 281.976 1.53568 -3.25713 0
M  V30 2964 C 281.829 0.572277 -4.46145 0
M  V30 2965 C 283.148 2.48708 -3.63087 0
M  V30 2966 H 280.267 0.290781 -0.677211 0
M  V30 2967 H 282.909 0.0675783 -1.8988 0
M  V30 2968 H 281.059 2.16332 -3.22696 0
M  V30 2969 H 282.731 -0.0480894 -4.61275 0
M  V30 2970 H 280.974 -0.114618 -4.33649 0
M  V30 2971 H 281.645 1.12139 -5.40489 0
M  V30 2972 H 284.121 1.96039 -3.67026 0
M  V30 2973 H 282.997 2.96932 -4.61652 0
M  V30 2974 H 283.258 3.32309 -2.91588 0
M  V30 2975 N 282.317 1.53212 0.369288 0
M  V30 2976 C 283.594 1.59815 1.12776 0
M  V30 2977 C 283.974 0.403402 2.0721 0
M  V30 2978 O 283.322 -0.606667 2.20299 0
M  V30 2979 C 283.532 2.94664 1.87013 0
M  V30 2980 C 284.88 3.49109 2.41677 0
M  V30 2981 O 285.904 2.96669 1.97144 0
M  V30 2982 O 284.763 4.40775 3.23079 0
M  V30 2983 H 281.857 0.645376 0.517125 0
M  V30 2984 H 284.403 1.65553 0.37285 0
M  V30 2985 H 283.175 3.73061 1.18071 0
M  V30 2986 H 282.798 2.92401 2.69421 0
M  V30 2987 N 283.795 -0.628877 1.44509 0
M  V30 2988 C 284.705 -1.7694 1.54044 0
M  V30 2989 C 285.721 -1.68705 0.425987 0
M  V30 2990 O 286.897 -1.89442 0.683656 0
M  V30 2991 C 283.962 -3.13332 1.48405 0
M  V30 2992 C 283.023 -3.33181 2.70719 0
M  V30 2993 C 282.256 -4.63067 2.6534 0
M  V30 2994 O 282.479 -5.44017 1.71469 0
M  V30 2995 O 281.413 -4.85167 3.56226 0
M  V30 2996 H 285.239 -1.71848 2.50403 0
M  V30 2997 H 282.824 -0.790378 1.26781 0
M  V30 2998 H 284.706 -3.94634 1.47791 0
M  V30 2999 H 283.381 -3.1896 0.551898 0
M  V30 3000 H 282.288 -2.51549 2.769 0
M  V30 3001 H 283.621 -3.32416 3.62988 0
M  V30 3002 N 285.273 -1.31445 -0.869486 0
M  V30 3003 C 286.689 -1.10113 -1.15531 0
M  V30 3004 C 286.889 0.128087 -2.01092 0
M  V30 3005 O 285.945 0.817276 -2.38908 0
M  V30 3006 C 287.258 -2.37291 -1.84698 0
M  V30 3007 C 288.806 -2.42906 -1.97397 0
M  V30 3008 C 289.281 -3.69967 -2.69979 0
M  V30 3009 N 290.772 -3.70864 -2.77514 0
M  V30 3010 C 291.507 -4.65875 -3.34287 0
M  V30 3011 N 291.003 -5.71242 -3.91988 0
M  V30 3012 N 292.796 -4.53394 -3.3225 0
M  V30 3013 H 284.947 -2.1028 -0.299347 0
M  V30 3014 H 287.21 -0.927683 -0.195214 0
M  V30 3015 H 286.916 -3.27078 -1.29278 0
M  V30 3016 H 286.79 -2.47125 -2.84972 0
M  V30 3017 H 289.177 -1.53588 -2.51982 0
M  V30 3018 H 289.258 -2.37036 -0.961643 0
M  V30 3019 H 288.902 -4.59652 -2.16062 0
M  V30 3020 H 288.832 -3.73103 -3.7162 0
M  V30 3021 H 291.323 -2.94697 -2.36563 0
M  V30 3022 H 291.636 -6.39817 -4.33421 0
M  V30 3023 H 289.981 -5.75015 -3.90362 0
M  V30 3024 H 293.172 -3.70252 -2.8641 0
M  V30 3025 H 293.345 -5.27617 -3.76197 0
M  V30 3026 N 286.751 1.08385 -1.14413 0
M  V30 3027 C 287.997 1.81212 -0.923793 0
M  V30 3028 C 288.352 1.84555 0.543814 0
M  V30 3029 O 287.645 1.31056 1.39767 0
M  V30 3030 C 287.839 3.26273 -1.45879 0
M  V30 3031 C 287.668 3.37063 -2.97689 0
M  V30 3032 C 286.438 3.4824 -3.66138 0
M  V30 3033 C 288.636 3.28698 -3.95553 0
M  V30 3034 N 286.618 3.47824 -5.05858 0
M  V30 3035 C 287.989 3.35276 -5.21527 0
M  V30 3036 C 290.044 3.12437 -3.8767 0
M  V30 3037 C 288.747 3.27267 -6.40538 0
M  V30 3038 C 290.773 3.05757 -5.06228 0
M  V30 3039 C 290.135 3.12938 -6.3107 0
M  V30 3040 H 286.234 0.6769 -0.391574 0
M  V30 3041 H 288.818 1.29455 -1.45429 0
M  V30 3042 H 286.989 3.76474 -0.95507 0
M  V30 3043 H 288.721 3.87165 -1.17835 0
M  V30 3044 H 285.476 3.52141 -3.16692 0
M  V30 3045 H 285.9 3.51171 -5.78798 0
M  V30 3046 H 290.542 3.05747 -2.92025 0
M  V30 3047 H 288.26 3.32718 -7.36427 0
M  V30 3048 H 291.846 2.94295 -5.01878 0
M  V30 3049 H 290.726 3.078 -7.21269 0
M  V30 3050 N 288.23 0.939286 1.26551 0
M  V30 3051 C 289.646 0.641304 1.46149 0
M  V30 3052 C 289.846 -0.805964 1.84679 0
M  V30 3053 O 288.902 -1.58278 1.96734 0
M  V30 3054 C 290.215 1.6011 2.54529 0
M  V30 3055 C 291.763 1.6106 2.68382 0
M  V30 3056 C 292.238 2.55765 3.79932 0
M  V30 3057 N 293.729 2.5404 3.87322 0
M  V30 3058 C 294.464 3.24004 4.73085 0
M  V30 3059 N 293.96 4.03388 5.63249 0
M  V30 3060 N 295.753 3.12965 4.66914 0
M  V30 3061 H 287.904 1.87478 0.998285 0
M  V30 3062 H 290.167 0.805559 0.499779 0
M  V30 3063 H 289.873 2.63412 2.33039 0
M  V30 3064 H 289.747 1.35171 3.52149 0
M  V30 3065 H 292.134 0.584835 2.89247 0
M  V30 3066 H 292.215 1.90053 1.71212 0
M  V30 3067 H 291.859 3.58458 3.5982 0
M  V30 3068 H 291.789 2.24063 4.76554 0
M  V30 3069 H 294.28 1.96396 3.22858 0
M  V30 3070 H 294.593 4.5373 6.25579 0
M  V30 3071 H 292.938 4.07489 5.63008 0
M  V30 3072 H 296.129 2.50432 3.95476 0
M  V30 3073 H 296.302 3.67759 5.33533 0
M  V30 3074 N 289.708 -1.40897 0.706093 0
M  V30 3075 C 290.985 -1.94868 0.169099 0
M  V30 3076 C 291.365 -1.64485 -1.32318 0
M  V30 3077 O 290.713 -0.95744 -2.07474 0
M  V30 3078 C 290.923 -3.45798 0.471654 0
M  V30 3079 C 292.271 -4.22663 0.405127 0
M  V30 3080 O 293.295 -3.53865 0.407168 0
M  V30 3081 O 292.154 -5.45216 0.374383 0
M  V30 3082 H 289.248 -0.82673 0.0211352 0
M  V30 3083 H 291.794 -1.50558 0.782976 0
M  V30 3084 H 290.566 -3.61235 1.50416 0
M  V30 3085 H 290.189 -3.97225 -0.172666 0
M  V30 3086 N 291.186 -0.45159 -1.50991 0
M  V30 3087 C 292.434 0.109857 -2.01801 0
M  V30 3088 C 292.755 1.41958 -1.3369 0
M  V30 3089 O 292.025 1.9003 -0.475951 0
M  V30 3090 H 290.605 0.0435884 -0.745727 0
M  V30 3091 H 293.267 -0.597557 -1.85514 0
M  V30 3092 H 292.363 0.275489 -3.10882 0
M  V30 3093 N 292.664 1.56529 -0.183458 0
M  V30 3094 C 293.91 1.98304 0.452466 0
M  V30 3095 C 294.265 1.06799 1.60037 0
M  V30 3096 O 293.558 0.110049 1.91284 0
M  V30 3097 C 293.752 3.43939 0.971637 0
M  V30 3098 C 293.581 4.49528 -0.124425 0
M  V30 3099 C 292.351 5.01981 -0.578168 0
M  V30 3100 C 294.549 5.05836 -0.929207 0
M  V30 3101 N 292.531 5.91219 -1.65327 0
M  V30 3102 C 293.902 5.91632 -1.85396 0
M  V30 3103 C 295.957 4.88302 -0.972929 0
M  V30 3104 C 294.66 6.61768 -2.81878 0
M  V30 3105 C 296.686 5.59168 -1.92574 0
M  V30 3106 C 296.048 6.44701 -2.83795 0
M  V30 3107 H 292.147 0.770551 0.133324 0
M  V30 3108 H 294.731 1.92581 -0.286473 0
M  V30 3109 H 292.902 3.50184 1.68006 0
M  V30 3110 H 294.634 3.72702 1.5772 0
M  V30 3111 H 291.389 4.73282 -0.173639 0
M  V30 3112 H 291.813 6.40543 -2.19167 0
M  V30 3113 H 296.455 4.21861 -0.28168 0
M  V30 3114 H 294.173 7.27415 -3.51984 0
M  V30 3115 H 297.759 5.47582 -1.96583 0
M  V30 3116 H 296.639 6.98573 -3.56322 0
M  V30 3117 N 294.142 -0.090211 1.57342 0
M  V30 3118 C 295.089 -1.10909 2.02405 0
M  V30 3119 C 296.059 -1.39523 0.901252 0
M  V30 3120 O 297.244 -1.50903 1.1676 0
M  V30 3121 C 294.384 -2.42277 2.45755 0
M  V30 3122 C 293.497 -2.20352 3.71576 0
M  V30 3123 C 292.632 -3.45154 4.03785 0
M  V30 3124 C 291.671 -3.18512 5.22701 0
M  V30 3125 N 290.808 -4.35593 5.50639 0
M  V30 3126 H 295.648 -0.71782 2.89225 0
M  V30 3127 H 293.185 -0.342901 1.43048 0
M  V30 3128 H 295.143 -3.18951 2.68935 0
M  V30 3129 H 293.773 -2.79242 1.61938 0
M  V30 3130 H 292.825 -1.34458 3.55844 0
M  V30 3131 H 294.137 -1.96661 4.58395 0
M  V30 3132 H 293.291 -4.30233 4.27767 0
M  V30 3133 H 292.03 -3.71904 3.15498 0
M  V30 3134 H 291.035 -2.31827 4.98534 0
M  V30 3135 H 292.26 -2.93103 6.12591 0
M  V30 3136 H 290.206 -4.6241 4.6531 0
M  V30 3137 H 290.123 -4.1511 6.31838 0
M  V30 3138 H 291.391 -5.21723 5.7916 0
M  V30 3139 N 295.62 -1.53406 -0.361157 0
M  V30 3140 C 296.897 -1.60411 -1.11927 0
M  V30 3141 C 297.277 -0.414385 -2.06993 0
M  V30 3142 O 296.625 0.594976 -2.20618 0
M  V30 3143 C 296.835 -2.95652 -1.85448 0
M  V30 3144 C 298.183 -3.50386 -2.39823 0
M  V30 3145 O 299.207 -2.97711 -1.95568 0
M  V30 3146 O 298.066 -4.42482 -3.20737 0
M  V30 3147 H 295.16 -0.64811 -0.513695 0
M  V30 3148 H 297.706 -1.65749 -0.364065 0
M  V30 3149 H 296.478 -3.73682 -1.16091 0
M  V30 3150 H 296.101 -2.93825 -2.67866 0
M  V30 3151 N 297.098 0.621204 -1.44841 0
M  V30 3152 C 298.346 1.37783 -1.47852 0
M  V30 3153 C 298.667 1.94653 -0.116224 0
M  V30 3154 O 297.937 1.76367 0.852737 0
M  V30 3155 H 296.517 0.511453 -0.544449 0
M  V30 3156 H 299.179 0.730446 -1.80694 0
M  V30 3157 H 298.275 2.20414 -2.20961 0
M  V30 3158 N 298.576 1.31904 0.862503 0
M  V30 3159 C 299.801 1.25135 1.65397 0
M  V30 3160 C 300.226 -0.179 1.87246 0
M  V30 3161 O 299.584 -1.1277 1.4196 0
M  V30 3162 C 299.632 2.00832 2.99498 0
M  V30 3163 O 298.736 1.35075 3.89652 0
M  V30 3164 H 298.077 0.431655 0.504549 0
M  V30 3165 H 300.607 1.74094 1.07483 0
M  V30 3166 H 300.617 2.10709 3.49379 0
M  V30 3167 H 299.292 3.04847 2.82916 0
M  V30 3168 H 297.869 1.33696 3.48109 0
M  V30 3169 N 300.054 -1.07777 1.14986 0
M  V30 3170 C 301.294 -1.81888 0.932527 0
M  V30 3171 C 301.658 -1.84509 -0.531064 0
M  V30 3172 O 302.859 -2.54448 -0.866577 0
M  V30 3173 C 301.13 -3.23244 1.52473 0
M  V30 3174 S 302.689 -4.14154 1.44989 0
M  V30 3175 H 299.507 -0.626752 0.335712 0
M  V30 3176 H 302.109 -1.29503 1.46455 0
M  V30 3177 H 300.813 -3.18922 2.58296 0
M  V30 3178 H 300.344 -3.80704 0.991381 0
M  V30 3179 H 302.359 -4.94247 0.439799 0
M  V30 3180 N 301.532 -0.945985 -1.26051 0
M  V30 3181 C 302.809 -0.513816 -1.88731 0
M  V30 3182 C 303.189 1.00872 -1.8544 0
M  V30 3183 O 302.537 1.8708 -1.312 0
M  V30 3184 C 302.747 -1.08062 -3.31849 0
M  V30 3185 C 304.095 -1.1522 -4.08668 0
M  V30 3186 O 305.119 -1.03155 -3.40936 0
M  V30 3187 O 303.978 -1.34044 -5.29806 0
M  V30 3188 H 301.072 -0.168193 -0.809716 0
M  V30 3189 H 303.618 -1.03886 -1.34186 0
M  V30 3190 H 302.39 -2.1241 -3.2863 0
M  V30 3191 H 302.013 -0.538307 -3.93939 0
M  V30 3192 O 303.049 1.37208 -0.85184 0
M  V30 3193 H 303.74 1.88528 -0.444614 0
M  V30 END ATOM
M  V30 BEGIN BOND
M  V30 END BOND
M  V30 END CTAB
M  END
$$$$
