drugbank_target|P55818 Bifunctional protein MdtA (DB03461)
 OpenBabel12092120283D

  0  0  0     0  0            999 V3000
M  V30 BEGIN CTAB
M  V30 COUNTS 4190 4222 0 0 0
M  V30 BEGIN ATOM
M  V30 1 H -0.908 1.98254 -0.117106 0
M  V30 2 N 0 1.576 0 0
M  V30 3 C 0.933 2.03868 1.02534 0
M  V30 4 C 1.911 0.928543 1.3348 0
M  V30 5 O 3.095 1.19667 1.45644 0
M  V30 6 C 0.222 2.43627 2.35294 0
M  V30 7 C -0.732 3.65373 2.2001 0
M  V30 8 S 0.101 5.13292 1.52614 0
M  V30 9 C 1.257 5.56322 2.86805 0
M  V30 10 H 1.49 2.90518 0.631377 0
M  V30 11 H -0.977 1.52953 0.210867 0
M  V30 12 H 0.981 2.67203 3.11629 0
M  V30 13 H -0.358 1.57376 2.7183 0
M  V30 14 H -1.165 3.90944 3.18086 0
M  V30 15 H -1.563 3.418 1.51819 0
M  V30 16 H 0.729 5.58782 3.83104 0
M  V30 17 H 1.672 6.56266 2.65933 0
M  V30 18 H 2.08 4.83886 2.90714 0
M  V30 19 N 1.4781 -0.272755 1.55222 0
M  V30 20 C 2.7031 -1.02683 1.80197 0
M  V30 21 C 3.1281 -1.79142 0.573551 0
M  V30 22 O 2.4861 -1.74917 -0.476849 0
M  V30 23 C 2.5341 -1.9609 3.02624 0
M  V30 24 O 1.6381 -3.04863 2.77727 0
M  V30 25 H 0.9791 -0.293557 0.595584 0
M  V30 26 H 3.5091 -0.30159 2.02365 0
M  V30 27 H 3.5191 -2.38039 3.31363 0
M  V30 28 H 2.1941 -1.39851 3.91682 0
M  V30 29 H 0.7711 -2.67228 2.60084 0
M  V30 30 N 2.9562 -1.48159 -0.537278 0
M  V30 31 C 3.9032 -1.62138 -1.64256 0
M  V30 32 C 4.8732 -0.463668 -1.59497 0
M  V30 33 O 6.0582 -0.686241 -1.78032 0
M  V30 34 C 3.1982 -1.66028 -3.02537 0
M  V30 35 C 2.3112 -2.92855 -3.17585 0
M  V30 36 C 1.4462 -2.87952 -4.46382 0
M  V30 37 C 0.4852 -4.09516 -4.54932 0
M  V30 38 N -0.3778 -4.02733 -5.75109 0
M  V30 39 H 4.4622 -2.56529 -1.51647 0
M  V30 40 H 1.9992 -1.27224 -0.738414 0
M  V30 41 H 3.9572 -1.66265 -3.82638 0
M  V30 42 H 2.5872 -0.751331 -3.13934 0
M  V30 43 H 1.6392 -3.02395 -2.30784 0
M  V30 44 H 2.9512 -3.82822 -3.19764 0
M  V30 45 H 2.1052 -2.8655 -5.34765 0
M  V30 46 H 0.8442 -1.95702 -4.46712 0
M  V30 47 H -0.1508 -4.11201 -3.64957 0
M  V30 48 H 1.0742 -5.02917 -4.56346 0
M  V30 49 H -0.9798 -3.13299 -5.76351 0
M  V30 50 H -1.0628 -4.86397 -5.78752 0
M  V30 51 H 0.2052 -4.05379 -6.65799 0
M  V30 52 N 4.4343 0.785586 -1.36625 0
M  V30 53 C 5.3813 1.89838 -1.31264 0
M  V30 54 C 6.3513 1.65115 -0.180633 0
M  V30 55 O 7.5363 1.87222 -0.36777 0
M  V30 56 C 4.6763 3.26706 -1.11163 0
M  V30 57 C 3.7893 3.63476 -2.33472 0
M  V30 58 C 2.9243 4.89481 -2.06353 0
M  V30 59 C 1.9633 5.18941 -3.24602 0
M  V30 60 N 1.1003 6.36131 -2.97123 0
M  V30 61 H 5.9403 1.93756 -2.26413 0
M  V30 62 H 3.4773 0.947454 -1.12524 0
M  V30 63 H 5.4353 4.05639 -0.975337 0
M  V30 64 H 4.0653 3.222 -0.196674 0
M  V30 65 H 3.1173 2.79636 -2.57891 0
M  V30 66 H 4.4293 3.81193 -3.21704 0
M  V30 67 H 3.5833 5.76288 -1.89675 0
M  V30 68 H 2.3223 4.73841 -1.15437 0
M  V30 69 H 1.3273 4.30615 -3.41834 0
M  V30 70 H 2.5523 5.36498 -4.16349 0
M  V30 71 H 0.4983 6.21875 -2.08823 0
M  V30 72 H 0.4153 6.54198 -3.78894 0
M  V30 73 H 1.6833 7.2591 -2.84033 0
M  V30 74 N 5.9124 1.20967 1.01018 0
M  V30 75 C 6.8424 0.988272 2.11555 0
M  V30 76 C 7.8234 -0.0849778 1.69888 0
M  V30 77 O 9.0084 0.0738202 1.9406 0
M  V30 78 C 6.1384 0.546528 3.42973 0
M  V30 79 C 5.0924 1.56375 3.9841 0
M  V30 80 C 4.4184 0.97842 5.25672 0
M  V30 81 C 5.7184 2.94922 4.31066 0
M  V30 82 H 7.4124 1.91276 2.30334 0
M  V30 83 H 4.9584 0.921073 1.1069 0
M  V30 84 H 6.9114 0.378839 4.19694 0
M  V30 85 H 5.6354 -0.413598 3.23971 0
M  V30 86 H 4.2944 1.71891 3.23804 0
M  V30 87 H 3.9424 0.0101688 5.02999 0
M  V30 88 H 3.6424 1.65784 5.63728 0
M  V30 89 H 5.1664 0.821939 6.05043 0
M  V30 90 H 6.5804 2.8288 4.9865 0
M  V30 91 H 4.9774 3.5983 4.80253 0
M  V30 92 H 6.0474 3.4616 3.39561 0
M  V30 93 N 7.3905 -1.2043 1.01659 0
M  V30 94 C 8.3205 -2.25466 0.607226 0
M  V30 95 C 9.3015 -1.65853 -0.377716 0
M  V30 96 O 10.4865 -1.92409 -0.263149 0
M  V30 97 C 7.6165 -3.47256 -0.0552949 0
M  V30 98 C 6.5705 -4.19462 0.850632 0
M  V30 99 C 5.8965 -5.34673 0.0538859 0
M  V30 100 C 7.1965 -4.75603 2.15868 0
M  V30 101 H 8.8905 -2.59962 1.48526 0
M  V30 102 H 6.4365 -1.2496 0.715605 0
M  V30 103 H 8.3895 -4.19917 -0.353233 0
M  V30 104 H 7.1135 -3.11924 -0.968045 0
M  V30 105 H 5.7725 -3.48667 1.13257 0
M  V30 106 H 5.4205 -4.95585 -0.860514 0
M  V30 107 H 5.1205 -5.83913 0.657192 0
M  V30 108 H 6.6445 -6.10138 -0.237598 0
M  V30 109 H 8.0585 -5.40083 1.92311 0
M  V30 110 H 6.4555 -5.3528 2.71284 0
M  V30 111 H 7.5255 -3.94346 2.82169 0
M  V30 112 N 8.8686 -0.792821 -1.36206 0
M  V30 113 C 10.1156 -0.366786 -1.99151 0
M  V30 114 C 10.4436 1.06243 -1.62919 0
M  V30 115 O 9.6986 1.74927 -0.877442 0
M  V30 116 C 9.9976 -0.481501 -3.54142 0
M  V30 117 C 9.6636 -1.87202 -4.10203 0
M  V30 118 C 8.3256 -2.25248 -4.25226 0
M  V30 119 C 10.6776 -2.78237 -4.40719 0
M  V30 120 C 8.0056 -3.53723 -4.68078 0
M  V30 121 C 10.3576 -4.06144 -4.85005 0
M  V30 122 C 9.0216 -4.44207 -4.98234 0
M  V30 123 H 8.2916 -0.134217 -0.728743 0
M  V30 124 H 10.9386 -1.01094 -1.62641 0
M  V30 125 H 9.2436 0.246146 -3.91026 0
M  V30 126 H 10.9406 -0.132844 -4.0078 0
M  V30 127 H 7.5306 -1.56639 -3.98951 0
M  V30 128 H 11.7146 -2.50097 -4.28679 0
M  V30 129 H 6.9706 -3.8308 -4.76508 0
M  V30 130 H 11.1446 -4.76796 -5.07581 0
M  V30 131 H 8.7716 -5.43814 -5.31197 0
M  V30 132 N 10.3467 1.47872 -0.545128 0
M  V30 133 C 11.2787 2.27869 0.246621 0
M  V30 134 C 12.2917 1.36282 0.890561 0
M  V30 135 O 13.4807 1.61207 0.766449 0
M  V30 136 C 10.5807 3.10159 1.36582 0
M  V30 137 C 9.7537 4.29627 0.820954 0
M  V30 138 C 8.8127 4.93607 1.82314 0
M  V30 139 O 7.8387 5.52366 1.37406 0
M  V30 140 N 9.0407 4.87211 3.15603 0
M  V30 141 H 11.8057 2.96459 -0.439539 0
M  V30 142 H 9.3667 1.57367 -0.380421 0
M  V30 143 H 11.3587 3.49829 2.03474 0
M  V30 144 H 9.9287 2.43891 1.9554 0
M  V30 145 H 9.1487 3.94192 -0.0244032 0
M  V30 146 H 10.4367 5.06928 0.436063 0
M  V30 147 H 9.8347 4.40651 3.54744 0
M  V30 148 H 8.3917 5.30937 3.78087 0
M  V30 149 N 11.8248 0.280983 1.55075 0
M  V30 150 C 13.0718 -0.334115 1.99725 0
M  V30 151 C 13.3998 -1.5542 1.1694 0
M  V30 152 O 12.6548 -1.94361 0.228531 0
M  V30 153 C 12.9538 -0.754656 3.49342 0
M  V30 154 C 12.6198 0.361445 4.49449 0
M  V30 155 C 11.2818 0.667893 4.76542 0
M  V30 156 C 13.6338 1.11322 5.09173 0
M  V30 157 C 10.9618 1.7296 5.60626 0
M  V30 158 C 13.3138 2.1647 5.9441 0
M  V30 159 C 11.9778 2.47742 6.19822 0
M  V30 160 H 11.2478 -0.122261 0.730844 0
M  V30 161 H 13.8948 0.395917 1.87363 0
M  V30 162 H 12.1998 -1.56446 3.5921 0
M  V30 163 H 13.8968 -1.24142 3.813 0
M  V30 164 H 10.4868 0.112481 4.28452 0
M  V30 165 H 14.6708 0.88973 4.8826 0
M  V30 166 H 9.9268 1.97684 5.78559 0
M  V30 167 H 14.1008 2.75193 6.3972 0
M  V30 168 H 11.7278 3.30145 6.84769 0
M  V30 169 N 13.3029 -1.57598 0.00835791 0
M  V30 170 C 14.5799 -1.82172 -0.712235 0
M  V30 171 C 14.9599 -0.887873 -1.9152 0
M  V30 172 O 14.3079 0.06146 -2.28417 0
M  V30 173 C 14.5179 -3.30875 -1.11008 0
M  V30 174 C 15.8659 -3.96826 -1.51044 0
M  V30 175 O 16.8899 -3.35248 -1.20364 0
M  V30 176 O 15.7489 -5.05318 -2.08125 0
M  V30 177 H 12.8429 -0.750435 -0.347529 0
M  V30 178 H 15.3889 -1.69665 0.0344523 0
M  V30 179 H 14.1609 -3.90481 -0.252982 0
M  V30 180 H 13.7839 -3.48412 -1.9156 0
M  V30 181 N 14.781 0.264519 -1.55364 0
M  V30 182 C 16.009 1.013 -1.80405 0
M  V30 183 C 16.424 1.79618 -0.581622 0
M  V30 184 O 15.781 1.76879 0.449468 0
M  V30 185 C 15.832 1.96487 -3.03439 0
M  V30 186 O 15.553 1.21341 -4.20961 0
M  V30 187 C 17.054 2.83079 -3.41147 0
M  V30 188 H 14.274 0.298875 -0.600762 0
M  V30 189 H 16.818 0.292736 -2.02394 0
M  V30 190 H 14.973 2.63965 -2.83551 0
M  V30 191 H 15.387 1.85573 -4.90574 0
M  V30 192 H 16.861 3.4565 -4.30384 0
M  V30 193 H 17.338 3.53286 -2.60932 0
M  V30 194 H 17.944 2.2108 -3.63323 0
M  V30 195 N 16.2591 1.48442 0.529413 0
M  V30 196 C 17.5361 1.46978 1.29062 0
M  V30 197 C 17.9161 0.181769 2.10316 0
M  V30 198 O 17.2641 -0.836481 2.12639 0
M  V30 199 C 17.4741 2.7321 2.17157 0
M  V30 200 C 18.8221 3.21562 2.77278 0
M  V30 201 O 19.8461 2.74131 2.27444 0
M  V30 202 O 18.7051 4.04094 3.67927 0
M  V30 203 H 15.7991 0.587003 0.582543 0
M  V30 204 H 18.3451 1.60676 0.546021 0
M  V30 205 H 17.1171 3.58465 1.56903 0
M  V30 206 H 16.7401 2.62235 2.98862 0
M  V30 207 N 17.7372 -0.778329 1.37039 0
M  V30 208 C 18.7002 -1.87301 1.32102 0
M  V30 209 C 19.7002 -1.59198 0.226405 0
M  V30 210 O 20.8902 -1.67403 0.481861 0
M  V30 211 C 18.0222 -3.24309 1.05055 0
M  V30 212 H 19.2152 -1.93093 2.29467 0
M  V30 213 H 16.7682 -0.977358 1.21973 0
M  V30 214 H 17.5032 -3.24196 0.0819373 0
M  V30 215 H 17.2882 -3.46098 1.84279 0
M  V30 216 H 18.7782 -4.04382 1.04234 0
M  V30 217 N 19.2153 -1.21501 -1.00376 0
M  V30 218 C 20.4433 -1.059 -1.77744 0
M  V30 219 C 20.8583 0.391125 -1.84704 0
M  V30 220 O 20.2153 1.27133 -1.30933 0
M  V30 221 C 20.2663 -1.65111 -3.21591 0
M  V30 222 O 19.9873 -3.0445 -3.15027 0
M  V30 223 C 21.4883 -1.54637 -4.15454 0
M  V30 224 H 18.7083 -0.371825 -0.558558 0
M  V30 225 H 21.2523 -1.60865 -1.26264 0
M  V30 226 H 19.4073 -1.14235 -3.70175 0
M  V30 227 H 19.8213 -3.3278 -4.0541 0
M  V30 228 H 21.2953 -2.00808 -5.14179 0
M  V30 229 H 21.7723 -0.501022 -4.36333 0
M  V30 230 H 22.3783 -2.04767 -3.72761 0
M  V30 231 N 20.6934 1.19889 -1.02296 0
M  V30 232 C 22.1044 1.71124 -0.746568 0
M  V30 233 C 22.4554 1.81939 0.734335 0
M  V30 234 O 21.5804 1.48639 1.57275 0
M  V30 235 C 22.1754 3.10804 -1.34857 0
M  V30 236 C 20.7344 3.59323 -1.1209 0
M  V30 237 C 19.8814 2.3635 -1.45031 0
M  V30 238 H 22.8324 1.04813 -1.19163 0
M  V30 239 H 22.8534 3.73186 -0.742437 0
M  V30 240 H 22.3654 3.029 -2.42638 0
M  V30 241 H 20.4664 3.7255 -0.0610337 0
M  V30 242 H 20.5794 4.4378 -1.80544 0
M  V30 243 H 18.9434 2.39399 -0.869487 0
M  V30 244 H 19.7264 2.31081 -2.53883 0
M  V30 245 N 22.1715 0.800033 1.35784 0
M  V30 246 C 23.3965 0.388511 2.03729 0
M  V30 247 C 23.8215 -0.990481 1.5991 0
M  V30 248 O 23.1795 -1.64013 0.772612 0
M  V30 249 C 23.2275 0.4726 3.5749 0
M  V30 250 O 22.3315 -0.51646 4.09153 0
M  V30 251 H 21.6725 0.163271 0.643614 0
M  V30 252 H 24.2025 1.0841 1.73518 0
M  V30 253 H 24.2125 0.34003 4.06581 0
M  V30 254 H 22.8875 1.47848 3.88734 0
M  V30 255 H 21.4645 -0.344673 3.71304 0
M  V30 256 N 23.6496 -1.47581 0.552962 0
M  V30 257 C 24.8956 -2.02782 0.0273648 0
M  V30 258 C 25.2286 -1.42687 -1.31734 0
M  V30 259 O 24.5036 -0.580897 -1.85623 0
M  V30 260 C 24.7866 -3.60031 -0.0702371 0
M  V30 261 C 24.6396 -4.30566 1.30126 0
M  V30 262 C 25.9586 -4.33028 -0.785771 0
M  V30 263 H 23.0776 -0.736912 0.0114185 0
M  V30 264 H 25.7196 -1.76056 0.714432 0
M  V30 265 H 23.8696 -3.82932 -0.655382 0
M  V30 266 H 25.5416 -4.19018 1.92929 0
M  V30 267 H 23.7846 -3.91086 1.87709 0
M  V30 268 H 24.4556 -5.39114 1.18573 0
M  V30 269 H 26.9316 -4.15095 -0.288982 0
M  V30 270 H 25.8076 -5.42695 -0.823013 0
M  V30 271 H 26.0686 -4.01945 -1.841 0
M  V30 272 N 25.1277 -0.289203 -1.54924 0
M  V30 273 C 26.3747 0.323519 -1.99899 0
M  V30 274 C 26.7027 1.54797 -1.17762 0
M  V30 275 O 25.9577 1.94237 -0.238835 0
M  V30 276 C 26.2567 0.736119 -3.49737 0
M  V30 277 C 25.9227 -0.385276 -4.49251 0
M  V30 278 C 24.5847 -0.693156 -4.76181 0
M  V30 279 C 26.9367 -1.14021 -5.08575 0
M  V30 280 C 24.2647 -1.7593 -5.59701 0
M  V30 281 C 26.6167 -2.19619 -5.93254 0
M  V30 282 C 25.2807 -2.51026 -6.185 0
M  V30 283 H 24.5507 0.118384 -0.731482 0
M  V30 284 H 27.1977 -0.405847 -1.8715 0
M  V30 285 H 25.5027 1.54539 -3.60035 0
M  V30 286 H 27.1997 1.22118 -3.81953 0
M  V30 287 H 23.7897 -0.135202 -4.28387 0
M  V30 288 H 27.9737 -0.915611 -4.87781 0
M  V30 289 H 23.2297 -2.0075 -5.77503 0
M  V30 290 H 27.4037 -2.78581 -6.38252 0
M  V30 291 H 25.0307 -3.33772 -6.83008 0
M  V30 292 N 26.6058 1.57591 -0.0167156 0
M  V30 293 C 27.8828 1.82547 0.702564 0
M  V30 294 C 28.2628 0.898018 1.91047 0
M  V30 295 O 27.6108 -0.0493456 2.28447 0
M  V30 296 C 27.8208 3.31459 1.09251 0
M  V30 297 C 29.1688 3.97622 1.48937 0
M  V30 298 O 30.1928 3.35881 1.18584 0
M  V30 299 O 29.0518 5.06415 2.05442 0
M  V30 300 H 26.1458 0.752268 0.343544 0
M  V30 301 H 28.6918 1.69644 -0.0434495 0
M  V30 302 H 27.4638 3.9061 0.23227 0
M  V30 303 H 27.0868 3.49422 1.89709 0
M  V30 304 N 28.0839 -0.256276 1.55502 0
M  V30 305 C 29.3299 -0.987079 1.77157 0
M  V30 306 C 29.6629 -1.85327 0.580315 0
M  V30 307 O 28.9379 -1.89874 -0.421686 0
M  V30 308 C 29.2209 -1.85553 3.08613 0
M  V30 309 C 29.0739 -1.01816 4.38125 0
M  V30 310 C 30.3929 -2.8397 3.36228 0
M  V30 311 H 27.5119 -0.357428 0.644526 0
M  V30 312 H 30.1539 -0.258239 1.88237 0
M  V30 313 H 28.3039 -2.47695 2.99298 0
M  V30 314 H 29.9759 -0.416159 4.59419 0
M  V30 315 H 28.2189 -0.322178 4.32602 0
M  V30 316 H 28.8899 -1.65939 5.26468 0
M  V30 317 H 31.3659 -2.31964 3.45445 0
M  V30 318 H 30.2419 -3.41864 4.29442 0
M  V30 319 H 30.5029 -3.59955 2.56681 0
M  V30 320 N 29.562 -1.4872 -0.521534 0
M  V30 321 C 30.808 -1.574 -1.27879 0
M  V30 322 C 31.141 -0.250817 -1.92573 0
M  V30 323 O 30.416 0.743934 -1.79711 0
M  V30 324 C 30.699 -2.71843 -2.36164 0
M  V30 325 C 30.552 -4.13893 -1.76105 0
M  V30 326 C 31.871 -2.82008 -3.37875 0
M  V30 327 H 28.99 -0.572941 -0.463581 0
M  V30 328 H 31.632 -1.80927 -0.580119 0
M  V30 329 H 29.782 -2.51914 -2.95756 0
M  V30 330 H 31.454 -4.45284 -1.20499 0
M  V30 331 H 29.697 -4.20498 -1.06601 0
M  V30 332 H 30.368 -4.89804 -2.5455 0
M  V30 333 H 32.844 -3.00086 -2.88249 0
M  V30 334 H 31.72 -3.63796 -4.11028 0
M  V30 335 H 31.981 -1.90511 -3.98946 0
M  V30 336 N 31.0401 0.771051 -1.3745 0
M  V30 337 C 32.2861 1.5319 -1.32894 0
M  V30 338 C 32.6191 1.94008 0.0862511 0
M  V30 339 O 31.8941 1.64124 1.04373 0
M  V30 340 C 32.1771 2.79648 -2.26868 0
M  V30 341 C 32.0301 2.45079 -3.77169 0
M  V30 342 C 33.3491 3.81583 -2.19277 0
M  V30 343 H 30.4681 0.555744 -0.484064 0
M  V30 344 H 33.1101 0.884492 -1.68157 0
M  V30 345 H 31.2601 3.34891 -1.96926 0
M  V30 346 H 32.9321 1.95745 -4.1771 0
M  V30 347 H 31.1751 1.77767 -3.95704 0
M  V30 348 H 31.8461 3.35478 -4.38359 0
M  V30 349 H 34.3221 3.35835 -2.45671 0
M  V30 350 H 33.1981 4.67787 -2.87171 0
M  V30 351 H 33.4591 4.25897 -1.18592 0
M  V30 352 N 32.5182 1.22032 0.997298 0
M  V30 353 C 33.7662 1.04016 1.73278 0
M  V30 354 C 34.0872 -0.426255 1.90284 0
M  V30 355 O 33.3572 -1.30694 1.45931 0
M  V30 356 H 31.9372 0.381897 0.642 0
M  V30 357 H 34.5992 1.5347 1.20137 0
M  V30 358 H 33.6952 1.51441 2.72896 0
M  V30 359 N 33.9963 -1.19345 1.0293 0
M  V30 360 C 35.2263 -1.92717 0.744563 0
M  V30 361 C 35.6343 -1.75751 -0.700579 0
M  V30 362 O 34.9773 -1.07703 -1.48815 0
M  V30 363 C 35.0393 -3.44828 1.01657 0
M  V30 364 C 34.7033 -3.85564 2.45335 0
M  V30 365 C 35.7003 -3.90286 3.43472 0
M  V30 366 C 33.3853 -4.1719 2.79746 0
M  V30 367 C 35.3793 -4.26065 4.74075 0
M  V30 368 C 33.0663 -4.52642 4.10559 0
M  V30 369 C 34.0643 -4.57054 5.07534 0
M  V30 370 O 33.7523 -4.91685 6.36004 0
M  V30 371 H 33.4843 -0.618977 0.271742 0
M  V30 372 H 36.0383 -1.52415 1.37691 0
M  V30 373 H 34.2683 -3.85314 0.327084 0
M  V30 374 H 35.9573 -3.99437 0.721427 0
M  V30 375 H 36.7233 -3.66002 3.18225 0
M  V30 376 H 32.6023 -4.1294 2.04943 0
M  V30 377 H 36.1463 -4.29423 5.49765 0
M  V30 378 H 32.0433 -4.76383 4.35579 0
M  V30 379 H 32.8113 -5.09631 6.40483 0
M  V30 380 N 35.4744 -0.807222 -1.35358 0
M  V30 381 C 36.7514 -0.311126 -1.9311 0
M  V30 382 C 37.1314 1.19937 -1.73719 0
M  V30 383 O 36.4794 1.99918 -1.10657 0
M  V30 384 C 36.6894 -0.723226 -3.41424 0
M  V30 385 C 38.0374 -0.713078 -4.18569 0
M  V30 386 O 39.0614 -0.664811 -3.49941 0
M  V30 387 O 37.9204 -0.772022 -5.41019 0
M  V30 388 H 35.0144 -0.081526 -0.822972 0
M  V30 389 H 37.5604 -0.890962 -1.4443 0
M  V30 390 H 36.3324 -1.76426 -3.4927 0
M  V30 391 H 35.9554 -0.118232 -3.97424 0
M  V30 392 N 36.9525 1.47285 -0.560781 0
M  V30 393 C 38.2005 2.02064 -0.0379868 0
M  V30 394 C 38.5215 1.43711 1.31803 0
M  V30 395 O 37.7915 0.61362 1.86042 0
M  V30 396 H 36.3715 0.746918 -0.0110531 0
M  V30 397 H 39.0335 1.80648 -0.731598 0
M  V30 398 H 38.1295 3.12064 0.0474463 0
M  V30 399 N 38.4306 0.297415 1.54768 0
M  V30 400 C 39.6786 -0.312295 1.99673 0
M  V30 401 C 39.9996 -1.54686 1.18732 0
M  V30 402 O 39.2696 -1.93854 0.282382 0
M  V30 403 H 37.8496 -0.118381 0.73756 0
M  V30 404 H 40.5116 0.407915 1.90583 0
M  V30 405 H 39.6076 -0.586813 3.06534 0
M  V30 406 N 39.9087 -1.5758 0.0250728 0
M  V30 407 C 40.8717 -2.08896 -0.943139 0
M  V30 408 C 41.8717 -1.00321 -1.25668 0
M  V30 409 O 43.0617 -1.26495 -1.19769 0
M  V30 410 C 40.1937 -2.55143 -2.26086 0
M  V30 411 H 41.3867 -2.95723 -0.498775 0
M  V30 412 H 38.9397 -1.54703 -0.222888 0
M  V30 413 H 39.6747 -1.71633 -2.75159 0
M  V30 414 H 39.4597 -3.34461 -2.04641 0
M  V30 415 H 40.9497 -2.95083 -2.95492 0
M  V30 416 N 41.3868 0.248026 -1.55636 0
M  V30 417 C 42.6638 0.998988 -1.68165 0
M  V30 418 C 43.0438 2.03409 -0.564621 0
M  V30 419 O 42.3918 2.24378 0.432076 0
M  V30 420 C 42.6018 1.63334 -3.0842 0
M  V30 421 C 43.9498 2.13562 -3.66983 0
M  V30 422 O 44.9738 1.73277 -3.11213 0
M  V30 423 O 43.8328 2.87526 -4.64749 0
M  V30 424 H 40.9268 0.464933 -0.683935 0
M  V30 425 H 43.4728 0.241902 -1.67967 0
M  V30 426 H 42.2448 0.884583 -3.8117 0
M  V30 427 H 41.8678 2.45666 -3.12624 0
M  V30 428 N 42.8649 1.48995 0.513639 0
M  V30 429 C 43.8149 1.61127 1.61314 0
M  V30 430 C 44.7989 0.467521 1.53958 0
M  V30 431 O 45.9909 0.719826 1.61702 0
M  V30 432 C 43.1199 1.66937 2.99978 0
M  V30 433 C 42.2059 2.86847 3.12377 0
M  V30 434 N 42.5969 4.11078 2.94701 0
M  V30 435 C 40.8949 2.84521 3.43459 0
M  V30 436 C 41.5959 4.91615 3.10949 0
M  V30 437 N 40.5719 4.24739 3.3926 0
M  V30 438 H 44.3739 2.54909 1.46282 0
M  V30 439 H 41.8879 1.45593 0.719483 0
M  V30 440 H 43.8849 1.73725 3.78979 0
M  V30 441 H 42.5449 0.742831 3.16089 0
M  V30 442 H 43.5559 4.41258 2.71131 0
M  V30 443 H 40.2329 2.01192 3.65825 0
M  V30 444 H 41.6229 6.00264 3.01882 0
M  V30 445 N 44.343 -0.763751 1.37857 0
M  V30 446 C 45.592 -1.51789 1.32827 0
M  V30 447 C 45.905 -1.95426 -0.0823719 0
M  V30 448 O 47.111 -2.70298 -0.255172 0
M  V30 449 C 45.567 -2.74133 2.33193 0
M  V30 450 C 45.175 -2.37562 3.79827 0
M  V30 451 C 46.919 -3.52054 2.37188 0
M  V30 452 C 44.826 -3.56456 4.71904 0
M  V30 453 H 43.756 -0.569896 0.493695 0
M  V30 454 H 46.407 -0.835822 1.63359 0
M  V30 455 H 44.789 -3.4427 1.9569 0
M  V30 456 H 45.963 -1.75157 4.26212 0
M  V30 457 H 44.278 -1.72798 3.78853 0
M  V30 458 H 46.875 -4.40437 3.03182 0
M  V30 459 H 47.218 -3.92486 1.38782 0
M  V30 460 H 47.751 -2.88921 2.7344 0
M  V30 461 H 44.49 -3.21099 5.71468 0
M  V30 462 H 44.01 -4.17938 4.30218 0
M  V30 463 H 45.689 -4.23168 4.89426 0
M  V30 464 N 45.8211 -1.22559 -0.990812 0
M  V30 465 C 47.0491 -1.07779 -1.76611 0
M  V30 466 C 47.4641 0.371513 -1.85109 0
M  V30 467 O 46.8211 1.25737 -1.32274 0
M  V30 468 C 46.8721 -1.68512 -3.19822 0
M  V30 469 O 46.5931 -3.07774 -3.1178 0
M  V30 470 C 48.0941 -1.59035 -4.13791 0
M  V30 471 H 45.3141 -0.377729 -0.554583 0
M  V30 472 H 47.8581 -1.62195 -1.24551 0
M  V30 473 H 46.0131 -1.18154 -3.68942 0
M  V30 474 H 46.4271 -3.37062 -4.01858 0
M  V30 475 H 47.9011 -2.0625 -5.1202 0
M  V30 476 H 48.3781 -0.547273 -4.35777 0
M  V30 477 H 48.9841 -2.08709 -3.70568 0
M  V30 478 N 47.2992 1.18797 -1.03562 0
M  V30 479 C 48.5472 1.88278 -0.734569 0
M  V30 480 C 48.8682 1.8043 0.739586 0
M  V30 481 O 48.1382 1.21925 1.53333 0
M  V30 482 H 46.7182 0.696991 -0.268725 0
M  V30 483 H 49.3802 1.44192 -1.31129 0
M  V30 484 H 48.4762 2.94443 -1.03489 0
M  V30 485 N 48.7773 0.814389 1.34928 0
M  V30 486 C 50.0073 0.41054 2.0248 0
M  V30 487 C 50.4153 -0.985625 1.61499 0
M  V30 488 O 49.7583 -1.64781 0.811976 0
M  V30 489 C 49.8203 0.423384 3.56998 0
M  V30 490 C 49.4843 1.77141 4.21272 0
M  V30 491 C 50.4813 2.73093 4.42398 0
M  V30 492 C 48.1663 2.05755 4.58225 0
M  V30 493 C 50.1603 3.95838 4.9959 0
M  V30 494 C 47.8473 3.28762 5.1513 0
M  V30 495 C 48.8453 4.23621 5.35755 0
M  V30 496 O 48.5333 5.44456 5.91458 0
M  V30 497 H 48.2653 0.163997 0.655806 0
M  V30 498 H 50.8193 1.10155 1.73364 0
M  V30 499 H 49.0493 -0.324276 3.85338 0
M  V30 500 H 50.7383 0.0407683 4.0588 0
M  V30 501 H 51.5043 2.5228 4.14222 0
M  V30 502 H 47.3833 1.32727 4.4148 0
M  V30 503 H 50.9273 4.69891 5.15605 0
M  V30 504 H 46.8243 3.49443 5.42734 0
M  V30 505 H 47.5923 5.4586 6.09901 0
M  V30 506 N 50.2554 -1.46986 0.568584 0
M  V30 507 C 51.5034 -2.02041 0.0487022 0
M  V30 508 C 51.8244 -1.44408 -1.31039 0
M  V30 509 O 51.0944 -0.623477 -1.85714 0
M  V30 510 H 49.6744 -0.746849 0.015014 0
M  V30 511 H 52.3364 -1.80257 0.741168 0
M  V30 512 H 51.4324 -3.12085 -0.0308961 0
M  V30 513 N 51.7335 -0.305618 -1.54608 0
M  V30 514 C 52.6815 0.584119 -2.25146 0
M  V30 515 C 53.6755 1.13326 -1.25911 0
M  V30 516 O 54.8815 1.08337 -1.43747 0
M  V30 517 H 51.2565 0.206983 -0.722954 0
M  V30 518 H 53.2275 -0.033291 -2.98381 0
M  V30 519 C 51.9765 1.74225 -3.009 0
M  V30 520 H 51.2995 1.32892 -3.77067 0
M  V30 521 H 52.7395 2.34077 -3.53531 0
M  V30 522 C 51.1985 2.64914 -2.0814 0
M  V30 523 O 51.7285 3.66137 -1.65246 0
M  V30 524 N 49.9345 2.3275 -1.74 0
M  V30 525 H 49.4815 1.50479 -2.09078 0
M  V30 526 H 49.4395 2.93694 -1.12211 0
M  V30 527 N 53.2116 1.57565 -0.0334293 0
M  V30 528 C 54.4576 1.92262 0.645226 0
M  V30 529 C 54.7906 0.910543 1.71531 0
M  V30 530 O 54.0656 -0.066099 1.94388 0
M  V30 531 C 54.3486 3.37422 1.2577 0
M  V30 532 C 54.2016 4.49369 0.196891 0
M  V30 533 C 55.5206 3.82628 2.17449 0
M  V30 534 H 52.6396 0.699171 0.233085 0
M  V30 535 H 55.2816 1.89779 -0.0915694 0
M  V30 536 H 53.4316 3.39669 1.88566 0
M  V30 537 H 55.1036 4.59254 -0.433962 0
M  V30 538 H 53.3466 4.31168 -0.477137 0
M  V30 539 H 54.0176 5.47978 0.665124 0
M  V30 540 H 56.4936 3.82145 1.64634 0
M  V30 541 H 55.3696 4.84883 2.57254 0
M  V30 542 H 55.6306 3.18376 3.0674 0
M  V30 543 N 54.6897 -0.239769 1.55765 0
M  V30 544 C 55.9177 -0.98417 1.81994 0
M  V30 545 C 56.3327 -1.7867 0.610124 0
M  V30 546 O 55.6897 -1.77571 -0.421271 0
M  V30 547 C 55.7407 -1.91635 3.06526 0
M  V30 548 O 55.4617 -1.14629 4.22838 0
M  V30 549 C 56.9627 -2.77616 3.45607 0
M  V30 550 H 54.1827 -0.28928 0.605441 0
M  V30 551 H 56.7267 -0.260499 2.02834 0
M  V30 552 H 54.8817 -2.5942 2.87715 0
M  V30 553 H 55.2957 -1.77745 4.93464 0
M  V30 554 H 56.7697 -3.38759 4.35828 0
M  V30 555 H 57.2467 -3.4909 2.6652 0
M  V30 556 H 57.8527 -2.15271 3.66795 0
M  V30 557 N 56.1678 -1.49265 -0.50573 0
M  V30 558 C 57.5788 -1.51769 -1.08734 0
M  V30 559 C 57.9298 -0.301192 -1.93874 0
M  V30 560 O 57.0548 0.589456 -2.08217 0
M  V30 561 C 57.6498 -2.75017 -1.97867 0
M  V30 562 C 56.2088 -2.80314 -2.51199 0
M  V30 563 C 55.3558 -2.4562 -1.28709 0
M  V30 564 H 58.3068 -1.56031 -0.289855 0
M  V30 565 H 58.3278 -2.5491 -2.82491 0
M  V30 566 H 57.8398 -3.63539 -1.35873 0
M  V30 567 H 55.9408 -1.96061 -3.16845 0
M  V30 568 H 56.0538 -3.82366 -2.88675 0
M  V30 569 H 54.4178 -1.97297 -1.61078 0
M  V30 570 H 55.2008 -3.36411 -0.6843 0
M  V30 571 N 57.6459 0.756429 -1.3826 0
M  V30 572 C 58.9229 1.50584 -1.24835 0
M  V30 573 C 59.3029 2.10556 0.151485 0
M  V30 574 O 58.6509 1.96825 1.1607 0
M  V30 575 C 58.8609 2.57448 -2.3563 0
M  V30 576 C 60.2089 3.24429 -2.73917 0
M  V30 577 O 61.2329 2.67751 -2.34921 0
M  V30 578 O 60.0919 4.26937 -3.41156 0
M  V30 579 H 57.1859 0.667664 -0.48801 0
M  V30 580 H 59.7319 0.792083 -1.5008 0
M  V30 581 H 58.5039 2.11362 -3.29305 0
M  V30 582 H 58.1269 3.36408 -2.11933 0
M  V30 583 N 59.124 1.23083 0.984299 0
M  V30 584 C 60.072 1.00593 2.09723 0
M  V30 585 C 61.066 -0.0538014 1.69315 0
M  V30 586 O 62.272 0.0993719 1.79725 0
M  V30 587 H 58.647 0.30817 0.685956 0
M  V30 588 H 60.618 1.95012 2.2586 0
M  V30 589 C 59.367 0.609601 3.42314 0
M  V30 590 H 58.69 1.41675 3.73856 0
M  V30 591 H 60.13 0.491726 4.21139 0
M  V30 592 C 58.589 -0.681745 3.2993 0
M  V30 593 O 59.119 -1.73192 3.62446 0
M  V30 594 N 57.325 -0.656178 2.83095 0
M  V30 595 H 56.872 0.198759 2.56832 0
M  V30 596 H 56.83 -1.52044 2.75191 0
M  V30 597 N 60.6021 -1.18246 1.0419 0
M  V30 598 C 61.8481 -1.88536 0.747122 0
M  V30 599 C 62.1811 -1.80223 -0.723409 0
M  V30 600 O 61.4561 -1.20337 -1.52804 0
M  V30 601 C 61.7391 -3.38968 1.21544 0
M  V30 602 C 61.5921 -3.56084 2.74816 0
M  V30 603 C 62.9111 -4.32648 0.806482 0
M  V30 604 H 60.0301 -0.684619 0.272883 0
M  V30 605 H 62.6721 -1.39113 1.29413 0
M  V30 606 H 60.8221 -3.8119 0.750081 0
M  V30 607 H 62.4941 -3.22946 3.29399 0
M  V30 608 H 60.7371 -2.98699 3.14582 0
M  V30 609 H 61.4081 -4.61639 3.02644 0
M  V30 610 H 63.8841 -3.98211 1.20695 0
M  V30 611 H 62.7601 -5.36462 1.1619 0
M  V30 612 H 63.0211 -4.41146 -0.29029 0
M  V30 613 N 62.0802 -0.821533 -1.34494 0
M  V30 614 C 63.3282 -0.408139 -1.97936 0
M  V30 615 C 63.6492 1.03193 -1.65457 0
M  V30 616 O 62.9192 1.71622 -0.944595 0
M  V30 617 H 61.4992 -0.147928 -0.732206 0
M  V30 618 H 64.1612 -1.05067 -1.64155 0
M  V30 619 H 63.2572 -0.52601 -3.07635 0
M  V30 620 N 63.5583 1.46682 -0.576371 0
M  V30 621 C 64.5213 2.28707 0.150239 0
M  V30 622 C 65.5213 1.38035 0.824794 0
M  V30 623 O 66.7113 1.60476 0.677719 0
M  V30 624 C 63.8433 3.18248 1.22192 0
M  V30 625 H 65.0363 2.94423 -0.570521 0
M  V30 626 H 62.5893 1.52688 -0.334078 0
M  V30 627 H 63.3243 2.57265 1.97447 0
M  V30 628 H 63.1093 3.85 0.742812 0
M  V30 629 H 64.5993 3.80001 1.73172 0
M  V30 630 N 65.0364 0.313813 1.54444 0
M  V30 631 C 66.2664 -0.293491 2.04505 0
M  V30 632 C 66.6744 -1.47086 1.19005 0
M  V30 633 O 66.0174 -1.82481 0.211257 0
M  V30 634 C 66.0794 -0.800455 3.50475 0
M  V30 635 C 65.7434 0.253322 4.56297 0
M  V30 636 C 66.7404 1.08612 5.08428 0
M  V30 637 C 64.4254 0.398708 5.00715 0
M  V30 638 C 66.4194 2.05013 6.0353 0
M  V30 639 C 64.1064 1.36614 5.95634 0
M  V30 640 C 65.1044 2.19033 6.46926 0
M  V30 641 O 64.7924 3.14134 7.39983 0
M  V30 642 H 64.5244 -0.0658325 0.672787 0
M  V30 643 H 67.0784 0.455177 2.00293 0
M  V30 644 H 65.3084 -1.59987 3.52053 0
M  V30 645 H 66.9974 -1.32504 3.83663 0
M  V30 646 H 67.7634 0.984736 4.74898 0
M  V30 647 H 63.6424 -0.23289 4.60411 0
M  V30 648 H 67.1864 2.69382 6.4349 0
M  V30 649 H 63.0834 1.4682 6.28581 0
M  V30 650 H 63.8514 3.0926 7.57826 0
M  V30 651 N 66.5145 -1.57545 0.0417849 0
M  V30 652 C 67.7605 -1.92601 -0.635021 0
M  V30 653 C 68.0935 -0.919627 -1.71045 0
M  V30 654 O 67.3685 0.0557892 -1.9442 0
M  V30 655 C 67.6515 -3.38085 -1.23979 0
M  V30 656 C 67.5045 -4.49467 -0.173057 0
M  V30 657 C 68.8235 -3.83776 -2.15416 0
M  V30 658 H 65.9425 -0.700397 -0.229374 0
M  V30 659 H 68.5845 -1.89728 0.101633 0
M  V30 660 H 66.7345 -3.40664 -1.86762 0
M  V30 661 H 68.4065 -4.59018 0.458312 0
M  V30 662 H 66.6495 -4.30909 0.499996 0
M  V30 663 H 67.3205 -5.48323 -0.636054 0
M  V30 664 H 69.7965 -3.83013 -1.62605 0
M  V30 665 H 68.6725 -4.8624 -2.54679 0
M  V30 666 H 68.9335 -3.19998 -3.05047 0
M  V30 667 N 67.9926 0.231505 -1.5589 0
M  V30 668 C 69.2696 0.981096 -1.69215 0
M  V30 669 C 69.6496 2.02799 -0.586164 0
M  V30 670 O 68.9976 2.24823 0.408253 0
M  V30 671 C 69.2076 1.60054 -3.10135 0
M  V30 672 C 70.5556 2.09658 -3.69227 0
M  V30 673 O 71.5796 1.69967 -3.13033 0
M  V30 674 O 70.4386 2.8258 -4.67772 0
M  V30 675 H 67.5326 0.457653 -0.688827 0
M  V30 676 H 70.0786 0.224073 -1.68214 0
M  V30 677 H 68.8506 0.844105 -3.82087 0
M  V30 678 H 68.4736 2.42336 -3.15212 0
M  V30 679 N 69.4707 1.49531 0.497807 0
M  V30 680 C 70.7187 1.58865 1.24926 0
M  V30 681 C 71.0397 0.278721 1.92998 0
M  V30 682 O 70.3097 -0.702144 1.82885 0
M  V30 683 H 68.8897 0.585343 0.464094 0
M  V30 684 H 71.5517 1.86174 0.57666 0
M  V30 685 H 70.6477 2.38633 2.01149 0
M  V30 686 N 70.9488 -0.749086 1.3866 0
M  V30 687 C 72.1768 -1.53834 1.38358 0
M  V30 688 C 72.5918 -1.88783 -0.0255219 0
M  V30 689 O 71.9488 -1.53101 -0.993292 0
M  V30 690 C 71.9998 -2.83468 2.2434 0
M  V30 691 O 71.7208 -2.50008 3.5976 0
M  V30 692 C 73.2218 -3.7758 2.32267 0
M  V30 693 H 70.4418 -0.47585 0.473083 0
M  V30 694 H 72.9858 -0.926726 1.82297 0
M  V30 695 H 71.1408 -3.40995 1.83851 0
M  V30 696 H 71.5548 -3.33182 4.05081 0
M  V30 697 H 73.0288 -4.65478 2.96706 0
M  V30 698 H 73.5058 -4.18334 1.33765 0
M  V30 699 H 74.1118 -3.25976 2.73166 0
M  V30 700 N 72.4269 -1.23603 -0.977757 0
M  V30 701 C 73.6759 -1.06377 -1.71368 0
M  V30 702 C 73.9889 0.399062 -1.91486 0
M  V30 703 O 75.1949 0.691312 -2.62551 0
M  V30 704 C 73.6509 -1.85512 -3.08404 0
M  V30 705 C 73.2589 -3.36141 -2.96164 0
M  V30 706 C 75.0029 -1.76783 -3.85938 0
M  V30 707 C 72.9099 -4.07659 -4.28449 0
M  V30 708 H 71.8399 -0.394452 -0.642591 0
M  V30 709 H 74.4909 -1.47594 -1.09034 0
M  V30 710 H 72.8729 -1.37103 -3.71509 0
M  V30 711 H 74.0469 -3.92056 -2.42133 0
M  V30 712 H 72.3619 -3.45712 -2.32104 0
M  V30 713 H 74.9589 -2.27526 -4.83876 0
M  V30 714 H 75.3019 -0.731116 -4.0983 0
M  V30 715 H 75.8349 -2.22818 -3.2954 0
M  V30 716 H 72.5739 -5.11648 -4.09752 0
M  V30 717 H 72.0939 -3.5653 -4.82334 0
M  V30 718 H 73.7729 -4.141 -4.97122 0
M  V30 719 N 73.905 1.17692 -1.04816 0
M  V30 720 C 75.135 1.91508 -0.775128 0
M  V30 721 C 75.543 1.76844 0.67253 0
M  V30 722 O 74.886 1.10057 1.47082 0
M  V30 723 C 74.948 3.43167 -1.0713 0
M  V30 724 C 74.612 3.81612 -2.51438 0
M  V30 725 C 75.609 3.84772 -3.49638 0
M  V30 726 C 73.294 4.12687 -2.86348 0
M  V30 727 C 75.288 4.18469 -4.80794 0
M  V30 728 C 72.975 4.46053 -4.17708 0
M  V30 729 C 73.973 4.48921 -5.14741 0
M  V30 730 O 73.661 4.81504 -6.43746 0
M  V30 731 H 73.393 0.614575 -0.281555 0
M  V30 732 H 75.947 1.50206 -1.40098 0
M  V30 733 H 74.177 3.84745 -0.388342 0
M  V30 734 H 75.866 3.98239 -0.784883 0
M  V30 735 H 76.632 3.60893 -3.24008 0
M  V30 736 H 72.511 4.09627 -2.11486 0
M  V30 737 H 76.055 4.20623 -5.56527 0
M  V30 738 H 71.952 4.69393 -4.43103 0
M  V30 739 H 72.72 4.99377 -6.4851 0
M  V30 740 N 75.3831 0.828654 1.34056 0
M  V30 741 C 76.6111 0.43262 2.02326 0
M  V30 742 C 77.0261 -0.963147 1.62385 0
M  V30 743 O 76.3831 -1.62425 0.832121 0
M  V30 744 C 76.4341 0.53182 3.57567 0
M  V30 745 O 76.1551 1.87258 3.96063 0
M  V30 746 C 77.6561 0.131422 4.43105 0
M  V30 747 H 74.8761 0.172923 0.648335 0
M  V30 748 H 77.4201 1.1184 1.71208 0
M  V30 749 H 75.5751 -0.105938 3.87255 0
M  V30 750 H 75.9891 1.85087 4.90758 0
M  V30 751 H 77.4631 0.251904 5.51425 0
M  V30 752 H 77.9401 -0.925645 4.29335 0
M  V30 753 H 78.5461 0.743207 4.18756 0
M  V30 754 N 76.8612 -1.46375 0.584142 0
M  V30 755 C 78.2772 -1.57694 0.245929 0
M  V30 756 C 78.4772 -1.57903 -1.25175 0
M  V30 757 O 77.5332 -1.49676 -2.03355 0
M  V30 758 C 78.8462 -2.87028 0.896402 0
M  V30 759 C 80.3942 -3.00662 0.870127 0
M  V30 760 C 80.8692 -4.32734 1.50017 0
M  V30 761 N 82.3602 -4.39436 1.46458 0
M  V30 762 C 83.0952 -5.40248 1.92144 0
M  V30 763 N 82.5912 -6.47726 2.4581 0
M  V30 764 N 84.3842 -5.31459 1.83052 0
M  V30 765 H 76.5352 -1.44483 1.55687 0
M  V30 766 H 78.7982 -0.689291 0.650831 0
M  V30 767 H 78.5042 -2.9269 1.95002 0
M  V30 768 H 78.3782 -3.75014 0.405486 0
M  V30 769 H 80.7652 -2.94581 -0.174871 0
M  V30 770 H 80.8462 -2.14148 1.39908 0
M  V30 771 H 80.4902 -4.39573 2.54437 0
M  V30 772 H 80.4202 -5.18025 0.946432 0
M  V30 773 H 82.9112 -3.62367 1.07231 0
M  V30 774 H 83.2242 -7.20863 2.78525 0
M  V30 775 H 81.5692 -6.48542 2.49836 0
M  V30 776 H 84.7602 -4.46396 1.40883 0
M  V30 777 H 84.9332 -6.09881 2.18973 0
M  V30 778 N 78.3393 -0.321999 -1.54275 0
M  V30 779 C 79.5873 0.280489 -2.00144 0
M  V30 780 C 79.9083 1.52777 -1.21178 0
M  V30 781 O 79.1783 1.9338 -0.313187 0
M  V30 782 H 77.7583 0.106632 -0.73935 0
M  V30 783 H 80.4203 -0.438184 -1.8991 0
M  V30 784 H 79.5163 0.537972 -3.07428 0
M  V30 785 N 79.8174 1.5752 -0.0501392 0
M  V30 786 C 81.0654 1.9227 0.622642 0
M  V30 787 C 81.3864 0.929083 1.71444 0
M  V30 788 O 80.6564 -0.0262186 1.95882 0
M  V30 789 H 79.2364 0.709739 0.232981 0
M  V30 790 H 81.8984 1.94628 -0.102898 0
M  V30 791 H 80.9944 2.93479 1.06191 0
M  V30 792 N 81.2955 -0.223234 1.56011 0
M  V30 793 C 82.2425 -1.27664 1.92277 0
M  V30 794 C 83.2125 -1.46659 0.779763 0
M  V30 795 O 84.3975 -1.60256 1.03551 0
M  V30 796 C 81.5375 -2.62234 2.24338 0
M  V30 797 C 80.6505 -2.51051 3.51564 0
M  V30 798 C 79.7855 -3.78133 3.7308 0
M  V30 799 C 78.8245 -3.61665 4.93827 0
M  V30 800 N 77.9615 -4.80693 5.11741 0
M  V30 801 H 82.8015 -0.960358 2.82101 0
M  V30 802 H 80.3385 -0.462901 1.39627 0
M  V30 803 H 82.2965 -3.40596 2.40936 0
M  V30 804 H 80.9265 -2.91961 1.3769 0
M  V30 805 H 79.9785 -1.64132 3.43169 0
M  V30 806 H 81.2905 -2.34803 4.40079 0
M  V30 807 H 80.4445 -4.64938 3.89766 0
M  V30 808 H 79.1835 -3.97304 2.82844 0
M  V30 809 H 78.1885 -2.73244 4.77093 0
M  V30 810 H 79.4135 -3.43966 5.85546 0
M  V30 811 H 77.3595 -5.00181 4.24446 0
M  V30 812 H 77.2765 -4.67165 5.94384 0
M  V30 813 H 78.5445 -5.6893 5.3286 0
M  V30 814 N 82.7736 -1.49793 -0.48987 0
M  V30 815 C 83.6836 -1.70036 -1.61632 0
M  V30 816 C 84.6996 -0.583102 -1.63939 0
M  V30 817 O 85.8756 -0.859169 -1.82154 0
M  V30 818 C 82.9406 -1.77277 -2.97949 0
M  V30 819 C 82.0016 -3.00918 -3.06181 0
M  V30 820 C 81.2346 -3.07804 -4.35996 0
M  V30 821 O 81.4576 -2.21982 -5.25433 0
M  V30 822 O 80.3916 -4.00369 -4.49431 0
M  V30 823 H 84.2176 -2.65486 -1.47482 0
M  V30 824 H 81.8026 -1.33666 -0.667362 0
M  V30 825 H 83.6846 -1.84329 -3.78947 0
M  V30 826 H 82.3596 -0.850076 -3.12339 0
M  V30 827 H 81.2666 -2.99377 -2.2433 0
M  V30 828 H 82.5996 -3.92704 -2.96723 0
M  V30 829 N 84.2517 0.741722 -1.39055 0
M  V30 830 C 85.1987 1.85566 -1.37237 0
M  V30 831 C 86.1687 1.64457 -0.233072 0
M  V30 832 O 87.3537 1.85957 -0.427147 0
M  V30 833 C 84.4937 3.23004 -1.215 0
M  V30 834 C 83.6067 3.55864 -2.44918 0
M  V30 835 C 82.7417 4.82669 -2.21821 0
M  V30 836 C 81.7807 5.08351 -3.40948 0
M  V30 837 N 80.9177 6.26356 -3.17211 0
M  V30 838 H 85.7577 1.86455 -2.32462 0
M  V30 839 H 83.2947 0.911176 -1.15482 0
M  V30 840 H 85.2527 4.02331 -1.10389 0
M  V30 841 H 83.8827 3.21411 -0.29908 0
M  V30 842 H 82.9347 2.7129 -2.66657 0
M  V30 843 H 84.2467 3.70765 -3.33668 0
M  V30 844 H 83.4007 5.69962 -2.07914 0
M  V30 845 H 82.1397 4.69929 -1.30454 0
M  V30 846 H 81.1447 4.19522 -3.55361 0
M  V30 847 H 82.3697 5.22981 -4.33207 0
M  V30 848 H 80.3157 6.14917 -2.28502 0
M  V30 849 H 80.2327 6.41813 -3.99515 0
M  V30 850 H 81.5007 7.16506 -3.06984 0
M  V30 851 N 85.7298 1.2412 0.971189 0
M  V30 852 C 86.6618 0.988349 2.06795 0
M  V30 853 C 87.6748 -0.0409541 1.62748 0
M  V30 854 O 88.8638 0.195673 1.77424 0
M  V30 855 C 85.9638 0.469023 3.35639 0
M  V30 856 C 85.1368 1.56065 4.08611 0
M  V30 857 C 84.1958 1.04458 5.15728 0
M  V30 858 O 83.2218 1.73553 5.42096 0
M  V30 859 N 84.4238 -0.122817 5.8037 0
M  V30 860 H 87.1888 1.93265 2.29061 0
M  V30 861 H 84.7498 1.15102 1.13856 0
M  V30 862 H 86.7418 0.108613 4.04554 0
M  V30 863 H 85.3118 -0.380919 3.1027 0
M  V30 864 H 84.5318 2.09341 3.34021 0
M  V30 865 H 85.8198 2.29449 4.54126 0
M  V30 866 H 85.2178 -0.700563 5.61345 0
M  V30 867 H 83.7748 -0.424404 6.50417 0
M  V30 868 N 87.2079 -1.17134 1.05439 0
M  V30 869 C 88.4329 -1.91913 0.786396 0
M  V30 870 C 88.8579 -1.7643 -0.652234 0
M  V30 871 O 88.2159 -1.08372 -1.45345 0
M  V30 872 C 88.2639 -3.40921 1.17497 0
M  V30 873 O 87.3679 -4.11244 0.308589 0
M  V30 874 H 86.7089 -0.598215 0.288158 0
M  V30 875 H 89.2389 -1.48457 1.4079 0
M  V30 876 H 89.2489 -3.91668 1.14281 0
M  V30 877 H 87.9239 -3.5151 2.22292 0
M  V30 878 H 86.5009 -3.70731 0.40157 0
M  V30 879 N 88.686 -0.835752 -1.33615 0
M  V30 880 C 89.914 -0.443344 -2.02094 0
M  V30 881 C 90.329 0.954522 -1.62894 0
M  V30 882 O 89.686 1.61982 -0.840723 0
M  V30 883 C 89.737 -0.550775 -3.5728 0
M  V30 884 O 89.458 -1.89356 -3.95065 0
M  V30 885 C 90.959 -0.154919 -4.43029 0
M  V30 886 H 88.179 -0.176359 -0.647409 0
M  V30 887 H 90.723 -1.12746 -1.70612 0
M  V30 888 H 88.878 0.0853997 -3.87306 0
M  V30 889 H 89.292 -1.87687 -4.89769 0
M  V30 890 H 90.766 -0.281144 -5.51284 0
M  V30 891 H 91.243 0.902863 -4.2982 0
M  V30 892 H 91.849 -0.765404 -4.18356 0
M  V30 893 N 90.1641 1.46063 -0.591896 0
M  V30 894 C 91.1271 2.28854 0.125973 0
M  V30 895 C 92.1271 1.38903 0.810107 0
M  V30 896 O 93.3171 1.61186 0.66066 0
M  V30 897 C 90.4491 3.19526 1.1881 0
M  V30 898 H 91.6421 2.93802 -0.601717 0
M  V30 899 H 89.1951 1.52325 -0.350254 0
M  V30 900 H 89.9301 2.59345 1.94707 0
M  V30 901 H 89.7151 3.85766 0.701936 0
M  V30 902 H 91.2051 3.81817 1.69132 0
M  V30 903 N 91.6422 0.330177 1.54103 0
M  V30 904 C 92.8912 -0.271336 1.99867 0
M  V30 905 C 93.2042 -1.52723 1.22209 0
M  V30 906 O 94.4102 -2.20515 1.58383 0
M  V30 907 C 92.8662 -0.534032 3.55916 0
M  V30 908 C 92.4742 0.705193 4.42415 0
M  V30 909 C 94.2182 -1.09514 4.1013 0
M  V30 910 C 92.1252 0.414035 5.89949 0
M  V30 911 H 91.0552 -0.105166 0.74663 0
M  V30 912 H 93.7062 0.443429 1.78062 0
M  V30 913 H 92.0882 -1.30915 3.73734 0
M  V30 914 H 93.2622 1.4804 4.36372 0
M  V30 915 H 91.5772 1.18698 3.99124 0
M  V30 916 H 94.1742 -1.3277 5.17954 0
M  V30 917 H 94.5172 -2.04656 3.62521 0
M  V30 918 H 95.0502 -0.381038 3.95971 0
M  V30 919 H 91.7892 1.33481 6.41766 0
M  V30 920 H 91.3092 -0.323336 5.98928 0
M  V30 921 H 92.9882 0.0263105 6.46995 0
M  V30 922 N 93.1203 -1.57491 0.0584922 0
M  V30 923 C 94.3673 -1.92978 -0.613648 0
M  V30 924 C 94.6953 -0.937461 -1.70417 0
M  V30 925 O 93.9503 0.049078 -1.95638 0
M  V30 926 C 94.2493 -3.3513 -1.24188 0
M  V30 927 C 93.9153 -4.50037 -0.278826 0
M  V30 928 C 92.5773 -4.81198 -0.0138447 0
M  V30 929 C 94.9293 -5.19807 0.380777 0
M  V30 930 C 92.2573 -5.79473 0.918052 0
M  V30 931 C 94.6093 -6.19079 1.30091 0
M  V30 932 C 93.2733 -6.48665 1.57449 0
M  V30 933 H 92.5433 -0.706157 -0.22455 0
M  V30 934 H 95.1903 -1.91082 0.126533 0
M  V30 935 H 93.4953 -3.33429 -2.05749 0
M  V30 936 H 95.1923 -3.59871 -1.769 0
M  V30 937 H 91.7823 -4.25726 -0.495539 0
M  V30 938 H 95.9663 -4.95939 0.189158 0
M  V30 939 H 91.2223 -6.00727 1.1374 0
M  V30 940 H 95.3963 -6.7225 1.81804 0
M  V30 941 H 93.0233 -7.24628 2.29822 0
M  V30 942 N 94.5984 0.214957 -1.56127 0
M  V30 943 C 95.8444 0.939762 -1.79712 0
M  V30 944 C 96.1774 1.83723 -0.629247 0
M  V30 945 O 95.4524 1.90925 0.371197 0
M  V30 946 C 95.7354 1.77306 -3.13424 0
M  V30 947 C 95.5884 0.90164 -4.40671 0
M  V30 948 C 96.9074 2.74956 -3.43638 0
M  V30 949 H 94.0264 0.340214 -0.653776 0
M  V30 950 H 96.6684 0.20824 -1.88855 0
M  V30 951 H 94.8184 2.39673 -3.0576 0
M  V30 952 H 96.4904 0.294206 -4.60361 0
M  V30 953 H 94.7334 0.207368 -4.33304 0
M  V30 954 H 95.4044 1.51923 -5.30682 0
M  V30 955 H 97.8804 2.22724 -3.51473 0
M  V30 956 H 96.7564 3.30358 -4.38355 0
M  V30 957 H 97.0174 3.53023 -2.66134 0
M  V30 958 N 96.0765 1.50051 0.48192 0
M  V30 959 C 97.3245 1.60181 1.23234 0
M  V30 960 C 97.6455 0.299176 1.92691 0
M  V30 961 O 96.9155 -0.682708 1.83619 0
M  V30 962 H 95.4955 0.590232 0.457859 0
M  V30 963 H 98.1575 1.86775 0.556881 0
M  V30 964 H 97.2535 2.40753 1.98607 0
M  V30 965 N 97.5546 -0.734337 1.39446 0
M  V30 966 C 98.8026 -1.49096 1.36436 0
M  V30 967 C 99.1236 -1.94961 -0.0388255 0
M  V30 968 O 98.3936 -1.69033 -0.990191 0
M  V30 969 H 96.9736 -0.5531 0.502085 0
M  V30 970 H 99.6356 -0.871725 1.74319 0
M  V30 971 H 98.7316 -2.37276 2.02747 0
M  V30 972 N 99.0327 -1.24633 -0.964593 0
M  V30 973 C 100.281 -1.08573 -1.70459 0
M  V30 974 C 100.602 0.375655 -1.91347 0
M  V30 975 O 99.8717 1.26779 -1.49345 0
M  V30 976 H 98.4517 -0.398784 -0.631649 0
M  V30 977 H 101.114 -1.56601 -1.16026 0
M  V30 978 H 100.21 -1.58623 -2.68785 0
M  V30 979 N 100.511 1.16574 -1.06058 0
M  V30 980 C 101.788 1.83048 -0.689416 0
M  V30 981 C 102.168 1.94122 0.829443 0
M  V30 982 O 101.516 1.48249 1.7388 0
M  V30 983 C 101.726 3.20186 -1.38859 0
M  V30 984 C 103.074 3.95989 -1.53226 0
M  V30 985 O 104.098 3.29696 -1.3483 0
M  V30 986 O 102.957 5.14813 -1.83384 0
M  V30 987 H 100.051 0.790258 -0.243764 0
M  V30 988 H 102.597 1.23797 -1.16071 0
M  V30 989 H 101.369 3.07146 -2.4244 0
M  V30 990 H 100.992 3.87112 -0.907216 0
M  V30 991 N 101.989 0.842826 1.3317 0
M  V30 992 C 102.922 0.223862 2.27099 0
M  V30 993 C 103.9 -0.631311 1.49844 0
M  V30 994 O 105.084 -0.590708 1.79005 0
M  V30 995 C 102.211 -0.685313 3.31694 0
M  V30 996 C 101.257 0.094919 4.26394 0
M  V30 997 S 102.09 1.45546 5.15341 0
M  V30 998 C 103.246 0.551685 6.23464 0
M  V30 999 H 103.479 1.02015 2.79249 0
M  V30 1000 H 101.012 0.639797 1.4052 0
M  V30 1001 H 102.97 -1.20426 3.92438 0
M  V30 1002 H 101.631 -1.4553 2.78352 0
M  V30 1003 H 100.824 -0.597059 5.00451 0
M  V30 1004 H 100.426 0.545054 3.70007 0
M  V30 1005 H 102.718 -0.248877 6.77043 0
M  V30 1006 H 103.661 1.26253 6.96754 0
M  V30 1007 H 104.069 0.131275 5.64347 0
M  V30 1008 N 103.467 -1.45747 0.599634 0
M  V30 1009 C 104.43 -2.28917 -0.113835 0
M  V30 1010 C 105.43 -1.3933 -0.802729 0
M  V30 1011 O 106.62 -1.61534 -0.652103 0
M  V30 1012 C 103.752 -3.20152 -1.17114 0
M  V30 1013 H 104.945 -2.93478 0.617289 0
M  V30 1014 H 102.498 -1.52137 0.358327 0
M  V30 1015 H 103.233 -2.60374 -1.93329 0
M  V30 1016 H 103.018 -3.86133 -0.681468 0
M  V30 1017 H 104.508 -3.82708 -1.67105 0
M  V30 1018 N 104.945 -0.338344 -1.53925 0
M  V30 1019 C 105.908 0.508299 -2.23493 0
M  V30 1020 C 106.908 1.03175 -1.23335 0
M  V30 1021 O 108.098 0.921826 -1.47811 0
M  V30 1022 C 105.23 1.70754 -2.95052 0
M  V30 1023 H 106.423 -0.100058 -2.99733 0
M  V30 1024 H 103.976 -0.0896198 -1.56043 0
M  V30 1025 H 104.711 2.35474 -2.22986 0
M  V30 1026 H 104.496 1.33946 -3.68512 0
M  V30 1027 H 105.986 2.30818 -3.48013 0
M  V30 1028 N 106.423 1.57458 -0.0668435 0
M  V30 1029 C 107.671 1.92919 0.602214 0
M  V30 1030 C 107.992 0.947215 1.70449 0
M  V30 1031 O 107.262 -0.00544117 1.95899 0
M  V30 1032 H 105.842 0.71217 0.22544 0
M  V30 1033 H 108.504 1.94508 -0.123535 0
M  V30 1034 H 107.6 2.94589 1.03073 0
M  V30 1035 N 107.901 -0.206675 1.56239 0
M  V30 1036 C 108.811 -1.27686 1.96808 0
M  V30 1037 C 109.827 -1.50455 0.874035 0
M  V30 1038 O 111.003 -1.63295 1.17884 0
M  V30 1039 C 108.068 -2.60358 2.28942 0
M  V30 1040 C 107.129 -2.45762 3.51994 0
M  V30 1041 C 106.362 -3.72108 3.82585 0
M  V30 1042 O 106.585 -4.75776 3.14631 0
M  V30 1043 O 105.519 -3.6833 4.76043 0
M  V30 1044 H 109.345 -0.962593 2.88041 0
M  V30 1045 H 106.93 -0.410746 1.43643 0
M  V30 1046 H 108.812 -3.38687 2.50737 0
M  V30 1047 H 107.487 -2.91435 1.4088 0
M  V30 1048 H 106.394 -1.65584 3.35459 0
M  V30 1049 H 107.727 -2.19621 4.40486 0
M  V30 1050 N 109.379 -1.50304 -0.473955 0
M  V30 1051 C 110.795 -1.37667 -0.807466 0
M  V30 1052 C 110.995 -0.430555 -1.96846 0
M  V30 1053 O 110.051 0.127874 -2.52176 0
M  V30 1054 C 111.364 -2.78974 -1.12223 0
M  V30 1055 C 112.912 -2.87868 -1.22885 0
M  V30 1056 C 113.387 -4.30003 -1.57676 0
M  V30 1057 N 114.878 -4.3294 -1.64673 0
M  V30 1058 C 115.613 -5.3991 -1.93091 0
M  V30 1059 N 115.109 -6.57092 -2.1955 0
M  V30 1060 N 116.902 -5.27351 -1.94569 0
M  V30 1061 H 109.053 -2.10394 0.291212 0
M  V30 1062 H 111.316 -0.945575 0.0677609 0
M  V30 1063 H 111.022 -3.50031 -0.342229 0
M  V30 1064 H 110.896 -3.16038 -2.05913 0
M  V30 1065 H 113.283 -2.17032 -1.99953 0
M  V30 1066 H 113.364 -2.54352 -0.271814 0
M  V30 1067 H 113.008 -5.01375 -0.81149 0
M  V30 1068 H 112.938 -4.61004 -2.54525 0
M  V30 1069 H 115.429 -3.48441 -1.46277 0
M  V30 1070 H 115.742 -7.34425 -2.405 0
M  V30 1071 H 114.087 -6.60272 -2.16948 0
M  V30 1072 H 117.278 -4.34801 -1.73394 0
M  V30 1073 H 117.451 -6.10805 -2.16381 0
M  V30 1074 N 110.857 0.726932 -1.39834 0
M  V30 1075 C 112.103 1.48884 -1.377 0
M  V30 1076 C 112.436 1.94185 0.0244852 0
M  V30 1077 O 111.711 1.67361 0.990986 0
M  V30 1078 C 111.994 2.72288 -2.3565 0
M  V30 1079 C 111.847 2.32956 -3.84775 0
M  V30 1080 C 113.166 3.74414 -2.31306 0
M  V30 1081 H 110.285 0.540062 -0.5015 0
M  V30 1082 H 112.927 0.830547 -1.70886 0
M  V30 1083 H 111.077 3.28457 -2.07481 0
M  V30 1084 H 112.749 1.82356 -4.23726 0
M  V30 1085 H 110.992 1.65088 -4.01159 0
M  V30 1086 H 111.663 3.21362 -4.4881 0
M  V30 1087 H 114.139 3.27849 -2.56231 0
M  V30 1088 H 113.015 4.58414 -3.01907 0
M  V30 1089 H 113.276 4.21909 -1.32081 0
M  V30 1090 N 112.336 1.25143 0.95797 0
M  V30 1091 C 113.583 1.09692 1.70217 0
M  V30 1092 C 113.911 -0.362654 1.91089 0
M  V30 1093 O 113.166 -1.28386 1.47701 0
M  V30 1094 C 113.465 1.79272 3.09187 0
M  V30 1095 C 113.131 3.29196 3.08125 0
M  V30 1096 C 111.793 3.70096 3.07543 0
M  V30 1097 C 114.145 4.24995 3.0171 0
M  V30 1098 C 111.473 5.05213 2.9829 0
M  V30 1099 C 113.825 5.60132 2.93999 0
M  V30 1100 C 112.489 6.00365 2.9175 0
M  V30 1101 H 111.759 0.401393 0.622868 0
M  V30 1102 H 114.406 1.55372 1.11945 0
M  V30 1103 H 112.711 1.26014 3.70982 0
M  V30 1104 H 114.408 1.64773 3.65583 0
M  V30 1105 H 110.998 2.96651 3.09348 0
M  V30 1106 H 115.182 3.9439 3.01281 0
M  V30 1107 H 110.438 5.35569 2.94916 0
M  V30 1108 H 114.612 6.3406 2.87996 0
M  V30 1109 H 112.239 7.05023 2.84336 0
M  V30 1110 N 113.814 -1.1601 1.06675 0
M  V30 1111 C 114.724 -2.24156 0.692179 0
M  V30 1112 C 115.74 -1.71507 -0.293513 0
M  V30 1113 O 116.916 -2.009 -0.141861 0
M  V30 1114 C 113.981 -3.46587 0.0884131 0
M  V30 1115 C 113.042 -4.14257 1.12646 0
M  V30 1116 C 112.275 -5.30844 0.551416 0
M  V30 1117 O 112.498 -5.66858 -0.634656 0
M  V30 1118 O 111.432 -5.87848 1.29298 0
M  V30 1119 H 115.258 -2.58513 1.59388 0
M  V30 1120 H 112.843 -1.23599 0.83926 0
M  V30 1121 H 114.725 -4.20679 -0.246361 0
M  V30 1122 H 113.4 -3.13994 -0.786712 0
M  V30 1123 H 112.307 -3.42118 1.51348 0
M  V30 1124 H 113.64 -4.50914 1.97325 0
M  V30 1125 N 115.292 -0.849877 -1.32721 0
M  V30 1126 C 116.255 -0.296122 -2.27279 0
M  V30 1127 C 117.255 0.541458 -1.5141 0
M  V30 1128 O 118.445 0.353658 -1.70572 0
M  V30 1129 C 115.577 0.581579 -3.35902 0
M  V30 1130 H 116.77 -1.13064 -2.77771 0
M  V30 1131 H 114.323 -0.62383 -1.43311 0
M  V30 1132 H 115.058 1.43809 -2.9067 0
M  V30 1133 H 114.843 -0.0178814 -3.92096 0
M  V30 1134 H 116.333 0.961951 -4.0637 0
M  V30 1135 N 116.77 1.45427 -0.607355 0
M  V30 1136 C 118.016 2.0254 -0.102607 0
M  V30 1137 C 118.349 1.47478 1.26348 0
M  V30 1138 O 117.624 0.64939 1.83339 0
M  V30 1139 C 117.907 3.60044 -0.0634347 0
M  V30 1140 C 117.76 4.2544 -1.46017 0
M  V30 1141 C 119.079 4.35646 0.624514 0
M  V30 1142 H 116.198 0.73598 -0.0387607 0
M  V30 1143 H 118.84 1.73284 -0.779282 0
M  V30 1144 H 116.99 3.85101 0.512808 0
M  V30 1145 H 118.662 4.11569 -2.08347 0
M  V30 1146 H 116.905 3.83849 -2.02094 0
M  V30 1147 H 117.576 5.34342 -1.385 0
M  V30 1148 H 120.052 4.15882 0.134723 0
M  V30 1149 H 118.928 5.45376 0.621028 0
M  V30 1150 H 119.189 4.08501 1.69055 0
M  V30 1151 N 118.248 0.346503 1.53744 0
M  V30 1152 C 119.195 -0.508914 2.25119 0
M  V30 1153 C 120.165 -1.09315 1.25058 0
M  V30 1154 O 121.35 -1.12921 1.53797 0
M  V30 1155 C 118.49 -1.65246 3.02965 0
M  V30 1156 C 117.603 -1.09525 4.17886 0
M  V30 1157 C 116.738 -2.20634 4.83212 0
M  V30 1158 C 115.777 -1.62279 5.90196 0
M  V30 1159 N 114.914 -2.67143 6.49291 0
M  V30 1160 H 119.754 0.106283 2.9781 0
M  V30 1161 H 117.291 0.0642227 1.4696 0
M  V30 1162 H 119.249 -2.32574 3.4636 0
M  V30 1163 H 117.879 -2.2386 2.32565 0
M  V30 1164 H 116.931 -0.312818 3.79112 0
M  V30 1165 H 118.243 -0.628444 4.94825 0
M  V30 1166 H 117.397 -2.95821 5.29693 0
M  V30 1167 H 116.136 -2.70659 4.05703 0
M  V30 1168 H 115.141 -0.855989 5.43096 0
M  V30 1169 H 116.366 -1.13102 6.69615 0
M  V30 1170 H 114.312 -3.16417 5.74645 0
M  V30 1171 H 114.229 -2.25093 7.21713 0
M  V30 1172 H 115.497 -3.4209 7.00425 0
M  V30 1173 N 119.726 -1.57421 0.075193 0
M  V30 1174 C 120.673 -2.12915 -0.890843 0
M  V30 1175 C 121.643 -1.04252 -1.29309 0
M  V30 1176 O 122.828 -1.31933 -1.37834 0
M  V30 1177 C 119.968 -2.69795 -2.15186 0
M  V30 1178 C 119.081 -3.92624 -1.80194 0
M  V30 1179 C 118.216 -4.37736 -3.00933 0
M  V30 1180 C 117.255 -5.53205 -2.61974 0
M  V30 1181 N 116.392 -5.9326 -3.75483 0
M  V30 1182 H 121.232 -2.95156 -0.410735 0
M  V30 1183 H 118.769 -1.45854 -0.191086 0
M  V30 1184 H 120.727 -3.00883 -2.89008 0
M  V30 1185 H 119.357 -1.90313 -2.60731 0
M  V30 1186 H 118.409 -3.67977 -0.964218 0
M  V30 1187 H 119.721 -4.76482 -1.47534 0
M  V30 1188 H 118.875 -4.70503 -3.8303 0
M  V30 1189 H 117.614 -3.52739 -3.36789 0
M  V30 1190 H 116.619 -5.20086 -1.783 0
M  V30 1191 H 117.844 -6.39936 -2.27284 0
M  V30 1192 H 115.79 -5.11212 -4.11094 0
M  V30 1193 H 115.707 -6.71865 -3.46602 0
M  V30 1194 H 116.975 -6.30651 -4.58148 0
M  V30 1195 N 121.204 0.198386 -1.56346 0
M  V30 1196 C 122.62 0.549085 -1.49857 0
M  V30 1197 C 122.82 1.86016 -0.774611 0
M  V30 1198 O 121.876 2.50416 -0.323776 0
M  V30 1199 C 123.189 0.606868 -2.94512 0
M  V30 1200 C 124.737 0.695925 -3.05165 0
M  V30 1201 C 125.212 0.784848 -4.51225 0
M  V30 1202 N 126.703 0.848463 -4.55363 0
M  V30 1203 C 127.438 0.937378 -5.65686 0
M  V30 1204 N 126.934 0.9888 -6.85707 0
M  V30 1205 N 128.727 0.974312 -5.53592 0
M  V30 1206 H 120.878 -0.661655 -2.01831 0
M  V30 1207 H 123.141 -0.235261 -0.918344 0
M  V30 1208 H 122.847 -0.28732 -3.50524 0
M  V30 1209 H 122.721 1.46268 -3.47686 0
M  V30 1210 H 125.108 1.58055 -2.49204 0
M  V30 1211 H 125.189 -0.186022 -2.55123 0
M  V30 1212 H 124.833 -0.0954072 -5.0781 0
M  V30 1213 H 124.763 1.68255 -4.98997 0
M  V30 1214 H 127.254 0.818103 -3.68938 0
M  V30 1215 H 127.567 1.05707 -7.65536 0
M  V30 1216 H 125.912 0.957534 -6.88372 0
M  V30 1217 H 129.103 0.930954 -4.58749 0
M  V30 1218 H 129.276 1.04015 -6.39597 0
M  V30 1219 N 122.682 1.50554 0.465978 0
M  V30 1220 C 123.929 1.61798 1.21768 0
M  V30 1221 C 124.257 0.320696 1.91838 0
M  V30 1222 O 123.512 -0.693724 1.82992 0
M  V30 1223 C 123.811 2.75152 2.28093 0
M  V30 1224 C 123.477 4.15454 1.75239 0
M  V30 1225 C 122.139 4.53628 1.60546 0
M  V30 1226 C 124.491 5.03121 1.36083 0
M  V30 1227 C 121.819 5.77204 1.05128 0
M  V30 1228 C 124.171 6.27249 0.821056 0
M  V30 1229 C 122.835 6.64221 0.660795 0
M  V30 1230 H 122.105 0.592063 0.445582 0
M  V30 1231 H 124.752 1.84503 0.512927 0
M  V30 1232 H 123.057 2.46556 3.04496 0
M  V30 1233 H 124.754 2.81055 2.86023 0
M  V30 1234 H 121.344 3.85341 1.87644 0
M  V30 1235 H 125.528 4.74257 1.46267 0
M  V30 1236 H 120.784 6.0452 0.91462 0
M  V30 1237 H 124.958 6.94537 0.509018 0
M  V30 1238 H 122.585 7.59854 0.229226 0
M  V30 1239 N 124.16 -0.719506 1.40217 0
M  V30 1240 C 125.407 -1.47933 1.38283 0
M  V30 1241 C 125.735 -1.94493 -0.0161536 0
M  V30 1242 O 124.99 -1.68224 -0.999956 0
M  V30 1243 C 125.289 -2.72271 2.31524 0
M  V30 1244 C 124.955 -2.44496 3.78857 0
M  V30 1245 C 123.617 -2.36631 4.18998 0
M  V30 1246 C 125.969 -2.21104 4.71977 0
M  V30 1247 C 123.297 -2.03437 5.503 0
M  V30 1248 C 125.649 -1.89423 6.03574 0
M  V30 1249 C 124.313 -1.80038 6.42762 0
M  V30 1250 H 123.583 -0.541325 0.506012 0
M  V30 1251 H 126.23 -0.824502 1.72842 0
M  V30 1252 H 124.535 -3.42572 1.90137 0
M  V30 1253 H 126.232 -3.30348 2.27313 0
M  V30 1254 H 122.822 -2.51503 3.47051 0
M  V30 1255 H 127.006 -2.26139 4.41786 0
M  V30 1256 H 122.262 -1.94705 5.79569 0
M  V30 1257 H 126.436 -1.70336 6.75247 0
M  V30 1258 H 124.063 -1.54083 7.44421 0
M  V30 1259 N 125.638 -1.25649 -0.95132 0
M  V30 1260 C 126.886 -1.10375 -1.69298 0
M  V30 1261 C 127.207 0.355339 -1.91735 0
M  V30 1262 O 126.477 1.25188 -1.50681 0
M  V30 1263 H 125.057 -0.405461 -0.627384 0
M  V30 1264 H 127.719 -1.57823 -1.14358 0
M  V30 1265 H 126.815 -1.61465 -2.67087 0
M  V30 1266 N 127.117 1.15442 -1.07289 0
M  V30 1267 C 128.528 1.67803 -0.818475 0
M  V30 1268 C 128.879 1.8489 0.656507 0
M  V30 1269 O 128.004 1.55176 1.50829 0
M  V30 1270 C 128.599 3.04805 -1.47917 0
M  V30 1271 C 127.158 3.54245 -1.27229 0
M  V30 1272 C 126.305 2.29986 -1.54925 0
M  V30 1273 H 129.256 0.996646 -1.23502 0
M  V30 1274 H 129.277 3.69702 -0.90005 0
M  V30 1275 H 128.789 2.92336 -2.55267 0
M  V30 1276 H 126.89 3.71956 -0.21899 0
M  V30 1277 H 127.003 4.35723 -1.99203 0
M  V30 1278 H 125.367 2.35496 -0.970242 0
M  V30 1279 H 126.15 2.20105 -2.63455 0
M  V30 1280 N 128.595 0.856903 1.32268 0
M  V30 1281 C 129.842 0.461386 1.97174 0
M  V30 1282 C 130.17 -0.983491 1.67803 0
M  V30 1283 O 129.425 -1.70541 0.959903 0
M  V30 1284 C 129.724 0.649919 3.51441 0
M  V30 1285 C 129.39 2.0656 4.00804 0
M  V30 1286 C 128.052 2.45279 4.13995 0
M  V30 1287 C 130.404 2.98947 4.26943 0
M  V30 1288 C 127.732 3.75653 4.50668 0
M  V30 1289 C 130.084 4.28822 4.65075 0
M  V30 1290 C 128.748 4.67472 4.76472 0
M  V30 1291 H 128.018 0.168833 0.72151 0
M  V30 1292 H 130.665 1.08739 1.57633 0
M  V30 1293 H 128.97 -0.0593018 3.91755 0
M  V30 1294 H 130.667 0.32391 3.9969 0
M  V30 1295 H 127.257 1.75495 3.91024 0
M  V30 1296 H 131.441 2.70265 4.16258 0
M  V30 1297 H 126.697 4.05379 4.57688 0
M  V30 1298 H 130.871 5.0047 4.84255 0
M  V30 1299 H 128.498 5.68539 5.04646 0
M  V30 1300 N 130.073 -1.45103 0.615059 0
M  V30 1301 C 131.489 -1.57137 0.279322 0
M  V30 1302 C 131.689 -1.60523 -1.21797 0
M  V30 1303 O 130.745 -1.53956 -2.00134 0
M  V30 1304 C 132.058 -2.85062 0.957083 0
M  V30 1305 C 133.606 -2.98749 0.933706 0
M  V30 1306 C 134.081 -4.29455 1.59162 0
M  V30 1307 N 135.572 -4.36231 1.55746 0
M  V30 1308 C 136.307 -5.36051 2.0356 0
M  V30 1309 N 135.803 -6.42367 2.59494 0
M  V30 1310 N 137.596 -5.27456 1.94284 0
M  V30 1311 H 129.747 -1.41148 1.58717 0
M  V30 1312 H 132.01 -0.675331 0.665306 0
M  V30 1313 H 131.716 -2.88488 2.01166 0
M  V30 1314 H 131.59 -3.7407 0.48494 0
M  V30 1315 H 133.977 -2.94886 -0.112347 0
M  V30 1316 H 134.058 -2.11132 1.44419 0
M  V30 1317 H 133.702 -4.34077 2.63704 0
M  V30 1318 H 133.632 -5.15901 1.0561 0
M  V30 1319 H 136.123 -3.60011 1.14893 0
M  V30 1320 H 136.436 -7.14793 2.93752 0
M  V30 1321 H 134.781 -6.43097 2.63537 0
M  V30 1322 H 137.972 -4.43308 1.5032 0
M  V30 1323 H 138.145 -6.05099 2.3186 0
M  V30 1324 N 131.551 -0.354651 -1.53558 0
M  V30 1325 C 132.797 0.238797 -2.01389 0
M  V30 1326 C 133.13 1.49309 -1.2418 0
M  V30 1327 O 132.405 1.91638 -0.332457 0
M  V30 1328 C 132.688 0.541771 -3.56001 0
M  V30 1329 C 132.541 -0.725388 -4.43912 0
M  V30 1330 C 133.86 1.34685 -4.18984 0
M  V30 1331 H 130.979 0.0853177 -0.732045 0
M  V30 1332 H 133.621 -0.477384 -1.83905 0
M  V30 1333 H 131.771 1.15189 -3.71031 0
M  V30 1334 H 133.443 -1.36313 -4.407 0
M  V30 1335 H 131.686 -1.34801 -4.12324 0
M  V30 1336 H 132.357 -0.468505 -5.50008 0
M  V30 1337 H 134.833 0.830837 -4.07721 0
M  V30 1338 H 133.709 1.52759 -5.27215 0
M  V30 1339 H 133.97 2.35221 -3.74331 0
M  V30 1340 N 133.029 1.57378 -0.0835403 0
M  V30 1341 C 134.254 1.98682 0.594987 0
M  V30 1342 C 134.679 0.961969 1.61641 0
M  V30 1343 O 134.037 -0.0709989 1.81161 0
M  V30 1344 C 134.085 3.38988 1.2296 0
M  V30 1345 O 133.189 3.39208 2.34546 0
M  V30 1346 H 132.53 0.646368 0.152002 0
M  V30 1347 H 135.06 2.03961 -0.161533 0
M  V30 1348 H 135.07 3.76431 1.57366 0
M  V30 1349 H 133.745 4.13107 0.481228 0
M  V30 1350 H 132.322 3.13548 2.01846 0
M  V30 1351 N 134.507 -0.190092 1.56449 0
M  V30 1352 C 135.747 -0.916414 1.82705 0
M  V30 1353 C 136.111 -1.80235 0.661763 0
M  V30 1354 O 137.312 -2.56484 0.80433 0
M  V30 1355 C 135.583 -1.70691 3.14005 0
M  V30 1356 S 137.142 -2.48457 3.61683 0
M  V30 1357 H 133.96 -0.307281 0.64117 0
M  V30 1358 H 136.562 -0.179433 1.94675 0
M  V30 1359 H 135.266 -1.04677 3.96826 0
M  V30 1360 H 134.797 -2.48562 3.04927 0
M  V30 1361 H 136.812 -3.72756 3.27517 0
M  V30 1362 N 135.985 -1.50799 -0.457987 0
M  V30 1363 C 136.918 -1.65273 -1.57353 0
M  V30 1364 C 137.896 -0.500578 -1.54703 0
M  V30 1365 O 139.08 -0.721781 -1.74134 0
M  V30 1366 C 136.207 -1.64737 -2.95938 0
M  V30 1367 C 135.253 -2.8567 -3.16693 0
M  V30 1368 S 136.086 -4.46791 -2.95191 0
M  V30 1369 C 137.242 -4.48968 -4.36095 0
M  V30 1370 H 137.475 -2.59633 -1.44838 0
M  V30 1371 H 135.008 -1.40225 -0.64625 0
M  V30 1372 H 136.966 -1.65112 -3.7583 0
M  V30 1373 H 135.627 -0.715899 -3.05833 0
M  V30 1374 H 134.82 -2.81637 -4.17967 0
M  V30 1375 H 134.422 -2.8293 -2.44594 0
M  V30 1376 H 136.714 -4.23337 -5.28954 0
M  V30 1377 H 137.657 -5.50664 -4.45168 0
M  V30 1378 H 138.065 -3.78522 -4.18786 0
M  V30 1379 N 137.463 0.71206 -1.40597 0
M  V30 1380 C 138.393 1.83889 -1.43899 0
M  V30 1381 C 139.374 1.67442 -0.299504 0
M  V30 1382 O 140.559 1.87421 -0.508624 0
M  V30 1383 C 137.689 3.21877 -1.30431 0
M  V30 1384 C 136.643 3.53002 -2.42019 0
M  V30 1385 C 135.969 4.90172 -2.13626 0
M  V30 1386 C 137.269 3.53643 -3.84362 0
M  V30 1387 H 138.963 1.81383 -2.38203 0
M  V30 1388 H 136.509 0.871237 -1.14654 0
M  V30 1389 H 138.462 4.00404 -1.31357 0
M  V30 1390 H 137.186 3.24968 -0.326049 0
M  V30 1391 H 135.845 2.76818 -2.40349 0
M  V30 1392 H 135.493 4.89869 -1.14182 0
M  V30 1393 H 135.193 5.11962 -2.88389 0
M  V30 1394 H 136.717 5.71028 -2.1624 0
M  V30 1395 H 138.131 4.22203 -3.87837 0
M  V30 1396 H 136.528 3.86961 -4.58673 0
M  V30 1397 H 137.598 2.52954 -4.13693 0
M  V30 1398 N 138.941 1.26152 0.944643 0
M  V30 1399 C 140.218 1.02247 1.66748 0
M  V30 1400 C 140.598 -0.448202 2.06287 0
M  V30 1401 O 139.946 -1.42779 1.78399 0
M  V30 1402 C 140.156 1.96788 2.88228 0
M  V30 1403 C 141.504 2.25201 3.59958 0
M  V30 1404 O 142.528 1.94626 2.98327 0
M  V30 1405 O 141.387 2.77242 4.70956 0
M  V30 1406 H 138.481 0.388517 0.730057 0
M  V30 1407 H 141.027 1.37348 0.99668 0
M  V30 1408 H 139.799 2.96047 2.55875 0
M  V30 1409 H 139.422 1.62145 3.63035 0
M  V30 1410 N 140.419 -1.14872 1.07899 0
M  V30 1411 C 141.644 -1.90202 0.826926 0
M  V30 1412 C 142.069 -1.77774 -0.614664 0
M  V30 1413 O 141.427 -1.11431 -1.43013 0
M  V30 1414 C 141.475 -3.38352 1.24702 0
M  V30 1415 O 140.579 -4.10497 0.39575 0
M  V30 1416 H 139.92 -0.591968 0.300782 0
M  V30 1417 H 142.45 -1.45437 1.43907 0
M  V30 1418 H 142.46 -3.89156 1.22563 0
M  V30 1419 H 141.135 -3.46715 2.29698 0
M  V30 1420 H 139.712 -3.69796 0.480117 0
M  V30 1421 N 141.898 -0.863906 -1.31812 0
M  V30 1422 C 142.846 -0.30422 -2.30602 0
M  V30 1423 C 143.84 0.577419 -1.59255 0
M  V30 1424 O 145.046 0.464194 -1.73912 0
M  V30 1425 H 141.421 -0.0796877 -0.747766 0
M  V30 1426 H 143.392 -1.15148 -2.75288 0
M  V30 1427 C 142.141 0.484617 -3.44306 0
M  V30 1428 H 141.464 -0.18451 -3.99374 0
M  V30 1429 H 142.904 0.841664 -4.15562 0
M  V30 1430 C 141.363 1.6735 -2.92396 0
M  V30 1431 O 141.893 2.77273 -2.90659 0
M  V30 1432 N 140.099 1.50362 -2.48676 0
M  V30 1433 H 139.646 0.609402 -2.50288 0
M  V30 1434 H 139.604 2.30051 -2.14299 0
M  V30 1435 N 143.376 1.44774 -0.622745 0
M  V30 1436 C 144.624 2.01721 -0.123655 0
M  V30 1437 C 144.945 1.49172 1.25589 0
M  V30 1438 O 144.215 0.691974 1.83272 0
M  V30 1439 H 142.795 0.745777 -0.0427225 0
M  V30 1440 H 145.457 1.77382 -0.807559 0
M  V30 1441 H 144.553 3.11984 -0.0849534 0
M  V30 1442 N 144.854 0.36279 1.53368 0
M  V30 1443 C 146.079 -0.231226 2.06107 0
M  V30 1444 C 146.504 -1.419 1.23474 0
M  V30 1445 O 145.862 -1.79524 0.253128 0
M  V30 1446 C 145.91 -0.605523 3.5548 0
M  V30 1447 O 145.014 -1.70312 3.7559 0
M  V30 1448 H 144.355 -0.034327 0.663112 0
M  V30 1449 H 146.885 0.522584 1.97814 0
M  V30 1450 H 146.895 -0.877314 3.98456 0
M  V30 1451 H 145.57 0.263004 4.15068 0
M  V30 1452 H 144.147 -1.4271 3.44512 0
M  V30 1453 N 146.332 -1.57332 0.0918853 0
M  V30 1454 C 147.28 -2.15075 -0.885747 0
M  V30 1455 C 148.274 -1.09277 -1.29441 0
M  V30 1456 O 149.48 -1.27627 -1.26931 0
M  V30 1457 H 145.855 -0.687966 -0.303656 0
M  V30 1458 H 147.826 -2.96047 -0.373995 0
M  V30 1459 C 146.575 -2.74325 -2.13638 0
M  V30 1460 H 145.898 -3.55418 -1.8308 0
M  V30 1461 H 147.338 -3.183 -2.80109 0
M  V30 1462 C 145.797 -1.70062 -2.90827 0
M  V30 1463 O 146.327 -1.13763 -3.85254 0
M  V30 1464 N 144.533 -1.40628 -2.54307 0
M  V30 1465 H 144.08 -1.866 -1.7759 0
M  V30 1466 H 144.038 -0.711043 -3.06254 0
M  V30 1467 N 147.81 0.181792 -1.56548 0
M  V30 1468 C 149.038 0.915947 -1.85521 0
M  V30 1469 C 149.453 1.76282 -0.676016 0
M  V30 1470 O 148.81 1.79012 0.355077 0
M  V30 1471 C 148.861 1.80126 -3.13427 0
M  V30 1472 O 148.582 0.988562 -4.26801 0
M  V30 1473 C 150.083 2.64597 -3.55673 0
M  V30 1474 H 147.303 0.26661 -0.61576 0
M  V30 1475 H 149.847 0.185039 -2.03661 0
M  V30 1476 H 148.002 2.48563 -2.97145 0
M  V30 1477 H 148.416 1.59308 -4.99721 0
M  V30 1478 H 149.89 3.2235 -4.48101 0
M  V30 1479 H 150.367 3.38958 -2.79292 0
M  V30 1480 H 150.973 2.0151 -3.74532 0
M  V30 1481 N 149.288 1.51039 0.449983 0
M  V30 1482 C 150.516 1.66869 1.2232 0
M  V30 1483 C 150.931 0.360727 1.85322 0
M  V30 1484 O 150.288 -0.659531 1.70166 0
M  V30 1485 C 150.339 2.77524 2.31652 0
M  V30 1486 O 150.06 4.03252 1.7123 0
M  V30 1487 C 151.561 3.04512 3.2216 0
M  V30 1488 H 148.781 0.560326 0.369155 0
M  V30 1489 H 151.325 1.97385 0.534719 0
M  V30 1490 H 149.48 2.49642 2.96239 0
M  V30 1491 H 149.894 4.64609 2.43389 0
M  V30 1492 H 151.368 3.85551 3.95038 0
M  V30 1493 H 151.845 2.16415 3.8218 0
M  V30 1494 H 152.451 3.34005 2.63288 0
M  V30 1495 N 150.766 -0.704594 1.40972 0
M  V30 1496 C 151.729 -1.80035 1.41845 0
M  V30 1497 C 152.729 -1.57774 0.310474 0
M  V30 1498 O 153.919 -1.64613 0.56992 0
M  V30 1499 C 151.051 -3.18284 1.22098 0
M  V30 1500 H 152.244 -1.80658 2.3938 0
M  V30 1501 H 149.797 -0.911329 1.26982 0
M  V30 1502 H 150.532 -3.23306 0.253672 0
M  V30 1503 H 150.317 -3.35843 2.02366 0
M  V30 1504 H 151.807 -3.98289 1.25522 0
M  V30 1505 N 152.244 -1.26651 -0.937939 0
M  V30 1506 C 153.207 -1.08546 -2.01867 0
M  V30 1507 C 154.207 -0.0327327 -1.60767 0
M  V30 1508 O 155.397 -0.276427 -1.71993 0
M  V30 1509 C 152.529 -0.651711 -3.34613 0
M  V30 1510 H 153.722 -2.04502 -2.1936 0
M  V30 1511 H 151.275 -1.09294 -1.11734 0
M  V30 1512 H 152.01 0.309696 -3.22818 0
M  V30 1513 H 151.795 -1.41189 -3.65798 0
M  V30 1514 H 153.285 -0.546973 -4.14002 0
M  V30 1515 N 153.722 1.14298 -1.08507 0
M  V30 1516 C 154.685 2.17607 -0.719711 0
M  V30 1517 C 155.685 1.58907 0.245997 0
M  V30 1518 O 156.875 1.74181 0.0254081 0
M  V30 1519 C 154.007 3.40842 -0.0627695 0
M  V30 1520 H 155.2 2.51443 -1.63452 0
M  V30 1521 H 152.753 1.28963 -0.88307 0
M  V30 1522 H 153.488 3.12587 0.863716 0
M  V30 1523 H 153.273 3.84713 -0.757504 0
M  V30 1524 H 154.763 4.17221 0.177786 0
M  V30 1525 N 155.201 0.870884 1.31352 0
M  V30 1526 C 156.449 0.48132 1.96285 0
M  V30 1527 C 156.77 -0.969813 1.69173 0
M  V30 1528 O 156.04 -1.67998 1.00764 0
M  V30 1529 H 154.62 0.175002 0.726212 0
M  V30 1530 H 157.282 1.11087 1.60143 0
M  V30 1531 H 156.378 0.639825 3.05471 0
M  V30 1532 N 156.679 -1.44442 0.630414 0
M  V30 1533 C 157.925 -2.02351 0.134816 0
M  V30 1534 C 158.258 -1.4947 -1.23986 0
M  V30 1535 O 157.533 -0.678475 -1.82283 0
M  V30 1536 C 157.816 -3.59898 0.120707 0
M  V30 1537 C 157.669 -4.23063 1.52767 0
M  V30 1538 C 158.988 -4.36585 -0.555127 0
M  V30 1539 H 156.107 -0.73527 0.0504646 0
M  V30 1540 H 158.749 -1.72022 0.806751 0
M  V30 1541 H 156.899 -3.85868 -0.451477 0
M  V30 1542 H 158.571 -4.08202 2.14869 0
M  V30 1543 H 156.814 -3.80586 2.08175 0
M  V30 1544 H 157.485 -5.32071 1.46984 0
M  V30 1545 H 159.961 -4.16044 -0.0685429 0
M  V30 1546 H 158.837 -5.46294 -0.534185 0
M  V30 1547 H 159.098 -4.11138 -1.62535 0
M  V30 1548 N 158.157 -0.370918 -1.53173 0
M  V30 1549 C 159.12 0.460778 -2.24521 0
M  V30 1550 C 160.12 1.00536 -1.25496 0
M  V30 1551 O 161.31 0.890266 -1.49733 0
M  V30 1552 C 158.442 1.64457 -2.98608 0
M  V30 1553 H 159.635 -0.163613 -2.99453 0
M  V30 1554 H 157.188 -0.122699 -1.55818 0
M  V30 1555 H 157.923 2.30691 -2.2793 0
M  V30 1556 H 157.708 1.26099 -3.7127 0
M  V30 1557 H 159.198 2.23384 -3.5283 0
M  V30 1558 N 159.635 1.57281 -0.100228 0
M  V30 1559 C 160.565 2.17328 0.853857 0
M  V30 1560 C 161.546 1.10804 1.2906 0
M  V30 1561 O 162.731 1.38963 1.35657 0
M  V30 1562 C 159.861 2.75772 2.11109 0
M  V30 1563 C 158.815 3.87713 1.81279 0
M  V30 1564 C 158.141 4.32882 3.13874 0
M  V30 1565 C 159.441 5.10677 1.09574 0
M  V30 1566 H 161.135 2.97305 0.353545 0
M  V30 1567 H 158.681 1.43009 0.168612 0
M  V30 1568 H 160.634 3.16433 2.78296 0
M  V30 1569 H 159.358 1.93057 2.63432 0
M  V30 1570 H 158.017 3.476 1.16489 0
M  V30 1571 H 157.665 3.47051 3.64095 0
M  V30 1572 H 157.365 5.08358 2.94696 0
M  V30 1573 H 158.889 4.7618 3.82211 0
M  V30 1574 H 160.303 5.48474 1.66879 0
M  V30 1575 H 158.7 5.91615 1.00557 0
M  V30 1576 H 159.77 4.84835 0.0793299 0
M  V30 1577 N 161.113 -0.173488 1.56642 0
M  V30 1578 C 162.359 -0.891784 1.8214 0
M  V30 1579 C 162.692 -1.8199 0.677736 0
M  V30 1580 O 161.967 -1.91842 -0.320446 0
M  V30 1581 C 162.25 -1.68933 3.18015 0
M  V30 1582 C 162.103 -0.784487 4.42906 0
M  V30 1583 C 163.422 -2.65748 3.50808 0
M  V30 1584 H 160.541 -0.322761 0.662567 0
M  V30 1585 H 163.183 -0.158095 1.89341 0
M  V30 1586 H 161.333 -2.31482 3.12007 0
M  V30 1587 H 163.005 -0.172046 4.60979 0
M  V30 1588 H 161.248 -0.0924117 4.33702 0
M  V30 1589 H 161.919 -1.37799 5.34524 0
M  V30 1590 H 164.395 -2.13327 3.57255 0
M  V30 1591 H 163.271 -3.18619 4.4696 0
M  V30 1592 H 163.532 -3.45842 2.75401 0
M  V30 1593 N 162.591 -1.51276 -0.441967 0
M  V30 1594 C 163.837 -1.63958 -1.19355 0
M  V30 1595 C 164.17 -0.352543 -1.90973 0
M  V30 1596 O 163.445 0.647627 -1.83401 0
M  V30 1597 C 163.728 -2.83979 -2.21422 0
M  V30 1598 C 163.581 -4.22646 -1.53918 0
M  V30 1599 C 164.9 -2.99521 -3.22451 0
M  V30 1600 H 162.019 -0.596709 -0.432559 0
M  V30 1601 H 164.661 -1.83748 -0.483398 0
M  V30 1602 H 162.811 -2.67237 -2.81987 0
M  V30 1603 H 164.483 -4.51045 -0.967256 0
M  V30 1604 H 162.726 -4.25558 -0.841615 0
M  V30 1605 H 163.397 -5.02609 -2.28229 0
M  V30 1606 H 165.873 -3.14944 -2.71937 0
M  V30 1607 H 164.749 -3.85072 -3.91166 0
M  V30 1608 H 165.01 -2.11391 -3.88287 0
M  V30 1609 N 164.069 0.697108 -1.41344 0
M  V30 1610 C 165.016 1.81106 -1.43071 0
M  V30 1611 C 165.986 1.63632 -0.285275 0
M  V30 1612 O 167.171 1.84504 -0.486091 0
M  V30 1613 C 164.311 3.18975 -1.31715 0
M  V30 1614 C 163.424 3.47892 -2.56115 0
M  V30 1615 C 162.559 4.75367 -2.37064 0
M  V30 1616 C 161.598 4.97247 -3.56948 0
M  V30 1617 N 160.735 6.15947 -3.36977 0
M  V30 1618 H 165.575 1.78965 -2.38276 0
M  V30 1619 H 163.112 0.873975 -1.18322 0
M  V30 1620 H 165.07 3.98615 -1.23133 0
M  V30 1621 H 163.7 3.20297 -0.401183 0
M  V30 1622 H 162.752 2.62669 -2.75153 0
M  V30 1623 H 164.064 3.59962 -3.45295 0
M  V30 1624 H 163.218 5.63059 -2.25941 0
M  V30 1625 H 161.957 4.65541 -1.45338 0
M  V30 1626 H 160.962 4.08004 -3.68527 0
M  V30 1627 H 162.187 5.08934 -4.49626 0
M  V30 1628 H 160.133 6.07336 -2.47949 0
M  V30 1629 H 160.05 6.28777 -4.19732 0
M  V30 1630 H 161.318 7.06377 -3.29623 0
M  V30 1631 N 165.547 1.27147 0.931209 0
M  V30 1632 C 166.51 1.09615 2.01289 0
M  V30 1633 C 167.51 0.0412581 1.60747 0
M  V30 1634 O 168.7 0.285545 1.71844 0
M  V30 1635 C 165.832 0.669447 3.34262 0
M  V30 1636 H 167.025 2.05662 2.18273 0
M  V30 1637 H 164.578 1.09885 1.11153 0
M  V30 1638 H 165.313 -0.292572 3.22978 0
M  V30 1639 H 165.098 1.43127 3.65044 0
M  V30 1640 H 166.588 0.568921 4.13706 0
M  V30 1641 N 167.025 -1.13721 1.09112 0
M  V30 1642 C 167.988 -2.17222 0.731241 0
M  V30 1643 C 168.988 -1.59035 -0.237566 0
M  V30 1644 O 170.178 -1.74192 -0.0161704 0
M  V30 1645 C 167.31 -3.40804 0.0808443 0
M  V30 1646 H 168.503 -2.50573 1.64783 0
M  V30 1647 H 166.056 -1.28493 0.889897 0
M  V30 1648 H 166.791 -3.1304 -0.847127 0
M  V30 1649 H 166.576 -3.84306 0.777896 0
M  V30 1650 H 168.066 -4.1731 -0.155657 0
M  V30 1651 N 168.503 -0.877838 -1.30888 0
M  V30 1652 C 169.751 -0.491723 -1.96027 0
M  V30 1653 C 170.072 0.960827 -1.69685 0
M  V30 1654 O 169.342 1.67462 -1.01654 0
M  V30 1655 H 167.922 -0.17885 -0.725273 0
M  V30 1656 H 170.584 -1.11935 -1.59551 0
M  V30 1657 H 169.68 -0.656016 -3.05128 0
M  V30 1658 N 169.982 1.44106 -0.638065 0
M  V30 1659 C 171.23 2.01579 -0.145043 0
M  V30 1660 C 171.551 1.50496 1.24 0
M  V30 1661 O 170.821 0.711374 1.82527 0
M  V30 1662 H 169.401 0.745282 -0.05063 0
M  V30 1663 H 172.063 1.76516 -0.826327 0
M  V30 1664 H 171.159 3.11877 -0.118039 0
M  V30 1665 N 171.46 0.379036 1.52974 0
M  V30 1666 C 172.685 -0.209353 2.06341 0
M  V30 1667 C 173.11 -1.40583 1.24972 0
M  V30 1668 O 172.468 -1.79246 0.272155 0
M  V30 1669 C 172.516 -0.567786 3.56102 0
M  V30 1670 O 171.62 -1.66318 3.77375 0
M  V30 1671 H 170.961 -0.0272919 0.663439 0
M  V30 1672 H 173.491 0.543536 1.97248 0
M  V30 1673 H 173.501 -0.835003 3.99364 0
M  V30 1674 H 172.176 0.307013 4.14765 0
M  V30 1675 H 170.753 -1.39048 3.46006 0
M  V30 1676 N 172.938 -1.57226 0.108567 0
M  V30 1677 C 174.184 -1.95121 -0.552761 0
M  V30 1678 C 174.517 -0.991345 -1.66991 0
M  V30 1679 O 173.792 -0.0267211 -1.94482 0
M  V30 1680 C 174.075 -3.43039 -1.09528 0
M  V30 1681 C 173.928 -4.49797 0.0177332 0
M  V30 1682 C 175.247 -3.92567 -1.98945 0
M  V30 1683 H 172.366 -0.709496 -0.199461 0
M  V30 1684 H 175.008 -1.89126 0.182011 0
M  V30 1685 H 173.158 -3.48279 -1.72146 0
M  V30 1686 H 174.83 -4.56661 0.652584 0
M  V30 1687 H 173.073 -4.284 0.682309 0
M  V30 1688 H 173.744 -5.50528 -0.402919 0
M  V30 1689 H 176.22 -3.89565 -1.46214 0
M  V30 1690 H 175.096 -4.96605 -2.33827 0
M  V30 1691 H 175.357 -3.32648 -2.91201 0
M  V30 1692 N 174.416 0.165178 -1.56732 0
M  V30 1693 C 175.363 1.2044 -1.96883 0
M  V30 1694 C 176.333 1.43664 -0.833657 0
M  V30 1695 O 177.518 1.56302 -1.09427 0
M  V30 1696 C 174.658 2.53727 -2.33916 0
M  V30 1697 C 173.771 2.3783 -3.6064 0
M  V30 1698 C 172.906 3.64026 -3.86857 0
M  V30 1699 C 171.945 3.43088 -5.06909 0
M  V30 1700 N 171.082 4.61369 -5.29229 0
M  V30 1701 H 175.922 0.854996 -2.85471 0
M  V30 1702 H 173.459 0.41076 -1.41249 0
M  V30 1703 H 175.417 3.31419 -2.53411 0
M  V30 1704 H 174.047 2.8665 -1.48431 0
M  V30 1705 H 173.099 1.51282 -3.49024 0
M  V30 1706 H 174.411 2.18308 -4.4849 0
M  V30 1707 H 173.565 4.50152 -4.06753 0
M  V30 1708 H 172.304 3.86533 -2.97394 0
M  V30 1709 H 171.309 2.55349 -4.86906 0
M  V30 1710 H 172.534 3.21997 -5.97909 0
M  V30 1711 H 170.48 4.84084 -4.42718 0
M  V30 1712 H 170.397 4.44783 -6.11313 0
M  V30 1713 H 171.665 5.48761 -5.53608 0
M  V30 1714 N 175.894 1.51508 0.433938 0
M  V30 1715 C 177.142 1.6402 1.18075 0
M  V30 1716 C 177.463 0.360328 1.91642 0
M  V30 1717 O 176.733 -0.623945 1.85698 0
M  V30 1718 H 175.313 0.6045 0.43885 0
M  V30 1719 H 177.975 1.88452 0.497178 0
M  V30 1720 H 177.071 2.46949 1.90847 0
M  V30 1721 N 177.372 -0.689602 1.41712 0
M  V30 1722 C 178.319 -1.80345 1.44029 0
M  V30 1723 C 179.289 -1.63478 0.293948 0
M  V30 1724 O 180.474 -1.84244 0.495869 0
M  V30 1725 C 177.614 -3.18272 1.33405 0
M  V30 1726 C 176.727 -3.46529 2.57956 0
M  V30 1727 C 175.862 -4.74103 2.39582 0
M  V30 1728 C 174.901 -4.95347 3.5958 0
M  V30 1729 N 174.038 -6.14151 3.40239 0
M  V30 1730 H 178.878 -1.77698 2.39222 0
M  V30 1731 H 176.415 -0.867688 1.18784 0
M  V30 1732 H 178.373 -3.97956 1.25246 0
M  V30 1733 H 177.003 -3.2008 0.418164 0
M  V30 1734 H 176.055 -2.61207 2.76542 0
M  V30 1735 H 177.367 -3.58126 3.47199 0
M  V30 1736 H 176.521 -5.61853 2.28924 0
M  V30 1737 H 175.26 -4.64763 1.47805 0
M  V30 1738 H 174.265 -4.06044 3.70686 0
M  V30 1739 H 175.49 -5.06542 4.52318 0
M  V30 1740 H 173.436 -6.06013 2.51167 0
M  V30 1741 H 173.353 -6.26543 4.23061 0
M  V30 1742 H 174.621 -7.04619 3.33365 0
M  V30 1743 N 178.85 -1.27639 -0.924453 0
M  V30 1744 C 179.797 -1.10644 -2.0255 0
M  V30 1745 C 180.767 -0.00658438 -1.66099 0
M  V30 1746 O 181.952 -0.16952 -1.90045 0
M  V30 1747 C 179.092 -0.76309 -3.36557 0
M  V30 1748 C 178.205 -1.94091 -3.85944 0
M  V30 1749 C 177.34 -1.53914 -5.08413 0
M  V30 1750 C 176.379 -2.68425 -5.50104 0
M  V30 1751 N 175.516 -2.28815 -6.63768 0
M  V30 1752 H 180.356 -2.04858 -2.16419 0
M  V30 1753 H 177.893 -1.01974 -1.06017 0
M  V30 1754 H 179.851 -0.544822 -4.13627 0
M  V30 1755 H 178.481 0.142102 -3.22487 0
M  V30 1756 H 177.533 -2.27162 -3.05125 0
M  V30 1757 H 178.845 -2.7998 -4.12811 0
M  V30 1758 H 177.999 -1.28231 -5.92994 0
M  V30 1759 H 176.738 -0.651391 -4.8333 0
M  V30 1760 H 175.743 -2.94819 -4.64071 0
M  V30 1761 H 176.968 -3.57826 -5.7718 0
M  V30 1762 H 174.914 -1.42495 -6.40337 0
M  V30 1763 H 174.831 -3.08242 -6.90306 0
M  V30 1764 H 176.099 -2.06387 -7.51681 0
M  V30 1765 N 180.328 1.1314 -1.09713 0
M  V30 1766 C 181.291 2.16831 -0.742751 0
M  V30 1767 C 182.291 1.59159 0.229129 0
M  V30 1768 O 183.481 1.74199 0.00693237 0
M  V30 1769 C 180.613 3.40756 -0.0989168 0
M  V30 1770 H 181.806 2.49695 -1.66109 0
M  V30 1771 H 179.359 1.2802 -0.896699 0
M  V30 1772 H 180.094 3.13485 0.830514 0
M  V30 1773 H 179.879 3.83888 -0.798265 0
M  V30 1774 H 181.369 4.17386 0.133524 0
M  V30 1775 N 181.806 0.884767 1.30421 0
M  V30 1776 C 183.052 0.503851 1.96441 0
M  V30 1777 C 183.385 -0.944518 1.69684 0
M  V30 1778 O 182.66 -1.66737 1.00145 0
M  V30 1779 C 182.943 0.779085 3.51571 0
M  V30 1780 C 182.796 2.27807 3.87846 0
M  V30 1781 C 184.115 0.255452 4.39358 0
M  V30 1782 H 181.234 0.184533 0.713524 0
M  V30 1783 H 183.876 1.10872 1.54297 0
M  V30 1784 H 182.026 0.264274 3.876 0
M  V30 1785 H 183.698 2.86127 3.61841 0
M  V30 1786 H 181.941 2.74479 3.35922 0
M  V30 1787 H 182.612 2.42125 4.96064 0
M  V30 1788 H 185.088 0.696079 4.10236 0
M  V30 1789 H 183.964 0.477361 5.4682 0
M  V30 1790 H 184.225 -0.843293 4.33983 0
M  V30 1791 N 183.284 -1.43765 0.645699 0
M  V30 1792 C 184.53 -2.02197 0.156271 0
M  V30 1793 C 184.863 -1.50776 -1.22393 0
M  V30 1794 O 184.138 -0.697771 -1.81553 0
M  V30 1795 C 184.421 -3.59749 0.158872 0
M  V30 1796 C 184.274 -4.21419 1.57245 0
M  V30 1797 C 185.593 -4.37149 -0.50879 0
M  V30 1798 H 182.712 -0.734694 0.0582602 0
M  V30 1799 H 185.354 -1.71157 0.824951 0
M  V30 1800 H 183.504 -3.86325 -0.410525 0
M  V30 1801 H 185.176 -4.059 2.19186 0
M  V30 1802 H 183.419 -3.78356 2.122 0
M  V30 1803 H 184.09 -5.30482 1.52619 0
M  V30 1804 H 186.566 -4.16093 -0.024412 0
M  V30 1805 H 185.442 -5.4683 -0.476213 0
M  V30 1806 H 185.703 -4.12839 -1.58165 0
M  V30 1807 N 184.763 -0.387143 -1.52771 0
M  V30 1808 C 185.693 0.440551 -2.29306 0
M  V30 1809 C 186.674 1.06535 -1.32606 0
M  V30 1810 O 187.859 1.07853 -1.61497 0
M  V30 1811 C 184.989 1.56919 -3.09829 0
M  V30 1812 C 183.943 1.07054 -4.14395 0
M  V30 1813 C 183.269 2.29109 -4.83129 0
M  V30 1814 C 184.569 0.140015 -5.22112 0
M  V30 1815 H 186.263 -0.198026 -2.98744 0
M  V30 1816 H 183.809 -0.09668 -1.43675 0
M  V30 1817 H 185.762 2.15503 -3.62128 0
M  V30 1818 H 184.486 2.23532 -2.3812 0
M  V30 1819 H 183.145 0.507247 -3.63074 0
M  V30 1820 H 182.793 2.94227 -4.0797 0
M  V30 1821 H 182.493 1.96406 -5.53804 0
M  V30 1822 H 184.017 2.88339 -5.38231 0
M  V30 1823 H 185.431 0.633978 -5.69784 0
M  V30 1824 H 183.828 -0.0971485 -6.00021 0
M  V30 1825 H 184.898 -0.811711 -4.78058 0
M  V30 1826 N 186.241 1.57166 -0.116904 0
M  V30 1827 C 187.204 2.14039 0.819742 0
M  V30 1828 C 188.204 1.07477 1.19605 0
M  V30 1829 O 189.394 1.33263 1.1219 0
M  V30 1830 C 186.526 2.67891 2.10826 0
M  V30 1831 H 187.719 2.98128 0.325511 0
M  V30 1832 H 185.272 1.55739 0.132312 0
M  V30 1833 H 186.007 1.87384 2.64685 0
M  V30 1834 H 185.792 3.45823 1.84793 0
M  V30 1835 H 187.282 3.11809 2.77785 0
M  V30 1836 N 187.719 -0.156864 1.56817 0
M  V30 1837 C 188.967 -0.869404 1.82444 0
M  V30 1838 C 189.288 -1.82147 0.69623 0
M  V30 1839 O 188.558 -1.93847 -0.28287 0
M  V30 1840 H 187.138 -0.324043 0.673056 0
M  V30 1841 H 189.8 -0.153224 1.94297 0
M  V30 1842 H 188.896 -1.43761 2.77019 0
M  V30 1843 N 189.197 -1.51736 -0.425897 0
M  V30 1844 C 190.425 -1.68794 -1.1965 0
M  V30 1845 C 190.84 -0.390164 -1.84725 0
M  V30 1846 O 190.197 0.632376 -1.71194 0
M  V30 1847 C 190.248 -2.81174 -2.27208 0
M  V30 1848 O 189.969 -4.05925 -1.64793 0
M  V30 1849 C 191.47 -3.09599 -3.17275 0
M  V30 1850 H 188.69 -0.566128 -0.360194 0
M  V30 1851 H 191.234 -1.98211 -0.503249 0
M  V30 1852 H 189.389 -2.54324 -2.9223 0
M  V30 1853 H 189.803 -4.68423 -2.35967 0
M  V30 1854 H 191.277 -3.91786 -3.88854 0
M  V30 1855 H 191.754 -2.22468 -3.78688 0
M  V30 1856 H 192.36 -3.38151 -2.57941 0
M  V30 1857 N 190.675 0.682077 -1.42076 0
M  V30 1858 C 191.923 1.4393 -1.41876 0
M  V30 1859 C 192.244 1.94971 -0.0335599 0
M  V30 1860 O 191.514 1.72591 0.926773 0
M  V30 1861 H 190.094 0.534085 -0.522267 0
M  V30 1862 H 192.756 0.806427 -1.77434 0
M  V30 1863 H 191.852 2.29588 -2.11414 0
M  V30 1864 N 192.153 1.28127 0.917671 0
M  V30 1865 C 193.564 1.13622 1.48145 0
M  V30 1866 C 193.915 -0.275207 1.9426 0
M  V30 1867 O 193.04 -1.1691 1.82102 0
M  V30 1868 C 193.635 2.05648 2.69248 0
M  V30 1869 C 192.194 1.95219 3.21818 0
M  V30 1870 C 191.341 1.97618 1.94532 0
M  V30 1871 H 194.292 1.40874 0.730772 0
M  V30 1872 H 194.313 1.61818 3.44377 0
M  V30 1873 H 193.825 3.08365 2.35653 0
M  V30 1874 H 191.926 0.955244 3.60147 0
M  V30 1875 H 192.039 2.81976 3.87333 0
M  V30 1876 H 190.403 1.41973 2.11461 0
M  V30 1877 H 191.186 3.02007 1.63238 0
M  V30 1878 N 193.631 -1.12557 1.10312 0
M  V30 1879 C 194.877 -1.84311 0.846011 0
M  V30 1880 C 195.21 -1.83805 -0.626859 0
M  V30 1881 O 194.485 -1.28268 -1.46211 0
M  V30 1882 C 194.768 -3.32048 1.39341 0
M  V30 1883 C 194.621 -3.41016 2.93305 0
M  V30 1884 C 195.94 -4.27764 1.03468 0
M  V30 1885 H 193.059 -0.669192 0.30879 0
M  V30 1886 H 195.701 -1.32057 1.36605 0
M  V30 1887 H 193.851 -3.76678 0.951087 0
M  V30 1888 H 195.523 -3.05031 3.46055 0
M  V30 1889 H 193.766 -2.81603 3.29973 0
M  V30 1890 H 194.437 -4.44948 3.26689 0
M  V30 1891 H 196.913 -3.91253 1.41633 0
M  V30 1892 H 195.789 -5.29549 1.44463 0
M  V30 1893 H 196.05 -4.42064 -0.0560404 0
M  V30 1894 N 195.109 -0.891671 -1.2995 0
M  V30 1895 C 196.357 -0.512486 -1.95494 0
M  V30 1896 C 196.678 0.942776 -1.70695 0
M  V30 1897 O 195.948 1.66374 -1.03424 0
M  V30 1898 H 194.528 -0.186533 -0.723336 0
M  V30 1899 H 197.19 -1.13621 -1.58355 0
M  V30 1900 H 196.286 -0.688342 -3.04415 0
M  V30 1901 N 196.587 1.43421 -0.653314 0
M  V30 1902 C 197.52 2.2803 0.0879804 0
M  V30 1903 C 198.498 1.39833 0.82979 0
M  V30 1904 O 199.682 1.69275 0.829341 0
M  V30 1905 C 196.809 3.19247 1.13132 0
M  V30 1906 C 195.855 4.23704 0.487546 0
M  V30 1907 S 196.688 5.30377 -0.738961 0
M  V30 1908 C 197.844 6.25162 0.30384 0
M  V30 1909 H 198.077 2.90554 -0.629739 0
M  V30 1910 H 195.61 1.47934 -0.442156 0
M  V30 1911 H 197.568 3.72346 1.72827 0
M  V30 1912 H 196.229 2.55901 1.82136 0
M  V30 1913 H 195.422 4.87631 1.27407 0
M  V30 1914 H 195.024 3.73983 -0.0352915 0
M  V30 1915 H 197.316 6.67321 1.17 0
M  V30 1916 H 198.259 7.07463 -0.300402 0
M  V30 1917 H 198.667 5.60864 0.63969 0
M  V30 1918 N 198.065 0.39524 1.52563 0
M  V30 1919 C 199.481 0.0454682 1.59535 0
M  V30 1920 C 199.681 -1.44056 1.4089 0
M  V30 1921 O 198.737 -2.20579 1.22888 0
M  V30 1922 C 200.05 0.527963 2.96029 0
M  V30 1923 C 201.598 0.484733 3.09224 0
M  V30 1924 C 202.073 0.943512 4.48176 0
M  V30 1925 N 203.564 0.899765 4.54377 0
M  V30 1926 C 204.299 1.22609 5.60138 0
M  V30 1927 N 203.795 1.62319 6.73516 0
M  V30 1928 N 205.588 1.14696 5.50274 0
M  V30 1929 H 197.739 1.36261 1.62931 0
M  V30 1930 H 200.002 0.558887 0.765735 0
M  V30 1931 H 199.708 1.56607 3.14908 0
M  V30 1932 H 199.582 -0.0698056 3.77135 0
M  V30 1933 H 201.969 -0.544298 2.90037 0
M  V30 1934 H 202.05 1.11838 2.30056 0
M  V30 1935 H 201.694 1.9708 4.68104 0
M  V30 1936 H 201.624 0.286817 5.25818 0
M  V30 1937 H 204.115 0.607632 3.72983 0
M  V30 1938 H 204.428 1.85567 7.5019 0
M  V30 1939 H 202.773 1.66211 6.74833 0
M  V30 1940 H 205.964 0.835701 4.6058 0
M  V30 1941 H 206.137 1.40459 6.32594 0
M  V30 1942 N 199.544 -1.57102 0.125237 0
M  V30 1943 C 200.769 -2.0019 -0.542101 0
M  V30 1944 C 201.194 -1.00449 -1.59034 0
M  V30 1945 O 200.552 0.0229423 -1.81285 0
M  V30 1946 C 200.6 -3.42129 -1.13929 0
M  V30 1947 O 199.704 -3.45307 -2.2547 0
M  V30 1948 H 199.045 -0.650171 -0.134812 0
M  V30 1949 H 201.575 -2.03461 0.215553 0
M  V30 1950 H 201.585 -3.80471 -1.4733 0
M  V30 1951 H 200.26 -4.14237 -0.371531 0
M  V30 1952 H 198.837 -3.1879 -1.93462 0
M  V30 1953 N 201.022 0.148545 -1.56898 0
M  V30 1954 C 201.985 1.16736 -1.97244 0
M  V30 1955 C 202.985 1.35947 -0.858777 0
M  V30 1956 O 204.175 1.32966 -1.12542 0
M  V30 1957 C 201.307 2.52798 -2.28705 0
M  V30 1958 H 202.5 0.821279 -2.88435 0
M  V30 1959 H 200.053 0.391831 -1.51309 0
M  V30 1960 H 200.788 2.92381 -1.403 0
M  V30 1961 H 200.573 2.40216 -3.09901 0
M  V30 1962 H 202.063 3.26179 -2.60762 0
M  V30 1963 N 202.5 1.5196 0.417844 0
M  V30 1964 C 203.463 1.74065 1.49111 0
M  V30 1965 C 204.463 0.610537 1.48758 0
M  V30 1966 O 205.653 0.87832 1.50437 0
M  V30 1967 C 202.785 1.81502 2.88565 0
M  V30 1968 H 203.978 2.69869 1.30807 0
M  V30 1969 H 201.531 1.42244 0.647785 0
M  V30 1970 H 202.266 0.875813 3.1225 0
M  V30 1971 H 202.051 2.63651 2.90225 0
M  V30 1972 H 203.541 2.00376 3.66387 0
M  V30 1973 N 203.978 -0.674533 1.42435 0
M  V30 1974 C 204.908 -1.80009 1.48724 0
M  V30 1975 C 205.889 -1.6659 0.343793 0
M  V30 1976 O 207.074 -1.86007 0.558137 0
M  V30 1977 C 204.204 -3.18306 1.38919 0
M  V30 1978 C 203.158 -3.46461 2.51294 0
M  V30 1979 C 202.484 -4.84335 2.26547 0
M  V30 1980 C 203.784 -3.43328 3.93603 0
M  V30 1981 H 205.478 -1.75004 2.42928 0
M  V30 1982 H 203.024 -0.840533 1.16923 0
M  V30 1983 H 204.977 -3.9678 1.41927 0
M  V30 1984 H 203.701 -3.2399 0.412094 0
M  V30 1985 H 202.36 -2.70348 2.47604 0
M  V30 1986 H 202.008 -4.86669 1.2713 0
M  V30 1987 H 201.708 -5.04136 3.01861 0
M  V30 1988 H 203.232 -5.65094 2.31304 0
M  V30 1989 H 204.646 -4.11772 3.98894 0
M  V30 1990 H 203.043 -3.74664 4.68771 0
M  V30 1991 H 204.113 -2.41897 4.20255 0
M  V30 1992 N 205.456 -1.28612 -0.910864 0
M  V30 1993 C 206.386 -1.15326 -2.03032 0
M  V30 1994 C 207.367 -0.0502924 -1.70026 0
M  V30 1995 O 208.552 -0.227797 -1.92859 0
M  V30 1996 C 205.682 -0.817343 -3.37545 0
M  V30 1997 C 204.636 -1.8754 -3.84724 0
M  V30 1998 C 203.962 -1.39305 -5.16235 0
M  V30 1999 C 205.262 -3.28244 -4.06267 0
M  V30 2000 H 206.956 -2.08975 -2.14406 0
M  V30 2001 H 204.502 -1.00612 -1.03021 0
M  V30 2002 H 206.455 -0.711151 -4.15356 0
M  V30 2003 H 205.179 0.154846 -3.26233 0
M  V30 2004 H 203.838 -1.97079 -3.09121 0
M  V30 2005 H 203.486 -0.409846 -5.01328 0
M  V30 2006 H 203.186 -2.10057 -5.48771 0
M  V30 2007 H 204.71 -1.30014 -5.96598 0
M  V30 2008 H 206.124 -3.21611 -4.74594 0
M  V30 2009 H 204.521 -3.96855 -4.5014 0
M  V30 2010 H 205.591 -3.72048 -3.10979 0
M  V30 2011 N 206.934 1.1197 -1.10907 0
M  V30 2012 C 207.897 2.16031 -0.765707 0
M  V30 2013 C 208.897 1.59393 0.212235 0
M  V30 2014 O 210.087 1.74196 -0.0115441 0
M  V30 2015 C 207.219 3.40632 -0.135053 0
M  V30 2016 H 208.412 2.47919 -1.68748 0
M  V30 2017 H 205.965 1.27061 -0.910226 0
M  V30 2018 H 206.7 3.14348 0.797218 0
M  V30 2019 H 206.485 3.8302 -0.838937 0
M  V30 2020 H 207.975 4.17505 0.0892469 0
M  V30 2021 N 208.412 0.89855 1.29475 0
M  V30 2022 C 209.66 0.522847 1.9522 0
M  V30 2023 C 209.981 -0.93371 1.71192 0
M  V30 2024 O 209.251 -1.65823 1.04305 0
M  V30 2025 H 207.831 0.190366 0.722336 0
M  V30 2026 H 210.493 1.14459 1.5775 0
M  V30 2027 H 209.589 0.704476 3.04045 0
M  V30 2028 N 209.89 -1.43072 0.660911 0
M  V30 2029 C 210.8 -2.34585 -0.0264163 0
M  V30 2030 C 211.816 -1.54316 -0.803898 0
M  V30 2031 O 212.992 -1.86939 -0.749391 0
M  V30 2032 C 210.057 -3.32689 -0.975639 0
M  V30 2033 C 209.118 -4.2886 -0.194236 0
M  V30 2034 C 208.351 -5.22278 -1.09825 0
M  V30 2035 O 208.574 -5.20299 -2.33763 0
M  V30 2036 O 207.508 -5.99228 -0.566513 0
M  V30 2037 H 211.334 -2.94869 0.727034 0
M  V30 2038 H 208.919 -1.43342 0.42111 0
M  V30 2039 H 210.801 -3.92995 -1.52094 0
M  V30 2040 H 209.476 -2.74898 -1.70918 0
M  V30 2041 H 208.383 -3.72011 0.394835 0
M  V30 2042 H 209.716 -4.89655 0.499899 0
M  V30 2043 N 211.368 -0.403325 -1.52352 0
M  V30 2044 C 212.616 0.174003 -2.0135 0
M  V30 2045 C 212.937 1.46139 -1.29106 0
M  V30 2046 O 212.207 1.91448 -0.415253 0
M  V30 2047 H 210.787 0.0672911 -0.743963 0
M  V30 2048 H 213.449 -0.538235 -1.87321 0
M  V30 2049 H 212.545 0.374254 -3.09848 0
M  V30 2050 N 212.846 1.57033 -0.133567 0
M  V30 2051 C 213.809 2.14897 0.796995 0
M  V30 2052 C 214.809 1.0874 1.18458 0
M  V30 2053 O 215.999 1.34446 1.1077 0
M  V30 2054 C 213.131 2.70112 2.07973 0
M  V30 2055 H 214.324 2.98457 0.293873 0
M  V30 2056 H 211.877 1.55871 0.115787 0
M  V30 2057 H 212.612 1.9018 2.62682 0
M  V30 2058 H 212.397 3.47764 1.81115 0
M  V30 2059 H 213.887 3.14738 2.74462 0
M  V30 2060 N 214.325 -0.140222 1.56975 0
M  V30 2061 C 215.235 -1.19223 2.02047 0
M  V30 2062 C 216.251 -1.46612 0.937062 0
M  V30 2063 O 217.427 -1.58148 1.24704 0
M  V30 2064 C 214.492 -2.50414 2.39778 0
M  V30 2065 C 213.553 -2.30612 3.621 0
M  V30 2066 C 212.786 -3.55547 3.98023 0
M  V30 2067 O 213.009 -4.62004 3.34528 0
M  V30 2068 O 211.943 -3.47808 4.91237 0
M  V30 2069 H 215.769 -0.839559 2.91865 0
M  V30 2070 H 213.354 -0.349453 1.45256 0
M  V30 2071 H 215.236 -3.27747 2.64877 0
M  V30 2072 H 213.911 -2.85198 1.53114 0
M  V30 2073 H 212.818 -1.51207 3.4218 0
M  V30 2074 H 214.151 -2.00741 4.49404 0
M  V30 2075 N 215.803 -1.52179 -0.40978 0
M  V30 2076 C 217.049 -1.66453 -1.15851 0
M  V30 2077 C 217.382 -0.392972 -1.90182 0
M  V30 2078 O 216.657 0.608579 -1.84734 0
M  V30 2079 C 216.94 -2.88612 -2.15349 0
M  V30 2080 C 216.793 -4.25815 -1.44918 0
M  V30 2081 C 218.112 -3.06294 -3.16026 0
M  V30 2082 H 215.231 -0.60575 -0.419805 0
M  V30 2083 H 217.873 -1.84732 -0.444314 0
M  V30 2084 H 216.023 -2.73158 -2.76255 0
M  V30 2085 H 217.695 -4.52995 -0.871365 0
M  V30 2086 H 215.938 -4.27247 -0.751159 0
M  V30 2087 H 216.609 -5.07337 -2.17516 0
M  V30 2088 H 219.085 -3.20641 -2.65195 0
M  V30 2089 H 217.961 -3.93283 -3.8291 0
M  V30 2090 H 218.222 -2.19579 -3.83715 0
M  V30 2091 N 217.281 0.66697 -1.42791 0
M  V30 2092 C 218.527 1.4291 -1.43891 0
M  V30 2093 C 218.86 1.94114 -0.0578972 0
M  V30 2094 O 218.135 1.71414 0.91911 0
M  V30 2095 C 218.418 2.62049 -2.46987 0
M  V30 2096 C 218.271 2.16426 -3.94309 0
M  V30 2097 C 219.59 3.64266 -2.46978 0
M  V30 2098 H 216.709 0.518306 -0.523954 0
M  V30 2099 H 219.351 0.757321 -1.74255 0
M  V30 2100 H 217.501 3.19361 -2.21225 0
M  V30 2101 H 219.173 1.64221 -4.31079 0
M  V30 2102 H 217.416 1.47925 -4.078 0
M  V30 2103 H 218.087 3.02038 -4.62036 0
M  V30 2104 H 220.563 3.16686 -2.69906 0
M  V30 2105 H 219.439 4.45196 -3.21079 0
M  V30 2106 H 219.7 4.15927 -1.49857 0
M  V30 2107 N 218.759 1.29093 0.90403 0
M  V30 2108 C 219.689 1.16401 2.02418 0
M  V30 2109 C 220.67 0.0593085 1.69997 0
M  V30 2110 O 221.855 0.238021 1.92736 0
M  V30 2111 C 218.985 0.835233 3.37107 0
M  V30 2112 C 217.939 1.89578 3.83724 0
M  V30 2113 C 217.265 1.42041 5.15489 0
M  V30 2114 C 218.565 3.30394 4.04521 0
M  V30 2115 H 220.259 2.10109 2.13295 0
M  V30 2116 H 217.805 1.01157 1.02486 0
M  V30 2117 H 219.758 0.733169 4.14973 0
M  V30 2118 H 218.482 -0.137543 3.2631 0
M  V30 2119 H 217.141 1.98715 3.08071 0
M  V30 2120 H 216.789 0.436426 5.01103 0
M  V30 2121 H 216.489 2.12964 5.4765 0
M  V30 2122 H 218.013 1.33176 5.959 0
M  V30 2123 H 219.427 3.24123 4.72882 0
M  V30 2124 H 217.824 3.99237 4.48029 0
M  V30 2125 H 218.894 3.73692 3.09002 0
M  V30 2126 N 220.237 -1.11381 1.11499 0
M  V30 2127 C 221.477 -1.84763 0.874188 0
M  V30 2128 C 221.841 -1.82726 -0.589496 0
M  V30 2129 O 223.042 -2.51562 -0.947089 0
M  V30 2130 C 221.313 -3.27931 1.42112 0
M  V30 2131 S 222.872 -4.18557 1.31739 0
M  V30 2132 H 219.69 -0.637115 0.315603 0
M  V30 2133 H 222.292 -1.34097 1.42261 0
M  V30 2134 H 220.996 -3.26978 2.48019 0
M  V30 2135 H 220.527 -3.83665 0.869761 0
M  V30 2136 H 222.542 -4.95396 0.282335 0
M  V30 2137 N 221.715 -0.905404 -1.28997 0
M  V30 2138 C 222.963 -0.533192 -1.9494 0
M  V30 2139 C 223.284 0.924618 -1.71685 0
M  V30 2140 O 222.554 1.65268 -1.05183 0
M  V30 2141 H 221.134 -0.194194 -0.721317 0
M  V30 2142 H 223.796 -1.15294 -1.57141 0
M  V30 2143 H 222.892 -0.72059 -3.03667 0
M  V30 2144 N 223.193 1.4272 -0.668489 0
M  V30 2145 C 224.609 1.55992 -0.33745 0
M  V30 2146 C 224.809 1.64933 1.15756 0
M  V30 2147 O 223.865 1.61278 1.94282 0
M  V30 2148 C 225.178 2.81314 -1.06222 0
M  V30 2149 C 226.726 2.95078 -1.04394 0
M  V30 2150 C 227.201 4.23252 -1.74991 0
M  V30 2151 N 228.692 4.3015 -1.71829 0
M  V30 2152 C 229.427 5.28127 -2.23315 0
M  V30 2153 N 228.923 6.32293 -2.83156 0
M  V30 2154 N 230.716 5.19882 -2.13726 0
M  V30 2155 H 222.867 1.3516 -1.63846 0
M  V30 2156 H 225.13 0.650174 -0.689912 0
M  V30 2157 H 224.836 2.80823 -2.11734 0
M  V30 2158 H 224.71 3.72012 -0.62344 0
M  V30 2159 H 227.097 2.951 0.0028244 0
M  V30 2160 H 227.178 2.05627 -1.52155 0
M  V30 2161 H 226.822 4.2399 -2.79633 0
M  V30 2162 H 226.752 5.11626 -1.24685 0
M  V30 2163 H 229.243 3.55499 -1.28175 0
M  V30 2164 H 229.556 7.03398 -3.20079 0
M  V30 2165 H 227.901 6.32873 -2.87223 0
M  V30 2166 H 231.092 4.37423 -1.66669 0
M  V30 2167 H 231.265 5.96077 -2.54158 0
M  V30 2168 N 224.671 0.411399 1.52136 0
M  V30 2169 C 225.618 -0.412975 2.27075 0
M  V30 2170 C 226.588 -1.03912 1.29582 0
M  V30 2171 O 227.773 -1.06296 1.58448 0
M  V30 2172 C 224.913 -1.52247 3.09701 0
M  V30 2173 C 224.026 -0.917021 4.22155 0
M  V30 2174 C 223.161 -1.9994 4.92135 0
M  V30 2175 C 222.2 -1.37101 5.96548 0
M  V30 2176 N 221.337 -2.39364 6.60038 0
M  V30 2177 H 226.177 0.232499 2.97092 0
M  V30 2178 H 223.714 0.126496 1.46555 0
M  V30 2179 H 225.672 -2.17674 3.55913 0
M  V30 2180 H 224.302 -2.13794 2.41851 0
M  V30 2181 H 223.354 -0.151742 3.80097 0
M  V30 2182 H 224.666 -0.418006 4.97045 0
M  V30 2183 H 223.82 -2.73088 5.41763 0
M  V30 2184 H 222.559 -2.53208 4.16818 0
M  V30 2185 H 221.564 -0.624873 5.46237 0
M  V30 2186 H 222.789 -0.845998 6.7381 0
M  V30 2187 H 220.735 -2.91759 5.87548 0
M  V30 2188 H 220.652 -1.9428 7.3061 0
M  V30 2189 H 221.92 -3.12074 7.14304 0
M  V30 2190 N 226.149 -1.5696 0.141893 0
M  V30 2191 C 227.079 -2.19516 -0.795936 0
M  V30 2192 C 228.06 -1.14187 -1.26077 0
M  V30 2193 O 229.245 -1.42511 -1.31925 0
M  V30 2194 C 226.375 -2.81272 -2.03723 0
M  V30 2195 C 225.329 -3.92384 -1.70936 0
M  V30 2196 C 224.655 -4.41052 -3.02287 0
M  V30 2197 C 225.955 -5.13403 -0.959954 0
M  V30 2198 H 227.649 -2.98138 -0.274596 0
M  V30 2199 H 225.195 -1.43406 -0.130636 0
M  V30 2200 H 227.148 -3.237 -2.69808 0
M  V30 2201 H 225.872 -1.99973 -2.58221 0
M  V30 2202 H 224.531 -3.50566 -1.07232 0
M  V30 2203 H 224.179 -3.56582 -3.54765 0
M  V30 2204 H 223.879 -5.15993 -2.81114 0
M  V30 2205 H 225.403 -4.86146 -3.69451 0
M  V30 2206 H 226.817 -5.52706 -1.52279 0
M  V30 2207 H 225.214 -5.94073 -0.848357 0
M  V30 2208 H 226.284 -4.84875 0.0492434 0
M  V30 2209 N 227.627 0.131896 -1.57047 0
M  V30 2210 C 228.904 0.871495 -1.75112 0
M  V30 2211 C 229.284 1.9866 -0.713949 0
M  V30 2212 O 228.632 2.26965 0.264447 0
M  V30 2213 C 228.842 1.40007 -3.19686 0
M  V30 2214 C 230.19 1.85752 -3.81813 0
M  V30 2215 O 231.214 1.49715 -3.23209 0
M  V30 2216 O 230.073 2.5226 -4.84796 0
M  V30 2217 H 227.167 0.412919 -0.716538 0
M  V30 2218 H 229.713 0.116641 -1.69299 0
M  V30 2219 H 228.485 0.599404 -3.86682 0
M  V30 2220 H 228.108 2.218 -3.29986 0
M  V30 2221 N 229.106 1.52395 0.401703 0
M  V30 2222 C 230.053 1.76268 1.48991 0
M  V30 2223 C 231.023 0.605386 1.54675 0
M  V30 2224 O 232.208 0.843742 1.7113 0
M  V30 2225 C 229.348 1.92592 2.86361 0
M  V30 2226 C 228.461 3.20259 2.89928 0
M  V30 2227 C 227.596 3.26972 4.18644 0
M  V30 2228 C 226.635 4.48812 4.16214 0
M  V30 2229 N 225.772 4.52877 5.36514 0
M  V30 2230 H 230.612 2.6914 1.27935 0
M  V30 2231 H 228.149 1.33355 0.620871 0
M  V30 2232 H 230.107 2.0004 3.66115 0
M  V30 2233 H 228.737 1.03093 3.05895 0
M  V30 2234 H 227.789 3.21945 2.02621 0
M  V30 2235 H 229.101 4.10056 2.83999 0
M  V30 2236 H 228.255 3.33533 5.06794 0
M  V30 2237 H 226.994 2.35126 4.27278 0
M  V30 2238 H 225.999 4.4239 3.26453 0
M  V30 2239 H 227.224 5.41961 4.09213 0
M  V30 2240 H 225.17 3.63917 5.45802 0
M  V30 2241 H 225.087 5.36529 5.32609 0
M  V30 2242 H 226.355 4.63676 6.26597 0
M  V30 2243 N 230.584 -0.659388 1.43143 0
M  V30 2244 C 231.547 -1.75432 1.47501 0
M  V30 2245 C 232.547 -1.56707 0.360512 0
M  V30 2246 O 233.737 -1.62717 0.622002 0
M  V30 2247 C 230.869 -3.14239 1.32162 0
M  V30 2248 H 232.062 -1.7295 2.45006 0
M  V30 2249 H 229.615 -0.870469 1.29817 0
M  V30 2250 H 230.35 -3.22336 0.356401 0
M  V30 2251 H 230.135 -3.29235 2.12948 0
M  V30 2252 H 231.625 -3.94094 1.3813 0
M  V30 2253 N 232.062 -1.29571 -0.897171 0
M  V30 2254 C 232.994 -1.10724 -2.00681 0
M  V30 2255 C 234.007 -0.0540026 -1.6271 0
M  V30 2256 O 235.196 -0.298783 -1.75982 0
M  V30 2257 C 232.296 -0.663912 -3.32333 0
M  V30 2258 C 231.469 -1.79622 -3.98816 0
M  V30 2259 C 230.528 -1.34349 -5.0876 0
M  V30 2260 O 229.554 -2.04864 -5.31055 0
M  V30 2261 N 230.756 -0.215764 -5.80099 0
M  V30 2262 H 233.521 -2.06291 -2.17403 0
M  V30 2263 H 231.082 -1.21544 -1.06951 0
M  V30 2264 H 233.074 -0.344295 -4.03233 0
M  V30 2265 H 231.644 0.199375 -3.11964 0
M  V30 2266 H 230.864 -2.28459 -3.21248 0
M  V30 2267 H 232.152 -2.55535 -4.39976 0
M  V30 2268 H 231.55 0.372091 -5.64475 0
M  V30 2269 H 230.107 0.0444707 -6.51785 0
M  V30 2270 N 233.54 1.10788 -1.12088 0
M  V30 2271 C 234.503 2.15207 -0.788577 0
M  V30 2272 C 235.503 1.59609 0.195317 0
M  V30 2273 O 236.693 1.74174 -0.0300193 0
M  V30 2274 C 233.825 3.4047 -0.171174 0
M  V30 2275 H 235.018 2.46116 -1.71368 0
M  V30 2276 H 232.571 1.26089 -0.923652 0
M  V30 2277 H 233.306 3.15176 0.763832 0
M  V30 2278 H 233.091 3.82109 -0.879514 0
M  V30 2279 H 234.581 4.17576 0.04496 0
M  V30 2280 N 235.018 0.912232 1.28515 0
M  V30 2281 C 235.981 0.404223 2.25607 0
M  V30 2282 C 236.981 -0.468602 1.53821 0
M  V30 2283 O 238.171 -0.271873 1.72065 0
M  V30 2284 C 235.303 -0.420653 3.38295 0
M  V30 2285 H 236.496 1.26188 2.7206 0
M  V30 2286 H 234.049 0.691495 1.40171 0
M  V30 2287 H 234.784 -1.29777 2.97201 0
M  V30 2288 H 234.569 0.204935 3.91564 0
M  V30 2289 H 236.059 -0.766971 4.10496 0
M  V30 2290 N 236.496 -1.42363 0.676048 0
M  V30 2291 C 237.459 -2.29199 0.00766941 0
M  V30 2292 C 238.459 -1.43389 -0.727745 0
M  V30 2293 O 239.649 -1.64764 -0.56556 0
M  V30 2294 C 236.781 -3.2591 -0.999785 0
M  V30 2295 H 237.974 -2.89794 0.771988 0
M  V30 2296 H 235.527 -1.50024 0.438468 0
M  V30 2297 H 236.262 -2.70256 -1.79255 0
M  V30 2298 H 236.047 -3.89202 -0.475829 0
M  V30 2299 H 237.537 -3.91028 -1.46583 0
M  V30 2300 N 237.974 -0.419461 -1.51915 0
M  V30 2301 C 239.251 0.211999 -1.94448 0
M  V30 2302 C 239.631 1.61703 -1.35703 0
M  V30 2303 O 238.979 2.22102 -0.536931 0
M  V30 2304 C 239.189 0.207872 -3.4838 0
M  V30 2305 C 240.537 0.422192 -4.22496 0
M  V30 2306 O 241.561 0.286778 -3.55044 0
M  V30 2307 O 240.42 0.690009 -5.42126 0
M  V30 2308 H 237.514 0.139586 -0.815135 0
M  V30 2309 H 240.06 -0.476151 -1.62883 0
M  V30 2310 H 238.832 -0.775102 -3.83546 0
M  V30 2311 H 238.455 0.939688 -3.86336 0
M  V30 2312 N 239.452 1.56882 -0.150215 0
M  V30 2313 C 240.677 2.01027 0.510184 0
M  V30 2314 C 241.102 1.02966 1.57415 0
M  V30 2315 O 240.46 0.00590158 1.81299 0
M  V30 2316 C 240.508 3.43899 1.08472 0
M  V30 2317 O 239.612 3.4885 2.19948 0
M  V30 2318 H 238.953 0.652233 0.124451 0
M  V30 2319 H 241.483 2.03093 -0.247894 0
M  V30 2320 H 241.493 3.82766 1.41259 0
M  V30 2321 H 240.168 4.14776 0.305582 0
M  V30 2322 H 238.745 3.21827 1.88366 0
M  V30 2323 N 240.93 -0.123565 1.57115 0
M  V30 2324 C 242.176 -0.833386 1.84885 0
M  V30 2325 C 242.509 -1.79742 0.735292 0
M  V30 2326 O 241.784 -1.92764 -0.25925 0
M  V30 2327 C 242.067 -1.5873 3.23228 0
M  V30 2328 C 241.92 -0.643183 4.45178 0
M  V30 2329 C 243.239 -2.54453 3.59085 0
M  V30 2330 H 240.358 -0.301518 0.6725 0
M  V30 2331 H 243 -0.097778 1.89748 0
M  V30 2332 H 241.15 -2.21438 3.19214 0
M  V30 2333 H 242.822 -0.0253015 4.61293 0
M  V30 2334 H 241.065 0.0456139 4.33776 0
M  V30 2335 H 241.736 -1.20724 5.38637 0
M  V30 2336 H 244.212 -2.01853 3.63861 0
M  V30 2337 H 243.088 -3.04238 4.5687 0
M  V30 2338 H 243.349 -3.36906 2.86264 0
M  V30 2339 N 242.408 -1.52605 -0.393616 0
M  V30 2340 C 243.356 -1.77688 -1.50099 0
M  V30 2341 C 244.35 -0.644615 -1.56656 0
M  V30 2342 O 245.556 -0.826997 -1.59877 0
M  V30 2343 H 241.931 -0.562159 -0.499481 0
M  V30 2344 H 243.902 -2.7043 -1.26135 0
M  V30 2345 C 242.651 -1.95858 -2.87289 0
M  V30 2346 H 241.974 -2.8241 -2.82992 0
M  V30 2347 H 243.414 -2.174 -3.64024 0
M  V30 2348 C 241.873 -0.729848 -3.28899 0
M  V30 2349 O 242.403 0.0949217 -4.01588 0
M  V30 2350 N 240.609 -0.561283 -2.85128 0
M  V30 2351 H 240.156 -1.23357 -2.26143 0
M  V30 2352 H 240.114 0.2595 -3.13327 0
M  V30 2353 N 243.887 0.651787 -1.4349 0
M  V30 2354 C 244.834 1.76462 -1.4876 0
M  V30 2355 C 245.804 1.62641 -0.337189 0
M  V30 2356 O 246.989 1.82864 -0.544544 0
M  V30 2357 C 244.129 3.14623 -1.41796 0
M  V30 2358 C 243.242 3.39568 -2.67053 0
M  V30 2359 C 242.377 4.67585 -2.52068 0
M  V30 2360 C 241.416 4.85639 -3.72587 0
M  V30 2361 N 240.553 6.04915 -3.56402 0
M  V30 2362 H 245.393 1.71293 -2.43849 0
M  V30 2363 H 242.93 0.835889 -1.21043 0
M  V30 2364 H 244.888 3.94496 -1.35753 0
M  V30 2365 H 243.518 3.18859 -0.50288 0
M  V30 2366 H 242.57 2.53783 -2.8337 0
M  V30 2367 H 243.882 3.48795 -3.56572 0
M  V30 2368 H 243.036 5.55586 -2.4374 0
M  V30 2369 H 241.775 4.60681 -1.60075 0
M  V30 2370 H 240.78 3.96073 -3.81321 0
M  V30 2371 H 242.005 4.94372 -4.65589 0
M  V30 2372 H 239.951 5.9914 -2.67146 0
M  V30 2373 H 239.868 6.15106 -4.39524 0
M  V30 2374 H 241.136 6.95533 -3.51929 0
M  V30 2375 N 245.365 1.30045 0.890287 0
M  V30 2376 C 246.781 1.08261 1.17268 0
M  V30 2377 C 246.981 -0.160063 2.00863 0
M  V30 2378 O 246.037 -0.855181 2.37577 0
M  V30 2379 C 247.35 2.34323 1.8845 0
M  V30 2380 C 248.898 2.39735 2.01237 0
M  V30 2381 C 249.373 3.65625 2.7583 0
M  V30 2382 N 250.864 3.66402 2.83379 0
M  V30 2383 C 251.599 4.60498 3.41657 0
M  V30 2384 N 251.095 5.64933 4.01026 0
M  V30 2385 N 252.888 4.48051 3.39421 0
M  V30 2386 H 245.039 2.09777 0.332762 0
M  V30 2387 H 247.302 0.92446 0.209948 0
M  V30 2388 H 247.008 3.2498 1.34465 0
M  V30 2389 H 246.882 2.4256 2.88867 0
M  V30 2390 H 249.269 1.4956 2.54393 0
M  V30 2391 H 249.35 2.35476 0.999232 0
M  V30 2392 H 248.994 4.56156 2.23347 0
M  V30 2393 H 248.924 3.67144 3.77509 0
M  V30 2394 H 251.415 2.90896 2.41222 0
M  V30 2395 H 251.728 6.32841 4.43545 0
M  V30 2396 H 250.073 5.68732 3.99461 0
M  V30 2397 H 253.264 3.65649 2.92264 0
M  V30 2398 H 253.437 5.21565 3.84544 0
M  V30 2399 N 246.843 -1.10192 1.12674 0
M  V30 2400 C 248.09 -1.82205 0.883606 0
M  V30 2401 C 248.418 -1.8532 -0.590492 0
M  V30 2402 O 247.673 -1.31137 -1.45264 0
M  V30 2403 C 247.972 -3.28552 1.4067 0
M  V30 2404 C 247.638 -3.45582 2.89627 0
M  V30 2405 C 246.3 -3.49937 3.30299 0
M  V30 2406 C 248.652 -3.50768 3.85501 0
M  V30 2407 C 245.98 -3.57049 4.65546 0
M  V30 2408 C 248.332 -3.59414 5.20581 0
M  V30 2409 C 246.996 -3.62034 5.60792 0
M  V30 2410 H 246.266 -0.666735 0.323334 0
M  V30 2411 H 248.913 -1.29868 1.40736 0
M  V30 2412 H 247.218 -3.83473 0.80347 0
M  V30 2413 H 248.915 -3.82788 1.19475 0
M  V30 2414 H 245.505 -3.42871 2.57172 0
M  V30 2415 H 249.689 -3.46651 3.55171 0
M  V30 2416 H 244.945 -3.57361 4.96088 0
M  V30 2417 H 249.119 -3.62371 5.94693 0
M  V30 2418 H 246.746 -3.67298 6.6558 0
M  V30 2419 N 248.321 -0.919034 -1.28029 0
M  V30 2420 C 249.268 -0.410005 -2.27129 0
M  V30 2421 C 250.238 0.518405 -1.57803 0
M  V30 2422 O 251.423 0.439451 -1.8567 0
M  V30 2423 C 248.563 0.339054 -3.4343 0
M  V30 2424 C 247.676 -0.622468 -4.27492 0
M  V30 2425 C 246.811 0.145567 -5.31001 0
M  V30 2426 C 245.85 -0.809226 -6.06727 0
M  V30 2427 N 244.987 -0.0743728 -7.02061 0
M  V30 2428 H 249.827 -1.26011 -2.70047 0
M  V30 2429 H 247.364 -0.632663 -1.328 0
M  V30 2430 H 249.322 0.789586 -4.0966 0
M  V30 2431 H 247.952 1.15346 -3.01488 0
M  V30 2432 H 247.004 -1.19153 -3.61257 0
M  V30 2433 H 248.316 -1.35252 -4.80113 0
M  V30 2434 H 247.47 0.656417 -6.03139 0
M  V30 2435 H 246.209 0.908643 -4.79161 0
M  V30 2436 H 245.214 -1.3314 -5.33436 0
M  V30 2437 H 246.439 -1.57194 -6.60656 0
M  V30 2438 H 244.385 0.670616 -6.52563 0
M  V30 2439 H 244.302 -0.744157 -7.52329 0
M  V30 2440 H 245.57 0.416109 -7.78389 0
M  V30 2441 N 249.799 1.42003 -0.683588 0
M  V30 2442 C 251.045 2.01712 -0.209825 0
M  V30 2443 C 251.378 1.53968 1.18353 0
M  V30 2444 O 250.653 0.745661 1.79639 0
M  V30 2445 C 250.936 3.59202 -0.254197 0
M  V30 2446 C 250.789 4.17102 -1.68363 0
M  V30 2447 C 252.108 4.38344 0.392709 0
M  V30 2448 H 249.227 0.732891 -0.0777189 0
M  V30 2449 H 251.869 1.68909 -0.87004 0
M  V30 2450 H 250.019 3.87278 0.307954 0
M  V30 2451 H 251.691 3.99946 -2.29871 0
M  V30 2452 H 249.934 3.72597 -2.22157 0
M  V30 2453 H 250.605 5.26249 -1.6663 0
M  V30 2454 H 253.081 4.16011 -0.0859162 0
M  V30 2455 H 251.957 5.47901 0.331063 0
M  V30 2456 H 252.218 4.16887 1.47164 0
M  V30 2457 N 251.277 0.427512 1.51691 0
M  V30 2458 C 252.225 -0.403359 2.29076 0
M  V30 2459 C 253.219 -1.02962 1.34518 0
M  V30 2460 O 254.425 -0.965715 1.51901 0
M  V30 2461 H 250.8 -0.148879 0.737115 0
M  V30 2462 H 252.771 0.270295 2.97173 0
M  V30 2463 C 251.52 -1.49763 3.13794 0
M  V30 2464 H 250.843 -1.02508 3.86435 0
M  V30 2465 H 252.283 -2.05244 3.71014 0
M  V30 2466 C 250.742 -2.47536 2.28533 0
M  V30 2467 O 251.272 -3.51848 1.93819 0
M  V30 2468 N 249.478 -2.18187 1.91945 0
M  V30 2469 H 249.025 -1.33389 2.20375 0
M  V30 2470 H 248.983 -2.83848 1.35195 0
M  V30 2471 N 252.755 -1.56801 0.158532 0
M  V30 2472 C 254.001 -1.96781 -0.490405 0
M  V30 2473 C 254.334 -1.04397 -1.63753 0
M  V30 2474 O 253.609 -0.0885805 -1.94298 0
M  V30 2475 C 253.892 -3.4635 -0.985594 0
M  V30 2476 C 253.745 -4.49512 0.160824 0
M  V30 2477 C 255.064 -3.98697 -1.86355 0
M  V30 2478 H 252.183 -0.715482 -0.176788 0
M  V30 2479 H 254.825 -1.88451 0.242088 0
M  V30 2480 H 252.975 -3.53579 -1.60978 0
M  V30 2481 H 254.647 -4.54353 0.797537 0
M  V30 2482 H 252.89 -4.26013 0.818256 0
M  V30 2483 H 253.561 -5.51531 -0.227569 0
M  V30 2484 H 256.037 -3.94019 -1.33746 0
M  V30 2485 H 254.913 -5.03792 -2.17909 0
M  V30 2486 H 255.174 -3.41744 -2.8047 0
M  V30 2487 N 254.233 0.115231 -1.57178 0
M  V30 2488 C 255.461 0.836437 -1.89239 0
M  V30 2489 C 255.876 1.73256 -0.750175 0
M  V30 2490 O 255.233 1.80357 0.278832 0
M  V30 2491 C 255.284 1.66671 -3.20785 0
M  V30 2492 O 255.005 0.806652 -4.3061 0
M  V30 2493 C 256.506 2.49274 -3.66575 0
M  V30 2494 H 253.726 0.240253 -0.626514 0
M  V30 2495 H 256.27 0.0984932 -2.04263 0
M  V30 2496 H 254.425 2.35737 -3.0742 0
M  V30 2497 H 254.839 1.37969 -5.06028 0
M  V30 2498 H 256.313 3.03055 -4.6137 0
M  V30 2499 H 256.79 3.26807 -2.93417 0
M  V30 2500 H 257.396 1.85443 -3.82741 0
M  V30 2501 N 255.711 1.52812 0.385517 0
M  V30 2502 C 256.674 1.77188 1.45386 0
M  V30 2503 C 257.674 0.641953 1.4743 0
M  V30 2504 O 258.864 0.910033 1.4854 0
M  V30 2505 C 255.996 1.87582 2.8465 0
M  V30 2506 H 257.189 2.72583 1.25054 0
M  V30 2507 H 254.742 1.43586 0.617467 0
M  V30 2508 H 255.477 0.941849 3.10322 0
M  V30 2509 H 255.262 2.69748 2.84567 0
M  V30 2510 H 256.752 2.08102 3.62054 0
M  V30 2511 N 257.189 -0.644168 1.43834 0
M  V30 2512 C 258.152 -1.73857 1.49353 0
M  V30 2513 C 259.152 -1.56315 0.377112 0
M  V30 2514 O 260.342 -1.62048 0.639226 0
M  V30 2515 C 257.474 -3.12819 1.35488 0
M  V30 2516 H 258.667 -1.70342 2.46827 0
M  V30 2517 H 256.22 -0.856652 1.30733 0
M  V30 2518 H 256.955 -3.2194 0.390569 0
M  V30 2519 H 256.74 -3.26958 2.16428 0
M  V30 2520 H 258.23 -3.92606 1.42302 0
M  V30 2521 N 258.668 -1.30515 -0.883378 0
M  V30 2522 C 259.578 -1.18959 -2.02203 0
M  V30 2523 C 260.594 -0.109172 -1.73657 0
M  V30 2524 O 261.77 -0.324413 -1.9877 0
M  V30 2525 C 258.835 -0.883871 -3.35244 0
M  V30 2526 C 257.896 -2.04982 -3.77201 0
M  V30 2527 C 257.129 -1.75859 -5.03894 0
M  V30 2528 O 257.352 -0.687276 -5.66244 0
M  V30 2529 O 256.286 -2.61146 -5.42297 0
M  V30 2530 H 260.112 -2.14616 -2.1488 0
M  V30 2531 H 257.697 -1.10124 -1.0096 0
M  V30 2532 H 259.579 -0.728644 -4.15053 0
M  V30 2533 H 258.254 0.0427798 -3.23672 0
M  V30 2534 H 257.161 -2.26038 -2.9809 0
M  V30 2535 H 258.494 -2.95825 -3.93381 0
M  V30 2536 N 260.146 1.09593 -1.13257 0
M  V30 2537 C 261.374 1.855 -0.916378 0
M  V30 2538 C 261.789 1.81069 0.534738 0
M  V30 2539 O 261.146 1.20562 1.37007 0
M  V30 2540 C 261.197 3.33546 -1.39388 0
M  V30 2541 O 260.918 3.37927 -2.78813 0
M  V30 2542 C 262.419 4.26299 -1.21588 0
M  V30 2543 H 259.639 0.585991 -0.326887 0
M  V30 2544 H 262.183 1.38488 -1.5047 0
M  V30 2545 H 260.338 3.77992 -0.848597 0
M  V30 2546 H 260.752 4.30254 -2.9997 0
M  V30 2547 H 262.226 5.28341 -1.59876 0
M  V30 2548 H 262.703 4.38918 -0.157376 0
M  V30 2549 H 263.309 3.87668 -1.7491 0
M  V30 2550 N 261.624 0.925811 1.2754 0
M  V30 2551 C 262.587 0.428129 2.25166 0
M  V30 2552 C 263.587 -0.452261 1.54309 0
M  V30 2553 O 264.777 -0.253608 1.72344 0
M  V30 2554 C 261.909 -0.384749 3.38722 0
M  V30 2555 H 263.102 1.29066 2.70706 0
M  V30 2556 H 260.655 0.706323 1.3943 0
M  V30 2557 H 261.39 -1.26618 2.98561 0
M  V30 2558 H 261.175 0.246454 3.91325 0
M  V30 2559 H 262.665 -0.723389 4.11287 0
M  V30 2560 N 263.102 -1.41638 0.69111 0
M  V30 2561 C 264.379 -1.95036 0.148421 0
M  V30 2562 C 264.759 -1.63072 -1.34055 0
M  V30 2563 O 264.107 -0.93538 -2.08478 0
M  V30 2564 C 264.317 -3.46279 0.434951 0
M  V30 2565 C 265.665 -4.23069 0.360275 0
M  V30 2566 O 266.689 -3.54277 0.369613 0
M  V30 2567 O 265.548 -5.45583 0.316534 0
M  V30 2568 H 262.642 -0.826908 0.0123654 0
M  V30 2569 H 265.188 -1.5138 0.766963 0
M  V30 2570 H 263.96 -3.6281 1.46576 0
M  V30 2571 H 263.583 -3.97019 -0.214787 0
M  V30 2572 N 264.58 -0.43555 -1.51462 0
M  V30 2573 C 265.857 0.191364 -1.94662 0
M  V30 2574 C 266.237 1.60254 -1.37411 0
M  V30 2575 O 265.585 2.2152 -0.560458 0
M  V30 2576 C 265.795 0.17091 -3.48581 0
M  V30 2577 C 267.143 0.377357 -4.2292 0
M  V30 2578 O 268.167 0.249104 -3.55328 0
M  V30 2579 O 267.026 0.63247 -5.42828 0
M  V30 2580 H 264.12 0.130932 -0.816569 0
M  V30 2581 H 266.666 -0.4934 -1.62369 0
M  V30 2582 H 265.438 -0.815738 -3.82703 0
M  V30 2583 H 265.061 0.898659 -3.87311 0
M  V30 2584 N 266.058 1.56714 -0.166846 0
M  V30 2585 C 267.021 2.16539 0.751232 0
M  V30 2586 C 268.021 1.11228 1.16125 0
M  V30 2587 O 269.211 1.36765 1.07894 0
M  V30 2588 C 266.343 2.74462 2.02196 0
M  V30 2589 H 267.536 2.99013 0.230499 0
M  V30 2590 H 265.089 1.56081 0.0826982 0
M  V30 2591 H 265.824 1.95709 2.58589 0
M  V30 2592 H 265.609 3.51527 1.73698 0
M  V30 2593 H 267.099 3.20489 2.67725 0
M  V30 2594 N 267.536 -0.106894 1.57237 0
M  V30 2595 C 268.761 -0.830287 1.90055 0
M  V30 2596 C 269.186 -1.72064 0.75998 0
M  V30 2597 O 268.544 -1.78982 -0.288991 0
M  V30 2598 C 268.592 -1.6295 3.21683 0
M  V30 2599 O 267.696 -2.73748 3.08441 0
M  V30 2600 H 267.037 -0.228855 0.623315 0
M  V30 2601 H 269.567 -0.085658 2.04421 0
M  V30 2602 H 269.577 -2.01621 3.54701 0
M  V30 2603 H 268.252 -0.975989 4.04286 0
M  V30 2604 H 266.829 -2.38192 2.86913 0
M  V30 2605 N 269.014 -1.53014 -0.377408 0
M  V30 2606 C 270.43 -1.42523 -0.718281 0
M  V30 2607 C 270.63 -0.55487 -1.9371 0
M  V30 2608 O 269.686 -0.0327593 -2.52479 0
M  V30 2609 C 270.999 -2.85546 -0.942539 0
M  V30 2610 C 272.547 -2.95101 -1.04329 0
M  V30 2611 C 273.022 -4.3916 -1.3001 0
M  V30 2612 N 274.513 -4.42536 -1.36806 0
M  V30 2613 C 275.248 -5.51097 -1.58364 0
M  V30 2614 N 274.744 -6.69724 -1.77317 0
M  V30 2615 N 276.537 -5.38657 -1.60638 0
M  V30 2616 H 268.688 -2.08116 0.424426 0
M  V30 2617 H 270.951 -0.939352 0.127759 0
M  V30 2618 H 270.657 -3.51499 -0.118929 0
M  V30 2619 H 270.531 -3.28493 -1.85397 0
M  V30 2620 H 272.918 -2.29309 -1.85745 0
M  V30 2621 H 272.999 -2.55566 -0.109505 0
M  V30 2622 H 272.643 -5.05521 -0.490991 0
M  V30 2623 H 272.573 -4.76258 -2.24691 0
M  V30 2624 H 275.064 -3.57039 -1.23821 0
M  V30 2625 H 275.377 -7.48233 -1.93306 0
M  V30 2626 H 273.722 -6.72732 -1.74518 0
M  V30 2627 H 276.913 -4.44948 -1.45391 0
M  V30 2628 H 277.086 -6.2333 -1.77098 0
M  V30 2629 N 270.492 0.636531 -1.44174 0
M  V30 2630 C 271.455 1.73063 -1.50273 0
M  V30 2631 C 272.455 1.56113 -0.385397 0
M  V30 2632 O 273.645 1.61707 -0.64781 0
M  V30 2633 C 270.777 3.12096 -1.37145 0
M  V30 2634 H 271.97 1.69031 -2.47727 0
M  V30 2635 H 269.523 0.849706 -1.31186 0
M  V30 2636 H 270.258 3.21728 -0.407636 0
M  V30 2637 H 270.043 3.25805 -2.18159 0
M  V30 2638 H 271.533 3.91846 -1.44382 0
M  V30 2639 N 271.97 1.30982 0.876444 0
M  V30 2640 C 272.88 1.2003 2.01569 0
M  V30 2641 C 273.896 0.11838 1.73597 0
M  V30 2642 O 275.072 0.33495 1.98595 0
M  V30 2643 C 272.137 0.901637 3.34771 0
M  V30 2644 C 271.198 2.06979 3.76109 0
M  V30 2645 C 270.431 1.78529 5.02954 0
M  V30 2646 O 270.654 0.717296 5.65872 0
M  V30 2647 O 269.588 2.64019 5.40905 0
M  V30 2648 H 273.414 2.15753 2.13739 0
M  V30 2649 H 270.999 1.10658 1.00375 0
M  V30 2650 H 272.881 0.750645 4.1466 0
M  V30 2651 H 271.556 -0.0256141 3.2369 0
M  V30 2652 H 270.463 2.27616 2.96887 0
M  V30 2653 H 271.796 2.97907 3.91807 0
M  V30 2654 N 273.449 -1.08991 1.13837 0
M  V30 2655 C 274.412 -2.13925 0.822715 0
M  V30 2656 C 275.412 -1.599 -0.1699 0
M  V30 2657 O 276.602 -1.74104 0.0577251 0
M  V30 2658 C 273.734 -3.40155 0.225318 0
M  V30 2659 H 274.927 -2.43358 1.75262 0
M  V30 2660 H 272.48 -1.24603 0.943594 0
M  V30 2661 H 273.215 -3.16352 -0.713594 0
M  V30 2662 H 273 -3.80661 0.940193 0
M  V30 2663 H 274.49 -4.17594 0.0214784 0
M  V30 2664 N 274.927 -0.932562 -1.27047 0
M  V30 2665 C 276.173 -0.576412 -1.94436 0
M  V30 2666 C 276.506 0.880891 -1.73072 0
M  V30 2667 O 275.781 1.62905 -1.06264 0
M  V30 2668 C 276.064 -0.909031 -3.48437 0
M  V30 2669 C 275.917 -2.42044 -3.79123 0
M  V30 2670 C 277.236 -0.418341 -4.38107 0
M  V30 2671 H 274.355 -0.210888 -0.706184 0
M  V30 2672 H 276.997 -1.16522 -1.50075 0
M  V30 2673 H 275.147 -0.407947 -3.86352 0
M  V30 2674 H 276.819 -2.99359 -3.50973 0
M  V30 2675 H 275.062 -2.86758 -3.25503 0
M  V30 2676 H 275.733 -2.6037 -4.86736 0
M  V30 2677 H 278.209 -0.847856 -4.0737 0
M  V30 2678 H 277.085 -0.679981 -5.44672 0
M  V30 2679 H 277.346 0.681642 -4.36814 0
M  V30 2680 N 276.405 1.4127 -0.698611 0
M  V30 2681 C 277.352 2.30773 -0.0352094 0
M  V30 2682 C 278.322 1.47273 0.768111 0
M  V30 2683 O 279.507 1.76053 0.735524 0
M  V30 2684 C 276.647 3.33346 0.893 0
M  V30 2685 C 275.76 4.31924 0.0809695 0
M  V30 2686 C 274.895 5.21566 1.0071 0
M  V30 2687 C 273.934 6.11811 0.188155 0
M  V30 2688 N 273.071 6.93926 1.06825 0
M  V30 2689 H 277.911 2.86943 -0.804207 0
M  V30 2690 H 275.448 1.4132 -0.408294 0
M  V30 2691 H 277.406 3.91368 1.44523 0
M  V30 2692 H 276.036 2.78719 1.62836 0
M  V30 2693 H 275.088 3.75825 -0.588224 0
M  V30 2694 H 276.4 4.95716 -0.553801 0
M  V30 2695 H 275.554 5.84437 1.62845 0
M  V30 2696 H 274.293 4.58008 1.67572 0
M  V30 2697 H 273.298 5.47986 -0.446254 0
M  V30 2698 H 274.523 6.77425 -0.476716 0
M  V30 2699 H 272.469 6.32973 1.72283 0
M  V30 2700 H 272.386 7.54416 0.489123 0
M  V30 2701 H 273.654 7.61262 1.67632 0
M  V30 2702 N 277.883 0.443576 1.51229 0
M  V30 2703 C 279.131 -0.120557 2.0174 0
M  V30 2704 C 279.452 -1.42665 1.32935 0
M  V30 2705 O 278.722 -1.9028 0.465866 0
M  V30 2706 H 277.302 -0.0475426 0.745486 0
M  V30 2707 H 279.964 0.587711 1.85828 0
M  V30 2708 H 279.06 -0.291972 3.10731 0
M  V30 2709 N 279.361 -1.56624 0.175154 0
M  V30 2710 C 280.324 -2.16934 -0.739738 0
M  V30 2711 C 281.324 -1.11842 -1.15533 0
M  V30 2712 O 282.514 -1.37335 -1.07167 0
M  V30 2713 C 279.646 -2.75531 -2.00738 0
M  V30 2714 H 280.839 -2.99131 -0.214639 0
M  V30 2715 H 278.392 -1.56123 -0.0744197 0
M  V30 2716 H 279.127 -1.97078 -2.57548 0
M  V30 2717 H 278.912 -3.52444 -1.71831 0
M  V30 2718 H 280.402 -3.21904 -2.66021 0
M  V30 2719 N 280.839 0.0985539 -1.57292 0
M  V30 2720 C 281.789 1.1261 -1.9825 0
M  V30 2721 C 282.773 1.35961 -0.860426 0
M  V30 2722 O 283.965 1.36711 -1.12424 0
M  V30 2723 C 281.094 2.44727 -2.40757 0
M  V30 2724 C 280.18 2.24764 -3.59642 0
M  V30 2725 N 280.571 1.74661 -4.74687 0
M  V30 2726 C 278.869 2.55344 -3.65672 0
M  V30 2727 C 279.57 1.68887 -5.56644 0
M  V30 2728 N 278.546 2.13976 -4.99715 0
M  V30 2729 H 282.348 0.731604 -2.84648 0
M  V30 2730 H 279.862 0.306029 -1.59491 0
M  V30 2731 H 281.859 3.19072 -2.68326 0
M  V30 2732 H 280.519 2.84917 -1.55733 0
M  V30 2733 H 281.53 1.43908 -4.97505 0
M  V30 2734 H 278.207 2.99081 -2.91302 0
M  V30 2735 H 279.597 1.3123 -6.5896 0
M  V30 2736 N 282.317 1.53212 0.369288 0
M  V30 2737 C 283.564 1.69215 1.11232 0
M  V30 2738 C 283.892 0.442048 1.8941 0
M  V30 2739 O 283.147 -0.575944 1.87033 0
M  V30 2740 C 283.446 2.89101 2.10132 0
M  V30 2741 C 283.112 4.25758 1.48463 0
M  V30 2742 C 281.774 4.6292 1.31372 0
M  V30 2743 C 284.126 5.10757 1.03811 0
M  V30 2744 C 281.454 5.82722 0.68207 0
M  V30 2745 C 283.806 6.31201 0.420487 0
M  V30 2746 C 282.47 6.67079 0.237038 0
M  V30 2747 H 281.74 0.619201 0.407027 0
M  V30 2748 H 284.387 1.87391 0.394552 0
M  V30 2749 H 282.692 2.65421 2.88199 0
M  V30 2750 H 284.389 2.98676 2.6757 0
M  V30 2751 H 280.979 3.96494 1.62758 0
M  V30 2752 H 285.163 4.82599 1.1581 0
M  V30 2753 H 280.419 6.09113 0.528316 0
M  V30 2754 H 284.593 6.96368 0.0662874 0
M  V30 2755 H 282.22 7.59774 -0.254477 0
M  V30 2756 N 283.795 -0.628877 1.44509 0
M  V30 2757 C 285.041 -1.39045 1.47629 0
M  V30 2758 C 285.374 -1.93892 0.109343 0
M  V30 2759 O 284.649 -1.7379 -0.87334 0
M  V30 2760 C 284.932 -2.55408 2.53848 0
M  V30 2761 C 284.785 -2.05896 3.99909 0
M  V30 2762 C 286.104 -3.5759 2.56549 0
M  V30 2763 H 283.223 -0.504232 0.537512 0
M  V30 2764 H 285.865 -0.710854 1.76201 0
M  V30 2765 H 284.015 -3.13384 2.29615 0
M  V30 2766 H 285.687 -1.52734 4.35282 0
M  V30 2767 H 283.93 -1.37061 4.11578 0
M  V30 2768 H 284.601 -2.89681 4.69882 0
M  V30 2769 H 287.077 -3.09419 2.78207 0
M  V30 2770 H 285.953 -4.36527 3.32769 0
M  V30 2771 H 286.214 -4.11808 1.60832 0
M  V30 2772 N 285.273 -1.31445 -0.869486 0
M  V30 2773 C 286.52 -1.21158 -1.62256 0
M  V30 2774 C 286.848 0.230155 -1.93133 0
M  V30 2775 O 286.103 1.17906 -1.56194 0
M  V30 2776 C 286.402 -2.00145 -2.96102 0
M  V30 2777 C 286.068 -3.4964 -2.84715 0
M  V30 2778 C 284.73 -3.90403 -2.81317 0
M  V30 2779 C 287.082 -4.44769 -2.71716 0
M  V30 2780 C 284.41 -5.24561 -2.62778 0
M  V30 2781 C 286.762 -5.79054 -2.54714 0
M  V30 2782 C 285.426 -6.19037 -2.49699 0
M  V30 2783 H 284.696 -0.443348 -0.593737 0
M  V30 2784 H 287.343 -1.62715 -1.00976 0
M  V30 2785 H 285.648 -1.5127 -3.6142 0
M  V30 2786 H 287.345 -1.89566 -3.53363 0
M  V30 2787 H 283.935 -3.17256 -2.88178 0
M  V30 2788 H 288.119 -4.14208 -2.73397 0
M  V30 2789 H 283.375 -5.54613 -2.57321 0
M  V30 2790 H 287.549 -6.52393 -2.43632 0
M  V30 2791 H 285.176 -7.22935 -2.35093 0
M  V30 2792 N 286.751 1.08385 -1.14413 0
M  V30 2793 C 287.979 1.84517 -0.936001 0
M  V30 2794 C 288.394 1.81626 0.515503 0
M  V30 2795 O 287.751 1.22008 1.35721 0
M  V30 2796 C 287.802 3.32049 -1.42918 0
M  V30 2797 O 287.523 3.34951 -2.82381 0
M  V30 2798 C 289.024 4.24986 -1.26103 0
M  V30 2799 H 286.244 0.582491 -0.333084 0
M  V30 2800 H 288.788 1.36885 -1.5193 0
M  V30 2801 H 286.943 3.7707 -0.888641 0
M  V30 2802 H 287.357 4.27048 -3.04517 0
M  V30 2803 H 288.831 5.26615 -1.6547 0
M  V30 2804 H 289.308 4.38726 -0.20392 0
M  V30 2805 H 289.914 3.85791 -1.79012 0
M  V30 2806 N 288.23 0.939286 1.26551 0
M  V30 2807 C 289.193 0.451987 2.24699 0
M  V30 2808 C 290.193 -0.435869 1.5478 0
M  V30 2809 O 291.383 -0.235314 1.72603 0
M  V30 2810 C 288.515 -0.348801 3.39111 0
M  V30 2811 H 289.708 1.3193 2.69322 0
M  V30 2812 H 287.261 0.721072 1.38673 0
M  V30 2813 H 287.996 -1.23444 2.99887 0
M  V30 2814 H 287.781 0.287945 3.91041 0
M  V30 2815 H 289.271 -0.679726 4.12031 0
M  V30 2816 N 289.708 -1.40897 0.706093 0
M  V30 2817 C 290.956 -2.00657 0.241054 0
M  V30 2818 C 291.277 -1.56241 -1.16678 0
M  V30 2819 O 290.547 -0.79765 -1.78926 0
M  V30 2820 H 289.127 -0.742018 0.0861308 0
M  V30 2821 H 291.789 -1.72372 0.909604 0
M  V30 2822 H 290.885 -3.10958 0.266705 0
M  V30 2823 N 291.186 -0.45159 -1.50991 0
M  V30 2824 C 292.149 0.341117 -2.26647 0
M  V30 2825 C 293.149 0.937422 -1.30649 0
M  V30 2826 O 294.339 0.809644 -1.54241 0
M  V30 2827 C 291.471 1.48398 -3.06905 0
M  V30 2828 H 292.664 -0.322117 -2.98165 0
M  V30 2829 H 290.217 -0.205122 -1.54948 0
M  V30 2830 H 290.952 2.18284 -2.39838 0
M  V30 2831 H 290.737 1.06241 -3.77432 0
M  V30 2832 H 292.227 2.04367 -3.64176 0
M  V30 2833 N 292.664 1.56529 -0.183458 0
M  V30 2834 C 293.913 1.96419 0.458511 0
M  V30 2835 C 294.226 1.0727 1.63562 0
M  V30 2836 O 295.432 1.36893 2.34462 0
M  V30 2837 C 293.888 3.49298 0.867122 0
M  V30 2838 C 293.496 4.47092 -0.285057 0
M  V30 2839 C 295.24 3.97983 1.47683 0
M  V30 2840 C 293.147 5.91225 0.143862 0
M  V30 2841 H 292.077 0.733394 0.175071 0
M  V30 2842 H 294.728 1.81448 -0.273624 0
M  V30 2843 H 293.11 3.59731 1.65559 0
M  V30 2844 H 294.284 4.48383 -1.0625 0
M  V30 2845 H 292.599 4.08535 -0.805503 0
M  V30 2846 H 295.196 5.03134 1.80999 0
M  V30 2847 H 295.539 3.41618 2.37914 0
M  V30 2848 H 296.072 3.90617 0.752562 0
M  V30 2849 H 292.811 6.5149 -0.723974 0
M  V30 2850 H 292.331 5.93214 0.886413 0
M  V30 2851 H 294.01 6.44362 0.583628 0
M  V30 2852 N 294.142 -0.090211 1.57342 0
M  V30 2853 C 295.39 -0.791241 1.85967 0
M  V30 2854 C 295.711 -1.7903 0.772859 0
M  V30 2855 O 294.981 -1.94872 -0.200398 0
M  V30 2856 H 293.561 -0.295205 0.686195 0
M  V30 2857 H 296.223 -0.0706782 1.94772 0
M  V30 2858 H 295.319 -1.31882 2.82867 0
M  V30 2859 N 295.62 -1.53406 -0.361157 0
M  V30 2860 C 296.55 -1.83136 -1.44857 0
M  V30 2861 C 297.531 -0.685174 -1.5569 0
M  V30 2862 O 298.716 -0.93544 -1.70186 0
M  V30 2863 C 295.846 -2.02522 -2.82138 0
M  V30 2864 C 294.8 -3.18302 -2.86126 0
M  V30 2865 C 294.126 -3.22989 -4.26125 0
M  V30 2866 C 295.426 -4.56796 -2.53248 0
M  V30 2867 H 297.12 -2.74201 -1.20226 0
M  V30 2868 H 294.666 -1.31938 -0.576922 0
M  V30 2869 H 296.619 -2.21904 -3.58241 0
M  V30 2870 H 295.343 -1.08172 -3.08166 0
M  V30 2871 H 294.002 -2.98747 -2.12475 0
M  V30 2872 H 293.65 -2.26267 -4.49235 0
M  V30 2873 H 293.35 -4.00781 -4.29708 0
M  V30 2874 H 294.874 -3.44559 -5.04094 0
M  V30 2875 H 296.288 -4.7631 -3.19064 0
M  V30 2876 H 294.685 -5.36862 -2.68141 0
M  V30 2877 H 295.755 -4.61606 -1.48484 0
M  V30 2878 N 297.098 0.621204 -1.44841 0
M  V30 2879 C 298.008 1.7612 -1.5498 0
M  V30 2880 C 299.024 1.68477 -0.434927 0
M  V30 2881 O 300.2 1.89076 -0.693693 0
M  V30 2882 C 297.265 3.1254 -1.50065 0
M  V30 2883 C 296.326 3.31741 -2.72482 0
M  V30 2884 C 295.559 4.61653 -2.67792 0
M  V30 2885 O 295.782 5.431 -1.74352 0
M  V30 2886 O 294.716 4.83271 -3.58794 0
M  V30 2887 H 298.542 1.70518 -2.51311 0
M  V30 2888 H 296.127 0.783643 -1.27198 0
M  V30 2889 H 298.009 3.93844 -1.49882 0
M  V30 2890 H 296.684 3.18663 -0.568806 0
M  V30 2891 H 295.591 2.50077 -2.7823 0
M  V30 2892 H 296.924 3.30486 -3.64746 0
M  V30 2893 N 298.576 1.31904 0.862503 0
M  V30 2894 C 299.506 1.22782 1.98612 0
M  V30 2895 C 300.487 0.113362 1.69722 0
M  V30 2896 O 301.672 0.299218 1.91881 0
M  V30 2897 C 298.802 0.942058 3.34279 0
M  V30 2898 C 297.756 2.0169 3.77499 0
M  V30 2899 C 297.082 1.58369 5.10709 0
M  V30 2900 C 298.382 3.43096 3.93805 0
M  V30 2901 H 300.076 2.16788 2.06502 0
M  V30 2902 H 297.622 1.04366 0.992154 0
M  V30 2903 H 299.575 0.864818 4.1243 0
M  V30 2904 H 298.299 -0.0336603 3.26583 0
M  V30 2905 H 296.958 2.08416 3.01593 0
M  V30 2906 H 296.606 0.595628 4.99461 0
M  V30 2907 H 296.306 2.30279 5.40597 0
M  V30 2908 H 297.83 1.52067 5.91361 0
M  V30 2909 H 299.244 3.39003 4.62331 0
M  V30 2910 H 297.641 4.13288 4.35101 0
M  V30 2911 H 298.711 3.83334 2.96957 0
M  V30 2912 N 300.054 -1.07777 1.14986 0
M  V30 2913 C 300.984 -2.16865 0.865557 0
M  V30 2914 C 301.965 -1.69123 -0.182083 0
M  V30 2915 O 303.15 -1.94164 -0.0373815 0
M  V30 2916 C 300.28 -3.45539 0.349313 0
M  V30 2917 C 299.234 -4.06708 1.33313 0
M  V30 2918 C 298.56 -5.30411 0.675918 0
M  V30 2919 C 299.86 -4.47241 2.69764 0
M  V30 2920 H 301.554 -2.40905 1.77778 0
M  V30 2921 H 299.1 -1.15781 0.856203 0
M  V30 2922 H 301.053 -4.21174 0.137983 0
M  V30 2923 H 299.777 -3.21072 -0.598362 0
M  V30 2924 H 298.436 -3.33112 1.53075 0
M  V30 2925 H 298.084 -5.02232 -0.277767 0
M  V30 2926 H 297.784 -5.72293 1.33244 0
M  V30 2927 H 299.308 -6.08755 0.474262 0
M  V30 2928 H 300.722 -5.14025 2.53873 0
M  V30 2929 H 299.119 -5.00062 3.3175 0
M  V30 2930 H 300.189 -3.58818 3.26156 0
M  V30 2931 N 301.532 -0.945985 -1.26051 0
M  V30 2932 C 302.943 -0.638096 -1.75457 0
M  V30 2933 C 303.294 0.846672 -1.76991 0
M  V30 2934 O 302.419 1.66262 -1.38513 0
M  V30 2935 C 303.014 -1.15157 -3.18629 0
M  V30 2936 C 301.573 -0.894004 -3.65629 0
M  V30 2937 C 300.72 -1.29967 -2.44957 0
M  V30 2938 H 303.671 -1.12376 -1.1206 0
M  V30 2939 H 303.692 -0.507615 -3.77099 0
M  V30 2940 H 303.204 -2.23222 -3.1748 0
M  V30 2941 H 301.305 0.172057 -3.72203 0
M  V30 2942 H 301.418 -1.52439 -4.54202 0
M  V30 2943 H 299.782 -0.718078 -2.44368 0
M  V30 2944 H 300.565 -2.38935 -2.46505 0
M  V30 2945 N 303.011 1.40521 -0.713556 0
M  V30 2946 C 303.943 2.29191 -0.0203126 0
M  V30 2947 C 304.956 1.45723 0.725864 0
M  V30 2948 O 306.145 1.69033 0.573581 0
M  V30 2949 C 303.245 3.2395 0.995486 0
M  V30 2950 C 302.418 4.36262 0.315256 0
M  V30 2951 C 301.477 5.11474 1.23616 0
M  V30 2952 O 300.503 5.64606 0.721719 0
M  V30 2953 N 301.705 5.20638 2.56743 0
M  V30 2954 H 304.47 2.89327 -0.781652 0
M  V30 2955 H 302.031 1.51869 -0.561022 0
M  V30 2956 H 304.023 3.71137 1.61368 0
M  V30 2957 H 302.593 2.64995 1.6582 0
M  V30 2958 H 301.813 3.91228 -0.483106 0
M  V30 2959 H 303.101 5.08558 -0.157004 0
M  V30 2960 H 302.499 4.7895 3.01037 0
M  V30 2961 H 301.056 5.71339 3.13712 0
M  V30 2962 N 304.489 0.459591 1.5075 0
M  V30 2963 C 305.452 -0.329093 2.26825 0
M  V30 2964 C 306.452 -0.930481 1.31144 0
M  V30 2965 O 307.642 -0.801453 1.54669 0
M  V30 2966 C 304.774 -1.46768 3.07688 0
M  V30 2967 H 305.967 0.337924 2.9799 0
M  V30 2968 H 303.52 0.213336 1.54837 0
M  V30 2969 H 304.255 -2.17009 2.40993 0
M  V30 2970 H 304.04 -1.04238 3.77991 0
M  V30 2971 H 305.53 -2.02433 3.65254 0
M  V30 2972 N 305.967 -1.56429 0.191757 0
M  V30 2973 C 306.93 -2.17707 -0.716688 0
M  V30 2974 C 307.93 -1.13061 -1.14341 0
M  V30 2975 O 309.12 -1.38464 -1.05704 0
M  V30 2976 C 306.252 -2.77644 -1.97804 0
M  V30 2977 H 307.445 -2.99342 -0.1829 0
M  V30 2978 H 304.998 -1.56193 -0.0578566 0
M  V30 2979 H 305.733 -1.99799 -2.55443 0
M  V30 2980 H 305.518 -3.54246 -1.68083 0
M  V30 2981 H 307.008 -3.24708 -2.62592 0
M  V30 2982 N 307.445 0.0818655 -1.57387 0
M  V30 2983 C 308.691 0.778884 -1.87896 0
M  V30 2984 C 309.046 1.75692 -0.784229 0
M  V30 2985 O 308.339 1.90417 0.212567 0
M  V30 2986 C 308.533 1.53513 -3.22752 0
M  V30 2987 C 308.362 0.631838 -4.45239 0
M  V30 2988 C 307.132 0.272571 -5.04564 0
M  V30 2989 C 309.33 -0.0670191 -5.14256 0
M  V30 2990 N 307.312 -0.637498 -6.10581 0
M  V30 2991 C 308.683 -0.834653 -6.14356 0
M  V30 2992 C 310.738 -0.139551 -4.97704 0
M  V30 2993 C 309.441 -1.66806 -6.99691 0
M  V30 2994 C 311.467 -0.959903 -5.83558 0
M  V30 2995 C 310.829 -1.71561 -6.83188 0
M  V30 2996 H 306.928 0.260764 -0.737242 0
M  V30 2997 H 309.512 0.0408227 -1.94657 0
M  V30 2998 H 307.683 2.24398 -3.17018 0
M  V30 2999 H 309.415 2.18038 -3.40942 0
M  V30 3000 H 306.17 0.62319 -4.69482 0
M  V30 3001 H 306.594 -1.08548 -6.68241 0
M  V30 3002 H 311.236 0.430376 -4.20604 0
M  V30 3003 H 308.954 -2.249 -7.76174 0
M  V30 3004 H 312.54 -1.01887 -5.72809 0
M  V30 3005 H 311.42 -2.34017 -7.48469 0
M  V30 3006 N 308.923 1.53595 0.353017 0
M  V30 3007 C 309.855 1.77219 1.45348 0
M  V30 3008 C 310.868 0.65324 1.49119 0
M  V30 3009 O 312.057 0.929775 1.52373 0
M  V30 3010 C 309.157 1.84841 2.84055 0
M  V30 3011 C 308.33 3.14649 3.03833 0
M  V30 3012 C 307.389 3.13351 4.22727 0
M  V30 3013 O 306.415 3.87107 4.17297 0
M  V30 3014 N 307.617 2.35052 5.30783 0
M  V30 3015 H 310.382 2.72178 1.25457 0
M  V30 3016 H 307.943 1.52528 0.542833 0
M  V30 3017 H 309.935 1.81435 3.61751 0
M  V30 3018 H 308.505 0.971114 2.97133 0
M  V30 3019 H 307.725 3.31256 2.13689 0
M  V30 3020 H 309.013 4.00411 3.13925 0
M  V30 3021 H 308.411 1.74663 5.38061 0
M  V30 3022 H 306.968 2.37453 6.07009 0
M  V30 3023 N 310.401 -0.613514 1.45168 0
M  V30 3024 C 311.349 -1.74572 1.53712 0
M  V30 3025 C 312.343 -1.64426 0.407505 0
M  V30 3026 O 313.549 -1.70291 0.583176 0
M  V30 3027 H 309.924 -0.576641 0.48269 0
M  V30 3028 H 311.895 -1.64492 2.48968 0
M  V30 3029 C 310.644 -3.12943 1.51532 0
M  V30 3030 H 309.967 -3.21407 2.37776 0
M  V30 3031 H 311.407 -3.9201 1.61569 0
M  V30 3032 C 309.866 -3.36053 0.238798 0
M  V30 3033 O 310.396 -3.95837 -0.6838 0
M  V30 3034 N 308.602 -2.9028 0.136359 0
M  V30 3035 H 308.149 -2.41811 0.887999 0
M  V30 3036 H 308.107 -3.06116 -0.716944 0
M  V30 3037 N 311.879 -1.3236 -0.855495 0
M  V30 3038 C 312.789 -1.23221 -1.99634 0
M  V30 3039 C 313.805 -0.145983 -1.73387 0
M  V30 3040 O 314.981 -0.366502 -1.98037 0
M  V30 3041 C 312.046 -0.954782 -3.33294 0
M  V30 3042 C 311.107 -2.12937 -3.72769 0
M  V30 3043 C 310.34 -1.86508 -5.00051 0
M  V30 3044 O 310.563 -0.807231 -5.64659 0
M  V30 3045 O 309.497 -2.72591 -5.36636 0
M  V30 3046 H 313.323 -2.19126 -2.1028 0
M  V30 3047 H 310.908 -1.12241 -0.986018 0
M  V30 3048 H 312.79 -0.816519 -4.13414 0
M  V30 3049 H 311.465 -0.0258854 -3.2369 0
M  V30 3050 H 310.372 -2.3231 -2.93228 0
M  V30 3051 H 311.705 -3.04102 -3.87018 0
M  V30 3052 N 313.357 1.07166 -1.15556 0
M  V30 3053 C 314.582 1.84053 -0.955988 0
M  V30 3054 C 315.007 1.81586 0.490739 0
M  V30 3055 O 314.365 1.21018 1.34997 0
M  V30 3056 C 314.413 3.28957 -1.47714 0
M  V30 3057 O 313.517 4.06795 -0.677593 0
M  V30 3058 H 312.858 0.569842 -0.340847 0
M  V30 3059 H 315.388 1.35178 -1.53584 0
M  V30 3060 H 315.398 3.79788 -1.4908 0
M  V30 3061 H 314.073 3.30068 -2.53037 0
M  V30 3062 H 312.65 3.6561 -0.733721 0
M  V30 3063 N 314.835 0.952656 1.25548 0
M  V30 3064 C 316.06 0.623025 1.97821 0
M  V30 3065 C 316.485 -0.7976 1.70352 0
M  V30 3066 O 315.843 -1.53905 0.958283 0
M  V30 3067 C 315.891 0.885532 3.49558 0
M  V30 3068 O 314.995 -0.0366641 4.12384 0
M  V30 3069 H 314.336 0.237082 0.620232 0
M  V30 3070 H 316.866 1.27871 1.59719 0
M  V30 3071 H 316.876 0.811009 3.99858 0
M  V30 3072 H 315.551 1.92094 3.6888 0
M  V30 3073 H 314.128 0.0898954 3.72792 0
M  V30 3074 N 316.313 -1.40141 0.720998 0
M  V30 3075 C 317.562 -2.0002 0.259804 0
M  V30 3076 C 317.875 -1.57839 -1.15526 0
M  V30 3077 O 319.081 -2.10455 -1.71525 0
M  V30 3078 C 317.537 -3.57516 0.413566 0
M  V30 3079 C 317.145 -4.08667 1.83562 0
M  V30 3080 C 318.889 -4.24498 0.0134387 0
M  V30 3081 C 316.796 -5.58686 1.93968 0
M  V30 3082 H 315.726 -0.748195 0.0933806 0
M  V30 3083 H 318.377 -1.60313 0.892866 0
M  V30 3084 H 316.759 -3.9495 -0.288169 0
M  V30 3085 H 317.933 -3.82598 2.56817 0
M  V30 3086 H 316.248 -3.543 2.1877 0
M  V30 3087 H 318.845 -5.34654 0.0703954 0
M  V30 3088 H 319.188 -4.03375 -1.02927 0
M  V30 3089 H 319.721 -3.92188 0.665815 0
M  V30 3090 H 316.46 -5.8467 2.96379 0
M  V30 3091 H 315.98 -5.86602 1.25131 0
M  V30 3092 H 317.659 -6.23875 1.71431 0
M  V30 3093 N 317.792 -0.46758 -1.50504 0
M  V30 3094 C 318.702 0.33382 -2.32213 0
M  V30 3095 C 319.718 0.999323 -1.42441 0
M  V30 3096 O 320.894 0.988068 -1.75497 0
M  V30 3097 C 317.959 1.4035 -3.17022 0
M  V30 3098 C 317.02 0.754961 -4.2261 0
M  V30 3099 C 316.253 1.77367 -5.03365 0
M  V30 3100 O 316.476 2.99976 -4.8515 0
M  V30 3101 O 315.41 1.34744 -5.86624 0
M  V30 3102 H 319.236 -0.334067 -3.01857 0
M  V30 3103 H 316.821 -0.229496 -1.47627 0
M  V30 3104 H 318.703 2.02318 -3.69656 0
M  V30 3105 H 317.378 2.05492 -2.5011 0
M  V30 3106 H 316.285 0.0964244 -3.73976 0
M  V30 3107 H 317.618 0.146545 -4.91982 0
M  V30 3108 N 319.27 1.56325 -0.20005 0
M  V30 3109 C 320.519 1.96895 0.437652 0
M  V30 3110 C 320.832 1.08999 1.62415 0
M  V30 3111 O 322.038 1.39372 2.32997 0
M  V30 3112 C 320.494 3.50198 0.830025 0
M  V30 3113 C 320.102 4.46765 -0.332461 0
M  V30 3114 C 321.846 3.99526 1.43453 0
M  V30 3115 C 319.753 5.91344 0.0811468 0
M  V30 3116 H 318.683 0.735209 0.167282 0
M  V30 3117 H 321.334 1.81148 -0.292853 0
M  V30 3118 H 319.716 3.61467 1.61734 0
M  V30 3119 H 320.89 4.47231 -1.11 0
M  V30 3120 H 319.205 4.07657 -0.848789 0
M  V30 3121 H 321.802 5.05025 1.75652 0
M  V30 3122 H 322.145 3.44122 2.34277 0
M  V30 3123 H 322.678 3.91393 0.71109 0
M  V30 3124 H 319.417 6.50685 -0.793033 0
M  V30 3125 H 318.937 5.94121 0.823445 0
M  V30 3126 H 320.616 6.44945 0.515252 0
M  V30 3127 N 320.748 -0.0735177 1.57428 0
M  V30 3128 C 321.994 -0.774145 1.87443 0
M  V30 3129 C 322.327 -1.77311 0.792103 0
M  V30 3130 O 321.602 -1.93492 -0.197793 0
M  V30 3131 C 321.885 -1.48367 3.28115 0
M  V30 3132 C 321.738 -0.501227 4.46999 0
M  V30 3133 C 323.057 -2.429 3.66998 0
M  V30 3134 H 320.176 -0.279971 0.681752 0
M  V30 3135 H 322.818 -0.0373616 1.89963 0
M  V30 3136 H 320.968 -2.11171 3.26097 0
M  V30 3137 H 322.64 0.121468 4.6114 0
M  V30 3138 H 320.883 0.183593 4.33411 0
M  V30 3139 H 321.554 -1.03526 5.42205 0
M  V30 3140 H 324.03 -1.90175 3.70098 0
M  V30 3141 H 322.906 -2.89549 4.66318 0
M  V30 3142 H 323.167 -3.27628 2.96837 0
M  V30 3143 N 322.226 -1.5378 -0.344866 0
M  V30 3144 C 323.189 -1.80981 -1.40637 0
M  V30 3145 C 324.189 -0.680816 -1.45676 0
M  V30 3146 O 325.379 -0.949095 -1.46075 0
M  V30 3147 C 322.511 -1.95063 -2.79577 0
M  V30 3148 H 323.704 -2.75803 -1.17783 0
M  V30 3149 H 321.257 -1.45173 -0.579181 0
M  V30 3150 H 321.992 -1.02379 -3.07716 0
M  V30 3151 H 321.777 -2.77198 -2.77315 0
M  V30 3152 H 323.267 -2.17629 -3.56409 0
M  V30 3153 N 323.704 0.605807 -1.45491 0
M  V30 3154 C 324.981 1.36522 -1.40075 0
M  V30 3155 C 325.361 2.10976 -0.0722744 0
M  V30 3156 O 324.709 2.08007 0.945808 0
M  V30 3157 C 324.919 2.31056 -2.61561 0
M  V30 3158 C 326.267 2.93608 -3.06724 0
M  V30 3159 O 327.291 2.41376 -2.61946 0
M  V30 3160 O 326.15 3.88421 -3.84437 0
M  V30 3161 H 323.244 0.612248 -0.555951 0
M  V30 3162 H 325.79 0.628747 -1.57623 0
M  V30 3163 H 324.562 1.75311 -3.49831 0
M  V30 3164 H 324.185 3.12081 -2.46356 0
M  V30 3165 N 325.182 1.32811 0.848464 0
M  V30 3166 C 326.412 1.26556 1.63301 0
M  V30 3167 C 326.82 -0.1676 1.88456 0
M  V30 3168 O 326.163 -1.11713 1.45828 0
M  V30 3169 C 326.225 1.96202 3.01239 0
M  V30 3170 C 325.889 3.45528 2.99098 0
M  V30 3171 C 326.886 4.40903 2.75501 0
M  V30 3172 C 324.571 3.87558 3.19537 0
M  V30 3173 C 326.565 5.76282 2.72356 0
M  V30 3174 C 324.252 5.23044 3.16019 0
M  V30 3175 C 325.25 6.17217 2.92458 0
M  V30 3176 O 324.938 7.50223 2.88825 0
M  V30 3177 H 324.67 0.43771 0.515156 0
M  V30 3178 H 327.224 1.7559 1.0657 0
M  V30 3179 H 325.454 1.41746 3.59785 0
M  V30 3180 H 327.143 1.83573 3.62016 0
M  V30 3181 H 327.909 4.09756 2.5947 0
M  V30 3182 H 323.788 3.14674 3.369 0
M  V30 3183 H 327.332 6.4976 2.53886 0
M  V30 3184 H 323.229 5.53818 3.31596 0
M  V30 3185 H 323.997 7.59657 3.04735 0
M  V30 3186 N 326.66 -1.06551 1.16123 0
M  V30 3187 C 327.608 -2.16063 0.861371 0
M  V30 3188 C 328.602 -1.6856 -0.168517 0
M  V30 3189 O 329.808 -1.79986 -0.0227579 0
M  V30 3190 H 326.183 -0.705278 0.260934 0
M  V30 3191 H 328.154 -2.38567 1.79244 0
M  V30 3192 C 326.903 -3.45661 0.376018 0
M  V30 3193 H 326.226 -3.82604 1.15992 0
M  V30 3194 H 327.666 -4.23504 0.204951 0
M  V30 3195 C 326.125 -3.24546 -0.903954 0
M  V30 3196 O 326.655 -3.49865 -1.97377 0
M  V30 3197 N 324.861 -2.77992 -0.846679 0
M  V30 3198 H 324.408 -2.57589 0.0241017 0
M  V30 3199 H 324.366 -2.64244 -1.70359 0
M  V30 3200 N 328.138 -0.959301 -1.25041 0
M  V30 3201 C 329.101 -0.487677 -2.23952 0
M  V30 3202 C 330.101 0.41119 -1.55454 0
M  V30 3203 O 331.291 0.207825 -1.72956 0
M  V30 3204 C 328.423 0.294807 -3.39623 0
M  V30 3205 H 329.616 -1.36198 -2.67189 0
M  V30 3206 H 327.169 -0.743042 -1.37508 0
M  V30 3207 H 327.904 1.18658 -3.01813 0
M  V30 3208 H 327.689 -0.35012 -3.90534 0
M  V30 3209 H 329.179 0.614089 -4.1306 0
M  V30 3210 N 329.616 1.39756 -0.72842 0
M  V30 3211 C 330.548 2.29157 -0.0446202 0
M  V30 3212 C 331.561 1.46484 0.710367 0
M  V30 3213 O 332.75 1.69632 0.55562 0
M  V30 3214 C 329.85 3.24987 0.961071 0
M  V30 3215 C 329.023 4.36572 0.268967 0
M  V30 3216 C 328.082 5.12756 1.18184 0
M  V30 3217 O 327.108 5.6534 0.661794 0
M  V30 3218 N 328.31 5.23331 2.51206 0
M  V30 3219 H 331.075 2.88482 -0.812295 0
M  V30 3220 H 328.636 1.51265 -0.577098 0
M  V30 3221 H 330.628 3.72827 1.57423 0
M  V30 3222 H 329.198 2.66739 1.63 0
M  V30 3223 H 328.418 3.90694 -0.524574 0
M  V30 3224 H 329.706 5.08363 -0.210934 0
M  V30 3225 H 329.104 4.82116 2.9594 0
M  V30 3226 H 327.661 5.74634 3.07634 0
M  V30 3227 N 331.094 0.475555 1.50254 0
M  V30 3228 C 332.505 0.0215174 1.86688 0
M  V30 3229 C 332.856 -1.38467 1.39001 0
M  V30 3230 O 331.981 -2.02732 0.756894 0
M  V30 3231 C 332.576 0.0322715 3.38785 0
M  V30 3232 C 331.135 -0.366314 3.74613 0
M  V30 3233 C 330.282 0.415832 2.74164 0
M  V30 3234 H 333.233 0.689612 1.42934 0
M  V30 3235 H 333.254 -0.76889 3.7265 0
M  V30 3236 H 332.766 1.05584 3.73462 0
M  V30 3237 H 330.867 -1.39406 3.45538 0
M  V30 3238 H 330.98 -0.064555 4.79057 0
M  V30 3239 H 329.344 -0.131048 2.54363 0
M  V30 3240 H 330.127 1.43899 3.11686 0
M  V30 3241 N 332.573 -1.56217 0.208337 0
M  V30 3242 C 333.984 -1.84243 -0.301904 0
M  V30 3243 C 334.335 -1.12939 -1.60434 0
M  V30 3244 O 333.46 -0.39461 -2.12772 0
M  V30 3245 C 334.055 -3.34231 -0.554543 0
M  V30 3246 C 332.614 -3.62621 -1.00912 0
M  V30 3247 C 331.761 -2.77224 -0.064933 0
M  V30 3248 H 334.712 -1.52712 0.431833 0
M  V30 3249 H 334.733 -3.5372 -1.40223 0
M  V30 3250 H 334.245 -3.86099 0.393561 0
M  V30 3251 H 332.346 -3.16197 -1.97104 0
M  V30 3252 H 332.459 -4.7071 -0.892674 0
M  V30 3253 H 330.823 -2.48256 -0.56929 0
M  V30 3254 H 331.606 -3.31887 0.877851 0
M  V30 3255 N 334.051 0.0651679 -1.57465 0
M  V30 3256 C 334.981 1.07693 -2.07182 0
M  V30 3257 C 335.962 1.39962 -0.966673 0
M  V30 3258 O 337.147 1.49475 -1.2398 0
M  V30 3259 C 334.277 2.3885 -2.52127 0
M  V30 3260 C 333.231 2.20917 -3.66579 0
M  V30 3261 C 332.557 3.57515 -3.97601 0
M  V30 3262 C 333.857 1.62493 -4.9638 0
M  V30 3263 H 335.551 0.663199 -2.91962 0
M  V30 3264 H 333.097 0.317569 -1.40455 0
M  V30 3265 H 335.05 3.09928 -2.85522 0
M  V30 3266 H 333.774 2.82215 -1.64384 0
M  V30 3267 H 332.433 1.52279 -3.33477 0
M  V30 3268 H 332.081 3.98463 -3.06979 0
M  V30 3269 H 331.781 3.46353 -4.74672 0
M  V30 3270 H 333.305 4.30013 -4.33499 0
M  V30 3271 H 334.719 2.23445 -5.27963 0
M  V30 3272 H 333.116 1.62009 -5.77818 0
M  V30 3273 H 334.186 0.587041 -4.81333 0
M  V30 3274 N 335.529 1.53961 0.336706 0
M  V30 3275 C 336.777 1.71197 1.07405 0
M  V30 3276 C 337.098 0.481475 1.88962 0
M  V30 3277 O 336.368 -0.504585 1.8929 0
M  V30 3278 H 334.948 0.631185 0.399517 0
M  V30 3279 H 337.61 1.91232 0.376323 0
M  V30 3280 H 336.706 2.58587 1.74755 0
M  V30 3281 N 337.007 -0.598083 1.45811 0
M  V30 3282 C 338.256 -1.35295 1.49594 0
M  V30 3283 C 338.569 -1.95057 0.145679 0
M  V30 3284 O 339.775 -2.71431 0.0612099 0
M  V30 3285 C 338.231 -2.45124 2.63519 0
M  V30 3286 C 337.839 -1.91732 4.04899 0
M  V30 3287 C 339.583 -3.2205 2.76558 0
M  V30 3288 C 337.49 -2.991 5.1019 0
M  V30 3289 H 336.42 -0.508552 0.556679 0
M  V30 3290 H 339.071 -0.639977 1.71978 0
M  V30 3291 H 337.453 -3.19149 2.34435 0
M  V30 3292 H 338.627 -1.24352 4.43704 0
M  V30 3293 H 336.942 -1.27522 3.96393 0
M  V30 3294 H 339.539 -4.0215 3.52391 0
M  V30 3295 H 339.882 -3.73663 1.83526 0
M  V30 3296 H 340.415 -2.55127 3.05213 0
M  V30 3297 H 337.154 -2.52393 6.04961 0
M  V30 3298 H 336.674 -3.65017 4.75944 0
M  V30 3299 H 338.353 -3.63318 5.35359 0
M  V30 3300 N 338.485 -1.33259 -0.841409 0
M  V30 3301 C 339.733 -1.24326 -1.59334 0
M  V30 3302 C 340.054 0.191564 -1.94057 0
M  V30 3303 O 339.324 1.11967 -1.60749 0
M  V30 3304 H 337.904 -0.457174 -0.590763 0
M  V30 3305 H 340.566 -1.66947 -1.00571 0
M  V30 3306 H 339.662 -1.8352 -2.52442 0
M  V30 3307 N 339.963 1.05934 -1.16686 0
M  V30 3308 C 341.211 1.78447 -0.948744 0
M  V30 3309 C 341.532 1.87813 0.524523 0
M  V30 3310 O 340.802 1.38945 1.38098 0
M  V30 3311 H 339.382 0.660971 -0.348033 0
M  V30 3312 H 342.044 1.27947 -1.47022 0
M  V30 3313 H 341.14 2.80394 -1.37061 0
M  V30 3314 N 341.441 0.965919 1.2453 0
M  V30 3315 C 342.69 0.622437 1.91856 0
M  V30 3316 C 343.003 -0.846006 1.76358 0
M  V30 3317 O 344.209 -1.29993 2.38357 0
M  V30 3318 C 342.665 1.0626 3.43856 0
M  V30 3319 C 342.273 2.55437 3.68043 0
M  V30 3320 C 344.017 0.792183 4.17043 0
M  V30 3321 C 341.924 2.93196 5.13605 0
M  V30 3322 H 340.854 0.229092 0.718354 0
M  V30 3323 H 343.505 1.17189 1.41206 0
M  V30 3324 H 341.887 0.441476 3.93531 0
M  V30 3325 H 343.061 3.22665 3.28974 0
M  V30 3326 H 341.376 2.8007 3.08139 0
M  V30 3327 H 343.973 1.05031 5.24283 0
M  V30 3328 H 344.316 -0.271584 4.15413 0
M  V30 3329 H 344.849 1.37419 3.73311 0
M  V30 3330 H 341.588 3.98636 5.20355 0
M  V30 3331 H 341.108 2.30651 5.53679 0
M  V30 3332 H 342.787 2.83004 5.81823 0
M  V30 3333 N 342.919 -1.39368 0.735821 0
M  V30 3334 C 344.196 -1.94465 0.210395 0
M  V30 3335 C 344.576 -1.67254 -1.28799 0
M  V30 3336 O 343.924 -1.00123 -2.05396 0
M  V30 3337 C 344.134 -3.4472 0.544897 0
M  V30 3338 C 345.482 -4.21708 0.494689 0
M  V30 3339 O 346.506 -3.52922 0.482136 0
M  V30 3340 O 345.365 -5.44299 0.489947 0
M  V30 3341 H 342.459 -0.826096 0.0386666 0
M  V30 3342 H 345.005 -1.48863 0.814735 0
M  V30 3343 H 343.777 -3.57963 1.58045 0
M  V30 3344 H 343.4 -3.97502 -0.08837 0
M  V30 3345 N 344.397 -0.483516 -1.5 0
M  V30 3346 C 345.36 0.292965 -2.2732 0
M  V30 3347 C 346.36 0.909499 -1.32608 0
M  V30 3348 O 347.55 0.776745 -1.55924 0
M  V30 3349 C 344.682 1.41854 -3.09984 0
M  V30 3350 H 345.875 -0.385289 -2.97415 0
M  V30 3351 H 343.428 -0.237942 -1.54478 0
M  V30 3352 H 344.163 2.13148 -2.44414 0
M  V30 3353 H 343.948 0.982114 -3.79601 0
M  V30 3354 H 345.438 1.96597 -3.68429 0
M  V30 3355 N 345.875 1.56104 -0.216619 0
M  V30 3356 C 347.103 2.02563 0.421413 0
M  V30 3357 C 347.518 1.0965 1.53695 0
M  V30 3358 O 346.875 0.10521 1.82196 0
M  V30 3359 C 346.926 3.48584 0.957665 0
M  V30 3360 O 346.647 4.37953 -0.113389 0
M  V30 3361 C 348.148 4.10664 1.66943 0
M  V30 3362 H 345.368 0.662944 0.103665 0
M  V30 3363 H 347.912 2.01793 -0.331629 0
M  V30 3364 H 346.067 3.49985 1.661 0
M  V30 3365 H 346.481 5.23704 0.288932 0
M  V30 3366 H 347.955 5.14622 1.99671 0
M  V30 3367 H 348.432 3.55373 2.58083 0
M  V30 3368 H 349.038 4.13098 1.01142 0
M  V30 3369 N 347.353 -0.0568162 1.57498 0
M  V30 3370 C 348.63 -0.786954 1.79071 0
M  V30 3371 C 349.01 -1.95028 0.80792 0
M  V30 3372 O 348.358 -2.27968 -0.155858 0
M  V30 3373 C 348.568 -1.24594 3.26002 0
M  V30 3374 C 349.916 -1.67323 3.90241 0
M  V30 3375 O 350.94 -1.34124 3.29984 0
M  V30 3376 O 349.799 -2.28842 4.9628 0
M  V30 3377 H 346.893 -0.378262 0.735423 0
M  V30 3378 H 349.439 -0.035734 1.69662 0
M  V30 3379 H 348.211 -0.41423 3.89101 0
M  V30 3380 H 347.834 -2.05803 3.40192 0
M  V30 3381 N 348.832 -1.54138 -0.328536 0
M  V30 3382 C 349.779 -1.83176 -1.40411 0
M  V30 3383 C 350.749 -0.678494 -1.5161 0
M  V30 3384 O 351.934 -0.92443 -1.6691 0
M  V30 3385 C 349.074 -2.06035 -2.76846 0
M  V30 3386 C 348.187 -3.33727 -2.74318 0
M  V30 3387 C 347.322 -3.46574 -4.02567 0
M  V30 3388 C 346.361 -4.68159 -3.94327 0
M  V30 3389 N 345.498 -4.77959 -5.14296 0
M  V30 3390 H 350.338 -2.74938 -1.14948 0
M  V30 3391 H 347.875 -1.36166 -0.556538 0
M  V30 3392 H 349.833 -2.1728 -3.56153 0
M  V30 3393 H 348.463 -1.1757 -3.00628 0
M  V30 3394 H 347.515 -3.31246 -1.8703 0
M  V30 3395 H 348.827 -4.23139 -2.64111 0
M  V30 3396 H 347.981 -3.57333 -4.90304 0
M  V30 3397 H 346.72 -2.55245 -4.15574 0
M  V30 3398 H 345.725 -4.57461 -3.04974 0
M  V30 3399 H 346.95 -5.60868 -3.82889 0
M  V30 3400 H 344.896 -3.89544 -5.27818 0
M  V30 3401 H 344.813 -5.6133 -5.06404 0
M  V30 3402 H 346.081 -4.93044 -6.03761 0
M  V30 3403 N 350.31 0.590341 -1.46126 0
M  V30 3404 C 351.558 1.34616 -1.50742 0
M  V30 3405 C 351.879 1.94363 -0.157486 0
M  V30 3406 O 351.149 1.78136 0.815136 0
M  V30 3407 H 349.729 0.499789 -0.555175 0
M  V30 3408 H 352.391 0.691953 -1.82203 0
M  V30 3409 H 351.487 2.15678 -2.25587 0
M  V30 3410 N 351.788 1.33704 0.83433 0
M  V30 3411 C 352.735 1.24335 1.94447 0
M  V30 3412 C 353.705 0.120991 1.65659 0
M  V30 3413 O 354.89 0.300035 1.88426 0
M  V30 3414 C 352.03 0.993124 3.30501 0
M  V30 3415 C 351.143 2.20217 3.71657 0
M  V30 3416 C 350.278 1.88572 4.96602 0
M  V30 3417 C 349.317 3.05683 5.30306 0
M  V30 3418 N 348.454 2.73997 6.46429 0
M  V30 3419 H 353.294 2.1928 2.01792 0
M  V30 3420 H 350.831 1.09035 0.987404 0
M  V30 3421 H 352.789 0.828467 4.08892 0
M  V30 3422 H 351.419 0.0803902 3.227 0
M  V30 3423 H 350.471 2.47642 2.88752 0
M  V30 3424 H 351.783 3.07752 3.92543 0
M  V30 3425 H 350.937 1.68776 5.82752 0
M  V30 3426 H 349.676 0.982799 4.77695 0
M  V30 3427 H 348.681 3.26088 4.42659 0
M  V30 3428 H 349.906 3.96737 5.51159 0
M  V30 3429 H 347.852 1.86268 6.28999 0
M  V30 3430 H 347.769 3.55064 6.67432 0
M  V30 3431 H 349.037 2.57679 7.35678 0
M  V30 3432 N 353.266 -1.05314 1.17247 0
M  V30 3433 C 354.176 -2.16538 0.90268 0
M  V30 3434 C 355.192 -1.73523 -0.128707 0
M  V30 3435 O 356.368 -2.01337 0.0502701 0
M  V30 3436 C 353.433 -3.44167 0.418356 0
M  V30 3437 C 352.494 -4.01635 1.51618 0
M  V30 3438 C 351.727 -5.23171 1.05487 0
M  V30 3439 O 351.95 -5.70327 -0.0914715 0
M  V30 3440 O 350.884 -5.72848 1.8474 0
M  V30 3441 H 354.71 -2.42145 1.83302 0
M  V30 3442 H 352.295 -1.15037 0.953246 0
M  V30 3443 H 354.177 -4.21112 0.155726 0
M  V30 3444 H 352.852 -3.20063 -0.48385 0
M  V30 3445 H 351.759 -3.26135 1.83268 0
M  V30 3446 H 353.092 -4.30053 2.39405 0
M  V30 3447 N 354.744 -0.972509 -1.24016 0
M  V30 3448 C 355.974 -0.653853 -1.9598 0
M  V30 3449 C 356.382 0.781801 -1.72292 0
M  V30 3450 O 355.725 1.53677 -1.00644 0
M  V30 3451 C 355.787 -0.854608 -3.49194 0
M  V30 3452 C 355.451 -2.27082 -3.96589 0
M  V30 3453 C 356.448 -3.24892 -4.05883 0
M  V30 3454 C 354.133 -2.5998 -4.29786 0
M  V30 3455 C 356.127 -4.53684 -4.47716 0
M  V30 3456 C 353.814 -3.88997 -4.71301 0
M  V30 3457 C 354.812 -4.85661 -4.80232 0
M  V30 3458 O 354.5 -6.12376 -5.20818 0
M  V30 3459 H 354.232 -0.242572 -0.630979 0
M  V30 3460 H 356.786 -1.30431 -1.58673 0
M  V30 3461 H 355.016 -0.146985 -3.86421 0
M  V30 3462 H 356.705 -0.534311 -4.02368 0
M  V30 3463 H 357.471 -3.00805 -3.80449 0
M  V30 3464 H 353.35 -1.85457 -4.22051 0
M  V30 3465 H 356.894 -5.29135 -4.54601 0
M  V30 3466 H 352.791 -4.12882 -4.96184 0
M  V30 3467 H 353.559 -6.16013 -5.38953 0
M  V30 3468 N 356.222 1.38976 -0.743202 0
M  V30 3469 C 357.47 1.99948 -0.29417 0
M  V30 3470 C 357.791 1.59279 1.12495 0
M  V30 3471 O 357.061 0.844808 1.76748 0
M  V30 3472 H 355.641 0.739473 -0.105774 0
M  V30 3473 H 358.303 1.699 -0.954986 0
M  V30 3474 H 357.399 3.10142 -0.349056 0
M  V30 3475 N 357.7 0.491464 1.49741 0
M  V30 3476 C 358.948 -0.0563141 2.02022 0
M  V30 3477 C 359.269 -1.38363 1.37407 0
M  V30 3478 O 358.539 -1.88702 0.526166 0
M  V30 3479 H 357.119 -0.0238014 0.746621 0
M  V30 3480 H 359.781 0.646533 1.83864 0
M  V30 3481 H 358.877 -0.192967 3.11503 0
M  V30 3482 N 359.178 -1.55987 0.224894 0
M  V30 3483 C 360.125 -2.20436 -0.68385 0
M  V30 3484 C 361.095 -1.16102 -1.18783 0
M  V30 3485 O 362.28 -1.4447 -1.24632 0
M  V30 3486 C 359.42 -2.89076 -1.88491 0
M  V30 3487 C 358.533 -4.08012 -1.41951 0
M  V30 3488 C 357.668 -4.64426 -2.5784 0
M  V30 3489 C 356.707 -5.75656 -2.08053 0
M  V30 3490 N 355.844 -6.26347 -3.17227 0
M  V30 3491 H 360.684 -2.97727 -0.12754 0
M  V30 3492 H 358.221 -1.47011 -0.0511978 0
M  V30 3493 H 360.179 -3.27059 -2.59014 0
M  V30 3494 H 358.809 -2.14298 -2.41405 0
M  V30 3495 H 357.861 -3.75492 -0.609095 0
M  V30 3496 H 359.173 -4.88375 -1.01447 0
M  V30 3497 H 358.327 -5.04869 -3.3644 0
M  V30 3498 H 357.066 -3.83233 -3.01635 0
M  V30 3499 H 356.071 -5.34712 -1.27916 0
M  V30 3500 H 357.296 -6.58686 -1.65255 0
M  V30 3501 H 355.242 -5.48067 -3.60497 0
M  V30 3502 H 355.159 -7.01843 -2.80986 0
M  V30 3503 H 356.427 -6.71447 -3.95953 0
M  V30 3504 N 360.656 0.0484629 -1.57525 0
M  V30 3505 C 362.072 0.40375 -1.54409 0
M  V30 3506 C 362.272 1.77786 -0.948384 0
M  V30 3507 O 361.328 2.46189 -0.560983 0
M  V30 3508 C 362.641 0.323394 -2.98956 0
M  V30 3509 C 364.189 0.401892 -3.10409 0
M  V30 3510 C 364.664 0.351195 -4.56652 0
M  V30 3511 N 366.155 0.410576 -4.61377 0
M  V30 3512 C 366.89 0.393933 -5.72045 0
M  V30 3513 N 366.386 0.330724 -6.9201 0
M  V30 3514 N 368.179 0.442227 -5.60358 0
M  V30 3515 H 360.33 -0.851016 -1.94606 0
M  V30 3516 H 362.593 -0.321721 -0.89174 0
M  V30 3517 H 362.299 -0.62011 -3.4619 0
M  V30 3518 H 362.173 1.12463 -3.60044 0
M  V30 3519 H 364.56 1.33582 -2.63134 0
M  V30 3520 H 364.641 -0.428342 -2.52188 0
M  V30 3521 H 364.285 -0.578987 -5.04589 0
M  V30 3522 H 364.215 1.19928 -5.12762 0
M  V30 3523 H 366.706 0.462729 -3.75056 0
M  V30 3524 H 367.019 0.322592 -7.72126 0
M  V30 3525 H 365.364 0.29706 -6.94365 0
M  V30 3526 H 368.555 0.489464 -4.65534 0
M  V30 3527 H 368.728 0.425788 -6.466 0
M  V30 3528 N 362.134 1.5431 0.320358 0
M  V30 3529 C 363.097 1.83195 1.3774 0
M  V30 3530 C 364.097 0.703906 1.44575 0
M  V30 3531 O 365.287 0.972214 1.44546 0
M  V30 3532 C 362.419 1.99487 2.76438 0
M  V30 3533 H 363.612 2.77642 1.1338 0
M  V30 3534 H 361.165 1.46076 0.556012 0
M  V30 3535 H 361.9 1.07262 3.06048 0
M  V30 3536 H 361.685 2.81575 2.7287 0
M  V30 3537 H 363.175 2.23271 3.52902 0
M  V30 3538 N 363.613 -0.582584 1.46437 0
M  V30 3539 C 364.86 -1.34079 1.51753 0
M  V30 3540 C 365.188 -1.93762 0.169299 0
M  V30 3541 O 364.443 -1.76989 -0.835062 0
M  V30 3542 C 364.742 -2.48964 2.56421 0
M  V30 3543 C 364.408 -2.07273 4.00436 0
M  V30 3544 C 363.07 -1.95618 4.39644 0
M  V30 3545 C 365.422 -1.75111 4.90903 0
M  V30 3546 C 362.75 -1.5006 5.67185 0
M  V30 3547 C 365.102 -1.31032 6.18881 0
M  V30 3548 C 363.766 -1.17954 6.56996 0
M  V30 3549 H 363.036 -0.49063 0.555304 0
M  V30 3550 H 365.683 -0.656007 1.79913 0
M  V30 3551 H 363.988 -3.22889 2.21923 0
M  V30 3552 H 365.685 -3.07178 2.57765 0
M  V30 3553 H 362.275 -2.17279 3.69443 0
M  V30 3554 H 366.459 -1.83001 4.61329 0
M  V30 3555 H 361.715 -1.38577 5.95488 0
M  V30 3556 H 365.889 -1.052 6.88408 0
M  V30 3557 H 363.516 -0.824279 7.55718 0
M  V30 3558 N 365.091 -1.34144 -0.827227 0
M  V30 3559 C 366.339 -1.26009 -1.58007 0
M  V30 3560 C 366.66 0.170971 -1.94249 0
M  V30 3561 O 365.93 1.10256 -1.61927 0
M  V30 3562 H 364.51 -0.463414 -0.585881 0
M  V30 3563 H 367.172 -1.68005 -0.987951 0
M  V30 3564 H 366.268 -1.86187 -2.50481 0
M  V30 3565 N 366.569 1.04691 -1.17803 0
M  V30 3566 C 367.532 2.10724 -0.901545 0
M  V30 3567 C 368.532 1.6042 0.110437 0
M  V30 3568 O 369.722 1.7377 -0.122303 0
M  V30 3569 C 366.854 3.39084 -0.351409 0
M  V30 3570 H 368.047 2.36686 -1.84174 0
M  V30 3571 H 365.6 1.21015 -0.98919 0
M  V30 3572 H 366.335 3.18782 0.59569 0
M  V30 3573 H 366.12 3.76909 -1.08083 0
M  V30 3574 H 367.61 4.17227 -0.176451 0
M  V30 3575 N 368.047 0.979072 1.23499 0
M  V30 3576 C 368.977 0.537606 2.27227 0
M  V30 3577 C 369.958 -0.428539 1.64613 0
M  V30 3578 O 371.143 -0.322191 1.91509 0
M  V30 3579 C 368.273 -0.162052 3.46922 0
M  V30 3580 C 367.227 0.721242 4.21879 0
M  V30 3581 C 366.553 -0.110555 5.34586 0
M  V30 3582 C 367.853 2.01141 4.82016 0
M  V30 3583 H 369.547 1.40462 2.64406 0
M  V30 3584 H 367.093 0.67684 1.27102 0
M  V30 3585 H 369.046 -0.482192 4.18632 0
M  V30 3586 H 367.77 -1.06351 3.08799 0
M  V30 3587 H 366.429 1.02482 3.51984 0
M  V30 3588 H 366.077 -1.0125 4.92704 0
M  V30 3589 H 365.777 0.477325 5.85658 0
M  V30 3590 H 367.301 -0.425107 6.09118 0
M  V30 3591 H 368.715 1.75612 5.45741 0
M  V30 3592 H 367.112 2.54695 5.43369 0
M  V30 3593 H 368.182 2.69909 4.02836 0
M  V30 3594 N 369.525 -1.3858 0.750561 0
M  V30 3595 C 370.773 -1.99789 0.30477 0
M  V30 3596 C 371.094 -1.59874 -1.11649 0
M  V30 3597 O 370.364 -0.85417 -1.76297 0
M  V30 3598 H 368.944 -0.738902 0.109694 0
M  V30 3599 H 371.606 -1.69391 0.963983 0
M  V30 3600 H 370.702 -3.09952 0.365499 0
M  V30 3601 N 371.003 -0.499398 -1.49478 0
M  V30 3602 C 372.252 0.0475259 -2.01644 0
M  V30 3603 C 372.565 1.38195 -1.38425 0
M  V30 3604 O 373.771 2.01547 -1.8191 0
M  V30 3605 C 372.227 0.135164 -3.59646 0
M  V30 3606 C 371.835 -1.19252 -4.31837 0
M  V30 3607 C 373.579 0.632538 -4.19761 0
M  V30 3608 C 371.486 -1.06713 -5.81693 0
M  V30 3609 H 370.416 0.0215349 -0.753692 0
M  V30 3610 H 373.067 -0.638577 -1.7203 0
M  V30 3611 H 371.449 0.885681 -3.85969 0
M  V30 3612 H 372.623 -1.9562 -4.17216 0
M  V30 3613 H 370.938 -1.62321 -3.83459 0
M  V30 3614 H 373.535 0.743833 -5.29501 0
M  V30 3615 H 373.878 1.63098 -3.83021 0
M  V30 3616 H 374.411 -0.0613987 -3.97753 0
M  V30 3617 H 371.15 -2.03979 -6.22955 0
M  V30 3618 H 370.67 -0.344307 -5.98811 0
M  V30 3619 H 372.349 -0.745208 -6.42694 0
M  V30 3620 N 372.481 1.55866 -0.233164 0
M  V30 3621 C 373.729 1.9821 0.394593 0
M  V30 3622 C 374.05 1.12234 1.59463 0
M  V30 3623 O 373.32 0.201981 1.94856 0
M  V30 3624 H 371.9 0.732034 0.148778 0
M  V30 3625 H 374.562 1.92107 -0.32876 0
M  V30 3626 H 373.658 3.03845 0.713063 0
M  V30 3627 N 373.959 -0.0401083 1.57549 0
M  V30 3628 C 375.207 -0.731677 1.8839 0
M  V30 3629 C 375.528 -1.76481 0.829425 0
M  V30 3630 O 374.798 -1.95411 -0.1383 0
M  V30 3631 H 373.378 -0.273225 0.695239 0
M  V30 3632 H 376.04 -0.00867725 1.94898 0
M  V30 3633 H 375.136 -1.22816 2.86919 0
M  V30 3634 N 375.437 -1.54477 -0.31217 0
M  V30 3635 C 376.367 -1.87652 -1.38957 0
M  V30 3636 C 377.348 -0.734358 -1.53431 0
M  V30 3637 O 378.533 -0.98911 -1.67123 0
M  V30 3638 C 375.663 -2.11396 -2.75552 0
M  V30 3639 C 374.617 -3.27243 -2.75855 0
M  V30 3640 C 373.943 -3.36382 -4.15633 0
M  V30 3641 C 375.243 -4.64622 -2.38587 0
M  V30 3642 H 376.937 -2.77887 -1.11442 0
M  V30 3643 H 374.483 -1.33707 -0.534655 0
M  V30 3644 H 376.436 -2.33189 -3.51 0
M  V30 3645 H 375.16 -1.17921 -3.04569 0
M  V30 3646 H 373.819 -3.05356 -2.02863 0
M  V30 3647 H 373.467 -2.40445 -4.41809 0
M  V30 3648 H 373.167 -4.14249 -4.1674 0
M  V30 3649 H 374.691 -3.60422 -4.92877 0
M  V30 3650 H 376.105 -4.86219 -3.03749 0
M  V30 3651 H 374.502 -5.45121 -2.50925 0
M  V30 3652 H 375.572 -4.66097 -1.33723 0
M  V30 3653 N 376.915 0.57481 -1.46744 0
M  V30 3654 C 377.862 1.68329 -1.57905 0
M  V30 3655 C 378.832 1.60625 -0.422927 0
M  V30 3656 O 380.017 1.79721 -0.640711 0
M  V30 3657 C 377.157 3.06665 -1.58274 0
M  V30 3658 C 376.27 3.24935 -2.84678 0
M  V30 3659 C 375.405 4.53566 -2.76499 0
M  V30 3660 C 374.444 4.65207 -3.97806 0
M  V30 3661 N 373.581 5.85172 -3.87967 0
M  V30 3662 H 378.421 1.58127 -2.52587 0
M  V30 3663 H 375.958 0.770552 -1.25303 0
M  V30 3664 H 377.916 3.86745 -1.56473 0
M  V30 3665 H 376.546 3.15745 -0.671194 0
M  V30 3666 H 375.598 2.38405 -2.96424 0
M  V30 3667 H 376.91 3.29403 -3.7456 0
M  V30 3668 H 376.064 5.41885 -2.72848 0
M  V30 3669 H 374.803 4.51548 -1.8427 0
M  V30 3670 H 373.808 3.75304 -4.0178 0
M  V30 3671 H 375.033 4.68997 -4.9114 0
M  V30 3672 H 372.979 5.84137 -2.98529 0
M  V30 3673 H 372.896 5.90943 -4.71511 0
M  V30 3674 H 374.164 6.759 -3.88303 0
M  V30 3675 N 378.394 1.34581 0.820102 0
M  V30 3676 C 379.324 1.29038 1.94606 0
M  V30 3677 C 380.305 0.1673 1.69275 0
M  V30 3678 O 381.49 0.360112 1.90832 0
M  V30 3679 C 378.62 1.04793 3.31113 0
M  V30 3680 C 377.574 2.13597 3.70891 0
M  V30 3681 C 376.9 1.74537 5.05412 0
M  V30 3682 C 378.2 3.55451 3.8269 0
M  V30 3683 H 379.894 2.23248 1.99501 0
M  V30 3684 H 377.44 1.0747 0.958449 0
M  V30 3685 H 379.393 0.995592 4.0947 0
M  V30 3686 H 378.117 0.0702565 3.26524 0
M  V30 3687 H 376.776 2.17905 2.9481 0
M  V30 3688 H 376.424 0.754226 4.97313 0
M  V30 3689 H 376.124 2.47361 5.32997 0
M  V30 3690 H 377.648 1.70803 5.86224 0
M  V30 3691 H 379.062 3.5354 4.51312 0
M  V30 3692 H 377.459 4.26922 4.21732 0
M  V30 3693 H 378.529 3.92587 2.84611 0
M  V30 3694 N 379.872 -1.04064 1.18357 0
M  V30 3695 C 380.819 -2.12077 0.910603 0
M  V30 3696 C 381.789 -1.65421 -0.15 0
M  V30 3697 O 382.974 -1.90797 -0.0103614 0
M  V30 3698 C 380.114 -3.42252 0.442472 0
M  V30 3699 C 379.227 -4.0252 1.5685 0
M  V30 3700 C 378.362 -5.20657 1.05309 0
M  V30 3701 C 377.401 -5.72955 2.1538 0
M  V30 3702 N 376.538 -6.8238 1.65233 0
M  V30 3703 H 381.378 -2.34764 1.83548 0
M  V30 3704 H 378.915 -1.15157 0.915279 0
M  V30 3705 H 380.873 -4.16921 0.152534 0
M  V30 3706 H 379.503 -3.19712 -0.445428 0
M  V30 3707 H 378.555 -3.25178 1.97391 0
M  V30 3708 H 379.867 -4.37362 2.39824 0
M  V30 3709 H 379.021 -6.0244 0.717677 0
M  V30 3710 H 377.76 -4.87318 0.19293 0
M  V30 3711 H 376.765 -4.89793 2.49766 0
M  V30 3712 H 377.99 -6.08337 3.01832 0
M  V30 3713 H 375.936 -6.50917 0.815064 0
M  V30 3714 H 375.853 -7.16286 2.41805 0
M  V30 3715 H 377.121 -7.67788 1.34619 0
M  V30 3716 N 381.35 -0.985608 -1.22978 0
M  V30 3717 C 382.28 -0.549649 -2.26939 0
M  V30 3718 C 383.261 0.419803 -1.64838 0
M  V30 3719 O 384.446 0.31203 -1.91677 0
M  V30 3720 C 381.576 0.143652 -3.47003 0
M  V30 3721 C 380.53 -0.743606 -4.21491 0
M  V30 3722 C 379.856 0.0822027 -5.34637 0
M  V30 3723 C 381.156 -2.03694 -4.80943 0
M  V30 3724 H 382.85 -1.41862 -2.63658 0
M  V30 3725 H 380.396 -0.683571 -1.26741 0
M  V30 3726 H 382.349 0.459985 -4.18882 0
M  V30 3727 H 381.073 1.04711 -3.09359 0
M  V30 3728 H 379.732 -1.04347 -3.51436 0
M  V30 3729 H 379.38 0.986359 -4.93234 0
M  V30 3730 H 379.08 -0.508377 -5.85397 0
M  V30 3731 H 380.604 0.392797 -6.09335 0
M  V30 3732 H 382.018 -1.78504 -5.44802 0
M  V30 3733 H 380.415 -2.57573 -5.42011 0
M  V30 3734 H 381.485 -2.72042 -4.01399 0
M  V30 3735 N 382.828 1.3818 -0.7579 0
M  V30 3736 C 383.778 2.27741 -0.108674 0
M  V30 3737 C 384.762 1.45415 0.688709 0
M  V30 3738 O 385.954 1.68108 0.553956 0
M  V30 3739 C 383.083 3.34313 0.780367 0
M  V30 3740 C 382.169 4.24093 -0.0240977 0
M  V30 3741 N 382.56 4.9451 -1.06271 0
M  V30 3742 C 380.858 4.45542 0.202049 0
M  V30 3743 C 381.559 5.60675 -1.54979 0
M  V30 3744 N 380.535 5.36684 -0.864348 0
M  V30 3745 H 384.337 2.79649 -0.904071 0
M  V30 3746 H 381.851 1.51133 -0.594346 0
M  V30 3747 H 383.848 3.97368 1.26114 0
M  V30 3748 H 382.508 2.83962 1.57467 0
M  V30 3749 H 383.519 4.97345 -1.44459 0
M  V30 3750 H 380.196 4.06091 0.96935 0
M  V30 3751 H 381.586 6.26992 -2.41517 0
M  V30 3752 N 384.306 0.507319 1.49211 0
M  V30 3753 C 385.722 0.163682 1.58758 0
M  V30 3754 C 385.922 -1.33208 1.51188 0
M  V30 3755 O 384.978 -2.10855 1.38911 0
M  V30 3756 C 386.291 0.746095 2.91297 0
M  V30 3757 C 387.839 0.712773 3.04776 0
M  V30 3758 C 388.314 1.27336 4.39943 0
M  V30 3759 N 389.805 1.23433 4.46451 0
M  V30 3760 C 390.54 1.63821 5.495 0
M  V30 3761 N 390.036 2.11832 6.5962 0
M  V30 3762 N 391.829 1.55198 5.4025 0
M  V30 3763 H 383.98 1.47972 1.52375 0
M  V30 3764 H 386.243 0.614147 0.722168 0
M  V30 3765 H 385.949 1.79534 3.02424 0
M  V30 3766 H 385.823 0.210137 3.76614 0
M  V30 3767 H 388.21 -0.327656 2.93275 0
M  V30 3768 H 388.291 1.28595 2.21127 0
M  V30 3769 H 387.935 2.3126 4.52196 0
M  V30 3770 H 387.865 0.676066 5.22242 0
M  V30 3771 H 390.356 0.882627 3.67448 0
M  V30 3772 H 390.669 2.40703 7.34358 0
M  V30 3773 H 389.014 2.1581 6.60644 0
M  V30 3774 H 392.205 1.17505 4.53112 0
M  V30 3775 H 392.378 1.86997 6.20432 0
M  V30 3776 N 385.784 -1.5574 0.241426 0
M  V30 3777 C 386.747 -2.19877 -0.647063 0
M  V30 3778 C 387.747 -1.16642 -1.10686 0
M  V30 3779 O 388.937 -1.41757 -1.01245 0
M  V30 3780 C 386.069 -2.83797 -1.88871 0
M  V30 3781 H 387.262 -2.99772 -0.087574 0
M  V30 3782 H 384.815 -1.56298 -0.00813574 0
M  V30 3783 H 385.55 -2.07824 -2.48957 0
M  V30 3784 H 385.335 -3.59414 -1.56728 0
M  V30 3785 H 386.825 -3.32898 -2.52129 0
M  V30 3786 N 387.262 0.0317525 -1.57568 0
M  V30 3787 C 388.502 0.727979 -1.90997 0
M  V30 3788 C 388.866 1.72664 -0.839708 0
M  V30 3789 O 390.067 2.47092 -1.05825 0
M  V30 3790 C 388.338 1.38239 -3.29583 0
M  V30 3791 S 389.897 2.10814 -3.84841 0
M  V30 3792 H 386.715 0.241226 -0.668828 0
M  V30 3793 H 389.317 -0.0173037 -1.95492 0
M  V30 3794 H 388.021 0.642288 -4.05343 0
M  V30 3795 H 387.552 2.16628 -3.28384 0
M  V30 3796 H 389.567 3.3792 -3.63352 0
M  V30 3797 N 388.74 1.54641 0.303973 0
M  V30 3798 C 389.989 1.7299 1.03717 0
M  V30 3799 C 390.302 0.521168 1.88529 0
M  V30 3800 O 391.508 0.586408 2.65092 0
M  V30 3801 C 389.964 3.06051 1.89369 0
M  V30 3802 C 389.572 4.34393 1.09574 0
M  V30 3803 C 391.316 3.3376 2.62306 0
M  V30 3804 C 389.223 5.58506 1.94486 0
M  V30 3805 H 388.153 0.64473 0.390947 0
M  V30 3806 H 390.804 1.81124 0.294328 0
M  V30 3807 H 389.186 2.91874 2.67629 0
M  V30 3808 H 390.36 4.59396 0.359485 0
M  V30 3809 H 388.675 4.13597 0.482324 0
M  V30 3810 H 391.272 4.23687 3.26181 0
M  V30 3811 H 391.615 2.52503 3.3098 0
M  V30 3812 H 392.148 3.48894 1.91097 0
M  V30 3813 H 388.887 6.42422 1.30287 0
M  V30 3814 H 388.407 5.37694 2.65792 0
M  V30 3815 H 390.086 5.95651 2.52605 0
M  V30 3816 N 390.218 -0.567019 1.47046 0
M  V30 3817 C 391.181 -1.65696 1.58359 0
M  V30 3818 C 392.181 -1.54097 0.459441 0
M  V30 3819 O 393.371 -1.58432 0.724225 0
M  V30 3820 C 390.503 -3.05197 1.51879 0
M  V30 3821 H 391.696 -1.57019 2.5551 0
M  V30 3822 H 389.249 -0.786148 1.3509 0
M  V30 3823 H 389.984 -3.19417 0.560673 0
M  V30 3824 H 389.769 -3.15025 2.33455 0
M  V30 3825 H 391.259 -3.84511 1.62913 0
M  V30 3826 N 391.696 -1.35014 -0.812953 0
M  V30 3827 C 392.643 -1.27412 -1.92444 0
M  V30 3828 C 393.613 -0.14733 -1.65445 0
M  V30 3829 O 394.798 -0.329974 -1.87925 0
M  V30 3830 C 391.938 -1.04558 -3.28879 0
M  V30 3831 C 391.051 -2.26101 -3.68106 0
M  V30 3832 C 390.186 -1.96449 -4.9354 0
M  V30 3833 C 389.225 -3.14081 -5.25376 0
M  V30 3834 N 388.362 -2.84246 -6.41988 0
M  V30 3835 H 393.202 -2.22463 -1.98278 0
M  V30 3836 H 390.739 -1.10593 -0.969933 0
M  V30 3837 H 392.697 -0.893413 -4.07522 0
M  V30 3838 H 391.327 -0.131719 -3.22531 0
M  V30 3839 H 390.379 -2.52204 -2.84775 0
M  V30 3840 H 391.691 -3.13959 -3.87597 0
M  V30 3841 H 390.845 -1.78026 -5.79993 0
M  V30 3842 H 389.584 -1.05867 -4.76071 0
M  V30 3843 H 388.589 -3.33089 -4.37415 0
M  V30 3844 H 389.814 -4.05455 -5.44778 0
M  V30 3845 H 387.76 -1.96252 -6.25956 0
M  V30 3846 H 387.677 -3.65637 -6.61699 0
M  V30 3847 H 388.945 -2.6935 -7.31485 0
M  V30 3848 N 393.175 1.03435 -1.18907 0
M  V30 3849 C 394.105 2.13503 -0.945448 0
M  V30 3850 C 395.086 1.69682 0.119189 0
M  V30 3851 O 396.271 1.94169 -0.034707 0
M  V30 3852 C 393.401 3.44004 -0.477316 0
M  V30 3853 C 392.355 4.0148 -1.48316 0
M  V30 3854 C 391.681 5.27537 -0.872311 0
M  V30 3855 C 392.981 4.36921 -2.86177 0
M  V30 3856 H 394.675 2.34141 -1.86597 0
M  V30 3857 H 392.221 1.12523 -0.898584 0
M  V30 3858 H 394.174 4.20372 -0.294204 0
M  V30 3859 H 392.898 3.23072 0.478786 0
M  V30 3860 H 391.557 3.27201 -1.65332 0
M  V30 3861 H 391.205 5.02917 0.0911752 0
M  V30 3862 H 390.905 5.66954 -1.54393 0
M  V30 3863 H 392.429 6.06576 -0.699871 0
M  V30 3864 H 393.843 5.04248 -2.72776 0
M  V30 3865 H 392.24 4.87405 -3.50081 0
M  V30 3866 H 393.31 3.46466 -3.39248 0
M  V30 3867 N 394.653 0.992116 1.22453 0
M  V30 3868 C 395.9 0.667534 1.91181 0
M  V30 3869 C 396.228 -0.800317 1.77271 0
M  V30 3870 O 395.483 -1.59421 1.13505 0
M  V30 3871 C 395.782 1.01832 3.42586 0
M  V30 3872 C 395.448 2.47831 3.76684 0
M  V30 3873 C 394.11 2.87729 3.85701 0
M  V30 3874 C 396.462 3.42466 3.92895 0
M  V30 3875 C 393.79 4.21252 4.08367 0
M  V30 3876 C 396.142 4.75648 4.17064 0
M  V30 3877 C 394.806 5.15288 4.24305 0
M  V30 3878 H 394.076 0.244268 0.699581 0
M  V30 3879 H 396.723 1.24816 1.45235 0
M  V30 3880 H 395.028 0.355769 3.90181 0
M  V30 3881 H 396.725 0.745228 3.94014 0
M  V30 3882 H 393.315 2.15905 3.70247 0
M  V30 3883 H 397.499 3.12814 3.85307 0
M  V30 3884 H 392.755 4.51554 4.122 0
M  V30 3885 H 396.929 5.48924 4.2855 0
M  V30 3886 H 394.556 6.18769 4.41621 0
M  V30 3887 N 396.131 -1.37776 0.765217 0
M  V30 3888 C 397.041 -2.34135 0.147666 0
M  V30 3889 C 398.057 -1.59854 -0.687215 0
M  V30 3890 O 399.233 -1.91983 -0.608659 0
M  V30 3891 C 396.298 -3.3901 -0.72617 0
M  V30 3892 C 395.359 -4.2912 0.124417 0
M  V30 3893 C 394.592 -5.28986 -0.707807 0
M  V30 3894 O 394.815 -5.36205 -1.94525 0
M  V30 3895 O 393.749 -6.01779 -0.12046 0
M  V30 3896 H 397.575 -2.88664 0.943758 0
M  V30 3897 H 395.16 -1.39824 0.526277 0
M  V30 3898 H 397.042 -4.03195 -1.22524 0
M  V30 3899 H 395.717 -2.86819 -1.50056 0
M  V30 3900 H 394.624 -3.68057 0.669696 0
M  V30 3901 H 395.957 -4.84598 0.861736 0
M  V30 3902 N 397.609 -0.515225 -1.4894 0
M  V30 3903 C 398.834 0.022727 -2.07388 0
M  V30 3904 C 399.259 1.2876 -1.37122 0
M  V30 3905 O 398.617 1.76067 -0.432431 0
M  V30 3906 C 398.665 0.244869 -3.59768 0
M  V30 3907 O 397.769 1.31667 -3.90817 0
M  V30 3908 H 397.11 -0.0325506 -0.663202 0
M  V30 3909 H 399.64 -0.718918 -1.91553 0
M  V30 3910 H 399.65 0.47205 -4.0526 0
M  V30 3911 H 398.325 -0.679194 -4.10317 0
M  V30 3912 H 396.902 1.07331 -3.5712 0
M  V30 3913 N 399.087 1.5561 -0.249682 0
M  V30 3914 C 400.312 2.03865 0.381305 0
M  V30 3915 C 400.737 1.12769 1.50548 0
M  V30 3916 O 400.095 0.121189 1.80895 0
M  V30 3917 C 400.143 3.50101 0.863816 0
M  V30 3918 O 399.247 3.62132 1.97318 0
M  V30 3919 H 398.588 0.658827 0.0827194 0
M  V30 3920 H 401.118 2.01105 -0.376552 0
M  V30 3921 H 401.128 3.90975 1.1663 0
M  V30 3922 H 399.803 4.1588 0.0411816 0
M  V30 3923 H 398.38 3.33155 1.67517 0
M  V30 3924 N 400.565 -0.0233959 1.57583 0
M  V30 3925 C 401.475 -1.03907 2.10334 0
M  V30 3926 C 402.491 -1.39257 1.04323 0
M  V30 3927 O 403.667 -1.48462 1.36091 0
M  V30 3928 C 400.732 -2.31938 2.57693 0
M  V30 3929 C 399.793 -2.03117 3.78209 0
M  V30 3930 C 399.026 -3.25043 4.233 0
M  V30 3931 O 399.249 -4.35916 3.67876 0
M  V30 3932 O 398.183 -3.10411 5.15683 0
M  V30 3933 H 402.009 -0.620748 2.97288 0
M  V30 3934 H 399.594 -0.240743 1.47448 0
M  V30 3935 H 401.476 -3.07196 2.88458 0
M  V30 3936 H 400.151 -2.73055 1.73847 0
M  V30 3937 H 399.058 -1.25408 3.52454 0
M  V30 3938 H 400.391 -1.66852 4.63056 0
M  V30 3939 N 402.043 -1.548 -0.295768 0
M  V30 3940 C 403.291 -1.73985 -1.02828 0
M  V30 3941 C 403.612 -0.531406 -1.87619 0
M  V30 3942 O 402.882 0.454221 -1.90561 0
M  V30 3943 H 401.462 -0.641556 -0.382642 0
M  V30 3944 H 404.124 -1.92163 -0.325489 0
M  V30 3945 H 403.22 -2.63129 -1.67838 0
M  V30 3946 N 403.521 0.559213 -1.47345 0
M  V30 3947 C 404.767 1.31843 -1.54095 0
M  V30 3948 C 405.1 1.93149 -0.201726 0
M  V30 3949 O 404.375 1.77759 0.789428 0
M  V30 3950 C 404.658 2.43006 -2.65744 0
M  V30 3951 C 404.511 1.86581 -4.09277 0
M  V30 3952 C 405.83 3.44943 -2.73318 0
M  V30 3953 H 402.949 0.478012 -0.560957 0
M  V30 3954 H 405.591 0.625977 -1.79392 0
M  V30 3955 H 403.741 3.02072 -2.44305 0
M  V30 3956 H 405.413 1.31792 -4.42073 0
M  V30 3957 H 403.656 1.17268 -4.17649 0
M  V30 3958 H 404.327 2.66933 -4.83168 0
M  V30 3959 H 406.803 2.95793 -2.92653 0
M  V30 3960 H 405.679 4.20153 -3.53218 0
M  V30 3961 H 405.94 4.03665 -1.80296 0
M  V30 3962 N 404.999 1.35443 0.805782 0
M  V30 3963 C 406.246 1.28761 1.56291 0
M  V30 3964 C 406.574 -0.137747 1.94012 0
M  V30 3965 O 405.829 -1.1032 1.61642 0
M  V30 3966 C 406.128 2.14045 2.86216 0
M  V30 3967 C 405.794 3.62826 2.67709 0
M  V30 3968 C 404.456 4.0338 2.6237 0
M  V30 3969 C 406.808 4.57227 2.50186 0
M  V30 3970 C 404.136 5.36501 2.37451 0
M  V30 3971 C 406.488 5.90547 2.26797 0
M  V30 3972 C 405.152 6.30245 2.1988 0
M  V30 3973 H 404.422 0.471171 0.571908 0
M  V30 3974 H 407.069 1.67347 0.930974 0
M  V30 3975 H 405.374 1.68342 3.53791 0
M  V30 3976 H 407.071 2.0621 3.43917 0
M  V30 3977 H 403.661 3.30644 2.72713 0
M  V30 3978 H 407.845 4.2678 2.53323 0
M  V30 3979 H 403.101 5.66259 2.30567 0
M  V30 3980 H 407.275 6.63274 2.12228 0
M  V30 3981 H 404.902 7.33328 2.00333 0
M  V30 3982 N 406.477 -1.02803 1.19454 0
M  V30 3983 C 407.754 -1.73299 0.907013 0
M  V30 3984 C 408.134 -2.02772 -0.587086 0
M  V30 3985 O 407.482 -1.68304 -1.54551 0
M  V30 3986 C 407.692 -3.00912 1.76785 0
M  V30 3987 C 409.04 -3.74403 2.00268 0
M  V30 3988 O 410.064 -3.10841 1.73943 0
M  V30 3989 O 408.923 -4.88675 2.4466 0
M  V30 3990 H 406.017 -0.754727 0.338106 0
M  V30 3991 H 408.563 -1.08754 1.30271 0
M  V30 3992 H 407.335 -2.75366 2.7801 0
M  V30 3993 H 406.958 -3.73197 1.37149 0
M  V30 3994 N 407.956 -0.998596 -1.21925 0
M  V30 3995 C 408.919 -0.558679 -2.22287 0
M  V30 3996 C 409.919 0.361525 -1.56683 0
M  V30 3997 O 411.109 0.152695 -1.73529 0
M  V30 3998 C 408.241 0.18661 -3.40389 0
M  V30 3999 H 409.434 -1.4463 -2.62721 0
M  V30 4000 H 406.987 -0.786413 -1.35075 0
M  V30 4001 H 407.722 1.08996 -3.05435 0
M  V30 4002 H 407.507 -0.474188 -3.89222 0
M  V30 4003 H 408.997 0.482367 -4.14805 0
M  V30 4004 N 409.434 1.37368 -0.772513 0
M  V30 4005 C 410.344 2.34053 -0.160081 0
M  V30 4006 C 411.36 1.60216 0.678728 0
M  V30 4007 O 412.536 1.92303 0.59847 0
M  V30 4008 C 409.601 3.3939 0.708182 0
M  V30 4009 C 408.662 4.29048 -0.147172 0
M  V30 4010 C 407.895 5.29354 0.679744 0
M  V30 4011 O 408.118 5.3723 1.91678 0
M  V30 4012 O 407.052 6.01835 0.0885444 0
M  V30 4013 H 410.878 2.88159 -0.959053 0
M  V30 4014 H 408.463 1.39543 -0.533685 0
M  V30 4015 H 410.345 4.03839 1.20384 0
M  V30 4016 H 409.02 2.8761 1.48533 0
M  V30 4017 H 407.927 3.67697 -0.689205 0
M  V30 4018 H 409.26 4.84134 -0.887423 0
M  V30 4019 N 410.912 0.523116 1.48665 0
M  V30 4020 C 411.822 -0.247406 2.33292 0
M  V30 4021 C 412.838 -0.945769 1.46052 0
M  V30 4022 O 414.014 -0.922253 1.79043 0
M  V30 4023 C 411.079 -1.28487 3.22012 0
M  V30 4024 C 410.14 -0.597592 4.2512 0
M  V30 4025 C 409.373 -1.58563 5.09601 0
M  V30 4026 O 409.596 -2.81763 4.95949 0
M  V30 4027 O 408.53 -1.12879 5.91221 0
M  V30 4028 H 412.356 0.445869 3.00409 0
M  V30 4029 H 409.941 0.284128 1.46673 0
M  V30 4030 H 411.823 -1.88459 3.7691 0
M  V30 4031 H 410.498 -1.96068 2.57564 0
M  V30 4032 H 409.405 0.0424407 3.74076 0
M  V30 4033 H 410.738 0.0361517 4.92187 0
M  V30 4034 N 412.39 -1.55475 0.257931 0
M  V30 4035 C 413.639 -1.98383 -0.364275 0
M  V30 4036 C 413.952 -1.14952 -1.58258 0
M  V30 4037 O 415.158 -1.47924 -2.27664 0
M  V30 4038 C 413.614 -3.53037 -0.699479 0
M  V30 4039 C 413.222 -4.45223 0.498046 0
M  V30 4040 C 414.966 -4.04575 -1.28526 0
M  V30 4041 C 412.873 -5.91238 0.138383 0
M  V30 4042 H 411.803 -0.740911 -0.13988 0
M  V30 4043 H 414.454 -1.79936 0.359883 0
M  V30 4044 H 412.836 -3.6722 -1.48207 0
M  V30 4045 H 414.01 -4.42803 1.27522 0
M  V30 4046 H 412.325 -4.04226 0.999503 0
M  V30 4047 H 414.922 -5.11196 -1.56788 0
M  V30 4048 H 415.265 -3.5258 -2.21344 0
M  V30 4049 H 415.798 -3.93762 -0.565337 0
M  V30 4050 H 412.537 -6.47294 1.03398 0
M  V30 4051 H 412.057 -5.96768 -0.602374 0
M  V30 4052 H 413.736 -6.46413 -0.27553 0
M  V30 4053 N 413.868 0.0150385 -1.57593 0
M  V30 4054 C 415.098 0.713359 -1.93894 0
M  V30 4055 C 415.506 1.68663 -0.857289 0
M  V30 4056 O 414.849 1.82876 0.173788 0
M  V30 4057 C 414.911 1.51348 -3.26089 0
M  V30 4058 C 414.575 0.703451 -4.51554 0
M  V30 4059 C 415.572 -0.00237924 -5.199 0
M  V30 4060 C 413.257 0.653854 -4.98026 0
M  V30 4061 C 415.251 -0.746955 -6.33008 0
M  V30 4062 C 412.938 -0.0944578 -6.11027 0
M  V30 4063 C 413.936 -0.793609 -6.78374 0
M  V30 4064 O 413.624 -1.52974 -7.89211 0
M  V30 4065 H 413.356 0.204637 -0.644282 0
M  V30 4066 H 415.91 -0.0276411 -2.05381 0
M  V30 4067 H 414.14 2.29862 -3.10967 0
M  V30 4068 H 415.829 2.09572 -3.47612 0
M  V30 4069 H 416.595 0.0268803 -4.84993 0
M  V30 4070 H 412.474 1.18756 -4.45441 0
M  V30 4071 H 416.018 -1.2932 -6.85509 0
M  V30 4072 H 411.915 -0.125591 -6.45378 0
M  V30 4073 H 412.683 -1.44488 -8.05646 0
M  V30 4074 N 415.346 1.54954 0.287554 0
M  V30 4075 C 416.293 1.86834 1.35505 0
M  V30 4076 C 417.263 0.718452 1.49758 0
M  V30 4077 O 418.448 0.968358 1.644 0
M  V30 4078 C 415.588 2.13303 2.71286 0
M  V30 4079 C 414.701 3.40883 2.65373 0
M  V30 4080 C 413.836 3.57125 3.93236 0
M  V30 4081 C 412.875 4.78449 3.81776 0
M  V30 4082 N 412.012 4.91426 5.01443 0
M  V30 4083 H 416.852 2.77889 1.07619 0
M  V30 4084 H 414.389 1.37593 0.520241 0
M  V30 4085 H 416.347 2.26646 3.50267 0
M  V30 4086 H 414.977 1.25499 2.97405 0
M  V30 4087 H 414.029 3.36088 1.78182 0
M  V30 4088 H 415.341 4.29993 2.52799 0
M  V30 4089 H 414.495 3.70207 4.80658 0
M  V30 4090 H 413.234 2.66173 4.0866 0
M  V30 4091 H 412.239 4.65386 2.92738 0
M  V30 4092 H 413.464 5.70822 3.67884 0
M  V30 4093 H 411.41 4.03401 5.17304 0
M  V30 4094 H 411.327 5.74559 4.91343 0
M  V30 4095 H 412.595 5.08879 5.90477 0
M  V30 4096 N 416.824 -0.551391 1.4764 0
M  V30 4097 C 417.754 -1.66757 1.63445 0
M  V30 4098 C 418.735 -1.63077 0.483742 0
M  V30 4099 O 419.92 -1.80607 0.71377 0
M  V30 4100 C 417.05 -3.05387 1.65396 0
M  V30 4101 C 416.004 -3.23918 2.79752 0
M  V30 4102 C 415.33 -4.63393 2.66779 0
M  V30 4103 C 416.63 -3.08735 4.21284 0
M  V30 4104 H 418.324 -1.53786 2.56886 0
M  V30 4105 H 415.87 -0.738415 1.23626 0
M  V30 4106 H 417.823 -3.83325 1.75043 0
M  V30 4107 H 416.547 -3.19332 0.685195 0
M  V30 4108 H 415.206 -2.48391 2.69625 0
M  V30 4109 H 414.854 -4.74144 1.67918 0
M  V30 4110 H 414.554 -4.7674 3.43501 0
M  V30 4111 H 416.078 -5.43458 2.78364 0
M  V30 4112 H 417.492 -3.76484 4.32357 0
M  V30 4113 H 415.889 -3.33588 4.98838 0
M  V30 4114 H 416.959 -2.0541 4.39243 0
M  V30 4115 N 418.302 -1.35869 -0.798587 0
M  V30 4116 C 419.265 -1.29307 -1.89242 0
M  V30 4117 C 420.265 -0.202747 -1.59517 0
M  V30 4118 O 421.455 -0.456957 -1.681 0
M  V30 4119 C 418.587 -1.00229 -3.25833 0
M  V30 4120 H 419.78 -2.26576 -1.96478 0
M  V30 4121 H 417.333 -1.20509 -0.995358 0
M  V30 4122 H 418.068 -0.033801 -3.24282 0
M  V30 4123 H 417.853 -1.79121 -3.48795 0
M  V30 4124 H 419.343 -0.98219 -4.05885 0
M  V30 4125 N 419.78 1.02168 -1.19998 0
M  V30 4126 C 420.727 2.10601 -0.944228 0
M  V30 4127 C 421.697 1.65639 0.123664 0
M  V30 4128 O 422.882 1.9079 -0.0199941 0
M  V30 4129 C 420.022 3.41504 -0.496865 0
M  V30 4130 C 419.135 3.99973 -1.63234 0
M  V30 4131 C 418.27 5.18915 -1.13579 0
M  V30 4132 C 417.309 5.69456 -2.24468 0
M  V30 4133 N 416.446 6.79665 -1.76068 0
M  V30 4134 H 421.286 2.31814 -1.8726 0
M  V30 4135 H 418.823 1.13686 -0.933483 0
M  V30 4136 H 420.781 4.16626 -0.218843 0
M  V30 4137 H 419.411 3.2038 0.394508 0
M  V30 4138 H 418.463 3.21997 -2.0254 0
M  V30 4139 H 419.775 4.33492 -2.46752 0
M  V30 4140 H 418.929 6.01222 -0.813429 0
M  V30 4141 H 417.668 4.8695 -0.270434 0
M  V30 4142 H 416.673 4.85757 -2.57526 0
M  V30 4143 H 417.898 6.03459 -3.11472 0
M  V30 4144 H 415.844 6.49538 -0.918516 0
M  V30 4145 H 415.761 7.12349 -2.5317 0
M  V30 4146 H 417.029 7.65549 -1.46817 0
M  V30 4147 N 421.258 1.00505 1.21394 0
M  V30 4148 C 422.168 0.574806 2.27449 0
M  V30 4149 C 423.184 -0.382206 1.6975 0
M  V30 4150 O 424.36 -0.246027 1.99892 0
M  V30 4151 C 421.425 -0.0917414 3.46579 0
M  V30 4152 C 420.486 0.909758 4.1955 0
M  V30 4153 C 419.719 0.274924 5.32991 0
M  V30 4154 O 419.942 -0.928254 5.62796 0
M  V30 4155 O 418.876 0.985877 5.93771 0
M  V30 4156 H 422.702 1.45744 2.66444 0
M  V30 4157 H 420.287 0.773923 1.27792 0
M  V30 4158 H 422.169 -0.464551 4.18832 0
M  V30 4159 H 420.844 -0.948755 3.09484 0
M  V30 4160 H 419.751 1.33372 3.49518 0
M  V30 4161 H 421.084 1.73636 4.60555 0
M  V30 4162 N 422.737 -1.36956 0.779787 0
M  V30 4163 C 423.67 -2.27896 0.117681 0
M  V30 4164 C 424.648 -1.46736 -0.700523 0
M  V30 4165 O 425.832 -1.76055 -0.673568 0
M  V30 4166 C 422.959 -3.28136 -0.839296 0
M  V30 4167 C 422.005 -4.26373 -0.10409 0
M  V30 4168 S 422.838 -5.2157 1.21348 0
M  V30 4169 C 423.994 -6.25359 0.260249 0
M  V30 4170 H 424.227 -2.83704 0.888778 0
M  V30 4171 H 421.76 -1.43352 0.57355 0
M  V30 4172 H 423.718 -3.86394 -1.38601 0
M  V30 4173 H 422.379 -2.7126 -1.58356 0
M  V30 4174 H 421.572 -4.97121 -0.82986 0
M  V30 4175 H 421.174 -3.72147 0.371858 0
M  V30 4176 H 423.466 -6.75145 -0.564435 0
M  V30 4177 H 424.409 -7.01885 0.936135 0
M  V30 4178 H 424.817 -5.64345 -0.132127 0
M  V30 4179 N 424.215 -0.530993 -1.48385 0
M  V30 4180 C 425.178 0.220497 -2.28137 0
M  V30 4181 C 426.178 0.866851 -1.35434 0
M  V30 4182 O 427.368 0.726746 -1.58316 0
M  V30 4183 C 424.5 1.31921 -3.1434 0
M  V30 4184 H 425.693 -0.479714 -2.96038 0
M  V30 4185 H 423.246 -0.286968 -1.53643 0
M  V30 4186 H 423.981 2.05264 -2.51072 0
M  V30 4187 H 423.766 0.86085 -3.82533 0
M  V30 4188 H 425.256 1.84776 -3.74497 0
M  V30 4189 O 425.732 1.56259 -0.408071 0
M  V30 4190 H 426.423 1.93245 0.132688 0
M  V30 END ATOM
M  V30 BEGIN BOND
M  V30 END BOND
M  V30 END CTAB
M  END
$$$$
