drugbank_target|P55809 Succinyl-CoA:3-ketoacid coenzyme A transferase 1, mitochondrial (DB02731)
 OpenBabel12092120083D

  0  0  0     0  0            999 V3000
M  V30 BEGIN CTAB
M  V30 COUNTS 7936 8005 0 0 0
M  V30 BEGIN ATOM
M  V30 1 H -0.908 1.98254 -0.117106 0
M  V30 2 N 0 1.576 0 0
M  V30 3 C 0.933 2.03868 1.02534 0
M  V30 4 C 1.911 0.928543 1.3348 0
M  V30 5 O 3.095 1.19667 1.45644 0
M  V30 6 C 0.222 2.43627 2.35294 0
M  V30 7 C -0.732 3.65373 2.2001 0
M  V30 8 S 0.101 5.13292 1.52614 0
M  V30 9 C 1.257 5.56322 2.86805 0
M  V30 10 H 1.49 2.90518 0.631377 0
M  V30 11 H -0.977 1.52953 0.210867 0
M  V30 12 H 0.981 2.67203 3.11629 0
M  V30 13 H -0.358 1.57376 2.7183 0
M  V30 14 H -1.165 3.90944 3.18086 0
M  V30 15 H -1.563 3.418 1.51819 0
M  V30 16 H 0.729 5.58782 3.83104 0
M  V30 17 H 1.672 6.56266 2.65933 0
M  V30 18 H 2.08 4.83886 2.90714 0
M  V30 19 N 1.4781 -0.272755 1.55222 0
M  V30 20 C 2.4411 -1.32041 1.87344 0
M  V30 21 C 3.4411 -1.42342 0.74803 0
M  V30 22 O 4.6311 -1.41488 1.0162 0
M  V30 23 C 1.7631 -2.70173 2.07893 0
M  V30 24 H 2.9561 -1.04789 2.80997 0
M  V30 25 H 0.5091 -0.51083 1.47717 0
M  V30 26 H 1.2441 -3.02605 1.16622 0
M  V30 27 H 1.0291 -2.64082 2.89833 0
M  V30 28 H 2.5191 -3.45869 2.34017 0
M  V30 29 N 2.9562 -1.48159 -0.537278 0
M  V30 30 C 3.9192 -1.61665 -1.62472 0
M  V30 31 C 4.9192 -0.490395 -1.5314 0
M  V30 32 O 6.1092 -0.755998 -1.5694 0
M  V30 33 C 3.2412 -1.57997 -3.02076 0
M  V30 34 H 4.4342 -2.58621 -1.51839 0
M  V30 35 H 1.9872 -1.36647 -0.758771 0
M  V30 36 H 2.7222 -0.624913 -3.18222 0
M  V30 37 H 2.5072 -2.39755 -3.10258 0
M  V30 38 H 3.9972 -1.70627 -3.81151 0
M  V30 39 N 4.4343 0.785586 -1.36625 0
M  V30 40 C 5.3643 1.91259 -1.33949 0
M  V30 41 C 6.3453 1.68795 -0.210325 0
M  V30 42 O 7.5303 1.89854 -0.408561 0
M  V30 43 C 4.6603 3.28339 -1.13186 0
M  V30 44 C 3.6143 3.65335 -2.22967 0
M  V30 45 C 2.9403 5.00806 -1.87342 0
M  V30 46 C 4.2403 3.7352 -3.65075 0
M  V30 47 H 5.9343 1.93755 -2.28253 0
M  V30 48 H 3.4803 0.930788 -1.09874 0
M  V30 49 H 5.4333 4.06804 -1.09948 0
M  V30 50 H 4.1573 3.2624 -0.153332 0
M  V30 51 H 2.8163 2.89169 -2.25337 0
M  V30 52 H 2.4643 4.95233 -0.880545 0
M  V30 53 H 2.1643 5.26529 -2.60846 0
M  V30 54 H 3.6883 5.81687 -1.85667 0
M  V30 55 H 5.1023 4.42168 -3.64911 0
M  V30 56 H 3.4993 4.10731 -4.37516 0
M  V30 57 H 4.5693 2.74527 -3.99703 0
M  V30 58 N 5.9124 1.20967 1.01018 0
M  V30 59 C 6.8594 0.964281 2.09691 0
M  V30 60 C 7.8294 -0.107853 1.65749 0
M  V30 61 O 9.0144 0.0381987 1.90762 0
M  V30 62 C 6.1544 0.52943 3.41015 0
M  V30 63 C 5.2674 1.67043 3.98398 0
M  V30 64 C 4.4024 1.18525 5.17808 0
M  V30 65 C 3.4414 2.29892 5.67288 0
M  V30 66 N 2.5784 1.82546 6.77954 0
M  V30 67 H 7.4184 1.89463 2.30017 0
M  V30 68 H 4.9554 0.944289 1.1279 0
M  V30 69 H 6.9134 0.258588 4.16398 0
M  V30 70 H 5.5434 -0.363919 3.20742 0
M  V30 71 H 4.5954 2.05603 3.20049 0
M  V30 72 H 5.9074 2.50877 4.31117 0
M  V30 73 H 5.0614 0.870762 6.00419 0
M  V30 74 H 3.8004 0.316887 4.86669 0
M  V30 75 H 2.8054 2.6215 4.83278 0
M  V30 76 H 4.0304 3.17216 6.00459 0
M  V30 77 H 1.9764 0.980454 6.48632 0
M  V30 78 H 1.8934 2.59956 7.09901 0
M  V30 79 H 3.1614 1.54115 7.64113 0
M  V30 80 N 7.3905 -1.2043 1.01659 0
M  V30 81 C 8.3205 -2.25466 0.607226 0
M  V30 82 C 9.3015 -1.65853 -0.377716 0
M  V30 83 O 10.4865 -1.92409 -0.263149 0
M  V30 84 C 7.6165 -3.47256 -0.0552949 0
M  V30 85 C 6.5705 -4.19462 0.850632 0
M  V30 86 C 5.8965 -5.34673 0.0538859 0
M  V30 87 C 7.1965 -4.75603 2.15868 0
M  V30 88 H 8.8905 -2.59962 1.48526 0
M  V30 89 H 6.4365 -1.2496 0.715605 0
M  V30 90 H 8.3895 -4.19917 -0.353233 0
M  V30 91 H 7.1135 -3.11924 -0.968045 0
M  V30 92 H 5.7725 -3.48667 1.13257 0
M  V30 93 H 5.4205 -4.95585 -0.860514 0
M  V30 94 H 5.1205 -5.83913 0.657192 0
M  V30 95 H 6.6445 -6.10138 -0.237598 0
M  V30 96 H 8.0585 -5.40083 1.92311 0
M  V30 97 H 6.4555 -5.3528 2.71284 0
M  V30 98 H 7.5255 -3.94346 2.82169 0
M  V30 99 N 8.8686 -0.792821 -1.36206 0
M  V30 100 C 9.7986 -0.207853 -2.32573 0
M  V30 101 C 10.7796 0.659055 -1.56813 0
M  V30 102 O 11.9646 0.592176 -1.84951 0
M  V30 103 C 9.0946 0.655449 -3.41059 0
M  V30 104 C 8.0486 -0.111842 -4.27854 0
M  V30 105 C 7.3746 0.872274 -5.27537 0
M  V30 106 C 8.6746 -1.30299 -5.05786 0
M  V30 107 H 10.3686 -1.01294 -2.81744 0
M  V30 108 H 7.9146 -0.48854 -1.3546 0
M  V30 109 H 9.8676 1.07464 -4.07467 0
M  V30 110 H 8.5916 1.49328 -2.90463 0
M  V30 111 H 7.2506 -0.512053 -3.63006 0
M  V30 112 H 6.8986 1.70523 -4.73214 0
M  V30 113 H 6.5986 0.363291 -5.86476 0
M  V30 114 H 8.1226 1.28996 -5.96818 0
M  V30 115 H 9.5366 -0.959379 -5.65216 0
M  V30 116 H 7.9336 -1.7455 -5.74154 0
M  V30 117 H 9.0036 -2.09663 -4.37229 0
M  V30 118 N 10.3467 1.47872 -0.545128 0
M  V30 119 C 11.5717 2.07391 -0.0190611 0
M  V30 120 C 11.9967 1.39688 1.25971 0
M  V30 121 O 11.3547 0.467816 1.7516 0
M  V30 122 C 11.4027 3.60188 0.172335 0
M  V30 123 O 10.5067 3.9339 1.23766 0
M  V30 124 H 9.8477 0.662411 -0.0459059 0
M  V30 125 H 12.3777 1.90066 -0.757365 0
M  V30 126 H 12.3877 4.06129 0.390305 0
M  V30 127 H 11.0627 4.08865 -0.761725 0
M  V30 128 H 9.6397 3.5921 1.00114 0
M  V30 129 N 11.8248 0.280983 1.55075 0
M  V30 130 C 13.0498 -0.340154 2.04592 0
M  V30 131 C 13.4748 -1.48246 1.15779 0
M  V30 132 O 12.8328 -1.80614 0.15761 0
M  V30 133 C 12.8808 -0.793104 3.5177 0
M  V30 134 O 11.9848 -1.89981 3.66034 0
M  V30 135 H 11.3258 -0.0694289 0.66036 0
M  V30 136 H 13.8558 0.416993 2.00306 0
M  V30 137 H 13.8658 -1.08729 3.93245 0
M  V30 138 H 12.5408 0.0426163 4.15878 0
M  V30 139 H 11.1178 -1.60771 3.36463 0
M  V30 140 N 13.3029 -1.57598 0.00835791 0
M  V30 141 C 14.5509 -1.90551 -0.6734 0
M  V30 142 C 14.8719 -0.883301 -1.73847 0
M  V30 143 O 14.1419 0.0781442 -1.95744 0
M  V30 144 H 12.7219 -0.703312 -0.251717 0
M  V30 145 H 15.3839 -1.94833 0.0512592 0
M  V30 146 H 14.4799 -2.9056 -1.13935 0
M  V30 147 N 14.781 0.264519 -1.55364 0
M  V30 148 C 15.711 1.33121 -1.91836 0
M  V30 149 C 16.692 1.51101 -0.781192 0
M  V30 150 O 17.877 1.64003 -1.04003 0
M  V30 151 C 15.007 2.68921 -2.19769 0
M  V30 152 C 13.961 2.65661 -3.35571 0
M  V30 153 C 13.287 4.05093 -3.49004 0
M  V30 154 C 14.587 2.24187 -4.71739 0
M  V30 155 H 16.281 1.02844 -2.81182 0
M  V30 156 H 13.827 0.493286 -1.35287 0
M  V30 157 H 15.78 3.43663 -2.43872 0
M  V30 158 H 14.504 3.00799 -1.27231 0
M  V30 159 H 13.163 1.93377 -3.1145 0
M  V30 160 H 12.811 4.34206 -2.53917 0
M  V30 161 H 12.511 4.03804 -4.26868 0
M  V30 162 H 14.035 4.81561 -3.75408 0
M  V30 163 H 15.449 2.88654 -4.9533 0
M  V30 164 H 13.846 2.34044 -5.52579 0
M  V30 165 H 14.916 1.19327 -4.69988 0
M  V30 166 N 16.2591 1.48442 0.529413 0
M  V30 167 C 17.6751 1.34575 0.858004 0
M  V30 168 C 17.8751 0.3572 1.98309 0
M  V30 169 O 16.9311 -0.221379 2.51528 0
M  V30 170 C 18.2441 2.74617 1.22499 0
M  V30 171 C 19.7921 2.83109 1.33484 0
M  V30 172 C 20.2671 4.23854 1.73526 0
M  V30 173 N 21.7581 4.2653 1.80628 0
M  V30 174 C 22.4931 5.32372 2.12997 0
M  V30 175 N 21.9891 6.48491 2.43786 0
M  V30 176 N 23.7821 5.19766 2.14008 0
M  V30 177 H 15.9331 2.1133 -0.212925 0
M  V30 178 H 18.1961 0.947439 -0.0326199 0
M  V30 179 H 17.9021 3.4852 0.471905 0
M  V30 180 H 17.7761 3.08177 2.17501 0
M  V30 181 H 20.1631 2.09462 2.0787 0
M  V30 182 H 20.2441 2.53168 0.366027 0
M  V30 183 H 19.8881 4.98018 0.997013 0
M  V30 184 H 19.8181 4.5124 2.71459 0
M  V30 185 H 22.3091 3.42772 1.59108 0
M  V30 186 H 22.6221 7.24993 2.67592 0
M  V30 187 H 20.9671 6.51765 2.41304 0
M  V30 188 H 24.1581 4.28066 1.89412 0
M  V30 189 H 24.3311 6.02354 2.38902 0
M  V30 190 N 17.7372 -0.778329 1.37039 0
M  V30 191 C 18.6672 -1.90546 1.34962 0
M  V30 192 C 19.6482 -1.68681 0.219274 0
M  V30 193 O 20.8332 -1.89634 0.418624 0
M  V30 194 C 17.9632 -3.27734 1.14925 0
M  V30 195 C 16.9172 -3.64147 2.24902 0
M  V30 196 C 16.2432 -4.99806 1.89996 0
M  V30 197 C 17.5432 -3.71579 3.67051 0
M  V30 198 H 19.2372 -1.92541 2.29277 0
M  V30 199 H 16.7832 -0.924948 1.10366 0
M  V30 200 H 18.7362 -4.06215 1.12104 0
M  V30 201 H 17.4602 -3.26154 0.170631 0
M  V30 202 H 16.1192 -2.8797 2.26868 0
M  V30 203 H 15.7672 -4.94759 0.906796 0
M  V30 204 H 15.4672 -5.25139 2.63634 0
M  V30 205 H 16.9912 -5.80694 1.88749 0
M  V30 206 H 18.4052 -4.40227 3.67251 0
M  V30 207 H 16.8022 -4.08405 4.39688 0
M  V30 208 H 17.8722 -2.72404 4.01154 0
M  V30 209 N 19.2153 -1.21501 -1.00376 0
M  V30 210 C 20.4553 -1.04444 -1.75701 0
M  V30 211 C 20.8193 0.414644 -1.87469 0
M  V30 212 O 22.0203 0.705763 -2.59369 0
M  V30 213 C 20.2913 -1.72389 -3.13077 0
M  V30 214 S 21.8503 -1.70604 -4.04277 0
M  V30 215 H 18.6683 -0.374249 -0.604532 0
M  V30 216 H 21.2703 -1.54267 -1.20091 0
M  V30 217 H 19.9743 -2.77734 -3.02146 0
M  V30 218 H 19.5053 -1.22751 -3.73759 0
M  V30 219 H 21.5203 -0.748012 -4.9053 0
M  V30 220 N 20.6934 1.19889 -1.02296 0
M  V30 221 C 21.6564 2.21116 -0.603351 0
M  V30 222 C 22.6564 1.5738 0.329884 0
M  V30 223 O 23.8464 1.73802 0.117702 0
M  V30 224 C 20.9784 3.40696 0.117992 0
M  V30 225 H 22.1714 2.59754 -1.49893 0
M  V30 226 H 19.7244 1.33463 -0.813468 0
M  V30 227 H 20.4594 3.07569 1.0282 0
M  V30 228 H 20.2444 3.88188 -0.552511 0
M  V30 229 H 21.7344 4.15692 0.398696 0
M  V30 230 N 22.1715 0.800033 1.35784 0
M  V30 231 C 23.3965 0.388511 2.03729 0
M  V30 232 C 23.8215 -0.990481 1.5991 0
M  V30 233 O 23.1795 -1.64013 0.772612 0
M  V30 234 C 23.2275 0.4726 3.5749 0
M  V30 235 O 22.3315 -0.51646 4.09153 0
M  V30 236 H 21.6725 0.163271 0.643614 0
M  V30 237 H 24.2025 1.0841 1.73518 0
M  V30 238 H 24.2125 0.34003 4.06581 0
M  V30 239 H 22.8875 1.47848 3.88734 0
M  V30 240 H 21.4645 -0.344673 3.71304 0
M  V30 241 N 23.6496 -1.47581 0.552962 0
M  V30 242 C 24.6126 -2.28439 -0.186605 0
M  V30 243 C 25.6126 -1.36706 -0.84665 0
M  V30 244 O 26.8026 -1.59378 -0.703164 0
M  V30 245 C 23.9346 -3.16264 -1.2724 0
M  V30 246 H 25.1276 -2.95294 0.523609 0
M  V30 247 H 22.6806 -1.532 0.309745 0
M  V30 248 H 23.4156 -2.54091 -2.01514 0
M  V30 249 H 23.2006 -3.83769 -0.803968 0
M  V30 250 H 24.6906 -3.77198 -1.79196 0
M  V30 251 N 25.1277 -0.289203 -1.54924 0
M  V30 252 C 26.5437 0.0645403 -1.59469 0
M  V30 253 C 26.7437 1.53419 -1.30632 0
M  V30 254 O 25.7997 2.2852 -1.074 0
M  V30 255 C 27.1127 -0.32278 -2.98963 0
M  V30 256 C 28.6607 -0.270564 -3.11828 0
M  V30 257 C 29.1357 -0.632532 -4.53611 0
M  V30 258 N 30.6267 -0.584617 -4.59496 0
M  V30 259 C 31.3617 -0.837314 -5.67254 0
M  V30 260 N 30.8577 -1.15536 -6.83098 0
M  V30 261 N 32.6507 -0.765166 -5.56868 0
M  V30 262 H 24.8017 -1.24714 -1.71931 0
M  V30 263 H 27.0647 -0.504809 -0.802416 0
M  V30 264 H 26.7707 -1.34541 -3.24948 0
M  V30 265 H 26.6447 0.32944 -3.75759 0
M  V30 266 H 29.0317 0.742805 -2.85598 0
M  V30 267 H 29.1127 -0.957242 -2.37214 0
M  V30 268 H 28.7567 -1.64365 -4.80569 0
M  V30 269 H 28.6867 0.07609 -5.26545 0
M  V30 270 H 31.1777 -0.349248 -3.76283 0
M  V30 271 H 31.4907 -1.33447 -7.61191 0
M  V30 272 H 29.8357 -1.19328 -6.84679 0
M  V30 273 H 33.0267 -0.516432 -4.65243 0
M  V30 274 H 33.1997 -0.965477 -6.40767 0
M  V30 275 N 26.6058 1.57591 -0.0167156 0
M  V30 276 C 27.8538 1.90906 0.663285 0
M  V30 277 C 28.1748 0.892509 1.73376 0
M  V30 278 O 27.4448 -0.0677623 1.95783 0
M  V30 279 H 26.0248 0.704637 0.247983 0
M  V30 280 H 28.6868 1.94803 -0.0615909 0
M  V30 281 H 27.7828 2.9116 1.12393 0
M  V30 282 N 28.0839 -0.256276 1.55502 0
M  V30 283 C 29.3089 -1.00766 1.81276 0
M  V30 284 C 29.7339 -1.78524 0.59252 0
M  V30 285 O 29.0919 -1.75413 -0.45827 0
M  V30 286 C 29.1399 -1.92869 3.04687 0
M  V30 287 O 28.2439 -3.019 2.80945 0
M  V30 288 H 27.5849 -0.287224 0.598664 0
M  V30 289 H 30.1149 -0.280109 2.02674 0
M  V30 290 H 30.1249 -2.34511 3.33869 0
M  V30 291 H 28.7999 -1.35689 3.93143 0
M  V30 292 H 27.3769 -2.64454 2.62904 0
M  V30 293 N 29.562 -1.4872 -0.521534 0
M  V30 294 C 30.81 -1.56857 -1.27437 0
M  V30 295 C 31.131 -0.247982 -1.93417 0
M  V30 296 O 30.401 0.731151 -1.81744 0
M  V30 297 H 28.981 -0.577885 -0.473347 0
M  V30 298 H 31.643 -1.85233 -0.606205 0
M  V30 299 H 30.739 -2.35402 -2.0492 0
M  V30 300 N 31.0401 0.771051 -1.3745 0
M  V30 301 C 32.0031 1.86598 -1.33093 0
M  V30 302 C 33.0031 1.59076 -0.234845 0
M  V30 303 O 34.1931 1.67145 -0.490732 0
M  V30 304 C 31.3251 3.23747 -1.06773 0
M  V30 305 H 32.5181 1.91873 -2.30488 0
M  V30 306 H 30.0711 0.970876 -1.2249 0
M  V30 307 H 30.8061 3.24148 -0.099129 0
M  V30 308 H 30.5911 3.45115 -1.86112 0
M  V30 309 H 32.0811 4.03824 -1.06377 0
M  V30 310 N 32.5182 1.22032 0.997298 0
M  V30 311 C 33.7462 1.06841 1.7718 0
M  V30 312 C 34.1612 -0.381325 1.84909 0
M  V30 313 O 33.5182 -1.26437 1.31605 0
M  V30 314 C 33.5692 1.66814 3.20711 0
M  V30 315 O 33.2902 3.06116 3.13408 0
M  V30 316 C 34.7912 1.56838 4.14628 0
M  V30 317 H 32.0112 0.374782 0.556578 0
M  V30 318 H 34.5552 1.61532 1.2541 0
M  V30 319 H 32.7102 1.16196 3.69564 0
M  V30 320 H 33.1242 3.34926 4.0364 0
M  V30 321 H 34.5982 2.03532 5.13107 0
M  V30 322 H 35.0752 0.524155 4.36061 0
M  V30 323 H 35.6812 2.06741 3.7167 0
M  V30 324 N 33.9963 -1.19345 1.0293 0
M  V30 325 C 35.2423 -1.89585 0.736824 0
M  V30 326 C 35.5973 -1.78148 -0.726703 0
M  V30 327 O 34.8903 -1.16332 -1.52242 0
M  V30 328 C 35.0843 -3.39292 1.12319 0
M  V30 329 C 34.9133 -3.65298 2.62273 0
M  V30 330 C 33.6833 -3.83304 3.29251 0
M  V30 331 C 35.8813 -3.6682 3.60482 0
M  V30 332 N 33.8633 -3.96944 4.68304 0
M  V30 333 C 35.2343 -3.86037 4.85155 0
M  V30 334 C 37.2893 -3.49848 3.54275 0
M  V30 335 C 35.9923 -3.9004 6.04369 0
M  V30 336 C 38.0183 -3.55129 4.72903 0
M  V30 337 C 37.3803 -3.74831 5.9639 0
M  V30 338 H 33.4793 -0.712856 0.321497 0
M  V30 339 H 36.0633 -1.43427 1.31669 0
M  V30 340 H 34.2343 -3.84172 0.571524 0
M  V30 341 H 35.9663 -3.97055 0.78292 0
M  V30 342 H 32.7213 -3.82211 2.79663 0
M  V30 343 H 33.1453 -4.07613 5.40538 0
M  V30 344 H 37.7873 -3.33572 2.59788 0
M  V30 345 H 35.5053 -4.05108 6.99223 0
M  V30 346 H 39.0913 -3.43287 4.69729 0
M  V30 347 H 37.9713 -3.78792 6.86649 0
M  V30 348 N 35.4744 -0.807222 -1.35358 0
M  V30 349 C 36.7044 -0.399796 -2.02695 0
M  V30 350 C 37.1124 0.994176 -1.60974 0
M  V30 351 O 36.4554 1.65209 -0.803226 0
M  V30 352 C 36.5174 -0.404445 -3.57218 0
M  V30 353 C 36.1814 -1.74904 -4.22206 0
M  V30 354 C 37.1784 -2.70743 -4.4384 0
M  V30 355 C 34.8634 -2.03322 -4.5931 0
M  V30 356 C 36.8574 -3.93183 -5.01683 0
M  V30 357 C 34.5444 -3.26026 -5.16866 0
M  V30 358 C 35.5424 -4.20774 -5.37994 0
M  V30 359 O 35.2304 -5.41312 -5.94337 0
M  V30 360 H 34.9624 -0.160517 -0.656666 0
M  V30 361 H 37.5164 -1.09235 -1.73945 0
M  V30 362 H 35.7464 0.344707 -3.85161 0
M  V30 363 H 37.4354 -0.0192429 -4.05895 0
M  V30 364 H 38.2014 -2.5008 -4.15554 0
M  V30 365 H 34.0804 -1.30384 -4.42178 0
M  V30 366 H 37.6244 -4.6715 -5.1809 0
M  V30 367 H 33.5214 -3.46559 -5.44579 0
M  V30 368 H 34.2894 -5.42618 -6.12787 0
M  V30 369 N 36.9525 1.47285 -0.560781 0
M  V30 370 C 37.8995 2.30058 0.18491 0
M  V30 371 C 38.8695 1.39281 0.904986 0
M  V30 372 O 40.0545 1.68241 0.899979 0
M  V30 373 C 37.1945 3.23317 1.20666 0
M  V30 374 C 36.3075 4.29186 0.492285 0
M  V30 375 C 35.4425 5.09592 1.49964 0
M  V30 376 C 34.4815 6.07232 0.770439 0
M  V30 377 N 33.6185 6.80584 1.72479 0
M  V30 378 H 38.4585 2.93302 -0.527048 0
M  V30 379 H 35.9955 1.44568 -0.271738 0
M  V30 380 H 37.9535 3.75811 1.81168 0
M  V30 381 H 36.5835 2.61929 1.88661 0
M  V30 382 H 35.6355 3.7972 -0.227333 0
M  V30 383 H 36.9475 4.98738 -0.0787929 0
M  V30 384 H 36.1015 5.66254 2.17809 0
M  V30 385 H 34.8405 4.3995 2.10464 0
M  V30 386 H 33.8455 5.49745 0.0780846 0
M  V30 387 H 35.0705 6.78884 0.171134 0
M  V30 388 H 33.0165 6.1367 2.3183 0
M  V30 389 H 32.9335 7.46319 1.20596 0
M  V30 390 H 34.2015 7.41818 2.39428 0
M  V30 391 N 38.4306 0.297415 1.54768 0
M  V30 392 C 39.6786 -0.312295 1.99673 0
M  V30 393 C 39.9996 -1.54686 1.18732 0
M  V30 394 O 39.2696 -1.93854 0.282382 0
M  V30 395 H 37.8496 -0.118381 0.73756 0
M  V30 396 H 40.5116 0.407915 1.90583 0
M  V30 397 H 39.6076 -0.586813 3.06534 0
M  V30 398 N 39.9087 -1.5758 0.0250728 0
M  V30 399 C 41.1487 -1.93497 -0.65865 0
M  V30 400 C 41.5127 -0.901409 -1.69525 0
M  V30 401 O 42.7137 -1.14664 -2.43116 0
M  V30 402 C 40.9847 -3.34352 -1.26267 0
M  V30 403 S 42.5437 -3.92191 -1.96803 0
M  V30 404 H 39.3617 -0.67709 -0.216958 0
M  V30 405 H 41.9637 -1.95303 0.0877692 0
M  V30 406 H 40.6677 -4.07395 -0.495741 0
M  V30 407 H 40.1987 -3.3598 -2.04648 0
M  V30 408 H 42.2137 -3.75298 -3.24601 0
M  V30 409 N 41.3868 0.248026 -1.55636 0
M  V30 410 C 42.6328 0.97767 -1.77678 0
M  V30 411 C 42.9658 1.85016 -0.590135 0
M  V30 412 O 42.2408 1.90095 0.411611 0
M  V30 413 C 42.5238 1.83914 -3.09593 0
M  V30 414 C 42.3768 0.99491 -4.38659 0
M  V30 415 C 43.6958 2.82183 -3.37729 0
M  V30 416 H 40.8148 0.354005 -0.646413 0
M  V30 417 H 43.4568 0.248253 -1.88371 0
M  V30 418 H 41.6068 2.46104 -3.00608 0
M  V30 419 H 43.2788 0.391789 -4.59633 0
M  V30 420 H 41.5218 0.299231 -4.32767 0
M  V30 421 H 42.1928 1.63145 -5.2734 0
M  V30 422 H 44.6688 2.30129 -3.4667 0
M  V30 423 H 43.5448 3.39582 -4.31249 0
M  V30 424 H 43.8058 3.58588 -2.58586 0
M  V30 425 N 42.8649 1.48995 0.513639 0
M  V30 426 C 44.1049 1.59452 1.27885 0
M  V30 427 C 44.4689 0.269479 1.90099 0
M  V30 428 O 45.6699 0.249139 2.67643 0
M  V30 429 C 43.9409 2.71277 2.32688 0
M  V30 430 S 45.4999 3.01604 3.18717 0
M  V30 431 H 42.3179 0.562565 0.434789 0
M  V30 432 H 44.9199 1.86595 0.583301 0
M  V30 433 H 43.6239 3.66089 1.8549 0
M  V30 434 H 43.1549 2.46086 3.06929 0
M  V30 435 H 45.1699 2.42155 4.331 0
M  V30 436 N 44.343 -0.763751 1.37857 0
M  V30 437 C 45.568 -1.55805 1.36893 0
M  V30 438 C 45.993 -1.88054 -0.0416135 0
M  V30 439 O 45.351 -1.49825 -1.02089 0
M  V30 440 C 45.399 -2.84012 2.22192 0
M  V30 441 O 44.503 -3.78732 1.63204 0
M  V30 442 H 43.844 -0.471638 0.46739 0
M  V30 443 H 46.374 -0.944657 1.81487 0
M  V30 444 H 46.384 -3.33037 2.35691 0
M  V30 445 H 45.059 -2.59869 3.24716 0
M  V30 446 H 43.636 -3.37402 1.58791 0
M  V30 447 N 45.8211 -1.22559 -0.990812 0
M  V30 448 C 47.0681 -1.05141 -1.73065 0
M  V30 449 C 47.3961 0.413191 -1.9006 0
M  V30 450 O 46.6511 1.32257 -1.44245 0
M  V30 451 C 46.9501 -1.71011 -3.13831 0
M  V30 452 C 46.6161 -3.20911 -3.16745 0
M  V30 453 C 45.2781 -3.61812 -3.17247 0
M  V30 454 C 47.6301 -4.16846 -3.12872 0
M  V30 455 C 44.9581 -4.97127 -3.1158 0
M  V30 456 C 47.3101 -5.5214 -3.08746 0
M  V30 457 C 45.9741 -5.92419 -3.07565 0
M  V30 458 H 45.2441 -0.384738 -0.633291 0
M  V30 459 H 47.8911 -1.5235 -1.16025 0
M  V30 460 H 46.1961 -1.16133 -3.74193 0
M  V30 461 H 47.8931 -1.55023 -3.69823 0
M  V30 462 H 44.4831 -2.88344 -3.17105 0
M  V30 463 H 48.6671 -3.86263 -3.11632 0
M  V30 464 H 43.9231 -5.27562 -3.09012 0
M  V30 465 H 48.0971 -6.26201 -3.04705 0
M  V30 466 H 45.7241 -6.97236 -3.02929 0
M  V30 467 N 47.2992 1.18797 -1.03562 0
M  V30 468 C 48.5242 1.9314 -0.755764 0
M  V30 469 C 48.9492 1.7537 0.68022 0
M  V30 470 O 48.3072 1.06046 1.47051 0
M  V30 471 C 48.3552 3.42747 -1.12058 0
M  V30 472 O 47.4592 4.11683 -0.243124 0
M  V30 473 H 46.8002 0.602724 -0.278604 0
M  V30 474 H 49.3302 1.50678 -1.3841 0
M  V30 475 H 49.3402 3.93437 -1.08035 0
M  V30 476 H 48.0152 3.55002 -2.16672 0
M  V30 477 H 46.5922 3.71323 -0.342539 0
M  V30 478 N 48.7773 0.814389 1.34928 0
M  V30 479 C 50.0053 0.411136 2.02774 0
M  V30 480 C 50.4203 -0.980316 1.61354 0
M  V30 481 O 49.7773 -1.63299 0.814847 0
M  V30 482 C 49.8283 0.493865 3.58111 0
M  V30 483 O 49.5493 1.83047 3.98027 0
M  V30 484 C 51.0503 0.0844174 4.4322 0
M  V30 485 H 48.2703 0.166037 0.650133 0
M  V30 486 H 50.8143 1.10018 1.72384 0
M  V30 487 H 48.9693 -0.147006 3.87121 0
M  V30 488 H 49.3833 1.79872 4.92693 0
M  V30 489 H 50.8573 0.193404 5.51661 0
M  V30 490 H 51.3343 -0.97113 4.28329 0
M  V30 491 H 51.9403 0.69875 4.19521 0
M  V30 492 N 50.2554 -1.46986 0.568584 0
M  V30 493 C 51.4804 -2.07335 0.0520528 0
M  V30 494 C 51.9054 -1.41675 -1.23733 0
M  V30 495 O 51.2634 -0.495623 -1.74394 0
M  V30 496 C 51.3114 -3.60417 -0.11501 0
M  V30 497 O 50.4154 -3.95309 -1.17492 0
M  V30 498 H 49.7564 -0.661597 0.0564385 0
M  V30 499 H 52.2864 -1.88837 0.787507 0
M  V30 500 H 52.2964 -4.06698 -0.325644 0
M  V30 501 H 50.9714 -4.07601 0.826675 0
M  V30 502 H 49.5484 -3.60757 -0.943869 0
M  V30 503 N 51.7335 -0.305618 -1.54608 0
M  V30 504 C 52.6965 0.555591 -2.22364 0
M  V30 505 C 53.6965 1.05768 -1.21119 0
M  V30 506 O 54.8865 0.952972 -1.45822 0
M  V30 507 C 52.0185 1.76974 -2.91364 0
M  V30 508 H 53.2115 -0.0364572 -2.99878 0
M  V30 509 H 50.7645 -0.0565007 -1.56198 0
M  V30 510 H 51.4995 2.40151 -2.17941 0
M  V30 511 H 51.2845 1.41732 -3.65588 0
M  V30 512 H 52.7745 2.38148 -3.43038 0
M  V30 513 N 53.2116 1.57565 -0.0334293 0
M  V30 514 C 54.1616 2.06978 0.956237 0
M  V30 515 C 55.1456 0.971193 1.28283 0
M  V30 516 O 56.3376 1.23471 1.26822 0
M  V30 517 C 53.4666 2.60393 2.23719 0
M  V30 518 C 52.5526 3.7719 1.93877 0
M  V30 519 N 52.9436 4.87639 1.34321 0
M  V30 520 C 51.2416 3.85758 2.23845 0
M  V30 521 C 51.9426 5.68825 1.21709 0
M  V30 522 N 50.9186 5.1587 1.71404 0
M  V30 523 H 54.7206 2.89773 0.490815 0
M  V30 524 H 52.2346 1.61492 0.171478 0
M  V30 525 H 54.2316 2.94088 2.95496 0
M  V30 526 H 52.8916 1.79031 2.70884 0
M  V30 527 H 53.9026 5.07803 1.01767 0
M  V30 528 H 50.5796 3.1531 2.73653 0
M  V30 529 H 51.9696 6.67631 0.75621 0
M  V30 530 N 54.6897 -0.239769 1.55765 0
M  V30 531 C 56.1057 -0.588624 1.48349 0
M  V30 532 C 56.3057 -1.88005 0.72502 0
M  V30 533 O 55.3617 -2.51186 0.257269 0
M  V30 534 C 56.6747 -0.68474 2.928 0
M  V30 535 C 58.2227 -0.77659 3.03213 0
M  V30 536 C 58.6977 -0.904207 4.48986 0
M  V30 537 N 60.1887 -0.968896 4.52953 0
M  V30 538 C 60.9237 -1.08703 5.63002 0
M  V30 539 N 60.4197 -1.17026 6.82845 0
M  V30 540 N 62.2127 -1.12074 5.50814 0
M  V30 541 H 54.3637 0.607911 2.03515 0
M  V30 542 H 56.6267 0.21083 0.924259 0
M  V30 543 H 56.3327 0.194284 3.51163 0
M  V30 544 H 56.2067 -1.55435 3.43686 0
M  V30 545 H 58.5937 -1.64606 2.44926 0
M  V30 546 H 58.6747 0.118315 2.55526 0
M  V30 547 H 58.3187 -0.0392633 5.07885 0
M  V30 548 H 58.2487 -1.81426 4.9436 0
M  V30 549 H 60.7397 -0.915633 3.6664 0
M  V30 550 H 61.0527 -1.25966 7.62465 0
M  V30 551 H 59.3977 -1.13971 6.85591 0
M  V30 552 H 62.5887 -1.05226 4.5612 0
M  V30 553 H 62.7617 -1.20936 6.36615 0
M  V30 554 N 56.1678 -1.49265 -0.50573 0
M  V30 555 C 57.1178 -1.6198 -1.60457 0
M  V30 556 C 58.1018 -0.47568 -1.53708 0
M  V30 557 O 59.2938 -0.728392 -1.61318 0
M  V30 558 C 56.4228 -1.68526 -2.99089 0
M  V30 559 C 55.5088 -2.885 -3.10852 0
M  V30 560 N 55.8998 -4.12635 -2.92517 0
M  V30 561 C 54.1978 -2.86338 -3.41945 0
M  V30 562 C 54.8988 -4.93258 -3.08337 0
M  V30 563 N 53.8748 -4.26533 -3.37003 0
M  V30 564 H 57.6768 -2.55681 -1.44928 0
M  V30 565 H 55.1908 -1.45972 -0.711752 0
M  V30 566 H 57.1878 -1.75732 -3.78053 0
M  V30 567 H 55.8478 -0.759584 -3.1569 0
M  V30 568 H 56.8588 -4.42689 -2.68787 0
M  V30 569 H 53.5358 -2.03129 -3.64753 0
M  V30 570 H 54.9258 -6.01856 -2.98695 0
M  V30 571 N 57.6459 0.756429 -1.3826 0
M  V30 572 C 58.8739 1.54565 -1.3754 0
M  V30 573 C 59.2889 1.88767 0.0355331 0
M  V30 574 O 58.6459 1.52572 1.0014 0
M  V30 575 C 58.6969 2.84654 -2.22833 0
M  V30 576 O 58.4179 2.51912 -3.5843 0
M  V30 577 C 59.9189 3.78807 -2.30261 0
M  V30 578 H 57.1389 0.478353 -0.470553 0
M  V30 579 H 59.6829 0.936381 -1.81803 0
M  V30 580 H 57.8379 3.41965 -1.8204 0
M  V30 581 H 58.2519 3.35325 -4.03308 0
M  V30 582 H 59.7259 4.67045 -2.94233 0
M  V30 583 H 60.2029 4.19038 -1.31545 0
M  V30 584 H 60.8089 3.2742 -2.71433 0
M  V30 585 N 59.124 1.23083 0.984299 0
M  V30 586 C 60.071 1.00854 2.07598 0
M  V30 587 C 61.041 -0.0726709 1.65941 0
M  V30 588 O 62.226 0.0786535 1.90638 0
M  V30 589 C 59.366 0.601645 3.39815 0
M  V30 590 C 58.479 1.75456 3.94765 0
M  V30 591 C 57.614 1.29482 5.15177 0
M  V30 592 C 56.653 2.41873 5.62284 0
M  V30 593 N 55.79 1.96885 6.73929 0
M  V30 594 H 60.63 1.943 2.25946 0
M  V30 595 H 58.167 0.968001 1.10762 0
M  V30 596 H 60.125 0.346854 4.15756 0
M  V30 597 H 58.755 -0.295803 3.21442 0
M  V30 598 H 57.807 2.12346 3.15616 0
M  V30 599 H 59.119 2.59965 4.25699 0
M  V30 600 H 58.273 0.997923 5.98437 0
M  V30 601 H 57.012 0.420046 4.85888 0
M  V30 602 H 56.017 2.72342 4.77608 0
M  V30 603 H 57.242 3.29881 5.93595 0
M  V30 604 H 55.188 1.11782 6.46406 0
M  V30 605 H 55.105 2.74956 7.04227 0
M  V30 606 H 56.373 1.70289 7.60672 0
M  V30 607 N 60.6021 -1.18246 1.0419 0
M  V30 608 C 61.8491 -1.88257 0.746017 0
M  V30 609 C 62.1771 -1.80429 -0.726331 0
M  V30 610 O 61.4321 -1.2 -1.54591 0
M  V30 611 C 61.7311 -3.38082 1.15911 0
M  V30 612 C 61.3971 -3.66114 2.63195 0
M  V30 613 C 60.0591 -3.73474 3.03432 0
M  V30 614 C 62.4111 -3.78398 3.5842 0
M  V30 615 C 59.7391 -3.90599 4.37778 0
M  V30 616 C 62.0911 -3.97039 4.92487 0
M  V30 617 C 60.7551 -4.02635 5.32392 0
M  V30 618 H 60.0251 -0.688883 0.272987 0
M  V30 619 H 62.6721 -1.3995 1.30715 0
M  V30 620 H 60.9771 -3.88377 0.516806 0
M  V30 621 H 62.6741 -3.90596 0.907516 0
M  V30 622 H 59.2641 -3.61003 2.3103 0
M  V30 623 H 63.4481 -3.72042 3.28479 0
M  V30 624 H 58.7041 -3.93175 4.68213 0
M  V30 625 H 62.8781 -4.05486 5.66175 0
M  V30 626 H 60.5051 -4.15657 6.36501 0
M  V30 627 N 62.0802 -0.821533 -1.34494 0
M  V30 628 C 63.3102 -0.421272 -2.02259 0
M  V30 629 C 63.7182 0.977047 -1.6202 0
M  V30 630 O 63.0612 1.64348 -0.820703 0
M  V30 631 C 63.1232 -0.44231 -3.56769 0
M  V30 632 C 62.7872 -1.79372 -4.20327 0
M  V30 633 C 63.7842 -2.75435 -4.40944 0
M  V30 634 C 61.4692 -2.08182 -4.57127 0
M  V30 635 C 63.4632 -3.98482 -4.97484 0
M  V30 636 C 61.1502 -3.31489 -5.13379 0
M  V30 637 C 62.1482 -4.26457 -5.33501 0
M  V30 638 O 61.8362 -5.47585 -5.88562 0
M  V30 639 H 61.5682 -0.167473 -0.654927 0
M  V30 640 H 64.1222 -1.11073 -1.72777 0
M  V30 641 H 62.3522 0.303836 -3.85505 0
M  V30 642 H 64.0412 -0.0622925 -4.05852 0
M  V30 643 H 64.8072 -2.54473 -4.12878 0
M  V30 644 H 60.6862 -1.35066 -4.4077 0
M  V30 645 H 64.2302 -4.72618 -5.13106 0
M  V30 646 H 60.1272 -3.52316 -5.40873 0
M  V30 647 H 60.8952 -5.49086 -6.06998 0
M  V30 648 N 63.5583 1.46682 -0.576371 0
M  V30 649 C 64.7863 2.06798 -0.0649635 0
M  V30 650 C 65.2013 1.42612 1.23723 0
M  V30 651 O 64.5583 0.529203 1.74659 0
M  V30 652 C 64.6093 3.6132 0.114202 0
M  V30 653 O 64.3303 4.23104 -1.13644 0
M  V30 654 C 65.8313 4.38349 0.66069 0
M  V30 655 H 63.0513 0.668778 -0.0545616 0
M  V30 656 H 65.5953 1.88404 -0.795237 0
M  V30 657 H 63.7503 3.79162 0.794673 0
M  V30 658 H 64.1643 5.15894 -0.946253 0
M  V30 659 H 65.6383 5.47081 0.73526 0
M  V30 660 H 66.1153 4.05953 1.67627 0
M  V30 661 H 66.7213 4.25297 0.0152951 0
M  V30 662 N 65.0364 0.313813 1.54444 0
M  V30 663 C 66.3134 -0.345447 1.92525 0
M  V30 664 C 66.6934 -1.70667 1.24242 0
M  V30 665 O 66.0414 -2.25273 0.382654 0
M  V30 666 C 66.2514 -0.44737 3.46121 0
M  V30 667 C 67.5994 -0.712238 4.18584 0
M  V30 668 O 68.6234 -0.530678 3.52225 0
M  V30 669 O 67.4824 -1.06183 5.36085 0
M  V30 670 H 64.5764 -0.195407 0.803583 0
M  V30 671 H 67.1224 0.362813 1.65776 0
M  V30 672 H 65.8944 0.509043 3.87975 0
M  V30 673 H 65.5174 -1.20359 3.78945 0
M  V30 674 N 66.5145 -1.57545 0.0417849 0
M  V30 675 C 67.9255 -1.80011 -0.495259 0
M  V30 676 C 68.2765 -0.953199 -1.71489 0
M  V30 677 O 67.4015 -0.167138 -2.15754 0
M  V30 678 C 67.9965 -3.26482 -0.905265 0
M  V30 679 C 66.5555 -3.499 -1.38734 0
M  V30 680 C 65.7025 -2.74979 -0.358056 0
M  V30 681 H 68.6535 -1.56425 0.267736 0
M  V30 682 H 68.6745 -3.36887 -1.76882 0
M  V30 683 H 68.1865 -3.88096 -0.017401 0
M  V30 684 H 66.2875 -2.93553 -2.29471 0
M  V30 685 H 66.4005 -4.58615 -1.38598 0
M  V30 686 H 64.7645 -2.40834 -0.828912 0
M  V30 687 H 65.5475 -3.39315 0.521561 0
M  V30 688 N 67.9926 0.231505 -1.5589 0
M  V30 689 C 69.2386 0.95877 -1.78705 0
M  V30 690 C 69.5716 1.8438 -0.609725 0
M  V30 691 O 68.8466 1.90521 0.391426 0
M  V30 692 C 69.1296 1.8062 -3.11526 0
M  V30 693 C 68.9826 0.948328 -4.39689 0
M  V30 694 C 70.3016 2.78585 -3.40703 0
M  V30 695 H 67.4206 0.347129 -0.650131 0
M  V30 696 H 70.0626 0.228259 -1.88624 0
M  V30 697 H 68.2126 2.42902 -3.03201 0
M  V30 698 H 69.8846 0.343016 -4.60023 0
M  V30 699 H 68.1276 0.253314 -4.3306 0
M  V30 700 H 68.7986 1.57543 -5.29041 0
M  V30 701 H 71.2746 2.26439 -3.49091 0
M  V30 702 H 70.1506 3.34988 -4.34826 0
M  V30 703 H 70.4116 3.55825 -2.62375 0
M  V30 704 N 69.4707 1.49531 0.497807 0
M  V30 705 C 70.3807 1.69176 1.62532 0
M  V30 706 C 71.3967 0.5744 1.64246 0
M  V30 707 O 72.5727 0.849497 1.82608 0
M  V30 708 C 69.6377 1.75695 2.98885 0
M  V30 709 C 68.6987 2.9929 3.07773 0
M  V30 710 C 67.9317 3.05488 4.37622 0
M  V30 711 O 68.1547 2.19192 5.26603 0
M  V30 712 O 67.0887 3.9798 4.51548 0
M  V30 713 H 70.9147 2.647 1.48887 0
M  V30 714 H 68.4997 1.3331 0.674441 0
M  V30 715 H 70.3817 1.82317 3.79919 0
M  V30 716 H 69.0567 0.8335 3.12785 0
M  V30 717 H 67.9637 2.98183 2.25915 0
M  V30 718 H 69.2967 3.91125 2.98801 0
M  V30 719 N 70.9488 -0.749086 1.3866 0
M  V30 720 C 71.9118 -1.84457 1.36045 0
M  V30 721 C 72.9118 -1.58682 0.260122 0
M  V30 722 O 74.1018 -1.66343 0.517261 0
M  V30 723 C 71.2338 -3.22008 1.11911 0
M  V30 724 H 72.4268 -1.88182 2.33512 0
M  V30 725 H 69.9798 -0.951266 1.24019 0
M  V30 726 H 70.7148 -3.2395 0.150686 0
M  V30 727 H 70.4998 -3.42111 1.91579 0
M  V30 728 H 71.9898 -4.0208 1.12788 0
M  V30 729 N 72.4269 -1.23603 -0.977757 0
M  V30 730 C 73.6729 -1.07129 -1.72195 0
M  V30 731 C 74.0059 0.390501 -1.90233 0
M  V30 732 O 73.2809 1.28902 -1.45653 0
M  V30 733 C 73.5639 -1.80031 -3.11867 0
M  V30 734 C 73.4169 -3.33899 -3.01383 0
M  V30 735 C 74.7359 -1.56492 -4.11337 0
M  V30 736 H 71.8549 -0.390571 -0.624999 0
M  V30 737 H 74.4969 -1.52142 -1.13811 0
M  V30 738 H 72.6469 -1.41768 -3.6171 0
M  V30 739 H 74.3189 -3.81699 -2.59043 0
M  V30 740 H 72.5619 -3.62796 -2.37827 0
M  V30 741 H 73.2329 -3.801 -4.00285 0
M  V30 742 H 75.7089 -1.89757 -3.70313 0
M  V30 743 H 74.5849 -2.09973 -5.07151 0
M  V30 744 H 74.8459 -0.500874 -4.39254 0
M  V30 745 N 73.905 1.17692 -1.04816 0
M  V30 746 C 74.852 2.21581 -0.645797 0
M  V30 747 C 75.822 1.62367 0.350159 0
M  V30 748 O 77.007 1.89254 0.242433 0
M  V30 749 C 74.147 3.45092 -0.0227568 0
M  V30 750 C 73.26 4.18613 -1.06709 0
M  V30 751 C 72.395 5.29602 -0.411767 0
M  V30 752 C 71.434 5.94904 -1.44067 0
M  V30 753 N 70.571 6.97414 -0.809781 0
M  V30 754 H 75.411 2.55353 -1.5362 0
M  V30 755 H 72.948 1.25438 -0.768364 0
M  V30 756 H 74.906 4.15679 0.35588 0
M  V30 757 H 73.536 3.11917 0.831122 0
M  V30 758 H 72.588 3.46779 -1.5636 0
M  V30 759 H 73.9 4.63293 -1.84827 0
M  V30 760 H 73.054 6.06696 0.0206623 0
M  V30 761 H 71.793 4.86045 0.401438 0
M  V30 762 H 70.798 5.16544 -1.88316 0
M  V30 763 H 72.023 6.40542 -2.25571 0
M  V30 764 H 69.969 6.55998 -0.0170186 0
M  V30 765 H 69.886 7.40386 -1.52856 0
M  V30 766 H 71.154 7.78463 -0.401999 0
M  V30 767 N 75.3831 0.828654 1.34056 0
M  V30 768 C 76.6601 0.341809 1.9259 0
M  V30 769 C 77.0401 -1.17158 1.75605 0
M  V30 770 O 76.3881 -1.98132 1.13824 0
M  V30 771 C 76.5981 0.777453 3.4023 0
M  V30 772 C 77.9461 0.779579 4.17382 0
M  V30 773 O 78.9701 0.7204 3.48839 0
M  V30 774 O 77.8291 0.857996 5.39723 0
M  V30 775 H 74.9231 0.0946085 0.821571 0
M  V30 776 H 77.4691 0.913827 1.42994 0
M  V30 777 H 76.2411 1.8196 3.46419 0
M  V30 778 H 75.8641 0.181444 3.97186 0
M  V30 779 N 76.8612 -1.46375 0.584142 0
M  V30 780 C 78.1102 -2.01585 0.0679741 0
M  V30 781 C 78.4232 -1.46109 -1.30045 0
M  V30 782 O 79.6292 -1.93148 -1.90804 0
M  V30 783 C 78.0852 -3.5983 0.0709207 0
M  V30 784 C 77.6932 -4.24303 1.43775 0
M  V30 785 C 79.4372 -4.22693 -0.391228 0
M  V30 786 C 77.3442 -5.74631 1.39834 0
M  V30 787 H 76.2742 -0.753689 0.0216421 0
M  V30 788 H 78.9252 -1.68093 0.736001 0
M  V30 789 H 77.3072 -3.90405 -0.663299 0
M  V30 790 H 78.4812 -4.05335 2.19181 0
M  V30 791 H 76.7962 -3.73539 1.84004 0
M  V30 792 H 79.3932 -5.3289 -0.439524 0
M  V30 793 H 79.7362 -3.91728 -1.40906 0
M  V30 794 H 80.2692 -3.96749 0.288974 0
M  V30 795 H 77.0082 -6.10258 2.39303 0
M  V30 796 H 76.5282 -5.95858 0.686505 0
M  V30 797 H 78.2072 -6.37375 1.11187 0
M  V30 798 N 78.3393 -0.321999 -1.54275 0
M  V30 799 C 79.7503 0.166384 -1.85957 0
M  V30 800 C 80.1013 1.51747 -1.24367 0
M  V30 801 O 79.2263 2.09317 -0.549124 0
M  V30 802 C 79.8213 0.308681 -3.37391 0
M  V30 803 C 78.3803 0.741286 -3.69028 0
M  V30 804 C 77.5273 -0.137937 -2.76957 0
M  V30 805 H 80.4783 -0.542335 -1.49146 0
M  V30 806 H 80.4993 1.13984 -3.63026 0
M  V30 807 H 80.0113 -0.674809 -3.82188 0
M  V30 808 H 78.1123 1.73458 -3.29762 0
M  V30 809 H 78.2253 0.546118 -4.75977 0
M  V30 810 H 76.5893 0.386251 -2.51754 0
M  V30 811 H 77.3723 -1.11816 -3.2458 0
M  V30 812 N 79.8174 1.5752 -0.0501392 0
M  V30 813 C 81.0944 1.83996 0.663685 0
M  V30 814 C 81.4744 0.938339 1.89099 0
M  V30 815 O 80.8224 -0.00087759 2.285 0
M  V30 816 C 81.0324 3.33702 1.02196 0
M  V30 817 C 82.3804 4.00691 1.40469 0
M  V30 818 O 83.4044 3.38321 1.11433 0
M  V30 819 O 82.2634 5.10658 1.94654 0
M  V30 820 H 79.3574 0.759385 0.32751 0
M  V30 821 H 81.9034 1.69514 -0.0794238 0
M  V30 822 H 80.6754 3.91015 0.149364 0
M  V30 823 H 80.2984 3.53368 1.82255 0
M  V30 824 N 81.2955 -0.223234 1.56011 0
M  V30 825 C 82.5435 -0.946003 1.78592 0
M  V30 826 C 82.8645 -1.84936 0.618349 0
M  V30 827 O 82.1345 -1.92473 -0.364833 0
M  V30 828 H 80.7145 -0.352298 0.658707 0
M  V30 829 H 83.3765 -0.235494 1.93472 0
M  V30 830 H 82.4725 -1.55381 2.70672 0
M  V30 831 N 82.7736 -1.49793 -0.48987 0
M  V30 832 C 83.7366 -1.66752 -1.57246 0
M  V30 833 C 84.7366 -0.538867 -1.51502 0
M  V30 834 O 85.9266 -0.805545 -1.54456 0
M  V30 835 C 83.0586 -1.67528 -2.96896 0
M  V30 836 H 84.2516 -2.63321 -1.43534 0
M  V30 837 H 81.8046 -1.38992 -0.714914 0
M  V30 838 H 82.5396 -0.725837 -3.16073 0
M  V30 839 H 82.3246 -2.49504 -3.02473 0
M  V30 840 H 83.8146 -1.82667 -3.7553 0
M  V30 841 N 84.2517 0.741722 -1.39055 0
M  V30 842 C 85.4797 1.53098 -1.39171 0
M  V30 843 C 85.8947 1.88794 0.0155099 0
M  V30 844 O 85.2517 1.53626 0.985159 0
M  V30 845 C 85.3027 2.82274 -2.2584 0
M  V30 846 O 85.0237 2.48097 -3.61081 0
M  V30 847 C 86.5247 3.76343 -2.34266 0
M  V30 848 H 83.7447 0.473335 -0.4756 0
M  V30 849 H 86.2887 0.917045 -1.82785 0
M  V30 850 H 84.4437 3.40015 -1.85656 0
M  V30 851 H 84.8577 3.31029 -4.06842 0
M  V30 852 H 86.3317 4.63898 -2.9917 0
M  V30 853 H 86.8087 4.17619 -1.35982 0
M  V30 854 H 87.4147 3.24523 -2.74891 0
M  V30 855 N 85.7298 1.2412 0.971189 0
M  V30 856 C 86.9758 1.08041 1.71625 0
M  V30 857 C 87.3088 -0.380407 1.90438 0
M  V30 858 O 86.5838 -1.28127 1.46334 0
M  V30 859 C 86.8668 1.81682 3.10908 0
M  V30 860 C 86.7198 3.35493 2.99608 0
M  V30 861 C 88.0388 1.58671 4.10501 0
M  V30 862 H 85.1578 0.39388 0.622919 0
M  V30 863 H 87.7998 1.52743 1.13003 0
M  V30 864 H 85.9498 1.43684 3.60953 0
M  V30 865 H 87.6218 3.83068 2.57015 0
M  V30 866 H 85.8648 3.64052 2.35899 0
M  V30 867 H 86.5358 3.82217 3.98264 0
M  V30 868 H 89.0118 1.91719 3.69301 0
M  V30 869 H 87.8878 2.1266 5.06031 0
M  V30 870 H 88.1488 0.524161 4.38982 0
M  V30 871 N 87.2079 -1.17134 1.05439 0
M  V30 872 C 88.1379 -2.2342 0.678649 0
M  V30 873 C 89.1189 -1.66971 -0.32476 0
M  V30 874 O 90.3039 -1.93149 -0.201802 0
M  V30 875 C 87.4339 -3.47256 0.0552099 0
M  V30 876 C 86.3879 -4.16543 0.98365 0
M  V30 877 C 85.7139 -5.34231 0.223961 0
M  V30 878 C 87.0139 -4.68495 2.3089 0
M  V30 879 H 88.7079 -2.55105 1.56722 0
M  V30 880 H 86.2539 -1.2262 0.754998 0
M  V30 881 H 88.2069 -4.20828 -0.21946 0
M  V30 882 H 86.9309 -3.14846 -0.868319 0
M  V30 883 H 85.5899 -3.44887 1.24293 0
M  V30 884 H 85.2379 -4.98071 -0.702412 0
M  V30 885 H 84.9379 -5.81527 0.842627 0
M  V30 886 H 86.4619 -6.10585 -0.0433671 0
M  V30 887 H 87.8759 -5.33691 2.09396 0
M  V30 888 H 86.2729 -5.26379 2.88176 0
M  V30 889 H 87.3429 -3.85169 2.94572 0
M  V30 890 N 88.686 -0.835752 -1.33615 0
M  V30 891 C 89.932 -0.430596 -1.98176 0
M  V30 892 C 90.265 1.00684 -1.66061 0
M  V30 893 O 89.54 1.70339 -0.938877 0
M  V30 894 C 89.823 -0.648065 -3.5422 0
M  V30 895 C 89.676 -2.13255 -3.96033 0
M  V30 896 C 90.995 -0.0922113 -4.40003 0
M  V30 897 H 88.114 -0.157924 -0.719881 0
M  V30 898 H 90.756 -1.05069 -1.58305 0
M  V30 899 H 88.906 -0.120237 -3.88314 0
M  V30 900 H 90.578 -2.725 -3.72211 0
M  V30 901 H 88.821 -2.61823 -3.45878 0
M  V30 902 H 89.492 -2.23547 -5.04708 0
M  V30 903 H 91.968 -0.543343 -4.12537 0
M  V30 904 H 90.844 -0.274083 -5.48215 0
M  V30 905 H 91.105 1.00378 -4.30554 0
M  V30 906 N 90.1641 1.46063 -0.591896 0
M  V30 907 C 91.4121 2.01938 -0.0808391 0
M  V30 908 C 91.7331 1.46475 1.28725 0
M  V30 909 O 91.0031 0.652944 1.84698 0
M  V30 910 H 89.5831 0.746516 -0.0268938 0
M  V30 911 H 92.2451 1.79055 -0.769752 0
M  V30 912 H 91.3411 3.12094 -0.0187578 0
M  V30 913 N 91.6422 0.330177 1.54103 0
M  V30 914 C 92.8902 -0.269871 2.0029 0
M  V30 915 C 93.2112 -1.52133 1.21986 0
M  V30 916 O 92.4812 -1.93212 0.323438 0
M  V30 917 H 91.0612 -0.10271 0.739905 0
M  V30 918 H 93.7232 0.448249 1.89675 0
M  V30 919 H 92.8192 -0.52166 3.07709 0
M  V30 920 N 93.1203 -1.57491 0.0584922 0
M  V30 921 C 94.3673 -1.92978 -0.613648 0
M  V30 922 C 94.6953 -0.937461 -1.70417 0
M  V30 923 O 93.9503 0.049078 -1.95638 0
M  V30 924 C 94.2493 -3.3513 -1.24188 0
M  V30 925 C 93.9153 -4.50037 -0.278826 0
M  V30 926 C 92.5773 -4.81198 -0.0138447 0
M  V30 927 C 94.9293 -5.19807 0.380777 0
M  V30 928 C 92.2573 -5.79473 0.918052 0
M  V30 929 C 94.6093 -6.19079 1.30091 0
M  V30 930 C 93.2733 -6.48665 1.57449 0
M  V30 931 H 92.5433 -0.706157 -0.22455 0
M  V30 932 H 95.1903 -1.91082 0.126533 0
M  V30 933 H 93.4953 -3.33429 -2.05749 0
M  V30 934 H 95.1923 -3.59871 -1.769 0
M  V30 935 H 91.7823 -4.25726 -0.495539 0
M  V30 936 H 95.9663 -4.95939 0.189158 0
M  V30 937 H 91.2223 -6.00727 1.1374 0
M  V30 938 H 95.3963 -6.7225 1.81804 0
M  V30 939 H 93.0233 -7.24628 2.29822 0
M  V30 940 N 94.5984 0.214957 -1.56127 0
M  V30 941 C 95.8464 0.936518 -1.79091 0
M  V30 942 C 96.1674 1.84606 -0.628148 0
M  V30 943 O 95.4374 1.92664 0.35462 0
M  V30 944 H 94.0174 0.3488 -0.660566 0
M  V30 945 H 96.6794 0.22523 -1.93594 0
M  V30 946 H 95.7754 1.53943 -2.71492 0
M  V30 947 N 96.0765 1.50051 0.48192 0
M  V30 948 C 97.0065 1.71046 1.58951 0
M  V30 949 C 97.9875 0.559288 1.60642 0
M  V30 950 O 99.1725 0.797243 1.77081 0
M  V30 951 C 96.3025 1.79462 2.97339 0
M  V30 952 C 95.2565 2.94558 3.10515 0
M  V30 953 C 94.5825 2.88105 4.50444 0
M  V30 954 C 95.8825 4.35227 2.88747 0
M  V30 955 H 97.5765 2.6378 1.41635 0
M  V30 956 H 95.1225 1.26936 0.679942 0
M  V30 957 H 97.0755 1.92734 3.74742 0
M  V30 958 H 95.7995 0.833412 3.15788 0
M  V30 959 H 94.4585 2.80918 2.35543 0
M  V30 960 H 94.1065 1.89853 4.65795 0
M  V30 961 H 93.8065 3.65366 4.60197 0
M  V30 962 H 95.3305 3.03412 5.29881 0
M  V30 963 H 96.7445 4.49449 3.55905 0
M  V30 964 H 95.1415 5.13856 3.09955 0
M  V30 965 H 96.2115 4.48347 1.84696 0
M  V30 966 N 97.5546 -0.734337 1.39446 0
M  V30 967 C 98.7946 -1.50655 1.38139 0
M  V30 968 C 99.1586 -1.91986 -0.0228701 0
M  V30 969 O 100.36 -2.68318 -0.160947 0
M  V30 970 C 98.6306 -2.71251 2.32718 0
M  V30 971 S 100.19 -3.60892 2.49605 0
M  V30 972 H 97.0076 -0.515315 0.489869 0
M  V30 973 H 99.6096 -0.860392 1.75549 0
M  V30 974 H 98.3136 -2.39027 3.33608 0
M  V30 975 H 97.8446 -3.40795 1.96526 0
M  V30 976 H 99.8596 -4.64899 1.73446 0
M  V30 977 N 99.0327 -1.24633 -0.964593 0
M  V30 978 C 100.281 -1.08573 -1.70459 0
M  V30 979 C 100.602 0.375655 -1.91347 0
M  V30 980 O 99.8717 1.26779 -1.49345 0
M  V30 981 H 98.4517 -0.398784 -0.631649 0
M  V30 982 H 101.114 -1.56601 -1.16026 0
M  V30 983 H 100.21 -1.58623 -2.68785 0
M  V30 984 N 100.511 1.16574 -1.06058 0
M  V30 985 C 101.76 1.86385 -0.770944 0
M  V30 986 C 102.073 1.82448 0.705129 0
M  V30 987 O 103.279 2.47815 1.10905 0
M  V30 988 C 101.735 3.34466 -1.32893 0
M  V30 989 C 101.343 3.46883 -2.83507 0
M  V30 990 C 103.087 4.09548 -1.11672 0
M  V30 991 C 100.994 4.89036 -3.32562 0
M  V30 992 H 99.9238 0.698181 -0.284709 0
M  V30 993 H 102.575 1.31583 -1.27899 0
M  V30 994 H 100.957 3.88859 -0.748662 0
M  V30 995 H 102.131 3.02663 -3.47465 0
M  V30 996 H 100.446 2.85232 -3.03368 0
M  V30 997 H 103.043 5.14434 -1.45814 0
M  V30 998 H 103.386 4.16264 -0.0549535 0
M  V30 999 H 103.919 3.61387 -1.66265 0
M  V30 1000 H 100.658 4.87499 -4.38207 0
M  V30 1001 H 100.178 5.3389 -2.73351 0
M  V30 1002 H 101.857 5.57843 -3.2775 0
M  V30 1003 N 101.989 0.842826 1.3317 0
M  V30 1004 C 103.4 0.496651 1.79973 0
M  V30 1005 C 103.751 -0.984641 1.69703 0
M  V30 1006 O 102.876 -1.76743 1.24863 0
M  V30 1007 C 103.471 0.894727 3.26772 0
M  V30 1008 C 102.03 0.600629 3.71577 0
M  V30 1009 C 101.177 1.10091 2.5451 0
M  V30 1010 H 104.128 1.03116 1.20635 0
M  V30 1011 H 104.149 0.206347 3.7994 0
M  V30 1012 H 103.661 1.97287 3.34215 0
M  V30 1013 H 101.762 -0.467284 3.69658 0
M  V30 1014 H 101.875 1.15863 4.64879 0
M  V30 1015 H 100.239 0.52162 2.49301 0
M  V30 1016 H 101.022 2.18591 2.64713 0
M  V30 1017 N 103.467 -1.45747 0.599634 0
M  V30 1018 C 104.377 -2.34262 -0.125888 0
M  V30 1019 C 105.393 -1.50768 -0.868625 0
M  V30 1020 O 106.569 -1.83592 -0.828003 0
M  V30 1021 C 103.634 -3.28252 -1.11587 0
M  V30 1022 C 102.695 -4.27651 -0.375956 0
M  V30 1023 C 101.928 -5.1715 -1.31877 0
M  V30 1024 O 102.151 -5.09916 -2.55621 0
M  V30 1025 O 101.085 -5.96286 -0.820157 0
M  V30 1026 H 104.911 -2.97688 0.601315 0
M  V30 1027 H 102.496 -1.44999 0.359934 0
M  V30 1028 H 104.378 -3.86191 -1.68626 0
M  V30 1029 H 103.053 -2.67401 -1.82424 0
M  V30 1030 H 101.96 -3.7335 0.236698 0
M  V30 1031 H 103.293 -4.91334 0.29177 0
M  V30 1032 N 104.945 -0.338344 -1.53925 0
M  V30 1033 C 105.893 0.536231 -2.26335 0
M  V30 1034 C 106.887 1.1063 -1.28286 0
M  V30 1035 O 108.093 1.05264 -1.46012 0
M  V30 1036 H 104.468 0.191602 -0.727181 0
M  V30 1037 H 106.439 -0.0965747 -2.98244 0
M  V30 1038 C 105.188 1.67803 -3.04528 0
M  V30 1039 H 104.511 1.24864 -3.79801 0
M  V30 1040 H 105.951 2.26526 -3.58416 0
M  V30 1041 C 104.41 2.60439 -2.13712 0
M  V30 1042 O 104.94 3.6255 -1.72975 0
M  V30 1043 N 103.146 2.29006 -1.78898 0
M  V30 1044 H 102.693 1.46011 -2.12223 0
M  V30 1045 H 102.651 2.91248 -1.18416 0
M  V30 1046 N 106.423 1.57458 -0.0668435 0
M  V30 1047 C 107.353 2.15468 0.899764 0
M  V30 1048 C 108.334 1.08042 1.31381 0
M  V30 1049 O 109.519 1.36054 1.38574 0
M  V30 1050 C 106.649 2.71232 2.16911 0
M  V30 1051 C 105.603 3.83781 1.89463 0
M  V30 1052 C 104.929 4.26127 3.22986 0
M  V30 1053 C 106.229 5.08238 1.20381 0
M  V30 1054 H 107.923 2.96488 0.416529 0
M  V30 1055 H 105.469 1.4262 0.198908 0
M  V30 1056 H 107.422 3.10458 2.84945 0
M  V30 1057 H 106.146 1.87426 2.67468 0
M  V30 1058 H 104.805 3.45051 1.23836 0
M  V30 1059 H 104.453 3.39249 3.71374 0
M  V30 1060 H 104.153 5.01993 3.05413 0
M  V30 1061 H 105.677 4.67966 3.92225 0
M  V30 1062 H 107.091 5.44811 1.78475 0
M  V30 1063 H 105.488 5.89349 1.13083 0
M  V30 1064 H 106.558 4.84558 0.182153 0
M  V30 1065 N 107.901 -0.206675 1.56239 0
M  V30 1066 C 109.15 -0.926964 1.79138 0
M  V30 1067 C 109.463 -1.84901 0.638043 0
M  V30 1068 O 110.669 -2.60906 0.751033 0
M  V30 1069 C 109.125 -1.6986 3.17294 0
M  V30 1070 C 108.733 -0.821956 4.40395 0
M  V30 1071 C 110.477 -2.40922 3.4951 0
M  V30 1072 C 108.384 -1.59179 5.69575 0
M  V30 1073 H 107.314 -0.349864 0.667915 0
M  V30 1074 H 109.965 -0.180487 1.8261 0
M  V30 1075 H 108.347 -2.48853 3.08039 0
M  V30 1076 H 109.521 -0.0715019 4.60745 0
M  V30 1077 H 107.836 -0.222741 4.15804 0
M  V30 1078 H 110.433 -2.99047 4.43255 0
M  V30 1079 H 110.776 -3.14542 2.72707 0
M  V30 1080 H 111.309 -1.68905 3.60161 0
M  V30 1081 H 108.048 -0.898589 6.49312 0
M  V30 1082 H 107.568 -2.31648 5.53262 0
M  V30 1083 H 109.247 -2.14862 6.10281 0
M  V30 1084 N 109.379 -1.50304 -0.473955 0
M  V30 1085 C 110.656 -1.51667 -1.23518 0
M  V30 1086 C 111.036 -0.259701 -2.09496 0
M  V30 1087 O 110.384 0.756986 -2.15597 0
M  V30 1088 C 110.594 -2.81082 -2.06868 0
M  V30 1089 C 111.942 -3.31631 -2.65153 0
M  V30 1090 O 112.966 -2.82384 -2.17113 0
M  V30 1091 O 111.825 -4.17471 -3.52675 0
M  V30 1092 H 108.919 -0.60822 -0.560355 0
M  V30 1093 H 111.465 -1.62592 -0.486011 0
M  V30 1094 H 110.237 -3.64041 -1.4349 0
M  V30 1095 H 109.86 -2.73146 -2.88924 0
M  V30 1096 N 110.857 0.726932 -1.39834 0
M  V30 1097 C 111.82 1.82269 -1.38962 0
M  V30 1098 C 112.82 1.58248 -0.285334 0
M  V30 1099 O 114.01 1.65499 -0.54366 0
M  V30 1100 C 111.142 3.20186 -1.17019 0
M  V30 1101 H 112.335 1.84443 -2.36476 0
M  V30 1102 H 109.888 0.931416 -1.25516 0
M  V30 1103 H 110.623 3.23669 -0.202204 0
M  V30 1104 H 110.408 3.3902 -1.96998 0
M  V30 1105 H 111.898 4.00235 -1.1917 0
M  V30 1106 N 112.336 1.25143 0.95797 0
M  V30 1107 C 113.266 1.07711 2.07173 0
M  V30 1108 C 114.247 -0.0128462 1.70095 0
M  V30 1109 O 115.432 0.156061 1.93572 0
M  V30 1110 C 112.562 0.691503 3.40346 0
M  V30 1111 C 111.516 1.73132 3.9142 0
M  V30 1112 C 110.842 1.20049 5.21049 0
M  V30 1113 C 112.142 3.1294 4.1817 0
M  V30 1114 H 113.836 2.00873 2.22014 0
M  V30 1115 H 111.382 0.967191 1.06684 0
M  V30 1116 H 113.335 0.556505 4.17709 0
M  V30 1117 H 112.059 -0.275819 3.25433 0
M  V30 1118 H 110.718 1.8547 3.16222 0
M  V30 1119 H 110.366 0.223499 5.02503 0
M  V30 1120 H 110.066 1.89545 5.56189 0
M  V30 1121 H 111.59 1.07782 6.01012 0
M  V30 1122 H 113.004 3.03775 4.86203 0
M  V30 1123 H 111.401 3.79875 4.64559 0
M  V30 1124 H 112.471 3.6025 3.24573 0
M  V30 1125 N 113.814 -1.1601 1.06675 0
M  V30 1126 C 114.744 -2.22688 0.702307 0
M  V30 1127 C 115.725 -1.67306 -0.307032 0
M  V30 1128 O 116.91 -1.93352 -0.181305 0
M  V30 1129 C 114.04 -3.47178 0.092038 0
M  V30 1130 C 112.994 -4.15477 1.02777 0
M  V30 1131 C 112.32 -5.33963 0.28061 0
M  V30 1132 C 113.62 -4.66019 2.35846 0
M  V30 1133 H 115.314 -2.53429 1.59419 0
M  V30 1134 H 112.86 -1.21813 0.767961 0
M  V30 1135 H 114.813 -4.21037 -0.174814 0
M  V30 1136 H 113.537 -3.15749 -0.834877 0
M  V30 1137 H 112.196 -3.43549 1.27944 0
M  V30 1138 H 111.844 -4.98788 -0.649545 0
M  V30 1139 H 111.544 -5.806 0.904258 0
M  V30 1140 H 113.068 -6.10596 0.021396 0
M  V30 1141 H 114.482 -5.3144 2.15045 0
M  V30 1142 H 112.879 -5.23293 2.93743 0
M  V30 1143 H 113.949 -3.82023 2.98641 0
M  V30 1144 N 115.292 -0.849877 -1.32721 0
M  V30 1145 C 116.239 -0.289033 -2.28983 0
M  V30 1146 C 117.209 0.601324 -1.54833 0
M  V30 1147 O 118.394 0.537253 -1.8308 0
M  V30 1148 C 115.534 0.520623 -3.4115 0
M  V30 1149 C 114.647 -0.394989 -4.3019 0
M  V30 1150 C 113.782 0.426834 -5.29482 0
M  V30 1151 C 112.821 -0.486476 -6.10164 0
M  V30 1152 N 111.958 0.297879 -7.01468 0
M  V30 1153 H 116.798 -1.11519 -2.76347 0
M  V30 1154 H 114.335 -0.56138 -1.35967 0
M  V30 1155 H 116.293 1.00563 -4.04899 0
M  V30 1156 H 114.923 1.31165 -2.9495 0
M  V30 1157 H 113.975 -0.99836 -3.67065 0
M  V30 1158 H 115.287 -1.09612 -4.86607 0
M  V30 1159 H 114.441 0.975205 -5.98811 0
M  V30 1160 H 113.18 1.16136 -4.73671 0
M  V30 1161 H 112.185 -1.04677 -5.39743 0
M  V30 1162 H 113.41 -1.21953 -6.6806 0
M  V30 1163 H 111.356 1.01558 -6.48091 0
M  V30 1164 H 111.273 -0.344318 -7.55216 0
M  V30 1165 H 112.541 0.828131 -7.75089 0
M  V30 1166 N 116.77 1.45427 -0.607355 0
M  V30 1167 C 117.998 2.06614 -0.108814 0
M  V30 1168 C 118.413 1.45204 1.2067 0
M  V30 1169 O 117.77 0.566132 1.73497 0
M  V30 1170 C 117.821 3.61481 0.0375347 0
M  V30 1171 O 117.542 4.20598 -1.22593 0
M  V30 1172 C 119.043 4.39652 0.567561 0
M  V30 1173 H 116.263 0.66747 -0.0687351 0
M  V30 1174 H 118.807 1.86675 -0.835022 0
M  V30 1175 H 116.962 3.80762 0.714068 0
M  V30 1176 H 117.376 5.1377 -1.05547 0
M  V30 1177 H 118.85 5.48518 0.61905 0
M  V30 1178 H 119.327 4.09417 1.58978 0
M  V30 1179 H 119.933 4.25234 -0.0749202 0
M  V30 1180 N 118.248 0.346503 1.53744 0
M  V30 1181 C 119.496 -0.248612 2.00565 0
M  V30 1182 C 119.817 -1.5083 1.23593 0
M  V30 1183 O 119.087 -1.92858 0.343912 0
M  V30 1184 H 117.667 -0.0948564 0.740953 0
M  V30 1185 H 120.329 0.468341 1.89189 0
M  V30 1186 H 119.425 -0.488994 3.08245 0
M  V30 1187 N 119.726 -1.57421 0.075193 0
M  V30 1188 C 120.972 -1.93905 -0.594025 0
M  V30 1189 C 121.305 -0.955701 -1.69056 0
M  V30 1190 O 120.58 0.0145373 -1.94495 0
M  V30 1191 C 120.863 -3.40638 -1.1678 0
M  V30 1192 C 120.716 -4.49733 -0.0776792 0
M  V30 1193 C 122.035 -3.88259 -2.07228 0
M  V30 1194 H 119.154 -0.705105 -0.214466 0
M  V30 1195 H 121.796 -1.8947 0.141854 0
M  V30 1196 H 119.946 -3.44549 -1.79494 0
M  V30 1197 H 121.618 -4.57942 0.555573 0
M  V30 1198 H 119.861 -4.29751 0.591286 0
M  V30 1199 H 120.532 -5.49549 -0.519603 0
M  V30 1200 H 123.008 -3.86376 -1.54445 0
M  V30 1201 H 121.884 -4.91533 -2.44308 0
M  V30 1202 H 122.145 -3.26396 -2.98191 0
M  V30 1203 N 121.204 0.198386 -1.56346 0
M  V30 1204 C 122.151 1.24589 -1.94284 0
M  V30 1205 C 123.121 1.454 -0.802997 0
M  V30 1206 O 124.306 1.58588 -1.06087 0
M  V30 1207 C 121.446 2.58631 -2.28482 0
M  V30 1208 C 120.559 2.45426 -3.55514 0
M  V30 1209 C 119.694 3.7215 -3.79049 0
M  V30 1210 C 118.733 3.53763 -4.99518 0
M  V30 1211 N 117.87 4.72491 -5.19323 0
M  V30 1212 H 122.71 0.915356 -2.83593 0
M  V30 1213 H 120.247 0.440629 -1.40346 0
M  V30 1214 H 122.205 3.3672 -2.46324 0
M  V30 1215 H 120.835 2.89734 -1.42317 0
M  V30 1216 H 119.887 1.58652 -3.45737 0
M  V30 1217 H 121.199 2.27772 -4.43758 0
M  V30 1218 H 120.353 4.58679 -3.97113 0
M  V30 1219 H 119.092 3.92754 -2.89129 0
M  V30 1220 H 118.097 2.65619 -4.8138 0
M  V30 1221 H 119.322 3.34607 -5.90944 0
M  V30 1222 H 117.268 4.93365 -4.3235 0
M  V30 1223 H 117.185 4.5765 -6.01741 0
M  V30 1224 H 118.453 5.6038 -5.41843 0
M  V30 1225 N 122.682 1.50554 0.465978 0
M  V30 1226 C 123.93 1.61479 1.21528 0
M  V30 1227 C 124.251 0.319596 1.92363 0
M  V30 1228 O 123.521 -0.663194 1.84333 0
M  V30 1229 H 122.101 0.595055 0.451573 0
M  V30 1230 H 124.763 1.87355 0.53704 0
M  V30 1231 H 123.859 2.42846 1.96042 0
M  V30 1232 N 124.16 -0.719506 1.40217 0
M  V30 1233 C 125.09 -1.8465 1.42922 0
M  V30 1234 C 126.071 -1.67599 0.29062 0
M  V30 1235 O 127.256 -1.87688 0.498677 0
M  V30 1236 C 124.386 -3.22565 1.28722 0
M  V30 1237 C 123.34 -3.54281 2.40144 0
M  V30 1238 C 122.666 -4.91298 2.11023 0
M  V30 1239 C 123.966 -3.55676 3.82481 0
M  V30 1240 H 125.66 -1.82644 2.37237 0
M  V30 1241 H 123.206 -0.877305 1.1419 0
M  V30 1242 H 125.159 -4.01095 1.29232 0
M  V30 1243 H 123.883 -3.25137 0.308811 0
M  V30 1244 H 122.542 -2.78088 2.38877 0
M  V30 1245 H 122.19 -4.90468 1.11582 0
M  V30 1246 H 121.89 -5.13485 2.8567 0
M  V30 1247 H 123.414 -5.72166 2.13209 0
M  V30 1248 H 124.828 -4.24254 3.85592 0
M  V30 1249 H 123.225 -3.89388 4.56614 0
M  V30 1250 H 124.295 -2.55144 4.12346 0
M  V30 1251 N 125.638 -1.25649 -0.95132 0
M  V30 1252 C 126.866 -1.13343 -1.73092 0
M  V30 1253 C 127.281 0.312434 -1.86197 0
M  V30 1254 O 126.638 1.21465 -1.36207 0
M  V30 1255 C 126.689 -1.78602 -3.14299 0
M  V30 1256 O 126.41 -3.17537 -3.01831 0
M  V30 1257 C 127.911 -1.72119 -4.08522 0
M  V30 1258 H 125.131 -0.395181 -0.542285 0
M  V30 1259 H 127.675 -1.66076 -1.19328 0
M  V30 1260 H 125.83 -1.29832 -3.64996 0
M  V30 1261 H 126.244 -3.49676 -3.90931 0
M  V30 1262 H 127.718 -2.22435 -5.052 0
M  V30 1263 H 128.195 -0.685635 -4.33815 0
M  V30 1264 H 128.801 -2.20393 -3.63741 0
M  V30 1265 N 127.117 1.15442 -1.07289 0
M  V30 1266 C 128.08 2.18358 -0.696591 0
M  V30 1267 C 129.08 1.58637 0.262837 0
M  V30 1268 O 130.27 1.74145 0.0438809 0
M  V30 1269 C 127.402 3.4089 -0.0266151 0
M  V30 1270 H 128.595 2.53162 -1.60776 0
M  V30 1271 H 126.148 1.29893 -0.869342 0
M  V30 1272 H 126.883 3.11653 0.896822 0
M  V30 1273 H 126.668 3.85495 -0.716657 0
M  V30 1274 H 128.158 4.17009 0.222028 0
M  V30 1275 N 128.595 0.856903 1.32268 0
M  V30 1276 C 129.841 0.462069 1.97466 0
M  V30 1277 C 130.174 -0.980298 1.67642 0
M  V30 1278 O 129.449 -1.68824 0.965858 0
M  V30 1279 C 129.732 0.704336 3.53145 0
M  V30 1280 C 129.585 2.19529 3.9259 0
M  V30 1281 C 130.904 0.1622 4.39801 0
M  V30 1282 H 128.023 0.169357 0.717278 0
M  V30 1283 H 130.665 1.07574 1.56614 0
M  V30 1284 H 128.815 0.181999 3.88073 0
M  V30 1285 H 130.487 2.78387 3.67829 0
M  V30 1286 H 128.73 2.67292 3.41668 0
M  V30 1287 H 129.401 2.31549 5.01088 0
M  V30 1288 H 131.877 0.608905 4.11621 0
M  V30 1289 H 130.753 0.361265 5.4771 0
M  V30 1290 H 131.014 -0.935158 4.32096 0
M  V30 1291 N 130.073 -1.45103 0.615059 0
M  V30 1292 C 131.298 -2.07064 0.117988 0
M  V30 1293 C 131.723 -1.4554 -1.19163 0
M  V30 1294 O 131.081 -0.550855 -1.72729 0
M  V30 1295 C 131.129 -3.606 -0.000288387 0
M  V30 1296 O 130.233 -3.98847 -1.04856 0
M  V30 1297 H 129.574 -0.659467 0.0774581 0
M  V30 1298 H 132.104 -1.86236 0.847186 0
M  V30 1299 H 132.114 -4.07529 -0.196091 0
M  V30 1300 H 130.789 -4.04765 0.955932 0
M  V30 1301 H 129.366 -3.63577 -0.828619 0
M  V30 1302 N 131.551 -0.354651 -1.53558 0
M  V30 1303 C 132.499 0.512195 -2.26891 0
M  V30 1304 C 133.493 1.09263 -1.29452 0
M  V30 1305 O 134.699 1.03709 -1.47121 0
M  V30 1306 H 131.074 0.183878 -0.729173 0
M  V30 1307 H 133.045 -0.128202 -2.98124 0
M  V30 1308 C 131.794 1.64563 -3.06291 0
M  V30 1309 H 131.117 1.20829 -3.81104 0
M  V30 1310 H 132.557 2.22711 -3.60799 0
M  V30 1311 C 131.016 2.58158 -2.16462 0
M  V30 1312 O 131.546 3.60695 -1.76811 0
M  V30 1313 N 129.752 2.27096 -1.81317 0
M  V30 1314 H 129.299 1.43751 -2.1376 0
M  V30 1315 H 129.257 2.89975 -1.21498 0
M  V30 1316 N 133.029 1.57378 -0.0835403 0
M  V30 1317 C 133.977 2.14602 0.89714 0
M  V30 1318 C 134.971 1.08589 1.30018 0
M  V30 1319 O 136.177 1.26952 1.27606 0
M  V30 1320 H 132.552 0.686346 0.3073 0
M  V30 1321 H 134.523 2.95845 0.38969 0
M  V30 1322 C 133.272 2.73188 2.15089 0
M  V30 1323 H 132.595 3.54442 1.84962 0
M  V30 1324 H 134.035 3.1681 2.81793 0
M  V30 1325 C 132.494 1.68517 2.91725 0
M  V30 1326 O 133.024 1.11718 3.85852 0
M  V30 1327 N 131.23 1.39277 2.55049 0
M  V30 1328 H 130.777 1.85655 1.78577 0
M  V30 1329 H 130.735 0.694791 3.06627 0
M  V30 1330 N 134.507 -0.190092 1.56449 0
M  V30 1331 C 135.47 -1.21925 1.9408 0
M  V30 1332 C 136.47 -1.38176 0.822431 0
M  V30 1333 O 137.66 -1.35903 1.08977 0
M  V30 1334 C 134.792 -2.58773 2.21922 0
M  V30 1335 H 135.985 -0.897464 2.86157 0
M  V30 1336 H 133.538 -0.43181 1.50217 0
M  V30 1337 H 134.273 -2.95998 1.32499 0
M  V30 1338 H 134.058 -2.48348 3.03424 0
M  V30 1339 H 135.548 -3.32978 2.52022 0
M  V30 1340 N 135.985 -1.50799 -0.457987 0
M  V30 1341 C 137.233 -1.62121 -1.2067 0
M  V30 1342 C 137.554 -0.329793 -1.92191 0
M  V30 1343 O 136.824 0.653409 -1.84682 0
M  V30 1344 H 135.404 -0.597441 -0.448411 0
M  V30 1345 H 138.066 -1.87637 -0.527096 0
M  V30 1346 H 137.162 -2.43882 -1.94751 0
M  V30 1347 N 137.463 0.71206 -1.40597 0
M  V30 1348 C 138.709 1.47416 -1.39271 0
M  V30 1349 C 139.042 1.942 0.00388791 0
M  V30 1350 O 138.317 1.68403 0.973179 0
M  V30 1351 C 138.6 2.69774 -2.38525 0
M  V30 1352 C 138.453 2.28861 -3.87224 0
M  V30 1353 C 139.772 3.71939 -2.35264 0
M  V30 1354 H 136.891 0.534713 -0.5072 0
M  V30 1355 H 139.533 0.812375 -1.71757 0
M  V30 1356 H 137.683 3.26238 -2.10953 0
M  V30 1357 H 139.355 1.77852 -4.25636 0
M  V30 1358 H 137.598 1.60824 -4.02887 0
M  V30 1359 H 138.269 3.16584 -4.52193 0
M  V30 1360 H 140.745 3.25113 -2.59694 0
M  V30 1361 H 139.621 4.55186 -3.06753 0
M  V30 1362 H 139.882 4.20484 -1.36549 0
M  V30 1363 N 138.941 1.26152 0.944643 0
M  V30 1364 C 140.218 1.02247 1.66748 0
M  V30 1365 C 140.598 -0.448202 2.06287 0
M  V30 1366 O 139.946 -1.42779 1.78399 0
M  V30 1367 C 140.156 1.96788 2.88228 0
M  V30 1368 C 141.504 2.25201 3.59958 0
M  V30 1369 O 142.528 1.94626 2.98327 0
M  V30 1370 O 141.387 2.77242 4.70956 0
M  V30 1371 H 138.481 0.388517 0.730057 0
M  V30 1372 H 141.027 1.37348 0.99668 0
M  V30 1373 H 139.799 2.96047 2.55875 0
M  V30 1374 H 139.422 1.62145 3.63035 0
M  V30 1375 N 140.419 -1.14872 1.07899 0
M  V30 1376 C 141.367 -2.21857 0.698727 0
M  V30 1377 C 142.361 -1.66845 -0.293086 0
M  V30 1378 O 143.567 -1.79321 -0.156204 0
M  V30 1379 H 139.942 -0.722691 0.207899 0
M  V30 1380 H 141.913 -2.51205 1.61054 0
M  V30 1381 C 140.662 -3.47498 0.11858 0
M  V30 1382 H 139.985 -3.90154 0.872914 0
M  V30 1383 H 141.425 -4.23858 -0.109759 0
M  V30 1384 C 139.884 -3.16947 -1.1422 0
M  V30 1385 O 140.414 -3.3426 -2.22785 0
M  V30 1386 N 138.62 -2.70946 -1.05055 0
M  V30 1387 H 138.167 -2.57058 -0.167038 0
M  V30 1388 H 138.125 -2.50879 -1.89491 0
M  V30 1389 N 141.898 -0.863906 -1.31812 0
M  V30 1390 C 143.145 -0.471836 -1.96926 0
M  V30 1391 C 143.473 0.974578 -1.68322 0
M  V30 1392 O 142.728 1.7003 -0.968933 0
M  V30 1393 C 143.027 -0.668547 -3.51091 0
M  V30 1394 C 142.693 -2.08683 -3.99703 0
M  V30 1395 C 141.355 -2.47471 -4.12688 0
M  V30 1396 C 143.707 -3.01207 -4.25351 0
M  V30 1397 C 141.035 -3.78037 -4.4867 0
M  V30 1398 C 143.387 -4.31282 -4.62794 0
M  V30 1399 C 142.051 -4.69992 -4.73987 0
M  V30 1400 H 141.321 -0.172657 -0.720604 0
M  V30 1401 H 143.968 -1.09573 -1.57054 0
M  V30 1402 H 142.273 0.0385252 -3.91781 0
M  V30 1403 H 143.97 -0.345102 -3.99512 0
M  V30 1404 H 140.56 -1.77566 -3.90087 0
M  V30 1405 H 144.744 -2.72469 -4.14819 0
M  V30 1406 H 140 -4.078 -4.55532 0
M  V30 1407 H 144.174 -5.03031 -4.81594 0
M  V30 1408 H 141.801 -5.71207 -5.01624 0
M  V30 1409 N 143.376 1.44774 -0.622745 0
M  V30 1410 C 144.624 2.01721 -0.123655 0
M  V30 1411 C 144.945 1.49172 1.25589 0
M  V30 1412 O 144.215 0.691974 1.83272 0
M  V30 1413 H 142.795 0.745777 -0.0427225 0
M  V30 1414 H 145.457 1.77382 -0.807559 0
M  V30 1415 H 144.553 3.11984 -0.0849534 0
M  V30 1416 N 144.854 0.36279 1.53368 0
M  V30 1417 C 145.784 -0.476976 2.28576 0
M  V30 1418 C 146.765 -1.08631 1.30894 0
M  V30 1419 O 147.95 -1.10409 1.59761 0
M  V30 1420 C 145.08 -1.61828 3.07293 0
M  V30 1421 C 144.034 -1.13633 4.1264 0
M  V30 1422 C 143.36 -2.36766 4.79423 0
M  V30 1423 C 144.66 -0.223061 5.21823 0
M  V30 1424 H 146.354 0.150474 2.99022 0
M  V30 1425 H 143.9 0.0738103 1.43811 0
M  V30 1426 H 145.853 -2.21237 3.58653 0
M  V30 1427 H 144.577 -2.27292 2.34533 0
M  V30 1428 H 143.236 -0.564945 3.62221 0
M  V30 1429 H 142.884 -3.0068 4.03238 0
M  V30 1430 H 142.584 -2.05192 5.50609 0
M  V30 1431 H 144.108 -2.96865 5.33576 0
M  V30 1432 H 145.522 -0.724545 5.68703 0
M  V30 1433 H 143.919 0.001678 6.001 0
M  V30 1434 H 144.989 0.735553 4.79289 0
M  V30 1435 N 146.332 -1.57332 0.0918853 0
M  V30 1436 C 147.58 -1.93853 -0.571446 0
M  V30 1437 C 147.901 -0.974212 -1.6892 0
M  V30 1438 O 147.171 -0.0257254 -1.95883 0
M  V30 1439 H 145.751 -0.715666 -0.214082 0
M  V30 1440 H 148.413 -1.94287 0.154464 0
M  V30 1441 H 147.509 -2.96191 -0.983729 0
M  V30 1442 N 147.81 0.181792 -1.56548 0
M  V30 1443 C 148.74 1.22765 -1.98623 0
M  V30 1444 C 149.721 1.46747 -0.860189 0
M  V30 1445 O 150.906 1.58259 -1.12551 0
M  V30 1446 C 148.036 2.56894 -2.33715 0
M  V30 1447 C 146.99 2.475 -3.49182 0
M  V30 1448 C 146.316 3.86023 -3.69986 0
M  V30 1449 C 147.616 1.98866 -4.82959 0
M  V30 1450 H 149.31 0.877942 -2.86239 0
M  V30 1451 H 146.856 0.42088 -1.37712 0
M  V30 1452 H 148.809 3.30253 -2.61746 0
M  V30 1453 H 147.533 2.93632 -1.42997 0
M  V30 1454 H 146.192 1.76596 -3.21262 0
M  V30 1455 H 145.84 4.20136 -2.76576 0
M  V30 1456 H 145.54 3.80609 -4.47672 0
M  V30 1457 H 147.064 4.60984 -4.00407 0
M  V30 1458 H 148.478 2.61992 -5.09934 0
M  V30 1459 H 146.875 2.04424 -5.64208 0
M  V30 1460 H 147.945 0.942465 -4.75653 0
M  V30 1461 N 149.288 1.51039 0.449983 0
M  V30 1462 C 150.218 1.74379 1.55288 0
M  V30 1463 C 151.199 0.593236 1.5942 0
M  V30 1464 O 152.384 0.834625 1.7535 0
M  V30 1465 C 149.514 1.85728 2.93466 0
M  V30 1466 C 148.468 3.01078 3.04197 0
M  V30 1467 C 147.794 2.97595 4.44231 0
M  V30 1468 C 149.094 4.41254 2.7945 0
M  V30 1469 H 150.788 2.66725 1.36008 0
M  V30 1470 H 148.334 1.2835 0.652864 0
M  V30 1471 H 150.287 2.0064 3.70569 0
M  V30 1472 H 149.011 0.900207 3.13949 0
M  V30 1473 H 147.67 2.85851 2.29531 0
M  V30 1474 H 147.318 1.99691 4.61663 0
M  V30 1475 H 147.018 3.75046 4.52343 0
M  V30 1476 H 148.542 3.14583 5.23326 0
M  V30 1477 H 149.956 4.56897 3.46292 0
M  V30 1478 H 148.353 5.20315 2.98985 0
M  V30 1479 H 149.423 4.52164 1.75144 0
M  V30 1480 N 150.766 -0.704594 1.40972 0
M  V30 1481 C 151.696 -1.83124 1.44872 0
M  V30 1482 C 152.677 -1.67281 0.30838 0
M  V30 1483 O 153.862 -1.87149 0.518556 0
M  V30 1484 C 150.992 -3.21181 1.32136 0
M  V30 1485 C 149.946 -3.51714 2.43888 0
M  V30 1486 C 149.272 -4.89032 2.16222 0
M  V30 1487 C 150.572 -3.516 3.86232 0
M  V30 1488 H 152.266 -1.80117 2.39161 0
M  V30 1489 H 149.812 -0.865145 1.15114 0
M  V30 1490 H 151.765 -3.99702 1.33479 0
M  V30 1491 H 150.489 -3.24791 0.343279 0
M  V30 1492 H 149.148 -2.75539 2.41813 0
M  V30 1493 H 148.796 -4.89256 1.16778 0
M  V30 1494 H 148.496 -5.10426 2.911 0
M  V30 1495 H 150.02 -5.69873 2.19265 0
M  V30 1496 H 151.434 -4.2014 3.9007 0
M  V30 1497 H 149.831 -3.84523 4.60719 0
M  V30 1498 H 150.901 -2.50757 4.15029 0
M  V30 1499 N 152.244 -1.26651 -0.937939 0
M  V30 1500 C 153.66 -1.03834 -1.21205 0
M  V30 1501 C 153.86 0.234502 -2.00131 0
M  V30 1502 O 152.916 0.942767 -2.3424 0
M  V30 1503 C 154.229 -2.27167 -1.97017 0
M  V30 1504 C 155.777 -2.32101 -2.09996 0
M  V30 1505 C 156.252 -3.55136 -2.8921 0
M  V30 1506 N 157.743 -3.55632 -2.96783 0
M  V30 1507 C 158.478 -4.475 -3.58512 0
M  V30 1508 N 157.974 -5.4966 -4.21717 0
M  V30 1509 N 159.767 -4.35145 -3.55816 0
M  V30 1510 H 151.918 -2.08398 -0.410391 0
M  V30 1511 H 154.181 -0.916031 -0.244114 0
M  V30 1512 H 153.887 -3.19765 -1.46434 0
M  V30 1513 H 153.761 -2.31672 -2.97671 0
M  V30 1514 H 156.148 -1.40015 -2.59769 0
M  V30 1515 H 156.229 -2.31605 -1.08594 0
M  V30 1516 H 155.873 -4.47553 -2.40123 0
M  V30 1517 H 155.803 -3.5288 -3.90875 0
M  V30 1518 H 158.294 -2.81743 -2.51852 0
M  V30 1519 H 158.607 -6.15943 -4.66727 0
M  V30 1520 H 156.952 -5.53514 -4.20294 0
M  V30 1521 H 160.143 -3.5455 -3.05634 0
M  V30 1522 H 160.316 -5.06934 -4.03636 0
M  V30 1523 N 153.722 1.14298 -1.08507 0
M  V30 1524 C 154.947 1.8976 -0.837001 0
M  V30 1525 C 155.372 1.78097 0.605228 0
M  V30 1526 O 154.73 1.12188 1.4242 0
M  V30 1527 C 154.778 3.37685 -1.26495 0
M  V30 1528 O 153.882 4.10281 -0.417514 0
M  V30 1529 H 153.223 0.590365 -0.303917 0
M  V30 1530 H 155.753 1.44672 -1.44676 0
M  V30 1531 H 155.763 3.88501 -1.24625 0
M  V30 1532 H 154.438 3.45492 -2.31534 0
M  V30 1533 H 153.015 3.69536 -0.499722 0
M  V30 1534 N 155.201 0.870884 1.31352 0
M  V30 1535 C 156.148 0.325425 2.28494 0
M  V30 1536 C 157.118 -0.576615 1.5577 0
M  V30 1537 O 158.303 -0.508059 1.83911 0
M  V30 1538 C 155.443 -0.466283 3.41935 0
M  V30 1539 C 154.556 0.463378 4.29508 0
M  V30 1540 C 153.691 -0.342544 5.30094 0
M  V30 1541 C 152.73 0.583486 6.09313 0
M  V30 1542 N 151.867 -0.186244 7.01853 0
M  V30 1543 H 156.707 1.15901 2.74538 0
M  V30 1544 H 154.244 0.58294 1.35056 0
M  V30 1545 H 156.202 -0.941085 4.06447 0
M  V30 1546 H 154.832 -1.26456 2.97 0
M  V30 1547 H 153.884 1.05663 3.65431 0
M  V30 1548 H 155.196 1.1734 4.84802 0
M  V30 1549 H 154.35 -0.879816 6.00287 0
M  V30 1550 H 153.089 -1.08585 4.75458 0
M  V30 1551 H 152.094 1.13251 5.3801 0
M  V30 1552 H 153.319 1.32566 6.66035 0
M  V30 1553 H 151.265 -0.912348 6.49625 0
M  V30 1554 H 151.182 0.464422 7.54572 0
M  V30 1555 H 152.45 -0.704716 7.76308 0
M  V30 1556 N 156.679 -1.44442 0.630414 0
M  V30 1557 C 157.611 -2.2892 -0.113347 0
M  V30 1558 C 158.624 -1.41243 -0.80959 0
M  V30 1559 O 159.813 -1.65402 -0.671156 0
M  V30 1560 C 156.913 -3.17594 -1.18266 0
M  V30 1561 C 156.086 -4.33682 -0.569073 0
M  V30 1562 C 155.145 -5.03397 -1.53226 0
M  V30 1563 O 154.171 -5.59438 -1.04967 0
M  V30 1564 N 155.373 -5.04783 -2.86661 0
M  V30 1565 H 158.138 -2.93392 0.611636 0
M  V30 1566 H 155.699 -1.54881 0.471523 0
M  V30 1567 H 157.691 -3.61097 -1.82732 0
M  V30 1568 H 156.261 -2.54876 -1.80988 0
M  V30 1569 H 155.481 -3.9338 0.254187 0
M  V30 1570 H 156.769 -5.08608 -0.139767 0
M  V30 1571 H 156.167 -4.60584 -3.28449 0
M  V30 1572 H 154.724 -5.52077 -3.46489 0
M  V30 1573 N 158.157 -0.370918 -1.53173 0
M  V30 1574 C 159.406 0.218249 -2.00516 0
M  V30 1575 C 159.719 1.49429 -1.26215 0
M  V30 1576 O 160.925 2.16239 -1.64174 0
M  V30 1577 C 159.381 0.43948 -3.57207 0
M  V30 1578 C 158.989 -0.822244 -4.4039 0
M  V30 1579 C 160.733 0.986012 -4.1289 0
M  V30 1580 C 158.64 -0.570304 -5.88644 0
M  V30 1581 H 157.57 0.0853333 -0.749156 0
M  V30 1582 H 160.221 -0.490483 -1.76823 0
M  V30 1583 H 158.603 1.20961 -3.77074 0
M  V30 1584 H 159.777 -1.59557 -4.32294 0
M  V30 1585 H 158.092 -1.29238 -3.95836 0
M  V30 1586 H 160.689 1.18991 -5.21292 0
M  V30 1587 H 161.032 1.94972 -3.6782 0
M  V30 1588 H 161.565 0.27592 -3.96842 0
M  V30 1589 H 158.304 -1.50449 -6.38001 0
M  V30 1590 H 157.824 0.164427 -5.99575 0
M  V30 1591 H 159.503 -0.19784 -6.46697 0
M  V30 1592 N 159.635 1.57281 -0.100228 0
M  V30 1593 C 160.582 2.14305 0.856858 0
M  V30 1594 C 161.552 1.06296 1.27634 0
M  V30 1595 O 162.737 1.34109 1.35718 0
M  V30 1596 C 159.877 2.73184 2.10866 0
M  V30 1597 C 158.99 3.95442 1.73925 0
M  V30 1598 C 158.125 4.42468 2.93931 0
M  V30 1599 C 157.164 5.57303 2.5314 0
M  V30 1600 N 156.301 5.99158 3.65997 0
M  V30 1601 H 161.141 2.95772 0.363726 0
M  V30 1602 H 158.678 1.46139 0.167858 0
M  V30 1603 H 160.636 3.05442 2.84185 0
M  V30 1604 H 159.266 1.94437 2.57671 0
M  V30 1605 H 158.318 3.69464 0.905554 0
M  V30 1606 H 159.63 4.78769 1.39935 0
M  V30 1607 H 158.784 4.76537 3.75496 0
M  V30 1608 H 157.523 3.58052 3.31134 0
M  V30 1609 H 156.528 5.22857 1.70003 0
M  V30 1610 H 157.753 6.43471 2.17075 0
M  V30 1611 H 155.699 5.17687 4.02909 0
M  V30 1612 H 155.616 6.77295 3.35869 0
M  V30 1613 H 156.884 6.3786 4.48057 0
M  V30 1614 N 161.113 -0.173488 1.56642 0
M  V30 1615 C 162.529 -0.525174 1.50712 0
M  V30 1616 C 162.729 -1.8476 0.804107 0
M  V30 1617 O 161.785 -2.49869 0.363574 0
M  V30 1618 C 163.098 -0.559937 2.95441 0
M  V30 1619 C 164.646 -0.647288 3.06234 0
M  V30 1620 C 165.121 -0.712963 4.52417 0
M  V30 1621 N 166.612 -0.775911 4.56655 0
M  V30 1622 C 167.347 -0.847264 5.67106 0
M  V30 1623 N 166.843 -0.879585 6.87194 0
M  V30 1624 N 168.636 -0.886117 5.55071 0
M  V30 1625 H 160.787 0.693681 2.00753 0
M  V30 1626 H 163.05 0.249841 0.914485 0
M  V30 1627 H 162.756 0.343049 3.50023 0
M  V30 1628 H 162.63 -1.40718 3.49969 0
M  V30 1629 H 165.017 -1.5407 2.51687 0
M  V30 1630 H 165.098 0.226586 2.54794 0
M  V30 1631 H 164.742 0.176183 5.07594 0
M  V30 1632 H 164.672 -1.60295 5.0161 0
M  V30 1633 H 167.163 -0.759304 3.70193 0
M  V30 1634 H 167.476 -0.935144 7.67121 0
M  V30 1635 H 165.821 -0.847898 6.89808 0
M  V30 1636 H 169.012 -0.857853 4.60172 0
M  V30 1637 H 169.185 -0.938263 6.41171 0
M  V30 1638 N 162.591 -1.51276 -0.441967 0
M  V30 1639 C 163.524 -1.66933 -1.55591 0
M  V30 1640 C 164.502 -0.516958 -1.54163 0
M  V30 1641 O 165.686 -0.740209 -1.73358 0
M  V30 1642 C 162.813 -1.67866 -2.94174 0
M  V30 1643 C 161.859 -2.89013 -3.13646 0
M  V30 1644 S 162.692 -4.49897 -2.90436 0
M  V30 1645 C 163.848 -4.53568 -4.31308 0
M  V30 1646 H 164.081 -2.61155 -1.42076 0
M  V30 1647 H 161.614 -1.40902 -0.631341 0
M  V30 1648 H 163.572 -1.69089 -3.74058 0
M  V30 1649 H 162.233 -0.748296 -3.05056 0
M  V30 1650 H 161.426 -2.86054 -4.14957 0
M  V30 1651 H 161.028 -2.85509 -2.4158 0
M  V30 1652 H 163.32 -4.28924 -5.24434 0
M  V30 1653 H 164.263 -5.55355 -4.39303 0
M  V30 1654 H 164.671 -3.82943 -4.14747 0
M  V30 1655 N 164.069 0.697108 -1.41344 0
M  V30 1656 C 165.315 1.4593 -1.40827 0
M  V30 1657 C 165.648 1.94193 -0.0167098 0
M  V30 1658 O 164.923 1.69425 0.955263 0
M  V30 1659 C 165.206 2.67229 -2.41373 0
M  V30 1660 C 165.059 2.24741 -3.8963 0
M  V30 1661 C 166.378 3.69423 -2.39196 0
M  V30 1662 H 163.497 0.529303 -0.512842 0
M  V30 1663 H 166.139 0.794112 -1.72609 0
M  V30 1664 H 164.289 3.23982 -2.14401 0
M  V30 1665 H 165.961 1.73327 -4.27499 0
M  V30 1666 H 164.204 1.56542 -4.0457 0
M  V30 1667 H 164.875 3.1177 -4.55525 0
M  V30 1668 H 167.351 3.2234 -2.63128 0
M  V30 1669 H 166.227 4.51907 -3.11563 0
M  V30 1670 H 166.488 4.19012 -1.41001 0
M  V30 1671 N 165.547 1.27147 0.931209 0
M  V30 1672 C 166.772 1.16191 1.71797 0
M  V30 1673 C 167.197 -0.278004 1.86034 0
M  V30 1674 O 166.555 -1.20137 1.35782 0
M  V30 1675 C 166.603 1.84673 3.09723 0
M  V30 1676 O 165.707 1.14231 3.96264 0
M  V30 1677 H 165.048 0.404303 0.526721 0
M  V30 1678 H 167.578 1.68152 1.1656 0
M  V30 1679 H 167.588 1.91893 3.60057 0
M  V30 1680 H 166.263 2.89421 2.98677 0
M  V30 1681 H 164.84 1.15056 3.54706 0
M  V30 1682 N 167.025 -1.13721 1.09112 0
M  V30 1683 C 168.25 -1.89314 0.847053 0
M  V30 1684 C 168.675 -1.78416 -0.595774 0
M  V30 1685 O 168.033 -1.12942 -1.41823 0
M  V30 1686 C 168.081 -3.3701 1.28284 0
M  V30 1687 O 167.185 -4.10054 0.439267 0
M  V30 1688 H 166.526 -0.588745 0.307044 0
M  V30 1689 H 169.056 -1.43902 1.45442 0
M  V30 1690 H 169.066 -3.87834 1.26683 0
M  V30 1691 H 167.741 -3.4426 2.33363 0
M  V30 1692 H 166.318 -3.69266 0.519312 0
M  V30 1693 N 168.503 -0.877838 -1.30888 0
M  V30 1694 C 169.733 -0.506678 -2.00291 0
M  V30 1695 C 170.141 0.907449 -1.66018 0
M  V30 1696 O 169.484 1.60719 -0.88967 0
M  V30 1697 C 169.546 -0.59323 -3.54572 0
M  V30 1698 C 169.21 -1.97038 -4.12341 0
M  V30 1699 C 170.207 -2.93889 -4.28865 0
M  V30 1700 C 167.892 -2.27383 -4.47886 0
M  V30 1701 C 169.886 -4.19224 -4.80136 0
M  V30 1702 C 167.573 -3.52965 -4.98857 0
M  V30 1703 C 168.571 -4.48701 -5.14934 0
M  V30 1704 O 168.259 -5.72056 -5.64808 0
M  V30 1705 H 167.991 -0.1951 -0.647234 0
M  V30 1706 H 170.545 -1.18301 -1.6791 0
M  V30 1707 H 168.775 0.140057 -3.86446 0
M  V30 1708 H 170.464 -0.234372 -4.05223 0
M  V30 1709 H 171.23 -2.71756 -4.01714 0
M  V30 1710 H 167.109 -1.53639 -4.34645 0
M  V30 1711 H 170.653 -4.93956 -4.92599 0
M  V30 1712 H 166.55 -3.74939 -5.25443 0
M  V30 1713 H 167.318 -5.74337 -5.83163 0
M  V30 1714 N 169.982 1.44106 -0.638065 0
M  V30 1715 C 171.228 2.02277 -0.145546 0
M  V30 1716 C 171.561 1.50125 1.23191 0
M  V30 1717 O 170.836 0.688133 1.8192 0
M  V30 1718 C 171.119 3.59829 -0.139791 0
M  V30 1719 C 170.972 4.22247 -1.55008 0
M  V30 1720 C 172.291 4.36873 0.531966 0
M  V30 1721 H 169.41 0.734992 -0.0543632 0
M  V30 1722 H 172.052 1.71592 -0.815863 0
M  V30 1723 H 170.202 3.86102 0.431007 0
M  V30 1724 H 171.874 4.07057 -2.1703 0
M  V30 1725 H 170.117 3.79476 -2.10191 0
M  V30 1726 H 170.788 5.31284 -1.49804 0
M  V30 1727 H 173.264 4.16074 0.0464781 0
M  V30 1728 H 172.14 5.4657 0.505206 0
M  V30 1729 H 172.401 4.11995 1.60352 0
M  V30 1730 N 171.46 0.379036 1.52974 0
M  V30 1731 C 172.708 -0.206014 2.01047 0
M  V30 1732 C 173.029 -1.48175 1.26765 0
M  V30 1733 O 172.299 -1.92085 0.384743 0
M  V30 1734 H 170.879 -0.0791184 0.742798 0
M  V30 1735 H 173.541 0.508366 1.88153 0
M  V30 1736 H 172.637 -0.423501 3.09213 0
M  V30 1737 N 172.938 -1.57226 0.108567 0
M  V30 1738 C 173.848 -2.18292 -0.859401 0
M  V30 1739 C 174.864 -1.15612 -1.30038 0
M  V30 1740 O 176.04 -1.48039 -1.36552 0
M  V30 1741 C 173.105 -2.762 -2.09558 0
M  V30 1742 C 172.166 -3.93881 -1.70752 0
M  V30 1743 C 171.399 -4.49018 -2.88477 0
M  V30 1744 O 171.622 -4.03068 -4.036 0
M  V30 1745 O 170.556 -5.39852 -2.66164 0
M  V30 1746 H 174.382 -3.01441 -0.369769 0
M  V30 1747 H 171.967 -1.48945 -0.1165 0
M  V30 1748 H 173.849 -3.13156 -2.81978 0
M  V30 1749 H 172.524 -1.96089 -2.57548 0
M  V30 1750 H 171.431 -3.61713 -0.954714 0
M  V30 1751 H 172.764 -4.75396 -1.27513 0
M  V30 1752 N 174.416 0.165178 -1.56732 0
M  V30 1753 C 175.364 1.22369 -1.97809 0
M  V30 1754 C 176.358 1.45488 -0.867741 0
M  V30 1755 O 177.564 1.45995 -1.05288 0
M  V30 1756 H 173.939 0.411486 -0.629431 0
M  V30 1757 H 175.91 0.850425 -2.86025 0
M  V30 1758 C 174.659 2.55403 -2.35934 0
M  V30 1759 H 173.982 2.38438 -3.20916 0
M  V30 1760 H 175.422 3.2814 -2.68514 0
M  V30 1761 C 173.881 3.14611 -1.20506 0
M  V30 1762 O 174.411 3.98626 -0.496016 0
M  V30 1763 N 172.617 2.7379 -0.97403 0
M  V30 1764 H 172.164 2.0557 -1.55238 0
M  V30 1765 H 172.122 3.1374 -0.203573 0
M  V30 1766 N 175.894 1.51508 0.433938 0
M  V30 1767 C 176.857 1.72473 1.50949 0
M  V30 1768 C 177.857 0.594725 1.49398 0
M  V30 1769 O 179.047 0.862315 1.5136 0
M  V30 1770 C 176.179 1.78431 2.90474 0
M  V30 1771 H 177.372 2.68467 1.33662 0
M  V30 1772 H 174.925 1.41549 0.662836 0
M  V30 1773 H 175.66 0.842645 3.13161 0
M  V30 1774 H 175.445 2.60558 2.93005 0
M  V30 1775 H 176.935 1.96479 3.68491 0
M  V30 1776 N 177.372 -0.689602 1.41712 0
M  V30 1777 C 178.282 -1.83314 1.46401 0
M  V30 1778 C 179.298 -1.7036 0.35405 0
M  V30 1779 O 180.474 -1.92171 0.602692 0
M  V30 1780 C 177.539 -3.19344 1.34982 0
M  V30 1781 C 176.6 -3.44363 2.56344 0
M  V30 1782 C 175.833 -4.73904 2.45461 0
M  V30 1783 O 176.056 -5.508 1.48241 0
M  V30 1784 O 174.99 -4.99839 3.35328 0
M  V30 1785 H 178.816 -1.82314 2.42889 0
M  V30 1786 H 176.401 -0.843438 1.23315 0
M  V30 1787 H 178.283 -4.00547 1.3092 0
M  V30 1788 H 176.958 -3.21014 0.41612 0
M  V30 1789 H 175.865 -2.63067 2.65982 0
M  V30 1790 H 177.198 -3.47512 3.48563 0
M  V30 1791 N 178.85 -1.27639 -0.924453 0
M  V30 1792 C 180.097 -1.14167 -1.67249 0
M  V30 1793 C 180.425 0.311863 -1.91984 0
M  V30 1794 O 179.68 1.24425 -1.51053 0
M  V30 1795 C 179.979 -1.87407 -3.04325 0
M  V30 1796 C 179.645 -3.37249 -2.99289 0
M  V30 1797 C 178.307 -3.7812 -2.97622 0
M  V30 1798 C 180.659 -4.32845 -2.90336 0
M  V30 1799 C 177.987 -5.12944 -2.8479 0
M  V30 1800 C 180.339 -5.6773 -2.79045 0
M  V30 1801 C 179.003 -6.07889 -2.7573 0
M  V30 1802 H 178.273 -0.417766 -0.612007 0
M  V30 1803 H 180.92 -1.58286 -1.07786 0
M  V30 1804 H 179.225 -1.35805 -3.67511 0
M  V30 1805 H 180.922 -1.74408 -3.61086 0
M  V30 1806 H 177.512 -3.04748 -3.01374 0
M  V30 1807 H 181.696 -4.02239 -2.90719 0
M  V30 1808 H 176.952 -5.432 -2.80612 0
M  V30 1809 H 181.126 -6.41472 -2.71083 0
M  V30 1810 H 178.753 -7.12314 -2.65544 0
M  V30 1811 N 180.328 1.1314 -1.09713 0
M  V30 1812 C 181.238 2.22242 -0.751367 0
M  V30 1813 C 182.254 1.72224 0.247938 0
M  V30 1814 O 183.43 2.01205 0.0885463 0
M  V30 1815 C 180.495 3.46231 -0.180274 0
M  V30 1816 C 179.556 4.11125 -1.2359 0
M  V30 1817 C 178.789 5.29195 -0.691966 0
M  V30 1818 O 179.012 5.68342 0.48414 0
M  V30 1819 O 177.946 5.84214 -1.44838 0
M  V30 1820 H 181.772 2.54197 -1.66186 0
M  V30 1821 H 179.357 1.21331 -0.871735 0
M  V30 1822 H 181.239 4.21185 0.134739 0
M  V30 1823 H 179.914 3.1597 0.703185 0
M  V30 1824 H 178.821 3.37985 -1.60366 0
M  V30 1825 H 180.154 4.45524 -2.09211 0
M  V30 1826 N 181.806 0.884767 1.30421 0
M  V30 1827 C 183.222 0.57874 1.48737 0
M  V30 1828 C 183.422 -0.883567 1.81095 0
M  V30 1829 O 182.478 -1.6648 1.89844 0
M  V30 1830 C 183.791 1.49171 2.61091 0
M  V30 1831 C 185.339 1.49532 2.74971 0
M  V30 1832 C 185.814 2.39421 3.90438 0
M  V30 1833 N 187.305 2.37383 3.97748 0
M  V30 1834 C 188.04 3.03647 4.86401 0
M  V30 1835 N 187.536 3.79136 5.79852 0
M  V30 1836 N 189.329 2.9288 4.79768 0
M  V30 1837 H 181.48 1.83075 1.0769 0
M  V30 1838 H 183.743 0.783637 0.533495 0
M  V30 1839 H 183.449 2.53291 2.44001 0
M  V30 1840 H 183.323 1.20113 3.57565 0
M  V30 1841 H 185.71 0.46163 2.91467 0
M  V30 1842 H 185.791 1.8262 1.79119 0
M  V30 1843 H 185.435 3.42874 3.74699 0
M  V30 1844 H 185.365 2.03649 4.85628 0
M  V30 1845 H 187.856 1.82525 3.30897 0
M  V30 1846 H 188.169 4.26789 6.4426 0
M  V30 1847 H 186.514 3.83243 5.79784 0
M  V30 1848 H 189.705 2.33433 4.05742 0
M  V30 1849 H 189.878 3.448 5.4865 0
M  V30 1850 N 183.284 -1.43765 0.645699 0
M  V30 1851 C 184.216 -2.29027 -0.0890605 0
M  V30 1852 C 185.229 -1.42093 -0.794563 0
M  V30 1853 O 186.418 -1.66104 -0.653575 0
M  V30 1854 C 183.518 -3.18831 -1.14891 0
M  V30 1855 C 182.691 -4.34261 -0.523043 0
M  V30 1856 C 181.75 -5.04994 -1.47878 0
M  V30 1857 O 180.776 -5.6052 -0.990277 0
M  V30 1858 N 181.978 -5.07795 -2.81291 0
M  V30 1859 H 184.743 -2.92727 0.64272 0
M  V30 1860 H 182.304 -1.54373 0.487924 0
M  V30 1861 H 184.296 -3.63015 -1.78892 0
M  V30 1862 H 182.866 -2.56782 -1.78275 0
M  V30 1863 H 182.086 -3.93088 0.295896 0
M  V30 1864 H 183.374 -5.08728 -0.0858147 0
M  V30 1865 H 182.772 -4.64042 -3.23546 0
M  V30 1866 H 181.329 -5.55721 -3.40614 0
M  V30 1867 N 184.763 -0.387143 -1.52771 0
M  V30 1868 C 185.993 0.195585 -2.05672 0
M  V30 1869 C 186.401 1.41241 -1.25887 0
M  V30 1870 O 185.744 1.81265 -0.298081 0
M  V30 1871 C 185.806 0.632327 -3.53895 0
M  V30 1872 C 185.47 -0.470739 -4.54569 0
M  V30 1873 C 186.467 -1.32746 -5.02667 0
M  V30 1874 C 184.152 -0.637151 -4.98243 0
M  V30 1875 C 186.146 -2.33574 -5.93061 0
M  V30 1876 C 183.833 -1.64877 -5.88438 0
M  V30 1877 C 184.831 -2.49649 -6.35739 0
M  V30 1878 O 184.519 -3.49082 -7.24153 0
M  V30 1879 H 184.251 0.033658 -0.675162 0
M  V30 1880 H 186.805 -0.550221 -1.97893 0
M  V30 1881 H 185.035 1.43008 -3.59285 0
M  V30 1882 H 186.724 1.14048 -3.89548 0
M  V30 1883 H 187.49 -1.21019 -4.69659 0
M  V30 1884 H 183.369 0.0129567 -4.60998 0
M  V30 1885 H 186.913 -2.99777 -6.29904 0
M  V30 1886 H 182.81 -1.76643 -6.2086 0
M  V30 1887 H 183.578 -3.45065 -7.42208 0
M  V30 1888 N 186.241 1.57166 -0.116904 0
M  V30 1889 C 187.171 2.18222 0.830759 0
M  V30 1890 C 188.152 1.12167 1.27877 0
M  V30 1891 O 189.337 1.40394 1.34176 0
M  V30 1892 C 186.467 2.77996 2.08172 0
M  V30 1893 C 185.421 3.89614 1.77157 0
M  V30 1894 C 184.747 4.36187 3.09265 0
M  V30 1895 C 186.047 5.1181 1.04151 0
M  V30 1896 H 187.741 2.97664 0.321992 0
M  V30 1897 H 185.287 1.4318 0.153434 0
M  V30 1898 H 187.24 3.19366 2.74924 0
M  V30 1899 H 185.964 1.9584 2.6137 0
M  V30 1900 H 184.623 3.48816 1.12796 0
M  V30 1901 H 184.271 3.50893 3.60393 0
M  V30 1902 H 183.971 5.11455 2.89288 0
M  V30 1903 H 185.495 4.80207 3.77139 0
M  V30 1904 H 186.909 5.50214 1.61052 0
M  V30 1905 H 185.306 5.92648 0.942762 0
M  V30 1906 H 186.376 4.84892 0.0279022 0
M  V30 1907 N 187.719 -0.156864 1.56817 0
M  V30 1908 C 188.944 -0.890331 1.87318 0
M  V30 1909 C 189.369 -1.74394 0.704855 0
M  V30 1910 O 188.727 -1.77972 -0.345786 0
M  V30 1911 C 188.775 -1.73102 3.16336 0
M  V30 1912 O 187.879 -2.83422 2.99576 0
M  V30 1913 H 187.22 -0.24857 0.615718 0
M  V30 1914 H 189.75 -0.150649 2.04045 0
M  V30 1915 H 189.76 -2.12803 3.48107 0
M  V30 1916 H 188.435 -1.10412 4.00976 0
M  V30 1917 H 187.012 -2.47199 2.7919 0
M  V30 1918 N 189.197 -1.51736 -0.425897 0
M  V30 1919 C 190.445 -1.64644 -1.17204 0
M  V30 1920 C 190.766 -0.370486 -1.91448 0
M  V30 1921 O 190.036 0.614088 -1.86026 0
M  V30 1922 H 188.616 -0.606819 -0.435638 0
M  V30 1923 H 191.278 -1.88713 -0.487177 0
M  V30 1924 H 190.374 -2.47958 -1.89534 0
M  V30 1925 N 190.675 0.682077 -1.42076 0
M  V30 1926 C 191.585 1.82535 -1.47371 0
M  V30 1927 C 192.601 1.7017 -0.363079 0
M  V30 1928 O 193.777 1.91848 -0.612875 0
M  V30 1929 C 190.842 3.18624 -1.36674 0
M  V30 1930 C 189.903 3.42999 -2.58167 0
M  V30 1931 C 189.136 4.72595 -2.4797 0
M  V30 1932 O 189.359 5.50006 -1.5116 0
M  V30 1933 O 188.293 4.98054 -3.37974 0
M  V30 1934 H 192.119 1.81023 -2.43853 0
M  V30 1935 H 189.704 0.836887 -1.2376 0
M  V30 1936 H 191.586 3.99847 -1.33043 0
M  V30 1937 H 190.261 3.20789 -0.433138 0
M  V30 1938 H 189.168 2.61653 -2.67373 0
M  V30 1939 H 190.501 3.45659 -3.50401 0
M  V30 1940 N 192.153 1.28127 0.917671 0
M  V30 1941 C 193.083 1.14248 2.03641 0
M  V30 1942 C 194.064 0.0412748 1.7005 0
M  V30 1943 O 195.249 0.217566 1.92977 0
M  V30 1944 C 192.379 0.799431 3.37974 0
M  V30 1945 C 191.333 1.85497 3.85713 0
M  V30 1946 C 190.659 1.36565 5.16966 0
M  V30 1947 C 191.959 3.26085 4.08002 0
M  V30 1948 H 193.653 2.07835 2.15511 0
M  V30 1949 H 191.199 1.00064 1.03553 0
M  V30 1950 H 193.152 0.689114 4.15727 0
M  V30 1951 H 191.876 -0.172145 3.26146 0
M  V30 1952 H 190.535 1.95437 3.10161 0
M  V30 1953 H 190.183 0.383253 5.01538 0
M  V30 1954 H 189.883 2.07143 5.49878 0
M  V30 1955 H 191.407 1.26848 5.97279 0
M  V30 1956 H 192.821 3.19089 4.76293 0
M  V30 1957 H 191.218 3.94462 4.52238 0
M  V30 1958 H 192.288 3.70394 3.12948 0
M  V30 1959 N 193.631 -1.12557 1.10312 0
M  V30 1960 C 194.541 -2.21841 0.763142 0
M  V30 1961 C 195.557 -1.72354 -0.238801 0
M  V30 1962 O 196.733 -2.01249 -0.0778746 0
M  V30 1963 C 193.798 -3.46131 0.198632 0
M  V30 1964 C 192.859 -4.10464 1.25769 0
M  V30 1965 C 192.092 -5.28821 0.72002 0
M  V30 1966 O 192.315 -5.6859 -0.453993 0
M  V30 1967 O 191.249 -5.83437 1.47935 0
M  V30 1968 H 195.075 -2.53312 1.67532 0
M  V30 1969 H 192.66 -1.20867 0.878157 0
M  V30 1970 H 194.542 -4.2125 -0.112401 0
M  V30 1971 H 193.217 -3.16338 -0.686419 0
M  V30 1972 H 192.124 -3.3713 1.62156 0
M  V30 1973 H 193.457 -4.44408 2.11571 0
M  V30 1974 N 195.109 -0.891671 -1.2995 0
M  V30 1975 C 196.355 -0.514261 -1.96171 0
M  V30 1976 C 196.688 0.935506 -1.70182 0
M  V30 1977 O 195.963 1.66204 -1.01028 0
M  V30 1978 C 196.246 -0.797719 -3.51153 0
M  V30 1979 C 196.099 -2.2986 -3.86632 0
M  V30 1980 C 197.418 -0.278749 -4.39216 0
M  V30 1981 H 194.537 -0.188314 -0.712535 0
M  V30 1982 H 197.179 -1.11689 -1.53706 0
M  V30 1983 H 195.329 -0.284826 -3.87455 0
M  V30 1984 H 197.001 -2.88042 -3.60319 0
M  V30 1985 H 195.244 -2.76257 -3.34462 0
M  V30 1986 H 195.915 -2.44753 -4.94773 0
M  V30 1987 H 198.391 -0.717825 -4.09862 0
M  V30 1988 H 197.267 -0.506353 -5.46559 0
M  V30 1989 H 197.528 0.820266 -4.34424 0
M  V30 1990 N 196.587 1.43421 -0.653314 0
M  V30 1991 C 197.497 2.34568 0.0388565 0
M  V30 1992 C 198.513 1.53888 0.81207 0
M  V30 1993 O 199.689 1.86539 0.759294 0
M  V30 1994 C 196.754 3.32167 0.993269 0
M  V30 1995 C 195.815 4.28751 0.216977 0
M  V30 1996 C 195.048 5.21688 1.12593 0
M  V30 1997 O 195.271 5.19052 2.36519 0
M  V30 1998 O 194.205 5.98919 0.598284 0
M  V30 1999 H 198.031 2.95251 -0.711386 0
M  V30 2000 H 195.616 1.43564 -0.413502 0
M  V30 2001 H 197.498 3.92183 1.54176 0
M  V30 2002 H 196.173 2.73987 1.72374 0
M  V30 2003 H 195.08 3.72215 -0.375101 0
M  V30 2004 H 196.413 4.89913 -0.473924 0
M  V30 2005 N 198.065 0.39524 1.52563 0
M  V30 2006 C 198.995 -0.428384 2.29537 0
M  V30 2007 C 199.976 -1.05831 1.33169 0
M  V30 2008 O 201.161 -1.06995 1.62067 0
M  V30 2009 C 198.291 -1.55274 3.10656 0
M  V30 2010 C 197.245 -1.04855 4.14957 0
M  V30 2011 C 196.571 -2.26543 4.84337 0
M  V30 2012 C 197.871 -0.112324 5.22179 0
M  V30 2013 H 199.565 0.213867 2.98635 0
M  V30 2014 H 197.111 0.104298 1.43622 0
M  V30 2015 H 199.064 -2.1358 3.63265 0
M  V30 2016 H 197.788 -2.22266 2.39302 0
M  V30 2017 H 196.447 -0.487985 3.63338 0
M  V30 2018 H 196.095 -2.92059 4.09525 0
M  V30 2019 H 195.795 -1.93466 5.54837 0
M  V30 2020 H 197.319 -2.85481 5.39753 0
M  V30 2021 H 198.733 -0.603752 5.70112 0
M  V30 2022 H 197.13 0.128968 5.99961 0
M  V30 2023 H 198.2 0.837052 4.77621 0
M  V30 2024 N 199.544 -1.57102 0.125237 0
M  V30 2025 C 200.772 -1.99761 -0.538797 0
M  V30 2026 C 201.187 -1.00503 -1.59827 0
M  V30 2027 O 200.544 0.00119474 -1.825 0
M  V30 2028 C 200.595 -3.42408 -1.15927 0
M  V30 2029 O 200.316 -4.37869 -0.142143 0
M  V30 2030 C 201.817 -4.00232 -1.90602 0
M  V30 2031 H 199.037 -0.655772 -0.14214 0
M  V30 2032 H 201.581 -2.03383 0.213413 0
M  V30 2033 H 199.736 -3.39706 -1.86223 0
M  V30 2034 H 200.15 -5.21128 -0.593775 0
M  V30 2035 H 201.624 -5.02105 -2.29335 0
M  V30 2036 H 202.101 -3.39721 -2.78363 0
M  V30 2037 H 202.707 -4.06499 -1.25055 0
M  V30 2038 N 201.022 0.148545 -1.56898 0
M  V30 2039 C 202.433 0.708766 -1.72723 0
M  V30 2040 C 202.784 1.81734 -0.739395 0
M  V30 2041 O 201.909 2.16194 0.0943169 0
M  V30 2042 C 202.504 1.29245 -3.13179 0
M  V30 2043 C 201.063 1.79925 -3.30611 0
M  V30 2044 C 200.21 0.687111 -2.68652 0
M  V30 2045 H 203.161 -0.0771063 -1.58513 0
M  V30 2046 H 203.182 2.16224 -3.13093 0
M  V30 2047 H 202.694 0.485382 -3.85053 0
M  V30 2048 H 200.795 2.63203 -2.63732 0
M  V30 2049 H 200.908 1.92903 -4.38549 0
M  V30 2050 H 199.272 1.11335 -2.29078 0
M  V30 2051 H 200.055 -0.108483 -3.43129 0
M  V30 2052 N 202.5 1.5196 0.417844 0
M  V30 2053 C 203.432 1.70895 1.52733 0
M  V30 2054 C 204.445 0.589405 1.51756 0
M  V30 2055 O 205.634 0.864312 1.56179 0
M  V30 2056 C 202.734 1.72627 2.91639 0
M  V30 2057 C 201.907 3.01479 3.16905 0
M  V30 2058 C 200.966 2.95139 4.35637 0
M  V30 2059 O 199.992 3.69059 4.3334 0
M  V30 2060 N 201.194 2.12328 5.40275 0
M  V30 2061 H 203.959 2.66612 1.36888 0
M  V30 2062 H 201.52 1.50089 0.607037 0
M  V30 2063 H 203.512 1.65928 3.6912 0
M  V30 2064 H 202.082 0.844216 3.00985 0
M  V30 2065 H 201.302 3.21895 2.27546 0
M  V30 2066 H 202.59 3.86736 3.30625 0
M  V30 2067 H 201.988 1.51685 5.44985 0
M  V30 2068 H 200.545 2.11494 6.16534 0
M  V30 2069 N 203.978 -0.674533 1.42435 0
M  V30 2070 C 205.226 -1.43175 1.42637 0
M  V30 2071 C 205.547 -1.94951 0.0438992 0
M  V30 2072 O 204.817 -1.7308 -0.917607 0
M  V30 2073 H 203.397 -0.531307 0.525092 0
M  V30 2074 H 206.059 -0.797006 1.77859 0
M  V30 2075 H 205.155 -2.28463 2.12629 0
M  V30 2076 N 205.456 -1.28612 -0.910864 0
M  V30 2077 C 206.684 -1.18792 -1.69399 0
M  V30 2078 C 207.099 0.253039 -1.87097 0
M  V30 2079 O 206.456 1.17071 -1.40003 0
M  V30 2080 C 206.507 -1.88511 -3.08457 0
M  V30 2081 O 206.228 -3.26979 -2.91576 0
M  V30 2082 C 207.729 -1.85029 -4.02839 0
M  V30 2083 H 204.949 -0.412233 -0.529438 0
M  V30 2084 H 207.493 -1.69788 -1.13984 0
M  V30 2085 H 205.648 -1.41379 -3.60681 0
M  V30 2086 H 206.062 -3.61936 -3.79608 0
M  V30 2087 H 207.536 -2.38395 -4.97867 0
M  V30 2088 H 208.013 -0.823303 -4.31414 0
M  V30 2089 H 208.619 -2.31853 -3.56545 0
M  V30 2090 N 206.934 1.1197 -1.10907 0
M  V30 2091 C 207.864 2.19928 -0.784473 0
M  V30 2092 C 208.845 1.6833 0.244726 0
M  V30 2093 O 210.03 1.93892 0.109418 0
M  V30 2094 C 207.16 3.46597 -0.220827 0
M  V30 2095 C 206.114 4.11376 -1.18127 0
M  V30 2096 C 205.44 5.32554 -0.478594 0
M  V30 2097 C 206.74 4.56945 -2.52979 0
M  V30 2098 H 208.434 2.47337 -1.68715 0
M  V30 2099 H 205.98 1.18879 -0.812642 0
M  V30 2100 H 207.933 4.21396 0.0184278 0
M  V30 2101 H 206.657 3.1863 0.717113 0
M  V30 2102 H 205.316 3.38564 -1.40606 0
M  V30 2103 H 204.964 5.00856 0.463976 0
M  V30 2104 H 204.664 5.76844 -1.11912 0
M  V30 2105 H 206.188 6.10096 -0.248 0
M  V30 2106 H 207.602 5.23093 -2.3462 0
M  V30 2107 H 205.999 5.1203 -3.12962 0
M  V30 2108 H 207.069 3.70676 -3.12614 0
M  V30 2109 N 208.412 0.89855 1.29475 0
M  V30 2110 C 209.375 0.380272 2.26023 0
M  V30 2111 C 210.375 -0.484891 1.53315 0
M  V30 2112 O 211.565 -0.290108 1.71767 0
M  V30 2113 C 208.697 -0.45651 3.3783 0
M  V30 2114 H 209.89 1.23295 2.73383 0
M  V30 2115 H 207.443 0.676589 1.40897 0
M  V30 2116 H 208.178 -1.32922 2.95808 0
M  V30 2117 H 207.963 0.163393 3.91759 0
M  V30 2118 H 209.453 -0.810466 4.0966 0
M  V30 2119 N 209.89 -1.43072 0.660911 0
M  V30 2120 C 210.8 -2.34585 -0.0264163 0
M  V30 2121 C 211.816 -1.54316 -0.803898 0
M  V30 2122 O 212.992 -1.86939 -0.749391 0
M  V30 2123 C 210.057 -3.32689 -0.975639 0
M  V30 2124 C 209.118 -4.2886 -0.194236 0
M  V30 2125 C 208.351 -5.22278 -1.09825 0
M  V30 2126 O 208.574 -5.20299 -2.33763 0
M  V30 2127 O 207.508 -5.99228 -0.566513 0
M  V30 2128 H 211.334 -2.94869 0.727034 0
M  V30 2129 H 208.919 -1.43342 0.42111 0
M  V30 2130 H 210.801 -3.92995 -1.52094 0
M  V30 2131 H 209.476 -2.74898 -1.70918 0
M  V30 2132 H 208.383 -3.72011 0.394835 0
M  V30 2133 H 209.716 -4.89655 0.499899 0
M  V30 2134 N 211.368 -0.403325 -1.52352 0
M  V30 2135 C 212.784 -0.0539281 -1.59509 0
M  V30 2136 C 212.984 1.43307 -1.41652 0
M  V30 2137 O 212.04 2.19924 -1.24056 0
M  V30 2138 C 213.353 -0.543654 -2.95745 0
M  V30 2139 C 214.901 -0.501125 -3.08962 0
M  V30 2140 C 215.376 -0.967267 -4.47669 0
M  V30 2141 N 216.867 -0.923849 -4.53893 0
M  V30 2142 C 217.602 -1.25578 -5.5948 0
M  V30 2143 N 217.098 -1.65889 -6.72646 0
M  V30 2144 N 218.891 -1.17613 -5.49658 0
M  V30 2145 H 211.042 -1.37123 -1.62206 0
M  V30 2146 H 213.305 -0.56294 -0.76276 0
M  V30 2147 H 213.011 -1.58275 -3.14073 0
M  V30 2148 H 212.885 0.0498042 -3.77167 0
M  V30 2149 H 215.272 0.528909 -2.90321 0
M  V30 2150 H 215.353 -1.13056 -2.2946 0
M  V30 2151 H 214.997 -1.9956 -4.67053 0
M  V30 2152 H 214.927 -0.314698 -5.25659 0
M  V30 2153 H 217.418 -0.627403 -3.72655 0
M  V30 2154 H 217.731 -1.89543 -7.49195 0
M  V30 2155 H 216.076 -1.69787 -6.73942 0
M  V30 2156 H 219.267 -0.860115 -4.6013 0
M  V30 2157 H 219.44 -1.43812 -6.3184 0
M  V30 2158 N 212.846 1.57033 -0.133567 0
M  V30 2159 C 214.095 1.94861 0.520768 0
M  V30 2160 C 214.408 1.02012 1.66892 0
M  V30 2161 O 215.614 1.29365 2.38699 0
M  V30 2162 C 214.07 3.46362 0.977809 0
M  V30 2163 C 213.678 4.47773 -0.142674 0
M  V30 2164 C 215.422 3.93083 1.60269 0
M  V30 2165 C 213.329 5.90468 0.331883 0
M  V30 2166 H 212.259 0.727453 0.198315 0
M  V30 2167 H 214.91 1.82227 -0.215759 0
M  V30 2168 H 213.292 3.54282 1.7692 0
M  V30 2169 H 214.466 4.51536 -0.919317 0
M  V30 2170 H 212.781 4.10891 -0.675124 0
M  V30 2171 H 215.378 4.97121 1.96914 0
M  V30 2172 H 215.721 3.33876 2.48662 0
M  V30 2173 H 216.254 3.88025 0.876453 0
M  V30 2174 H 212.993 6.53463 -0.516341 0
M  V30 2175 H 212.513 5.90094 1.07469 0
M  V30 2176 H 214.192 6.42179 0.788332 0
M  V30 2177 N 214.325 -0.140222 1.56975 0
M  V30 2178 C 215.741 -0.493088 1.51792 0
M  V30 2179 C 215.941 -1.83013 0.843116 0
M  V30 2180 O 214.997 -2.49041 0.416493 0
M  V30 2181 C 216.31 -0.497144 2.96562 0
M  V30 2182 C 217.858 -0.582186 3.07538 0
M  V30 2183 C 218.333 -0.616838 4.53827 0
M  V30 2184 N 219.824 -0.678873 4.58198 0
M  V30 2185 C 220.559 -0.726782 5.68775 0
M  V30 2186 N 220.055 -0.733623 6.88905 0
M  V30 2187 N 221.848 -0.768179 5.56826 0
M  V30 2188 H 213.999 0.736108 1.99237 0
M  V30 2189 H 216.262 0.269182 0.90898 0
M  V30 2190 H 215.968 0.417217 3.49217 0
M  V30 2191 H 215.842 -1.33263 3.52875 0
M  V30 2192 H 218.229 -1.48697 2.54899 0
M  V30 2193 H 218.31 0.280581 2.54257 0
M  V30 2194 H 217.954 0.283812 5.07106 0
M  V30 2195 H 217.884 -1.49619 5.04898 0
M  V30 2196 H 220.375 -0.68061 3.7172 0
M  V30 2197 H 220.688 -0.772215 7.68932 0
M  V30 2198 H 219.033 -0.701389 6.91452 0
M  V30 2199 H 222.224 -0.760051 4.61888 0
M  V30 2200 H 222.397 -0.80205 6.43017 0
M  V30 2201 N 215.803 -1.52179 -0.40978 0
M  V30 2202 C 216.766 -1.74853 -1.48186 0
M  V30 2203 C 217.766 -0.618417 -1.48433 0
M  V30 2204 O 218.956 -0.886286 -1.49969 0
M  V30 2205 C 216.088 -1.8303 -2.87598 0
M  V30 2206 H 217.281 -2.70559 -1.29374 0
M  V30 2207 H 214.834 -1.42586 -0.640233 0
M  V30 2208 H 215.569 -0.89236 -3.11781 0
M  V30 2209 H 215.354 -2.65187 -2.88822 0
M  V30 2210 H 216.844 -2.02316 -3.65319 0
M  V30 2211 N 217.281 0.66697 -1.42791 0
M  V30 2212 C 218.529 1.42417 -1.43394 0
M  V30 2213 C 218.85 1.94925 -0.0542373 0
M  V30 2214 O 218.12 1.73564 0.908415 0
M  V30 2215 H 216.7 0.528515 -0.527902 0
M  V30 2216 H 219.362 0.787562 -1.78279 0
M  V30 2217 H 218.458 2.27333 -2.13837 0
M  V30 2218 N 218.759 1.29093 0.90403 0
M  V30 2219 C 220.007 1.16583 1.65085 0
M  V30 2220 C 220.328 -0.283933 1.92922 0
M  V30 2221 O 219.598 -1.19509 1.55224 0
M  V30 2222 H 218.178 0.428467 0.611903 0
M  V30 2223 H 220.84 1.61959 1.08422 0
M  V30 2224 H 219.936 1.71266 2.6091 0
M  V30 2225 N 220.237 -1.11381 1.11499 0
M  V30 2226 C 221.2 -2.15622 0.777153 0
M  V30 2227 C 222.2 -1.59504 -0.203779 0
M  V30 2228 O 223.39 -1.74188 0.020782 0
M  V30 2229 C 220.522 -3.40556 0.153116 0
M  V30 2230 H 221.715 -2.47021 1.70061 0
M  V30 2231 H 219.268 -1.26577 0.916952 0
M  V30 2232 H 220.003 -3.14767 -0.780536 0
M  V30 2233 H 219.788 -3.8257 0.859238 0
M  V30 2234 H 221.278 -4.17546 -0.0671044 0
M  V30 2235 N 221.715 -0.905404 -1.28997 0
M  V30 2236 C 222.963 -0.533192 -1.9494 0
M  V30 2237 C 223.284 0.924618 -1.71685 0
M  V30 2238 O 222.554 1.65268 -1.05183 0
M  V30 2239 H 221.134 -0.194194 -0.721317 0
M  V30 2240 H 223.796 -1.15294 -1.57141 0
M  V30 2241 H 222.892 -0.72059 -3.03667 0
M  V30 2242 N 223.193 1.4272 -0.668489 0
M  V30 2243 C 224.439 2.01923 -0.188419 0
M  V30 2244 C 224.772 1.52704 1.19979 0
M  V30 2245 O 224.047 0.726566 1.8042 0
M  V30 2246 C 224.33 3.59451 -0.216085 0
M  V30 2247 C 224.183 4.18864 -1.6393 0
M  V30 2248 C 225.502 4.37903 0.439179 0
M  V30 2249 H 222.621 0.733674 -0.0699412 0
M  V30 2250 H 225.263 1.69822 -0.852076 0
M  V30 2251 H 223.413 3.86929 0.349012 0
M  V30 2252 H 225.085 4.02362 -2.25616 0
M  V30 2253 H 223.328 3.74933 -2.18193 0
M  V30 2254 H 223.999 5.27987 -1.61039 0
M  V30 2255 H 226.475 4.16079 -0.0417878 0
M  V30 2256 H 225.351 5.47519 0.389157 0
M  V30 2257 H 225.612 4.15303 1.51577 0
M  V30 2258 N 224.671 0.411399 1.52136 0
M  V30 2259 C 226.082 -0.0576826 1.86611 0
M  V30 2260 C 226.433 -1.44238 1.33003 0
M  V30 2261 O 225.558 -2.05759 0.670228 0
M  V30 2262 C 226.153 -0.111448 3.38617 0
M  V30 2263 C 224.712 -0.52487 3.72723 0
M  V30 2264 C 223.859 0.299176 2.75681 0
M  V30 2265 H 226.81 0.628368 1.4573 0
M  V30 2266 H 226.831 -0.926252 3.69054 0
M  V30 2267 H 226.343 0.896488 3.77604 0
M  V30 2268 H 224.444 -1.53936 3.39315 0
M  V30 2269 H 224.557 -0.267681 4.78352 0
M  V30 2270 H 222.921 -0.238814 2.53578 0
M  V30 2271 H 223.704 1.3055 3.17508 0
M  V30 2272 N 226.149 -1.5696 0.141893 0
M  V30 2273 C 227.112 -2.15316 -0.785587 0
M  V30 2274 C 228.112 -1.09366 -1.1788 0
M  V30 2275 O 229.302 -1.35031 -1.10056 0
M  V30 2276 C 226.434 -2.71211 -2.06537 0
M  V30 2277 H 227.627 -2.98608 -0.278041 0
M  V30 2278 H 225.18 -1.5593 -0.107519 0
M  V30 2279 H 225.915 -1.91571 -2.6167 0
M  V30 2280 H 225.7 -3.4872 -1.79268 0
M  V30 2281 H 227.19 -3.16189 -2.72789 0
M  V30 2282 N 227.627 0.131896 -1.57047 0
M  V30 2283 C 228.874 0.841932 -1.84168 0
M  V30 2284 C 229.202 1.8048 -0.725066 0
M  V30 2285 O 228.457 1.93618 0.284692 0
M  V30 2286 C 228.756 1.63703 -3.17704 0
M  V30 2287 C 228.422 0.81961 -4.43388 0
M  V30 2288 C 227.084 0.594148 -4.77518 0
M  V30 2289 C 229.436 0.248977 -5.20605 0
M  V30 2290 C 226.764 -0.212409 -5.86315 0
M  V30 2291 C 229.116 -0.544701 -6.30251 0
M  V30 2292 C 227.78 -0.780599 -6.6292 0
M  V30 2293 H 227.05 0.308085 -0.673917 0
M  V30 2294 H 229.697 0.104867 -1.91213 0
M  V30 2295 H 228.002 2.44464 -3.06177 0
M  V30 2296 H 229.699 2.19015 -3.35907 0
M  V30 2297 H 226.289 1.00542 -4.16641 0
M  V30 2298 H 230.473 0.410408 -4.946 0
M  V30 2299 H 225.729 -0.404524 -6.1006 0
M  V30 2300 H 229.903 -0.993922 -6.89271 0
M  V30 2301 H 227.53 -1.40742 -7.47058 0
M  V30 2302 N 229.106 1.52395 0.401703 0
M  V30 2303 C 230.336 1.70429 1.1678 0
M  V30 2304 C 230.744 0.416702 1.84554 0
M  V30 2305 O 230.087 -0.617697 1.73003 0
M  V30 2306 C 230.149 2.78919 2.26814 0
M  V30 2307 C 229.813 4.20437 1.79113 0
M  V30 2308 C 230.81 5.04028 1.27482 0
M  V30 2309 C 228.495 4.66704 1.85722 0
M  V30 2310 C 230.489 6.31961 0.830913 0
M  V30 2311 C 228.176 5.94625 1.40942 0
M  V30 2312 C 229.174 6.77082 0.897128 0
M  V30 2313 O 228.862 8.02607 0.455822 0
M  V30 2314 H 228.594 0.574272 0.356634 0
M  V30 2315 H 231.148 1.99767 0.477724 0
M  V30 2316 H 229.378 2.44973 2.99207 0
M  V30 2317 H 231.067 2.8548 2.88541 0
M  V30 2318 H 231.833 4.69471 1.21744 0
M  V30 2319 H 227.712 4.0262 2.24539 0
M  V30 2320 H 231.256 6.96271 0.430368 0
M  V30 2321 H 227.153 6.28688 1.46362 0
M  V30 2322 H 227.921 8.16453 0.578457 0
M  V30 2323 N 230.584 -0.659388 1.43143 0
M  V30 2324 C 231.812 -1.44723 1.47861 0
M  V30 2325 C 232.227 -1.88563 0.0945886 0
M  V30 2326 O 231.584 -1.59108 -0.893915 0
M  V30 2327 C 231.635 -2.68627 2.41913 0
M  V30 2328 O 231.356 -2.26623 3.74932 0
M  V30 2329 C 232.857 -3.62045 2.55809 0
M  V30 2330 H 230.077 -0.444801 0.502387 0
M  V30 2331 H 232.621 -0.808916 1.87821 0
M  V30 2332 H 230.776 -3.28613 2.05164 0
M  V30 2333 H 231.19 -3.06745 4.2545 0
M  V30 2334 H 232.664 -4.45666 3.25708 0
M  V30 2335 H 233.141 -4.08981 1.60099 0
M  V30 2336 H 233.747 -3.07944 2.93344 0
M  V30 2337 N 232.062 -1.29571 -0.897171 0
M  V30 2338 C 233.473 -1.15964 -1.46319 0
M  V30 2339 C 233.824 0.244267 -1.94674 0
M  V30 2340 O 232.949 1.13998 -1.83939 0
M  V30 2341 C 233.544 -2.09906 -2.65942 0
M  V30 2342 C 232.103 -2.00314 -3.18671 0
M  V30 2343 C 231.25 -2.00687 -1.91363 0
M  V30 2344 H 234.201 -1.42019 -0.708268 0
M  V30 2345 H 234.222 -1.67276 -3.41759 0
M  V30 2346 H 233.734 -3.12075 -2.30718 0
M  V30 2347 H 231.835 -1.01242 -3.58582 0
M  V30 2348 H 231.948 -2.88102 -3.82798 0
M  V30 2349 H 230.312 -1.45319 -2.09175 0
M  V30 2350 H 231.095 -3.04566 -1.58413 0
M  V30 2351 N 233.54 1.10788 -1.12088 0
M  V30 2352 C 234.768 1.86461 -0.896651 0
M  V30 2353 C 235.183 1.80492 0.553912 0
M  V30 2354 O 234.54 1.19102 1.38278 0
M  V30 2355 C 234.591 3.35006 -1.35843 0
M  V30 2356 O 234.312 3.40866 -2.75213 0
M  V30 2357 C 235.813 4.27565 -1.1706 0
M  V30 2358 H 233.033 0.589425 -0.320654 0
M  V30 2359 H 235.577 1.40076 -1.48993 0
M  V30 2360 H 233.732 3.7887 -0.808458 0
M  V30 2361 H 234.146 4.33411 -2.9539 0
M  V30 2362 H 235.62 5.30007 -1.54263 0
M  V30 2363 H 236.097 4.3906 -0.110814 0
M  V30 2364 H 236.703 3.89501 -1.70789 0
M  V30 2365 N 235.018 0.912232 1.28515 0
M  V30 2366 C 236.266 0.543523 1.94654 0
M  V30 2367 C 236.587 -0.9155 1.72173 0
M  V30 2368 O 235.857 -1.64708 1.06058 0
M  V30 2369 H 234.437 0.198017 0.720277 0
M  V30 2370 H 237.099 1.16126 1.56527 0
M  V30 2371 H 236.195 0.736684 3.03281 0
M  V30 2372 N 236.496 -1.42363 0.676048 0
M  V30 2373 C 237.726 -2.05561 0.206967 0
M  V30 2374 C 238.134 -1.50887 -1.14148 0
M  V30 2375 O 237.477 -0.643933 -1.72044 0
M  V30 2376 C 237.539 -3.5944 0.0659508 0
M  V30 2377 C 237.203 -4.36812 1.34331 0
M  V30 2378 C 238.2 -4.67383 2.27704 0
M  V30 2379 C 235.885 -4.76429 1.59125 0
M  V30 2380 C 237.879 -5.36509 3.44147 0
M  V30 2381 C 235.566 -5.45294 2.75857 0
M  V30 2382 C 236.564 -5.75259 3.68193 0
M  V30 2383 O 236.252 -6.42712 4.82883 0
M  V30 2384 H 235.984 -0.668872 0.0979084 0
M  V30 2385 H 238.538 -1.83467 0.923531 0
M  V30 2386 H 236.768 -3.80197 -0.706204 0
M  V30 2387 H 238.457 -4.0427 -0.363418 0
M  V30 2388 H 239.223 -4.37275 2.09799 0
M  V30 2389 H 235.102 -4.52498 0.881258 0
M  V30 2390 H 238.646 -5.59814 4.16238 0
M  V30 2391 H 234.543 -5.7482 2.93688 0
M  V30 2392 H 235.311 -6.61204 4.82444 0
M  V30 2393 N 237.974 -0.419461 -1.51915 0
M  V30 2394 C 239.222 0.152637 -2.01523 0
M  V30 2395 C 239.543 1.44762 -1.30649 0
M  V30 2396 O 238.813 1.90997 -0.435535 0
M  V30 2397 H 237.393 0.0593966 -0.744635 0
M  V30 2398 H 240.055 -0.558073 -1.86739 0
M  V30 2399 H 239.151 0.341369 -3.10227 0
M  V30 2400 N 239.452 1.56882 -0.150215 0
M  V30 2401 C 240.68 2.00593 0.506948 0
M  V30 2402 C 241.095 1.03033 1.58208 0
M  V30 2403 O 240.452 0.0278396 1.82479 0
M  V30 2404 C 240.503 3.44209 1.10465 0
M  V30 2405 O 240.224 4.3804 0.0724636 0
M  V30 2406 C 241.725 4.03214 1.84211 0
M  V30 2407 H 238.945 0.65795 0.13169 0
M  V30 2408 H 241.489 2.03018 -0.245743 0
M  V30 2409 H 239.644 3.42625 1.80795 0
M  V30 2410 H 240.058 5.22007 0.510793 0
M  V30 2411 H 241.532 5.0569 2.21318 0
M  V30 2412 H 242.009 3.44107 2.72923 0
M  V30 2413 H 242.615 4.08437 1.18572 0
M  V30 2414 N 240.93 -0.123565 1.57115 0
M  V30 2415 C 241.86 -1.15309 2.03042 0
M  V30 2416 C 242.841 -1.43454 0.914061 0
M  V30 2417 O 244.026 -1.53973 1.18347 0
M  V30 2418 C 241.156 -2.48043 2.43089 0
M  V30 2419 C 240.11 -2.3437 3.58127 0
M  V30 2420 C 239.436 -3.72026 3.84059 0
M  V30 2421 C 240.736 -1.80804 4.90007 0
M  V30 2422 H 242.43 -0.771102 2.893 0
M  V30 2423 H 239.976 -0.369479 1.39179 0
M  V30 2424 H 241.929 -3.20311 2.73823 0
M  V30 2425 H 240.653 -2.88122 1.53796 0
M  V30 2426 H 239.312 -1.64551 3.27595 0
M  V30 2427 H 238.96 -4.09582 2.91979 0
M  V30 2428 H 238.66 -3.63732 4.6149 0
M  V30 2429 H 240.184 -4.45806 4.1724 0
M  V30 2430 H 241.598 -2.42886 5.19307 0
M  V30 2431 H 239.995 -1.83343 5.71407 0
M  V30 2432 H 241.065 -0.76528 4.78823 0
M  V30 2433 N 242.408 -1.52605 -0.393616 0
M  V30 2434 C 243.654 -1.67672 -1.14079 0
M  V30 2435 C 243.987 -0.413121 -1.89755 0
M  V30 2436 O 243.262 0.588952 -1.85369 0
M  V30 2437 C 243.545 -2.9088 -2.12276 0
M  V30 2438 C 243.398 -4.27329 -1.40394 0
M  V30 2439 C 244.717 -3.09628 -3.12759 0
M  V30 2440 H 241.836 -0.610168 -0.413356 0
M  V30 2441 H 244.478 -1.85193 -0.424696 0
M  V30 2442 H 242.628 -2.76073 -2.73342 0
M  V30 2443 H 244.3 -4.53894 -0.82327 0
M  V30 2444 H 242.543 -4.2802 -0.705801 0
M  V30 2445 H 243.214 -5.09615 -2.12123 0
M  V30 2446 H 245.69 -3.23436 -2.61779 0
M  V30 2447 H 244.566 -3.97322 -3.78717 0
M  V30 2448 H 244.827 -2.23637 -3.81365 0
M  V30 2449 N 243.887 0.651787 -1.4349 0
M  V30 2450 C 244.819 1.77725 -1.44729 0
M  V30 2451 C 245.832 1.59141 -0.343231 0
M  V30 2452 O 247.021 1.67835 -0.607751 0
M  V30 2453 C 244.121 3.15172 -1.24579 0
M  V30 2454 C 243.294 3.60402 -2.47849 0
M  V30 2455 C 242.353 4.76656 -2.22902 0
M  V30 2456 O 241.379 4.86022 -2.96263 0
M  V30 2457 N 242.581 5.66958 -1.24656 0
M  V30 2458 H 245.346 1.77141 -2.41746 0
M  V30 2459 H 242.907 0.835678 -1.38665 0
M  V30 2460 H 244.899 3.90634 -1.0577 0
M  V30 2461 H 243.469 3.1052 -0.360015 0
M  V30 2462 H 242.689 2.75369 -2.82073 0
M  V30 2463 H 243.977 3.87368 -3.29884 0
M  V30 2464 H 243.375 5.62065 -0.640265 0
M  V30 2465 H 241.932 6.42135 -1.1183 0
M  V30 2466 N 245.365 1.30045 0.890287 0
M  V30 2467 C 246.275 1.17885 2.02831 0
M  V30 2468 C 247.291 0.0999609 1.73713 0
M  V30 2469 O 248.467 0.313867 1.98939 0
M  V30 2470 C 245.532 0.866079 3.35708 0
M  V30 2471 C 244.593 2.02979 3.78283 0
M  V30 2472 C 243.826 1.73184 5.0482 0
M  V30 2473 O 244.049 0.657237 5.66601 0
M  V30 2474 O 242.983 2.58267 5.43674 0
M  V30 2475 H 246.809 2.13474 2.16015 0
M  V30 2476 H 244.394 1.09587 1.01543 0
M  V30 2477 H 246.276 0.706623 4.15433 0
M  V30 2478 H 244.951 -0.0599443 3.23644 0
M  V30 2479 H 243.858 2.24454 2.99285 0
M  V30 2480 H 245.191 2.93734 3.94944 0
M  V30 2481 N 246.843 -1.10192 1.12674 0
M  V30 2482 C 248.091 -1.81845 0.881861 0
M  V30 2483 C 248.412 -1.85737 -0.593867 0
M  V30 2484 O 247.682 -1.33724 -1.4316 0
M  V30 2485 H 246.262 -0.673432 0.323261 0
M  V30 2486 H 248.924 -1.33316 1.42172 0
M  V30 2487 H 248.02 -2.85288 1.2656 0
M  V30 2488 N 248.321 -0.919034 -1.28029 0
M  V30 2489 C 249.569 -0.553838 -1.94363 0
M  V30 2490 C 249.89 0.906357 -1.72656 0
M  V30 2491 O 249.16 1.64143 -1.0693 0
M  V30 2492 H 247.74 -0.201834 -0.719216 0
M  V30 2493 H 250.402 -1.16954 -1.55909 0
M  V30 2494 H 249.498 -0.752758 -3.02886 0
M  V30 2495 N 249.799 1.42003 -0.683588 0
M  V30 2496 C 251.024 2.06265 -0.216647 0
M  V30 2497 C 251.449 1.51059 1.12083 0
M  V30 2498 O 250.807 0.632638 1.69904 0
M  V30 2499 C 250.855 3.60191 -0.171759 0
M  V30 2500 O 249.959 4.03396 0.857069 0
M  V30 2501 H 249.3 0.65502 -0.108834 0
M  V30 2502 H 251.83 1.81982 -0.935077 0
M  V30 2503 H 251.84 4.08 0.0014303 0
M  V30 2504 H 250.515 3.99743 -1.14796 0
M  V30 2505 H 249.092 3.67117 0.654208 0
M  V30 2506 N 251.277 0.427512 1.51691 0
M  V30 2507 C 252.688 -0.0378867 1.86662 0
M  V30 2508 C 253.039 -1.42819 1.34525 0
M  V30 2509 O 252.164 -2.05037 0.692014 0
M  V30 2510 C 252.759 -0.0755266 3.38716 0
M  V30 2511 C 251.318 -0.485309 3.73258 0
M  V30 2512 C 250.465 0.328399 2.75349 0
M  V30 2513 H 253.416 0.64379 1.45055 0
M  V30 2514 H 253.437 -0.887056 3.70016 0
M  V30 2515 H 252.949 0.936487 3.76632 0
M  V30 2516 H 251.05 -1.50329 3.40928 0
M  V30 2517 H 251.163 -0.21693 4.78609 0
M  V30 2518 H 249.527 -0.211905 2.53817 0
M  V30 2519 H 250.31 1.3391 3.16106 0
M  V30 2520 N 252.755 -1.56801 0.158532 0
M  V30 2521 C 254.004 -1.95665 -0.489702 0
M  V30 2522 C 254.317 -1.04654 -1.65248 0
M  V30 2523 O 255.523 -1.33146 -2.3661 0
M  V30 2524 C 253.979 -3.47874 -0.922582 0
M  V30 2525 C 253.587 -4.47489 0.213893 0
M  V30 2526 C 255.331 -3.95583 -1.53996 0
M  V30 2527 C 253.238 -5.90921 -0.237903 0
M  V30 2528 H 252.168 -0.730516 -0.186716 0
M  V30 2529 H 254.819 -1.81861 0.244722 0
M  V30 2530 H 253.201 -3.57051 -1.71261 0
M  V30 2531 H 254.375 -4.50017 0.991036 0
M  V30 2532 H 252.69 -4.09764 0.740407 0
M  V30 2533 H 255.287 -5.0019 -1.8898 0
M  V30 2534 H 255.63 -3.37789 -2.43319 0
M  V30 2535 H 256.163 -3.8937 -0.814611 0
M  V30 2536 H 252.902 -6.52559 0.620236 0
M  V30 2537 H 252.422 -5.91729 -0.980676 0
M  V30 2538 H 254.101 -6.43352 -0.686067 0
M  V30 2539 N 254.233 0.115231 -1.57178 0
M  V30 2540 C 255.18 1.14115 -2.00615 0
M  V30 2541 C 256.15 1.40939 -0.878941 0
M  V30 2542 O 257.335 1.52741 -1.14345 0
M  V30 2543 C 254.475 2.46156 -2.4187 0
M  V30 2544 C 253.588 2.26236 -3.68024 0
M  V30 2545 C 252.723 3.51534 -3.98243 0
M  V30 2546 C 251.762 3.26787 -5.17568 0
M  V30 2547 N 250.899 4.44298 -5.43639 0
M  V30 2548 H 255.739 0.763743 -2.88047 0
M  V30 2549 H 253.276 0.365615 -1.42484 0
M  V30 2550 H 255.234 3.23189 -2.63827 0
M  V30 2551 H 253.864 2.81783 -1.57475 0
M  V30 2552 H 252.916 1.40102 -3.5366 0
M  V30 2553 H 254.228 2.03929 -4.55208 0
M  V30 2554 H 253.382 4.36984 -4.20868 0
M  V30 2555 H 252.121 3.76876 -3.09541 0
M  V30 2556 H 251.126 2.39729 -4.94783 0
M  V30 2557 H 252.351 3.02812 -6.0785 0
M  V30 2558 H 250.297 4.69754 -4.57895 0
M  V30 2559 H 250.214 4.25109 -6.25154 0
M  V30 2560 H 251.482 5.3087 -5.70786 0
M  V30 2561 N 255.711 1.52812 0.385517 0
M  V30 2562 C 256.941 1.71658 1.14966 0
M  V30 2563 C 257.349 0.436253 1.84102 0
M  V30 2564 O 256.692 -0.599313 1.73649 0
M  V30 2565 C 256.754 2.81309 2.23843 0
M  V30 2566 C 256.418 4.22313 1.74644 0
M  V30 2567 C 257.415 5.05352 1.22129 0
M  V30 2568 C 255.1 4.68648 1.80761 0
M  V30 2569 C 257.094 6.32807 0.763838 0
M  V30 2570 C 254.781 5.96086 1.34627 0
M  V30 2571 C 255.779 6.77996 0.825264 0
M  V30 2572 O 255.467 8.03045 0.370669 0
M  V30 2573 H 255.199 0.578022 0.350523 0
M  V30 2574 H 257.753 2.00263 0.456509 0
M  V30 2575 H 255.983 2.48133 2.96592 0
M  V30 2576 H 257.672 2.88524 2.85497 0
M  V30 2577 H 258.438 4.70736 1.16758 0
M  V30 2578 H 254.317 4.04979 2.20256 0
M  V30 2579 H 257.861 6.96689 0.356494 0
M  V30 2580 H 253.758 6.30205 1.39686 0
M  V30 2581 H 254.526 8.17021 0.491829 0
M  V30 2582 N 257.189 -0.644168 1.43834 0
M  V30 2583 C 258.137 -1.77793 1.49974 0
M  V30 2584 C 259.131 -1.65253 0.372536 0
M  V30 2585 O 260.337 -1.7149 0.546924 0
M  V30 2586 H 256.712 -0.58675 0.47035 0
M  V30 2587 H 258.683 -1.69736 2.45423 0
M  V30 2588 C 257.432 -3.16087 1.4486 0
M  V30 2589 H 256.755 -3.26378 2.30905 0
M  V30 2590 H 258.195 -3.95349 1.53217 0
M  V30 2591 C 256.654 -3.36484 0.167463 0
M  V30 2592 O 257.184 -3.94298 -0.767609 0
M  V30 2593 N 255.39 -2.90504 0.0747556 0
M  V30 2594 H 254.937 -2.4364 0.836507 0
M  V30 2595 H 254.895 -3.04527 -0.781714 0
M  V30 2596 N 258.668 -1.30515 -0.883378 0
M  V30 2597 C 259.615 -1.17032 -1.98927 0
M  V30 2598 C 260.585 -0.0594241 -1.65994 0
M  V30 2599 O 261.77 -0.229895 -1.8941 0
M  V30 2600 C 258.91 -0.869777 -3.33959 0
M  V30 2601 C 258.023 -2.06271 -3.79574 0
M  V30 2602 C 257.158 -1.70011 -5.03259 0
M  V30 2603 C 256.197 -2.8579 -5.41286 0
M  V30 2604 N 255.334 -2.49816 -6.56153 0
M  V30 2605 H 260.174 -2.1164 -2.09792 0
M  V30 2606 H 257.711 -1.05296 -1.02719 0
M  V30 2607 H 259.669 -0.676138 -4.11685 0
M  V30 2608 H 258.299 0.0394332 -3.22776 0
M  V30 2609 H 257.351 -2.36755 -2.97744 0
M  V30 2610 H 258.663 -2.92971 -4.03694 0
M  V30 2611 H 257.817 -1.47032 -5.88614 0
M  V30 2612 H 256.556 -0.804829 -4.81013 0
M  V30 2613 H 255.561 -3.09434 -4.54456 0
M  V30 2614 H 256.786 -3.76008 -5.65504 0
M  V30 2615 H 254.732 -1.62795 -6.35479 0
M  V30 2616 H 254.649 -3.30048 -6.8015 0
M  V30 2617 H 255.917 -2.30197 -7.44735 0
M  V30 2618 N 260.146 1.09593 -1.13257 0
M  V30 2619 C 261.423 1.78293 -0.804432 0
M  V30 2620 C 261.803 1.99004 0.70431 0
M  V30 2621 O 261.151 1.59007 1.641 0
M  V30 2622 C 261.361 3.10707 -1.5894 0
M  V30 2623 C 262.709 3.85443 -1.78099 0
M  V30 2624 O 263.733 3.20454 -1.55525 0
M  V30 2625 O 262.592 5.02108 -2.15753 0
M  V30 2626 H 259.686 0.773156 -0.293528 0
M  V30 2627 H 262.232 1.16164 -1.23709 0
M  V30 2628 H 261.004 2.91106 -2.61482 0
M  V30 2629 H 260.627 3.80558 -1.15157 0
M  V30 2630 N 261.624 0.925811 1.2754 0
M  V30 2631 C 262.872 0.564138 1.94067 0
M  V30 2632 C 263.193 -0.897188 1.73134 0
M  V30 2633 O 262.463 -1.63573 1.07799 0
M  V30 2634 H 261.043 0.205645 0.718136 0
M  V30 2635 H 263.705 1.1778 1.55287 0
M  V30 2636 H 262.801 0.76881 3.02483 0
M  V30 2637 N 263.102 -1.41638 0.69111 0
M  V30 2638 C 264.327 -2.06148 0.227583 0
M  V30 2639 C 264.752 -1.51652 -1.11281 0
M  V30 2640 O 264.11 -0.64164 -1.69566 0
M  V30 2641 C 264.158 -3.60095 0.190858 0
M  V30 2642 O 263.262 -4.03845 -0.835664 0
M  V30 2643 H 262.603 -0.654434 0.112306 0
M  V30 2644 H 265.133 -1.81484 0.944714 0
M  V30 2645 H 265.143 -4.07995 0.020207 0
M  V30 2646 H 263.818 -3.99129 1.16915 0
M  V30 2647 H 262.395 -3.67458 -0.63473 0
M  V30 2648 N 264.58 -0.43555 -1.51462 0
M  V30 2649 C 265.826 0.131709 -2.02372 0
M  V30 2650 C 266.159 1.42516 -1.3192 0
M  V30 2651 O 265.434 1.89606 -0.433573 0
M  V30 2652 C 265.717 0.352301 -3.58373 0
M  V30 2653 C 265.57 -0.959676 -4.39443 0
M  V30 2654 C 266.889 1.12286 -4.25535 0
M  V30 2655 H 264.008 0.0463936 -0.735538 0
M  V30 2656 H 266.65 -0.574197 -1.81116 0
M  V30 2657 H 264.8 0.9536 -3.76615 0
M  V30 2658 H 266.472 -1.59482 -4.32855 0
M  V30 2659 H 264.715 -1.56468 -4.04599 0
M  V30 2660 H 265.386 -0.759394 -5.46752 0
M  V30 2661 H 267.862 0.613545 -4.11552 0
M  V30 2662 H 266.738 1.24598 -5.34571 0
M  V30 2663 H 266.999 2.15048 -3.86273 0
M  V30 2664 N 266.058 1.56714 -0.166846 0
M  V30 2665 C 267.021 2.16539 0.751232 0
M  V30 2666 C 268.021 1.11228 1.16125 0
M  V30 2667 O 269.211 1.36765 1.07894 0
M  V30 2668 C 266.343 2.74462 2.02196 0
M  V30 2669 H 267.536 2.99013 0.230499 0
M  V30 2670 H 265.089 1.56081 0.0826982 0
M  V30 2671 H 265.824 1.95709 2.58589 0
M  V30 2672 H 265.609 3.51527 1.73698 0
M  V30 2673 H 267.099 3.20489 2.67725 0
M  V30 2674 N 267.536 -0.106894 1.57237 0
M  V30 2675 C 268.785 -0.811163 1.8467 0
M  V30 2676 C 269.098 -1.80469 0.754342 0
M  V30 2677 O 270.304 -2.55601 0.915439 0
M  V30 2678 C 268.76 -1.49337 3.27454 0
M  V30 2679 C 268.368 -0.540217 4.44731 0
M  V30 2680 C 270.112 -2.18206 3.64124 0
M  V30 2681 C 268.019 -1.22634 5.78545 0
M  V30 2682 H 266.949 -0.306679 0.688813 0
M  V30 2683 H 269.6 -0.0639887 1.83388 0
M  V30 2684 H 267.982 -2.2876 3.23241 0
M  V30 2685 H 269.156 0.221659 4.60267 0
M  V30 2686 H 267.471 0.042146 4.16379 0
M  V30 2687 H 270.068 -2.70253 4.61376 0
M  V30 2688 H 270.411 -2.96562 2.92158 0
M  V30 2689 H 270.944 -1.45658 3.70174 0
M  V30 2690 H 267.683 -0.483832 6.53712 0
M  V30 2691 H 267.203 -1.95993 5.66874 0
M  V30 2692 H 268.882 -1.75615 6.2271 0
M  V30 2693 N 269.014 -1.53014 -0.377408 0
M  V30 2694 C 269.977 -1.77957 -1.44444 0
M  V30 2695 C 270.977 -0.649763 -1.47087 0
M  V30 2696 O 272.167 -0.917897 -1.48055 0
M  V30 2697 C 269.299 -1.89089 -2.83651 0
M  V30 2698 H 270.492 -2.73243 -1.23606 0
M  V30 2699 H 268.045 -1.43912 -0.609844 0
M  V30 2700 H 268.78 -0.958293 -3.09818 0
M  V30 2701 H 268.565 -2.71254 -2.83132 0
M  V30 2702 H 270.055 -2.1002 -3.60945 0
M  V30 2703 N 270.492 0.636531 -1.44174 0
M  V30 2704 C 271.717 1.42847 -1.50364 0
M  V30 2705 C 272.142 1.87665 -0.127867 0
M  V30 2706 O 271.5 1.58408 0.88185 0
M  V30 2707 C 271.548 2.62854 -2.4686 0
M  V30 2708 O 270.652 3.62501 -1.9664 0
M  V30 2709 H 269.993 0.427642 -0.507955 0
M  V30 2710 H 272.523 0.777422 -1.89255 0
M  V30 2711 H 272.533 3.10465 -2.64718 0
M  V30 2712 H 271.208 2.29578 -3.46795 0
M  V30 2713 H 269.785 3.21735 -1.88523 0
M  V30 2714 N 271.97 1.30982 0.876444 0
M  V30 2715 C 272.917 1.18085 1.98304 0
M  V30 2716 C 273.887 0.0682263 1.6596 0
M  V30 2717 O 275.072 0.239937 1.89285 0
M  V30 2718 C 272.212 0.887475 3.33493 0
M  V30 2719 C 271.325 2.08281 3.78475 0
M  V30 2720 C 270.46 1.72678 5.0235 0
M  V30 2721 C 269.499 2.88657 5.39762 0
M  V30 2722 N 268.636 2.53292 6.54819 0
M  V30 2723 H 273.476 2.1275 2.08666 0
M  V30 2724 H 271.013 1.05839 1.02159 0
M  V30 2725 H 272.971 0.697961 4.1132 0
M  V30 2726 H 271.601 -0.022315 3.22792 0
M  V30 2727 H 270.653 2.3833 2.96484 0
M  V30 2728 H 271.965 2.95108 4.02135 0
M  V30 2729 H 271.119 1.50151 5.87826 0
M  V30 2730 H 269.858 0.830327 4.8058 0
M  V30 2731 H 268.863 3.1184 4.52809 0
M  V30 2732 H 270.088 3.79002 5.63502 0
M  V30 2733 H 268.034 1.66163 6.34607 0
M  V30 2734 H 267.951 3.3365 6.7839 0
M  V30 2735 H 269.219 2.34143 7.43503 0
M  V30 2736 N 273.449 -1.08991 1.13837 0
M  V30 2737 C 274.86 -1.62746 0.914917 0
M  V30 2738 C 275.211 -1.88403 -0.547594 0
M  V30 2739 O 274.336 -1.63706 -1.41525 0
M  V30 2740 C 274.931 -2.95662 1.65437 0
M  V30 2741 C 273.49 -3.46225 1.47666 0
M  V30 2742 C 272.637 -2.20562 1.6807 0
M  V30 2743 H 275.588 -0.922946 1.29102 0
M  V30 2744 H 275.609 -3.63825 1.11407 0
M  V30 2745 H 275.121 -2.76956 2.71877 0
M  V30 2746 H 273.222 -3.70046 0.435478 0
M  V30 2747 H 273.335 -4.23368 2.24268 0
M  V30 2748 H 271.699 -2.29439 1.10589 0
M  V30 2749 H 272.482 -2.0437 2.7584 0
M  V30 2750 N 274.927 -0.932562 -1.27047 0
M  V30 2751 C 276.343 -0.633544 -1.46487 0
M  V30 2752 C 276.543 0.815746 -1.84249 0
M  V30 2753 O 275.599 1.59319 -1.95892 0
M  V30 2754 C 276.912 -1.58758 -2.55375 0
M  V30 2755 C 278.46 -1.59634 -2.69232 0
M  V30 2756 C 278.935 -2.53747 -3.81283 0
M  V30 2757 N 280.426 -2.51982 -3.88664 0
M  V30 2758 C 281.161 -3.21491 -4.74796 0
M  V30 2759 N 280.657 -4.00395 -5.65381 0
M  V30 2760 N 282.45 -3.10485 -4.68568 0
M  V30 2761 H 274.601 -1.86946 -1.00821 0
M  V30 2762 H 276.864 -0.802897 -0.504044 0
M  V30 2763 H 276.57 -2.62172 -2.34432 0
M  V30 2764 H 276.444 -1.33301 -3.52861 0
M  V30 2765 H 278.831 -0.569488 -2.89553 0
M  V30 2766 H 278.912 -1.89142 -1.72218 0
M  V30 2767 H 278.556 -3.56545 -3.61715 0
M  V30 2768 H 278.486 -2.21532 -4.77735 0
M  V30 2769 H 280.977 -1.94681 -3.23895 0
M  V30 2770 H 281.29 -4.50406 -6.27976 0
M  V30 2771 H 279.635 -4.04498 -5.65161 0
M  V30 2772 H 282.826 -2.48331 -3.96799 0
M  V30 2773 H 282.999 -3.64925 -5.35475 0
M  V30 2774 N 276.405 1.4127 -0.698611 0
M  V30 2775 C 277.315 2.34573 -0.0357891 0
M  V30 2776 C 278.331 1.56393 0.762701 0
M  V30 2777 O 279.507 1.8886 0.699564 0
M  V30 2778 C 276.572 3.35159 0.887089 0
M  V30 2779 C 275.633 4.29225 0.0804634 0
M  V30 2780 C 274.866 5.25006 0.959387 0
M  V30 2781 O 275.089 5.26314 2.19886 0
M  V30 2782 O 274.023 6.00519 0.407439 0
M  V30 2783 H 277.849 2.92838 -0.804957 0
M  V30 2784 H 275.434 1.42175 -0.458966 0
M  V30 2785 H 277.316 3.9689 1.41621 0
M  V30 2786 H 275.991 2.79333 1.6357 0
M  V30 2787 H 274.898 3.70833 -0.493328 0
M  V30 2788 H 276.231 4.88157 -0.629547 0
M  V30 2789 N 277.883 0.443576 1.51229 0
M  V30 2790 C 279.129 -0.120975 2.02439 0
M  V30 2791 C 279.462 -1.41815 1.32674 0
M  V30 2792 O 278.737 -1.89373 0.443622 0
M  V30 2793 C 279.02 -0.333291 3.58554 0
M  V30 2794 C 278.873 0.982968 4.38928 0
M  V30 2795 C 280.192 -1.10028 4.26124 0
M  V30 2796 H 277.311 -0.0424923 0.735774 0
M  V30 2797 H 279.953 0.583794 1.80809 0
M  V30 2798 H 278.103 -0.933614 3.77115 0
M  V30 2799 H 279.775 1.61775 4.32003 0
M  V30 2800 H 278.018 1.58611 4.03763 0
M  V30 2801 H 278.689 0.788379 5.46341 0
M  V30 2802 H 281.165 -0.591711 4.11871 0
M  V30 2803 H 280.041 -1.21761 5.35225 0
M  V30 2804 H 280.302 -2.12996 3.87408 0
M  V30 2805 N 279.361 -1.56624 0.175154 0
M  V30 2806 C 280.777 -1.58571 -0.180966 0
M  V30 2807 C 280.977 -1.19065 -1.6256 0
M  V30 2808 O 280.033 -0.904044 -2.35761 0
M  V30 2809 C 281.346 -3.00522 0.103326 0
M  V30 2810 C 282.894 -3.12972 0.0418426 0
M  V30 2811 C 283.369 -4.57022 0.299175 0
M  V30 2812 N 284.86 -4.62541 0.247086 0
M  V30 2813 C 285.595 -5.71857 0.420318 0
M  V30 2814 N 285.091 -6.89717 0.652816 0
M  V30 2815 N 286.884 -5.60972 0.355957 0
M  V30 2816 H 279.035 -1.80589 1.11809 0
M  V30 2817 H 281.298 -0.837178 0.444788 0
M  V30 2818 H 281.004 -3.33916 1.10422 0
M  V30 2819 H 280.878 -3.72344 -0.603299 0
M  V30 2820 H 283.265 -2.79403 -0.949636 0
M  V30 2821 H 283.346 -2.43578 0.781238 0
M  V30 2822 H 282.99 -4.913 1.28788 0
M  V30 2823 H 282.92 -5.24579 -0.460876 0
M  V30 2824 H 285.411 -3.77829 0.0731895 0
M  V30 2825 H 285.724 -7.68911 0.774347 0
M  V30 2826 H 284.069 -6.91572 0.689476 0
M  V30 2827 H 287.26 -4.67773 0.174882 0
M  V30 2828 H 287.433 -6.46111 0.494388 0
M  V30 2829 N 280.839 0.0985539 -1.57292 0
M  V30 2830 C 281.749 1.13824 -2.05137 0
M  V30 2831 C 282.765 1.44076 -0.975604 0
M  V30 2832 O 283.941 1.54786 -1.28853 0
M  V30 2833 C 281.006 2.43969 -2.46333 0
M  V30 2834 C 280.067 2.2093 -3.68087 0
M  V30 2835 C 279.3 3.44869 -4.0731 0
M  V30 2836 O 279.523 4.52972 -3.46659 0
M  V30 2837 O 278.457 3.34661 -5.00285 0
M  V30 2838 H 282.283 0.761881 -2.93988 0
M  V30 2839 H 279.868 0.310818 -1.46131 0
M  V30 2840 H 281.75 3.20609 -2.73473 0
M  V30 2841 H 280.425 2.81038 -1.60621 0
M  V30 2842 H 279.332 1.42081 -3.46069 0
M  V30 2843 H 280.665 1.88755 -4.54568 0
M  V30 2844 N 282.317 1.53212 0.369288 0
M  V30 2845 C 283.564 1.69215 1.11232 0
M  V30 2846 C 283.892 0.442048 1.8941 0
M  V30 2847 O 283.147 -0.575944 1.87033 0
M  V30 2848 C 283.446 2.89101 2.10132 0
M  V30 2849 C 283.112 4.25758 1.48463 0
M  V30 2850 C 281.774 4.6292 1.31372 0
M  V30 2851 C 284.126 5.10757 1.03811 0
M  V30 2852 C 281.454 5.82722 0.68207 0
M  V30 2853 C 283.806 6.31201 0.420487 0
M  V30 2854 C 282.47 6.67079 0.237038 0
M  V30 2855 H 281.74 0.619201 0.407027 0
M  V30 2856 H 284.387 1.87391 0.394552 0
M  V30 2857 H 282.692 2.65421 2.88199 0
M  V30 2858 H 284.389 2.98676 2.6757 0
M  V30 2859 H 280.979 3.96494 1.62758 0
M  V30 2860 H 285.163 4.82599 1.1581 0
M  V30 2861 H 280.419 6.09113 0.528316 0
M  V30 2862 H 284.593 6.96368 0.0662874 0
M  V30 2863 H 282.22 7.59774 -0.254477 0
M  V30 2864 N 283.795 -0.628877 1.44509 0
M  V30 2865 C 284.743 -1.76193 1.51852 0
M  V30 2866 C 285.737 -1.64849 0.390042 0
M  V30 2867 O 286.943 -1.709 0.565082 0
M  V30 2868 H 283.318 -0.581728 0.476547 0
M  V30 2869 H 285.289 -1.67123 2.47209 0
M  V30 2870 C 284.038 -3.14533 1.48204 0
M  V30 2871 H 283.361 -3.23911 2.34354 0
M  V30 2872 H 284.801 -3.93701 1.57402 0
M  V30 2873 C 283.26 -3.36287 0.203142 0
M  V30 2874 O 283.79 -3.9509 -0.725745 0
M  V30 2875 N 281.996 -2.90408 0.105563 0
M  V30 2876 H 281.543 -2.42739 0.862301 0
M  V30 2877 H 281.501 -3.05339 -0.749371 0
M  V30 2878 N 285.273 -1.31445 -0.869486 0
M  V30 2879 C 286.521 -1.20918 -1.61936 0
M  V30 2880 C 286.842 0.232683 -1.93607 0
M  V30 2881 O 286.112 1.15352 -1.58338 0
M  V30 2882 H 284.692 -0.44454 -0.600328 0
M  V30 2883 H 287.354 -1.64776 -1.0409 0
M  V30 2884 H 286.45 -1.78124 -2.56278 0
M  V30 2885 N 286.751 1.08385 -1.14413 0
M  V30 2886 C 287.683 2.1519 -0.789036 0
M  V30 2887 C 288.696 1.61638 0.19417 0
M  V30 2888 O 289.885 1.78479 -0.0275711 0
M  V30 2889 C 286.985 3.38565 -0.15058 0
M  V30 2890 C 286.158 4.21501 -1.16857 0
M  V30 2891 C 285.217 5.23277 -0.553832 0
M  V30 2892 O 284.243 5.56041 -1.21686 0
M  V30 2893 N 285.445 5.76629 0.669296 0
M  V30 2894 H 288.21 2.46257 -1.70814 0
M  V30 2895 H 285.771 1.24198 -1.03858 0
M  V30 2896 H 287.763 4.03777 0.273181 0
M  V30 2897 H 286.333 3.05299 0.671667 0
M  V30 2898 H 285.553 3.52265 -1.76926 0
M  V30 2899 H 286.841 4.73731 -1.85624 0
M  V30 2900 H 286.239 5.52243 1.22654 0
M  V30 2901 H 284.796 6.43521 1.03556 0
M  V30 2902 N 288.23 0.939286 1.26551 0
M  V30 2903 C 289.18 0.418284 2.2413 0
M  V30 2904 C 290.164 -0.483935 1.5345 0
M  V30 2905 O 291.356 -0.319489 1.74093 0
M  V30 2906 C 288.485 -0.31709 3.41832 0
M  V30 2907 C 287.571 0.602311 4.19801 0
M  V30 2908 N 287.962 1.72726 4.75394 0
M  V30 2909 C 286.26 0.407534 4.44134 0
M  V30 2910 C 286.961 2.30004 5.34297 0
M  V30 2911 N 285.937 1.58828 5.1988 0
M  V30 2912 H 289.739 1.27705 2.64705 0
M  V30 2913 H 287.253 0.794929 1.41614 0
M  V30 2914 H 289.25 -0.707364 4.10855 0
M  V30 2915 H 287.91 -1.17264 3.02786 0
M  V30 2916 H 288.921 2.10944 4.72994 0
M  V30 2917 H 285.598 -0.406406 4.15517 0
M  V30 2918 H 286.988 3.24778 5.88191 0
M  V30 2919 N 289.708 -1.40897 0.706093 0
M  V30 2920 C 290.955 -2.01054 0.241531 0
M  V30 2921 C 291.283 -1.55956 -1.16223 0
M  V30 2922 O 290.538 -0.766336 -1.80072 0
M  V30 2923 C 290.837 -3.5646 0.259099 0
M  V30 2924 C 290.503 -4.21106 1.61184 0
M  V30 2925 C 289.165 -4.38479 1.98216 0
M  V30 2926 C 291.517 -4.57256 2.50132 0
M  V30 2927 C 288.845 -4.89282 3.2376 0
M  V30 2928 C 291.197 -5.09454 3.7502 0
M  V30 2929 C 289.861 -5.25037 4.12181 0
M  V30 2930 H 289.131 -0.73571 0.0883825 0
M  V30 2931 H 291.778 -1.68645 0.907257 0
M  V30 2932 H 290.083 -3.88721 -0.490189 0
M  V30 2933 H 291.78 -4.00826 -0.11804 0
M  V30 2934 H 288.37 -4.07966 1.31384 0
M  V30 2935 H 292.554 -4.43479 2.228 0
M  V30 2936 H 287.81 -4.99531 3.52532 0
M  V30 2937 H 291.984 -5.36404 4.44121 0
M  V30 2938 H 289.611 -5.64164 5.09532 0
M  V30 2939 N 291.186 -0.45159 -1.50991 0
M  V30 2940 C 292.435 0.111653 -2.01391 0
M  V30 2941 C 292.748 1.42529 -1.33959 0
M  V30 2942 O 293.954 2.07232 -1.75405 0
M  V30 2943 C 292.41 0.249514 -3.59034 0
M  V30 2944 C 292.018 -1.05453 -4.35412 0
M  V30 2945 C 293.762 0.765762 -4.17536 0
M  V30 2946 C 291.669 -0.881529 -5.84793 0
M  V30 2947 H 290.599 0.0455022 -0.752626 0
M  V30 2948 H 293.25 -0.583524 -1.73975 0
M  V30 2949 H 291.632 1.00803 -3.82955 0
M  V30 2950 H 292.806 -1.82248 -4.23229 0
M  V30 2951 H 291.121 -1.50039 -3.88429 0
M  V30 2952 H 293.718 0.911913 -5.26866 0
M  V30 2953 H 294.061 1.75201 -3.77638 0
M  V30 2954 H 294.594 0.0651744 -3.97747 0
M  V30 2955 H 291.333 -1.84057 -6.29129 0
M  V30 2956 H 290.853 -0.153625 -5.99603 0
M  V30 2957 H 292.532 -0.540363 -6.4474 0
M  V30 2958 N 292.664 1.56529 -0.183458 0
M  V30 2959 C 293.594 2.21549 0.737456 0
M  V30 2960 C 294.575 1.17489 1.23005 0
M  V30 2961 O 295.76 1.45959 1.281 0
M  V30 2962 C 292.89 2.86575 1.96194 0
M  V30 2963 C 291.844 3.96778 1.60473 0
M  V30 2964 C 291.17 4.48911 2.90487 0
M  V30 2965 C 292.47 5.15767 0.823497 0
M  V30 2966 H 294.164 2.98761 0.195453 0
M  V30 2967 H 291.71 1.43702 0.0925686 0
M  V30 2968 H 293.663 3.30739 2.61131 0
M  V30 2969 H 292.387 2.06749 2.52828 0
M  V30 2970 H 291.046 3.53286 0.978997 0
M  V30 2971 H 290.694 3.65862 3.45186 0
M  V30 2972 H 290.394 5.23265 2.67335 0
M  V30 2973 H 291.918 4.95771 3.56432 0
M  V30 2974 H 293.332 5.56549 1.37571 0
M  V30 2975 H 291.729 5.96114 0.690551 0
M  V30 2976 H 292.799 4.84574 -0.177782 0
M  V30 2977 N 294.142 -0.090211 1.57342 0
M  V30 2978 C 295.052 -1.12735 2.05738 0
M  V30 2979 C 296.068 -1.43557 0.983231 0
M  V30 2980 O 297.244 -1.54101 1.29672 0
M  V30 2981 C 294.309 -2.42659 2.47624 0
M  V30 2982 C 293.37 -2.18975 3.69254 0
M  V30 2983 C 292.603 -3.42704 4.09133 0
M  V30 2984 O 292.826 -4.51127 3.49057 0
M  V30 2985 O 291.76 -3.32003 5.02053 0
M  V30 2986 H 295.586 -0.746279 2.94388 0
M  V30 2987 H 293.171 -0.303064 1.46294 0
M  V30 2988 H 295.053 -3.19155 2.7517 0
M  V30 2989 H 293.728 -2.80182 1.62109 0
M  V30 2990 H 292.635 -1.40244 3.46818 0
M  V30 2991 H 293.968 -1.86342 4.55563 0
M  V30 2992 N 295.62 -1.53406 -0.361157 0
M  V30 2993 C 296.53 -1.83122 -1.4664 0
M  V30 2994 C 297.546 -0.719943 -1.58407 0
M  V30 2995 O 298.722 -1.01046 -1.74218 0
M  V30 2996 C 295.787 -2.01891 -2.81853 0
M  V30 2997 C 294.848 -3.25784 -2.79577 0
M  V30 2998 C 294.081 -3.43648 -4.0834 0
M  V30 2999 O 294.304 -2.65714 -5.0473 0
M  V30 3000 O 293.238 -4.37018 -4.13883 0
M  V30 3001 H 297.064 -2.7703 -1.24451 0
M  V30 3002 H 294.649 -1.38841 -0.551678 0
M  V30 3003 H 296.531 -2.15782 -3.61962 0
M  V30 3004 H 295.206 -1.11173 -3.0401 0
M  V30 3005 H 294.113 -3.17312 -1.98151 0
M  V30 3006 H 295.446 -4.16439 -2.62373 0
M  V30 3007 N 297.098 0.621204 -1.44841 0
M  V30 3008 C 298.061 1.71459 -1.521 0
M  V30 3009 C 299.061 1.55696 -0.401933 0
M  V30 3010 O 300.251 1.61011 -0.664925 0
M  V30 3011 C 297.383 3.10624 -1.40447 0
M  V30 3012 H 298.576 1.66394 -2.49506 0
M  V30 3013 H 296.129 0.835745 -1.3208 0
M  V30 3014 H 296.864 3.21277 -0.441737 0
M  V30 3015 H 296.649 3.23473 -2.21602 0
M  V30 3016 H 298.139 3.90293 -1.4853 0
M  V30 3017 N 298.576 1.31904 0.862503 0
M  V30 3018 C 299.825 1.21373 1.61094 0
M  V30 3019 C 300.138 -0.22504 1.94301 0
M  V30 3020 O 301.344 -0.452121 2.67709 0
M  V30 3021 C 299.8 2.12525 2.9045 0
M  V30 3022 C 299.408 3.61441 2.64697 0
M  V30 3023 C 301.152 2.10813 3.68454 0
M  V30 3024 C 299.059 4.44578 3.90006 0
M  V30 3025 H 297.989 0.450705 0.604468 0
M  V30 3026 H 300.64 1.56811 0.953027 0
M  V30 3027 H 299.022 1.69994 3.57656 0
M  V30 3028 H 300.196 4.12264 2.05851 0
M  V30 3029 H 298.511 3.65205 2.00036 0
M  V30 3030 H 301.108 2.70167 4.61426 0
M  V30 3031 H 301.451 1.09713 4.01583 0
M  V30 3032 H 301.984 2.51583 3.08141 0
M  V30 3033 H 298.723 5.46461 3.62023 0
M  V30 3034 H 298.243 3.98508 4.48276 0
M  V30 3035 H 299.922 4.57176 4.5782 0
M  V30 3036 N 300.054 -1.07777 1.14986 0
M  V30 3037 C 301.282 -1.84018 0.945773 0
M  V30 3038 C 301.697 -1.81897 -0.505863 0
M  V30 3039 O 301.054 -1.22726 -1.35072 0
M  V30 3040 C 301.105 -3.31287 1.44677 0
M  V30 3041 O 300.826 -3.33449 2.84154 0
M  V30 3042 C 302.327 -4.24311 1.28355 0
M  V30 3043 H 299.547 -0.580716 0.336169 0
M  V30 3044 H 302.091 -1.36077 1.52654 0
M  V30 3045 H 300.246 -3.76594 0.908625 0
M  V30 3046 H 300.66 -4.25427 3.06777 0
M  V30 3047 H 302.134 -5.2573 1.68261 0
M  V30 3048 H 302.611 -4.38612 0.227184 0
M  V30 3049 H 303.217 -3.84836 1.81056 0
M  V30 3050 N 301.532 -0.945985 -1.26051 0
M  V30 3051 C 302.78 -0.594941 -1.93145 0
M  V30 3052 C 303.101 0.86953 -1.7454 0
M  V30 3053 O 302.371 1.61838 -1.10387 0
M  V30 3054 H 300.951 -0.217044 -0.714773 0
M  V30 3055 H 303.613 -1.20235 -1.53393 0
M  V30 3056 H 302.709 -0.816835 -3.01221 0
M  V30 3057 N 303.011 1.40521 -0.713556 0
M  V30 3058 C 304.288 1.94775 -0.17943 0
M  V30 3059 C 304.668 1.65184 1.31444 0
M  V30 3060 O 304.016 0.968429 2.06963 0
M  V30 3061 C 304.226 3.45543 -0.489986 0
M  V30 3062 C 305.574 4.22442 -0.427536 0
M  V30 3063 O 306.598 3.53644 -0.425929 0
M  V30 3064 O 305.457 5.4501 -0.403292 0
M  V30 3065 H 302.551 0.826606 -0.0255192 0
M  V30 3066 H 305.097 1.5014 -0.790949 0
M  V30 3067 H 303.869 3.60432 -1.5233 0
M  V30 3068 H 303.492 3.97311 0.151598 0
M  V30 3069 N 304.489 0.459591 1.5075 0
M  V30 3070 C 305.736 -0.0993495 2.02256 0
M  V30 3071 C 306.064 -1.40751 1.34237 0
M  V30 3072 O 305.319 -1.90379 0.453228 0
M  V30 3073 C 305.618 -0.342866 3.55752 0
M  V30 3074 C 305.284 0.88218 4.42186 0
M  V30 3075 C 303.946 1.21808 4.65528 0
M  V30 3076 C 306.298 1.69837 4.92752 0
M  V30 3077 C 303.626 2.37045 5.36681 0
M  V30 3078 C 305.978 2.84192 5.65171 0
M  V30 3079 C 304.642 3.1821 5.8677 0
M  V30 3080 H 303.912 -0.0363545 0.740108 0
M  V30 3081 H 306.559 0.611329 1.8148 0
M  V30 3082 H 304.864 -1.13567 3.7498 0
M  V30 3083 H 306.561 -0.789121 3.93159 0
M  V30 3084 H 303.151 0.610467 4.2423 0
M  V30 3085 H 307.335 1.45205 4.74583 0
M  V30 3086 H 302.591 2.63689 5.51614 0
M  V30 3087 H 306.765 3.4779 6.03337 0
M  V30 3088 H 304.392 4.07613 6.41682 0
M  V30 3089 N 305.967 -1.56429 0.191757 0
M  V30 3090 C 306.93 -2.17707 -0.716688 0
M  V30 3091 C 307.93 -1.13061 -1.14341 0
M  V30 3092 O 309.12 -1.38464 -1.05704 0
M  V30 3093 C 306.252 -2.77644 -1.97804 0
M  V30 3094 H 307.445 -2.99342 -0.1829 0
M  V30 3095 H 304.998 -1.56193 -0.0578566 0
M  V30 3096 H 305.733 -1.99799 -2.55443 0
M  V30 3097 H 305.518 -3.54246 -1.68083 0
M  V30 3098 H 307.008 -3.24708 -2.62592 0
M  V30 3099 N 307.445 0.0818655 -1.57387 0
M  V30 3100 C 308.375 1.09885 -2.06028 0
M  V30 3101 C 309.356 1.4098 -0.951774 0
M  V30 3102 O 310.541 1.50781 -1.22387 0
M  V30 3103 C 307.671 2.4151 -2.4958 0
M  V30 3104 C 306.625 2.24792 -3.64215 0
M  V30 3105 C 305.951 3.61712 -3.93787 0
M  V30 3106 C 307.251 1.67749 -4.94629 0
M  V30 3107 H 308.945 0.694128 -2.91243 0
M  V30 3108 H 306.491 0.332448 -1.4011 0
M  V30 3109 H 308.444 3.12939 -2.82219 0
M  V30 3110 H 307.168 2.83943 -1.61381 0
M  V30 3111 H 305.827 1.55807 -3.31843 0
M  V30 3112 H 305.475 4.01697 -3.02735 0
M  V30 3113 H 305.175 3.51368 -4.70971 0
M  V30 3114 H 306.699 4.34587 -4.28913 0
M  V30 3115 H 308.113 2.29032 -5.25564 0
M  V30 3116 H 306.51 1.68128 -5.76067 0
M  V30 3117 H 307.58 0.638059 -4.80684 0
M  V30 3118 N 308.923 1.53595 0.353017 0
M  V30 3119 C 310.169 1.70638 1.09593 0
M  V30 3120 C 310.502 0.463286 1.88593 0
M  V30 3121 O 309.777 -0.539597 1.86865 0
M  V30 3122 C 310.06 2.96406 2.04489 0
M  V30 3123 C 309.913 4.30901 1.29014 0
M  V30 3124 C 311.232 3.17812 3.0444 0
M  V30 3125 H 308.351 0.620913 0.397034 0
M  V30 3126 H 310.993 1.86254 0.375446 0
M  V30 3127 H 309.143 2.83223 2.65927 0
M  V30 3128 H 310.815 4.55917 0.702638 0
M  V30 3129 H 309.058 4.29741 0.592071 0
M  V30 3130 H 309.729 5.1506 1.98537 0
M  V30 3131 H 312.205 3.30263 2.53112 0
M  V30 3132 H 311.081 4.07223 3.6805 0
M  V30 3133 H 311.342 2.33669 3.75301 0
M  V30 3134 N 310.401 -0.613514 1.45168 0
M  V30 3135 C 311.348 -1.72456 1.53387 0
M  V30 3136 C 312.318 -1.6169 0.380191 0
M  V30 3137 O 313.503 -1.81356 0.592836 0
M  V30 3138 C 310.643 -3.10753 1.50088 0
M  V30 3139 C 309.756 -3.32368 2.75963 0
M  V30 3140 C 308.891 -4.60737 2.64376 0
M  V30 3141 C 307.93 -4.7559 3.85332 0
M  V30 3142 N 307.067 -5.95253 3.72315 0
M  V30 3143 H 311.907 -1.64768 2.48305 0
M  V30 3144 H 309.444 -0.803503 1.23216 0
M  V30 3145 H 311.402 -3.90758 1.46164 0
M  V30 3146 H 310.032 -3.17413 0.587243 0
M  V30 3147 H 309.084 -2.4618 2.89999 0
M  V30 3148 H 310.396 -3.39218 3.65695 0
M  V30 3149 H 309.55 -5.48928 2.58385 0
M  V30 3150 H 308.289 -4.56275 1.72233 0
M  V30 3151 H 307.294 -3.85824 3.91688 0
M  V30 3152 H 308.519 -4.81854 4.78533 0
M  V30 3153 H 306.465 -5.91847 2.82937 0
M  V30 3154 H 306.382 -6.03236 4.55677 0
M  V30 3155 H 307.65 -6.85958 3.70246 0
M  V30 3156 N 311.879 -1.3236 -0.855495 0
M  V30 3157 C 312.842 -1.21164 -1.94556 0
M  V30 3158 C 313.842 -0.134908 -1.60233 0
M  V30 3159 O 315.032 -0.385249 -1.69887 0
M  V30 3160 C 312.164 -0.863192 -3.29791 0
M  V30 3161 H 313.357 -2.18038 -2.05911 0
M  V30 3162 H 310.91 -1.16179 -1.04557 0
M  V30 3163 H 311.645 0.103769 -3.24134 0
M  V30 3164 H 311.43 -1.64166 -3.56078 0
M  V30 3165 H 312.92 -0.809156 -4.09686 0
M  V30 3166 N 313.357 1.07166 -1.15556 0
M  V30 3167 C 314.603 1.80222 -0.942961 0
M  V30 3168 C 314.958 1.85121 0.524209 0
M  V30 3169 O 314.251 1.32531 1.38369 0
M  V30 3170 C 314.445 3.24707 -1.49332 0
M  V30 3171 C 314.274 3.33887 -3.01247 0
M  V30 3172 C 313.044 3.44337 -3.69811 0
M  V30 3173 C 315.242 3.24484 -3.99017 0
M  V30 3174 N 313.224 3.42439 -5.09518 0
M  V30 3175 C 314.595 3.29726 -5.25053 0
M  V30 3176 C 316.65 3.08307 -3.90962 0
M  V30 3177 C 315.353 3.20455 -6.43973 0
M  V30 3178 C 317.379 3.00371 -5.09442 0
M  V30 3179 C 316.741 3.06227 -6.34354 0
M  V30 3180 H 312.84 0.672709 -0.398731 0
M  V30 3181 H 315.424 1.27905 -1.46794 0
M  V30 3182 H 313.595 3.7544 -0.994946 0
M  V30 3183 H 315.327 3.85894 -1.21935 0
M  V30 3184 H 312.082 3.48762 -3.20409 0
M  V30 3185 H 312.506 3.45013 -5.8249 0
M  V30 3186 H 317.148 3.02633 -2.95251 0
M  V30 3187 H 314.866 3.24888 -7.39914 0
M  V30 3188 H 318.452 2.88955 -5.04971 0
M  V30 3189 H 317.332 3.00132 -7.24493 0
M  V30 3190 N 314.835 0.952656 1.25548 0
M  V30 3191 C 315.782 0.47008 2.25962 0
M  V30 3192 C 316.752 -0.476384 1.59122 0
M  V30 3193 O 317.937 -0.39007 1.8677 0
M  V30 3194 C 315.077 -0.247881 3.44209 0
M  V30 3195 C 314.19 0.735591 4.25691 0
M  V30 3196 C 313.325 -0.0047306 5.312 0
M  V30 3197 C 312.364 0.969805 6.04368 0
M  V30 3198 N 311.501 0.260486 7.01617 0
M  V30 3199 H 316.341 1.33126 2.66611 0
M  V30 3200 H 313.878 0.66765 1.31076 0
M  V30 3201 H 315.836 -0.680695 4.1161 0
M  V30 3202 H 314.466 -1.07312 3.0444 0
M  V30 3203 H 313.518 1.28689 3.57971 0
M  V30 3204 H 314.83 1.47934 4.76358 0
M  V30 3205 H 313.984 -0.496275 6.04667 0
M  V30 3206 H 312.723 -0.781282 4.81401 0
M  V30 3207 H 311.728 1.47237 5.29718 0
M  V30 3208 H 312.953 1.74655 6.56256 0
M  V30 3209 H 310.899 -0.497364 6.54112 0
M  V30 3210 H 310.816 0.943362 7.50091 0
M  V30 3211 H 312.084 -0.209587 7.79218 0
M  V30 3212 N 316.313 -1.40141 0.720998 0
M  V30 3213 C 317.276 -2.29058 0.0805834 0
M  V30 3214 C 318.276 -1.45632 -0.681758 0
M  V30 3215 O 319.466 -1.6648 -0.512856 0
M  V30 3216 C 316.598 -3.28925 -0.895593 0
M  V30 3217 H 317.791 -2.87191 0.863793 0
M  V30 3218 H 315.344 -1.48553 0.485975 0
M  V30 3219 H 316.079 -2.75822 -1.70566 0
M  V30 3220 H 315.864 -3.90519 -0.351766 0
M  V30 3221 H 317.354 -3.95494 -1.34069 0
M  V30 3222 N 317.792 -0.46758 -1.50504 0
M  V30 3223 C 319.069 0.15003 -1.95024 0
M  V30 3224 C 319.449 1.57304 -1.40779 0
M  V30 3225 O 318.797 2.20281 -0.607319 0
M  V30 3226 C 319.007 0.0969324 -3.48865 0
M  V30 3227 C 320.355 0.287565 -4.23625 0
M  V30 3228 O 321.379 0.173678 -3.55776 0
M  V30 3229 O 320.238 0.517186 -5.44047 0
M  V30 3230 H 317.332 0.113582 -0.819163 0
M  V30 3231 H 319.878 -0.52773 -1.61286 0
M  V30 3232 H 318.65 -0.896732 -3.80886 0
M  V30 3233 H 318.273 0.816303 -3.8913 0
M  V30 3234 N 319.27 1.56325 -0.20005 0
M  V30 3235 C 320.686 1.58839 0.155716 0
M  V30 3236 C 320.886 1.21636 1.60645 0
M  V30 3237 O 319.942 0.941437 2.34293 0
M  V30 3238 C 321.255 3.0032 -0.151124 0
M  V30 3239 C 322.803 3.12866 -0.0916284 0
M  V30 3240 C 323.278 4.56488 -0.371845 0
M  V30 3241 N 324.769 4.62089 -0.320641 0
M  V30 3242 C 325.504 5.71116 -0.511243 0
M  V30 3243 N 325 6.88592 -0.762461 0
M  V30 3244 N 326.793 5.60335 -0.445157 0
M  V30 3245 H 318.944 1.78788 -1.14668 0
M  V30 3246 H 321.207 0.829996 -0.458051 0
M  V30 3247 H 320.913 3.32117 -1.15721 0
M  V30 3248 H 320.787 3.73257 0.543986 0
M  V30 3249 H 323.174 2.80878 0.905065 0
M  V30 3250 H 323.255 2.42304 -0.81989 0
M  V30 3251 H 322.899 4.89189 -1.36588 0
M  V30 3252 H 322.829 5.25246 0.377362 0
M  V30 3253 H 325.32 3.77665 -0.13329 0
M  V30 3254 H 325.633 7.67581 -0.896576 0
M  V30 3255 H 323.978 6.90387 -0.799412 0
M  V30 3256 H 327.169 4.67436 -0.249278 0
M  V30 3257 H 327.342 6.45243 -0.597116 0
M  V30 3258 N 320.748 -0.0735177 1.57428 0
M  V30 3259 C 321.711 -1.07192 2.02589 0
M  V30 3260 C 322.711 -1.31695 0.922661 0
M  V30 3261 O 323.901 -1.27445 1.18758 0
M  V30 3262 C 321.033 -2.41599 2.40506 0
M  V30 3263 H 322.226 -0.682727 2.92025 0
M  V30 3264 H 319.779 -0.319193 1.53006 0
M  V30 3265 H 320.514 -2.85354 1.5409 0
M  V30 3266 H 320.299 -2.25156 3.21009 0
M  V30 3267 H 321.789 -3.13367 2.76027 0
M  V30 3268 N 322.226 -1.5378 -0.344866 0
M  V30 3269 C 323.474 -1.70625 -1.08311 0
M  V30 3270 C 323.795 -0.471447 -1.89215 0
M  V30 3271 O 323.065 0.514616 -1.8902 0
M  V30 3272 H 321.645 -0.629058 -0.402859 0
M  V30 3273 H 324.307 -1.9103 -0.386459 0
M  V30 3274 H 323.403 -2.57656 -1.76124 0
M  V30 3275 N 323.704 0.605807 -1.45491 0
M  V30 3276 C 324.652 1.73754 -1.54636 0
M  V30 3277 C 325.646 1.64207 -0.416219 0
M  V30 3278 O 326.852 1.69979 -0.592199 0
M  V30 3279 H 323.227 0.574073 -0.485741 0
M  V30 3280 H 325.198 1.63169 -2.49837 0
M  V30 3281 C 323.947 3.12135 -1.53189 0
M  V30 3282 H 323.27 3.20141 -2.39478 0
M  V30 3283 H 324.71 3.91147 -1.63645 0
M  V30 3284 C 323.169 3.35921 -0.256616 0
M  V30 3285 O 323.699 3.96194 0.662798 0
M  V30 3286 N 321.905 2.90204 -0.151751 0
M  V30 3287 H 321.452 2.41336 -0.90081 0
M  V30 3288 H 321.41 3.06492 0.700699 0
M  V30 3289 N 325.182 1.32811 0.848464 0
M  V30 3290 C 326.428 1.23907 1.60546 0
M  V30 3291 C 326.761 -0.197161 1.93197 0
M  V30 3292 O 326.036 -1.13596 1.5788 0
M  V30 3293 C 326.319 2.10489 2.92175 0
M  V30 3294 C 326.172 3.62522 2.66266 0
M  V30 3295 C 327.491 1.97075 3.93509 0
M  V30 3296 H 324.61 0.451459 0.58254 0
M  V30 3297 H 327.252 1.62818 0.979296 0
M  V30 3298 H 325.402 1.77434 3.45614 0
M  V30 3299 H 327.074 4.05821 2.19334 0
M  V30 3300 H 325.317 3.84879 2.00126 0
M  V30 3301 H 325.988 4.18437 3.6002 0
M  V30 3302 H 328.464 2.26045 3.49346 0
M  V30 3303 H 327.34 2.59923 4.83457 0
M  V30 3304 H 327.601 0.940186 4.31987 0
M  V30 3305 N 326.66 -1.06551 1.16123 0
M  V30 3306 C 327.909 -1.78687 0.935622 0
M  V30 3307 C 328.222 -1.88056 -0.538001 0
M  V30 3308 O 329.428 -2.56794 -0.88143 0
M  V30 3309 C 327.884 -3.21143 1.62466 0
M  V30 3310 C 327.492 -3.19949 3.13587 0
M  V30 3311 C 329.236 -3.9783 1.48092 0
M  V30 3312 C 327.143 -4.57108 3.75241 0
M  V30 3313 H 326.073 -0.669712 0.346412 0
M  V30 3314 H 328.724 -1.19534 1.39226 0
M  V30 3315 H 327.106 -3.80539 1.09572 0
M  V30 3316 H 328.28 -2.70151 3.73303 0
M  V30 3317 H 326.595 -2.5676 3.27816 0
M  V30 3318 H 329.192 -4.99217 1.91538 0
M  V30 3319 H 329.535 -4.14078 0.429507 0
M  V30 3320 H 330.068 -3.4495 1.98127 0
M  V30 3321 H 326.807 -4.46065 4.80319 0
M  V30 3322 H 326.327 -5.07111 3.20309 0
M  V30 3323 H 328.006 -5.26069 3.76644 0
M  V30 3324 N 328.138 -0.959301 -1.25041 0
M  V30 3325 C 329.385 -0.616611 -1.92884 0
M  V30 3326 C 329.713 0.847036 -1.75087 0
M  V30 3327 O 328.968 1.62374 -1.09239 0
M  V30 3328 C 329.267 -0.927136 -3.45165 0
M  V30 3329 C 328.933 -2.37757 -3.83122 0
M  V30 3330 C 327.595 -2.77402 -3.93194 0
M  V30 3331 C 329.947 -3.31929 -4.01836 0
M  V30 3332 C 327.275 -4.10277 -4.19392 0
M  V30 3333 C 329.627 -4.64423 -4.29528 0
M  V30 3334 C 328.291 -5.03857 -4.37818 0
M  V30 3335 H 327.561 -0.225634 -0.705812 0
M  V30 3336 H 330.208 -1.20921 -1.48493 0
M  V30 3337 H 328.513 -0.252195 -3.90987 0
M  V30 3338 H 330.21 -0.6405 -3.95852 0
M  V30 3339 H 326.8 -2.06013 -3.75841 0
M  V30 3340 H 330.984 -3.02488 -3.93465 0
M  V30 3341 H 326.24 -4.40467 -4.24027 0
M  V30 3342 H 330.414 -5.37369 -4.42953 0
M  V30 3343 H 328.041 -6.06843 -4.57871 0
M  V30 3344 N 329.616 1.39756 -0.72842 0
M  V30 3345 C 331.032 1.5442 -0.403308 0
M  V30 3346 C 331.232 1.69694 1.08656 0
M  V30 3347 O 330.288 1.69373 1.87267 0
M  V30 3348 C 331.601 2.76555 -1.18058 0
M  V30 3349 C 333.149 2.90384 -1.16815 0
M  V30 3350 C 333.624 4.15449 -1.92785 0
M  V30 3351 N 335.115 4.22475 -1.89918 0
M  V30 3352 C 335.85 5.1818 -2.45514 0
M  V30 3353 N 335.346 6.19714 -3.09719 0
M  V30 3354 N 337.139 5.1035 -2.35584 0
M  V30 3355 H 329.29 1.28089 -1.69431 0
M  V30 3356 H 331.553 0.620327 -0.716867 0
M  V30 3357 H 331.259 2.7159 -2.23455 0
M  V30 3358 H 331.133 3.69033 -0.780662 0
M  V30 3359 H 333.52 2.94846 -0.12234 0
M  V30 3360 H 333.601 1.98988 -1.6074 0
M  V30 3361 H 333.245 4.11749 -2.97364 0
M  V30 3362 H 333.175 5.05877 -1.46272 0
M  V30 3363 H 335.666 3.49743 -1.43138 0
M  V30 3364 H 335.979 6.8919 -3.49625 0
M  V30 3365 H 334.324 6.20121 -3.13807 0
M  V30 3366 H 337.515 4.2996 -1.85072 0
M  V30 3367 H 337.688 5.84761 -2.79211 0
M  V30 3368 N 331.094 0.475555 1.50254 0
M  V30 3369 C 332.041 -0.316293 2.28622 0
M  V30 3370 C 333.011 -0.983227 1.33873 0
M  V30 3371 O 334.196 -0.994805 1.62814 0
M  V30 3372 C 331.336 -1.38975 3.1588 0
M  V30 3373 C 330.449 -0.737146 4.25664 0
M  V30 3374 C 329.584 -1.78887 5.00173 0
M  V30 3375 C 328.623 -1.11676 6.01826 0
M  V30 3376 N 327.76 -2.11154 6.69596 0
M  V30 3377 H 332.6 0.358297 2.95838 0
M  V30 3378 H 330.137 0.188541 1.45887 0
M  V30 3379 H 332.095 -2.02383 3.64825 0
M  V30 3380 H 330.725 -2.03344 2.50701 0
M  V30 3381 H 329.777 0.0096065 3.80399 0
M  V30 3382 H 331.089 -0.206816 4.98371 0
M  V30 3383 H 330.243 -2.49865 5.52859 0
M  V30 3384 H 328.982 -2.35302 4.27182 0
M  V30 3385 H 327.987 -0.392633 5.48396 0
M  V30 3386 H 329.212 -0.55945 6.76792 0
M  V30 3387 H 327.158 -2.66577 5.99394 0
M  V30 3388 H 327.075 -1.63118 7.38193 0
M  V30 3389 H 328.343 -2.81497 7.26897 0
M  V30 3390 N 332.573 -1.56217 0.208337 0
M  V30 3391 C 333.798 -2.02782 -0.435222 0
M  V30 3392 C 334.223 -1.08738 -1.53485 0
M  V30 3393 O 333.581 -0.0731855 -1.81152 0
M  V30 3394 C 333.629 -3.47687 -0.956335 0
M  V30 3395 O 332.733 -3.56773 -2.06849 0
M  V30 3396 H 332.074 -0.656403 -0.100158 0
M  V30 3397 H 334.604 -2.02033 0.3231 0
M  V30 3398 H 334.614 -3.87745 -1.26955 0
M  V30 3399 H 333.289 -4.15624 -0.15143 0
M  V30 3400 H 331.866 -3.28597 -1.76292 0
M  V30 3401 N 334.051 0.0651679 -1.57465 0
M  V30 3402 C 335.014 1.06117 -2.03155 0
M  V30 3403 C 336.014 1.31204 -0.929632 0
M  V30 3404 O 337.204 1.26813 -1.19432 0
M  V30 3405 C 334.336 2.4032 -2.41783 0
M  V30 3406 H 335.529 0.667231 -2.92383 0
M  V30 3407 H 333.082 0.311075 -1.53173 0
M  V30 3408 H 333.817 2.84532 -1.55601 0
M  V30 3409 H 333.602 2.23451 -3.22199 0
M  V30 3410 H 335.092 3.11898 -2.77685 0
M  V30 3411 N 335.529 1.53961 0.336706 0
M  V30 3412 C 336.945 1.44378 0.680241 0
M  V30 3413 C 337.145 0.606034 1.9217 0
M  V30 3414 O 336.201 0.099688 2.52303 0
M  V30 3415 C 337.514 2.87945 0.8665 0
M  V30 3416 C 339.062 2.97763 0.964682 0
M  V30 3417 C 339.537 4.42453 1.18321 0
M  V30 3418 N 341.028 4.46008 1.25025 0
M  V30 3419 C 341.763 5.55102 1.43697 0
M  V30 3420 N 341.259 6.7419 1.59498 0
M  V30 3421 N 343.052 5.42727 1.463 0
M  V30 3422 H 335.203 2.06918 -0.479455 0
M  V30 3423 H 337.466 0.935634 -0.152619 0
M  V30 3424 H 337.172 3.51691 0.0256937 0
M  V30 3425 H 337.046 3.33293 1.76623 0
M  V30 3426 H 339.433 2.34153 1.796 0
M  V30 3427 H 339.514 2.55766 0.041708 0
M  V30 3428 H 339.158 5.06645 0.356788 0
M  V30 3429 H 339.088 4.82048 2.11985 0
M  V30 3430 H 341.579 3.60196 1.14312 0
M  V30 3431 H 341.892 7.53095 1.734 0
M  V30 3432 H 340.237 6.77123 1.56621 0
M  V30 3433 H 343.428 4.48647 1.33543 0
M  V30 3434 H 343.601 6.27806 1.6051 0
M  V30 3435 N 337.007 -0.598083 1.45811 0
M  V30 3436 C 337.955 -1.72932 1.55555 0
M  V30 3437 C 338.949 -1.63984 0.424921 0
M  V30 3438 O 340.155 -1.69663 0.601205 0
M  V30 3439 H 336.53 -0.571489 0.488779 0
M  V30 3440 H 338.501 -1.61842 2.50699 0
M  V30 3441 C 337.25 -3.11318 1.54843 0
M  V30 3442 H 336.573 -3.18867 2.41172 0
M  V30 3443 H 338.013 -3.90274 1.65717 0
M  V30 3444 C 336.472 -3.3578 0.274427 0
M  V30 3445 O 337.002 -3.9654 -0.641778 0
M  V30 3446 N 335.208 -2.90119 0.167139 0
M  V30 3447 H 334.755 -2.40855 0.913596 0
M  V30 3448 H 334.713 -3.0686 -0.684435 0
M  V30 3449 N 338.485 -1.33259 -0.841409 0
M  V30 3450 C 339.732 -1.24572 -1.5965 0
M  V30 3451 C 340.06 0.189137 -1.93578 0
M  V30 3452 O 339.315 1.14566 -1.5866 0
M  V30 3453 C 339.614 -2.06381 -2.9179 0
M  V30 3454 C 339.28 -3.556 -2.77235 0
M  V30 3455 C 337.942 -3.96282 -2.72973 0
M  V30 3456 C 340.294 -4.50433 -2.62221 0
M  V30 3457 C 337.622 -5.30017 -2.51592 0
M  V30 3458 C 339.974 -5.84327 -2.42374 0
M  V30 3459 C 338.638 -6.24194 -2.36512 0
M  V30 3460 H 337.908 -0.455842 -0.5842 0
M  V30 3461 H 340.555 -1.6482 -0.975016 0
M  V30 3462 H 338.86 -1.58903 -3.5813 0
M  V30 3463 H 340.557 -1.97019 -3.49263 0
M  V30 3464 H 337.147 -3.23298 -2.81384 0
M  V30 3465 H 341.331 -4.19914 -2.64549 0
M  V30 3466 H 336.587 -5.59947 -2.45499 0
M  V30 3467 H 340.761 -6.57414 -2.29739 0
M  V30 3468 H 338.388 -7.27759 -2.19706 0
M  V30 3469 N 339.963 1.05934 -1.16686 0
M  V30 3470 C 340.911 2.15603 -0.872817 0
M  V30 3471 C 341.905 1.68647 0.159576 0
M  V30 3472 O 343.111 1.79995 0.0132125 0
M  V30 3473 H 339.486 0.703885 -0.264671 0
M  V30 3474 H 341.457 2.37613 -1.80507 0
M  V30 3475 C 340.206 3.45457 -0.394344 0
M  V30 3476 H 339.529 3.81984 -1.18019 0
M  V30 3477 H 340.969 4.2339 -0.227408 0
M  V30 3478 C 339.428 3.25021 0.88673 0
M  V30 3479 O 339.958 3.50906 1.95519 0
M  V30 3480 N 338.164 2.78437 0.831925 0
M  V30 3481 H 337.711 2.57572 -0.0377619 0
M  V30 3482 H 337.669 2.65144 1.68956 0
M  V30 3483 N 341.441 0.965919 1.2453 0
M  V30 3484 C 342.371 0.513476 2.27784 0
M  V30 3485 C 343.352 -0.445974 1.6415 0
M  V30 3486 O 344.537 -0.342485 1.91156 0
M  V30 3487 C 341.667 -0.198839 3.4673 0
M  V30 3488 C 340.621 0.676456 4.2262 0
M  V30 3489 C 339.947 -0.167248 5.34438 0
M  V30 3490 C 341.247 1.96017 4.84123 0
M  V30 3491 H 342.941 1.3765 2.65881 0
M  V30 3492 H 340.487 0.663321 1.27813 0
M  V30 3493 H 342.44 -0.526567 4.18097 0
M  V30 3494 H 341.164 -1.0962 3.07654 0
M  V30 3495 H 339.823 0.98743 3.53052 0
M  V30 3496 H 339.471 -1.0647 4.91603 0
M  V30 3497 H 339.171 0.415181 5.86131 0
M  V30 3498 H 340.695 -0.489688 6.08633 0
M  V30 3499 H 342.109 1.69814 5.47573 0
M  V30 3500 H 340.506 2.48918 5.4604 0
M  V30 3501 H 341.576 2.65622 4.05676 0
M  V30 3502 N 342.919 -1.39368 0.735821 0
M  V30 3503 C 344.33 -1.83313 0.354015 0
M  V30 3504 C 344.681 -1.61461 -1.11466 0
M  V30 3505 O 343.806 -1.10621 -1.85989 0
M  V30 3506 C 344.401 -3.32781 0.635769 0
M  V30 3507 C 342.96 -3.75142 0.307448 0
M  V30 3508 C 342.107 -2.62358 0.897974 0
M  V30 3509 H 345.058 -1.28349 0.933398 0
M  V30 3510 H 345.079 -3.80388 -0.0921773 0
M  V30 3511 H 344.591 -3.48654 1.70476 0
M  V30 3512 H 342.692 -3.64857 -0.755674 0
M  V30 3513 H 342.805 -4.72532 0.790583 0
M  V30 3514 H 341.169 -2.52624 0.324551 0
M  V30 3515 H 341.952 -2.81036 1.97164 0
M  V30 3516 N 344.397 -0.483516 -1.5 0
M  V30 3517 C 345.33 0.350427 -2.25493 0
M  V30 3518 C 346.308 0.985549 -1.29328 0
M  V30 3519 O 347.492 1.01906 -1.58579 0
M  V30 3520 C 344.619 1.49202 -3.04066 0
M  V30 3521 C 343.665 0.973036 -4.15252 0
M  V30 3522 S 344.498 -0.122237 -5.3536 0
M  V30 3523 C 345.654 1.02294 -6.17484 0
M  V30 3524 H 345.887 -0.290381 -2.95878 0
M  V30 3525 H 343.42 -0.268562 -1.52046 0
M  V30 3526 H 345.378 2.14623 -3.49925 0
M  V30 3527 H 344.039 2.10438 -2.33183 0
M  V30 3528 H 343.232 1.82804 -4.69679 0
M  V30 3529 H 342.834 0.396335 -3.71894 0
M  V30 3530 H 345.126 1.93195 -6.49371 0
M  V30 3531 H 346.069 0.517664 -7.06205 0
M  V30 3532 H 346.477 1.28238 -5.49741 0
M  V30 3533 N 345.875 1.56104 -0.216619 0
M  V30 3534 C 347.115 2.00074 0.418322 0
M  V30 3535 C 347.479 1.10098 1.57297 0
M  V30 3536 O 348.68 1.43393 2.27359 0
M  V30 3537 C 346.951 3.47231 0.846477 0
M  V30 3538 S 348.51 4.13223 1.47622 0
M  V30 3539 H 345.328 0.698457 0.132962 0
M  V30 3540 H 347.93 1.92784 -0.324748 0
M  V30 3541 H 346.634 4.104 -0.0036319 0
M  V30 3542 H 346.165 3.58384 1.62248 0
M  V30 3543 H 348.18 4.12005 2.76526 0
M  V30 3544 N 347.353 -0.0568162 1.57498 0
M  V30 3545 C 348.3 -1.06591 2.04712 0
M  V30 3546 C 349.27 -1.3758 0.930644 0
M  V30 3547 O 350.455 -1.48392 1.19935 0
M  V30 3548 C 347.595 -2.3701 2.50839 0
M  V30 3549 C 346.708 -2.12421 3.76167 0
M  V30 3550 C 345.843 -3.36511 4.11015 0
M  V30 3551 C 344.882 -3.07353 5.2934 0
M  V30 3552 N 344.019 -4.23816 5.59754 0
M  V30 3553 H 348.859 -0.65631 2.90683 0
M  V30 3554 H 346.396 -0.312481 1.43743 0
M  V30 3555 H 348.354 -3.13175 2.7564 0
M  V30 3556 H 346.984 -2.75744 1.67825 0
M  V30 3557 H 346.036 -1.2688 3.58616 0
M  V30 3558 H 347.348 -1.86894 4.62463 0
M  V30 3559 H 346.502 -4.21062 4.36797 0
M  V30 3560 H 345.241 -3.65128 3.23315 0
M  V30 3561 H 344.246 -2.212 5.03339 0
M  V30 3562 H 345.471 -2.80043 6.1867 0
M  V30 3563 H 343.417 -4.52436 4.75014 0
M  V30 3564 H 343.334 -4.01614 6.40501 0
M  V30 3565 H 344.602 -5.0932 5.90096 0
M  V30 3566 N 348.832 -1.54138 -0.328536 0
M  V30 3567 C 349.795 -1.82462 -1.38709 0
M  V30 3568 C 350.795 -0.696229 -1.44946 0
M  V30 3569 O 351.985 -0.964535 -1.4506 0
M  V30 3570 C 349.117 -1.98018 -2.77492 0
M  V30 3571 H 350.31 -2.77037 -1.14851 0
M  V30 3572 H 347.863 -1.45779 -0.563751 0
M  V30 3573 H 348.598 -1.05637 -3.06613 0
M  V30 3574 H 348.383 -2.80124 -2.74359 0
M  V30 3575 H 349.873 -2.21396 -3.54081 0
M  V30 3576 N 350.31 0.590341 -1.46126 0
M  V30 3577 C 351.273 1.68194 -1.55703 0
M  V30 3578 C 352.273 1.54808 -0.434868 0
M  V30 3579 O 353.463 1.59564 -0.698928 0
M  V30 3580 C 350.595 3.07575 -1.47005 0
M  V30 3581 H 351.788 1.61064 -2.52979 0
M  V30 3582 H 349.341 0.807541 -1.33823 0
M  V30 3583 H 350.076 3.20268 -0.509785 0
M  V30 3584 H 349.861 3.187 -2.28414 0
M  V30 3585 H 351.351 3.87055 -1.56776 0
M  V30 3586 N 351.788 1.33704 0.83433 0
M  V30 3587 C 352.698 1.26382 1.97648 0
M  V30 3588 C 353.714 0.173548 1.73132 0
M  V30 3589 O 354.89 0.397962 1.97429 0
M  V30 3590 C 351.955 1.00769 3.31733 0
M  V30 3591 C 351.016 2.1884 3.69334 0
M  V30 3592 C 350.249 1.9444 4.9702 0
M  V30 3593 O 350.472 0.896961 5.63303 0
M  V30 3594 O 349.406 2.81093 5.32231 0
M  V30 3595 H 353.232 2.22444 2.06767 0
M  V30 3596 H 350.817 1.13795 0.968037 0
M  V30 3597 H 352.699 0.882186 4.12062 0
M  V30 3598 H 351.374 0.0773783 3.23608 0
M  V30 3599 H 350.281 2.36946 2.89495 0
M  V30 3600 H 351.614 3.10221 3.82131 0
M  V30 3601 N 353.266 -1.05314 1.17247 0
M  V30 3602 C 354.494 -1.81971 0.984593 0
M  V30 3603 C 354.909 -1.82929 -0.467166 0
M  V30 3604 O 354.266 -1.25564 -1.32438 0
M  V30 3605 C 354.317 -3.28143 1.51672 0
M  V30 3606 O 354.038 -3.27347 2.91163 0
M  V30 3607 C 355.539 -4.21493 1.37326 0
M  V30 3608 H 352.759 -0.573455 0.348411 0
M  V30 3609 H 355.303 -1.32808 1.55506 0
M  V30 3610 H 353.458 -3.74582 0.988302 0
M  V30 3611 H 353.872 -4.18824 3.15732 0
M  V30 3612 H 355.346 -5.22043 1.79375 0
M  V30 3613 H 355.823 -4.38031 0.320169 0
M  V30 3614 H 356.429 -3.80909 1.89178 0
M  V30 3615 N 354.744 -0.972509 -1.24016 0
M  V30 3616 C 355.972 -0.654803 -1.96265 0
M  V30 3617 C 356.387 0.776708 -1.72083 0
M  V30 3618 O 355.744 1.52171 -1.00748 0
M  V30 3619 C 355.795 -0.92592 -3.49441 0
M  V30 3620 O 355.516 -2.30116 -3.72798 0
M  V30 3621 C 357.017 -0.623068 -4.38899 0
M  V30 3622 H 354.237 -0.243907 -0.6251 0
M  V30 3623 H 356.781 -1.30175 -1.57717 0
M  V30 3624 H 354.936 -0.325108 -3.86033 0
M  V30 3625 H 355.35 -2.38483 -4.67147 0
M  V30 3626 H 356.824 -0.863189 -5.45209 0
M  V30 3627 H 357.301 0.442754 -4.36963 0
M  V30 3628 H 357.907 -1.204 -4.07902 0
M  V30 3629 N 356.222 1.38976 -0.743202 0
M  V30 3630 C 357.468 2.0064 -0.295189 0
M  V30 3631 C 357.801 1.5885 1.11716 0
M  V30 3632 O 357.076 0.821181 1.76315 0
M  V30 3633 C 357.359 3.578 -0.406318 0
M  V30 3634 C 357.212 4.09586 -1.85903 0
M  V30 3635 C 358.531 4.39616 0.206439 0
M  V30 3636 H 355.65 0.728935 -0.108733 0
M  V30 3637 H 358.292 1.65067 -0.940897 0
M  V30 3638 H 356.442 3.88235 0.143419 0
M  V30 3639 H 358.114 3.89837 -2.46627 0
M  V30 3640 H 356.357 3.6284 -2.3776 0
M  V30 3641 H 357.028 5.18708 -1.888 0
M  V30 3642 H 359.504 4.15273 -0.262283 0
M  V30 3643 H 358.38 5.48812 0.0983819 0
M  V30 3644 H 358.641 4.22754 1.2935 0
M  V30 3645 N 357.7 0.491464 1.49741 0
M  V30 3646 C 358.946 -0.0565092 2.02721 0
M  V30 3647 C 359.279 -1.37522 1.37118 0
M  V30 3648 O 358.554 -1.87866 0.503645 0
M  V30 3649 C 358.837 -0.219051 3.59433 0
M  V30 3650 C 358.69 1.12211 4.35579 0
M  V30 3651 C 360.009 -0.964157 4.29409 0
M  V30 3652 H 357.128 -0.0190627 0.736753 0
M  V30 3653 H 359.77 0.641021 1.7886 0
M  V30 3654 H 357.92 -0.813165 3.79895 0
M  V30 3655 H 359.592 1.75437 4.26637 0
M  V30 3656 H 357.835 1.71377 3.98513 0
M  V30 3657 H 358.506 0.961794 5.43556 0
M  V30 3658 H 360.982 -0.460378 4.13545 0
M  V30 3659 H 359.858 -1.04671 5.38828 0
M  V30 3660 H 360.119 -2.00563 3.93988 0
M  V30 3661 N 359.178 -1.55987 0.224894 0
M  V30 3662 C 360.088 -2.24066 -0.69511 0
M  V30 3663 C 361.104 -1.24939 -1.21104 0
M  V30 3664 O 362.28 -1.5776 -1.25195 0
M  V30 3665 C 359.345 -2.90983 -1.88493 0
M  V30 3666 C 358.406 -4.05462 -1.41064 0
M  V30 3667 C 357.639 -4.69179 -2.54375 0
M  V30 3668 O 357.862 -4.31895 -3.72589 0
M  V30 3669 O 356.796 -5.58108 -2.25386 0
M  V30 3670 H 360.622 -3.03353 -0.145149 0
M  V30 3671 H 358.207 -1.49399 -0.00569476 0
M  V30 3672 H 360.089 -3.33209 -2.57972 0
M  V30 3673 H 358.764 -2.14653 -2.42293 0
M  V30 3674 H 357.671 -3.67798 -0.683774 0
M  V30 3675 H 359.004 -4.83545 -0.918985 0
M  V30 3676 N 360.656 0.0484629 -1.57525 0
M  V30 3677 C 361.902 0.744226 -1.88651 0
M  V30 3678 C 362.235 1.76029 -0.820212 0
M  V30 3679 O 361.51 1.93782 0.166985 0
M  V30 3680 C 361.793 1.43128 -3.30434 0
M  V30 3681 C 361.646 0.43005 -4.47739 0
M  V30 3682 C 362.965 2.37031 -3.70816 0
M  V30 3683 H 360.084 0.269089 -0.68612 0
M  V30 3684 H 362.726 0.00713532 -1.89999 0
M  V30 3685 H 360.876 2.05956 -3.29415 0
M  V30 3686 H 362.548 -0.194816 -4.60888 0
M  V30 3687 H 360.791 -0.252522 -4.33064 0
M  V30 3688 H 361.462 0.948874 -5.43783 0
M  V30 3689 H 363.938 1.84263 -3.73077 0
M  V30 3690 H 362.814 2.82094 -4.70865 0
M  V30 3691 H 363.075 3.22864 -3.02012 0
M  V30 3692 N 362.134 1.5431 0.320358 0
M  V30 3693 C 363.044 1.86946 1.41734 0
M  V30 3694 C 364.06 0.761689 1.56443 0
M  V30 3695 O 365.236 1.05629 1.71477 0
M  V30 3696 C 362.301 2.09293 2.76401 0
M  V30 3697 C 361.362 3.33082 2.70841 0
M  V30 3698 C 360.595 3.54353 3.99086 0
M  V30 3699 O 360.818 2.79002 4.97508 0
M  V30 3700 O 359.752 4.47838 4.0215 0
M  V30 3701 H 363.578 2.80232 1.17062 0
M  V30 3702 H 361.163 1.40255 0.514673 0
M  V30 3703 H 363.045 2.25303 3.56113 0
M  V30 3704 H 361.72 1.19194 3.00956 0
M  V30 3705 H 360.627 3.22454 1.89668 0
M  V30 3706 H 361.96 4.23249 2.5124 0
M  V30 3707 N 363.613 -0.582584 1.46437 0
M  V30 3708 C 364.523 -1.71949 1.59595 0
M  V30 3709 C 365.539 -1.67264 0.479443 0
M  V30 3710 O 366.715 -1.87171 0.743579 0
M  V30 3711 C 363.78 -3.08452 1.58298 0
M  V30 3712 C 362.841 -3.244 2.81182 0
M  V30 3713 C 362.074 -4.54391 2.79937 0
M  V30 3714 O 362.297 -5.38287 1.8869 0
M  V30 3715 O 361.231 -4.73588 3.71481 0
M  V30 3716 H 365.057 -1.63795 2.55744 0
M  V30 3717 H 362.642 -0.749643 1.29231 0
M  V30 3718 H 364.524 -3.89732 1.60271 0
M  V30 3719 H 363.199 -3.17043 0.653094 0
M  V30 3720 H 362.106 -2.42613 2.84763 0
M  V30 3721 H 363.439 -3.20699 3.7338 0
M  V30 3722 N 365.091 -1.34144 -0.827227 0
M  V30 3723 C 366.34 -1.25602 -1.5782 0
M  V30 3724 C 366.653 0.173445 -1.94829 0
M  V30 3725 O 367.859 0.380984 -2.68814 0
M  V30 3726 C 366.315 -2.20151 -2.84713 0
M  V30 3727 C 365.923 -3.68331 -2.55021 0
M  V30 3728 C 367.667 -2.20508 -3.62735 0
M  V30 3729 C 365.574 -4.54762 -3.78082 0
M  V30 3730 H 364.504 -0.466573 -0.592306 0
M  V30 3731 H 367.155 -1.59283 -0.911116 0
M  V30 3732 H 365.537 -1.79417 -3.53023 0
M  V30 3733 H 366.711 -4.17577 -1.94849 0
M  V30 3734 H 365.026 -3.7038 -1.90283 0
M  V30 3735 H 367.623 -2.82306 -4.54101 0
M  V30 3736 H 367.966 -1.20322 -3.98533 0
M  V30 3737 H 368.499 -2.59664 -3.01362 0
M  V30 3738 H 365.238 -5.55867 -3.47407 0
M  V30 3739 H 364.758 -4.10254 -4.37552 0
M  V30 3740 H 366.437 -4.69153 -4.45538 0
M  V30 3741 N 366.569 1.04691 -1.17803 0
M  V30 3742 C 367.815 1.78045 -0.970969 0
M  V30 3743 C 368.148 1.87686 0.498751 0
M  V30 3744 O 367.423 1.38035 1.37027 0
M  V30 3745 C 367.706 3.2166 -1.61884 0
M  V30 3746 C 367.559 3.20001 -3.161 0
M  V30 3747 C 368.878 4.1962 -1.3269 0
M  V30 3748 H 365.997 0.64633 -0.354155 0
M  V30 3749 H 368.639 1.22333 -1.45378 0
M  V30 3750 H 366.789 3.69232 -1.20831 0
M  V30 3751 H 368.461 2.80467 -3.66246 0
M  V30 3752 H 366.704 2.58203 -3.48588 0
M  V30 3753 H 367.375 4.21386 -3.56564 0
M  V30 3754 H 369.851 3.80567 -1.68249 0
M  V30 3755 H 368.727 5.18339 -1.80599 0
M  V30 3756 H 368.988 4.414 -0.248622 0
M  V30 3757 N 368.047 0.979072 1.23499 0
M  V30 3758 C 369.324 0.563674 1.87302 0
M  V30 3759 C 369.704 -0.959199 1.88049 0
M  V30 3760 O 369.052 -1.83535 1.36114 0
M  V30 3761 C 369.262 1.16822 3.28867 0
M  V30 3762 C 370.61 1.26014 4.0547 0
M  V30 3763 O 371.634 1.12158 3.38082 0
M  V30 3764 O 370.493 1.48044 5.26066 0
M  V30 3765 H 367.587 0.189602 0.804972 0
M  V30 3766 H 370.133 1.07407 1.31384 0
M  V30 3767 H 368.905 2.21049 3.22883 0
M  V30 3768 H 368.528 0.642564 3.92373 0
M  V30 3769 N 369.525 -1.3858 0.750561 0
M  V30 3770 C 370.774 -1.99424 0.302172 0
M  V30 3771 C 371.087 -1.60254 -1.12152 0
M  V30 3772 O 372.293 -2.14046 -1.67023 0
M  V30 3773 C 370.749 -3.56558 0.489307 0
M  V30 3774 C 370.357 -4.04682 1.92189 0
M  V30 3775 C 372.101 -4.24374 0.103478 0
M  V30 3776 C 370.008 -5.54446 2.05775 0
M  V30 3777 H 368.938 -0.746046 0.10923 0
M  V30 3778 H 371.589 -1.58383 0.92667 0
M  V30 3779 H 369.971 -3.95472 -0.204329 0
M  V30 3780 H 371.145 -3.77065 2.64875 0
M  V30 3781 H 369.46 -3.4958 2.26236 0
M  V30 3782 H 372.057 -5.34384 0.183787 0
M  V30 3783 H 372.4 -4.05468 -0.943481 0
M  V30 3784 H 372.933 -3.90688 0.748854 0
M  V30 3785 H 369.672 -5.78252 3.08714 0
M  V30 3786 H 369.192 -5.83816 1.37546 0
M  V30 3787 H 370.871 -6.20099 1.84626 0
M  V30 3788 N 371.003 -0.499398 -1.49478 0
M  V30 3789 C 372.251 0.0455996 -2.02049 0
M  V30 3790 C 372.572 1.37633 -1.38138 0
M  V30 3791 O 371.842 1.8842 -0.536166 0
M  V30 3792 H 370.422 0.0198416 -0.746736 0
M  V30 3793 H 373.084 -0.656274 -1.83519 0
M  V30 3794 H 372.18 0.176445 -3.11601 0
M  V30 3795 N 372.481 1.55866 -0.233164 0
M  V30 3796 C 373.444 2.1953 0.658715 0
M  V30 3797 C 374.444 1.16053 1.11303 0
M  V30 3798 O 375.634 1.41218 1.01996 0
M  V30 3799 C 372.766 2.82791 1.90373 0
M  V30 3800 H 373.959 2.99721 0.10347 0
M  V30 3801 H 371.512 1.56291 0.0164245 0
M  V30 3802 H 372.247 2.06501 2.50056 0
M  V30 3803 H 372.032 3.58578 1.58632 0
M  V30 3804 H 373.522 3.31556 2.53891 0
M  V30 3805 N 373.959 -0.0401083 1.57549 0
M  V30 3806 C 375.206 -0.733125 1.88763 0
M  V30 3807 C 375.534 -1.75946 0.829058 0
M  V30 3808 O 374.789 -1.94949 -0.171323 0
M  V30 3809 C 375.088 -1.44902 3.26708 0
M  V30 3810 C 374.754 -0.559707 4.47413 0
M  V30 3811 C 373.416 -0.314731 4.8017 0
M  V30 3812 C 375.768 0.0549743 5.21171 0
M  V30 3813 C 373.096 0.553886 5.8408 0
M  V30 3814 C 375.448 0.911229 6.26003 0
M  V30 3815 C 374.112 1.16577 6.57241 0
M  V30 3816 H 373.382 -0.268269 0.690733 0
M  V30 3817 H 376.029 0.00679408 1.91499 0
M  V30 3818 H 374.334 -2.26197 3.1991 0
M  V30 3819 H 376.031 -1.99058 3.48105 0
M  V30 3820 H 372.621 -0.760793 4.21794 0
M  V30 3821 H 376.805 -0.121344 4.96152 0
M  V30 3822 H 372.061 0.759518 6.06664 0
M  V30 3823 H 376.235 1.3941 6.82303 0
M  V30 3824 H 373.862 1.84058 7.37582 0
M  V30 3825 N 375.437 -1.54477 -0.31217 0
M  V30 3826 C 376.4 -1.83923 -1.36766 0
M  V30 3827 C 377.4 -0.711563 -1.44199 0
M  V30 3828 O 378.59 -0.979866 -1.44029 0
M  V30 3829 C 375.722 -2.0095 -2.75376 0
M  V30 3830 H 376.915 -2.78239 -1.11906 0
M  V30 3831 H 374.468 -1.46369 -0.548257 0
M  V30 3832 H 375.203 -1.08883 -3.05475 0
M  V30 3833 H 374.988 -2.83018 -2.71373 0
M  V30 3834 H 376.478 -2.2514 -3.51713 0
M  V30 3835 N 376.915 0.57481 -1.46744 0
M  V30 3836 C 378.326 1.15695 -1.46532 0
M  V30 3837 C 378.677 1.95068 -0.210425 0
M  V30 3838 O 377.802 2.05241 0.685944 0
M  V30 3839 C 378.397 2.1048 -2.65487 0
M  V30 3840 C 376.956 2.64002 -2.68291 0
M  V30 3841 C 376.103 1.40026 -2.39349 0
M  V30 3842 H 379.054 0.362325 -1.54509 0
M  V30 3843 H 379.075 2.94074 -2.41455 0
M  V30 3844 H 378.587 1.52683 -3.56805 0
M  V30 3845 H 376.688 3.25646 -1.81067 0
M  V30 3846 H 376.801 3.06197 -3.68483 0
M  V30 3847 H 375.165 1.70106 -1.89568 0
M  V30 3848 H 375.948 0.840485 -3.32852 0
M  V30 3849 N 378.394 1.34581 0.820102 0
M  V30 3850 C 379.304 1.28471 1.96297 0
M  V30 3851 C 380.32 0.191902 1.72939 0
M  V30 3852 O 381.496 0.418879 1.96996 0
M  V30 3853 C 378.561 1.04281 3.30645 0
M  V30 3854 C 377.622 2.22745 3.66992 0
M  V30 3855 C 376.855 1.997 4.9493 0
M  V30 3856 O 377.078 0.956656 5.6232 0
M  V30 3857 O 376.012 2.86723 5.2922 0
M  V30 3858 H 379.838 2.24624 2.04396 0
M  V30 3859 H 377.423 1.14816 0.955913 0
M  V30 3860 H 379.305 0.925841 4.11104 0
M  V30 3861 H 377.98 0.111697 3.23507 0
M  V30 3862 H 376.887 2.40003 2.86966 0
M  V30 3863 H 378.22 3.14257 3.78819 0
M  V30 3864 N 379.872 -1.04064 1.18357 0
M  V30 3865 C 381.149 -1.74252 0.888581 0
M  V30 3866 C 381.529 -2.02138 -0.60856 0
M  V30 3867 O 380.877 -1.66656 -1.56327 0
M  V30 3868 C 381.087 -3.0277 1.73584 0
M  V30 3869 C 382.435 -3.76506 1.96286 0
M  V30 3870 O 383.459 -3.12668 1.70637 0
M  V30 3871 O 382.318 -4.91243 2.39464 0
M  V30 3872 H 379.412 -0.758271 0.330082 0
M  V30 3873 H 381.958 -1.1013 1.2911 0
M  V30 3874 H 380.73 -2.78299 2.75073 0
M  V30 3875 H 380.353 -3.74631 1.33183 0
M  V30 3876 N 381.35 -0.985608 -1.22978 0
M  V30 3877 C 382.599 -0.652881 -1.90841 0
M  V30 3878 C 382.912 0.817842 -1.77681 0
M  V30 3879 O 384.118 1.26185 -2.40395 0
M  V30 3880 C 382.574 -1.11717 -3.42122 0
M  V30 3881 C 382.182 -2.6126 -3.63933 0
M  V30 3882 C 383.926 -0.85843 -4.1573 0
M  V30 3883 C 381.833 -3.0133 -5.08876 0
M  V30 3884 H 380.763 -0.240491 -0.714619 0
M  V30 3885 H 383.414 -1.1942 -1.39324 0
M  V30 3886 H 381.796 -0.504027 -3.92779 0
M  V30 3887 H 382.97 -3.27858 -3.23799 0
M  V30 3888 H 381.285 -2.84937 -3.03644 0
M  V30 3889 H 383.882 -1.13359 -5.22546 0
M  V30 3890 H 384.225 0.205461 -4.15793 0
M  V30 3891 H 384.758 -1.43341 -3.71077 0
M  V30 3892 H 381.497 -4.06864 -5.13947 0
M  V30 3893 H 381.017 -2.3943 -5.49939 0
M  V30 3894 H 382.696 -2.92224 -5.77247 0
M  V30 3895 N 382.828 1.3818 -0.7579 0
M  V30 3896 C 383.778 2.27741 -0.108674 0
M  V30 3897 C 384.762 1.45415 0.688709 0
M  V30 3898 O 385.954 1.68108 0.553956 0
M  V30 3899 C 383.083 3.34313 0.780367 0
M  V30 3900 C 382.169 4.24093 -0.0240977 0
M  V30 3901 N 382.56 4.9451 -1.06271 0
M  V30 3902 C 380.858 4.45542 0.202049 0
M  V30 3903 C 381.559 5.60675 -1.54979 0
M  V30 3904 N 380.535 5.36684 -0.864348 0
M  V30 3905 H 384.337 2.79649 -0.904071 0
M  V30 3906 H 381.851 1.51133 -0.594346 0
M  V30 3907 H 383.848 3.97368 1.26114 0
M  V30 3908 H 382.508 2.83962 1.57467 0
M  V30 3909 H 383.519 4.97345 -1.44459 0
M  V30 3910 H 380.196 4.06091 0.96935 0
M  V30 3911 H 381.586 6.26992 -2.41517 0
M  V30 3912 N 384.306 0.507319 1.49211 0
M  V30 3913 C 385.555 -0.0368315 2.01666 0
M  V30 3914 C 385.868 -1.37459 1.39156 0
M  V30 3915 O 387.074 -2.00579 1.82976 0
M  V30 3916 C 385.53 -0.116089 3.59713 0
M  V30 3917 C 385.138 1.2154 4.31198 0
M  V30 3918 C 386.882 -0.610268 4.2009 0
M  V30 3919 C 384.789 1.09796 5.81119 0
M  V30 3920 H 383.719 -0.0175376 0.753796 0
M  V30 3921 H 386.37 0.647691 1.71689 0
M  V30 3922 H 384.752 -0.8652 3.86433 0
M  V30 3923 H 385.926 1.9783 4.16173 0
M  V30 3924 H 384.241 1.64352 3.82593 0
M  V30 3925 H 386.838 -0.715742 5.29888 0
M  V30 3926 H 387.181 -1.61064 3.8388 0
M  V30 3927 H 387.714 0.0824916 3.97714 0
M  V30 3928 H 384.453 2.0728 6.21864 0
M  V30 3929 H 383.973 0.376058 5.9862 0
M  V30 3930 H 385.652 0.779281 6.4229 0
M  V30 3931 N 385.784 -1.5574 0.241426 0
M  V30 3932 C 387.195 -1.84842 -0.262755 0
M  V30 3933 C 387.546 -1.16317 -1.58003 0
M  V30 3934 O 386.671 -0.439653 -2.11887 0
M  V30 3935 C 387.266 -3.35332 -0.483523 0
M  V30 3936 C 385.825 -3.6468 -0.931977 0
M  V30 3937 C 384.972 -2.77299 -0.0061151 0
M  V30 3938 H 387.923 -1.51761 0.464129 0
M  V30 3939 H 387.944 -3.56615 -1.32688 0
M  V30 3940 H 387.456 -3.85178 0.47537 0
M  V30 3941 H 385.557 -3.20307 -1.90353 0
M  V30 3942 H 385.67 -4.72498 -0.792628 0
M  V30 3943 H 384.034 -2.49408 -0.516503 0
M  V30 3944 H 384.817 -3.2995 0.948052 0
M  V30 3945 N 387.262 0.0317525 -1.57568 0
M  V30 3946 C 388.194 1.06073 -2.03178 0
M  V30 3947 C 389.207 1.32627 -0.944132 0
M  V30 3948 O 390.396 1.30162 -1.22148 0
M  V30 3949 C 387.496 2.40297 -2.38978 0
M  V30 3950 C 386.669 2.33137 -3.70089 0
M  V30 3951 C 385.728 3.49787 -3.9311 0
M  V30 3952 O 384.754 3.29403 -4.64201 0
M  V30 3953 N 385.956 4.71562 -3.38541 0
M  V30 3954 H 388.721 0.672006 -2.92069 0
M  V30 3955 H 386.282 0.219745 -1.60402 0
M  V30 3956 H 388.274 3.1705 -2.51518 0
M  V30 3957 H 386.844 2.71024 -1.55771 0
M  V30 3958 H 386.064 1.415 -3.67928 0
M  V30 3959 H 387.352 2.25493 -4.56104 0
M  V30 3960 H 386.75 4.91024 -2.80912 0
M  V30 3961 H 385.307 5.45689 -3.56464 0
M  V30 3962 N 388.74 1.54641 0.303973 0
M  V30 3963 C 389.989 1.7299 1.03717 0
M  V30 3964 C 390.302 0.521168 1.88529 0
M  V30 3965 O 391.508 0.586408 2.65092 0
M  V30 3966 C 389.964 3.06051 1.89369 0
M  V30 3967 C 389.572 4.34393 1.09574 0
M  V30 3968 C 391.316 3.3376 2.62306 0
M  V30 3969 C 389.223 5.58506 1.94486 0
M  V30 3970 H 388.153 0.64473 0.390947 0
M  V30 3971 H 390.804 1.81124 0.294328 0
M  V30 3972 H 389.186 2.91874 2.67629 0
M  V30 3973 H 390.36 4.59396 0.359485 0
M  V30 3974 H 388.675 4.13597 0.482324 0
M  V30 3975 H 391.272 4.23687 3.26181 0
M  V30 3976 H 391.615 2.52503 3.3098 0
M  V30 3977 H 392.148 3.48894 1.91097 0
M  V30 3978 H 388.887 6.42422 1.30287 0
M  V30 3979 H 388.407 5.37694 2.65792 0
M  V30 3980 H 390.086 5.95651 2.52605 0
M  V30 3981 N 390.218 -0.567019 1.47046 0
M  V30 3982 C 391.448 -1.34831 1.56538 0
M  V30 3983 C 391.856 -1.8802 0.21101 0
M  V30 3984 O 391.199 -1.65152 -0.804387 0
M  V30 3985 C 391.261 -2.56139 2.52256 0
M  V30 3986 C 390.925 -2.24307 3.98165 0
M  V30 3987 C 391.922 -1.82192 4.86931 0
M  V30 3988 C 389.607 -2.35968 4.43423 0
M  V30 3989 C 391.601 -1.52153 6.18973 0
M  V30 3990 C 389.288 -2.05542 5.75496 0
M  V30 3991 C 390.286 -1.63701 6.63092 0
M  V30 3992 O 389.974 -1.33657 7.92711 0
M  V30 3993 H 389.706 -0.417683 0.531523 0
M  V30 3994 H 392.26 -0.694726 1.93294 0
M  V30 3995 H 390.49 -3.24356 2.10548 0
M  V30 3996 H 392.179 -3.18214 2.51982 0
M  V30 3997 H 392.945 -1.72684 4.53217 0
M  V30 3998 H 388.824 -2.67495 3.75456 0
M  V30 3999 H 392.368 -1.19421 6.87302 0
M  V30 4000 H 388.265 -2.14679 6.08755 0
M  V30 4001 H 389.033 -1.4737 8.05124 0
M  V30 4002 N 391.696 -1.35014 -0.812953 0
M  V30 4003 C 392.942 -1.2812 -1.57204 0
M  V30 4004 C 393.275 0.145869 -1.93651 0
M  V30 4005 O 392.55 1.0937 -1.60836 0
M  V30 4006 C 392.833 -2.18162 -2.86492 0
M  V30 4007 C 392.686 -3.69454 -2.56561 0
M  V30 4008 C 394.005 -2.07439 -3.88145 0
M  V30 4009 H 391.124 -0.466746 -0.570366 0
M  V30 4010 H 393.766 -1.65357 -0.935783 0
M  V30 4011 H 391.916 -1.86535 -3.40789 0
M  V30 4012 H 393.588 -4.11493 -2.08497 0
M  V30 4013 H 391.831 -3.9005 -1.89851 0
M  V30 4014 H 392.502 -4.27835 -3.48799 0
M  V30 4015 H 394.978 -2.35228 -3.4323 0
M  V30 4016 H 393.854 -2.7265 -4.76396 0
M  V30 4017 H 394.115 -1.05439 -4.29343 0
M  V30 4018 N 393.175 1.03435 -1.18907 0
M  V30 4019 C 394.125 2.09924 -0.889706 0
M  V30 4020 C 395.109 1.60261 0.143216 0
M  V30 4021 O 396.301 1.76892 -0.0617122 0
M  V30 4022 C 393.43 3.40669 -0.424168 0
M  V30 4023 C 392.516 3.97082 -1.48952 0
M  V30 4024 N 392.907 4.27227 -2.70759 0
M  V30 4025 C 391.205 4.25029 -1.35152 0
M  V30 4026 C 391.906 4.7246 -3.39347 0
M  V30 4027 N 390.882 4.7366 -2.66735 0
M  V30 4028 H 394.684 2.31116 -1.81555 0
M  V30 4029 H 392.198 1.21246 -1.08042 0
M  V30 4030 H 394.195 4.16461 -0.191176 0
M  V30 4031 H 392.855 3.20901 0.495263 0
M  V30 4032 H 393.866 4.16678 -3.0757 0
M  V30 4033 H 390.543 4.14554 -0.495126 0
M  V30 4034 H 391.933 5.04751 -4.43481 0
M  V30 4035 N 394.653 0.992116 1.22453 0
M  V30 4036 C 396.069 0.702713 1.43297 0
M  V30 4037 C 396.269 -0.726909 1.87932 0
M  V30 4038 O 395.325 -1.49792 2.0327 0
M  V30 4039 C 396.638 1.70762 2.47509 0
M  V30 4040 C 398.186 1.72298 2.61309 0
M  V30 4041 C 398.661 2.71649 3.68742 0
M  V30 4042 N 400.152 2.70239 3.76199 0
M  V30 4043 C 400.887 3.43778 4.58917 0
M  V30 4044 N 400.383 4.26914 5.45633 0
M  V30 4045 N 402.176 3.32487 4.5322 0
M  V30 4046 H 394.327 1.91543 0.917871 0
M  V30 4047 H 396.59 0.826031 0.465162 0
M  V30 4048 H 396.296 2.73059 2.21657 0
M  V30 4049 H 396.17 1.49985 3.46099 0
M  V30 4050 H 398.557 0.706989 2.86506 0
M  V30 4051 H 398.638 1.97143 1.62997 0
M  V30 4052 H 398.282 3.73397 3.44292 0
M  V30 4053 H 398.212 2.44074 4.66622 0
M  V30 4054 H 400.703 2.09912 3.14237 0
M  V30 4055 H 401.016 4.79855 6.05771 0
M  V30 4056 H 399.361 4.31002 5.45218 0
M  V30 4057 H 402.552 2.6698 3.84499 0
M  V30 4058 H 402.725 3.90058 5.17454 0
M  V30 4059 N 396.131 -1.37776 0.765217 0
M  V30 4060 C 397.061 -2.32945 0.160953 0
M  V30 4061 C 398.042 -1.55454 -0.690516 0
M  V30 4062 O 399.227 -1.83721 -0.629318 0
M  V30 4063 C 396.357 -3.39669 -0.724031 0
M  V30 4064 C 395.311 -4.27992 0.0256173 0
M  V30 4065 C 394.637 -5.25673 -0.978383 0
M  V30 4066 C 395.937 -5.08309 1.20082 0
M  V30 4067 H 397.631 -2.83728 0.955969 0
M  V30 4068 H 395.177 -1.36416 0.461149 0
M  V30 4069 H 397.13 -4.05219 -1.15652 0
M  V30 4070 H 395.854 -2.87396 -1.5515 0
M  V30 4071 H 394.513 -3.63964 0.438812 0
M  V30 4072 H 394.161 -4.69682 -1.80022 0
M  V30 4073 H 393.861 -5.85625 -0.481378 0
M  V30 4074 H 395.385 -5.94098 -1.40995 0
M  V30 4075 H 396.799 -5.67034 0.845307 0
M  V30 4076 H 395.196 -5.77554 1.62947 0
M  V30 4077 H 396.266 -4.41365 2.00811 0
M  V30 4078 N 397.609 -0.515225 -1.4894 0
M  V30 4079 C 398.858 0.0261361 -2.01683 0
M  V30 4080 C 399.171 1.36719 -1.39883 0
M  V30 4081 O 400.377 1.99606 -1.84037 0
M  V30 4082 C 398.833 0.0970111 -3.59769 0
M  V30 4083 C 398.441 -1.23825 -4.30548 0
M  V30 4084 C 400.185 0.587981 -4.20408 0
M  V30 4085 C 398.092 -1.12877 -5.80528 0
M  V30 4086 H 397.022 0.0135398 -0.753878 0
M  V30 4087 H 399.673 -0.656787 -1.71343 0
M  V30 4088 H 398.055 0.844694 -3.86886 0
M  V30 4089 H 399.229 -2.00034 -4.15118 0
M  V30 4090 H 397.544 -1.66379 -3.81716 0
M  V30 4091 H 400.141 0.68763 -5.3026 0
M  V30 4092 H 400.484 1.59026 -3.84729 0
M  V30 4093 H 401.017 -0.103582 -3.97665 0
M  V30 4094 H 397.756 -2.10575 -6.20756 0
M  V30 4095 H 397.276 -0.407799 -5.98412 0
M  V30 4096 H 398.955 -0.813332 -6.41868 0
M  V30 4097 N 399.087 1.5561 -0.249682 0
M  V30 4098 C 400.034 2.21496 0.648694 0
M  V30 4099 C 401.004 1.17977 1.16921 0
M  V30 4100 O 402.189 1.46434 1.22318 0
M  V30 4101 C 399.329 2.92039 1.83868 0
M  V30 4102 C 398.442 4.10219 1.35442 0
M  V30 4103 C 397.577 4.6847 2.50419 0
M  V30 4104 C 396.616 5.78893 1.98869 0
M  V30 4105 N 395.753 6.31315 3.07223 0
M  V30 4106 H 400.593 2.97892 0.0801582 0
M  V30 4107 H 398.13 1.47074 0.0278031 0
M  V30 4108 H 400.088 3.31138 2.53778 0
M  V30 4109 H 398.718 2.18111 2.37965 0
M  V30 4110 H 397.77 3.76413 0.54928 0
M  V30 4111 H 399.082 4.89927 0.936649 0
M  V30 4112 H 398.236 5.10158 3.28366 0
M  V30 4113 H 396.975 3.87984 2.95499 0
M  V30 4114 H 395.98 5.3668 1.19393 0
M  V30 4115 H 397.205 6.61232 1.54755 0
M  V30 4116 H 395.151 5.53733 3.51732 0
M  V30 4117 H 395.068 7.06224 2.69784 0
M  V30 4118 H 396.336 6.77662 3.8522 0
M  V30 4119 N 400.565 -0.0233959 1.57583 0
M  V30 4120 C 401.813 -0.711654 1.89156 0
M  V30 4121 C 402.134 -1.75591 0.848096 0
M  V30 4122 O 401.404 -1.95547 -0.117566 0
M  V30 4123 H 399.984 -0.265835 0.698098 0
M  V30 4124 H 402.646 0.0119948 1.94896 0
M  V30 4125 H 401.742 -1.19766 2.88206 0
M  V30 4126 N 402.043 -1.548 -0.295768 0
M  V30 4127 C 402.953 -1.89177 -1.38742 0
M  V30 4128 C 403.969 -0.786481 -1.55211 0
M  V30 4129 O 405.145 -1.08344 -1.69775 0
M  V30 4130 C 402.21 -2.13663 -2.73036 0
M  V30 4131 C 401.271 -3.37349 -2.65508 0
M  V30 4132 C 400.504 -3.60658 -3.93398 0
M  V30 4133 O 400.727 -2.86882 -4.93006 0
M  V30 4134 O 399.661 -4.54179 -3.94975 0
M  V30 4135 H 403.487 -2.82059 -1.12589 0
M  V30 4136 H 401.072 -1.41056 -0.492295 0
M  V30 4137 H 402.954 -2.3094 -3.52484 0
M  V30 4138 H 401.629 -1.23967 -2.99022 0
M  V30 4139 H 400.536 -3.25431 -1.84514 0
M  V30 4140 H 401.869 -4.27192 -2.44474 0
M  V30 4141 N 403.521 0.559213 -1.47345 0
M  V30 4142 C 404.468 1.66645 -1.59682 0
M  V30 4143 C 405.438 1.60168 -0.43994 0
M  V30 4144 O 406.623 1.79031 -0.659736 0
M  V30 4145 C 403.763 3.04969 -1.61518 0
M  V30 4146 C 402.876 3.21897 -2.88108 0
M  V30 4147 C 402.011 4.50608 -2.81294 0
M  V30 4148 C 401.05 4.60961 -4.02717 0
M  V30 4149 N 400.187 5.81024 -3.94151 0
M  V30 4150 H 405.027 1.55439 -2.54249 0
M  V30 4151 H 402.564 0.757219 -1.26113 0
M  V30 4152 H 404.522 3.85064 -1.60566 0
M  V30 4153 H 403.152 3.15015 -0.704645 0
M  V30 4154 H 402.204 2.35248 -2.98936 0
M  V30 4155 H 403.516 3.25412 -3.78032 0
M  V30 4156 H 402.67 5.3896 -2.7858 0
M  V30 4157 H 401.409 4.49568 -1.89049 0
M  V30 4158 H 400.414 3.71021 -4.05738 0
M  V30 4159 H 401.639 4.63761 -4.96087 0
M  V30 4160 H 399.585 5.80938 -3.04708 0
M  V30 4161 H 399.502 5.85909 -4.77752 0
M  V30 4162 H 400.77 6.71744 -3.9545 0
M  V30 4163 N 404.999 1.35443 0.805782 0
M  V30 4164 C 406.229 1.31687 1.59192 0
M  V30 4165 C 406.637 -0.10756 1.88894 0
M  V30 4166 O 405.98 -1.07017 1.49309 0
M  V30 4167 C 406.042 2.05686 2.94845 0
M  V30 4168 C 405.706 3.54868 2.87954 0
M  V30 4169 C 406.703 4.49444 2.61335 0
M  V30 4170 C 404.388 3.97528 3.07046 0
M  V30 4171 C 406.382 5.84655 2.53885 0
M  V30 4172 C 404.069 5.32833 2.99219 0
M  V30 4173 C 405.067 6.26209 2.72674 0
M  V30 4174 O 404.755 7.59032 2.64811 0
M  V30 4175 H 404.487 0.453878 0.50097 0
M  V30 4176 H 407.041 1.78892 1.0093 0
M  V30 4177 H 405.271 1.5312 3.55093 0
M  V30 4178 H 406.96 1.94998 3.55993 0
M  V30 4179 H 407.726 4.17804 2.46303 0
M  V30 4180 H 403.605 3.25233 3.26718 0
M  V30 4181 H 407.149 6.57508 2.33086 0
M  V30 4182 H 403.046 5.64087 3.13809 0
M  V30 4183 H 403.814 7.68967 2.80413 0
M  V30 4184 N 406.477 -1.02803 1.19454 0
M  V30 4185 C 407.387 -2.14575 0.948408 0
M  V30 4186 C 408.403 -1.73757 -0.091871 0
M  V30 4187 O 409.579 -2.01185 0.0929654 0
M  V30 4188 C 406.644 -3.43202 0.491265 0
M  V30 4189 C 405.705 -3.98328 1.60103 0
M  V30 4190 C 404.938 -5.20816 1.16561 0
M  V30 4191 O 405.161 -5.70392 0.0295238 0
M  V30 4192 O 404.095 -5.68801 1.96849 0
M  V30 4193 H 407.921 -2.38202 1.88397 0
M  V30 4194 H 405.506 -1.12989 0.977433 0
M  V30 4195 H 407.388 -4.20687 0.245015 0
M  V30 4196 H 406.063 -3.21018 -0.415851 0
M  V30 4197 H 404.97 -3.22174 1.90144 0
M  V30 4198 H 406.303 -4.24879 2.48473 0
M  V30 4199 N 407.956 -0.998596 -1.21925 0
M  V30 4200 C 408.903 -0.553621 -2.24062 0
M  V30 4201 C 409.873 0.416999 -1.6078 0
M  V30 4202 O 411.058 0.320482 -1.88089 0
M  V30 4203 C 408.198 0.119959 -3.44891 0
M  V30 4204 C 407.311 -0.893077 -4.22668 0
M  V30 4205 C 406.446 -0.192424 -5.30851 0
M  V30 4206 C 405.485 -1.19344 -6.00353 0
M  V30 4207 N 404.622 -0.520707 -7.00166 0
M  V30 4208 H 409.462 -1.4293 -2.61486 0
M  V30 4209 H 406.999 -0.715838 -1.28507 0
M  V30 4210 H 408.957 0.527459 -4.13852 0
M  V30 4211 H 407.587 0.959389 -3.08214 0
M  V30 4212 H 406.639 -1.41886 -3.52948 0
M  V30 4213 H 407.951 -1.65512 -4.70539 0
M  V30 4214 H 407.105 0.271515 -6.06092 0
M  V30 4215 H 405.844 0.602075 -4.83969 0
M  V30 4216 H 404.849 -1.66795 -5.23889 0
M  V30 4217 H 406.074 -1.98891 -6.49322 0
M  V30 4218 H 404.02 0.254252 -6.55507 0
M  V30 4219 H 403.937 -1.2211 -7.46073 0
M  V30 4220 H 405.205 -0.0797596 -7.79459 0
M  V30 4221 N 409.434 1.37368 -0.772513 0
M  V30 4222 C 410.85 1.53059 -0.452231 0
M  V30 4223 C 411.05 1.73065 1.03203 0
M  V30 4224 O 410.106 1.75245 1.81784 0
M  V30 4225 C 411.419 2.72659 -1.26797 0
M  V30 4226 C 412.967 2.86521 -1.25995 0
M  V30 4227 C 413.442 4.09105 -2.05905 0
M  V30 4228 N 414.933 4.16219 -2.03263 0
M  V30 4229 C 415.668 5.10107 -2.61875 0
M  V30 4230 N 415.164 6.09547 -3.29278 0
M  V30 4231 N 416.957 5.02596 -2.51701 0
M  V30 4232 H 409.108 1.22634 -1.7342 0
M  V30 4233 H 411.371 0.597206 -0.736239 0
M  V30 4234 H 411.077 2.64343 -2.31982 0
M  V30 4235 H 410.951 3.66363 -0.897672 0
M  V30 4236 H 413.338 2.94308 -0.216081 0
M  V30 4237 H 413.419 1.93774 -1.66989 0
M  V30 4238 H 413.063 4.0208 -3.10313 0
M  V30 4239 H 412.993 5.00968 -1.62292 0
M  V30 4240 H 415.484 3.45012 -1.54192 0
M  V30 4241 H 415.797 6.77718 -3.71374 0
M  V30 4242 H 414.142 6.09824 -3.33377 0
M  V30 4243 H 417.333 4.23855 -1.98657 0
M  V30 4244 H 417.506 5.75582 -2.97673 0
M  V30 4245 N 410.912 0.523116 1.48665 0
M  V30 4246 C 412.161 -0.01544 2.01694 0
M  V30 4247 C 412.474 -1.35975 1.40606 0
M  V30 4248 O 413.68 -1.98627 1.85093 0
M  V30 4249 C 412.136 -0.0779303 3.59816 0
M  V30 4250 C 411.744 1.26107 4.29885 0
M  V30 4251 C 413.488 -0.565678 4.20714 0
M  V30 4252 C 411.395 1.15954 5.79921 0
M  V30 4253 H 410.325 -0.00954163 0.75394 0
M  V30 4254 H 412.976 0.665865 1.70993 0
M  V30 4255 H 411.358 -0.824165 3.87329 0
M  V30 4256 H 412.532 2.02233 4.14051 0
M  V30 4257 H 410.847 1.68401 3.80828 0
M  V30 4258 H 413.444 -0.6595 5.30617 0
M  V30 4259 H 413.787 -1.56984 3.85567 0
M  V30 4260 H 414.32 0.12467 3.97605 0
M  V30 4261 H 411.059 2.13864 6.19631 0
M  V30 4262 H 410.579 0.439529 5.98187 0
M  V30 4263 H 412.258 0.847361 6.41427 0
M  V30 4264 N 412.39 -1.55475 0.257931 0
M  V30 4265 C 413.3 -2.2549 -0.647425 0
M  V30 4266 C 414.316 -1.2748 -1.18427 0
M  V30 4267 O 415.492 -1.6038 -1.2182 0
M  V30 4268 C 412.557 -2.94916 -1.82278 0
M  V30 4269 C 411.618 -4.08363 -1.32432 0
M  V30 4270 C 410.851 -4.74469 -2.44366 0
M  V30 4271 O 411.074 -4.39701 -3.63344 0
M  V30 4272 O 410.008 -5.62763 -2.13497 0
M  V30 4273 H 413.834 -3.03593 -0.0807707 0
M  V30 4274 H 411.419 -1.49377 0.0259962 0
M  V30 4275 H 413.301 -3.38606 -2.50846 0
M  V30 4276 H 411.976 -2.19744 -2.37685 0
M  V30 4277 H 410.883 -3.69166 -0.605605 0
M  V30 4278 H 412.216 -4.85385 -0.816211 0
M  V30 4279 N 413.868 0.0150385 -1.57593 0
M  V30 4280 C 415.284 0.370907 -1.5523 0
M  V30 4281 C 415.484 1.75735 -0.985882 0
M  V30 4282 O 414.54 2.44944 -0.613077 0
M  V30 4283 C 415.853 0.259908 -2.99575 0
M  V30 4284 C 417.401 0.335959 -3.11192 0
M  V30 4285 C 417.876 0.254253 -4.57294 0
M  V30 4286 N 419.367 0.312618 -4.62144 0
M  V30 4287 C 420.102 0.272505 -5.72752 0
M  V30 4288 N 419.598 0.183864 -6.92556 0
M  V30 4289 N 421.391 0.323267 -5.6117 0
M  V30 4290 H 413.542 -0.892104 -1.92757 0
M  V30 4291 H 415.805 -0.340563 -0.884715 0
M  V30 4292 H 415.511 -0.693403 -3.44797 0
M  V30 4293 H 415.385 1.048 -3.62349 0
M  V30 4294 H 417.772 1.27971 -2.65909 0
M  V30 4295 H 417.853 -0.481739 -2.51223 0
M  V30 4296 H 417.497 -0.685887 -5.03247 0
M  V30 4297 H 417.427 1.09024 -5.15191 0
M  V30 4298 H 419.918 0.38307 -3.75953 0
M  V30 4299 H 420.231 0.15874 -7.72637 0
M  V30 4300 H 418.576 0.149708 -6.94839 0
M  V30 4301 H 421.767 0.390607 -4.66467 0
M  V30 4302 H 421.94 0.288539 -6.47357 0
M  V30 4303 N 415.346 1.54954 0.287554 0
M  V30 4304 C 416.276 1.89839 1.35954 0
M  V30 4305 C 417.257 0.758675 1.52244 0
M  V30 4306 O 418.442 1.01557 1.65529 0
M  V30 4307 C 415.572 2.15753 2.72154 0
M  V30 4308 C 414.526 3.3159 2.70614 0
M  V30 4309 C 413.852 3.42952 4.10229 0
M  V30 4310 C 415.152 4.68359 2.31165 0
M  V30 4311 H 416.846 2.79625 1.07007 0
M  V30 4312 H 414.392 1.3454 0.513316 0
M  V30 4313 H 416.345 2.38743 3.47246 0
M  V30 4314 H 415.069 1.22752 3.02654 0
M  V30 4315 H 413.728 3.08545 1.97979 0
M  V30 4316 H 413.376 2.47443 4.37928 0
M  V30 4317 H 413.076 4.20826 4.10097 0
M  V30 4318 H 414.6 3.68218 4.87081 0
M  V30 4319 H 416.014 4.9099 2.95976 0
M  V30 4320 H 414.411 5.49044 2.42221 0
M  V30 4321 H 415.481 4.68165 1.26291 0
M  V30 4322 N 416.824 -0.551391 1.4764 0
M  V30 4323 C 418.049 -1.33837 1.58437 0
M  V30 4324 C 418.474 -1.866 0.237063 0
M  V30 4325 O 417.832 -1.6328 -0.787994 0
M  V30 4326 C 417.88 -2.48014 2.61766 0
M  V30 4327 O 416.984 -3.50419 2.1744 0
M  V30 4328 H 416.325 -0.397299 0.532024 0
M  V30 4329 H 418.855 -0.665759 1.93465 0
M  V30 4330 H 418.865 -2.94503 2.82369 0
M  V30 4331 H 417.54 -2.08969 3.5959 0
M  V30 4332 H 416.117 -3.10196 2.06961 0
M  V30 4333 N 418.302 -1.35869 -0.798587 0
M  V30 4334 C 419.551 -1.28921 -1.5512 0
M  V30 4335 C 419.864 0.13208 -1.95154 0
M  V30 4336 O 421.07 0.323879 -2.69561 0
M  V30 4337 C 419.526 -2.26141 -2.79979 0
M  V30 4338 C 419.134 -3.73658 -2.47151 0
M  V30 4339 C 420.878 -2.28152 -3.57976 0
M  V30 4340 C 418.785 -4.62679 -3.6835 0
M  V30 4341 H 417.715 -0.479031 -0.582276 0
M  V30 4342 H 420.366 -1.61179 -0.877125 0
M  V30 4343 H 418.748 -1.86865 -3.49138 0
M  V30 4344 H 419.922 -4.21616 -1.85947 0
M  V30 4345 H 418.237 -3.74333 -1.82383 0
M  V30 4346 H 420.834 -2.91875 -4.4801 0
M  V30 4347 H 421.177 -1.28748 -3.95891 0
M  V30 4348 H 421.71 -2.65998 -2.95787 0
M  V30 4349 H 418.449 -5.63111 -3.35538 0
M  V30 4350 H 417.969 -4.19442 -4.28752 0
M  V30 4351 H 419.648 -4.78498 -4.35487 0
M  V30 4352 N 419.78 1.02168 -1.19998 0
M  V30 4353 C 421.196 1.27969 -0.953737 0
M  V30 4354 C 421.396 1.98079 0.369703 0
M  V30 4355 O 420.452 2.27306 1.09947 0
M  V30 4356 C 421.765 2.11971 -2.13281 0
M  V30 4357 C 423.313 2.25255 -2.17323 0
M  V30 4358 C 423.788 3.12632 -3.34702 0
M  V30 4359 N 425.279 3.2022 -3.34684 0
M  V30 4360 C 426.014 3.88039 -4.22153 0
M  V30 4361 N 425.51 4.58027 -5.19791 0
M  V30 4362 N 427.303 3.84511 -4.10009 0
M  V30 4363 H 419.454 0.550794 -2.05134 0
M  V30 4364 H 421.717 0.305683 -0.897364 0
M  V30 4365 H 421.423 1.67785 -3.09097 0
M  V30 4366 H 421.297 3.12699 -2.10949 0
M  V30 4367 H 423.684 2.68667 -1.22073 0
M  V30 4368 H 423.765 1.24053 -2.23706 0
M  V30 4369 H 423.409 2.69926 -4.30235 0
M  V30 4370 H 423.339 4.13909 -3.25556 0
M  V30 4371 H 425.83 2.70382 -2.64012 0
M  V30 4372 H 426.143 5.07429 -5.82868 0
M  V30 4373 H 424.488 4.56869 -5.23733 0
M  V30 4374 H 427.679 3.28978 -3.33003 0
M  V30 4375 H 427.852 4.3709 -4.78389 0
M  V30 4376 N 421.258 1.00505 1.21394 0
M  V30 4377 C 422.205 0.565496 2.23765 0
M  V30 4378 C 423.175 -0.408466 1.60999 0
M  V30 4379 O 424.36 -0.310503 1.88257 0
M  V30 4380 C 421.5 -0.101667 3.4495 0
M  V30 4381 C 420.613 0.915479 4.22188 0
M  V30 4382 C 419.748 0.220574 5.30742 0
M  V30 4383 C 418.787 1.22527 5.99711 0
M  V30 4384 N 417.924 0.557831 6.9988 0
M  V30 4385 H 422.764 1.44314 2.60725 0
M  V30 4386 H 420.301 0.722643 1.28126 0
M  V30 4387 H 422.259 -0.505504 4.14126 0
M  V30 4388 H 420.889 -0.94303 3.08718 0
M  V30 4389 H 419.941 1.43756 3.52191 0
M  V30 4390 H 421.253 1.68005 4.69655 0
M  V30 4391 H 420.407 -0.239368 6.06228 0
M  V30 4392 H 419.146 -0.576401 4.84282 0
M  V30 4393 H 418.151 1.69571 5.22997 0
M  V30 4394 H 419.376 2.02332 6.48258 0
M  V30 4395 H 417.322 -0.219486 6.55633 0
M  V30 4396 H 417.239 1.26065 7.45415 0
M  V30 4397 H 418.507 0.121095 7.79406 0
M  V30 4398 N 422.737 -1.36956 0.779787 0
M  V30 4399 C 423.647 -2.33965 0.172491 0
M  V30 4400 C 424.663 -1.60574 -0.670222 0
M  V30 4401 O 425.839 -1.92617 -0.588263 0
M  V30 4402 C 422.904 -3.39761 -0.690173 0
M  V30 4403 C 421.965 -4.28964 0.169924 0
M  V30 4404 C 421.198 -5.29707 -0.651662 0
M  V30 4405 O 421.421 -5.38238 -1.88827 0
M  V30 4406 O 420.355 -6.01873 -0.0566264 0
M  V30 4407 H 424.181 -2.87647 0.974321 0
M  V30 4408 H 421.766 -1.39258 0.541078 0
M  V30 4409 H 423.648 -4.04471 -1.1824 0
M  V30 4410 H 422.323 -2.88394 -1.47006 0
M  V30 4411 H 421.23 -3.67326 0.708696 0
M  V30 4412 H 422.563 -4.83656 0.913085 0
M  V30 4413 N 424.215 -0.530993 -1.48385 0
M  V30 4414 C 425.463 0.00273189 -2.021 0
M  V30 4415 C 425.784 1.34672 -1.41027 0
M  V30 4416 O 425.054 1.8724 -0.576012 0
M  V30 4417 H 423.634 0.00399774 -0.746989 0
M  V30 4418 H 426.296 -0.695054 -1.82085 0
M  V30 4419 H 425.392 0.11031 -3.11905 0
M  V30 4420 N 425.693 1.55336 -0.266172 0
M  V30 4421 C 426.97 1.91372 0.404486 0
M  V30 4422 C 427.35 1.18935 1.74407 0
M  V30 4423 O 426.698 0.3132 2.26343 0
M  V30 4424 C 426.908 3.44581 0.553593 0
M  V30 4425 C 428.256 4.16196 0.840618 0
M  V30 4426 O 429.28 3.50426 0.638739 0
M  V30 4427 O 428.139 5.32567 1.22618 0
M  V30 4428 H 425.233 0.797194 0.220025 0
M  V30 4429 H 427.779 1.66813 -0.311664 0
M  V30 4430 H 426.551 3.89357 -0.389498 0
M  V30 4431 H 426.174 3.75065 1.31955 0
M  V30 4432 N 427.171 -0.0066808 1.57599 0
M  V30 4433 C 428.419 -0.691552 1.899 0
M  V30 4434 C 428.74 -1.74682 0.866672 0
M  V30 4435 O 428.01 -1.95661 -0.0968189 0
M  V30 4436 H 426.59 -0.258416 0.700878 0
M  V30 4437 H 429.252 0.0326655 1.94873 0
M  V30 4438 H 428.348 -1.16702 2.8946 0
M  V30 4439 N 428.649 -1.55105 -0.279332 0
M  V30 4440 C 429.559 -1.90638 -1.36727 0
M  V30 4441 C 430.575 -0.802899 -1.54368 0
M  V30 4442 O 431.751 -1.10138 -1.68616 0
M  V30 4443 C 428.816 -2.16547 -2.70755 0
M  V30 4444 C 427.877 -3.40146 -2.61915 0
M  V30 4445 C 427.11 -3.6481 -3.8955 0
M  V30 4446 O 427.333 -2.92095 -4.89935 0
M  V30 4447 O 426.267 -4.58343 -3.90135 0
M  V30 4448 H 430.093 -2.83237 -1.09591 0
M  V30 4449 H 427.678 -1.4157 -0.477306 0
M  V30 4450 H 429.56 -2.34665 -3.50014 0
M  V30 4451 H 428.235 -1.27131 -2.9769 0
M  V30 4452 H 427.142 -3.2737 -1.81052 0
M  V30 4453 H 428.475 -4.29761 -2.3993 0
M  V30 4454 N 430.127 0.543554 -1.4793 0
M  V30 4455 C 431.09 1.63156 -1.60975 0
M  V30 4456 C 432.09 1.53346 -0.483899 0
M  V30 4457 O 433.28 1.5726 -0.749339 0
M  V30 4458 C 430.412 3.02743 -1.56716 0
M  V30 4459 H 431.605 1.52934 -2.57975 0
M  V30 4460 H 429.158 0.764557 -1.36324 0
M  V30 4461 H 429.893 3.18484 -0.611418 0
M  V30 4462 H 429.678 3.11272 -2.38438 0
M  V30 4463 H 431.168 3.81871 -1.6901 0
M  V30 4464 N 431.605 1.3629 0.791371 0
M  V30 4465 C 432.552 1.30458 1.90393 0
M  V30 4466 C 433.522 0.173632 1.6519 0
M  V30 4467 O 434.707 0.35983 1.87376 0
M  V30 4468 C 431.847 1.09777 3.27174 0
M  V30 4469 C 430.96 2.31929 3.64462 0
M  V30 4470 C 430.095 2.04276 4.90352 0
M  V30 4471 C 429.134 3.224 5.20312 0
M  V30 4472 N 428.271 2.94424 6.37385 0
M  V30 4473 H 433.111 2.25589 1.94714 0
M  V30 4474 H 430.648 1.12122 0.952216 0
M  V30 4475 H 432.606 0.958133 4.06049 0
M  V30 4476 H 431.236 0.183014 3.22281 0
M  V30 4477 H 430.288 2.56703 2.80727 0
M  V30 4478 H 431.6 3.20085 3.82553 0
M  V30 4479 H 430.754 1.87231 5.77087 0
M  V30 4480 H 429.493 1.13428 4.74326 0
M  V30 4481 H 428.498 3.40005 4.32061 0
M  V30 4482 H 429.723 4.14071 5.38258 0
M  V30 4483 H 427.669 2.06185 6.22755 0
M  V30 4484 H 427.586 3.76118 6.55798 0
M  V30 4485 H 428.854 2.80953 7.27108 0
M  V30 4486 N 433.083 -1.0153 1.20538 0
M  V30 4487 C 434.308 -1.79283 1.04271 0
M  V30 4488 C 434.733 -1.8372 -0.403544 0
M  V30 4489 O 434.091 -1.27321 -1.2907 0
M  V30 4490 C 434.139 -3.21535 1.63241 0
M  V30 4491 O 433.243 -4.03099 0.870908 0
M  V30 4492 H 432.584 -0.55293 0.367647 0
M  V30 4493 H 435.114 -1.27696 1.59859 0
M  V30 4494 H 435.124 -3.72243 1.6703 0
M  V30 4495 H 433.799 -3.1762 2.68497 0
M  V30 4496 H 432.376 -3.61693 0.907323 0
M  V30 4497 N 434.561 -1.01147 -1.20859 0
M  V30 4498 C 435.524 -0.582224 -2.21682 0
M  V30 4499 C 436.524 0.344887 -1.57058 0
M  V30 4500 O 437.714 0.134281 -1.73682 0
M  V30 4501 C 434.846 0.150496 -3.40568 0
M  V30 4502 H 436.039 -1.47408 -2.61172 0
M  V30 4503 H 433.592 -0.800695 -1.34233 0
M  V30 4504 H 434.327 1.0575 -3.06574 0
M  V30 4505 H 434.112 -0.515444 -3.88697 0
M  V30 4506 H 435.602 0.438344 -4.15293 0
M  V30 4507 N 436.039 1.36541 -0.78704 0
M  V30 4508 C 436.986 2.30082 -0.181901 0
M  V30 4509 C 437.956 1.5186 0.672896 0
M  V30 4510 O 439.141 1.80374 0.622072 0
M  V30 4511 C 436.281 3.3835 0.679197 0
M  V30 4512 C 435.394 4.31565 -0.193882 0
M  V30 4513 C 434.529 5.26915 0.673364 0
M  V30 4514 C 433.568 6.11769 -0.201315 0
M  V30 4515 N 432.705 6.99315 0.624777 0
M  V30 4516 H 437.545 2.81248 -0.985064 0
M  V30 4517 H 435.082 1.38437 -0.497342 0
M  V30 4518 H 437.04 3.99767 1.19341 0
M  V30 4519 H 435.67 2.8851 1.44781 0
M  V30 4520 H 434.722 3.71323 -0.826044 0
M  V30 4521 H 436.034 4.91191 -0.867937 0
M  V30 4522 H 435.188 5.9361 1.25348 0
M  V30 4523 H 433.927 4.67737 1.38105 0
M  V30 4524 H 432.932 5.44039 -0.793849 0
M  V30 4525 H 434.157 6.73022 -0.906568 0
M  V30 4526 H 432.103 6.42648 1.3168 0
M  V30 4527 H 432.02 7.56 0.00835237 0
M  V30 4528 H 433.288 7.70382 1.18879 0
M  V30 4529 N 437.518 0.538854 1.48102 0
M  V30 4530 C 438.929 0.100679 1.86428 0
M  V30 4531 C 439.28 -1.32447 1.44749 0
M  V30 4532 O 438.405 -1.99339 0.842199 0
M  V30 4533 C 439 0.175933 3.38343 0
M  V30 4534 C 437.559 -0.207098 3.7583 0
M  V30 4535 C 436.706 0.531741 2.72154 0
M  V30 4536 H 439.657 0.749614 1.3988 0
M  V30 4537 H 439.678 -0.610144 3.75576 0
M  V30 4538 H 439.19 1.21328 3.68648 0
M  V30 4539 H 437.291 -1.24626 3.5114 0
M  V30 4540 H 437.404 0.138687 4.78899 0
M  V30 4541 H 435.768 -0.0230462 2.5469 0
M  V30 4542 H 436.551 1.56989 3.05302 0
M  V30 4543 N 438.996 -1.55193 0.274407 0
M  V30 4544 C 440.244 -1.99187 -0.341902 0
M  V30 4545 C 440.565 -1.16422 -1.56431 0
M  V30 4546 O 439.835 -0.253573 -1.94252 0
M  V30 4547 H 438.415 -0.735721 -0.129317 0
M  V30 4548 H 441.077 -1.91168 0.379578 0
M  V30 4549 H 440.173 -3.05629 -0.632253 0
M  V30 4550 N 440.474 -0.00167713 -1.576 0
M  V30 4551 C 441.751 0.719951 -1.81868 0
M  V30 4552 C 442.131 1.91895 -0.879747 0
M  V30 4553 O 441.479 2.28389 0.0711423 0
M  V30 4554 C 441.689 1.12409 -3.30402 0
M  V30 4555 C 443.037 1.52724 -3.96182 0
M  V30 4556 O 444.061 1.21784 -3.34734 0
M  V30 4557 O 442.92 2.10265 -5.04431 0
M  V30 4558 H 440.014 0.350707 -0.748955 0
M  V30 4559 H 442.56 -0.0272597 -1.69678 0
M  V30 4560 H 441.332 0.269532 -3.90371 0
M  V30 4561 H 440.955 1.93035 -3.47596 0
M  V30 4562 N 441.952 1.55251 0.271103 0
M  V30 4563 C 443.229 1.66664 1.02384 0
M  V30 4564 C 443.609 0.534363 2.04225 0
M  V30 4565 O 442.957 -0.465337 2.23712 0
M  V30 4566 C 443.167 3.05961 1.67895 0
M  V30 4567 C 444.515 3.63772 2.18986 0
M  V30 4568 O 445.539 3.08606 1.77878 0
M  V30 4569 O 444.398 4.60429 2.94393 0
M  V30 4570 H 441.492 0.676957 0.475035 0
M  V30 4571 H 444.038 1.67589 0.26681 0
M  V30 4572 H 442.81 3.79815 0.941071 0
M  V30 4573 H 442.433 3.08943 2.5028 0
M  V30 4574 N 443.43 -0.535701 1.48216 0
M  V30 4575 C 444.676 -1.29375 1.56173 0
M  V30 4576 C 445.009 -1.92804 0.232429 0
M  V30 4577 O 444.284 -1.78992 -0.761048 0
M  V30 4578 C 444.567 -2.38747 2.69577 0
M  V30 4579 C 444.42 -1.80046 4.12193 0
M  V30 4580 C 445.739 -3.40551 2.78771 0
M  V30 4581 H 442.858 -0.469027 0.568491 0
M  V30 4582 H 445.5 -0.597358 1.80365 0
M  V30 4583 H 443.65 -2.98147 2.4908 0
M  V30 4584 H 445.322 -1.24742 4.44114 0
M  V30 4585 H 443.565 -1.10609 4.19462 0
M  V30 4586 H 444.236 -2.59212 4.87353 0
M  V30 4587 H 446.712 -2.91099 2.97322 0
M  V30 4588 H 445.588 -4.1448 3.59857 0
M  V30 4589 H 445.849 -4.00746 1.86696 0
M  V30 4590 N 444.908 -1.36708 -0.784132 0
M  V30 4591 C 446.324 -1.17237 -1.08294 0
M  V30 4592 C 446.524 -5.93947e-05 -2.015 0
M  V30 4593 O 445.58 0.663686 -2.43622 0
M  V30 4594 C 446.893 -2.48557 -1.69233 0
M  V30 4595 C 448.441 -2.54968 -1.8155 0
M  V30 4596 C 448.916 -3.86388 -2.45904 0
M  V30 4597 N 450.407 -3.87762 -2.53367 0
M  V30 4598 C 451.142 -4.86191 -3.03983 0
M  V30 4599 N 450.638 -5.95015 -3.54866 0
M  V30 4600 N 452.431 -4.73606 -3.02743 0
M  V30 4601 H 444.582 -2.11758 -0.16501 0
M  V30 4602 H 446.845 -0.93822 -0.135822 0
M  V30 4603 H 446.551 -3.34638 -1.08215 0
M  V30 4604 H 446.425 -2.64748 -2.68679 0
M  V30 4605 H 448.812 -1.69302 -2.41704 0
M  V30 4606 H 448.893 -2.42672 -0.80895 0
M  V30 4607 H 448.537 -4.72462 -1.86392 0
M  V30 4608 H 448.467 -3.95982 -3.4714 0
M  V30 4609 H 450.958 -3.09145 -2.17343 0
M  V30 4610 H 451.271 -6.66086 -3.91854 0
M  V30 4611 H 449.616 -5.98676 -3.53003 0
M  V30 4612 H 452.807 -3.87717 -2.62284 0
M  V30 4613 H 452.98 -5.50473 -3.41881 0
M  V30 4614 N 446.386 1.0089 -1.21074 0
M  V30 4615 C 447.296 2.13039 -0.982425 0
M  V30 4616 C 448.312 1.73881 0.0642161 0
M  V30 4617 O 449.488 2.01012 -0.12496 0
M  V30 4618 C 446.553 3.42377 -0.545803 0
M  V30 4619 C 445.614 3.95731 -1.6642 0
M  V30 4620 C 444.847 5.18896 -1.24832 0
M  V30 4621 O 445.07 5.70273 -0.120265 0
M  V30 4622 O 444.004 5.65597 -2.05873 0
M  V30 4623 H 447.83 2.35175 -1.92163 0
M  V30 4624 H 445.415 1.1142 -0.995285 0
M  V30 4625 H 447.297 4.20244 -0.311912 0
M  V30 4626 H 445.972 3.21639 0.364727 0
M  V30 4627 H 444.879 3.19108 -1.95246 0
M  V30 4628 H 446.212 4.20872 -2.55201 0
M  V30 4629 N 447.864 1.01787 1.20321 0
M  V30 4630 C 449.28 0.732951 1.41774 0
M  V30 4631 C 449.48 -0.686883 1.89431 0
M  V30 4632 O 448.536 -1.45446 2.06402 0
M  V30 4633 C 449.849 1.75973 2.43832 0
M  V30 4634 C 451.397 1.77802 2.57596 0
M  V30 4635 C 451.872 2.7941 3.62897 0
M  V30 4636 N 453.363 2.78157 3.70382 0
M  V30 4637 C 454.098 3.53434 4.51521 0
M  V30 4638 N 453.594 4.38392 5.36455 0
M  V30 4639 N 455.387 3.42026 4.46066 0
M  V30 4640 H 447.538 1.93447 0.877035 0
M  V30 4641 H 449.801 0.835712 0.447536 0
M  V30 4642 H 449.507 2.77699 2.15815 0
M  V30 4643 H 449.381 1.57292 3.4284 0
M  V30 4644 H 451.768 0.767602 2.84942 0
M  V30 4645 H 451.849 2.00557 1.58779 0
M  V30 4646 H 451.493 3.80616 3.36295 0
M  V30 4647 H 451.423 2.53916 4.61339 0
M  V30 4648 H 453.914 2.16531 3.09714 0
M  V30 4649 H 454.227 4.92596 5.95457 0
M  V30 4650 H 452.572 4.4247 5.35953 0
M  V30 4651 H 455.763 2.75075 3.78749 0
M  V30 4652 H 455.936 4.00946 5.09064 0
M  V30 4653 N 449.342 -1.36122 0.79427 0
M  V30 4654 C 450.591 -1.98361 0.365464 0
M  V30 4655 C 450.904 -1.6374 -1.06997 0
M  V30 4656 O 452.11 -2.19251 -1.60129 0
M  V30 4657 C 450.566 -3.54821 0.602496 0
M  V30 4658 C 450.174 -3.98362 2.04967 0
M  V30 4659 C 451.918 -4.2383 0.238437 0
M  V30 4660 C 449.825 -5.47619 2.2331 0
M  V30 4661 H 448.755 -0.742193 0.13291 0
M  V30 4662 H 451.406 -1.55354 0.976589 0
M  V30 4663 H 449.788 -3.95922 -0.078409 0
M  V30 4664 H 450.962 -3.68447 2.76737 0
M  V30 4665 H 449.277 -3.42206 2.37243 0
M  V30 4666 H 451.874 -5.33529 0.353705 0
M  V30 4667 H 452.217 -4.08264 -0.814006 0
M  V30 4668 H 452.75 -3.88108 0.872769 0
M  V30 4669 H 449.489 -5.68138 3.26955 0
M  V30 4670 H 449.009 -5.79145 1.5605 0
M  V30 4671 H 450.688 -6.13911 2.0426 0
M  V30 4672 N 450.82 -0.546701 -1.47814 0
M  V30 4673 C 452.069 -0.0166497 -2.01693 0
M  V30 4674 C 452.382 1.33721 -1.42752 0
M  V30 4675 O 453.588 1.95658 -1.8823 0
M  V30 4676 C 452.044 0.0206769 -3.59894 0
M  V30 4677 C 451.652 -1.3293 -4.27824 0
M  V30 4678 C 453.396 0.498674 -4.21561 0
M  V30 4679 C 451.303 -1.25165 -5.78003 0
M  V30 4680 H 450.233 -0.0024541 -0.753996 0
M  V30 4681 H 452.884 -0.692984 -1.69912 0
M  V30 4682 H 451.266 0.76244 -3.88591 0
M  V30 4683 H 452.44 -2.08795 -4.10781 0
M  V30 4684 H 450.755 -1.74438 -3.78101 0
M  V30 4685 H 453.352 0.575 -5.31599 0
M  V30 4686 H 453.695 1.5083 -3.88016 0
M  V30 4687 H 454.228 -0.18791 -3.97356 0
M  V30 4688 H 450.967 -2.23695 -6.1615 0
M  V30 4689 H 450.487 -0.53464 -5.97412 0
M  V30 4690 H 452.166 -0.949299 -6.39998 0
M  V30 4691 N 452.299 1.55045 -0.282633 0
M  V30 4692 C 453.246 2.22822 0.601566 0
M  V30 4693 C 454.216 1.20431 1.14392 0
M  V30 4694 O 455.401 1.48996 1.19184 0
M  V30 4695 C 452.541 2.95873 1.77632 0
M  V30 4696 C 451.654 4.12999 1.26711 0
M  V30 4697 C 450.789 4.73676 2.40426 0
M  V30 4698 C 449.828 5.82981 1.86545 0
M  V30 4699 N 448.965 6.3769 2.93762 0
M  V30 4700 H 453.805 2.97995 0.0169528 0
M  V30 4701 H 451.342 1.471 -0.00339964 0
M  V30 4702 H 453.3 3.36447 2.46697 0
M  V30 4703 H 451.93 2.2311 2.33285 0
M  V30 4704 H 450.982 3.77494 0.469314 0
M  V30 4705 H 452.294 4.91803 0.832518 0
M  V30 4706 H 451.448 5.17008 3.17471 0
M  V30 4707 H 450.187 3.94164 2.87203 0
M  V30 4708 H 449.192 5.39092 1.07983 0
M  V30 4709 H 450.417 6.64366 1.40694 0
M  V30 4710 H 448.363 5.61069 3.39908 0
M  V30 4711 H 448.28 7.11788 2.54744 0
M  V30 4712 H 449.548 6.8568 3.7076 0
M  V30 4713 N 453.777 0.010035 1.57597 0
M  V30 4714 C 455.193 -0.346164 1.55801 0
M  V30 4715 C 455.393 -1.74144 1.01371 0
M  V30 4716 O 454.449 -2.43938 0.651968 0
M  V30 4717 C 455.762 -0.212216 2.9995 0
M  V30 4718 C 457.31 -0.286409 3.11687 0
M  V30 4719 C 457.785 -0.18147 4.5764 0
M  V30 4720 N 459.276 -0.239056 4.62583 0
M  V30 4721 C 460.011 -0.181351 5.73113 0
M  V30 4722 N 459.507 -0.073661 6.92761 0
M  V30 4723 N 461.3 -0.233949 5.61613 0
M  V30 4724 H 453.451 0.922657 1.91313 0
M  V30 4725 H 455.714 0.354595 0.879185 0
M  V30 4726 H 455.42 0.748169 3.4365 0
M  V30 4727 H 455.294 -0.990224 3.6397 0
M  V30 4728 H 457.681 -1.23724 2.67911 0
M  V30 4729 H 457.762 0.521645 2.50425 0
M  V30 4730 H 457.406 0.765863 5.02093 0
M  V30 4731 H 457.336 -1.00814 5.1686 0
M  V30 4732 H 459.827 -0.32321 3.76515 0
M  V30 4733 H 460.14 -0.0358003 7.72792 0
M  V30 4734 H 458.485 -0.0391461 6.94989 0
M  V30 4735 H 461.676 -0.316347 4.6703 0
M  V30 4736 H 461.849 -0.185514 6.47734 0
M  V30 4737 N 455.255 -1.55392 -0.262866 0
M  V30 4738 C 456.218 -1.88181 -1.30846 0
M  V30 4739 C 457.218 -0.757079 -1.41862 0
M  V30 4740 O 458.408 -1.02519 -1.40838 0
M  V30 4741 C 455.54 -2.09609 -2.68844 0
M  V30 4742 H 456.733 -2.81659 -1.02997 0
M  V30 4743 H 454.286 -1.48039 -0.501414 0
M  V30 4744 H 455.021 -1.18547 -3.01856 0
M  V30 4745 H 454.806 -2.91508 -2.62231 0
M  V30 4746 H 456.296 -2.36215 -3.44372 0
M  V30 4747 N 456.733 0.527833 -1.48498 0
M  V30 4748 C 457.696 1.61439 -1.62696 0
M  V30 4749 C 458.696 1.52824 -0.500136 0
M  V30 4750 O 459.886 1.56456 -0.765976 0
M  V30 4751 C 457.018 3.01063 -1.59918 0
M  V30 4752 H 458.211 1.50189 -2.59583 0
M  V30 4753 H 455.764 0.750055 -1.37127 0
M  V30 4754 H 456.499 3.17818 -0.645163 0
M  V30 4755 H 456.284 3.08725 -2.41726 0
M  V30 4756 H 457.774 3.80057 -1.73051 0
M  V30 4757 N 458.211 1.37122 0.776871 0
M  V30 4758 C 459.141 1.35164 1.90402 0
M  V30 4759 C 460.122 0.221069 1.68657 0
M  V30 4760 O 461.307 0.420642 1.8959 0
M  V30 4761 C 458.437 1.15274 3.27611 0
M  V30 4762 C 457.391 2.25289 3.63908 0
M  V30 4763 C 456.717 1.90527 4.99603 0
M  V30 4764 C 458.017 3.67446 3.71188 0
M  V30 4765 H 459.711 2.29482 1.92297 0
M  V30 4766 H 457.257 1.10465 0.923773 0
M  V30 4767 H 459.21 1.12536 4.06096 0
M  V30 4768 H 457.934 0.174102 3.26136 0
M  V30 4769 H 456.593 2.27174 2.87728 0
M  V30 4770 H 456.241 0.91206 4.94662 0
M  V30 4771 H 455.941 2.64193 5.24858 0
M  V30 4772 H 457.465 1.89367 5.80493 0
M  V30 4773 H 458.879 3.67719 4.39836 0
M  V30 4774 H 457.276 4.40123 4.07936 0
M  V30 4775 H 458.346 4.01443 2.71977 0
M  V30 4776 N 459.689 -1.00246 1.21608 0
M  V30 4777 C 460.599 -2.12515 0.993709 0
M  V30 4778 C 461.615 -1.73913 -0.0549939 0
M  V30 4779 O 462.791 -2.00943 0.135619 0
M  V30 4780 C 459.856 -3.42083 0.563953 0
M  V30 4781 C 458.917 -3.94843 1.68516 0
M  V30 4782 C 458.15 -5.18226 1.27582 0
M  V30 4783 O 458.373 -5.70201 0.150506 0
M  V30 4784 O 457.307 -5.64497 2.0887 0
M  V30 4785 H 461.133 -2.34152 1.93407 0
M  V30 4786 H 458.718 -1.10891 1.00118 0
M  V30 4787 H 460.6 -4.20073 0.334194 0
M  V30 4788 H 459.275 -3.21828 -0.347665 0
M  V30 4789 H 458.182 -3.18068 1.96935 0
M  V30 4790 H 459.515 -4.19512 2.5743 0
M  V30 4791 N 461.167 -1.02423 -1.1978 0
M  V30 4792 C 462.414 -0.717988 -1.89344 0
M  V30 4793 C 462.742 0.753036 -1.79331 0
M  V30 4794 O 461.997 1.56355 -1.17692 0
M  V30 4795 C 462.296 -1.1088 -3.39765 0
M  V30 4796 C 461.962 -2.57731 -3.6998 0
M  V30 4797 C 460.624 -2.97854 -3.77937 0
M  V30 4798 C 462.976 -3.52763 -3.83677 0
M  V30 4799 C 460.304 -4.31931 -3.97054 0
M  V30 4800 C 462.656 -4.86538 -4.04306 0
M  V30 4801 C 461.32 -5.26356 -4.10494 0
M  V30 4802 H 460.59 -0.26273 -0.692859 0
M  V30 4803 H 463.237 -1.28623 -1.41875 0
M  V30 4804 H 461.542 -0.459094 -3.89101 0
M  V30 4805 H 463.239 -0.849432 -3.919 0
M  V30 4806 H 459.829 -2.25646 -3.64393 0
M  V30 4807 H 464.013 -3.2292 -3.76877 0
M  V30 4808 H 459.269 -4.62324 -4.00083 0
M  V30 4809 H 463.443 -5.60093 -4.13846 0
M  V30 4810 H 461.07 -6.3026 -4.2506 0
M  V30 4811 N 462.645 1.35699 -0.801477 0
M  V30 4812 C 463.555 2.33661 -0.209691 0
M  V30 4813 C 464.571 1.6162 0.644591 0
M  V30 4814 O 465.747 1.93529 0.557545 0
M  V30 4815 C 462.812 3.40816 0.636033 0
M  V30 4816 C 461.873 4.28639 -0.238147 0
M  V30 4817 C 461.106 5.30676 0.567307 0
M  V30 4818 O 461.329 5.41174 1.8024 0
M  V30 4819 O 460.263 6.01887 -0.0391336 0
M  V30 4820 H 464.089 2.8606 -1.01996 0
M  V30 4821 H 461.674 1.38379 -0.563164 0
M  V30 4822 H 463.556 4.06301 1.11791 0
M  V30 4823 H 462.231 2.90696 1.42399 0
M  V30 4824 H 461.138 3.66152 -0.767044 0
M  V30 4825 H 462.471 4.82143 -0.989915 0
M  V30 4826 N 464.123 0.554532 1.47522 0
M  V30 4827 C 465.4 -0.0360704 1.95567 0
M  V30 4828 C 465.78 -1.48828 1.49711 0
M  V30 4829 O 465.128 -2.16366 0.734717 0
M  V30 4830 C 465.338 0.106631 3.48837 0
M  V30 4831 C 466.686 -0.0400899 4.24581 0
M  V30 4832 O 467.71 0.0340453 3.56184 0
M  V30 4833 O 466.569 -0.199111 5.46137 0
M  V30 4834 H 463.663 -0.0656294 0.824392 0
M  V30 4835 H 466.209 0.620867 1.57935 0
M  V30 4836 H 464.981 1.11727 3.7501 0
M  V30 4837 H 464.604 -0.58804 3.93227 0
M  V30 4838 N 465.601 -1.54893 0.290851 0
M  V30 4839 C 466.849 -1.99538 -0.320756 0
M  V30 4840 C 467.17 -1.18075 -1.55188 0
M  V30 4841 O 466.44 -0.274162 -1.93972 0
M  V30 4842 H 465.02 -0.737052 -0.121507 0
M  V30 4843 H 467.682 -1.90755 0.399832 0
M  V30 4844 H 466.778 -3.06282 -0.599802 0
M  V30 4845 N 467.08 -0.0183926 -1.57589 0
M  V30 4846 C 468.013 1.00148 -2.0505 0
M  V30 4847 C 468.991 1.32387 -0.944058 0
M  V30 4848 O 470.175 1.44237 -1.21358 0
M  V30 4849 C 467.302 2.32435 -2.46357 0
M  V30 4850 C 466.348 2.15731 -3.67916 0
M  V30 4851 S 467.181 1.46613 -5.15039 0
M  V30 4852 C 468.337 2.80293 -5.59631 0
M  V30 4853 H 468.57 0.597429 -2.91235 0
M  V30 4854 H 466.103 0.193002 -1.53189 0
M  V30 4855 H 468.061 3.0849 -2.70822 0
M  V30 4856 H 466.722 2.69975 -1.60537 0
M  V30 4857 H 465.915 3.13502 -3.9463 0
M  V30 4858 H 465.517 1.4782 -3.43548 0
M  V30 4859 H 467.809 3.76557 -5.63215 0
M  V30 4860 H 468.752 2.58256 -6.59325 0
M  V30 4861 H 469.16 2.85047 -4.87246 0
M  V30 4862 N 468.558 1.5553 0.254621 0
M  V30 4863 C 469.788 1.80784 1.00004 0
M  V30 4864 C 470.196 0.59071 1.79742 0
M  V30 4865 O 469.539 -0.449988 1.78103 0
M  V30 4866 C 469.601 2.99268 1.99196 0
M  V30 4867 C 469.265 4.35595 1.38224 0
M  V30 4868 C 470.262 5.13884 0.788611 0
M  V30 4869 C 467.947 4.82281 1.40393 0
M  V30 4870 C 469.941 6.37004 0.224783 0
M  V30 4871 C 467.628 6.05351 0.836243 0
M  V30 4872 C 468.626 6.82551 0.24769 0
M  V30 4873 O 468.314 8.03297 -0.311249 0
M  V30 4874 H 468.046 0.60565 0.300274 0
M  V30 4875 H 470.6 2.03411 0.285143 0
M  V30 4876 H 468.83 2.72377 2.74496 0
M  V30 4877 H 470.519 3.11682 2.60018 0
M  V30 4878 H 471.285 4.78938 0.764423 0
M  V30 4879 H 467.164 4.22189 1.85142 0
M  V30 4880 H 470.708 6.97203 -0.235235 0
M  V30 4881 H 466.605 6.39776 0.857733 0
M  V30 4882 H 467.373 8.1825 -0.20237 0
M  V30 4883 N 470.036 -0.519951 1.48776 0
M  V30 4884 C 470.999 -1.60574 1.6355 0
M  V30 4885 C 471.999 -1.52557 0.508234 0
M  V30 4886 O 473.189 -1.56047 0.774262 0
M  V30 4887 C 470.321 -3.00211 1.61512 0
M  V30 4888 H 471.514 -1.4881 2.60376 0
M  V30 4889 H 469.067 -0.742772 1.37523 0
M  V30 4890 H 469.802 -3.17471 0.662009 0
M  V30 4891 H 469.587 -3.07439 2.43359 0
M  V30 4892 H 471.077 -3.79134 1.75064 0
M  V30 4893 N 471.514 -1.37532 -0.769588 0
M  V30 4894 C 472.462 -1.33561 -1.90432 0
M  V30 4895 C 473.456 -0.224027 -1.67912 0
M  V30 4896 O 474.662 -0.392174 -1.75676 0
M  V30 4897 H 471.037 -0.416279 -0.626271 0
M  V30 4898 H 473.008 -2.29348 -1.90899 0
M  V30 4899 C 471.757 -1.16162 -3.27722 0
M  V30 4900 H 471.08 -2.00951 -3.45628 0
M  V30 4901 H 472.52 -1.17434 -4.07413 0
M  V30 4902 C 470.979 0.132583 -3.36639 0
M  V30 4903 O 471.509 1.11539 -3.85904 0
M  V30 4904 N 469.715 0.184013 -2.90017 0
M  V30 4905 H 469.262 -0.616415 -2.50116 0
M  V30 4906 H 469.22 1.04956 -2.96364 0
M  V30 4907 N 472.992 0.995999 -1.22138 0
M  V30 4908 C 473.922 2.10387 -1.01289 0
M  V30 4909 C 474.903 1.69975 0.0651454 0
M  V30 4910 O 476.088 1.9396 -0.0964628 0
M  V30 4911 C 473.218 3.42312 -0.586517 0
M  V30 4912 C 472.172 3.96558 -1.61014 0
M  V30 4913 C 471.498 5.24494 -1.0397 0
M  V30 4914 C 472.798 4.27595 -2.99933 0
M  V30 4915 H 474.492 2.28086 -1.93951 0
M  V30 4916 H 472.038 1.09607 -0.933928 0
M  V30 4917 H 473.991 4.19223 -0.427793 0
M  V30 4918 H 472.715 3.24431 0.375761 0
M  V30 4919 H 471.374 3.21776 -1.75658 0
M  V30 4920 H 471.022 5.02953 -0.0688703 0
M  V30 4921 H 470.722 5.61755 -1.72352 0
M  V30 4922 H 472.246 6.04042 -0.892494 0
M  V30 4923 H 473.66 4.95315 -2.8868 0
M  V30 4924 H 472.057 4.76021 -3.6541 0
M  V30 4925 H 473.127 3.35498 -3.50099 0
M  V30 4926 N 474.47 1.03057 1.19235 0
M  V30 4927 C 475.718 0.726581 1.88587 0
M  V30 4928 C 476.039 -0.747227 1.80115 0
M  V30 4929 O 475.309 -1.53849 1.21274 0
M  V30 4930 H 473.889 0.265768 0.698124 0
M  V30 4931 H 476.551 1.30516 1.44746 0
M  V30 4932 H 475.647 1.0224 2.94879 0
M  V30 4933 N 475.948 -1.35272 0.808662 0
M  V30 4934 C 477.197 -1.97963 0.386483 0
M  V30 4935 C 477.51 -1.64866 -1.05255 0
M  V30 4936 O 478.716 -2.20937 -1.57794 0
M  V30 4937 C 477.172 -3.54162 0.640096 0
M  V30 4938 C 476.78 -3.96166 2.0918 0
M  V30 4939 C 478.524 -4.23553 0.283376 0
M  V30 4940 C 476.431 -5.4522 2.29106 0
M  V30 4941 H 475.361 -0.740742 0.140774 0
M  V30 4942 H 478.012 -1.5431 0.993012 0
M  V30 4943 H 476.394 -3.95983 -0.0364117 0
M  V30 4944 H 477.568 -3.65491 2.80629 0
M  V30 4945 H 475.883 -3.3967 2.40859 0
M  V30 4946 H 478.48 -5.33124 0.410273 0
M  V30 4947 H 478.823 -4.09105 -0.770659 0
M  V30 4948 H 479.356 -3.8716 0.913884 0
M  V30 4949 H 476.095 -5.64638 3.32962 0
M  V30 4950 H 475.615 -5.77457 1.62184 0
M  V30 4951 H 477.294 -6.1171 2.1076 0
M  V30 4952 N 477.426 -0.562348 -1.47226 0
M  V30 4953 C 478.674 -0.0401371 -2.0206 0
M  V30 4954 C 478.995 1.3165 -1.43852 0
M  V30 4955 O 478.265 1.85976 -0.615599 0
M  V30 4956 H 476.845 -0.0118479 -0.746906 0
M  V30 4957 H 479.507 -0.73352 -1.8057 0
M  V30 4958 H 478.603 0.0441254 -3.12069 0
M  V30 4959 N 478.904 1.54736 -0.299062 0
M  V30 4960 C 480.153 1.99279 0.311549 0
M  V30 4961 C 480.466 1.19107 1.55154 0
M  V30 4962 O 481.672 1.53908 2.23662 0
M  V30 4963 C 480.128 3.54768 0.605632 0
M  V30 4964 C 479.736 4.43746 -0.615914 0
M  V30 4965 C 481.48 4.07841 1.17754 0
M  V30 4966 C 479.387 5.90663 -0.29509 0
M  V30 4967 H 478.317 0.744359 0.120187 0
M  V30 4968 H 480.968 1.78919 -0.407464 0
M  V30 4969 H 479.35 3.71021 1.38419 0
M  V30 4970 H 480.524 4.39267 -1.39218 0
M  V30 4971 H 478.839 4.01434 -1.10633 0
M  V30 4972 H 481.436 5.15174 1.43179 0
M  V30 4973 H 481.779 3.58324 2.11918 0
M  V30 4974 H 482.312 3.95123 0.460739 0
M  V30 4975 H 479.051 6.44325 -1.20524 0
M  V30 4976 H 478.571 5.98155 0.44394 0
M  V30 4977 H 480.25 6.46916 0.104048 0
M  V30 4978 N 480.382 0.0267497 1.57577 0
M  V30 4979 C 481.793 -0.512413 1.79531 0
M  V30 4980 C 482.144 -1.72391 0.936791 0
M  V30 4981 O 481.269 -2.15903 0.146543 0
M  V30 4982 C 481.864 -0.936378 3.25603 0
M  V30 4983 C 480.423 -1.42067 3.4856 0
M  V30 4984 C 479.57 -0.384278 2.74624 0
M  V30 4985 H 482.521 0.252797 1.56674 0
M  V30 4986 H 482.542 -1.80088 3.35184 0
M  V30 4987 H 482.054 -0.0544332 3.88062 0
M  V30 4988 H 480.155 -2.32262 2.9135 0
M  V30 4989 H 480.268 -1.42968 4.57271 0
M  V30 4990 H 478.632 -0.851855 2.40032 0
M  V30 4991 H 479.415 0.489159 3.39797 0
M  V30 4992 N 481.861 -1.55662 -0.24637 0
M  V30 4993 C 482.791 -1.93377 -1.30873 0
M  V30 4994 C 483.772 -0.798773 -1.50179 0
M  V30 4995 O 484.957 -1.0591 -1.62778 0
M  V30 4996 C 482.087 -2.22893 -2.66338 0
M  V30 4997 C 481.041 -3.38649 -2.61727 0
M  V30 4998 C 480.367 -3.53708 -4.00992 0
M  V30 4999 C 481.667 -4.74323 -2.18666 0
M  V30 5000 H 483.361 -2.82363 -0.995552 0
M  V30 5001 H 480.907 -1.35854 -0.477464 0
M  V30 5002 H 482.86 -2.47866 -3.40794 0
M  V30 5003 H 481.584 -1.30733 -2.99293 0
M  V30 5004 H 480.243 -3.13685 -1.89729 0
M  V30 5005 H 479.891 -2.58967 -4.31214 0
M  V30 5006 H 479.591 -4.31551 -3.98795 0
M  V30 5007 H 481.115 -3.81003 -4.77147 0
M  V30 5008 H 482.529 -4.98665 -2.82854 0
M  V30 5009 H 480.926 -5.55273 -2.27579 0
M  V30 5010 H 481.996 -4.71349 -1.13834 0
M  V30 5011 N 483.339 0.512053 -1.4905 0
M  V30 5012 C 484.269 1.62365 -1.67809 0
M  V30 5013 C 485.25 1.61737 -0.526809 0
M  V30 5014 O 486.435 1.78651 -0.761404 0
M  V30 5015 C 483.565 3.00895 -1.73435 0
M  V30 5016 C 482.519 3.16387 -2.88242 0
M  V30 5017 C 481.845 4.56157 -2.78971 0
M  V30 5018 C 483.145 2.97457 -4.29321 0
M  V30 5019 H 484.839 1.46921 -2.60873 0
M  V30 5020 H 482.385 0.705379 -1.2554 0
M  V30 5021 H 484.338 3.78549 -1.85145 0
M  V30 5022 H 483.062 3.17403 -0.769619 0
M  V30 5023 H 481.721 2.41155 -2.76116 0
M  V30 5024 H 481.369 4.69525 -1.8043 0
M  V30 5025 H 481.069 4.67465 -3.5602 0
M  V30 5026 H 482.593 5.35886 -2.92675 0
M  V30 5027 H 484.007 3.64888 -4.42187 0
M  V30 5028 H 482.404 3.20245 -5.07507 0
M  V30 5029 H 483.474 1.93692 -4.44535 0
M  V30 5030 N 484.817 1.37938 0.762283 0
M  V30 5031 C 485.78 1.34279 1.85747 0
M  V30 5032 C 486.78 0.244969 1.58923 0
M  V30 5033 O 487.97 0.501365 1.66829 0
M  V30 5034 C 485.102 1.08833 3.23061 0
M  V30 5035 H 486.295 2.31705 1.90401 0
M  V30 5036 H 483.848 1.23105 0.963057 0
M  V30 5037 H 484.583 0.119767 3.24079 0
M  V30 5038 H 484.368 1.88306 3.43923 0
M  V30 5039 H 485.858 1.08946 4.03138 0
M  V30 5040 N 486.295 -0.989507 1.22664 0
M  V30 5041 C 487.52 -1.77031 1.08051 0
M  V30 5042 C 487.945 -1.84535 -0.364483 0
M  V30 5043 O 487.303 -1.3003 -1.2634 0
M  V30 5044 C 487.351 -3.18 1.70024 0
M  V30 5045 O 486.455 -4.01161 0.956216 0
M  V30 5046 H 485.796 -0.545008 0.379292 0
M  V30 5047 H 488.326 -1.24277 1.62531 0
M  V30 5048 H 488.336 -3.68616 1.74888 0
M  V30 5049 H 487.011 -3.11853 2.75174 0
M  V30 5050 H 485.588 -3.59687 0.98384 0
M  V30 5051 N 487.773 -1.03688 -1.18687 0
M  V30 5052 C 488.721 -0.618292 -2.24232 0
M  V30 5053 C 489.715 0.353045 -1.6568 0
M  V30 5054 O 490.921 0.220749 -1.78641 0
M  V30 5055 H 487.296 -0.181711 -0.729716 0
M  V30 5056 H 489.267 -1.51893 -2.56848 0
M  V30 5057 C 488.016 0.00677342 -3.47699 0
M  V30 5058 H 487.339 -0.731692 -3.93047 0
M  V30 5059 H 488.779 0.262492 -4.23187 0
M  V30 5060 C 487.238 1.25572 -3.12623 0
M  V30 5061 O 487.768 2.34691 -3.26011 0
M  V30 5062 N 485.974 1.14755 -2.66982 0
M  V30 5063 H 485.521 0.259601 -2.56289 0
M  V30 5064 H 485.479 1.98412 -2.43885 0
M  V30 5065 N 489.251 1.34841 -0.815825 0
M  V30 5066 C 490.498 1.98499 -0.400535 0
M  V30 5067 C 490.826 1.64699 1.03463 0
M  V30 5068 O 490.081 0.907006 1.73412 0
M  V30 5069 C 490.38 3.53273 -0.541541 0
M  V30 5070 C 490.046 4.06966 -1.94138 0
M  V30 5071 C 488.708 4.21341 -2.32433 0
M  V30 5072 C 491.06 4.35933 -2.85677 0
M  V30 5073 C 488.388 4.62007 -3.61617 0
M  V30 5074 C 490.74 4.78042 -4.14317 0
M  V30 5075 C 489.404 4.90622 -4.52599 0
M  V30 5076 H 488.674 0.72636 -0.146566 0
M  V30 5077 H 491.321 1.60902 -1.0384 0
M  V30 5078 H 489.626 3.91387 0.179741 0
M  V30 5079 H 491.323 4.00497 -0.20085 0
M  V30 5080 H 487.913 3.96235 -1.63388 0
M  V30 5081 H 492.097 4.24372 -2.57337 0
M  V30 5082 H 487.353 4.69937 -3.91113 0
M  V30 5083 H 491.527 4.99415 -4.85342 0
M  V30 5084 H 489.154 5.2189 -5.52752 0
M  V30 5085 N 490.729 0.570148 1.46925 0
M  V30 5086 C 491.978 0.0487352 2.01641 0
M  V30 5087 C 492.291 -1.31433 1.44861 0
M  V30 5088 O 493.497 -1.92638 1.91318 0
M  V30 5089 C 491.953 0.0365817 3.59881 0
M  V30 5090 C 491.561 1.39719 4.25655 0
M  V30 5091 C 493.305 -0.431545 4.22301 0
M  V30 5092 C 491.212 1.34345 5.75939 0
M  V30 5093 H 490.142 0.0144492 0.753862 0
M  V30 5094 H 492.793 0.719928 1.68788 0
M  V30 5095 H 491.175 -0.700522 3.89755 0
M  V30 5096 H 492.349 2.15303 4.07408 0
M  V30 5097 H 490.664 1.80431 3.75278 0
M  V30 5098 H 493.261 -0.490354 5.32447 0
M  V30 5099 H 493.604 -1.44638 3.90366 0
M  V30 5100 H 494.137 0.251102 3.97007 0
M  V30 5101 H 490.876 2.33469 6.12513 0
M  V30 5102 H 490.396 0.629615 5.96486 0
M  V30 5103 H 492.075 1.051 6.38407 0
M  V30 5104 N 492.207 -1.54576 0.307264 0
M  V30 5105 C 493.432 -2.05139 -0.305379 0
M  V30 5106 C 493.857 -1.18278 -1.46259 0
M  V30 5107 O 493.215 -0.188243 -1.8032 0
M  V30 5108 C 493.263 -3.53066 -0.733283 0
M  V30 5109 O 492.367 -3.69206 -1.83741 0
M  V30 5110 H 491.708 -0.661444 -0.0582105 0
M  V30 5111 H 494.238 -1.99569 0.450931 0
M  V30 5112 H 494.248 -3.95034 -1.02039 0
M  V30 5113 H 492.923 -4.15746 0.113198 0
M  V30 5114 H 491.5 -3.39143 -1.55037 0
M  V30 5115 N 493.685 -0.035106 -1.57561 0
M  V30 5116 C 495.096 0.502885 -1.798 0
M  V30 5117 C 495.447 1.71892 -0.945921 0
M  V30 5118 O 494.572 2.15822 -0.157991 0
M  V30 5119 C 495.167 0.919097 -3.26095 0
M  V30 5120 C 493.726 1.40216 -3.49308 0
M  V30 5121 C 492.873 0.369709 -2.74824 0
M  V30 5122 H 495.824 -0.261102 -1.56537 0
M  V30 5123 H 495.845 1.78308 -3.36135 0
M  V30 5124 H 495.357 0.0338526 -3.88085 0
M  V30 5125 H 493.458 2.30714 -2.92578 0
M  V30 5126 H 493.571 1.40541 -4.58023 0
M  V30 5127 H 491.935 0.839113 -2.40481 0
M  V30 5128 H 492.718 -0.507173 -3.39533 0
M  V30 5129 N 495.163 1.55791 0.238111 0
M  V30 5130 C 496.111 1.91885 1.31464 0
M  V30 5131 C 497.105 0.798929 1.49377 0
M  V30 5132 O 498.311 0.983626 1.50747 0
M  V30 5133 H 494.686 0.609551 0.440399 0
M  V30 5134 H 496.657 2.81747 0.982925 0
M  V30 5135 C 495.406 2.23763 2.6613 0
M  V30 5136 H 494.729 3.09444 2.53149 0
M  V30 5137 H 496.169 2.52915 3.40309 0
M  V30 5138 C 494.628 1.05699 3.1989 0
M  V30 5139 O 495.158 0.309524 4.00506 0
M  V30 5140 N 493.364 0.845251 2.78036 0
M  V30 5141 H 492.911 1.4548 2.12588 0
M  V30 5142 H 492.869 0.0569973 3.14348 0
M  V30 5143 N 496.642 -0.504142 1.49319 0
M  V30 5144 C 497.891 -1.25507 1.57895 0
M  V30 5145 C 498.204 -1.93735 0.269433 0
M  V30 5146 O 499.41 -2.70492 0.233706 0
M  V30 5147 C 497.866 -2.27869 2.78574 0
M  V30 5148 C 497.474 -1.65594 4.16272 0
M  V30 5149 C 499.218 -3.0381 2.96479 0
M  V30 5150 C 497.125 -2.66048 5.28178 0
M  V30 5151 H 496.055 -0.47212 0.587894 0
M  V30 5152 H 498.706 -0.52931 1.757 0
M  V30 5153 H 497.088 -3.03594 2.54257 0
M  V30 5154 H 498.262 -0.958826 4.50714 0
M  V30 5155 H 496.577 -1.02055 4.037 0
M  V30 5156 H 499.174 -3.78925 3.77253 0
M  V30 5157 H 499.517 -3.61235 2.06918 0
M  V30 5158 H 500.05 -2.352 3.20821 0
M  V30 5159 H 496.789 -2.13408 6.19788 0
M  V30 5160 H 496.309 -3.34009 4.98195 0
M  V30 5161 H 497.988 -3.28536 5.57381 0
M  V30 5162 N 498.12 -1.38341 -0.754957 0
M  V30 5163 C 499.348 -1.37704 -1.54419 0
M  V30 5164 C 499.763 0.0335243 -1.8877 0
M  V30 5165 O 499.12 0.999773 -1.52679 0
M  V30 5166 C 499.171 -2.23136 -2.84416 0
M  V30 5167 O 498.892 -3.58697 -2.51531 0
M  V30 5168 C 500.393 -2.30664 -3.78562 0
M  V30 5169 H 497.613 -0.471061 -0.477852 0
M  V30 5170 H 500.157 -1.81902 -0.934446 0
M  V30 5171 H 498.312 -1.82403 -3.41772 0
M  V30 5172 H 498.726 -4.03665 -3.34896 0
M  V30 5173 H 500.2 -2.9473 -4.66732 0
M  V30 5174 H 500.677 -1.3199 -4.18898 0
M  V30 5175 H 501.283 -2.71781 -3.27131 0
M  V30 5176 N 499.598 0.982988 -1.23187 0
M  V30 5177 C 500.844 1.72648 -1.06398 0
M  V30 5178 C 501.177 1.90066 0.398561 0
M  V30 5179 O 500.452 1.45105 1.29518 0
M  V30 5180 C 500.735 3.12627 -1.78707 0
M  V30 5181 C 500.588 3.02795 -3.32618 0
M  V30 5182 C 501.907 4.11997 -1.54747 0
M  V30 5183 H 499.026 0.626649 -0.387918 0
M  V30 5184 H 501.668 1.14455 -1.51658 0
M  V30 5185 H 499.818 3.62308 -1.40234 0
M  V30 5186 H 501.49 2.60659 -3.80598 0
M  V30 5187 H 499.733 2.39362 -3.61785 0
M  V30 5188 H 500.404 4.01893 -3.78399 0
M  V30 5189 H 502.88 3.71114 -1.88186 0
M  V30 5190 H 501.756 5.08037 -2.07821 0
M  V30 5191 H 502.017 4.39462 -0.482249 0
M  V30 5192 N 501.076 1.04316 1.18135 0
M  V30 5193 C 502.026 0.606731 2.19779 0
M  V30 5194 C 503.01 -0.352144 1.56999 0
M  V30 5195 O 504.202 -0.170795 1.76174 0
M  V30 5196 C 501.331 -0.0262443 3.4329 0
M  V30 5197 C 500.417 0.955928 4.13186 0
M  V30 5198 N 500.808 2.12395 4.59045 0
M  V30 5199 C 499.106 0.782473 4.39082 0
M  V30 5200 C 499.807 2.74458 5.12882 0
M  V30 5201 N 498.783 2.02316 5.04548 0
M  V30 5202 H 502.585 1.49679 2.5293 0
M  V30 5203 H 500.099 0.912088 1.34368 0
M  V30 5204 H 502.096 -0.356617 4.15372 0
M  V30 5205 H 500.756 -0.911811 3.11635 0
M  V30 5206 H 501.767 2.50272 4.53414 0
M  V30 5207 H 498.444 -0.0527906 4.17467 0
M  V30 5208 H 499.834 3.73459 5.5855 0
M  V30 5209 N 502.554 -1.34406 0.822964 0
M  V30 5210 C 503.484 -2.32052 0.259608 0
M  V30 5211 C 504.465 -1.58243 -0.623961 0
M  V30 5212 O 505.65 -1.86224 -0.55083 0
M  V30 5213 C 502.78 -3.42434 -0.579314 0
M  V30 5214 C 501.734 -4.27499 0.20712 0
M  V30 5215 C 501.06 -5.29349 -0.754547 0
M  V30 5216 C 502.36 -5.02758 1.41533 0
M  V30 5217 H 504.054 -2.79418 1.07545 0
M  V30 5218 H 501.6 -1.34338 0.518593 0
M  V30 5219 H 503.553 -4.0976 -0.983612 0
M  V30 5220 H 502.277 -2.93717 -1.4282 0
M  V30 5221 H 500.936 -3.61776 0.592787 0
M  V30 5222 H 500.584 -4.76895 -1.59939 0
M  V30 5223 H 500.284 -5.8714 -0.232561 0
M  V30 5224 H 501.808 -5.99544 -1.1567 0
M  V30 5225 H 503.222 -5.62938 1.08504 0
M  V30 5226 H 501.619 -5.70123 1.87296 0
M  V30 5227 H 502.689 -4.32451 2.1935 0
M  V30 5228 N 504.032 -0.577932 -1.46621 0
M  V30 5229 C 504.964 0.195801 -2.28362 0
M  V30 5230 C 505.977 0.859983 -1.38232 0
M  V30 5231 O 507.166 0.730349 -1.62875 0
M  V30 5232 C 504.266 1.29639 -3.13124 0
M  V30 5233 C 503.439 0.725049 -4.31349 0
M  V30 5234 C 502.498 1.71274 -4.97546 0
M  V30 5235 O 501.524 1.25067 -5.5529 0
M  V30 5236 N 502.726 3.04672 -4.94121 0
M  V30 5237 H 505.491 -0.505468 -2.95407 0
M  V30 5238 H 503.052 -0.415381 -1.56481 0
M  V30 5239 H 505.044 1.95631 -3.54275 0
M  V30 5240 H 503.614 1.90059 -2.48186 0
M  V30 5241 H 502.834 -0.112205 -3.9404 0
M  V30 5242 H 504.122 0.323034 -5.07774 0
M  V30 5243 H 503.52 3.4484 -4.48444 0
M  V30 5244 H 502.077 3.66166 -5.39227 0
M  V30 5245 N 505.51 1.54411 -0.315457 0
M  V30 5246 C 506.735 2.05299 0.294496 0
M  V30 5247 C 507.16 1.19052 1.4563 0
M  V30 5248 O 506.518 0.197804 1.80218 0
M  V30 5249 C 506.566 3.5345 0.714549 0
M  V30 5250 O 505.67 3.70175 1.81781 0
M  V30 5251 H 505.011 0.661743 0.0547019 0
M  V30 5252 H 507.541 1.99327 -0.461508 0
M  V30 5253 H 507.551 3.9557 0.999426 0
M  V30 5254 H 506.226 4.1568 -0.135244 0
M  V30 5255 H 504.803 3.3996 1.53236 0
M  V30 5256 N 506.988 0.0434614 1.5754 0
M  V30 5257 C 507.898 -0.94893 2.14552 0
M  V30 5258 C 508.914 -1.34707 1.10136 0
M  V30 5259 O 510.09 -1.42557 1.42266 0
M  V30 5260 C 507.155 -2.208 2.67298 0
M  V30 5261 C 506.216 -1.86893 3.86484 0
M  V30 5262 C 505.449 -3.06797 4.36705 0
M  V30 5263 O 505.672 -4.19921 3.86034 0
M  V30 5264 O 504.606 -2.8826 5.28384 0
M  V30 5265 H 508.432 -0.494099 2.99654 0
M  V30 5266 H 506.017 -0.177989 1.48336 0
M  V30 5267 H 507.899 -2.94686 3.01228 0
M  V30 5268 H 506.574 -2.65436 1.85272 0
M  V30 5269 H 505.481 -1.10347 3.57455 0
M  V30 5270 H 506.814 -1.47062 4.69716 0
M  V30 5271 N 508.466 -1.55915 -0.229846 0
M  V30 5272 C 509.414 -1.9258 -1.30444 0
M  V30 5273 C 510.408 -0.806839 -1.48951 0
M  V30 5274 O 511.614 -0.991606 -1.50224 0
M  V30 5275 H 507.989 -0.611878 -0.437161 0
M  V30 5276 H 509.96 -2.82264 -0.96797 0
M  V30 5277 C 508.709 -2.25171 -2.6494 0
M  V30 5278 H 508.032 -3.10782 -2.51504 0
M  V30 5279 H 509.472 -2.54716 -3.38963 0
M  V30 5280 C 507.931 -1.07394 -3.19324 0
M  V30 5281 O 508.461 -0.330759 -4.00336 0
M  V30 5282 N 506.667 -0.859984 -2.77584 0
M  V30 5283 H 506.214 -1.46605 -2.11813 0
M  V30 5284 H 506.172 -0.0736671 -3.14314 0
M  V30 5285 N 509.944 0.496216 -1.49584 0
M  V30 5286 C 511.192 1.24756 -1.58998 0
M  V30 5287 C 511.513 1.92968 -0.280775 0
M  V30 5288 O 510.783 1.82959 0.700198 0
M  V30 5289 H 509.363 0.463471 -0.585836 0
M  V30 5290 H 512.025 0.574678 -1.86235 0
M  V30 5291 H 511.121 2.00895 -2.38847 0
M  V30 5292 N 511.423 1.38739 0.74761 0
M  V30 5293 C 512.669 1.35475 1.50912 0
M  V30 5294 C 513.002 -0.0533093 1.94127 0
M  V30 5295 O 512.277 -1.01572 1.65871 0
M  V30 5296 C 512.56 2.31582 2.75757 0
M  V30 5297 C 512.413 3.81274 2.38642 0
M  V30 5298 C 513.732 2.25722 3.77806 0
M  V30 5299 H 510.851 0.493427 0.547447 0
M  V30 5300 H 513.493 1.69634 0.855823 0
M  V30 5301 H 511.643 2.02582 3.31501 0
M  V30 5302 H 513.315 4.20972 1.88626 0
M  V30 5303 H 511.558 3.98664 1.71025 0
M  V30 5304 H 512.229 4.4399 3.27989 0
M  V30 5305 H 514.705 2.51336 3.31616 0
M  V30 5306 H 513.581 2.95069 4.62845 0
M  V30 5307 H 513.842 1.25803 4.23823 0
M  V30 5308 N 512.901 -0.976442 1.23707 0
M  V30 5309 C 513.831 -2.08749 1.04624 0
M  V30 5310 C 514.812 -1.70057 -0.0380956 0
M  V30 5311 O 515.997 -1.93782 0.127308 0
M  V30 5312 C 513.127 -3.41335 0.640902 0
M  V30 5313 C 512.081 -3.93947 1.67302 0
M  V30 5314 C 511.407 -5.22774 1.12301 0
M  V30 5315 C 512.707 -4.22769 3.06697 0
M  V30 5316 H 514.401 -2.24972 1.97555 0
M  V30 5317 H 511.947 -1.08108 0.951247 0
M  V30 5318 H 513.9 -4.18489 0.494434 0
M  V30 5319 H 512.624 -3.24988 -0.324099 0
M  V30 5320 H 511.283 -3.18941 1.80755 0
M  V30 5321 H 510.931 -5.0278 0.148877 0
M  V30 5322 H 510.631 -5.58942 1.81267 0
M  V30 5323 H 512.155 -6.02546 0.988479 0
M  V30 5324 H 513.569 -4.90659 2.96524 0
M  V30 5325 H 511.966 -4.70147 3.72937 0
M  V30 5326 H 513.036 -3.29885 3.55392 0
M  V30 5327 N 514.379 -1.04941 -1.1758 0
M  V30 5328 C 515.627 -0.756492 -1.87408 0
M  V30 5329 C 515.948 0.718478 -1.81281 0
M  V30 5330 O 515.218 1.519 -1.23706 0
M  V30 5331 H 513.798 -0.276841 -0.693807 0
M  V30 5332 H 516.46 -1.32803 -1.42652 0
M  V30 5333 H 515.556 -1.06918 -2.93215 0
M  V30 5334 N 515.857 1.33968 -0.830081 0
M  V30 5335 C 516.787 2.31911 -0.271911 0
M  V30 5336 C 517.768 1.58571 0.61556 0
M  V30 5337 O 518.953 1.86514 0.540946 0
M  V30 5338 C 516.083 3.42737 0.561146 0
M  V30 5339 C 515.037 4.27383 -0.229789 0
M  V30 5340 C 514.363 5.29742 0.726463 0
M  V30 5341 C 515.663 5.02 -1.44197 0
M  V30 5342 H 517.357 2.78844 -1.09025 0
M  V30 5343 H 514.903 1.34061 -0.52571 0
M  V30 5344 H 516.856 4.10276 0.961867 0
M  V30 5345 H 515.58 2.94471 1.41261 0
M  V30 5346 H 514.239 3.61456 -0.611964 0
M  V30 5347 H 513.887 4.77736 1.57408 0
M  V30 5348 H 513.587 5.87255 0.20142 0
M  V30 5349 H 515.111 6.00149 1.12489 0
M  V30 5350 H 516.525 5.62355 -1.11488 0
M  V30 5351 H 514.922 5.69122 -1.90317 0
M  V30 5352 H 515.992 4.31281 -2.2164 0
M  V30 5353 N 517.335 0.585699 1.46312 0
M  V30 5354 C 518.583 0.072278 2.01971 0
M  V30 5355 C 518.904 -1.29345 1.45928 0
M  V30 5356 O 518.174 -1.84973 0.645109 0
M  V30 5357 H 516.754 0.023729 0.746623 0
M  V30 5358 H 519.416 0.762155 1.7938 0
M  V30 5359 H 518.512 0.00552767 3.121 0
M  V30 5360 N 518.813 -1.54241 0.323641 0
M  V30 5361 C 520.224 -1.85975 -0.164405 0
M  V30 5362 C 520.575 -1.24529 -1.51615 0
M  V30 5363 O 519.7 -0.551351 -2.09258 0
M  V30 5364 C 520.295 -3.37424 -0.305091 0
M  V30 5365 C 518.854 -3.69107 -0.737358 0
M  V30 5366 C 518.001 -2.76942 0.140884 0
M  V30 5367 H 520.952 -1.49088 0.543922 0
M  V30 5368 H 520.973 -3.63147 -1.13598 0
M  V30 5369 H 520.485 -3.82116 0.678876 0
M  V30 5370 H 518.586 -3.29947 -1.73107 0
M  V30 5371 H 518.699 -4.76035 -0.541053 0
M  V30 5372 H 517.063 -2.51795 -0.383572 0
M  V30 5373 H 517.846 -3.24461 1.12162 0
M  V30 5374 N 520.291 -0.0518155 -1.57515 0
M  V30 5375 C 521.521 0.63048 -1.96745 0
M  V30 5376 C 521.929 1.64875 -0.928054 0
M  V30 5377 O 521.272 1.83449 0.0960678 0
M  V30 5378 C 521.334 1.37381 -3.32215 0
M  V30 5379 C 520.998 0.511298 -4.54131 0
M  V30 5380 C 521.995 -0.222884 -5.19422 0
M  V30 5381 C 519.68 0.442035 -5.00351 0
M  V30 5382 C 521.674 -1.01476 -6.2927 0
M  V30 5383 C 519.361 -0.35353 -6.10077 0
M  V30 5384 C 520.359 -1.08062 -6.74397 0
M  V30 5385 O 520.047 -1.8631 -7.82013 0
M  V30 5386 H 519.779 0.177126 -0.652382 0
M  V30 5387 H 522.333 -0.114726 -2.05079 0
M  V30 5388 H 520.563 2.16466 -3.20436 0
M  V30 5389 H 522.252 1.9464 -3.56188 0
M  V30 5390 H 523.018 -0.178846 -4.8467 0
M  V30 5391 H 518.897 0.997562 -4.50077 0
M  V30 5392 H 522.441 -1.58279 -6.79407 0
M  V30 5393 H 518.338 -0.399205 -6.44264 0
M  V30 5394 H 519.106 -1.78528 -7.98793 0
M  V30 5395 N 521.769 1.56035 0.221574 0
M  V30 5396 C 523.18 1.69229 0.788567 0
M  V30 5397 C 523.531 0.653814 1.84986 0
M  V30 5398 O 522.656 -0.195065 2.15519 0
M  V30 5399 C 523.251 3.06809 1.43713 0
M  V30 5400 C 521.81 3.21858 1.95152 0
M  V30 5401 C 520.957 2.65155 0.811685 0
M  V30 5402 H 523.908 1.587 -0.00307894 0
M  V30 5403 H 523.929 3.02666 2.30594 0
M  V30 5404 H 523.441 3.82369 0.664475 0
M  V30 5405 H 521.542 2.51167 2.7522 0
M  V30 5406 H 521.655 4.29073 2.1315 0
M  V30 5407 H 520.019 2.23635 1.21899 0
M  V30 5408 H 520.802 3.43261 0.0516987 0
M  V30 5409 N 523.247 -0.488276 1.49845 0
M  V30 5410 C 524.663 -0.820566 1.3689 0
M  V30 5411 C 524.863 -1.97248 0.411752 0
M  V30 5412 O 523.919 -2.52042 -0.151931 0
M  V30 5413 C 525.232 -1.1488 2.77891 0
M  V30 5414 C 526.78 -1.25626 2.86683 0
M  V30 5415 C 527.255 -1.61772 4.28479 0
M  V30 5416 N 528.746 -1.68797 4.31349 0
M  V30 5417 C 529.481 -1.98235 5.38043 0
M  V30 5418 N 528.977 -2.2581 6.54967 0
M  V30 5419 N 530.77 -1.99593 5.2547 0
M  V30 5420 H 522.921 0.271123 2.10662 0
M  V30 5421 H 525.184 0.058735 0.946179 0
M  V30 5422 H 524.89 -0.375614 3.49688 0
M  V30 5423 H 524.764 -2.08919 3.14058 0
M  V30 5424 H 527.151 -2.02014 2.15114 0
M  V30 5425 H 527.232 -0.296072 2.54081 0
M  V30 5426 H 526.876 -0.859295 5.00578 0
M  V30 5427 H 526.806 -2.58912 4.58554 0
M  V30 5428 H 529.297 -1.49595 3.4703 0
M  V30 5429 H 529.61 -2.47497 7.32096 0
M  V30 5430 H 527.955 -2.23239 6.58171 0
M  V30 5431 H 531.146 -1.77535 4.33127 0
M  V30 5432 H 531.319 -2.222 6.08713 0
M  V30 5433 N 524.725 -1.39134 -0.740242 0
M  V30 5434 C 525.657 -1.33332 -1.86428 0
M  V30 5435 C 526.67 -0.243042 -1.60976 0
M  V30 5436 O 527.859 -0.501608 -1.71307 0
M  V30 5437 C 524.959 -1.04626 -3.22346 0
M  V30 5438 C 524.132 -2.24826 -3.75196 0
M  V30 5439 C 523.191 -1.92659 -4.89662 0
M  V30 5440 O 522.217 -2.6529 -5.03597 0
M  V30 5441 N 523.419 -0.889575 -5.73643 0
M  V30 5442 H 526.184 -2.30196 -1.91911 0
M  V30 5443 H 523.745 -1.33168 -0.920756 0
M  V30 5444 H 525.737 -0.811347 -3.96484 0
M  V30 5445 H 524.307 -0.165129 -3.12164 0
M  V30 5446 H 523.527 -2.64301 -2.9247 0
M  V30 5447 H 524.815 -3.05015 -4.07239 0
M  V30 5448 H 524.213 -0.287529 -5.64969 0
M  V30 5449 H 522.77 -0.714557 -6.47871 0
M  V30 5450 N 526.204 0.969867 -1.24223 0
M  V30 5451 C 527.154 2.04913 -0.999732 0
M  V30 5452 C 528.138 1.60795 0.0580636 0
M  V30 5453 O 529.33 1.76317 -0.155392 0
M  V30 5454 C 526.459 3.37942 -0.604154 0
M  V30 5455 C 525.545 3.88628 -1.69791 0
M  V30 5456 N 525.936 4.12274 -2.93025 0
M  V30 5457 C 524.234 4.17268 -1.57492 0
M  V30 5458 C 524.935 4.53808 -3.63914 0
M  V30 5459 N 523.911 4.58855 -2.91468 0
M  V30 5460 H 527.713 2.21168 -1.93551 0
M  V30 5461 H 525.227 1.15349 -1.14317 0
M  V30 5462 H 527.224 4.14863 -0.411665 0
M  V30 5463 H 525.884 3.23075 0.324465 0
M  V30 5464 H 526.895 3.99789 -3.29225 0
M  V30 5465 H 523.572 4.11346 -0.714175 0
M  V30 5466 H 524.962 4.80534 -4.69614 0
M  V30 5467 N 527.682 1.05563 1.17022 0
M  V30 5468 C 528.592 0.670758 2.24807 0
M  V30 5469 C 529.608 -0.309865 1.71219 0
M  V30 5470 O 530.784 -0.161025 2.00755 0
M  V30 5471 C 527.849 0.055337 3.46656 0
M  V30 5472 C 526.91 1.08688 4.15314 0
M  V30 5473 C 526.143 0.500736 5.31346 0
M  V30 5474 O 526.366 -0.688718 5.66227 0
M  V30 5475 O 525.3 1.23683 5.89055 0
M  V30 5476 H 529.126 1.56914 2.60023 0
M  V30 5477 H 526.711 0.827428 1.24395 0
M  V30 5478 H 528.593 -0.286492 4.20425 0
M  V30 5479 H 527.268 -0.816638 3.13229 0
M  V30 5480 H 526.175 1.48077 3.43546 0
M  V30 5481 H 527.508 1.93014 4.52777 0
M  V30 5482 N 529.16 -1.33526 0.837174 0
M  V30 5483 C 530.123 -2.27551 0.274421 0
M  V30 5484 C 531.123 -1.50886 -0.555881 0
M  V30 5485 O 532.313 -1.70227 -0.369918 0
M  V30 5486 C 529.445 -3.35332 -0.613605 0
M  V30 5487 H 530.638 -2.78837 1.10408 0
M  V30 5488 H 528.191 -1.439 0.610126 0
M  V30 5489 H 528.926 -2.89285 -1.46577 0
M  V30 5490 H 528.711 -3.92095 -0.0195341 0
M  V30 5491 H 530.201 -4.05433 -1.00068 0
M  V30 5492 N 530.638 -0.59345 -1.46 0
M  V30 5493 C 531.915 -0.0157933 -1.95594 0
M  V30 5494 C 532.295 1.44807 -1.53604 0
M  V30 5495 O 531.643 2.14342 -0.791824 0
M  V30 5496 C 531.853 -0.199081 -3.48432 0
M  V30 5497 C 533.201 -0.0724943 -4.24538 0
M  V30 5498 O 534.225 -0.128469 -3.55968 0
M  V30 5499 O 533.084 0.0542426 -5.46473 0
M  V30 5500 H 530.178 0.043749 -0.825842 0
M  V30 5501 H 532.724 -0.662522 -1.56233 0
M  V30 5502 H 531.496 -1.21631 -3.71916 0
M  V30 5503 H 531.119 0.483576 -3.94648 0
M  V30 5504 N 532.116 1.54067 -0.331816 0
M  V30 5505 C 533.079 2.23275 0.517768 0
M  V30 5506 C 534.079 1.22897 1.03697 0
M  V30 5507 O 535.269 1.47419 0.928084 0
M  V30 5508 C 532.401 2.94326 1.72004 0
M  V30 5509 H 533.594 2.99773 -0.0873507 0
M  V30 5510 H 531.147 1.56079 -0.0830042 0
M  V30 5511 H 531.882 2.21986 2.36417 0
M  V30 5512 H 531.667 3.67941 1.35507 0
M  V30 5513 H 533.157 3.47031 2.32291 0
M  V30 5514 N 533.594 0.0601682 1.57485 0
M  V30 5515 C 534.871 -0.651956 1.84415 0
M  V30 5516 C 535.251 -1.88498 0.950361 0
M  V30 5517 O 534.599 -2.28496 0.0136719 0
M  V30 5518 C 534.809 -1.00069 3.34346 0
M  V30 5519 C 536.157 -1.37915 4.01578 0
M  V30 5520 O 537.181 -1.09277 3.39024 0
M  V30 5521 O 536.04 -1.91399 5.11887 0
M  V30 5522 H 533.134 -0.322668 0.761455 0
M  V30 5523 H 535.68 0.0902159 1.6946 0
M  V30 5524 H 534.452 -0.124463 3.91102 0
M  V30 5525 H 534.075 -1.80001 3.54521 0
M  V30 5526 N 535.072 -1.5615 -0.213296 0
M  V30 5527 C 536.002 -1.96109 -1.26742 0
M  V30 5528 C 536.983 -0.830448 -1.48451 0
M  V30 5529 O 538.168 -1.09339 -1.60495 0
M  V30 5530 C 535.298 -2.28492 -2.61551 0
M  V30 5531 C 534.252 -3.44124 -2.54485 0
M  V30 5532 C 533.578 -3.62134 -3.93399 0
M  V30 5533 C 534.878 -4.78855 -2.08556 0
M  V30 5534 H 536.572 -2.84412 -0.935434 0
M  V30 5535 H 534.118 -1.36836 -0.44854 0
M  V30 5536 H 536.071 -2.55039 -3.3546 0
M  V30 5537 H 534.795 -1.37052 -2.96453 0
M  V30 5538 H 533.454 -3.17639 -1.83033 0
M  V30 5539 H 533.102 -2.68055 -4.25623 0
M  V30 5540 H 532.802 -4.39913 -3.89551 0
M  V30 5541 H 534.326 -3.91038 -4.68958 0
M  V30 5542 H 535.74 -5.04552 -2.72213 0
M  V30 5543 H 534.137 -5.59975 -2.1575 0
M  V30 5544 H 535.207 -4.73657 -1.03811 0
M  V30 5545 N 536.55 0.480323 -1.50102 0
M  V30 5546 C 537.799 1.22979 -1.59872 0
M  V30 5547 C 538.112 1.93282 -0.30022 0
M  V30 5548 O 539.318 2.70086 -0.276709 0
M  V30 5549 C 537.774 2.23408 -2.82164 0
M  V30 5550 C 537.382 1.5895 -4.18854 0
M  V30 5551 C 539.126 2.99055 -3.01275 0
M  V30 5552 C 537.033 2.57611 -5.32344 0
M  V30 5553 H 535.963 0.462707 -0.59533 0
M  V30 5554 H 538.614 0.501291 -1.7652 0
M  V30 5555 H 536.996 2.99511 -2.59055 0
M  V30 5556 H 538.17 0.887 -4.52182 0
M  V30 5557 H 536.485 0.956191 -4.05273 0
M  V30 5558 H 539.082 3.72876 -3.83233 0
M  V30 5559 H 539.425 3.57897 -2.12639 0
M  V30 5560 H 539.958 2.30066 -3.24522 0
M  V30 5561 H 536.697 2.03521 -6.23105 0
M  V30 5562 H 536.217 3.26041 -5.03445 0
M  V30 5563 H 537.896 3.19627 -5.62537 0
M  V30 5564 N 538.028 1.39524 0.732853 0
M  V30 5565 C 538.976 1.38563 1.86824 0
M  V30 5566 C 539.97 0.268467 1.67259 0
M  V30 5567 O 541.176 0.438613 1.74574 0
M  V30 5568 H 537.551 0.432737 0.615014 0
M  V30 5569 H 539.522 2.34328 1.84751 0
M  V30 5570 C 538.271 1.2481 3.24527 0
M  V30 5571 H 537.594 2.10044 3.40179 0
M  V30 5572 H 539.034 1.28194 4.04156 0
M  V30 5573 C 537.493 -0.0432825 3.36872 0
M  V30 5574 O 538.023 -1.01268 3.88726 0
M  V30 5575 N 536.229 -0.107055 2.90403 0
M  V30 5576 H 535.776 0.682512 2.48394 0
M  V30 5577 H 535.734 -0.970618 2.99042 0
M  V30 5578 N 539.506 -0.963266 1.24736 0
M  V30 5579 C 540.469 -2.04013 1.04457 0
M  V30 5580 C 541.469 -1.608 0.000335555 0
M  V30 5581 O 542.659 -1.72515 0.241719 0
M  V30 5582 C 539.791 -3.35858 0.584162 0
M  V30 5583 H 540.984 -2.23436 2.00041 0
M  V30 5584 H 538.537 -1.13914 1.07021 0
M  V30 5585 H 539.272 -3.22128 -0.374673 0
M  V30 5586 H 539.057 -3.68568 1.3379 0
M  V30 5587 H 540.547 -4.1502 0.463451 0
M  V30 5588 N 540.985 -1.06182 -1.16461 0
M  V30 5589 C 542.233 -0.776326 -1.86595 0
M  V30 5590 C 542.554 0.69921 -1.82033 0
M  V30 5591 O 541.824 1.50579 -1.2531 0
M  V30 5592 H 540.404 -0.284184 -0.690832 0
M  V30 5593 H 543.066 -1.34308 -1.41235 0
M  V30 5594 H 542.162 -1.10022 -2.92064 0
M  V30 5595 N 542.463 1.3308 -0.844243 0
M  V30 5596 C 543.41 2.29104 -0.279323 0
M  V30 5597 C 544.38 1.54577 0.607882 0
M  V30 5598 O 545.565 1.8285 0.545009 0
M  V30 5599 C 542.705 3.40927 0.53508 0
M  V30 5600 C 541.818 4.30354 -0.376749 0
M  V30 5601 C 540.953 5.29297 0.449276 0
M  V30 5602 C 539.992 6.10365 -0.460606 0
M  V30 5603 N 539.129 7.01335 0.327612 0
M  V30 5604 H 543.969 2.76817 -1.10346 0
M  V30 5605 H 541.506 1.36203 -0.555611 0
M  V30 5606 H 543.464 4.04469 1.02278 0
M  V30 5607 H 542.094 2.94391 1.32414 0
M  V30 5608 H 541.146 3.67485 -0.982791 0
M  V30 5609 H 542.458 4.87067 -1.07549 0
M  V30 5610 H 541.612 5.98392 1.00058 0
M  V30 5611 H 540.351 4.73174 1.18143 0
M  V30 5612 H 539.356 5.40182 -1.02388 0
M  V30 5613 H 540.581 6.68571 -1.1912 0
M  V30 5614 H 538.527 6.47655 1.04305 0
M  V30 5615 H 538.444 7.55355 -0.3123 0
M  V30 5616 H 539.712 7.74731 0.86098 0
M  V30 5617 N 543.941 0.601185 1.45683 0
M  V30 5618 C 544.851 -0.123395 2.34275 0
M  V30 5619 C 545.867 -0.86702 1.5086 0
M  V30 5620 O 547.043 -0.826049 1.8368 0
M  V30 5621 C 544.108 -1.11237 3.2837 0
M  V30 5622 C 543.169 -0.371405 4.2769 0
M  V30 5623 C 542.402 -1.31327 5.1729 0
M  V30 5624 O 542.625 -2.55078 5.10188 0
M  V30 5625 O 541.559 -0.813811 5.96373 0
M  V30 5626 H 545.385 0.604483 2.97623 0
M  V30 5627 H 542.97 0.361477 1.44961 0
M  V30 5628 H 544.852 -1.68214 3.8637 0
M  V30 5629 H 543.527 -1.82139 2.67595 0
M  V30 5630 H 542.434 0.24067 3.73325 0
M  V30 5631 H 543.767 0.296998 4.91303 0
M  V30 5632 N 545.419 -1.53889 0.339982 0
M  V30 5633 C 546.647 -2.05271 -0.259114 0
M  V30 5634 C 547.062 -1.21517 -1.44496 0
M  V30 5635 O 546.419 -0.24966 -1.80784 0
M  V30 5636 C 546.47 -3.55092 -0.677634 0
M  V30 5637 O 546.191 -4.35667 0.461051 0
M  V30 5638 C 547.692 -4.22631 -1.33782 0
M  V30 5639 H 544.912 -0.669085 -0.0506566 0
M  V30 5640 H 547.456 -1.9852 0.490935 0
M  V30 5641 H 545.611 -3.62077 -1.37763 0
M  V30 5642 H 546.025 -5.24343 0.128144 0
M  V30 5643 H 547.499 -5.28861 -1.58145 0
M  V30 5644 H 547.976 -3.74758 -2.29027 0
M  V30 5645 H 548.582 -4.19829 -0.679957 0
M  V30 5646 N 546.897 -0.0685191 -1.57451 0
M  V30 5647 C 548.143 0.602239 -1.93652 0
M  V30 5648 C 548.476 1.6946 -0.948526 0
M  V30 5649 O 547.751 1.94487 0.022782 0
M  V30 5650 C 548.034 1.18223 -3.4014 0
M  V30 5651 C 547.887 0.0967431 -4.49696 0
M  V30 5652 C 549.206 2.08872 -3.87377 0
M  V30 5653 H 546.325 0.217453 -0.70419 0
M  V30 5654 H 548.967 -0.133821 -1.89528 0
M  V30 5655 H 547.117 1.80953 -3.43785 0
M  V30 5656 H 548.789 -0.536155 -4.58174 0
M  V30 5657 H 547.032 -0.573063 -4.29998 0
M  V30 5658 H 547.703 0.542894 -5.49324 0
M  V30 5659 H 550.179 1.56081 -3.85717 0
M  V30 5660 H 549.055 2.46389 -4.90493 0
M  V30 5661 H 549.316 2.99572 -3.25129 0
M  V30 5662 N 548.375 1.56261 0.205012 0
M  V30 5663 C 549.603 1.84141 0.943386 0
M  V30 5664 C 550.018 0.649772 1.77266 0
M  V30 5665 O 549.375 -0.381612 1.78466 0
M  V30 5666 C 549.426 3.10719 1.84759 0
M  V30 5667 O 549.147 4.25286 1.05181 0
M  V30 5668 C 550.648 3.51706 2.69848 0
M  V30 5669 H 547.868 0.611734 0.275721 0
M  V30 5670 H 550.412 2.03364 0.215253 0
M  V30 5671 H 548.567 2.93422 2.52947 0
M  V30 5672 H 548.981 4.97301 1.66709 0
M  V30 5673 H 550.455 4.43266 3.28967 0
M  V30 5674 H 550.932 2.7423 3.43067 0
M  V30 5675 H 551.538 3.71499 2.07047 0
M  V30 5676 N 549.853 -0.472356 1.50355 0
M  V30 5677 C 551.102 -1.2213 1.60522 0
M  V30 5678 C 551.415 -1.9312 0.310466 0
M  V30 5679 O 552.621 -2.69936 0.291029 0
M  V30 5680 C 551.077 -2.21909 2.83345 0
M  V30 5681 C 550.685 -1.56727 4.19691 0
M  V30 5682 C 552.429 -2.97453 3.02856 0
M  V30 5683 C 550.336 -2.54785 5.33703 0
M  V30 5684 H 549.266 -0.459543 0.597776 0
M  V30 5685 H 551.917 -0.491922 1.76783 0
M  V30 5686 H 550.299 -2.98133 2.60639 0
M  V30 5687 H 551.473 -0.863007 4.52646 0
M  V30 5688 H 549.788 -0.934685 4.05774 0
M  V30 5689 H 552.385 -3.70838 3.85205 0
M  V30 5690 H 552.728 -3.56764 2.14534 0
M  V30 5691 H 553.261 -2.28342 3.25737 0
M  V30 5692 H 550 -2.00214 6.24175 0
M  V30 5693 H 549.52 -3.23367 5.05167 0
M  V30 5694 H 551.199 -3.16639 5.64224 0
M  V30 5695 N 551.331 -1.39911 -0.725443 0
M  V30 5696 C 552.261 -1.42138 -1.85254 0
M  V30 5697 C 553.242 -0.283513 -1.67721 0
M  V30 5698 O 554.427 -0.490717 -1.87898 0
M  V30 5699 C 551.557 -1.27354 -3.23107 0
M  V30 5700 C 550.511 -2.3864 -3.55296 0
M  V30 5701 C 549.837 -2.08939 -4.92188 0
M  V30 5702 C 551.137 -3.8097 -3.57295 0
M  V30 5703 H 552.831 -2.36461 -1.83648 0
M  V30 5704 H 550.377 -1.13817 -0.882138 0
M  V30 5705 H 552.33 -1.2753 -4.01639 0
M  V30 5706 H 551.054 -0.295025 -3.25265 0
M  V30 5707 H 549.713 -2.37696 -2.79099 0
M  V30 5708 H 549.361 -1.09502 -4.90936 0
M  V30 5709 H 549.061 -2.83491 -5.14691 0
M  V30 5710 H 550.585 -2.10781 -5.73065 0
M  V30 5711 H 551.999 -3.8379 -4.25885 0
M  V30 5712 H 550.396 -4.5496 -3.9132 0
M  V30 5713 H 551.466 -4.11261 -2.5689 0
M  V30 5714 N 552.809 0.956637 -1.25245 0
M  V30 5715 C 554.22 1.51569 -1.09012 0
M  V30 5716 C 554.571 1.93322 0.334813 0
M  V30 5717 O 553.696 1.78421 1.22454 0
M  V30 5718 C 554.291 2.75444 -1.97271 0
M  V30 5719 C 552.85 3.27669 -1.8523 0
M  V30 5720 C 551.997 2.00517 -1.91542 0
M  V30 5721 H 554.948 0.773746 -1.3856 0
M  V30 5722 H 554.969 3.4919 -1.51151 0
M  V30 5723 H 554.481 2.45024 -3.00973 0
M  V30 5724 H 552.582 3.62914 -0.844045 0
M  V30 5725 H 552.695 3.9582 -2.69932 0
M  V30 5726 H 551.059 2.15727 -1.35404 0
M  V30 5727 H 551.842 1.72448 -2.96844 0
M  V30 5728 N 554.287 1.06798 1.15896 0
M  V30 5729 C 555.535 0.786211 1.8618 0
M  V30 5730 C 555.856 -0.689547 1.82401 0
M  V30 5731 O 555.126 -1.49913 1.26107 0
M  V30 5732 H 553.706 0.287843 0.689315 0
M  V30 5733 H 556.368 1.35055 1.40521 0
M  V30 5734 H 555.464 1.1157 2.91477 0
M  V30 5735 N 555.766 -1.3263 0.851289 0
M  V30 5736 C 556.729 -2.27247 0.298541 0
M  V30 5737 C 557.729 -1.51467 -0.539847 0
M  V30 5738 O 558.919 -1.7061 -0.351843 0
M  V30 5739 C 556.051 -3.35964 -0.578004 0
M  V30 5740 H 557.244 -2.7765 1.13359 0
M  V30 5741 H 554.797 -1.43245 0.625354 0
M  V30 5742 H 555.532 -2.90823 -1.435 0
M  V30 5743 H 555.317 -3.92094 0.0220539 0
M  V30 5744 H 556.807 -4.06472 -0.957626 0
M  V30 5745 N 557.244 -0.608902 -1.45362 0
M  V30 5746 C 558.469 -0.10921 -2.07112 0
M  V30 5747 C 558.894 1.19779 -1.45033 0
M  V30 5748 O 558.252 1.72961 -0.543527 0
M  V30 5749 C 558.3 0.0155745 -3.60597 0
M  V30 5750 O 557.404 1.06546 -3.98399 0
M  V30 5751 H 556.745 -0.0746619 -0.659789 0
M  V30 5752 H 559.275 -0.839283 -1.86594 0
M  V30 5753 H 559.285 0.213364 -4.07442 0
M  V30 5754 H 557.96 -0.938765 -4.05167 0
M  V30 5755 H 556.537 0.844024 -3.63223 0
M  V30 5756 N 558.722 1.53707 -0.348139 0
M  V30 5757 C 559.969 2.00988 0.246966 0
M  V30 5758 C 560.297 1.23586 1.50189 0
M  V30 5759 O 559.552 0.312817 1.93184 0
M  V30 5760 C 559.851 3.52292 0.602061 0
M  V30 5761 C 559.517 4.47453 -0.556509 0
M  V30 5762 C 558.179 4.73188 -0.874446 0
M  V30 5763 C 560.531 5.03851 -1.33354 0
M  V30 5764 C 557.859 5.52577 -1.9717 0
M  V30 5765 C 560.211 5.84437 -2.42108 0
M  V30 5766 C 558.875 6.08465 -2.74456 0
M  V30 5767 H 558.145 0.735469 0.0903712 0
M  V30 5768 H 560.792 1.85464 -0.477001 0
M  V30 5769 H 559.097 3.65672 1.40681 0
M  V30 5770 H 560.794 3.86337 1.07447 0
M  V30 5771 H 557.384 4.27558 -0.298652 0
M  V30 5772 H 561.568 4.8393 -1.10117 0
M  V30 5773 H 556.824 5.69418 -2.22651 0
M  V30 5774 H 560.998 6.27151 -3.02745 0
M  V30 5775 H 558.625 6.69768 -3.59604 0
M  V30 5776 N 560.2 0.0768682 1.57412 0
M  V30 5777 C 561.447 -0.591085 1.93681 0
M  V30 5778 C 561.775 -1.69311 0.957286 0
M  V30 5779 O 561.03 -1.95682 -0.0262428 0
M  V30 5780 C 561.329 -1.20268 3.36557 0
M  V30 5781 C 560.995 -0.226286 4.50332 0
M  V30 5782 C 559.657 0.0423142 4.81181 0
M  V30 5783 C 562.009 0.441415 5.19327 0
M  V30 5784 C 559.337 0.985616 5.78362 0
M  V30 5785 C 561.689 1.37307 6.17519 0
M  V30 5786 C 560.353 1.65009 6.46783 0
M  V30 5787 H 559.623 -0.216293 0.70873 0
M  V30 5788 H 562.27 0.148824 1.90921 0
M  V30 5789 H 560.575 -2.01844 3.35807 0
M  V30 5790 H 562.272 -1.72688 3.61911 0
M  V30 5791 H 558.862 -0.445821 4.26275 0
M  V30 5792 H 563.046 0.247023 4.95685 0
M  V30 5793 H 558.302 1.20743 5.99359 0
M  V30 5794 H 562.476 1.89637 6.70083 0
M  V30 5795 H 560.103 2.38263 7.21897 0
M  V30 5796 N 561.678 -1.56367 -0.196722 0
M  V30 5797 C 562.903 -1.84991 -0.937714 0
M  V30 5798 C 563.328 -0.660244 -1.76132 0
M  V30 5799 O 562.686 0.390967 -1.77034 0
M  V30 5800 C 562.734 -3.11828 -1.81096 0
M  V30 5801 O 561.838 -2.92266 -2.90955 0
M  V30 5802 H 561.179 -0.609193 -0.264159 0
M  V30 5803 H 563.709 -2.03595 -0.202529 0
M  V30 5804 H 563.719 -3.42579 -2.21594 0
M  V30 5805 H 562.394 -3.98037 -1.2058 0
M  V30 5806 H 560.971 -2.72809 -2.54224 0
M  V30 5807 N 563.156 0.464375 -1.50603 0
M  V30 5808 C 564.381 1.24372 -1.65971 0
M  V30 5809 C 564.806 1.84901 -0.345453 0
M  V30 5810 O 564.164 1.67596 0.691457 0
M  V30 5811 C 564.212 2.32331 -2.7578 0
M  V30 5812 O 563.316 3.37146 -2.375 0
M  V30 5813 H 562.657 0.365604 -0.554283 0
M  V30 5814 H 565.187 0.55183 -1.97018 0
M  V30 5815 H 565.197 2.77539 -2.99059 0
M  V30 5816 H 563.872 1.87648 -3.71162 0
M  V30 5817 H 562.449 2.97602 -2.24694 0
M  V30 5818 N 564.634 1.40294 0.718013 0
M  V30 5819 C 565.911 1.2894 1.47084 0
M  V30 5820 C 566.291 -0.0933625 2.10893 0
M  V30 5821 O 565.639 -1.10598 1.99951 0
M  V30 5822 C 565.849 2.4264 2.50852 0
M  V30 5823 C 567.197 2.8276 3.16752 0
M  V30 5824 O 568.221 2.42215 2.61171 0
M  V30 5825 O 567.08 3.528 4.17366 0
M  V30 5826 H 564.174 0.506236 0.653952 0
M  V30 5827 H 566.72 1.52208 0.750394 0
M  V30 5828 H 565.492 3.35009 2.022 0
M  V30 5829 H 565.115 2.21129 3.30435 0
M  V30 5830 N 566.112 -0.949982 1.2575 0
M  V30 5831 C 567.022 -2.08109 1.08295 0
M  V30 5832 C 568.038 -1.7399 0.0188181 0
M  V30 5833 O 569.214 -2.00187 0.220724 0
M  V30 5834 C 566.279 -3.39383 0.708534 0
M  V30 5835 C 565.34 -3.8734 1.85111 0
M  V30 5836 C 564.573 -5.12349 1.49447 0
M  V30 5837 O 564.796 -5.6905 0.392212 0
M  V30 5838 O 563.73 -5.5513 2.32624 0
M  V30 5839 H 567.556 -2.25738 2.03165 0
M  V30 5840 H 565.141 -1.06545 1.04731 0
M  V30 5841 H 567.023 -4.18277 0.512061 0
M  V30 5842 H 565.698 -3.23013 -0.210854 0
M  V30 5843 H 564.605 -3.09429 2.10248 0
M  V30 5844 H 565.938 -4.08216 2.74991 0
M  V30 5845 N 567.59 -1.07411 -1.15328 0
M  V30 5846 C 568.815 -0.818856 -1.90551 0
M  V30 5847 C 569.24 0.622194 -1.77512 0
M  V30 5848 O 568.598 1.43484 -1.10824 0
M  V30 5849 C 568.646 -1.23267 -3.38877 0
M  V30 5850 O 567.75 -0.378345 -4.10661 0
M  V30 5851 H 567.091 -0.29827 -0.593238 0
M  V30 5852 H 569.621 -1.43289 -1.46046 0
M  V30 5853 H 569.631 -1.20912 -3.89672 0
M  V30 5854 H 568.306 -2.28226 -3.47686 0
M  V30 5855 H 566.883 -0.464437 -3.69996 0
M  V30 5856 N 569.068 1.32177 -0.85831 0
M  V30 5857 C 570.315 1.97125 -0.463484 0
M  V30 5858 C 570.643 1.67907 0.981705 0
M  V30 5859 O 569.898 0.961717 1.70439 0
M  V30 5860 C 570.197 3.51372 -0.653658 0
M  V30 5861 C 569.863 4.00584 -2.06987 0
M  V30 5862 C 568.525 4.13733 -2.4572 0
M  V30 5863 C 570.877 4.26624 -2.99402 0
M  V30 5864 C 568.205 4.50268 -3.76132 0
M  V30 5865 C 570.557 4.64618 -4.29316 0
M  V30 5866 C 569.221 4.75975 -4.67979 0
M  V30 5867 H 568.491 0.72133 -0.169601 0
M  V30 5868 H 571.138 1.57517 -1.08907 0
M  V30 5869 H 569.443 3.91761 0.0551328 0
M  V30 5870 H 571.14 3.99655 -0.328163 0
M  V30 5871 H 567.73 3.90837 -1.75911 0
M  V30 5872 H 571.914 4.1597 -2.70708 0
M  V30 5873 H 567.17 4.57256 -4.05865 0
M  V30 5874 H 571.344 4.83722 -5.00985 0
M  V30 5875 H 568.971 5.04041 -5.69076 0
M  V30 5876 N 570.547 0.616602 1.45037 0
M  V30 5877 C 571.51 -0.0871112 2.29034 0
M  V30 5878 C 572.51 -0.786414 1.40258 0
M  V30 5879 O 573.7 -0.633207 1.62284 0
M  V30 5880 C 570.832 -1.13369 3.21497 0
M  V30 5881 H 572.025 0.651497 2.92738 0
M  V30 5882 H 569.578 0.376058 1.51709 0
M  V30 5883 H 570.313 -1.90277 2.62612 0
M  V30 5884 H 570.098 -0.636358 3.86902 0
M  V30 5885 H 571.588 -1.62627 3.84633 0
M  V30 5886 N 572.025 -1.5352 0.356285 0
M  V30 5887 C 572.958 -2.2177 -0.537913 0
M  V30 5888 C 573.936 -1.20626 -1.09033 0
M  V30 5889 O 575.12 -1.49494 -1.1482 0
M  V30 5890 C 572.247 -2.90513 -1.74126 0
M  V30 5891 C 571.293 -4.05652 -1.31715 0
M  V30 5892 S 572.126 -5.34505 -0.326236 0
M  V30 5893 C 573.282 -6.06757 -1.53612 0
M  V30 5894 H 573.515 -2.97271 0.0417411 0
M  V30 5895 H 571.048 -1.53761 0.140372 0
M  V30 5896 H 573.006 -3.30735 -2.43155 0
M  V30 5897 H 571.667 -2.14754 -2.29215 0
M  V30 5898 H 570.86 -4.52733 -2.21471 0
M  V30 5899 H 570.462 -3.67272 -0.706183 0
M  V30 5900 H 572.754 -6.30924 -2.46863 0
M  V30 5901 H 573.697 -6.99395 -1.10687 0
M  V30 5902 H 574.105 -5.3708 -1.73796 0
M  V30 5903 N 573.503 -0.0852151 -1.57369 0
M  V30 5904 C 574.752 0.580443 -1.93168 0
M  V30 5905 C 575.065 1.6995 -0.968319 0
M  V30 5906 O 576.271 2.42564 -1.21963 0
M  V30 5907 C 574.727 1.08386 -3.43192 0
M  V30 5908 C 574.335 -0.00491388 -4.48 0
M  V30 5909 C 576.079 1.72281 -3.87968 0
M  V30 5910 C 573.986 0.513299 -5.89168 0
M  V30 5911 H 572.916 0.22059 -0.72101 0
M  V30 5912 H 575.567 -0.159621 -1.82804 0
M  V30 5913 H 573.949 1.8773 -3.48674 0
M  V30 5914 H 575.123 -0.780032 -4.5415 0
M  V30 5915 H 573.438 -0.548453 -4.12772 0
M  V30 5916 H 576.035 2.12108 -4.9083 0
M  V30 5917 H 576.378 2.58811 -3.26071 0
M  V30 5918 H 576.911 0.995359 -3.85146 0
M  V30 5919 H 573.65 -0.315153 -6.54742 0
M  V30 5920 H 573.17 1.25564 -5.8651 0
M  V30 5921 H 574.849 0.985433 -6.39451 0
M  V30 5922 N 574.981 1.5647 0.188427 0
M  V30 5923 C 576.397 1.50204 0.539532 0
M  V30 5924 C 576.597 0.78644 1.85519 0
M  V30 5925 O 575.653 0.339714 2.50204 0
M  V30 5926 C 576.966 2.94893 0.588103 0
M  V30 5927 C 578.514 3.05602 0.67648 0
M  V30 5928 C 578.989 4.51716 0.756101 0
M  V30 5929 N 580.48 4.55894 0.819451 0
M  V30 5930 C 581.215 5.66272 0.90134 0
M  V30 5931 N 580.711 6.86323 0.945118 0
M  V30 5932 N 582.504 5.54201 0.939043 0
M  V30 5933 H 574.655 2.01406 -0.674493 0
M  V30 5934 H 576.918 0.916828 -0.241103 0
M  V30 5935 H 576.624 3.50334 -0.309633 0
M  V30 5936 H 576.498 3.4861 1.44051 0
M  V30 5937 H 578.885 2.50206 1.56465 0
M  V30 5938 H 578.966 2.54999 -0.202262 0
M  V30 5939 H 578.61 5.07739 -0.12774 0
M  V30 5940 H 578.54 5.00058 1.65074 0
M  V30 5941 H 581.031 3.69452 0.794594 0
M  V30 5942 H 581.344 7.66194 1.0083 0
M  V30 5943 H 579.689 6.88968 0.913683 0
M  V30 5944 H 582.88 4.59333 0.901725 0
M  V30 5945 H 583.053 6.40247 0.999402 0
M  V30 5946 N 576.459 -0.456382 1.50847 0
M  V30 5947 C 577.707 -1.20497 1.62249 0
M  V30 5948 C 578.028 -1.92156 0.331839 0
M  V30 5949 O 577.298 -1.84751 -0.651443 0
M  V30 5950 H 575.878 -0.447775 0.597918 0
M  V30 5951 H 578.54 -0.525099 1.87693 0
M  V30 5952 H 577.636 -1.94492 2.44089 0
M  V30 5953 N 577.937 -1.40673 -0.710563 0
M  V30 5954 C 579.185 -1.38947 -1.46759 0
M  V30 5955 C 579.506 0.00572879 -1.94999 0
M  V30 5956 O 578.776 0.961358 -1.70689 0
M  V30 5957 H 577.356 -0.5114 -0.544499 0
M  V30 5958 H 580.018 -1.75773 -0.842012 0
M  V30 5959 H 579.114 -2.06745 -2.33801 0
M  V30 5960 N 579.415 0.9433 -1.26252 0
M  V30 5961 C 580.365 2.02746 -1.04297 0
M  V30 5962 C 581.349 1.60882 0.0239435 0
M  V30 5963 O 582.541 1.75947 -0.192757 0
M  V30 5964 C 579.67 3.36585 -0.6757 0
M  V30 5965 C 578.756 3.84939 -1.77996 0
M  V30 5966 N 579.147 4.05966 -3.01704 0
M  V30 5967 C 577.445 4.13833 -1.66308 0
M  V30 5968 C 578.146 4.45987 -3.73458 0
M  V30 5969 N 577.122 4.52569 -3.01135 0
M  V30 5970 H 580.924 2.17012 -1.98199 0
M  V30 5971 H 578.438 1.12898 -1.16738 0
M  V30 5972 H 580.435 4.13896 -0.499571 0
M  V30 5973 H 579.095 3.2369 0.255863 0
M  V30 5974 H 580.106 3.92716 -3.37631 0
M  V30 5975 H 576.783 4.09739 -0.801267 0
M  V30 5976 H 578.173 4.70465 -4.79701 0
M  V30 5977 N 580.893 1.08022 1.14757 0
M  V30 5978 C 582.139 0.808705 1.85978 0
M  V30 5979 C 582.472 -0.663764 1.82504 0
M  V30 5980 O 581.747 -1.48765 1.25296 0
M  V30 5981 C 582.03 1.32623 3.34788 0
M  V30 5982 C 581.883 2.86375 3.46856 0
M  V30 5983 C 583.202 0.948291 4.29762 0
M  V30 5984 H 580.321 0.295244 0.675278 0
M  V30 5985 H 582.963 1.33917 1.34783 0
M  V30 5986 H 581.113 0.875002 3.78518 0
M  V30 5987 H 582.785 3.39839 3.11941 0
M  V30 5988 H 581.028 3.24232 2.88194 0
M  V30 5989 H 581.699 3.17658 4.51439 0
M  V30 5990 H 584.175 1.33722 3.94028 0
M  V30 5991 H 583.051 1.33765 5.32352 0
M  V30 5992 H 583.312 -0.145094 4.41862 0
M  V30 5993 N 582.371 -1.3172 0.865308 0
M  V30 5994 C 583.648 -1.91574 0.394789 0
M  V30 5995 C 584.028 -1.78769 -1.12271 0
M  V30 5996 O 583.376 -1.19245 -1.94918 0
M  V30 5997 C 583.586 -3.37957 0.870982 0
M  V30 5998 C 584.934 -4.15073 0.894384 0
M  V30 5999 O 585.958 -3.4672 0.816325 0
M  V30 6000 O 584.817 -5.37151 1.00651 0
M  V30 6001 H 581.911 -0.818649 0.117229 0
M  V30 6002 H 584.457 -1.4042 0.952913 0
M  V30 6003 H 583.229 -3.41269 1.91444 0
M  V30 6004 H 582.852 -3.96534 0.290907 0
M  V30 6005 N 583.85 -0.624285 -1.44708 0
M  V30 6006 C 584.779 0.0717025 -2.3339 0
M  V30 6007 C 585.76 0.841814 -1.47809 0
M  V30 6008 O 586.946 0.809056 -1.76544 0
M  V30 6009 C 584.076 1.05852 -3.30776 0
M  V30 6010 C 583.029 0.400503 -4.26122 0
M  V30 6011 C 582.356 1.49674 -5.13324 0
M  V30 6012 C 583.656 -0.688924 -5.17737 0
M  V30 6013 H 585.35 -0.668819 -2.91834 0
M  V30 6014 H 582.896 -0.32308 -1.40329 0
M  V30 6015 H 584.849 1.5541 -3.91696 0
M  V30 6016 H 583.572 1.82984 -2.70526 0
M  V30 6017 H 582.231 -0.0743687 -3.66525 0
M  V30 6018 H 581.88 2.25877 -4.49431 0
M  V30 6019 H 581.58 1.06188 -5.77926 0
M  V30 6020 H 583.104 1.99427 -5.77115 0
M  V30 6021 H 584.518 -0.276724 -5.72632 0
M  V30 6022 H 582.915 -1.04652 -5.90904 0
M  V30 6023 H 583.985 -1.55884 -4.5916 0
M  V30 6024 N 585.328 1.53329 -0.364422 0
M  V30 6025 C 586.556 2.05657 0.226424 0
M  V30 6026 C 586.971 1.23801 1.42544 0
M  V30 6027 O 586.328 0.27839 1.80364 0
M  V30 6028 C 586.379 3.56125 0.621056 0
M  V30 6029 O 586.1 4.34879 -0.530304 0
M  V30 6030 C 587.601 4.24706 1.27041 0
M  V30 6031 H 584.821 0.669806 0.0400056 0
M  V30 6032 H 587.365 1.97714 -0.522456 0
M  V30 6033 H 585.52 3.64223 1.31985 0
M  V30 6034 H 585.934 5.24073 -0.211546 0
M  V30 6035 H 587.408 5.3131 1.49711 0
M  V30 6036 H 587.885 3.78354 2.23036 0
M  V30 6037 H 588.491 4.20858 0.613079 0
M  V30 6038 N 586.806 0.0935595 1.57322 0
M  V30 6039 C 587.739 -0.902505 2.09595 0
M  V30 6040 C 588.717 -1.27732 1.00615 0
M  V30 6041 O 589.901 -1.38283 1.28102 0
M  V30 6042 C 587.028 -2.20416 2.57166 0
M  V30 6043 C 586.074 -1.97932 3.7779 0
M  V30 6044 S 586.907 -1.21873 5.21447 0
M  V30 6045 C 588.063 -2.53273 5.72367 0
M  V30 6046 H 588.296 -0.457797 2.93754 0
M  V30 6047 H 585.829 -0.119694 1.53935 0
M  V30 6048 H 587.787 -2.95217 2.85232 0
M  V30 6049 H 586.448 -2.62008 1.73235 0
M  V30 6050 H 585.641 -2.94316 4.09138 0
M  V30 6051 H 585.243 -1.3126 3.5021 0
M  V30 6052 H 587.535 -3.49256 5.8054 0
M  V30 6053 H 588.478 -2.26505 6.70896 0
M  V30 6054 H 588.886 -2.61475 5.00291 0
M  V30 6055 N 588.284 -1.56567 -0.180126 0
M  V30 6056 C 589.214 -1.98753 -1.22553 0
M  V30 6057 C 590.195 -0.86175 -1.46656 0
M  V30 6058 O 591.38 -1.12719 -1.58139 0
M  V30 6059 C 588.51 -2.33988 -2.56645 0
M  V30 6060 C 587.464 -3.49445 -2.47128 0
M  V30 6061 C 586.79 -3.70397 -3.8563 0
M  V30 6062 C 588.09 -4.83171 -1.98352 0
M  V30 6063 H 589.784 -2.86332 -0.874896 0
M  V30 6064 H 587.33 -1.37757 -0.419414 0
M  V30 6065 H 589.283 -2.62097 -3.29974 0
M  V30 6066 H 588.007 -1.43309 -2.93479 0
M  V30 6067 H 586.666 -3.2145 -1.76254 0
M  V30 6068 H 586.314 -2.77023 -4.19842 0
M  V30 6069 H 586.014 -4.48077 -3.80132 0
M  V30 6070 H 587.538 -4.00897 -4.60558 0
M  V30 6071 H 588.952 -5.10213 -2.61449 0
M  V30 6072 H 587.349 -5.64425 -2.03823 0
M  V30 6073 H 588.419 -4.75753 -0.937402 0
M  V30 6074 N 589.762 0.448376 -1.51087 0
M  V30 6075 C 591.01 1.19635 -1.62886 0
M  V30 6076 C 591.331 1.91977 -0.342024 0
M  V30 6077 O 590.601 1.85094 0.641636 0
M  V30 6078 H 589.181 0.444598 -0.600285 0
M  V30 6079 H 591.843 0.515138 -1.87969 0
M  V30 6080 H 590.939 1.93194 -2.45117 0
M  V30 6081 N 591.24 1.41047 0.703093 0
M  V30 6082 C 592.203 1.42036 1.79884 0
M  V30 6083 C 593.203 0.312153 1.57741 0
M  V30 6084 O 594.393 0.571672 1.64553 0
M  V30 6085 C 591.525 1.22437 3.18154 0
M  V30 6086 H 592.718 2.39572 1.80403 0
M  V30 6087 H 590.271 1.27079 0.909977 0
M  V30 6088 H 591.006 0.257112 3.23279 0
M  V30 6089 H 590.791 2.02723 3.35627 0
M  V30 6090 H 592.281 1.25946 3.98155 0
M  V30 6091 N 592.718 -0.936591 1.26751 0
M  V30 6092 C 593.651 -2.03619 1.03027 0
M  V30 6093 C 594.629 -1.62534 -0.0464619 0
M  V30 6094 O 595.813 -1.88251 0.0968873 0
M  V30 6095 C 592.94 -3.3402 0.561072 0
M  V30 6096 C 591.986 -3.9408 1.63105 0
M  V30 6097 S 592.819 -4.27782 3.22122 0
M  V30 6098 C 593.975 -5.61277 2.76982 0
M  V30 6099 H 594.208 -2.23429 1.96129 0
M  V30 6100 H 591.741 -1.07857 1.10482 0
M  V30 6101 H 593.699 -4.09424 0.297031 0
M  V30 6102 H 592.36 -3.12147 -0.349741 0
M  V30 6103 H 591.553 -4.88154 1.25386 0
M  V30 6104 H 591.155 -3.25227 1.84671 0
M  V30 6105 H 593.447 -6.40189 2.21731 0
M  V30 6106 H 594.39 -6.03887 3.69766 0
M  V30 6107 H 594.798 -5.21374 2.16402 0
M  V30 6108 N 594.196 -1.08629 -1.14182 0
M  V30 6109 C 595.128 -0.676189 -2.18998 0
M  V30 6110 C 596.141 0.277871 -1.60411 0
M  V30 6111 O 597.33 0.0651771 -1.78381 0
M  V30 6112 C 594.43 0.0254916 -3.3889 0
M  V30 6113 C 593.603 -0.948039 -4.27002 0
M  V30 6114 C 592.662 -0.281268 -5.25448 0
M  V30 6115 O 591.688 -0.926378 -5.61611 0
M  V30 6116 N 592.89 0.967923 -5.72374 0
M  V30 6117 H 595.655 -1.57792 -2.54798 0
M  V30 6118 H 593.216 -0.972665 -1.29425 0
M  V30 6119 H 595.208 0.482554 -4.01813 0
M  V30 6120 H 593.778 0.829348 -3.01398 0
M  V30 6121 H 592.998 -1.58388 -3.6098 0
M  V30 6122 H 594.286 -1.60765 -4.82734 0
M  V30 6123 H 593.684 1.51175 -5.45126 0
M  V30 6124 H 592.241 1.36844 -6.37273 0
M  V30 6125 N 595.674 1.31259 -0.872281 0
M  V30 6126 C 596.92 1.96913 -0.485083 0
M  V30 6127 C 597.253 1.68774 0.960667 0
M  V30 6128 O 596.528 0.985495 1.67685 0
M  V30 6129 C 596.811 3.52299 -0.745502 0
M  V30 6130 C 596.664 3.90002 -2.24095 0
M  V30 6131 C 597.983 4.39582 -0.213516 0
M  V30 6132 H 595.102 0.715252 -0.177716 0
M  V30 6133 H 597.744 1.55347 -1.09395 0
M  V30 6134 H 595.894 3.87835 -0.227276 0
M  V30 6135 H 597.566 3.64555 -2.82661 0
M  V30 6136 H 595.809 3.38526 -2.71261 0
M  V30 6137 H 596.48 4.98352 -2.37381 0
M  V30 6138 H 598.956 4.10882 -0.656902 0
M  V30 6139 H 597.832 5.47251 -0.42516 0
M  V30 6140 H 598.093 4.33158 0.884666 0
M  V30 6141 N 597.152 0.631951 1.44375 0
M  V30 6142 C 598.377 0.142146 2.06912 0
M  V30 6143 C 598.802 -1.17456 1.4692 0
M  V30 6144 O 598.16 -1.72074 0.570975 0
M  V30 6145 C 598.208 0.0417952 3.60576 0
M  V30 6146 O 597.312 -1.00194 4.00044 0
M  V30 6147 H 596.653 0.0851491 0.658518 0
M  V30 6148 H 599.183 0.868863 1.85235 0
M  V30 6149 H 599.193 -0.148517 4.0773 0
M  V30 6150 H 597.868 1.0031 4.03622 0
M  V30 6151 H 596.445 -0.786131 3.64519 0
M  V30 6152 N 598.631 -1.53133 0.372548 0
M  V30 6153 C 599.578 -2.25951 -0.470631 0
M  V30 6154 C 600.548 -1.26895 -1.07176 0
M  V30 6155 O 601.733 -1.55691 -1.10294 0
M  V30 6156 C 598.873 -3.05726 -1.6008 0
M  V30 6157 C 597.986 -4.19684 -1.02416 0
M  V30 6158 C 597.121 -4.86888 -2.124 0
M  V30 6159 C 596.16 -5.92866 -1.52238 0
M  V30 6160 N 595.297 -6.53732 -2.56084 0
M  V30 6161 H 600.137 -2.97587 0.156816 0
M  V30 6162 H 597.674 -1.4683 0.0891571 0
M  V30 6163 H 599.632 -3.50258 -2.26661 0
M  V30 6164 H 598.262 -2.36331 -2.1988 0
M  V30 6165 H 597.314 -3.79588 -0.248426 0
M  V30 6166 H 598.626 -4.95821 -0.544366 0
M  V30 6167 H 597.78 -5.34638 -2.86787 0
M  V30 6168 H 596.519 -4.10239 -2.63734 0
M  V30 6169 H 595.524 -5.4447 -0.763685 0
M  V30 6170 H 596.749 -6.71439 -1.0172 0
M  V30 6171 H 594.695 -5.79932 -3.06618 0
M  V30 6172 H 594.612 -7.25429 -2.12811 0
M  V30 6173 H 595.88 -7.0613 -3.30152 0
M  V30 6174 N 600.109 -0.101901 -1.5727 0
M  V30 6175 C 601.339 0.567568 -1.98651 0
M  V30 6176 C 601.747 1.61839 -0.980037 0
M  V30 6177 O 601.09 1.83661 0.0376564 0
M  V30 6178 C 601.152 1.26742 -3.36417 0
M  V30 6179 C 600.816 0.366561 -4.55528 0
M  V30 6180 C 601.813 -0.388022 -5.1845 0
M  V30 6181 C 599.498 0.282629 -5.01504 0
M  V30 6182 C 601.492 -1.21445 -6.25724 0
M  V30 6183 C 599.179 -0.547443 -6.08643 0
M  V30 6184 C 600.177 -1.29462 -6.70618 0
M  V30 6185 O 599.865 -2.11095 -7.7569 0
M  V30 6186 H 599.597 0.156282 -0.657687 0
M  V30 6187 H 602.151 -0.179912 -2.04611 0
M  V30 6188 H 600.381 2.06162 -3.27161 0
M  V30 6189 H 602.07 1.8321 -3.622 0
M  V30 6190 H 602.836 -0.332949 -4.83856 0
M  V30 6191 H 598.715 0.853868 -4.53023 0
M  V30 6192 H 602.259 -1.79814 -6.74027 0
M  V30 6193 H 598.156 -0.603971 -6.42668 0
M  V30 6194 H 598.924 -2.03851 -7.92709 0
M  V30 6195 N 601.587 1.56661 0.17182 0
M  V30 6196 C 602.835 1.81606 0.886774 0
M  V30 6197 C 603.156 0.678818 1.82803 0
M  V30 6198 O 602.426 -0.301354 1.93568 0
M  V30 6199 H 601.006 0.669934 0.330451 0
M  V30 6200 H 603.668 1.94142 0.171757 0
M  V30 6201 H 602.764 2.75634 1.46398 0
M  V30 6202 N 603.065 -0.440357 1.51323 0
M  V30 6203 C 604.342 -1.20109 1.5438 0
M  V30 6204 C 604.722 -2.08866 0.306303 0
M  V30 6205 O 604.07 -2.1723 -0.708773 0
M  V30 6206 C 604.28 -2.00555 2.8562 0
M  V30 6207 C 605.628 -2.577 3.37455 0
M  V30 6208 O 606.652 -2.10769 2.8715 0
M  V30 6209 O 605.511 -3.43289 4.25224 0
M  V30 6210 H 602.605 -0.546668 0.620551 0
M  V30 6211 H 605.151 -0.449672 1.63634 0
M  V30 6212 H 603.923 -1.35346 3.67147 0
M  V30 6213 H 603.546 -2.82768 2.79514 0
M  V30 6214 N 604.543 -1.41418 -0.695603 0
M  V30 6215 C 605.473 -1.46035 -1.82197 0
M  V30 6216 C 606.454 -0.319025 -1.67082 0
M  V30 6217 O 607.639 -0.530462 -1.86815 0
M  V30 6218 C 604.769 -1.34179 -3.20333 0
M  V30 6219 C 603.723 -2.46123 -3.50154 0
M  V30 6220 C 603.049 -2.19332 -4.87645 0
M  V30 6221 C 604.349 -3.88463 -3.49133 0
M  V30 6222 H 606.043 -2.40303 -1.78591 0
M  V30 6223 H 603.589 -1.15663 -0.857797 0
M  V30 6224 H 605.542 -1.36021 -3.98844 0
M  V30 6225 H 604.266 -0.363952 -3.24566 0
M  V30 6226 H 602.925 -2.43563 -2.73994 0
M  V30 6227 H 602.573 -1.19891 -4.88503 0
M  V30 6228 H 602.273 -2.94344 -5.08562 0
M  V30 6229 H 603.797 -2.22889 -5.68465 0
M  V30 6230 H 605.211 -3.92738 -4.17648 0
M  V30 6231 H 603.608 -4.63158 -3.81582 0
M  V30 6232 H 604.678 -4.16617 -2.48109 0
M  V30 6233 N 606.021 0.929856 -1.27246 0
M  V30 6234 C 606.984 2.01172 -1.09829 0
M  V30 6235 C 607.984 1.60743 -0.0429687 0
M  V30 6236 O 609.174 1.71813 -0.287373 0
M  V30 6237 C 606.306 3.34191 -0.673003 0
M  V30 6238 H 607.499 2.18054 -2.05895 0
M  V30 6239 H 605.052 1.11036 -1.10003 0
M  V30 6240 H 605.787 3.23009 0.289134 0
M  V30 6241 H 605.572 3.64892 -1.43515 0
M  V30 6242 H 607.062 4.13646 -0.573323 0
M  V30 6243 N 607.499 1.09233 1.13605 0
M  V30 6244 C 608.447 0.724572 2.21027 0
M  V30 6245 C 609.441 -0.273595 1.67176 0
M  V30 6246 O 610.647 -0.135266 1.79491 0
M  V30 6247 H 607.022 0.216319 0.720215 0
M  V30 6248 H 608.993 1.63975 2.49309 0
M  V30 6249 C 607.742 0.159126 3.47336 0
M  V30 6250 H 607.065 0.918387 3.89109 0
M  V30 6251 H 608.505 -0.0602851 4.23957 0
M  V30 6252 C 606.964 -1.10514 3.18258 0
M  V30 6253 O 607.494 -2.18869 3.36837 0
M  V30 6254 N 605.7 -1.01886 2.72154 0
M  V30 6255 H 605.247 -0.137027 2.57235 0
M  V30 6256 H 605.205 -1.8655 2.53074 0
M  V30 6257 N 608.977 -1.30795 0.87923 0
M  V30 6258 C 610.223 -1.97035 0.50487 0
M  V30 6259 C 610.578 -1.68182 -0.934484 0
M  V30 6260 O 609.871 -0.972953 -1.65058 0
M  V30 6261 C 610.065 -3.50287 0.709476 0
M  V30 6262 C 609.894 -3.94035 2.16717 0
M  V30 6263 C 608.664 -4.1992 2.81061 0
M  V30 6264 C 610.862 -4.07288 3.1404 0
M  V30 6265 N 608.844 -4.50088 4.17486 0
M  V30 6266 C 610.215 -4.41273 4.35521 0
M  V30 6267 C 612.27 -3.89696 3.09906 0
M  V30 6268 C 610.973 -4.59501 5.534 0
M  V30 6269 C 612.999 -4.09122 4.27052 0
M  V30 6270 C 612.361 -4.43447 5.47297 0
M  V30 6271 H 608.46 -0.746181 0.233962 0
M  V30 6272 H 611.044 -1.5814 1.13577 0
M  V30 6273 H 609.215 -3.8825 0.108108 0
M  V30 6274 H 610.947 -4.03567 0.302585 0
M  V30 6275 H 607.702 -4.12906 2.3196 0
M  V30 6276 H 608.126 -4.69316 4.87926 0
M  V30 6277 H 612.768 -3.62239 2.18043 0
M  V30 6278 H 610.486 -4.85802 6.45773 0
M  V30 6279 H 614.072 -3.96985 4.25316 0
M  V30 6280 H 612.952 -4.58171 6.36435 0
M  V30 6281 N 610.455 -0.639598 -1.44038 0
M  V30 6282 C 611.388 0.109736 -2.27936 0
M  V30 6283 C 612.366 0.843095 -1.39035 0
M  V30 6284 O 613.55 0.845456 -1.68476 0
M  V30 6285 C 610.677 1.16173 -3.18153 0
M  V30 6286 C 609.723 0.527954 -4.2322 0
M  V30 6287 S 610.556 -0.688318 -5.31058 0
M  V30 6288 C 611.712 0.363481 -6.24844 0
M  V30 6289 H 611.945 -0.601986 -2.91142 0
M  V30 6290 H 609.478 -0.42802 -1.48349 0
M  V30 6291 H 611.436 1.76372 -3.7068 0
M  V30 6292 H 610.097 1.84569 -2.54151 0
M  V30 6293 H 609.29 1.32054 -4.86393 0
M  V30 6294 H 608.892 0.000396444 -3.74 0
M  V30 6295 H 611.184 1.23362 -6.66174 0
M  V30 6296 H 612.127 -0.23288 -7.07717 0
M  V30 6297 H 612.535 0.693179 -5.60228 0
M  V30 6298 N 611.933 1.52934 -0.380664 0
M  V30 6299 C 613.182 2.00651 0.205477 0
M  V30 6300 C 613.495 1.27164 1.48623 0
M  V30 6301 O 614.701 1.65547 2.15189 0
M  V30 6302 C 613.157 3.57479 0.416726 0
M  V30 6303 C 612.765 4.39857 -0.850268 0
M  V30 6304 C 614.509 4.13509 0.959702 0
M  V30 6305 C 612.416 5.88269 -0.607773 0
M  V30 6306 H 611.346 0.749684 0.0805614 0
M  V30 6307 H 613.997 1.76508 -0.501732 0
M  V30 6308 H 612.379 3.77836 1.18557 0
M  V30 6309 H 613.553 4.31269 -1.62307 0
M  V30 6310 H 611.868 3.95005 -1.31756 0
M  V30 6311 H 614.465 5.22039 1.15669 0
M  V30 6312 H 614.808 3.69054 1.92626 0
M  V30 6313 H 615.341 3.9701 0.250645 0
M  V30 6314 H 612.08 6.3703 -1.54509 0
M  V30 6315 H 611.6 5.99667 0.126247 0
M  V30 6316 H 613.279 6.46558 -0.239014 0
M  V30 6317 N 613.412 0.11024 1.57214 0
M  V30 6318 C 614.823 -0.416527 1.81994 0
M  V30 6319 C 615.174 -1.67183 1.02686 0
M  V30 6320 O 614.299 -2.14823 0.260782 0
M  V30 6321 C 614.894 -0.762466 3.30109 0
M  V30 6322 C 613.453 -1.23391 3.556 0
M  V30 6323 C 612.6 -0.238166 2.76275 0
M  V30 6324 H 615.551 0.335491 1.55113 0
M  V30 6325 H 615.572 -1.62068 3.44259 0
M  V30 6326 H 615.084 0.151346 3.87805 0
M  V30 6327 H 613.185 -2.16492 3.03253 0
M  V30 6328 H 613.298 -1.18528 4.64207 0
M  V30 6329 H 611.662 -0.723421 2.4421 0
M  V30 6330 H 612.445 0.668591 3.36727 0
M  V30 6331 N 614.89 -1.56749 -0.16351 0
M  V30 6332 C 616.138 -1.82074 -0.87713 0
M  V30 6333 C 616.459 -0.688503 -1.82441 0
M  V30 6334 O 615.729 0.291085 -1.93725 0
M  V30 6335 H 614.309 -0.671677 -0.326893 0
M  V30 6336 H 616.971 -1.9423 -0.161459 0
M  V30 6337 H 616.067 -2.76407 -1.44934 0
M  V30 6338 N 616.368 0.432326 -1.51554 0
M  V30 6339 C 617.315 1.52512 -1.7323 0
M  V30 6340 C 618.285 1.55863 -0.5741 0
M  V30 6341 O 619.47 1.72796 -0.809093 0
M  V30 6342 C 616.61 2.90183 -1.86783 0
M  V30 6343 C 615.723 2.96322 -3.14352 0
M  V30 6344 C 614.858 4.25147 -3.18471 0
M  V30 6345 C 613.897 4.25172 -4.40335 0
M  V30 6346 N 613.034 5.45529 -4.41975 0
M  V30 6347 H 617.874 1.33332 -2.66508 0
M  V30 6348 H 615.411 0.647613 -1.32077 0
M  V30 6349 H 617.369 3.70071 -1.92623 0
M  V30 6350 H 615.999 3.0791 -0.969087 0
M  V30 6351 H 615.051 2.09066 -3.17798 0
M  V30 6352 H 616.363 2.92203 -4.04251 0
M  V30 6353 H 615.517 5.13411 -3.23255 0
M  V30 6354 H 614.256 4.31929 -2.2647 0
M  V30 6355 H 613.261 3.353 -4.35723 0
M  V30 6356 H 614.486 4.20049 -5.33606 0
M  V30 6357 H 612.432 5.53024 -3.52847 0
M  V30 6358 H 612.349 5.43311 -5.25689 0
M  V30 6359 H 613.617 6.35812 -4.50958 0
M  V30 6360 N 617.846 1.41785 0.688094 0
M  V30 6361 C 618.779 1.38643 1.81255 0
M  V30 6362 C 619.757 0.252583 1.60626 0
M  V30 6363 O 620.941 0.440691 1.83276 0
M  V30 6364 C 618.068 1.16449 3.18053 0
M  V30 6365 C 617.114 2.32651 3.57457 0
M  V30 6366 S 617.947 3.95152 3.61407 0
M  V30 6367 C 619.103 3.75275 5.00919 0
M  V30 6368 H 619.336 2.33799 1.83644 0
M  V30 6369 H 616.869 1.28398 0.857513 0
M  V30 6370 H 618.827 1.0433 3.97021 0
M  V30 6371 H 617.488 0.229002 3.13264 0
M  V30 6372 H 616.681 2.12835 4.56856 0
M  V30 6373 H 616.283 2.41215 2.85817 0
M  V30 6374 H 618.575 3.35443 5.88629 0
M  V30 6375 H 619.518 4.74302 5.25778 0
M  V30 6376 H 619.926 3.08401 4.7281 0
M  V30 6377 N 619.324 -0.923095 1.27737 0
M  V30 6378 C 620.57 -1.67375 1.14514 0
M  V30 6379 C 620.903 -1.91751 -0.307424 0
M  V30 6380 O 620.178 -1.51119 -1.22447 0
M  V30 6381 C 620.461 -3.03745 1.9342 0
M  V30 6382 C 620.314 -2.86581 3.46686 0
M  V30 6383 C 621.633 -4.04144 1.74228 0
M  V30 6384 H 618.752 -0.607427 0.417374 0
M  V30 6385 H 621.394 -1.07089 1.56946 0
M  V30 6386 H 619.544 -3.55204 1.5736 0
M  V30 6387 H 621.216 -2.42203 3.92601 0
M  V30 6388 H 619.459 -2.21829 3.72793 0
M  V30 6389 H 620.13 -3.83381 3.97143 0
M  V30 6390 H 622.606 -3.61712 2.05678 0
M  V30 6391 H 621.482 -4.97543 2.31824 0
M  V30 6392 H 621.743 -4.36661 0.691373 0
M  V30 6393 N 620.802 -1.09834 -1.13024 0
M  V30 6394 C 621.749 -0.741522 -2.18564 0
M  V30 6395 C 622.719 0.279236 -1.63736 0
M  V30 6396 O 623.904 0.159923 -1.90129 0
M  V30 6397 C 621.044 -0.17277 -3.44667 0
M  V30 6398 C 620.157 -1.24808 -4.13578 0
M  V30 6399 C 619.292 -0.641631 -5.27311 0
M  V30 6400 C 618.331 -1.69795 -5.88078 0
M  V30 6401 N 617.468 -1.11223 -6.93234 0
M  V30 6402 H 622.308 -1.64576 -2.48432 0
M  V30 6403 H 619.845 -0.822174 -1.21978 0
M  V30 6404 H 621.803 0.17482 -4.16834 0
M  V30 6405 H 620.433 0.694725 -3.15235 0
M  V30 6406 H 619.485 -1.71288 -3.39653 0
M  V30 6407 H 620.797 -2.04795 -4.54819 0
M  V30 6408 H 619.951 -0.243128 -6.06213 0
M  V30 6409 H 618.69 0.189742 -4.87331 0
M  V30 6410 H 617.695 -2.10595 -5.07868 0
M  V30 6411 H 618.92 -2.53206 -6.3013 0
M  V30 6412 H 616.866 -0.302208 -6.55304 0
M  V30 6413 H 616.783 -1.84901 -7.3304 0
M  V30 6414 H 618.051 -0.740068 -7.75979 0
M  V30 6415 N 622.28 1.30327 -0.886154 0
M  V30 6416 C 623.528 1.9571 -0.504195 0
M  V30 6417 C 623.849 1.70294 0.950003 0
M  V30 6418 O 623.119 1.02718 1.66811 0
M  V30 6419 H 621.699 0.72412 -0.183465 0
M  V30 6420 H 624.361 1.58835 -1.12949 0
M  V30 6421 H 623.457 3.04704 -0.675431 0
M  V30 6422 N 623.758 0.647228 1.43697 0
M  V30 6423 C 624.691 -0.097646 2.27991 0
M  V30 6424 C 625.669 -0.83571 1.3948 0
M  V30 6425 O 626.853 -0.836509 1.68922 0
M  V30 6426 C 623.98 -1.14484 3.18765 0
M  V30 6427 C 623.026 -0.505503 4.23494 0
M  V30 6428 S 623.859 0.716471 5.30685 0
M  V30 6429 C 625.015 -0.330339 6.25028 0
M  V30 6430 H 625.248 0.617417 2.90818 0
M  V30 6431 H 622.781 0.435881 1.4812 0
M  V30 6432 H 624.739 -1.74403 3.7161 0
M  V30 6433 H 623.4 -1.83219 2.55127 0
M  V30 6434 H 622.593 -1.29473 4.87086 0
M  V30 6435 H 622.195 0.0194377 3.73995 0
M  V30 6436 H 624.487 -1.19828 6.66819 0
M  V30 6437 H 625.43 0.270409 7.07583 0
M  V30 6438 H 625.838 -0.663459 5.60588 0
M  V30 6439 N 625.236 -1.5273 0.388769 0
M  V30 6440 C 626.484 -2.01174 -0.193208 0
M  V30 6441 C 626.805 -1.27705 -1.47365 0
M  V30 6442 O 626.075 -0.396966 -1.91836 0
M  V30 6443 H 624.655 -0.743287 -0.0743871 0
M  V30 6444 H 627.317 -1.87826 0.520336 0
M  V30 6445 H 626.413 -3.09477 -0.403803 0
M  V30 6446 N 626.714 -0.118576 -1.57153 0
M  V30 6447 C 627.962 0.538461 -1.94795 0
M  V30 6448 C 628.283 1.67243 -1.00274 0
M  V30 6449 O 627.553 1.95811 -0.0589692 0
M  V30 6450 H 626.133 0.201904 -0.719197 0
M  V30 6451 H 628.795 -0.187418 -1.93997 0
M  V30 6452 H 627.891 0.933315 -2.97818 0
M  V30 6453 N 628.193 1.56834 0.155195 0
M  V30 6454 C 629.156 1.96748 1.17571 0
M  V30 6455 C 630.156 0.853006 1.3631 0
M  V30 6456 O 631.346 1.11978 1.33441 0
M  V30 6457 C 628.478 2.27631 2.53765 0
M  V30 6458 H 629.671 2.88085 0.833498 0
M  V30 6459 H 627.224 1.51141 0.398242 0
M  V30 6460 H 627.959 1.39059 2.92973 0
M  V30 6461 H 627.744 3.0888 2.41527 0
M  V30 6462 H 629.234 2.59377 3.27282 0
M  V30 6463 N 629.671 -0.424282 1.51781 0
M  V30 6464 C 630.604 -1.53633 1.68737 0
M  V30 6465 C 631.582 -1.53549 0.534915 0
M  V30 6466 O 632.766 -1.72483 0.760391 0
M  V30 6467 C 629.893 -2.92195 1.71288 0
M  V30 6468 C 628.939 -3.10251 2.92654 0
M  V30 6469 S 629.772 -2.85166 4.53256 0
M  V30 6470 C 630.928 -4.25986 4.58571 0
M  V30 6471 H 631.161 -1.39018 2.62795 0
M  V30 6472 H 628.694 -0.614854 1.41629 0
M  V30 6473 H 630.652 -3.72059 1.73443 0
M  V30 6474 H 629.313 -3.04162 0.783847 0
M  V30 6475 H 628.506 -4.1159 2.90877 0
M  V30 6476 H 628.108 -2.38231 2.88308 0
M  V30 6477 H 630.4 -5.19392 4.35015 0
M  V30 6478 H 631.343 -4.32792 5.60444 0
M  V30 6479 H 631.751 -4.1025 3.87757 0
M  V30 6480 N 631.149 -1.42148 -0.680565 0
M  V30 6481 C 632.426 -1.32795 -1.43614 0
M  V30 6482 C 632.806 0.037415 -2.11067 0
M  V30 6483 O 632.154 1.05258 -2.02813 0
M  V30 6484 C 632.364 -2.49206 -2.44331 0
M  V30 6485 C 633.712 -2.91059 -3.09144 0
M  V30 6486 O 634.736 -2.49054 -2.54657 0
M  V30 6487 O 633.595 -3.63741 -4.07866 0
M  V30 6488 H 630.689 -0.523397 -0.640301 0
M  V30 6489 H 633.235 -1.54144 -0.709775 0
M  V30 6490 H 632.007 -3.40252 -1.93247 0
M  V30 6491 H 631.63 -2.29813 -3.24456 0
M  V30 6492 N 632.627 0.916307 -1.28225 0
M  V30 6493 C 633.557 2.0352 -1.14464 0
M  V30 6494 C 634.538 1.70045 -0.0430844 0
M  V30 6495 O 635.723 1.92954 -0.219619 0
M  V30 6496 C 632.853 3.37889 -0.803027 0
M  V30 6497 C 631.807 3.85516 -1.85908 0
M  V30 6498 C 631.133 5.1682 -1.37116 0
M  V30 6499 C 632.433 4.07655 -3.26519 0
M  V30 6500 H 634.127 2.1529 -2.08064 0
M  V30 6501 H 631.673 1.03446 -1.00174 0
M  V30 6502 H 633.626 4.15654 -0.693537 0
M  V30 6503 H 632.35 3.26164 0.168674 0
M  V30 6504 H 631.009 3.09953 -1.95767 0
M  V30 6505 H 630.657 5.01497 -0.38859 0
M  V30 6506 H 630.357 5.49657 -2.07728 0
M  V30 6507 H 631.881 5.97143 -1.27484 0
M  V30 6508 H 633.295 4.75953 -3.19596 0
M  V30 6509 H 631.692 4.51818 -3.94943 0
M  V30 6510 H 632.762 3.12553 -3.70727 0
M  V30 6511 N 634.105 1.10431 1.1244 0
M  V30 6512 C 635.351 0.847972 1.84221 0
M  V30 6513 C 635.684 -0.624903 1.83871 0
M  V30 6514 O 634.959 -1.46074 1.28423 0
M  V30 6515 C 635.242 1.39695 3.319 0
M  V30 6516 C 635.095 2.93668 3.40704 0
M  V30 6517 C 636.414 1.03924 4.27654 0
M  V30 6518 H 633.533 0.309502 0.668863 0
M  V30 6519 H 636.175 1.36745 1.31912 0
M  V30 6520 H 634.325 0.955095 3.76577 0
M  V30 6521 H 635.997 3.46379 3.04662 0
M  V30 6522 H 634.24 3.30272 2.81252 0
M  V30 6523 H 634.911 3.27162 4.446 0
M  V30 6524 H 637.387 1.42049 3.91102 0
M  V30 6525 H 636.263 1.45027 5.29394 0
M  V30 6526 H 636.524 -0.051336 4.4207 0
M  V30 6527 N 635.583 -1.29855 0.893053 0
M  V30 6528 C 636.808 -2.00512 0.530066 0
M  V30 6529 C 637.233 -1.66446 -0.876199 0
M  V30 6530 O 636.591 -0.885446 -1.58207 0
M  V30 6531 C 636.639 -3.53308 0.721505 0
M  V30 6532 O 635.743 -4.11764 -0.228994 0
M  V30 6533 H 635.084 -0.630617 0.207891 0
M  V30 6534 H 637.614 -1.6551 1.20282 0
M  V30 6535 H 637.624 -4.03206 0.623599 0
M  V30 6536 H 636.299 -3.77439 1.74678 0
M  V30 6537 H 634.876 -3.72805 -0.0841034 0
M  V30 6538 N 637.061 -0.65484 -1.43351 0
M  V30 6539 C 638.286 -0.175046 -2.0666 0
M  V30 6540 C 638.711 1.15104 -1.4877 0
M  V30 6541 O 638.069 1.71144 -0.598279 0
M  V30 6542 C 638.117 -0.0991544 -3.60464 0
M  V30 6543 O 637.221 0.938169 -4.01587 0
M  V30 6544 H 636.562 -0.0956148 -0.65708 0
M  V30 6545 H 639.092 -0.898222 -1.83829 0
M  V30 6546 H 639.102 0.083632 -4.07914 0
M  V30 6547 H 637.777 -1.06719 -4.01975 0
M  V30 6548 H 636.354 0.72804 -3.65724 0
M  V30 6549 N 638.539 1.52521 -0.396863 0
M  V30 6550 C 639.502 2.2527 0.422604 0
M  V30 6551 C 640.502 1.27184 0.983913 0
M  V30 6552 O 641.692 1.51222 0.864723 0
M  V30 6553 C 638.824 3.01356 1.59365 0
M  V30 6554 H 640.017 2.99133 -0.214416 0
M  V30 6555 H 637.57 1.55587 -0.149128 0
M  V30 6556 H 638.305 2.31813 2.26789 0
M  V30 6557 H 638.09 3.73357 1.19779 0
M  V30 6558 H 639.58 3.56571 2.17363 0
M  V30 6559 N 640.017 0.126909 1.57088 0
M  V30 6560 C 640.964 -0.82036 2.15728 0
M  V30 6561 C 641.934 -1.25811 1.08447 0
M  V30 6562 O 643.119 -1.33422 1.36393 0
M  V30 6563 C 640.259 -2.06199 2.76724 0
M  V30 6564 C 639.372 -1.67188 3.98337 0
M  V30 6565 C 638.507 -2.86378 4.47393 0
M  V30 6566 C 637.546 -2.43644 5.61519 0
M  V30 6567 N 636.683 -3.55775 6.05284 0
M  V30 6568 H 641.523 -0.313472 2.96347 0
M  V30 6569 H 639.06 -0.14303 1.46403 0
M  V30 6570 H 641.018 -2.78959 3.10222 0
M  V30 6571 H 639.648 -2.54333 1.98782 0
M  V30 6572 H 638.7 -0.842714 3.70948 0
M  V30 6573 H 640.012 -1.31789 4.81075 0
M  V30 6574 H 639.166 -3.67353 4.82842 0
M  V30 6575 H 637.905 -3.25009 3.63621 0
M  V30 6576 H 636.91 -1.61104 5.25667 0
M  V30 6577 H 638.135 -2.06122 6.47063 0
M  V30 6578 H 636.081 -3.94065 5.24451 0
M  V30 6579 H 635.998 -3.24325 6.82898 0
M  V30 6580 H 637.266 -4.37166 6.45373 0
M  V30 6581 N 641.495 -1.56914 -0.146875 0
M  V30 6582 C 642.723 -1.87515 -0.874394 0
M  V30 6583 C 643.138 -0.715116 -1.74733 0
M  V30 6584 O 642.495 0.315113 -1.79759 0
M  V30 6585 C 642.546 -3.17362 -1.731 0
M  V30 6586 O 642.267 -4.28897 -0.893245 0
M  V30 6587 C 643.768 -3.61479 -2.56609 0
M  V30 6588 H 640.988 -0.621546 -0.252827 0
M  V30 6589 H 643.532 -2.04023 -0.139627 0
M  V30 6590 H 641.687 -3.02608 -2.41883 0
M  V30 6591 H 642.101 -5.03146 -1.48137 0
M  V30 6592 H 643.575 -4.5517 -3.12289 0
M  V30 6593 H 644.052 -2.86773 -3.32653 0
M  V30 6594 H 644.658 -3.78927 -1.93117 0
M  V30 6595 N 642.974 0.416227 -1.52004 0
M  V30 6596 C 643.921 1.50666 -1.74838 0
M  V30 6597 C 644.891 1.55245 -0.590599 0
M  V30 6598 O 646.076 1.71928 -0.827374 0
M  V30 6599 C 643.216 2.88185 -1.89851 0
M  V30 6600 C 642.329 2.92971 -3.17478 0
M  V30 6601 C 641.464 4.21745 -3.22962 0
M  V30 6602 C 640.503 4.20478 -4.4482 0
M  V30 6603 N 639.64 5.40811 -4.47736 0
M  V30 6604 H 644.48 1.30498 -2.67907 0
M  V30 6605 H 642.017 0.633568 -1.32757 0
M  V30 6606 H 643.975 3.68007 -1.96537 0
M  V30 6607 H 642.605 3.06865 -1.00169 0
M  V30 6608 H 641.657 2.05684 -3.19997 0
M  V30 6609 H 642.969 2.87899 -4.07328 0
M  V30 6610 H 642.123 5.09954 -3.28682 0
M  V30 6611 H 640.862 4.29503 -2.31038 0
M  V30 6612 H 639.867 3.30659 -4.39254 0
M  V30 6613 H 641.092 4.14366 -5.38031 0
M  V30 6614 H 639.038 5.4925 -3.58692 0
M  V30 6615 H 638.955 5.37705 -5.31422 0
M  V30 6616 H 640.223 6.30993 -4.57676 0
M  V30 6617 N 644.452 1.42507 0.673017 0
M  V30 6618 C 645.698 1.43284 1.43519 0
M  V30 6619 C 646.031 0.049668 1.94136 0
M  V30 6620 O 645.306 -0.926369 1.71022 0
M  V30 6621 C 645.589 2.45874 2.63093 0
M  V30 6622 C 645.442 3.93388 2.18096 0
M  V30 6623 C 646.761 2.45431 3.6531 0
M  V30 6624 H 643.88 0.521752 0.520522 0
M  V30 6625 H 646.522 1.73932 0.764701 0
M  V30 6626 H 644.672 2.19869 3.20296 0
M  V30 6627 H 646.344 4.30379 1.66046 0
M  V30 6628 H 644.587 4.07169 1.49652 0
M  V30 6629 H 645.258 4.60752 3.03993 0
M  V30 6630 H 647.734 2.68561 3.17827 0
M  V30 6631 H 646.61 3.19189 4.46553 0
M  V30 6632 H 646.871 1.48092 4.16559 0
M  V30 6633 N 645.93 -0.909495 1.28709 0
M  V30 6634 C 647.176 -1.66151 1.16283 0
M  V30 6635 C 647.509 -1.92067 -0.287069 0
M  V30 6636 O 646.784 -1.52409 -1.20837 0
M  V30 6637 C 647.067 -3.01676 1.9663 0
M  V30 6638 C 646.92 -2.82888 3.49707 0
M  V30 6639 C 648.239 -4.02274 1.78504 0
M  V30 6640 H 645.358 -0.602966 0.423793 0
M  V30 6641 H 648 -1.05418 1.58073 0
M  V30 6642 H 646.15 -3.53515 1.61119 0
M  V30 6643 H 647.822 -2.38026 3.95147 0
M  V30 6644 H 646.065 -2.17862 3.75125 0
M  V30 6645 H 646.736 -3.79147 4.01187 0
M  V30 6646 H 649.212 -3.59511 2.09503 0
M  V30 6647 H 648.088 -4.95056 2.37088 0
M  V30 6648 H 648.349 -4.35903 0.737647 0
M  V30 6649 N 647.408 -1.11026 -1.11852 0
M  V30 6650 C 648.654 -0.857729 -1.83768 0
M  V30 6651 C 648.987 0.615143 -1.842 0
M  V30 6652 O 648.262 1.45391 -1.29196 0
M  V30 6653 C 648.545 -1.41453 -3.31154 0
M  V30 6654 C 648.398 -2.95471 -3.39142 0
M  V30 6655 C 649.717 -1.0619 -4.27097 0
M  V30 6656 H 646.836 -0.313044 -0.667212 0
M  V30 6657 H 649.478 -1.37443 -1.31185 0
M  V30 6658 H 647.628 -0.975052 -3.76065 0
M  V30 6659 H 649.3 -3.4799 -3.02821 0
M  V30 6660 H 647.543 -3.31759 -2.79497 0
M  V30 6661 H 648.214 -3.29515 -4.42859 0
M  V30 6662 H 650.69 -1.44122 -3.90344 0
M  V30 6663 H 649.566 -1.47832 -5.28618 0
M  V30 6664 H 649.827 0.0278912 -4.42091 0
M  V30 6665 N 648.886 1.2938 -0.899927 0
M  V30 6666 C 650.114 1.99691 -0.541386 0
M  V30 6667 C 650.529 1.67355 0.873936 0
M  V30 6668 O 649.886 0.918728 1.57688 0
M  V30 6669 C 649.937 3.54168 -0.72438 0
M  V30 6670 O 649.658 3.85359 -2.08399 0
M  V30 6671 C 651.159 4.41746 -0.370819 0
M  V30 6672 H 648.379 0.638037 -0.207726 0
M  V30 6673 H 650.923 1.6491 -1.20934 0
M  V30 6674 H 649.078 3.87261 -0.103607 0
M  V30 6675 H 649.492 4.80032 -2.11352 0
M  V30 6676 H 650.966 5.49256 -0.549693 0
M  V30 6677 H 651.443 4.33712 0.692148 0
M  V30 6678 H 652.049 4.14125 -0.968543 0
M  V30 6679 N 650.364 0.662433 1.43002 0
M  V30 6680 C 651.297 -0.073459 2.28082 0
M  V30 6681 C 652.275 -0.820869 1.40358 0
M  V30 6682 O 653.459 -0.818545 1.698 0
M  V30 6683 C 650.586 -1.11097 3.19961 0
M  V30 6684 C 649.632 -0.460557 4.24006 0
M  V30 6685 S 650.465 0.772717 5.29896 0
M  V30 6686 C 651.621 -0.264028 6.25343 0
M  V30 6687 H 651.854 0.648227 2.90147 0
M  V30 6688 H 649.387 0.451566 1.47649 0
M  V30 6689 H 651.345 -1.70452 3.73439 0
M  V30 6690 H 650.006 -1.80503 2.57056 0
M  V30 6691 H 649.199 -1.24299 4.88432 0
M  V30 6692 H 648.801 0.0591038 3.73953 0
M  V30 6693 H 651.093 -1.12748 6.68052 0
M  V30 6694 H 652.036 0.345443 7.07257 0
M  V30 6695 H 652.444 -0.603964 5.6126 0
M  V30 6696 N 651.842 -1.52309 0.404946 0
M  V30 6697 C 652.752 -2.30634 -0.429555 0
M  V30 6698 C 653.768 -1.38187 -1.05737 0
M  V30 6699 O 654.944 -1.71261 -1.05979 0
M  V30 6700 C 652.009 -3.10947 -1.53339 0
M  V30 6701 C 651.07 -4.19126 -0.929065 0
M  V30 6702 C 650.303 -4.95601 -1.9803 0
M  V30 6703 O 650.526 -4.72331 -3.1978 0
M  V30 6704 O 649.46 -5.80551 -1.58886 0
M  V30 6705 H 653.286 -3.0298 0.208963 0
M  V30 6706 H 650.871 -1.4845 0.168255 0
M  V30 6707 H 652.753 -3.60974 -2.1743 0
M  V30 6708 H 651.428 -2.41399 -2.15658 0
M  V30 6709 H 650.335 -3.73257 -0.250982 0
M  V30 6710 H 651.668 -4.90955 -0.349855 0
M  V30 6711 N 653.32 -0.135238 -1.57019 0
M  V30 6712 C 654.27 0.820408 -2.12728 0
M  V30 6713 C 655.254 1.21735 -1.05211 0
M  V30 6714 O 656.446 1.18574 -1.31413 0
M  V30 6715 C 653.575 2.06414 -2.74314 0
M  V30 6716 C 652.661 1.69083 -3.88937 0
M  V30 6717 N 653.052 1.0251 -4.95303 0
M  V30 6718 C 651.35 1.98434 -3.99425 0
M  V30 6719 C 652.051 0.846749 -5.75504 0
M  V30 6720 N 651.027 1.3769 -5.25873 0
M  V30 6721 H 654.829 0.302426 -2.9234 0
M  V30 6722 H 652.343 0.0667009 -1.62263 0
M  V30 6723 H 654.34 2.75863 -3.12579 0
M  V30 6724 H 653 2.58741 -1.96171 0
M  V30 6725 H 654.011 0.687207 -5.1332 0
M  V30 6726 H 650.688 2.52693 -3.32344 0
M  V30 6727 H 652.078 0.322949 -6.71123 0
M  V30 6728 N 654.798 1.5699 0.138552 0
M  V30 6729 C 656.023 1.88344 0.86841 0
M  V30 6730 C 656.448 0.725159 1.7356 0
M  V30 6731 O 655.806 -0.324992 1.78363 0
M  V30 6732 C 655.854 3.18334 1.69398 0
M  V30 6733 O 654.958 3.02863 2.79907 0
M  V30 6734 H 654.299 0.618577 0.241367 0
M  V30 6735 H 656.829 2.04207 0.126826 0
M  V30 6736 H 656.839 3.50567 2.08726 0
M  V30 6737 H 655.514 4.02238 1.05725 0
M  V30 6738 H 654.091 2.82056 2.43924 0
M  V30 6739 N 656.276 -0.40816 1.52223 0
M  V30 6740 C 657.239 -1.48 1.7501 0
M  V30 6741 C 658.239 -1.48367 0.619996 0
M  V30 6742 O 659.429 -1.49874 0.887881 0
M  V30 6743 C 656.561 -2.87403 1.83336 0
M  V30 6744 H 657.754 -1.29086 2.70697 0
M  V30 6745 H 655.307 -0.638715 1.42654 0
M  V30 6746 H 656.042 -3.11686 0.895677 0
M  V30 6747 H 655.827 -2.8854 2.65494 0
M  V30 6748 H 657.317 -3.65103 2.02705 0
M  V30 6749 N 657.755 -1.42862 -0.66545 0
M  V30 6750 C 658.702 -1.4707 -1.77874 0
M  V30 6751 C 659.672 -0.321654 -1.62956 0
M  V30 6752 O 660.857 -0.52707 -1.83376 0
M  V30 6753 C 657.997 -1.38788 -3.15962 0
M  V30 6754 C 657.11 -2.63801 -3.42101 0
M  V30 6755 C 656.245 -2.47594 -4.69969 0
M  V30 6756 C 655.284 -3.67936 -4.89172 0
M  V30 6757 N 654.421 -3.50614 -6.08288 0
M  V30 6758 H 659.261 -2.42204 -1.73613 0
M  V30 6759 H 656.798 -1.20239 -0.847401 0
M  V30 6760 H 658.756 -1.31982 -3.95773 0
M  V30 6761 H 657.386 -0.472431 -3.19324 0
M  V30 6762 H 656.438 -2.80935 -2.56475 0
M  V30 6763 H 657.75 -3.53228 -3.52181 0
M  V30 6764 H 656.904 -2.38427 -5.57886 0
M  V30 6765 H 655.643 -1.55672 -4.62188 0
M  V30 6766 H 654.648 -3.77525 -3.99694 0
M  V30 6767 H 655.873 -4.60851 -4.98792 0
M  V30 6768 H 653.819 -2.61417 -6.01662 0
M  V30 6769 H 653.736 -4.33634 -6.19272 0
M  V30 6770 H 655.004 -3.45276 -6.98859 0
M  V30 6771 N 659.233 0.902656 -1.29189 0
M  V30 6772 C 660.481 1.6496 -1.16758 0
M  V30 6773 C 660.802 1.92952 0.28188 0
M  V30 6774 O 660.072 1.55351 1.19344 0
M  V30 6775 H 658.652 0.611447 -0.429118 0
M  V30 6776 H 661.314 1.0825 -1.62074 0
M  V30 6777 H 660.41 2.60728 -1.71544 0
M  V30 6778 N 660.711 1.11618 1.11262 0
M  V30 6779 C 661.659 0.771291 2.1944 0
M  V30 6780 C 662.653 -0.238073 1.67719 0
M  V30 6781 O 663.859 -0.0971628 1.79738 0
M  V30 6782 H 660.234 0.231548 0.715465 0
M  V30 6783 H 662.205 1.69226 2.45775 0
M  V30 6784 C 660.954 0.232765 3.4692 0
M  V30 6785 H 660.277 1.00072 3.87073 0
M  V30 6786 H 661.717 0.0296561 4.2399 0
M  V30 6787 C 660.176 -1.03738 3.20531 0
M  V30 6788 O 660.706 -2.11675 3.41404 0
M  V30 6789 N 658.912 -0.960906 2.74253 0
M  V30 6790 H 658.459 -0.0824323 2.57468 0
M  V30 6791 H 658.417 -1.8114 2.56974 0
M  V30 6792 N 662.189 -1.289 0.906776 0
M  V30 6793 C 663.152 -2.25777 0.394656 0
M  V30 6794 C 664.152 -1.53621 -0.475119 0
M  V30 6795 O 665.342 -1.71949 -0.279165 0
M  V30 6796 C 662.474 -3.38113 -0.43499 0
M  V30 6797 H 663.667 -2.72592 1.25033 0
M  V30 6798 H 661.22 -1.40463 0.685547 0
M  V30 6799 H 661.955 -2.96648 -1.31036 0
M  V30 6800 H 661.74 -3.91647 0.188334 0
M  V30 6801 H 663.23 -4.10168 -0.784365 0
M  V30 6802 N 663.667 -0.670007 -1.42649 0
M  V30 6803 C 664.617 0.0339546 -2.27975 0
M  V30 6804 C 665.601 0.778295 -1.40824 0
M  V30 6805 O 666.793 0.657997 -1.64315 0
M  V30 6806 C 663.922 0.987899 -3.28779 0
M  V30 6807 C 663.008 0.241153 -4.23414 0
M  V30 6808 N 663.399 -0.751392 -5.00188 0
M  V30 6809 C 661.697 0.480269 -4.43407 0
M  V30 6810 C 662.398 -1.19615 -5.69269 0
M  V30 6811 N 661.374 -0.527045 -5.41039 0
M  V30 6812 H 665.176 -0.727425 -2.84756 0
M  V30 6813 H 662.69 -0.498673 -1.54554 0
M  V30 6814 H 664.687 1.50716 -3.88703 0
M  V30 6815 H 663.347 1.74916 -2.73559 0
M  V30 6816 H 664.358 -1.13075 -5.05405 0
M  V30 6817 H 661.035 1.2214 -3.99234 0
M  V30 6818 H 662.425 -2.01836 -6.40868 0
M  V30 6819 N 665.145 1.52092 -0.413018 0
M  V30 6820 C 666.092 2.27119 0.410558 0
M  V30 6821 C 667.062 1.29692 1.03774 0
M  V30 6822 O 668.247 1.58561 1.06128 0
M  V30 6823 C 665.387 3.09863 1.51918 0
M  V30 6824 C 664.5 4.22252 0.912528 0
M  V30 6825 C 663.635 4.92348 1.99417 0
M  V30 6826 C 662.674 5.96694 1.36466 0
M  V30 6827 N 661.811 6.60292 2.38661 0
M  V30 6828 H 666.651 2.97067 -0.235661 0
M  V30 6829 H 664.188 1.46542 -0.128055 0
M  V30 6830 H 666.146 3.56144 2.17295 0
M  V30 6831 H 664.776 2.42078 2.13537 0
M  V30 6832 H 663.828 3.80113 0.147697 0
M  V30 6833 H 665.14 4.9709 0.412717 0
M  V30 6834 H 664.294 5.42054 2.72512 0
M  V30 6835 H 663.033 4.17087 2.52764 0
M  V30 6836 H 662.038 5.46304 0.61906 0
M  V30 6837 H 663.263 6.73899 0.838827 0
M  V30 6838 H 661.209 5.87858 2.91134 0
M  V30 6839 H 661.126 7.30816 1.93503 0
M  V30 6840 H 662.394 7.14635 3.11314 0
M  V30 6841 N 666.623 0.143563 1.56945 0
M  V30 6842 C 667.872 -0.50835 1.95189 0
M  V30 6843 C 668.185 -1.66239 1.03073 0
M  V30 6844 O 669.391 -2.3787 1.30882 0
M  V30 6845 C 667.847 -0.955735 3.46978 0
M  V30 6846 C 667.455 0.171183 4.47673 0
M  V30 6847 C 669.199 -1.57763 3.94095 0
M  V30 6848 C 667.106 -0.294279 5.90667 0
M  V30 6849 H 666.036 -0.193679 0.728701 0
M  V30 6850 H 668.687 0.227357 1.82086 0
M  V30 6851 H 667.069 -1.7466 3.55401 0
M  V30 6852 H 668.243 0.948049 4.50942 0
M  V30 6853 H 666.558 0.701273 4.10452 0
M  V30 6854 H 669.155 -1.93745 4.98364 0
M  V30 6855 H 669.498 -2.46531 3.35452 0
M  V30 6856 H 670.031 -0.851728 3.88575 0
M  V30 6857 H 666.77 0.557939 6.53121 0
M  V30 6858 H 666.29 -1.0371 5.90766 0
M  V30 6859 H 667.969 -0.747426 6.42668 0
M  V30 6860 N 668.101 -1.57061 -0.130224 0
M  V30 6861 C 669.034 -1.94698 -1.19029 0
M  V30 6862 C 670.012 -0.815074 -1.40696 0
M  V30 6863 O 671.196 -1.07223 -1.55034 0
M  V30 6864 C 668.323 -2.23352 -2.5462 0
M  V30 6865 C 667.369 -3.45945 -2.49448 0
M  V30 6866 S 668.202 -4.98927 -1.94505 0
M  V30 6867 C 669.358 -5.30721 -3.31792 0
M  V30 6868 H 669.591 -2.84308 -0.869272 0
M  V30 6869 H 667.124 -1.50688 -0.336531 0
M  V30 6870 H 669.082 -2.40539 -3.32643 0
M  V30 6871 H 667.743 -1.34376 -2.83905 0
M  V30 6872 H 666.936 -3.63324 -3.49302 0
M  V30 6873 H 666.538 -3.28086 -1.79543 0
M  V30 6874 H 668.83 -5.25215 -4.27966 0
M  V30 6875 H 669.773 -6.32048 -3.19251 0
M  V30 6876 H 670.181 -4.5821 -3.29703 0
M  V30 6877 N 669.579 0.400081 -1.52437 0
M  V30 6878 C 670.489 1.51253 -1.79331 0
M  V30 6879 C 671.505 1.60188 -0.679396 0
M  V30 6880 O 672.681 1.76733 -0.965791 0
M  V30 6881 C 669.746 2.869 -1.94652 0
M  V30 6882 C 668.807 2.87777 -3.18564 0
M  V30 6883 C 668.04 4.16954 -3.33145 0
M  V30 6884 O 668.263 5.11329 -2.52783 0
M  V30 6885 O 667.197 4.2487 -4.26343 0
M  V30 6886 H 671.023 1.31461 -2.73773 0
M  V30 6887 H 668.608 0.586834 -1.37392 0
M  V30 6888 H 670.49 3.67336 -2.065 0
M  V30 6889 H 669.165 3.06741 -1.034 0
M  V30 6890 H 668.072 2.06162 -3.12167 0
M  V30 6891 H 669.405 2.72886 -4.09627 0
M  V30 6892 N 671.057 1.43213 0.657864 0
M  V30 6893 C 672.004 1.48011 1.77092 0
M  V30 6894 C 672.974 0.330291 1.62783 0
M  V30 6895 O 674.159 0.536787 1.83094 0
M  V30 6896 C 671.299 1.40461 3.15222 0
M  V30 6897 C 670.412 2.65612 3.40697 0
M  V30 6898 C 669.547 2.50083 4.68649 0
M  V30 6899 C 668.586 3.70525 4.87214 0
M  V30 6900 N 667.723 3.53835 6.0642 0
M  V30 6901 H 672.563 2.43121 1.72326 0
M  V30 6902 H 670.1 1.20687 0.841013 0
M  V30 6903 H 672.058 1.34079 3.95068 0
M  V30 6904 H 670.688 0.489359 3.19069 0
M  V30 6905 H 669.74 2.82292 2.54982 0
M  V30 6906 H 671.052 3.5509 3.50303 0
M  V30 6907 H 670.206 2.41383 5.56614 0
M  V30 6908 H 668.945 1.58121 4.61356 0
M  V30 6909 H 667.95 3.79639 3.97686 0
M  V30 6910 H 669.175 4.63489 4.96341 0
M  V30 6911 H 667.121 2.64604 6.00267 0
M  V30 6912 H 667.038 4.36912 6.16963 0
M  V30 6913 H 668.306 3.48978 6.97019 0
M  V30 6914 N 672.536 -0.895792 1.29666 0
M  V30 6915 C 673.776 -1.6609 1.19136 0
M  V30 6916 C 674.14 -1.90336 -0.252245 0
M  V30 6917 O 675.341 -2.64469 -0.480593 0
M  V30 6918 C 673.612 -2.97129 1.98618 0
M  V30 6919 S 675.171 -3.88146 2.04666 0
M  V30 6920 H 671.989 -0.570188 0.424744 0
M  V30 6921 H 674.591 -1.06411 1.64003 0
M  V30 6922 H 673.295 -2.77199 3.02637 0
M  V30 6923 H 672.826 -3.61847 1.54371 0
M  V30 6924 H 674.841 -4.82301 1.16618 0
M  V30 6925 N 674.014 -1.12206 -1.10668 0
M  V30 6926 C 675.242 -0.898635 -1.86366 0
M  V30 6927 C 675.657 0.551991 -1.80551 0
M  V30 6928 O 675.014 1.38152 -1.19249 0
M  V30 6929 C 675.065 -1.36199 -3.34861 0
M  V30 6930 O 674.786 -2.75576 -3.40573 0
M  V30 6931 C 676.287 -1.17515 -4.2744 0
M  V30 6932 H 673.507 -0.321281 -0.589084 0
M  V30 6933 H 676.051 -1.49142 -1.39918 0
M  V30 6934 H 674.206 -0.81249 -3.78784 0
M  V30 6935 H 674.62 -2.95851 -4.33096 0
M  V30 6936 H 676.094 -1.54827 -5.29842 0
M  V30 6937 H 676.571 -0.115486 -4.39048 0
M  V30 6938 H 677.177 -1.71203 -3.89319 0
M  V30 6939 N 675.492 1.28418 -0.913599 0
M  V30 6940 C 676.422 2.29713 -0.418847 0
M  V30 6941 C 677.403 1.62165 0.513469 0
M  V30 6942 O 678.588 1.89576 0.421235 0
M  V30 6943 C 675.718 3.45612 0.342042 0
M  V30 6944 C 674.672 4.25056 -0.501123 0
M  V30 6945 C 673.998 5.3329 0.388097 0
M  V30 6946 C 675.298 4.91814 -1.75831 0
M  V30 6947 H 676.992 2.71346 -1.26538 0
M  V30 6948 H 674.538 1.30446 -0.609903 0
M  V30 6949 H 676.491 4.15562 0.699 0
M  V30 6950 H 675.215 3.02858 1.22248 0
M  V30 6951 H 673.874 3.56833 -0.840598 0
M  V30 6952 H 673.522 4.8678 1.26707 0
M  V30 6953 H 673.222 5.87347 -0.172459 0
M  V30 6954 H 674.746 6.06088 0.74094 0
M  V30 6955 H 676.16 5.54126 -1.47026 0
M  V30 6956 H 674.557 5.55866 -2.26126 0
M  V30 6957 H 675.627 4.16313 -2.4862 0
M  V30 6958 N 676.97 0.677563 1.42291 0
M  V30 6959 C 678.381 0.277912 1.8462 0
M  V30 6960 C 678.732 -1.18048 1.56714 0
M  V30 6961 O 677.857 -1.90404 1.02836 0
M  V30 6962 C 678.452 0.497619 3.35126 0
M  V30 6963 C 677.011 0.152063 3.76093 0
M  V30 6964 C 676.158 0.78872 2.65847 0
M  V30 6965 H 679.109 0.879527 1.32098 0
M  V30 6966 H 679.13 -0.24939 3.79682 0
M  V30 6967 H 678.642 1.55913 3.55405 0
M  V30 6968 H 676.743 -0.905896 3.6142 0
M  V30 6969 H 676.856 0.594514 4.75397 0
M  V30 6970 H 675.22 0.219813 2.5375 0
M  V30 6971 H 676.003 1.85374 2.88949 0
M  V30 6972 N 678.448 -1.51871 0.421078 0
M  V30 6973 C 679.378 -2.30231 -0.389363 0
M  V30 6974 C 680.359 -1.34946 -1.03555 0
M  V30 6975 O 681.544 -1.63859 -1.04229 0
M  V30 6976 C 678.674 -3.13247 -1.49979 0
M  V30 6977 C 677.628 -4.16677 -0.977966 0
M  V30 6978 C 676.954 -4.88112 -2.1829 0
M  V30 6979 C 678.254 -5.22295 -0.0236775 0
M  V30 6980 H 679.948 -2.98229 0.264524 0
M  V30 6981 H 677.494 -1.43424 0.12866 0
M  V30 6982 H 679.447 -3.66838 -2.07383 0
M  V30 6983 H 678.171 -2.4304 -2.18173 0
M  V30 6984 H 676.83 -3.64114 -0.426245 0
M  V30 6985 H 676.478 -4.14423 -2.85066 0
M  V30 6986 H 676.178 -5.58041 -1.84021 0
M  V30 6987 H 677.702 -5.44521 -2.76278 0
M  V30 6988 H 679.116 -5.71055 -0.506899 0
M  V30 6989 H 677.513 -5.99656 0.230782 0
M  V30 6990 H 678.583 -4.76131 0.917999 0
M  V30 6991 N 679.926 -0.151884 -1.56866 0
M  V30 6992 C 681.154 0.504813 -2.00647 0
M  V30 6993 C 681.569 1.58098 -1.03201 0
M  V30 6994 O 680.926 1.82476 -0.0297814 0
M  V30 6995 C 680.977 1.10099 -3.44326 0
M  V30 6996 O 680.698 0.0678021 -4.38048 0
M  V30 6997 C 682.199 1.83782 -4.03409 0
M  V30 6998 H 679.419 0.130989 -0.65809 0
M  V30 6999 H 681.963 -0.247903 -2.02992 0
M  V30 7000 H 680.118 1.8043 -3.42817 0
M  V30 7001 H 680.532 0.505237 -5.22061 0
M  V30 7002 H 682.006 2.2078 -5.05925 0
M  V30 7003 H 682.483 2.72557 -3.44397 0
M  V30 7004 H 683.089 1.18138 -4.08563 0
M  V30 7005 N 681.404 1.57128 0.121893 0
M  V30 7006 C 682.652 1.84335 0.828548 0
M  V30 7007 C 682.973 0.736632 1.80551 0
M  V30 7008 O 682.243 -0.23962 1.94429 0
M  V30 7009 H 680.823 0.680108 0.30897 0
M  V30 7010 H 683.485 1.9459 0.109906 0
M  V30 7011 H 682.581 2.80152 1.37554 0
M  V30 7012 N 682.882 -0.391992 1.52647 0
M  V30 7013 C 683.829 -1.47866 1.77213 0
M  V30 7014 C 684.799 -1.54286 0.615223 0
M  V30 7015 O 685.984 -1.7059 0.854622 0
M  V30 7016 C 683.124 -2.85129 1.94411 0
M  V30 7017 C 682.237 -2.87883 3.22098 0
M  V30 7018 C 681.372 -4.16553 3.29631 0
M  V30 7019 C 680.411 -4.13348 4.51453 0
M  V30 7020 N 679.548 -5.33619 4.56284 0
M  V30 7021 H 684.388 -1.26219 2.6995 0
M  V30 7022 H 681.925 -0.612367 1.33748 0
M  V30 7023 H 683.883 -3.64833 2.02367 0
M  V30 7024 H 682.513 -3.05232 1.05038 0
M  V30 7025 H 681.565 -2.00567 3.23229 0
M  V30 7026 H 682.877 -2.81382 4.11856 0
M  V30 7027 H 682.031 -5.0466 3.36753 0
M  V30 7028 H 680.77 -4.25773 2.37842 0
M  V30 7029 H 679.775 -3.23629 4.44459 0
M  V30 7030 H 681 -4.05754 5.44555 0
M  V30 7031 H 678.946 -5.43474 3.67385 0
M  V30 7032 H 678.863 -5.29182 5.3991 0
M  V30 7033 H 680.131 -6.23632 4.67657 0
M  V30 7034 N 684.36 -1.4356 -0.65026 0
M  V30 7035 C 685.292 -1.44918 -1.77571 0
M  V30 7036 C 686.305 -0.344925 -1.59104 0
M  V30 7037 O 687.494 -0.609537 -1.6777 0
M  V30 7038 C 684.594 -1.24914 -3.15039 0
M  V30 7039 C 683.767 -2.48232 -3.60138 0
M  V30 7040 C 682.826 -2.23409 -4.76419 0
M  V30 7041 O 681.852 -2.9678 -4.85706 0
M  V30 7042 N 683.054 -1.25259 -5.66825 0
M  V30 7043 H 685.819 -2.41935 -1.76883 0
M  V30 7044 H 683.38 -1.38754 -0.834202 0
M  V30 7045 H 685.372 -1.06185 -3.90521 0
M  V30 7046 H 683.942 -0.363319 -3.10481 0
M  V30 7047 H 683.162 -2.82366 -2.75069 0
M  V30 7048 H 684.45 -3.30296 -3.87017 0
M  V30 7049 H 683.848 -0.646246 -5.61997 0
M  V30 7050 H 682.405 -1.12513 -6.42016 0
M  V30 7051 N 685.838 0.888903 -1.30139 0
M  V30 7052 C 687.078 1.65456 -1.20015 0
M  V30 7053 C 687.442 1.90467 0.242148 0
M  V30 7054 O 688.643 2.6472 0.466561 0
M  V30 7055 C 686.914 2.96071 -2.00191 0
M  V30 7056 S 688.473 3.87055 -2.06721 0
M  V30 7057 H 685.291 0.567927 -0.427761 0
M  V30 7058 H 687.893 1.05539 -1.64565 0
M  V30 7059 H 686.597 2.7559 -3.04103 0
M  V30 7060 H 686.128 3.61023 -1.56288 0
M  V30 7061 H 688.143 4.81676 -1.19174 0
M  V30 7062 N 687.317 1.12792 1.10072 0
M  V30 7063 C 688.563 0.886857 1.82381 0
M  V30 7064 C 688.896 -0.58576 1.85155 0
M  V30 7065 O 688.171 -1.43317 1.31493 0
M  V30 7066 C 688.454 1.46703 3.28862 0
M  V30 7067 C 688.307 3.00829 3.34398 0
M  V30 7068 C 689.626 1.12971 4.25353 0
M  V30 7069 H 686.745 0.32362 0.662148 0
M  V30 7070 H 689.387 1.39513 1.28982 0
M  V30 7071 H 687.537 1.03476 3.74466 0
M  V30 7072 H 689.209 3.52764 2.97247 0
M  V30 7073 H 687.452 3.36164 2.74183 0
M  V30 7074 H 688.123 3.36519 4.3756 0
M  V30 7075 H 690.599 1.50313 3.88001 0
M  V30 7076 H 689.475 1.56223 5.26199 0
M  V30 7077 H 689.736 0.0424452 4.4208 0
M  V30 7078 N 688.795 -1.27931 0.920396 0
M  V30 7079 C 689.743 -2.29061 0.404191 0
M  V30 7080 C 690.737 -1.61615 -0.507634 0
M  V30 7081 O 691.943 -1.75765 -0.388144 0
M  V30 7082 H 688.318 -0.743594 0.112123 0
M  V30 7083 H 690.289 -2.70021 1.27008 0
M  V30 7084 C 689.038 -3.46088 -0.334466 0
M  V30 7085 H 688.361 -3.98194 0.35797 0
M  V30 7086 H 689.801 -4.18829 -0.660196 0
M  V30 7087 C 688.26 -2.99396 -1.54479 0
M  V30 7088 O 688.79 -3.02439 -2.64374 0
M  V30 7089 N 686.996 -2.54978 -1.39408 0
M  V30 7090 H 686.543 -2.52701 -0.500009 0
M  V30 7091 H 686.501 -2.24098 -2.20516 0
M  V30 7092 N 690.273 -0.685099 -1.4193 0
M  V30 7093 C 691.689 -0.355632 -1.55587 0
M  V30 7094 C 691.889 1.13823 -1.66273 0
M  V30 7095 O 690.945 1.92387 -1.63534 0
M  V30 7096 C 692.258 -1.09498 -2.80055 0
M  V30 7097 C 693.806 -1.07831 -2.93839 0
M  V30 7098 C 694.281 -1.79919 -4.21181 0
M  V30 7099 N 695.772 -1.76837 -4.28115 0
M  V30 7100 C 696.507 -2.29463 -5.25485 0
M  V30 7101 N 696.003 -2.90516 -6.28945 0
M  V30 7102 N 697.796 -2.19779 -5.17353 0
M  V30 7103 H 689.947 -1.65412 -1.33239 0
M  V30 7104 H 692.21 -0.697453 -0.642078 0
M  V30 7105 H 691.916 -2.14997 -2.78333 0
M  V30 7106 H 691.79 -0.666813 -3.71259 0
M  V30 7107 H 694.177 -0.0316152 -2.95083 0
M  V30 7108 H 694.258 -1.54545 -2.03837 0
M  V30 7109 H 693.902 -2.84562 -4.20698 0
M  V30 7110 H 693.832 -1.30647 -5.10136 0
M  V30 7111 H 696.323 -1.32315 -3.53979 0
M  V30 7112 H 696.636 -3.28266 -6.99615 0
M  V30 7113 H 694.981 -2.94589 -6.29478 0
M  V30 7114 H 698.172 -1.71763 -4.35448 0
M  V30 7115 H 698.345 -2.61097 -5.9307 0
M  V30 7116 N 691.751 1.51645 -0.429126 0
M  V30 7117 C 693 2.01203 0.141538 0
M  V30 7118 C 693.313 1.31828 1.44502 0
M  V30 7119 O 694.519 1.7231 2.09813 0
M  V30 7120 C 692.975 3.58624 0.302786 0
M  V30 7121 C 692.583 4.3693 -0.989775 0
M  V30 7122 C 694.327 4.16353 0.827661 0
M  V30 7123 C 692.234 5.86037 -0.794619 0
M  V30 7124 H 691.164 0.751867 0.05667 0
M  V30 7125 H 693.815 1.74822 -0.557633 0
M  V30 7126 H 692.197 3.81417 1.06476 0
M  V30 7127 H 693.371 4.25887 -1.75945 0
M  V30 7128 H 691.686 3.90614 -1.44256 0
M  V30 7129 H 694.283 5.25455 0.990026 0
M  V30 7130 H 694.626 3.74995 1.80787 0
M  V30 7131 H 695.159 3.97606 0.124213 0
M  V30 7132 H 691.898 6.31792 -1.74697 0
M  V30 7133 H 691.418 5.99765 -0.0645968 0
M  V30 7134 H 693.097 6.45471 -0.444591 0
M  V30 7135 N 693.229 0.160201 1.56784 0
M  V30 7136 C 694.478 -0.487619 1.95717 0
M  V30 7137 C 694.791 -1.65136 1.0483 0
M  V30 7138 O 695.997 -2.36468 1.33398 0
M  V30 7139 C 694.453 -0.91888 3.47972 0
M  V30 7140 C 694.061 0.218655 4.47466 0
M  V30 7141 C 695.805 -1.53575 3.95746 0
M  V30 7142 C 693.712 -0.231614 5.90946 0
M  V30 7143 H 692.642 -0.185939 0.730714 0
M  V30 7144 H 695.293 0.246657 1.81835 0
M  V30 7145 H 693.675 -1.70881 3.57234 0
M  V30 7146 H 694.849 0.995825 4.49911 0
M  V30 7147 H 693.164 0.744767 4.09685 0
M  V30 7148 H 695.761 -1.88448 5.00391 0
M  V30 7149 H 696.104 -2.42959 3.38048 0
M  V30 7150 H 696.637 -0.810467 3.89456 0
M  V30 7151 H 693.376 0.62718 6.52493 0
M  V30 7152 H 692.896 -0.974379 5.91833 0
M  V30 7153 H 694.575 -0.67922 6.43425 0
M  V30 7154 N 694.707 -1.5719 -0.113559 0
M  V30 7155 C 695.935 -1.89328 -0.834422 0
M  V30 7156 C 696.35 -0.752018 -1.73177 0
M  V30 7157 O 695.707 0.276912 -1.80387 0
M  V30 7158 C 695.758 -3.20962 -1.66329 0
M  V30 7159 O 695.479 -4.30695 -0.802069 0
M  V30 7160 C 696.98 -3.6684 -2.48884 0
M  V30 7161 H 694.2 -0.626769 -0.239587 0
M  V30 7162 H 696.744 -2.04273 -0.0963195 0
M  V30 7163 H 694.899 -3.0767 -2.35409 0
M  V30 7164 H 695.313 -5.06175 -1.37431 0
M  V30 7165 H 696.787 -4.61692 -3.02563 0
M  V30 7166 H 697.264 -2.93765 -3.26495 0
M  V30 7167 H 697.87 -3.82938 -1.85036 0
M  V30 7168 N 696.185 0.383891 -1.52853 0
M  V30 7169 C 697.095 1.49343 -1.80925 0
M  V30 7170 C 698.111 1.59458 -0.696348 0
M  V30 7171 O 699.287 1.75698 -0.984481 0
M  V30 7172 C 696.352 2.84819 -1.97684 0
M  V30 7173 C 695.413 2.84382 -3.21598 0
M  V30 7174 C 694.646 4.13397 -3.37548 0
M  V30 7175 O 694.869 5.08619 -2.58192 0
M  V30 7176 O 693.803 4.20325 -4.30826 0
M  V30 7177 H 697.629 1.2855 -2.75152 0
M  V30 7178 H 695.214 0.572229 -1.38007 0
M  V30 7179 H 697.096 3.65125 -2.10385 0
M  V30 7180 H 695.771 3.05627 -1.06647 0
M  V30 7181 H 694.678 2.0284 -3.14336 0
M  V30 7182 H 696.011 2.68526 -4.12498 0
M  V30 7183 N 697.663 1.43903 0.642637 0
M  V30 7184 C 698.61 1.49881 1.75512 0
M  V30 7185 C 699.58 0.347538 1.62423 0
M  V30 7186 O 700.765 0.556177 1.82514 0
M  V30 7187 C 697.905 1.43797 3.13714 0
M  V30 7188 C 697.018 2.6921 3.37861 0
M  V30 7189 C 696.153 2.5504 4.6597 0
M  V30 7190 C 695.192 3.75671 4.83257 0
M  V30 7191 N 694.329 3.60247 6.02633 0
M  V30 7192 H 699.169 2.44935 1.69737 0
M  V30 7193 H 696.706 1.21572 0.828165 0
M  V30 7194 H 698.664 1.38262 3.93624 0
M  V30 7195 H 697.294 0.523173 3.18532 0
M  V30 7196 H 696.346 2.8498 2.51973 0
M  V30 7197 H 697.658 3.58786 3.46517 0
M  V30 7198 H 696.812 2.47273 5.54023 0
M  V30 7199 H 695.551 1.63006 4.59653 0
M  V30 7200 H 694.556 3.83836 3.93637 0
M  V30 7201 H 695.781 4.68728 4.91397 0
M  V30 7202 H 693.727 2.70955 5.97427 0
M  V30 7203 H 693.644 4.43431 6.12295 0
M  V30 7204 H 694.912 3.56351 6.93278 0
M  V30 7205 N 699.141 -0.881989 1.30609 0
M  V30 7206 C 700.104 -1.96957 1.1722 0
M  V30 7207 C 701.104 -1.60472 0.102598 0
M  V30 7208 O 702.294 -1.70628 0.350943 0
M  V30 7209 C 699.426 -3.31463 0.796572 0
M  V30 7210 H 700.619 -2.10262 2.13846 0
M  V30 7211 H 698.172 -1.06877 1.14048 0
M  V30 7212 H 698.907 -3.23859 -0.169053 0
M  V30 7213 H 698.692 -3.59314 1.56959 0
M  V30 7214 H 700.182 -4.11233 0.72645 0
M  V30 7215 N 700.619 -1.13374 -1.09472 0
M  V30 7216 C 701.865 -0.896516 -1.81908 0
M  V30 7217 C 702.198 0.575933 -1.85463 0
M  V30 7218 O 701.473 1.42618 -1.32251 0
M  V30 7219 C 701.756 -1.48445 -3.28079 0
M  V30 7220 C 701.609 -3.02598 -3.32798 0
M  V30 7221 C 702.928 -1.15226 -4.24748 0
M  V30 7222 H 700.047 -0.327127 -0.660422 0
M  V30 7223 H 702.689 -1.40195 -1.2824 0
M  V30 7224 H 700.839 -1.0546 -3.73912 0
M  V30 7225 H 702.511 -3.54335 -2.95372 0
M  V30 7226 H 700.754 -3.37613 -2.72397 0
M  V30 7227 H 701.425 -3.38835 -4.3577 0
M  V30 7228 H 703.901 -1.52369 -3.87199 0
M  V30 7229 H 702.777 -1.59012 -5.25363 0
M  V30 7230 H 703.038 -0.0658891 -4.42051 0
M  V30 7231 N 702.098 1.27442 -0.927168 0
M  V30 7232 C 703.345 1.94391 -0.567324 0
M  V30 7233 C 703.673 1.72875 0.891321 0
M  V30 7234 O 702.928 1.05071 1.65102 0
M  V30 7235 C 703.227 3.47413 -0.838994 0
M  V30 7236 C 702.893 3.89049 -2.2793 0
M  V30 7237 C 701.555 4.00127 -2.67305 0
M  V30 7238 C 703.907 4.10154 -3.21595 0
M  V30 7239 C 701.235 4.29697 -3.99471 0
M  V30 7240 C 703.587 4.41208 -4.53341 0
M  V30 7241 C 702.251 4.50499 -4.92551 0
M  V30 7242 H 701.521 0.711325 -0.207598 0
M  V30 7243 H 704.168 1.51523 -1.17103 0
M  V30 7244 H 702.473 3.91503 -0.152609 0
M  V30 7245 H 704.17 3.97354 -0.53955 0
M  V30 7246 H 700.76 3.80962 -1.96381 0
M  V30 7247 H 704.944 4.01036 -2.92377 0
M  V30 7248 H 700.2 4.35099 -4.29533 0
M  V30 7249 H 704.374 4.56486 -5.25922 0
M  V30 7250 H 702.001 4.73167 -5.94994 0
M  V30 7251 N 703.576 0.692616 1.41565 0
M  V30 7252 C 704.853 0.150496 1.9502 0
M  V30 7253 C 705.233 -1.33881 1.63215 0
M  V30 7254 O 704.581 -2.08378 0.937598 0
M  V30 7255 C 704.791 0.438636 3.46233 0
M  V30 7256 C 706.139 0.364777 4.2303 0
M  V30 7257 O 707.163 0.373383 3.54238 0
M  V30 7258 O 706.022 0.32234 5.45549 0
M  V30 7259 H 703.116 0.0132454 0.826894 0
M  V30 7260 H 705.662 0.768574 1.51298 0
M  V30 7261 H 704.434 1.46962 3.62654 0
M  V30 7262 H 704.057 -0.210562 3.97042 0
M  V30 7263 N 705.054 -1.51416 0.437162 0
M  V30 7264 C 706.3 -2.02386 -0.129555 0
M  V30 7265 C 706.633 -1.32071 -1.42376 0
M  V30 7266 O 705.908 -0.43559 -1.8956 0
M  V30 7267 C 706.191 -3.5841 -0.348487 0
M  V30 7268 C 706.044 -4.39341 0.964352 0
M  V30 7269 C 707.363 -4.25654 -1.11834 0
M  V30 7270 H 704.482 -0.735587 -0.0456109 0
M  V30 7271 H 707.124 -1.81055 0.576124 0
M  V30 7272 H 705.274 -3.76716 -0.949592 0
M  V30 7273 H 706.946 -4.32685 1.59942 0
M  V30 7274 H 705.189 -4.04432 1.56898 0
M  V30 7275 H 705.86 -5.4667 0.765212 0
M  V30 7276 H 708.336 -4.11617 -0.609165 0
M  V30 7277 H 707.212 -5.34704 -1.24029 0
M  V30 7278 H 707.473 -3.86502 -2.14636 0
M  V30 7279 N 706.532 -0.168513 -1.56696 0
M  V30 7280 C 707.809 0.523367 -1.88468 0
M  V30 7281 C 708.189 1.81503 -1.07796 0
M  V30 7282 O 707.537 2.27859 -0.171045 0
M  V30 7283 C 707.747 0.767991 -3.40445 0
M  V30 7284 C 709.095 1.09924 -4.10124 0
M  V30 7285 O 710.119 0.856625 -3.45746 0
M  V30 7286 O 708.978 1.55681 -5.23856 0
M  V30 7287 H 706.072 0.269447 -0.781874 0
M  V30 7288 H 708.618 -0.206739 -1.68436 0
M  V30 7289 H 707.39 -0.145254 -3.9103 0
M  V30 7290 H 707.013 1.55151 -3.66079 0
M  V30 7291 N 708.01 1.57248 0.105221 0
M  V30 7292 C 708.957 2.01338 1.12835 0
M  V30 7293 C 709.927 0.887897 1.40377 0
M  V30 7294 O 711.112 1.15315 1.5201 0
M  V30 7295 C 708.252 2.43432 2.44611 0
M  V30 7296 C 707.365 3.69457 2.23888 0
M  V30 7297 C 706.5 4.00473 3.48991 0
M  V30 7298 C 705.539 5.19638 3.23485 0
M  V30 7299 N 704.676 5.46457 4.40828 0
M  V30 7300 H 709.516 2.88527 0.745386 0
M  V30 7301 H 707.053 1.42714 0.356535 0
M  V30 7302 H 709.011 2.65879 3.21503 0
M  V30 7303 H 707.641 1.59266 2.80774 0
M  V30 7304 H 706.693 3.54545 1.37847 0
M  V30 7305 H 708.005 4.56497 2.01026 0
M  V30 7306 H 707.159 4.23642 4.34295 0
M  V30 7307 H 705.898 3.11935 3.74897 0
M  V30 7308 H 704.903 4.96299 2.36574 0
M  V30 7309 H 706.128 6.09766 2.98935 0
M  V30 7310 H 704.074 4.60876 4.66829 0
M  V30 7311 H 703.991 6.27849 4.2112 0
M  V30 7312 H 705.259 5.74155 5.27225 0
M  V30 7313 N 709.488 -0.375779 1.53054 0
M  V30 7314 C 710.435 -1.45978 1.78771 0
M  V30 7315 C 711.405 -1.53625 0.631552 0
M  V30 7316 O 712.59 -1.69674 0.872667 0
M  V30 7317 C 709.73 -2.8305 1.97425 0
M  V30 7318 C 708.843 -2.84451 3.25134 0
M  V30 7319 C 707.978 -4.13034 3.34031 0
M  V30 7320 C 707.017 -4.08536 4.55812 0
M  V30 7321 N 706.154 -5.2875 4.61918 0
M  V30 7322 H 710.994 -1.23349 2.71273 0
M  V30 7323 H 708.531 -0.598147 1.3439 0
M  V30 7324 H 710.489 -3.62666 2.06225 0
M  V30 7325 H 709.119 -3.04101 1.0827 0
M  V30 7326 H 708.171 -1.97127 3.25338 0
M  V30 7327 H 709.483 -2.76998 4.14818 0
M  V30 7328 H 708.637 -5.0106 3.42087 0
M  V30 7329 H 707.376 -4.23226 2.42345 0
M  V30 7330 H 706.381 -3.18897 4.47867 0
M  V30 7331 H 707.606 -3.99955 5.48828 0
M  V30 7332 H 705.552 -5.39547 3.73129 0
M  V30 7333 H 705.469 -5.23426 5.45492 0
M  V30 7334 H 706.737 -6.18637 4.74245 0
M  V30 7335 N 710.966 -1.44241 -0.634997 0
M  V30 7336 C 711.913 -1.5081 -1.74714 0
M  V30 7337 C 712.883 -0.356147 -1.62237 0
M  V30 7338 O 714.068 -0.565848 -1.82216 0
M  V30 7339 C 711.208 -1.45458 -3.12947 0
M  V30 7340 C 710.321 -2.70998 -3.36428 0
M  V30 7341 C 709.456 -2.57507 -4.64611 0
M  V30 7342 C 708.495 -3.78229 -4.81258 0
M  V30 7343 N 707.632 -3.63438 -6.00714 0
M  V30 7344 H 712.472 -2.45832 -1.68436 0
M  V30 7345 H 710.009 -1.2201 -0.821706 0
M  V30 7346 H 711.967 -1.40347 -3.92885 0
M  V30 7347 H 710.597 -0.540058 -3.1825 0
M  V30 7348 H 709.649 -2.86312 -2.50458 0
M  V30 7349 H 710.961 -3.60619 -3.44609 0
M  V30 7350 H 710.115 -2.50207 -5.52703 0
M  V30 7351 H 708.854 -1.65441 -4.58782 0
M  V30 7352 H 707.859 -3.85918 -3.91596 0
M  V30 7353 H 709.084 -4.71327 -4.88904 0
M  V30 7354 H 707.03 -2.7412 -5.95982 0
M  V30 7355 H 706.947 -4.46672 -6.09934 0
M  V30 7356 H 708.215 -3.60022 -6.91378 0
M  V30 7357 N 712.444 0.87505 -1.31075 0
M  V30 7358 C 713.692 1.62447 -1.20231 0
M  V30 7359 C 714.013 1.93506 0.240888 0
M  V30 7360 O 713.283 1.57847 1.16022 0
M  V30 7361 H 711.863 0.602207 -0.441991 0
M  V30 7362 H 714.525 1.04788 -1.64334 0
M  V30 7363 H 713.621 2.57031 -1.77036 0
M  V30 7364 N 713.922 1.13953 1.08869 0
M  V30 7365 C 714.852 0.844824 2.17681 0
M  V30 7366 C 715.833 -0.198213 1.68941 0
M  V30 7367 O 717.018 -0.0559073 1.9412 0
M  V30 7368 C 714.148 0.316325 3.45856 0
M  V30 7369 C 713.102 1.29426 4.07962 0
M  V30 7370 C 712.428 0.625275 5.31031 0
M  V30 7371 C 713.728 2.65484 4.49795 0
M  V30 7372 H 715.422 1.75471 2.42591 0
M  V30 7373 H 712.968 0.845116 1.16592 0
M  V30 7374 H 714.921 0.0977876 4.21287 0
M  V30 7375 H 713.645 -0.628972 3.20486 0
M  V30 7376 H 712.304 1.49889 3.34558 0
M  V30 7377 H 711.952 -0.325678 5.01945 0
M  V30 7378 H 711.652 1.27777 5.73539 0
M  V30 7379 H 713.176 0.416152 6.0918 0
M  V30 7380 H 714.59 2.48957 5.16424 0
M  V30 7381 H 712.987 3.26963 5.03205 0
M  V30 7382 H 714.057 3.22717 3.61914 0
M  V30 7383 N 715.4 -1.26948 0.933913 0
M  V30 7384 C 716.628 -1.98186 0.59414 0
M  V30 7385 C 717.043 -1.69614 -0.829257 0
M  V30 7386 O 716.4 -0.960213 -1.55197 0
M  V30 7387 C 716.451 -3.52123 0.818026 0
M  V30 7388 O 716.172 -3.79698 2.18543 0
M  V30 7389 C 717.673 -4.40608 0.48781 0
M  V30 7390 H 714.893 -0.632305 0.224569 0
M  V30 7391 H 717.437 -1.61646 1.25263 0
M  V30 7392 H 715.592 -3.86851 0.206246 0
M  V30 7393 H 716.006 -4.7426 2.24005 0
M  V30 7394 H 717.48 -5.47606 0.695126 0
M  V30 7395 H 717.957 -4.35394 -0.576913 0
M  V30 7396 H 718.563 -4.11411 1.078 0
M  V30 7397 N 716.879 -0.700114 -1.41195 0
M  V30 7398 C 717.809 -0.0521132 -2.33442 0
M  V30 7399 C 718.79 0.76228 -1.52063 0
M  V30 7400 O 719.975 0.714336 -1.80585 0
M  V30 7401 C 717.105 0.881693 -3.35922 0
M  V30 7402 C 716.059 0.174062 -4.27646 0
M  V30 7403 C 715.385 1.22254 -5.20536 0
M  V30 7404 C 716.685 -0.962396 -5.13357 0
M  V30 7405 H 718.379 -0.822574 -2.87879 0
M  V30 7406 H 715.925 -0.397011 -1.38419 0
M  V30 7407 H 717.878 1.34429 -3.99383 0
M  V30 7408 H 716.602 1.68387 -2.79845 0
M  V30 7409 H 715.261 -0.268551 -3.65615 0
M  V30 7410 H 714.909 2.01736 -4.60773 0
M  V30 7411 H 714.609 0.754038 -5.82742 0
M  V30 7412 H 716.133 1.68555 -5.86874 0
M  V30 7413 H 717.547 -0.579875 -5.7036 0
M  V30 7414 H 715.944 -1.35828 -5.84526 0
M  V30 7415 H 717.014 -1.80003 -4.50252 0
M  V30 7416 N 718.357 1.51182 -0.445186 0
M  V30 7417 C 719.606 2.01342 0.120189 0
M  V30 7418 C 719.919 1.33353 1.43095 0
M  V30 7419 O 721.125 1.74525 2.07974 0
M  V30 7420 C 719.581 3.58925 0.264732 0
M  V30 7421 C 719.189 4.35855 -1.03606 0
M  V30 7422 C 720.933 4.17208 0.783455 0
M  V30 7423 C 718.84 5.85162 -0.856731 0
M  V30 7424 H 717.77 0.752426 0.0486922 0
M  V30 7425 H 720.421 1.74221 -0.576143 0
M  V30 7426 H 718.803 3.82525 1.02425 0
M  V30 7427 H 719.977 4.23997 -1.80452 0
M  V30 7428 H 718.292 3.89062 -1.48391 0
M  V30 7429 H 720.889 5.26475 0.934239 0
M  V30 7430 H 721.232 3.76892 1.768 0
M  V30 7431 H 721.765 3.97715 0.0820346 0
M  V30 7432 H 718.504 6.29904 -1.81388 0
M  V30 7433 H 718.024 5.99663 -0.128206 0
M  V30 7434 H 719.703 6.44963 -0.513027 0
M  V30 7435 N 719.835 0.176821 1.56605 0
M  V30 7436 C 720.745 -0.763682 2.21822 0
M  V30 7437 C 721.761 -1.24889 1.21156 0
M  V30 7438 O 722.937 -1.29987 1.53836 0
M  V30 7439 C 720.002 -1.97352 2.8505 0
M  V30 7440 C 719.063 -1.53466 4.00932 0
M  V30 7441 C 718.296 -2.68682 4.61135 0
M  V30 7442 O 718.519 -3.85694 4.20234 0
M  V30 7443 O 717.453 -2.42442 5.50913 0
M  V30 7444 H 721.279 -0.238363 3.02763 0
M  V30 7445 H 718.864 -0.0516331 1.49311 0
M  V30 7446 H 720.746 -2.68096 3.25119 0
M  V30 7447 H 719.421 -2.48779 2.07101 0
M  V30 7448 H 718.328 -0.796551 3.65521 0
M  V30 7449 H 719.661 -1.06724 4.8049 0
M  V30 7450 N 721.313 -1.57302 -0.09688 0
M  V30 7451 C 722.243 -2.0497 -1.11846 0
M  V30 7452 C 723.224 -0.938278 -1.41882 0
M  V30 7453 O 724.409 -1.20943 -1.51942 0
M  V30 7454 C 721.539 -2.47264 -2.43881 0
M  V30 7455 C 720.493 -3.62053 -2.28257 0
M  V30 7456 C 719.819 -3.90318 -3.65453 0
M  V30 7457 C 721.119 -4.93005 -1.72461 0
M  V30 7458 H 722.813 -2.90567 -0.721888 0
M  V30 7459 H 720.359 -1.39786 -0.345803 0
M  V30 7460 H 722.312 -2.7922 -3.15617 0
M  V30 7461 H 721.036 -1.58664 -2.8547 0
M  V30 7462 H 719.695 -3.30341 -1.58967 0
M  V30 7463 H 719.343 -2.98889 -4.04567 0
M  V30 7464 H 719.043 -4.67597 -3.55846 0
M  V30 7465 H 720.567 -4.24747 -4.3866 0
M  V30 7466 H 721.981 -5.23354 -2.34036 0
M  V30 7467 H 720.378 -5.74436 -1.73618 0
M  V30 7468 H 721.448 -4.80053 -0.683898 0
M  V30 7469 N 722.791 0.367657 -1.53252 0
M  V30 7470 C 724.037 1.10864 -1.70531 0
M  V30 7471 C 724.392 1.87051 -0.4505 0
M  V30 7472 O 723.685 1.83342 0.556431 0
M  V30 7473 C 723.879 2.09825 -2.89324 0
M  V30 7474 C 723.708 1.43361 -4.26237 0
M  V30 7475 C 722.478 1.18861 -4.91121 0
M  V30 7476 C 724.676 0.872409 -5.06847 0
M  V30 7477 N 722.658 0.487258 -6.11963 0
M  V30 7478 C 724.029 0.300301 -6.19272 0
M  V30 7479 C 726.084 0.770895 -4.91896 0
M  V30 7480 C 724.787 -0.363419 -7.18381 0
M  V30 7481 C 726.813 0.12096 -5.91276 0
M  V30 7482 C 726.175 -0.440283 -7.03023 0
M  V30 7483 H 722.274 0.390902 -0.677288 0
M  V30 7484 H 724.858 0.395305 -1.90645 0
M  V30 7485 H 723.029 2.78473 -2.70753 0
M  V30 7486 H 724.761 2.76585 -2.95436 0
M  V30 7487 H 721.516 1.46934 -4.5023 0
M  V30 7488 H 721.94 0.152005 -6.76829 0
M  V30 7489 H 726.582 1.19058 -4.05691 0
M  V30 7490 H 724.3 -0.795057 -8.04179 0
M  V30 7491 H 727.886 0.0433702 -5.81784 0
M  V30 7492 H 726.766 -0.935244 -7.78603 0
M  V30 7493 N 724.269 1.44576 0.627338 0
M  V30 7494 C 725.179 1.54232 1.76776 0
M  V30 7495 C 726.195 0.427782 1.6866 0
M  V30 7496 O 727.371 0.685671 1.89369 0
M  V30 7497 C 724.436 1.48738 3.13174 0
M  V30 7498 C 723.497 2.71074 3.32893 0
M  V30 7499 C 722.73 2.65832 4.62784 0
M  V30 7500 O 722.953 1.72048 5.43834 0
M  V30 7501 O 721.887 3.56742 4.84787 0
M  V30 7502 H 725.713 2.50586 1.71582 0
M  V30 7503 H 723.298 1.26865 0.789028 0
M  V30 7504 H 725.18 1.48211 3.94476 0
M  V30 7505 H 723.855 0.555292 3.18902 0
M  V30 7506 H 722.762 2.77168 2.51254 0
M  V30 7507 H 724.095 3.63342 3.32029 0
M  V30 7508 N 725.747 -0.868086 1.31537 0
M  V30 7509 C 726.995 -1.61807 1.21091 0
M  V30 7510 C 727.316 -1.93631 -0.230623 0
M  V30 7511 O 726.586 -1.5846 -1.15183 0
M  V30 7512 H 725.166 -0.599854 0.445178 0
M  V30 7513 H 727.828 -1.03915 1.64887 0
M  V30 7514 H 726.924 -2.56088 1.78396 0
M  V30 7515 N 727.225 -1.14528 -1.08264 0
M  V30 7516 C 728.155 -0.856356 -2.1723 0
M  V30 7517 C 729.136 0.189251 -1.69044 0
M  V30 7518 O 730.321 0.0456119 -1.94146 0
M  V30 7519 C 727.451 -0.334662 -3.45684 0
M  V30 7520 C 726.405 -1.31588 -4.0727 0
M  V30 7521 C 725.731 -0.653428 -5.30692 0
M  V30 7522 C 727.031 -2.67866 -4.48381 0
M  V30 7523 H 728.725 -1.76755 -2.41657 0
M  V30 7524 H 726.271 -0.851287 -1.16143 0
M  V30 7525 H 728.224 -0.120128 -4.21229 0
M  V30 7526 H 726.948 0.611967 -3.20815 0
M  V30 7527 H 725.607 -1.51661 -3.33758 0
M  V30 7528 H 725.255 0.299054 -5.0211 0
M  V30 7529 H 724.955 -1.30817 -5.72853 0
M  V30 7530 H 726.479 -0.448453 -6.08951 0
M  V30 7531 H 727.893 -2.51692 -5.15096 0
M  V30 7532 H 726.29 -3.29627 -5.01464 0
M  V30 7533 H 727.36 -3.24632 -3.60198 0
M  V30 7534 N 728.703 1.26451 -0.940633 0
M  V30 7535 C 729.931 1.97868 -0.604642 0
M  V30 7536 C 730.346 1.70051 0.820251 0
M  V30 7537 O 729.703 0.96843 1.54686 0
M  V30 7538 C 729.754 3.51684 -0.836689 0
M  V30 7539 O 729.475 3.78533 -2.20554 0
M  V30 7540 C 730.976 4.40343 -0.511169 0
M  V30 7541 H 728.196 0.631105 -0.227919 0
M  V30 7542 H 730.74 1.60979 -1.26119 0
M  V30 7543 H 728.895 3.86736 -0.226759 0
M  V30 7544 H 729.309 4.73065 -2.26517 0
M  V30 7545 H 730.783 5.47229 -0.724157 0
M  V30 7546 H 731.26 4.35694 0.553815 0
M  V30 7547 H 731.866 4.10834 -1.0998 0
M  V30 7548 N 730.181 0.707592 1.40822 0
M  V30 7549 C 731.427 0.244031 2.01326 0
M  V30 7550 C 731.76 -1.15722 1.55955 0
M  V30 7551 O 731.035 -1.78347 0.776044 0
M  V30 7552 C 731.318 0.315128 3.58718 0
M  V30 7553 C 731.171 1.75419 4.14184 0
M  V30 7554 C 732.49 -0.318251 4.38948 0
M  V30 7555 H 729.609 0.0901471 0.731466 0
M  V30 7556 H 732.251 0.898584 1.67408 0
M  V30 7557 H 730.401 -0.242176 3.87744 0
M  V30 7558 H 732.073 2.36626 3.95987 0
M  V30 7559 H 730.316 2.28449 3.68773 0
M  V30 7560 H 730.987 1.75538 5.23345 0
M  V30 7561 H 733.463 0.156514 4.15806 0
M  V30 7562 H 732.339 -0.238019 5.48384 0
M  V30 7563 H 732.6 -1.40067 4.19325 0
M  V30 7564 N 731.66 -1.50943 0.453197 0
M  V30 7565 C 732.937 -1.94872 -0.168633 0
M  V30 7566 C 733.317 -1.39272 -1.5864 0
M  V30 7567 O 732.665 -0.586272 -2.20851 0
M  V30 7568 C 732.875 -3.48757 -0.130217 0
M  V30 7569 C 734.223 -4.23331 -0.327975 0
M  V30 7570 O 735.247 -3.55594 -0.207619 0
M  V30 7571 O 734.106 -5.43529 -0.569077 0
M  V30 7572 H 731.2 -0.818042 -0.121394 0
M  V30 7573 H 733.746 -1.61782 0.512316 0
M  V30 7574 H 732.518 -3.81725 0.860346 0
M  V30 7575 H 732.141 -3.88333 -0.853397 0
M  V30 7576 N 733.138 -0.185124 -1.56509 0
M  V30 7577 C 734.415 0.503348 -1.89013 0
M  V30 7578 C 734.795 1.80349 -1.09715 0
M  V30 7579 O 734.143 2.27665 -0.195203 0
M  V30 7580 C 734.353 0.731839 -3.41241 0
M  V30 7581 C 735.701 1.05568 -4.11267 0
M  V30 7582 O 736.725 0.819906 -3.46635 0
M  V30 7583 O 735.584 1.50116 -5.25478 0
M  V30 7584 H 732.678 0.261139 -0.784688 0
M  V30 7585 H 735.224 -0.224592 -1.68207 0
M  V30 7586 H 733.996 -0.18672 -3.90854 0
M  V30 7587 H 733.619 1.5126 -3.67704 0
M  V30 7588 N 734.616 1.57351 0.0885366 0
M  V30 7589 C 735.862 1.86696 0.791996 0
M  V30 7590 C 736.195 0.775148 1.78059 0
M  V30 7591 O 735.47 -0.216247 1.93294 0
M  V30 7592 C 735.753 3.26684 1.51491 0
M  V30 7593 C 735.606 4.465 0.543858 0
M  V30 7594 C 736.925 3.64664 2.46391 0
M  V30 7595 H 734.044 0.679049 0.286463 0
M  V30 7596 H 736.686 1.89919 0.0554866 0
M  V30 7597 H 734.836 3.24067 2.14273 0
M  V30 7598 H 736.508 4.61235 -0.0774597 0
M  V30 7599 H 734.751 4.33567 -0.142228 0
M  V30 7600 H 735.422 5.41192 1.08696 0
M  V30 7601 H 737.898 3.68267 1.93698 0
M  V30 7602 H 736.774 4.63534 2.93986 0
M  V30 7603 H 737.035 2.93698 3.30445 0
M  V30 7604 N 736.094 -0.359525 1.53444 0
M  V30 7605 C 737.026 -1.46098 1.76602 0
M  V30 7606 C 738.039 -1.49395 0.646912 0
M  V30 7607 O 739.228 -1.52765 0.923307 0
M  V30 7608 C 736.328 -2.84836 1.83635 0
M  V30 7609 C 735.501 -3.05164 3.13358 0
M  V30 7610 C 734.56 -4.24051 3.11556 0
M  V30 7611 O 733.586 -4.18935 3.85334 0
M  V30 7612 N 734.788 -5.31775 2.328 0
M  V30 7613 H 737.553 -1.2661 2.71643 0
M  V30 7614 H 735.114 -0.549294 1.52297 0
M  V30 7615 H 737.106 -3.62516 1.799 0
M  V30 7616 H 735.676 -2.97542 0.958509 0
M  V30 7617 H 734.896 -2.15091 3.30348 0
M  V30 7618 H 736.184 -3.15619 3.99076 0
M  V30 7619 H 735.582 -5.38796 1.7238 0
M  V30 7620 H 734.139 -6.0801 2.34877 0
M  V30 7621 N 737.572 -1.44907 -0.619662 0
M  V30 7622 C 738.519 -1.52654 -1.73105 0
M  V30 7623 C 739.489 -0.373334 -1.6185 0
M  V30 7624 O 740.674 -0.585143 -1.81606 0
M  V30 7625 C 737.814 -1.48769 -3.11387 0
M  V30 7626 C 736.927 -2.74551 -3.33535 0
M  V30 7627 C 736.062 -2.62421 -4.61854 0
M  V30 7628 C 735.101 -3.83312 -4.77219 0
M  V30 7629 N 734.238 -3.69789 -5.96826 0
M  V30 7630 H 739.078 -2.47605 -1.65819 0
M  V30 7631 H 736.615 -1.22875 -0.808719 0
M  V30 7632 H 738.573 -1.44507 -3.91374 0
M  V30 7633 H 737.203 -0.573783 -3.1766 0
M  V30 7634 H 736.255 -2.88953 -2.47408 0
M  V30 7635 H 737.567 -3.64253 -3.40765 0
M  V30 7636 H 736.721 -2.56056 -5.50019 0
M  V30 7637 H 735.46 -1.70298 -4.57001 0
M  V30 7638 H 734.465 -3.90049 -3.87481 0
M  V30 7639 H 735.69 -4.76486 -4.83878 0
M  V30 7640 H 733.636 -2.80426 -5.93041 0
M  V30 7641 H 733.553 -4.53116 -6.05163 0
M  V30 7642 H 734.821 -3.67335 -6.87521 0
M  V30 7643 N 739.05 0.861098 -1.31996 0
M  V30 7644 C 740.275 1.65264 -1.2531 0
M  V30 7645 C 740.7 1.87265 0.177007 0
M  V30 7646 O 740.058 1.4208 1.12619 0
M  V30 7647 C 740.106 2.99284 -2.0115 0
M  V30 7648 O 739.21 3.89508 -1.3549 0
M  V30 7649 H 738.551 0.50409 -0.432192 0
M  V30 7650 H 741.081 1.07297 -1.74208 0
M  V30 7651 H 741.091 3.49154 -2.11081 0
M  V30 7652 H 739.766 2.82591 -3.05148 0
M  V30 7653 H 738.343 3.47966 -1.34066 0
M  V30 7654 N 740.528 1.15101 1.07655 0
M  V30 7655 C 741.756 0.947731 1.83918 0
M  V30 7656 C 742.171 -0.503927 1.81951 0
M  V30 7657 O 741.528 -1.34941 1.2287 0
M  V30 7658 C 741.579 1.4503 3.31132 0
M  V30 7659 O 741.3 2.84508 3.33146 0
M  V30 7660 C 742.801 1.28806 4.24174 0
M  V30 7661 H 740.021 0.336786 0.580358 0
M  V30 7662 H 742.565 1.52799 1.35914 0
M  V30 7663 H 740.72 0.912632 3.76497 0
M  V30 7664 H 741.134 3.0723 4.251 0
M  V30 7665 H 742.608 1.6882 5.25551 0
M  V30 7666 H 743.085 0.231851 4.38588 0
M  V30 7667 H 743.691 1.81465 3.84643 0
M  V30 7668 N 742.006 -1.2595 0.947325 0
M  V30 7669 C 743.254 -1.93081 0.596996 0
M  V30 7670 C 743.575 -1.74632 -0.867672 0
M  V30 7671 O 742.845 -1.1056 -1.6172 0
M  V30 7672 H 741.425 -0.714542 0.217805 0
M  V30 7673 H 744.087 -1.53265 1.20398 0
M  V30 7674 H 743.183 -3.01134 0.82004 0
M  V30 7675 N 743.484 -0.715051 -1.40445 0
M  V30 7676 C 744.724 -0.258742 -2.02756 0
M  V30 7677 C 745.088 1.12661 -1.55472 0
M  V30 7678 O 746.289 1.67988 -2.09842 0
M  V30 7679 C 744.56 -0.335201 -3.55825 0
M  V30 7680 S 746.119 0.044201 -4.38778 0
M  V30 7681 H 742.937 -0.102683 -0.703546 0
M  V30 7682 H 745.539 -0.937151 -1.71574 0
M  V30 7683 H 744.243 -1.34511 -3.87731 0
M  V30 7684 H 743.774 0.361705 -3.91734 0
M  V30 7685 H 745.789 1.26639 -4.79768 0
M  V30 7686 N 744.962 1.50701 -0.461195 0
M  V30 7687 C 746.239 1.94958 0.158296 0
M  V30 7688 C 746.619 1.40111 1.57899 0
M  V30 7689 O 745.967 0.597976 2.20537 0
M  V30 7690 C 746.177 3.48821 0.11172 0
M  V30 7691 C 747.525 4.23499 0.30552 0
M  V30 7692 O 748.549 3.557 0.188758 0
M  V30 7693 O 747.408 5.43823 0.540244 0
M  V30 7694 H 744.502 0.818674 0.117054 0
M  V30 7695 H 747.048 1.61508 -0.520888 0
M  V30 7696 H 745.82 3.81263 -0.880577 0
M  V30 7697 H 745.443 3.88781 0.832791 0
M  V30 7698 N 746.441 0.193421 1.56409 0
M  V30 7699 C 747.688 -0.445789 1.97532 0
M  V30 7700 C 748.016 -1.61744 1.08024 0
M  V30 7701 O 747.271 -1.95338 0.118982 0
M  V30 7702 C 747.57 -0.949718 3.44551 0
M  V30 7703 C 747.236 0.108383 4.5077 0
M  V30 7704 C 745.898 0.399126 4.79542 0
M  V30 7705 C 748.25 0.825423 5.14622 0
M  V30 7706 C 745.578 1.41192 5.69457 0
M  V30 7707 C 747.93 1.82735 6.05632 0
M  V30 7708 C 746.594 2.12531 6.32761 0
M  V30 7709 H 745.864 -0.163126 0.722822 0
M  V30 7710 H 748.511 0.290035 1.89291 0
M  V30 7711 H 746.816 -1.76378 3.49854 0
M  V30 7712 H 748.513 -1.45367 3.73724 0
M  V30 7713 H 745.103 -0.128392 4.28408 0
M  V30 7714 H 749.287 0.61403 4.92487 0
M  V30 7715 H 744.543 1.6487 5.88751 0
M  V30 7716 H 748.717 2.3882 6.5417 0
M  V30 7717 H 746.344 2.91155 7.02234 0
M  V30 7718 N 747.919 -1.57396 -0.0801906 0
M  V30 7719 C 748.882 -2.02133 -1.0805 0
M  V30 7720 C 749.882 -0.91707 -1.32085 0
M  V30 7721 O 751.072 -1.18217 -1.27947 0
M  V30 7722 C 748.204 -2.39479 -2.42616 0
M  V30 7723 H 749.397 -2.91733 -0.6951 0
M  V30 7724 H 746.95 -1.52869 -0.325677 0
M  V30 7725 H 747.685 -1.52879 -2.86004 0
M  V30 7726 H 747.47 -3.20052 -2.26515 0
M  V30 7727 H 748.96 -2.74697 -3.14534 0
M  V30 7728 N 749.397 0.351382 -1.53633 0
M  V30 7729 C 750.643 1.09411 -1.70754 0
M  V30 7730 C 750.976 1.88544 -0.465293 0
M  V30 7731 O 750.251 1.86923 0.537608 0
M  V30 7732 C 750.534 2.04173 -2.96623 0
M  V30 7733 C 750.387 1.28556 -4.31038 0
M  V30 7734 C 751.706 3.04102 -3.18136 0
M  V30 7735 H 748.825 0.396373 -0.621335 0
M  V30 7736 H 751.467 0.373464 -1.86293 0
M  V30 7737 H 749.617 2.65625 -2.83506 0
M  V30 7738 H 751.289 0.697786 -4.55992 0
M  V30 7739 H 749.532 0.587498 -4.29803 0
M  V30 7740 H 750.203 1.97989 -5.15271 0
M  V30 7741 H 752.679 2.5276 -3.30532 0
M  V30 7742 H 751.555 3.67616 -4.07615 0
M  V30 7743 H 751.816 3.75053 -2.34068 0
M  V30 7744 N 750.875 1.45233 0.611969 0
M  V30 7745 C 752.1 1.52767 1.40274 0
M  V30 7746 C 752.525 0.159701 1.87421 0
M  V30 7747 O 751.883 -0.854837 1.59882 0
M  V30 7748 C 751.931 2.51286 2.58626 0
M  V30 7749 O 751.035 2.02764 3.59111 0
M  V30 7750 H 750.376 0.515141 0.418958 0
M  V30 7751 H 752.906 1.90547 0.745188 0
M  V30 7752 H 752.916 2.69949 3.05927 0
M  V30 7753 H 751.591 3.50641 2.23659 0
M  V30 7754 H 750.168 1.93957 3.18489 0
M  V30 7755 N 752.353 -0.854086 1.3245 0
M  V30 7756 C 753.764 -1.42427 1.20712 0
M  V30 7757 C 754.115 -1.95371 -0.18013 0
M  V30 7758 O 753.24 -1.87587 -1.07889 0
M  V30 7759 C 753.835 -2.58897 2.18536 0
M  V30 7760 C 752.394 -3.11913 2.10683 0
M  V30 7761 C 751.541 -1.84661 2.06871 0
M  V30 7762 H 754.492 -0.661192 1.4427 0
M  V30 7763 H 754.513 -3.36074 1.78422 0
M  V30 7764 H 754.025 -2.20333 3.19492 0
M  V30 7765 H 752.126 -3.55059 1.12977 0
M  V30 7766 H 752.239 -3.73119 3.00532 0
M  V30 7767 H 750.603 -2.04285 1.52118 0
M  V30 7768 H 751.386 -1.48314 3.09609 0
M  V30 7769 N 753.831 -1.1567 -1.07043 0
M  V30 7770 C 754.778 -0.856336 -2.14326 0
M  V30 7771 C 755.748 0.192051 -1.64986 0
M  V30 7772 O 756.933 0.0589148 -1.90709 0
M  V30 7773 C 754.073 -0.355227 -3.43267 0
M  V30 7774 C 753.186 -1.46555 -4.06381 0
M  V30 7775 C 752.321 -0.920245 -5.23168 0
M  V30 7776 C 751.36 -2.00729 -5.78251 0
M  V30 7777 N 750.497 -1.47813 -6.86364 0
M  V30 7778 H 755.337 -1.77514 -2.39359 0
M  V30 7779 H 752.874 -0.885676 -1.17449 0
M  V30 7780 H 754.832 -0.0463804 -4.17174 0
M  V30 7781 H 753.462 0.526649 -3.18475 0
M  V30 7782 H 752.514 -1.89052 -3.30096 0
M  V30 7783 H 753.826 -2.28616 -4.43324 0
M  V30 7784 H 752.98 -0.564127 -6.04072 0
M  V30 7785 H 751.719 -0.0688477 -4.87651 0
M  V30 7786 H 750.724 -2.3722 -4.95991 0
M  V30 7787 H 751.949 -2.86252 -6.15822 0
M  V30 7788 H 749.895 -0.649145 -6.5278 0
M  V30 7789 H 749.812 -2.23498 -7.22208 0
M  V30 7790 H 751.08 -1.15036 -7.70965 0
M  V30 7791 N 755.309 1.25446 -0.953992 0
M  V30 7792 C 756.239 2.28264 -0.491717 0
M  V30 7793 C 757.22 1.63717 0.461617 0
M  V30 7794 O 758.405 1.90821 0.36071 0
M  V30 7795 C 755.535 3.46525 0.231915 0
M  V30 7796 C 754.489 4.23247 -0.636098 0
M  V30 7797 C 753.815 5.34254 0.218238 0
M  V30 7798 C 755.115 4.85971 -1.91389 0
M  V30 7799 H 756.809 2.67183 -1.35106 0
M  V30 7800 H 754.355 1.2844 -0.651095 0
M  V30 7801 H 756.308 4.17576 0.566439 0
M  V30 7802 H 755.032 3.06594 1.12551 0
M  V30 7803 H 753.691 3.53978 -0.953696 0
M  V30 7804 H 753.339 4.90564 1.11156 0
M  V30 7805 H 753.039 5.86501 -0.359232 0
M  V30 7806 H 754.563 6.08138 0.547743 0
M  V30 7807 H 755.977 5.49168 -1.64581 0
M  V30 7808 H 754.374 5.48391 -2.43696 0
M  V30 7809 H 755.444 4.08192 -2.61738 0
M  V30 7810 N 756.787 0.722489 1.40064 0
M  V30 7811 C 757.72 0.0233443 2.28188 0
M  V30 7812 C 758.698 -0.7606 1.43714 0
M  V30 7813 O 759.882 -0.745791 1.73119 0
M  V30 7814 C 757.009 -0.974264 3.24385 0
M  V30 7815 C 756.055 -0.280307 4.25578 0
M  V30 7816 S 756.888 0.996769 5.26141 0
M  V30 7817 C 758.044 0.00143923 6.259 0
M  V30 7818 H 758.277 0.770705 2.87137 0
M  V30 7819 H 755.81 0.513783 1.45601 0
M  V30 7820 H 757.768 -1.5446 3.80332 0
M  V30 7821 H 756.429 -1.69438 2.6448 0
M  V30 7822 H 755.622 -1.03471 4.93264 0
M  V30 7823 H 755.224 0.217657 3.73366 0
M  V30 7824 H 757.516 -0.843126 6.72233 0
M  V30 7825 H 758.459 0.645104 7.05155 0
M  V30 7826 H 758.867 -0.365371 5.63316 0
M  V30 7827 N 758.265 -1.50454 0.469181 0
M  V30 7828 C 759.676 -1.86695 0.0136034 0
M  V30 7829 C 760.027 -1.38413 -1.39055 0
M  V30 7830 O 759.152 -0.748294 -2.03051 0
M  V30 7831 C 759.747 -3.38795 0.0179098 0
M  V30 7832 C 758.306 -3.74455 -0.382191 0
M  V30 7833 C 757.453 -2.74338 0.404207 0
M  V30 7834 H 760.404 -1.43225 0.683547 0
M  V30 7835 H 760.425 -3.72321 -0.78468 0
M  V30 7836 H 759.937 -3.73906 1.04 0
M  V30 7837 H 758.038 -3.44944 -1.4087 0
M  V30 7838 H 758.151 -4.79025 -0.084862 0
M  V30 7839 H 756.515 -2.54305 -0.141829 0
M  V30 7840 H 757.298 -3.12293 1.42577 0
M  V30 7841 N 759.743 -0.201713 -1.56304 0
M  V30 7842 C 760.676 0.755976 -2.15314 0
M  V30 7843 C 761.654 1.20497 -1.09175 0
M  V30 7844 O 762.838 1.2913 -1.37323 0
M  V30 7845 C 759.965 2.02177 -2.71739 0
M  V30 7846 C 759.011 1.71436 -3.90528 0
M  V30 7847 S 759.844 0.856624 -5.28604 0
M  V30 7848 C 761 2.13242 -5.88455 0
M  V30 7849 H 761.233 0.254348 -2.9621 0
M  V30 7850 H 758.766 0.0133669 -1.54394 0
M  V30 7851 H 760.724 2.74867 -3.04891 0
M  V30 7852 H 759.385 2.49452 -1.90873 0
M  V30 7853 H 758.578 2.65433 -4.28441 0
M  V30 7854 H 758.18 1.06823 -3.5842 0
M  V30 7855 H 760.472 3.08435 -6.0322 0
M  V30 7856 H 761.415 1.7975 -6.84905 0
M  V30 7857 H 761.823 2.2639 -5.17115 0
M  V30 7858 N 761.222 1.57436 0.0718424 0
M  V30 7859 C 762.154 2.00412 1.1121 0
M  V30 7860 C 763.167 0.910074 1.34987 0
M  V30 7861 O 764.356 1.18796 1.33228 0
M  V30 7862 C 761.456 2.32786 2.46301 0
M  V30 7863 C 760.629 3.64036 2.4248 0
M  V30 7864 C 759.688 3.8408 3.59679 0
M  V30 7865 O 758.714 4.55667 3.4111 0
M  V30 7866 N 759.916 3.2643 4.80025 0
M  V30 7867 H 762.681 2.90264 0.746118 0
M  V30 7868 H 760.242 1.59791 0.260495 0
M  V30 7869 H 762.234 2.43368 3.23348 0
M  V30 7870 H 760.804 1.48824 2.74901 0
M  V30 7871 H 760.024 3.64208 1.50818 0
M  V30 7872 H 761.312 4.50217 2.37027 0
M  V30 7873 H 760.71 2.68325 4.98014 0
M  V30 7874 H 759.267 3.42461 5.54584 0
M  V30 7875 N 762.7 -0.34323 1.53817 0
M  V30 7876 C 763.632 -1.44216 1.78141 0
M  V30 7877 C 764.645 -1.48701 0.662721 0
M  V30 7878 O 765.834 -1.51778 0.939458 0
M  V30 7879 C 762.934 -2.82872 1.86646 0
M  V30 7880 C 762.107 -3.01824 3.16577 0
M  V30 7881 C 761.166 -4.20723 3.16036 0
M  V30 7882 O 760.192 -4.14824 3.89756 0
M  V30 7883 N 761.394 -5.29276 2.38427 0
M  V30 7884 H 764.159 -1.23721 2.72971 0
M  V30 7885 H 761.72 -0.53311 1.52871 0
M  V30 7886 H 763.712 -3.60588 1.83735 0
M  V30 7887 H 762.282 -2.96509 0.990014 0
M  V30 7888 H 761.502 -2.11575 3.3261 0
M  V30 7889 H 762.79 -3.11369 4.02402 0
M  V30 7890 H 762.188 -5.36938 1.78085 0
M  V30 7891 H 760.745 -6.05484 2.41313 0
M  V30 7892 N 764.178 -1.45556 -0.604258 0
M  V30 7893 C 765.427 -1.49019 -1.35928 0
M  V30 7894 C 765.74 -0.137409 -1.95117 0
M  V30 7895 O 766.946 -0.0497032 -2.71455 0
M  V30 7896 C 765.402 -2.62477 -2.46239 0
M  V30 7897 C 765.01 -4.04082 -1.93447 0
M  V30 7898 C 766.754 -2.7519 -3.23219 0
M  V30 7899 C 764.661 -5.08917 -3.0126 0
M  V30 7900 H 763.591 -0.554518 -0.510907 0
M  V30 7901 H 766.242 -1.71705 -0.647262 0
M  V30 7902 H 764.624 -2.3308 -3.2014 0
M  V30 7903 H 765.798 -4.43173 -1.26232 0
M  V30 7904 H 764.113 -3.95849 -1.29201 0
M  V30 7905 H 766.71 -3.50683 -4.0364 0
M  V30 7906 H 767.053 -1.81941 -3.74437 0
M  V30 7907 H 767.586 -3.04129 -2.56418 0
M  V30 7908 H 764.325 -6.03886 -2.54955 0
M  V30 7909 H 763.845 -4.74393 -3.67031 0
M  V30 7910 H 765.524 -5.33814 -3.65584 0
M  V30 7911 N 765.656 0.84705 -1.32902 0
M  V30 7912 C 766.619 1.9378 -1.224 0
M  V30 7913 C 767.619 1.60144 -0.145108 0
M  V30 7914 O 768.809 1.69638 -0.396058 0
M  V30 7915 C 765.941 3.29234 -0.884174 0
M  V30 7916 H 767.134 2.04518 -2.19345 0
M  V30 7917 H 764.687 1.03816 -1.16842 0
M  V30 7918 H 765.422 3.24193 0.0831277 0
M  V30 7919 H 765.207 3.55026 -1.6643 0
M  V30 7920 H 766.697 4.09162 -0.835226 0
M  V30 7921 N 767.134 1.16236 1.06428 0
M  V30 7922 C 768.082 0.863669 2.15971 0
M  V30 7923 C 769.076 -0.166723 1.68578 0
M  V30 7924 O 770.282 -0.0208425 1.79988 0
M  V30 7925 H 766.657 0.261684 0.705 0
M  V30 7926 H 768.628 1.79498 2.38376 0
M  V30 7927 C 767.377 0.379697 3.45621 0
M  V30 7928 H 766.7 1.16399 3.82481 0
M  V30 7929 H 768.14 0.209458 4.23482 0
M  V30 7930 C 766.599 -0.900499 3.24642 0
M  V30 7931 O 767.129 -1.97004 3.50074 0
M  V30 7932 N 765.335 -0.843721 2.78082 0
M  V30 7933 H 764.882 0.0268429 2.57586 0
M  V30 7934 H 764.84 -1.70078 2.64425 0
M  V30 7935 O 768.651 -1.1913 1.09043 0
M  V30 7936 H 769.342 -1.77084 0.784907 0
M  V30 END ATOM
M  V30 BEGIN BOND
M  V30 END BOND
M  V30 END CTAB
M  END
$$$$
