drugbank_target|P56122 Chorismate synthase (DB03247)
 OpenBabel12092120273D

  0  0  0     0  0            999 V3000
M  V30 BEGIN CTAB
M  V30 COUNTS 5668 5709 0 0 0
M  V30 BEGIN ATOM
M  V30 1 H -0.908 1.98254 -0.117106 0
M  V30 2 N 0 1.576 0 0
M  V30 3 C 0.933 2.03868 1.02534 0
M  V30 4 C 1.911 0.928543 1.3348 0
M  V30 5 O 3.095 1.19667 1.45644 0
M  V30 6 C 0.222 2.43627 2.35294 0
M  V30 7 C -0.732 3.65373 2.2001 0
M  V30 8 S 0.101 5.13292 1.52614 0
M  V30 9 C 1.257 5.56322 2.86805 0
M  V30 10 H 1.49 2.90518 0.631377 0
M  V30 11 H -0.977 1.52953 0.210867 0
M  V30 12 H 0.981 2.67203 3.11629 0
M  V30 13 H -0.358 1.57376 2.7183 0
M  V30 14 H -1.165 3.90944 3.18086 0
M  V30 15 H -1.563 3.418 1.51819 0
M  V30 16 H 0.729 5.58782 3.83104 0
M  V30 17 H 1.672 6.56266 2.65933 0
M  V30 18 H 2.08 4.83886 2.90714 0
M  V30 19 N 1.4781 -0.272755 1.55222 0
M  V30 20 C 2.4261 -1.35705 1.88909 0
M  V30 21 C 3.4201 -1.5112 0.765456 0
M  V30 22 O 4.6261 -1.52901 0.949802 0
M  V30 23 H 1.0011 -0.453868 0.59959 0
M  V30 24 H 2.9721 -1.04544 2.79487 0
M  V30 25 C 1.7211 -2.71049 2.17779 0
M  V30 26 H 1.0441 -2.59979 3.03728 0
M  V30 27 H 2.4841 -3.45858 2.45272 0
M  V30 28 C 0.9431 -3.22165 0.985473 0
M  V30 29 O 1.4731 -4.01096 0.220233 0
M  V30 30 N -0.3209 -2.7985 0.783108 0
M  V30 31 H -0.7739 -2.15775 1.40708 0
M  V30 32 H -0.8159 -3.14397 -0.0130392 0
M  V30 33 N 2.9562 -1.48159 -0.537278 0
M  V30 34 C 4.1842 -1.59454 -1.31841 0
M  V30 35 C 4.5992 -0.252065 -1.8711 0
M  V30 36 O 3.9562 0.757621 -1.66031 0
M  V30 37 C 4.0072 -2.63546 -2.47439 0
M  V30 38 O 3.7282 -3.92583 -1.94449 0
M  V30 39 C 5.2292 -2.85212 -3.39366 0
M  V30 40 H 2.4492 -0.53785 -0.401196 0
M  V30 41 H 4.9932 -1.93932 -0.648891 0
M  V30 42 H 3.1482 -2.31946 -3.1029 0
M  V30 43 H 3.5622 -4.49629 -2.70063 0
M  V30 44 H 5.0362 -3.61863 -4.16844 0
M  V30 45 H 5.5132 -1.93765 -3.94147 0
M  V30 46 H 6.1192 -3.18086 -2.82314 0
M  V30 47 N 4.4343 0.785586 -1.36625 0
M  V30 48 C 5.3643 1.91259 -1.33949 0
M  V30 49 C 6.3453 1.68795 -0.210325 0
M  V30 50 O 7.5303 1.89854 -0.408561 0
M  V30 51 C 4.6603 3.28339 -1.13186 0
M  V30 52 C 3.6143 3.65335 -2.22967 0
M  V30 53 C 2.9403 5.00806 -1.87342 0
M  V30 54 C 4.2403 3.7352 -3.65075 0
M  V30 55 H 5.9343 1.93755 -2.28253 0
M  V30 56 H 3.4803 0.930788 -1.09874 0
M  V30 57 H 5.4333 4.06804 -1.09948 0
M  V30 58 H 4.1573 3.2624 -0.153332 0
M  V30 59 H 2.8163 2.89169 -2.25337 0
M  V30 60 H 2.4643 4.95233 -0.880545 0
M  V30 61 H 2.1643 5.26529 -2.60846 0
M  V30 62 H 3.6883 5.81687 -1.85667 0
M  V30 63 H 5.1023 4.42168 -3.64911 0
M  V30 64 H 3.4993 4.10731 -4.37516 0
M  V30 65 H 4.5693 2.74527 -3.99703 0
M  V30 66 N 5.9124 1.20967 1.01018 0
M  V30 67 C 7.1604 1.02172 1.74371 0
M  V30 68 C 7.4814 -0.446414 1.89821 0
M  V30 69 O 6.7514 -1.32234 1.44537 0
M  V30 70 H 5.3314 0.375066 0.646014 0
M  V30 71 H 7.9934 1.52187 1.21758 0
M  V30 72 H 7.0894 1.48538 2.74487 0
M  V30 73 N 7.3905 -1.2043 1.01659 0
M  V30 74 C 8.8065 -1.41852 0.731442 0
M  V30 75 C 9.0065 -1.89358 -0.688898 0
M  V30 76 O 8.0625 -2.06247 -1.45666 0
M  V30 77 C 9.3755 -2.44019 1.75714 0
M  V30 78 C 10.9235 -2.57785 1.77527 0
M  V30 79 C 11.3985 -3.63194 2.79023 0
M  V30 80 N 12.8895 -3.70678 2.77763 0
M  V30 81 C 13.6245 -4.51897 3.52954 0
M  V30 82 N 13.1205 -5.36921 4.37821 0
M  V30 83 N 14.9135 -4.4643 3.41551 0
M  V30 84 H 7.0645 -0.879093 1.93354 0
M  V30 85 H 9.3275 -0.448425 0.835236 0
M  V30 86 H 9.0335 -2.1611 2.77469 0
M  V30 87 H 8.9075 -3.43007 1.56927 0
M  V30 88 H 11.2945 -2.85023 0.764569 0
M  V30 89 H 11.3755 -1.58992 2.00387 0
M  V30 90 H 11.0195 -3.36699 3.80258 0
M  V30 91 H 10.9495 -4.61609 2.53425 0
M  V30 92 H 13.4405 -3.09944 2.16201 0
M  V30 93 H 13.7535 -5.95981 4.91962 0
M  V30 94 H 12.0985 -5.36424 4.41899 0
M  V30 95 H 15.2895 -3.79042 2.74672 0
M  V30 96 H 15.4625 -5.09491 4.00404 0
M  V30 97 N 8.8686 -0.792821 -1.36206 0
M  V30 98 C 10.1156 -0.366786 -1.99151 0
M  V30 99 C 10.4436 1.06243 -1.62919 0
M  V30 100 O 9.6986 1.74927 -0.877442 0
M  V30 101 C 9.9976 -0.481501 -3.54142 0
M  V30 102 C 9.6636 -1.87202 -4.10203 0
M  V30 103 C 8.3256 -2.25248 -4.25226 0
M  V30 104 C 10.6776 -2.78237 -4.40719 0
M  V30 105 C 8.0056 -3.53723 -4.68078 0
M  V30 106 C 10.3576 -4.06144 -4.85005 0
M  V30 107 C 9.0216 -4.44207 -4.98234 0
M  V30 108 H 8.2916 -0.134217 -0.728743 0
M  V30 109 H 10.9386 -1.01094 -1.62641 0
M  V30 110 H 9.2436 0.246146 -3.91026 0
M  V30 111 H 10.9406 -0.132844 -4.0078 0
M  V30 112 H 7.5306 -1.56639 -3.98951 0
M  V30 113 H 11.7146 -2.50097 -4.28679 0
M  V30 114 H 6.9706 -3.8308 -4.76508 0
M  V30 115 H 11.1446 -4.76796 -5.07581 0
M  V30 116 H 8.7716 -5.43814 -5.31197 0
M  V30 117 N 10.3467 1.47872 -0.545128 0
M  V30 118 C 11.2767 2.32661 0.197793 0
M  V30 119 C 12.2577 1.43041 0.920504 0
M  V30 120 O 13.4427 1.71912 0.90333 0
M  V30 121 C 10.5727 3.24569 1.23582 0
M  V30 122 C 9.5267 4.23333 0.630323 0
M  V30 123 C 8.8527 5.0448 1.77211 0
M  V30 124 C 10.1527 5.20704 -0.407974 0
M  V30 125 H 11.8467 2.95024 -0.510045 0
M  V30 126 H 9.3927 1.4187 -0.246731 0
M  V30 127 H 11.3457 3.8272 1.76362 0
M  V30 128 H 10.0697 2.60236 1.97344 0
M  V30 129 H 8.7287 3.6639 0.123922 0
M  V30 130 H 8.3767 4.36561 2.49847 0
M  V30 131 H 8.0767 5.71339 1.37281 0
M  V30 132 H 9.6007 5.65487 2.3034 0
M  V30 133 H 11.0147 5.7329 0.033305 0
M  V30 134 H 9.4117 5.95699 -0.725486 0
M  V30 135 H 10.4817 4.66917 -1.30828 0
M  V30 136 N 11.8248 0.280983 1.55075 0
M  V30 137 C 13.2408 -0.0729964 1.59433 0
M  V30 138 C 13.4408 -1.5411 1.29817 0
M  V30 139 O 12.4968 -2.29086 1.06187 0
M  V30 140 C 13.8098 0.306921 2.9913 0
M  V30 141 C 15.3578 0.254023 3.11968 0
M  V30 142 C 15.8328 0.608467 4.5394 0
M  V30 143 N 17.3238 0.560241 4.59799 0
M  V30 144 C 18.0588 0.80722 5.6769 0
M  V30 145 N 17.5548 1.11912 6.83701 0
M  V30 146 N 19.3478 0.735623 5.57266 0
M  V30 147 H 11.4988 1.238 1.7259 0
M  V30 148 H 13.7618 0.500547 0.805082 0
M  V30 149 H 13.4678 1.32816 3.25657 0
M  V30 150 H 13.3418 -0.349363 3.75579 0
M  V30 151 H 15.7288 -0.75794 2.852 0
M  V30 152 H 15.8098 0.944649 2.37718 0
M  V30 153 H 15.4538 1.61814 4.81434 0
M  V30 154 H 15.3838 -0.104013 5.26497 0
M  V30 155 H 17.8748 0.329288 3.76463 0
M  V30 156 H 18.1878 1.29409 7.61888 0
M  V30 157 H 16.5328 1.15695 6.85303 0
M  V30 158 H 19.7238 0.491752 4.6551 0
M  V30 159 H 19.8968 0.931482 6.4127 0
M  V30 160 N 13.3029 -1.57598 0.00835791 0
M  V30 161 C 14.2329 -2.1198 -0.979113 0
M  V30 162 C 15.2139 -1.03091 -1.35301 0
M  V30 163 O 16.3989 -1.30818 -1.43528 0
M  V30 164 C 13.5289 -2.62995 -2.26828 0
M  V30 165 C 12.4829 -3.76485 -2.03576 0
M  V30 166 C 11.8089 -4.13846 -3.38579 0
M  V30 167 C 13.1089 -5.0342 -1.39161 0
M  V30 168 H 14.8029 -2.94738 -0.526281 0
M  V30 169 H 12.3489 -1.41783 -0.251704 0
M  V30 170 H 14.3019 -2.99669 -2.96271 0
M  V30 171 H 13.0259 -1.7737 -2.7424 0
M  V30 172 H 11.6849 -3.40217 -1.36557 0
M  V30 173 H 11.3329 -3.25232 -3.83709 0
M  V30 174 H 11.0329 -4.90312 -3.23834 0
M  V30 175 H 12.5569 -4.53086 -4.09323 0
M  V30 176 H 13.9709 -5.37812 -1.98573 0
M  V30 177 H 12.3679 -5.84746 -1.34878 0
M  V30 178 H 13.4379 -4.83548 -0.361868 0
M  V30 179 N 14.781 0.264519 -1.55364 0
M  V30 180 C 16.009 1.013 -1.80405 0
M  V30 181 C 16.424 1.79618 -0.581622 0
M  V30 182 O 15.781 1.76879 0.449468 0
M  V30 183 C 15.832 1.96487 -3.03439 0
M  V30 184 O 15.553 1.21341 -4.20961 0
M  V30 185 C 17.054 2.83079 -3.41147 0
M  V30 186 H 14.274 0.298875 -0.600762 0
M  V30 187 H 16.818 0.292736 -2.02394 0
M  V30 188 H 14.973 2.63965 -2.83551 0
M  V30 189 H 15.387 1.85573 -4.90574 0
M  V30 190 H 16.861 3.4565 -4.30384 0
M  V30 191 H 17.338 3.53286 -2.60932 0
M  V30 192 H 17.944 2.2108 -3.63323 0
M  V30 193 N 16.2591 1.48442 0.529413 0
M  V30 194 C 17.4871 1.60151 1.30994 0
M  V30 195 C 17.9021 0.261985 1.86973 0
M  V30 196 O 17.2591 -0.748805 1.66431 0
M  V30 197 C 17.3101 2.64854 2.46038 0
M  V30 198 O 17.0311 3.93608 1.92365 0
M  V30 199 C 18.5321 2.87007 3.37849 0
M  V30 200 H 15.7521 0.539971 0.398338 0
M  V30 201 H 18.2961 1.94273 0.638597 0
M  V30 202 H 16.4511 2.33589 3.09055 0
M  V30 203 H 16.8651 4.51055 2.67675 0
M  V30 204 H 18.3391 3.64068 4.14919 0
M  V30 205 H 18.8161 1.95852 3.93114 0
M  V30 206 H 19.4221 3.19579 2.80623 0
M  V30 207 N 17.7372 -0.778329 1.37039 0
M  V30 208 C 18.9842 -1.53665 1.31884 0
M  V30 209 C 19.3122 -1.9425 -0.0986303 0
M  V30 210 O 18.5672 -1.63832 -1.07041 0
M  V30 211 C 18.8662 -2.81845 2.19768 0
M  V30 212 C 18.5322 -2.60345 3.68146 0
M  V30 213 C 17.1942 -2.5419 4.08584 0
M  V30 214 C 19.5462 -2.40923 4.62175 0
M  V30 215 C 16.8742 -2.26594 5.41177 0
M  V30 216 C 19.2262 -2.14852 5.94997 0
M  V30 217 C 17.8902 -2.07137 6.34547 0
M  V30 218 H 17.1602 -0.562299 0.482598 0
M  V30 219 H 19.8072 -0.897069 1.69189 0
M  V30 220 H 18.1122 -3.50328 1.75436 0
M  V30 221 H 19.8092 -3.39692 2.13097 0
M  V30 222 H 16.3992 -2.65996 3.36072 0
M  V30 223 H 20.5832 -2.44673 4.31797 0
M  V30 224 H 15.8392 -2.19111 5.70789 0
M  V30 225 H 20.0132 -1.98822 6.67415 0
M  V30 226 H 17.6402 -1.85518 7.37216 0
M  V30 227 N 19.2153 -1.21501 -1.00376 0
M  V30 228 C 20.4633 -1.03095 -1.73827 0
M  V30 229 C 20.7843 0.436341 -1.90055 0
M  V30 230 O 20.0543 1.31466 -1.45236 0
M  V30 231 H 18.6343 -0.378487 -0.644016 0
M  V30 232 H 21.2963 -1.52831 -1.20949 0
M  V30 233 H 20.3923 -1.49991 -2.73695 0
M  V30 234 N 20.6934 1.19889 -1.02296 0
M  V30 235 C 21.6034 2.26571 -0.608508 0
M  V30 236 C 22.6194 1.70299 0.356964 0
M  V30 237 O 23.7954 2.00235 0.216326 0
M  V30 238 C 20.8604 3.46677 0.0402814 0
M  V30 239 C 19.9214 4.18153 -0.97194 0
M  V30 240 C 19.1544 5.32525 -0.354016 0
M  V30 241 O 19.3774 5.64112 0.844604 0
M  V30 242 O 18.3114 5.92242 -1.07391 0
M  V30 243 H 22.1374 2.64251 -1.49684 0
M  V30 244 H 19.7224 1.26629 -0.792809 0
M  V30 245 H 21.6044 4.19475 0.402324 0
M  V30 246 H 20.2794 3.10858 0.902707 0
M  V30 247 H 19.1864 3.47499 -1.38546 0
M  V30 248 H 20.5194 4.57927 -1.80454 0
M  V30 249 N 22.1715 0.800033 1.35784 0
M  V30 250 C 23.3965 0.388511 2.03729 0
M  V30 251 C 23.8215 -0.990481 1.5991 0
M  V30 252 O 23.1795 -1.64013 0.772612 0
M  V30 253 C 23.2275 0.4726 3.5749 0
M  V30 254 O 22.3315 -0.51646 4.09153 0
M  V30 255 H 21.6725 0.163271 0.643614 0
M  V30 256 H 24.2025 1.0841 1.73518 0
M  V30 257 H 24.2125 0.34003 4.06581 0
M  V30 258 H 22.8875 1.47848 3.88734 0
M  V30 259 H 21.4645 -0.344673 3.71304 0
M  V30 260 N 23.6496 -1.47581 0.552962 0
M  V30 261 C 24.5996 -2.26961 -0.217423 0
M  V30 262 C 25.5836 -1.34099 -0.889168 0
M  V30 263 O 26.7756 -1.58483 -0.788176 0
M  V30 264 C 23.9046 -3.19756 -1.24944 0
M  V30 265 C 22.9906 -4.20097 -0.581327 0
M  V30 266 N 23.3816 -5.04614 0.346171 0
M  V30 267 C 21.6796 -4.38099 -0.835767 0
M  V30 268 C 22.3806 -5.77052 0.733854 0
M  V30 269 N 21.3566 -5.43526 0.0896567 0
M  V30 270 H 25.1586 -2.89688 0.495761 0
M  V30 271 H 22.6726 -1.58068 0.372597 0
M  V30 272 H 24.6696 -3.75305 -1.81527 0
M  V30 273 H 23.3296 -2.58585 -1.96376 0
M  V30 274 H 24.3406 -5.12869 0.720098 0
M  V30 275 H 21.0176 -3.88102 -1.53892 0
M  V30 276 H 22.4076 -6.5504 1.49574 0
M  V30 277 N 25.1277 -0.289203 -1.54924 0
M  V30 278 C 26.3757 0.322879 -1.99504 0
M  V30 279 C 26.6967 1.55313 -1.1791 0
M  V30 280 O 25.9667 1.94001 -0.272097 0
M  V30 281 H 24.5467 0.122291 -0.736922 0
M  V30 282 H 27.2087 -0.397802 -1.90797 0
M  V30 283 H 26.3047 0.603061 -3.06218 0
M  V30 284 N 26.6058 1.57591 -0.0167156 0
M  V30 285 C 27.8828 1.82547 0.702564 0
M  V30 286 C 28.2628 0.898018 1.91047 0
M  V30 287 O 27.6108 -0.0493456 2.28447 0
M  V30 288 C 27.8208 3.31459 1.09251 0
M  V30 289 C 29.1688 3.97622 1.48937 0
M  V30 290 O 30.1928 3.35881 1.18584 0
M  V30 291 O 29.0518 5.06415 2.05442 0
M  V30 292 H 26.1458 0.752268 0.343544 0
M  V30 293 H 28.6918 1.69644 -0.0434495 0
M  V30 294 H 27.4638 3.9061 0.23227 0
M  V30 295 H 27.0868 3.49422 1.89709 0
M  V30 296 N 28.0839 -0.256276 1.55502 0
M  V30 297 C 29.3299 -0.987079 1.77157 0
M  V30 298 C 29.6629 -1.85327 0.580315 0
M  V30 299 O 28.9379 -1.89874 -0.421686 0
M  V30 300 C 29.2209 -1.85553 3.08613 0
M  V30 301 C 29.0739 -1.01816 4.38125 0
M  V30 302 C 30.3929 -2.8397 3.36228 0
M  V30 303 H 27.5119 -0.357428 0.644526 0
M  V30 304 H 30.1539 -0.258239 1.88237 0
M  V30 305 H 28.3039 -2.47695 2.99298 0
M  V30 306 H 29.9759 -0.416159 4.59419 0
M  V30 307 H 28.2189 -0.322178 4.32602 0
M  V30 308 H 28.8899 -1.65939 5.26468 0
M  V30 309 H 31.3659 -2.31964 3.45445 0
M  V30 310 H 30.2419 -3.41864 4.29442 0
M  V30 311 H 30.5029 -3.59955 2.56681 0
M  V30 312 N 29.562 -1.4872 -0.521534 0
M  V30 313 C 30.811 -1.56419 -1.27341 0
M  V30 314 C 31.124 -0.246805 -1.94037 0
M  V30 315 O 32.33 -0.202122 -2.70747 0
M  V30 316 C 30.786 -2.75896 -2.31105 0
M  V30 317 C 30.394 -4.14311 -1.70441 0
M  V30 318 C 32.138 -2.92913 -3.07249 0
M  V30 319 C 30.045 -5.25038 -2.72194 0
M  V30 320 H 28.975 -0.582344 -0.478949 0
M  V30 321 H 31.626 -1.75071 -0.549779 0
M  V30 322 H 30.008 -2.50697 -3.06541 0
M  V30 323 H 31.182 -4.49564 -1.01136 0
M  V30 324 H 29.497 -4.02482 -1.06759 0
M  V30 325 H 32.094 -3.72805 -3.83302 0
M  V30 326 H 32.437 -2.02689 -3.63625 0
M  V30 327 H 32.97 -3.18054 -2.38928 0
M  V30 328 H 29.709 -6.17255 -2.20627 0
M  V30 329 H 29.229 -4.94263 -3.39801 0
M  V30 330 H 30.908 -5.53508 -3.35019 0
M  V30 331 N 31.0401 0.771051 -1.3745 0
M  V30 332 C 32.2881 1.52661 -1.32435 0
M  V30 333 C 32.6091 1.9479 0.0905024 0
M  V30 334 O 31.8791 1.66348 1.03466 0
M  V30 335 H 30.4591 0.566218 -0.487244 0
M  V30 336 H 33.1211 0.917636 -1.71946 0
M  V30 337 H 32.2171 2.42568 -1.96385 0
M  V30 338 N 32.5182 1.22032 0.997298 0
M  V30 339 C 33.7662 1.04016 1.73278 0
M  V30 340 C 34.0872 -0.426255 1.90284 0
M  V30 341 O 33.3572 -1.30694 1.45931 0
M  V30 342 H 31.9372 0.381897 0.642 0
M  V30 343 H 34.5992 1.5347 1.20137 0
M  V30 344 H 33.6952 1.51441 2.72896 0
M  V30 345 N 33.9963 -1.19345 1.0293 0
M  V30 346 C 35.2423 -1.89318 0.727083 0
M  V30 347 C 35.5753 -1.79446 -0.742483 0
M  V30 348 O 34.8503 -1.1871 -1.54072 0
M  V30 349 C 35.1333 -3.40238 1.17942 0
M  V30 350 C 34.9863 -3.58979 2.71024 0
M  V30 351 C 36.3053 -4.33479 0.760548 0
M  V30 352 H 33.4243 -0.687475 0.265606 0
M  V30 353 H 36.0663 -1.40477 1.2793 0
M  V30 354 H 34.2163 -3.81964 0.709608 0
M  V30 355 H 35.8883 -3.26421 3.25955 0
M  V30 356 H 34.1313 -3.02018 3.11396 0
M  V30 357 H 34.8023 -4.64823 2.9773 0
M  V30 358 H 37.2783 -3.99469 1.16464 0
M  V30 359 H 36.1543 -5.37664 1.10493 0
M  V30 360 H 36.4153 -4.40813 -0.337063 0
M  V30 361 N 35.4744 -0.807222 -1.35358 0
M  V30 362 C 36.4044 -0.232509 -2.3234 0
M  V30 363 C 37.3854 0.642386 -1.57504 0
M  V30 364 O 38.5704 0.572526 -1.85569 0
M  V30 365 C 35.7004 0.619238 -3.41735 0
M  V30 366 C 34.6544 -0.157215 -4.27711 0
M  V30 367 C 33.9804 0.816273 -5.28433 0
M  V30 368 C 35.2804 -1.35656 -5.04376 0
M  V30 369 H 36.9744 -1.04276 -2.80654 0
M  V30 370 H 34.5204 -0.50288 -1.34934 0
M  V30 371 H 36.4734 1.03137 -4.08584 0
M  V30 372 H 35.1974 1.46239 -2.92031 0
M  V30 373 H 33.8564 -0.550525 -3.62443 0
M  V30 374 H 33.5044 1.65494 -4.74996 0
M  V30 375 H 33.2044 0.301067 -5.86828 0
M  V30 376 H 34.7284 1.22659 -5.98153 0
M  V30 377 H 36.1424 -1.01927 -5.64166 0
M  V30 378 H 34.5394 -1.8063 -5.7227 0
M  V30 379 H 35.6094 -2.14288 -4.34981 0
M  V30 380 N 36.9525 1.47285 -0.560781 0
M  V30 381 C 38.2295 1.9558 0.0277798 0
M  V30 382 C 38.6095 1.5034 1.48192 0
M  V30 383 O 37.9575 0.743882 2.16052 0
M  V30 384 C 38.1675 3.48789 -0.121418 0
M  V30 385 C 39.5155 4.24594 0.0220912 0
M  V30 386 O 40.5395 3.56166 -0.0491439 0
M  V30 387 O 39.3985 5.46217 0.175958 0
M  V30 388 H 36.4925 0.824663 0.0621342 0
M  V30 389 H 39.0385 1.5767 -0.627556 0
M  V30 390 H 37.8105 3.74533 -1.13316 0
M  V30 391 H 37.4335 3.93473 0.571366 0
M  V30 392 N 38.4306 0.297415 1.54768 0
M  V30 393 C 39.6786 -0.312295 1.99673 0
M  V30 394 C 39.9996 -1.54686 1.18732 0
M  V30 395 O 39.2696 -1.93854 0.282382 0
M  V30 396 H 37.8496 -0.118381 0.73756 0
M  V30 397 H 40.5116 0.407915 1.90583 0
M  V30 398 H 39.6076 -0.586813 3.06534 0
M  V30 399 N 39.9087 -1.5758 0.0250728 0
M  V30 400 C 40.8417 -2.05473 -0.992777 0
M  V30 401 C 41.8197 -0.949661 -1.31986 0
M  V30 402 O 43.0037 -1.21969 -1.43722 0
M  V30 403 C 40.1307 -2.4734 -2.31389 0
M  V30 404 C 39.1767 -3.68827 -2.1417 0
M  V30 405 S 40.0097 -5.15655 -1.44429 0
M  V30 406 C 41.1657 -5.60814 -2.77918 0
M  V30 407 H 41.3987 -2.91486 -0.585078 0
M  V30 408 H 38.9317 -1.53269 -0.186507 0
M  V30 409 H 40.8897 -2.72127 -3.07339 0
M  V30 410 H 39.5507 -1.6168 -2.69292 0
M  V30 411 H 38.7437 -3.95955 -3.11826 0
M  V30 412 H 38.3457 -3.44172 -1.46362 0
M  V30 413 H 40.6377 -5.64806 -3.74166 0
M  V30 414 H 41.5807 -6.60414 -2.55459 0
M  V30 415 H 41.9887 -4.8845 -2.82979 0
M  V30 416 N 41.3868 0.248026 -1.55636 0
M  V30 417 C 42.7978 0.817177 -1.67866 0
M  V30 418 C 43.1488 1.86069 -0.622322 0
M  V30 419 O 42.2738 2.15157 0.231618 0
M  V30 420 C 42.8688 1.489 -3.04326 0
M  V30 421 C 41.4278 2.00587 -3.185 0
M  V30 422 C 40.5748 0.856573 -2.63739 0
M  V30 423 H 43.5258 0.0238579 -1.58682 0
M  V30 424 H 43.5468 2.35698 -2.98708 0
M  V30 425 H 43.0588 0.729279 -3.81186 0
M  V30 426 H 41.1598 2.79443 -2.4646 0
M  V30 427 H 41.2728 2.20402 -4.25393 0
M  V30 428 H 39.6368 1.25678 -2.21534 0
M  V30 429 H 40.4198 0.109953 -3.43124 0
M  V30 430 N 42.8649 1.48995 0.513639 0
M  V30 431 C 44.0899 1.61792 1.29762 0
M  V30 432 C 44.5149 0.284475 1.85936 0
M  V30 433 O 43.8729 -0.746185 1.65232 0
M  V30 434 C 43.9209 2.67993 2.41272 0
M  V30 435 O 43.0249 2.26287 3.44772 0
M  V30 436 H 42.3659 0.541963 0.38363 0
M  V30 437 H 44.8959 1.95097 0.616307 0
M  V30 438 H 44.9059 2.89772 2.87221 0
M  V30 439 H 43.5809 3.64791 1.9975 0
M  V30 440 H 42.1579 2.14788 3.04829 0
M  V30 441 N 44.343 -0.763751 1.37857 0
M  V30 442 C 45.591 -1.51957 1.33243 0
M  V30 443 C 45.912 -1.94835 -0.0801709 0
M  V30 444 O 45.182 -1.66894 -1.02582 0
M  V30 445 H 43.762 -0.563626 0.49024 0
M  V30 446 H 46.424 -0.908504 1.7243 0
M  V30 447 H 45.52 -2.41523 1.97669 0
M  V30 448 N 45.8211 -1.22559 -0.990812 0
M  V30 449 C 47.0701 -1.04553 -1.72486 0
M  V30 450 C 47.3831 0.419349 -1.91052 0
M  V30 451 O 48.5891 0.719121 -2.61803 0
M  V30 452 C 47.0451 -1.82231 -3.10355 0
M  V30 453 C 46.6531 -3.32981 -2.99713 0
M  V30 454 C 48.3971 -1.7268 -3.87791 0
M  V30 455 C 46.3041 -4.03091 -4.32748 0
M  V30 456 H 45.2341 -0.387614 -0.646739 0
M  V30 457 H 47.8851 -1.46429 -1.10593 0
M  V30 458 H 46.2671 -1.33155 -3.72942 0
M  V30 459 H 47.4411 -3.89466 -2.46278 0
M  V30 460 H 45.7561 -3.43231 -2.35758 0
M  V30 461 H 48.3531 -2.22381 -4.86262 0
M  V30 462 H 48.6961 -0.687607 -4.10582 0
M  V30 463 H 49.2291 -2.1931 -3.31885 0
M  V30 464 H 45.9681 -5.07273 -4.15156 0
M  V30 465 H 45.4881 -3.51394 -4.86089 0
M  V30 466 H 47.1671 -4.08804 -5.01486 0
M  V30 467 N 47.2992 1.18797 -1.03562 0
M  V30 468 C 48.2462 2.22253 -0.622259 0
M  V30 469 C 49.2162 1.61987 0.36736 0
M  V30 470 O 50.4012 1.88986 0.262492 0
M  V30 471 C 47.5412 3.45097 0.0138462 0
M  V30 472 C 46.6542 4.19722 -1.02263 0
M  V30 473 C 45.7892 5.30009 -0.355573 0
M  V30 474 C 44.8282 5.96399 -1.37749 0
M  V30 475 N 43.9652 6.98234 -0.735766 0
M  V30 476 H 48.8052 2.56968 -1.50903 0
M  V30 477 H 46.3422 1.26245 -0.755017 0
M  V30 478 H 48.3002 4.15279 0.399948 0
M  V30 479 H 46.9302 3.11018 0.864158 0
M  V30 480 H 45.9822 3.48418 -1.52673 0
M  V30 481 H 47.2942 4.65227 -1.79903 0
M  V30 482 H 46.4482 6.0664 0.0850095 0
M  V30 483 H 45.1872 4.85592 0.452967 0
M  V30 484 H 44.1922 5.18512 -1.82826 0
M  V30 485 H 45.4172 6.42899 -2.18764 0
M  V30 486 H 43.3632 6.55979 0.0525597 0
M  V30 487 H 43.2802 7.41965 -1.44995 0
M  V30 488 H 44.5482 7.78845 -0.31941 0
M  V30 489 N 48.7773 0.814389 1.34928 0
M  V30 490 C 50.0263 0.394871 1.97797 0
M  V30 491 C 50.3393 -1.04555 1.65311 0
M  V30 492 O 51.5453 -1.56856 2.21604 0
M  V30 493 C 50.0013 0.655103 3.53888 0
M  V30 494 C 49.6093 2.10858 3.95276 0
M  V30 495 C 51.3533 0.301329 4.23429 0
M  V30 496 C 49.2603 2.31415 5.44244 0
M  V30 497 H 48.1903 0.143913 0.740139 0
M  V30 498 H 50.8413 0.999544 1.53888 0
M  V30 499 H 49.2233 -0.0196253 3.95995 0
M  V30 500 H 50.3973 2.82176 3.64298 0
M  V30 501 H 48.7123 2.42297 3.38646 0
M  V30 502 H 51.3093 0.432869 5.32945 0
M  V30 503 H 51.6523 -0.75331 4.09428 0
M  V30 504 H 52.1853 0.930288 3.86769 0
M  V30 505 H 48.9243 3.35353 5.63222 0
M  V30 506 H 48.4443 1.6463 5.76764 0
M  V30 507 H 50.1233 2.13352 6.10811 0
M  V30 508 N 50.2554 -1.46986 0.568584 0
M  V30 509 C 51.5324 -1.95592 -0.0174074 0
M  V30 510 C 51.9124 -1.51124 -1.47393 0
M  V30 511 O 51.2604 -0.755329 -2.15655 0
M  V30 512 C 51.4704 -3.48719 0.139913 0
M  V30 513 C 52.8184 -4.246 0.000426376 0
M  V30 514 O 53.8424 -3.56135 0.0680316 0
M  V30 515 O 52.7014 -5.46302 -0.146988 0
M  V30 516 H 49.7954 -0.82498 -0.0577599 0
M  V30 517 H 52.3414 -1.57335 0.635909 0
M  V30 518 H 51.1134 -3.73927 1.15301 0
M  V30 519 H 50.7364 -3.93771 -0.550491 0
M  V30 520 N 51.7335 -0.305618 -1.54608 0
M  V30 521 C 52.9635 0.304333 -2.04346 0
M  V30 522 C 53.3715 1.47715 -1.18224 0
M  V30 523 O 52.7145 1.82591 -0.201577 0
M  V30 524 C 52.7765 0.819031 -3.50046 0
M  V30 525 C 52.4405 -0.22912 -4.56425 0
M  V30 526 C 53.4375 -1.05914 -5.08997 0
M  V30 527 C 51.1225 -0.372148 -5.0092 0
M  V30 528 C 53.1165 -2.01809 -6.04609 0
M  V30 529 C 50.8035 -1.33454 -5.9635 0
M  V30 530 C 51.8015 -2.15599 -6.48079 0
M  V30 531 O 51.4895 -3.10205 -7.41639 0
M  V30 532 H 51.2215 0.0693996 -0.672428 0
M  V30 533 H 53.7755 -0.444548 -2.00532 0
M  V30 534 H 52.0055 1.61852 -3.51199 0
M  V30 535 H 53.6945 1.34537 -3.82955 0
M  V30 536 H 54.4605 -0.959538 -4.75413 0
M  V30 537 H 50.3395 0.257304 -4.60281 0
M  V30 538 H 53.8835 -2.65966 -6.44909 0
M  V30 539 H 49.7805 -1.43485 -6.29351 0
M  V30 540 H 50.5485 -3.05237 -7.59455 0
M  V30 541 N 53.2116 1.57565 -0.0334293 0
M  V30 542 C 54.1746 2.09393 0.932048 0
M  V30 543 C 55.1746 1.00986 1.25134 0
M  V30 544 O 56.3646 1.27129 1.19096 0
M  V30 545 C 53.4966 2.56338 2.2473 0
M  V30 546 H 54.6896 2.95984 0.483085 0
M  V30 547 H 52.2426 1.54819 0.21468 0
M  V30 548 H 52.9776 1.7309 2.74245 0
M  V30 549 H 52.7626 3.35542 2.02865 0
M  V30 550 H 54.2526 2.96646 2.93923 0
M  V30 551 N 54.6897 -0.239769 1.55765 0
M  V30 552 C 55.6197 -1.30052 1.9393 0
M  V30 553 C 56.6007 -1.49839 0.805132 0
M  V30 554 O 57.7857 -1.62328 1.06599 0
M  V30 555 C 54.9157 -2.65391 2.2402 0
M  V30 556 C 53.8697 -2.60289 3.39755 0
M  V30 557 C 53.1957 -3.99489 3.55405 0
M  V30 558 C 54.4957 -2.16654 4.75246 0
M  V30 559 H 56.1897 -0.983573 2.82783 0
M  V30 560 H 53.7357 -0.471701 1.36055 0
M  V30 561 H 55.6887 -3.3974 2.49308 0
M  V30 562 H 54.4127 -2.98736 1.32 0
M  V30 563 H 53.0717 -1.88398 3.14487 0
M  V30 564 H 52.7197 -4.30112 2.60793 0
M  V30 565 H 52.4197 -3.96962 4.33238 0
M  V30 566 H 53.9437 -4.75528 3.83022 0
M  V30 567 H 55.3577 -2.80737 4.99859 0
M  V30 568 H 53.7547 -2.25223 5.56232 0
M  V30 569 H 54.8247 -1.11835 4.71827 0
M  V30 570 N 56.1678 -1.49265 -0.50573 0
M  V30 571 C 57.0978 -1.68495 -1.61653 0
M  V30 572 C 58.0788 -0.53366 -1.61512 0
M  V30 573 O 59.2638 -0.76897 -1.78327 0
M  V30 574 C 56.3938 -1.74709 -3.00157 0
M  V30 575 C 55.3478 -2.89581 -3.15162 0
M  V30 576 C 54.6738 -2.80903 -4.5497 0
M  V30 577 C 55.9738 -4.30578 -2.95634 0
M  V30 578 H 57.6678 -2.61493 -1.45814 0
M  V30 579 H 55.2138 -1.25838 -0.70005 0
M  V30 580 H 57.1668 -1.86748 -3.77761 0
M  V30 581 H 55.8908 -0.783067 -3.17074 0
M  V30 582 H 54.5498 -2.77136 -2.39982 0
M  V30 583 H 54.1978 -1.82419 -4.68756 0
M  V30 584 H 53.8978 -3.57999 -4.65951 0
M  V30 585 H 55.4218 -2.94944 -5.34641 0
M  V30 586 H 56.8358 -4.4373 -3.63011 0
M  V30 587 H 55.2328 -5.0886 -3.18091 0
M  V30 588 H 56.3028 -4.45352 -1.91806 0
M  V30 589 N 57.6459 0.756429 -1.3826 0
M  V30 590 C 58.5559 1.9009 -1.37488 0
M  V30 591 C 59.5719 1.71855 -0.272366 0
M  V30 592 O 60.7479 1.94827 -0.510318 0
M  V30 593 C 57.8129 3.25421 -1.19592 0
M  V30 594 C 56.8739 3.56202 -2.39622 0
M  V30 595 C 56.1069 4.85075 -2.2257 0
M  V30 596 O 56.3299 5.57246 -1.21793 0
M  V30 597 O 55.2639 5.15269 -3.11098 0
M  V30 598 H 59.0899 1.93695 -2.33914 0
M  V30 599 H 56.6749 0.901313 -1.1915 0
M  V30 600 H 58.5569 4.06337 -1.11661 0
M  V30 601 H 57.2319 3.22634 -0.262486 0
M  V30 602 H 56.1389 2.75458 -2.53128 0
M  V30 603 H 57.4719 3.63747 -3.31586 0
M  V30 604 N 59.124 1.23083 0.984299 0
M  V30 605 C 60.072 1.00593 2.09723 0
M  V30 606 C 61.066 -0.0538014 1.69315 0
M  V30 607 O 62.272 0.0993719 1.79725 0
M  V30 608 H 58.647 0.30817 0.685956 0
M  V30 609 H 60.618 1.95012 2.2586 0
M  V30 610 C 59.367 0.609601 3.42314 0
M  V30 611 H 58.69 1.41675 3.73856 0
M  V30 612 H 60.13 0.491726 4.21139 0
M  V30 613 C 58.589 -0.681745 3.2993 0
M  V30 614 O 59.119 -1.73192 3.62446 0
M  V30 615 N 57.325 -0.656178 2.83095 0
M  V30 616 H 56.872 0.198759 2.56832 0
M  V30 617 H 56.83 -1.52044 2.75191 0
M  V30 618 N 60.6021 -1.18246 1.0419 0
M  V30 619 C 61.5121 -2.25574 0.644476 0
M  V30 620 C 62.5281 -1.70845 -0.329826 0
M  V30 621 O 63.7041 -2.00554 -0.184443 0
M  V30 622 C 60.7691 -3.46697 0.014877 0
M  V30 623 C 59.8301 -4.16554 1.03834 0
M  V30 624 C 59.0631 -5.31894 0.438692 0
M  V30 625 O 59.2861 -5.65385 -0.754752 0
M  V30 626 O 58.2201 -5.90459 1.168 0
M  V30 627 H 62.0461 -2.61836 1.53869 0
M  V30 628 H 59.6311 -1.25352 0.812854 0
M  V30 629 H 61.5131 -4.20062 -0.335538 0
M  V30 630 H 60.1881 -3.12255 -0.853138 0
M  V30 631 H 59.0951 -3.45251 1.44057 0
M  V30 632 H 60.4281 -4.54998 1.87716 0
M  V30 633 N 62.0802 -0.821533 -1.34494 0
M  V30 634 C 63.0132 -0.187704 -2.27427 0
M  V30 635 C 63.9912 0.65507 -1.48821 0
M  V30 636 O 65.1752 0.619111 -1.78043 0
M  V30 637 C 62.3022 0.737996 -3.30562 0
M  V30 638 C 61.3482 -0.0270713 -4.26491 0
M  V30 639 S 62.1812 -1.37329 -5.17592 0
M  V30 640 C 63.3372 -0.452427 -6.24263 0
M  V30 641 H 63.5702 -0.975598 -2.80837 0
M  V30 642 H 61.1032 -0.61736 -1.4152 0
M  V30 643 H 63.0612 1.26654 -3.90473 0
M  V30 644 H 61.7222 1.4994 -2.76001 0
M  V30 645 H 60.9152 0.6766 -4.99438 0
M  V30 646 H 60.5172 -0.48612 -3.70827 0
M  V30 647 H 62.8092 0.356557 -6.76561 0
M  V30 648 H 63.7522 -1.15153 -6.98674 0
M  V30 649 H 64.1602 -0.0414755 -5.64485 0
M  V30 650 N 63.5583 1.46682 -0.576371 0
M  V30 651 C 64.5053 2.30241 0.160499 0
M  V30 652 C 65.4753 1.40233 0.890162 0
M  V30 653 O 66.6603 1.69186 0.882084 0
M  V30 654 C 63.8003 3.24578 1.1723 0
M  V30 655 C 62.9133 4.29684 0.446736 0
M  V30 656 C 62.0483 5.11154 1.44551 0
M  V30 657 C 61.0873 6.08015 0.70599 0
M  V30 658 N 60.2243 6.82376 1.65251 0
M  V30 659 H 65.0643 2.92727 -0.558127 0
M  V30 660 H 62.6013 1.44272 -0.287056 0
M  V30 661 H 64.5593 3.77711 1.77172 0
M  V30 662 H 63.1893 2.63916 1.85872 0
M  V30 663 H 62.2413 3.79458 -0.267594 0
M  V30 664 H 63.5533 4.98626 -0.131686 0
M  V30 665 H 62.7073 5.68533 2.11791 0
M  V30 666 H 61.4463 4.42158 2.05786 0
M  V30 667 H 60.4513 5.49796 0.0197725 0
M  V30 668 H 61.6763 6.79028 0.09912 0
M  V30 669 H 59.6223 6.16094 2.25308 0
M  V30 670 H 59.5393 7.47556 1.12673 0
M  V30 671 H 60.8073 7.44316 2.31546 0
M  V30 672 N 65.0364 0.313813 1.54444 0
M  V30 673 C 66.4524 -0.0391619 1.59552 0
M  V30 674 C 66.6524 -1.51322 1.33056 0
M  V30 675 O 65.7084 -2.26782 1.11022 0
M  V30 676 C 67.0214 0.370302 2.98411 0
M  V30 677 C 68.5694 0.320139 3.11358 0
M  V30 678 C 69.0444 0.704617 4.52547 0
M  V30 679 N 70.5354 0.657645 4.58508 0
M  V30 680 C 71.2704 0.927453 5.6585 0
M  V30 681 N 70.7664 1.26389 6.81174 0
M  V30 682 N 72.5594 0.853662 5.5558 0
M  V30 683 H 64.7104 1.27433 1.69925 0
M  V30 684 H 66.9734 0.517511 0.794284 0
M  V30 685 H 66.6794 1.39694 3.22767 0
M  V30 686 H 66.5534 -0.269619 3.76235 0
M  V30 687 H 68.9404 -0.697275 2.86744 0
M  V30 688 H 69.0214 0.99486 2.35661 0
M  V30 689 H 68.6654 1.7199 4.77893 0
M  V30 690 H 68.5954 0.00768843 5.26599 0
M  V30 691 H 71.0864 0.409067 3.75679 0
M  V30 692 H 71.3994 1.4554 7.58972 0
M  V30 693 H 69.7444 1.30206 6.82694 0
M  V30 694 H 72.9354 0.590383 4.64362 0
M  V30 695 H 73.1084 1.0673 6.3915 0
M  V30 696 N 66.5145 -1.57545 0.0417849 0
M  V30 697 C 67.9305 -1.56467 -0.314704 0
M  V30 698 C 68.1305 -1.04859 -1.72066 0
M  V30 699 O 67.1865 -0.700983 -2.42575 0
M  V30 700 C 68.4995 -3.00317 -0.15174 0
M  V30 701 C 70.0475 -3.12201 -0.223553 0
M  V30 702 C 70.5225 -4.57913 -0.0892295 0
M  V30 703 N 72.0135 -4.6297 -0.145808 0
M  V30 704 C 72.7485 -5.73362 -0.0658459 0
M  V30 705 N 72.2445 -6.92769 0.0659282 0
M  V30 706 N 74.0375 -5.6197 -0.12075 0
M  V30 707 H 66.1885 -1.89416 0.961014 0
M  V30 708 H 68.4515 -0.871862 0.372237 0
M  V30 709 H 68.1575 -3.42073 0.817254 0
M  V30 710 H 68.0315 -3.65892 -0.916692 0
M  V30 711 H 70.4185 -2.70349 -1.18301 0
M  V30 712 H 70.4995 -2.49323 0.571994 0
M  V30 713 H 70.1435 -5.00448 0.866867 0
M  V30 714 H 70.0735 -5.18786 -0.903802 0
M  V30 715 H 72.5645 -3.7709 -0.247286 0
M  V30 716 H 72.8775 -7.72707 0.119905 0
M  V30 717 H 71.2225 -6.94927 0.100885 0
M  V30 718 H 74.4135 -4.67572 -0.222187 0
M  V30 719 H 74.5865 -6.47977 -0.0549735 0
M  V30 720 N 67.9926 0.231505 -1.5589 0
M  V30 721 C 68.9246 1.31006 -1.8807 0
M  V30 722 C 69.9376 1.43539 -0.768145 0
M  V30 723 O 71.1266 1.44614 -1.04638 0
M  V30 724 C 68.2266 2.68688 -2.06543 0
M  V30 725 C 67.3996 2.78228 -3.37502 0
M  V30 726 C 66.4586 3.96857 -3.4553 0
M  V30 727 O 65.4846 3.85662 -4.18633 0
M  V30 728 N 66.6866 5.1072 -2.75944 0
M  V30 729 H 69.4516 1.03731 -2.81176 0
M  V30 730 H 67.0126 0.421573 -1.56315 0
M  V30 731 H 69.0046 3.46412 -2.09239 0
M  V30 732 H 67.5746 2.88605 -1.20109 0
M  V30 733 H 66.7946 1.87059 -3.46991 0
M  V30 734 H 68.0826 2.81564 -4.23791 0
M  V30 735 H 67.4806 5.2271 -2.16311 0
M  V30 736 H 66.0376 5.86523 -2.84314 0
M  V30 737 N 69.4707 1.49531 0.497807 0
M  V30 738 C 70.7187 1.58865 1.24926 0
M  V30 739 C 71.0397 0.278721 1.92998 0
M  V30 740 O 70.3097 -0.702144 1.82885 0
M  V30 741 H 68.8897 0.585343 0.464094 0
M  V30 742 H 71.5517 1.86174 0.57666 0
M  V30 743 H 70.6477 2.38633 2.01149 0
M  V30 744 N 70.9488 -0.749086 1.3866 0
M  V30 745 C 72.1968 -1.50535 1.34847 0
M  V30 746 C 72.5178 -1.94909 -0.0595016 0
M  V30 747 O 71.7878 -1.67973 -1.00806 0
M  V30 748 H 70.3678 -0.558395 0.49619 0
M  V30 749 H 73.0298 -0.890165 1.73384 0
M  V30 750 H 72.1258 -2.39413 2.00219 0
M  V30 751 N 72.4269 -1.23603 -0.977757 0
M  V30 752 C 73.8429 -0.999251 -1.24447 0
M  V30 753 C 74.0429 0.298053 -1.99283 0
M  V30 754 O 73.0989 1.01681 -2.31122 0
M  V30 755 C 74.4119 -2.20784 -2.04144 0
M  V30 756 C 75.9599 -2.25303 -2.17273 0
M  V30 757 C 76.4349 -3.45755 -3.00362 0
M  V30 758 N 77.9259 -3.4601 -3.07947 0
M  V30 759 C 78.6609 -4.35868 -3.72568 0
M  V30 760 N 78.1569 -5.35966 -4.38991 0
M  V30 761 N 79.9499 -4.23605 -3.6948 0
M  V30 762 H 72.1009 -2.06986 -0.476483 0
M  V30 763 H 74.3639 -0.907801 -0.273134 0
M  V30 764 H 74.0699 -3.14945 -1.56533 0
M  V30 765 H 73.9439 -2.22085 -3.04891 0
M  V30 766 H 76.3309 -1.3168 -2.64092 0
M  V30 767 H 76.4119 -2.28033 -1.15907 0
M  V30 768 H 76.0559 -4.39687 -2.5424 0
M  V30 769 H 75.9859 -3.40266 -4.01904 0
M  V30 770 H 78.4769 -2.73588 -2.60688 0
M  V30 771 H 78.7899 -6.00783 -4.86086 0
M  V30 772 H 77.1349 -5.39863 -4.37691 0
M  V30 773 H 80.3259 -3.44647 -3.16759 0
M  V30 774 H 80.4989 -4.93836 -4.1956 0
M  V30 775 N 73.905 1.17692 -1.04816 0
M  V30 776 C 74.853 2.23632 -0.63966 0
M  V30 777 C 75.847 1.6601 0.337219 0
M  V30 778 O 77.053 1.78844 0.203693 0
M  V30 779 H 73.428 0.727949 -0.188665 0
M  V30 780 H 75.399 2.55387 -1.54337 0
M  V30 781 C 74.148 3.4769 -0.0264051 0
M  V30 782 H 73.471 3.92331 -0.769164 0
M  V30 783 H 74.911 4.23418 0.222098 0
M  V30 784 C 73.37 3.13807 1.22584 0
M  V30 785 O 73.9 3.28236 2.31569 0
M  V30 786 N 72.106 2.68065 1.12202 0
M  V30 787 H 71.653 2.56525 0.235133 0
M  V30 788 H 71.611 2.45767 1.96076 0
M  V30 789 N 75.3831 0.828654 1.34056 0
M  V30 790 C 76.6291 0.42008 1.98402 0
M  V30 791 C 76.9621 -1.01564 1.65525 0
M  V30 792 O 76.2371 -1.70834 0.929831 0
M  V30 793 C 76.5201 0.62927 3.54559 0
M  V30 794 C 76.3731 2.11152 3.97159 0
M  V30 795 C 77.6921 0.0688756 4.40046 0
M  V30 796 H 74.8111 0.154104 0.720709 0
M  V30 797 H 77.4531 1.04228 1.5886 0
M  V30 798 H 75.6031 0.0996418 3.88372 0
M  V30 799 H 77.2751 2.70522 3.73651 0
M  V30 800 H 75.5181 2.59985 3.47261 0
M  V30 801 H 76.1891 2.20868 5.05887 0
M  V30 802 H 78.6651 0.521458 4.1282 0
M  V30 803 H 77.5411 0.245006 5.48353 0
M  V30 804 H 77.8021 -1.0266 4.30015 0
M  V30 805 N 76.8612 -1.46375 0.584142 0
M  V30 806 C 78.1082 -2.02378 0.0702675 0
M  V30 807 C 78.4362 -1.45545 -1.29023 0
M  V30 808 O 77.6912 -0.610967 -1.85918 0
M  V30 809 C 77.9902 -3.57373 -0.0439342 0
M  V30 810 C 77.6562 -4.33252 1.24915 0
M  V30 811 C 76.3182 -4.53701 1.60341 0
M  V30 812 C 78.6702 -4.7681 2.1048 0
M  V30 813 C 75.9982 -5.1496 2.81128 0
M  V30 814 C 78.3502 -5.39404 3.30494 0
M  V30 815 C 77.0142 -5.5808 3.66201 0
M  V30 816 H 76.2842 -0.740554 0.0257127 0
M  V30 817 H 78.9312 -1.75727 0.761065 0
M  V30 818 H 77.2362 -3.83169 -0.817869 0
M  V30 819 H 78.9332 -3.98384 -0.457318 0
M  V30 820 H 75.5232 -4.17633 0.963364 0
M  V30 821 H 79.7072 -4.60766 1.84414 0
M  V30 822 H 74.9632 -5.27611 3.08928 0
M  V30 823 H 79.1372 -5.72114 3.97063 0
M  V30 824 H 76.7642 -6.05318 4.59885 0
M  V30 825 N 78.3393 -0.321999 -1.54275 0
M  V30 826 C 79.5883 0.281931 -1.9972 0
M  V30 827 C 79.9013 1.53369 -1.21397 0
M  V30 828 O 81.1073 2.21352 -1.57211 0
M  V30 829 C 79.5633 0.5529 -3.55628 0
M  V30 830 C 79.1713 -0.681721 -4.42783 0
M  V30 831 C 80.9153 1.11687 -4.09544 0
M  V30 832 C 78.8223 -0.382742 -5.9016 0
M  V30 833 H 77.7523 0.109124 -0.746062 0
M  V30 834 H 80.4033 -0.43398 -1.78294 0
M  V30 835 H 78.7853 1.32896 -3.73035 0
M  V30 836 H 79.9593 -1.45723 -4.37151 0
M  V30 837 H 78.2743 -1.1658 -3.99748 0
M  V30 838 H 80.8713 1.35515 -5.17242 0
M  V30 839 H 81.2143 2.06575 -3.61431 0
M  V30 840 H 81.7473 0.402032 -3.95763 0
M  V30 841 H 78.4863 -1.30076 -6.42464 0
M  V30 842 H 78.0063 0.355094 -5.98748 0
M  V30 843 H 79.6853 0.00800157 -6.47 0
M  V30 844 N 79.8174 1.5752 -0.0501392 0
M  V30 845 C 81.0454 1.96963 0.633492 0
M  V30 846 C 81.4604 0.927631 1.6444 0
M  V30 847 O 80.8174 -0.0882665 1.82286 0
M  V30 848 C 80.8684 3.36487 1.32132 0
M  V30 849 O 80.5894 4.36693 0.350894 0
M  V30 850 C 82.0904 3.90682 2.09481 0
M  V30 851 H 79.3104 0.648244 0.173266 0
M  V30 852 H 81.8544 2.0417 -0.116134 0
M  V30 853 H 80.0094 3.30434 2.02218 0
M  V30 854 H 80.4234 5.17702 0.841735 0
M  V30 855 H 81.8974 4.90591 2.5303 0
M  V30 856 H 82.3744 3.26053 2.94255 0
M  V30 857 H 82.9804 4.00069 1.44307 0
M  V30 858 N 81.2955 -0.223234 1.56011 0
M  V30 859 C 82.7065 -0.790368 1.69145 0
M  V30 860 C 83.0575 -1.85055 0.651845 0
M  V30 861 O 82.1825 -2.15498 -0.197359 0
M  V30 862 C 82.7775 -1.4404 3.06656 0
M  V30 863 C 81.3365 -1.95494 3.2165 0
M  V30 864 C 80.4835 -0.814506 2.65068 0
M  V30 865 H 83.4345 0.00139011 1.587 0
M  V30 866 H 83.4555 -2.30916 3.0242 0
M  V30 867 H 82.9675 -0.668543 3.82298 0
M  V30 868 H 81.0685 -2.75487 2.50874 0
M  V30 869 H 81.1815 -2.13607 4.28846 0
M  V30 870 H 79.5455 -1.22137 2.23505 0
M  V30 871 H 80.3285 -0.0553515 3.43255 0
M  V30 872 N 82.7736 -1.49793 -0.48987 0
M  V30 873 C 84.1896 -1.36803 -0.822022 0
M  V30 874 C 84.3896 -0.409652 -1.97292 0
M  V30 875 O 83.4456 0.154614 -2.52026 0
M  V30 876 C 84.7586 -2.77768 -1.15175 0
M  V30 877 C 86.3066 -2.86549 -1.25931 0
M  V30 878 C 86.7816 -4.28306 -1.62228 0
M  V30 879 N 88.2726 -4.31169 -1.69256 0
M  V30 880 C 89.0076 -5.37832 -1.98807 0
M  V30 881 N 88.5036 -6.54726 -2.26507 0
M  V30 882 N 90.2966 -5.25258 -2.00152 0
M  V30 883 H 82.4476 -2.10691 0.268881 0
M  V30 884 H 84.7106 -0.946241 0.057728 0
M  V30 885 H 84.4166 -3.49648 -0.379335 0
M  V30 886 H 84.2906 -3.13836 -2.09253 0
M  V30 887 H 86.6776 -2.14899 -2.02243 0
M  V30 888 H 86.7586 -2.54049 -0.298776 0
M  V30 889 H 86.4026 -5.00486 -0.864622 0
M  V30 890 H 86.3326 -4.58279 -2.594 0
M  V30 891 H 88.8236 -3.4687 -1.49965 0
M  V30 892 H 89.1366 -7.31833 -2.48276 0
M  V30 893 H 87.4816 -6.57933 -2.23939 0
M  V30 894 H 90.6726 -4.32938 -1.77996 0
M  V30 895 H 90.8456 -6.08476 -2.22848 0
M  V30 896 N 84.2517 0.741722 -1.39055 0
M  V30 897 C 85.1987 1.85566 -1.37237 0
M  V30 898 C 86.1687 1.64457 -0.233072 0
M  V30 899 O 87.3537 1.85957 -0.427147 0
M  V30 900 C 84.4937 3.23004 -1.215 0
M  V30 901 C 83.6067 3.55864 -2.44918 0
M  V30 902 C 82.7417 4.82669 -2.21821 0
M  V30 903 C 81.7807 5.08351 -3.40948 0
M  V30 904 N 80.9177 6.26356 -3.17211 0
M  V30 905 H 85.7577 1.86455 -2.32462 0
M  V30 906 H 83.2947 0.911176 -1.15482 0
M  V30 907 H 85.2527 4.02331 -1.10389 0
M  V30 908 H 83.8827 3.21411 -0.29908 0
M  V30 909 H 82.9347 2.7129 -2.66657 0
M  V30 910 H 84.2467 3.70765 -3.33668 0
M  V30 911 H 83.4007 5.69962 -2.07914 0
M  V30 912 H 82.1397 4.69929 -1.30454 0
M  V30 913 H 81.1447 4.19522 -3.55361 0
M  V30 914 H 82.3697 5.22981 -4.33207 0
M  V30 915 H 80.3157 6.14917 -2.28502 0
M  V30 916 H 80.2327 6.41813 -3.99515 0
M  V30 917 H 81.5007 7.16506 -3.06984 0
M  V30 918 N 85.7298 1.2412 0.971189 0
M  V30 919 C 86.6398 1.04747 2.09917 0
M  V30 920 C 87.6558 -0.0107162 1.73997 0
M  V30 921 O 88.8318 0.186714 2.00533 0
M  V30 922 C 85.8968 0.650828 3.40537 0
M  V30 923 C 84.9578 1.7851 3.90426 0
M  V30 924 C 84.1908 1.40729 5.14812 0
M  V30 925 O 84.4138 0.29557 5.69634 0
M  V30 926 O 83.3478 2.23168 5.58999 0
M  V30 927 H 87.1738 1.99304 2.29154 0
M  V30 928 H 84.7588 1.02908 1.08307 0
M  V30 929 H 86.6408 0.440992 4.19086 0
M  V30 930 H 85.3158 -0.265649 3.22608 0
M  V30 931 H 84.2228 2.04966 3.12953 0
M  V30 932 H 85.5558 2.68023 4.12825 0
M  V30 933 N 87.2079 -1.17134 1.05439 0
M  V30 934 C 88.4849 -1.83411 0.679699 0
M  V30 935 C 88.8649 -1.9368 -0.839726 0
M  V30 936 O 88.2129 -1.47325 -1.74664 0
M  V30 937 C 88.4229 -3.20918 1.37159 0
M  V30 938 C 89.7709 -3.96796 1.51123 0
M  V30 939 O 90.7949 -3.30406 1.3308 0
M  V30 940 O 89.6539 -5.15778 1.80651 0
M  V30 941 H 86.7479 -0.79154 0.239569 0
M  V30 942 H 89.2939 -1.24411 1.15413 0
M  V30 943 H 88.0659 -3.08428 2.40807 0
M  V30 944 H 87.6889 -3.87587 0.886674 0
M  V30 945 N 88.686 -0.835752 -1.33615 0
M  V30 946 C 89.963 -0.352017 -1.92406 0
M  V30 947 C 90.343 1.16225 -1.76224 0
M  V30 948 O 89.691 1.97526 -1.14873 0
M  V30 949 C 89.901 -0.795485 -3.39813 0
M  V30 950 C 91.249 -0.801703 -4.16963 0
M  V30 951 O 92.273 -0.738889 -3.48452 0
M  V30 952 O 91.132 -0.886607 -5.3926 0
M  V30 953 H 88.226 -0.0989641 -0.821057 0
M  V30 954 H 90.772 -0.921397 -1.42507 0
M  V30 955 H 89.544 -1.83795 -3.45449 0
M  V30 956 H 89.167 -0.202505 -3.97084 0
M  V30 957 N 90.1641 1.46063 -0.591896 0
M  V30 958 C 91.1111 2.30399 0.136069 0
M  V30 959 C 92.0811 1.41169 0.875238 0
M  V30 960 O 93.2661 1.70112 0.86409 0
M  V30 961 C 90.4061 3.25804 1.13781 0
M  V30 962 C 89.5191 4.30134 0.401137 0
M  V30 963 C 88.6541 5.12659 1.39121 0
M  V30 964 C 87.6931 6.0873 0.641462 0
M  V30 965 N 86.8301 6.8409 1.58004 0
M  V30 966 H 91.6701 2.92118 -0.589144 0
M  V30 967 H 89.2071 1.43959 -0.302342 0
M  V30 968 H 91.1651 3.79569 1.73156 0
M  V30 969 H 89.7951 2.65872 1.83062 0
M  V30 970 H 88.8471 3.79152 -0.307826 0
M  V30 971 H 90.1591 4.98458 -0.184565 0
M  V30 972 H 89.3131 5.70747 2.05749 0
M  V30 973 H 88.0521 4.44316 2.01084 0
M  V30 974 H 87.0571 5.49786 -0.0385419 0
M  V30 975 H 88.2821 6.79095 0.0270945 0
M  V30 976 H 86.2281 6.18449 2.18761 0
M  V30 977 H 86.1451 7.48709 1.04738 0
M  V30 978 H 87.4131 7.4673 2.23639 0
M  V30 979 N 91.6422 0.330177 1.54103 0
M  V30 980 C 92.8882 -0.270806 2.00984 0
M  V30 981 C 93.2212 -1.51265 1.21789 0
M  V30 982 O 92.4962 -1.92142 0.301927 0
M  V30 983 C 92.7792 -0.598339 3.55094 0
M  V30 984 C 92.6322 0.654674 4.4501 0
M  V30 985 C 93.9512 -1.41334 4.16789 0
M  V30 986 H 91.0702 -0.0969531 0.730595 0
M  V30 987 H 93.7122 0.448066 1.84641 0
M  V30 988 H 91.8622 -1.21078 3.69151 0
M  V30 989 H 93.5342 1.29285 4.42813 0
M  V30 990 H 91.7772 1.28224 4.14416 0
M  V30 991 H 92.4482 0.380944 5.50684 0
M  V30 992 H 94.9242 -0.895597 4.06347 0
M  V30 993 H 93.8002 -1.61127 5.24718 0
M  V30 994 H 94.0612 -2.41146 3.70541 0
M  V30 995 N 93.1203 -1.57491 0.0584922 0
M  V30 996 C 94.0303 -2.15448 -0.928414 0
M  V30 997 C 95.0463 -1.11416 -1.3365 0
M  V30 998 O 96.2223 -1.4362 -1.41193 0
M  V30 999 C 93.2873 -2.69393 -2.18239 0
M  V30 1000 C 92.3483 -3.88249 -1.83196 0
M  V30 1001 C 91.5813 -4.39613 -3.02616 0
M  V30 1002 O 91.8043 -3.90023 -4.16219 0
M  V30 1003 O 90.7383 -5.31111 -2.83204 0
M  V30 1004 H 94.5643 -3.00112 -0.465483 0
M  V30 1005 H 92.1493 -1.48499 -0.163826 0
M  V30 1006 H 94.0313 -3.04026 -2.91798 0
M  V30 1007 H 92.7063 -1.87796 -2.63656 0
M  V30 1008 H 91.6133 -3.58492 -1.06931 0
M  V30 1009 H 92.9463 -4.71098 -1.42573 0
M  V30 1010 N 94.5984 0.214957 -1.56127 0
M  V30 1011 C 95.8474 0.936451 -1.78643 0
M  V30 1012 C 96.1604 1.85237 -0.628229 0
M  V30 1013 O 97.3664 2.613 -0.737186 0
M  V30 1014 C 95.8224 1.7154 -3.16389 0
M  V30 1015 C 95.4304 0.845299 -4.39953 0
M  V30 1016 C 97.1744 2.42772 -3.48227 0
M  V30 1017 C 95.0814 1.62198 -5.68723 0
M  V30 1018 H 94.0114 0.353401 -0.666051 0
M  V30 1019 H 96.6624 0.190169 -1.82512 0
M  V30 1020 H 95.0444 2.50484 -3.06715 0
M  V30 1021 H 96.2184 0.0959353 -4.607 0
M  V30 1022 H 94.5334 0.244789 -4.1568 0
M  V30 1023 H 97.1304 3.01394 -4.41663 0
M  V30 1024 H 97.4734 3.15984 -2.71035 0
M  V30 1025 H 98.0064 1.70813 -3.5926 0
M  V30 1026 H 94.7454 0.933011 -6.48826 0
M  V30 1027 H 94.2654 2.34579 -5.52026 0
M  V30 1028 H 95.9444 2.18095 -6.09133 0
M  V30 1029 N 96.0765 1.50051 0.48192 0
M  V30 1030 C 97.3045 1.64237 1.25832 0
M  V30 1031 C 97.7195 0.321336 1.86045 0
M  V30 1032 O 97.0765 -0.695478 1.68729 0
M  V30 1033 C 97.1275 2.72548 2.37487 0
M  V30 1034 O 96.8485 3.99529 1.79745 0
M  V30 1035 C 98.3495 2.9761 3.28547 0
M  V30 1036 H 95.5695 0.55237 0.380957 0
M  V30 1037 H 98.1135 1.96207 0.576467 0
M  V30 1038 H 96.2685 2.43303 3.01467 0
M  V30 1039 H 96.6825 4.59342 2.5319 0
M  V30 1040 H 98.1565 3.77084 4.03127 0
M  V30 1041 H 98.6335 2.0826 3.86684 0
M  V30 1042 H 99.2395 3.28345 2.70314 0
M  V30 1043 N 97.5546 -0.734337 1.39446 0
M  V30 1044 C 98.7796 -1.52866 1.40167 0
M  V30 1045 C 99.2046 -1.881 -0.00171513 0
M  V30 1046 O 98.5626 -1.51957 -0.988879 0
M  V30 1047 C 98.6106 -2.79235 2.28167 0
M  V30 1048 O 97.7146 -3.75185 1.71201 0
M  V30 1049 H 97.0556 -0.461618 0.477289 0
M  V30 1050 H 99.5856 -0.905949 1.8345 0
M  V30 1051 H 99.5956 -3.27963 2.42702 0
M  V30 1052 H 98.2706 -2.52923 3.30156 0
M  V30 1053 H 96.8476 -3.33958 1.65912 0
M  V30 1054 N 99.0327 -1.24633 -0.964593 0
M  V30 1055 C 100.281 -1.08573 -1.70459 0
M  V30 1056 C 100.602 0.375655 -1.91347 0
M  V30 1057 O 99.8717 1.26779 -1.49345 0
M  V30 1058 H 98.4517 -0.398784 -0.631649 0
M  V30 1059 H 101.114 -1.56601 -1.16026 0
M  V30 1060 H 100.21 -1.58623 -2.68785 0
M  V30 1061 N 100.511 1.16574 -1.06058 0
M  V30 1062 C 101.757 1.87324 -0.777022 0
M  V30 1063 C 102.09 1.81351 0.694645 0
M  V30 1064 O 101.365 1.22753 1.50871 0
M  V30 1065 C 101.648 3.36991 -1.26922 0
M  V30 1066 C 101.501 3.51667 -2.80447 0
M  V30 1067 C 102.82 4.3131 -0.87521 0
M  V30 1068 H 99.9388 0.680191 -0.28374 0
M  V30 1069 H 102.581 1.37036 -1.3161 0
M  V30 1070 H 100.731 3.79949 -0.81063 0
M  V30 1071 H 102.403 3.17664 -3.34495 0
M  V30 1072 H 100.646 2.93656 -3.19294 0
M  V30 1073 H 101.317 4.56766 -3.0995 0
M  V30 1074 H 103.793 3.9624 -1.27014 0
M  V30 1075 H 102.669 5.34545 -1.2471 0
M  V30 1076 H 102.93 4.41552 0.220071 0
M  V30 1077 N 101.989 0.842826 1.3317 0
M  V30 1078 C 103.236 0.440447 1.97652 0
M  V30 1079 C 103.564 -1.00123 1.6675 0
M  V30 1080 O 102.819 -1.7155 0.941761 0
M  V30 1081 C 103.118 0.612607 3.52111 0
M  V30 1082 C 102.784 2.02297 4.02972 0
M  V30 1083 C 101.446 2.40874 4.16573 0
M  V30 1084 C 103.798 2.94402 4.30089 0
M  V30 1085 C 101.126 3.70852 4.54627 0
M  V30 1086 C 103.478 4.23865 4.69597 0
M  V30 1087 C 102.142 4.62392 4.81404 0
M  V30 1088 H 101.412 0.161171 0.72326 0
M  V30 1089 H 104.059 1.07061 1.58777 0
M  V30 1090 H 102.364 -0.100849 3.9167 0
M  V30 1091 H 104.061 0.2815 4.00011 0
M  V30 1092 H 100.651 1.71338 3.92863 0
M  V30 1093 H 104.835 2.65835 4.19101 0
M  V30 1094 H 100.091 4.00501 4.61962 0
M  V30 1095 H 104.265 4.95306 4.89536 0
M  V30 1096 H 101.892 5.63154 5.10648 0
M  V30 1097 N 103.467 -1.45747 0.599634 0
M  V30 1098 C 104.377 -2.34262 -0.125888 0
M  V30 1099 C 105.393 -1.50768 -0.868625 0
M  V30 1100 O 106.569 -1.83592 -0.828003 0
M  V30 1101 C 103.634 -3.28252 -1.11587 0
M  V30 1102 C 102.695 -4.27651 -0.375956 0
M  V30 1103 C 101.928 -5.1715 -1.31877 0
M  V30 1104 O 102.151 -5.09916 -2.55621 0
M  V30 1105 O 101.085 -5.96286 -0.820157 0
M  V30 1106 H 104.911 -2.97688 0.601315 0
M  V30 1107 H 102.496 -1.44999 0.359934 0
M  V30 1108 H 104.378 -3.86191 -1.68626 0
M  V30 1109 H 103.053 -2.67401 -1.82424 0
M  V30 1110 H 101.96 -3.7335 0.236698 0
M  V30 1111 H 103.293 -4.91334 0.29177 0
M  V30 1112 N 104.945 -0.338344 -1.53925 0
M  V30 1113 C 106.222 0.314774 -1.93051 0
M  V30 1114 C 106.602 1.68669 -1.26941 0
M  V30 1115 O 105.95 2.24636 -0.418445 0
M  V30 1116 C 106.16 0.392249 -3.46789 0
M  V30 1117 C 107.508 0.645554 -4.19664 0
M  V30 1118 O 108.532 0.474575 -3.53024 0
M  V30 1119 O 107.391 0.976408 -5.37707 0
M  V30 1120 H 104.485 0.182598 -0.80659 0
M  V30 1121 H 107.031 -0.389141 -1.65178 0
M  V30 1122 H 105.803 -0.570702 -3.87116 0
M  V30 1123 H 105.426 1.14316 -3.80812 0
M  V30 1124 N 106.423 1.57458 -0.0668435 0
M  V30 1125 C 107.67 1.93301 0.603406 0
M  V30 1126 C 107.998 0.946486 1.69917 0
M  V30 1127 O 107.253 -0.0387021 1.95662 0
M  V30 1128 C 107.552 3.35784 1.22409 0
M  V30 1129 C 107.218 4.50179 0.254955 0
M  V30 1130 C 105.88 4.81199 -0.0116746 0
M  V30 1131 C 108.232 5.19598 -0.408338 0
M  V30 1132 C 105.56 5.78978 -0.94877 0
M  V30 1133 C 107.912 6.18381 -1.33372 0
M  V30 1134 C 106.576 6.47821 -1.60887 0
M  V30 1135 H 105.846 0.707338 0.220802 0
M  V30 1136 H 108.493 1.91012 -0.136665 0
M  V30 1137 H 106.798 3.34515 2.03978 0
M  V30 1138 H 108.495 3.60804 1.74989 0
M  V30 1139 H 105.085 4.25983 0.472954 0
M  V30 1140 H 109.269 4.95832 -0.215456 0
M  V30 1141 H 104.525 6.00115 -1.16925 0
M  V30 1142 H 108.699 6.71277 -1.85367 0
M  V30 1143 H 106.326 7.23399 -2.33661 0
M  V30 1144 N 107.901 -0.206675 1.56239 0
M  V30 1145 C 109.126 -0.949474 1.8439 0
M  V30 1146 C 109.551 -1.76549 0.649016 0
M  V30 1147 O 108.909 -1.76782 -0.402231 0
M  V30 1148 C 108.957 -1.83078 3.10668 0
M  V30 1149 O 108.061 -2.9281 2.90407 0
M  V30 1150 H 107.402 -0.268033 0.607499 0
M  V30 1151 H 109.932 -0.215488 2.03462 0
M  V30 1152 H 109.942 -2.2377 3.41161 0
M  V30 1153 H 108.617 -1.23112 3.97261 0
M  V30 1154 H 107.194 -2.55956 2.71184 0
M  V30 1155 N 109.379 -1.50304 -0.473955 0
M  V30 1156 C 110.607 -1.64902 -1.24959 0
M  V30 1157 C 111.022 -0.331198 -1.85872 0
M  V30 1158 O 110.379 0.68652 -1.69095 0
M  V30 1159 C 110.43 -2.73803 -2.36038 0
M  V30 1160 O 110.151 -4.00477 -1.77624 0
M  V30 1161 C 111.652 -2.99349 -3.26964 0
M  V30 1162 H 108.872 -0.554383 -0.378022 0
M  V30 1163 H 111.416 -1.9651 -0.566054 0
M  V30 1164 H 109.571 -2.44898 -3.00173 0
M  V30 1165 H 109.985 -4.60678 -2.5075 0
M  V30 1166 H 111.459 -3.79217 -4.01121 0
M  V30 1167 H 111.936 -2.10307 -3.85574 0
M  V30 1168 H 112.542 -3.29774 -2.68569 0
M  V30 1169 N 110.857 0.726932 -1.39834 0
M  V30 1170 C 112.105 1.4837 -1.37225 0
M  V30 1171 C 112.426 1.94979 0.0284857 0
M  V30 1172 O 111.696 1.69555 0.981213 0
M  V30 1173 H 110.276 0.55043 -0.505011 0
M  V30 1174 H 112.938 0.862468 -1.74778 0
M  V30 1175 H 112.034 2.36198 -2.04003 0
M  V30 1176 N 112.336 1.25143 0.95797 0
M  V30 1177 C 113.564 1.12424 1.73691 0
M  V30 1178 C 113.979 -0.322304 1.86029 0
M  V30 1179 O 113.336 -1.22186 1.35561 0
M  V30 1180 C 113.387 1.76933 3.15241 0
M  V30 1181 O 113.108 3.15932 3.03511 0
M  V30 1182 C 114.609 1.6995 4.09429 0
M  V30 1183 H 111.829 0.3923 0.544373 0
M  V30 1184 H 114.373 1.6544 1.20207 0
M  V30 1185 H 112.528 1.27895 3.6568 0
M  V30 1186 H 112.942 3.47598 3.9278 0
M  V30 1187 H 114.416 2.19753 5.06372 0
M  V30 1188 H 114.893 0.662619 4.34173 0
M  V30 1189 H 115.499 2.18461 3.64904 0
M  V30 1190 N 113.814 -1.1601 1.06675 0
M  V30 1191 C 115.225 -1.68235 0.809565 0
M  V30 1192 C 115.576 -1.8454 -0.666303 0
M  V30 1193 O 114.701 -1.54374 -1.5165 0
M  V30 1194 C 115.296 -3.05585 1.46299 0
M  V30 1195 C 113.855 -3.54915 1.25349 0
M  V30 1196 C 113.002 -2.30804 1.53703 0
M  V30 1197 H 115.953 -1.00318 1.22971 0
M  V30 1198 H 115.974 -3.70174 0.880431 0
M  V30 1199 H 115.486 -2.93686 2.53713 0
M  V30 1200 H 113.587 -3.72067 0.199261 0
M  V30 1201 H 113.7 -4.36774 1.9689 0
M  V30 1202 H 112.064 -2.36007 0.957739 0
M  V30 1203 H 112.847 -2.21499 2.62284 0
M  V30 1204 N 115.292 -0.849877 -1.32721 0
M  V30 1205 C 116.541 -0.447175 -1.96681 0
M  V30 1206 C 116.854 1.00135 -1.68025 0
M  V30 1207 O 118.06 1.50926 -2.25685 0
M  V30 1208 C 116.516 -0.7487 -3.52026 0
M  V30 1209 C 116.124 -2.21264 -3.89546 0
M  V30 1210 C 117.868 -0.413487 -4.22481 0
M  V30 1211 C 115.775 -2.45763 -5.37917 0
M  V30 1212 H 114.705 -0.163486 -0.736063 0
M  V30 1213 H 117.356 -1.03999 -1.51183 0
M  V30 1214 H 115.738 -0.0853727 -3.95908 0
M  V30 1215 H 116.912 -2.91736 -3.56689 0
M  V30 1216 H 115.227 -2.5119 -3.32103 0
M  V30 1217 H 117.824 -0.574017 -5.3161 0
M  V30 1218 H 118.167 0.644492 -4.11281 0
M  V30 1219 H 118.7 -1.03251 -3.84167 0
M  V30 1220 H 115.439 -3.50168 -5.54132 0
M  V30 1221 H 114.959 -1.79864 -5.72197 0
M  V30 1222 H 116.638 -2.29471 -6.0494 0
M  V30 1223 N 116.77 1.45427 -0.607355 0
M  V30 1224 C 118.018 2.01841 -0.102253 0
M  V30 1225 C 118.339 1.47832 1.27164 0
M  V30 1226 O 117.609 0.672497 1.83995 0
M  V30 1227 H 116.189 0.746188 -0.0348101 0
M  V30 1228 H 118.851 1.78229 -0.7887 0
M  V30 1229 H 117.947 3.12057 -0.0518585 0
M  V30 1230 N 118.248 0.346503 1.53744 0
M  V30 1231 C 119.495 -0.249104 2.00962 0
M  V30 1232 C 119.823 -1.5032 1.23426 0
M  V30 1233 O 119.078 -1.93217 0.310761 0
M  V30 1234 C 119.377 -0.605809 3.52228 0
M  V30 1235 C 119.043 0.551747 4.47512 0
M  V30 1236 C 117.705 0.86941 4.73281 0
M  V30 1237 C 120.057 1.32818 5.03993 0
M  V30 1238 C 117.385 1.96582 5.52786 0
M  V30 1239 C 119.737 2.41486 5.84694 0
M  V30 1240 C 118.401 2.73808 6.08757 0
M  V30 1241 H 117.671 -0.0911538 0.735372 0
M  V30 1242 H 120.318 0.475027 1.85515 0
M  V30 1243 H 118.623 -1.4107 3.65522 0
M  V30 1244 H 120.32 -1.07858 3.86222 0
M  V30 1245 H 116.91 0.294102 4.2759 0
M  V30 1246 H 121.094 1.09602 4.84047 0
M  V30 1247 H 116.35 2.22045 5.69654 0
M  V30 1248 H 120.524 3.02078 6.27473 0
M  V30 1249 H 118.151 3.58892 6.7015 0
M  V30 1250 N 119.726 -1.57421 0.075193 0
M  V30 1251 C 120.656 -2.15942 -0.888324 0
M  V30 1252 C 121.637 -1.08737 -1.30806 0
M  V30 1253 O 122.822 -1.36787 -1.37851 0
M  V30 1254 C 119.952 -2.72379 -2.1547 0
M  V30 1255 C 118.906 -3.8478 -1.87425 0
M  V30 1256 C 118.232 -4.27834 -3.20721 0
M  V30 1257 C 119.532 -5.08869 -1.17684 0
M  V30 1258 H 121.226 -2.96705 -0.400799 0
M  V30 1259 H 118.772 -1.42723 -0.191342 0
M  V30 1260 H 120.725 -3.11965 -2.83295 0
M  V30 1261 H 119.449 -1.88841 -2.6647 0
M  V30 1262 H 118.108 -3.45703 -1.22004 0
M  V30 1263 H 117.756 -3.41214 -3.6957 0
M  V30 1264 H 117.456 -5.03605 -3.02746 0
M  V30 1265 H 118.98 -4.70039 -3.89738 0
M  V30 1266 H 120.394 -5.4575 -1.75584 0
M  V30 1267 H 118.791 -5.8994 -1.09956 0
M  V30 1268 H 119.861 -4.84648 -0.156453 0
M  V30 1269 N 121.204 0.198386 -1.56346 0
M  V30 1270 C 122.453 0.917451 -1.79627 0
M  V30 1271 C 122.766 1.8456 -0.64784 0
M  V30 1272 O 123.972 2.60504 -0.764859 0
M  V30 1273 C 122.428 1.68175 -3.18191 0
M  V30 1274 C 122.036 0.798589 -4.40825 0
M  V30 1275 C 123.78 2.39065 -3.50782 0
M  V30 1276 C 121.687 1.56157 -5.70411 0
M  V30 1277 H 120.617 0.346317 -0.669762 0
M  V30 1278 H 123.268 0.170801 -1.82703 0
M  V30 1279 H 121.65 2.47216 -3.09354 0
M  V30 1280 H 122.824 0.0470665 -4.60776 0
M  V30 1281 H 121.139 0.200686 -4.15916 0
M  V30 1282 H 123.736 2.96692 -4.44835 0
M  V30 1283 H 124.079 3.13091 -2.74371 0
M  V30 1284 H 124.612 1.66993 -3.61052 0
M  V30 1285 H 121.351 0.864142 -6.49779 0
M  V30 1286 H 120.871 2.2871 -5.54483 0
M  V30 1287 H 122.55 2.11622 -6.11412 0
M  V30 1288 N 122.682 1.50554 0.465978 0
M  V30 1289 C 123.632 1.66177 1.56106 0
M  V30 1290 C 124.616 0.516265 1.52393 0
M  V30 1291 O 125.808 0.770906 1.5933 0
M  V30 1292 C 122.937 1.76396 2.94515 0
M  V30 1293 C 122.023 2.9664 3.03093 0
M  V30 1294 N 122.414 4.20245 2.81474 0
M  V30 1295 C 120.712 2.95304 3.34233 0
M  V30 1296 C 121.413 5.01259 2.95151 0
M  V30 1297 N 120.389 4.35318 3.25576 0
M  V30 1298 H 124.191 2.59434 1.38099 0
M  V30 1299 H 121.705 1.47808 0.6728 0
M  V30 1300 H 123.702 1.85694 3.73261 0
M  V30 1301 H 122.362 0.843017 3.13565 0
M  V30 1302 H 123.373 4.4966 2.56956 0
M  V30 1303 H 120.05 2.12729 3.59239 0
M  V30 1304 H 121.44 6.09564 2.82632 0
M  V30 1305 N 124.16 -0.719506 1.40217 0
M  V30 1306 C 125.108 -1.85493 1.40339 0
M  V30 1307 C 126.102 -1.66995 0.284415 0
M  V30 1308 O 127.308 -1.74148 0.455252 0
M  V30 1309 H 123.683 -0.610857 0.438586 0
M  V30 1310 H 125.654 -1.82506 2.36081 0
M  V30 1311 C 124.403 -3.23321 1.27901 0
M  V30 1312 H 123.726 -3.38159 2.1328 0
M  V30 1313 H 125.166 -4.02914 1.32045 0
M  V30 1314 C 123.625 -3.36898 -0.0111355 0
M  V30 1315 O 124.155 -3.89674 -0.975538 0
M  V30 1316 N 122.361 -2.90492 -0.0793393 0
M  V30 1317 H 121.908 -2.47731 0.706183 0
M  V30 1318 H 121.866 -2.99955 -0.942038 0
M  V30 1319 N 125.638 -1.25649 -0.95132 0
M  V30 1320 C 126.57 -1.02112 -2.05197 0
M  V30 1321 C 127.583 0.0150571 -1.62793 0
M  V30 1322 O 128.772 -0.223874 -1.77091 0
M  V30 1323 C 125.872 -0.522361 -3.3485 0
M  V30 1324 C 125.045 -1.62546 -4.06076 0
M  V30 1325 C 124.104 -1.12649 -5.14001 0
M  V30 1326 O 123.13 -1.82156 -5.39266 0
M  V30 1327 N 124.332 0.03047 -5.80492 0
M  V30 1328 H 127.097 -1.96885 -2.25957 0
M  V30 1329 H 124.658 -1.16899 -1.1201 0
M  V30 1330 H 126.65 -0.172961 -4.0433 0
M  V30 1331 H 125.22 0.33151 -3.10837 0
M  V30 1332 H 124.44 -2.14628 -3.30649 0
M  V30 1333 H 125.728 -2.36644 -4.50419 0
M  V30 1334 H 125.126 0.611169 -5.62389 0
M  V30 1335 H 123.683 0.320875 -6.5101 0
M  V30 1336 N 127.117 1.15442 -1.07289 0
M  V30 1337 C 128.533 1.38201 -0.798288 0
M  V30 1338 C 128.733 1.92429 0.597769 0
M  V30 1339 O 127.789 2.12962 1.3566 0
M  V30 1340 C 129.102 2.35357 -1.87156 0
M  V30 1341 C 130.65 2.49021 -1.89624 0
M  V30 1342 C 131.125 3.49468 -2.96034 0
M  V30 1343 N 132.616 3.57003 -2.95132 0
M  V30 1344 C 133.351 4.34543 -3.74112 0
M  V30 1345 N 132.847 5.15421 -4.6294 0
M  V30 1346 N 134.64 4.29625 -3.62462 0
M  V30 1347 H 126.791 0.78584 -1.97328 0
M  V30 1348 H 129.054 0.408065 -0.855679 0
M  V30 1349 H 128.76 2.02626 -2.87464 0
M  V30 1350 H 128.634 3.35129 -1.73114 0
M  V30 1351 H 131.021 2.81051 -0.899687 0
M  V30 1352 H 131.102 1.4925 -2.07745 0
M  V30 1353 H 130.746 3.18173 -3.95889 0
M  V30 1354 H 130.676 4.48992 -2.75161 0
M  V30 1355 H 133.167 2.99276 -2.30743 0
M  V30 1356 H 133.48 5.7183 -5.19837 0
M  V30 1357 H 131.825 5.14729 -4.66989 0
M  V30 1358 H 135.016 3.65505 -2.92444 0
M  V30 1359 H 135.189 4.89807 -4.24256 0
M  V30 1360 N 128.595 0.856903 1.32268 0
M  V30 1361 C 129.558 0.308171 2.27119 0
M  V30 1362 C 130.558 -0.533421 1.51695 0
M  V30 1363 O 131.748 -0.344607 1.70757 0
M  V30 1364 C 128.88 -0.563757 3.36206 0
M  V30 1365 H 130.073 1.14535 2.77167 0
M  V30 1366 H 127.626 0.631421 1.42978 0
M  V30 1367 H 128.361 -1.42266 2.91429 0
M  V30 1368 H 128.146 0.0386749 3.92081 0
M  V30 1369 H 129.636 -0.940386 4.06874 0
M  V30 1370 N 130.073 -1.45103 0.615059 0
M  V30 1371 C 131.489 -1.57137 0.279322 0
M  V30 1372 C 131.689 -1.60523 -1.21797 0
M  V30 1373 O 130.745 -1.53956 -2.00134 0
M  V30 1374 C 132.058 -2.85062 0.957083 0
M  V30 1375 C 133.606 -2.98749 0.933706 0
M  V30 1376 C 134.081 -4.29455 1.59162 0
M  V30 1377 N 135.572 -4.36231 1.55746 0
M  V30 1378 C 136.307 -5.36051 2.0356 0
M  V30 1379 N 135.803 -6.42367 2.59494 0
M  V30 1380 N 137.596 -5.27456 1.94284 0
M  V30 1381 H 129.747 -1.41148 1.58717 0
M  V30 1382 H 132.01 -0.675331 0.665306 0
M  V30 1383 H 131.716 -2.88488 2.01166 0
M  V30 1384 H 131.59 -3.7407 0.48494 0
M  V30 1385 H 133.977 -2.94886 -0.112347 0
M  V30 1386 H 134.058 -2.11132 1.44419 0
M  V30 1387 H 133.702 -4.34077 2.63704 0
M  V30 1388 H 133.632 -5.15901 1.0561 0
M  V30 1389 H 136.123 -3.60011 1.14893 0
M  V30 1390 H 136.436 -7.14793 2.93752 0
M  V30 1391 H 134.781 -6.43097 2.63537 0
M  V30 1392 H 137.972 -4.43308 1.5032 0
M  V30 1393 H 138.145 -6.05099 2.3186 0
M  V30 1394 N 131.551 -0.354651 -1.53558 0
M  V30 1395 C 132.776 0.242153 -2.05981 0
M  V30 1396 C 133.201 1.42553 -1.2272 0
M  V30 1397 O 132.559 1.79656 -0.243604 0
M  V30 1398 C 132.607 0.624367 -3.55154 0
M  V30 1399 O 131.711 1.72301 -3.74681 0
M  V30 1400 H 131.052 0.0378432 -0.662921 0
M  V30 1401 H 133.582 -0.512087 -1.98088 0
M  V30 1402 H 133.592 0.898433 -3.97985 0
M  V30 1403 H 132.267 -0.240989 -4.15201 0
M  V30 1404 H 130.844 1.44535 -3.4375 0
M  V30 1405 N 133.029 1.57378 -0.0835403 0
M  V30 1406 C 133.976 2.13384 0.879539 0
M  V30 1407 C 134.946 1.04936 1.28754 0
M  V30 1408 O 136.131 1.32662 1.37133 0
M  V30 1409 C 133.271 2.70932 2.13752 0
M  V30 1410 C 132.384 3.93575 1.7811 0
M  V30 1411 C 131.519 4.39326 2.98607 0
M  V30 1412 C 130.558 5.54587 2.59037 0
M  V30 1413 N 129.695 5.95243 3.72331 0
M  V30 1414 H 134.535 2.9537 0.395076 0
M  V30 1415 H 132.072 1.45953 0.183349 0
M  V30 1416 H 134.03 3.02411 2.87408 0
M  V30 1417 H 132.66 1.91693 2.59718 0
M  V30 1418 H 131.712 3.68483 0.94469 0
M  V30 1419 H 133.024 4.77258 1.45005 0
M  V30 1420 H 132.178 4.72528 3.80529 0
M  V30 1421 H 130.917 3.5452 3.34913 0
M  V30 1422 H 129.922 5.21024 1.75539 0
M  V30 1423 H 131.147 6.41133 2.23887 0
M  V30 1424 H 129.093 5.13385 4.08378 0
M  V30 1425 H 129.01 6.73694 3.43034 0
M  V30 1426 H 130.278 6.33072 4.54797 0
M  V30 1427 N 134.507 -0.190092 1.56449 0
M  V30 1428 C 135.784 -0.935886 1.71757 0
M  V30 1429 C 136.164 -2.01173 0.639726 0
M  V30 1430 O 135.512 -2.25827 -0.348502 0
M  V30 1431 C 135.722 -1.51775 3.1427 0
M  V30 1432 C 137.07 -1.99794 3.74656 0
M  V30 1433 O 138.094 -1.61607 3.1743 0
M  V30 1434 O 136.953 -2.70079 4.751 0
M  V30 1435 H 134.047 -0.439229 0.700719 0
M  V30 1436 H 136.593 -0.179395 1.68749 0
M  V30 1437 H 135.365 -0.742505 3.84191 0
M  V30 1438 H 134.988 -2.33894 3.21527 0
M  V30 1439 N 135.985 -1.50799 -0.457987 0
M  V30 1440 C 137.215 -1.65977 -1.23025 0
M  V30 1441 C 137.623 -0.347918 -1.85974 0
M  V30 1442 O 136.966 0.68148 -1.70592 0
M  V30 1443 C 137.028 -2.70309 -2.3701 0
M  V30 1444 C 136.692 -4.135 -1.94594 0
M  V30 1445 C 137.689 -4.98949 -1.46101 0
M  V30 1446 C 135.374 -4.5949 -2.02915 0
M  V30 1447 C 137.368 -6.28442 -1.06489 0
M  V30 1448 C 135.055 -5.88984 -1.62914 0
M  V30 1449 C 136.053 -6.73286 -1.1478 0
M  V30 1450 O 135.741 -8.00362 -0.75339 0
M  V30 1451 H 135.473 -0.56064 -0.377702 0
M  V30 1452 H 138.027 -1.97857 -0.551537 0
M  V30 1453 H 136.257 -2.337 -3.08093 0
M  V30 1454 H 137.946 -2.74574 -2.98938 0
M  V30 1455 H 138.712 -4.6463 -1.39084 0
M  V30 1456 H 134.591 -3.94009 -2.39328 0
M  V30 1457 H 138.135 -6.94194 -0.688488 0
M  V30 1458 H 134.032 -6.22822 -1.69595 0
M  V30 1459 H 134.8 -8.13744 -0.88108 0
M  V30 1460 N 137.463 0.71206 -1.40597 0
M  V30 1461 C 138.74 1.46536 -1.29563 0
M  V30 1462 C 139.12 2.10931 0.0844217 0
M  V30 1463 O 138.468 2.00418 1.0975 0
M  V30 1464 C 138.678 2.49821 -2.43701 0
M  V30 1465 C 140.026 3.15551 -2.841 0
M  V30 1466 O 141.05 2.60142 -2.4332 0
M  V30 1467 O 139.909 4.15867 -3.54566 0
M  V30 1468 H 137.003 0.651801 -0.509004 0
M  V30 1469 H 139.549 0.743935 -1.52524 0
M  V30 1470 H 138.321 2.00778 -3.35863 0
M  V30 1471 H 137.944 3.29495 -2.22528 0
M  V30 1472 N 138.941 1.26152 0.944643 0
M  V30 1473 C 139.889 1.07215 2.06417 0
M  V30 1474 C 140.883 9.2007e-05 1.694 0
M  V30 1475 O 142.089 0.1565 1.79318 0
M  V30 1476 H 138.464 0.329837 0.675805 0
M  V30 1477 H 140.435 2.02099 2.19541 0
M  V30 1478 C 139.184 0.718197 3.40202 0
M  V30 1479 H 138.507 1.53497 3.69159 0
M  V30 1480 H 139.947 0.625459 4.19361 0
M  V30 1481 C 138.406 -0.576435 3.31932 0
M  V30 1482 O 138.936 -1.61574 3.67773 0
M  V30 1483 N 137.142 -0.565781 2.85039 0
M  V30 1484 H 136.689 0.280367 2.5607 0
M  V30 1485 H 136.647 -1.43213 2.79888 0
M  V30 1486 N 140.419 -1.14872 1.07899 0
M  V30 1487 C 141.668 -1.85135 0.800499 0
M  V30 1488 C 141.981 -1.83547 -0.676014 0
M  V30 1489 O 143.187 -2.49548 -1.06948 0
M  V30 1490 C 141.643 -3.3231 1.38197 0
M  V30 1491 C 141.251 -3.42329 2.8899 0
M  V30 1492 C 142.995 -4.0772 1.18174 0
M  V30 1493 C 140.902 -4.83684 3.403 0
M  V30 1494 H 139.832 -0.693563 0.29578 0
M  V30 1495 H 142.483 -1.29532 1.29976 0
M  V30 1496 H 140.865 -3.87618 0.810431 0
M  V30 1497 H 142.039 -2.97097 3.52236 0
M  V30 1498 H 140.354 -2.80369 3.07867 0
M  V30 1499 H 142.951 -5.12049 1.5398 0
M  V30 1500 H 143.294 -4.16124 0.12117 0
M  V30 1501 H 143.827 -3.58696 1.71994 0
M  V30 1502 H 140.566 -4.80465 4.45907 0
M  V30 1503 H 140.086 -5.29474 2.81811 0
M  V30 1504 H 141.765 -5.52558 3.36584 0
M  V30 1505 N 141.898 -0.863906 -1.31812 0
M  V30 1506 C 142.845 -0.313303 -2.28664 0
M  V30 1507 C 143.815 0.584868 -1.55462 0
M  V30 1508 O 145 0.517805 -1.83639 0
M  V30 1509 C 142.14 0.48441 -3.41683 0
M  V30 1510 C 141.253 -0.440594 -4.29747 0
M  V30 1511 C 140.388 0.370652 -5.29905 0
M  V30 1512 C 139.427 -0.551164 -6.09613 0
M  V30 1513 N 138.564 0.223462 -7.01744 0
M  V30 1514 H 143.404 -1.14444 -2.75148 0
M  V30 1515 H 140.941 -0.575769 -1.35364 0
M  V30 1516 H 142.899 0.962627 -4.05943 0
M  V30 1517 H 141.529 1.28029 -2.96325 0
M  V30 1518 H 140.581 -1.03724 -3.65986 0
M  V30 1519 H 141.893 -1.14767 -4.85417 0
M  V30 1520 H 141.047 0.911638 -5.99812 0
M  V30 1521 H 139.786 1.11105 -4.74876 0
M  V30 1522 H 138.791 -1.10396 -5.38603 0
M  V30 1523 H 140.016 -1.29032 -6.66729 0
M  V30 1524 H 137.962 0.946787 -6.49132 0
M  V30 1525 H 137.879 -0.424399 -7.54808 0
M  V30 1526 H 139.147 0.745876 -7.75923 0
M  V30 1527 N 143.376 1.44774 -0.622745 0
M  V30 1528 C 144.324 2.32387 0.0994683 0
M  V30 1529 C 145.318 1.46859 0.844326 0
M  V30 1530 O 146.524 1.63254 0.758174 0
M  V30 1531 H 142.899 0.750273 0.0509291 0
M  V30 1532 H 144.87 2.91062 -0.65767 0
M  V30 1533 C 143.619 3.30723 1.07319 0
M  V30 1534 H 142.942 3.96541 0.509462 0
M  V30 1535 H 144.382 3.94725 1.54817 0
M  V30 1536 C 142.841 2.59021 2.15429 0
M  V30 1537 O 143.371 2.38286 3.23393 0
M  V30 1538 N 141.577 2.189 1.91131 0
M  V30 1539 H 141.124 2.35964 1.03337 0
M  V30 1540 H 141.082 1.71251 2.63668 0
M  V30 1541 N 144.854 0.36279 1.53368 0
M  V30 1542 C 145.784 -0.476976 2.28576 0
M  V30 1543 C 146.765 -1.08631 1.30894 0
M  V30 1544 O 147.95 -1.10409 1.59761 0
M  V30 1545 C 145.08 -1.61828 3.07293 0
M  V30 1546 C 144.034 -1.13633 4.1264 0
M  V30 1547 C 143.36 -2.36766 4.79423 0
M  V30 1548 C 144.66 -0.223061 5.21823 0
M  V30 1549 H 146.354 0.150474 2.99022 0
M  V30 1550 H 143.9 0.0738103 1.43811 0
M  V30 1551 H 145.853 -2.21237 3.58653 0
M  V30 1552 H 144.577 -2.27292 2.34533 0
M  V30 1553 H 143.236 -0.564945 3.62221 0
M  V30 1554 H 142.884 -3.0068 4.03238 0
M  V30 1555 H 142.584 -2.05192 5.50609 0
M  V30 1556 H 144.108 -2.96865 5.33576 0
M  V30 1557 H 145.522 -0.724545 5.68703 0
M  V30 1558 H 143.919 0.001678 6.001 0
M  V30 1559 H 144.989 0.735553 4.79289 0
M  V30 1560 N 146.332 -1.57332 0.0918853 0
M  V30 1561 C 147.579 -1.94236 -0.572577 0
M  V30 1562 C 147.907 -0.973398 -1.6839 0
M  V30 1563 O 147.162 0.00756912 -1.95699 0
M  V30 1564 C 147.461 -3.37689 -1.17051 0
M  V30 1565 C 147.127 -4.50527 -0.183304 0
M  V30 1566 C 145.789 -4.81119 0.0882276 0
M  V30 1567 C 148.141 -5.18883 0.49095 0
M  V30 1568 C 145.469 -5.77395 1.04076 0
M  V30 1569 C 147.821 -6.1618 1.43193 0
M  V30 1570 C 146.485 -6.45179 1.71173 0
M  V30 1571 H 145.755 -0.710762 -0.209521 0
M  V30 1572 H 148.402 -1.9077 0.167036 0
M  V30 1573 H 146.707 -3.37718 -1.9863 0
M  V30 1574 H 148.404 -3.63543 -1.69227 0
M  V30 1575 H 144.994 -4.26681 -0.405124 0
M  V30 1576 H 149.178 -4.95427 0.294312 0
M  V30 1577 H 144.434 -5.98179 1.26457 0
M  V30 1578 H 148.608 -6.68243 1.96023 0
M  V30 1579 H 146.235 -7.1959 2.4514 0
M  V30 1580 N 147.81 0.181792 -1.56548 0
M  V30 1581 C 149.226 0.53316 -1.50431 0
M  V30 1582 C 149.426 1.85184 -0.794297 0
M  V30 1583 O 148.482 2.50058 -0.350318 0
M  V30 1584 C 149.795 0.575597 -2.9514 0
M  V30 1585 C 151.343 0.663519 -3.05886 0
M  V30 1586 C 151.818 0.736946 -4.52032 0
M  V30 1587 N 153.309 0.800118 -4.56237 0
M  V30 1588 C 154.044 0.877327 -5.66649 0
M  V30 1589 N 153.54 0.916016 -6.86718 0
M  V30 1590 N 155.333 0.915542 -5.54594 0
M  V30 1591 H 147.484 -0.683025 -2.01118 0
M  V30 1592 H 149.747 -0.244988 -0.915797 0
M  V30 1593 H 149.453 -0.324482 -3.502 0
M  V30 1594 H 149.327 1.42572 -3.49218 0
M  V30 1595 H 151.714 1.55403 -2.50867 0
M  V30 1596 H 151.795 -0.21307 -2.54911 0
M  V30 1597 H 151.439 -0.149262 -5.07681 0
M  V30 1598 H 151.369 1.62953 -5.00753 0
M  V30 1599 H 153.86 0.778926 -3.69785 0
M  V30 1600 H 154.173 0.975813 -7.66614 0
M  V30 1601 H 152.518 0.884469 -6.89349 0
M  V30 1602 H 155.709 0.882245 -4.59711 0
M  V30 1603 H 155.882 0.972253 -6.40665 0
M  V30 1604 N 149.288 1.51039 0.449983 0
M  V30 1605 C 150.699 1.557 1.03026 0
M  V30 1606 C 151.05 0.372939 1.92623 0
M  V30 1607 O 150.175 -0.511771 2.10261 0
M  V30 1608 C 150.77 2.82171 1.87523 0
M  V30 1609 C 149.329 2.89444 2.40622 0
M  V30 1610 C 148.476 2.50228 1.19504 0
M  V30 1611 H 151.427 1.56999 0.231745 0
M  V30 1612 H 151.448 2.65219 2.72835 0
M  V30 1613 H 150.96 3.68331 1.22286 0
M  V30 1614 H 149.061 2.07685 3.0935 0
M  V30 1615 H 149.174 3.92816 2.74285 0
M  V30 1616 H 147.538 2.03139 1.53644 0
M  V30 1617 H 148.321 3.38719 0.558972 0
M  V30 1618 N 150.766 -0.704594 1.40972 0
M  V30 1619 C 151.991 -1.49858 1.43378 0
M  V30 1620 C 152.416 -1.88061 0.038184 0
M  V30 1621 O 151.774 -1.5402 -0.956425 0
M  V30 1622 C 151.822 -2.74333 2.34038 0
M  V30 1623 O 150.926 -3.7147 1.7912 0
M  V30 1624 H 150.267 -0.45139 0.486974 0
M  V30 1625 H 152.797 -0.866832 1.8533 0
M  V30 1626 H 152.807 -3.22741 2.49604 0
M  V30 1627 H 151.482 -2.45863 3.35446 0
M  V30 1628 H 150.059 -3.30363 1.72958 0
M  V30 1629 N 152.244 -1.26651 -0.937939 0
M  V30 1630 C 153.194 -1.05156 -2.02302 0
M  V30 1631 C 154.178 0.0171233 -1.60891 0
M  V30 1632 O 155.37 -0.200213 -1.75864 0
M  V30 1633 C 152.499 -0.689962 -3.36295 0
M  V30 1634 C 151.585 -1.79626 -3.84181 0
M  V30 1635 N 151.976 -3.03422 -4.04684 0
M  V30 1636 C 150.274 -1.6806 -4.13124 0
M  V30 1637 C 150.975 -3.75345 -4.444 0
M  V30 1638 N 149.951 -3.03051 -4.51288 0
M  V30 1639 H 153.753 -1.99117 -2.1617 0
M  V30 1640 H 151.267 -1.17216 -1.12402 0
M  V30 1641 H 153.264 -0.517112 -4.13681 0
M  V30 1642 H 151.924 0.242139 -3.23796 0
M  V30 1643 H 152.935 -3.39293 -3.91281 0
M  V30 1644 H 149.612 -0.818629 -4.09396 0
M  V30 1645 H 151.002 -4.81691 -4.68427 0
M  V30 1646 N 153.722 1.14298 -1.08507 0
M  V30 1647 C 154.685 2.17607 -0.719711 0
M  V30 1648 C 155.685 1.58907 0.245997 0
M  V30 1649 O 156.875 1.74181 0.0254081 0
M  V30 1650 C 154.007 3.40842 -0.0627695 0
M  V30 1651 H 155.2 2.51443 -1.63452 0
M  V30 1652 H 152.753 1.28963 -0.88307 0
M  V30 1653 H 153.488 3.12587 0.863716 0
M  V30 1654 H 153.273 3.84713 -0.757504 0
M  V30 1655 H 154.763 4.17221 0.177786 0
M  V30 1656 N 155.201 0.870884 1.31352 0
M  V30 1657 C 156.478 0.402907 1.91405 0
M  V30 1658 C 156.858 -1.11512 1.79244 0
M  V30 1659 O 156.206 -1.94411 1.2007 0
M  V30 1660 C 156.416 0.885301 3.37585 0
M  V30 1661 C 157.764 0.911971 4.14691 0
M  V30 1662 O 158.788 0.831016 3.46371 0
M  V30 1663 O 157.647 1.02927 5.3672 0
M  V30 1664 H 154.741 0.120698 0.818145 0
M  V30 1665 H 157.287 0.958857 1.40014 0
M  V30 1666 H 156.059 1.92889 3.40455 0
M  V30 1667 H 155.682 0.307714 3.96407 0
M  V30 1668 N 156.679 -1.44442 0.630414 0
M  V30 1669 C 157.926 -2.02052 0.134617 0
M  V30 1670 C 158.254 -1.49576 -1.24327 0
M  V30 1671 O 157.509 -0.669806 -1.83881 0
M  V30 1672 C 157.808 -3.57332 0.0697835 0
M  V30 1673 C 157.474 -4.29058 1.38635 0
M  V30 1674 C 156.136 -4.4837 1.74694 0
M  V30 1675 C 158.488 -4.69872 2.25543 0
M  V30 1676 C 155.816 -5.05756 2.97369 0
M  V30 1677 C 158.168 -5.28616 3.47487 0
M  V30 1678 C 156.832 -5.46147 3.8377 0
M  V30 1679 H 156.102 -0.739361 0.0492598 0
M  V30 1680 H 158.749 -1.73217 0.816586 0
M  V30 1681 H 157.054 -3.85577 -0.695553 0
M  V30 1682 H 158.751 -3.99637 -0.330344 0
M  V30 1683 H 155.341 -4.14357 1.09574 0
M  V30 1684 H 159.525 -4.54666 1.98979 0
M  V30 1685 H 154.781 -5.17515 3.25558 0
M  V30 1686 H 158.955 -5.59192 4.15063 0
M  V30 1687 H 156.582 -5.9038 4.7891 0
M  V30 1688 N 158.157 -0.370918 -1.53173 0
M  V30 1689 C 159.385 0.217704 -2.05751 0
M  V30 1690 C 159.8 1.42018 -1.24404 0
M  V30 1691 O 159.157 1.80245 -0.286033 0
M  V30 1692 C 159.208 0.605954 -3.56385 0
M  V30 1693 O 158.929 -0.548734 -4.3465 0
M  V30 1694 C 160.43 1.2524 -4.25241 0
M  V30 1695 H 157.65 0.0371659 -0.66997 0
M  V30 1696 H 160.194 -0.530832 -1.9749 0
M  V30 1697 H 158.349 1.3044 -3.6478 0
M  V30 1698 H 158.763 -0.23376 -5.23979 0
M  V30 1699 H 160.237 1.47458 -5.3194 0
M  V30 1700 H 160.714 2.2143 -3.79296 0
M  V30 1701 H 161.32 0.595233 -4.21114 0
M  V30 1702 N 159.635 1.57281 -0.100228 0
M  V30 1703 C 160.865 1.98591 0.569681 0
M  V30 1704 C 161.273 0.978315 1.61943 0
M  V30 1705 O 160.616 -0.0396108 1.83657 0
M  V30 1706 C 160.678 3.36282 1.271 0
M  V30 1707 C 160.342 4.55488 0.371409 0
M  V30 1708 C 161.339 5.18491 -0.382504 0
M  V30 1709 C 159.024 5.01474 0.287965 0
M  V30 1710 C 161.018 6.25852 -1.20779 0
M  V30 1711 C 158.705 6.08701 -0.540965 0
M  V30 1712 C 159.703 6.70755 -1.28749 0
M  V30 1713 O 159.391 7.75914 -2.10269 0
M  V30 1714 H 159.123 0.65752 0.156982 0
M  V30 1715 H 161.677 2.0463 -0.177734 0
M  V30 1716 H 159.907 3.26941 2.0651 0
M  V30 1717 H 161.596 3.62005 1.83595 0
M  V30 1718 H 162.362 4.83891 -0.3278 0
M  V30 1719 H 158.241 4.52932 0.858689 0
M  V30 1720 H 161.785 6.74218 -1.79096 0
M  V30 1721 H 157.682 6.42732 -0.597131 0
M  V30 1722 H 158.45 7.92925 -2.03007 0
M  V30 1723 N 161.113 -0.173488 1.56642 0
M  V30 1724 C 162.36 -0.890465 1.81871 0
M  V30 1725 C 162.688 -1.82339 0.67696 0
M  V30 1726 O 161.943 -1.92795 -0.335926 0
M  V30 1727 C 162.242 -1.72069 3.13252 0
M  V30 1728 C 161.908 -0.936878 4.41059 0
M  V30 1729 C 160.57 -0.720545 4.75775 0
M  V30 1730 C 162.922 -0.386919 5.19762 0
M  V30 1731 C 160.25 0.0568829 5.86672 0
M  V30 1732 C 162.602 0.37741 6.31473 0
M  V30 1733 C 161.266 0.604563 6.64757 0
M  V30 1734 H 160.536 -0.325844 0.665512 0
M  V30 1735 H 163.183 -0.155527 1.90867 0
M  V30 1736 H 161.488 -2.52496 2.99588 0
M  V30 1737 H 163.185 -2.27844 3.29982 0
M  V30 1738 H 159.775 -1.11553 4.13828 0
M  V30 1739 H 163.959 -0.541398 4.93338 0
M  V30 1740 H 159.215 0.242635 6.10918 0
M  V30 1741 H 163.389 0.810825 6.91664 0
M  V30 1742 H 161.016 1.20885 7.50527 0
M  V30 1743 N 162.591 -1.51276 -0.441967 0
M  V30 1744 C 163.541 -1.6864 -1.53442 0
M  V30 1745 C 164.525 -0.540444 -1.51552 0
M  V30 1746 O 165.717 -0.796157 -1.58083 0
M  V30 1747 C 162.846 -1.8106 -2.91672 0
M  V30 1748 C 161.932 -3.01424 -2.98336 0
M  V30 1749 N 162.323 -4.2467 -2.74752 0
M  V30 1750 C 160.621 -3.00584 -3.29493 0
M  V30 1751 C 161.322 -5.05891 -2.87139 0
M  V30 1752 N 160.298 -4.40442 -3.18609 0
M  V30 1753 H 164.1 -2.61598 -1.33954 0
M  V30 1754 H 161.614 -1.4886 -0.6492 0
M  V30 1755 H 163.611 -1.91609 -3.70259 0
M  V30 1756 H 162.271 -0.892795 -3.12185 0
M  V30 1757 H 163.282 -4.53691 -2.49769 0
M  V30 1758 H 159.959 -2.18417 -3.55809 0
M  V30 1759 H 161.349 -6.13983 -2.72899 0
M  V30 1760 N 164.069 0.697108 -1.41344 0
M  V30 1761 C 165.016 1.81106 -1.43071 0
M  V30 1762 C 165.986 1.63632 -0.285275 0
M  V30 1763 O 167.171 1.84504 -0.486091 0
M  V30 1764 C 164.311 3.18975 -1.31715 0
M  V30 1765 C 163.424 3.47892 -2.56115 0
M  V30 1766 C 162.559 4.75367 -2.37064 0
M  V30 1767 C 161.598 4.97247 -3.56948 0
M  V30 1768 N 160.735 6.15947 -3.36977 0
M  V30 1769 H 165.575 1.78965 -2.38276 0
M  V30 1770 H 163.112 0.873975 -1.18322 0
M  V30 1771 H 165.07 3.98615 -1.23133 0
M  V30 1772 H 163.7 3.20297 -0.401183 0
M  V30 1773 H 162.752 2.62669 -2.75153 0
M  V30 1774 H 164.064 3.59962 -3.45295 0
M  V30 1775 H 163.218 5.63059 -2.25941 0
M  V30 1776 H 161.957 4.65541 -1.45338 0
M  V30 1777 H 160.962 4.08004 -3.68527 0
M  V30 1778 H 162.187 5.08934 -4.49626 0
M  V30 1779 H 160.133 6.07336 -2.47949 0
M  V30 1780 H 160.05 6.28777 -4.19732 0
M  V30 1781 H 161.318 7.06377 -3.29623 0
M  V30 1782 N 165.547 1.27147 0.931209 0
M  V30 1783 C 166.777 1.15914 1.71019 0
M  V30 1784 C 167.185 -0.287112 1.87009 0
M  V30 1785 O 166.528 -1.20761 1.38429 0
M  V30 1786 C 166.59 1.76647 3.13107 0
M  V30 1787 C 166.254 3.25807 3.20467 0
M  V30 1788 C 167.251 4.22489 3.02983 0
M  V30 1789 C 164.936 3.66452 3.43538 0
M  V30 1790 C 166.93 5.57794 3.08454 0
M  V30 1791 C 164.617 5.01888 3.48643 0
M  V30 1792 C 165.615 5.97369 3.31119 0
M  V30 1793 O 165.303 7.30337 3.35952 0
M  V30 1794 H 165.035 0.404062 0.54195 0
M  V30 1795 H 167.589 1.68457 1.17521 0
M  V30 1796 H 165.819 1.18578 3.68071 0
M  V30 1797 H 167.508 1.60179 3.72958 0
M  V30 1798 H 168.274 3.92425 2.85004 0
M  V30 1799 H 164.153 2.92611 3.5623 0
M  V30 1800 H 167.697 6.32298 2.94694 0
M  V30 1801 H 163.594 5.31609 3.66145 0
M  V30 1802 H 164.362 7.38739 3.5243 0
M  V30 1803 N 167.025 -1.13721 1.09112 0
M  V30 1804 C 168.273 -1.84559 0.823562 0
M  V30 1805 C 168.594 -1.83754 -0.652658 0
M  V30 1806 O 167.864 -1.29102 -1.47342 0
M  V30 1807 H 166.444 -0.683376 0.301673 0
M  V30 1808 H 169.106 -1.37771 1.37859 0
M  V30 1809 H 168.202 -2.8917 1.17419 0
M  V30 1810 N 168.503 -0.877838 -1.30888 0
M  V30 1811 C 169.752 -0.488793 -1.95688 0
M  V30 1812 C 170.065 0.965485 -1.70111 0
M  V30 1813 O 171.271 1.46104 -2.28836 0
M  V30 1814 C 169.727 -0.823201 -3.50359 0
M  V30 1815 C 169.335 -2.29477 -3.84765 0
M  V30 1816 C 171.079 -0.503009 -4.21509 0
M  V30 1817 C 168.986 -2.57118 -5.32583 0
M  V30 1818 H 167.916 -0.179062 -0.732429 0
M  V30 1819 H 170.567 -1.07183 -1.48943 0
M  V30 1820 H 168.949 -0.169331 -3.95638 0
M  V30 1821 H 170.123 -2.99236 -3.5042 0
M  V30 1822 H 168.438 -2.58178 -3.267 0
M  V30 1823 H 171.035 -0.68665 -5.30273 0
M  V30 1824 H 171.378 0.557109 -4.12555 0
M  V30 1825 H 171.911 -1.11376 -3.8189 0
M  V30 1826 H 168.65 -3.61843 -5.4658 0
M  V30 1827 H 168.17 -1.91961 -5.68253 0
M  V30 1828 H 169.849 -2.42251 -5.99936 0
M  V30 1829 N 169.982 1.44106 -0.638065 0
M  V30 1830 C 171.398 1.56672 -0.304286 0
M  V30 1831 C 171.598 1.6244 1.19228 0
M  V30 1832 O 170.654 1.57121 1.9766 0
M  V30 1833 C 171.967 2.83503 -1.00231 0
M  V30 1834 C 173.515 2.97226 -0.981116 0
M  V30 1835 C 173.99 4.26868 -1.65974 0
M  V30 1836 N 175.481 4.33698 -1.62666 0
M  V30 1837 C 176.216 5.32745 -2.12063 0
M  V30 1838 N 175.712 6.38157 -2.6968 0
M  V30 1839 N 177.505 5.24299 -2.02651 0
M  V30 1840 H 169.656 1.38605 -1.60942 0
M  V30 1841 H 171.919 0.664661 -0.675965 0
M  V30 1842 H 171.625 2.85251 -2.0573 0
M  V30 1843 H 171.499 3.73251 -0.54439 0
M  V30 1844 H 173.886 2.95027 0.0654188 0
M  V30 1845 H 173.967 2.08808 -1.47759 0
M  V30 1846 H 173.611 4.29826 -2.70576 0
M  V30 1847 H 173.541 5.14156 -1.13804 0
M  V30 1848 H 176.032 3.58138 -1.20606 0
M  V30 1849 H 176.345 7.10029 -3.05087 0
M  V30 1850 H 174.69 6.38823 -2.73734 0
M  V30 1851 H 177.881 4.4086 -1.57353 0
M  V30 1852 H 178.054 6.01334 -2.41457 0
M  V30 1853 N 171.46 0.379036 1.52974 0
M  V30 1854 C 172.737 -0.263479 1.93817 0
M  V30 1855 C 173.117 -1.65244 1.31368 0
M  V30 1856 O 172.465 -2.23448 0.477856 0
M  V30 1857 C 172.675 -0.300166 3.47707 0
M  V30 1858 C 174.023 -0.534061 4.21228 0
M  V30 1859 O 175.047 -0.38081 3.54159 0
M  V30 1860 O 173.906 -0.833501 5.40106 0
M  V30 1861 H 171 -0.161149 0.811147 0
M  V30 1862 H 173.546 0.432798 1.64088 0
M  V30 1863 H 172.318 0.673138 3.85467 0
M  V30 1864 H 171.941 -1.04179 3.83709 0
M  V30 1865 N 172.938 -1.57226 0.108567 0
M  V30 1866 C 174.185 -1.94833 -0.551943 0
M  V30 1867 C 174.513 -0.991204 -1.67348 0
M  V30 1868 O 173.768 -0.0131878 -1.95696 0
M  V30 1869 C 174.067 -3.38911 -1.13463 0
M  V30 1870 C 173.733 -4.50696 -0.135509 0
M  V30 1871 C 172.395 -4.80998 0.139252 0
M  V30 1872 C 174.747 -5.18333 0.545957 0
M  V30 1873 C 172.075 -5.76259 1.10194 0
M  V30 1874 C 174.427 -6.14627 1.49721 0
M  V30 1875 C 173.091 -6.43327 1.78006 0
M  V30 1876 H 172.361 -0.712944 -0.20197 0
M  V30 1877 H 175.008 -1.90582 0.18726 0
M  V30 1878 H 173.313 -3.39805 -1.95037 0
M  V30 1879 H 175.01 -3.65317 -1.65362 0
M  V30 1880 H 171.6 -4.27087 -0.359846 0
M  V30 1881 H 175.784 -4.95087 0.346842 0
M  V30 1882 H 171.04 -5.96804 1.32795 0
M  V30 1883 H 175.214 -6.66126 2.03099 0
M  V30 1884 H 172.841 -7.1695 2.52759 0
M  V30 1885 N 174.416 0.165178 -1.56732 0
M  V30 1886 C 175.832 0.517174 -1.50988 0
M  V30 1887 C 176.032 1.84331 -0.813894 0
M  V30 1888 O 175.088 2.49672 -0.37682 0
M  V30 1889 C 176.401 0.544261 -2.95733 0
M  V30 1890 C 177.949 0.631039 -3.06573 0
M  V30 1891 C 178.424 0.68896 -4.52788 0
M  V30 1892 N 179.915 0.751683 -4.5706 0
M  V30 1893 C 180.65 0.817177 -5.67547 0
M  V30 1894 N 180.146 0.843129 -6.8765 0
M  V30 1895 N 181.939 0.856668 -5.55534 0
M  V30 1896 H 174.09 -0.704318 -2.00382 0
M  V30 1897 H 176.353 -0.254687 -0.913148 0
M  V30 1898 H 176.059 -0.361607 -3.49836 0
M  V30 1899 H 175.933 1.3886 -3.5071 0
M  V30 1900 H 178.32 1.52733 -2.52501 0
M  V30 1901 H 178.401 -0.240095 -2.54671 0
M  V30 1902 H 178.045 -0.2031 -5.07494 0
M  V30 1903 H 177.975 1.57633 -5.02454 0
M  V30 1904 H 180.466 0.739661 -3.70591 0
M  V30 1905 H 180.779 0.894448 -7.67606 0
M  V30 1906 H 179.124 0.811304 -6.90248 0
M  V30 1907 H 182.315 0.833437 -4.60621 0
M  V30 1908 H 182.488 0.904247 -6.4166 0
M  V30 1909 N 175.894 1.51508 0.433938 0
M  V30 1910 C 177.142 1.6402 1.18075 0
M  V30 1911 C 177.463 0.360328 1.91642 0
M  V30 1912 O 176.733 -0.623945 1.85698 0
M  V30 1913 H 175.313 0.6045 0.43885 0
M  V30 1914 H 177.975 1.88452 0.497178 0
M  V30 1915 H 177.071 2.46949 1.90847 0
M  V30 1916 N 177.372 -0.689602 1.41712 0
M  V30 1917 C 178.62 -1.4468 1.4111 0
M  V30 1918 C 178.941 -1.94986 0.0232196 0
M  V30 1919 O 178.211 -1.72097 -0.935913 0
M  V30 1920 H 176.791 -0.536847 0.519427 0
M  V30 1921 H 179.453 -0.815825 1.77004 0
M  V30 1922 H 178.549 -2.30706 2.10193 0
M  V30 1923 N 178.85 -1.27639 -0.924453 0
M  V30 1924 C 180.098 -1.13941 -1.66918 0
M  V30 1925 C 180.419 0.314589 -1.92446 0
M  V30 1926 O 179.689 1.21964 -1.53303 0
M  V30 1927 H 178.269 -0.418678 -0.618642 0
M  V30 1928 H 180.931 -1.60213 -1.10985 0
M  V30 1929 H 180.027 -1.67094 -2.63602 0
M  V30 1930 N 180.328 1.1314 -1.09713 0
M  V30 1931 C 181.744 1.36477 -0.827423 0
M  V30 1932 C 181.944 1.93654 0.556817 0
M  V30 1933 O 181 2.15791 1.31112 0
M  V30 1934 C 182.313 2.31334 -1.92106 0
M  V30 1935 C 183.861 2.44943 -1.94864 0
M  V30 1936 C 184.336 3.4311 -3.0338 0
M  V30 1937 N 185.827 3.50662 -3.02639 0
M  V30 1938 C 186.562 4.2651 -3.83246 0
M  V30 1939 N 186.058 5.05485 -4.73768 0
M  V30 1940 N 187.851 4.2184 -3.71493 0
M  V30 1941 H 180.002 0.743807 -1.9895 0
M  V30 1942 H 182.265 0.389823 -0.864143 0
M  V30 1943 H 181.971 1.96483 -2.91698 0
M  V30 1944 H 181.845 3.31381 -1.80184 0
M  V30 1945 H 184.232 2.79079 -0.959099 0
M  V30 1946 H 184.313 1.4481 -2.10864 0
M  V30 1947 H 183.957 3.09704 -4.02549 0
M  V30 1948 H 183.887 4.43055 -2.84622 0
M  V30 1949 H 186.378 2.94315 -2.37039 0
M  V30 1950 H 186.691 5.60675 -5.3185 0
M  V30 1951 H 185.036 5.04708 -4.77802 0
M  V30 1952 H 188.227 3.5922 -3.00131 0
M  V30 1953 H 188.4 4.80697 -4.3455 0
M  V30 1954 N 181.806 0.884767 1.30421 0
M  V30 1955 C 183.031 0.517288 2.00845 0
M  V30 1956 C 183.456 -0.886779 1.65885 0
M  V30 1957 O 182.814 -1.58768 0.875354 0
M  V30 1958 C 182.862 0.698994 3.5376 0
M  V30 1959 O 181.966 -0.255208 4.1161 0
M  V30 1960 H 181.307 0.203872 0.631927 0
M  V30 1961 H 183.837 1.19225 1.66272 0
M  V30 1962 H 183.847 0.597912 4.03595 0
M  V30 1963 H 182.522 1.72271 3.78544 0
M  V30 1964 H 181.099 -0.10784 3.72744 0
M  V30 1965 N 183.284 -1.43765 0.645699 0
M  V30 1966 C 184.509 -2.06767 0.161883 0
M  V30 1967 C 184.934 -1.48034 -1.16049 0
M  V30 1968 O 184.292 -0.587369 -1.71522 0
M  V30 1969 C 184.34 -3.60519 0.0762003 0
M  V30 1970 O 183.444 -4.00982 -0.963721 0
M  V30 1971 H 182.785 -0.657675 0.091429 0
M  V30 1972 H 185.315 -1.84397 0.886499 0
M  V30 1973 H 185.325 -4.07853 -0.109604 0
M  V30 1974 H 184 -4.02646 1.04157 0
M  V30 1975 H 182.577 -3.65253 -0.751312 0
M  V30 1976 N 184.763 -0.387143 -1.52771 0
M  V30 1977 C 185.726 0.436939 -2.24997 0
M  V30 1978 C 186.726 0.991991 -1.26555 0
M  V30 1979 O 187.916 0.874335 -1.50669 0
M  V30 1980 C 185.048 1.61281 -3.00335 0
M  V30 1981 H 186.241 -0.195365 -2.99263 0
M  V30 1982 H 183.794 -0.139218 -1.55679 0
M  V30 1983 H 184.529 2.2826 -2.30364 0
M  V30 1984 H 184.314 1.22154 -3.72587 0
M  V30 1985 H 185.804 2.19629 -3.5518 0
M  V30 1986 N 186.241 1.57166 -0.116904 0
M  V30 1987 C 187.657 1.5779 0.239693 0
M  V30 1988 C 187.857 1.1295 1.66867 0
M  V30 1989 O 186.913 0.81592 2.38954 0
M  V30 1990 C 188.226 3.00699 0.00828202 0
M  V30 1991 C 189.774 3.12912 0.0743438 0
M  V30 1992 C 190.249 4.57817 -0.129348 0
M  V30 1993 N 191.74 4.63139 -0.075247 0
M  V30 1994 C 192.475 5.73023 -0.207788 0
M  V30 1995 N 191.971 6.91665 -0.396382 0
M  V30 1996 N 193.764 5.61906 -0.14751 0
M  V30 1997 H 185.915 1.84615 -1.05029 0
M  V30 1998 H 188.178 0.85311 -0.41341 0
M  V30 1999 H 187.884 3.37784 -0.979531 0
M  V30 2000 H 187.758 3.69848 0.741077 0
M  V30 2001 H 190.145 2.75686 1.05268 0
M  V30 2002 H 190.226 2.4631 -0.690297 0
M  V30 2003 H 189.87 4.95742 -1.10465 0
M  V30 2004 H 189.8 5.22507 0.655253 0
M  V30 2005 H 192.291 3.7784 0.0670898 0
M  V30 2006 H 192.604 7.71255 -0.488437 0
M  V30 2007 H 190.949 6.93654 -0.432329 0
M  V30 2008 H 194.14 4.681 -0.00115036 0
M  V30 2009 H 194.313 6.47501 -0.254247 0
M  V30 2010 N 187.719 -0.156864 1.56817 0
M  V30 2011 C 188.629 -1.2136 2.00771 0
M  V30 2012 C 189.645 -1.47598 0.921459 0
M  V30 2013 O 190.821 -1.59462 1.2302 0
M  V30 2014 C 187.886 -2.52943 2.37109 0
M  V30 2015 C 186.947 -2.34439 3.59634 0
M  V30 2016 C 186.18 -3.59748 3.94229 0
M  V30 2017 O 186.403 -4.65526 3.29609 0
M  V30 2018 O 185.337 -3.52998 4.8752 0
M  V30 2019 H 189.163 -0.870468 2.90958 0
M  V30 2020 H 186.748 -0.36484 1.44877 0
M  V30 2021 H 188.63 -3.30538 2.61386 0
M  V30 2022 H 187.305 -2.86806 1.5008 0
M  V30 2023 H 186.212 -1.54828 3.40557 0
M  V30 2024 H 187.545 -2.05496 4.4725 0
M  V30 2025 N 189.197 -1.51736 -0.425897 0
M  V30 2026 C 190.422 -1.69082 -1.20108 0
M  V30 2027 C 190.847 -0.392398 -1.83962 0
M  V30 2028 O 190.205 0.64858 -1.69302 0
M  V30 2029 C 190.253 -2.81604 -2.25237 0
M  V30 2030 O 189.357 -2.46004 -3.30992 0
M  V30 2031 H 188.698 -0.563408 -0.35138 0
M  V30 2032 H 191.228 -1.98358 -0.501512 0
M  V30 2033 H 191.238 -3.06025 -2.69838 0
M  V30 2034 H 189.913 -3.75817 -1.78142 0
M  V30 2035 H 188.49 -2.32195 -2.91787 0
M  V30 2036 N 190.675 0.682077 -1.42076 0
M  V30 2037 C 191.638 1.77756 -1.44691 0
M  V30 2038 C 192.638 1.5726 -0.335535 0
M  V30 2039 O 193.828 1.63686 -0.596037 0
M  V30 2040 C 190.96 3.16301 -1.27146 0
M  V30 2041 H 192.153 1.76826 -2.42224 0
M  V30 2042 H 189.706 0.891012 -1.28416 0
M  V30 2043 H 190.441 3.22862 -0.305075 0
M  V30 2044 H 190.226 3.32581 -2.07683 0
M  V30 2045 H 191.716 3.96241 -1.31843 0
M  V30 2046 N 192.153 1.28127 0.917671 0
M  V30 2047 C 193.402 1.14432 1.66097 0
M  V30 2048 C 193.715 -0.307247 1.93172 0
M  V30 2049 O 194.921 -0.565259 2.65551 0
M  V30 2050 C 193.377 2.00015 2.99202 0
M  V30 2051 C 192.985 3.49889 2.79789 0
M  V30 2052 C 194.729 1.94996 3.77064 0
M  V30 2053 C 192.636 4.27636 4.08511 0
M  V30 2054 H 191.566 0.424662 0.62304 0
M  V30 2055 H 194.217 1.52628 1.01868 0
M  V30 2056 H 192.599 1.54672 3.64544 0
M  V30 2057 H 193.773 4.03162 2.23152 0
M  V30 2058 H 192.088 3.56392 2.15345 0
M  V30 2059 H 194.685 2.50354 4.72469 0
M  V30 2060 H 195.028 0.925819 4.05875 0
M  V30 2061 H 195.561 2.38287 3.18534 0
M  V30 2062 H 192.3 5.30615 3.84874 0
M  V30 2063 H 191.82 3.79137 4.64774 0
M  V30 2064 H 193.499 4.37346 4.76799 0
M  V30 2065 N 193.631 -1.12557 1.10312 0
M  V30 2066 C 195.047 -1.36036 0.834649 0
M  V30 2067 C 195.247 -1.93946 -0.546539 0
M  V30 2068 O 194.303 -2.16484 -1.29966 0
M  V30 2069 C 195.616 -2.30312 1.9333 0
M  V30 2070 C 197.164 -2.43906 1.9616 0
M  V30 2071 C 197.639 -3.41496 3.05195 0
M  V30 2072 N 199.13 -3.49053 3.04494 0
M  V30 2073 C 199.865 -4.24471 3.85502 0
M  V30 2074 N 199.361 -5.02966 4.76442 0
M  V30 2075 N 201.154 -4.19864 3.73725 0
M  V30 2076 H 193.305 -0.733246 1.99342 0
M  V30 2077 H 195.568 -0.385234 0.866198 0
M  V30 2078 H 195.274 -1.94933 2.92735 0
M  V30 2079 H 195.148 -3.30421 1.81939 0
M  V30 2080 H 197.535 -2.78567 0.973886 0
M  V30 2081 H 197.616 -1.4369 2.11629 0
M  V30 2082 H 197.26 -3.07565 4.04186 0
M  V30 2083 H 197.19 -4.41539 2.86968 0
M  V30 2084 H 199.681 -2.93053 2.38596 0
M  V30 2085 H 199.994 -5.57846 5.34815 0
M  V30 2086 H 198.339 -5.02167 4.80472 0
M  V30 2087 H 201.53 -3.57623 3.02032 0
M  V30 2088 H 201.703 -4.78386 4.37093 0
M  V30 2089 N 195.109 -0.891671 -1.2995 0
M  V30 2090 C 196.355 -0.514261 -1.96171 0
M  V30 2091 C 196.688 0.935506 -1.70182 0
M  V30 2092 O 195.963 1.66204 -1.01028 0
M  V30 2093 C 196.246 -0.797719 -3.51153 0
M  V30 2094 C 196.099 -2.2986 -3.86632 0
M  V30 2095 C 197.418 -0.278749 -4.39216 0
M  V30 2096 H 194.537 -0.188314 -0.712535 0
M  V30 2097 H 197.179 -1.11689 -1.53706 0
M  V30 2098 H 195.329 -0.284826 -3.87455 0
M  V30 2099 H 197.001 -2.88042 -3.60319 0
M  V30 2100 H 195.244 -2.76257 -3.34462 0
M  V30 2101 H 195.915 -2.44753 -4.94773 0
M  V30 2102 H 198.391 -0.717825 -4.09862 0
M  V30 2103 H 197.267 -0.506353 -5.46559 0
M  V30 2104 H 197.528 0.820266 -4.34424 0
M  V30 2105 N 196.587 1.43421 -0.653314 0
M  V30 2106 C 197.55 2.29182 0.0287951 0
M  V30 2107 C 198.55 1.42213 0.750465 0
M  V30 2108 O 199.74 1.63843 0.591701 0
M  V30 2109 C 196.872 3.24278 1.05151 0
M  V30 2110 H 198.065 2.90985 -0.725786 0
M  V30 2111 H 195.618 1.50702 -0.414545 0
M  V30 2112 H 196.353 2.6737 1.83532 0
M  V30 2113 H 196.138 3.88396 0.537687 0
M  V30 2114 H 197.628 3.88647 1.52786 0
M  V30 2115 N 198.065 0.39524 1.52563 0
M  V30 2116 C 199.028 -0.425001 2.25225 0
M  V30 2117 C 200.028 -0.985266 1.27079 0
M  V30 2118 O 201.218 -0.866332 1.5113 0
M  V30 2119 C 198.35 -1.59686 3.01186 0
M  V30 2120 H 199.543 0.211233 2.99155 0
M  V30 2121 H 197.096 0.147472 1.55603 0
M  V30 2122 H 197.831 -2.27035 2.31572 0
M  V30 2123 H 197.616 -1.20176 3.73229 0
M  V30 2124 H 199.106 -2.17743 3.5634 0
M  V30 2125 N 199.544 -1.57102 0.125237 0
M  V30 2126 C 200.792 -1.95021 -0.530198 0
M  V30 2127 C 201.113 -1.00982 -1.66816 0
M  V30 2128 O 200.383 -0.0672693 -1.95784 0
M  V30 2129 H 198.963 -0.720046 -0.198853 0
M  V30 2130 H 201.625 -1.93916 0.19564 0
M  V30 2131 H 200.721 -2.98211 -0.920681 0
M  V30 2132 N 201.022 0.148545 -1.56898 0
M  V30 2133 C 201.985 1.16736 -1.97244 0
M  V30 2134 C 202.985 1.35947 -0.858777 0
M  V30 2135 O 204.175 1.32966 -1.12542 0
M  V30 2136 C 201.307 2.52798 -2.28705 0
M  V30 2137 H 202.5 0.821279 -2.88435 0
M  V30 2138 H 200.053 0.391831 -1.51309 0
M  V30 2139 H 200.788 2.92381 -1.403 0
M  V30 2140 H 200.573 2.40216 -3.09901 0
M  V30 2141 H 202.063 3.26179 -2.60762 0
M  V30 2142 N 202.5 1.5196 0.417844 0
M  V30 2143 C 203.747 1.65591 1.16559 0
M  V30 2144 C 204.075 0.381565 1.90721 0
M  V30 2145 O 203.33 -0.635156 1.85106 0
M  V30 2146 C 203.629 2.82269 2.19223 0
M  V30 2147 C 203.295 4.20819 1.61933 0
M  V30 2148 C 201.957 4.58506 1.46033 0
M  V30 2149 C 204.309 5.07196 1.20008 0
M  V30 2150 C 201.637 5.80257 0.867113 0
M  V30 2151 C 203.989 6.29544 0.621086 0
M  V30 2152 C 202.653 6.65987 0.449144 0
M  V30 2153 H 201.923 0.605939 0.42652 0
M  V30 2154 H 204.57 1.86041 0.45397 0
M  V30 2155 H 202.875 2.56118 2.96498 0
M  V30 2156 H 204.572 2.90012 2.76936 0
M  V30 2157 H 201.162 3.91116 1.7529 0
M  V30 2158 H 205.346 4.7867 1.31105 0
M  V30 2159 H 200.602 6.07124 0.721833 0
M  V30 2160 H 204.776 6.95805 0.287798 0
M  V30 2161 H 202.403 7.60199 -0.012632 0
M  V30 2162 N 203.978 -0.674533 1.42435 0
M  V30 2163 C 204.941 -1.76986 1.45632 0
M  V30 2164 C 205.941 -1.5708 0.343871 0
M  V30 2165 O 207.131 -1.63367 0.604709 0
M  V30 2166 C 204.263 -3.15623 1.28822 0
M  V30 2167 H 205.456 -1.75539 2.43158 0
M  V30 2168 H 203.009 -0.884189 1.28887 0
M  V30 2169 H 203.744 -3.22696 0.322193 0
M  V30 2170 H 203.529 -3.31475 2.09444 0
M  V30 2171 H 205.019 -3.95537 1.33942 0
M  V30 2172 N 205.456 -1.28612 -0.910864 0
M  V30 2173 C 206.403 -1.12786 -2.01365 0
M  V30 2174 C 207.373 -0.024201 -1.66082 0
M  V30 2175 O 208.558 -0.189667 -1.89855 0
M  V30 2176 C 205.698 -0.798743 -3.35729 0
M  V30 2177 C 204.811 -1.98173 -3.83864 0
M  V30 2178 C 203.946 -1.59298 -5.06752 0
M  V30 2179 C 202.985 -2.74245 -5.47226 0
M  V30 2180 N 202.122 -2.35842 -6.61304 0
M  V30 2181 H 206.962 -2.07142 -2.14234 0
M  V30 2182 H 204.499 -1.03093 -1.0493 0
M  V30 2183 H 206.457 -0.588662 -4.13026 0
M  V30 2184 H 205.087 0.10789 -3.2262 0
M  V30 2185 H 204.139 -2.30386 -3.02699 0
M  V30 2186 H 205.451 -2.84343 -4.09818 0
M  V30 2187 H 204.605 -1.34513 -5.916 0
M  V30 2188 H 203.344 -0.702618 -4.82612 0
M  V30 2189 H 202.349 -2.99725 -4.60918 0
M  V30 2190 H 203.574 -3.63928 -5.73353 0
M  V30 2191 H 201.52 -1.49279 -6.38789 0
M  V30 2192 H 201.437 -3.15546 -6.86998 0
M  V30 2193 H 202.705 -2.14348 -7.4945 0
M  V30 2194 N 206.934 1.1197 -1.10907 0
M  V30 2195 C 207.867 2.16998 -0.706192 0
M  V30 2196 C 208.845 1.59903 0.294897 0
M  V30 2197 O 210.029 1.87513 0.192636 0
M  V30 2198 C 207.156 3.38673 -0.0427664 0
M  V30 2199 C 206.202 4.14414 -1.00811 0
M  V30 2200 S 207.035 4.72079 -2.52789 0
M  V30 2201 C 208.191 5.97083 -1.87731 0
M  V30 2202 H 208.424 2.50837 -1.59587 0
M  V30 2203 H 205.957 1.23508 -0.926555 0
M  V30 2204 H 207.915 4.09142 0.333668 0
M  V30 2205 H 206.576 3.03105 0.823788 0
M  V30 2206 H 205.769 5.016 -0.491259 0
M  V30 2207 H 205.371 3.49678 -1.3267 0
M  V30 2208 H 207.663 6.66599 -1.21044 0
M  V30 2209 H 208.606 6.53403 -2.72892 0
M  V30 2210 H 209.014 5.4837 -1.33979 0
M  V30 2211 N 208.412 0.89855 1.29475 0
M  V30 2212 C 209.342 0.39201 2.30186 0
M  V30 2213 C 210.323 -0.532359 1.61555 0
M  V30 2214 O 211.508 -0.443331 1.89072 0
M  V30 2215 C 208.638 -0.382353 3.45189 0
M  V30 2216 C 207.592 0.451483 4.25612 0
M  V30 2217 C 206.918 -0.450307 5.328 0
M  V30 2218 C 208.218 1.70079 4.93832 0
M  V30 2219 H 209.912 1.23362 2.72804 0
M  V30 2220 H 207.458 0.594638 1.31149 0
M  V30 2221 H 209.411 -0.747451 4.14718 0
M  V30 2222 H 208.135 -1.25774 3.01411 0
M  V30 2223 H 206.794 0.798897 3.57789 0
M  V30 2224 H 206.442 -1.32379 4.85268 0
M  V30 2225 H 206.142 0.103902 5.87508 0
M  V30 2226 H 207.666 -0.811623 6.05182 0
M  V30 2227 H 209.08 1.40549 5.55805 0
M  V30 2228 H 207.477 2.19623 5.58467 0
M  V30 2229 H 208.547 2.43744 4.19186 0
M  V30 2230 N 209.89 -1.43072 0.660911 0
M  V30 2231 C 210.82 -2.33497 -0.0122829 0
M  V30 2232 C 211.801 -1.49903 -0.803925 0
M  V30 2233 O 212.986 -1.78546 -0.763864 0
M  V30 2234 C 210.116 -3.33363 -0.973994 0
M  V30 2235 C 209.07 -4.27003 -0.291928 0
M  V30 2236 C 208.396 -5.16967 -1.36562 0
M  V30 2237 C 209.696 -5.15816 0.820462 0
M  V30 2238 H 211.39 -2.90038 0.742873 0
M  V30 2239 H 208.936 -1.39461 0.358688 0
M  V30 2240 H 210.889 -3.95524 -1.45392 0
M  V30 2241 H 209.613 -2.75095 -1.7604 0
M  V30 2242 H 208.272 -3.66217 0.167623 0
M  V30 2243 H 207.92 -4.55034 -2.14366 0
M  V30 2244 H 207.62 -5.80441 -0.914454 0
M  V30 2245 H 209.144 -5.82003 -1.84675 0
M  V30 2246 H 210.558 -5.71742 0.422366 0
M  V30 2247 H 208.955 -5.8805 1.19656 0
M  V30 2248 H 210.025 -4.55045 1.67518 0
M  V30 2249 N 211.368 -0.403325 -1.52352 0
M  V30 2250 C 212.784 -0.0539281 -1.59509 0
M  V30 2251 C 212.984 1.43307 -1.41652 0
M  V30 2252 O 212.04 2.19924 -1.24056 0
M  V30 2253 C 213.353 -0.543654 -2.95745 0
M  V30 2254 C 214.901 -0.501125 -3.08962 0
M  V30 2255 C 215.376 -0.967267 -4.47669 0
M  V30 2256 N 216.867 -0.923849 -4.53893 0
M  V30 2257 C 217.602 -1.25578 -5.5948 0
M  V30 2258 N 217.098 -1.65889 -6.72646 0
M  V30 2259 N 218.891 -1.17613 -5.49658 0
M  V30 2260 H 211.042 -1.37123 -1.62206 0
M  V30 2261 H 213.305 -0.56294 -0.76276 0
M  V30 2262 H 213.011 -1.58275 -3.14073 0
M  V30 2263 H 212.885 0.0498042 -3.77167 0
M  V30 2264 H 215.272 0.528909 -2.90321 0
M  V30 2265 H 215.353 -1.13056 -2.2946 0
M  V30 2266 H 214.997 -1.9956 -4.67053 0
M  V30 2267 H 214.927 -0.314698 -5.25659 0
M  V30 2268 H 217.418 -0.627403 -3.72655 0
M  V30 2269 H 217.731 -1.89543 -7.49195 0
M  V30 2270 H 216.076 -1.69787 -6.73942 0
M  V30 2271 H 219.267 -0.860115 -4.6013 0
M  V30 2272 H 219.44 -1.43812 -6.3184 0
M  V30 2273 N 212.846 1.57033 -0.133567 0
M  V30 2274 C 213.756 2.19632 0.824564 0
M  V30 2275 C 214.772 1.17666 1.28182 0
M  V30 2276 O 215.948 1.50193 1.3418 0
M  V30 2277 C 213.013 2.79499 2.05137 0
M  V30 2278 C 212.074 3.96548 1.64464 0
M  V30 2279 C 211.307 4.5355 2.81297 0
M  V30 2280 O 211.53 4.09438 3.97136 0
M  V30 2281 O 210.464 5.44018 2.57542 0
M  V30 2282 H 214.29 3.01991 0.321766 0
M  V30 2283 H 211.875 1.49112 0.0927889 0
M  V30 2284 H 213.757 3.17602 2.7696 0
M  V30 2285 H 212.432 2.00162 2.54395 0
M  V30 2286 H 211.339 3.63186 0.897048 0
M  V30 2287 H 212.672 4.77364 1.19934 0
M  V30 2288 N 214.325 -0.140222 1.56975 0
M  V30 2289 C 215.574 -0.850152 1.82908 0
M  V30 2290 C 215.887 -1.82028 0.715892 0
M  V30 2291 O 217.093 -2.57485 0.861016 0
M  V30 2292 C 215.549 -1.5625 3.24213 0
M  V30 2293 C 215.157 -0.63443 4.43485 0
M  V30 2294 C 216.901 -2.25881 3.59413 0
M  V30 2295 C 214.808 -1.34879 5.75814 0
M  V30 2296 H 213.738 -0.321221 0.682153 0
M  V30 2297 H 216.389 -0.102874 1.83211 0
M  V30 2298 H 214.771 -2.35565 3.18316 0
M  V30 2299 H 215.945 0.12398 4.60633 0
M  V30 2300 H 214.26 -0.0461836 4.16374 0
M  V30 2301 H 216.857 -2.79978 4.5554 0
M  V30 2302 H 217.2 -3.02693 2.85802 0
M  V30 2303 H 217.733 -1.53477 3.67001 0
M  V30 2304 H 214.472 -0.622385 6.52539 0
M  V30 2305 H 213.992 -2.07974 5.6259 0
M  V30 2306 H 215.671 -1.88784 6.18845 0
M  V30 2307 N 215.803 -1.52179 -0.40978 0
M  V30 2308 C 217.051 -1.65878 -1.15451 0
M  V30 2309 C 217.372 -0.390771 -1.91044 0
M  V30 2310 O 216.642 0.594323 -1.86667 0
M  V30 2311 H 215.222 -0.611405 -0.429177 0
M  V30 2312 H 217.884 -1.89219 -0.467134 0
M  V30 2313 H 216.98 -2.49954 -1.86894 0
M  V30 2314 N 217.281 0.66697 -1.42791 0
M  V30 2315 C 218.53 1.42278 -1.42968 0
M  V30 2316 C 218.843 1.9553 -0.0524489 0
M  V30 2317 O 220.049 2.71414 0.068363 0
M  V30 2318 C 218.505 2.57418 -2.51524 0
M  V30 2319 C 218.113 2.10832 -3.9529 0
M  V30 2320 C 219.857 3.34878 -2.60877 0
M  V30 2321 C 217.764 3.23101 -4.95338 0
M  V30 2322 H 216.694 0.534533 -0.531781 0
M  V30 2323 H 219.345 0.721302 -1.68729 0
M  V30 2324 H 217.727 3.29971 -2.18941 0
M  V30 2325 H 218.901 1.4538 -4.37266 0
M  V30 2326 H 217.216 1.46289 -3.89857 0
M  V30 2327 H 219.813 4.18505 -3.32802 0
M  V30 2328 H 220.156 3.81993 -1.6549 0
M  V30 2329 H 220.689 2.69398 -2.92693 0
M  V30 2330 H 217.428 2.80969 -5.9223 0
M  V30 2331 H 216.948 3.87309 -4.57987 0
M  V30 2332 H 218.627 3.88447 -5.17415 0
M  V30 2333 N 218.759 1.29093 0.90403 0
M  V30 2334 C 220.005 1.16986 1.65656 0
M  V30 2335 C 220.338 -0.278925 1.92186 0
M  V30 2336 O 219.613 -1.2019 1.5292 0
M  V30 2337 C 219.896 1.97908 3.0084 0
M  V30 2338 C 219.749 3.50903 2.81403 0
M  V30 2339 C 221.068 1.80208 4.01513 0
M  V30 2340 H 218.187 0.426346 0.601164 0
M  V30 2341 H 220.829 1.58518 1.04747 0
M  V30 2342 H 218.979 1.62616 3.52829 0
M  V30 2343 H 220.651 3.96153 2.36348 0
M  V30 2344 H 218.894 3.76045 2.1627 0
M  V30 2345 H 219.565 4.02791 3.77443 0
M  V30 2346 H 222.041 2.11025 3.58619 0
M  V30 2347 H 220.917 2.39184 4.94047 0
M  V30 2348 H 221.178 0.756119 4.35586 0
M  V30 2349 N 220.237 -1.11381 1.11499 0
M  V30 2350 C 221.477 -1.84763 0.874188 0
M  V30 2351 C 221.841 -1.82726 -0.589496 0
M  V30 2352 O 223.042 -2.51562 -0.947089 0
M  V30 2353 C 221.313 -3.27931 1.42112 0
M  V30 2354 S 222.872 -4.18557 1.31739 0
M  V30 2355 H 219.69 -0.637115 0.315603 0
M  V30 2356 H 222.292 -1.34097 1.42261 0
M  V30 2357 H 220.996 -3.26978 2.48019 0
M  V30 2358 H 220.527 -3.83665 0.869761 0
M  V30 2359 H 222.542 -4.95396 0.282335 0
M  V30 2360 N 221.715 -0.905404 -1.28997 0
M  V30 2361 C 222.625 -0.392246 -2.31298 0
M  V30 2362 C 223.641 0.515889 -1.66176 0
M  V30 2363 O 224.817 0.404093 -1.97304 0
M  V30 2364 C 221.882 0.36686 -3.44754 0
M  V30 2365 C 220.943 -0.573485 -4.25452 0
M  V30 2366 C 220.176 0.149488 -5.33491 0
M  V30 2367 O 220.399 1.37255 -5.5364 0
M  V30 2368 O 219.333 -0.510919 -5.99728 0
M  V30 2369 H 223.159 -1.2411 -2.77183 0
M  V30 2370 H 220.744 -0.669926 -1.33538 0
M  V30 2371 H 222.626 0.795907 -4.13816 0
M  V30 2372 H 221.301 1.19169 -3.00966 0
M  V30 2373 H 220.208 -1.05176 -3.59011 0
M  V30 2374 H 221.541 -1.36489 -4.72897 0
M  V30 2375 N 223.193 1.4272 -0.668489 0
M  V30 2376 C 224.418 2.06484 -0.194758 0
M  V30 2377 C 224.843 1.49862 1.13679 0
M  V30 2378 O 224.201 0.614582 1.70565 0
M  V30 2379 C 224.249 3.60353 -0.133546 0
M  V30 2380 O 223.353 4.02464 0.899806 0
M  V30 2381 H 222.694 0.656137 -0.10188 0
M  V30 2382 H 225.224 1.82964 -0.915722 0
M  V30 2383 H 225.234 4.07976 0.0447041 0
M  V30 2384 H 223.909 4.00938 -1.1055 0
M  V30 2385 H 222.486 3.66402 0.693109 0
M  V30 2386 N 224.671 0.411399 1.52136 0
M  V30 2387 C 225.919 -0.163322 2.01439 0
M  V30 2388 C 226.24 -1.45453 1.29879 0
M  V30 2389 O 225.51 -1.91225 0.4254 0
M  V30 2390 H 224.09 -0.0633447 0.744309 0
M  V30 2391 H 226.752 0.548161 1.87033 0
M  V30 2392 H 225.848 -0.357817 3.10042 0
M  V30 2393 N 226.149 -1.5696 0.141893 0
M  V30 2394 C 227.398 -1.95135 -0.510427 0
M  V30 2395 C 227.711 -1.02896 -1.66348 0
M  V30 2396 O 228.917 -1.30629 -2.38009 0
M  V30 2397 C 227.373 -3.46876 -0.959427 0
M  V30 2398 C 226.981 -4.47691 0.166419 0
M  V30 2399 C 228.725 -3.93927 -1.58183 0
M  V30 2400 C 226.632 -5.90636 -0.300565 0
M  V30 2401 H 225.562 -0.728494 -0.194454 0
M  V30 2402 H 228.213 -1.8211 0.22542 0
M  V30 2403 H 226.595 -3.55215 -1.75038 0
M  V30 2404 H 227.769 -4.51043 0.94325 0
M  V30 2405 H 226.084 -4.10527 0.696905 0
M  V30 2406 H 228.681 -4.98158 -1.94275 0
M  V30 2407 H 229.024 -3.3519 -2.46888 0
M  V30 2408 H 229.557 -3.88484 -0.855863 0
M  V30 2409 H 226.296 -6.5318 0.550989 0
M  V30 2410 H 225.816 -5.90655 -1.04338 0
M  V30 2411 H 227.495 -6.42588 -0.754265 0
M  V30 2412 N 227.627 0.131896 -1.57047 0
M  V30 2413 C 228.876 0.84044 -1.83356 0
M  V30 2414 C 229.189 1.81646 -0.725535 0
M  V30 2415 O 230.395 2.57025 -0.874659 0
M  V30 2416 C 228.851 1.54528 -3.25037 0
M  V30 2417 C 228.459 0.610902 -4.43815 0
M  V30 2418 C 230.203 2.23972 -3.60606 0
M  V30 2419 C 228.11 1.31823 -5.76521 0
M  V30 2420 H 227.04 0.317599 -0.683847 0
M  V30 2421 H 229.691 0.0931561 -1.83263 0
M  V30 2422 H 228.073 2.33873 -3.19561 0
M  V30 2423 H 229.247 -0.148407 -4.60561 0
M  V30 2424 H 227.562 0.0241016 -4.16393 0
M  V30 2425 H 230.159 2.77558 -4.57018 0
M  V30 2426 H 230.502 3.01173 -2.87403 0
M  V30 2427 H 231.035 1.51529 -3.6781 0
M  V30 2428 H 227.774 0.587771 -6.52859 0
M  V30 2429 H 227.294 2.04987 -5.63685 0
M  V30 2430 H 228.973 1.855 -6.19838 0
M  V30 2431 N 229.106 1.52395 0.401703 0
M  V30 2432 C 230.016 1.7917 1.51444 0
M  V30 2433 C 231.032 0.677691 1.6026 0
M  V30 2434 O 232.208 0.963909 1.76835 0
M  V30 2435 C 229.273 1.94347 2.87107 0
M  V30 2436 C 228.334 3.18257 2.88116 0
M  V30 2437 C 227.567 3.32701 4.17308 0
M  V30 2438 O 227.79 2.52238 5.11598 0
M  V30 2439 O 226.724 4.25891 4.25324 0
M  V30 2440 H 230.55 2.73633 1.31752 0
M  V30 2441 H 228.135 1.3733 0.588296 0
M  V30 2442 H 230.017 2.06109 3.67555 0
M  V30 2443 H 228.692 1.03073 3.06851 0
M  V30 2444 H 227.599 3.11947 2.06494 0
M  V30 2445 H 228.932 4.09336 2.73322 0
M  V30 2446 N 230.584 -0.659388 1.43143 0
M  V30 2447 C 231.833 -1.41518 1.43721 0
M  V30 2448 C 232.146 -1.95499 0.0628176 0
M  V30 2449 O 233.352 -2.71446 -0.0539683 0
M  V30 2450 C 231.808 -2.5608 2.52885 0
M  V30 2451 C 231.416 -2.08733 3.96402 0
M  V30 2452 C 233.16 -3.3349 2.62649 0
M  V30 2453 C 231.067 -3.20469 4.97045 0
M  V30 2454 H 229.997 -0.531705 0.534608 0
M  V30 2455 H 232.648 -0.712343 1.69109 0
M  V30 2456 H 231.03 -3.28805 2.20688 0
M  V30 2457 H 232.204 -1.43059 4.3803 0
M  V30 2458 H 230.519 -1.44219 3.90627 0
M  V30 2459 H 233.116 -4.16734 3.35017 0
M  V30 2460 H 233.459 -3.8111 1.67513 0
M  V30 2461 H 233.992 -2.67842 2.94118 0
M  V30 2462 H 230.731 -2.77824 5.93712 0
M  V30 2463 H 230.251 -3.84874 4.60034 0
M  V30 2464 H 231.93 -3.85698 5.19467 0
M  V30 2465 N 232.062 -1.29571 -0.897171 0
M  V30 2466 C 233.31 -1.17456 -1.64464 0
M  V30 2467 C 233.631 0.273698 -1.9307 0
M  V30 2468 O 232.901 1.18684 -1.55855 0
M  V30 2469 H 231.481 -0.431706 -0.609622 0
M  V30 2470 H 234.143 -1.62531 -1.07562 0
M  V30 2471 H 233.239 -1.72648 -2.59998 0
M  V30 2472 N 233.54 1.10788 -1.12088 0
M  V30 2473 C 234.788 1.8231 -0.872205 0
M  V30 2474 C 235.109 1.85419 0.603709 0
M  V30 2475 O 234.379 1.32963 1.43867 0
M  V30 2476 H 232.959 0.675137 -0.319686 0
M  V30 2477 H 235.621 1.34068 -1.41463 0
M  V30 2478 H 234.717 2.85955 -1.25045 0
M  V30 2479 N 235.018 0.912232 1.28515 0
M  V30 2480 C 236.267 0.540504 1.94323 0
M  V30 2481 C 236.58 -0.920044 1.72611 0
M  V30 2482 O 237.786 -1.39986 2.32629 0
M  V30 2483 C 236.242 0.915803 3.48053 0
M  V30 2484 C 235.85 2.39598 3.78546 0
M  V30 2485 C 237.594 0.614588 4.20027 0
M  V30 2486 C 235.501 2.71148 5.25578 0
M  V30 2487 H 234.431 0.198418 0.727424 0
M  V30 2488 H 237.082 1.11094 1.46049 0
M  V30 2489 H 235.464 0.274168 3.9505 0
M  V30 2490 H 236.638 3.08422 3.42364 0
M  V30 2491 H 234.953 2.66749 3.1974 0
M  V30 2492 H 237.55 0.827002 5.28266 0
M  V30 2493 H 237.893 -0.447531 4.13887 0
M  V30 2494 H 238.426 1.21462 3.78803 0
M  V30 2495 H 235.165 3.76207 5.36794 0
M  V30 2496 H 234.685 2.0696 5.62963 0
M  V30 2497 H 236.364 2.58072 5.93302 0
M  V30 2498 N 236.496 -1.42363 0.676048 0
M  V30 2499 C 237.443 -2.308 -0.00150904 0
M  V30 2500 C 238.413 -1.46032 -0.791444 0
M  V30 2501 O 239.598 -1.74861 -0.76344 0
M  V30 2502 C 236.738 -3.31883 -0.945919 0
M  V30 2503 C 235.851 -4.31741 -0.149675 0
M  V30 2504 C 234.986 -5.19898 -1.08995 0
M  V30 2505 C 234.025 -6.11434 -0.285465 0
M  V30 2506 N 233.162 -6.92138 -1.17851 0
M  V30 2507 H 238.002 -2.88187 0.758455 0
M  V30 2508 H 235.539 -1.41952 0.38576 0
M  V30 2509 H 237.497 -3.89019 -1.50731 0
M  V30 2510 H 236.127 -2.76093 -1.6725 0
M  V30 2511 H 235.179 -3.76713 0.528359 0
M  V30 2512 H 236.491 -4.96534 0.474866 0
M  V30 2513 H 235.645 -5.81772 -1.72123 0
M  V30 2514 H 234.384 -4.55284 -1.74837 0
M  V30 2515 H 233.389 -5.48627 0.359018 0
M  V30 2516 H 234.614 -6.78097 0.368883 0
M  V30 2517 H 232.56 -6.30152 -1.82332 0
M  V30 2518 H 232.477 -7.53542 -0.609082 0
M  V30 2519 H 233.745 -7.58499 -1.79722 0
M  V30 2520 N 237.974 -0.419461 -1.51915 0
M  V30 2521 C 238.937 0.389116 -2.25873 0
M  V30 2522 C 239.937 0.964924 -1.28631 0
M  V30 2523 O 241.127 0.842179 -1.52489 0
M  V30 2524 C 238.259 1.54874 -3.03689 0
M  V30 2525 H 239.452 -0.258799 -2.98781 0
M  V30 2526 H 237.005 -0.172209 -1.55348 0
M  V30 2527 H 237.74 2.23323 -2.35154 0
M  V30 2528 H 237.525 1.14223 -3.75094 0
M  V30 2529 H 239.015 2.12046 -3.59759 0
M  V30 2530 N 239.452 1.56882 -0.150215 0
M  V30 2531 C 240.399 2.16922 0.788244 0
M  V30 2532 C 241.369 1.10303 1.24187 0
M  V30 2533 O 242.554 1.38359 1.31383 0
M  V30 2534 C 239.694 2.79754 2.02068 0
M  V30 2535 C 238.807 4.00775 1.61257 0
M  V30 2536 C 237.942 4.51595 2.79705 0
M  V30 2537 C 236.981 5.65074 2.35282 0
M  V30 2538 N 236.118 6.10499 3.4675 0
M  V30 2539 H 240.958 2.96779 0.269444 0
M  V30 2540 H 238.495 1.46599 0.12128 0
M  V30 2541 H 240.453 3.14329 2.74323 0
M  V30 2542 H 239.083 2.02536 2.51354 0
M  V30 2543 H 238.135 3.72158 0.787553 0
M  V30 2544 H 239.447 4.82978 1.24633 0
M  V30 2545 H 238.601 4.88242 3.60145 0
M  V30 2546 H 237.34 3.68406 3.19576 0
M  V30 2547 H 236.345 5.28 1.53283 0
M  V30 2548 H 237.57 6.50052 1.96493 0
M  V30 2549 H 235.516 5.30243 3.86236 0
M  V30 2550 H 235.433 6.87637 3.14152 0
M  V30 2551 H 236.701 6.51791 4.27537 0
M  V30 2552 N 240.93 -0.123565 1.57115 0
M  V30 2553 C 241.878 -1.17082 2.00984 0
M  V30 2554 C 242.872 -1.43136 0.906009 0
M  V30 2555 O 244.078 -1.43152 1.09121 0
M  V30 2556 H 240.453 -0.394653 0.64012 0
M  V30 2557 H 242.424 -0.774292 2.88179 0
M  V30 2558 C 241.173 -2.49057 2.42623 0
M  V30 2559 H 240.496 -2.29846 3.27125 0
M  V30 2560 H 241.936 -3.20906 2.7712 0
M  V30 2561 C 240.395 -3.11305 1.28805 0
M  V30 2562 O 240.925 -3.97171 0.60153 0
M  V30 2563 N 239.131 -2.71111 1.04628 0
M  V30 2564 H 238.678 -2.01382 1.60634 0
M  V30 2565 H 238.636 -3.1309 0.286685 0
M  V30 2566 N 242.408 -1.52605 -0.393616 0
M  V30 2567 C 243.638 -1.71046 -1.15874 0
M  V30 2568 C 244.046 -0.426483 -1.84331 0
M  V30 2569 O 243.389 0.608513 -1.73329 0
M  V30 2570 C 243.451 -2.80118 -2.25332 0
M  V30 2571 C 243.115 -4.21381 -1.76881 0
M  V30 2572 C 244.112 -5.04697 -1.24808 0
M  V30 2573 C 241.797 -4.67683 -1.83244 0
M  V30 2574 C 243.791 -6.32393 -0.797387 0
M  V30 2575 C 241.478 -5.95364 -1.37787 0
M  V30 2576 C 242.476 -6.77549 -0.861208 0
M  V30 2577 O 242.164 -8.02837 -0.413252 0
M  V30 2578 H 241.896 -0.576155 -0.353583 0
M  V30 2579 H 244.45 -2.00018 -0.467123 0
M  V30 2580 H 242.68 -2.46557 -2.97904 0
M  V30 2581 H 244.369 -2.87006 -2.87023 0
M  V30 2582 H 245.135 -4.70111 -1.19252 0
M  V30 2583 H 241.014 -4.03805 -2.22401 0
M  V30 2584 H 244.558 -6.9649 -0.393437 0
M  V30 2585 H 240.455 -6.29455 -1.43026 0
M  V30 2586 H 241.223 -8.16749 -0.53515 0
M  V30 2587 N 243.887 0.651787 -1.4349 0
M  V30 2588 C 245.164 1.40909 -1.35661 0
M  V30 2589 C 245.544 2.11099 -0.00511733 0
M  V30 2590 O 244.892 2.04892 1.0115 0
M  V30 2591 C 245.102 2.3926 -2.54078 0
M  V30 2592 C 246.45 3.03217 -2.97228 0
M  V30 2593 O 247.474 2.49588 -2.54135 0
M  V30 2594 O 246.333 4.00455 -3.71885 0
M  V30 2595 H 243.427 0.629625 -0.536191 0
M  V30 2596 H 245.973 0.678575 -1.55542 0
M  V30 2597 H 244.745 1.86352 -3.44076 0
M  V30 2598 H 244.368 3.1976 -2.36303 0
M  V30 2599 N 245.365 1.30045 0.890287 0
M  V30 2600 C 246.612 1.18561 1.64163 0
M  V30 2601 C 246.94 -0.260852 1.92743 0
M  V30 2602 O 246.195 -1.20376 1.54299 0
M  V30 2603 C 246.494 1.95409 2.99249 0
M  V30 2604 C 246.16 3.45066 2.90242 0
M  V30 2605 C 244.822 3.85878 2.87492 0
M  V30 2606 C 247.174 4.4039 2.78758 0
M  V30 2607 C 244.502 5.20314 2.7109 0
M  V30 2608 C 246.854 5.74928 2.63894 0
M  V30 2609 C 245.518 6.14986 2.59516 0
M  V30 2610 H 244.788 0.433846 0.600715 0
M  V30 2611 H 247.435 1.61088 1.03552 0
M  V30 2612 H 245.74 1.45501 3.63781 0
M  V30 2613 H 247.437 1.8392 3.56334 0
M  V30 2614 H 244.027 3.12631 2.93189 0
M  V30 2615 H 248.211 4.09806 2.79952 0
M  V30 2616 H 243.467 5.50449 2.66112 0
M  V30 2617 H 247.641 6.48434 2.53981 0
M  V30 2618 H 245.268 7.19104 2.46565 0
M  V30 2619 N 246.843 -1.10192 1.12674 0
M  V30 2620 C 247.791 -2.18694 0.792196 0
M  V30 2621 C 248.785 -1.67938 -0.222058 0
M  V30 2622 O 249.991 -1.79822 -0.0800074 0
M  V30 2623 H 246.366 -0.713223 0.238364 0
M  V30 2624 H 248.337 -2.44149 1.71564 0
M  V30 2625 C 247.086 -3.46682 0.265859 0
M  V30 2626 H 246.409 -3.86101 1.03761 0
M  V30 2627 H 247.849 -4.23942 0.0701128 0
M  V30 2628 C 246.308 -3.21506 -1.00675 0
M  V30 2629 O 246.838 -3.43408 -2.08408 0
M  V30 2630 N 245.044 -2.75158 -0.934692 0
M  V30 2631 H 244.591 -2.57535 -0.0578604 0
M  V30 2632 H 244.549 -2.58691 -1.7868 0
M  V30 2633 N 248.321 -0.919034 -1.28029 0
M  V30 2634 C 249.271 -0.382574 -2.24767 0
M  V30 2635 C 250.255 0.508286 -1.52661 0
M  V30 2636 O 251.447 0.347145 -1.73562 0
M  V30 2637 C 248.576 0.371432 -3.41285 0
M  V30 2638 C 247.662 -0.535449 -4.20706 0
M  V30 2639 N 248.053 -1.65141 -4.78082 0
M  V30 2640 C 246.351 -0.336824 -4.44726 0
M  V30 2641 C 247.052 -2.21475 -5.37888 0
M  V30 2642 N 246.028 -1.50537 -5.22341 0
M  V30 2643 H 249.83 -1.23477 -2.66703 0
M  V30 2644 H 247.344 -0.772299 -1.42861 0
M  V30 2645 H 249.341 0.772638 -4.09678 0
M  V30 2646 H 248.001 1.22066 -3.00882 0
M  V30 2647 H 249.012 -2.03392 -4.7629 0
M  V30 2648 H 245.689 0.47246 -4.14818 0
M  V30 2649 H 247.079 -3.15379 -5.93284 0
M  V30 2650 N 249.799 1.42003 -0.683588 0
M  V30 2651 C 250.762 2.29191 -0.0198243 0
M  V30 2652 C 251.762 1.43773 0.72013 0
M  V30 2653 O 252.952 1.65061 0.556815 0
M  V30 2654 C 250.084 3.26435 0.982487 0
M  V30 2655 H 251.277 2.8938 -0.787345 0
M  V30 2656 H 248.83 1.49789 -0.446418 0
M  V30 2657 H 249.565 2.71203 1.77819 0
M  V30 2658 H 249.35 3.89449 0.455182 0
M  V30 2659 H 250.84 3.918 1.44508 0
M  V30 2660 N 251.277 0.427512 1.51691 0
M  V30 2661 C 252.207 -0.3796 2.30394 0
M  V30 2662 C 253.188 -1.02982 1.35384 0
M  V30 2663 O 254.373 -1.03534 1.643 0
M  V30 2664 C 251.503 -1.48649 3.1388 0
M  V30 2665 C 250.457 -0.960294 4.17088 0
M  V30 2666 C 249.783 -2.16219 4.89033 0
M  V30 2667 C 251.083 -0.00153679 5.223 0
M  V30 2668 H 252.777 0.277164 2.98114 0
M  V30 2669 H 250.323 0.134739 1.43368 0
M  V30 2670 H 252.276 -2.05826 3.67714 0
M  V30 2671 H 251 -2.1714 2.43962 0
M  V30 2672 H 249.659 -0.410806 3.64291 0
M  V30 2673 H 249.307 -2.83307 4.15628 0
M  V30 2674 H 249.007 -1.81654 5.58816 0
M  V30 2675 H 250.531 -2.73968 5.45687 0
M  V30 2676 H 251.945 -0.482687 5.71264 0
M  V30 2677 H 250.342 0.256199 5.99553 0
M  V30 2678 H 251.412 0.938174 4.75738 0
M  V30 2679 N 252.755 -1.56801 0.158532 0
M  V30 2680 C 253.702 -2.17337 -0.776729 0
M  V30 2681 C 254.672 -1.1096 -1.23601 0
M  V30 2682 O 255.857 -1.39054 -1.30647 0
M  V30 2683 C 252.997 -2.80822 -2.00582 0
M  V30 2684 C 252.11 -4.01624 -1.59129 0
M  V30 2685 C 251.245 -4.53072 -2.77306 0
M  V30 2686 C 250.284 -5.66314 -2.32282 0
M  V30 2687 N 249.421 -6.12329 -3.43508 0
M  V30 2688 H 254.261 -2.96918 -0.253701 0
M  V30 2689 H 251.798 -1.46661 -0.113504 0
M  V30 2690 H 253.756 -3.15779 -2.72652 0
M  V30 2691 H 252.386 -2.03866 -2.50277 0
M  V30 2692 H 251.438 -3.72571 -0.767806 0
M  V30 2693 H 252.75 -4.83633 -1.2207 0
M  V30 2694 H 251.904 -4.90145 -3.57551 0
M  V30 2695 H 250.643 -3.70095 -3.17617 0
M  V30 2696 H 249.648 -5.28806 -1.5048 0
M  V30 2697 H 250.873 -6.51085 -1.93043 0
M  V30 2698 H 248.819 -5.32284 -3.83418 0
M  V30 2699 H 248.736 -6.89293 -3.105 0
M  V30 2700 H 250.004 -6.5405 -4.24075 0
M  V30 2701 N 254.233 0.115231 -1.57178 0
M  V30 2702 C 255.458 0.840354 -1.89612 0
M  V30 2703 C 255.883 1.72464 -0.750845 0
M  V30 2704 O 255.241 1.78826 0.298478 0
M  V30 2705 C 255.289 1.64654 -3.20814 0
M  V30 2706 O 254.393 2.7538 -3.06985 0
M  V30 2707 H 253.734 0.232158 -0.622092 0
M  V30 2708 H 256.264 0.0964977 -2.04372 0
M  V30 2709 H 256.274 2.03499 -3.53627 0
M  V30 2710 H 254.949 0.997416 -4.03763 0
M  V30 2711 H 253.526 2.3971 -2.85646 0
M  V30 2712 N 255.711 1.52812 0.385517 0
M  V30 2713 C 256.621 1.80766 1.49535 0
M  V30 2714 C 257.637 0.694651 1.59532 0
M  V30 2715 O 258.813 0.982611 1.75803 0
M  V30 2716 C 255.878 1.97381 2.85029 0
M  V30 2717 C 254.939 3.21295 2.84724 0
M  V30 2718 C 254.172 3.37108 4.13756 0
M  V30 2719 O 254.395 2.5765 5.08893 0
M  V30 2720 O 253.329 4.30378 4.20783 0
M  V30 2721 H 257.155 2.75015 1.28842 0
M  V30 2722 H 254.74 1.37946 0.573697 0
M  V30 2723 H 256.622 2.09996 3.65349 0
M  V30 2724 H 255.297 1.06322 3.05741 0
M  V30 2725 H 254.204 3.1412 2.03174 0
M  V30 2726 H 255.537 4.12212 2.68965 0
M  V30 2727 N 257.189 -0.644168 1.43834 0
M  V30 2728 C 258.438 -1.39985 1.45214 0
M  V30 2729 C 258.751 -1.95421 0.0835494 0
M  V30 2730 O 259.957 -2.71488 -0.0251748 0
M  V30 2731 C 258.413 -2.53384 2.55587 0
M  V30 2732 C 258.021 -2.04517 3.98594 0
M  V30 2733 C 259.765 -3.30685 2.66172 0
M  V30 2734 C 257.672 -3.1518 5.00416 0
M  V30 2735 H 256.602 -0.526005 0.540218 0
M  V30 2736 H 259.253 -0.694367 1.69855 0
M  V30 2737 H 257.635 -3.26446 2.24163 0
M  V30 2738 H 258.809 -1.38405 4.39523 0
M  V30 2739 H 257.124 -1.40068 3.92135 0
M  V30 2740 H 259.721 -4.13158 3.39418 0
M  V30 2741 H 260.064 -3.79312 1.71546 0
M  V30 2742 H 260.597 -2.64708 2.96942 0
M  V30 2743 H 257.336 -2.71511 5.96625 0
M  V30 2744 H 256.856 -3.79974 4.64091 0
M  V30 2745 H 258.535 -3.80166 5.23529 0
M  V30 2746 N 258.668 -1.30515 -0.883378 0
M  V30 2747 C 259.915 -1.1943 -1.63532 0
M  V30 2748 C 260.243 0.250627 -1.92878 0
M  V30 2749 O 259.498 1.19556 -1.54935 0
M  V30 2750 C 259.797 -1.96994 -2.98209 0
M  V30 2751 C 259.463 -3.466 -2.88408 0
M  V30 2752 C 258.125 -3.87397 -2.85442 0
M  V30 2753 C 260.477 -4.41863 -2.76418 0
M  V30 2754 C 257.805 -5.21745 -2.68327 0
M  V30 2755 C 260.157 -5.7632 -2.60841 0
M  V30 2756 C 258.821 -6.16354 -2.56251 0
M  V30 2757 H 258.091 -0.437025 -0.598406 0
M  V30 2758 H 260.738 -1.61635 -1.02696 0
M  V30 2759 H 259.043 -1.47429 -3.63004 0
M  V30 2760 H 260.74 -1.85808 -3.55354 0
M  V30 2761 H 257.33 -3.14182 -2.91527 0
M  V30 2762 H 261.514 -4.11285 -2.77775 0
M  V30 2763 H 256.77 -5.51853 -2.63189 0
M  V30 2764 H 260.944 -6.49772 -2.50538 0
M  V30 2765 H 258.571 -7.20401 -2.42748 0
M  V30 2766 N 260.146 1.09593 -1.13257 0
M  V30 2767 C 261.109 2.14359 -0.811358 0
M  V30 2768 C 262.109 1.59808 0.178377 0
M  V30 2769 O 263.299 1.74132 -0.0484911 0
M  V30 2770 C 260.431 3.40269 -0.207276 0
M  V30 2771 H 261.624 2.44284 -1.73969 0
M  V30 2772 H 259.177 1.25102 -0.936973 0
M  V30 2773 H 259.912 3.15969 0.73036 0
M  V30 2774 H 259.697 3.81154 -0.919992 0
M  V30 2775 H 261.187 4.176 0.000667944 0
M  V30 2776 N 261.624 0.925811 1.2754 0
M  V30 2777 C 262.554 0.440748 2.29303 0
M  V30 2778 C 263.535 -0.497971 1.62648 0
M  V30 2779 O 264.72 -0.403126 1.8997 0
M  V30 2780 C 261.85 -0.309048 3.45922 0
M  V30 2781 C 260.804 0.54166 4.24559 0
M  V30 2782 C 260.13 -0.337191 5.33636 0
M  V30 2783 C 261.43 1.80516 4.90114 0
M  V30 2784 H 263.124 1.29121 2.70126 0
M  V30 2785 H 260.67 0.622323 1.29858 0
M  V30 2786 H 262.623 -0.659315 4.1621 0
M  V30 2787 H 261.347 -1.19352 3.04011 0
M  V30 2788 H 260.006 0.874609 3.56014 0
M  V30 2789 H 259.654 -1.22056 4.87966 0
M  V30 2790 H 259.354 0.228497 5.87156 0
M  V30 2791 H 260.878 -0.683072 6.06767 0
M  V30 2792 H 262.292 1.52307 5.52698 0
M  V30 2793 H 260.689 2.3142 5.53683 0
M  V30 2794 H 261.759 2.52581 4.13921 0
M  V30 2795 N 263.102 -1.41638 0.69111 0
M  V30 2796 C 264.379 -1.95036 0.148421 0
M  V30 2797 C 264.759 -1.63072 -1.34055 0
M  V30 2798 O 264.107 -0.93538 -2.08478 0
M  V30 2799 C 264.317 -3.46279 0.434951 0
M  V30 2800 C 265.665 -4.23069 0.360275 0
M  V30 2801 O 266.689 -3.54277 0.369613 0
M  V30 2802 O 265.548 -5.45583 0.316534 0
M  V30 2803 H 262.642 -0.826908 0.0123654 0
M  V30 2804 H 265.188 -1.5138 0.766963 0
M  V30 2805 H 263.96 -3.6281 1.46576 0
M  V30 2806 H 263.583 -3.97019 -0.214787 0
M  V30 2807 N 264.58 -0.43555 -1.51462 0
M  V30 2808 C 265.49 0.383001 -2.31453 0
M  V30 2809 C 266.506 1.02931 -1.4029 0
M  V30 2810 O 267.682 1.02507 -1.73362 0
M  V30 2811 C 264.747 1.47043 -3.13973 0
M  V30 2812 C 263.808 0.844433 -4.20913 0
M  V30 2813 C 263.041 1.88004 -4.9949 0
M  V30 2814 O 263.264 3.10199 -4.78678 0
M  V30 2815 O 262.198 1.47157 -5.83634 0
M  V30 2816 H 266.024 -0.269964 -3.02498 0
M  V30 2817 H 263.609 -0.19813 -1.4808 0
M  V30 2818 H 265.491 2.10113 -3.65281 0
M  V30 2819 H 264.166 2.10751 -2.45695 0
M  V30 2820 H 263.073 0.175729 -3.73687 0
M  V30 2821 H 264.406 0.250869 -4.9156 0
M  V30 2822 N 266.058 1.56714 -0.166846 0
M  V30 2823 C 266.968 2.21331 0.777791 0
M  V30 2824 C 267.984 1.20358 1.25658 0
M  V30 2825 O 269.16 1.53005 1.30964 0
M  V30 2826 C 266.225 2.83787 1.99163 0
M  V30 2827 C 265.286 3.99947 1.56016 0
M  V30 2828 C 264.519 4.59415 2.71613 0
M  V30 2829 O 264.742 4.17769 3.88362 0
M  V30 2830 O 263.676 5.49359 2.45945 0
M  V30 2831 H 267.502 3.02605 0.257636 0
M  V30 2832 H 265.087 1.49275 0.0611393 0
M  V30 2833 H 266.969 3.23405 2.70161 0
M  V30 2834 H 265.644 2.05513 2.50092 0
M  V30 2835 H 264.551 3.65007 0.819809 0
M  V30 2836 H 265.884 4.79801 1.09782 0
M  V30 2837 N 267.536 -0.106894 1.57237 0
M  V30 2838 C 268.468 -1.15646 1.97885 0
M  V30 2839 C 269.481 -1.36981 0.879779 0
M  V30 2840 O 270.67 -1.35841 1.15799 0
M  V30 2841 C 267.77 -2.51425 2.27241 0
M  V30 2842 C 266.943 -2.50529 3.58545 0
M  V30 2843 C 266.002 -3.68145 3.75973 0
M  V30 2844 O 265.028 -3.51176 4.47956 0
M  V30 2845 N 266.23 -4.87177 3.15656 0
M  V30 2846 H 268.995 -0.81059 2.8853 0
M  V30 2847 H 266.556 -0.296024 1.59171 0
M  V30 2848 H 268.548 -3.28689 2.36105 0
M  V30 2849 H 267.118 -2.78147 1.42663 0
M  V30 2850 H 266.338 -1.58894 3.60758 0
M  V30 2851 H 267.626 -2.46997 4.44826 0
M  V30 2852 H 267.024 -5.03868 2.57165 0
M  V30 2853 H 265.581 -5.62075 3.30023 0
M  V30 2854 N 269.014 -1.53014 -0.377408 0
M  V30 2855 C 269.924 -1.81557 -1.48574 0
M  V30 2856 C 270.94 -0.703102 -1.59162 0
M  V30 2857 O 272.116 -0.99192 -1.75279 0
M  V30 2858 C 269.181 -1.9889 -2.83978 0
M  V30 2859 C 268.242 -3.22801 -2.83016 0
M  V30 2860 C 267.475 -3.39298 -4.11962 0
M  V30 2861 O 267.698 -2.60345 -5.0752 0
M  V30 2862 O 266.632 -4.32604 -4.18494 0
M  V30 2863 H 270.458 -2.75695 -1.27382 0
M  V30 2864 H 268.043 -1.38248 -0.566373 0
M  V30 2865 H 269.925 -2.11931 -3.6423 0
M  V30 2866 H 268.6 -1.07942 -3.05172 0
M  V30 2867 H 267.507 -3.15193 -2.01505 0
M  V30 2868 H 268.84 -4.13632 -2.66775 0
M  V30 2869 N 270.492 0.636531 -1.44174 0
M  V30 2870 C 271.402 1.77754 -1.53103 0
M  V30 2871 C 272.418 1.68928 -0.417034 0
M  V30 2872 O 273.594 1.89801 -0.6736 0
M  V30 2873 C 270.659 3.14115 -1.46741 0
M  V30 2874 C 269.72 3.34612 -2.68948 0
M  V30 2875 C 268.953 4.64467 -2.6288 0
M  V30 2876 O 269.176 5.44919 -1.68581 0
M  V30 2877 O 268.11 4.87049 -3.53648 0
M  V30 2878 H 271.936 1.73174 -2.49489 0
M  V30 2879 H 269.521 0.79709 -1.2636 0
M  V30 2880 H 271.403 3.95412 -1.45696 0
M  V30 2881 H 270.078 3.19249 -0.534975 0
M  V30 2882 H 268.985 2.53014 -2.75562 0
M  V30 2883 H 270.318 3.34336 -3.61221 0
M  V30 2884 N 271.97 1.30982 0.876444 0
M  V30 2885 C 272.933 1.18054 1.96459 0
M  V30 2886 C 273.933 0.109399 1.60427 0
M  V30 2887 O 275.123 0.358173 1.70478 0
M  V30 2888 C 272.255 0.810616 3.31122 0
M  V30 2889 H 273.448 2.14735 2.09354 0
M  V30 2890 H 271.001 1.145 1.06392 0
M  V30 2891 H 271.736 -0.155322 3.23928 0
M  V30 2892 H 271.521 1.58481 3.58645 0
M  V30 2893 H 273.011 0.743876 4.10921 0
M  V30 2894 N 273.449 -1.08991 1.13837 0
M  V30 2895 C 274.381 -2.15606 0.777612 0
M  V30 2896 C 275.394 -1.61533 -0.202739 0
M  V30 2897 O 276.583 -1.78491 0.0181055 0
M  V30 2898 C 273.683 -3.3864 0.132623 0
M  V30 2899 C 272.856 -4.22115 1.1462 0
M  V30 2900 C 271.915 -5.23564 0.526074 0
M  V30 2901 O 270.941 -5.56678 1.18735 0
M  V30 2902 N 272.143 -5.76266 -0.699866 0
M  V30 2903 H 274.908 -2.47159 1.69506 0
M  V30 2904 H 272.469 -1.24747 1.03198 0
M  V30 2905 H 274.461 -4.03626 -0.29459 0
M  V30 2906 H 273.031 -3.04938 -0.687849 0
M  V30 2907 H 272.251 -3.53199 1.75055 0
M  V30 2908 H 273.539 -4.74709 1.83109 0
M  V30 2909 H 272.937 -5.51585 -1.25581 0
M  V30 2910 H 271.494 -6.42963 -1.06968 0
M  V30 2911 N 274.927 -0.932562 -1.27047 0
M  V30 2912 C 275.874 -0.434072 -2.26681 0
M  V30 2913 C 276.844 0.501639 -1.58344 0
M  V30 2914 O 278.029 0.419734 -1.86126 0
M  V30 2915 C 275.169 0.30261 -3.43771 0
M  V30 2916 C 274.282 -0.667774 -4.26808 0
M  V30 2917 C 273.417 0.0892393 -5.31125 0
M  V30 2918 C 272.456 -0.873532 -6.05835 0
M  V30 2919 N 271.593 -0.148832 -7.01942 0
M  V30 2920 H 276.433 -1.28868 -2.68695 0
M  V30 2921 H 273.97 -0.646713 -1.32121 0
M  V30 2922 H 275.928 0.746092 -4.10474 0
M  V30 2923 H 274.558 1.12142 -3.02695 0
M  V30 2924 H 273.61 -1.22978 -3.59973 0
M  V30 2925 H 274.922 -1.40337 -4.78651 0
M  V30 2926 H 274.076 0.592409 -6.03801 0
M  V30 2927 H 272.815 0.85777 -4.80097 0
M  V30 2928 H 271.82 -1.38791 -5.31994 0
M  V30 2929 H 273.045 -1.64193 -6.58952 0
M  V30 2930 H 270.991 0.601365 -6.53238 0
M  V30 2931 H 270.908 -0.82391 -7.51497 0
M  V30 2932 H 272.176 0.333527 -7.78786 0
M  V30 2933 N 276.405 1.4127 -0.698611 0
M  V30 2934 C 277.633 2.05503 -0.239992 0
M  V30 2935 C 278.048 1.52584 1.11191 0
M  V30 2936 O 277.405 0.675323 1.69545 0
M  V30 2937 C 277.456 3.60987 -0.192429 0
M  V30 2938 O 277.177 4.1195 -1.49094 0
M  V30 2939 C 278.678 4.42371 0.28681 0
M  V30 2940 H 275.898 0.661748 -0.111045 0
M  V30 2941 H 278.442 1.80987 -0.95205 0
M  V30 2942 H 276.597 3.84533 0.470472 0
M  V30 2943 H 277.011 5.06018 -1.38007 0
M  V30 2944 H 278.485 5.51344 0.26896 0
M  V30 2945 H 278.962 4.18699 1.32619 0
M  V30 2946 H 279.568 4.23897 -0.345201 0
M  V30 2947 N 277.883 0.443576 1.51229 0
M  V30 2948 C 278.846 -0.353132 2.26463 0
M  V30 2949 C 279.846 -0.944338 1.3015 0
M  V30 2950 O 281.036 -0.817813 1.5381 0
M  V30 2951 C 278.168 -1.50023 3.06114 0
M  V30 2952 H 279.361 0.3063 2.98332 0
M  V30 2953 H 276.914 0.196902 1.55055 0
M  V30 2954 H 277.649 -2.19553 2.38677 0
M  V30 2955 H 277.434 -1.08241 3.76864 0
M  V30 2956 H 278.924 -2.06296 3.63087 0
M  V30 2957 N 279.361 -1.56624 0.175154 0
M  V30 2958 C 280.61 -1.96173 -0.468921 0
M  V30 2959 C 280.923 -1.06401 -1.64128 0
M  V30 2960 O 282.129 -1.35648 -2.35185 0
M  V30 2961 C 280.585 -3.48833 -0.885633 0
M  V30 2962 C 280.193 -4.47237 0.261343 0
M  V30 2963 C 281.937 -3.97194 -1.49791 0
M  V30 2964 C 279.844 -5.9114 -0.175214 0
M  V30 2965 H 278.774 -0.732455 -0.178958 0
M  V30 2966 H 281.425 -1.81591 0.263997 0
M  V30 2967 H 279.807 -3.58848 -1.67464 0
M  V30 2968 H 280.981 -4.4894 1.03871 0
M  V30 2969 H 279.296 -4.08956 0.783827 0
M  V30 2970 H 281.893 -5.02167 -1.83665 0
M  V30 2971 H 282.236 -3.40351 -2.39722 0
M  V30 2972 H 282.769 -3.90212 -0.773267 0
M  V30 2973 H 279.508 -6.51865 0.689414 0
M  V30 2974 H 279.028 -5.92735 -0.91786 0
M  V30 2975 H 280.707 -6.44044 -0.617792 0
M  V30 2976 N 280.839 0.0985539 -1.57292 0
M  V30 2977 C 281.771 1.14595 -1.98496 0
M  V30 2978 C 282.784 1.36512 -0.887031 0
M  V30 2979 O 283.973 1.35225 -1.16518 0
M  V30 2980 C 281.073 2.50216 -2.28572 0
M  V30 2981 C 280.246 2.48624 -3.59868 0
M  V30 2982 C 279.305 3.66146 -3.7792 0
M  V30 2983 O 278.331 3.48795 -4.49812 0
M  V30 2984 N 279.533 4.85496 -3.18235 0
M  V30 2985 H 282.298 0.795277 -2.88956 0
M  V30 2986 H 279.859 0.287579 -1.59325 0
M  V30 2987 H 281.851 3.27432 -2.37845 0
M  V30 2988 H 280.421 2.77387 -1.44136 0
M  V30 2989 H 279.641 1.56978 -3.61596 0
M  V30 2990 H 280.929 2.44635 -4.46129 0
M  V30 2991 H 280.327 5.02497 -2.59833 0
M  V30 2992 H 278.884 5.60317 -3.32999 0
M  V30 2993 N 282.317 1.53212 0.369288 0
M  V30 2994 C 283.265 1.80054 1.47253 0
M  V30 2995 C 284.259 0.669456 1.55611 0
M  V30 2996 O 285.465 0.852328 1.58541 0
M  V30 2997 H 281.84 0.570034 0.490475 0
M  V30 2998 H 283.811 2.72403 1.21817 0
M  V30 2999 C 282.56 2.00403 2.84137 0
M  V30 3000 H 281.883 2.86876 2.78464 0
M  V30 3001 H 283.323 2.23164 3.60519 0
M  V30 3002 C 281.782 0.782081 3.27697 0
M  V30 3003 O 282.312 -0.0310205 4.01688 0
M  V30 3004 N 280.518 0.606573 2.84199 0
M  V30 3005 H 280.065 1.26939 2.24152 0
M  V30 3006 H 280.023 -0.20962 3.137 0
M  V30 3007 N 283.795 -0.628877 1.44509 0
M  V30 3008 C 284.758 -1.72263 1.51188 0
M  V30 3009 C 285.758 -1.55907 0.39367 0
M  V30 3010 O 286.948 -1.61361 0.656377 0
M  V30 3011 C 284.08 -3.11365 1.38798 0
M  V30 3012 H 285.273 -1.67714 2.4862 0
M  V30 3013 H 282.826 -0.842737 1.31634 0
M  V30 3014 H 283.561 -3.21507 0.424693 0
M  V30 3015 H 283.346 -3.24644 2.19884 0
M  V30 3016 H 284.836 -3.91075 1.46458 0
M  V30 3017 N 285.273 -1.31445 -0.869486 0
M  V30 3018 C 286.522 -1.20517 -1.61736 0
M  V30 3019 C 286.835 0.235341 -1.94179 0
M  V30 3020 O 288.041 0.466312 -2.67465 0
M  V30 3021 C 286.497 -2.10982 -2.91573 0
M  V30 3022 C 286.105 -3.60032 -2.66611 0
M  V30 3023 C 287.849 -2.08856 -3.69567 0
M  V30 3024 C 285.756 -4.42503 -3.92358 0
M  V30 3025 H 284.686 -0.447493 -0.606849 0
M  V30 3026 H 287.337 -1.56303 -0.96133 0
M  V30 3027 H 285.719 -1.68095 -3.58553 0
M  V30 3028 H 286.893 -4.11167 -2.08035 0
M  V30 3029 H 285.208 -3.64139 -2.0197 0
M  V30 3030 H 287.805 -2.67716 -4.62852 0
M  V30 3031 H 288.148 -1.07582 -4.02159 0
M  V30 3032 H 288.681 -2.49945 -3.09471 0
M  V30 3033 H 285.42 -5.44533 -3.64916 0
M  V30 3034 H 284.94 -3.96125 -4.50383 0
M  V30 3035 H 286.619 -4.54741 -4.60238 0
M  V30 3036 N 286.751 1.08385 -1.14413 0
M  V30 3037 C 287.698 2.15311 -0.831265 0
M  V30 3038 C 288.668 1.64751 0.211292 0
M  V30 3039 O 289.853 1.90627 0.0811674 0
M  V30 3040 C 286.993 3.43658 -0.315143 0
M  V30 3041 C 286.106 4.08064 -1.41802 0
M  V30 3042 C 285.241 5.24207 -0.859126 0
M  V30 3043 C 284.28 5.80554 -1.93967 0
M  V30 3044 N 283.417 6.88042 -1.39793 0
M  V30 3045 H 288.257 2.41415 -1.74708 0
M  V30 3046 H 285.794 1.18474 -0.871909 0
M  V30 3047 H 287.752 4.172 0.00230884 0
M  V30 3048 H 286.382 3.17839 0.56378 0
M  V30 3049 H 285.434 3.3228 -1.85187 0
M  V30 3050 H 286.746 4.45962 -2.23427 0
M  V30 3051 H 285.9 6.04689 -0.49359 0
M  V30 3052 H 284.639 4.87699 -0.011932 0
M  V30 3053 H 283.644 4.98725 -2.31415 0
M  V30 3054 H 284.869 6.19121 -2.79046 0
M  V30 3055 H 282.815 6.53493 -0.572919 0
M  V30 3056 H 282.732 7.24767 -2.15054 0
M  V30 3057 H 284 7.72255 -1.0603 0
M  V30 3058 N 288.23 0.939286 1.26551 0
M  V30 3059 C 289.178 0.43815 2.28436 0
M  V30 3060 C 290.172 -0.483587 1.62351 0
M  V30 3061 O 291.378 -0.362009 1.76322 0
M  V30 3062 H 287.753 0.123149 0.741848 0
M  V30 3063 H 289.724 1.31002 2.68106 0
M  V30 3064 C 288.473 -0.283052 3.46546 0
M  V30 3065 H 287.796 0.417043 3.97619 0
M  V30 3066 H 289.236 -0.597948 4.19763 0
M  V30 3067 C 287.695 -1.50018 3.01656 0
M  V30 3068 O 288.225 -2.59855 3.0633 0
M  V30 3069 N 286.431 -1.35608 2.57019 0
M  V30 3070 H 285.978 -0.46244 2.53415 0
M  V30 3071 H 285.936 -2.17165 2.27347 0
M  V30 3072 N 289.708 -1.40897 0.706093 0
M  V30 3073 C 290.658 -2.27987 0.0240746 0
M  V30 3074 C 291.642 -1.42759 -0.742204 0
M  V30 3075 O 292.834 -1.65936 -0.615966 0
M  V30 3076 C 289.963 -3.31186 -0.903907 0
M  V30 3077 C 289.049 -4.2389 -0.133318 0
M  V30 3078 N 289.44 -4.98113 0.878444 0
M  V30 3079 C 287.738 -4.44485 -0.367269 0
M  V30 3080 C 288.439 -5.6604 1.34064 0
M  V30 3081 N 287.415 -5.39522 0.664565 0
M  V30 3082 H 291.217 -2.82812 0.799658 0
M  V30 3083 H 288.731 -1.53235 0.537845 0
M  V30 3084 H 290.728 -3.92413 -1.40775 0
M  V30 3085 H 289.388 -2.77922 -1.67897 0
M  V30 3086 H 290.399 -5.02364 1.25901 0
M  V30 3087 H 287.076 -4.02213 -1.1194 0
M  V30 3088 H 288.466 -6.35524 2.1808 0
M  V30 3089 N 291.186 -0.45159 -1.50991 0
M  V30 3090 C 292.463 0.170707 -1.94854 0
M  V30 3091 C 292.843 1.58788 -1.39103 0
M  V30 3092 O 292.191 2.20913 -0.583921 0
M  V30 3093 C 292.401 0.133929 -3.48743 0
M  V30 3094 C 293.749 0.33248 -4.23296 0
M  V30 3095 O 294.773 0.211403 -3.55572 0
M  V30 3096 O 293.632 0.57486 -5.43468 0
M  V30 3097 H 290.726 0.122264 -0.817912 0
M  V30 3098 H 293.272 -0.510594 -1.61836 0
M  V30 3099 H 292.044 -0.856283 -3.81816 0
M  V30 3100 H 291.667 0.857529 -3.88242 0
M  V30 3101 N 292.664 1.56529 -0.183458 0
M  V30 3102 C 293.889 2.02064 0.467428 0
M  V30 3103 C 294.314 1.06282 1.55196 0
M  V30 3104 O 293.672 0.0443565 1.81246 0
M  V30 3105 C 293.72 3.46122 1.01153 0
M  V30 3106 O 292.824 3.53437 2.12499 0
M  V30 3107 H 292.165 0.654726 0.110588 0
M  V30 3108 H 294.695 2.02521 -0.290917 0
M  V30 3109 H 294.705 3.85676 1.33108 0
M  V30 3110 H 293.38 4.15331 0.217533 0
M  V30 3111 H 291.957 3.2575 1.81497 0
M  V30 3112 N 294.142 -0.090211 1.57342 0
M  V30 3113 C 295.391 -0.791531 1.8552 0
M  V30 3114 C 295.704 -1.79659 0.773441 0
M  V30 3115 O 296.91 -2.54616 0.942497 0
M  V30 3116 C 295.366 -1.45856 3.2902 0
M  V30 3117 C 294.974 -0.493017 4.45279 0
M  V30 3118 C 296.718 -2.14332 3.66418 0
M  V30 3119 C 294.625 -1.16491 5.79814 0
M  V30 3120 H 293.555 -0.299356 0.692027 0
M  V30 3121 H 296.206 -0.0445343 1.83446 0
M  V30 3122 H 294.588 -2.25318 3.2565 0
M  V30 3123 H 295.762 0.270464 4.60006 0
M  V30 3124 H 294.077 0.0863061 4.16311 0
M  V30 3125 H 296.674 -2.65344 4.64216 0
M  V30 3126 H 297.017 -2.93447 2.95287 0
M  V30 3127 H 297.55 -1.41724 3.71698 0
M  V30 3128 H 294.289 -0.41447 6.54188 0
M  V30 3129 H 293.809 -1.8997 5.68921 0
M  V30 3130 H 295.488 -1.69001 6.24538 0
M  V30 3131 N 295.62 -1.53406 -0.361157 0
M  V30 3132 C 296.868 -1.69467 -1.10115 0
M  V30 3133 C 297.189 -0.451352 -1.89705 0
M  V30 3134 O 296.459 0.534636 -1.88463 0
M  V30 3135 H 295.039 -0.624749 -0.409508 0
M  V30 3136 H 297.701 -1.90609 -0.406699 0
M  V30 3137 H 296.797 -2.55774 -1.78847 0
M  V30 3138 N 297.098 0.621204 -1.44841 0
M  V30 3139 C 298.346 1.37783 -1.47852 0
M  V30 3140 C 298.667 1.94653 -0.116224 0
M  V30 3141 O 297.937 1.76367 0.852737 0
M  V30 3142 H 296.517 0.511453 -0.544449 0
M  V30 3143 H 299.179 0.730446 -1.80694 0
M  V30 3144 H 298.275 2.20414 -2.20961 0
M  V30 3145 N 298.576 1.31904 0.862503 0
M  V30 3146 C 299.822 1.22197 1.61851 0
M  V30 3147 C 300.155 -0.217641 1.92977 0
M  V30 3148 O 299.43 -1.15264 1.56666 0
M  V30 3149 C 299.713 2.07378 2.94391 0
M  V30 3150 C 299.566 3.59678 2.70096 0
M  V30 3151 C 300.885 1.92891 3.95577 0
M  V30 3152 H 298.004 0.445255 0.587296 0
M  V30 3153 H 300.646 1.6177 0.99651 0
M  V30 3154 H 298.796 1.73758 3.47477 0
M  V30 3155 H 300.468 4.03472 2.23625 0
M  V30 3156 H 298.711 3.82735 2.04197 0
M  V30 3157 H 299.382 4.14595 3.64438 0
M  V30 3158 H 301.858 2.22327 3.51724 0
M  V30 3159 H 300.734 2.54781 4.86187 0
M  V30 3160 H 300.995 0.894315 4.3296 0
M  V30 3161 N 300.054 -1.07777 1.14986 0
M  V30 3162 C 301.017 -2.13041 0.845358 0
M  V30 3163 C 302.017 -1.60071 -0.152931 0
M  V30 3164 O 303.207 -1.74033 0.0761879 0
M  V30 3165 C 300.339 -3.39896 0.261383 0
M  V30 3166 H 301.532 -2.41485 1.77834 0
M  V30 3167 H 299.085 -1.23595 0.956757 0
M  V30 3168 H 299.82 -3.17091 -0.68 0
M  V30 3169 H 299.605 -3.79642 0.980514 0
M  V30 3170 H 301.095 -4.17548 0.0657687 0
M  V30 3171 N 301.532 -0.945985 -1.26051 0
M  V30 3172 C 302.462 -0.477172 -2.28572 0
M  V30 3173 C 303.443 0.472032 -1.63419 0
M  V30 3174 O 304.628 0.372853 -1.90587 0
M  V30 3175 C 301.758 0.253975 -3.4637 0
M  V30 3176 C 300.712 -0.609135 -4.23643 0
M  V30 3177 C 300.038 0.252252 -5.34105 0
M  V30 3178 C 301.338 -1.8829 -4.8718 0
M  V30 3179 H 303.032 -1.33402 -2.68038 0
M  V30 3180 H 300.578 -0.642904 -1.28852 0
M  V30 3181 H 302.531 0.593016 -4.17207 0
M  V30 3182 H 301.255 1.145 -3.05871 0
M  V30 3183 H 299.914 -0.931138 -3.54578 0
M  V30 3184 H 299.562 1.14278 -4.89846 0
M  V30 3185 H 299.262 -0.32188 -5.86718 0
M  V30 3186 H 300.786 0.586454 -6.07777 0
M  V30 3187 H 302.2 -1.61081 -5.50205 0
M  V30 3188 H 300.597 -2.40199 -5.49931 0
M  V30 3189 H 301.667 -2.59134 -4.09851 0
M  V30 3190 N 303.011 1.40521 -0.713556 0
M  V30 3191 C 304.26 2.00155 -0.249192 0
M  V30 3192 C 304.573 1.57224 1.16362 0
M  V30 3193 O 305.779 2.09542 1.72639 0
M  V30 3194 C 304.235 3.5773 -0.3946 0
M  V30 3195 C 303.843 4.09635 -1.81392 0
M  V30 3196 C 305.587 4.24499 0.00907364 0
M  V30 3197 C 303.494 5.59707 -1.91003 0
M  V30 3198 H 302.424 0.74868 -0.0894114 0
M  V30 3199 H 305.075 1.60784 -0.884352 0
M  V30 3200 H 303.457 3.94792 0.30911 0
M  V30 3201 H 304.631 3.83955 -2.54785 0
M  V30 3202 H 302.946 3.55456 -2.16888 0
M  V30 3203 H 305.543 5.34683 -0.0420404 0
M  V30 3204 H 305.886 4.02824 1.05065 0
M  V30 3205 H 306.419 3.92536 -0.645007 0
M  V30 3206 H 303.158 5.86234 -2.93275 0
M  V30 3207 H 302.678 5.87258 -1.22019 0
M  V30 3208 H 304.357 6.24776 -1.6812 0
M  V30 3209 N 304.489 0.459591 1.5075 0
M  V30 3210 C 305.905 0.113092 1.59199 0
M  V30 3211 C 306.105 -1.37951 1.46874 0
M  V30 3212 O 305.161 -2.15168 1.32132 0
M  V30 3213 C 306.474 0.653043 2.93523 0
M  V30 3214 C 308.022 0.615449 3.0689 0
M  V30 3215 C 308.497 1.13275 4.43771 0
M  V30 3216 N 309.988 1.09167 4.50152 0
M  V30 3217 C 310.723 1.46256 5.54434 0
M  V30 3218 N 310.219 1.90739 6.66026 0
M  V30 3219 N 312.012 1.37932 5.44914 0
M  V30 3220 H 304.163 1.43049 1.57005 0
M  V30 3221 H 306.426 0.590861 0.741341 0
M  V30 3222 H 306.132 1.69822 3.07983 0
M  V30 3223 H 306.006 0.0902132 3.77092 0
M  V30 3224 H 308.393 -0.420793 2.92084 0
M  V30 3225 H 308.474 1.21495 2.25106 0
M  V30 3226 H 308.118 2.16757 4.59324 0
M  V30 3227 H 308.048 0.509576 5.24129 0
M  V30 3228 H 310.539 0.76528 3.7007 0
M  V30 3229 H 310.852 2.17218 7.41644 0
M  V30 3230 H 309.197 1.94683 6.67176 0
M  V30 3231 H 312.388 1.0303 4.56621 0
M  V30 3232 H 312.561 1.67164 6.26067 0
M  V30 3233 N 305.967 -1.56429 0.191757 0
M  V30 3234 C 306.93 -2.17707 -0.716688 0
M  V30 3235 C 307.93 -1.13061 -1.14341 0
M  V30 3236 O 309.12 -1.38464 -1.05704 0
M  V30 3237 C 306.252 -2.77644 -1.97804 0
M  V30 3238 H 307.445 -2.99342 -0.1829 0
M  V30 3239 H 304.998 -1.56193 -0.0578566 0
M  V30 3240 H 305.733 -1.99799 -2.55443 0
M  V30 3241 H 305.518 -3.54246 -1.68083 0
M  V30 3242 H 307.008 -3.24708 -2.62592 0
M  V30 3243 N 307.445 0.0818655 -1.57387 0
M  V30 3244 C 308.861 0.436412 -1.53517 0
M  V30 3245 C 309.061 1.79758 -0.910459 0
M  V30 3246 O 308.117 2.47324 -0.508636 0
M  V30 3247 C 309.43 0.386734 -2.98203 0
M  V30 3248 C 310.978 0.467644 -3.09487 0
M  V30 3249 C 311.453 0.447978 -4.55804 0
M  V30 3250 N 312.944 0.508348 -4.60402 0
M  V30 3251 C 313.679 0.515184 -5.71081 0
M  V30 3252 N 313.175 0.477435 -6.91153 0
M  V30 3253 N 314.968 0.560988 -5.59294 0
M  V30 3254 H 307.119 -0.809546 -1.96367 0
M  V30 3255 H 309.382 -0.302733 -0.898363 0
M  V30 3256 H 309.088 -0.546539 -3.47427 0
M  V30 3257 H 308.962 1.20075 -3.57578 0
M  V30 3258 H 311.349 1.39134 -2.60242 0
M  V30 3259 H 311.43 -0.374753 -2.5304 0
M  V30 3260 H 311.074 -0.471826 -5.05704 0
M  V30 3261 H 311.004 1.30777 -5.10103 0
M  V30 3262 H 313.495 0.54218 -3.7399 0
M  V30 3263 H 313.808 0.486299 -7.71268 0
M  V30 3264 H 312.153 0.444278 -6.93579 0
M  V30 3265 H 315.344 0.5881 -4.64391 0
M  V30 3266 H 315.517 0.562846 -6.45551 0
M  V30 3267 N 308.923 1.53595 0.353017 0
M  V30 3268 C 310.148 1.7462 1.11904 0
M  V30 3269 C 310.573 0.479721 1.8188 0
M  V30 3270 O 309.931 -0.567066 1.72204 0
M  V30 3271 C 309.979 2.92029 2.11545 0
M  V30 3272 O 309.083 2.61516 3.18878 0
M  V30 3273 H 308.424 0.579531 0.324099 0
M  V30 3274 H 310.954 2.00525 0.406301 0
M  V30 3275 H 310.964 3.18551 2.5493 0
M  V30 3276 H 309.639 3.83888 1.60008 0
M  V30 3277 H 308.216 2.45852 2.80377 0
M  V30 3278 N 310.401 -0.613514 1.45168 0
M  V30 3279 C 311.65 -1.36874 1.4815 0
M  V30 3280 C 311.963 -1.952 0.124982 0
M  V30 3281 O 313.169 -2.71481 0.0324176 0
M  V30 3282 C 311.625 -2.47905 2.60904 0
M  V30 3283 C 311.233 -1.96016 4.02842 0
M  V30 3284 C 312.977 -3.24965 2.73126 0
M  V30 3285 C 310.884 -3.04494 5.06988 0
M  V30 3286 H 309.814 -0.514428 0.551253 0
M  V30 3287 H 312.465 -0.658182 1.7129 0
M  V30 3288 H 310.847 -3.21618 2.31037 0
M  V30 3289 H 312.021 -1.29051 4.4236 0
M  V30 3290 H 310.336 -1.31719 3.95018 0
M  V30 3291 H 312.933 -4.05865 3.48106 0
M  V30 3292 H 313.276 -3.75588 1.79553 0
M  V30 3293 H 313.809 -2.5835 3.0249 0
M  V30 3294 H 310.548 -2.58795 6.0225 0
M  V30 3295 H 310.068 -3.70044 4.72046 0
M  V30 3296 H 311.747 -3.68976 5.31475 0
M  V30 3297 N 311.879 -1.3236 -0.855495 0
M  V30 3298 C 312.826 -1.21225 -1.964 0
M  V30 3299 C 313.796 -0.0946204 -1.6583 0
M  V30 3300 O 314.981 -0.27002 -1.8888 0
M  V30 3301 C 312.121 -0.940419 -3.32039 0
M  V30 3302 C 311.234 -2.14276 -3.75113 0
M  V30 3303 C 310.369 -1.80648 -4.9954 0
M  V30 3304 C 309.408 -2.97208 -5.35102 0
M  V30 3305 N 308.545 -2.63678 -6.50706 0
M  V30 3306 H 313.385 -2.16042 -2.05255 0
M  V30 3307 H 310.922 -1.07451 -1.00463 0
M  V30 3308 H 312.88 -0.763311 -4.10158 0
M  V30 3309 H 311.51 -0.0290413 -3.22787 0
M  V30 3310 H 310.562 -2.43017 -2.92655 0
M  V30 3311 H 311.874 -3.01468 -3.97389 0
M  V30 3312 H 311.028 -1.59484 -5.85363 0
M  V30 3313 H 309.767 -0.906678 -4.79198 0
M  V30 3314 H 308.772 -3.19004 -4.47791 0
M  V30 3315 H 309.997 -3.87918 -5.57401 0
M  V30 3316 H 307.943 -1.76238 -6.31883 0
M  V30 3317 H 307.86 -3.444 -6.72997 0
M  V30 3318 H 309.128 -2.45942 -7.39684 0
M  V30 3319 N 313.357 1.07166 -1.15556 0
M  V30 3320 C 314.585 1.83514 -0.955519 0
M  V30 3321 C 315 1.82163 0.49621 0
M  V30 3322 O 314.357 1.23441 1.34419 0
M  V30 3323 C 314.408 3.30515 -1.46432 0
M  V30 3324 O 314.129 3.31937 -2.85918 0
M  V30 3325 C 315.63 4.23625 -1.30603 0
M  V30 3326 H 312.85 0.578926 -0.339244 0
M  V30 3327 H 315.394 1.35265 -1.53374 0
M  V30 3328 H 313.549 3.76106 -0.928584 0
M  V30 3329 H 313.963 4.23794 -3.09029 0
M  V30 3330 H 315.437 5.24831 -1.71047 0
M  V30 3331 H 315.914 4.38485 -0.250441 0
M  V30 3332 H 316.52 3.83871 -1.83094 0
M  V30 3333 N 314.835 0.952656 1.25548 0
M  V30 3334 C 315.783 0.462354 2.27958 0
M  V30 3335 C 316.777 -0.46634 1.62855 0
M  V30 3336 O 317.983 -0.343287 1.76696 0
M  V30 3337 H 314.358 0.13101 0.7405 0
M  V30 3338 H 316.329 1.33839 2.66702 0
M  V30 3339 C 315.078 -0.24628 3.46827 0
M  V30 3340 H 314.401 0.459192 3.97154 0
M  V30 3341 H 315.841 -0.553393 4.20373 0
M  V30 3342 C 314.3 -1.4681 3.0323 0
M  V30 3343 O 314.83 -2.56591 3.09069 0
M  V30 3344 N 313.036 -1.32874 2.58443 0
M  V30 3345 H 312.583 -0.435536 2.53891 0
M  V30 3346 H 312.541 -2.14742 2.29637 0
M  V30 3347 N 316.313 -1.40141 0.720998 0
M  V30 3348 C 317.245 -2.29177 0.0324669 0
M  V30 3349 C 318.258 -1.46105 -0.718126 0
M  V30 3350 O 319.447 -1.69335 -0.564608 0
M  V30 3351 C 316.547 -3.24473 -0.978292 0
M  V30 3352 C 315.72 -4.36423 -0.292115 0
M  V30 3353 C 314.779 -5.12122 -1.20901 0
M  V30 3354 O 313.805 -5.64981 -0.691766 0
M  V30 3355 N 315.007 -5.21992 -2.53978 0
M  V30 3356 H 317.772 -2.88909 0.796984 0
M  V30 3357 H 315.333 -1.51569 0.569068 0
M  V30 3358 H 317.325 -3.71987 -1.59398 0
M  V30 3359 H 315.895 -2.65871 -1.64413 0
M  V30 3360 H 315.115 -3.90967 0.503847 0
M  V30 3361 H 316.403 -5.08467 0.183971 0
M  V30 3362 H 315.801 -4.8054 -2.98493 0
M  V30 3363 H 314.358 -5.72995 -3.10677 0
M  V30 3364 N 317.792 -0.46758 -1.50504 0
M  V30 3365 C 318.739 0.328413 -2.28452 0
M  V30 3366 C 319.709 0.990313 -1.33349 0
M  V30 3367 O 320.894 1.00343 -1.62284 0
M  V30 3368 C 318.034 1.40648 -3.15138 0
M  V30 3369 C 317.147 0.759709 -4.25267 0
M  V30 3370 C 316.282 1.81537 -4.99217 0
M  V30 3371 C 315.321 1.14866 -6.01226 0
M  V30 3372 N 314.458 2.14702 -6.68467 0
M  V30 3373 H 319.298 -0.342603 -2.96024 0
M  V30 3374 H 316.835 -0.180801 -1.45985 0
M  V30 3375 H 318.793 2.04315 -3.63746 0
M  V30 3376 H 317.423 2.04671 -2.49619 0
M  V30 3377 H 316.475 0.0105671 -3.80399 0
M  V30 3378 H 317.787 0.233243 -4.98254 0
M  V30 3379 H 316.941 2.52793 -5.51526 0
M  V30 3380 H 315.68 2.37564 -4.25928 0
M  V30 3381 H 314.685 0.42171 -5.4818 0
M  V30 3382 H 315.91 0.595334 -6.76485 0
M  V30 3383 H 313.856 2.69752 -5.97972 0
M  V30 3384 H 313.773 1.6703 -7.37317 0
M  V30 3385 H 315.041 2.85348 -7.25394 0
M  V30 3386 N 319.27 1.56325 -0.20005 0
M  V30 3387 C 320.2 2.22318 0.713916 0
M  V30 3388 C 321.181 1.18788 1.21752 0
M  V30 3389 O 322.366 1.47309 1.26545 0
M  V30 3390 C 319.496 2.88639 1.93144 0
M  V30 3391 C 318.45 3.98457 1.56255 0
M  V30 3392 C 317.776 4.51967 2.85709 0
M  V30 3393 C 319.076 5.16612 0.768747 0
M  V30 3394 H 320.77 2.98952 0.163755 0
M  V30 3395 H 318.316 1.43792 0.0773219 0
M  V30 3396 H 320.269 3.33491 2.57608 0
M  V30 3397 H 318.993 2.09419 2.50621 0
M  V30 3398 H 317.652 3.54305 0.941471 0
M  V30 3399 H 317.3 3.69503 3.41287 0
M  V30 3400 H 317 5.26071 2.6177 0
M  V30 3401 H 318.524 4.99523 3.51154 0
M  V30 3402 H 319.938 5.57977 1.3166 0
M  V30 3403 H 318.335 5.96812 0.627286 0
M  V30 3404 H 319.405 4.84358 -0.229168 0
M  V30 3405 N 320.748 -0.0735177 1.57428 0
M  V30 3406 C 322.159 -0.625551 1.75908 0
M  V30 3407 C 322.51 -1.78 0.825261 0
M  V30 3408 O 321.635 -2.16398 0.00893964 0
M  V30 3409 C 322.23 -1.14155 3.18989 0
M  V30 3410 C 320.789 -1.63946 3.38819 0
M  V30 3411 C 319.936 -0.558151 2.71625 0
M  V30 3412 H 322.887 0.152647 1.57964 0
M  V30 3413 H 322.908 -2.0104 3.23053 0
M  V30 3414 H 322.42 -0.301116 3.8693 0
M  V30 3415 H 320.521 -2.50321 2.7599 0
M  V30 3416 H 320.634 -1.71759 4.47253 0
M  V30 3417 H 318.998 -1.00278 2.34129 0
M  V30 3418 H 319.781 0.272071 3.4222 0
M  V30 3419 N 322.226 -1.5378 -0.344866 0
M  V30 3420 C 323.475 -1.7018 -1.08267 0
M  V30 3421 C 323.788 -0.471 -1.89845 0
M  V30 3422 O 324.994 -0.515917 -2.66553 0
M  V30 3423 C 323.45 -3.00923 -1.97417 0
M  V30 3424 C 323.058 -4.31335 -1.21053 0
M  V30 3425 C 324.802 -3.26688 -2.71063 0
M  V30 3426 C 322.709 -5.53153 -2.09225 0
M  V30 3427 H 321.639 -0.634138 -0.407903 0
M  V30 3428 H 324.29 -1.8028 -0.342246 0
M  V30 3429 H 322.672 -2.84676 -2.75274 0
M  V30 3430 H 323.846 -4.58281 -0.481159 0
M  V30 3431 H 322.161 -4.12173 -0.591813 0
M  V30 3432 H 324.758 -4.1489 -3.37299 0
M  V30 3433 H 325.101 -2.43639 -3.37558 0
M  V30 3434 H 325.634 -3.43705 -2.0028 0
M  V30 3435 H 322.373 -6.38741 -1.47274 0
M  V30 3436 H 321.893 -5.30458 -2.79955 0
M  V30 3437 H 323.572 -5.88744 -2.68308 0
M  V30 3438 N 323.704 0.605807 -1.45491 0
M  V30 3439 C 324.952 1.36207 -1.49305 0
M  V30 3440 C 325.273 1.94519 -0.136863 0
M  V30 3441 O 324.543 1.77261 0.833983 0
M  V30 3442 H 323.123 0.50565 -0.549843 0
M  V30 3443 H 325.785 0.711239 -1.81459 0
M  V30 3444 H 324.881 2.18058 -2.23287 0
M  V30 3445 N 325.182 1.32811 0.848464 0
M  V30 3446 C 326.112 1.24882 1.97299 0
M  V30 3447 C 327.093 0.131357 1.69592 0
M  V30 3448 O 328.278 0.319553 1.91553 0
M  V30 3449 C 325.408 0.97746 3.33261 0
M  V30 3450 C 324.362 2.05682 3.75338 0
M  V30 3451 C 323.688 1.63777 5.09 0
M  V30 3452 C 324.988 3.47254 3.90144 0
M  V30 3453 H 326.682 2.18966 2.04191 0
M  V30 3454 H 324.228 1.05413 0.981029 0
M  V30 3455 H 326.181 0.908513 4.1149 0
M  V30 3456 H 324.905 0.000980011 3.266 0
M  V30 3457 H 323.564 2.11603 2.99366 0
M  V30 3458 H 323.212 0.648569 4.98801 0
M  V30 3459 H 322.912 2.36 5.38124 0
M  V30 3460 H 324.436 1.5833 5.89715 0
M  V30 3461 H 325.85 3.43888 4.58709 0
M  V30 3462 H 324.247 4.1788 4.30693 0
M  V30 3463 H 325.317 3.86462 2.92874 0
M  V30 3464 N 326.66 -1.06551 1.16123 0
M  V30 3465 C 327.908 -1.78947 0.939267 0
M  V30 3466 C 328.229 -1.87532 -0.534476 0
M  V30 3467 O 327.499 -1.38211 -1.38833 0
M  V30 3468 H 326.079 -0.662807 0.344523 0
M  V30 3469 H 328.741 -1.28725 1.46342 0
M  V30 3470 H 327.837 -2.81117 1.35572 0
M  V30 3471 N 328.138 -0.959301 -1.25041 0
M  V30 3472 C 329.07 -0.440543 -2.24926 0
M  V30 3473 C 330.083 0.446131 -1.56568 0
M  V30 3474 O 331.272 0.253657 -1.76689 0
M  V30 3475 C 328.372 0.38412 -3.36716 0
M  V30 3476 C 327.545 -0.490658 -4.34639 0
M  V30 3477 C 326.604 0.276587 -5.25473 0
M  V30 3478 O 325.63 -0.326614 -5.68262 0
M  V30 3479 N 326.832 1.56844 -5.5891 0
M  V30 3480 H 329.597 -1.29931 -2.70071 0
M  V30 3481 H 327.158 -0.830181 -1.38995 0
M  V30 3482 H 329.15 0.905228 -3.94446 0
M  V30 3483 H 327.72 1.14377 -2.90924 0
M  V30 3484 H 326.94 -1.19282 -3.7572 0
M  V30 3485 H 328.228 -1.08756 -4.97041 0
M  V30 3486 H 327.626 2.08036 -5.26059 0
M  V30 3487 H 326.183 2.03541 -6.19205 0
M  V30 3488 N 329.616 1.39756 -0.72842 0
M  V30 3489 C 330.864 2.00248 -0.272946 0
M  V30 3490 C 331.185 1.58077 1.14178 0
M  V30 3491 O 330.455 0.826014 1.77634 0
M  V30 3492 H 329.035 0.740554 -0.0979247 0
M  V30 3493 H 331.697 1.70903 -0.936912 0
M  V30 3494 H 330.793 3.10495 -0.316142 0
M  V30 3495 N 331.094 0.475555 1.50254 0
M  V30 3496 C 332.024 -0.30611 2.31485 0
M  V30 3497 C 333.005 -0.986228 1.38591 0
M  V30 3498 O 334.19 -0.982541 1.67511 0
M  V30 3499 C 331.32 -1.38588 3.1845 0
M  V30 3500 C 330.274 -0.827115 4.19932 0
M  V30 3501 C 329.6 -2.00551 4.95665 0
M  V30 3502 C 330.9 0.16463 5.2204 0
M  V30 3503 H 332.594 0.371866 2.97082 0
M  V30 3504 H 330.14 0.180282 1.42867 0
M  V30 3505 H 332.093 -1.94023 3.74076 0
M  V30 3506 H 330.817 -2.09269 2.50747 0
M  V30 3507 H 329.476 -0.294702 3.65414 0
M  V30 3508 H 329.124 -2.6994 4.2443 0
M  V30 3509 H 328.824 -1.63784 5.64313 0
M  V30 3510 H 330.348 -2.56468 5.54127 0
M  V30 3511 H 331.762 -0.300699 5.72511 0
M  V30 3512 H 330.159 0.446813 5.98434 0
M  V30 3513 H 331.229 1.08905 4.72512 0
M  V30 3514 N 332.573 -1.56217 0.208337 0
M  V30 3515 C 333.803 -2.02043 -0.431523 0
M  V30 3516 C 334.211 -1.08755 -1.54819 0
M  V30 3517 O 333.554 -0.0870009 -1.83494 0
M  V30 3518 C 333.616 -3.44239 -1.03633 0
M  V30 3519 C 333.28 -4.56965 -0.0567502 0
M  V30 3520 C 334.277 -5.14624 0.738773 0
M  V30 3521 C 331.962 -5.02266 0.0581736 0
M  V30 3522 C 333.956 -6.16045 1.63605 0
M  V30 3523 C 331.643 -6.03528 0.959001 0
M  V30 3524 C 332.641 -6.60293 1.7465 0
M  V30 3525 O 332.329 -7.59586 2.6322 0
M  V30 3526 H 332.061 -0.666772 -0.111313 0
M  V30 3527 H 334.615 -2.02919 0.318277 0
M  V30 3528 H 332.845 -3.40391 -1.83497 0
M  V30 3529 H 334.534 -3.73793 -1.58221 0
M  V30 3530 H 335.3 -4.80483 0.660364 0
M  V30 3531 H 331.179 -4.57771 -0.544633 0
M  V30 3532 H 334.723 -6.60279 2.25116 0
M  V30 3533 H 330.62 -6.37092 1.03848 0
M  V30 3534 H 331.388 -7.77057 2.57148 0
M  V30 3535 N 334.051 0.0651679 -1.57465 0
M  V30 3536 C 335.014 1.06117 -2.03155 0
M  V30 3537 C 336.014 1.31204 -0.929632 0
M  V30 3538 O 337.204 1.26813 -1.19432 0
M  V30 3539 C 334.336 2.4032 -2.41783 0
M  V30 3540 H 335.529 0.667231 -2.92383 0
M  V30 3541 H 333.082 0.311075 -1.53173 0
M  V30 3542 H 333.817 2.84532 -1.55601 0
M  V30 3543 H 333.602 2.23451 -3.22199 0
M  V30 3544 H 335.092 3.11898 -2.77685 0
M  V30 3545 N 335.529 1.53961 0.336706 0
M  V30 3546 C 336.476 1.82428 1.41381 0
M  V30 3547 C 337.446 0.670444 1.51968 0
M  V30 3548 O 338.631 0.915565 1.67398 0
M  V30 3549 C 335.771 2.04564 2.77934 0
M  V30 3550 C 334.884 3.32267 2.76084 0
M  V30 3551 C 334.019 3.44434 4.04399 0
M  V30 3552 C 333.058 4.66061 3.96804 0
M  V30 3553 N 332.195 4.75224 5.16823 0
M  V30 3554 H 337.035 2.74324 1.16405 0
M  V30 3555 H 334.572 1.35869 0.563752 0
M  V30 3556 H 336.53 2.15388 3.57301 0
M  V30 3557 H 335.16 1.15974 3.01247 0
M  V30 3558 H 334.212 3.3025 1.88784 0
M  V30 3559 H 335.524 4.21733 2.66351 0
M  V30 3560 H 334.678 3.54728 4.92192 0
M  V30 3561 H 333.417 2.53037 4.16921 0
M  V30 3562 H 332.422 4.55838 3.07396 0
M  V30 3563 H 333.647 5.58829 3.85858 0
M  V30 3564 H 331.593 3.86739 5.29876 0
M  V30 3565 H 331.51 5.58636 5.09374 0
M  V30 3566 H 332.778 4.89835 6.06367 0
M  V30 3567 N 337.007 -0.598083 1.45811 0
M  V30 3568 C 337.937 -1.71873 1.58057 0
M  V30 3569 C 338.918 -1.64533 0.431615 0
M  V30 3570 O 340.103 -1.82787 0.65595 0
M  V30 3571 C 337.233 -3.10495 1.55597 0
M  V30 3572 C 336.187 -3.32654 2.69305 0
M  V30 3573 C 335.513 -4.71646 2.51902 0
M  V30 3574 C 336.813 -3.21981 4.11248 0
M  V30 3575 H 338.507 -1.61881 2.51863 0
M  V30 3576 H 336.053 -0.777372 1.21214 0
M  V30 3577 H 338.006 -3.88699 1.6276 0
M  V30 3578 H 336.73 -3.2135 0.583255 0
M  V30 3579 H 335.389 -2.56843 2.61586 0
M  V30 3580 H 335.037 -4.79246 1.52748 0
M  V30 3581 H 334.737 -4.87426 3.2816 0
M  V30 3582 H 336.261 -5.52038 2.60933 0
M  V30 3583 H 337.675 -3.90049 4.20161 0
M  V30 3584 H 336.072 -3.49289 4.87972 0
M  V30 3585 H 337.142 -2.1928 4.32486 0
M  V30 3586 N 338.485 -1.33259 -0.841409 0
M  V30 3587 C 339.762 -1.15174 -1.58096 0
M  V30 3588 C 340.142 0.282858 -2.09196 0
M  V30 3589 O 339.49 1.28151 -1.89181 0
M  V30 3590 C 339.7 -2.1907 -2.71679 0
M  V30 3591 C 341.048 -2.53093 -3.40924 0
M  V30 3592 O 342.072 -2.17717 -2.81918 0
M  V30 3593 O 340.931 -3.1379 -4.47435 0
M  V30 3594 H 338.025 -0.445303 -0.696875 0
M  V30 3595 H 340.571 -1.44833 -0.884385 0
M  V30 3596 H 339.343 -3.15443 -2.31541 0
M  V30 3597 H 338.966 -1.90481 -3.49002 0
M  V30 3598 N 339.963 1.05934 -1.16686 0
M  V30 3599 C 340.926 2.11669 -0.879144 0
M  V30 3600 C 341.926 1.60294 0.127445 0
M  V30 3601 O 343.116 1.7389 -0.103865 0
M  V30 3602 C 340.248 3.39438 -0.315425 0
M  V30 3603 H 341.441 2.38626 -1.81653 0
M  V30 3604 H 338.994 1.22058 -0.976299 0
M  V30 3605 H 339.729 3.18132 0.629468 0
M  V30 3606 H 339.514 3.78034 -1.04079 0
M  V30 3607 H 341.004 4.17391 -0.132189 0
M  V30 3608 N 341.441 0.965919 1.2453 0
M  V30 3609 C 342.388 0.49402 2.25451 0
M  V30 3610 C 343.358 -0.45948 1.59618 0
M  V30 3611 O 344.543 -0.370238 1.87173 0
M  V30 3612 C 341.683 -0.211359 3.44452 0
M  V30 3613 C 340.796 0.7807 4.24887 0
M  V30 3614 C 339.931 0.0516105 5.31175 0
M  V30 3615 C 338.97 1.03385 6.03306 0
M  V30 3616 N 338.107 0.334887 7.01301 0
M  V30 3617 H 342.947 1.35946 2.65184 0
M  V30 3618 H 340.484 0.681515 1.3036 0
M  V30 3619 H 342.442 -0.637 4.12308 0
M  V30 3620 H 341.072 -1.04077 3.05562 0
M  V30 3621 H 340.124 1.32479 3.56586 0
M  V30 3622 H 341.436 1.52978 4.74762 0
M  V30 3623 H 340.59 -0.432114 6.05159 0
M  V30 3624 H 339.329 -0.730179 4.82203 0
M  V30 3625 H 338.334 1.52847 5.28127 0
M  V30 3626 H 339.559 1.81606 6.54367 0
M  V30 3627 H 337.505 -0.427959 6.54603 0
M  V30 3628 H 337.422 1.02287 7.49048 0
M  V30 3629 H 338.69 -0.126928 7.79397 0
M  V30 3630 N 342.919 -1.39368 0.735821 0
M  V30 3631 C 344.168 -1.99733 0.281004 0
M  V30 3632 C 344.481 -1.59055 -1.13846 0
M  V30 3633 O 345.687 -2.12262 -1.69284 0
M  V30 3634 C 344.143 -3.57057 0.451462 0
M  V30 3635 C 343.751 -4.06697 1.87886 0
M  V30 3636 C 345.495 -4.2446 0.0584616 0
M  V30 3637 C 343.402 -5.56598 1.99883 0
M  V30 3638 H 342.332 -0.747163 0.101311 0
M  V30 3639 H 344.983 -1.59357 0.909819 0
M  V30 3640 H 343.365 -3.95234 -0.246263 0
M  V30 3641 H 344.539 -3.79853 2.60861 0
M  V30 3642 H 342.854 -3.5196 2.22515 0
M  V30 3643 H 345.451 -5.34549 0.127099 0
M  V30 3644 H 345.794 -4.04444 -0.986433 0
M  V30 3645 H 346.327 -3.9146 0.707374 0
M  V30 3646 H 343.066 -5.81494 3.02564 0
M  V30 3647 H 342.586 -5.85242 1.31346 0
M  V30 3648 H 344.265 -6.22022 1.78039 0
M  V30 3649 N 344.397 -0.483516 -1.5 0
M  V30 3650 C 345.36 0.292965 -2.2732 0
M  V30 3651 C 346.36 0.909499 -1.32608 0
M  V30 3652 O 347.55 0.776745 -1.55924 0
M  V30 3653 C 344.682 1.41854 -3.09984 0
M  V30 3654 H 345.875 -0.385289 -2.97415 0
M  V30 3655 H 343.428 -0.237942 -1.54478 0
M  V30 3656 H 344.163 2.13148 -2.44414 0
M  V30 3657 H 343.948 0.982114 -3.79601 0
M  V30 3658 H 345.438 1.96597 -3.68429 0
M  V30 3659 N 345.875 1.56104 -0.216619 0
M  V30 3660 C 346.785 2.23694 0.706982 0
M  V30 3661 C 347.801 1.24295 1.21765 0
M  V30 3662 O 348.977 1.57094 1.2603 0
M  V30 3663 C 346.042 2.8998 1.90033 0
M  V30 3664 C 345.103 4.04708 1.43213 0
M  V30 3665 C 344.336 4.67824 2.56859 0
M  V30 3666 O 344.559 4.29913 3.74874 0
M  V30 3667 O 343.493 5.56905 2.28343 0
M  V30 3668 H 347.319 3.03272 0.161235 0
M  V30 3669 H 344.904 1.49394 0.0136177 0
M  V30 3670 H 346.786 3.31837 2.59735 0
M  V30 3671 H 345.461 2.13365 2.43428 0
M  V30 3672 H 344.368 3.6743 0.70327 0
M  V30 3673 H 345.701 4.83051 0.944615 0
M  V30 3674 N 347.353 -0.0568162 1.57498 0
M  V30 3675 C 348.316 -1.05038 2.03715 0
M  V30 3676 C 349.316 -1.30709 0.936577 0
M  V30 3677 O 350.506 -1.26178 1.20103 0
M  V30 3678 C 347.638 -2.39034 2.43055 0
M  V30 3679 H 348.831 -0.651715 2.92733 0
M  V30 3680 H 346.384 -0.302947 1.53336 0
M  V30 3681 H 347.119 -2.83703 1.57108 0
M  V30 3682 H 346.904 -2.21739 3.2338 0
M  V30 3683 H 348.394 -3.10421 2.79336 0
M  V30 3684 N 348.832 -1.54138 -0.328536 0
M  V30 3685 C 349.765 -1.78014 -1.4278 0
M  V30 3686 C 350.743 -0.629889 -1.49904 0
M  V30 3687 O 351.927 -0.866763 -1.6739 0
M  V30 3688 C 349.054 -1.89225 -2.80912 0
M  V30 3689 C 348.1 -3.11483 -2.91343 0
M  V30 3690 S 348.933 -4.70201 -2.56263 0
M  V30 3691 C 350.089 -4.84312 -3.96476 0
M  V30 3692 H 350.322 -2.70974 -1.22313 0
M  V30 3693 H 347.855 -1.45197 -0.525084 0
M  V30 3694 H 349.813 -1.9637 -3.60485 0
M  V30 3695 H 348.474 -0.972518 -2.98665 0
M  V30 3696 H 347.667 -3.16046 -3.92595 0
M  V30 3697 H 347.269 -3.02642 -2.19736 0
M  V30 3698 H 349.561 -4.66643 -4.91173 0
M  V30 3699 H 350.504 -5.86411 -3.96898 0
M  V30 3700 H 350.912 -4.12652 -3.85199 0
M  V30 3701 N 350.31 0.590341 -1.46126 0
M  V30 3702 C 351.243 1.71434 -1.50617 0
M  V30 3703 C 352.221 1.58543 -0.360948 0
M  V30 3704 O 353.405 1.79865 -0.563985 0
M  V30 3705 C 350.532 3.09422 -1.37753 0
M  V30 3706 C 349.578 3.40854 -2.5636 0
M  V30 3707 S 350.411 3.33773 -4.18755 0
M  V30 3708 C 351.567 4.74312 -4.08386 0
M  V30 3709 H 351.8 1.67364 -2.45717 0
M  V30 3710 H 349.333 0.76845 -1.33919 0
M  V30 3711 H 351.291 3.8903 -1.31018 0
M  V30 3712 H 349.952 3.10989 -0.440949 0
M  V30 3713 H 349.145 4.41368 -2.43332 0
M  V30 3714 H 348.747 2.68798 -2.60046 0
M  V30 3715 H 351.039 5.64522 -3.74595 0
M  V30 3716 H 351.982 4.92397 -5.08872 0
M  V30 3717 H 352.39 4.50803 -3.3976 0
M  V30 3718 N 351.788 1.33704 0.83433 0
M  V30 3719 C 353.036 1.25169 1.58673 0
M  V30 3720 C 353.357 -0.18127 1.94156 0
M  V30 3721 O 352.627 -1.11113 1.6134 0
M  V30 3722 H 351.207 0.4603 0.58833 0
M  V30 3723 H 353.869 1.67478 0.996847 0
M  V30 3724 H 352.965 1.84856 2.51465 0
M  V30 3725 N 353.266 -1.05314 1.17247 0
M  V30 3726 C 354.196 -2.1498 0.911362 0
M  V30 3727 C 355.177 -1.69471 -0.146169 0
M  V30 3728 O 356.362 -1.942 0.003812 0
M  V30 3729 C 353.492 -3.4472 0.422528 0
M  V30 3730 C 352.446 -4.03789 1.4191 0
M  V30 3731 C 351.772 -5.28858 0.788274 0
M  V30 3732 C 353.072 -4.41418 2.7919 0
M  V30 3733 H 354.766 -2.3708 1.82848 0
M  V30 3734 H 352.312 -1.13938 0.880569 0
M  V30 3735 H 354.265 -4.20787 0.227289 0
M  V30 3736 H 352.989 -3.22269 -0.530123 0
M  V30 3737 H 351.648 -3.2979 1.60106 0
M  V30 3738 H 351.296 -5.02709 -0.171173 0
M  V30 3739 H 350.996 -5.69338 1.45353 0
M  V30 3740 H 352.52 -6.07612 0.603282 0
M  V30 3741 H 353.934 -5.08524 2.64719 0
M  V30 3742 H 352.331 -4.92913 3.42282 0
M  V30 3743 H 353.401 -3.51819 3.33693 0
M  V30 3744 N 354.744 -0.972509 -1.24016 0
M  V30 3745 C 355.692 -0.498562 -2.27194 0
M  V30 3746 C 356.686 0.440372 -1.63576 0
M  V30 3747 O 357.892 0.315133 -1.7722 0
M  V30 3748 H 354.267 -0.142775 -0.738322 0
M  V30 3749 H 356.238 -1.38065 -2.64539 0
M  V30 3750 C 354.987 0.191072 -3.47175 0
M  V30 3751 H 354.31 -0.522318 -3.96373 0
M  V30 3752 H 355.75 0.486445 -4.212 0
M  V30 3753 C 354.209 1.41967 -3.05527 0
M  V30 3754 O 354.739 2.51642 -3.13112 0
M  V30 3755 N 352.945 1.28746 -2.60524 0
M  V30 3756 H 352.492 0.395089 -2.54552 0
M  V30 3757 H 352.45 2.11061 -2.33025 0
M  V30 3758 N 356.222 1.38976 -0.743202 0
M  V30 3759 C 357.47 1.99948 -0.29417 0
M  V30 3760 C 357.791 1.59279 1.12495 0
M  V30 3761 O 357.061 0.844808 1.76748 0
M  V30 3762 H 355.641 0.739473 -0.105774 0
M  V30 3763 H 358.303 1.699 -0.954986 0
M  V30 3764 H 357.399 3.10142 -0.349056 0
M  V30 3765 N 357.7 0.491464 1.49741 0
M  V30 3766 C 358.946 -0.0565092 2.02721 0
M  V30 3767 C 359.279 -1.37522 1.37118 0
M  V30 3768 O 358.554 -1.87866 0.503645 0
M  V30 3769 C 358.837 -0.219051 3.59433 0
M  V30 3770 C 358.69 1.12211 4.35579 0
M  V30 3771 C 360.009 -0.964157 4.29409 0
M  V30 3772 H 357.128 -0.0190627 0.736753 0
M  V30 3773 H 359.77 0.641021 1.7886 0
M  V30 3774 H 357.92 -0.813165 3.79895 0
M  V30 3775 H 359.592 1.75437 4.26637 0
M  V30 3776 H 357.835 1.71377 3.98513 0
M  V30 3777 H 358.506 0.961794 5.43556 0
M  V30 3778 H 360.982 -0.460378 4.13545 0
M  V30 3779 H 359.858 -1.04671 5.38828 0
M  V30 3780 H 360.119 -2.00563 3.93988 0
M  V30 3781 N 359.178 -1.55987 0.224894 0
M  V30 3782 C 360.125 -2.20436 -0.68385 0
M  V30 3783 C 361.095 -1.16102 -1.18783 0
M  V30 3784 O 362.28 -1.4447 -1.24632 0
M  V30 3785 C 359.42 -2.89076 -1.88491 0
M  V30 3786 C 358.533 -4.08012 -1.41951 0
M  V30 3787 C 357.668 -4.64426 -2.5784 0
M  V30 3788 C 356.707 -5.75656 -2.08053 0
M  V30 3789 N 355.844 -6.26347 -3.17227 0
M  V30 3790 H 360.684 -2.97727 -0.12754 0
M  V30 3791 H 358.221 -1.47011 -0.0511978 0
M  V30 3792 H 360.179 -3.27059 -2.59014 0
M  V30 3793 H 358.809 -2.14298 -2.41405 0
M  V30 3794 H 357.861 -3.75492 -0.609095 0
M  V30 3795 H 359.173 -4.88375 -1.01447 0
M  V30 3796 H 358.327 -5.04869 -3.3644 0
M  V30 3797 H 357.066 -3.83233 -3.01635 0
M  V30 3798 H 356.071 -5.34712 -1.27916 0
M  V30 3799 H 357.296 -6.58686 -1.65255 0
M  V30 3800 H 355.242 -5.48067 -3.60497 0
M  V30 3801 H 355.159 -7.01843 -2.80986 0
M  V30 3802 H 356.427 -6.71447 -3.95953 0
M  V30 3803 N 360.656 0.0484629 -1.57525 0
M  V30 3804 C 361.619 1.03956 -2.04269 0
M  V30 3805 C 362.619 1.30211 -0.943496 0
M  V30 3806 O 363.809 1.25539 -1.20771 0
M  V30 3807 C 360.941 2.37742 -2.44319 0
M  V30 3808 H 362.134 0.636182 -2.93075 0
M  V30 3809 H 359.687 0.294811 -1.53494 0
M  V30 3810 H 360.422 2.82866 -1.5861 0
M  V30 3811 H 360.207 2.20021 -3.24551 0
M  V30 3812 H 361.697 3.08936 -2.80978 0
M  V30 3813 N 362.134 1.5431 0.320358 0
M  V30 3814 C 363.38 1.72924 1.05949 0
M  V30 3815 C 363.713 0.503185 1.87568 0
M  V30 3816 O 362.988 -0.499839 1.87968 0
M  V30 3817 C 363.271 3.00676 1.98156 0
M  V30 3818 C 363.124 4.3354 1.19845 0
M  V30 3819 C 364.443 3.24198 2.9763 0
M  V30 3820 H 361.562 0.629195 0.383774 0
M  V30 3821 H 364.204 1.87008 0.335854 0
M  V30 3822 H 362.354 2.888 2.59859 0
M  V30 3823 H 364.026 4.57305 0.605773 0
M  V30 3824 H 362.269 4.309 0.500784 0
M  V30 3825 H 362.94 5.19156 1.87567 0
M  V30 3826 H 365.416 3.35557 2.4605 0
M  V30 3827 H 364.292 4.14938 3.59329 0
M  V30 3828 H 364.553 2.41577 3.7026 0
M  V30 3829 N 363.613 -0.582584 1.46437 0
M  V30 3830 C 364.523 -1.71949 1.59595 0
M  V30 3831 C 365.539 -1.67264 0.479443 0
M  V30 3832 O 366.715 -1.87171 0.743579 0
M  V30 3833 C 363.78 -3.08452 1.58298 0
M  V30 3834 C 362.841 -3.244 2.81182 0
M  V30 3835 C 362.074 -4.54391 2.79937 0
M  V30 3836 O 362.297 -5.38287 1.8869 0
M  V30 3837 O 361.231 -4.73588 3.71481 0
M  V30 3838 H 365.057 -1.63795 2.55744 0
M  V30 3839 H 362.642 -0.749643 1.29231 0
M  V30 3840 H 364.524 -3.89732 1.60271 0
M  V30 3841 H 363.199 -3.17043 0.653094 0
M  V30 3842 H 362.106 -2.42613 2.84763 0
M  V30 3843 H 363.439 -3.20699 3.7338 0
M  V30 3844 N 365.091 -1.34144 -0.827227 0
M  V30 3845 C 366.34 -1.25602 -1.5782 0
M  V30 3846 C 366.653 0.173445 -1.94829 0
M  V30 3847 O 367.859 0.380984 -2.68814 0
M  V30 3848 C 366.315 -2.20151 -2.84713 0
M  V30 3849 C 365.923 -3.68331 -2.55021 0
M  V30 3850 C 367.667 -2.20508 -3.62735 0
M  V30 3851 C 365.574 -4.54762 -3.78082 0
M  V30 3852 H 364.504 -0.466573 -0.592306 0
M  V30 3853 H 367.155 -1.59283 -0.911116 0
M  V30 3854 H 365.537 -1.79417 -3.53023 0
M  V30 3855 H 366.711 -4.17577 -1.94849 0
M  V30 3856 H 365.026 -3.7038 -1.90283 0
M  V30 3857 H 367.623 -2.82306 -4.54101 0
M  V30 3858 H 367.966 -1.20322 -3.98533 0
M  V30 3859 H 368.499 -2.59664 -3.01362 0
M  V30 3860 H 365.238 -5.55867 -3.47407 0
M  V30 3861 H 364.758 -4.10254 -4.37552 0
M  V30 3862 H 366.437 -4.69153 -4.45538 0
M  V30 3863 N 366.569 1.04691 -1.17803 0
M  V30 3864 C 367.817 1.7743 -0.967617 0
M  V30 3865 C 368.138 1.88359 0.504574 0
M  V30 3866 O 367.408 1.40402 1.36617 0
M  V30 3867 H 365.988 0.657242 -0.355024 0
M  V30 3868 H 368.65 1.2638 -1.48371 0
M  V30 3869 H 367.746 2.78924 -1.40027 0
M  V30 3870 N 368.047 0.979072 1.23499 0
M  V30 3871 C 368.994 0.517904 2.24914 0
M  V30 3872 C 369.964 -0.442525 1.60097 0
M  V30 3873 O 371.149 -0.350365 1.87556 0
M  V30 3874 C 368.289 -0.174813 3.44657 0
M  V30 3875 C 367.402 0.825721 4.24035 0
M  V30 3876 C 366.537 0.107946 5.3109 0
M  V30 3877 C 365.576 1.09778 6.02175 0
M  V30 3878 N 364.713 0.40925 7.00906 0
M  V30 3879 H 369.553 1.38751 2.63727 0
M  V30 3880 H 367.09 0.695303 1.2963 0
M  V30 3881 H 369.048 -0.593233 4.12961 0
M  V30 3882 H 367.678 -1.0083 3.06648 0
M  V30 3883 H 366.73 1.36253 3.55161 0
M  V30 3884 H 368.042 1.58005 4.73113 0
M  V30 3885 H 367.196 -0.367904 6.05583 0
M  V30 3886 H 365.935 -0.678994 4.8295 0
M  V30 3887 H 364.94 1.5844 5.26476 0
M  V30 3888 H 366.165 1.88536 6.52404 0
M  V30 3889 H 364.111 -0.358506 6.5502 0
M  V30 3890 H 364.028 1.10226 7.47921 0
M  V30 3891 H 365.296 -0.0442557 7.79487 0
M  V30 3892 N 369.525 -1.3858 0.750561 0
M  V30 3893 C 370.773 -1.99789 0.30477 0
M  V30 3894 C 371.094 -1.59874 -1.11649 0
M  V30 3895 O 370.364 -0.85417 -1.76297 0
M  V30 3896 H 368.944 -0.738902 0.109694 0
M  V30 3897 H 371.606 -1.69391 0.963983 0
M  V30 3898 H 370.702 -3.09952 0.365499 0
M  V30 3899 N 371.003 -0.499398 -1.49478 0
M  V30 3900 C 372.249 0.0457576 -2.02748 0
M  V30 3901 C 372.582 1.36793 -1.37846 0
M  V30 3902 O 371.857 1.87596 -0.513601 0
M  V30 3903 C 372.14 0.199986 -3.59544 0
M  V30 3904 C 371.993 -1.1452 -4.34977 0
M  V30 3905 C 373.312 0.94137 -4.29914 0
M  V30 3906 H 370.431 0.0151552 -0.736844 0
M  V30 3907 H 373.073 -0.650498 -1.78518 0
M  V30 3908 H 371.223 0.793007 -3.8032 0
M  V30 3909 H 372.895 -1.77697 -4.25701 0
M  V30 3910 H 371.138 -1.73488 -3.97598 0
M  V30 3911 H 371.809 -0.990607 -5.43039 0
M  V30 3912 H 374.285 0.43844 -4.13784 0
M  V30 3913 H 373.161 1.01812 -5.39375 0
M  V30 3914 H 373.422 1.98471 -3.95046 0
M  V30 3915 N 372.481 1.55866 -0.233164 0
M  V30 3916 C 373.391 2.24431 0.683217 0
M  V30 3917 C 374.407 1.2558 1.2044 0
M  V30 3918 O 375.583 1.58422 1.24356 0
M  V30 3919 C 372.648 2.91979 1.86947 0
M  V30 3920 C 371.709 4.06204 1.38912 0
M  V30 3921 C 370.942 4.70522 2.51883 0
M  V30 3922 O 371.165 4.33865 3.70293 0
M  V30 3923 O 370.099 5.59296 2.22423 0
M  V30 3924 H 373.925 3.03426 0.129059 0
M  V30 3925 H 371.51 1.494 -0.0022283 0
M  V30 3926 H 373.392 3.34573 2.56201 0
M  V30 3927 H 372.067 2.15935 2.41151 0
M  V30 3928 H 370.974 3.68155 0.664259 0
M  V30 3929 H 372.307 4.84025 0.893328 0
M  V30 3930 N 373.959 -0.0401083 1.57549 0
M  V30 3931 C 375.184 -0.748931 1.93406 0
M  V30 3932 C 375.609 -1.68686 0.832274 0
M  V30 3933 O 374.967 -1.80047 -0.212818 0
M  V30 3934 C 375.015 -1.4916 3.28304 0
M  V30 3935 O 374.119 -2.6042 3.19774 0
M  V30 3936 H 373.46 -0.202212 0.63246 0
M  V30 3937 H 375.99 0.00112086 2.046 0
M  V30 3938 H 376 -1.86395 3.62934 0
M  V30 3939 H 374.675 -0.80364 4.08062 0
M  V30 3940 H 373.252 -2.25808 2.96758 0
M  V30 3941 N 375.437 -1.54477 -0.31217 0
M  V30 3942 C 376.662 -1.77526 -1.07235 0
M  V30 3943 C 377.087 -0.527775 -1.80544 0
M  V30 3944 O 376.445 0.52121 -1.73646 0
M  V30 3945 C 376.493 -2.97535 -2.03728 0
M  V30 3946 O 375.597 -2.69878 -3.11833 0
M  V30 3947 H 374.938 -0.58792 -0.30862 0
M  V30 3948 H 377.468 -2.01532 -0.352993 0
M  V30 3949 H 377.478 -3.25198 -2.46395 0
M  V30 3950 H 376.153 -3.87996 -1.49774 0
M  V30 3951 H 374.73 -2.53199 -2.7376 0
M  V30 3952 N 376.915 0.57481 -1.46744 0
M  V30 3953 C 377.845 1.69337 -1.60771 0
M  V30 3954 C 378.826 1.63825 -0.457736 0
M  V30 3955 O 380.011 1.8172 -0.684947 0
M  V30 3956 C 377.141 3.0798 -1.60517 0
M  V30 3957 C 376.095 3.28327 -2.74564 0
M  V30 3958 C 375.421 4.67578 -2.59373 0
M  V30 3959 C 376.721 3.15398 -4.16319 0
M  V30 3960 H 378.415 1.57853 -2.54407 0
M  V30 3961 H 375.961 0.75799 -1.22436 0
M  V30 3962 H 377.914 3.86061 -1.68923 0
M  V30 3963 H 376.638 3.20381 -0.634305 0
M  V30 3964 H 375.297 2.52649 -2.65639 0
M  V30 3965 H 374.945 4.76755 -1.60353 0
M  V30 3966 H 374.645 4.82144 -3.35873 0
M  V30 3967 H 376.169 5.47817 -2.69682 0
M  V30 3968 H 377.583 3.83315 -4.26313 0
M  V30 3969 H 375.98 3.41482 -4.93468 0
M  V30 3970 H 377.05 2.12372 -4.3592 0
M  V30 3971 N 378.394 1.34581 0.820102 0
M  V30 3972 C 379.324 1.29038 1.94606 0
M  V30 3973 C 380.305 0.1673 1.69275 0
M  V30 3974 O 381.49 0.360112 1.90832 0
M  V30 3975 C 378.62 1.04793 3.31113 0
M  V30 3976 C 377.574 2.13597 3.70891 0
M  V30 3977 C 376.9 1.74537 5.05412 0
M  V30 3978 C 378.2 3.55451 3.8269 0
M  V30 3979 H 379.894 2.23248 1.99501 0
M  V30 3980 H 377.44 1.0747 0.958449 0
M  V30 3981 H 379.393 0.995592 4.0947 0
M  V30 3982 H 378.117 0.0702565 3.26524 0
M  V30 3983 H 376.776 2.17905 2.9481 0
M  V30 3984 H 376.424 0.754226 4.97313 0
M  V30 3985 H 376.124 2.47361 5.32997 0
M  V30 3986 H 377.648 1.70803 5.86224 0
M  V30 3987 H 379.062 3.5354 4.51312 0
M  V30 3988 H 377.459 4.26922 4.21732 0
M  V30 3989 H 378.529 3.92587 2.84611 0
M  V30 3990 N 379.872 -1.04064 1.18357 0
M  V30 3991 C 380.819 -2.12077 0.910603 0
M  V30 3992 C 381.789 -1.65421 -0.15 0
M  V30 3993 O 382.974 -1.90797 -0.0103614 0
M  V30 3994 C 380.114 -3.42252 0.442472 0
M  V30 3995 C 379.227 -4.0252 1.5685 0
M  V30 3996 C 378.362 -5.20657 1.05309 0
M  V30 3997 C 377.401 -5.72955 2.1538 0
M  V30 3998 N 376.538 -6.8238 1.65233 0
M  V30 3999 H 381.378 -2.34764 1.83548 0
M  V30 4000 H 378.915 -1.15157 0.915279 0
M  V30 4001 H 380.873 -4.16921 0.152534 0
M  V30 4002 H 379.503 -3.19712 -0.445428 0
M  V30 4003 H 378.555 -3.25178 1.97391 0
M  V30 4004 H 379.867 -4.37362 2.39824 0
M  V30 4005 H 379.021 -6.0244 0.717677 0
M  V30 4006 H 377.76 -4.87318 0.19293 0
M  V30 4007 H 376.765 -4.89793 2.49766 0
M  V30 4008 H 377.99 -6.08337 3.01832 0
M  V30 4009 H 375.936 -6.50917 0.815064 0
M  V30 4010 H 375.853 -7.16286 2.41805 0
M  V30 4011 H 377.121 -7.67788 1.34619 0
M  V30 4012 N 381.35 -0.985608 -1.22978 0
M  V30 4013 C 382.598 -0.656087 -1.91154 0
M  V30 4014 C 382.919 0.813561 -1.77218 0
M  V30 4015 O 382.189 1.58244 -1.1548 0
M  V30 4016 H 380.769 -0.239674 -0.707506 0
M  V30 4017 H 383.431 -1.25054 -1.49491 0
M  V30 4018 H 382.527 -0.912253 -2.9847 0
M  V30 4019 N 382.828 1.3818 -0.7579 0
M  V30 4020 C 384.053 2.04827 -0.325679 0
M  V30 4021 C 384.478 1.56788 1.03919 0
M  V30 4022 O 383.836 0.721811 1.66312 0
M  V30 4023 C 383.884 3.58774 -0.362447 0
M  V30 4024 O 382.988 4.07372 0.642033 0
M  V30 4025 H 382.329 0.64833 -0.143402 0
M  V30 4026 H 384.859 1.7677 -1.03023 0
M  V30 4027 H 384.869 4.07434 -0.214844 0
M  V30 4028 H 383.544 3.93096 -1.35824 0
M  V30 4029 H 382.121 3.70068 0.458688 0
M  V30 4030 N 384.306 0.507319 1.49211 0
M  V30 4031 C 385.216 -0.272136 2.33016 0
M  V30 4032 C 386.232 -0.961206 1.45041 0
M  V30 4033 O 387.408 -0.941191 1.78055 0
M  V30 4034 C 384.473 -1.31895 3.20631 0
M  V30 4035 C 383.534 -0.642648 4.24463 0
M  V30 4036 C 382.767 -1.63959 5.07891 0
M  V30 4037 O 382.99 -2.87007 4.92933 0
M  V30 4038 O 381.924 -1.19143 5.8999 0
M  V30 4039 H 385.75 0.413982 3.00865 0
M  V30 4040 H 383.335 0.268556 1.46966 0
M  V30 4041 H 385.217 -1.92446 3.7489 0
M  V30 4042 H 383.892 -1.98788 2.5547 0
M  V30 4043 H 382.799 0.00276252 3.741 0
M  V30 4044 H 384.132 -0.0160534 4.92197 0
M  V30 4045 N 385.784 -1.5574 0.241426 0
M  V30 4046 C 387.014 -2.02913 -0.38857 0
M  V30 4047 C 387.422 -1.12014 -1.52478 0
M  V30 4048 O 386.765 -0.125903 -1.83268 0
M  V30 4049 C 386.827 -3.4636 -0.963075 0
M  V30 4050 C 386.491 -4.56982 0.0401916 0
M  V30 4051 C 387.488 -5.12941 0.847766 0
M  V30 4052 C 385.173 -5.0203 0.164699 0
M  V30 4053 C 387.167 -6.12437 1.76636 0
M  V30 4054 C 384.854 -6.01358 1.0868 0
M  V30 4055 C 385.852 -6.5644 1.88616 0
M  V30 4056 O 385.54 -7.53831 2.79273 0
M  V30 4057 H 385.272 -0.668983 -0.0971452 0
M  V30 4058 H 387.826 -2.02198 0.361248 0
M  V30 4059 H 386.056 -3.44206 -1.76235 0
M  V30 4060 H 387.745 -3.77065 -1.50257 0
M  V30 4061 H 388.511 -4.78974 0.762133 0
M  V30 4062 H 384.39 -4.58824 -0.447411 0
M  V30 4063 H 387.934 -6.55355 2.39071 0
M  V30 4064 H 383.831 -6.34746 1.17338 0
M  V30 4065 H 384.599 -7.71428 2.73572 0
M  V30 4066 N 387.262 0.0317525 -1.57568 0
M  V30 4067 C 388.21 1.05165 -2.07468 0
M  V30 4068 C 389.204 1.3761 -0.98792 0
M  V30 4069 O 390.41 1.36546 -1.17282 0
M  V30 4070 H 386.785 0.35666 -0.66204 0
M  V30 4071 H 388.756 0.604958 -2.92203 0
M  V30 4072 C 387.505 2.34488 -2.56731 0
M  V30 4073 H 386.828 2.10383 -3.39969 0
M  V30 4074 H 388.268 3.04203 -2.95358 0
M  V30 4075 C 386.727 3.03266 -1.46736 0
M  V30 4076 O 387.257 3.92988 -0.832069 0
M  V30 4077 N 385.463 2.6455 -1.20256 0
M  V30 4078 H 385.01 1.91674 -1.72102 0
M  V30 4079 H 384.968 3.10886 -0.468737 0
M  V30 4080 N 388.74 1.54641 0.303973 0
M  V30 4081 C 390.017 1.64455 1.05896 0
M  V30 4082 C 390.397 0.490923 2.05312 0
M  V30 4083 O 389.745 -0.512685 2.22674 0
M  V30 4084 C 389.955 3.02331 1.74347 0
M  V30 4085 C 391.303 3.59045 2.26653 0
M  V30 4086 O 392.327 3.04764 1.84384 0
M  V30 4087 O 391.186 4.54081 3.04093 0
M  V30 4088 H 388.28 0.666729 0.489287 0
M  V30 4089 H 390.826 1.66986 0.302298 0
M  V30 4090 H 389.598 3.77734 1.02142 0
M  V30 4091 H 389.221 3.03565 2.56777 0
M  V30 4092 N 390.218 -0.567019 1.47046 0
M  V30 4093 C 391.148 -1.68482 1.61667 0
M  V30 4094 C 392.129 -1.6358 0.466418 0
M  V30 4095 O 393.314 -1.81354 0.694574 0
M  V30 4096 C 390.444 -3.07124 1.62148 0
M  V30 4097 C 389.398 -3.26867 2.76301 0
M  V30 4098 C 388.724 -4.66196 2.61849 0
M  V30 4099 C 390.024 -3.13186 4.17986 0
M  V30 4100 H 391.718 -1.56502 2.5524 0
M  V30 4101 H 389.264 -0.751486 1.22836 0
M  V30 4102 H 391.217 -3.8516 1.70968 0
M  V30 4103 H 389.941 -3.2004 0.651287 0
M  V30 4104 H 388.6 -2.51237 2.66975 0
M  V30 4105 H 388.248 -4.75898 1.62879 0
M  V30 4106 H 387.948 -4.80356 3.38425 0
M  V30 4107 H 389.472 -5.46379 2.72584 0
M  V30 4108 H 390.886 -3.81049 4.2834 0
M  V30 4109 H 389.283 -3.3886 4.95272 0
M  V30 4110 H 390.353 -2.10057 4.3704 0
M  V30 4111 N 391.696 -1.35014 -0.812953 0
M  V30 4112 C 392.629 -1.21761 -1.93001 0
M  V30 4113 C 393.607 -0.10694 -1.62248 0
M  V30 4114 O 394.791 -0.273891 -1.865 0
M  V30 4115 C 391.918 -0.873404 -3.27245 0
M  V30 4116 C 390.964 -1.99523 -3.76952 0
M  V30 4117 S 391.797 -3.61009 -3.95516 0
M  V30 4118 C 392.953 -3.28651 -5.32672 0
M  V30 4119 H 393.186 -2.16315 -2.03948 0
M  V30 4120 H 390.719 -1.20156 -0.969631 0
M  V30 4121 H 392.677 -0.68161 -4.04802 0
M  V30 4122 H 391.338 0.053971 -3.14054 0
M  V30 4123 H 390.531 -1.70838 -4.74163 0
M  V30 4124 H 390.133 -2.14503 -3.06373 0
M  V30 4125 H 392.425 -2.81085 -6.1644 0
M  V30 4126 H 393.368 -4.25039 -5.66346 0
M  V30 4127 H 393.776 -2.6458 -4.98656 0
M  V30 4128 N 393.175 1.03435 -1.18907 0
M  V30 4129 C 394.452 1.73778 -0.89781 0
M  V30 4130 C 394.832 2.02458 0.597832 0
M  V30 4131 O 394.18 1.67482 1.55441 0
M  V30 4132 C 394.39 3.01845 -1.75187 0
M  V30 4133 C 395.738 3.7546 -1.9828 0
M  V30 4134 O 396.762 3.11759 -1.72293 0
M  V30 4135 O 395.621 4.89966 -2.42065 0
M  V30 4136 H 392.715 0.75651 -0.334098 0
M  V30 4137 H 395.261 1.09444 -1.29693 0
M  V30 4138 H 394.033 2.76836 -2.76545 0
M  V30 4139 H 393.656 3.73919 -1.35167 0
M  V30 4140 N 394.653 0.992116 1.22453 0
M  V30 4141 C 395.585 0.500024 2.23679 0
M  V30 4142 C 396.598 -0.404463 1.57696 0
M  V30 4143 O 397.787 -0.206722 1.77299 0
M  V30 4144 C 394.887 -0.294711 3.37616 0
M  V30 4145 C 394.06 0.605723 4.33186 0
M  V30 4146 C 393.119 -0.13717 5.26021 0
M  V30 4147 O 392.145 0.477164 5.67196 0
M  V30 4148 N 393.347 -1.4197 5.62872 0
M  V30 4149 H 396.112 1.37045 2.66531 0
M  V30 4150 H 393.673 0.866741 1.36745 0
M  V30 4151 H 395.665 -0.800329 3.96707 0
M  V30 4152 H 394.235 -1.06623 2.93854 0
M  V30 4153 H 393.455 1.29202 3.72425 0
M  V30 4154 H 394.743 1.21896 4.93983 0
M  V30 4155 H 394.141 -1.94015 5.31389 0
M  V30 4156 H 392.698 -1.87052 6.24383 0
M  V30 4157 N 396.131 -1.37776 0.765217 0
M  V30 4158 C 397.078 -2.30342 0.145274 0
M  V30 4159 C 398.048 -1.5077 -0.696971 0
M  V30 4160 O 399.233 -1.79362 -0.650689 0
M  V30 4161 C 396.373 -3.37227 -0.732939 0
M  V30 4162 C 395.486 -4.31819 0.125199 0
M  V30 4163 C 394.621 -5.25777 -0.757107 0
M  V30 4164 C 393.66 -6.12012 0.103963 0
M  V30 4165 N 392.797 -6.98232 -0.735953 0
M  V30 4166 H 397.637 -2.8278 0.940195 0
M  V30 4167 H 395.174 -1.39211 0.475255 0
M  V30 4168 H 397.132 -3.97818 -1.25686 0
M  V30 4169 H 395.762 -2.86171 -1.49353 0
M  V30 4170 H 394.814 -3.7259 0.766865 0
M  V30 4171 H 396.126 -4.92509 0.789683 0
M  V30 4172 H 395.28 -5.91541 -1.34776 0
M  V30 4173 H 394.019 -4.65481 -1.45529 0
M  V30 4174 H 393.024 -5.45233 0.707197 0
M  V30 4175 H 394.249 -6.74379 0.799381 0
M  V30 4176 H 392.195 -6.40472 -1.41887 0
M  V30 4177 H 392.112 -7.55891 -0.128624 0
M  V30 4178 H 393.38 -7.68393 -1.31121 0
M  V30 4179 N 397.609 -0.515225 -1.4894 0
M  V30 4180 C 398.857 0.0241671 -2.02086 0
M  V30 4181 C 399.178 1.3616 -1.3959 0
M  V30 4182 O 398.448 1.87841 -0.556121 0
M  V30 4183 H 397.028 0.0119203 -0.746905 0
M  V30 4184 H 399.69 -0.675702 -1.82812 0
M  V30 4185 H 398.786 0.143385 -3.1177 0
M  V30 4186 N 399.087 1.5561 -0.249682 0
M  V30 4187 C 400.334 1.99011 0.374287 0
M  V30 4188 C 400.662 1.13785 1.57744 0
M  V30 4189 O 399.917 0.189326 1.94782 0
M  V30 4190 C 400.216 3.4775 0.824887 0
M  V30 4191 C 399.882 4.50086 -0.270819 0
M  V30 4192 C 398.544 4.77791 -0.571746 0
M  V30 4193 C 400.896 5.11312 -1.01041 0
M  V30 4194 C 398.224 5.63997 -1.61629 0
M  V30 4195 C 400.576 5.98651 -2.0445 0
M  V30 4196 C 399.24 6.24688 -2.35204 0
M  V30 4197 H 398.51 0.728233 0.136961 0
M  V30 4198 H 401.157 1.88122 -0.358087 0
M  V30 4199 H 399.462 3.55985 1.63651 0
M  V30 4200 H 401.159 3.78721 1.31799 0
M  V30 4201 H 397.749 4.28592 -0.026136 0
M  V30 4202 H 401.933 4.89953 -0.791177 0
M  V30 4203 H 397.189 5.82425 -1.85988 0
M  V30 4204 H 401.363 6.45135 -2.62248 0
M  V30 4205 H 398.99 6.91281 -3.16282 0
M  V30 4206 N 400.565 -0.0233959 1.57583 0
M  V30 4207 C 401.495 -1.02162 2.09965 0
M  V30 4208 C 402.476 -1.3735 1.00344 0
M  V30 4209 O 403.661 -1.46135 1.27899 0
M  V30 4210 C 400.791 -2.32081 2.58371 0
M  V30 4211 C 399.745 -2.1112 3.72307 0
M  V30 4212 C 399.071 -3.46848 4.06941 0
M  V30 4213 C 400.371 -1.49276 5.00514 0
M  V30 4214 H 402.065 -0.585557 2.93618 0
M  V30 4215 H 399.611 -0.280218 1.41247 0
M  V30 4216 H 401.564 -3.02249 2.93639 0
M  V30 4217 H 400.288 -2.77758 1.71808 0
M  V30 4218 H 398.947 -1.43384 3.37397 0
M  V30 4219 H 398.595 -3.90184 3.17436 0
M  V30 4220 H 398.295 -3.33646 4.83688 0
M  V30 4221 H 399.819 -4.18369 4.44747 0
M  V30 4222 H 401.233 -2.09368 5.33702 0
M  V30 4223 H 399.63 -1.46632 5.8191 0
M  V30 4224 H 400.7 -0.459217 4.82721 0
M  V30 4225 N 402.043 -1.548 -0.295768 0
M  V30 4226 C 403.268 -1.78653 -1.05346 0
M  V30 4227 C 403.693 -0.546894 -1.79974 0
M  V30 4228 O 403.051 0.502763 -1.7419 0
M  V30 4229 C 403.099 -2.99679 -2.00561 0
M  V30 4230 O 402.203 -2.7317 -3.08953 0
M  V30 4231 H 401.544 -0.59116 -0.302367 0
M  V30 4232 H 404.074 -2.01895 -0.331598 0
M  V30 4233 H 404.084 -3.27793 -2.42932 0
M  V30 4234 H 402.759 -3.89562 -1.4565 0
M  V30 4235 H 401.336 -2.56089 -2.71059 0
M  V30 4236 N 403.521 0.559213 -1.47345 0
M  V30 4237 C 404.469 1.68747 -1.60085 0
M  V30 4238 C 405.463 1.628 -0.46825 0
M  V30 4239 O 406.669 1.68009 -0.645977 0
M  V30 4240 H 403.044 0.558329 -0.503759 0
M  V30 4241 H 405.015 1.55138 -2.54902 0
M  V30 4242 C 403.764 3.07103 -1.63042 0
M  V30 4243 H 403.087 3.12361 -2.49541 0
M  V30 4244 H 404.527 3.85743 -1.76006 0
M  V30 4245 C 402.986 3.34935 -0.363357 0
M  V30 4246 O 403.516 3.98102 0.536416 0
M  V30 4247 N 401.722 2.89574 -0.244 0
M  V30 4248 H 401.269 2.38348 -0.977133 0
M  V30 4249 H 401.227 3.08566 0.602836 0
M  V30 4250 N 404.999 1.35443 0.805782 0
M  V30 4251 C 406.415 1.15499 1.10146 0
M  V30 4252 C 406.615 -0.0319975 2.01475 0
M  V30 4253 O 405.671 -0.70236 2.42535 0
M  V30 4254 C 406.984 2.45833 1.73166 0
M  V30 4255 C 408.532 2.52047 1.85583 0
M  V30 4256 C 409.007 3.82427 2.52019 0
M  V30 4257 N 410.498 3.83682 2.59504 0
M  V30 4258 C 411.233 4.81294 3.11679 0
M  V30 4259 N 410.729 5.89294 3.64287 0
M  V30 4260 N 412.522 4.6873 3.1024 0
M  V30 4261 H 404.673 2.11469 0.198678 0
M  V30 4262 H 406.936 0.93594 0.150731 0
M  V30 4263 H 406.642 3.32874 1.13526 0
M  V30 4264 H 406.516 2.6044 2.72857 0
M  V30 4265 H 408.903 1.65435 2.44367 0
M  V30 4266 H 408.984 2.41354 0.847455 0
M  V30 4267 H 408.628 4.69437 1.93885 0
M  V30 4268 H 408.558 3.90409 3.53395 0
M  V30 4269 H 411.049 3.05648 2.22234 0
M  V30 4270 H 411.362 6.59768 4.02401 0
M  V30 4271 H 409.707 5.92985 3.62483 0
M  V30 4272 H 412.898 3.83496 2.68419 0
M  V30 4273 H 413.071 5.44965 3.50596 0
M  V30 4274 N 406.477 -1.02803 1.19454 0
M  V30 4275 C 407.702 -1.80378 1.02364 0
M  V30 4276 C 408.127 -1.83282 -0.423007 0
M  V30 4277 O 407.485 -1.25945 -1.30413 0
M  V30 4278 C 407.533 -3.23248 1.59821 0
M  V30 4279 O 406.637 -4.04 0.828105 0
M  V30 4280 H 405.978 -0.556799 0.361761 0
M  V30 4281 H 408.508 -1.29385 1.58495 0
M  V30 4282 H 408.518 -3.73994 1.63073 0
M  V30 4283 H 407.193 -3.2045 2.65113 0
M  V30 4284 H 405.77 -3.62635 0.86891 0
M  V30 4285 N 407.956 -0.998596 -1.21925 0
M  V30 4286 C 409.204 -0.676325 -1.90448 0
M  V30 4287 C 409.525 0.794719 -1.78071 0
M  V30 4288 O 408.795 1.5701 -1.17152 0
M  V30 4289 H 407.375 -0.247165 -0.704925 0
M  V30 4290 H 410.037 -1.26633 -1.48156 0
M  V30 4291 H 409.133 -0.943858 -2.97486 0
M  V30 4292 N 409.434 1.37368 -0.772513 0
M  V30 4293 C 410.682 1.99279 -0.336516 0
M  V30 4294 C 411.003 1.6163 1.09091 0
M  V30 4295 O 410.273 0.882109 1.74916 0
M  V30 4296 H 408.853 0.737063 -0.121435 0
M  V30 4297 H 411.515 1.67836 -0.990809 0
M  V30 4298 H 410.611 3.09332 -0.414763 0
M  V30 4299 N 410.912 0.523116 1.48665 0
M  V30 4300 C 412.158 -0.0134963 2.02796 0
M  V30 4301 C 412.491 -1.34582 1.40004 0
M  V30 4302 O 411.766 -1.86756 0.543381 0
M  V30 4303 C 412.049 -0.14276 3.59817 0
M  V30 4304 C 411.902 1.21425 4.331 0
M  V30 4305 C 413.221 -0.872856 4.31357 0
M  V30 4306 H 410.34 -0.00343074 0.736992 0
M  V30 4307 H 412.982 0.678816 1.7746 0
M  V30 4308 H 411.132 -0.732401 3.81534 0
M  V30 4309 H 412.804 1.84447 4.2282 0
M  V30 4310 H 411.047 1.79791 3.94788 0
M  V30 4311 H 411.718 1.07687 5.41394 0
M  V30 4312 H 414.194 -0.372555 4.14429 0
M  V30 4313 H 413.07 -0.932185 5.40927 0
M  V30 4314 H 413.331 -1.92161 3.98154 0
M  V30 4315 N 412.39 -1.55475 0.257931 0
M  V30 4316 C 413.32 -2.24815 -0.630912 0
M  V30 4317 C 414.301 -1.23224 -1.17259 0
M  V30 4318 O 415.486 -1.51904 -1.20991 0
M  V30 4319 C 412.616 -2.95609 -1.82298 0
M  V30 4320 C 411.57 -4.03982 -1.41359 0
M  V30 4321 C 410.896 -4.6226 -2.68738 0
M  V30 4322 C 412.196 -5.19109 -0.57648 0
M  V30 4323 H 413.89 -2.99354 -0.0526878 0
M  V30 4324 H 411.436 -1.4398 -0.023901 0
M  V30 4325 H 413.389 -3.42822 -2.45054 0
M  V30 4326 H 412.113 -2.18577 -2.42676 0
M  V30 4327 H 410.772 -3.57555 -0.809324 0
M  V30 4328 H 410.42 -3.81915 -3.27338 0
M  V30 4329 H 410.12 -5.35424 -2.42065 0
M  V30 4330 H 411.644 -5.12212 -3.32372 0
M  V30 4331 H 413.058 -5.62479 -1.10861 0
M  V30 4332 H 411.455 -5.98729 -0.405351 0
M  V30 4333 H 412.525 -4.83174 0.408776 0
M  V30 4334 N 413.868 0.0150385 -1.57593 0
M  V30 4335 C 415.116 0.701613 -1.8953 0
M  V30 4336 C 415.437 1.75139 -0.857396 0
M  V30 4337 O 414.707 1.95607 0.107194 0
M  V30 4338 H 413.287 0.26213 -0.699498 0
M  V30 4339 H 415.949 -0.0223304 -1.94887 0
M  V30 4340 H 415.045 1.18236 -2.88837 0
M  V30 4341 N 415.346 1.54954 0.287554 0
M  V30 4342 C 416.594 1.74528 1.01904 0
M  V30 4343 C 416.915 0.541349 1.87335 0
M  V30 4344 O 416.185 -0.444108 1.908 0
M  V30 4345 H 414.765 0.643576 0.379235 0
M  V30 4346 H 417.427 1.92333 0.315294 0
M  V30 4347 H 416.523 2.64015 1.6644 0
M  V30 4348 N 416.824 -0.551391 1.4764 0
M  V30 4349 C 417.757 -1.6738 1.5511 0
M  V30 4350 C 418.735 -1.5753 0.402856 0
M  V30 4351 O 419.919 -1.78307 0.611475 0
M  V30 4352 C 417.046 -3.05661 1.45908 0
M  V30 4353 C 416.092 -3.33938 2.65307 0
M  V30 4354 S 416.925 -3.22553 4.27457 0
M  V30 4355 C 418.081 -4.63317 4.20818 0
M  V30 4356 H 418.314 -1.6079 2.50068 0
M  V30 4357 H 415.847 -0.732674 1.35909 0
M  V30 4358 H 417.805 -3.8542 1.41286 0
M  V30 4359 H 416.466 -3.09711 0.523248 0
M  V30 4360 H 415.659 -4.34761 2.54948 0
M  V30 4361 H 415.261 -2.61809 2.67081 0
M  V30 4362 H 417.553 -5.54391 3.89431 0
M  V30 4363 H 418.496 -4.78732 5.21748 0
M  V30 4364 H 418.904 -4.41636 3.51593 0
M  V30 4365 N 418.302 -1.35869 -0.798587 0
M  V30 4366 C 419.527 -1.32883 -1.59238 0
M  V30 4367 C 419.952 0.0894587 -1.87887 0
M  V30 4368 O 419.31 1.05869 -1.47178 0
M  V30 4369 C 419.358 -2.14892 -2.89575 0
M  V30 4370 O 418.462 -1.53512 -3.82763 0
M  V30 4371 H 417.803 -0.455236 -0.48338 0
M  V30 4372 H 420.333 -1.79024 -0.990539 0
M  V30 4373 H 420.343 -2.27139 -3.38928 0
M  V30 4374 H 419.018 -3.17998 -2.68049 0
M  V30 4375 H 417.595 -1.50153 -3.41334 0
M  V30 4376 N 419.78 1.02168 -1.19998 0
M  V30 4377 C 420.728 2.12717 -0.940967 0
M  V30 4378 C 421.722 1.69069 0.105841 0
M  V30 4379 O 422.928 1.79946 -0.0440583 0
M  V30 4380 H 419.303 0.695108 -0.28693 0
M  V30 4381 H 421.274 2.3175 -1.87975 0
M  V30 4382 C 420.023 3.44027 -0.504049 0
M  V30 4383 H 419.346 3.78036 -1.30112 0
M  V30 4384 H 420.786 4.22452 -0.361991 0
M  V30 4385 C 419.245 3.27678 0.782878 0
M  V30 4386 O 419.775 3.56949 1.84256 0
M  V30 4387 N 417.981 2.80943 0.742921 0
M  V30 4388 H 417.528 2.57322 -0.119687 0
M  V30 4389 H 417.486 2.70385 1.60435 0
M  V30 4390 N 421.258 1.00505 1.21394 0
M  V30 4391 C 422.506 0.686415 1.90086 0
M  V30 4392 C 422.827 -0.785264 1.7849 0
M  V30 4393 O 422.097 -1.56387 1.17983 0
M  V30 4394 H 420.677 0.2509 0.703604 0
M  V30 4395 H 423.339 1.27417 1.47482 0
M  V30 4396 H 422.435 0.959621 2.96981 0
M  V30 4397 N 422.737 -1.36956 0.779787 0
M  V30 4398 C 423.647 -2.33965 0.172491 0
M  V30 4399 C 424.663 -1.60574 -0.670222 0
M  V30 4400 O 425.839 -1.92617 -0.588263 0
M  V30 4401 C 422.904 -3.39761 -0.690173 0
M  V30 4402 C 421.965 -4.28964 0.169924 0
M  V30 4403 C 421.198 -5.29707 -0.651662 0
M  V30 4404 O 421.421 -5.38238 -1.88827 0
M  V30 4405 O 420.355 -6.01873 -0.0566264 0
M  V30 4406 H 424.181 -2.87647 0.974321 0
M  V30 4407 H 421.766 -1.39258 0.541078 0
M  V30 4408 H 423.648 -4.04471 -1.1824 0
M  V30 4409 H 422.323 -2.88394 -1.47006 0
M  V30 4410 H 421.23 -3.67326 0.708696 0
M  V30 4411 H 422.563 -4.83656 0.913085 0
M  V30 4412 N 424.215 -0.530993 -1.48385 0
M  V30 4413 C 425.125 0.23503 -2.3342 0
M  V30 4414 C 426.141 0.93801 -1.46552 0
M  V30 4415 O 427.317 0.912745 -1.7953 0
M  V30 4416 C 424.382 1.26778 -3.22689 0
M  V30 4417 C 423.443 0.575038 -4.25431 0
M  V30 4418 C 422.676 1.55858 -5.10435 0
M  V30 4419 O 422.899 2.79129 -4.97437 0
M  V30 4420 O 421.833 1.09742 -5.91811 0
M  V30 4421 H 425.659 -0.461794 -3.00169 0
M  V30 4422 H 423.244 -0.291903 -1.46521 0
M  V30 4423 H 425.126 1.86457 -3.77904 0
M  V30 4424 H 423.801 1.94699 -2.586 0
M  V30 4425 H 422.708 -0.0622782 -3.74048 0
M  V30 4426 H 424.041 -0.062253 -4.92161 0
M  V30 4427 N 425.693 1.55336 -0.266172 0
M  V30 4428 C 426.942 1.98574 0.353749 0
M  V30 4429 C 427.255 1.15789 1.57646 0
M  V30 4430 O 428.461 1.49129 2.26876 0
M  V30 4431 C 426.917 3.53403 0.680747 0
M  V30 4432 C 426.525 4.44953 -0.52165 0
M  V30 4433 C 428.269 4.05251 1.26379 0
M  V30 4434 C 426.176 5.91156 -0.169736 0
M  V30 4435 H 425.106 0.741643 0.135949 0
M  V30 4436 H 427.757 1.79743 -0.369421 0
M  V30 4437 H 426.139 3.68001 1.46257 0
M  V30 4438 H 427.313 4.42121 -1.29869 0
M  V30 4439 H 425.628 4.03691 -1.02093 0
M  V30 4440 H 428.225 5.12021 1.54074 0
M  V30 4441 H 428.568 3.53749 2.19471 0
M  V30 4442 H 429.101 3.94057 0.544447 0
M  V30 4443 H 425.84 6.46736 -1.0683 0
M  V30 4444 H 425.36 5.97079 0.570717 0
M  V30 4445 H 427.039 6.4655 0.241245 0
M  V30 4446 N 427.171 -0.0066808 1.57599 0
M  V30 4447 C 428.42 -0.692078 1.89455 0
M  V30 4448 C 428.733 -1.75306 0.867586 0
M  V30 4449 O 429.939 -2.49262 1.07614 0
M  V30 4450 C 428.395 -1.2821 3.36289 0
M  V30 4451 C 428.003 -0.256291 4.47266 0
M  V30 4452 C 429.747 -1.94608 3.77264 0
M  V30 4453 C 427.654 -0.855927 5.85173 0
M  V30 4454 H 426.584 -0.262252 0.706923 0
M  V30 4455 H 429.235 0.052769 1.83424 0
M  V30 4456 H 427.617 -2.0774 3.37135 0
M  V30 4457 H 428.791 0.513923 4.57925 0
M  V30 4458 H 427.106 0.306862 4.15268 0
M  V30 4459 H 429.703 -2.40364 4.77629 0
M  V30 4460 H 430.046 -2.77382 3.10427 0
M  V30 4461 H 430.579 -1.21822 3.78688 0
M  V30 4462 H 427.318 -0.0671161 6.55466 0
M  V30 4463 H 426.838 -1.59546 5.78191 0
M  V30 4464 H 428.517 -1.35658 6.32618 0
M  V30 4465 N 428.649 -1.55105 -0.279332 0
M  V30 4466 C 429.895 -1.75672 -1.01327 0
M  V30 4467 C 430.228 -0.552739 -1.86168 0
M  V30 4468 O 429.503 0.449827 -1.89227 0
M  V30 4469 C 429.786 -3.05825 -1.90114 0
M  V30 4470 C 429.639 -4.36565 -1.08309 0
M  V30 4471 C 430.958 -3.31975 -2.8893 0
M  V30 4472 H 428.077 -0.639149 -0.366957 0
M  V30 4473 H 430.719 -1.87833 -0.286154 0
M  V30 4474 H 428.869 -2.95588 -2.52111 0
M  V30 4475 H 430.541 -4.58751 -0.484314 0
M  V30 4476 H 428.784 -4.32076 -0.386362 0
M  V30 4477 H 429.455 -5.23946 -1.73737 0
M  V30 4478 H 431.931 -3.41963 -2.37067 0
M  V30 4479 H 430.807 -4.2432 -3.48201 0
M  V30 4480 H 431.068 -2.51309 -3.63725 0
M  V30 4481 N 430.127 0.543554 -1.4793 0
M  V30 4482 C 431.543 0.870806 -1.3375 0
M  V30 4483 C 431.743 1.9864 -0.338261 0
M  V30 4484 O 430.799 2.51305 0.245371 0
M  V30 4485 C 432.112 1.25114 -2.73435 0
M  V30 4486 C 433.66 1.3618 -2.81823 0
M  V30 4487 C 434.135 1.77563 -4.22179 0
M  V30 4488 N 435.626 1.8469 -4.24787 0
M  V30 4489 C 436.361 2.18067 -5.30315 0
M  V30 4490 N 435.857 2.49963 -6.46135 0
M  V30 4491 N 437.65 2.18958 -5.17701 0
M  V30 4492 H 429.801 -0.19275 -2.11524 0
M  V30 4493 H 432.064 -0.0235777 -0.947707 0
M  V30 4494 H 431.77 0.50514 -3.48053 0
M  V30 4495 H 431.644 2.20431 -3.06088 0
M  V30 4496 H 434.031 2.09859 -2.07468 0
M  V30 4497 H 434.112 0.390169 -2.52807 0
M  V30 4498 H 433.756 1.04449 -4.97044 0
M  V30 4499 H 433.686 2.75753 -4.48629 0
M  V30 4500 H 436.177 1.62372 -3.41239 0
M  V30 4501 H 436.49 2.74497 -7.22406 0
M  V30 4502 H 434.835 2.47513 -6.49432 0
M  V30 4503 H 438.026 1.93488 -4.2624 0
M  V30 4504 H 438.199 2.44639 -6.00047 0
M  V30 4505 N 431.605 1.3629 0.791371 0
M  V30 4506 C 432.851 1.30605 1.55146 0
M  V30 4507 C 433.184 -0.115042 1.93859 0
M  V30 4508 O 432.459 -1.06798 1.62556 0
M  V30 4509 C 432.742 2.22692 2.82985 0
M  V30 4510 C 432.595 3.73489 2.50651 0
M  V30 4511 C 433.914 2.13588 3.84796 0
M  V30 4512 H 431.033 0.475761 0.562868 0
M  V30 4513 H 433.675 1.66825 0.909358 0
M  V30 4514 H 431.825 1.91933 3.37778 0
M  V30 4515 H 433.497 4.14758 2.01924 0
M  V30 4516 H 431.74 3.93021 1.83622 0
M  V30 4517 H 432.411 4.3333 3.41949 0
M  V30 4518 H 434.887 2.40659 3.39445 0
M  V30 4519 H 433.763 2.80195 4.71998 0
M  V30 4520 H 434.024 1.12256 4.27611 0
M  V30 4521 N 433.083 -1.0153 1.20538 0
M  V30 4522 C 434.033 -2.08482 0.922991 0
M  V30 4523 C 435.017 -1.60469 -0.117702 0
M  V30 4524 O 436.209 -1.76772 0.0898465 0
M  V30 4525 C 433.338 -3.39952 0.478312 0
M  V30 4526 C 432.424 -3.94662 1.5525 0
M  V30 4527 N 432.815 -4.22866 2.77521 0
M  V30 4528 C 431.113 -4.22825 1.41897 0
M  V30 4529 C 431.814 -4.67002 3.4682 0
M  V30 4530 N 430.79 -4.69356 2.74237 0
M  V30 4531 H 434.592 -2.28199 1.85209 0
M  V30 4532 H 432.106 -1.19512 1.09957 0
M  V30 4533 H 434.103 -4.16105 0.257408 0
M  V30 4534 H 432.763 -3.21648 -0.444148 0
M  V30 4535 H 433.774 -4.11732 3.1416 0
M  V30 4536 H 430.451 -4.13714 0.561015 0
M  V30 4537 H 431.841 -4.97632 4.51455 0
M  V30 4538 N 434.561 -1.01147 -1.20859 0
M  V30 4539 C 435.808 -0.697865 -1.90095 0
M  V30 4540 C 436.136 0.772014 -1.78522 0
M  V30 4541 O 435.391 1.57595 -1.16027 0
M  V30 4542 C 435.69 -1.0727 -3.40922 0
M  V30 4543 C 435.356 -2.53792 -3.72693 0
M  V30 4544 C 434.018 -2.93829 -3.81075 0
M  V30 4545 C 436.37 -3.48674 -3.87397 0
M  V30 4546 C 433.698 -4.27696 -4.01613 0
M  V30 4547 C 436.05 -4.82223 -4.09444 0
M  V30 4548 C 434.714 -5.21973 -4.16054 0
M  V30 4549 H 433.984 -0.255367 -0.695607 0
M  V30 4550 H 436.631 -1.27111 -1.43231 0
M  V30 4551 H 434.936 -0.417799 -3.89566 0
M  V30 4552 H 436.633 -0.807818 -3.92779 0
M  V30 4553 H 433.223 -2.21768 -3.66765 0
M  V30 4554 H 437.407 -3.18904 -3.80281 0
M  V30 4555 H 432.663 -4.58055 -4.04964 0
M  V30 4556 H 436.837 -5.55672 -4.19763 0
M  V30 4557 H 434.464 -6.25717 -4.31721 0
M  V30 4558 N 436.039 1.36541 -0.78704 0
M  V30 4559 C 436.986 2.30082 -0.181901 0
M  V30 4560 C 437.956 1.5186 0.672896 0
M  V30 4561 O 439.141 1.80374 0.622072 0
M  V30 4562 C 436.281 3.3835 0.679197 0
M  V30 4563 C 435.394 4.31565 -0.193882 0
M  V30 4564 C 434.529 5.26915 0.673364 0
M  V30 4565 C 433.568 6.11769 -0.201315 0
M  V30 4566 N 432.705 6.99315 0.624777 0
M  V30 4567 H 437.545 2.81248 -0.985064 0
M  V30 4568 H 435.082 1.38437 -0.497342 0
M  V30 4569 H 437.04 3.99767 1.19341 0
M  V30 4570 H 435.67 2.8851 1.44781 0
M  V30 4571 H 434.722 3.71323 -0.826044 0
M  V30 4572 H 436.034 4.91191 -0.867937 0
M  V30 4573 H 435.188 5.9361 1.25348 0
M  V30 4574 H 433.927 4.67737 1.38105 0
M  V30 4575 H 432.932 5.44039 -0.793849 0
M  V30 4576 H 434.157 6.73022 -0.906568 0
M  V30 4577 H 432.103 6.42648 1.3168 0
M  V30 4578 H 432.02 7.56 0.00835237 0
M  V30 4579 H 433.288 7.70382 1.18879 0
M  V30 4580 N 437.518 0.538854 1.48102 0
M  V30 4581 C 438.929 0.100679 1.86428 0
M  V30 4582 C 439.28 -1.32447 1.44749 0
M  V30 4583 O 438.405 -1.99339 0.842199 0
M  V30 4584 C 439 0.175933 3.38343 0
M  V30 4585 C 437.559 -0.207098 3.7583 0
M  V30 4586 C 436.706 0.531741 2.72154 0
M  V30 4587 H 439.657 0.749614 1.3988 0
M  V30 4588 H 439.678 -0.610144 3.75576 0
M  V30 4589 H 439.19 1.21328 3.68648 0
M  V30 4590 H 437.291 -1.24626 3.5114 0
M  V30 4591 H 437.404 0.138687 4.78899 0
M  V30 4592 H 435.768 -0.0230462 2.5469 0
M  V30 4593 H 436.551 1.56989 3.05302 0
M  V30 4594 N 438.996 -1.55193 0.274407 0
M  V30 4595 C 440.224 -2.03987 -0.345943 0
M  V30 4596 C 440.639 -1.15279 -1.4952 0
M  V30 4597 O 439.996 -0.172759 -1.8168 0
M  V30 4598 C 440.047 -3.51898 -0.827631 0
M  V30 4599 O 439.768 -4.37231 0.275855 0
M  V30 4600 C 441.269 -4.16577 -1.51587 0
M  V30 4601 H 438.489 -0.666335 -0.0789892 0
M  V30 4602 H 441.033 -2.00423 0.406294 0
M  V30 4603 H 439.188 -3.55909 -1.52996 0
M  V30 4604 H 439.602 -5.24415 -0.0943638 0
M  V30 4605 H 441.076 -5.21678 -1.80433 0
M  V30 4606 H 441.553 -3.64707 -2.44716 0
M  V30 4607 H 442.159 -4.16568 -0.857409 0
M  V30 4608 N 440.474 -0.00167713 -1.576 0
M  V30 4609 C 441.885 0.54091 -1.78693 0
M  V30 4610 C 442.236 1.7386 -0.909247 0
M  V30 4611 O 441.361 2.16109 -0.112176 0
M  V30 4612 C 441.956 0.98806 -3.24072 0
M  V30 4613 C 440.515 1.47594 -3.46256 0
M  V30 4614 C 439.662 0.42792 -2.73978 0
M  V30 4615 H 442.613 -0.22784 -1.57056 0
M  V30 4616 H 442.634 1.85398 -3.32277 0
M  V30 4617 H 442.146 0.116164 -3.87926 0
M  V30 4618 H 440.247 2.36868 -2.87618 0
M  V30 4619 H 440.36 1.50225 -4.54939 0
M  V30 4620 H 438.724 0.889934 -2.38647 0
M  V30 4621 H 439.507 -0.435038 -3.40532 0
M  V30 4622 N 441.952 1.55251 0.271103 0
M  V30 4623 C 443.177 1.80306 1.02491 0
M  V30 4624 C 443.602 0.575457 1.79081 0
M  V30 4625 O 442.96 -0.474987 1.74967 0
M  V30 4626 C 443.008 3.02832 1.95768 0
M  V30 4627 O 442.112 2.78051 3.04568 0
M  V30 4628 H 441.453 0.595896 0.292923 0
M  V30 4629 H 443.983 2.02397 0.299436 0
M  V30 4630 H 443.993 3.31616 2.37686 0
M  V30 4631 H 442.668 3.9183 1.39434 0
M  V30 4632 H 441.245 2.60369 2.66951 0
M  V30 4633 N 443.43 -0.535701 1.48216 0
M  V30 4634 C 444.679 -1.28828 1.55197 0
M  V30 4635 C 444.992 -1.94263 0.228278 0
M  V30 4636 O 446.198 -2.70927 0.176278 0
M  V30 4637 C 444.654 -2.33727 2.73678 0
M  V30 4638 C 444.262 -1.74386 4.12666 0
M  V30 4639 C 446.006 -3.1003 2.89968 0
M  V30 4640 C 443.913 -2.77192 5.22416 0
M  V30 4641 H 442.843 -0.484484 0.577747 0
M  V30 4642 H 445.494 -0.56646 1.74538 0
M  V30 4643 H 443.876 -3.08919 2.4776 0
M  V30 4644 H 445.05 -1.05421 4.48579 0
M  V30 4645 H 443.365 -1.10595 4.01445 0
M  V30 4646 H 445.962 -3.86842 3.6913 0
M  V30 4647 H 446.305 -3.65542 1.9921 0
M  V30 4648 H 446.838 -2.41952 3.15759 0
M  V30 4649 H 443.577 -2.26507 6.15122 0
M  V30 4650 H 443.097 -3.44502 4.90998 0
M  V30 4651 H 444.776 -3.40285 5.50286 0
M  V30 4652 N 444.908 -1.36708 -0.784132 0
M  V30 4653 C 446.155 -1.31231 -1.54222 0
M  V30 4654 C 446.483 0.106864 -1.94206 0
M  V30 4655 O 445.738 1.07734 -1.63376 0
M  V30 4656 C 446.037 -2.18571 -2.82774 0
M  V30 4657 C 445.703 -3.67039 -2.61903 0
M  V30 4658 C 444.365 -4.07503 -2.55919 0
M  V30 4659 C 446.717 -4.61149 -2.4288 0
M  V30 4660 C 444.045 -5.40211 -2.28886 0
M  V30 4661 C 446.397 -5.94081 -2.17373 0
M  V30 4662 C 445.061 -6.33664 -2.09825 0
M  V30 4663 H 444.331 -0.48021 -0.56434 0
M  V30 4664 H 446.978 -1.68807 -0.904233 0
M  V30 4665 H 445.283 -1.73949 -3.51068 0
M  V30 4666 H 446.98 -2.11655 -3.40592 0
M  V30 4667 H 443.57 -3.34941 -2.67418 0
M  V30 4668 H 447.754 -4.30756 -2.46501 0
M  V30 4669 H 443.01 -5.69855 -2.21529 0
M  V30 4670 H 447.184 -6.66566 -2.01649 0
M  V30 4671 H 444.811 -7.36423 -1.88641 0
M  V30 4672 N 446.386 1.0089 -1.21074 0
M  V30 4673 C 447.318 2.09737 -0.924291 0
M  V30 4674 C 448.331 1.62546 0.0909809 0
M  V30 4675 O 449.52 1.77942 -0.141021 0
M  V30 4676 C 446.62 3.36922 -0.36559 0
M  V30 4677 C 445.793 4.13216 -1.43426 0
M  V30 4678 C 444.852 5.18696 -0.885496 0
M  V30 4679 O 443.878 5.47176 -1.56801 0
M  V30 4680 N 445.08 5.79718 0.301227 0
M  V30 4681 H 447.845 2.34895 -1.8613 0
M  V30 4682 H 445.406 1.17341 -1.11546 0
M  V30 4683 H 447.398 4.04697 0.0158407 0
M  V30 4684 H 445.968 3.08952 0.476149 0
M  V30 4685 H 445.188 3.40301 -1.9897 0
M  V30 4686 H 446.476 4.60967 -2.15376 0
M  V30 4687 H 445.874 5.58926 0.872849 0
M  V30 4688 H 444.431 6.48804 0.624211 0
M  V30 4689 N 447.864 1.01787 1.20321 0
M  V30 4690 C 449.275 0.739307 1.71438 0
M  V30 4691 C 449.626 -0.742041 1.81627 0
M  V30 4692 O 448.751 -1.57903 1.47971 0
M  V30 4693 C 449.346 1.33538 3.11373 0
M  V30 4694 C 447.905 1.10566 3.59795 0
M  V30 4695 C 447.052 1.44028 2.36962 0
M  V30 4696 H 450.003 1.18718 1.05317 0
M  V30 4697 H 450.024 0.726611 3.73498 0
M  V30 4698 H 449.536 2.41352 3.03926 0
M  V30 4699 H 447.637 0.0452405 3.72573 0
M  V30 4700 H 447.75 1.78661 4.44542 0
M  V30 4701 H 446.114 0.85933 2.39766 0
M  V30 4702 H 446.897 2.52901 2.32155 0
M  V30 4703 N 449.342 -1.36122 0.79427 0
M  V30 4704 C 450.274 -2.28683 0.153903 0
M  V30 4705 C 451.287 -1.49707 -0.639669 0
M  V30 4706 O 452.476 -1.7209 -0.474054 0
M  V30 4707 C 449.576 -3.29202 -0.804921 0
M  V30 4708 C 448.749 -4.37358 -0.060366 0
M  V30 4709 C 447.808 -5.17811 -0.935849 0
M  V30 4710 O 446.834 -5.67853 -0.391309 0
M  V30 4711 N 448.036 -5.34721 -2.25951 0
M  V30 4712 H 450.801 -2.84278 0.949008 0
M  V30 4713 H 448.362 -1.4834 0.648611 0
M  V30 4714 H 450.354 -3.79914 -1.39455 0
M  V30 4715 H 448.924 -2.74212 -1.50088 0
M  V30 4716 H 448.144 -3.87746 0.710382 0
M  V30 4717 H 449.432 -5.06777 0.45324 0
M  V30 4718 H 448.83 -4.95687 -2.72601 0
M  V30 4719 H 447.387 -5.88657 -2.79867 0
M  V30 4720 N 450.82 -0.546701 -1.47814 0
M  V30 4721 C 452.236 -0.205717 -1.58269 0
M  V30 4722 C 452.436 1.29153 -1.54667 0
M  V30 4723 O 451.492 2.07098 -1.44453 0
M  V30 4724 C 452.805 -0.823065 -2.89216 0
M  V30 4725 C 454.353 -0.793328 -3.02779 0
M  V30 4726 C 454.828 -1.38955 -4.36412 0
M  V30 4727 N 456.319 -1.35227 -4.43021 0
M  V30 4728 C 457.054 -1.78333 -5.44963 0
M  V30 4729 N 456.55 -2.29246 -6.53772 0
M  V30 4730 N 458.343 -1.69467 -5.35945 0
M  V30 4731 H 450.494 -1.5196 -1.48398 0
M  V30 4732 H 452.757 -0.633078 -0.705632 0
M  V30 4733 H 452.463 -1.8749 -2.97558 0
M  V30 4734 H 452.337 -0.309915 -3.75925 0
M  V30 4735 H 454.724 0.249784 -2.94041 0
M  V30 4736 H 454.805 -1.34412 -2.17639 0
M  V30 4737 H 454.449 -2.43168 -4.45906 0
M  V30 4738 H 454.379 -0.814291 -5.20266 0
M  V30 4739 H 456.87 -0.979739 -3.64979 0
M  V30 4740 H 457.183 -2.60089 -7.27718 0
M  V30 4741 H 455.528 -2.3325 -6.5469 0
M  V30 4742 H 458.719 -1.29477 -4.49837 0
M  V30 4743 H 458.892 -2.03381 -6.15256 0
M  V30 4744 N 452.299 1.55045 -0.282633 0
M  V30 4745 C 453.527 2.04168 0.33512 0
M  V30 4746 C 453.942 1.16071 1.48906 0
M  V30 4747 O 453.299 0.182391 1.81586 0
M  V30 4748 C 453.35 3.52332 0.808957 0
M  V30 4749 O 453.071 4.37078 -0.299038 0
M  V30 4750 C 454.572 4.17375 1.49375 0
M  V30 4751 H 451.792 0.666744 0.0754543 0
M  V30 4752 H 454.336 2.00205 -0.416918 0
M  V30 4753 H 452.491 3.56715 1.51106 0
M  V30 4754 H 452.905 5.24458 0.0665514 0
M  V30 4755 H 454.379 5.22627 1.77664 0
M  V30 4756 H 454.856 3.65999 2.42778 0
M  V30 4757 H 455.462 4.17016 0.835305 0
M  V30 4758 N 453.777 0.010035 1.57597 0
M  V30 4759 C 455.026 -0.671945 1.90178 0
M  V30 4760 C 455.339 -1.74376 0.886131 0
M  V30 4761 O 456.545 -2.48107 1.10252 0
M  V30 4762 C 455.001 -1.24636 3.3763 0
M  V30 4763 C 454.609 -0.208838 4.47513 0
M  V30 4764 C 456.353 -1.90595 3.79307 0
M  V30 4765 C 454.26 -0.793814 5.86048 0
M  V30 4766 H 453.19 -0.25474 0.709665 0
M  V30 4767 H 455.841 0.0722206 1.83358 0
M  V30 4768 H 454.223 -2.04152 3.3932 0
M  V30 4769 H 455.397 0.562463 4.57354 0
M  V30 4770 H 453.712 0.350889 4.14919 0
M  V30 4771 H 456.309 -2.35284 4.80151 0
M  V30 4772 H 456.652 -2.74074 3.13352 0
M  V30 4773 H 457.185 -1.17798 3.79958 0
M  V30 4774 H 453.924 0.00240855 6.555 0
M  V30 4775 H 453.444 -1.53404 5.79851 0
M  V30 4776 H 455.123 -1.2894 6.34022 0
M  V30 4777 N 455.255 -1.55392 -0.262866 0
M  V30 4778 C 456.532 -1.67204 -1.01499 0
M  V30 4779 C 456.912 -0.545186 -2.03939 0
M  V30 4780 O 456.26 0.453467 -2.23955 0
M  V30 4781 C 456.47 -3.06847 -1.6627 0
M  V30 4782 C 457.818 -3.64928 -2.17054 0
M  V30 4783 O 458.842 -3.09545 -1.76239 0
M  V30 4784 O 457.701 -4.61984 -2.91947 0
M  V30 4785 H 454.795 -0.679467 -0.471438 0
M  V30 4786 H 457.341 -1.67729 -0.257918 0
M  V30 4787 H 456.113 -3.80309 -0.920915 0
M  V30 4788 H 455.736 -3.10266 -2.48638 0
M  V30 4789 N 456.733 0.527833 -1.48498 0
M  V30 4790 C 457.982 1.28003 -1.55878 0
M  V30 4791 C 458.295 1.9414 -0.238577 0
M  V30 4792 O 459.501 2.7083 -0.190643 0
M  V30 4793 C 457.957 2.32272 -2.74914 0
M  V30 4794 C 457.565 1.72196 -4.13585 0
M  V30 4795 C 459.309 3.08488 -2.91608 0
M  V30 4796 C 457.216 2.74417 -5.23879 0
M  V30 4797 H 456.146 0.481413 -0.580308 0
M  V30 4798 H 458.797 0.557195 -1.74836 0
M  V30 4799 H 457.179 3.07601 -2.49395 0
M  V30 4800 H 458.353 1.03041 -4.49132 0
M  V30 4801 H 456.668 1.08464 -4.02025 0
M  V30 4802 H 459.265 3.84879 -3.71177 0
M  V30 4803 H 459.608 3.64481 -2.01145 0
M  V30 4804 H 460.141 2.40274 -3.17038 0
M  V30 4805 H 456.88 2.23242 -6.16314 0
M  V30 4806 H 456.4 3.41893 -4.92818 0
M  V30 4807 H 458.079 3.37362 -5.52083 0
M  V30 4808 N 458.211 1.37122 0.776871 0
M  V30 4809 C 459.159 1.32549 1.91138 0
M  V30 4810 C 460.153 0.215119 1.68029 0
M  V30 4811 O 461.359 0.382852 1.75881 0
M  V30 4812 H 457.734 0.412952 0.62847 0
M  V30 4813 H 459.705 2.28332 1.92112 0
M  V30 4814 C 458.454 1.14422 3.28333 0
M  V30 4815 H 457.777 1.99115 3.46689 0
M  V30 4816 H 459.217 1.15272 4.0803 0
M  V30 4817 C 457.676 -0.150434 3.36564 0
M  V30 4818 O 458.206 -1.13584 3.85307 0
M  V30 4819 N 456.412 -0.19939 2.89915 0
M  V30 4820 H 455.959 0.603142 2.5044 0
M  V30 4821 H 455.917 -1.06526 2.95803 0
M  V30 4822 N 459.689 -1.00246 1.21608 0
M  V30 4823 C 460.937 -1.73717 1.0328 0
M  V30 4824 C 461.258 -1.90102 -0.434318 0
M  V30 4825 O 460.528 -1.45376 -1.31311 0
M  V30 4826 H 459.108 -0.643613 0.379172 0
M  V30 4827 H 461.77 -1.20787 1.52959 0
M  V30 4828 H 460.866 -2.73535 1.50283 0
M  V30 4829 N 461.167 -1.02423 -1.1978 0
M  V30 4830 C 462.115 -0.594474 -2.24875 0
M  V30 4831 C 463.109 0.370598 -1.65296 0
M  V30 4832 O 464.315 0.239684 -1.78397 0
M  V30 4833 H 460.69 -0.173961 -0.731602 0
M  V30 4834 H 462.661 -1.4916 -2.58445 0
M  V30 4835 C 461.41 0.0436512 -3.47673 0
M  V30 4836 H 460.733 -0.689963 -3.93801 0
M  V30 4837 H 462.173 0.307362 -4.22884 0
M  V30 4838 C 460.632 1.28881 -3.11274 0
M  V30 4839 O 461.162 2.38135 -3.23503 0
M  V30 4840 N 459.368 1.1758 -2.6575 0
M  V30 4841 H 458.915 0.286769 -2.55999 0
M  V30 4842 H 458.873 2.00988 -2.41767 0
M  V30 4843 N 462.645 1.35699 -0.801477 0
M  V30 4844 C 463.555 2.33661 -0.209691 0
M  V30 4845 C 464.571 1.6162 0.644591 0
M  V30 4846 O 465.747 1.93529 0.557545 0
M  V30 4847 C 462.812 3.40816 0.636033 0
M  V30 4848 C 461.873 4.28639 -0.238147 0
M  V30 4849 C 461.106 5.30676 0.567307 0
M  V30 4850 O 461.329 5.41174 1.8024 0
M  V30 4851 O 460.263 6.01887 -0.0391336 0
M  V30 4852 H 464.089 2.8606 -1.01996 0
M  V30 4853 H 461.674 1.38379 -0.563164 0
M  V30 4854 H 463.556 4.06301 1.11791 0
M  V30 4855 H 462.231 2.90696 1.42399 0
M  V30 4856 H 461.138 3.66152 -0.767044 0
M  V30 4857 H 462.471 4.82143 -0.989915 0
M  V30 4858 N 464.123 0.554532 1.47522 0
M  V30 4859 C 465.363 0.0317994 2.04375 0
M  V30 4860 C 465.727 -1.29242 1.41988 0
M  V30 4861 O 466.928 -1.90269 1.89872 0
M  V30 4862 C 465.199 -0.0623344 3.57346 0
M  V30 4863 S 466.758 -0.531578 4.35568 0
M  V30 4864 H 463.576 0.0238553 0.7106 0
M  V30 4865 H 466.178 0.74066 1.80927 0
M  V30 4866 H 464.882 0.905857 4.00278 0
M  V30 4867 H 464.413 -0.794831 3.85287 0
M  V30 4868 H 466.428 -1.79175 4.62721 0
M  V30 4869 N 465.601 -1.54893 0.290851 0
M  V30 4870 C 466.511 -2.26812 -0.59945 0
M  V30 4871 C 467.527 -1.29963 -1.15696 0
M  V30 4872 O 468.703 -1.62928 -1.18391 0
M  V30 4873 C 465.768 -2.98716 -1.75982 0
M  V30 4874 C 464.829 -4.1108 -1.2374 0
M  V30 4875 C 464.062 -4.79546 -2.34246 0
M  V30 4876 O 464.285 -4.47309 -3.53936 0
M  V30 4877 O 463.219 -5.67165 -2.01512 0
M  V30 4878 H 467.045 -3.03696 -0.0163561 0
M  V30 4879 H 464.63 -1.49289 0.0576755 0
M  V30 4880 H 466.512 -3.43851 -2.43607 0
M  V30 4881 H 465.187 -2.24737 -2.3297 0
M  V30 4882 H 464.094 -3.70367 -0.527163 0
M  V30 4883 H 465.427 -4.87007 -0.71307 0
M  V30 4884 N 467.08 -0.0183926 -1.57589 0
M  V30 4885 C 468.32 0.666846 -1.93216 0
M  V30 4886 C 468.684 1.69905 -0.894215 0
M  V30 4887 O 469.885 2.436 -1.13633 0
M  V30 4888 C 468.156 1.27684 -3.33814 0
M  V30 4889 S 469.715 1.98464 -3.91353 0
M  V30 4890 H 466.533 0.219826 -0.676164 0
M  V30 4891 H 469.135 -0.0794893 -1.95338 0
M  V30 4892 H 467.839 0.513006 -4.07181 0
M  V30 4893 H 467.37 2.06071 -3.3511 0
M  V30 4894 H 469.385 3.26189 -3.73918 0
M  V30 4895 N 468.558 1.5553 0.254621 0
M  V30 4896 C 469.488 1.9268 1.31897 0
M  V30 4897 C 470.469 0.790797 1.506 0
M  V30 4898 O 471.654 1.05045 1.63337 0
M  V30 4899 C 468.784 2.21477 2.67517 0
M  V30 4900 C 467.738 3.37256 2.63519 0
M  V30 4901 C 467.064 3.51576 4.02862 0
M  V30 4902 C 468.364 4.73157 2.21179 0
M  V30 4903 H 470.058 2.81832 1.01051 0
M  V30 4904 H 467.604 1.35599 0.484662 0
M  V30 4905 H 469.557 2.46055 3.42104 0
M  V30 4906 H 468.281 1.29144 2.99982 0
M  V30 4907 H 466.94 3.12675 1.9139 0
M  V30 4908 H 466.588 2.56676 4.32581 0
M  V30 4909 H 466.288 4.2943 4.01078 0
M  V30 4910 H 467.812 3.78467 4.79161 0
M  V30 4911 H 469.226 4.97158 2.85494 0
M  V30 4912 H 467.623 5.54058 2.30521 0
M  V30 4913 H 468.693 4.70739 1.16332 0
M  V30 4914 N 470.036 -0.519951 1.48776 0
M  V30 4915 C 470.966 -1.63253 1.66945 0
M  V30 4916 C 471.947 -1.62014 0.518224 0
M  V30 4917 O 473.132 -1.79053 0.751919 0
M  V30 4918 C 470.262 -3.0181 1.71836 0
M  V30 4919 C 469.216 -3.17911 2.8656 0
M  V30 4920 C 468.542 -4.5763 2.76548 0
M  V30 4921 C 469.842 -2.99729 4.27738 0
M  V30 4922 H 471.536 -1.48302 2.6009 0
M  V30 4923 H 469.082 -0.712026 1.25165 0
M  V30 4924 H 471.035 -3.79525 1.83135 0
M  V30 4925 H 469.759 -3.17806 0.752775 0
M  V30 4926 H 468.418 -2.42616 2.74833 0
M  V30 4927 H 468.066 -4.70476 1.77937 0
M  V30 4928 H 467.766 -4.69346 3.53536 0
M  V30 4929 H 469.29 -5.37431 2.89828 0
M  V30 4930 H 470.704 -3.67228 4.40246 0
M  V30 4931 H 469.101 -3.22932 5.05801 0
M  V30 4932 H 470.171 -1.96047 4.43502 0
M  V30 4933 N 471.514 -1.37532 -0.769588 0
M  V30 4934 C 472.461 -1.3347 -1.88293 0
M  V30 4935 C 473.431 -0.199891 -1.64893 0
M  V30 4936 O 474.616 -0.389594 -1.8678 0
M  V30 4937 C 471.756 -1.14968 -3.25387 0
M  V30 4938 C 470.869 -2.37698 -3.60727 0
M  V30 4939 C 470.004 -2.12051 -4.8704 0
M  V30 4940 C 469.043 -3.30636 -5.15117 0
M  V30 4941 N 468.18 -3.04527 -6.3262 0
M  V30 4942 H 473.02 -2.28658 -1.911 0
M  V30 4943 H 470.557 -1.13622 -0.934257 0
M  V30 4944 H 472.515 -1.02261 -4.04473 0
M  V30 4945 H 471.145 -0.234263 -3.21949 0
M  V30 4946 H 470.197 -2.61137 -2.76608 0
M  V30 4947 H 471.509 -3.26131 -3.77413 0
M  V30 4948 H 470.663 -1.96388 -5.74035 0
M  V30 4949 H 469.402 -1.20959 -4.72462 0
M  V30 4950 H 468.407 -3.46836 -4.26597 0
M  V30 4951 H 469.632 -4.22582 -5.31603 0
M  V30 4952 H 467.578 -2.16067 -6.19396 0
M  V30 4953 H 467.495 -3.86503 -6.49732 0
M  V30 4954 H 468.763 -2.92485 -7.22546 0
M  V30 4955 N 472.992 0.995999 -1.22138 0
M  V30 4956 C 474.24 1.73167 -1.042 0
M  V30 4957 C 474.561 1.90329 0.42423 0
M  V30 4958 O 473.831 1.4607 1.30539 0
M  V30 4959 H 472.411 0.641593 -0.38258 0
M  V30 4960 H 475.073 1.19974 -1.53598 0
M  V30 4961 H 474.169 2.72734 -1.51731 0
M  V30 4962 N 474.47 1.03057 1.19235 0
M  V30 4963 C 475.886 0.747947 1.40989 0
M  V30 4964 C 476.086 -0.666752 1.90149 0
M  V30 4965 O 475.142 -1.43249 2.07933 0
M  V30 4966 C 476.455 1.7855 2.41951 0
M  V30 4967 C 478.003 1.80524 2.55695 0
M  V30 4968 C 478.478 2.83243 3.59913 0
M  V30 4969 N 479.969 2.8207 3.67411 0
M  V30 4970 C 480.704 3.58204 4.47747 0
M  V30 4971 N 480.2 4.44057 5.31775 0
M  V30 4972 N 481.993 3.46738 4.42413 0
M  V30 4973 H 474.144 1.94367 0.856468 0
M  V30 4974 H 476.407 0.840412 0.438647 0
M  V30 4975 H 476.113 2.79973 2.12857 0
M  V30 4976 H 475.987 1.6092 3.41152 0
M  V30 4977 H 478.374 0.79778 2.84112 0
M  V30 4978 H 478.455 2.02229 1.56643 0
M  V30 4979 H 478.099 3.84161 3.32239 0
M  V30 4980 H 478.029 2.58795 4.5862 0
M  V30 4981 H 480.52 2.19803 3.074 0
M  V30 4982 H 480.833 4.98884 5.90199 0
M  V30 4983 H 479.178 4.48129 5.3123 0
M  V30 4984 H 482.369 2.79077 3.75811 0
M  V30 4985 H 482.542 4.06322 5.04783 0
M  V30 4986 N 475.948 -1.35272 0.808662 0
M  V30 4987 C 476.898 -2.27181 0.193124 0
M  V30 4988 C 477.882 -1.47871 -0.634265 0
M  V30 4989 O 479.074 -1.70048 -0.491182 0
M  V30 4990 C 476.203 -3.36979 -0.655751 0
M  V30 4991 C 475.289 -4.23712 0.181481 0
M  V30 4992 N 475.68 -4.90225 1.24551 0
M  V30 4993 C 473.978 -4.45985 -0.0365493 0
M  V30 4994 C 474.679 -5.54537 1.75682 0
M  V30 4995 N 473.655 -5.33107 1.06294 0
M  V30 4996 H 477.457 -2.76101 1.00724 0
M  V30 4997 H 474.971 -1.48823 0.650029 0
M  V30 4998 H 476.968 -4.01774 -1.11279 0
M  V30 4999 H 475.628 -2.89611 -1.46819 0
M  V30 5000 H 476.639 -4.91641 1.62818 0
M  V30 5001 H 473.316 -4.09409 -0.817964 0
M  V30 5002 H 474.706 -6.17597 2.64621 0
M  V30 5003 N 477.426 -0.562348 -1.47226 0
M  V30 5004 C 478.703 0.0256985 -1.95583 0
M  V30 5005 C 479.083 1.48032 -1.50498 0
M  V30 5006 O 478.431 2.15973 -0.746181 0
M  V30 5007 C 478.641 -0.125129 -3.48776 0
M  V30 5008 C 479.989 0.0175728 -4.24596 0
M  V30 5009 O 481.013 -0.0529341 -3.56161 0
M  V30 5010 O 479.872 0.170145 -5.46235 0
M  V30 5011 H 476.966 0.0612565 -0.824728 0
M  V30 5012 H 479.512 -0.629233 -1.57603 0
M  V30 5013 H 478.284 -1.13715 -3.74412 0
M  V30 5014 H 477.907 0.567178 -3.93534 0
M  V30 5015 N 478.904 1.54736 -0.299062 0
M  V30 5016 C 480.315 1.8569 0.193971 0
M  V30 5017 C 480.666 1.22101 1.53577 0
M  V30 5018 O 479.791 0.51799 2.10109 0
M  V30 5019 C 480.386 3.36895 0.358733 0
M  V30 5020 C 478.945 3.67887 0.795986 0
M  V30 5021 C 478.092 2.77131 -0.096807 0
M  V30 5022 H 481.043 1.49934 -0.520134 0
M  V30 5023 H 481.064 3.61294 1.19361 0
M  V30 5024 H 480.576 3.83148 -0.617998 0
M  V30 5025 H 478.677 3.27151 1.78334 0
M  V30 5026 H 478.79 4.75114 0.616718 0
M  V30 5027 H 477.154 2.51153 0.423581 0
M  V30 5028 H 477.937 3.26204 -1.06986 0
M  V30 5029 N 480.382 0.0267497 1.57577 0
M  V30 5030 C 481.622 -0.65659 1.93567 0
M  V30 5031 C 481.986 -1.69429 0.903213 0
M  V30 5032 O 483.187 -2.42994 1.14923 0
M  V30 5033 C 481.458 -1.25912 3.34486 0
M  V30 5034 S 483.017 -1.96386 3.924 0
M  V30 5035 H 479.835 -0.216237 0.67732 0
M  V30 5036 H 482.437 0.0898475 1.95293 0
M  V30 5037 H 481.141 -0.491405 4.07447 0
M  V30 5038 H 480.672 -2.04291 3.36198 0
M  V30 5039 H 482.687 -3.24202 3.75643 0
M  V30 5040 N 481.861 -1.55662 -0.24637 0
M  V30 5041 C 483.11 -1.7672 -0.972254 0
M  V30 5042 C 483.423 -0.59078 -1.86465 0
M  V30 5043 O 484.629 -0.684391 -2.62732 0
M  V30 5044 C 483.085 -3.12869 -1.7788 0
M  V30 5045 C 482.693 -4.38161 -0.933768 0
M  V30 5046 C 484.437 -3.43265 -2.49738 0
M  V30 5047 C 482.344 -5.6534 -1.73623 0
M  V30 5048 H 481.274 -0.658795 -0.366749 0
M  V30 5049 H 483.925 -1.82092 -0.226902 0
M  V30 5050 H 482.307 -3.01606 -2.56612 0
M  V30 5051 H 483.481 -4.60413 -0.188736 0
M  V30 5052 H 481.796 -4.15102 -0.328488 0
M  V30 5053 H 484.393 -4.35501 -3.10231 0
M  V30 5054 H 484.736 -2.64614 -3.2138 0
M  V30 5055 H 485.269 -3.55746 -1.78016 0
M  V30 5056 H 482.008 -6.46814 -1.06354 0
M  V30 5057 H 481.528 -5.47188 -2.45653 0
M  V30 5058 H 483.207 -6.04616 -2.30323 0
M  V30 5059 N 483.339 0.512053 -1.4905 0
M  V30 5060 C 484.302 1.59704 -1.64399 0
M  V30 5061 C 485.302 1.52285 -0.516317 0
M  V30 5062 O 486.492 1.55635 -0.782527 0
M  V30 5063 C 483.624 2.9935 -1.63102 0
M  V30 5064 H 484.817 1.47428 -2.61161 0
M  V30 5065 H 482.37 0.735469 -1.37915 0
M  V30 5066 H 483.105 3.17116 -0.678836 0
M  V30 5067 H 482.89 3.06144 -2.44986 0
M  V30 5068 H 484.38 3.782 -1.77072 0
M  V30 5069 N 484.817 1.37938 0.762283 0
M  V30 5070 C 486.066 1.32989 1.51647 0
M  V30 5071 C 486.379 -0.0802922 1.95435 0
M  V30 5072 O 487.585 -0.252295 2.70325 0
M  V30 5073 C 486.041 2.33485 2.73885 0
M  V30 5074 C 485.649 3.80079 2.37157 0
M  V30 5075 C 487.393 2.37563 3.51801 0
M  V30 5076 C 485.3 4.72283 3.55954 0
M  V30 5077 H 484.23 0.494301 0.56937 0
M  V30 5078 H 486.881 1.63448 0.834083 0
M  V30 5079 H 485.263 1.96056 3.44061 0
M  V30 5080 H 486.437 4.26398 1.74704 0
M  V30 5081 H 484.752 3.79037 1.72395 0
M  V30 5082 H 487.349 3.0365 4.40114 0
M  V30 5083 H 487.692 1.39199 3.92338 0
M  V30 5084 H 488.225 2.73747 2.8863 0
M  V30 5085 H 484.964 5.7181 3.2049 0
M  V30 5086 H 484.484 4.30663 4.1748 0
M  V30 5087 H 486.163 4.89876 4.22647 0
M  V30 5088 N 486.295 -0.989507 1.22664 0
M  V30 5089 C 487.711 -1.25395 0.987331 0
M  V30 5090 C 487.911 -1.9899 -0.317056 0
M  V30 5091 O 486.967 -2.30141 -1.03882 0
M  V30 5092 C 488.28 -2.06242 2.18826 0
M  V30 5093 C 489.828 -2.19413 2.23219 0
M  V30 5094 C 490.303 -3.03648 3.42873 0
M  V30 5095 N 491.794 -3.11234 3.43056 0
M  V30 5096 C 492.529 -3.7671 4.32293 0
M  V30 5097 N 492.025 -4.44085 5.31752 0
M  V30 5098 N 493.818 -3.73505 4.2006 0
M  V30 5099 H 485.969 -0.496212 2.06522 0
M  V30 5100 H 488.232 -0.281784 0.905153 0
M  V30 5101 H 487.938 -1.59531 3.13437 0
M  V30 5102 H 487.812 -3.06996 2.19165 0
M  V30 5103 H 490.199 -2.65336 1.29154 0
M  V30 5104 H 490.28 -1.18078 2.26917 0
M  V30 5105 H 489.924 -2.58424 4.37241 0
M  V30 5106 H 489.854 -4.05132 3.36416 0
M  V30 5107 H 492.345 -2.63287 2.71088 0
M  V30 5108 H 492.658 -4.91797 5.96117 0
M  V30 5109 H 491.003 -4.42822 5.35662 0
M  V30 5110 H 494.194 -3.20033 3.41609 0
M  V30 5111 H 494.367 -4.24253 4.8981 0
M  V30 5112 N 487.773 -1.03688 -1.18687 0
M  V30 5113 C 489.021 -0.736572 -1.88199 0
M  V30 5114 C 489.342 0.737665 -1.80509 0
M  V30 5115 O 488.612 1.53204 -1.22088 0
M  V30 5116 H 487.192 -0.269466 -0.696704 0
M  V30 5117 H 489.854 -1.31282 -1.44052 0
M  V30 5118 H 488.95 -1.03802 -2.94332 0
M  V30 5119 N 489.251 1.34841 -0.815825 0
M  V30 5120 C 490.476 2.03261 -0.41226 0
M  V30 5121 C 490.901 1.61055 0.971751 0
M  V30 5122 O 490.259 0.7917 1.63101 0
M  V30 5123 C 490.307 3.56914 -0.514289 0
M  V30 5124 O 489.411 4.09728 0.468675 0
M  V30 5125 H 488.752 0.641664 -0.170771 0
M  V30 5126 H 491.282 1.72241 -1.10427 0
M  V30 5127 H 491.292 4.06156 -0.387457 0
M  V30 5128 H 489.967 3.86982 -1.52375 0
M  V30 5129 H 488.544 3.71681 0.301316 0
M  V30 5130 N 490.729 0.570148 1.46925 0
M  V30 5131 C 491.975 0.0510284 2.02736 0
M  V30 5132 C 492.308 -1.3006 1.44215 0
M  V30 5133 O 491.583 -1.84932 0.602521 0
M  V30 5134 C 491.866 -0.028215 3.60089 0
M  V30 5135 C 491.719 1.35142 4.29018 0
M  V30 5136 C 493.038 -0.735181 4.33916 0
M  V30 5137 H 490.157 0.0200178 0.736728 0
M  V30 5138 H 492.799 0.73493 1.75211 0
M  V30 5139 H 490.949 -0.610648 3.83671 0
M  V30 5140 H 492.621 1.97806 4.16738 0
M  V30 5141 H 490.864 1.9226 3.88868 0
M  V30 5142 H 491.535 1.24857 5.37694 0
M  V30 5143 H 494.011 -0.240519 4.15404 0
M  V30 5144 H 492.887 -0.759622 5.43618 0
M  V30 5145 H 493.148 -1.79397 4.04066 0
M  V30 5146 N 492.207 -1.54576 0.307264 0
M  V30 5147 C 493.453 -2.0056 -0.300612 0
M  V30 5148 C 493.786 -1.1953 -1.53057 0
M  V30 5149 O 493.061 -0.27337 -1.92569 0
M  V30 5150 C 493.344 -3.54167 -0.650987 0
M  V30 5151 C 493.197 -4.45933 0.588539 0
M  V30 5152 C 494.516 -4.14645 -1.47506 0
M  V30 5153 H 491.635 -0.729075 -0.107788 0
M  V30 5154 H 494.277 -1.85286 0.420606 0
M  V30 5155 H 492.427 -3.67313 -1.26544 0
M  V30 5156 H 494.099 -4.44683 1.22697 0
M  V30 5157 H 492.342 -4.16274 1.22058 0
M  V30 5158 H 493.013 -5.51189 0.299153 0
M  V30 5159 H 495.489 -4.04973 -0.955821 0
M  V30 5160 H 494.365 -5.22269 -1.68899 0
M  V30 5161 H 494.626 -3.66921 -2.4662 0
M  V30 5162 N 493.685 -0.035106 -1.57561 0
M  V30 5163 C 494.925 0.646316 -1.93913 0
M  V30 5164 C 495.289 1.68947 -0.912185 0
M  V30 5165 O 496.49 2.42381 -1.1621 0
M  V30 5166 C 494.761 1.24136 -3.35149 0
M  V30 5167 S 496.32 1.94302 -3.93436 0
M  V30 5168 H 493.138 0.212642 -0.678457 0
M  V30 5169 H 495.74 -0.100203 -1.95243 0
M  V30 5170 H 494.444 0.46979 -4.07702 0
M  V30 5171 H 493.975 2.02505 -3.37276 0
M  V30 5172 H 495.99 3.22205 -3.77357 0
M  V30 5173 N 495.163 1.55791 0.238111 0
M  V30 5174 C 496.073 1.94196 1.31625 0
M  V30 5175 C 497.089 0.843545 1.52185 0
M  V30 5176 O 498.265 1.1457 1.65637 0
M  V30 5177 C 495.33 2.2365 2.64918 0
M  V30 5178 C 494.391 3.46971 2.52804 0
M  V30 5179 C 493.624 3.7501 3.79741 0
M  V30 5180 O 493.847 3.04982 4.82019 0
M  V30 5181 O 492.781 4.68525 3.77846 0
M  V30 5182 H 496.607 2.86044 1.02043 0
M  V30 5183 H 494.192 1.42786 0.439603 0
M  V30 5184 H 496.074 2.43863 3.4367 0
M  V30 5185 H 494.749 1.34979 2.94215 0
M  V30 5186 H 493.656 3.32055 1.72309 0
M  V30 5187 H 494.989 4.35971 2.28451 0
M  V30 5188 N 496.642 -0.504142 1.49319 0
M  V30 5189 C 497.867 -1.28729 1.62615 0
M  V30 5190 C 498.292 -1.85752 0.296309 0
M  V30 5191 O 497.65 -1.65704 -0.735649 0
M  V30 5192 C 497.698 -2.39561 2.69524 0
M  V30 5193 O 496.802 -3.43324 2.28478 0
M  V30 5194 H 496.143 -0.380172 0.544395 0
M  V30 5195 H 498.673 -0.603872 1.95485 0
M  V30 5196 H 498.683 -2.8537 2.91595 0
M  V30 5197 H 497.358 -1.97423 3.66056 0
M  V30 5198 H 495.935 -3.03455 2.16725 0
M  V30 5199 N 498.12 -1.38341 -0.754957 0
M  V30 5200 C 499.05 -1.38176 -1.88227 0
M  V30 5201 C 500.031 -0.247873 -1.68284 0
M  V30 5202 O 501.216 -0.45075 -1.88896 0
M  V30 5203 C 498.346 -1.20471 -3.25736 0
M  V30 5204 C 497.3 -2.3105 -3.60278 0
M  V30 5205 C 496.626 -1.98452 -4.96509 0
M  V30 5206 C 497.926 -3.73305 -3.65295 0
M  V30 5207 H 499.62 -2.32512 -1.88622 0
M  V30 5208 H 497.166 -1.1192 -0.906082 0
M  V30 5209 H 499.119 -1.18982 -4.04254 0
M  V30 5210 H 497.843 -0.225965 -3.25817 0
M  V30 5211 H 496.502 -2.31723 -2.84078 0
M  V30 5212 H 496.15 -0.990641 -4.93148 0
M  V30 5213 H 495.85 -2.7251 -5.20588 0
M  V30 5214 H 497.374 -1.98578 -5.77407 0
M  V30 5215 H 498.788 -3.7467 -4.3393 0
M  V30 5216 H 497.185 -4.46557 -4.00883 0
M  V30 5217 H 498.255 -4.05719 -2.65556 0
M  V30 5218 N 499.598 0.982988 -1.23187 0
M  V30 5219 C 500.528 2.09301 -1.03515 0
M  V30 5220 C 501.509 1.70035 0.0471136 0
M  V30 5221 O 502.694 1.93847 -0.117029 0
M  V30 5222 C 499.824 3.4167 -0.622791 0
M  V30 5223 C 498.778 3.94828 -1.65211 0
M  V30 5224 C 498.104 5.23362 -1.09527 0
M  V30 5225 C 499.404 4.2439 -3.04451 0
M  V30 5226 H 501.098 2.26016 -1.96359 0
M  V30 5227 H 498.644 1.08611 -0.945501 0
M  V30 5228 H 500.597 4.18746 -0.472233 0
M  V30 5229 H 499.321 3.24811 0.341329 0
M  V30 5230 H 497.98 3.19895 -1.79061 0
M  V30 5231 H 497.628 5.02852 -0.122211 0
M  V30 5232 H 497.328 5.59895 -1.783 0
M  V30 5233 H 498.852 6.03062 -0.956511 0
M  V30 5234 H 500.266 4.92225 -2.93917 0
M  V30 5235 H 498.663 4.72118 -3.70438 0
M  V30 5236 H 499.733 3.31765 -3.53638 0
M  V30 5237 N 501.076 1.04316 1.18135 0
M  V30 5238 C 502.039 0.640794 2.2006 0
M  V30 5239 C 503.039 -0.303124 1.57917 0
M  V30 5240 O 504.229 -0.0881855 1.73977 0
M  V30 5241 C 501.361 -0.060148 3.40847 0
M  V30 5242 H 502.554 1.54281 2.57172 0
M  V30 5243 H 500.107 0.836004 1.32063 0
M  V30 5244 H 500.842 -0.975845 3.0927 0
M  V30 5245 H 500.627 0.618319 3.87194 0
M  V30 5246 H 502.117 -0.328082 4.16309 0
M  V30 5247 N 502.554 -1.34406 0.822964 0
M  V30 5248 C 503.484 -2.32052 0.259608 0
M  V30 5249 C 504.465 -1.58243 -0.623961 0
M  V30 5250 O 505.65 -1.86224 -0.55083 0
M  V30 5251 C 502.78 -3.42434 -0.579314 0
M  V30 5252 C 501.734 -4.27499 0.20712 0
M  V30 5253 C 501.06 -5.29349 -0.754547 0
M  V30 5254 C 502.36 -5.02758 1.41533 0
M  V30 5255 H 504.054 -2.79418 1.07545 0
M  V30 5256 H 501.6 -1.34338 0.518593 0
M  V30 5257 H 503.553 -4.0976 -0.983612 0
M  V30 5258 H 502.277 -2.93717 -1.4282 0
M  V30 5259 H 500.936 -3.61776 0.592787 0
M  V30 5260 H 500.584 -4.76895 -1.59939 0
M  V30 5261 H 500.284 -5.8714 -0.232561 0
M  V30 5262 H 501.808 -5.99544 -1.1567 0
M  V30 5263 H 503.222 -5.62938 1.08504 0
M  V30 5264 H 501.619 -5.70123 1.87296 0
M  V30 5265 H 502.689 -4.32451 2.1935 0
M  V30 5266 N 504.032 -0.577932 -1.46621 0
M  V30 5267 C 505.278 -0.0617793 -2.02706 0
M  V30 5268 C 505.611 1.29294 -1.44903 0
M  V30 5269 O 504.886 1.8461 -0.61232 0
M  V30 5270 C 505.169 0.00911824 -3.60099 0
M  V30 5271 C 505.022 -1.37416 -4.28295 0
M  V30 5272 C 506.341 0.712159 -4.343 0
M  V30 5273 H 503.46 -0.0239246 -0.736612 0
M  V30 5274 H 506.102 -0.744211 -1.74818 0
M  V30 5275 H 504.252 0.590292 -3.83989 0
M  V30 5276 H 505.924 -2.00013 -4.15683 0
M  V30 5277 H 504.167 -1.94319 -3.87843 0
M  V30 5278 H 504.838 -1.27707 -5.37024 0
M  V30 5279 H 507.314 0.218486 -4.15526 0
M  V30 5280 H 506.19 0.730782 -5.44014 0
M  V30 5281 H 506.451 1.77251 -4.05012 0
M  V30 5282 N 505.51 1.54411 -0.315457 0
M  V30 5283 C 506.44 2.27002 0.547039 0
M  V30 5284 C 507.421 1.27492 1.12605 0
M  V30 5285 O 508.606 1.5629 1.15269 0
M  V30 5286 C 505.736 3.02171 1.71201 0
M  V30 5287 C 504.69 4.0895 1.26268 0
M  V30 5288 C 504.016 4.71915 2.51396 0
M  V30 5289 C 505.316 5.20891 0.383419 0
M  V30 5290 H 507.01 2.99343 -0.0584517 0
M  V30 5291 H 504.556 1.4397 -0.0295527 0
M  V30 5292 H 506.509 3.51681 2.32161 0
M  V30 5293 H 505.233 2.27433 2.34397 0
M  V30 5294 H 503.892 3.60312 0.676062 0
M  V30 5295 H 503.54 3.93801 3.12937 0
M  V30 5296 H 503.24 5.44039 2.22026 0
M  V30 5297 H 504.764 5.24195 3.13133 0
M  V30 5298 H 506.178 5.66206 0.899082 0
M  V30 5299 H 504.575 5.99821 0.182857 0
M  V30 5300 H 505.645 4.81324 -0.587821 0
M  V30 5301 N 506.988 0.0434614 1.5754 0
M  V30 5302 C 507.951 -0.918696 2.09982 0
M  V30 5303 C 508.951 -1.24488 1.01781 0
M  V30 5304 O 510.141 -1.18284 1.27885 0
M  V30 5305 C 507.273 -2.23093 2.57764 0
M  V30 5306 H 508.466 -0.464229 2.96285 0
M  V30 5307 H 506.019 -0.204818 1.54952 0
M  V30 5308 H 506.754 -2.73137 1.74832 0
M  V30 5309 H 506.539 -2.00724 3.36827 0
M  V30 5310 H 508.029 -2.92028 2.98512 0
M  V30 5311 N 508.466 -1.55915 -0.229846 0
M  V30 5312 C 509.743 -1.6932 -0.979295 0
M  V30 5313 C 510.123 -0.588321 -2.02736 0
M  V30 5314 O 509.471 0.40586 -2.24867 0
M  V30 5315 C 509.681 -3.10305 -1.59724 0
M  V30 5316 C 511.029 -3.6945 -2.09264 0
M  V30 5317 O 512.053 -3.13214 -1.69633 0
M  V30 5318 O 510.912 -4.68072 -2.82082 0
M  V30 5319 H 508.006 -0.689314 -0.456919 0
M  V30 5320 H 510.552 -1.68238 -0.222283 0
M  V30 5321 H 509.324 -3.82177 -0.840039 0
M  V30 5322 H 508.947 -3.1547 -2.42001 0
M  V30 5323 N 509.944 0.496216 -1.49584 0
M  V30 5324 C 510.877 1.61508 -1.61215 0
M  V30 5325 C 511.855 1.55927 -0.461045 0
M  V30 5326 O 513.039 1.75914 -0.677231 0
M  V30 5327 C 510.166 3.00035 -1.57152 0
M  V30 5328 C 509.212 3.23861 -2.77518 0
M  V30 5329 S 510.045 3.06466 -4.39134 0
M  V30 5330 C 511.201 4.4738 -4.37724 0
M  V30 5331 H 511.434 1.51398 -2.55863 0
M  V30 5332 H 508.967 0.681727 -1.38535 0
M  V30 5333 H 510.925 3.7991 -1.55494 0
M  V30 5334 H 509.586 3.07556 -0.637834 0
M  V30 5335 H 508.779 4.25 -2.70908 0
M  V30 5336 H 508.381 2.51716 -2.76614 0
M  V30 5337 H 510.673 5.39556 -4.09738 0
M  V30 5338 H 511.616 4.59038 -5.39156 0
M  V30 5339 H 512.024 4.28283 -3.67742 0
M  V30 5340 N 511.423 1.38739 0.74761 0
M  V30 5341 C 512.669 1.35475 1.50912 0
M  V30 5342 C 513.002 -0.0533093 1.94127 0
M  V30 5343 O 512.277 -1.01572 1.65871 0
M  V30 5344 C 512.56 2.31582 2.75757 0
M  V30 5345 C 512.413 3.81274 2.38642 0
M  V30 5346 C 513.732 2.25722 3.77806 0
M  V30 5347 H 510.851 0.493427 0.547447 0
M  V30 5348 H 513.493 1.69634 0.855823 0
M  V30 5349 H 511.643 2.02582 3.31501 0
M  V30 5350 H 513.315 4.20972 1.88626 0
M  V30 5351 H 511.558 3.98664 1.71025 0
M  V30 5352 H 512.229 4.4399 3.27989 0
M  V30 5353 H 514.705 2.51336 3.31616 0
M  V30 5354 H 513.581 2.95069 4.62845 0
M  V30 5355 H 513.842 1.25803 4.23823 0
M  V30 5356 N 512.901 -0.976442 1.23707 0
M  V30 5357 C 513.831 -2.08749 1.04624 0
M  V30 5358 C 514.812 -1.70057 -0.0380956 0
M  V30 5359 O 515.997 -1.93782 0.127308 0
M  V30 5360 C 513.127 -3.41335 0.640902 0
M  V30 5361 C 512.081 -3.93947 1.67302 0
M  V30 5362 C 511.407 -5.22774 1.12301 0
M  V30 5363 C 512.707 -4.22769 3.06697 0
M  V30 5364 H 514.401 -2.24972 1.97555 0
M  V30 5365 H 511.947 -1.08108 0.951247 0
M  V30 5366 H 513.9 -4.18489 0.494434 0
M  V30 5367 H 512.624 -3.24988 -0.324099 0
M  V30 5368 H 511.283 -3.18941 1.80755 0
M  V30 5369 H 510.931 -5.0278 0.148877 0
M  V30 5370 H 510.631 -5.58942 1.81267 0
M  V30 5371 H 512.155 -6.02546 0.988479 0
M  V30 5372 H 513.569 -4.90659 2.96524 0
M  V30 5373 H 511.966 -4.70147 3.72937 0
M  V30 5374 H 513.036 -3.29885 3.55392 0
M  V30 5375 N 514.379 -1.04941 -1.1758 0
M  V30 5376 C 515.309 -0.669172 -2.23706 0
M  V30 5377 C 516.29 0.331835 -1.66832 0
M  V30 5378 O 517.475 0.209988 -1.93061 0
M  V30 5379 C 514.605 -0.0404889 -3.47276 0
M  V30 5380 C 513.559 -0.965983 -4.16957 0
M  V30 5381 C 512.885 -0.201312 -5.34321 0
M  V30 5382 C 514.185 -2.28902 -4.69469 0
M  V30 5383 H 515.879 -1.55639 -2.55767 0
M  V30 5384 H 513.425 -0.749793 -1.22939 0
M  V30 5385 H 515.378 0.237298 -4.20731 0
M  V30 5386 H 514.102 0.881658 -3.14475 0
M  V30 5387 H 512.761 -1.22829 -3.45411 0
M  V30 5388 H 512.409 0.723519 -4.97769 0
M  V30 5389 H 512.109 -0.817968 -5.81879 0
M  V30 5390 H 513.633 0.0692499 -6.10561 0
M  V30 5391 H 515.047 -2.07132 -5.34574 0
M  V30 5392 H 513.444 -2.85942 -5.27596 0
M  V30 5393 H 514.514 -2.92937 -3.86414 0
M  V30 5394 N 515.857 1.33968 -0.830081 0
M  V30 5395 C 516.805 2.31301 -0.245435 0
M  V30 5396 C 517.799 1.57734 0.617762 0
M  V30 5397 O 519.005 1.72674 0.508303 0
M  V30 5398 H 515.38 0.749552 -0.0606316 0
M  V30 5399 H 517.351 2.78129 -1.08105 0
M  V30 5400 C 516.1 3.42961 0.572084 0
M  V30 5401 H 515.423 3.99714 -0.0828118 0
M  V30 5402 H 516.863 4.13286 0.94715 0
M  V30 5403 C 515.322 2.88043 1.74737 0
M  V30 5404 O 515.852 2.83508 2.8458 0
M  V30 5405 N 514.058 2.44768 1.56642 0
M  V30 5406 H 513.605 2.48656 0.672901 0
M  V30 5407 H 513.563 2.08375 2.3543 0
M  V30 5408 N 517.335 0.585699 1.46312 0
M  V30 5409 C 518.265 -0.133556 2.33118 0
M  V30 5410 C 519.246 -0.880707 1.45525 0
M  V30 5411 O 520.431 -0.855579 1.74337 0
M  V30 5412 C 517.561 -1.14585 3.27853 0
M  V30 5413 C 516.515 -0.513341 4.2491 0
M  V30 5414 C 515.841 -1.63231 5.09175 0
M  V30 5415 C 517.141 0.551413 5.19381 0
M  V30 5416 H 518.835 0.59121 2.93505 0
M  V30 5417 H 516.381 0.285761 1.41136 0
M  V30 5418 H 518.334 -1.65741 3.87438 0
M  V30 5419 H 517.058 -1.90093 2.65579 0
M  V30 5420 H 515.717 -0.0228349 3.66593 0
M  V30 5421 H 515.365 -2.37713 4.43285 0
M  V30 5422 H 515.065 -1.21473 5.74907 0
M  V30 5423 H 516.589 -2.14658 5.71624 0
M  V30 5424 H 518.003 0.124804 5.73164 0
M  V30 5425 H 516.4 0.889486 5.93471 0
M  V30 5426 H 517.47 1.43655 4.63132 0
M  V30 5427 N 518.813 -1.54241 0.323641 0
M  V30 5428 C 520.041 -2.04985 -0.280871 0
M  V30 5429 C 520.456 -1.19978 -1.45777 0
M  V30 5430 O 519.813 -0.230471 -1.81039 0
M  V30 5431 C 519.864 -3.54353 -0.715258 0
M  V30 5432 O 519.585 -4.36132 0.414817 0
M  V30 5433 C 521.086 -4.21189 -1.38257 0
M  V30 5434 H 518.306 -0.66851 -0.0577502 0
M  V30 5435 H 520.85 -1.99029 0.469852 0
M  V30 5436 H 519.005 -3.60596 -1.41596 0
M  V30 5437 H 519.419 -5.2445 0.0725227 0
M  V30 5438 H 520.893 -5.27154 -1.63745 0
M  V30 5439 H 521.37 -3.72307 -2.32989 0
M  V30 5440 H 521.976 -4.19085 -0.724447 0
M  V30 5441 N 520.291 -0.0518155 -1.57515 0
M  V30 5442 C 521.516 0.634896 -1.97443 0
M  V30 5443 C 521.941 1.63546 -0.929207 0
M  V30 5444 O 521.299 1.80981 0.107484 0
M  V30 5445 C 521.347 1.29765 -3.36442 0
M  V30 5446 O 520.451 2.41333 -3.34413 0
M  V30 5447 H 519.792 0.164994 -0.643174 0
M  V30 5448 H 522.322 -0.120407 -2.04245 0
M  V30 5449 H 522.332 1.64918 -3.73184 0
M  V30 5450 H 521.007 0.564361 -4.12053 0
M  V30 5451 H 519.584 2.08122 -3.09418 0
M  V30 5452 N 521.769 1.56035 0.221574 0
M  V30 5453 C 522.716 1.92413 1.27459 0
M  V30 5454 C 523.686 0.781323 1.46576 0
M  V30 5455 O 524.871 1.03721 1.60145 0
M  V30 5456 C 522.011 2.24617 2.61995 0
M  V30 5457 C 521.124 3.51831 2.50677 0
M  V30 5458 C 520.259 3.73482 3.77736 0
M  V30 5459 C 519.298 4.94211 3.6114 0
M  V30 5460 N 518.435 5.12252 4.80148 0
M  V30 5461 H 523.275 2.82203 0.957355 0
M  V30 5462 H 520.812 1.39676 0.461415 0
M  V30 5463 H 522.77 2.41298 3.40339 0
M  V30 5464 H 521.4 1.38 2.91815 0
M  V30 5465 H 520.452 3.43343 1.63767 0
M  V30 5466 H 521.764 4.40328 2.34334 0
M  V30 5467 H 520.918 3.9026 4.64523 0
M  V30 5468 H 519.657 2.83266 3.97003 0
M  V30 5469 H 518.662 4.77384 2.72736 0
M  V30 5470 H 519.887 5.85912 3.43343 0
M  V30 5471 H 517.833 4.24978 4.99729 0
M  V30 5472 H 517.75 5.94881 4.66532 0
M  V30 5473 H 519.018 5.33465 5.68362 0
M  V30 5474 N 523.247 -0.488276 1.49845 0
M  V30 5475 C 524.496 -1.23826 1.59217 0
M  V30 5476 C 524.809 -1.93439 0.289966 0
M  V30 5477 O 526.015 -2.70229 0.262382 0
M  V30 5478 C 524.471 -2.24902 2.80976 0
M  V30 5479 C 524.079 -1.6117 4.18005 0
M  V30 5480 C 525.823 -3.00648 2.99685 0
M  V30 5481 C 523.73 -2.60431 5.3097 0
M  V30 5482 H 522.66 -0.465858 0.592868 0
M  V30 5483 H 525.311 -0.510645 1.76252 0
M  V30 5484 H 523.693 -3.0088 2.57463 0
M  V30 5485 H 524.867 -0.910968 4.51706 0
M  V30 5486 H 523.182 -0.97767 4.0476 0
M  V30 5487 H 525.779 -3.74903 3.81251 0
M  V30 5488 H 526.122 -3.5902 2.10738 0
M  V30 5489 H 526.655 -2.31784 3.23297 0
M  V30 5490 H 523.394 -2.06823 6.22017 0
M  V30 5491 H 522.914 -3.28707 5.01709 0
M  V30 5492 H 524.593 -3.22606 5.60834 0
M  V30 5493 N 524.725 -1.39134 -0.740242 0
M  V30 5494 C 525.635 -1.39697 -1.88473 0
M  V30 5495 C 526.651 -0.292403 -1.71526 0
M  V30 5496 O 527.827 -0.533021 -1.94219 0
M  V30 5497 C 524.892 -1.23382 -3.24003 0
M  V30 5498 C 523.953 -2.43763 -3.53381 0
M  V30 5499 C 523.186 -2.28216 -4.82445 0
M  V30 5500 O 523.409 -1.28288 -5.55786 0
M  V30 5501 O 522.343 -3.1709 -5.11603 0
M  V30 5502 H 526.169 -2.36159 -1.90952 0
M  V30 5503 H 523.754 -1.20194 -0.887346 0
M  V30 5504 H 525.636 -1.16395 -4.05006 0
M  V30 5505 H 524.311 -0.300121 -3.22306 0
M  V30 5506 H 523.218 -2.56325 -2.72485 0
M  V30 5507 H 524.551 -3.35808 -3.59852 0
M  V30 5508 N 526.204 0.969867 -1.24223 0
M  V30 5509 C 527.434 1.74502 -1.106 0
M  V30 5510 C 527.842 1.86038 0.344483 0
M  V30 5511 O 527.185 1.3465 1.24961 0
M  V30 5512 C 527.247 3.18391 -1.66935 0
M  V30 5513 C 526.911 3.30334 -3.15798 0
M  V30 5514 C 527.908 3.15832 -4.12973 0
M  V30 5515 C 525.593 3.54644 -3.55715 0
M  V30 5516 C 527.587 3.25461 -5.48045 0
M  V30 5517 C 525.274 3.63912 -4.90929 0
M  V30 5518 C 526.272 3.49332 -5.86904 0
M  V30 5519 O 525.96 3.58251 -7.1966 0
M  V30 5520 H 525.692 0.554119 -0.387206 0
M  V30 5521 H 528.246 1.22646 -1.64764 0
M  V30 5522 H 526.476 3.71543 -1.07203 0
M  V30 5523 H 528.165 3.77707 -1.48634 0
M  V30 5524 H 528.931 2.96937 -3.83476 0
M  V30 5525 H 524.81 3.65059 -2.81519 0
M  V30 5526 H 528.354 3.13998 -6.22937 0
M  V30 5527 H 524.251 3.82319 -5.20098 0
M  V30 5528 H 525.019 3.7498 -7.27552 0
M  V30 5529 N 527.682 1.05563 1.17022 0
M  V30 5530 C 528.612 0.681026 2.23348 0
M  V30 5531 C 529.593 -0.322983 1.67005 0
M  V30 5532 O 530.778 -0.199746 1.9317 0
M  V30 5533 C 527.908 0.0589053 3.4725 0
M  V30 5534 C 526.862 0.988082 4.16438 0
M  V30 5535 C 526.188 0.229646 5.34207 0
M  V30 5536 C 527.488 2.31388 4.68249 0
M  V30 5537 H 529.182 1.56993 2.54938 0
M  V30 5538 H 526.728 0.756302 1.2254 0
M  V30 5539 H 528.681 -0.214982 4.20851 0
M  V30 5540 H 527.405 -0.864968 3.14938 0
M  V30 5541 H 526.064 1.24659 3.44754 0
M  V30 5542 H 525.712 -0.697111 4.98146 0
M  V30 5543 H 525.412 0.848815 5.81437 0
M  V30 5544 H 526.936 -0.0368694 6.10589 0
M  V30 5545 H 528.35 2.09964 5.33468 0
M  V30 5546 H 526.747 2.88736 5.26072 0
M  V30 5547 H 527.817 2.94982 3.84855 0
M  V30 5548 N 529.16 -1.33526 0.837174 0
M  V30 5549 C 530.107 -2.29248 0.267169 0
M  V30 5550 C 531.077 -1.54252 -0.616071 0
M  V30 5551 O 532.262 -1.82559 -0.554699 0
M  V30 5552 C 529.402 -3.40638 -0.553152 0
M  V30 5553 C 528.515 -4.30548 0.353921 0
M  V30 5554 C 527.65 -5.29051 -0.477339 0
M  V30 5555 C 526.689 -6.106 0.42823 0
M  V30 5556 N 525.826 -7.01152 -0.364801 0
M  V30 5557 H 530.666 -2.77398 1.08877 0
M  V30 5558 H 528.203 -1.36496 0.54838 0
M  V30 5559 H 530.161 -4.03921 -1.04422 0
M  V30 5560 H 528.791 -2.93685 -1.33973 0
M  V30 5561 H 527.843 -3.68001 0.963289 0
M  V30 5562 H 529.155 -4.87631 1.04964 0
M  V30 5563 H 528.309 -5.97853 -1.0323 0
M  V30 5564 H 527.048 -4.72541 -1.2065 0
M  V30 5565 H 526.053 -5.40718 0.995219 0
M  V30 5566 H 527.278 -6.69193 1.15573 0
M  V30 5567 H 525.224 -6.47092 -1.07738 0
M  V30 5568 H 525.141 -7.5551 0.272238 0
M  V30 5569 H 526.409 -7.74263 -0.902054 0
M  V30 5570 N 530.638 -0.59345 -1.46 0
M  V30 5571 C 531.866 -0.0890934 -2.06708 0
M  V30 5572 C 532.281 1.2205 -1.44046 0
M  V30 5573 O 531.638 1.74029 -0.549551 0
M  V30 5574 C 531.689 0.0720263 -3.61428 0
M  V30 5575 O 531.41 -1.18574 -4.21748 0
M  V30 5576 C 532.911 0.609487 -4.3909 0
M  V30 5577 H 530.131 -0.0623628 -0.668096 0
M  V30 5578 H 532.675 -0.817171 -1.87464 0
M  V30 5579 H 530.83 0.750369 -3.80063 0
M  V30 5580 H 531.244 -1.0064 -5.14754 0
M  V30 5581 H 532.718 0.671363 -5.47902 0
M  V30 5582 H 533.195 1.62878 -4.07882 0
M  V30 5583 H 533.801 -0.03434 -4.25286 0
M  V30 5584 N 532.116 1.54067 -0.331816 0
M  V30 5585 C 533.365 1.99895 0.269209 0
M  V30 5586 C 533.678 1.22371 1.52593 0
M  V30 5587 O 534.884 1.58618 2.20347 0
M  V30 5588 C 533.34 3.55972 0.530244 0
M  V30 5589 C 532.948 4.4234 -0.709901 0
M  V30 5590 C 534.692 4.10247 1.09077 0
M  V30 5591 C 532.599 5.89905 -0.420312 0
M  V30 5592 H 531.529 0.746741 0.104371 0
M  V30 5593 H 534.18 1.78014 -0.445324 0
M  V30 5594 H 532.562 3.73873 1.30518 0
M  V30 5595 H 533.736 4.36215 -1.48504 0
M  V30 5596 H 532.051 3.98997 -1.19123 0
M  V30 5597 H 534.648 5.18095 1.32219 0
M  V30 5598 H 534.991 3.62739 2.0427 0
M  V30 5599 H 535.524 3.96011 0.376824 0
M  V30 5600 H 532.263 6.41623 -1.34164 0
M  V30 5601 H 531.783 5.98962 0.316962 0
M  V30 5602 H 533.462 6.46991 -0.0331956 0
M  V30 5603 N 533.594 0.0601682 1.57485 0
M  V30 5604 C 534.824 -0.620037 1.97076 0
M  V30 5605 C 535.232 -1.64381 0.936784 0
M  V30 5606 O 534.575 -1.83497 -0.0863377 0
M  V30 5607 C 534.637 -1.35617 3.32939 0
M  V30 5608 C 534.301 -0.487208 4.54396 0
M  V30 5609 C 535.298 0.250428 5.19297 0
M  V30 5610 C 532.983 -0.415494 5.00579 0
M  V30 5611 C 534.977 1.04812 6.28723 0
M  V30 5612 C 532.664 0.385879 6.0988 0
M  V30 5613 C 533.662 1.11637 6.73815 0
M  V30 5614 O 533.35 1.90454 7.81014 0
M  V30 5615 H 533.082 -0.173664 0.653312 0
M  V30 5616 H 535.636 0.1256 2.05016 0
M  V30 5617 H 533.866 -2.14763 3.2158 0
M  V30 5618 H 535.555 -1.92749 3.57215 0
M  V30 5619 H 536.321 0.204546 4.84568 0
M  V30 5620 H 532.2 -0.973679 4.506 0
M  V30 5621 H 535.744 1.6188 6.78558 0
M  V30 5622 H 531.641 0.433366 6.44044 0
M  V30 5623 H 532.409 1.82762 7.97835 0
M  V30 5624 N 535.072 -1.5615 -0.213296 0
M  V30 5625 C 536.02 -1.93953 -1.28394 0
M  V30 5626 C 537.014 -0.822592 -1.48087 0
M  V30 5627 O 538.22 -1.00748 -1.49164 0
M  V30 5628 H 534.595 -0.61648 -0.430646 0
M  V30 5629 H 536.566 -2.83275 -0.937977 0
M  V30 5630 C 535.315 -2.27969 -2.62537 0
M  V30 5631 H 534.638 -3.13432 -2.48194 0
M  V30 5632 H 536.078 -2.58297 -3.36242 0
M  V30 5633 C 534.537 -1.10775 -3.18167 0
M  V30 5634 O 535.067 -0.373201 -3.99963 0
M  V30 5635 N 533.273 -0.889377 -2.76656 0
M  V30 5636 H 532.82 -1.48843 -2.10246 0
M  V30 5637 H 532.778 -0.107 -3.14218 0
M  V30 5638 N 536.55 0.480323 -1.50102 0
M  V30 5639 C 537.46 1.60547 -1.71061 0
M  V30 5640 C 538.476 1.63564 -0.593529 0
M  V30 5641 O 539.652 1.81604 -0.870751 0
M  V30 5642 C 536.717 2.96814 -1.79171 0
M  V30 5643 C 535.778 3.04259 -3.02861 0
M  V30 5644 C 535.011 4.34027 -3.10574 0
M  V30 5645 O 535.234 5.24009 -2.25323 0
M  V30 5646 O 534.168 4.46873 -4.03223 0
M  V30 5647 H 537.994 1.45788 -2.6642 0
M  V30 5648 H 535.579 0.658838 -1.34088 0
M  V30 5649 H 537.461 3.77765 -1.86738 0
M  V30 5650 H 536.136 3.11791 -0.869947 0
M  V30 5651 H 535.043 2.22419 -3.008 0
M  V30 5652 H 536.376 2.94216 -3.94586 0
M  V30 5653 N 538.028 1.39524 0.732853 0
M  V30 5654 C 538.976 1.38563 1.86824 0
M  V30 5655 C 539.97 0.268467 1.67259 0
M  V30 5656 O 541.176 0.438613 1.74574 0
M  V30 5657 H 537.551 0.432737 0.615014 0
M  V30 5658 H 539.522 2.34328 1.84751 0
M  V30 5659 C 538.271 1.2481 3.24527 0
M  V30 5660 H 537.594 2.10044 3.40179 0
M  V30 5661 H 539.034 1.28194 4.04156 0
M  V30 5662 C 537.493 -0.0432825 3.36872 0
M  V30 5663 O 538.023 -1.01268 3.88726 0
M  V30 5664 N 536.229 -0.107055 2.90403 0
M  V30 5665 H 535.776 0.682512 2.48394 0
M  V30 5666 H 535.734 -0.970618 2.99042 0
M  V30 5667 O 539.545 -0.874016 1.35806 0
M  V30 5668 H 540.236 -1.51229 1.21035 0
M  V30 END ATOM
M  V30 BEGIN BOND
M  V30 END BOND
M  V30 END CTAB
M  END
$$$$
